drugbank_target|O14788 Tumor necrosis factor ligand superfamily member 11 (DB00480; DB06511; DB06643; DB11582)
 OpenBabel12092120333D

  0  0  0     0  0            999 V3000
M  V30 BEGIN CTAB
M  V30 COUNTS 4932 4999 0 0 0
M  V30 BEGIN ATOM
M  V30 1 H -0.908 1.98254 -0.117106 0
M  V30 2 N 0 1.576 0 0
M  V30 3 C 0.933 2.03868 1.02534 0
M  V30 4 C 1.911 0.928543 1.3348 0
M  V30 5 O 3.095 1.19667 1.45644 0
M  V30 6 C 0.222 2.43627 2.35294 0
M  V30 7 C -0.732 3.65373 2.2001 0
M  V30 8 S 0.101 5.13292 1.52614 0
M  V30 9 C 1.257 5.56322 2.86805 0
M  V30 10 H 1.49 2.90518 0.631377 0
M  V30 11 H -0.977 1.52953 0.210867 0
M  V30 12 H 0.981 2.67203 3.11629 0
M  V30 13 H -0.358 1.57376 2.7183 0
M  V30 14 H -1.165 3.90944 3.18086 0
M  V30 15 H -1.563 3.418 1.51819 0
M  V30 16 H 0.729 5.58782 3.83104 0
M  V30 17 H 1.672 6.56266 2.65933 0
M  V30 18 H 2.08 4.83886 2.90714 0
M  V30 19 N 1.4781 -0.272755 1.55222 0
M  V30 20 C 2.8941 -0.619959 1.47067 0
M  V30 21 C 3.0941 -1.895 0.684978 0
M  V30 22 O 2.1501 -2.51675 0.203931 0
M  V30 23 C 3.4631 -0.746693 2.91282 0
M  V30 24 C 5.0111 -0.840731 3.01497 0
M  V30 25 C 5.4861 -0.99924 4.46967 0
M  V30 26 N 6.9771 -1.06476 4.50796 0
M  V30 27 C 7.7121 -1.20621 5.6057 0
M  V30 28 N 7.2081 -1.31483 6.80209 0
M  V30 29 N 9.0011 -1.23733 5.48312 0
M  V30 30 H 1.1521 0.564606 2.04758 0
M  V30 31 H 3.4151 0.191177 0.928523 0
M  V30 32 H 3.1211 0.119753 3.51496 0
M  V30 33 H 2.9951 -1.6269 3.40311 0
M  V30 34 H 5.3821 -1.69764 2.41379 0
M  V30 35 H 5.4631 0.0640874 2.5572 0
M  V30 36 H 5.1071 -0.146984 5.07687 0
M  V30 37 H 5.0371 -1.91871 4.90401 0
M  V30 38 H 7.5281 -0.993196 3.64615 0
M  V30 39 H 7.8411 -1.42111 7.59621 0
M  V30 40 H 6.1861 -1.28487 6.8302 0
M  V30 41 H 9.3771 -1.14877 4.53785 0
M  V30 42 H 9.5501 -1.34412 6.33906 0
M  V30 43 N 2.9562 -1.48159 -0.537278 0
M  V30 44 C 4.3722 -1.34118 -0.865129 0
M  V30 45 C 4.5722 -0.346678 -1.98495 0
M  V30 46 O 3.6282 0.234715 -2.51407 0
M  V30 47 C 4.9412 -2.73963 -1.23954 0
M  V30 48 C 6.4892 -2.82397 -1.34984 0
M  V30 49 C 6.9642 -4.22928 -1.75772 0
M  V30 50 N 8.4552 -4.25566 -1.82887 0
M  V30 51 C 9.1902 -5.31235 -2.15817 0
M  V30 52 N 8.6862 -6.47189 -2.47222 0
M  V30 53 N 10.4792 -5.18624 -2.16761 0
M  V30 54 H 2.6302 -2.1144 0.201715 0
M  V30 55 H 4.8932 -0.947598 0.0275949 0
M  V30 56 H 4.5992 -3.48264 -0.490381 0
M  V30 57 H 4.4732 -3.0702 -2.19132 0
M  V30 58 H 6.8602 -2.08356 -2.08978 0
M  V30 59 H 6.9412 -2.5297 -0.379448 0
M  V30 60 H 6.5852 -4.97482 -1.02341 0
M  V30 61 H 6.5152 -4.49794 -2.73848 0
M  V30 62 H 9.0062 -3.41924 -1.60924 0
M  V30 63 H 9.3192 -7.23564 -2.71433 0
M  V30 64 H 7.6642 -6.50476 -2.44757 0
M  V30 65 H 10.8552 -4.27056 -1.91679 0
M  V30 66 H 11.0282 -6.01078 -2.42093 0
M  V30 67 N 4.4343 0.785586 -1.36625 0
M  V30 68 C 5.3973 1.87999 -1.31107 0
M  V30 69 C 6.3973 1.59316 -0.217959 0
M  V30 70 O 7.5873 1.67656 -0.472977 0
M  V30 71 C 4.7193 3.24861 -1.03334 0
M  V30 72 H 5.9123 1.94307 -2.2844 0
M  V30 73 H 3.4653 0.983813 -1.21453 0
M  V30 74 H 4.2003 3.24235 -0.0647432 0
M  V30 75 H 3.9853 3.4707 -1.82441 0
M  V30 76 H 5.4753 4.04929 -1.02088 0
M  V30 77 N 5.9124 1.20967 1.01018 0
M  V30 78 C 7.1374 1.0503 1.78839 0
M  V30 79 C 7.5624 -0.395752 1.8389 0
M  V30 80 O 6.9204 -1.28529 1.27867 0
M  V30 81 C 6.9684 1.64602 3.2084 0
M  V30 82 O 6.0724 0.887988 4.02726 0
M  V30 83 H 5.4134 0.369987 0.551367 0
M  V30 84 H 7.9434 1.60399 1.27018 0
M  V30 85 H 7.9534 1.68607 3.71532 0
M  V30 86 H 6.6284 2.69841 3.16479 0
M  V30 87 H 5.2054 0.922648 3.61305 0
M  V30 88 N 7.3905 -1.2043 1.01659 0
M  V30 89 C 8.8065 -1.41852 0.731442 0
M  V30 90 C 9.0065 -1.89358 -0.688898 0
M  V30 91 O 8.0625 -2.06247 -1.45666 0
M  V30 92 C 9.3755 -2.44019 1.75714 0
M  V30 93 C 10.9235 -2.57785 1.77527 0
M  V30 94 C 11.3985 -3.63194 2.79023 0
M  V30 95 N 12.8895 -3.70678 2.77763 0
M  V30 96 C 13.6245 -4.51897 3.52954 0
M  V30 97 N 13.1205 -5.36921 4.37821 0
M  V30 98 N 14.9135 -4.4643 3.41551 0
M  V30 99 H 7.0645 -0.879093 1.93354 0
M  V30 100 H 9.3275 -0.448425 0.835236 0
M  V30 101 H 9.0335 -2.1611 2.77469 0
M  V30 102 H 8.9075 -3.43007 1.56927 0
M  V30 103 H 11.2945 -2.85023 0.764569 0
M  V30 104 H 11.3755 -1.58992 2.00387 0
M  V30 105 H 11.0195 -3.36699 3.80258 0
M  V30 106 H 10.9495 -4.61609 2.53425 0
M  V30 107 H 13.4405 -3.09944 2.16201 0
M  V30 108 H 13.7535 -5.95981 4.91962 0
M  V30 109 H 12.0985 -5.36424 4.41899 0
M  V30 110 H 15.2895 -3.79042 2.74672 0
M  V30 111 H 15.4625 -5.09491 4.00404 0
M  V30 112 N 8.8686 -0.792821 -1.36206 0
M  V30 113 C 10.1456 -0.290627 -1.93429 0
M  V30 114 C 10.5256 1.21773 -1.72437 0
M  V30 115 O 9.8736 2.0108 -1.08531 0
M  V30 116 C 10.0836 -0.686973 -3.42172 0
M  V30 117 C 11.4316 -0.668643 -4.19302 0
M  V30 118 O 12.4556 -0.627658 -3.50626 0
M  V30 119 O 11.3146 -0.714597 -5.41808 0
M  V30 120 H 8.4086 -0.0727927 -0.82379 0
M  V30 121 H 10.9546 -0.875593 -1.45367 0
M  V30 122 H 9.7266 -1.72711 -3.51122 0
M  V30 123 H 9.3496 -0.0760733 -3.97527 0
M  V30 124 N 10.3467 1.47872 -0.545128 0
M  V30 125 C 11.5767 2.06589 -0.0210534 0
M  V30 126 C 11.9847 1.39997 1.27269 0
M  V30 127 O 11.3277 0.486421 1.77143 0
M  V30 128 C 11.3897 3.58574 0.257933 0
M  V30 129 C 11.0537 4.47132 -0.944573 0
M  V30 130 C 12.0507 4.85986 -1.84699 0
M  V30 131 C 9.7357 4.88821 -1.15584 0
M  V30 132 C 11.7297 5.65314 -2.94446 0
M  V30 133 C 9.4167 5.67916 -2.25642 0
M  V30 134 C 10.4147 6.06073 -3.14905 0
M  V30 135 O 10.1027 6.83578 -4.23057 0
M  V30 136 H 9.8347 0.674971 -0.0372899 0
M  V30 137 H 12.3887 1.91037 -0.754599 0
M  V30 138 H 10.6187 3.72295 1.04564 0
M  V30 139 H 12.3077 3.99356 0.72592 0
M  V30 140 H 13.0737 4.54388 -1.69577 0
M  V30 141 H 8.9527 4.58595 -0.470279 0
M  V30 142 H 12.4967 5.95016 -3.64145 0
M  V30 143 H 8.3937 5.98927 -2.40742 0
M  V30 144 H 9.1617 7.01954 -4.20954 0
M  V30 145 N 11.8248 0.280983 1.55075 0
M  V30 146 C 13.0528 -0.337293 2.04132 0
M  V30 147 C 13.4678 -1.4903 1.15912 0
M  V30 148 O 12.8248 -1.81606 0.180459 0
M  V30 149 C 12.8758 -0.812706 3.52246 0
M  V30 150 O 12.5968 0.294387 4.3711 0
M  V30 151 C 14.0978 -1.4982 4.17216 0
M  V30 152 H 11.3178 -0.0761638 0.666663 0
M  V30 153 H 13.8618 0.414787 2.00249 0
M  V30 154 H 12.0168 -1.51486 3.56554 0
M  V30 155 H 12.4308 -0.0721325 5.2445 0
M  V30 156 H 13.9048 -1.7822 5.22438 0
M  V30 157 H 14.3818 -2.43168 3.65741 0
M  V30 158 H 14.9878 -0.839742 4.16927 0
M  V30 159 N 13.3029 -1.57598 0.00835791 0
M  V30 160 C 14.2499 -2.08945 -0.980346 0
M  V30 161 C 15.2199 -0.986738 -1.33614 0
M  V30 162 O 16.4049 -1.25968 -1.43306 0
M  V30 163 C 13.5449 -2.60425 -2.26435 0
M  V30 164 C 12.6579 -3.84628 -1.96685 0
M  V30 165 C 11.7929 -4.24579 -3.19228 0
M  V30 166 C 10.8319 -5.41596 -2.85202 0
M  V30 167 N 9.9689 -5.768 -4.00307 0
M  V30 168 H 14.8089 -2.93148 -0.535551 0
M  V30 169 H 12.3459 -1.44912 -0.252776 0
M  V30 170 H 14.3039 -2.88354 -3.01509 0
M  V30 171 H 12.9339 -1.79083 -2.68568 0
M  V30 172 H 11.9859 -3.63556 -1.11942 0
M  V30 173 H 13.2979 -4.69796 -1.67611 0
M  V30 174 H 12.4519 -4.53834 -4.02641 0
M  V30 175 H 11.1909 -3.38137 -3.51447 0
M  V30 176 H 10.1959 -5.12056 -2.00198 0
M  V30 177 H 11.4209 -6.29721 -2.54222 0
M  V30 178 H 9.3669 -4.93316 -4.32407 0
M  V30 179 H 9.2839 -6.5656 -3.74786 0
M  V30 180 H 10.5519 -6.10652 -4.84484 0
M  V30 181 N 14.781 0.264519 -1.55364 0
M  V30 182 C 16.011 1.01153 -1.80143 0
M  V30 183 C 16.419 1.80115 -0.579253 0
M  V30 184 O 15.762 1.77813 0.46132 0
M  V30 185 C 15.824 2.01098 -2.97993 0
M  V30 186 C 15.488 1.40995 -4.34706 0
M  V30 187 C 16.485 0.821316 -5.13372 0
M  V30 188 C 14.17 1.43461 -4.81378 0
M  V30 189 C 16.164 0.265339 -6.36847 0
M  V30 190 C 13.851 0.874771 -6.04807 0
M  V30 191 C 14.849 0.291146 -6.82379 0
M  V30 192 O 14.537 -0.260093 -8.03479 0
M  V30 193 H 14.269 0.304125 -0.603725 0
M  V30 194 H 16.823 0.298089 -2.03225 0
M  V30 195 H 15.053 2.76224 -2.70623 0
M  V30 196 H 16.742 2.61997 -3.1002 0
M  V30 197 H 17.508 0.794903 -4.78442 0
M  V30 198 H 13.387 1.87826 -4.21002 0
M  V30 199 H 16.931 -0.190837 -6.97339 0
M  V30 200 H 12.828 0.898452 -6.39217 0
M  V30 201 H 13.596 -0.150265 -8.18362 0
M  V30 202 N 16.2591 1.48442 0.529413 0
M  V30 203 C 17.1891 1.65902 1.64313 0
M  V30 204 C 18.1701 0.507897 1.6234 0
M  V30 205 O 19.3551 0.740503 1.79528 0
M  V30 206 C 16.4851 1.69911 3.02898 0
M  V30 207 C 15.4391 2.8453 3.19729 0
M  V30 208 C 14.7651 2.73629 4.59381 0
M  V30 209 C 16.0651 4.25821 3.02447 0
M  V30 210 H 17.7591 2.5914 1.49955 0
M  V30 211 H 15.3051 1.24709 0.719982 0
M  V30 212 H 17.2581 1.80715 3.80684 0
M  V30 213 H 15.9821 0.732524 3.18279 0
M  V30 214 H 14.6411 2.73283 2.44361 0
M  V30 215 H 14.2891 1.74938 4.71599 0
M  V30 216 H 13.9891 3.50541 4.71588 0
M  V30 217 H 15.5131 2.86401 5.39265 0
M  V30 218 H 16.9271 4.37898 3.70024 0
M  V30 219 H 15.3241 5.03735 3.26146 0
M  V30 220 H 16.3941 4.42244 1.98867 0
M  V30 221 N 17.7372 -0.778329 1.37039 0
M  V30 222 C 19.1532 -1.07796 1.17695 0
M  V30 223 C 19.3532 -2.01498 0.00860115 0
M  V30 224 O 18.4092 -2.43901 -0.653352 0
M  V30 225 C 19.7222 -1.68178 2.49272 0
M  V30 226 C 21.2702 -1.80467 2.55735 0
M  V30 227 C 21.7452 -2.44263 3.87427 0
M  V30 228 N 23.2362 -2.51721 3.88833 0
M  V30 229 C 23.9712 -3.01919 4.87476 0
M  V30 230 N 23.4672 -3.5234 5.96513 0
M  V30 231 N 25.2602 -3.00733 4.74885 0
M  V30 232 H 17.4112 -0.156032 2.11826 0
M  V30 233 H 19.6742 -0.131844 0.938787 0
M  V30 234 H 19.3802 -1.06796 3.35093 0
M  V30 235 H 19.2542 -2.67554 2.65885 0
M  V30 236 H 21.6412 -2.40984 1.70325 0
M  V30 237 H 21.7222 -0.798656 2.43013 0
M  V30 238 H 21.3662 -1.84388 4.73248 0
M  V30 239 H 21.2962 -3.45458 3.9745 0
M  V30 240 H 23.7872 -2.1603 3.10063 0
M  V30 241 H 24.1002 -3.89027 6.67741 0
M  V30 242 H 22.4452 -3.50462 6.00168 0
M  V30 243 H 25.6362 -2.60638 3.88826 0
M  V30 244 H 25.8092 -3.39545 5.51918 0
M  V30 245 N 19.2153 -1.21501 -1.00376 0
M  V30 246 C 20.4633 -1.03095 -1.73827 0
M  V30 247 C 20.7843 0.436341 -1.90055 0
M  V30 248 O 20.0543 1.31466 -1.45236 0
M  V30 249 H 18.6343 -0.378487 -0.644016 0
M  V30 250 H 21.2963 -1.52831 -1.20949 0
M  V30 251 H 20.3923 -1.49991 -2.73695 0
M  V30 252 N 20.6934 1.19889 -1.02296 0
M  V30 253 C 21.9184 1.9393 -0.735237 0
M  V30 254 C 22.3434 1.74639 0.698782 0
M  V30 255 O 21.7014 1.04481 1.48167 0
M  V30 256 C 21.7494 3.43916 -1.08417 0
M  V30 257 O 20.8534 4.11917 -0.199446 0
M  V30 258 H 20.1944 0.605645 -0.272196 0
M  V30 259 H 22.7244 1.52137 -1.36804 0
M  V30 260 H 22.7344 3.9456 -1.03856 0
M  V30 261 H 21.4094 3.5728 -2.12894 0
M  V30 262 H 19.9864 3.71666 -0.303136 0
M  V30 263 N 22.1715 0.800033 1.35784 0
M  V30 264 C 23.0815 0.207204 2.33683 0
M  V30 265 C 24.0975 -0.64631 1.61551 0
M  V30 266 O 25.2735 -0.559604 1.93469 0
M  V30 267 C 22.3385 -0.639659 3.40748 0
M  V30 268 C 21.3995 0.233585 4.28664 0
M  V30 269 C 20.6325 -0.572954 5.30616 0
M  V30 270 O 20.8555 -1.80816 5.40982 0
M  V30 271 O 19.7895 0.0327285 6.01891 0
M  V30 272 H 23.6155 1.01692 2.86169 0
M  V30 273 H 21.2005 0.561691 1.38439 0
M  V30 274 H 23.0825 -1.12223 4.06182 0
M  V30 275 H 21.7575 -1.42708 2.90544 0
M  V30 276 H 20.6645 0.763147 3.66233 0
M  V30 277 H 21.9975 0.984784 4.82248 0
M  V30 278 N 23.6496 -1.47581 0.552962 0
M  V30 279 C 24.5596 -2.33743 -0.200353 0
M  V30 280 C 25.5756 -1.47928 -0.916151 0
M  V30 281 O 26.7516 -1.80865 -0.885993 0
M  V30 282 C 23.8166 -3.24536 -1.21973 0
M  V30 283 C 22.8776 -4.26238 -0.511819 0
M  V30 284 C 22.1106 -5.12693 -1.48263 0
M  V30 285 O 22.3336 -5.01525 -2.71714 0
M  V30 286 O 21.2676 -5.93375 -1.00945 0
M  V30 287 H 25.0936 -2.9945 0.506304 0
M  V30 288 H 22.6786 -1.46071 0.313622 0
M  V30 289 H 24.5606 -3.80631 -1.80827 0
M  V30 290 H 23.2356 -2.61462 -1.90839 0
M  V30 291 H 22.1426 -3.73914 0.117799 0
M  V30 292 H 23.4756 -4.92014 0.135308 0
M  V30 293 N 25.1277 -0.289203 -1.54924 0
M  V30 294 C 26.0607 0.633823 -2.19221 0
M  V30 295 C 27.0387 1.14174 -1.15772 0
M  V30 296 O 28.2227 1.21211 -1.44361 0
M  V30 297 C 25.3497 1.86592 -2.82668 0
M  V30 298 C 24.3957 1.49227 -3.99542 0
M  V30 299 S 25.2287 0.558312 -5.32582 0
M  V30 300 C 26.3847 1.79847 -5.99505 0
M  V30 301 H 26.6177 0.0875416 -2.97171 0
M  V30 302 H 24.1507 -0.0733899 -1.54225 0
M  V30 303 H 26.1087 2.57305 -3.19851 0
M  V30 304 H 24.7697 2.38335 -2.04585 0
M  V30 305 H 23.9627 2.40945 -4.42676 0
M  V30 306 H 23.5647 0.865193 -3.63855 0
M  V30 307 H 25.8567 2.7406 -6.19595 0
M  V30 308 H 26.7997 1.4099 -6.93922 0
M  V30 309 H 27.2077 1.96982 -5.29016 0
M  V30 310 N 26.6058 1.57591 -0.0167156 0
M  V30 311 C 27.8538 1.90906 0.663285 0
M  V30 312 C 28.1748 0.892509 1.73376 0
M  V30 313 O 27.4448 -0.0677623 1.95783 0
M  V30 314 H 26.0248 0.704637 0.247983 0
M  V30 315 H 28.6868 1.94803 -0.0615909 0
M  V30 316 H 27.7828 2.9116 1.12393 0
M  V30 317 N 28.0839 -0.256276 1.55502 0
M  V30 318 C 29.3319 -0.983672 1.76545 0
M  V30 319 C 29.6529 -1.86206 0.578982 0
M  V30 320 O 28.9229 -1.91656 -0.405577 0
M  V30 321 H 27.5029 -0.366191 0.651086 0
M  V30 322 H 30.1649 -0.276479 1.92929 0
M  V30 323 H 29.2609 -1.61087 2.67315 0
M  V30 324 N 29.562 -1.4872 -0.521534 0
M  V30 325 C 30.81 -1.56857 -1.27437 0
M  V30 326 C 31.131 -0.247982 -1.93417 0
M  V30 327 O 30.401 0.731151 -1.81744 0
M  V30 328 H 28.981 -0.577885 -0.473347 0
M  V30 329 H 31.643 -1.85233 -0.606205 0
M  V30 330 H 30.739 -2.35402 -2.0492 0
M  V30 331 N 31.0401 0.771051 -1.3745 0
M  V30 332 C 32.4511 1.34737 -1.29239 0
M  V30 333 C 32.8021 1.96109 0.0596908 0
M  V30 334 O 31.9271 1.93865 0.961534 0
M  V30 335 C 32.5221 2.44973 -2.34037 0
M  V30 336 C 31.0811 2.98372 -2.29458 0
M  V30 337 C 30.2281 1.71595 -2.17831 0
M  V30 338 H 33.1791 0.571256 -1.48062 0
M  V30 339 H 33.2001 3.24471 -1.98744 0
M  V30 340 H 32.7121 2.00276 -3.32432 0
M  V30 341 H 30.8131 3.47443 -1.34589 0
M  V30 342 H 30.9261 3.53939 -3.229 0
M  V30 343 H 29.2901 1.94547 -1.64388 0
M  V30 344 H 30.0731 1.29001 -3.18141 0
M  V30 345 N 32.5182 1.22032 0.997298 0
M  V30 346 C 33.7662 1.04016 1.73278 0
M  V30 347 C 34.0872 -0.426255 1.90284 0
M  V30 348 O 33.3572 -1.30694 1.45931 0
M  V30 349 H 31.9372 0.381897 0.642 0
M  V30 350 H 34.5992 1.5347 1.20137 0
M  V30 351 H 33.6952 1.51441 2.72896 0
M  V30 352 N 33.9963 -1.19345 1.0293 0
M  V30 353 C 34.9593 -2.20793 0.615069 0
M  V30 354 C 35.9593 -1.57553 -0.321533 0
M  V30 355 O 37.1493 -1.73862 -0.108483 0
M  V30 356 C 34.2813 -3.40754 -0.0999222 0
M  V30 357 H 35.4743 -2.58955 1.51269 0
M  V30 358 H 33.0273 -1.3303 0.820534 0
M  V30 359 H 33.7623 -3.0811 -1.01187 0
M  V30 360 H 33.5473 -3.87889 0.57309 0
M  V30 361 H 35.0373 -4.15898 -0.376645 0
M  V30 362 N 35.4744 -0.807222 -1.35358 0
M  V30 363 C 36.8854 -0.44876 -1.81226 0
M  V30 364 C 37.2364 1.02929 -1.67033 0
M  V30 365 O 36.3614 1.79991 -1.20133 0
M  V30 366 C 36.9564 -0.807774 -3.2903 0
M  V30 367 C 35.5154 -0.501901 -3.73039 0
M  V30 368 C 34.6624 -1.03304 -2.57339 0
M  V30 369 H 37.6134 -0.998808 -1.23327 0
M  V30 370 H 37.6344 -0.10554 -3.80354 0
M  V30 371 H 37.1464 -1.88357 -3.39328 0
M  V30 372 H 35.2474 0.565128 -3.68289 0
M  V30 373 H 35.3604 -1.03497 -4.67787 0
M  V30 374 H 33.7244 -0.455339 -2.50597 0
M  V30 375 H 34.5074 -2.11496 -2.70415 0
M  V30 376 N 36.9525 1.47285 -0.560781 0
M  V30 377 C 37.9025 2.27073 0.205384 0
M  V30 378 C 38.8865 1.34569 0.882044 0
M  V30 379 O 40.0785 1.58899 0.77976 0
M  V30 380 C 37.2075 3.20414 1.23247 0
M  V30 381 C 36.2935 4.20399 0.559041 0
M  V30 382 N 36.6845 5.04423 -0.372927 0
M  V30 383 C 34.9825 4.38536 0.812522 0
M  V30 384 C 35.6835 5.76655 -0.764446 0
M  V30 385 N 34.6595 5.43471 -0.11848 0
M  V30 386 H 38.4615 2.89422 -0.511117 0
M  V30 387 H 35.9755 1.57868 -0.380975 0
M  V30 388 H 37.9725 3.76262 1.79534 0
M  V30 389 H 36.6325 2.59623 1.95002 0
M  V30 390 H 37.6435 5.1248 -0.747287 0
M  V30 391 H 34.3205 3.88913 1.51832 0
M  V30 392 H 35.7105 6.54238 -1.53045 0
M  V30 393 N 38.4306 0.297415 1.54768 0
M  V30 394 C 39.3406 -0.58983 2.27064 0
M  V30 395 C 40.3566 -1.15144 1.30453 0
M  V30 396 O 41.5326 -1.17699 1.63428 0
M  V30 397 C 38.5976 -1.74714 2.9946 0
M  V30 398 C 37.6586 -1.21997 4.11601 0
M  V30 399 C 36.8916 -2.32212 4.80535 0
M  V30 400 O 37.1146 -3.52036 4.48806 0
M  V30 401 O 36.0486 -1.99106 5.68014 0
M  V30 402 H 39.8746 -0.00348199 3.037 0
M  V30 403 H 37.4596 0.0640035 1.49263 0
M  V30 404 H 39.3416 -2.42147 3.44881 0
M  V30 405 H 38.0166 -2.32016 2.25722 0
M  V30 406 H 36.9236 -0.511458 3.70587 0
M  V30 407 H 38.2566 -0.692419 4.87305 0
M  V30 408 N 39.9087 -1.5758 0.0250728 0
M  V30 409 C 41.1567 -1.91255 -0.653151 0
M  V30 410 C 41.4777 -0.901691 -1.729 0
M  V30 411 O 40.7477 0.0573785 -1.95816 0
M  V30 412 H 39.3277 -0.705942 -0.244243 0
M  V30 413 H 41.9897 -1.94767 0.0719209 0
M  V30 414 H 41.0857 -2.91752 -1.10847 0
M  V30 415 N 41.3868 0.248026 -1.55636 0
M  V30 416 C 42.7978 0.817177 -1.67866 0
M  V30 417 C 43.1488 1.86069 -0.622322 0
M  V30 418 O 42.2738 2.15157 0.231618 0
M  V30 419 C 42.8688 1.489 -3.04326 0
M  V30 420 C 41.4278 2.00587 -3.185 0
M  V30 421 C 40.5748 0.856573 -2.63739 0
M  V30 422 H 43.5258 0.0238579 -1.58682 0
M  V30 423 H 43.5468 2.35698 -2.98708 0
M  V30 424 H 43.0588 0.729279 -3.81186 0
M  V30 425 H 41.1598 2.79443 -2.4646 0
M  V30 426 H 41.2728 2.20402 -4.25393 0
M  V30 427 H 39.6368 1.25678 -2.21534 0
M  V30 428 H 40.4198 0.109953 -3.43124 0
M  V30 429 N 42.8649 1.48995 0.513639 0
M  V30 430 C 43.7949 1.67636 1.62544 0
M  V30 431 C 44.7759 0.525087 1.61793 0
M  V30 432 O 45.9609 0.759502 1.78732 0
M  V30 433 C 43.0909 1.73114 3.01079 0
M  V30 434 C 42.0449 2.87905 3.16693 0
M  V30 435 C 41.3709 2.78486 4.56453 0
M  V30 436 C 42.6709 4.29005 2.97913 0
M  V30 437 H 44.3649 2.60716 1.47198 0
M  V30 438 H 41.9109 1.25465 0.706714 0
M  V30 439 H 43.8639 1.84742 3.78746 0
M  V30 440 H 42.5879 0.766241 3.17484 0
M  V30 441 H 41.2469 2.75859 2.41448 0
M  V30 442 H 40.8949 1.7993 4.69717 0
M  V30 443 H 40.5949 3.55523 4.67843 0
M  V30 444 H 42.1189 2.92104 5.36197 0
M  V30 445 H 43.5329 4.41798 3.65359 0
M  V30 446 H 41.9299 5.07166 3.20785 0
M  V30 447 H 42.9999 4.44329 1.94165 0
M  V30 448 N 44.343 -0.763751 1.37857 0
M  V30 449 C 45.293 -1.86765 1.30777 0
M  V30 450 C 46.277 -1.59726 0.194015 0
M  V30 451 O 47.469 -1.7172 0.42911 0
M  V30 452 C 44.598 -3.24343 1.12502 0
M  V30 453 C 43.684 -3.57307 2.28456 0
M  V30 454 N 44.075 -3.61398 3.53871 0
M  V30 455 C 42.373 -3.87517 2.20786 0
M  V30 456 C 43.074 -3.91339 4.30382 0
M  V30 457 N 42.05 -4.07649 3.59615 0
M  V30 458 H 45.852 -1.88191 2.25746 0
M  V30 459 H 43.366 -0.9606 1.30944 0
M  V30 460 H 45.363 -4.03327 1.05514 0
M  V30 461 H 44.023 -3.24175 0.184574 0
M  V30 462 H 45.034 -3.43407 3.87675 0
M  V30 463 H 41.711 -3.95125 1.34844 0
M  V30 464 H 43.101 -4.01213 5.3896 0
M  V30 465 N 45.8211 -1.22559 -0.990812 0
M  V30 466 C 46.7841 -0.998863 -2.0629 0
M  V30 467 C 47.7841 0.0354834 -1.60761 0
M  V30 468 O 48.9741 -0.203231 -1.7301 0
M  V30 469 C 46.1061 -0.509203 -3.37076 0
M  V30 470 H 47.2991 -1.95014 -2.27837 0
M  V30 471 H 44.8521 -1.04456 -1.16269 0
M  V30 472 H 45.5871 0.446335 -3.21214 0
M  V30 473 H 45.3721 -1.25547 -3.71457 0
M  V30 474 H 46.8621 -0.370888 -4.1595 0
M  V30 475 N 47.2992 1.18797 -1.03562 0
M  V30 476 C 48.7102 1.70322 -0.764676 0
M  V30 477 C 49.0612 1.82708 0.714996 0
M  V30 478 O 48.1862 1.50299 1.55689 0
M  V30 479 C 48.7812 3.09356 -1.38145 0
M  V30 480 C 47.3402 3.58114 -1.15895 0
M  V30 481 C 46.4872 2.34798 -1.4753 0
M  V30 482 H 49.4382 1.03543 -1.20268 0
M  V30 483 H 49.4592 3.72378 -0.781977 0
M  V30 484 H 48.9712 3.00309 -2.45837 0
M  V30 485 H 47.0722 3.72464 -0.100544 0
M  V30 486 H 47.1852 4.4184 -1.8524 0
M  V30 487 H 45.5492 2.38464 -0.894829 0
M  V30 488 H 46.3322 2.28375 -2.56319 0
M  V30 489 N 48.7773 0.814389 1.34928 0
M  V30 490 C 50.1883 0.458364 1.80986 0
M  V30 491 C 50.5393 -1.02042 1.67577 0
M  V30 492 O 49.6643 -1.79352 1.21086 0
M  V30 493 C 50.2593 0.825212 3.28597 0
M  V30 494 C 48.8183 0.521677 3.72767 0
M  V30 495 C 47.9653 1.04668 2.56788 0
M  V30 496 H 50.9163 1.00533 1.22795 0
M  V30 497 H 50.9373 0.12571 3.80292 0
M  V30 498 H 50.4493 1.90154 3.38324 0
M  V30 499 H 48.5503 -0.545589 3.68584 0
M  V30 500 H 48.6633 1.05977 4.67232 0
M  V30 501 H 47.0273 0.468622 2.50352 0
M  V30 502 H 47.8103 2.12927 2.6929 0
M  V30 503 N 50.2554 -1.46986 0.568584 0
M  V30 504 C 51.6664 -1.86188 0.138219 0
M  V30 505 C 52.0174 -1.47388 -1.29504 0
M  V30 506 O 51.1424 -0.88219 -1.97602 0
M  V30 507 C 51.7374 -3.3792 0.244065 0
M  V30 508 C 50.2964 -3.76171 -0.131335 0
M  V30 509 C 49.4434 -2.71027 0.586465 0
M  V30 510 H 52.3944 -1.38342 0.777645 0
M  V30 511 H 52.4154 -3.76729 -0.534351 0
M  V30 512 H 51.9274 -3.66128 1.28731 0
M  V30 513 H 50.0284 -3.5358 -1.17526 0
M  V30 514 H 50.1414 -4.78523 0.235146 0
M  V30 515 H 48.5054 -2.54684 0.0282722 0
M  V30 516 H 49.2884 -3.02077 1.63109 0
M  V30 517 N 51.7335 -0.305618 -1.54608 0
M  V30 518 C 53.1445 0.186098 -1.8577 0
M  V30 519 C 53.4955 1.53058 -1.22751 0
M  V30 520 O 52.6205 2.09888 -0.526893 0
M  V30 521 C 53.2155 0.344449 -3.37044 0
M  V30 522 C 51.7745 0.780384 -3.68221 0
M  V30 523 C 50.9215 -0.108554 -2.77087 0
M  V30 524 H 53.8725 -0.526485 -1.49712 0
M  V30 525 H 53.8935 1.17828 -3.61796 0
M  V30 526 H 53.4055 -0.634235 -3.82883 0
M  V30 527 H 51.5065 1.76945 -3.27904 0
M  V30 528 H 51.6195 0.596572 -4.75371 0
M  V30 529 H 49.9835 0.412931 -2.5133 0
M  V30 530 H 50.7665 -1.08368 -3.25747 0
M  V30 531 N 53.2116 1.57565 -0.0334293 0
M  V30 532 C 54.1746 2.09393 0.932048 0
M  V30 533 C 55.1746 1.00986 1.25134 0
M  V30 534 O 56.3646 1.27129 1.19096 0
M  V30 535 C 53.4966 2.56338 2.2473 0
M  V30 536 H 54.6896 2.95984 0.483085 0
M  V30 537 H 52.2426 1.54819 0.21468 0
M  V30 538 H 52.9776 1.7309 2.74245 0
M  V30 539 H 52.7626 3.35542 2.02865 0
M  V30 540 H 54.2526 2.96646 2.93923 0
M  V30 541 N 54.6897 -0.239769 1.55765 0
M  V30 542 C 56.1007 -0.808263 1.68297 0
M  V30 543 C 56.4517 -1.85736 0.632181 0
M  V30 544 O 55.5767 -2.15277 -0.220204 0
M  V30 545 C 56.1717 -1.47284 3.05111 0
M  V30 546 C 54.7307 -1.98895 3.19559 0
M  V30 547 C 53.8777 -0.842575 2.64189 0
M  V30 548 H 56.8287 -0.0154422 1.58692 0
M  V30 549 H 56.8497 -2.34111 2.99954 0
M  V30 550 H 56.3617 -0.709053 3.81568 0
M  V30 551 H 54.4627 -2.78132 2.47938 0
M  V30 552 H 54.5757 -2.18143 4.26556 0
M  V30 553 H 52.9397 -1.24501 2.22197 0
M  V30 554 H 53.7227 -0.0917552 3.43177 0
M  V30 555 N 56.1678 -1.49265 -0.50573 0
M  V30 556 C 57.1178 -1.6198 -1.60457 0
M  V30 557 C 58.1018 -0.47568 -1.53708 0
M  V30 558 O 59.2938 -0.728392 -1.61318 0
M  V30 559 C 56.4228 -1.68526 -2.99089 0
M  V30 560 C 55.5088 -2.885 -3.10852 0
M  V30 561 N 55.8998 -4.12635 -2.92517 0
M  V30 562 C 54.1978 -2.86338 -3.41945 0
M  V30 563 C 54.8988 -4.93258 -3.08337 0
M  V30 564 N 53.8748 -4.26533 -3.37003 0
M  V30 565 H 57.6768 -2.55681 -1.44928 0
M  V30 566 H 55.1908 -1.45972 -0.711752 0
M  V30 567 H 57.1878 -1.75732 -3.78053 0
M  V30 568 H 55.8478 -0.759584 -3.1569 0
M  V30 569 H 56.8588 -4.42689 -2.68787 0
M  V30 570 H 53.5358 -2.03129 -3.64753 0
M  V30 571 H 54.9258 -6.01856 -2.98695 0
M  V30 572 N 57.6459 0.756429 -1.3826 0
M  V30 573 C 58.5779 1.87971 -1.31147 0
M  V30 574 C 59.5909 1.61248 -0.224239 0
M  V30 575 O 60.7799 1.71881 -0.481581 0
M  V30 576 C 57.8799 3.23545 -1.00857 0
M  V30 577 C 57.0529 3.77794 -2.20432 0
M  V30 578 C 56.1119 4.91877 -1.86931 0
M  V30 579 O 55.1379 5.06659 -2.59395 0
M  V30 580 N 56.3399 5.74643 -0.822568 0
M  V30 581 H 59.1049 1.94585 -2.2794 0
M  V30 582 H 56.6659 0.936234 -1.32084 0
M  V30 583 H 58.6579 3.97403 -0.765021 0
M  V30 584 H 57.2279 3.12335 -0.128687 0
M  V30 585 H 56.4479 2.95534 -2.6087 0
M  V30 586 H 57.7359 4.10771 -3.00241 0
M  V30 587 H 57.1339 5.65266 -0.221575 0
M  V30 588 H 55.6909 6.48661 -0.638899 0
M  V30 589 N 59.124 1.23083 0.984299 0
M  V30 590 C 60.535 1.05609 1.5396 0
M  V30 591 C 60.886 -0.377793 1.92528 0
M  V30 592 O 60.011 -1.26398 1.75649 0
M  V30 593 C 60.606 1.91087 2.7977 0
M  V30 594 C 59.165 1.77885 3.31713 0
M  V30 595 C 58.312 1.87028 2.04733 0
M  V30 596 H 61.263 1.36802 0.804419 0
M  V30 597 H 61.284 1.43336 3.5247 0
M  V30 598 H 60.796 2.9544 2.51668 0
M  V30 599 H 58.897 0.762995 3.64704 0
M  V30 600 H 59.01 2.61047 4.01735 0
M  V30 601 H 57.374 1.30565 2.18689 0
M  V30 602 H 58.157 2.92929 1.79017 0
M  V30 603 N 60.6021 -1.18246 1.0419 0
M  V30 604 C 62.0131 -1.69914 0.773698 0
M  V30 605 C 62.3641 -1.83085 -0.705297 0
M  V30 606 O 61.4891 -1.51123 -1.5489 0
M  V30 607 C 62.0841 -3.08619 1.39784 0
M  V30 608 C 60.6431 -3.57494 1.17792 0
M  V30 609 C 59.7901 -2.34013 1.48773 0
M  V30 610 H 62.7411 -1.02904 1.20816 0
M  V30 611 H 62.7621 -3.71958 0.801714 0
M  V30 612 H 62.2741 -2.99001 2.47426 0
M  V30 613 H 60.3751 -3.72406 0.120295 0
M  V30 614 H 60.4881 -4.40852 1.87581 0
M  V30 615 H 58.8521 -2.37986 0.907463 0
M  V30 616 H 59.6351 -2.27013 2.57527 0
M  V30 617 N 62.0802 -0.821533 -1.34494 0
M  V30 618 C 63.0432 -0.247847 -2.27856 0
M  V30 619 C 64.0432 0.573453 -1.50227 0
M  V30 620 O 65.2332 0.389759 -1.69784 0
M  V30 621 C 62.3652 0.652698 -3.34593 0
M  V30 622 H 63.5582 -1.07146 -2.80107 0
M  V30 623 H 61.1112 -0.593291 -1.44602 0
M  V30 624 H 61.8462 1.49943 -2.87555 0
M  V30 625 H 61.6312 0.065292 -3.92046 0
M  V30 626 H 63.1212 1.04793 -4.04238 0
M  V30 627 N 63.5583 1.46682 -0.576371 0
M  V30 628 C 64.5213 2.28707 0.150239 0
M  V30 629 C 65.5213 1.38035 0.824794 0
M  V30 630 O 66.7113 1.60476 0.677719 0
M  V30 631 C 63.8433 3.18248 1.22192 0
M  V30 632 H 65.0363 2.94423 -0.570521 0
M  V30 633 H 62.5893 1.52688 -0.334078 0
M  V30 634 H 63.3243 2.57265 1.97447 0
M  V30 635 H 63.1093 3.85 0.742812 0
M  V30 636 H 64.5993 3.80001 1.73172 0
M  V30 637 N 65.0364 0.313813 1.54444 0
M  V30 638 C 66.2614 -0.296681 2.05267 0
M  V30 639 C 66.6864 -1.45757 1.18897 0
M  V30 640 O 66.0444 -1.80239 0.195886 0
M  V30 641 C 66.0924 -0.71831 3.53373 0
M  V30 642 O 65.1964 -1.82175 3.69981 0
M  V30 643 H 64.5374 -0.0554061 0.661684 0
M  V30 644 H 67.0674 0.459387 1.99376 0
M  V30 645 H 67.0774 -1.00364 3.95463 0
M  V30 646 H 65.7524 0.130821 4.15694 0
M  V30 647 H 64.3294 -1.53598 3.39797 0
M  V30 648 N 66.5145 -1.57545 0.0417849 0
M  V30 649 C 67.9305 -1.56467 -0.314704 0
M  V30 650 C 68.1305 -1.04859 -1.72066 0
M  V30 651 O 67.1865 -0.700983 -2.42575 0
M  V30 652 C 68.4995 -3.00317 -0.15174 0
M  V30 653 C 70.0475 -3.12201 -0.223553 0
M  V30 654 C 70.5225 -4.57913 -0.0892295 0
M  V30 655 N 72.0135 -4.6297 -0.145808 0
M  V30 656 C 72.7485 -5.73362 -0.0658459 0
M  V30 657 N 72.2445 -6.92769 0.0659282 0
M  V30 658 N 74.0375 -5.6197 -0.12075 0
M  V30 659 H 66.1885 -1.89416 0.961014 0
M  V30 660 H 68.4515 -0.871862 0.372237 0
M  V30 661 H 68.1575 -3.42073 0.817254 0
M  V30 662 H 68.0315 -3.65892 -0.916692 0
M  V30 663 H 70.4185 -2.70349 -1.18301 0
M  V30 664 H 70.4995 -2.49323 0.571994 0
M  V30 665 H 70.1435 -5.00448 0.866867 0
M  V30 666 H 70.0735 -5.18786 -0.903802 0
M  V30 667 H 72.5645 -3.7709 -0.247286 0
M  V30 668 H 72.8775 -7.72707 0.119905 0
M  V30 669 H 71.2225 -6.94927 0.100885 0
M  V30 670 H 74.4135 -4.67572 -0.222187 0
M  V30 671 H 74.5865 -6.47977 -0.0549735 0
M  V30 672 N 67.9926 0.231505 -1.5589 0
M  V30 673 C 69.2176 0.978689 -1.82856 0
M  V30 674 C 69.6426 1.77559 -0.620846 0
M  V30 675 O 69.0006 1.76119 0.430305 0
M  V30 676 C 69.0486 1.87997 -3.07716 0
M  V30 677 O 68.1526 2.97393 -2.85712 0
M  V30 678 H 67.4936 0.277663 -0.603158 0
M  V30 679 H 70.0236 0.24783 -2.03093 0
M  V30 680 H 70.0336 2.2917 -3.37558 0
M  V30 681 H 68.7086 1.29417 -3.95252 0
M  V30 682 H 67.2856 2.60238 -2.67078 0
M  V30 683 N 69.4707 1.49531 0.497807 0
M  V30 684 C 70.4037 1.61043 1.6168 0
M  V30 685 C 71.3817 0.459386 1.55976 0
M  V30 686 O 72.5657 0.675358 1.75986 0
M  V30 687 C 69.6927 1.56833 3.00202 0
M  V30 688 C 68.7387 2.77173 3.24156 0
M  V30 689 S 69.5717 4.38808 3.06933 0
M  V30 690 C 70.7277 4.37248 4.47845 0
M  V30 691 H 70.9607 2.55702 1.51671 0
M  V30 692 H 68.4937 1.38462 0.683201 0
M  V30 693 H 70.4517 1.55089 3.80076 0
M  V30 694 H 69.1127 0.634561 3.07623 0
M  V30 695 H 68.3057 2.70456 4.25288 0
M  V30 696 H 67.9077 2.76346 2.5201 0
M  V30 697 H 70.1997 4.09164 5.39992 0
M  V30 698 H 71.1427 5.38668 4.59612 0
M  V30 699 H 71.5507 3.67286 4.28674 0
M  V30 700 N 70.9488 -0.749086 1.3866 0
M  V30 701 C 72.1958 -1.50833 1.35114 0
M  V30 702 C 72.5238 -1.94415 -0.0574049 0
M  V30 703 O 71.7788 -1.66065 -1.03541 0
M  V30 704 C 72.0778 -2.7712 2.25697 0
M  V30 705 C 71.7438 -2.52477 3.73585 0
M  V30 706 C 70.4058 -2.45466 4.13884 0
M  V30 707 C 72.7578 -2.31066 4.67181 0
M  V30 708 C 70.0858 -2.15064 5.45861 0
M  V30 709 C 72.4378 -2.02183 5.9942 0
M  V30 710 C 71.1018 -1.93631 6.38798 0
M  V30 711 H 70.3718 -0.551936 0.494416 0
M  V30 712 H 73.0188 -0.860979 1.71054 0
M  V30 713 H 71.3238 -3.46528 1.82827 0
M  V30 714 H 73.0208 -3.35096 2.20254 0
M  V30 715 H 69.6108 -2.58807 3.41638 0
M  V30 716 H 73.7948 -2.35459 4.3689 0
M  V30 717 H 69.0508 -2.06954 5.75308 0
M  V30 718 H 73.2248 -1.8462 6.71482 0
M  V30 719 H 70.8518 -1.69839 7.40985 0
M  V30 720 N 72.4269 -1.23603 -0.977757 0
M  V30 721 C 73.6729 -1.07129 -1.72195 0
M  V30 722 C 74.0059 0.390501 -1.90233 0
M  V30 723 O 73.2809 1.28902 -1.45653 0
M  V30 724 C 73.5639 -1.80031 -3.11867 0
M  V30 725 C 73.4169 -3.33899 -3.01383 0
M  V30 726 C 74.7359 -1.56492 -4.11337 0
M  V30 727 H 71.8549 -0.390571 -0.624999 0
M  V30 728 H 74.4969 -1.52142 -1.13811 0
M  V30 729 H 72.6469 -1.41768 -3.6171 0
M  V30 730 H 74.3189 -3.81699 -2.59043 0
M  V30 731 H 72.5619 -3.62796 -2.37827 0
M  V30 732 H 73.2329 -3.801 -4.00285 0
M  V30 733 H 75.7089 -1.89757 -3.70313 0
M  V30 734 H 74.5849 -2.09973 -5.07151 0
M  V30 735 H 74.8459 -0.500874 -4.39254 0
M  V30 736 N 73.905 1.17692 -1.04816 0
M  V30 737 C 74.868 2.19787 -0.650117 0
M  V30 738 C 75.868 1.58044 0.296427 0
M  V30 739 O 77.058 1.74012 0.0808097 0
M  V30 740 C 74.19 3.40869 0.0456987 0
M  V30 741 H 75.383 2.56516 -1.5537 0
M  V30 742 H 72.936 1.31708 -0.841594 0
M  V30 743 H 73.671 3.09681 0.962726 0
M  V30 744 H 73.456 3.86928 -0.634727 0
M  V30 745 H 74.946 4.16445 0.310432 0
M  V30 746 N 75.3831 0.828654 1.34056 0
M  V30 747 C 76.3131 0.269443 2.3194 0
M  V30 748 C 77.2941 -0.617247 1.58506 0
M  V30 749 O 78.4791 -0.542931 1.86456 0
M  V30 750 C 75.6091 -0.564793 3.42677 0
M  V30 751 C 74.5631 0.225241 4.27407 0
M  V30 752 C 73.8891 -0.7321 5.29664 0
M  V30 753 C 75.1891 1.43663 5.02154 0
M  V30 754 H 76.8831 1.08728 2.7896 0
M  V30 755 H 74.4291 0.524283 1.34117 0
M  V30 756 H 76.3821 -0.966233 4.10173 0
M  V30 757 H 75.1061 -1.41574 2.9432 0
M  V30 758 H 73.7651 0.608117 3.61521 0
M  V30 759 H 73.4131 -1.57916 4.77568 0
M  V30 760 H 73.1131 -0.20767 5.87233 0
M  V30 761 H 74.6371 -1.13128 6.00029 0
M  V30 762 H 76.0511 1.1089 5.62473 0
M  V30 763 H 74.4481 1.89711 5.69324 0
M  V30 764 H 75.5181 2.21181 4.31517 0
M  V30 765 N 76.8612 -1.46375 0.584142 0
M  V30 766 C 77.7912 -2.33103 -0.136037 0
M  V30 767 C 78.7722 -1.45431 -0.882255 0
M  V30 768 O 79.9572 -1.74246 -0.857434 0
M  V30 769 C 77.0872 -3.27731 -1.14933 0
M  V30 770 C 76.0412 -4.24855 -0.517862 0
M  V30 771 C 75.3672 -5.09001 -1.63773 0
M  V30 772 C 76.6672 -5.19439 0.545886 0
M  V30 773 H 78.3612 -2.93568 0.588086 0
M  V30 774 H 75.9072 -1.41166 0.284259 0
M  V30 775 H 77.8602 -3.87261 -1.66153 0
M  V30 776 H 76.5842 -2.65377 -1.90375 0
M  V30 777 H 75.2432 -3.6659 -0.0267361 0
M  V30 778 H 74.8912 -4.43031 -2.38185 0
M  V30 779 H 74.5912 -5.74777 -1.22085 0
M  V30 780 H 76.1152 -5.71396 -2.15266 0
M  V30 781 H 77.5292 -5.73177 0.118704 0
M  V30 782 H 75.9262 -5.93566 0.88317 0
M  V30 783 H 76.9962 -4.63285 1.43162 0
M  V30 784 N 78.3393 -0.321999 -1.54275 0
M  V30 785 C 79.5873 0.280489 -2.00144 0
M  V30 786 C 79.9083 1.52777 -1.21178 0
M  V30 787 O 79.1783 1.9338 -0.313187 0
M  V30 788 H 77.7583 0.106632 -0.73935 0
M  V30 789 H 80.4203 -0.438184 -1.8991 0
M  V30 790 H 79.5163 0.537972 -3.07428 0
M  V30 791 N 79.8174 1.5752 -0.0501392 0
M  V30 792 C 80.7474 2.14502 0.922566 0
M  V30 793 C 81.7284 1.06642 1.3252 0
M  V30 794 O 82.9134 1.34577 1.4001 0
M  V30 795 C 80.0434 2.68916 2.19776 0
M  V30 796 C 78.9974 3.8175 1.93523 0
M  V30 797 C 78.3234 4.22677 3.27487 0
M  V30 798 C 79.6234 5.06932 1.25765 0
M  V30 799 H 81.3174 2.9603 0.447952 0
M  V30 800 H 78.8634 1.42401 0.214024 0
M  V30 801 H 80.8164 3.07419 2.88222 0
M  V30 802 H 79.5404 1.84578 2.69441 0
M  V30 803 H 78.1994 3.43718 1.27489 0
M  V30 804 H 77.8474 3.35291 3.74952 0
M  V30 805 H 77.5474 4.98725 3.1072 0
M  V30 806 H 79.0714 4.63779 3.97166 0
M  V30 807 H 80.4854 5.42888 1.84244 0
M  V30 808 H 78.8824 5.88116 1.19328 0
M  V30 809 H 79.9524 4.84337 0.233536 0
M  V30 810 N 81.2955 -0.223234 1.56011 0
M  V30 811 C 82.5435 -0.946003 1.78592 0
M  V30 812 C 82.8645 -1.84936 0.618349 0
M  V30 813 O 82.1345 -1.92473 -0.364833 0
M  V30 814 H 80.7145 -0.352298 0.658707 0
M  V30 815 H 83.3765 -0.235494 1.93472 0
M  V30 816 H 82.4725 -1.55381 2.70672 0
M  V30 817 N 82.7736 -1.49793 -0.48987 0
M  V30 818 C 83.7036 -1.70201 -1.59856 0
M  V30 819 C 84.6846 -0.55076 -1.60937 0
M  V30 820 O 85.8696 -0.787841 -1.77501 0
M  V30 821 C 82.9996 -1.77882 -2.98287 0
M  V30 822 C 81.9536 -2.92907 -3.12073 0
M  V30 823 C 81.2796 -2.85712 -4.51965 0
M  V30 824 C 82.5796 -4.3369 -2.91051 0
M  V30 825 H 84.2736 -2.63025 -1.43032 0
M  V30 826 H 81.8196 -1.26574 -0.686664 0
M  V30 827 H 83.7726 -1.90744 -3.75759 0
M  V30 828 H 82.4966 -0.816653 -3.16225 0
M  V30 829 H 81.1556 -2.79665 -2.37029 0
M  V30 830 H 80.8036 -1.8738 -4.66795 0
M  V30 831 H 80.5036 -3.62921 -4.62128 0
M  V30 832 H 82.0276 -3.00598 -5.31482 0
M  V30 833 H 83.4416 -4.47555 -3.58284 0
M  V30 834 H 81.8386 -5.12205 -3.12675 0
M  V30 835 H 82.9086 -4.47362 -1.87071 0
M  V30 836 N 84.2517 0.741722 -1.39055 0
M  V30 837 C 85.4997 1.49818 -1.35643 0
M  V30 838 C 85.8207 1.94938 0.0491642 0
M  V30 839 O 85.0907 1.68505 0.999141 0
M  V30 840 H 83.6707 0.555755 -0.499144 0
M  V30 841 H 86.3327 0.880957 -1.73854 0
M  V30 842 H 85.4287 2.38348 -2.01486 0
M  V30 843 N 85.7298 1.2412 0.971189 0
M  V30 844 C 86.6618 0.988349 2.06795 0
M  V30 845 C 87.6748 -0.0409541 1.62748 0
M  V30 846 O 88.8638 0.195673 1.77424 0
M  V30 847 C 85.9638 0.469023 3.35639 0
M  V30 848 C 85.1368 1.56065 4.08611 0
M  V30 849 C 84.1958 1.04458 5.15728 0
M  V30 850 O 83.2218 1.73553 5.42096 0
M  V30 851 N 84.4238 -0.122817 5.8037 0
M  V30 852 H 87.1888 1.93265 2.29061 0
M  V30 853 H 84.7498 1.15102 1.13856 0
M  V30 854 H 86.7418 0.108613 4.04554 0
M  V30 855 H 85.3118 -0.380919 3.1027 0
M  V30 856 H 84.5318 2.09341 3.34021 0
M  V30 857 H 85.8198 2.29449 4.54126 0
M  V30 858 H 85.2178 -0.700563 5.61345 0
M  V30 859 H 83.7748 -0.424404 6.50417 0
M  V30 860 N 87.2079 -1.17134 1.05439 0
M  V30 861 C 88.4539 -1.87733 0.767077 0
M  V30 862 C 88.7869 -1.8098 -0.704253 0
M  V30 863 O 88.0619 -1.21951 -1.5152 0
M  V30 864 C 88.3449 -3.37659 1.25133 0
M  V30 865 C 88.1979 -3.53149 2.78578 0
M  V30 866 C 89.5169 -4.31768 0.852324 0
M  V30 867 H 86.6359 -0.681687 0.280129 0
M  V30 868 H 89.2779 -1.37732 1.30881 0
M  V30 869 H 87.4279 -3.80373 0.790469 0
M  V30 870 H 89.0999 -3.19434 3.32806 0
M  V30 871 H 87.3429 -2.95345 3.17732 0
M  V30 872 H 88.0139 -4.58403 3.07523 0
M  V30 873 H 90.4899 -3.96909 1.24911 0
M  V30 874 H 89.3659 -5.35199 1.21873 0
M  V30 875 H 89.6269 -4.41429 -0.243485 0
M  V30 876 N 88.686 -0.835752 -1.33615 0
M  V30 877 C 89.932 -0.430596 -1.98176 0
M  V30 878 C 90.265 1.00684 -1.66061 0
M  V30 879 O 89.54 1.70339 -0.938877 0
M  V30 880 C 89.823 -0.648065 -3.5422 0
M  V30 881 C 89.676 -2.13255 -3.96033 0
M  V30 882 C 90.995 -0.0922113 -4.40003 0
M  V30 883 H 88.114 -0.157924 -0.719881 0
M  V30 884 H 90.756 -1.05069 -1.58305 0
M  V30 885 H 88.906 -0.120237 -3.88314 0
M  V30 886 H 90.578 -2.725 -3.72211 0
M  V30 887 H 88.821 -2.61823 -3.45878 0
M  V30 888 H 89.492 -2.23547 -5.04708 0
M  V30 889 H 91.968 -0.543343 -4.12537 0
M  V30 890 H 90.844 -0.274083 -5.48215 0
M  V30 891 H 91.105 1.00378 -4.30554 0
M  V30 892 N 90.1641 1.46063 -0.591896 0
M  V30 893 C 91.4041 2.04228 -0.0838014 0
M  V30 894 C 91.7681 1.45231 1.25587 0
M  V30 895 O 92.9691 1.94653 1.85375 0
M  V30 896 C 91.2401 3.57389 -0.0286282 0
M  V30 897 S 92.7991 4.3678 0.420557 0
M  V30 898 H 89.6171 0.709762 -0.0419319 0
M  V30 899 H 92.2191 1.78983 -0.786465 0
M  V30 900 H 90.9231 3.97843 -1.00743 0
M  V30 901 H 90.4541 3.87185 0.69652 0
M  V30 902 H 92.4691 4.67131 1.67341 0
M  V30 903 N 91.6422 0.330177 1.54103 0
M  V30 904 C 92.8672 -0.274893 2.0557 0
M  V30 905 C 93.2922 -1.44487 1.20437 0
M  V30 906 O 92.6502 -1.80021 0.214991 0
M  V30 907 C 92.6982 -0.68079 3.54115 0
M  V30 908 O 91.8022 -1.7824 3.71893 0
M  V30 909 H 91.1432 -0.0483849 0.662235 0
M  V30 910 H 93.6732 0.480508 1.98878 0
M  V30 911 H 93.6832 -0.961635 3.96505 0
M  V30 912 H 92.3582 0.174903 4.15532 0
M  V30 913 H 90.9352 -1.49985 3.41407 0
M  V30 914 N 93.1203 -1.57491 0.0584922 0
M  V30 915 C 94.3663 -1.93264 -0.614558 0
M  V30 916 C 94.6993 -0.937717 -1.7006 0
M  V30 917 O 93.9743 0.0351652 -1.94468 0
M  V30 918 C 94.2573 -3.3938 -1.20386 0
M  V30 919 C 94.1103 -4.49625 -0.125375 0
M  V30 920 C 95.4293 -3.86039 -2.11334 0
M  V30 921 H 92.5483 -0.702791 -0.221933 0
M  V30 922 H 95.1903 -1.8961 0.12175 0
M  V30 923 H 93.3403 -3.42626 -1.83139 0
M  V30 924 H 95.0123 -4.58506 0.506971 0
M  V30 925 H 93.2553 -4.30354 0.545672 0
M  V30 926 H 93.9263 -5.48967 -0.577861 0
M  V30 927 H 96.4023 -3.84716 -1.58534 0
M  V30 928 H 95.2783 -4.88914 -2.49507 0
M  V30 929 H 95.5393 -3.23215 -3.01636 0
M  V30 930 N 94.5984 0.214957 -1.56127 0
M  V30 931 C 95.5614 1.24997 -1.92116 0
M  V30 932 C 96.5614 1.39467 -0.800344 0
M  V30 933 O 97.7514 1.37619 -1.06802 0
M  V30 934 C 94.8834 2.62271 -2.17777 0
M  V30 935 H 96.0764 0.942875 -2.84693 0
M  V30 936 H 93.6294 0.455654 -1.49511 0
M  V30 937 H 94.3644 2.98068 -1.27773 0
M  V30 938 H 94.1494 2.53143 -2.99434 0
M  V30 939 H 95.6394 3.36946 -2.46693 0
M  V30 940 N 96.0765 1.50051 0.48192 0
M  V30 941 C 97.0065 1.71046 1.58951 0
M  V30 942 C 97.9875 0.559288 1.60642 0
M  V30 943 O 99.1725 0.797243 1.77081 0
M  V30 944 C 96.3025 1.79462 2.97339 0
M  V30 945 C 95.2565 2.94558 3.10515 0
M  V30 946 C 94.5825 2.88105 4.50444 0
M  V30 947 C 95.8825 4.35227 2.88747 0
M  V30 948 H 97.5765 2.6378 1.41635 0
M  V30 949 H 95.1225 1.26936 0.679942 0
M  V30 950 H 97.0755 1.92734 3.74742 0
M  V30 951 H 95.7995 0.833412 3.15788 0
M  V30 952 H 94.4585 2.80918 2.35543 0
M  V30 953 H 94.1065 1.89853 4.65795 0
M  V30 954 H 93.8065 3.65366 4.60197 0
M  V30 955 H 95.3305 3.03412 5.29881 0
M  V30 956 H 96.7445 4.49449 3.55905 0
M  V30 957 H 95.1415 5.13856 3.09955 0
M  V30 958 H 96.2115 4.48347 1.84696 0
M  V30 959 N 97.5546 -0.734337 1.39446 0
M  V30 960 C 98.8016 -1.49391 1.36706 0
M  V30 961 C 99.1296 -1.94465 -0.0367813 0
M  V30 962 O 98.3846 -1.67154 -1.01774 0
M  V30 963 C 98.6836 -2.74711 2.28623 0
M  V30 964 C 98.3496 -2.48501 3.76242 0
M  V30 965 C 97.0116 -2.41062 4.16464 0
M  V30 966 C 99.3636 -2.26098 4.69606 0
M  V30 967 C 96.6916 -2.09262 5.48112 0
M  V30 968 C 99.0436 -1.95814 6.01531 0
M  V30 969 C 97.7076 -1.86845 6.40816 0
M  V30 970 H 96.9776 -0.546661 0.500243 0
M  V30 971 H 99.6246 -0.842788 1.71957 0
M  V30 972 H 97.9296 -3.44569 1.86492 0
M  V30 973 H 99.6266 -3.32741 2.23796 0
M  V30 974 H 96.2166 -2.55169 3.44364 0
M  V30 975 H 100.401 -2.30812 4.39363 0
M  V30 976 H 95.6566 -2.00841 5.77471 0
M  V30 977 H 99.8306 -1.77488 6.73403 0
M  V30 978 H 97.4576 -1.6197 7.42745 0
M  V30 979 N 99.0327 -1.24633 -0.964593 0
M  V30 980 C 100.28 -1.08788 -1.70796 0
M  V30 981 C 100.608 0.372783 -1.90894 0
M  V30 982 O 99.8627 1.29167 -1.47018 0
M  V30 983 C 100.162 -1.7763 -3.10133 0
M  V30 984 C 99.8277 -3.27557 -3.09866 0
M  V30 985 C 98.4897 -3.6846 -3.09501 0
M  V30 986 C 100.842 -4.23389 -3.03959 0
M  V30 987 C 98.1697 -5.03624 -3.00965 0
M  V30 988 C 100.522 -5.58565 -2.96965 0
M  V30 989 C 99.1857 -5.98809 -2.9493 0
M  V30 990 H 98.4557 -0.398084 -0.624988 0
M  V30 991 H 101.103 -1.54777 -1.12767 0
M  V30 992 H 99.4077 -1.24044 -3.71645 0
M  V30 993 H 101.105 -1.62832 -3.66451 0
M  V30 994 H 97.6947 -2.95006 -3.10917 0
M  V30 995 H 101.879 -3.92787 -3.03368 0
M  V30 996 H 97.1347 -5.33998 -2.97752 0
M  V30 997 H 101.309 -6.32523 -2.91354 0
M  V30 998 H 98.9357 -7.03505 -2.88071 0
M  V30 999 N 100.511 1.16574 -1.06058 0
M  V30 1000 C 101.741 1.90675 -0.795397 0
M  V30 1001 C 102.149 1.77547 0.653735 0
M  V30 1002 O 101.492 1.11611 1.45907 0
M  V30 1003 C 101.554 3.42011 -1.10764 0
M  V30 1004 C 101.218 3.78924 -2.55471 0
M  V30 1005 C 102.215 3.81042 -3.53699 0
M  V30 1006 C 99.8998 4.09626 -2.90708 0
M  V30 1007 C 101.894 4.13346 -4.85205 0
M  V30 1008 C 99.5808 4.41597 -4.22416 0
M  V30 1009 C 100.579 4.43436 -5.19474 0
M  V30 1010 O 100.267 4.74649 -6.48817 0
M  V30 1011 H 99.9988 0.611554 -0.288058 0
M  V30 1012 H 102.553 1.48711 -1.41683 0
M  V30 1013 H 100.783 3.84312 -0.429128 0
M  V30 1014 H 102.472 3.97384 -0.827077 0
M  V30 1015 H 103.238 3.57437 -3.27817 0
M  V30 1016 H 99.1168 4.07361 -2.15819 0
M  V30 1017 H 102.661 4.14696 -5.60957 0
M  V30 1018 H 98.5578 4.64667 -4.48056 0
M  V30 1019 H 99.3258 4.9247 -6.5377 0
M  V30 1020 N 101.989 0.842826 1.3317 0
M  V30 1021 C 103.236 0.440447 1.97652 0
M  V30 1022 C 103.564 -1.00123 1.6675 0
M  V30 1023 O 102.819 -1.7155 0.941761 0
M  V30 1024 C 103.118 0.612607 3.52111 0
M  V30 1025 C 102.784 2.02297 4.02972 0
M  V30 1026 C 101.446 2.40874 4.16573 0
M  V30 1027 C 103.798 2.94402 4.30089 0
M  V30 1028 C 101.126 3.70852 4.54627 0
M  V30 1029 C 103.478 4.23865 4.69597 0
M  V30 1030 C 102.142 4.62392 4.81404 0
M  V30 1031 H 101.412 0.161171 0.72326 0
M  V30 1032 H 104.059 1.07061 1.58777 0
M  V30 1033 H 102.364 -0.100849 3.9167 0
M  V30 1034 H 104.061 0.2815 4.00011 0
M  V30 1035 H 100.651 1.71338 3.92863 0
M  V30 1036 H 104.835 2.65835 4.19101 0
M  V30 1037 H 100.091 4.00501 4.61962 0
M  V30 1038 H 104.265 4.95306 4.89536 0
M  V30 1039 H 101.892 5.63154 5.10648 0
M  V30 1040 N 103.467 -1.45747 0.599634 0
M  V30 1041 C 104.883 -1.57424 0.26264 0
M  V30 1042 C 105.083 -1.59222 -1.23493 0
M  V30 1043 O 104.139 -1.51825 -2.01756 0
M  V30 1044 C 105.452 -2.86061 0.926795 0
M  V30 1045 C 107 -2.99722 0.901967 0
M  V30 1046 C 107.475 -4.31119 1.54598 0
M  V30 1047 N 108.966 -4.37858 1.5111 0
M  V30 1048 C 109.701 -5.3818 1.97863 0
M  V30 1049 N 109.197 -6.45083 2.52666 0
M  V30 1050 N 110.99 -5.29487 1.88679 0
M  V30 1051 H 103.141 -1.42823 1.57211 0
M  V30 1052 H 105.404 -0.68235 0.658105 0
M  V30 1053 H 105.11 -2.90605 1.98095 0
M  V30 1054 H 104.984 -3.74563 0.445238 0
M  V30 1055 H 107.371 -2.9475 -0.143617 0
M  V30 1056 H 107.452 -2.12652 1.42171 0
M  V30 1057 H 107.096 -4.36849 2.59085 0
M  V30 1058 H 107.026 -5.16992 1.00132 0
M  V30 1059 H 109.517 -3.61209 1.11068 0
M  V30 1060 H 109.83 -7.17869 2.86155 0
M  V30 1061 H 108.175 -6.45856 2.56701 0
M  V30 1062 H 111.366 -4.44877 1.4561 0
M  V30 1063 H 111.539 -6.07524 2.25429 0
M  V30 1064 N 104.945 -0.338344 -1.53925 0
M  V30 1065 C 105.908 0.508299 -2.23493 0
M  V30 1066 C 106.908 1.03175 -1.23335 0
M  V30 1067 O 108.098 0.921826 -1.47811 0
M  V30 1068 C 105.23 1.70754 -2.95052 0
M  V30 1069 H 106.423 -0.100058 -2.99733 0
M  V30 1070 H 103.976 -0.0896198 -1.56043 0
M  V30 1071 H 104.711 2.35474 -2.22986 0
M  V30 1072 H 104.496 1.33946 -3.68512 0
M  V30 1073 H 105.986 2.30818 -3.48013 0
M  V30 1074 N 106.423 1.57458 -0.0668435 0
M  V30 1075 C 107.355 2.09413 0.931601 0
M  V30 1076 C 108.368 1.02522 1.26464 0
M  V30 1077 O 109.557 1.30049 1.22269 0
M  V30 1078 C 106.657 2.53537 2.24882 0
M  V30 1079 C 105.83 3.83944 2.09537 0
M  V30 1080 C 104.889 4.14214 3.2452 0
M  V30 1081 O 103.915 4.83891 2.9973 0
M  V30 1082 N 105.117 3.67367 4.49469 0
M  V30 1083 H 107.882 2.95699 0.488048 0
M  V30 1084 H 105.443 1.61462 0.119009 0
M  V30 1085 H 107.435 2.70853 3.00701 0
M  V30 1086 H 106.005 1.72415 2.60753 0
M  V30 1087 H 105.225 3.76057 1.18215 0
M  V30 1088 H 106.513 4.69312 1.96529 0
M  V30 1089 H 105.911 3.11068 4.72497 0
M  V30 1090 H 104.468 3.89891 5.2233 0
M  V30 1091 N 107.901 -0.206675 1.56239 0
M  V30 1092 C 108.834 -1.28383 1.88661 0
M  V30 1093 C 109.812 -1.44504 0.745481 0
M  V30 1094 O 110.996 -1.60079 0.995336 0
M  V30 1095 C 108.123 -2.65211 2.10667 0
M  V30 1096 C 107.169 -2.66025 3.33366 0
M  V30 1097 S 108.002 -2.18609 4.88846 0
M  V30 1098 C 109.158 -3.57283 5.13906 0
M  V30 1099 H 109.391 -1.00691 2.7973 0
M  V30 1100 H 106.924 -0.409627 1.48867 0
M  V30 1101 H 108.882 -3.43979 2.24029 0
M  V30 1102 H 107.543 -2.90121 1.20369 0
M  V30 1103 H 106.736 -3.66607 3.45855 0
M  V30 1104 H 106.338 -1.95331 3.18938 0
M  V30 1105 H 108.63 -4.53074 5.03717 0
M  V30 1106 H 109.573 -3.49699 6.15724 0
M  V30 1107 H 109.981 -3.51659 4.41583 0
M  V30 1108 N 109.379 -1.50304 -0.473955 0
M  V30 1109 C 110.656 -1.51667 -1.23518 0
M  V30 1110 C 111.036 -0.259701 -2.09496 0
M  V30 1111 O 110.384 0.756986 -2.15597 0
M  V30 1112 C 110.594 -2.81082 -2.06868 0
M  V30 1113 C 111.942 -3.31631 -2.65153 0
M  V30 1114 O 112.966 -2.82384 -2.17113 0
M  V30 1115 O 111.825 -4.17471 -3.52675 0
M  V30 1116 H 108.919 -0.60822 -0.560355 0
M  V30 1117 H 111.465 -1.62592 -0.486011 0
M  V30 1118 H 110.237 -3.64041 -1.4349 0
M  V30 1119 H 109.86 -2.73146 -2.88924 0
M  V30 1120 N 110.857 0.726932 -1.39834 0
M  V30 1121 C 112.268 1.30558 -1.3346 0
M  V30 1122 C 112.619 1.962 -0.00273003 0
M  V30 1123 O 111.744 1.96826 0.899371 0
M  V30 1124 C 112.339 2.37404 -2.41713 0
M  V30 1125 C 110.898 2.90921 -2.38835 0
M  V30 1126 C 110.045 1.64578 -2.2318 0
M  V30 1127 H 112.996 0.523862 -1.49804 0
M  V30 1128 H 113.017 3.17984 -2.08966 0
M  V30 1129 H 112.529 1.89599 -3.38635 0
M  V30 1130 H 110.63 3.42985 -1.45575 0
M  V30 1131 H 110.743 3.43487 -3.33997 0
M  V30 1132 H 109.107 1.89219 -1.70494 0
M  V30 1133 H 109.89 1.18814 -3.22084 0
M  V30 1134 N 112.336 1.25143 0.95797 0
M  V30 1135 C 113.284 1.05019 2.07542 0
M  V30 1136 C 114.278 -0.0178751 1.69391 0
M  V30 1137 O 115.484 0.137472 1.79474 0
M  V30 1138 H 111.859 0.32265 0.679265 0
M  V30 1139 H 113.83 1.99759 2.21673 0
M  V30 1140 C 112.579 0.682074 3.40944 0
M  V30 1141 H 111.902 1.49573 3.70767 0
M  V30 1142 H 113.342 0.580945 4.20001 0
M  V30 1143 C 111.801 -0.611608 3.31302 0
M  V30 1144 O 112.331 -1.65465 3.66038 0
M  V30 1145 N 110.537 -0.595982 2.84423 0
M  V30 1146 H 110.084 0.253192 2.56353 0
M  V30 1147 H 110.042 -1.46173 2.78354 0
M  V30 1148 N 113.814 -1.1601 1.06675 0
M  V30 1149 C 115.23 -1.38622 0.790948 0
M  V30 1150 C 115.43 -1.92109 -0.607965 0
M  V30 1151 O 114.486 -2.12239 -1.36787 0
M  V30 1152 C 115.799 -2.36347 1.85905 0
M  V30 1153 C 117.347 -2.50023 1.88301 0
M  V30 1154 C 117.822 -3.51033 2.94176 0
M  V30 1155 N 119.313 -3.58563 2.93235 0
M  V30 1156 C 120.048 -4.36521 3.71803 0
M  V30 1157 N 119.544 -5.17869 4.602 0
M  V30 1158 N 121.337 -4.31541 3.60178 0
M  V30 1159 H 113.488 -0.796294 1.96908 0
M  V30 1160 H 115.751 -0.412597 0.853503 0
M  V30 1161 H 115.457 -2.04147 2.86386 0
M  V30 1162 H 115.331 -3.36042 1.71334 0
M  V30 1163 H 117.718 -2.81524 0.884769 0
M  V30 1164 H 117.799 -1.5035 2.06951 0
M  V30 1165 H 117.443 -3.20268 3.94196 0
M  V30 1166 H 117.373 -4.50445 2.72776 0
M  V30 1167 H 119.864 -3.00496 2.29152 0
M  V30 1168 H 120.177 -5.74578 5.16797 0
M  V30 1169 H 118.522 -5.17199 4.64253 0
M  V30 1170 H 121.713 -3.67051 2.90502 0
M  V30 1171 H 121.886 -4.9205 4.21653 0
M  V30 1172 N 115.292 -0.849877 -1.32721 0
M  V30 1173 C 116.541 -0.447175 -1.96681 0
M  V30 1174 C 116.854 1.00135 -1.68025 0
M  V30 1175 O 118.06 1.50926 -2.25685 0
M  V30 1176 C 116.516 -0.7487 -3.52026 0
M  V30 1177 C 116.124 -2.21264 -3.89546 0
M  V30 1178 C 117.868 -0.413487 -4.22481 0
M  V30 1179 C 115.775 -2.45763 -5.37917 0
M  V30 1180 H 114.705 -0.163486 -0.736063 0
M  V30 1181 H 117.356 -1.03999 -1.51183 0
M  V30 1182 H 115.738 -0.0853727 -3.95908 0
M  V30 1183 H 116.912 -2.91736 -3.56689 0
M  V30 1184 H 115.227 -2.5119 -3.32103 0
M  V30 1185 H 117.824 -0.574017 -5.3161 0
M  V30 1186 H 118.167 0.644492 -4.11281 0
M  V30 1187 H 118.7 -1.03251 -3.84167 0
M  V30 1188 H 115.439 -3.50168 -5.54132 0
M  V30 1189 H 114.959 -1.79864 -5.72197 0
M  V30 1190 H 116.638 -2.29471 -6.0494 0
M  V30 1191 N 116.77 1.45427 -0.607355 0
M  V30 1192 C 117.995 2.07124 -0.107006 0
M  V30 1193 C 118.42 1.44906 1.19933 0
M  V30 1194 O 117.778 0.541687 1.73019 0
M  V30 1195 C 117.826 3.60595 0.0194119 0
M  V30 1196 O 116.93 3.98285 1.0697 0
M  V30 1197 H 116.271 0.659868 -0.0739597 0
M  V30 1198 H 118.801 1.86683 -0.837297 0
M  V30 1199 H 118.811 4.07419 0.2177 0
M  V30 1200 H 117.486 4.05266 -0.934453 0
M  V30 1201 H 116.063 3.63133 0.847889 0
M  V30 1202 N 118.248 0.346503 1.53744 0
M  V30 1203 C 119.158 -0.517293 2.28826 0
M  V30 1204 C 120.174 -1.10935 1.3405 0
M  V30 1205 O 121.35 -1.1244 1.6709 0
M  V30 1206 C 118.415 -1.65098 3.04866 0
M  V30 1207 C 117.476 -1.0884 4.15274 0
M  V30 1208 C 116.709 -2.16806 4.87679 0
M  V30 1209 O 116.932 -3.3758 4.59778 0
M  V30 1210 O 115.866 -1.80934 5.74061 0
M  V30 1211 H 119.692 0.0931396 3.03557 0
M  V30 1212 H 117.277 0.111458 1.48984 0
M  V30 1213 H 119.159 -2.31053 3.5241 0
M  V30 1214 H 117.834 -2.24717 2.32989 0
M  V30 1215 H 116.741 -0.3933 3.72027 0
M  V30 1216 H 118.074 -0.537036 4.89261 0
M  V30 1217 N 119.726 -1.57421 0.075193 0
M  V30 1218 C 121.003 -1.85029 -0.634329 0
M  V30 1219 C 121.383 -0.968305 -1.87582 0
M  V30 1220 O 120.731 -0.0354749 -2.28472 0
M  V30 1221 C 120.941 -3.35286 -0.968742 0
M  V30 1222 C 122.289 -4.02875 -1.34077 0
M  V30 1223 O 123.313 -3.40051 -1.06037 0
M  V30 1224 O 122.172 -5.13691 -1.86506 0
M  V30 1225 H 119.266 -0.7645 -0.315387 0
M  V30 1226 H 121.812 -1.69366 0.106382 0
M  V30 1227 H 120.584 -3.91203 -0.0871376 0
M  V30 1228 H 120.207 -3.56223 -1.7661 0
M  V30 1229 N 121.204 0.198386 -1.56346 0
M  V30 1230 C 122.452 0.91747 -1.80075 0
M  V30 1231 C 122.773 1.83929 -0.647692 0
M  V30 1232 O 122.043 1.93029 0.334166 0
M  V30 1233 H 120.623 0.341774 -0.664228 0
M  V30 1234 H 123.285 0.204684 -1.93822 0
M  V30 1235 H 122.381 1.51055 -2.7311 0
M  V30 1236 N 122.682 1.50554 0.465978 0
M  V30 1237 C 123.91 1.65563 1.24083 0
M  V30 1238 C 124.325 0.341051 1.85694 0
M  V30 1239 O 123.682 -0.677543 1.69457 0
M  V30 1240 C 123.733 2.75051 2.34583 0
M  V30 1241 O 123.454 4.01413 1.75497 0
M  V30 1242 C 124.955 3.01078 3.25372 0
M  V30 1243 H 122.175 0.55638 0.375077 0
M  V30 1244 H 124.719 1.96807 0.555624 0
M  V30 1245 H 122.874 2.46486 2.9887 0
M  V30 1246 H 123.288 4.62002 2.48303 0
M  V30 1247 H 124.762 3.81339 3.99105 0
M  V30 1248 H 125.239 2.12349 3.84453 0
M  V30 1249 H 125.845 3.31194 2.66816 0
M  V30 1250 N 124.16 -0.719506 1.40217 0
M  V30 1251 C 125.11 -1.8251 1.36653 0
M  V30 1252 C 126.094 -1.59028 0.244732 0
M  V30 1253 O 127.286 -1.70268 0.483524 0
M  V30 1254 C 124.415 -3.20599 1.22763 0
M  V30 1255 C 123.501 -3.49858 2.39708 0
M  V30 1256 N 123.892 -3.49957 3.6519 0
M  V30 1257 C 122.19 -3.80297 2.33002 0
M  V30 1258 C 122.891 -3.77449 4.42614 0
M  V30 1259 N 121.867 -3.96002 3.72402 0
M  V30 1260 H 125.669 -1.80914 2.31619 0
M  V30 1261 H 123.183 -0.918455 1.33933 0
M  V30 1262 H 125.18 -3.99766 1.18292 0
M  V30 1263 H 123.84 -3.23424 0.287614 0
M  V30 1264 H 124.851 -3.309 3.98404 0
M  V30 1265 H 121.528 -3.90635 1.47346 0
M  V30 1266 H 122.918 -3.83863 5.51451 0
M  V30 1267 N 125.638 -1.25649 -0.95132 0
M  V30 1268 C 126.878 -1.11802 -1.71113 0
M  V30 1269 C 127.242 0.334758 -1.89059 0
M  V30 1270 O 128.443 0.595121 -2.62129 0
M  V30 1271 C 126.714 -1.85512 -3.05483 0
M  V30 1272 S 128.273 -1.87597 -3.96677 0
M  V30 1273 H 125.091 -0.399552 -0.588115 0
M  V30 1274 H 127.693 -1.59222 -1.1344 0
M  V30 1275 H 126.397 -2.90299 -2.90094 0
M  V30 1276 H 125.928 -1.38493 -3.68216 0
M  V30 1277 H 127.943 -0.955389 -4.86916 0
M  V30 1278 N 127.117 1.15442 -1.07289 0
M  V30 1279 C 128.366 1.85557 -0.790669 0
M  V30 1280 C 128.679 1.83186 0.685739 0
M  V30 1281 O 129.885 2.48977 1.0827 0
M  V30 1282 C 128.341 3.33038 -1.36433 0
M  V30 1283 C 127.949 3.43856 -2.8717 0
M  V30 1284 C 129.693 4.0834 -1.1601 0
M  V30 1285 C 127.6 4.85482 -3.3773 0
M  V30 1286 H 126.53 0.695122 -0.292098 0
M  V30 1287 H 129.181 1.30219 -1.29287 0
M  V30 1288 H 127.563 3.88043 -0.789864 0
M  V30 1289 H 128.737 2.98961 -3.50655 0
M  V30 1290 H 127.052 2.81998 -3.06376 0
M  V30 1291 H 129.649 5.12859 -1.51262 0
M  V30 1292 H 129.992 4.16182 -0.0991007 0
M  V30 1293 H 130.525 3.59603 -1.70089 0
M  V30 1294 H 127.264 4.82823 -4.43353 0
M  V30 1295 H 126.784 5.30961 -2.78999 0
M  V30 1296 H 128.463 5.54335 -3.33648 0
M  V30 1297 N 128.595 0.856903 1.32268 0
M  V30 1298 C 129.825 0.47475 2.01071 0
M  V30 1299 C 130.233 -0.933746 1.64553 0
M  V30 1300 O 129.576 -1.62114 0.863989 0
M  V30 1301 C 129.638 0.536746 3.55471 0
M  V30 1302 C 129.302 1.90453 4.15423 0
M  V30 1303 C 130.299 2.87029 4.33486 0
M  V30 1304 C 127.984 2.20229 4.51447 0
M  V30 1305 C 129.978 4.11532 4.86744 0
M  V30 1306 C 127.665 3.44984 5.0441 0
M  V30 1307 C 128.663 4.40452 5.22007 0
M  V30 1308 O 128.351 5.62998 5.73837 0
M  V30 1309 H 128.083 0.184778 0.650256 0
M  V30 1310 H 130.637 1.15615 1.69771 0
M  V30 1311 H 128.867 -0.20152 3.86175 0
M  V30 1312 H 130.556 0.169875 4.05544 0
M  V30 1313 H 131.322 2.6533 4.05986 0
M  V30 1314 H 127.201 1.46705 4.37034 0
M  V30 1315 H 130.745 4.86056 5.00395 0
M  V30 1316 H 126.642 3.66532 5.31342 0
M  V30 1317 H 127.41 5.64987 5.92226 0
M  V30 1318 N 130.073 -1.45103 0.615059 0
M  V30 1319 C 131.489 -1.57137 0.279322 0
M  V30 1320 C 131.689 -1.60523 -1.21797 0
M  V30 1321 O 130.745 -1.53956 -2.00134 0
M  V30 1322 C 132.058 -2.85062 0.957083 0
M  V30 1323 C 133.606 -2.98749 0.933706 0
M  V30 1324 C 134.081 -4.29455 1.59162 0
M  V30 1325 N 135.572 -4.36231 1.55746 0
M  V30 1326 C 136.307 -5.36051 2.0356 0
M  V30 1327 N 135.803 -6.42367 2.59494 0
M  V30 1328 N 137.596 -5.27456 1.94284 0
M  V30 1329 H 129.747 -1.41148 1.58717 0
M  V30 1330 H 132.01 -0.675331 0.665306 0
M  V30 1331 H 131.716 -2.88488 2.01166 0
M  V30 1332 H 131.59 -3.7407 0.48494 0
M  V30 1333 H 133.977 -2.94886 -0.112347 0
M  V30 1334 H 134.058 -2.11132 1.44419 0
M  V30 1335 H 133.702 -4.34077 2.63704 0
M  V30 1336 H 133.632 -5.15901 1.0561 0
M  V30 1337 H 136.123 -3.60011 1.14893 0
M  V30 1338 H 136.436 -7.14793 2.93752 0
M  V30 1339 H 134.781 -6.43097 2.63537 0
M  V30 1340 H 137.972 -4.43308 1.5032 0
M  V30 1341 H 138.145 -6.05099 2.3186 0
M  V30 1342 N 131.551 -0.354651 -1.53558 0
M  V30 1343 C 132.8 0.239504 -2.00273 0
M  V30 1344 C 133.113 1.50759 -1.24623 0
M  V30 1345 O 134.319 2.17968 -1.61871 0
M  V30 1346 C 132.775 0.477341 -3.5672 0
M  V30 1347 C 132.383 -0.775488 -4.41237 0
M  V30 1348 C 134.127 1.02975 -4.11821 0
M  V30 1349 C 132.034 -0.507838 -5.89216 0
M  V30 1350 H 130.964 0.0932743 -0.748208 0
M  V30 1351 H 133.615 -0.471701 -1.77334 0
M  V30 1352 H 131.997 1.24953 -3.7577 0
M  V30 1353 H 133.171 -1.54963 -4.33962 0
M  V30 1354 H 131.486 -1.25033 -3.97185 0
M  V30 1355 H 134.083 1.24513 -5.2 0
M  V30 1356 H 134.426 1.98862 -3.65731 0
M  V30 1357 H 134.959 0.317994 -3.96527 0
M  V30 1358 H 131.698 -1.43674 -6.39561 0
M  V30 1359 H 131.218 0.228011 -5.99366 0
M  V30 1360 H 132.897 -0.129238 -6.46871 0
M  V30 1361 N 133.029 1.57378 -0.0835403 0
M  V30 1362 C 133.959 2.1641 0.87686 0
M  V30 1363 C 134.94 1.09429 1.30228 0
M  V30 1364 O 136.125 1.37516 1.37124 0
M  V30 1365 C 133.255 2.73517 2.14022 0
M  V30 1366 C 132.209 3.85769 1.85381 0
M  V30 1367 C 131.535 4.29529 3.18448 0
M  V30 1368 C 132.835 5.09486 1.14984 0
M  V30 1369 H 134.529 2.96914 0.385059 0
M  V30 1370 H 132.075 1.42823 0.18377 0
M  V30 1371 H 134.028 3.13463 2.81636 0
M  V30 1372 H 132.752 1.90252 2.65465 0
M  V30 1373 H 131.411 3.46345 1.20169 0
M  V30 1374 H 131.059 3.43169 3.67755 0
M  V30 1375 H 130.759 5.05204 3.00071 0
M  V30 1376 H 132.283 4.72099 3.8724 0
M  V30 1377 H 133.697 5.46674 1.72687 0
M  V30 1378 H 132.094 5.90515 1.06826 0
M  V30 1379 H 133.164 4.84724 0.130749 0
M  V30 1380 N 134.507 -0.190092 1.56449 0
M  V30 1381 C 135.923 -0.54113 1.50146 0
M  V30 1382 C 136.123 -1.85603 0.784465 0
M  V30 1383 O 135.179 -2.5024 0.337051 0
M  V30 1384 C 136.492 -0.591241 2.9483 0
M  V30 1385 C 138.04 -0.679732 3.0553 0
M  V30 1386 C 138.515 -0.760908 4.51635 0
M  V30 1387 N 140.006 -0.824302 4.55806 0
M  V30 1388 C 140.741 -0.907365 5.66175 0
M  V30 1389 N 140.237 -0.952422 6.86222 0
M  V30 1390 N 142.03 -0.94494 5.541 0
M  V30 1391 H 134.181 0.67235 2.01478 0
M  V30 1392 H 136.444 0.240127 0.917084 0
M  V30 1393 H 136.15 0.305905 3.50367 0
M  V30 1394 H 136.024 -1.44422 3.48457 0
M  V30 1395 H 138.411 -1.56731 2.50039 0
M  V30 1396 H 138.492 0.199549 2.5502 0
M  V30 1397 H 138.136 0.122336 5.07753 0
M  V30 1398 H 138.066 -1.65606 4.99882 0
M  V30 1399 H 140.557 -0.798526 3.69367 0
M  V30 1400 H 140.87 -1.01645 7.66086 0
M  V30 1401 H 139.215 -0.921014 6.8887 0
M  V30 1402 H 142.406 -0.906612 4.59236 0
M  V30 1403 H 142.579 -1.00622 6.4014 0
M  V30 1404 N 135.985 -1.50799 -0.457987 0
M  V30 1405 C 136.915 -1.73553 -1.5621 0
M  V30 1406 C 137.896 -0.584774 -1.59732 0
M  V30 1407 O 139.081 -0.825314 -1.7579 0
M  V30 1408 C 136.211 -1.84169 -2.94447 0
M  V30 1409 C 135.165 -2.99461 -3.0579 0
M  V30 1410 C 134.491 -2.95235 -4.45803 0
M  V30 1411 C 135.791 -4.39766 -2.81786 0
M  V30 1412 H 137.485 -2.66 -1.37421 0
M  V30 1413 H 135.031 -1.28002 -0.659662 0
M  V30 1414 H 136.984 -1.98672 -3.71628 0
M  V30 1415 H 135.708 -0.883545 -3.14422 0
M  V30 1416 H 134.367 -2.8463 -2.31044 0
M  V30 1417 H 134.015 -1.97239 -4.62715 0
M  V30 1418 H 133.715 -3.72642 -4.54326 0
M  V30 1419 H 135.239 -3.11803 -5.24987 0
M  V30 1420 H 136.653 -4.55054 -3.4871 0
M  V30 1421 H 135.05 -5.18722 -3.0174 0
M  V30 1422 H 136.12 -4.51229 -1.7754 0
M  V30 1423 N 137.463 0.71206 -1.40597 0
M  V30 1424 C 138.413 1.81783 -1.37619 0
M  V30 1425 C 139.397 1.58896 -0.253162 0
M  V30 1426 O 140.589 1.70009 -0.492547 0
M  V30 1427 C 137.718 3.19944 -1.24462 0
M  V30 1428 C 136.804 3.48582 -2.4156 0
M  V30 1429 N 137.195 3.48016 -3.67041 0
M  V30 1430 C 135.493 3.79056 -2.35016 0
M  V30 1431 C 136.194 3.75096 -4.44609 0
M  V30 1432 N 135.17 3.94022 -3.74497 0
M  V30 1433 H 138.972 1.79683 -2.32575 0
M  V30 1434 H 136.486 0.91134 -1.34419 0
M  V30 1435 H 138.483 3.99133 -1.20411 0
M  V30 1436 H 137.143 3.23267 -0.304762 0
M  V30 1437 H 138.154 3.28782 -4.00153 0
M  V30 1438 H 134.831 3.89848 -1.49415 0
M  V30 1439 H 136.221 3.80934 -5.53479 0
M  V30 1440 N 138.941 1.26152 0.944643 0
M  V30 1441 C 139.851 1.09176 2.07648 0
M  V30 1442 C 140.867 0.0261935 1.7398 0
M  V30 1443 O 142.043 0.229208 2.00091 0
M  V30 1444 C 139.108 0.722915 3.39079 0
M  V30 1445 C 138.169 1.86752 3.86552 0
M  V30 1446 C 137.402 1.51617 5.11711 0
M  V30 1447 O 137.625 0.416331 5.68879 0
M  V30 1448 O 136.559 2.34975 5.54139 0
M  V30 1449 H 140.385 2.0412 2.24875 0
M  V30 1450 H 137.97 1.05182 1.061 0
M  V30 1451 H 139.852 0.529787 4.18056 0
M  V30 1452 H 138.527 -0.197159 3.23099 0
M  V30 1453 H 137.434 2.11558 3.08535 0
M  V30 1454 H 138.767 2.76719 4.07047 0
M  V30 1455 N 140.419 -1.14872 1.07899 0
M  V30 1456 C 141.367 -2.21857 0.698727 0
M  V30 1457 C 142.361 -1.66845 -0.293086 0
M  V30 1458 O 143.567 -1.79321 -0.156204 0
M  V30 1459 H 139.942 -0.722691 0.207899 0
M  V30 1460 H 141.913 -2.51205 1.61054 0
M  V30 1461 C 140.662 -3.47498 0.11858 0
M  V30 1462 H 139.985 -3.90154 0.872914 0
M  V30 1463 H 141.425 -4.23858 -0.109759 0
M  V30 1464 C 139.884 -3.16947 -1.1422 0
M  V30 1465 O 140.414 -3.3426 -2.22785 0
M  V30 1466 N 138.62 -2.70946 -1.05055 0
M  V30 1467 H 138.167 -2.57058 -0.167038 0
M  V30 1468 H 138.125 -2.50879 -1.89491 0
M  V30 1469 N 141.898 -0.863906 -1.31812 0
M  V30 1470 C 142.861 -0.320212 -2.26952 0
M  V30 1471 C 143.861 0.525369 -1.51975 0
M  V30 1472 O 145.051 0.335547 -1.70938 0
M  V30 1473 C 142.183 0.545919 -3.365 0
M  V30 1474 H 143.376 -1.16004 -2.76556 0
M  V30 1475 H 140.929 -0.638995 -1.42641 0
M  V30 1476 H 141.664 1.40718 -2.92179 0
M  V30 1477 H 141.449 -0.0594674 -3.92055 0
M  V30 1478 H 142.939 0.918796 -4.07367 0
M  V30 1479 N 143.376 1.44774 -0.622745 0
M  V30 1480 C 144.653 1.95522 -0.0551974 0
M  V30 1481 C 145.033 1.5649 1.41683 0
M  V30 1482 O 144.381 0.834848 2.12703 0
M  V30 1483 C 144.591 3.4796 -0.269242 0
M  V30 1484 C 145.939 4.24306 -0.158014 0
M  V30 1485 O 146.963 3.55637 -0.200162 0
M  V30 1486 O 145.822 5.46471 -0.0558693 0
M  V30 1487 H 142.916 0.826556 0.0271015 0
M  V30 1488 H 145.462 1.54866 -0.693864 0
M  V30 1489 H 144.234 3.6939 -1.29099 0
M  V30 1490 H 143.857 3.95543 0.403966 0
M  V30 1491 N 144.854 0.36279 1.53368 0
M  V30 1492 C 146.101 -0.227776 2.01215 0
M  V30 1493 C 146.429 -1.49003 1.25014 0
M  V30 1494 O 145.684 -1.92876 0.331236 0
M  V30 1495 C 145.983 -0.568417 3.52851 0
M  V30 1496 C 145.649 0.59918 4.46901 0
M  V30 1497 C 144.311 0.919559 4.72332 0
M  V30 1498 C 146.663 1.38156 5.02556 0
M  V30 1499 C 143.991 2.02434 5.5067 0
M  V30 1500 C 146.343 2.47674 5.821 0
M  V30 1501 C 145.007 2.8025 6.05819 0
M  V30 1502 H 144.277 -0.083349 0.736297 0
M  V30 1503 H 146.924 0.494677 1.85001 0
M  V30 1504 H 145.229 -1.37185 3.66998 0
M  V30 1505 H 146.926 -1.03756 3.87344 0
M  V30 1506 H 143.516 0.339437 4.27254 0
M  V30 1507 H 147.7 1.14729 4.82857 0
M  V30 1508 H 142.956 2.28075 5.67267 0
M  V30 1509 H 147.13 3.08716 6.24234 0
M  V30 1510 H 144.757 3.65979 6.66306 0
M  V30 1511 N 146.332 -1.57332 0.0918853 0
M  V30 1512 C 147.264 -2.10869 -0.898168 0
M  V30 1513 C 148.277 -1.04521 -1.24817 0
M  V30 1514 O 149.466 -1.31977 -1.20184 0
M  V30 1515 C 146.566 -2.57083 -2.2082 0
M  V30 1516 C 145.739 -3.87229 -2.03402 0
M  V30 1517 C 144.798 -4.19324 -3.17889 0
M  V30 1518 O 143.824 -4.88598 -2.91994 0
M  V30 1519 N 145.026 -3.74471 -4.43567 0
M  V30 1520 H 147.791 -2.96439 -0.440943 0
M  V30 1521 H 145.352 -1.61631 -0.0933064 0
M  V30 1522 H 147.344 -2.75602 -2.96354 0
M  V30 1523 H 145.914 -1.76541 -2.57977 0
M  V30 1524 H 145.134 -3.7789 -1.12218 0
M  V30 1525 H 146.422 -4.72379 -1.89038 0
M  V30 1526 H 145.82 -3.18546 -4.67488 0
M  V30 1527 H 144.377 -3.98151 -5.16061 0
M  V30 1528 N 147.81 0.181792 -1.56548 0
M  V30 1529 C 149.087 0.926765 -1.72251 0
M  V30 1530 C 149.467 2.00831 -0.650386 0
M  V30 1531 O 148.815 2.26008 0.336521 0
M  V30 1532 C 149.025 1.50106 -3.1507 0
M  V30 1533 C 150.373 1.97805 -3.75711 0
M  V30 1534 O 151.397 1.59922 -3.18282 0
M  V30 1535 O 150.256 2.67555 -4.76525 0
M  V30 1536 H 147.35 0.435506 -0.703039 0
M  V30 1537 H 149.896 0.170443 -1.68842 0
M  V30 1538 H 148.668 0.72212 -3.84579 0
M  V30 1539 H 148.291 2.32186 -3.22763 0
M  V30 1540 N 149.288 1.51039 0.449983 0
M  V30 1541 C 150.516 1.66869 1.2232 0
M  V30 1542 C 150.931 0.360727 1.85322 0
M  V30 1543 O 150.288 -0.659531 1.70166 0
M  V30 1544 C 150.339 2.77524 2.31652 0
M  V30 1545 O 150.06 4.03252 1.7123 0
M  V30 1546 C 151.561 3.04512 3.2216 0
M  V30 1547 H 148.781 0.560326 0.369155 0
M  V30 1548 H 151.325 1.97385 0.534719 0
M  V30 1549 H 149.48 2.49642 2.96239 0
M  V30 1550 H 149.894 4.64609 2.43389 0
M  V30 1551 H 151.368 3.85551 3.95038 0
M  V30 1552 H 151.845 2.16415 3.8218 0
M  V30 1553 H 152.451 3.34005 2.63288 0
M  V30 1554 N 150.766 -0.704594 1.40972 0
M  V30 1555 C 151.994 -1.49354 1.43182 0
M  V30 1556 C 152.409 -1.88768 0.0345508 0
M  V30 1557 O 151.766 -1.56184 -0.944081 0
M  V30 1558 C 151.817 -2.76187 2.33244 0
M  V30 1559 O 151.538 -2.38436 3.67532 0
M  V30 1560 C 153.039 -3.7 2.44162 0
M  V30 1561 H 150.259 -0.460559 0.487982 0
M  V30 1562 H 152.803 -0.868261 1.85153 0
M  V30 1563 H 150.958 -3.34974 1.94606 0
M  V30 1564 H 151.372 -3.20126 4.15475 0
M  V30 1565 H 152.846 -4.55803 3.11364 0
M  V30 1566 H 153.323 -4.13867 1.47006 0
M  V30 1567 H 153.929 -3.17121 2.83398 0
M  V30 1568 N 152.244 -1.26651 -0.937939 0
M  V30 1569 C 153.174 -1.10993 -2.05433 0
M  V30 1570 C 154.155 -0.0142161 -1.70094 0
M  V30 1571 O 155.34 -0.186837 -1.93299 0
M  V30 1572 C 152.47 -0.745561 -3.39203 0
M  V30 1573 C 151.424 -1.79337 -3.88616 0
M  V30 1574 C 150.75 -1.28324 -5.19073 0
M  V30 1575 C 152.05 -3.19553 -4.13138 0
M  V30 1576 H 153.744 -2.0438 -2.1879 0
M  V30 1577 H 151.29 -0.984041 -1.05131 0
M  V30 1578 H 153.243 -0.622888 -4.16771 0
M  V30 1579 H 151.967 0.22401 -3.25831 0
M  V30 1580 H 150.626 -1.90477 -3.13231 0
M  V30 1581 H 150.274 -0.303414 -5.02084 0
M  V30 1582 H 149.974 -1.98369 -5.53103 0
M  V30 1583 H 151.498 -1.1733 -5.99221 0
M  V30 1584 H 152.912 -3.11471 -4.81309 0
M  V30 1585 H 151.309 -3.87218 -4.58457 0
M  V30 1586 H 152.379 -3.65368 -3.18801 0
M  V30 1587 N 153.722 1.14298 -1.08507 0
M  V30 1588 C 154.632 2.23027 -0.727753 0
M  V30 1589 C 155.648 1.71952 0.26619 0
M  V30 1590 O 156.824 2.011 0.109882 0
M  V30 1591 C 153.889 3.46403 -0.143541 0
M  V30 1592 C 152.95 4.12413 -1.19223 0
M  V30 1593 C 152.183 5.29899 -0.635798 0
M  V30 1594 O 152.406 5.67796 0.544393 0
M  V30 1595 O 151.34 5.85717 -1.38634 0
M  V30 1596 H 155.166 2.55945 -1.63481 0
M  V30 1597 H 152.751 1.22248 -0.858817 0
M  V30 1598 H 154.633 4.21018 0.179404 0
M  V30 1599 H 153.308 3.15206 0.736659 0
M  V30 1600 H 152.215 3.39667 -1.56772 0
M  V30 1601 H 153.548 4.47718 -2.04474 0
M  V30 1602 N 155.201 0.870884 1.31352 0
M  V30 1603 C 156.426 0.495957 2.01383 0
M  V30 1604 C 156.851 -0.904324 1.64935 0
M  V30 1605 O 156.209 -1.59687 0.858466 0
M  V30 1606 C 156.257 0.661433 3.54482 0
M  V30 1607 O 155.361 -0.298851 4.11316 0
M  V30 1608 H 154.702 0.197158 0.634054 0
M  V30 1609 H 157.232 1.17455 1.67527 0
M  V30 1610 H 157.242 0.555072 4.04207 0
M  V30 1611 H 155.917 1.68246 3.8035 0
M  V30 1612 H 154.494 -0.147368 3.72609 0
M  V30 1613 N 156.679 -1.44442 0.630414 0
M  V30 1614 C 157.611 -2.2892 -0.113347 0
M  V30 1615 C 158.624 -1.41243 -0.80959 0
M  V30 1616 O 159.813 -1.65402 -0.671156 0
M  V30 1617 C 156.913 -3.17594 -1.18266 0
M  V30 1618 C 156.086 -4.33682 -0.569073 0
M  V30 1619 C 155.145 -5.03397 -1.53226 0
M  V30 1620 O 154.171 -5.59438 -1.04967 0
M  V30 1621 N 155.373 -5.04783 -2.86661 0
M  V30 1622 H 158.138 -2.93392 0.611636 0
M  V30 1623 H 155.699 -1.54881 0.471523 0
M  V30 1624 H 157.691 -3.61097 -1.82732 0
M  V30 1625 H 156.261 -2.54876 -1.80988 0
M  V30 1626 H 155.481 -3.9338 0.254187 0
M  V30 1627 H 156.769 -5.08608 -0.139767 0
M  V30 1628 H 156.167 -4.60584 -3.28449 0
M  V30 1629 H 154.724 -5.52077 -3.46489 0
M  V30 1630 N 158.157 -0.370918 -1.53173 0
M  V30 1631 C 159.434 0.273754 -1.93675 0
M  V30 1632 C 159.814 1.65938 -1.3049 0
M  V30 1633 O 159.162 2.23698 -0.465999 0
M  V30 1634 C 159.372 0.318602 -3.47543 0
M  V30 1635 C 160.72 0.556392 -4.20939 0
M  V30 1636 O 161.744 0.399587 -3.53952 0
M  V30 1637 O 160.603 0.862133 -5.39657 0
M  V30 1638 H 157.697 0.165448 -0.810281 0
M  V30 1639 H 160.243 -0.42409 -1.64315 0
M  V30 1640 H 159.015 -0.652687 -3.85818 0
M  V30 1641 H 158.638 1.06212 -3.83151 0
M  V30 1642 N 159.635 1.57281 -0.100228 0
M  V30 1643 C 160.863 1.98879 0.570509 0
M  V30 1644 C 161.278 0.979476 1.61405 0
M  V30 1645 O 160.635 -0.0302288 1.82475 0
M  V30 1646 C 160.686 3.4052 1.2136 0
M  V30 1647 O 160.407 4.37588 0.211786 0
M  V30 1648 C 161.908 3.97149 1.96945 0
M  V30 1649 H 159.128 0.653428 0.152555 0
M  V30 1650 H 161.672 2.03697 -0.18103 0
M  V30 1651 H 159.827 3.367 1.91603 0
M  V30 1652 H 160.241 5.20118 0.676607 0
M  V30 1653 H 161.715 4.98393 2.37294 0
M  V30 1654 H 162.192 3.3525 2.83733 0
M  V30 1655 H 162.798 4.04458 1.31506 0
M  V30 1656 N 161.113 -0.173488 1.56642 0
M  V30 1657 C 162.06 -1.21482 1.96242 0
M  V30 1658 C 163.03 -1.44104 0.826027 0
M  V30 1659 O 164.215 -1.5688 1.08597 0
M  V30 1660 C 161.355 -2.54964 2.32567 0
M  V30 1661 C 160.468 -2.39739 3.59373 0
M  V30 1662 C 159.603 -3.66072 3.84921 0
M  V30 1663 C 158.642 -3.45771 5.05083 0
M  V30 1664 N 157.779 -4.64169 5.26775 0
M  V30 1665 H 162.619 -0.870123 2.85014 0
M  V30 1666 H 160.156 -0.418245 1.41029 0
M  V30 1667 H 162.114 -3.32758 2.5165 0
M  V30 1668 H 160.744 -2.87433 1.46908 0
M  V30 1669 H 159.796 -1.53131 3.48217 0
M  V30 1670 H 161.108 -2.20683 4.47326 0
M  V30 1671 H 160.262 -4.52303 4.0436 0
M  V30 1672 H 159.001 -3.88105 2.9534 0
M  V30 1673 H 158.006 -2.57927 4.85545 0
M  V30 1674 H 159.231 -3.25163 5.96193 0
M  V30 1675 H 157.177 -4.86425 4.40144 0
M  V30 1676 H 157.094 -4.48019 6.08946 0
M  V30 1677 H 158.362 -5.51689 5.5069 0
M  V30 1678 N 162.591 -1.51276 -0.441967 0
M  V30 1679 C 163.521 -1.752 -1.54361 0
M  V30 1680 C 164.502 -0.601682 -1.59103 0
M  V30 1681 O 165.687 -0.843913 -1.74905 0
M  V30 1682 C 162.817 -1.87282 -2.92477 0
M  V30 1683 C 161.771 -3.02687 -3.02596 0
M  V30 1684 C 161.097 -2.99947 -4.42647 0
M  V30 1685 C 162.397 -4.4273 -2.77106 0
M  V30 1686 H 164.091 -2.67442 -1.34592 0
M  V30 1687 H 161.637 -1.28694 -0.646048 0
M  V30 1688 H 163.59 -2.02602 -3.695 0
M  V30 1689 H 162.314 -0.916844 -3.13467 0
M  V30 1690 H 160.973 -2.87065 -2.28012 0
M  V30 1691 H 160.621 -2.02136 -4.60597 0
M  V30 1692 H 160.321 -3.77439 -4.50348 0
M  V30 1693 H 161.845 -3.17354 -5.2165 0
M  V30 1694 H 163.259 -4.58727 -3.43864 0
M  V30 1695 H 161.656 -5.21893 -2.96222 0
M  V30 1696 H 162.726 -4.53087 -1.72744 0
M  V30 1697 N 164.069 0.697108 -1.41344 0
M  V30 1698 C 165.318 1.45279 -1.39918 0
M  V30 1699 C 165.631 1.95597 -0.0109624 0
M  V30 1700 O 166.837 2.71208 0.125919 0
M  V30 1701 C 165.293 2.62695 -2.46007 0
M  V30 1702 C 164.901 2.19169 -3.90729 0
M  V30 1703 C 166.645 3.40336 -2.53715 0
M  V30 1704 C 164.552 3.33535 -4.88373 0
M  V30 1705 H 163.482 0.545692 -0.520323 0
M  V30 1706 H 166.133 0.756929 -1.67161 0
M  V30 1707 H 164.515 3.34541 -2.11892 0
M  V30 1708 H 165.689 1.54623 -4.34083 0
M  V30 1709 H 164.004 1.54525 -3.86666 0
M  V30 1710 H 166.601 4.2547 -3.2385 0
M  V30 1711 H 166.944 3.85418 -1.5735 0
M  V30 1712 H 167.477 2.75546 -2.86913 0
M  V30 1713 H 164.216 2.93468 -5.86137 0
M  V30 1714 H 163.736 3.96936 -4.49668 0
M  V30 1715 H 165.415 3.99335 -5.09059 0
M  V30 1716 N 165.547 1.27147 0.931209 0
M  V30 1717 C 166.958 1.12044 1.49342 0
M  V30 1718 C 167.309 -0.295795 1.93957 0
M  V30 1719 O 166.434 -1.18835 1.80852 0
M  V30 1720 C 167.029 2.02781 2.71414 0
M  V30 1721 C 165.588 1.91794 3.2387 0
M  V30 1722 C 164.735 1.95543 1.96617 0
M  V30 1723 H 167.686 1.40091 0.745672 0
M  V30 1724 H 167.707 1.58156 3.46074 0
M  V30 1725 H 167.219 3.05848 2.38911 0
M  V30 1726 H 165.32 0.916992 3.6114 0
M  V30 1727 H 165.433 2.77852 3.90302 0
M  V30 1728 H 163.797 1.39722 2.12955 0
M  V30 1729 H 164.58 3.00259 1.66432 0
M  V30 1730 N 167.025 -1.13721 1.09112 0
M  V30 1731 C 168.302 -1.81155 0.737706 0
M  V30 1732 C 168.682 -1.96253 -0.777683 0
M  V30 1733 O 168.03 -1.52807 -1.69889 0
M  V30 1734 C 168.24 -3.16392 1.47299 0
M  V30 1735 C 169.588 -3.91787 1.63671 0
M  V30 1736 O 170.612 -3.26005 1.43524 0
M  V30 1737 O 169.471 -5.0977 1.96969 0
M  V30 1738 H 166.565 -0.783518 0.26463 0
M  V30 1739 H 169.111 -1.20676 1.19312 0
M  V30 1740 H 167.883 -3.0061 2.50498 0
M  V30 1741 H 167.506 -3.8457 1.00953 0
M  V30 1742 N 168.503 -0.877838 -1.30888 0
M  V30 1743 C 169.728 -0.506629 -2.01117 0
M  V30 1744 C 170.153 0.895564 -1.65412 0
M  V30 1745 O 169.511 1.5923 -0.866922 0
M  V30 1746 C 169.559 -0.680223 -3.54126 0
M  V30 1747 O 168.663 0.277033 -4.11468 0
M  V30 1748 H 168.004 -0.200518 -0.633 0
M  V30 1749 H 170.534 -1.18342 -1.66902 0
M  V30 1750 H 170.544 -0.5765 -4.03907 0
M  V30 1751 H 169.219 -1.70261 -3.79452 0
M  V30 1752 H 167.796 0.127606 -3.72682 0
M  V30 1753 N 169.982 1.44106 -0.638065 0
M  V30 1754 C 171.222 2.03858 -0.148733 0
M  V30 1755 C 171.586 1.49153 1.20903 0
M  V30 1756 O 172.787 2.00452 1.79088 0
M  V30 1757 C 171.058 3.57117 -0.142314 0
M  V30 1758 S 172.617 4.37897 0.281385 0
M  V30 1759 H 169.435 0.708069 -0.0644912 0
M  V30 1760 H 172.037 1.7639 -0.843009 0
M  V30 1761 H 170.741 3.94436 -1.13349 0
M  V30 1762 H 170.272 3.89205 0.572988 0
M  V30 1763 H 172.287 4.72218 1.52395 0
M  V30 1764 N 171.46 0.379036 1.52974 0
M  V30 1765 C 172.876 0.0285448 1.59574 0
M  V30 1766 C 173.076 -1.45542 1.39355 0
M  V30 1767 O 172.132 -2.2187 1.20541 0
M  V30 1768 C 173.445 0.496535 2.96572 0
M  V30 1769 C 174.993 0.451909 3.0972 0
M  V30 1770 C 175.468 0.895924 4.49152 0
M  V30 1771 N 176.959 0.851522 4.55306 0
M  V30 1772 C 177.694 1.16661 5.61407 0
M  V30 1773 N 177.19 1.55166 6.752 0
M  V30 1774 N 178.983 1.08853 5.51459 0
M  V30 1775 H 171.134 1.34525 1.64367 0
M  V30 1776 H 173.397 0.550733 0.771619 0
M  V30 1777 H 173.103 1.53258 3.16552 0
M  V30 1778 H 172.977 -0.109802 3.7704 0
M  V30 1779 H 175.364 -0.575029 2.89443 0
M  V30 1780 H 175.445 1.09392 2.3123 0
M  V30 1781 H 175.089 1.92104 4.70168 0
M  V30 1782 H 175.019 0.23103 5.26093 0
M  V30 1783 H 177.51 0.568038 3.73606 0
M  V30 1784 H 177.823 1.776 7.52116 0
M  V30 1785 H 176.168 1.59044 6.76557 0
M  V30 1786 H 179.359 0.786803 4.6144 0
M  V30 1787 H 179.532 1.33742 6.34048 0
M  V30 1788 N 172.938 -1.57226 0.108567 0
M  V30 1789 C 174.354 -1.5766 -0.248058 0
M  V30 1790 C 174.554 -1.12063 -1.67464 0
M  V30 1791 O 173.61 -0.803236 -2.39383 0
M  V30 1792 C 174.923 -3.0069 -0.0242287 0
M  V30 1793 C 176.471 -3.12868 -0.0909372 0
M  V30 1794 C 176.946 -4.57879 0.105067 0
M  V30 1795 N 178.437 -4.63172 0.0506846 0
M  V30 1796 C 179.172 -5.73126 0.177396 0
M  V30 1797 N 178.668 -6.91866 0.359696 0
M  V30 1798 N 180.461 -5.61977 0.117709 0
M  V30 1799 H 172.612 -1.85169 1.04049 0
M  V30 1800 H 174.875 -0.85529 0.40888 0
M  V30 1801 H 174.581 -3.38299 0.961604 0
M  V30 1802 H 174.455 -3.6945 -0.76068 0
M  V30 1803 H 176.842 -2.75124 -1.06729 0
M  V30 1804 H 176.923 -2.46672 0.677225 0
M  V30 1805 H 176.567 -4.96321 1.07834 0
M  V30 1806 H 176.497 -5.22153 -0.682954 0
M  V30 1807 H 178.988 -3.778 -0.0871266 0
M  V30 1808 H 179.301 -7.71503 0.447529 0
M  V30 1809 H 177.646 -6.93874 0.395536 0
M  V30 1810 H 180.837 -4.68094 -0.0236741 0
M  V30 1811 H 181.01 -6.47627 0.219905 0
M  V30 1812 N 174.416 0.165178 -1.56732 0
M  V30 1813 C 175.665 0.879143 -1.81532 0
M  V30 1814 C 175.978 1.83144 -0.686842 0
M  V30 1815 O 177.184 2.58823 -0.819944 0
M  V30 1816 C 175.64 1.61388 -3.21686 0
M  V30 1817 C 175.248 0.704904 -4.4242 0
M  V30 1818 C 176.992 2.3157 -3.55774 0
M  V30 1819 C 174.899 1.44022 -5.73595 0
M  V30 1820 H 173.829 0.332033 -0.676957 0
M  V30 1821 H 176.48 0.132008 -1.83025 0
M  V30 1822 H 174.862 2.40599 -3.14529 0
M  V30 1823 H 176.036 -0.0506815 -4.60772 0
M  V30 1824 H 174.351 0.112419 -4.16248 0
M  V30 1825 H 176.948 2.8719 -4.51028 0
M  V30 1826 H 177.291 3.07201 -2.8095 0
M  V30 1827 H 177.824 1.59297 -3.64513 0
M  V30 1828 H 174.563 0.72612 -6.51466 0
M  V30 1829 H 174.083 2.16898 -5.5921 0
M  V30 1830 H 175.762 1.98606 -6.15764 0
M  V30 1831 N 175.894 1.51508 0.433938 0
M  V30 1832 C 176.841 1.73068 1.52696 0
M  V30 1833 C 177.811 0.572441 1.55924 0
M  V30 1834 O 178.996 0.807253 1.72882 0
M  V30 1835 C 176.136 1.86474 2.90381 0
M  V30 1836 C 175.249 3.14037 2.96656 0
M  V30 1837 C 174.384 3.18019 4.25485 0
M  V30 1838 C 173.423 4.39882 4.2564 0
M  V30 1839 N 172.56 4.41394 5.45999 0
M  V30 1840 H 177.4 2.66366 1.33615 0
M  V30 1841 H 174.937 1.32008 0.649018 0
M  V30 1842 H 176.895 1.92229 3.70275 0
M  V30 1843 H 175.525 0.965809 3.08013 0
M  V30 1844 H 174.577 3.17575 2.09404 0
M  V30 1845 H 175.889 4.0394 2.92633 0
M  V30 1846 H 175.043 3.22708 5.13755 0
M  V30 1847 H 173.782 2.2601 4.3217 0
M  V30 1848 H 172.787 4.35366 3.35763 0
M  V30 1849 H 174.012 5.33159 4.20617 0
M  V30 1850 H 171.958 3.52258 5.53399 0
M  V30 1851 H 171.875 5.25111 5.4387 0
M  V30 1852 H 173.143 4.50281 6.36292 0
M  V30 1853 N 177.372 -0.689602 1.41712 0
M  V30 1854 C 178.304 -1.815 1.39966 0
M  V30 1855 C 179.317 -1.59995 0.300917 0
M  V30 1856 O 180.506 -1.69387 0.563039 0
M  V30 1857 C 177.606 -3.18364 1.16179 0
M  V30 1858 C 176.779 -3.66847 2.38206 0
M  V30 1859 C 175.838 -4.82398 2.10186 0
M  V30 1860 O 174.864 -4.93706 2.83272 0
M  V30 1861 N 176.066 -5.70064 1.0958 0
M  V30 1862 H 178.831 -1.83488 2.36965 0
M  V30 1863 H 176.392 -0.872149 1.36401 0
M  V30 1864 H 178.384 -3.93301 0.953756 0
M  V30 1865 H 176.954 -3.11365 0.27756 0
M  V30 1866 H 176.174 -2.82751 2.74673 0
M  V30 1867 H 177.462 -3.95978 3.19498 0
M  V30 1868 H 176.86 -5.63565 0.491019 0
M  V30 1869 H 175.417 -6.44874 0.947656 0
M  V30 1870 N 178.85 -1.27639 -0.924453 0
M  V30 1871 C 179.813 -1.10681 -2.00705 0
M  V30 1872 C 180.813 -0.0497823 -1.60723 0
M  V30 1873 O 182.003 -0.294654 -1.7169 0
M  V30 1874 C 179.135 -0.687164 -3.33902 0
M  V30 1875 H 180.328 -2.06817 -2.17179 0
M  V30 1876 H 177.881 -1.10473 -1.10569 0
M  V30 1877 H 178.616 0.275439 -3.23128 0
M  V30 1878 H 178.401 -1.45061 -3.6428 0
M  V30 1879 H 179.891 -0.590853 -4.13399 0
M  V30 1880 N 180.328 1.1314 -1.09713 0
M  V30 1881 C 181.575 1.84484 -0.834987 0
M  V30 1882 C 181.903 1.83689 0.639418 0
M  V30 1883 O 181.158 1.2724 1.4869 0
M  V30 1884 C 181.457 3.32167 -1.3191 0
M  V30 1885 C 181.123 3.53139 -2.80363 0
M  V30 1886 C 179.785 3.58571 -3.20905 0
M  V30 1887 C 182.137 3.60866 -3.76065 0
M  V30 1888 C 179.465 3.69267 -4.55916 0
M  V30 1889 C 181.817 3.73089 -5.10869 0
M  V30 1890 C 180.481 3.76775 -5.50996 0
M  V30 1891 H 179.751 0.675073 -0.305544 0
M  V30 1892 H 182.398 1.33554 -1.37243 0
M  V30 1893 H 180.703 3.85469 -0.701517 0
M  V30 1894 H 182.4 3.85821 -1.09284 0
M  V30 1895 H 178.99 3.49569 -2.47991 0
M  V30 1896 H 183.174 3.55946 -3.45855 0
M  V30 1897 H 178.43 3.70388 -4.86438 0
M  V30 1898 H 182.604 3.78011 -5.84877 0
M  V30 1899 H 180.231 3.84815 -6.55608 0
M  V30 1900 N 181.806 0.884767 1.30421 0
M  V30 1901 C 182.738 0.308655 2.27112 0
M  V30 1902 C 183.751 -0.536655 1.53701 0
M  V30 1903 O 184.94 -0.35624 1.74909 0
M  V30 1904 C 182.04 -0.579782 3.33904 0
M  V30 1905 C 181.213 0.236417 4.36761 0
M  V30 1906 C 180.272 -0.582482 5.22966 0
M  V30 1907 O 179.298 -0.00525502 5.692 0
M  V30 1908 N 180.5 -1.89163 5.48815 0
M  V30 1909 H 183.265 1.13964 2.77186 0
M  V30 1910 H 180.826 0.747731 1.43599 0
M  V30 1911 H 182.818 -1.13366 3.88497 0
M  V30 1912 H 181.388 -1.31144 2.83761 0
M  V30 1913 H 180.608 0.97174 3.82035 0
M  V30 1914 H 181.896 0.795924 5.02536 0
M  V30 1915 H 181.294 -2.38352 5.13035 0
M  V30 1916 H 179.851 -2.39296 6.06284 0
M  V30 1917 N 183.284 -1.43765 0.645699 0
M  V30 1918 C 184.532 -2.01499 0.155731 0
M  V30 1919 C 184.853 -1.51151 -1.232 0
M  V30 1920 O 184.123 -0.721044 -1.82148 0
M  V30 1921 H 182.703 -0.745003 0.0545817 0
M  V30 1922 H 185.365 -1.76075 0.835677 0
M  V30 1923 H 184.461 -3.1181 0.134577 0
M  V30 1924 N 184.763 -0.387143 -1.52771 0
M  V30 1925 C 185.726 0.436939 -2.24997 0
M  V30 1926 C 186.726 0.991991 -1.26555 0
M  V30 1927 O 187.916 0.874335 -1.50669 0
M  V30 1928 C 185.048 1.61281 -3.00335 0
M  V30 1929 H 186.241 -0.195365 -2.99263 0
M  V30 1930 H 183.794 -0.139218 -1.55679 0
M  V30 1931 H 184.529 2.2826 -2.30364 0
M  V30 1932 H 184.314 1.22154 -3.72587 0
M  V30 1933 H 185.804 2.19629 -3.5518 0
M  V30 1934 N 186.241 1.57166 -0.116904 0
M  V30 1935 C 187.487 1.95412 0.542405 0
M  V30 1936 C 187.82 1.00019 1.66463 0
M  V30 1937 O 187.095 0.0370346 1.94465 0
M  V30 1938 C 187.378 3.43615 1.07708 0
M  V30 1939 C 187.231 4.49781 -0.0415868 0
M  V30 1940 C 188.55 3.93616 1.96861 0
M  V30 1941 H 185.669 0.710543 0.195696 0
M  V30 1942 H 188.311 1.89027 -0.192038 0
M  V30 1943 H 186.461 3.49187 1.70296 0
M  V30 1944 H 188.133 4.56308 -0.676793 0
M  V30 1945 H 186.376 4.28033 -0.705019 0
M  V30 1946 H 187.047 5.50733 0.373717 0
M  V30 1947 H 189.523 3.90335 1.44146 0
M  V30 1948 H 188.399 4.97838 2.3119 0
M  V30 1949 H 188.66 3.34188 2.89432 0
M  V30 1950 N 187.719 -0.156864 1.56817 0
M  V30 1951 C 188.651 -1.21883 1.94106 0
M  V30 1952 C 189.664 -1.3971 0.835754 0
M  V30 1953 O 190.853 -1.39457 1.11418 0
M  V30 1954 C 187.953 -2.58527 2.19127 0
M  V30 1955 C 187.126 -2.61809 3.50393 0
M  V30 1956 C 186.185 -3.7992 3.64071 0
M  V30 1957 O 185.211 -3.65249 4.36557 0
M  V30 1958 N 186.413 -4.96973 2.99997 0
M  V30 1959 H 189.178 -0.901974 2.85805 0
M  V30 1960 H 186.739 -0.346513 1.58148 0
M  V30 1961 H 188.731 -3.36034 2.25529 0
M  V30 1962 H 187.301 -2.82545 1.33742 0
M  V30 1963 H 186.521 -1.7029 3.5552 0
M  V30 1964 H 187.809 -2.61024 4.36742 0
M  V30 1965 H 187.207 -5.11794 2.41004 0
M  V30 1966 H 185.764 -5.7229 3.11974 0
M  V30 1967 N 189.197 -1.51736 -0.425897 0
M  V30 1968 C 190.144 -1.73875 -1.51776 0
M  V30 1969 C 191.114 -0.580702 -1.55618 0
M  V30 1970 O 192.299 -0.81641 -1.72451 0
M  V30 1971 C 189.439 -1.88012 -2.89388 0
M  V30 1972 C 188.552 -3.15606 -2.94986 0
M  V30 1973 C 187.687 -3.20271 -4.23793 0
M  V30 1974 C 186.726 -4.42134 -4.23302 0
M  V30 1975 N 185.863 -4.44284 -5.43651 0
M  V30 1976 H 190.703 -2.67071 -1.32201 0
M  V30 1977 H 188.24 -1.32351 -0.642008 0
M  V30 1978 H 190.198 -1.9419 -3.69251 0
M  V30 1979 H 188.828 -0.98213 -3.07496 0
M  V30 1980 H 187.88 -3.18681 -2.07717 0
M  V30 1981 H 189.192 -4.05486 -2.90486 0
M  V30 1982 H 188.346 -3.25428 -5.12036 0
M  V30 1983 H 187.085 -2.28299 -4.30965 0
M  V30 1984 H 186.09 -4.3714 -3.3345 0
M  V30 1985 H 187.315 -5.35382 -4.17783 0
M  V30 1986 H 185.261 -3.55188 -5.51523 0
M  V30 1987 H 185.178 -5.27988 -5.41078 0
M  V30 1988 H 186.446 -4.53649 -6.33895 0
M  V30 1989 N 190.675 0.682077 -1.42076 0
M  V30 1990 C 191.585 1.82535 -1.47371 0
M  V30 1991 C 192.601 1.7017 -0.363079 0
M  V30 1992 O 193.777 1.91848 -0.612875 0
M  V30 1993 C 190.842 3.18624 -1.36674 0
M  V30 1994 C 189.903 3.42999 -2.58167 0
M  V30 1995 C 189.136 4.72595 -2.4797 0
M  V30 1996 O 189.359 5.50006 -1.5116 0
M  V30 1997 O 188.293 4.98054 -3.37974 0
M  V30 1998 H 192.119 1.81023 -2.43853 0
M  V30 1999 H 189.704 0.836887 -1.2376 0
M  V30 2000 H 191.586 3.99847 -1.33043 0
M  V30 2001 H 190.261 3.20789 -0.433138 0
M  V30 2002 H 189.168 2.61653 -2.67373 0
M  V30 2003 H 190.501 3.45659 -3.50401 0
M  V30 2004 N 192.153 1.28127 0.917671 0
M  V30 2005 C 193.083 1.14248 2.03641 0
M  V30 2006 C 194.064 0.0412748 1.7005 0
M  V30 2007 O 195.249 0.217566 1.92977 0
M  V30 2008 C 192.379 0.799431 3.37974 0
M  V30 2009 C 191.333 1.85497 3.85713 0
M  V30 2010 C 190.659 1.36565 5.16966 0
M  V30 2011 C 191.959 3.26085 4.08002 0
M  V30 2012 H 193.653 2.07835 2.15511 0
M  V30 2013 H 191.199 1.00064 1.03553 0
M  V30 2014 H 193.152 0.689114 4.15727 0
M  V30 2015 H 191.876 -0.172145 3.26146 0
M  V30 2016 H 190.535 1.95437 3.10161 0
M  V30 2017 H 190.183 0.383253 5.01538 0
M  V30 2018 H 189.883 2.07143 5.49878 0
M  V30 2019 H 191.407 1.26848 5.97279 0
M  V30 2020 H 192.821 3.19089 4.76293 0
M  V30 2021 H 191.218 3.94462 4.52238 0
M  V30 2022 H 192.288 3.70394 3.12948 0
M  V30 2023 N 193.631 -1.12557 1.10312 0
M  V30 2024 C 194.563 -2.17971 0.708625 0
M  V30 2025 C 195.576 -1.60806 -0.254027 0
M  V30 2026 O 196.765 -1.78458 -0.0386891 0
M  V30 2027 C 193.865 -3.38891 0.0248198 0
M  V30 2028 C 193.038 -4.25548 1.01132 0
M  V30 2029 C 192.097 -5.24972 0.35924 0
M  V30 2030 O 191.123 -5.60174 1.00965 0
M  V30 2031 N 192.325 -5.73747 -0.882847 0
M  V30 2032 H 195.09 -2.52427 1.61557 0
M  V30 2033 H 192.651 -1.27967 0.991771 0
M  V30 2034 H 194.643 -4.02485 -0.422852 0
M  V30 2035 H 193.213 -3.02596 -0.784514 0
M  V30 2036 H 192.433 -3.58589 1.6373 0
M  V30 2037 H 193.721 -4.80294 1.67914 0
M  V30 2038 H 193.119 -5.4731 -1.43065 0
M  V30 2039 H 191.676 -6.39234 -1.27369 0
M  V30 2040 N 195.109 -0.891671 -1.2995 0
M  V30 2041 C 196.059 -0.334811 -2.25528 0
M  V30 2042 C 197.043 0.540553 -1.51548 0
M  V30 2043 O 198.235 0.383882 -1.72787 0
M  V30 2044 C 195.364 0.44374 -3.4042 0
M  V30 2045 C 194.45 -0.44609 -4.21747 0
M  V30 2046 N 194.841 -1.54963 -4.81477 0
M  V30 2047 C 193.139 -0.242415 -4.45341 0
M  V30 2048 C 193.84 -2.10015 -5.42465 0
M  V30 2049 N 192.816 -1.39423 -5.25416 0
M  V30 2050 H 196.618 -1.17792 -2.69262 0
M  V30 2051 H 194.132 -0.741822 -1.44467 0
M  V30 2052 H 196.129 0.859362 -4.07947 0
M  V30 2053 H 194.789 1.28421 -2.98225 0
M  V30 2054 H 195.8 -1.93244 -4.80497 0
M  V30 2055 H 192.477 0.560342 -4.13723 0
M  V30 2056 H 193.867 -3.02724 -5.9984 0
M  V30 2057 N 196.587 1.43421 -0.653314 0
M  V30 2058 C 197.836 2.01032 -0.164076 0
M  V30 2059 C 198.149 1.52147 1.22926 0
M  V30 2060 O 199.355 2.02031 1.81371 0
M  V30 2061 C 197.811 3.59082 -0.24252 0
M  V30 2062 C 197.419 4.1696 -1.63855 0
M  V30 2063 C 199.163 4.24079 0.18911 0
M  V30 2064 C 197.07 5.67304 -1.67092 0
M  V30 2065 H 196 0.751798 -0.0575769 0
M  V30 2066 H 198.651 1.6439 -0.815362 0
M  V30 2067 H 197.033 3.93125 0.476276 0
M  V30 2068 H 198.207 3.94416 -2.38271 0
M  V30 2069 H 196.522 3.64335 -2.01616 0
M  V30 2070 H 199.119 5.34381 0.184775 0
M  V30 2071 H 199.462 3.98005 1.22056 0
M  V30 2072 H 199.995 3.94918 -0.477938 0
M  V30 2073 H 196.734 5.98145 -2.68146 0
M  V30 2074 H 196.254 5.91904 -0.970014 0
M  V30 2075 H 197.933 6.31344 -1.4147 0
M  V30 2076 N 198.065 0.39524 1.52563 0
M  V30 2077 C 199.311 -0.185318 2.01952 0
M  V30 2078 C 199.644 -1.45964 1.28095 0
M  V30 2079 O 198.919 -1.90689 0.38315 0
M  V30 2080 C 199.202 -0.447193 3.57312 0
M  V30 2081 C 199.055 0.842828 4.41833 0
M  V30 2082 C 200.374 -1.23529 4.22408 0
M  V30 2083 H 197.493 -0.0658788 0.73405 0
M  V30 2084 H 200.135 0.525975 1.82575 0
M  V30 2085 H 198.285 -1.05312 3.73954 0
M  V30 2086 H 199.957 1.4795 4.36931 0
M  V30 2087 H 198.2 1.45686 4.08605 0
M  V30 2088 H 198.871 0.614165 5.48573 0
M  V30 2089 H 201.347 -0.722445 4.0978 0
M  V30 2090 H 200.223 -1.38727 5.3108 0
M  V30 2091 H 200.484 -2.25213 3.80436 0
M  V30 2092 N 199.544 -1.57102 0.125237 0
M  V30 2093 C 200.792 -1.95021 -0.530198 0
M  V30 2094 C 201.113 -1.00982 -1.66816 0
M  V30 2095 O 200.383 -0.0672693 -1.95784 0
M  V30 2096 H 198.963 -0.720046 -0.198853 0
M  V30 2097 H 201.625 -1.93916 0.19564 0
M  V30 2098 H 200.721 -2.98211 -0.920681 0
M  V30 2099 N 201.022 0.148545 -1.56898 0
M  V30 2100 C 202.247 0.880385 -1.87787 0
M  V30 2101 C 202.672 1.74018 -0.714093 0
M  V30 2102 O 202.03 1.78153 0.336343 0
M  V30 2103 C 202.078 1.71422 -3.17249 0
M  V30 2104 O 201.182 2.8183 -3.01074 0
M  V30 2105 H 200.523 0.245301 -0.617028 0
M  V30 2106 H 203.053 0.139826 -2.04122 0
M  V30 2107 H 203.063 2.10954 -3.49231 0
M  V30 2108 H 201.738 1.08284 -4.01556 0
M  V30 2109 H 200.315 2.45715 -2.80497 0
M  V30 2110 N 202.5 1.5196 0.417844 0
M  V30 2111 C 203.432 1.70895 1.52733 0
M  V30 2112 C 204.445 0.589405 1.51756 0
M  V30 2113 O 205.634 0.864312 1.56179 0
M  V30 2114 C 202.734 1.72627 2.91639 0
M  V30 2115 C 201.907 3.01479 3.16905 0
M  V30 2116 C 200.966 2.95139 4.35637 0
M  V30 2117 O 199.992 3.69059 4.3334 0
M  V30 2118 N 201.194 2.12328 5.40275 0
M  V30 2119 H 203.959 2.66612 1.36888 0
M  V30 2120 H 201.52 1.50089 0.607037 0
M  V30 2121 H 203.512 1.65928 3.6912 0
M  V30 2122 H 202.082 0.844216 3.00985 0
M  V30 2123 H 201.302 3.21895 2.27546 0
M  V30 2124 H 202.59 3.86736 3.30625 0
M  V30 2125 H 201.988 1.51685 5.44985 0
M  V30 2126 H 200.545 2.11494 6.16534 0
M  V30 2127 N 203.978 -0.674533 1.42435 0
M  V30 2128 C 204.928 -1.7807 1.4239 0
M  V30 2129 C 205.912 -1.58169 0.295202 0
M  V30 2130 O 207.104 -1.68643 0.537449 0
M  V30 2131 C 204.233 -3.16532 1.32901 0
M  V30 2132 C 203.319 -3.42055 2.50717 0
M  V30 2133 N 203.71 -3.38162 3.76139 0
M  V30 2134 C 202.008 -3.72692 2.44983 0
M  V30 2135 C 202.709 -3.63177 4.54398 0
M  V30 2136 N 201.685 -3.83954 3.84812 0
M  V30 2137 H 205.487 -1.73454 2.37257 0
M  V30 2138 H 203.001 -0.875381 1.36788 0
M  V30 2139 H 204.998 -3.958 1.30951 0
M  V30 2140 H 203.658 -3.22345 0.390363 0
M  V30 2141 H 204.669 -3.18057 4.0873 0
M  V30 2142 H 201.346 -3.85749 1.59699 0
M  V30 2143 H 202.736 -3.66125 5.63384 0
M  V30 2144 N 205.456 -1.28612 -0.910864 0
M  V30 2145 C 206.705 -1.15311 -1.65488 0
M  V30 2146 C 207.018 0.296999 -1.93332 0
M  V30 2147 O 208.224 0.551168 -2.65847 0
M  V30 2148 C 206.68 -2.01599 -2.98137 0
M  V30 2149 C 206.288 -3.51367 -2.7793 0
M  V30 2150 C 208.032 -1.96993 -3.76024 0
M  V30 2151 C 205.939 -4.29797 -4.06237 0
M  V30 2152 H 204.869 -0.42796 -0.620779 0
M  V30 2153 H 207.52 -1.53166 -1.01057 0
M  V30 2154 H 205.902 -1.56603 -3.63719 0
M  V30 2155 H 207.076 -4.0434 -2.21011 0
M  V30 2156 H 205.391 -3.57529 -2.13452 0
M  V30 2157 H 207.988 -2.52856 -4.71135 0
M  V30 2158 H 208.331 -0.94733 -4.05378 0
M  V30 2159 H 208.864 -2.39973 -3.17266 0
M  V30 2160 H 205.603 -5.32648 -3.82055 0
M  V30 2161 H 205.123 -3.81596 -4.62757 0
M  V30 2162 H 206.802 -4.39869 -4.74473 0
M  V30 2163 N 206.934 1.1197 -1.10907 0
M  V30 2164 C 208.35 1.35591 -0.841852 0
M  V30 2165 C 208.55 1.94233 0.536246 0
M  V30 2166 O 207.606 2.1717 1.28816 0
M  V30 2167 C 208.919 2.29284 -1.94549 0
M  V30 2168 C 210.467 2.42862 -1.97451 0
M  V30 2169 C 210.942 3.39873 -3.07002 0
M  V30 2170 N 212.433 3.47433 -3.06341 0
M  V30 2171 C 213.168 4.22421 -3.87748 0
M  V30 2172 N 212.664 5.00432 -4.79103 0
M  V30 2173 N 214.457 4.17876 -3.75946 0
M  V30 2174 H 206.608 0.722664 -1.99728 0
M  V30 2175 H 208.871 0.380635 -0.868229 0
M  V30 2176 H 208.577 1.93378 -2.93765 0
M  V30 2177 H 208.451 3.29452 -1.83688 0
M  V30 2178 H 210.838 2.78046 -0.988645 0
M  V30 2179 H 210.919 1.42566 -2.12388 0
M  V30 2180 H 210.563 3.05417 -4.05811 0
M  V30 2181 H 210.493 4.40011 -2.89306 0
M  V30 2182 H 212.984 2.91784 -2.40147 0
M  V30 2183 H 213.297 5.55002 -5.37766 0
M  V30 2184 H 211.642 4.99612 -4.83128 0
M  V30 2185 H 214.833 3.56016 -3.03924 0
M  V30 2186 H 215.006 4.76061 -4.39624 0
M  V30 2187 N 208.412 0.89855 1.29475 0
M  V30 2188 C 209.375 0.380272 2.26023 0
M  V30 2189 C 210.375 -0.484891 1.53315 0
M  V30 2190 O 211.565 -0.290108 1.71767 0
M  V30 2191 C 208.697 -0.45651 3.3783 0
M  V30 2192 H 209.89 1.23295 2.73383 0
M  V30 2193 H 207.443 0.676589 1.40897 0
M  V30 2194 H 208.178 -1.32922 2.95808 0
M  V30 2195 H 207.963 0.163393 3.91759 0
M  V30 2196 H 209.453 -0.810466 4.0966 0
M  V30 2197 N 209.89 -1.43072 0.660911 0
M  V30 2198 C 210.8 -2.34585 -0.0264163 0
M  V30 2199 C 211.816 -1.54316 -0.803898 0
M  V30 2200 O 212.992 -1.86939 -0.749391 0
M  V30 2201 C 210.057 -3.32689 -0.975639 0
M  V30 2202 C 209.118 -4.2886 -0.194236 0
M  V30 2203 C 208.351 -5.22278 -1.09825 0
M  V30 2204 O 208.574 -5.20299 -2.33763 0
M  V30 2205 O 207.508 -5.99228 -0.566513 0
M  V30 2206 H 211.334 -2.94869 0.727034 0
M  V30 2207 H 208.919 -1.43342 0.42111 0
M  V30 2208 H 210.801 -3.92995 -1.52094 0
M  V30 2209 H 209.476 -2.74898 -1.70918 0
M  V30 2210 H 208.383 -3.72011 0.394835 0
M  V30 2211 H 209.716 -4.89655 0.499899 0
M  V30 2212 N 211.368 -0.403325 -1.52352 0
M  V30 2213 C 212.315 0.425011 -2.26853 0
M  V30 2214 C 213.285 1.04598 -1.29029 0
M  V30 2215 O 214.47 1.07135 -1.57882 0
M  V30 2216 C 211.61 1.53888 -3.08889 0
M  V30 2217 C 210.723 0.939396 -4.21663 0
M  V30 2218 C 209.858 2.02547 -4.91068 0
M  V30 2219 C 208.897 1.40263 -5.95813 0
M  V30 2220 N 208.034 2.4286 -6.58759 0
M  V30 2221 H 212.874 -0.21674 -2.97211 0
M  V30 2222 H 210.411 -0.118722 -1.4662 0
M  V30 2223 H 212.369 2.19558 -3.54753 0
M  V30 2224 H 210.999 2.15074 -2.40714 0
M  V30 2225 H 210.051 0.171898 -3.80011 0
M  V30 2226 H 211.363 0.44436 -4.96817 0
M  V30 2227 H 210.517 2.75958 -5.40308 0
M  V30 2228 H 209.256 2.55415 -4.15469 0
M  V30 2229 H 208.261 0.653833 -5.45898 0
M  V30 2230 H 209.486 0.881719 -6.73352 0
M  V30 2231 H 207.432 2.94871 -5.85992 0
M  V30 2232 H 207.349 1.98152 -7.2957 0
M  V30 2233 H 208.617 3.15858 -7.12639 0
M  V30 2234 N 212.846 1.57033 -0.133567 0
M  V30 2235 C 213.809 2.14897 0.796995 0
M  V30 2236 C 214.809 1.0874 1.18458 0
M  V30 2237 O 215.999 1.34446 1.1077 0
M  V30 2238 C 213.131 2.70112 2.07973 0
M  V30 2239 H 214.324 2.98457 0.293873 0
M  V30 2240 H 211.877 1.55871 0.115787 0
M  V30 2241 H 212.612 1.9018 2.62682 0
M  V30 2242 H 212.397 3.47764 1.81115 0
M  V30 2243 H 213.887 3.14738 2.74462 0
M  V30 2244 N 214.325 -0.140222 1.56975 0
M  V30 2245 C 215.258 -1.20266 1.93936 0
M  V30 2246 C 216.236 -1.41212 0.806099 0
M  V30 2247 O 217.42 -1.55713 1.06234 0
M  V30 2248 C 214.547 -2.56037 2.21726 0
M  V30 2249 C 213.593 -2.51646 3.44349 0
M  V30 2250 S 214.426 -1.97678 4.97678 0
M  V30 2251 C 215.582 -3.35165 5.28597 0
M  V30 2252 H 215.815 -0.887358 2.83749 0
M  V30 2253 H 213.348 -0.346119 1.50471 0
M  V30 2254 H 215.306 -3.34167 2.38416 0
M  V30 2255 H 213.967 -2.84755 1.32566 0
M  V30 2256 H 213.16 -3.51608 3.61092 0
M  V30 2257 H 212.762 -1.81628 3.26936 0
M  V30 2258 H 215.054 -4.31302 5.2248 0
M  V30 2259 H 215.997 -3.23269 6.30002 0
M  V30 2260 H 216.405 -3.32614 4.56101 0
M  V30 2261 N 215.803 -1.52179 -0.40978 0
M  V30 2262 C 217.049 -1.66453 -1.15851 0
M  V30 2263 C 217.382 -0.392972 -1.90182 0
M  V30 2264 O 216.657 0.608579 -1.84734 0
M  V30 2265 C 216.94 -2.88612 -2.15349 0
M  V30 2266 C 216.793 -4.25815 -1.44918 0
M  V30 2267 C 218.112 -3.06294 -3.16026 0
M  V30 2268 H 215.231 -0.60575 -0.419805 0
M  V30 2269 H 217.873 -1.84732 -0.444314 0
M  V30 2270 H 216.023 -2.73158 -2.76255 0
M  V30 2271 H 217.695 -4.52995 -0.871365 0
M  V30 2272 H 215.938 -4.27247 -0.751159 0
M  V30 2273 H 216.609 -5.07337 -2.17516 0
M  V30 2274 H 219.085 -3.20641 -2.65195 0
M  V30 2275 H 217.961 -3.93283 -3.8291 0
M  V30 2276 H 218.222 -2.19579 -3.83715 0
M  V30 2277 N 217.281 0.66697 -1.42791 0
M  V30 2278 C 218.558 1.4234 -1.34159 0
M  V30 2279 C 218.938 2.11093 0.0172729 0
M  V30 2280 O 218.286 2.03808 1.03318 0
M  V30 2281 C 218.496 2.41942 -2.51526 0
M  V30 2282 C 219.844 3.06353 -2.93995 0
M  V30 2283 O 220.868 2.52269 -2.51473 0
M  V30 2284 O 219.727 4.04376 -3.67617 0
M  V30 2285 H 216.821 0.635277 -0.529483 0
M  V30 2286 H 219.367 0.695034 -1.54814 0
M  V30 2287 H 218.139 1.89991 -3.42081 0
M  V30 2288 H 217.762 3.22249 -2.32898 0
M  V30 2289 N 218.759 1.29093 0.90403 0
M  V30 2290 C 220.007 1.16583 1.65085 0
M  V30 2291 C 220.328 -0.283933 1.92922 0
M  V30 2292 O 219.598 -1.19509 1.55224 0
M  V30 2293 H 218.178 0.428467 0.611903 0
M  V30 2294 H 220.84 1.61959 1.08422 0
M  V30 2295 H 219.936 1.71266 2.6091 0
M  V30 2296 N 220.237 -1.11381 1.11499 0
M  V30 2297 C 221.462 -1.87475 0.887019 0
M  V30 2298 C 221.887 -1.79639 -0.557796 0
M  V30 2299 O 221.245 -1.15924 -1.39396 0
M  V30 2300 C 221.293 -3.34213 1.35403 0
M  V30 2301 O 220.397 -4.0903 0.526146 0
M  V30 2302 H 219.738 -0.582099 0.319463 0
M  V30 2303 H 222.268 -1.40785 1.48461 0
M  V30 2304 H 222.278 -3.8506 1.34881 0
M  V30 2305 H 220.953 -3.39232 2.40612 0
M  V30 2306 H 219.53 -3.68082 0.597522 0
M  V30 2307 N 221.715 -0.905404 -1.28997 0
M  V30 2308 C 222.961 -0.544465 -1.95977 0
M  V30 2309 C 223.316 0.90041 -1.70031 0
M  V30 2310 O 222.609 1.63064 -1.00601 0
M  V30 2311 C 222.803 -0.779906 -3.48787 0
M  V30 2312 C 222.632 -2.24612 -3.89589 0
M  V30 2313 C 221.402 -2.89464 -4.14172 0
M  V30 2314 C 223.6 -3.22182 -4.00878 0
M  V30 2315 N 221.582 -4.26469 -4.41585 0
M  V30 2316 C 222.953 -4.44323 -4.32409 0
M  V30 2317 C 225.008 -3.17694 -3.83373 0
M  V30 2318 C 223.711 -5.62546 -4.48258 0
M  V30 2319 C 225.737 -4.35208 -4.00435 0
M  V30 2320 C 225.099 -5.56121 -4.3233 0
M  V30 2321 H 221.198 -0.248948 -0.741316 0
M  V30 2322 H 223.782 -1.1674 -1.5582 0
M  V30 2323 H 221.953 -0.186308 -3.87953 0
M  V30 2324 H 223.685 -0.383833 -4.02876 0
M  V30 2325 H 220.44 -2.40232 -4.08149 0
M  V30 2326 H 220.864 -4.97283 -4.5939 0
M  V30 2327 H 225.506 -2.25297 -3.57773 0
M  V30 2328 H 223.224 -6.55429 -4.72692 0
M  V30 2329 H 226.81 -4.33228 -3.88336 0
M  V30 2330 H 225.69 -6.45537 -4.45255 0
M  V30 2331 N 223.193 1.4272 -0.668489 0
M  V30 2332 C 224.123 2.335 -0.000100175 0
M  V30 2333 C 225.104 1.50328 0.795964 0
M  V30 2334 O 226.289 1.78949 0.754385 0
M  V30 2335 C 223.419 3.33874 0.956302 0
M  V30 2336 C 222.373 4.27152 0.269278 0
M  V30 2337 C 221.699 5.17684 1.33818 0
M  V30 2338 C 222.999 5.15373 -0.847805 0
M  V30 2339 H 224.693 2.89639 -0.758244 0
M  V30 2340 H 222.239 1.39269 -0.366079 0
M  V30 2341 H 224.192 3.9629 1.43292 0
M  V30 2342 H 222.916 2.76025 1.74579 0
M  V30 2343 H 221.575 3.66123 -0.187042 0
M  V30 2344 H 221.223 4.56165 2.1195 0
M  V30 2345 H 220.923 5.80918 0.883659 0
M  V30 2346 H 222.447 5.82974 1.81586 0
M  V30 2347 H 223.861 5.7151 -0.452681 0
M  V30 2348 H 222.258 5.87407 -1.22773 0
M  V30 2349 H 223.328 4.5415 -1.69929 0
M  V30 2350 N 224.671 0.411399 1.52136 0
M  V30 2351 C 225.948 -0.222308 1.94333 0
M  V30 2352 C 226.328 -1.6242 1.34844 0
M  V30 2353 O 225.676 -2.22384 0.525145 0
M  V30 2354 C 225.886 -0.226345 3.48265 0
M  V30 2355 C 227.234 -0.444592 4.22266 0
M  V30 2356 O 228.258 -0.305602 3.54887 0
M  V30 2357 O 227.117 -0.718749 5.41753 0
M  V30 2358 H 224.211 -0.143907 0.814383 0
M  V30 2359 H 226.757 0.467506 1.63133 0
M  V30 2360 H 225.529 0.75475 3.83952 0
M  V30 2361 H 225.152 -0.960163 3.85832 0
M  V30 2362 N 226.149 -1.5696 0.141893 0
M  V30 2363 C 227.079 -2.19516 -0.795936 0
M  V30 2364 C 228.06 -1.14187 -1.26077 0
M  V30 2365 O 229.245 -1.42511 -1.31925 0
M  V30 2366 C 226.375 -2.81272 -2.03723 0
M  V30 2367 C 225.329 -3.92384 -1.70936 0
M  V30 2368 C 224.655 -4.41052 -3.02287 0
M  V30 2369 C 225.955 -5.13403 -0.959954 0
M  V30 2370 H 227.649 -2.98138 -0.274596 0
M  V30 2371 H 225.195 -1.43406 -0.130636 0
M  V30 2372 H 227.148 -3.237 -2.69808 0
M  V30 2373 H 225.872 -1.99973 -2.58221 0
M  V30 2374 H 224.531 -3.50566 -1.07232 0
M  V30 2375 H 224.179 -3.56582 -3.54765 0
M  V30 2376 H 223.879 -5.15993 -2.81114 0
M  V30 2377 H 225.403 -4.86146 -3.69451 0
M  V30 2378 H 226.817 -5.52706 -1.52279 0
M  V30 2379 H 225.214 -5.94073 -0.848357 0
M  V30 2380 H 226.284 -4.84875 0.0492434 0
M  V30 2381 N 227.627 0.131896 -1.57047 0
M  V30 2382 C 228.59 1.14638 -1.98471 0
M  V30 2383 C 229.59 1.35029 -0.873148 0
M  V30 2384 O 230.78 1.31764 -1.13946 0
M  V30 2385 C 227.912 2.50358 -2.31373 0
M  V30 2386 H 229.105 0.79064 -2.8929 0
M  V30 2387 H 226.658 0.375761 -1.51716 0
M  V30 2388 H 227.393 2.90876 -1.43393 0
M  V30 2389 H 227.178 2.36915 -3.12432 0
M  V30 2390 H 228.668 3.23395 -2.64207 0
M  V30 2391 N 229.106 1.52395 0.401703 0
M  V30 2392 C 230.053 1.76268 1.48991 0
M  V30 2393 C 231.023 0.605386 1.54675 0
M  V30 2394 O 232.208 0.843742 1.7113 0
M  V30 2395 C 229.348 1.92592 2.86361 0
M  V30 2396 C 228.461 3.20259 2.89928 0
M  V30 2397 C 227.596 3.26972 4.18644 0
M  V30 2398 C 226.635 4.48812 4.16214 0
M  V30 2399 N 225.772 4.52877 5.36514 0
M  V30 2400 H 230.612 2.6914 1.27935 0
M  V30 2401 H 228.149 1.33355 0.620871 0
M  V30 2402 H 230.107 2.0004 3.66115 0
M  V30 2403 H 228.737 1.03093 3.05895 0
M  V30 2404 H 227.789 3.21945 2.02621 0
M  V30 2405 H 229.101 4.10056 2.83999 0
M  V30 2406 H 228.255 3.33533 5.06794 0
M  V30 2407 H 226.994 2.35126 4.27278 0
M  V30 2408 H 225.999 4.4239 3.26453 0
M  V30 2409 H 227.224 5.41961 4.09213 0
M  V30 2410 H 225.17 3.63917 5.45802 0
M  V30 2411 H 225.087 5.36529 5.32609 0
M  V30 2412 H 226.355 4.63676 6.26597 0
M  V30 2413 N 230.584 -0.659388 1.43143 0
M  V30 2414 C 232 -0.974337 1.26407 0
M  V30 2415 C 232.2 -2.007 0.179341 0
M  V30 2416 O 231.256 -2.4856 -0.444295 0
M  V30 2417 C 232.569 -1.46447 2.62628 0
M  V30 2418 C 234.117 -1.58144 2.7011 0
M  V30 2419 C 234.592 -2.1055 4.06734 0
M  V30 2420 N 236.083 -2.17861 4.08767 0
M  V30 2421 C 236.818 -2.59519 5.1131 0
M  V30 2422 N 236.314 -3.00518 6.24228 0
M  V30 2423 N 238.107 -2.59404 4.98664 0
M  V30 2424 H 230.258 0.0240528 2.12386 0
M  V30 2425 H 232.521 -0.0518065 0.946583 0
M  V30 2426 H 232.227 -0.780123 3.42939 0
M  V30 2427 H 232.101 -2.44058 2.87603 0
M  V30 2428 H 234.488 -2.25682 1.90136 0
M  V30 2429 H 234.569 -0.589828 2.48907 0
M  V30 2430 H 234.213 -1.43616 4.87172 0
M  V30 2431 H 234.143 -3.10531 4.25298 0
M  V30 2432 H 236.634 -1.88975 3.27257 0
M  V30 2433 H 236.947 -3.31036 6.98309 0
M  V30 2434 H 235.292 -2.98337 6.2771 0
M  V30 2435 H 238.483 -2.26747 4.09516 0
M  V30 2436 H 238.656 -2.91548 5.78709 0
M  V30 2437 N 232.062 -1.29571 -0.897171 0
M  V30 2438 C 233.287 -1.20705 -1.68656 0
M  V30 2439 C 233.712 0.228582 -1.86706 0
M  V30 2440 O 233.07 1.16494 -1.3892 0
M  V30 2441 C 233.118 -1.9282 -3.04717 0
M  V30 2442 O 232.222 -1.24697 -3.93096 0
M  V30 2443 H 231.563 -0.418126 -0.515816 0
M  V30 2444 H 234.093 -1.71183 -1.12061 0
M  V30 2445 H 234.103 -2.01372 -3.54843 0
M  V30 2446 H 232.778 -2.97239 -2.90899 0
M  V30 2447 H 231.355 -1.2442 -3.51531 0
M  V30 2448 N 233.54 1.10788 -1.12088 0
M  V30 2449 C 234.487 2.17025 -0.785407 0
M  V30 2450 C 235.457 1.64265 0.246191 0
M  V30 2451 O 236.642 1.90412 0.121584 0
M  V30 2452 C 233.782 3.44249 -0.242177 0
M  V30 2453 C 232.895 4.1098 -1.33115 0
M  V30 2454 C 232.03 5.25911 -0.747741 0
M  V30 2455 C 231.069 5.84538 -1.81609 0
M  V30 2456 N 230.206 6.90853 -1.25167 0
M  V30 2457 H 235.046 2.45066 -1.69548 0
M  V30 2458 H 232.583 1.20297 -0.846582 0
M  V30 2459 H 234.541 4.17101 0.0908026 0
M  V30 2460 H 233.171 3.16571 0.631072 0
M  V30 2461 H 232.223 3.36133 -1.78097 0
M  V30 2462 H 233.535 4.50601 -2.13917 0
M  V30 2463 H 232.689 6.056 -0.365216 0
M  V30 2464 H 231.428 4.87614 0.0915188 0
M  V30 2465 H 230.433 5.03522 -2.20785 0
M  V30 2466 H 231.658 6.249 -2.6585 0
M  V30 2467 H 229.604 6.54562 -0.434174 0
M  V30 2468 H 229.521 7.29166 -1.99633 0
M  V30 2469 H 230.789 7.7433 -0.896259 0
M  V30 2470 N 235.018 0.912232 1.28515 0
M  V30 2471 C 235.948 0.416403 2.29757 0
M  V30 2472 C 236.929 -0.515194 1.6211 0
M  V30 2473 O 238.114 -0.423253 1.89532 0
M  V30 2474 C 235.244 -0.34572 3.45575 0
M  V30 2475 C 234.198 0.496599 4.25109 0
M  V30 2476 C 233.524 -0.393771 5.33248 0
M  V30 2477 C 234.824 1.75307 4.92001 0
M  V30 2478 H 236.518 1.26249 2.7148 0
M  V30 2479 H 234.064 0.608515 1.30511 0
M  V30 2480 H 236.017 -0.703422 4.15488 0
M  V30 2481 H 234.741 -1.2257 3.02728 0
M  V30 2482 H 233.4 0.8368 3.56922 0
M  V30 2483 H 233.048 -1.27225 4.86644 0
M  V30 2484 H 232.748 0.166209 5.87365 0
M  V30 2485 H 234.272 -0.747389 6.06009 0
M  V30 2486 H 235.686 1.46437 5.54283 0
M  V30 2487 H 234.083 2.25534 5.56106 0
M  V30 2488 H 235.153 2.48176 4.16577 0
M  V30 2489 N 236.496 -1.42363 0.676048 0
M  V30 2490 C 237.406 -2.346 -0.00153389 0
M  V30 2491 C 238.422 -1.5516 -0.787485 0
M  V30 2492 O 239.598 -1.87723 -0.729521 0
M  V30 2493 C 236.663 -3.33705 -0.940298 0
M  V30 2494 C 235.724 -4.29042 -0.148739 0
M  V30 2495 C 234.957 -5.23413 -1.04279 0
M  V30 2496 O 235.18 -5.22749 -2.28232 0
M  V30 2497 O 234.114 -5.99795 -0.502925 0
M  V30 2498 H 237.94 -2.94082 0.758268 0
M  V30 2499 H 235.525 -1.42888 0.436289 0
M  V30 2500 H 237.407 -3.94586 -1.47917 0
M  V30 2501 H 236.082 -2.76695 -1.67993 0
M  V30 2502 H 234.989 -3.71571 0.43427 0
M  V30 2503 H 236.322 -4.89097 0.551805 0
M  V30 2504 N 237.974 -0.419461 -1.51915 0
M  V30 2505 C 238.937 0.389116 -2.25873 0
M  V30 2506 C 239.937 0.964924 -1.28631 0
M  V30 2507 O 241.127 0.842179 -1.52489 0
M  V30 2508 C 238.259 1.54874 -3.03689 0
M  V30 2509 H 239.452 -0.258799 -2.98781 0
M  V30 2510 H 237.005 -0.172209 -1.55348 0
M  V30 2511 H 237.74 2.23323 -2.35154 0
M  V30 2512 H 237.525 1.14223 -3.75094 0
M  V30 2513 H 239.015 2.12046 -3.59759 0
M  V30 2514 N 239.452 1.56882 -0.150215 0
M  V30 2515 C 240.384 2.14057 0.819286 0
M  V30 2516 C 241.397 1.09082 1.20851 0
M  V30 2517 O 242.586 1.36347 1.15203 0
M  V30 2518 C 239.686 2.65102 2.11127 0
M  V30 2519 C 238.859 3.94511 1.88891 0
M  V30 2520 C 237.918 4.30834 3.02107 0
M  V30 2521 O 236.944 4.99099 2.73659 0
M  V30 2522 N 238.146 3.90676 4.29363 0
M  V30 2523 H 240.911 2.97871 0.330618 0
M  V30 2524 H 238.472 1.61866 0.0332538 0
M  V30 2525 H 240.464 2.86411 2.85921 0
M  V30 2526 H 239.034 1.85994 2.51247 0
M  V30 2527 H 238.254 3.81795 0.981152 0
M  V30 2528 H 239.542 4.7907 1.71376 0
M  V30 2529 H 238.94 3.35677 4.55343 0
M  V30 2530 H 237.497 4.1703 5.00928 0
M  V30 2531 N 240.93 -0.123565 1.57115 0
M  V30 2532 C 242.341 -0.681198 1.73829 0
M  V30 2533 C 242.692 -1.80535 0.768214 0
M  V30 2534 O 241.817 -2.16317 -0.0599103 0
M  V30 2535 C 242.412 -1.24246 3.15196 0
M  V30 2536 C 240.971 -1.74643 3.33432 0
M  V30 2537 C 240.118 -0.644284 2.69711 0
M  V30 2538 H 243.069 0.102315 1.5837 0
M  V30 2539 H 243.09 -2.11216 3.16493 0
M  V30 2540 H 242.602 -0.424062 3.85776 0
M  V30 2541 H 240.703 -2.58974 2.67886 0
M  V30 2542 H 240.816 -1.85902 4.41562 0
M  V30 2543 H 239.18 -1.07676 2.3082 0
M  V30 2544 H 239.963 0.163058 3.42913 0
M  V30 2545 N 242.408 -1.52605 -0.393616 0
M  V30 2546 C 243.655 -1.67424 -1.1391 0
M  V30 2547 C 243.983 -0.411859 -1.90089 0
M  V30 2548 O 243.238 0.605626 -1.86093 0
M  V30 2549 C 243.537 -2.85721 -2.14705 0
M  V30 2550 C 243.203 -4.23342 -1.55218 0
M  V30 2551 C 241.865 -4.60771 -1.3872 0
M  V30 2552 C 244.217 -5.09041 -1.11924 0
M  V30 2553 C 241.545 -5.81563 -0.774689 0
M  V30 2554 C 243.897 -6.30452 -0.520853 0
M  V30 2555 C 242.561 -6.66617 -0.343134 0
M  V30 2556 H 241.831 -0.612648 -0.416826 0
M  V30 2557 H 244.478 -1.8674 -0.424315 0
M  V30 2558 H 242.783 -2.60803 -2.92385 0
M  V30 2559 H 244.48 -2.94382 -2.72288 0
M  V30 2560 H 241.07 -3.93855 -1.69045 0
M  V30 2561 H 245.254 -4.80695 -1.23473 0
M  V30 2562 H 240.51 -6.08196 -0.625154 0
M  V30 2563 H 244.684 -6.96175 -0.177065 0
M  V30 2564 H 242.311 -7.60083 0.133571 0
M  V30 2565 N 243.887 0.651787 -1.4349 0
M  V30 2566 C 244.85 1.74647 -1.48429 0
M  V30 2567 C 245.85 1.56513 -0.368817 0
M  V30 2568 O 247.04 1.62385 -0.630623 0
M  V30 2569 C 244.172 3.13533 -1.33827 0
M  V30 2570 H 245.365 1.71649 -2.4592 0
M  V30 2571 H 242.918 0.863573 -1.30277 0
M  V30 2572 H 243.653 3.22142 -0.37349 0
M  V30 2573 H 243.438 3.28101 -2.14691 0
M  V30 2574 H 244.928 3.93356 -1.40218 0
M  V30 2575 N 245.365 1.30045 0.890287 0
M  V30 2576 C 246.315 1.12592 1.9826 0
M  V30 2577 C 247.299 0.0426021 1.60844 0
M  V30 2578 O 248.491 0.265346 1.75 0
M  V30 2579 C 245.62 0.814301 3.33503 0
M  V30 2580 C 244.706 1.93761 3.7725 0
M  V30 2581 N 245.097 3.18232 3.93143 0
M  V30 2582 C 243.395 1.83277 4.06602 0
M  V30 2583 C 244.096 3.9158 4.30163 0
M  V30 2584 N 243.072 3.19591 4.3973 0
M  V30 2585 H 246.874 2.07003 2.08631 0
M  V30 2586 H 244.388 1.21307 1.07974 0
M  V30 2587 H 246.385 0.67029 4.11476 0
M  V30 2588 H 245.045 -0.121797 3.24471 0
M  V30 2589 H 246.056 3.53581 3.78419 0
M  V30 2590 H 242.733 0.97001 4.06075 0
M  V30 2591 H 244.123 4.98744 4.50226 0
M  V30 2592 N 246.843 -1.10192 1.12674 0
M  V30 2593 C 247.773 -2.18652 0.819362 0
M  V30 2594 C 248.754 -1.68698 -0.217915 0
M  V30 2595 O 249.939 -1.94041 -0.0785581 0
M  V30 2596 C 247.069 -3.46202 0.27594 0
M  V30 2597 C 246.023 -4.09444 1.24656 0
M  V30 2598 C 245.349 -5.31725 0.563258 0
M  V30 2599 C 246.649 -4.52863 2.60217 0
M  V30 2600 H 248.343 -2.44622 1.72628 0
M  V30 2601 H 245.889 -1.17571 0.831451 0
M  V30 2602 H 247.842 -4.21372 0.0486149 0
M  V30 2603 H 246.566 -3.1973 -0.666331 0
M  V30 2604 H 245.225 -3.36284 1.45974 0
M  V30 2605 H 244.873 -5.0153 -0.384235 0
M  V30 2606 H 244.573 -5.74991 1.21075 0
M  V30 2607 H 246.097 -6.09624 0.34503 0
M  V30 2608 H 247.511 -5.19294 2.42913 0
M  V30 2609 H 245.908 -5.06986 3.21068 0
M  V30 2610 H 246.978 -3.65656 3.18471 0
M  V30 2611 N 248.321 -0.919034 -1.28029 0
M  V30 2612 C 249.549 -0.570971 -1.98866 0
M  V30 2613 C 249.964 0.848996 -1.68634 0
M  V30 2614 O 249.321 1.56307 -0.942036 0
M  V30 2615 C 249.372 -0.776876 -3.53054 0
M  V30 2616 O 249.093 -2.14097 -3.82222 0
M  V30 2617 C 250.594 -0.436356 -4.41147 0
M  V30 2618 H 247.814 -0.217175 -0.634883 0
M  V30 2619 H 250.358 -1.23368 -1.63097 0
M  V30 2620 H 248.513 -0.161085 -3.87065 0
M  V30 2621 H 248.927 -2.18455 -4.76841 0
M  V30 2622 H 250.401 -0.63117 -5.4838 0
M  V30 2623 H 250.878 0.627686 -4.34692 0
M  V30 2624 H 251.484 -1.02991 -4.12641 0
M  V30 2625 N 249.799 1.42003 -0.683588 0
M  V30 2626 C 251.048 2.00638 -0.206681 0
M  V30 2627 C 251.361 1.5472 1.19671 0
M  V30 2628 O 252.567 2.05833 1.77045 0
M  V30 2629 C 251.023 3.58487 -0.318632 0
M  V30 2630 C 250.631 4.1339 -1.72663 0
M  V30 2631 C 252.375 4.24384 0.0991141 0
M  V30 2632 C 250.282 5.63633 -1.79087 0
M  V30 2633 H 249.212 0.750408 -0.0735107 0
M  V30 2634 H 251.863 1.62624 -0.850048 0
M  V30 2635 H 250.245 3.94047 0.392781 0
M  V30 2636 H 251.419 3.89273 -2.46583 0
M  V30 2637 H 249.734 3.59976 -2.09299 0
M  V30 2638 H 252.331 5.34652 0.0713833 0
M  V30 2639 H 252.674 4.00505 1.13586 0
M  V30 2640 H 253.207 3.93816 -0.561599 0
M  V30 2641 H 249.946 5.92323 -2.80774 0
M  V30 2642 H 249.466 5.89714 -1.09535 0
M  V30 2643 H 251.145 6.28201 -1.5483 0
M  V30 2644 N 251.277 0.427512 1.51691 0
M  V30 2645 C 252.225 -0.403359 2.29076 0
M  V30 2646 C 253.219 -1.02962 1.34518 0
M  V30 2647 O 254.425 -0.965715 1.51901 0
M  V30 2648 H 250.8 -0.148879 0.737115 0
M  V30 2649 H 252.771 0.270295 2.97173 0
M  V30 2650 C 251.52 -1.49763 3.13794 0
M  V30 2651 H 250.843 -1.02508 3.86435 0
M  V30 2652 H 252.283 -2.05244 3.71014 0
M  V30 2653 C 250.742 -2.47536 2.28533 0
M  V30 2654 O 251.272 -3.51848 1.93819 0
M  V30 2655 N 249.478 -2.18187 1.91945 0
M  V30 2656 H 249.025 -1.33389 2.20375 0
M  V30 2657 H 248.983 -2.83848 1.35195 0
M  V30 2658 N 252.755 -1.56801 0.158532 0
M  V30 2659 C 253.718 -2.16138 -0.762705 0
M  V30 2660 C 254.718 -1.1061 -1.16713 0
M  V30 2661 O 255.908 -1.36191 -1.08617 0
M  V30 2662 C 253.04 -2.73386 -2.03649 0
M  V30 2663 H 254.233 -2.98886 -0.246354 0
M  V30 2664 H 251.786 -1.56035 -0.0909744 0
M  V30 2665 H 252.521 -1.94335 -2.59623 0
M  V30 2666 H 252.306 -3.50601 -1.75559 0
M  V30 2667 H 253.796 -3.19065 -2.6942 0
M  V30 2668 N 254.233 0.115231 -1.57178 0
M  V30 2669 C 255.461 0.836437 -1.89239 0
M  V30 2670 C 255.876 1.73256 -0.750175 0
M  V30 2671 O 255.233 1.80357 0.278832 0
M  V30 2672 C 255.284 1.66671 -3.20785 0
M  V30 2673 O 255.005 0.806652 -4.3061 0
M  V30 2674 C 256.506 2.49274 -3.66575 0
M  V30 2675 H 253.726 0.240253 -0.626514 0
M  V30 2676 H 256.27 0.0984932 -2.04263 0
M  V30 2677 H 254.425 2.35737 -3.0742 0
M  V30 2678 H 254.839 1.37969 -5.06028 0
M  V30 2679 H 256.313 3.03055 -4.6137 0
M  V30 2680 H 256.79 3.26807 -2.93417 0
M  V30 2681 H 257.396 1.85443 -3.82741 0
M  V30 2682 N 255.711 1.52812 0.385517 0
M  V30 2683 C 256.988 1.5861 1.14465 0
M  V30 2684 C 257.368 0.381402 2.07626 0
M  V30 2685 O 256.716 -0.629999 2.19643 0
M  V30 2686 C 256.926 2.92664 1.90128 0
M  V30 2687 C 258.274 3.46526 2.45367 0
M  V30 2688 O 259.298 2.94562 2.0028 0
M  V30 2689 O 258.157 4.37323 3.27736 0
M  V30 2690 H 255.251 0.639855 0.523941 0
M  V30 2691 H 257.797 1.65149 0.390389 0
M  V30 2692 H 256.569 3.71788 1.22022 0
M  V30 2693 H 256.192 2.89527 2.72507 0
M  V30 2694 N 257.189 -0.644168 1.43834 0
M  V30 2695 C 258.438 -1.39985 1.45214 0
M  V30 2696 C 258.751 -1.95421 0.0835494 0
M  V30 2697 O 259.957 -2.71488 -0.0251748 0
M  V30 2698 C 258.413 -2.53384 2.55587 0
M  V30 2699 C 258.021 -2.04517 3.98594 0
M  V30 2700 C 259.765 -3.30685 2.66172 0
M  V30 2701 C 257.672 -3.1518 5.00416 0
M  V30 2702 H 256.602 -0.526005 0.540218 0
M  V30 2703 H 259.253 -0.694367 1.69855 0
M  V30 2704 H 257.635 -3.26446 2.24163 0
M  V30 2705 H 258.809 -1.38405 4.39523 0
M  V30 2706 H 257.124 -1.40068 3.92135 0
M  V30 2707 H 259.721 -4.13158 3.39418 0
M  V30 2708 H 260.064 -3.79312 1.71546 0
M  V30 2709 H 260.597 -2.64708 2.96942 0
M  V30 2710 H 257.336 -2.71511 5.96625 0
M  V30 2711 H 256.856 -3.79974 4.64091 0
M  V30 2712 H 258.535 -3.80166 5.23529 0
M  V30 2713 N 258.668 -1.30515 -0.883378 0
M  V30 2714 C 260.079 -1.17509 -1.45081 0
M  V30 2715 C 260.43 0.223605 -1.94922 0
M  V30 2716 O 259.555 1.12041 -1.85137 0
M  V30 2717 C 260.15 -2.12715 -2.63701 0
M  V30 2718 C 258.709 -2.03682 -3.16529 0
M  V30 2719 C 257.856 -2.02706 -1.89224 0
M  V30 2720 H 260.807 -1.42762 -0.693165 0
M  V30 2721 H 260.828 -1.70891 -3.39965 0
M  V30 2722 H 260.34 -3.14505 -2.27395 0
M  V30 2723 H 258.441 -1.05039 -3.57488 0
M  V30 2724 H 258.554 -2.92146 -3.7972 0
M  V30 2725 H 256.918 -1.4753 -2.07622 0
M  V30 2726 H 257.701 -3.06229 -1.55174 0
M  V30 2727 N 260.146 1.09593 -1.13257 0
M  V30 2728 C 261.371 1.8604 -0.916732 0
M  V30 2729 C 261.796 1.80504 0.529146 0
M  V30 2730 O 261.154 1.18127 1.37534 0
M  V30 2731 C 261.202 3.32017 -1.40703 0
M  V30 2732 O 260.306 4.08141 -0.591153 0
M  V30 2733 H 259.647 0.576943 -0.328683 0
M  V30 2734 H 262.177 1.38405 -1.50682 0
M  V30 2735 H 262.187 3.82865 -1.4099 0
M  V30 2736 H 260.862 3.35361 -2.45979 0
M  V30 2737 H 259.439 3.67084 -0.656005 0
M  V30 2738 N 261.624 0.925811 1.2754 0
M  V30 2739 C 262.872 0.564138 1.94067 0
M  V30 2740 C 263.193 -0.897188 1.73134 0
M  V30 2741 O 262.463 -1.63573 1.07799 0
M  V30 2742 H 261.043 0.205645 0.718136 0
M  V30 2743 H 263.705 1.1778 1.55287 0
M  V30 2744 H 262.801 0.76881 3.02483 0
M  V30 2745 N 263.102 -1.41638 0.69111 0
M  V30 2746 C 264.327 -2.06148 0.227583 0
M  V30 2747 C 264.752 -1.51652 -1.11281 0
M  V30 2748 O 264.11 -0.64164 -1.69566 0
M  V30 2749 C 264.158 -3.60095 0.190858 0
M  V30 2750 O 263.262 -4.03845 -0.835664 0
M  V30 2751 H 262.603 -0.654434 0.112306 0
M  V30 2752 H 265.133 -1.81484 0.944714 0
M  V30 2753 H 265.143 -4.07995 0.020207 0
M  V30 2754 H 263.818 -3.99129 1.16915 0
M  V30 2755 H 262.395 -3.67458 -0.63473 0
M  V30 2756 N 264.58 -0.43555 -1.51462 0
M  V30 2757 C 265.53 0.394701 -2.24558 0
M  V30 2758 C 266.514 0.99157 -1.26715 0
M  V30 2759 O 267.706 0.910007 -1.51815 0
M  V30 2760 C 264.835 1.4963 -3.08975 0
M  V30 2761 C 263.921 0.908912 -4.14246 0
M  V30 2762 N 264.312 0.0505335 -5.05775 0
M  V30 2763 C 262.61 1.17668 -4.30198 0
M  V30 2764 C 263.311 -0.279161 -5.8103 0
M  V30 2765 N 262.287 0.336767 -5.42556 0
M  V30 2766 H 266.089 -0.267106 -2.92684 0
M  V30 2767 H 263.603 -0.247518 -1.60503 0
M  V30 2768 H 265.6 2.10394 -3.59917 0
M  V30 2769 H 264.26 2.16046 -2.42393 0
M  V30 2770 H 265.271 -0.31577 -5.16936 0
M  V30 2771 H 261.948 1.83847 -3.74842 0
M  V30 2772 H 263.338 -0.977553 -6.64751 0
M  V30 2773 N 266.058 1.56714 -0.166846 0
M  V30 2774 C 267.005 2.17746 0.765193 0
M  V30 2775 C 267.975 1.11614 1.23011 0
M  V30 2776 O 269.16 1.39745 1.29908 0
M  V30 2777 C 266.3 2.81882 1.9909 0
M  V30 2778 C 265.413 4.02462 1.56997 0
M  V30 2779 C 264.548 4.54537 2.749 0
M  V30 2780 C 263.587 5.67538 2.29275 0
M  V30 2781 N 262.724 6.14142 3.40255 0
M  V30 2782 H 267.564 2.97048 0.237952 0
M  V30 2783 H 265.101 1.4672 0.105725 0
M  V30 2784 H 267.059 3.17221 2.70974 0
M  V30 2785 H 265.689 2.05191 2.49192 0
M  V30 2786 H 264.741 3.72973 0.748037 0
M  V30 2787 H 266.053 4.84273 1.19503 0
M  V30 2788 H 265.207 4.92035 3.54946 0
M  V30 2789 H 263.946 3.71774 3.1565 0
M  V30 2790 H 262.951 5.29597 1.47674 0
M  V30 2791 H 264.176 6.52099 1.89588 0
M  V30 2792 H 262.122 5.3431 3.8059 0
M  V30 2793 H 262.039 6.9093 3.06841 0
M  V30 2794 H 263.307 6.56289 4.206 0
M  V30 2795 N 267.536 -0.106894 1.57237 0
M  V30 2796 C 268.782 -0.81373 1.85759 0
M  V30 2797 C 269.115 -1.78952 0.754315 0
M  V30 2798 O 268.39 -1.93029 -0.23879 0
M  V30 2799 C 268.673 -1.55293 3.24894 0
M  V30 2800 C 268.526 -0.595929 4.45835 0
M  V30 2801 C 269.845 -2.5063 3.61763 0
M  V30 2802 H 266.964 -0.294369 0.67566 0
M  V30 2803 H 269.606 -0.0776472 1.89841 0
M  V30 2804 H 267.756 -2.1804 3.21544 0
M  V30 2805 H 269.428 0.0236262 4.61294 0
M  V30 2806 H 267.671 0.0916191 4.33703 0
M  V30 2807 H 268.342 -1.15004 5.39887 0
M  V30 2808 H 270.818 -1.97982 3.65981 0
M  V30 2809 H 269.694 -2.99376 4.60071 0
M  V30 2810 H 269.955 -3.3385 2.89821 0
M  V30 2811 N 269.014 -1.53014 -0.377408 0
M  V30 2812 C 270.239 -1.72818 -1.14668 0
M  V30 2813 C 270.664 -0.450725 -1.8262 0
M  V30 2814 O 270.022 0.59439 -1.7128 0
M  V30 2815 C 270.07 -2.88627 -2.16164 0
M  V30 2816 O 269.174 -2.56409 -3.22998 0
M  V30 2817 H 268.515 -0.574301 -0.333278 0
M  V30 2818 H 271.045 -1.99853 -0.438152 0
M  V30 2819 H 271.055 -3.14455 -2.59966 0
M  V30 2820 H 269.73 -3.81294 -1.66095 0
M  V30 2821 H 268.307 -2.4136 -2.84253 0
M  V30 2822 N 270.492 0.636531 -1.44174 0
M  V30 2823 C 271.422 1.76003 -1.53444 0
M  V30 2824 C 272.403 1.65619 -0.387841 0
M  V30 2825 O 273.588 1.84461 -0.607257 0
M  V30 2826 C 270.718 3.14511 -1.4731 0
M  V30 2827 C 269.672 3.39677 -2.60391 0
M  V30 2828 C 268.998 4.78159 -2.39308 0
M  V30 2829 C 270.298 3.32772 -4.02567 0
M  V30 2830 H 271.992 1.68501 -2.47483 0
M  V30 2831 H 269.538 0.809237 -1.19111 0
M  V30 2832 H 271.491 3.92878 -1.52397 0
M  V30 2833 H 270.215 3.22783 -0.49785 0
M  V30 2834 H 268.874 2.63688 -2.54684 0
M  V30 2835 H 268.522 4.83128 -1.39988 0
M  V30 2836 H 268.222 4.95956 -3.15122 0
M  V30 2837 H 269.746 5.58762 -2.46205 0
M  V30 2838 H 271.16 4.01051 -4.09672 0
M  V30 2839 H 269.557 3.62104 -4.7854 0
M  V30 2840 H 270.627 2.30669 -4.2652 0
M  V30 2841 N 271.97 1.30982 0.876444 0
M  V30 2842 C 273.195 1.23373 1.66715 0
M  V30 2843 C 273.62 -0.19885 1.87046 0
M  V30 2844 O 272.978 -1.1427 1.40756 0
M  V30 2845 C 273.026 1.97644 3.01611 0
M  V30 2846 O 272.13 1.30935 3.91062 0
M  V30 2847 H 271.471 0.426279 0.509099 0
M  V30 2848 H 274.001 1.72944 1.09323 0
M  V30 2849 H 274.011 2.06992 3.51594 0
M  V30 2850 H 272.686 3.01829 2.86133 0
M  V30 2851 H 271.263 1.29996 3.49507 0
M  V30 2852 N 273.449 -1.08991 1.13837 0
M  V30 2853 C 274.674 -1.85551 0.926585 0
M  V30 2854 C 275.099 -1.80782 -0.519566 0
M  V30 2855 O 274.457 -1.18855 -1.36906 0
M  V30 2856 C 274.505 -3.31266 1.42462 0
M  V30 2857 O 273.609 -4.07822 0.612789 0
M  V30 2858 H 272.95 -0.575192 0.331738 0
M  V30 2859 H 275.48 -1.37604 1.51414 0
M  V30 2860 H 275.49 -3.82112 1.43019 0
M  V30 2861 H 274.165 -3.34052 2.47754 0
M  V30 2862 H 272.742 -3.66731 0.675463 0
M  V30 2863 N 274.927 -0.932562 -1.27047 0
M  V30 2864 C 276.173 -0.585913 -1.94778 0
M  V30 2865 C 276.528 0.864142 -1.71902 0
M  V30 2866 O 275.821 1.60894 -1.04037 0
M  V30 2867 C 276.015 -0.853713 -3.47054 0
M  V30 2868 C 275.844 -2.32825 -3.84737 0
M  V30 2869 C 274.614 -2.98184 -4.07939 0
M  V30 2870 C 276.812 -3.30612 -3.93954 0
M  V30 2871 N 274.794 -4.3574 -4.3244 0
M  V30 2872 C 276.165 -4.53395 -4.22887 0
M  V30 2873 C 278.22 -3.25755 -3.76548 0
M  V30 2874 C 276.923 -5.71927 -4.36224 0
M  V30 2875 C 278.949 -4.43604 -3.91113 0
M  V30 2876 C 278.311 -5.65166 -4.20437 0
M  V30 2877 H 274.41 -0.264617 -0.735868 0
M  V30 2878 H 276.994 -1.20019 -1.53309 0
M  V30 2879 H 275.165 -0.268557 -3.8747 0
M  V30 2880 H 276.897 -0.469202 -4.01971 0
M  V30 2881 H 273.652 -2.48835 -4.02961 0
M  V30 2882 H 274.076 -5.06915 -4.48738 0
M  V30 2883 H 278.718 -2.32835 -3.52913 0
M  V30 2884 H 276.436 -6.65308 -4.58683 0
M  V30 2885 H 280.022 -4.41368 -3.79059 0
M  V30 2886 H 278.902 -6.54836 -4.31462 0
M  V30 2887 N 276.405 1.4127 -0.698611 0
M  V30 2888 C 277.635 2.05205 -0.239644 0
M  V30 2889 C 278.043 1.52684 1.11733 0
M  V30 2890 O 277.386 0.671222 1.70998 0
M  V30 2891 C 277.448 3.59289 -0.123126 0
M  V30 2892 C 277.112 4.34619 -1.41263 0
M  V30 2893 C 278.109 4.63701 -2.35111 0
M  V30 2894 C 275.794 4.73837 -1.66684 0
M  V30 2895 C 277.788 5.30966 -3.52639 0
M  V30 2896 C 275.475 5.40837 -2.84498 0
M  V30 2897 C 276.473 5.69329 -3.77298 0
M  V30 2898 O 276.161 6.34949 -4.93047 0
M  V30 2899 H 275.893 0.66723 -0.108537 0
M  V30 2900 H 278.447 1.81974 -0.952602 0
M  V30 2901 H 276.677 3.81272 0.645628 0
M  V30 2902 H 278.366 4.04797 0.299056 0
M  V30 2903 H 279.132 4.33882 -2.16729 0
M  V30 2904 H 275.011 4.51039 -0.953135 0
M  V30 2905 H 278.555 5.53121 -4.25091 0
M  V30 2906 H 274.452 5.70075 -3.02795 0
M  V30 2907 H 275.22 6.53445 -4.92902 0
M  V30 2908 N 277.883 0.443576 1.51229 0
M  V30 2909 C 278.833 -0.382787 2.24764 0
M  V30 2910 C 279.817 -0.984836 1.27239 0
M  V30 2911 O 281.009 -0.901943 1.52296 0
M  V30 2912 C 278.138 -1.47989 3.09765 0
M  V30 2913 C 277.224 -0.886931 4.14722 0
M  V30 2914 N 277.615 -0.0237103 5.05794 0
M  V30 2915 C 275.913 -1.15385 4.30816 0
M  V30 2916 C 276.614 0.309971 5.80874 0
M  V30 2917 N 275.59 -0.307989 5.42727 0
M  V30 2918 H 279.392 0.282624 2.92538 0
M  V30 2919 H 276.906 0.256027 1.60369 0
M  V30 2920 H 278.903 -2.08482 3.61027 0
M  V30 2921 H 277.563 -2.14758 2.43535 0
M  V30 2922 H 278.574 0.34318 5.16762 0
M  V30 2923 H 275.251 -1.81857 3.75812 0
M  V30 2924 H 276.641 1.01279 6.64223 0
M  V30 2925 N 279.361 -1.56624 0.175154 0
M  V30 2926 C 280.638 -1.88688 -0.515373 0
M  V30 2927 C 281.018 -1.08564 -1.81044 0
M  V30 2928 O 280.366 -0.180703 -2.27784 0
M  V30 2929 C 280.576 -3.40768 -0.753552 0
M  V30 2930 C 281.924 -4.10587 -1.08184 0
M  V30 2931 O 282.948 -3.46106 -0.841961 0
M  V30 2932 O 281.807 -5.24512 -1.53459 0
M  V30 2933 H 278.901 -0.78301 -0.26613 0
M  V30 2934 H 281.447 -1.68347 0.213877 0
M  V30 2935 H 280.219 -3.90965 0.161829 0
M  V30 2936 H 279.842 -3.66733 -1.53598 0
M  V30 2937 N 280.839 0.0985539 -1.57292 0
M  V30 2938 C 282.255 0.45267 -1.53046 0
M  V30 2939 C 282.455 1.80713 -0.891342 0
M  V30 2940 O 281.511 2.4785 -0.482375 0
M  V30 2941 C 282.824 0.418341 -2.97776 0
M  V30 2942 C 284.372 0.500443 -3.08973 0
M  V30 2943 C 284.847 0.496297 -4.55303 0
M  V30 2944 N 286.338 0.557151 -4.59837 0
M  V30 2945 C 287.073 0.575726 -5.70502 0
M  V30 2946 N 286.569 0.550714 -6.90608 0
M  V30 2947 N 288.362 0.620277 -5.58667 0
M  V30 2948 H 280.513 -0.788673 -1.97215 0
M  V30 2949 H 282.776 -0.293188 -0.901524 0
M  V30 2950 H 282.482 -0.509659 -3.47988 0
M  V30 2951 H 282.356 1.2386 -3.56284 0
M  V30 2952 H 284.743 1.41886 -2.58751 0
M  V30 2953 H 284.824 -0.347894 -2.53423 0
M  V30 2954 H 284.468 -0.418162 -5.06176 0
M  V30 2955 H 284.398 1.3618 -5.08687 0
M  V30 2956 H 286.889 0.581816 -3.73394 0
M  V30 2957 H 287.202 0.568075 -7.70709 0
M  V30 2958 H 285.547 0.517816 -6.93068 0
M  V30 2959 H 288.738 0.637322 -4.63741 0
M  V30 2960 H 288.911 0.631283 -6.44918 0
M  V30 2961 N 282.317 1.53212 0.369288 0
M  V30 2962 C 283.565 1.68881 1.11012 0
M  V30 2963 C 283.886 0.441285 1.89941 0
M  V30 2964 O 283.156 -0.544623 1.88177 0
M  V30 2965 H 281.736 0.622569 0.412816 0
M  V30 2966 H 284.398 1.90391 0.416802 0
M  V30 2967 H 283.494 2.54822 1.80201 0
M  V30 2968 N 283.795 -0.628877 1.44509 0
M  V30 2969 C 285.041 -1.38863 1.48623 0
M  V30 2970 C 285.396 -1.92038 0.117933 0
M  V30 2971 O 284.689 -1.70853 -0.86716 0
M  V30 2972 C 284.883 -2.56995 2.48371 0
M  V30 2973 C 284.712 -2.15385 3.94765 0
M  V30 2974 C 283.482 -2.02558 4.62924 0
M  V30 2975 C 285.68 -1.74158 4.83915 0
M  V30 2976 N 283.662 -1.54534 5.94132 0
M  V30 2977 C 285.033 -1.37396 6.04584 0
M  V30 2978 C 287.088 -1.61559 4.7096 0
M  V30 2979 C 285.791 -0.892948 7.13736 0
M  V30 2980 C 287.817 -1.14862 5.80139 0
M  V30 2981 C 287.179 -0.790516 6.9995 0
M  V30 2982 H 283.278 -0.502858 0.59888 0
M  V30 2983 H 285.862 -0.72121 1.8085 0
M  V30 2984 H 284.033 -3.21362 2.1813 0
M  V30 2985 H 285.765 -3.23801 2.42766 0
M  V30 2986 H 282.52 -2.23082 4.1777 0
M  V30 2987 H 282.944 -1.32815 6.63844 0
M  V30 2988 H 287.586 -1.87876 3.78764 0
M  V30 2989 H 285.304 -0.617291 8.05739 0
M  V30 2990 H 288.89 -1.05569 5.72142 0
M  V30 2991 H 287.77 -0.434713 7.82994 0
M  V30 2992 N 285.273 -1.31445 -0.869486 0
M  V30 2993 C 286.236 -1.19094 -1.9583 0
M  V30 2994 C 287.236 -0.117906 -1.60367 0
M  V30 2995 O 288.426 -0.367208 -1.70286 0
M  V30 2996 C 285.558 -0.828165 -3.30688 0
M  V30 2997 H 286.751 -2.15842 -2.08212 0
M  V30 2998 H 284.304 -1.15063 -1.05784 0
M  V30 2999 H 285.039 0.138142 -3.24006 0
M  V30 3000 H 284.824 -1.6038 -3.578 0
M  V30 3001 H 286.314 -0.765658 -4.10521 0
M  V30 3002 N 286.751 1.08385 -1.14413 0
M  V30 3003 C 287.698 2.15311 -0.831265 0
M  V30 3004 C 288.668 1.64751 0.211292 0
M  V30 3005 O 289.853 1.90627 0.0811674 0
M  V30 3006 C 286.993 3.43658 -0.315143 0
M  V30 3007 C 286.106 4.08064 -1.41802 0
M  V30 3008 C 285.241 5.24207 -0.859126 0
M  V30 3009 C 284.28 5.80554 -1.93967 0
M  V30 3010 N 283.417 6.88042 -1.39793 0
M  V30 3011 H 288.257 2.41415 -1.74708 0
M  V30 3012 H 285.794 1.18474 -0.871909 0
M  V30 3013 H 287.752 4.172 0.00230884 0
M  V30 3014 H 286.382 3.17839 0.56378 0
M  V30 3015 H 285.434 3.3228 -1.85187 0
M  V30 3016 H 286.746 4.45962 -2.23427 0
M  V30 3017 H 285.9 6.04689 -0.49359 0
M  V30 3018 H 284.639 4.87699 -0.011932 0
M  V30 3019 H 283.644 4.98725 -2.31415 0
M  V30 3020 H 284.869 6.19121 -2.79046 0
M  V30 3021 H 282.815 6.53493 -0.572919 0
M  V30 3022 H 282.732 7.24767 -2.15054 0
M  V30 3023 H 284 7.72255 -1.0603 0
M  V30 3024 N 288.23 0.939286 1.26551 0
M  V30 3025 C 289.479 0.581601 1.93133 0
M  V30 3026 C 289.792 -0.883224 1.74524 0
M  V30 3027 O 290.998 -1.3502 2.35546 0
M  V30 3028 C 289.454 0.989425 3.46032 0
M  V30 3029 C 289.062 2.47573 3.73379 0
M  V30 3030 C 290.806 0.703544 4.18629 0
M  V30 3031 C 288.713 2.82235 5.19709 0
M  V30 3032 H 287.643 0.213803 0.723052 0
M  V30 3033 H 290.294 1.14167 1.4366 0
M  V30 3034 H 288.676 0.357902 3.94379 0
M  V30 3035 H 289.85 3.15614 3.35744 0
M  V30 3036 H 288.165 2.73471 3.1401 0
M  V30 3037 H 290.762 0.938869 5.26393 0
M  V30 3038 H 291.105 -0.359639 4.14744 0
M  V30 3039 H 291.638 1.2947 3.76141 0
M  V30 3040 H 288.377 3.87509 5.28694 0
M  V30 3041 H 287.897 2.18854 5.58447 0
M  V30 3042 H 289.576 2.70599 5.87695 0
M  V30 3043 N 289.708 -1.40897 0.706093 0
M  V30 3044 C 290.933 -2.05895 0.249435 0
M  V30 3045 C 291.358 -1.52823 -1.09666 0
M  V30 3046 O 290.716 -0.659589 -1.68876 0
M  V30 3047 C 290.764 -3.59872 0.22904 0
M  V30 3048 O 289.868 -4.04708 -0.792784 0
M  V30 3049 H 289.209 -0.653206 0.119241 0
M  V30 3050 H 291.739 -1.80471 0.96391 0
M  V30 3051 H 291.749 -4.07951 0.0634791 0
M  V30 3052 H 290.424 -3.97866 1.21141 0
M  V30 3053 H 289.001 -3.68111 -0.59572 0
M  V30 3054 N 291.186 -0.45159 -1.50991 0
M  V30 3055 C 292.134 0.366864 -2.29689 0
M  V30 3056 C 293.128 1.00809 -1.36139 0
M  V30 3057 O 294.334 0.941427 -1.53418 0
M  V30 3058 H 290.709 0.137133 -0.739391 0
M  V30 3059 H 292.68 -0.317538 -2.96706 0
M  V30 3060 C 291.429 1.44751 -3.16137 0
M  V30 3061 H 290.752 0.963473 -3.88017 0
M  V30 3062 H 292.192 1.99315 -3.74232 0
M  V30 3063 C 290.651 2.43869 -2.32442 0
M  V30 3064 O 291.181 3.4872 -1.99392 0
M  V30 3065 N 289.387 2.15105 -1.95392 0
M  V30 3066 H 288.934 1.29866 -2.22469 0
M  V30 3067 H 288.892 2.81661 -1.39693 0
M  V30 3068 N 292.664 1.56529 -0.183458 0
M  V30 3069 C 293.597 2.14417 0.781052 0
M  V30 3070 C 294.575 1.07761 1.21763 0
M  V30 3071 O 295.759 1.35807 1.30724 0
M  V30 3072 C 292.886 2.69361 2.05335 0
M  V30 3073 C 291.932 3.885 1.75982 0
M  V30 3074 S 292.765 5.27568 0.918256 0
M  V30 3075 C 293.921 5.85926 2.20095 0
M  V30 3076 H 294.154 2.95893 0.2889 0
M  V30 3077 H 291.687 1.54368 0.0313844 0
M  V30 3078 H 293.645 3.01662 2.78406 0
M  V30 3079 H 292.306 1.87949 2.51663 0
M  V30 3080 H 291.499 4.25314 2.70415 0
M  V30 3081 H 291.101 3.57149 1.10999 0
M  V30 3082 H 293.393 5.99579 3.15453 0
M  V30 3083 H 294.336 6.82761 1.87731 0
M  V30 3084 H 294.744 5.14438 2.32409 0
M  V30 3085 N 294.142 -0.090211 1.57342 0
M  V30 3086 C 295.37 -0.806224 1.90546 0
M  V30 3087 C 295.785 -1.72041 0.777644 0
M  V30 3088 O 295.142 -1.80778 -0.250103 0
M  V30 3089 C 295.193 -1.61546 3.23396 0
M  V30 3090 O 294.914 -0.738043 4.31839 0
M  V30 3091 C 296.415 -2.4341 3.70495 0
M  V30 3092 H 293.635 -0.230256 0.630257 0
M  V30 3093 H 296.179 -0.0659843 2.04394 0
M  V30 3094 H 294.334 -2.30816 3.11131 0
M  V30 3095 H 294.748 -1.29901 5.08159 0
M  V30 3096 H 296.222 -2.95676 4.66133 0
M  V30 3097 H 296.699 -3.22098 2.98579 0
M  V30 3098 H 297.305 -1.79331 3.85643 0
M  V30 3099 N 295.62 -1.53406 -0.361157 0
M  V30 3100 C 296.867 -1.69802 -1.10333 0
M  V30 3101 C 297.195 -0.452087 -1.89173 0
M  V30 3102 O 296.45 0.566017 -1.87336 0
M  V30 3103 C 296.749 -2.90211 -2.08596 0
M  V30 3104 C 296.415 -4.26539 -1.46203 0
M  V30 3105 C 295.077 -4.6361 -1.28915 0
M  V30 3106 C 297.429 -5.113 -1.01101 0
M  V30 3107 C 294.757 -5.83075 -0.651157 0
M  V30 3108 C 297.109 -6.31415 -0.387007 0
M  V30 3109 C 295.773 -6.67195 -0.201657 0
M  V30 3110 H 295.043 -0.621351 -0.403737 0
M  V30 3111 H 297.69 -1.87598 -0.384609 0
M  V30 3112 H 295.995 -2.66946 -2.86788 0
M  V30 3113 H 297.692 -3.00091 -2.65982 0
M  V30 3114 H 294.282 -3.97352 -1.60653 0
M  V30 3115 H 298.466 -4.83206 -1.13249 0
M  V30 3116 H 293.722 -6.09385 -0.496006 0
M  V30 3117 H 297.896 -6.96394 -0.0293563 0
M  V30 3118 H 295.523 -7.59628 0.294766 0
M  V30 3119 N 297.098 0.621204 -1.44841 0
M  V30 3120 C 298.323 1.41244 -1.51871 0
M  V30 3121 C 298.748 1.87519 -0.147764 0
M  V30 3122 O 298.106 1.59334 0.865 0
M  V30 3123 C 298.154 2.60221 -2.49634 0
M  V30 3124 O 297.258 3.60395 -2.00473 0
M  V30 3125 H 296.599 0.42223 -0.512463 0
M  V30 3126 H 299.129 0.757305 -1.90069 0
M  V30 3127 H 299.139 3.0764 -2.67996 0
M  V30 3128 H 297.814 2.25887 -3.4921 0
M  V30 3129 H 296.391 3.19717 -1.91925 0
M  V30 3130 N 298.576 1.31904 0.862503 0
M  V30 3131 C 299.524 1.20125 1.9918 0
M  V30 3132 C 300.518 0.107824 1.69056 0
M  V30 3133 O 301.724 0.270223 1.7796 0
M  V30 3134 H 298.099 0.372148 0.65346 0
M  V30 3135 H 300.07 2.15652 2.06244 0
M  V30 3136 C 298.819 0.933099 3.34946 0
M  V30 3137 H 298.142 1.76664 3.5865 0
M  V30 3138 H 299.582 0.890892 4.14535 0
M  V30 3139 C 298.041 -0.364172 3.34926 0
M  V30 3140 O 298.571 -1.37858 3.77304 0
M  V30 3141 N 296.777 -0.383362 2.8806 0
M  V30 3142 H 296.324 0.442651 2.53768 0
M  V30 3143 H 296.282 -1.25123 2.8843 0
M  V30 3144 N 300.054 -1.07777 1.14986 0
M  V30 3145 C 301.302 -1.79934 0.920235 0
M  V30 3146 C 301.623 -1.86955 -0.554336 0
M  V30 3147 O 300.893 -1.36731 -1.40291 0
M  V30 3148 H 299.473 -0.666424 0.337473 0
M  V30 3149 H 302.135 -1.3027 1.44968 0
M  V30 3150 H 301.231 -2.82539 1.32583 0
M  V30 3151 N 301.532 -0.945985 -1.26051 0
M  V30 3152 C 302.479 -0.45809 -2.26208 0
M  V30 3153 C 303.449 0.484816 -1.58867 0
M  V30 3154 O 304.634 0.399969 -1.86561 0
M  V30 3155 C 301.774 0.266131 -3.44072 0
M  V30 3156 C 300.887 -0.713005 -4.26075 0
M  V30 3157 C 300.022 0.0329013 -5.3119 0
M  V30 3158 C 299.061 -0.93774 -6.04874 0
M  V30 3159 N 298.198 -0.223274 -7.01745 0
M  V30 3160 H 303.038 -1.3171 -2.67313 0
M  V30 3161 H 300.575 -0.66069 -1.31428 0
M  V30 3162 H 302.533 0.702514 -4.11243 0
M  V30 3163 H 301.163 1.08925 -3.03867 0
M  V30 3164 H 300.215 -1.26789 -3.58648 0
M  V30 3165 H 301.527 -1.45406 -4.77136 0
M  V30 3166 H 300.681 0.528335 -6.04395 0
M  V30 3167 H 299.42 0.806801 -4.8098 0
M  V30 3168 H 298.425 -1.44425 -5.30492 0
M  V30 3169 H 299.65 -1.71172 -6.57173 0
M  V30 3170 H 297.596 0.532046 -6.53839 0
M  V30 3171 H 297.513 -0.90357 -7.50581 0
M  V30 3172 H 298.781 0.250907 -7.79096 0
M  V30 3173 N 303.011 1.40521 -0.713556 0
M  V30 3174 C 303.941 2.33381 -0.0743864 0
M  V30 3175 C 304.922 1.52784 0.747735 0
M  V30 3176 O 306.107 1.81258 0.697071 0
M  V30 3177 C 303.237 3.36748 0.849598 0
M  V30 3178 C 302.191 4.27793 0.133247 0
M  V30 3179 C 301.517 5.21679 1.17281 0
M  V30 3180 C 302.817 5.12415 -1.01134 0
M  V30 3181 H 304.511 2.87081 -0.850007 0
M  V30 3182 H 302.057 1.38034 -0.410201 0
M  V30 3183 H 304.01 4.00648 1.30612 0
M  V30 3184 H 302.734 2.81439 1.65709 0
M  V30 3185 H 301.393 3.65342 -0.303426 0
M  V30 3186 H 301.041 4.62677 1.9733 0
M  V30 3187 H 300.741 5.83435 0.698397 0
M  V30 3188 H 302.265 5.88456 1.62947 0
M  V30 3189 H 303.679 5.69781 -0.634274 0
M  V30 3190 H 302.076 5.83203 -1.41399 0
M  V30 3191 H 303.146 4.48514 -1.84292 0
M  V30 3192 N 304.489 0.459591 1.5075 0
M  V30 3193 C 305.738 -0.100971 2.01447 0
M  V30 3194 C 306.051 -1.41816 1.34713 0
M  V30 3195 O 307.257 -2.06299 1.76502 0
M  V30 3196 C 305.713 -0.23047 3.59161 0
M  V30 3197 C 305.321 1.0776 4.34847 0
M  V30 3198 C 307.065 -0.743608 4.17936 0
M  V30 3199 C 304.972 0.91253 5.84317 0
M  V30 3200 H 303.902 -0.0415102 0.752856 0
M  V30 3201 H 306.553 0.592742 1.73663 0
M  V30 3202 H 304.935 -0.987703 3.83485 0
M  V30 3203 H 306.109 1.8449 4.22256 0
M  V30 3204 H 304.424 1.52097 3.87628 0
M  V30 3205 H 307.021 -0.883959 5.27343 0
M  V30 3206 H 307.364 -1.73196 3.78562 0
M  V30 3207 H 307.897 -0.04408 3.97776 0
M  V30 3208 H 304.636 1.87391 6.28144 0
M  V30 3209 H 304.156 0.185422 5.99513 0
M  V30 3210 H 305.835 0.574547 6.44444 0
M  V30 3211 N 305.967 -1.56429 0.191757 0
M  V30 3212 C 307.213 -1.97777 -0.448554 0
M  V30 3213 C 307.546 -1.07847 -1.61501 0
M  V30 3214 O 306.821 -0.129774 -1.94067 0
M  V30 3215 C 307.104 -3.48362 -0.911906 0
M  V30 3216 C 306.957 -4.4907 0.256136 0
M  V30 3217 C 308.276 -4.02561 -1.77857 0
M  V30 3218 H 305.395 -0.719071 -0.161572 0
M  V30 3219 H 308.037 -1.87896 0.282007 0
M  V30 3220 H 306.187 -3.56914 -1.53442 0
M  V30 3221 H 307.859 -4.5256 0.893733 0
M  V30 3222 H 306.102 -4.24181 0.908436 0
M  V30 3223 H 306.773 -5.51889 -0.11053 0
M  V30 3224 H 309.249 -3.96767 -1.25359 0
M  V30 3225 H 308.125 -5.08301 -2.07174 0
M  V30 3226 H 308.386 -3.47616 -2.73158 0
M  V30 3227 N 307.445 0.0818655 -1.57387 0
M  V30 3228 C 308.393 1.11712 -2.04018 0
M  V30 3229 C 309.387 1.40683 -0.94364 0
M  V30 3230 O 310.593 1.40209 -1.12878 0
M  V30 3231 H 306.968 0.377542 -0.650358 0
M  V30 3232 H 308.939 0.697614 -2.90131 0
M  V30 3233 C 307.688 2.42537 -2.49141 0
M  V30 3234 H 307.011 2.21092 -3.33104 0
M  V30 3235 H 308.451 3.13446 -2.85531 0
M  V30 3236 C 306.91 3.0778 -1.37014 0
M  V30 3237 O 307.44 3.95436 -0.706621 0
M  V30 3238 N 305.646 2.68242 -1.11779 0
M  V30 3239 H 305.193 1.97052 -1.65917 0
M  V30 3240 H 305.151 3.1222 -0.369594 0
M  V30 3241 N 308.923 1.53595 0.353017 0
M  V30 3242 C 309.855 1.77219 1.45348 0
M  V30 3243 C 310.868 0.65324 1.49119 0
M  V30 3244 O 312.057 0.929775 1.52373 0
M  V30 3245 C 309.157 1.84841 2.84055 0
M  V30 3246 C 308.33 3.14649 3.03833 0
M  V30 3247 C 307.389 3.13351 4.22727 0
M  V30 3248 O 306.415 3.87107 4.17297 0
M  V30 3249 N 307.617 2.35052 5.30783 0
M  V30 3250 H 310.382 2.72178 1.25457 0
M  V30 3251 H 307.943 1.52528 0.542833 0
M  V30 3252 H 309.935 1.81435 3.61751 0
M  V30 3253 H 308.505 0.971114 2.97133 0
M  V30 3254 H 307.725 3.31256 2.13689 0
M  V30 3255 H 309.013 4.00411 3.13925 0
M  V30 3256 H 308.411 1.74663 5.38061 0
M  V30 3257 H 306.968 2.37453 6.07009 0
M  V30 3258 N 310.401 -0.613514 1.45168 0
M  V30 3259 C 311.678 -1.37263 1.39349 0
M  V30 3260 C 312.058 -2.11012 0.0610848 0
M  V30 3261 O 311.406 -2.07502 -0.956825 0
M  V30 3262 C 311.616 -2.3244 2.60332 0
M  V30 3263 C 312.964 -2.9523 3.05163 0
M  V30 3264 O 313.988 -2.42762 2.60663 0
M  V30 3265 O 312.847 -3.90454 3.82372 0
M  V30 3266 H 309.941 -0.615188 0.552696 0
M  V30 3267 H 312.487 -0.637097 1.57287 0
M  V30 3268 H 311.259 -1.77164 3.48896 0
M  V30 3269 H 310.882 -3.13383 2.44698 0
M  V30 3270 N 311.879 -1.3236 -0.855495 0
M  V30 3271 C 313.127 -1.22629 -1.60644 0
M  V30 3272 C 313.448 0.212136 -1.93843 0
M  V30 3273 O 312.718 1.13666 -1.59552 0
M  V30 3274 H 311.298 -0.450882 -0.595579 0
M  V30 3275 H 313.96 -1.65871 -1.02337 0
M  V30 3276 H 313.056 -1.80832 -2.54374 0
M  V30 3277 N 313.357 1.07166 -1.15556 0
M  V30 3278 C 314.604 1.79798 -0.931604 0
M  V30 3279 C 314.932 1.8682 0.54115 0
M  V30 3280 O 314.187 1.34942 1.41736 0
M  V30 3281 C 314.486 3.24707 -1.49332 0
M  V30 3282 C 314.152 3.37781 -2.98688 0
M  V30 3283 C 312.814 3.41057 -3.39461 0
M  V30 3284 C 315.166 3.40424 -3.94665 0
M  V30 3285 C 312.494 3.4458 -4.74849 0
M  V30 3286 C 314.846 3.45485 -5.29927 0
M  V30 3287 C 313.51 3.47039 -5.70193 0
M  V30 3288 H 312.78 0.657928 -0.340898 0
M  V30 3289 H 315.427 1.26091 -1.44129 0
M  V30 3290 H 313.732 3.81208 -0.904859 0
M  V30 3291 H 315.429 3.79486 -1.29582 0
M  V30 3292 H 312.019 3.35932 -2.66172 0
M  V30 3293 H 316.203 3.37113 -3.64237 0
M  V30 3294 H 311.459 3.44083 -5.05388 0
M  V30 3295 H 315.633 3.46476 -6.04092 0
M  V30 3296 H 313.26 3.49522 -6.75084 0
M  V30 3297 N 314.835 0.952656 1.25548 0
M  V30 3298 C 316.065 0.622592 1.96996 0
M  V30 3299 C 316.473 -0.809112 1.71026 0
M  V30 3300 O 315.816 -1.55258 0.981861 0
M  V30 3301 C 315.878 0.798946 3.5051 0
M  V30 3302 C 315.542 2.20744 4.00151 0
M  V30 3303 C 316.539 3.18394 4.11001 0
M  V30 3304 C 314.224 2.5311 4.33867 0
M  V30 3305 C 316.218 4.46504 4.54877 0
M  V30 3306 C 313.905 3.8145 4.7743 0
M  V30 3307 C 314.903 4.77959 4.87897 0
M  V30 3308 O 314.591 6.04012 5.30494 0
M  V30 3309 H 314.323 0.232503 0.634758 0
M  V30 3310 H 316.877 1.2789 1.60728 0
M  V30 3311 H 315.107 0.0854903 3.86605 0
M  V30 3312 H 316.796 0.47023 4.03167 0
M  V30 3313 H 317.562 2.94715 3.85186 0
M  V30 3314 H 313.441 1.78719 4.24948 0
M  V30 3315 H 316.985 5.21835 4.62962 0
M  V30 3316 H 312.882 4.04936 5.0269 0
M  V30 3317 H 313.65 6.0736 5.48685 0
M  V30 3318 N 316.313 -1.40141 0.720998 0
M  V30 3319 C 317.543 -2.04798 0.27226 0
M  V30 3320 C 317.951 -1.54442 -1.09289 0
M  V30 3321 O 317.294 -0.698342 -1.69908 0
M  V30 3322 C 317.356 -3.59048 0.18027 0
M  V30 3323 C 317.02 -4.32317 1.48159 0
M  V30 3324 C 318.017 -4.59902 2.42458 0
M  V30 3325 C 315.702 -4.71125 1.74202 0
M  V30 3326 C 317.696 -5.25288 3.61042 0
M  V30 3327 C 315.383 -5.36242 2.93066 0
M  V30 3328 C 316.381 -5.63254 3.86308 0
M  V30 3329 O 316.069 -6.27024 5.03086 0
M  V30 3330 H 315.801 -0.665419 0.119139 0
M  V30 3331 H 318.355 -1.80436 0.981432 0
M  V30 3332 H 316.585 -3.82251 -0.58489 0
M  V30 3333 H 318.274 -4.05221 -0.234618 0
M  V30 3334 H 319.04 -4.30379 2.23604 0
M  V30 3335 H 314.919 -4.49466 1.02477 0
M  V30 3336 H 318.463 -5.46289 4.33837 0
M  V30 3337 H 314.36 -5.65185 3.11826 0
M  V30 3338 H 315.128 -6.4552 5.03235 0
M  V30 3339 N 317.792 -0.46758 -1.50504 0
M  V30 3340 C 318.722 0.318381 -2.31319 0
M  V30 3341 C 319.703 0.993564 -1.38066 0
M  V30 3342 O 320.888 0.991411 -1.66987 0
M  V30 3343 C 318.018 1.40275 -3.17711 0
M  V30 3344 C 316.972 0.849373 -4.19487 0
M  V30 3345 C 316.298 2.03177 -4.94594 0
M  V30 3346 C 317.598 -0.136942 -5.2212 0
M  V30 3347 H 319.292 -0.356106 -2.97275 0
M  V30 3348 H 316.838 -0.172703 -1.42961 0
M  V30 3349 H 318.791 1.96004 -3.73042 0
M  V30 3350 H 317.515 2.10596 -2.49634 0
M  V30 3351 H 316.174 0.314076 -3.65252 0
M  V30 3352 H 315.822 2.72187 -4.22993 0
M  V30 3353 H 315.522 1.66774 -5.63436 0
M  V30 3354 H 317.046 2.59403 -5.52759 0
M  V30 3355 H 318.46 0.331056 -5.72343 0
M  V30 3356 H 316.857 -0.41507 -5.98663 0
M  V30 3357 H 317.927 -1.06398 -4.73083 0
M  V30 3358 N 319.27 1.56325 -0.20005 0
M  V30 3359 C 320.5 2.01811 0.442232 0
M  V30 3360 C 320.908 1.07932 1.55394 0
M  V30 3361 O 320.251 0.0772685 1.83537 0
M  V30 3362 C 320.313 3.43685 1.05457 0
M  V30 3363 C 319.977 4.56928 0.0809833 0
M  V30 3364 C 320.974 5.15009 -0.711471 0
M  V30 3365 C 318.659 5.0229 -0.0315364 0
M  V30 3366 C 320.653 6.16904 -1.60336 0
M  V30 3367 C 318.34 6.04028 -0.926981 0
M  V30 3368 C 319.338 6.6121 -1.71146 0
M  V30 3369 O 319.026 7.60971 -2.59189 0
M  V30 3370 H 318.758 0.666173 0.114848 0
M  V30 3371 H 321.312 2.03085 -0.307511 0
M  V30 3372 H 319.542 3.39413 1.85299 0
M  V30 3373 H 321.231 3.72948 1.60201 0
M  V30 3374 H 321.997 4.80827 -0.634873 0
M  V30 3375 H 317.876 4.57476 0.568902 0
M  V30 3376 H 321.42 6.61464 -2.21611 0
M  V30 3377 H 317.317 6.37634 -1.00468 0
M  V30 3378 H 318.085 7.7841 -2.53023 0
M  V30 3379 N 320.748 -0.0735177 1.57428 0
M  V30 3380 C 321.711 -1.07192 2.02589 0
M  V30 3381 C 322.711 -1.31695 0.922661 0
M  V30 3382 O 323.901 -1.27445 1.18758 0
M  V30 3383 C 321.033 -2.41599 2.40506 0
M  V30 3384 H 322.226 -0.682727 2.92025 0
M  V30 3385 H 319.779 -0.319193 1.53006 0
M  V30 3386 H 320.514 -2.85354 1.5409 0
M  V30 3387 H 320.299 -2.25156 3.21009 0
M  V30 3388 H 321.789 -3.13367 2.76027 0
M  V30 3389 N 322.226 -1.5378 -0.344866 0
M  V30 3390 C 323.174 -1.82373 -1.4437 0
M  V30 3391 C 324.168 -0.694128 -1.54526 0
M  V30 3392 O 325.374 -0.877442 -1.57165 0
M  V30 3393 H 321.749 -0.577765 -0.481344 0
M  V30 3394 H 323.72 -2.74306 -1.17468 0
M  V30 3395 C 322.469 -2.04898 -2.80913 0
M  V30 3396 H 321.792 -2.9127 -2.73865 0
M  V30 3397 H 323.232 -2.28871 -3.56923 0
M  V30 3398 C 321.691 -0.834116 -3.26411 0
M  V30 3399 O 322.221 -0.0328885 -4.01687 0
M  V30 3400 N 320.427 -0.65171 -2.83198 0
M  V30 3401 H 319.974 -1.30489 -2.22104 0
M  V30 3402 H 319.932 0.159686 -3.13994 0
M  V30 3403 N 323.704 0.605807 -1.45491 0
M  V30 3404 C 324.953 1.36086 -1.48874 0
M  V30 3405 C 325.266 1.95131 -0.135333 0
M  V30 3406 O 326.472 2.7146 -0.0468144 0
M  V30 3407 C 324.928 2.46518 -2.62215 0
M  V30 3408 C 324.536 1.93877 -4.03876 0
M  V30 3409 C 326.28 3.23512 -2.74846 0
M  V30 3410 C 324.187 3.01801 -5.08596 0
M  V30 3411 H 323.117 0.511497 -0.553974 0
M  V30 3412 H 325.768 0.649089 -1.71636 0
M  V30 3413 H 324.15 3.20388 -2.32739 0
M  V30 3414 H 325.324 1.26704 -4.43038 0
M  V30 3415 H 323.639 1.29622 -3.95711 0
M  V30 3416 H 326.236 4.04013 -3.50253 0
M  V30 3417 H 326.579 3.74631 -1.81542 0
M  V30 3418 H 327.112 2.56742 -3.03856 0
M  V30 3419 H 323.851 2.55597 -6.03614 0
M  V30 3420 H 323.371 3.67535 -4.74002 0
M  V30 3421 H 325.05 3.66152 -5.33424 0
M  V30 3422 N 325.182 1.32811 0.848464 0
M  V30 3423 C 326.422 1.25046 1.61687 0
M  V30 3424 C 326.786 -0.183464 1.91121 0
M  V30 3425 O 327.987 -0.384937 2.66029 0
M  V30 3426 C 326.258 2.09201 2.89775 0
M  V30 3427 S 327.817 2.18526 3.80515 0
M  V30 3428 H 324.635 0.445023 0.554505 0
M  V30 3429 H 327.237 1.67733 1.00429 0
M  V30 3430 H 325.941 3.12433 2.66108 0
M  V30 3431 H 325.472 1.67315 3.56047 0
M  V30 3432 H 327.487 1.3393 4.77784 0
M  V30 3433 N 326.66 -1.06551 1.16123 0
M  V30 3434 C 327.907 -1.79302 0.941126 0
M  V30 3435 C 328.235 -1.87105 -0.531235 0
M  V30 3436 O 327.49 -1.35692 -1.41018 0
M  V30 3437 C 327.789 -3.23911 1.51052 0
M  V30 3438 C 327.455 -3.36193 3.00475 0
M  V30 3439 C 326.117 -3.39252 3.41265 0
M  V30 3440 C 328.469 -3.38326 3.96465 0
M  V30 3441 C 325.797 -3.42057 4.76669 0
M  V30 3442 C 328.149 -3.4267 5.31752 0
M  V30 3443 C 326.813 -3.4401 5.72026 0
M  V30 3444 H 326.083 -0.656111 0.344382 0
M  V30 3445 H 328.73 -1.25325 1.44796 0
M  V30 3446 H 327.035 -3.80723 0.925063 0
M  V30 3447 H 328.732 -3.78793 1.31593 0
M  V30 3448 H 325.322 -3.34516 2.6795 0
M  V30 3449 H 329.506 -3.35176 3.6602 0
M  V30 3450 H 324.762 -3.41398 5.07206 0
M  V30 3451 H 328.936 -3.43268 6.05921 0
M  V30 3452 H 326.563 -3.45937 6.76928 0
M  V30 3453 N 328.138 -0.959301 -1.25041 0
M  V30 3454 C 329.554 -0.664474 -1.4511 0
M  V30 3455 C 329.754 0.776481 -1.85938 0
M  V30 3456 O 328.81 1.55128 -1.99227 0
M  V30 3457 C 330.123 -1.64139 -2.5195 0
M  V30 3458 C 331.671 -1.65309 -2.65786 0
M  V30 3459 C 332.146 -2.61777 -3.75815 0
M  V30 3460 N 333.637 -2.60169 -3.83231 0
M  V30 3461 C 334.372 -3.31489 -4.6787 0
M  V30 3462 N 333.868 -4.12298 -5.56761 0
M  V30 3463 N 335.661 -3.20354 -4.61876 0
M  V30 3464 H 327.812 -1.89043 -0.968332 0
M  V30 3465 H 330.075 -0.813408 -0.4869 0
M  V30 3466 H 329.781 -2.67086 -2.28819 0
M  V30 3467 H 329.655 -1.40756 -3.49954 0
M  V30 3468 H 332.042 -0.630778 -2.8828 0
M  V30 3469 H 332.123 -1.92753 -1.68167 0
M  V30 3470 H 331.767 -3.64137 -3.54071 0
M  V30 3471 H 331.697 -2.31616 -4.72929 0
M  V30 3472 H 334.188 -2.01507 -3.19692 0
M  V30 3473 H 334.501 -4.63625 -6.18281 0
M  V30 3474 H 332.846 -4.16395 -5.56454 0
M  V30 3475 H 336.037 -2.56692 -3.91442 0
M  V30 3476 H 336.21 -3.76201 -5.27614 0
M  V30 3477 N 329.616 1.39756 -0.72842 0
M  V30 3478 C 330.566 2.2792 -0.0603424 0
M  V30 3479 C 331.55 1.43922 0.719399 0
M  V30 3480 O 332.742 1.66895 0.589489 0
M  V30 3481 C 329.871 3.32582 0.851104 0
M  V30 3482 C 328.957 4.24049 0.0658641 0
M  V30 3483 N 329.348 4.96653 -0.957578 0
M  V30 3484 C 327.646 4.45013 0.296509 0
M  V30 3485 C 328.347 5.63836 -1.43052 0
M  V30 3486 N 327.323 5.38397 -0.750315 0
M  V30 3487 H 331.125 2.81504 -0.84455 0
M  V30 3488 H 328.639 1.5236 -0.562155 0
M  V30 3489 H 330.636 3.94603 1.34514 0
M  V30 3490 H 329.296 2.80558 1.63454 0
M  V30 3491 H 330.307 5.00297 -1.33877 0
M  V30 3492 H 326.984 4.03943 1.05527 0
M  V30 3493 H 328.374 6.31974 -2.28163 0
M  V30 3494 N 331.094 0.475555 1.50254 0
M  V30 3495 C 332.044 -0.335025 2.25525 0
M  V30 3496 C 333.028 -0.957625 1.29299 0
M  V30 3497 O 334.22 -0.869436 1.54175 0
M  V30 3498 C 331.349 -1.41385 3.12834 0
M  V30 3499 C 330.435 -0.798762 4.1651 0
M  V30 3500 N 330.826 0.0835815 5.05731 0
M  V30 3501 C 329.124 -1.06221 4.33166 0
M  V30 3502 C 329.825 0.433113 5.80085 0
M  V30 3503 N 328.801 -0.1928 5.43258 0
M  V30 3504 H 332.603 0.344612 2.91873 0
M  V30 3505 H 330.117 0.289986 1.5979 0
M  V30 3506 H 332.114 -2.00777 3.65368 0
M  V30 3507 H 330.774 -2.09543 2.48036 0
M  V30 3508 H 331.785 0.452715 5.15918 0
M  V30 3509 H 328.462 -1.73844 3.79585 0
M  V30 3510 H 329.852 1.15346 6.61925 0
M  V30 3511 N 332.573 -1.56217 0.208337 0
M  V30 3512 C 333.483 -2.23316 -0.718836 0
M  V30 3513 C 334.499 -1.23648 -1.22422 0
M  V30 3514 O 335.675 -1.56423 -1.26861 0
M  V30 3515 C 332.74 -2.88968 -1.91568 0
M  V30 3516 C 331.801 -4.03943 -1.45357 0
M  V30 3517 C 331.034 -4.66455 -2.59337 0
M  V30 3518 O 331.257 -4.27919 -3.77149 0
M  V30 3519 O 330.191 -5.55686 -2.31293 0
M  V30 3520 H 334.017 -3.03182 -0.177315 0
M  V30 3521 H 331.602 -1.49384 -0.0215402 0
M  V30 3522 H 333.484 -3.30455 -2.61491 0
M  V30 3523 H 332.159 -2.12071 -2.44556 0
M  V30 3524 H 331.066 -3.67052 -0.722746 0
M  V30 3525 H 332.399 -4.82543 -0.970219 0
M  V30 3526 N 334.051 0.0651679 -1.57465 0
M  V30 3527 C 335.279 0.775808 -1.91804 0
M  V30 3528 C 335.694 1.70782 -0.804916 0
M  V30 3529 O 335.051 1.81153 0.221311 0
M  V30 3530 C 335.102 1.56381 -3.25925 0
M  V30 3531 O 334.823 0.669248 -4.32958 0
M  V30 3532 C 336.324 2.37485 -3.7432 0
M  V30 3533 H 333.544 0.2202 -0.63384 0
M  V30 3534 H 336.088 0.0334587 -2.04473 0
M  V30 3535 H 334.243 2.25837 -3.14764 0
M  V30 3536 H 334.657 1.21801 -5.10162 0
M  V30 3537 H 336.131 2.88223 -4.70778 0
M  V30 3538 H 336.608 3.17307 -3.03666 0
M  V30 3539 H 337.214 1.73173 -3.88447 0
M  V30 3540 N 335.529 1.53961 0.336706 0
M  V30 3541 C 336.754 1.75797 1.10046 0
M  V30 3542 C 337.179 0.498985 1.81361 0
M  V30 3543 O 336.537 -0.548769 1.72795 0
M  V30 3544 C 336.585 2.94257 2.08436 0
M  V30 3545 O 335.689 2.64883 3.16087 0
M  V30 3546 H 335.03 0.582936 0.317934 0
M  V30 3547 H 337.56 2.00945 0.38501 0
M  V30 3548 H 337.57 3.21237 2.51537 0
M  V30 3549 H 336.245 3.85564 1.55927 0
M  V30 3550 H 334.822 2.48812 2.77753 0
M  V30 3551 N 337.007 -0.598083 1.45811 0
M  V30 3552 C 338.255 -1.35413 1.50026 0
M  V30 3553 C 338.576 -1.94444 0.147177 0
M  V30 3554 O 337.846 -1.77701 -0.824571 0
M  V30 3555 H 336.426 -0.502727 0.552517 0
M  V30 3556 H 339.088 -0.701606 1.81834 0
M  V30 3557 H 338.184 -2.16871 2.2444 0
M  V30 3558 N 338.485 -1.33259 -0.841409 0
M  V30 3559 C 339.762 -1.15174 -1.58096 0
M  V30 3560 C 340.142 0.282858 -2.09196 0
M  V30 3561 O 339.49 1.28151 -1.89181 0
M  V30 3562 C 339.7 -2.1907 -2.71679 0
M  V30 3563 C 341.048 -2.53093 -3.40924 0
M  V30 3564 O 342.072 -2.17717 -2.81918 0
M  V30 3565 O 340.931 -3.1379 -4.47435 0
M  V30 3566 H 338.025 -0.445303 -0.696875 0
M  V30 3567 H 340.571 -1.44833 -0.884385 0
M  V30 3568 H 339.343 -3.15443 -2.31541 0
M  V30 3569 H 338.966 -1.90481 -3.49002 0
M  V30 3570 N 339.963 1.05934 -1.16686 0
M  V30 3571 C 340.893 2.1546 -0.899949 0
M  V30 3572 C 341.874 1.69391 0.155154 0
M  V30 3573 O 343.059 1.94199 0.00648693 0
M  V30 3574 C 340.189 3.44939 -0.404241 0
M  V30 3575 C 339.143 4.04536 -1.39767 0
M  V30 3576 C 338.469 5.29268 -0.760216 0
M  V30 3577 C 339.769 4.42893 -2.76845 0
M  V30 3578 H 341.463 2.38046 -1.81588 0
M  V30 3579 H 339.009 1.14404 -0.874514 0
M  V30 3580 H 340.962 4.20901 -0.204971 0
M  V30 3581 H 339.686 3.21983 0.547206 0
M  V30 3582 H 338.345 3.30635 -1.58355 0
M  V30 3583 H 337.993 5.02611 0.197831 0
M  V30 3584 H 337.693 5.70101 -1.42332 0
M  V30 3585 H 339.217 6.07924 -0.57105 0
M  V30 3586 H 340.631 5.09921 -2.62019 0
M  V30 3587 H 339.028 4.94721 -3.39663 0
M  V30 3588 H 340.098 3.53584 -3.31823 0
M  V30 3589 N 341.441 0.965919 1.2453 0
M  V30 3590 C 342.404 0.499547 2.2369 0
M  V30 3591 C 343.404 -0.40294 1.5567 0
M  V30 3592 O 344.594 -0.19865 1.73064 0
M  V30 3593 C 341.726 -0.276792 3.39774 0
M  V30 3594 H 342.919 1.37613 2.66463 0
M  V30 3595 H 340.472 0.750324 1.37112 0
M  V30 3596 H 341.207 -1.17055 3.02438 0
M  V30 3597 H 340.992 0.370826 3.90343 0
M  V30 3598 H 342.482 -0.592175 4.1338 0
M  V30 3599 N 342.919 -1.39368 0.735821 0
M  V30 3600 C 344.147 -2.04795 0.294393 0
M  V30 3601 C 344.562 -1.55478 -1.07107 0
M  V30 3602 O 343.919 -0.720038 -1.67695 0
M  V30 3603 C 343.97 -3.6035 0.288071 0
M  V30 3604 O 343.691 -4.07852 1.59963 0
M  V30 3605 C 345.192 -4.42976 -0.169422 0
M  V30 3606 H 342.412 -0.658571 0.128551 0
M  V30 3607 H 344.956 -1.78399 0.999701 0
M  V30 3608 H 343.111 -3.85645 -0.368355 0
M  V30 3609 H 343.525 -5.02181 1.51375 0
M  V30 3610 H 344.999 -5.51864 -0.122687 0
M  V30 3611 H 345.476 -4.22068 -1.21472 0
M  V30 3612 H 346.082 -4.22832 0.457469 0
M  V30 3613 N 344.397 -0.483516 -1.5 0
M  V30 3614 C 345.307 0.309172 -2.32554 0
M  V30 3615 C 346.323 0.984159 -1.43493 0
M  V30 3616 O 347.499 0.969399 -1.76535 0
M  V30 3617 C 344.564 1.36979 -3.18493 0
M  V30 3618 C 343.625 0.710095 -4.23387 0
M  V30 3619 C 342.858 1.72018 -5.05218 0
M  V30 3620 O 343.081 2.94813 -4.88305 0
M  V30 3621 O 342.015 1.28515 -5.8802 0
M  V30 3622 H 345.841 -0.366064 -3.01486 0
M  V30 3623 H 343.426 -0.24514 -1.47375 0
M  V30 3624 H 345.308 1.98385 -3.71781 0
M  V30 3625 H 343.983 2.02828 -2.52275 0
M  V30 3626 H 342.89 0.0567539 -3.74057 0
M  V30 3627 H 344.223 0.0943557 -4.9211 0
M  V30 3628 N 345.875 1.56104 -0.216619 0
M  V30 3629 C 347.105 2.02269 0.420802 0
M  V30 3630 C 347.513 1.09575 1.5424 0
M  V30 3631 O 346.856 0.0967308 1.83445 0
M  V30 3632 C 346.918 3.44784 1.01806 0
M  V30 3633 C 346.582 4.56988 0.0325154 0
M  V30 3634 C 347.579 5.14225 -0.766055 0
M  V30 3635 C 345.264 5.02228 -0.0848092 0
M  V30 3636 C 347.258 6.15169 -1.6687 0
M  V30 3637 C 344.945 6.03011 -0.990994 0
M  V30 3638 C 345.943 6.59357 -1.78149 0
M  V30 3639 O 345.631 7.58179 -2.67245 0
M  V30 3640 H 345.363 0.667353 0.107776 0
M  V30 3641 H 347.917 2.02747 -0.329034 0
M  V30 3642 H 346.147 3.41359 1.81689 0
M  V30 3643 H 347.836 3.74626 1.56237 0
M  V30 3644 H 348.602 4.80126 -0.685836 0
M  V30 3645 H 344.481 4.58054 0.520349 0
M  V30 3646 H 348.025 6.59076 -2.28615 0
M  V30 3647 H 343.922 6.36532 -1.07225 0
M  V30 3648 H 344.69 7.75682 -2.61265 0
M  V30 3649 N 347.353 -0.0568162 1.57498 0
M  V30 3650 C 348.283 -1.06593 2.0775 0
M  V30 3651 C 349.264 -1.39448 0.974082 0
M  V30 3652 O 350.449 -1.48815 1.24771 0
M  V30 3653 C 347.579 -2.37509 2.5339 0
M  V30 3654 C 346.533 -2.1897 3.67745 0
M  V30 3655 C 345.859 -3.55402 3.99492 0
M  V30 3656 C 347.159 -1.59859 4.97235 0
M  V30 3657 H 348.853 -0.647706 2.9231 0
M  V30 3658 H 346.399 -0.310116 1.40621 0
M  V30 3659 H 348.352 -3.08409 2.87162 0
M  V30 3660 H 347.076 -2.8134 1.65878 0
M  V30 3661 H 345.735 -1.50508 3.3428 0
M  V30 3662 H 345.383 -3.9683 3.09088 0
M  V30 3663 H 345.083 -3.43831 4.76502 0
M  V30 3664 H 346.607 -4.27708 4.35773 0
M  V30 3665 H 348.021 -2.20642 5.29141 0
M  V30 3666 H 346.418 -1.58942 5.78669 0
M  V30 3667 H 347.488 -0.561506 4.81638 0
M  V30 3668 N 348.832 -1.54138 -0.328536 0
M  V30 3669 C 349.764 -1.79509 -1.4251 0
M  V30 3670 C 350.777 -0.67688 -1.48061 0
M  V30 3671 O 351.966 -0.953898 -1.50874 0
M  V30 3672 C 349.066 -1.89337 -2.81078 0
M  V30 3673 C 348.239 -3.19443 -2.98789 0
M  V30 3674 C 347.298 -3.20036 -4.17688 0
M  V30 3675 O 346.324 -3.93697 -4.11086 0
M  V30 3676 N 347.526 -2.43467 -5.26976 0
M  V30 3677 H 350.291 -2.74139 -1.21111 0
M  V30 3678 H 347.852 -1.53373 -0.518499 0
M  V30 3679 H 349.844 -1.87167 -3.58818 0
M  V30 3680 H 348.414 -1.01826 -2.95551 0
M  V30 3681 H 347.634 -3.34614 -2.08391 0
M  V30 3682 H 348.922 -4.05354 -3.07515 0
M  V30 3683 H 348.32 -1.83201 -5.35214 0
M  V30 3684 H 346.877 -2.4708 -6.03154 0
M  V30 3685 N 350.31 0.590341 -1.46126 0
M  V30 3686 C 351.24 1.71032 -1.58966 0
M  V30 3687 C 352.221 1.64302 -0.440335 0
M  V30 3688 O 353.406 1.82436 -0.665634 0
M  V30 3689 C 350.536 3.09665 -1.57241 0
M  V30 3690 C 349.49 3.31221 -2.71066 0
M  V30 3691 C 348.816 4.70303 -2.54399 0
M  V30 3692 C 350.116 3.19796 -4.1295 0
M  V30 3693 H 351.81 1.60543 -2.52718 0
M  V30 3694 H 349.356 0.770933 -1.21625 0
M  V30 3695 H 351.309 3.87831 -1.64819 0
M  V30 3696 H 350.033 3.21036 -0.600289 0
M  V30 3697 H 348.692 2.55452 -2.62944 0
M  V30 3698 H 348.34 4.78429 -1.55288 0
M  V30 3699 H 348.04 4.85679 -3.30741 0
M  V30 3700 H 349.564 5.50647 -2.63857 0
M  V30 3701 H 350.978 3.87815 -4.22223 0
M  V30 3702 H 349.375 3.46696 -4.89818 0
M  V30 3703 H 350.445 2.16983 -4.33643 0
M  V30 3704 N 351.788 1.33704 0.83433 0
M  V30 3705 C 352.721 1.18675 1.94914 0
M  V30 3706 C 353.699 0.0811145 1.62398 0
M  V30 3707 O 354.883 0.244186 1.86912 0
M  V30 3708 C 352.01 0.821231 3.28593 0
M  V30 3709 C 351.056 1.93501 3.80079 0
M  V30 3710 S 351.889 3.54671 4.01209 0
M  V30 3711 C 353.045 3.20136 5.37833 0
M  V30 3712 H 353.278 2.13043 2.07364 0
M  V30 3713 H 350.811 1.18598 0.988624 0
M  V30 3714 H 352.769 0.617123 4.05835 0
M  V30 3715 H 351.43 -0.103927 3.13928 0
M  V30 3716 H 350.623 1.63273 4.76821 0
M  V30 3717 H 350.225 2.09601 3.09747 0
M  V30 3718 H 352.517 2.71242 6.20833 0
M  V30 3719 H 353.46 4.15975 5.73036 0
M  V30 3720 H 353.868 2.56613 5.02802 0
M  V30 3721 N 353.266 -1.05314 1.17247 0
M  V30 3722 C 354.512 -1.78557 0.961513 0
M  V30 3723 C 354.845 -1.87419 -0.508697 0
M  V30 3724 O 354.12 -1.37307 -1.37757 0
M  V30 3725 C 354.403 -3.22514 1.60176 0
M  V30 3726 C 354.256 -3.21673 3.14399 0
M  V30 3727 C 355.575 -4.20318 1.30463 0
M  V30 3728 H 352.694 -0.6482 0.350723 0
M  V30 3729 H 355.336 -1.23102 1.44727 0
M  V30 3730 H 353.486 -3.69867 1.18871 0
M  V30 3731 H 355.158 -2.82405 3.64753 0
M  V30 3732 H 353.401 -2.60048 3.47214 0
M  V30 3733 H 354.072 -4.23271 3.54324 0
M  V30 3734 H 356.548 -3.81454 1.66229 0
M  V30 3735 H 355.424 -5.19289 1.77848 0
M  V30 3736 H 355.685 -4.41526 0.22521 0
M  V30 3737 N 354.744 -0.972509 -1.24016 0
M  V30 3738 C 355.974 -0.653853 -1.9598 0
M  V30 3739 C 356.382 0.781801 -1.72292 0
M  V30 3740 O 355.725 1.53677 -1.00644 0
M  V30 3741 C 355.787 -0.854608 -3.49194 0
M  V30 3742 C 355.451 -2.27082 -3.96589 0
M  V30 3743 C 356.448 -3.24892 -4.05883 0
M  V30 3744 C 354.133 -2.5998 -4.29786 0
M  V30 3745 C 356.127 -4.53684 -4.47716 0
M  V30 3746 C 353.814 -3.88997 -4.71301 0
M  V30 3747 C 354.812 -4.85661 -4.80232 0
M  V30 3748 O 354.5 -6.12376 -5.20818 0
M  V30 3749 H 354.232 -0.242572 -0.630979 0
M  V30 3750 H 356.786 -1.30431 -1.58673 0
M  V30 3751 H 355.016 -0.146985 -3.86421 0
M  V30 3752 H 356.705 -0.534311 -4.02368 0
M  V30 3753 H 357.471 -3.00805 -3.80449 0
M  V30 3754 H 353.35 -1.85457 -4.22051 0
M  V30 3755 H 356.894 -5.29135 -4.54601 0
M  V30 3756 H 352.791 -4.12882 -4.96184 0
M  V30 3757 H 353.559 -6.16013 -5.38953 0
M  V30 3758 N 356.222 1.38976 -0.743202 0
M  V30 3759 C 357.468 2.0064 -0.295189 0
M  V30 3760 C 357.801 1.5885 1.11716 0
M  V30 3761 O 357.076 0.821181 1.76315 0
M  V30 3762 C 357.359 3.578 -0.406318 0
M  V30 3763 C 357.212 4.09586 -1.85903 0
M  V30 3764 C 358.531 4.39616 0.206439 0
M  V30 3765 H 355.65 0.728935 -0.108733 0
M  V30 3766 H 358.292 1.65067 -0.940897 0
M  V30 3767 H 356.442 3.88235 0.143419 0
M  V30 3768 H 358.114 3.89837 -2.46627 0
M  V30 3769 H 356.357 3.6284 -2.3776 0
M  V30 3770 H 357.028 5.18708 -1.888 0
M  V30 3771 H 359.504 4.15273 -0.262283 0
M  V30 3772 H 358.38 5.48812 0.0983819 0
M  V30 3773 H 358.641 4.22754 1.2935 0
M  V30 3774 N 357.7 0.491464 1.49741 0
M  V30 3775 C 358.928 -0.0535151 2.06831 0
M  V30 3776 C 359.343 -1.31683 1.35296 0
M  V30 3777 O 358.7 -1.77402 0.42836 0
M  V30 3778 C 358.751 -0.320835 3.60073 0
M  V30 3779 O 358.472 0.892394 4.28915 0
M  V30 3780 C 359.973 -0.910519 4.33848 0
M  V30 3781 H 357.193 0.0161909 0.670805 0
M  V30 3782 H 359.737 0.68609 1.92647 0
M  V30 3783 H 357.892 -1.0104 3.73991 0
M  V30 3784 H 358.306 0.649401 5.20464 0
M  V30 3785 H 359.78 -1.04721 5.41976 0
M  V30 3786 H 360.257 -1.90589 3.95692 0
M  V30 3787 H 360.863 -0.258712 4.24512 0
M  V30 3788 N 359.178 -1.55987 0.224894 0
M  V30 3789 C 360.125 -2.20436 -0.68385 0
M  V30 3790 C 361.095 -1.16102 -1.18783 0
M  V30 3791 O 362.28 -1.4447 -1.24632 0
M  V30 3792 C 359.42 -2.89076 -1.88491 0
M  V30 3793 C 358.533 -4.08012 -1.41951 0
M  V30 3794 C 357.668 -4.64426 -2.5784 0
M  V30 3795 C 356.707 -5.75656 -2.08053 0
M  V30 3796 N 355.844 -6.26347 -3.17227 0
M  V30 3797 H 360.684 -2.97727 -0.12754 0
M  V30 3798 H 358.221 -1.47011 -0.0511978 0
M  V30 3799 H 360.179 -3.27059 -2.59014 0
M  V30 3800 H 358.809 -2.14298 -2.41405 0
M  V30 3801 H 357.861 -3.75492 -0.609095 0
M  V30 3802 H 359.173 -4.88375 -1.01447 0
M  V30 3803 H 358.327 -5.04869 -3.3644 0
M  V30 3804 H 357.066 -3.83233 -3.01635 0
M  V30 3805 H 356.071 -5.34712 -1.27916 0
M  V30 3806 H 357.296 -6.58686 -1.65255 0
M  V30 3807 H 355.242 -5.48067 -3.60497 0
M  V30 3808 H 355.159 -7.01843 -2.80986 0
M  V30 3809 H 356.427 -6.71447 -3.95953 0
M  V30 3810 N 360.656 0.0484629 -1.57525 0
M  V30 3811 C 361.884 0.755421 -1.92616 0
M  V30 3812 C 362.299 1.69919 -0.822984 0
M  V30 3813 O 361.656 1.81378 0.202085 0
M  V30 3814 C 361.707 1.52915 -3.27566 0
M  V30 3815 O 361.428 0.62329 -4.33644 0
M  V30 3816 C 362.929 2.33502 -3.76818 0
M  V30 3817 H 360.149 0.213465 -0.63614 0
M  V30 3818 H 362.693 0.0117698 -2.04497 0
M  V30 3819 H 360.848 2.22486 -3.17142 0
M  V30 3820 H 361.262 1.16383 -5.11425 0
M  V30 3821 H 362.736 2.83214 -4.73808 0
M  V30 3822 H 363.213 3.14068 -3.07014 0
M  V30 3823 H 363.819 1.69043 -3.90262 0
M  V30 3824 N 362.134 1.5431 0.320358 0
M  V30 3825 C 363.359 1.76954 1.08175 0
M  V30 3826 C 363.784 0.518193 1.80821 0
M  V30 3827 O 363.142 -0.530411 1.73368 0
M  V30 3828 C 363.19 2.96451 2.05303 0
M  V30 3829 O 362.294 2.68221 3.13259 0
M  V30 3830 H 361.635 0.586275 0.311733 0
M  V30 3831 H 364.165 2.01342 0.363676 0
M  V30 3832 H 364.175 3.23887 2.48116 0
M  V30 3833 H 362.85 3.87196 1.51829 0
M  V30 3834 H 361.427 2.51744 2.75099 0
M  V30 3835 N 363.613 -0.582584 1.46437 0
M  V30 3836 C 364.862 -1.337 1.5102 0
M  V30 3837 C 365.175 -1.94891 0.166359 0
M  V30 3838 O 366.381 -2.71351 0.0899954 0
M  V30 3839 C 364.837 -2.42315 2.66104 0
M  V30 3840 C 364.445 -1.87427 4.06909 0
M  V30 3841 C 366.189 -3.19099 2.79958 0
M  V30 3842 C 364.096 -2.93672 5.13333 0
M  V30 3843 H 363.026 -0.502619 0.562041 0
M  V30 3844 H 365.677 -0.621701 1.72647 0
M  V30 3845 H 364.059 -3.16645 2.37807 0
M  V30 3846 H 365.233 -1.19639 4.44998 0
M  V30 3847 H 363.548 -1.2331 3.97723 0
M  V30 3848 H 366.145 -3.9839 3.56636 0
M  V30 3849 H 366.488 -3.71695 1.87479 0
M  V30 3850 H 367.021 -2.51875 3.07902 0
M  V30 3851 H 363.76 -2.45962 6.07604 0
M  V30 3852 H 363.28 -3.59948 4.79789 0
M  V30 3853 H 364.959 -3.5762 5.39182 0
M  V30 3854 N 365.091 -1.34144 -0.827227 0
M  V30 3855 C 366.038 -1.25364 -1.93785 0
M  V30 3856 C 367.008 -0.129774 -1.65592 0
M  V30 3857 O 368.193 -0.310024 -1.88264 0
M  V30 3858 C 365.333 -1.01064 -3.2997 0
M  V30 3859 C 364.446 -2.22185 -3.70484 0
M  V30 3860 C 363.581 -1.91203 -4.95595 0
M  V30 3861 C 362.62 -3.08491 -5.28677 0
M  V30 3862 N 361.757 -2.77421 -6.44967 0
M  V30 3863 H 366.597 -2.20347 -2.00627 0
M  V30 3864 H 364.134 -1.09558 -0.981608 0
M  V30 3865 H 366.092 -0.850139 -4.08446 0
M  V30 3866 H 364.722 -0.0975026 -3.22653 0
M  V30 3867 H 363.774 -2.4917 -2.87434 0
M  V30 3868 H 365.086 -3.0983 -3.90905 0
M  V30 3869 H 364.24 -1.71864 -5.81848 0
M  V30 3870 H 362.979 -1.00812 -4.77167 0
M  V30 3871 H 361.984 -3.28431 -4.40923 0
M  V30 3872 H 363.209 -3.99655 -5.49047 0
M  V30 3873 H 361.155 -1.89601 -6.28003 0
M  V30 3874 H 361.072 -3.58598 -6.6554 0
M  V30 3875 H 362.34 -2.61577 -7.34301 0
M  V30 3876 N 366.569 1.04691 -1.17803 0
M  V30 3877 C 367.818 1.77176 -0.963931 0
M  V30 3878 C 368.131 1.88888 0.508015 0
M  V30 3879 O 369.337 2.58164 0.840465 0
M  V30 3880 C 367.793 3.18518 -1.67555 0
M  V30 3881 C 367.401 3.14919 -3.18637 0
M  V30 3882 C 369.145 3.95424 -1.54402 0
M  V30 3883 C 367.052 4.51081 -3.82466 0
M  V30 3884 H 365.982 0.664116 -0.357023 0
M  V30 3885 H 368.633 1.17303 -1.4111 0
M  V30 3886 H 367.015 3.78748 -1.15613 0
M  V30 3887 H 368.189 2.64178 -3.77554 0
M  V30 3888 H 366.504 2.51512 -3.31859 0
M  V30 3889 H 369.101 4.96106 -1.99456 0
M  V30 3890 H 369.444 4.13343 -0.495329 0
M  V30 3891 H 369.977 3.41754 -2.0359 0
M  V30 3892 H 366.716 4.38368 -4.87354 0
M  V30 3893 H 366.236 5.01951 -3.28337 0
M  V30 3894 H 367.915 5.2001 -3.84965 0
M  V30 3895 N 368.047 0.979072 1.23499 0
M  V30 3896 C 369.458 0.684391 1.73704 0
M  V30 3897 C 369.809 -0.799448 1.79174 0
M  V30 3898 O 368.934 -1.62531 1.42873 0
M  V30 3899 C 369.529 1.23564 3.15464 0
M  V30 3900 C 368.088 0.99063 3.6313 0
M  V30 3901 C 367.235 1.36416 2.41425 0
M  V30 3902 H 370.186 1.15307 1.09041 0
M  V30 3903 H 370.207 0.607417 3.7562 0
M  V30 3904 H 369.719 2.31561 3.1145 0
M  V30 3905 H 367.82 -0.0733136 3.72528 0
M  V30 3906 H 367.933 1.64427 4.5 0
M  V30 3907 H 366.297 0.782616 2.42378 0
M  V30 3908 H 367.08 2.45387 2.40083 0
M  V30 3909 N 369.525 -1.3858 0.750561 0
M  V30 3910 C 370.75 -2.04997 0.314812 0
M  V30 3911 C 371.175 -1.56235 -1.04749 0
M  V30 3912 O 370.533 -0.712981 -1.66692 0
M  V30 3913 C 370.581 -3.58961 0.343415 0
M  V30 3914 O 369.685 -4.07025 -0.663628 0
M  V30 3915 H 369.026 -0.649081 0.139962 0
M  V30 3916 H 371.556 -1.77313 1.02084 0
M  V30 3917 H 371.566 -4.07542 0.193233 0
M  V30 3918 H 370.241 -3.93811 1.33738 0
M  V30 3919 H 368.818 -3.6982 -0.478307 0
M  V30 3920 N 371.003 -0.499398 -1.49478 0
M  V30 3921 C 372.228 0.044722 -2.07352 0
M  V30 3922 C 372.653 1.30207 -1.35749 0
M  V30 3923 O 372.011 1.76516 -0.413732 0
M  V30 3924 C 372.059 0.283013 -3.59488 0
M  V30 3925 O 371.163 1.35804 -3.89398 0
M  V30 3926 H 370.504 -0.0255147 -0.66351 0
M  V30 3927 H 373.034 -0.698561 -1.92305 0
M  V30 3928 H 373.044 0.515007 -4.04737 0
M  V30 3929 H 371.719 -0.635636 -4.11014 0
M  V30 3930 H 370.296 1.11113 -3.55961 0
M  V30 3931 N 372.481 1.55866 -0.233164 0
M  V30 3932 C 373.431 2.17442 0.685774 0
M  V30 3933 C 374.415 1.12617 1.14918 0
M  V30 3934 O 375.607 1.3857 1.10124 0
M  V30 3935 C 372.736 2.86685 1.88856 0
M  V30 3936 C 371.822 3.98749 1.4443 0
M  V30 3937 N 372.213 5.00744 0.713364 0
M  V30 3938 C 370.511 4.11052 1.73068 0
M  V30 3939 C 371.212 5.79673 0.485205 0
M  V30 3940 N 370.188 5.33454 1.04536 0
M  V30 3941 H 373.99 2.93659 0.119022 0
M  V30 3942 H 371.504 1.62362 -0.0348995 0
M  V30 3943 H 373.501 3.29218 2.55776 0
M  V30 3944 H 372.161 2.11967 2.45967 0
M  V30 3945 H 373.172 5.16613 0.364861 0
M  V30 3946 H 369.849 3.47495 2.31416 0
M  V30 3947 H 371.239 6.71829 -0.097365 0
M  V30 3948 N 373.959 -0.0401083 1.57549 0
M  V30 3949 C 375.187 -0.745196 1.93014 0
M  V30 3950 C 375.602 -1.6948 0.831984 0
M  V30 3951 O 374.959 -1.81482 -0.192463 0
M  V30 3952 C 375.01 -1.51176 3.28372 0
M  V30 3953 O 374.731 -0.600284 4.33968 0
M  V30 3954 C 376.232 -2.315 3.78051 0
M  V30 3955 H 373.452 -0.210088 0.637263 0
M  V30 3956 H 375.996 -0.000924689 2.045 0
M  V30 3957 H 374.151 -2.20801 3.18317 0
M  V30 3958 H 374.565 -1.13669 5.12035 0
M  V30 3959 H 376.039 -2.80697 4.75303 0
M  V30 3960 H 376.516 -3.12436 3.08675 0
M  V30 3961 H 377.122 -1.66971 3.91153 0
M  V30 3962 N 375.437 -1.54477 -0.31217 0
M  V30 3963 C 376.367 -1.87652 -1.38957 0
M  V30 3964 C 377.348 -0.734358 -1.53431 0
M  V30 3965 O 378.533 -0.98911 -1.67123 0
M  V30 3966 C 375.663 -2.11396 -2.75552 0
M  V30 3967 C 374.617 -3.27243 -2.75855 0
M  V30 3968 C 373.943 -3.36382 -4.15633 0
M  V30 3969 C 375.243 -4.64622 -2.38587 0
M  V30 3970 H 376.937 -2.77887 -1.11442 0
M  V30 3971 H 374.483 -1.33707 -0.534655 0
M  V30 3972 H 376.436 -2.33189 -3.51 0
M  V30 3973 H 375.16 -1.17921 -3.04569 0
M  V30 3974 H 373.819 -3.05356 -2.02863 0
M  V30 3975 H 373.467 -2.40445 -4.41809 0
M  V30 3976 H 373.167 -4.14249 -4.1674 0
M  V30 3977 H 374.691 -3.60422 -4.92877 0
M  V30 3978 H 376.105 -4.86219 -3.03749 0
M  V30 3979 H 374.502 -5.45121 -2.50925 0
M  V30 3980 H 375.572 -4.66097 -1.33723 0
M  V30 3981 N 376.915 0.57481 -1.46744 0
M  V30 3982 C 377.848 1.69827 -1.52427 0
M  V30 3983 C 378.826 1.58151 -0.377744 0
M  V30 3984 O 380.01 1.79257 -0.58303 0
M  V30 3985 C 377.137 3.07943 -1.41027 0
M  V30 3986 C 376.183 3.38116 -2.59961 0
M  V30 3987 S 377.016 3.29313 -4.22272 0
M  V30 3988 C 378.172 4.69953 -4.13394 0
M  V30 3989 H 378.405 1.64748 -2.47478 0
M  V30 3990 H 375.938 0.754203 -1.34726 0
M  V30 3991 H 377.896 3.87619 -1.35137 0
M  V30 3992 H 376.557 3.10504 -0.473909 0
M  V30 3993 H 375.75 4.38762 -2.47999 0
M  V30 3994 H 375.352 2.66024 -2.62882 0
M  V30 3995 H 377.644 5.60517 -3.80562 0
M  V30 3996 H 378.587 4.86972 -5.14066 0
M  V30 3997 H 378.995 4.47174 -3.44522 0
M  V30 3998 N 378.394 1.34581 0.820102 0
M  V30 3999 C 379.341 1.2639 1.93117 0
M  V30 4000 C 380.311 0.138554 1.65521 0
M  V30 4001 O 381.496 0.320004 1.88097 0
M  V30 4002 C 378.636 1.02812 3.29429 0
M  V30 4003 C 377.749 2.24146 3.693 0
M  V30 4004 C 376.884 1.93829 4.94574 0
M  V30 4005 C 375.923 3.1129 5.27034 0
M  V30 4006 N 375.06 2.80838 6.43486 0
M  V30 4007 H 379.9 2.21408 1.99455 0
M  V30 4008 H 377.437 1.10077 0.975784 0
M  V30 4009 H 379.395 0.871788 4.0799 0
M  V30 4010 H 378.025 0.114612 3.22596 0
M  V30 4011 H 377.077 2.50691 2.86109 0
M  V30 4012 H 378.389 3.11899 3.89257 0
M  V30 4013 H 377.543 1.74948 5.80929 0
M  V30 4014 H 376.282 1.03341 4.76626 0
M  V30 4015 H 375.287 3.30764 4.39175 0
M  V30 4016 H 376.512 4.02561 5.4692 0
M  V30 4017 H 374.458 1.92929 6.26988 0
M  V30 4018 H 374.375 3.62123 6.63629 0
M  V30 4019 H 375.643 2.65467 7.32903 0
M  V30 4020 N 379.872 -1.04064 1.18357 0
M  V30 4021 C 381.12 -1.76915 0.977013 0
M  V30 4022 C 381.441 -1.88624 -0.494577 0
M  V30 4023 O 380.711 -1.41125 -1.3587 0
M  V30 4024 H 379.291 -0.65535 0.358504 0
M  V30 4025 H 381.953 -1.25592 1.49039 0
M  V30 4026 H 381.049 -2.78178 1.41504 0
M  V30 4027 N 381.35 -0.985608 -1.22978 0
M  V30 4028 C 382.598 -0.656087 -1.91154 0
M  V30 4029 C 382.919 0.813561 -1.77218 0
M  V30 4030 O 382.189 1.58244 -1.1548 0
M  V30 4031 H 380.769 -0.239674 -0.707506 0
M  V30 4032 H 383.431 -1.25054 -1.49491 0
M  V30 4033 H 382.527 -0.912253 -2.9847 0
M  V30 4034 N 382.828 1.3818 -0.7579 0
M  V30 4035 C 384.053 2.04827 -0.325679 0
M  V30 4036 C 384.478 1.56788 1.03919 0
M  V30 4037 O 383.836 0.721811 1.66312 0
M  V30 4038 C 383.884 3.58774 -0.362447 0
M  V30 4039 O 382.988 4.07372 0.642033 0
M  V30 4040 H 382.329 0.64833 -0.143402 0
M  V30 4041 H 384.859 1.7677 -1.03023 0
M  V30 4042 H 384.869 4.07434 -0.214844 0
M  V30 4043 H 383.544 3.93096 -1.35824 0
M  V30 4044 H 382.121 3.70068 0.458688 0
M  V30 4045 N 384.306 0.507319 1.49211 0
M  V30 4046 C 385.534 -0.0315749 2.06876 0
M  V30 4047 C 385.949 -1.30241 1.36685 0
M  V30 4048 O 385.306 -1.76937 0.447152 0
M  V30 4049 C 385.357 -0.282627 3.60393 0
M  V30 4050 O 385.078 0.937835 4.27944 0
M  V30 4051 C 386.579 -0.864453 4.3479 0
M  V30 4052 H 383.799 0.0233048 0.670595 0
M  V30 4053 H 386.343 0.706484 1.91909 0
M  V30 4054 H 384.498 -0.97068 3.75042 0
M  V30 4055 H 384.912 0.704567 5.19746 0
M  V30 4056 H 386.386 -0.989664 5.43056 0
M  V30 4057 H 386.863 -1.86382 3.97692 0
M  V30 4058 H 387.469 -0.213672 4.24763 0
M  V30 4059 N 385.784 -1.5574 0.241426 0
M  V30 4060 C 386.731 -2.21149 -0.660432 0
M  V30 4061 C 387.701 -1.17356 -1.17545 0
M  V30 4062 O 388.886 -1.45784 -1.23093 0
M  V30 4063 C 386.026 -2.91059 -1.85414 0
M  V30 4064 C 385.139 -4.09495 -1.37616 0
M  V30 4065 C 384.274 -4.67135 -2.529 0
M  V30 4066 C 383.313 -5.77831 -2.01936 0
M  V30 4067 N 382.45 -6.29677 -3.10566 0
M  V30 4068 H 387.29 -2.97845 -0.095955 0
M  V30 4069 H 384.827 -1.47057 -0.0356024 0
M  V30 4070 H 386.785 -3.29788 -2.5553 0
M  V30 4071 H 385.415 -2.16846 -2.39118 0
M  V30 4072 H 384.467 -3.76117 -0.569235 0
M  V30 4073 H 385.779 -4.89423 -0.962618 0
M  V30 4074 H 384.933 -5.08409 -3.31067 0
M  V30 4075 H 383.672 -3.86411 -2.97553 0
M  V30 4076 H 382.677 -5.36039 -1.22238 0
M  V30 4077 H 383.902 -6.60402 -1.58259 0
M  V30 4078 H 381.848 -5.5186 -3.54664 0
M  V30 4079 H 381.765 -7.04783 -2.73526 0
M  V30 4080 H 383.033 -6.75609 -3.88809 0
M  V30 4081 N 387.262 0.0317525 -1.57568 0
M  V30 4082 C 388.492 0.733884 -1.93126 0
M  V30 4083 C 388.9 1.69563 -0.839352 0
M  V30 4084 O 388.243 1.82681 0.193175 0
M  V30 4085 C 388.305 1.54798 -3.24465 0
M  V30 4086 C 387.969 0.751304 -4.50782 0
M  V30 4087 C 388.966 0.0527632 -5.19873 0
M  V30 4088 C 386.651 0.706639 -4.97305 0
M  V30 4089 C 388.645 -0.679774 -6.33765 0
M  V30 4090 C 386.332 -0.0296449 -6.11093 0
M  V30 4091 C 387.33 -0.721614 -6.79177 0
M  V30 4092 O 387.018 -1.44595 -7.90789 0
M  V30 4093 H 386.75 0.211459 -0.642076 0
M  V30 4094 H 389.304 -0.00585615 -2.05399 0
M  V30 4095 H 387.534 2.33147 -3.08512 0
M  V30 4096 H 389.223 2.13247 -3.4537 0
M  V30 4097 H 389.989 0.0783188 -4.84937 0
M  V30 4098 H 385.868 1.23474 -4.44157 0
M  V30 4099 H 389.412 -1.22042 -6.86842 0
M  V30 4100 H 385.309 -0.0571331 -6.45475 0
M  V30 4101 H 386.077 -1.35935 -8.07133 0
M  V30 4102 N 388.74 1.54641 0.303973 0
M  V30 4103 C 389.986 1.74969 1.03718 0
M  V30 4104 C 390.341 0.527461 1.85029 0
M  V30 4105 O 389.634 -0.480143 1.85486 0
M  V30 4106 C 389.828 2.97753 1.97681 0
M  V30 4107 C 389.657 4.318 1.25613 0
M  V30 4108 C 388.427 4.95616 0.984518 0
M  V30 4109 C 390.625 5.10021 0.662081 0
M  V30 4110 N 388.607 6.13455 0.233794 0
M  V30 4111 C 389.978 6.19984 0.0439736 0
M  V30 4112 C 392.033 4.94663 0.566835 0
M  V30 4113 C 390.736 7.16264 -0.66016 0
M  V30 4114 C 392.762 5.91271 -0.123637 0
M  V30 4115 C 392.124 7.00601 -0.730608 0
M  V30 4116 H 388.223 0.692873 0.362562 0
M  V30 4117 H 390.807 1.92116 0.316135 0
M  V30 4118 H 388.978 2.82036 2.6704 0
M  V30 4119 H 390.71 3.06621 2.64132 0
M  V30 4120 H 387.465 4.55921 1.28191 0
M  V30 4121 H 387.889 6.76879 -0.127996 0
M  V30 4122 H 392.531 4.10267 1.02181 0
M  V30 4123 H 390.249 8.00204 -1.12691 0
M  V30 4124 H 393.835 5.81466 -0.197236 0
M  V30 4125 H 392.715 7.7407 -1.2564 0
M  V30 4126 N 390.218 -0.567019 1.47046 0
M  V30 4127 C 391.443 -1.3551 1.57009 0
M  V30 4128 C 391.868 -1.86841 0.217259 0
M  V30 4129 O 391.226 -1.62435 -0.805268 0
M  V30 4130 C 391.274 -2.50777 2.5912 0
M  V30 4131 O 390.378 -3.52706 2.13711 0
M  V30 4132 H 389.719 -0.402919 0.52778 0
M  V30 4133 H 392.249 -0.686241 1.92748 0
M  V30 4134 H 392.259 -2.97481 2.79229 0
M  V30 4135 H 390.934 -2.12771 3.57353 0
M  V30 4136 H 389.511 -3.12374 2.03659 0
M  V30 4137 N 391.696 -1.35014 -0.812953 0
M  V30 4138 C 392.944 -1.27678 -1.56661 0
M  V30 4139 C 393.265 0.150359 -1.94419 0
M  V30 4140 O 392.535 1.08532 -1.63088 0
M  V30 4141 H 391.115 -0.469602 -0.580933 0
M  V30 4142 H 393.777 -1.69043 -0.970076 0
M  V30 4143 H 392.873 -1.88833 -2.48492 0
M  V30 4144 N 393.175 1.03435 -1.18907 0
M  V30 4145 C 394.123 2.13703 -0.918353 0
M  V30 4146 C 395.117 1.68947 0.123767 0
M  V30 4147 O 396.323 1.79983 -0.0249701 0
M  V30 4148 H 392.698 0.698112 -0.279542 0
M  V30 4149 H 394.669 2.33731 -1.85506 0
M  V30 4150 C 393.418 3.44542 -0.467532 0
M  V30 4151 H 392.741 3.79394 -1.26095 0
M  V30 4152 H 394.181 4.22812 -0.317164 0
M  V30 4153 C 392.64 3.26829 0.817588 0
M  V30 4154 O 393.17 3.54975 1.88031 0
M  V30 4155 N 391.376 2.80139 0.772677 0
M  V30 4156 H 390.923 2.57434 -0.0923883 0
M  V30 4157 H 390.881 2.68668 1.63294 0
M  V30 4158 N 394.653 0.992116 1.22453 0
M  V30 4159 C 395.878 0.685644 1.95739 0
M  V30 4160 C 396.303 -0.743 1.72804 0
M  V30 4161 O 395.661 -1.50778 1.00676 0
M  V30 4162 C 395.709 0.996293 3.46564 0
M  V30 4163 O 394.813 0.0945512 4.12292 0
M  V30 4164 H 394.154 0.256694 0.612376 0
M  V30 4165 H 396.684 1.32888 1.5557 0
M  V30 4166 H 396.694 0.93781 3.97076 0
M  V30 4167 H 395.369 2.03733 3.62582 0
M  V30 4168 H 393.946 0.208451 3.72317 0
M  V30 4169 N 396.131 -1.37776 0.765217 0
M  V30 4170 C 397.041 -2.34135 0.147666 0
M  V30 4171 C 398.057 -1.59854 -0.687215 0
M  V30 4172 O 399.233 -1.91983 -0.608659 0
M  V30 4173 C 396.298 -3.3901 -0.72617 0
M  V30 4174 C 395.359 -4.2912 0.124417 0
M  V30 4175 C 394.592 -5.28986 -0.707807 0
M  V30 4176 O 394.815 -5.36205 -1.94525 0
M  V30 4177 O 393.749 -6.01779 -0.12046 0
M  V30 4178 H 397.575 -2.88664 0.943758 0
M  V30 4179 H 395.16 -1.39824 0.526277 0
M  V30 4180 H 397.042 -4.03195 -1.22524 0
M  V30 4181 H 395.717 -2.86819 -1.50056 0
M  V30 4182 H 394.624 -3.68057 0.669696 0
M  V30 4183 H 395.957 -4.84598 0.861736 0
M  V30 4184 N 397.609 -0.515225 -1.4894 0
M  V30 4185 C 398.856 0.024215 -2.02486 0
M  V30 4186 C 399.184 1.35671 -1.39368 0
M  V30 4187 O 398.439 1.88566 -0.523574 0
M  V30 4188 C 398.738 0.210595 -3.56779 0
M  V30 4189 C 398.404 -1.04569 -4.38607 0
M  V30 4190 C 397.066 -1.39002 -4.60686 0
M  V30 4191 C 399.418 -1.88008 -4.86109 0
M  V30 4192 C 396.746 -2.568 -5.27514 0
M  V30 4193 C 399.098 -3.04972 -5.54234 0
M  V30 4194 C 397.762 -3.39768 -5.74555 0
M  V30 4195 H 397.032 0.00886088 -0.740947 0
M  V30 4196 H 399.679 -0.678263 -1.79086 0
M  V30 4197 H 397.984 0.99572 -3.78936 0
M  V30 4198 H 399.681 0.642659 -3.95817 0
M  V30 4199 H 396.271 -0.767497 -4.21672 0
M  V30 4200 H 400.455 -1.62719 -4.68867 0
M  V30 4201 H 395.711 -2.8398 -5.41447 0
M  V30 4202 H 399.885 -3.69943 -5.90013 0
M  V30 4203 H 397.512 -4.31148 -6.26112 0
M  V30 4204 N 399.087 1.5561 -0.249682 0
M  V30 4205 C 400.037 2.18157 0.662673 0
M  V30 4206 C 401.021 1.1383 1.13717 0
M  V30 4207 O 402.213 1.39731 1.08648 0
M  V30 4208 C 399.342 2.88672 1.85805 0
M  V30 4209 C 398.428 4.00258 1.40193 0
M  V30 4210 N 398.819 5.01473 0.660213 0
M  V30 4211 C 397.117 4.12864 1.68698 0
M  V30 4212 C 397.818 5.80155 0.423695 0
M  V30 4213 N 396.794 5.34533 0.988721 0
M  V30 4214 H 400.596 2.93769 0.0878688 0
M  V30 4215 H 398.11 1.62316 -0.0521183 0
M  V30 4216 H 400.107 3.31912 2.5227 0
M  V30 4217 H 398.767 2.14564 2.43705 0
M  V30 4218 H 399.778 5.16971 0.310047 0
M  V30 4219 H 396.455 3.4993 2.27717 0
M  V30 4220 H 397.845 6.71688 -0.168616 0
M  V30 4221 N 400.565 -0.0233959 1.57583 0
M  V30 4222 C 401.812 -0.713063 1.8953 0
M  V30 4223 C 402.14 -1.75056 0.847673 0
M  V30 4224 O 401.395 -1.95119 -0.150636 0
M  V30 4225 C 401.694 -1.41428 3.28227 0
M  V30 4226 C 401.36 -0.512222 4.47981 0
M  V30 4227 C 400.022 -0.263785 4.80476 0
M  V30 4228 C 402.374 0.110248 5.21083 0
M  V30 4229 C 399.702 0.615804 5.83459 0
M  V30 4230 C 402.054 0.977573 6.25001 0
M  V30 4231 C 400.718 1.23542 6.55968 0
M  V30 4232 H 399.988 -0.260928 0.69354 0
M  V30 4233 H 402.635 0.0271047 1.91481 0
M  V30 4234 H 400.94 -2.22791 3.22291 0
M  V30 4235 H 402.637 -1.95355 3.50196 0
M  V30 4236 H 399.227 -0.716013 4.22577 0
M  V30 4237 H 403.411 -0.0687137 4.96252 0
M  V30 4238 H 398.667 0.82382 6.05824 0
M  V30 4239 H 402.841 1.46638 6.80786 0
M  V30 4240 H 400.468 1.91871 7.35588 0
M  V30 4241 N 402.043 -1.548 -0.295768 0
M  V30 4242 C 403.273 -1.78069 -1.04762 0
M  V30 4243 C 403.681 -0.542847 -1.81245 0
M  V30 4244 O 403.024 0.497051 -1.76848 0
M  V30 4245 C 403.086 -2.93881 -2.07061 0
M  V30 4246 C 402.75 -4.31777 -1.49725 0
M  V30 4247 C 403.747 -5.11613 -0.924581 0
M  V30 4248 C 401.432 -4.78389 -1.5313 0
M  V30 4249 C 403.426 -6.36184 -0.393594 0
M  V30 4250 C 401.113 -6.02921 -0.996447 0
M  V30 4251 C 402.111 -6.81654 -0.428569 0
M  V30 4252 O 401.799 -8.0384 0.0981593 0
M  V30 4253 H 401.531 -0.597475 -0.316226 0
M  V30 4254 H 404.085 -2.02584 -0.338973 0
M  V30 4255 H 402.315 -2.65003 -2.81621 0
M  V30 4256 H 404.004 -3.04679 -2.6819 0
M  V30 4257 H 404.77 -4.76743 -0.891136 0
M  V30 4258 H 400.649 -4.17132 -1.9627 0
M  V30 4259 H 404.193 -6.97582 0.0503014 0
M  V30 4260 H 400.09 -6.37277 -1.02706 0
M  V30 4261 H 400.858 -8.18499 -0.0146455 0
M  V30 4262 N 403.521 0.559213 -1.47345 0
M  V30 4263 C 404.746 1.34676 -1.57725 0
M  V30 4264 C 405.171 1.86723 -0.227164 0
M  V30 4265 O 404.529 1.6286 0.796642 0
M  V30 4266 C 404.577 2.49399 -2.60447 0
M  V30 4267 O 403.681 3.51567 -2.15578 0
M  V30 4268 H 403.022 0.400115 -0.52991 0
M  V30 4269 H 405.552 0.676009 -1.93109 0
M  V30 4270 H 405.562 2.95996 -2.80803 0
M  V30 4271 H 404.237 2.10873 -3.58477 0
M  V30 4272 H 402.814 3.11289 -2.05313 0
M  V30 4273 N 404.999 1.35443 0.805782 0
M  V30 4274 C 406.248 1.28097 1.55801 0
M  V30 4275 C 406.561 -0.142428 1.95081 0
M  V30 4276 O 407.767 -0.33817 2.69386 0
M  V30 4277 C 406.223 2.24653 2.81174 0
M  V30 4278 C 405.831 3.72342 2.49129 0
M  V30 4279 C 407.575 2.2625 3.59181 0
M  V30 4280 C 405.482 4.60719 3.70799 0
M  V30 4281 H 404.412 0.475937 0.584808 0
M  V30 4282 H 407.063 1.60712 0.885661 0
M  V30 4283 H 405.445 1.85011 3.50124 0
M  V30 4284 H 406.619 4.20624 1.88181 0
M  V30 4285 H 404.934 3.73361 1.84366 0
M  V30 4286 H 407.531 2.89495 4.49552 0
M  V30 4287 H 407.874 1.26647 3.96568 0
M  V30 4288 H 408.407 2.64426 2.97193 0
M  V30 4289 H 405.146 5.61324 3.3852 0
M  V30 4290 H 404.666 4.17163 4.3097 0
M  V30 4291 H 406.345 4.76182 4.38018 0
M  V30 4292 N 406.477 -1.02803 1.19454 0
M  V30 4293 C 407.425 -2.13213 0.929673 0
M  V30 4294 C 408.419 -1.69011 -0.114806 0
M  V30 4295 O 409.625 -1.79967 0.0345147 0
M  V30 4296 H 406 -0.69662 0.28324 0
M  V30 4297 H 407.971 -2.32744 1.86743 0
M  V30 4298 C 406.72 -3.4429 0.485797 0
M  V30 4299 H 406.043 -3.7872 1.28105 0
M  V30 4300 H 407.483 -4.22638 0.339582 0
M  V30 4301 C 405.942 -3.27258 -0.800244 0
M  V30 4302 O 406.472 -3.55967 -1.86146 0
M  V30 4303 N 404.678 -2.80545 -0.75781 0
M  V30 4304 H 404.225 -2.57382 0.106039 0
M  V30 4305 H 404.183 -2.6953 -1.61867 0
M  V30 4306 N 407.956 -0.998596 -1.21925 0
M  V30 4307 C 409.202 -0.678667 -1.91107 0
M  V30 4308 C 409.535 0.78791 -1.77498 0
M  V30 4309 O 408.81 1.57043 -1.1475 0
M  V30 4310 C 409.093 -1.09245 -3.43129 0
M  V30 4311 C 408.946 -2.61801 -3.6576 0
M  V30 4312 C 410.265 -0.649984 -4.35274 0
M  V30 4313 H 407.384 -0.248025 -0.694012 0
M  V30 4314 H 410.026 -1.24314 -1.43688 0
M  V30 4315 H 408.176 -0.612171 -3.83647 0
M  V30 4316 H 409.848 -3.17543 -3.34611 0
M  V30 4317 H 408.091 -3.03609 -3.09845 0
M  V30 4318 H 408.762 -2.85804 -4.7225 0
M  V30 4319 H 411.238 -1.0626 -4.02303 0
M  V30 4320 H 410.114 -0.967743 -5.40302 0
M  V30 4321 H 410.375 0.449139 -4.39813 0
M  V30 4322 N 409.434 1.37368 -0.772513 0
M  V30 4323 C 410.682 1.99279 -0.336516 0
M  V30 4324 C 411.003 1.6163 1.09091 0
M  V30 4325 O 410.273 0.882109 1.74916 0
M  V30 4326 H 408.853 0.737063 -0.121435 0
M  V30 4327 H 411.515 1.67836 -0.990809 0
M  V30 4328 H 410.611 3.09332 -0.414763 0
M  V30 4329 N 410.912 0.523116 1.48665 0
M  V30 4330 C 412.16 -0.0134497 2.02096 0
M  V30 4331 C 412.481 -1.35418 1.40311 0
M  V30 4332 O 411.751 -1.87543 0.566074 0
M  V30 4333 H 410.331 -0.00795915 0.746958 0
M  V30 4334 H 412.993 0.685388 1.82451 0
M  V30 4335 H 412.089 -0.126849 3.11842 0
M  V30 4336 N 412.39 -1.55475 0.257931 0
M  V30 4337 C 413.637 -1.99207 -0.363728 0
M  V30 4338 C 413.965 -1.1462 -1.57139 0
M  V30 4339 O 413.22 -0.199653 -1.94679 0
M  V30 4340 C 413.519 -3.48183 -0.806433 0
M  V30 4341 C 413.185 -4.49936 0.294684 0
M  V30 4342 C 411.847 -4.77481 0.597076 0
M  V30 4343 C 414.199 -5.10769 1.03751 0
M  V30 4344 C 411.527 -5.63132 1.64618 0
M  V30 4345 C 413.879 -5.97558 2.07622 0
M  V30 4346 C 412.543 -6.23432 2.38514 0
M  V30 4347 H 411.813 -0.728949 -0.133097 0
M  V30 4348 H 414.46 -1.8793 0.368059 0
M  V30 4349 H 412.765 -3.56848 -1.61761 0
M  V30 4350 H 414.462 -3.79415 -1.29789 0
M  V30 4351 H 411.052 -4.28572 0.0488649 0
M  V30 4352 H 415.236 -4.89527 0.817149 0
M  V30 4353 H 410.492 -5.8143 1.89074 0
M  V30 4354 H 414.666 -6.43735 2.65666 0
M  V30 4355 H 412.293 -6.89594 3.19943 0
M  V30 4356 N 413.868 0.0150385 -1.57593 0
M  V30 4357 C 415.115 0.703001 -1.89906 0
M  V30 4358 C 415.443 1.74604 -0.856944 0
M  V30 4359 O 414.698 1.95197 0.140287 0
M  V30 4360 C 414.997 1.39686 -3.28972 0
M  V30 4361 C 414.663 0.488457 -4.48246 0
M  V30 4362 C 413.325 0.2383 -4.8061 0
M  V30 4363 C 415.677 -0.137881 -5.21018 0
M  V30 4364 C 413.005 -0.646738 -5.83125 0
M  V30 4365 C 415.357 -1.0107 -6.24474 0
M  V30 4366 C 414.021 -1.27019 -6.55303 0
M  V30 4367 H 413.291 0.257246 -0.694914 0
M  V30 4368 H 415.938 -0.037259 -1.91464 0
M  V30 4369 H 414.243 2.21079 -3.23468 0
M  V30 4370 H 415.94 1.93495 -3.51227 0
M  V30 4371 H 412.53 0.693593 -4.22951 0
M  V30 4372 H 416.714 0.0423953 -4.96282 0
M  V30 4373 H 411.97 -0.855937 -6.05379 0
M  V30 4374 H 416.144 -1.50247 -6.79999 0
M  V30 4375 H 413.771 -1.95769 -7.3456 0
M  V30 4376 N 415.346 1.54954 0.287554 0
M  V30 4377 C 416.293 1.86834 1.35505 0
M  V30 4378 C 417.263 0.718452 1.49758 0
M  V30 4379 O 418.448 0.968358 1.644 0
M  V30 4380 C 415.588 2.13303 2.71286 0
M  V30 4381 C 414.701 3.40883 2.65373 0
M  V30 4382 C 413.836 3.57125 3.93236 0
M  V30 4383 C 412.875 4.78449 3.81776 0
M  V30 4384 N 412.012 4.91426 5.01443 0
M  V30 4385 H 416.852 2.77889 1.07619 0
M  V30 4386 H 414.389 1.37593 0.520241 0
M  V30 4387 H 416.347 2.26646 3.50267 0
M  V30 4388 H 414.977 1.25499 2.97405 0
M  V30 4389 H 414.029 3.36088 1.78182 0
M  V30 4390 H 415.341 4.29993 2.52799 0
M  V30 4391 H 414.495 3.70207 4.80658 0
M  V30 4392 H 413.234 2.66173 4.0866 0
M  V30 4393 H 412.239 4.65386 2.92738 0
M  V30 4394 H 413.464 5.70822 3.67884 0
M  V30 4395 H 411.41 4.03401 5.17304 0
M  V30 4396 H 411.327 5.74559 4.91343 0
M  V30 4397 H 412.595 5.08879 5.90477 0
M  V30 4398 N 416.824 -0.551391 1.4764 0
M  V30 4399 C 417.754 -1.66757 1.63445 0
M  V30 4400 C 418.735 -1.63077 0.483742 0
M  V30 4401 O 419.92 -1.80607 0.71377 0
M  V30 4402 C 417.05 -3.05387 1.65396 0
M  V30 4403 C 416.004 -3.23918 2.79752 0
M  V30 4404 C 415.33 -4.63393 2.66779 0
M  V30 4405 C 416.63 -3.08735 4.21284 0
M  V30 4406 H 418.324 -1.53786 2.56886 0
M  V30 4407 H 415.87 -0.738415 1.23626 0
M  V30 4408 H 417.823 -3.83325 1.75043 0
M  V30 4409 H 416.547 -3.19332 0.685195 0
M  V30 4410 H 415.206 -2.48391 2.69625 0
M  V30 4411 H 414.854 -4.74144 1.67918 0
M  V30 4412 H 414.554 -4.7674 3.43501 0
M  V30 4413 H 416.078 -5.43458 2.78364 0
M  V30 4414 H 417.492 -3.76484 4.32357 0
M  V30 4415 H 415.889 -3.33588 4.98838 0
M  V30 4416 H 416.959 -2.0541 4.39243 0
M  V30 4417 N 418.302 -1.35869 -0.798587 0
M  V30 4418 C 419.718 -1.16082 -1.09532 0
M  V30 4419 C 419.918 0.0213124 -2.01489 0
M  V30 4420 O 418.974 0.689488 -2.42904 0
M  V30 4421 C 420.287 -2.46748 -1.7186 0
M  V30 4422 C 421.835 -2.53028 -1.84244 0
M  V30 4423 C 422.31 -3.83758 -2.49988 0
M  V30 4424 N 423.801 -3.85053 -2.57465 0
M  V30 4425 C 424.536 -4.8294 -3.09122 0
M  V30 4426 N 424.032 -5.91217 -3.61157 0
M  V30 4427 N 425.825 -4.70369 -3.0775 0
M  V30 4428 H 417.976 -2.11571 -0.187461 0
M  V30 4429 H 420.239 -0.936726 -0.145765 0
M  V30 4430 H 419.945 -3.33471 -1.11759 0
M  V30 4431 H 419.819 -2.61883 -2.71472 0
M  V30 4432 H 422.206 -1.66729 -2.43486 0
M  V30 4433 H 422.287 -2.418 -0.834643 0
M  V30 4434 H 421.931 -4.70459 -1.91393 0
M  V30 4435 H 421.861 -3.92278 -3.5132 0
M  V30 4436 H 424.352 -3.06822 -2.20609 0
M  V30 4437 H 424.665 -6.61892 -3.98896 0
M  V30 4438 H 423.01 -5.94899 -3.59333 0
M  V30 4439 H 426.201 -3.84914 -2.66381 0
M  V30 4440 H 426.374 -5.46816 -3.47701 0
M  V30 4441 N 419.78 1.02168 -1.19998 0
M  V30 4442 C 421.005 1.79833 -1.03319 0
M  V30 4443 C 421.43 1.83504 0.413281 0
M  V30 4444 O 420.788 1.26635 1.29743 0
M  V30 4445 C 420.836 3.22396 -1.61533 0
M  V30 4446 O 419.94 4.03555 -0.849519 0
M  V30 4447 H 419.281 0.554872 -0.364709 0
M  V30 4448 H 421.811 1.28542 -1.59179 0
M  V30 4449 H 421.821 3.73124 -1.65054 0
M  V30 4450 H 420.496 3.19039 -2.66809 0
M  V30 4451 H 419.073 3.62169 -0.888129 0
M  V30 4452 N 421.258 1.00505 1.21394 0
M  V30 4453 C 422.506 0.686415 1.90086 0
M  V30 4454 C 422.827 -0.785264 1.7849 0
M  V30 4455 O 422.097 -1.56387 1.17983 0
M  V30 4456 H 420.677 0.2509 0.703604 0
M  V30 4457 H 423.339 1.27417 1.47482 0
M  V30 4458 H 422.435 0.959621 2.96981 0
M  V30 4459 N 422.737 -1.36956 0.779787 0
M  V30 4460 C 423.647 -2.33965 0.172491 0
M  V30 4461 C 424.663 -1.60574 -0.670222 0
M  V30 4462 O 425.839 -1.92617 -0.588263 0
M  V30 4463 C 422.904 -3.39761 -0.690173 0
M  V30 4464 C 421.965 -4.28964 0.169924 0
M  V30 4465 C 421.198 -5.29707 -0.651662 0
M  V30 4466 O 421.421 -5.38238 -1.88827 0
M  V30 4467 O 420.355 -6.01873 -0.0566264 0
M  V30 4468 H 424.181 -2.87647 0.974321 0
M  V30 4469 H 421.766 -1.39258 0.541078 0
M  V30 4470 H 423.648 -4.04471 -1.1824 0
M  V30 4471 H 422.323 -2.88394 -1.47006 0
M  V30 4472 H 421.23 -3.67326 0.708696 0
M  V30 4473 H 422.563 -4.83656 0.913085 0
M  V30 4474 N 424.215 -0.530993 -1.48385 0
M  V30 4475 C 425.125 0.23503 -2.3342 0
M  V30 4476 C 426.141 0.93801 -1.46552 0
M  V30 4477 O 427.317 0.912745 -1.7953 0
M  V30 4478 C 424.382 1.26778 -3.22689 0
M  V30 4479 C 423.443 0.575038 -4.25431 0
M  V30 4480 C 422.676 1.55858 -5.10435 0
M  V30 4481 O 422.899 2.79129 -4.97437 0
M  V30 4482 O 421.833 1.09742 -5.91811 0
M  V30 4483 H 425.659 -0.461794 -3.00169 0
M  V30 4484 H 423.244 -0.291903 -1.46521 0
M  V30 4485 H 425.126 1.86457 -3.77904 0
M  V30 4486 H 423.801 1.94699 -2.586 0
M  V30 4487 H 422.708 -0.0622782 -3.74048 0
M  V30 4488 H 424.041 -0.062253 -4.92161 0
M  V30 4489 N 425.693 1.55336 -0.266172 0
M  V30 4490 C 426.942 1.98574 0.353749 0
M  V30 4491 C 427.255 1.15789 1.57646 0
M  V30 4492 O 428.461 1.49129 2.26876 0
M  V30 4493 C 426.917 3.53403 0.680747 0
M  V30 4494 C 426.525 4.44953 -0.52165 0
M  V30 4495 C 428.269 4.05251 1.26379 0
M  V30 4496 C 426.176 5.91156 -0.169736 0
M  V30 4497 H 425.106 0.741643 0.135949 0
M  V30 4498 H 427.757 1.79743 -0.369421 0
M  V30 4499 H 426.139 3.68001 1.46257 0
M  V30 4500 H 427.313 4.42121 -1.29869 0
M  V30 4501 H 425.628 4.03691 -1.02093 0
M  V30 4502 H 428.225 5.12021 1.54074 0
M  V30 4503 H 428.568 3.53749 2.19471 0
M  V30 4504 H 429.101 3.94057 0.544447 0
M  V30 4505 H 425.84 6.46736 -1.0683 0
M  V30 4506 H 425.36 5.97079 0.570717 0
M  V30 4507 H 427.039 6.4655 0.241245 0
M  V30 4508 N 427.171 -0.0066808 1.57599 0
M  V30 4509 C 428.396 -0.707738 1.94951 0
M  V30 4510 C 428.821 -1.66882 0.867868 0
M  V30 4511 O 428.179 -1.80457 -0.17458 0
M  V30 4512 C 428.227 -1.42162 3.31394 0
M  V30 4513 O 427.331 -2.53578 3.25226 0
M  V30 4514 H 426.672 -0.188752 0.636607 0
M  V30 4515 H 429.202 0.0445193 2.04552 0
M  V30 4516 H 429.212 -1.78655 3.66806 0
M  V30 4517 H 427.887 -0.716903 4.09675 0
M  V30 4518 H 426.464 -2.19463 3.01481 0
M  V30 4519 N 428.649 -1.55105 -0.279332 0
M  V30 4520 C 429.898 -1.74618 -1.00952 0
M  V30 4521 C 430.211 -0.551096 -1.87676 0
M  V30 4522 O 431.417 -0.628507 -2.64125 0
M  V30 4523 C 429.873 -3.09025 -1.84476 0
M  V30 4524 C 429.481 -4.36081 -1.0265 0
M  V30 4525 C 431.225 -3.37891 -2.56963 0
M  V30 4526 C 429.132 -5.6153 -1.85576 0
M  V30 4527 H 428.062 -0.650868 -0.38064 0
M  V30 4528 H 430.713 -1.81569 -0.265475 0
M  V30 4529 H 429.095 -2.96095 -2.62952 0
M  V30 4530 H 430.269 -4.59909 -0.286354 0
M  V30 4531 H 428.584 -4.14312 -0.416464 0
M  V30 4532 H 431.181 -4.28822 -3.19399 0
M  V30 4533 H 431.524 -2.57737 -3.26921 0
M  V30 4534 H 432.057 -3.5189 -1.85522 0
M  V30 4535 H 428.796 -6.44413 -1.2005 0
M  V30 4536 H 428.316 -5.41854 -2.57204 0
M  V30 4537 H 429.995 -5.99594 -2.43096 0
M  V30 4538 N 430.127 0.543554 -1.4793 0
M  V30 4539 C 431.037 1.67657 -1.64098 0
M  V30 4540 C 432.053 1.65934 -0.523622 0
M  V30 4541 O 433.229 1.85133 -0.792943 0
M  V30 4542 C 430.294 3.04146 -1.66421 0
M  V30 4543 C 429.355 3.16831 -2.89684 0
M  V30 4544 C 428.588 4.46809 -2.91886 0
M  V30 4545 O 428.811 5.33095 -2.02895 0
M  V30 4546 O 427.745 4.63573 -3.83906 0
M  V30 4547 H 431.571 1.56957 -2.59997 0
M  V30 4548 H 429.156 0.715116 -1.31173 0
M  V30 4549 H 431.038 3.85346 -1.70548 0
M  V30 4550 H 429.713 3.152 -0.736923 0
M  V30 4551 H 428.62 2.34977 -2.91095 0
M  V30 4552 H 429.953 3.10687 -3.81752 0
M  V30 4553 N 431.605 1.3629 0.791371 0
M  V30 4554 C 432.851 1.30605 1.55146 0
M  V30 4555 C 433.184 -0.115042 1.93859 0
M  V30 4556 O 432.459 -1.06798 1.62556 0
M  V30 4557 C 432.742 2.22692 2.82985 0
M  V30 4558 C 432.595 3.73489 2.50651 0
M  V30 4559 C 433.914 2.13588 3.84796 0
M  V30 4560 H 431.033 0.475761 0.562868 0
M  V30 4561 H 433.675 1.66825 0.909358 0
M  V30 4562 H 431.825 1.91933 3.37778 0
M  V30 4563 H 433.497 4.14758 2.01924 0
M  V30 4564 H 431.74 3.93021 1.83622 0
M  V30 4565 H 432.411 4.3333 3.41949 0
M  V30 4566 H 434.887 2.40659 3.39445 0
M  V30 4567 H 433.763 2.80195 4.71998 0
M  V30 4568 H 434.024 1.12256 4.27611 0
M  V30 4569 N 433.083 -1.0153 1.20538 0
M  V30 4570 C 434.308 -1.79283 1.04271 0
M  V30 4571 C 434.733 -1.8372 -0.403544 0
M  V30 4572 O 434.091 -1.27321 -1.2907 0
M  V30 4573 C 434.139 -3.21535 1.63241 0
M  V30 4574 O 433.243 -4.03099 0.870908 0
M  V30 4575 H 432.584 -0.55293 0.367647 0
M  V30 4576 H 435.114 -1.27696 1.59859 0
M  V30 4577 H 435.124 -3.72243 1.6703 0
M  V30 4578 H 433.799 -3.1762 2.68497 0
M  V30 4579 H 432.376 -3.61693 0.907323 0
M  V30 4580 N 434.561 -1.01147 -1.20859 0
M  V30 4581 C 435.509 -0.57059 -2.25493 0
M  V30 4582 C 436.503 0.388109 -1.64894 0
M  V30 4583 O 437.709 0.258592 -1.78133 0
M  V30 4584 H 434.084 -0.166191 -0.733406 0
M  V30 4585 H 436.055 -1.46411 -2.60012 0
M  V30 4586 C 434.804 0.0805241 -3.47607 0
M  V30 4587 H 434.127 -0.648156 -3.94511 0
M  V30 4588 H 435.567 0.352197 -4.22535 0
M  V30 4589 C 434.026 1.32175 -3.09889 0
M  V30 4590 O 434.556 2.41553 -3.20959 0
M  V30 4591 N 432.762 1.20392 -2.64488 0
M  V30 4592 H 432.309 0.313905 -2.5568 0
M  V30 4593 H 432.267 2.03541 -2.39621 0
M  V30 4594 N 436.039 1.36541 -0.78704 0
M  V30 4595 C 437.45 1.81873 -0.421807 0
M  V30 4596 C 437.801 1.65487 1.05397 0
M  V30 4597 O 436.926 1.17448 1.81755 0
M  V30 4598 C 437.521 3.30192 -0.758841 0
M  V30 4599 C 436.08 3.73743 -0.446468 0
M  V30 4600 C 435.227 2.58844 -0.994728 0
M  V30 4601 H 438.178 1.24796 -0.98039 0
M  V30 4602 H 438.199 3.80468 -0.0490648 0
M  V30 4603 H 437.711 3.42087 -1.83299 0
M  V30 4604 H 435.812 3.6741 0.619739 0
M  V30 4605 H 435.925 4.69272 -0.965415 0
M  V30 4606 H 434.289 2.51245 -0.418087 0
M  V30 4607 H 435.072 2.73525 -2.07458 0
M  V30 4608 N 437.518 0.538854 1.48102 0
M  V30 4609 C 438.743 0.0102694 2.07397 0
M  V30 4610 C 439.168 -1.26562 1.39153 0
M  V30 4611 O 438.526 -1.75357 0.460387 0
M  V30 4612 C 438.574 -0.187602 3.60112 0
M  V30 4613 O 437.678 -1.25432 3.92862 0
M  V30 4614 H 437.019 0.0430975 0.6626 0
M  V30 4615 H 439.549 0.749301 1.90385 0
M  V30 4616 H 439.559 -0.407517 4.0596 0
M  V30 4617 H 438.234 0.744386 4.09184 0
M  V30 4618 H 436.811 -1.01636 3.58782 0
M  V30 4619 N 438.996 -1.55193 0.274407 0
M  V30 4620 C 439.926 -2.25471 -0.607032 0
M  V30 4621 C 440.907 -1.24461 -1.15946 0
M  V30 4622 O 442.092 -1.53179 -1.19373 0
M  V30 4623 C 439.222 -2.97526 -1.79153 0
M  V30 4624 C 438.176 -4.05459 -1.37067 0
M  V30 4625 C 437.502 -4.65084 -2.6382 0
M  V30 4626 C 438.802 -5.19691 -0.521389 0
M  V30 4627 H 440.496 -2.99393 -0.0209343 0
M  V30 4628 H 438.042 -1.43997 -0.00862866 0
M  V30 4629 H 439.995 -3.45402 -2.41404 0
M  V30 4630 H 438.719 -2.21138 -2.40344 0
M  V30 4631 H 437.378 -3.58393 -0.771355 0
M  V30 4632 H 437.026 -3.85365 -3.23268 0
M  V30 4633 H 436.726 -5.37961 -2.36372 0
M  V30 4634 H 438.25 -5.15708 -3.26921 0
M  V30 4635 H 439.664 -5.63623 -1.04889 0
M  V30 4636 H 438.061 -5.99126 -0.341825 0
M  V30 4637 H 439.131 -4.82713 0.46 0
M  V30 4638 N 440.474 -0.00167713 -1.576 0
M  V30 4639 C 441.404 0.988091 -2.11563 0
M  V30 4640 C 442.385 1.35736 -1.02517 0
M  V30 4641 O 443.57 1.44082 -1.30208 0
M  V30 4642 C 440.7 2.27941 -2.62031 0
M  V30 4643 C 439.654 2.0517 -3.75619 0
M  V30 4644 C 438.98 3.4033 -4.12407 0
M  V30 4645 C 440.28 1.41294 -5.02825 0
M  V30 4646 H 441.974 0.538771 -2.94513 0
M  V30 4647 H 439.52 0.257712 -1.41675 0
M  V30 4648 H 441.473 2.97539 -2.9841 0
M  V30 4649 H 440.197 2.74989 -1.76205 0
M  V30 4650 H 438.856 1.37998 -3.39635 0
M  V30 4651 H 438.504 3.85085 -3.23603 0
M  V30 4652 H 438.204 3.25909 -4.88935 0
M  V30 4653 H 439.728 4.1124 -4.51347 0
M  V30 4654 H 441.142 2.00851 -5.36965 0
M  V30 4655 H 439.539 1.37356 -5.84169 0
M  V30 4656 H 440.609 0.382362 -4.8339 0
M  V30 4657 N 441.952 1.55251 0.271103 0
M  V30 4658 C 443.229 1.66664 1.02384 0
M  V30 4659 C 443.609 0.534363 2.04225 0
M  V30 4660 O 442.957 -0.465337 2.23712 0
M  V30 4661 C 443.167 3.05961 1.67895 0
M  V30 4662 C 444.515 3.63772 2.18986 0
M  V30 4663 O 445.539 3.08606 1.77878 0
M  V30 4664 O 444.398 4.60429 2.94393 0
M  V30 4665 H 441.492 0.676957 0.475035 0
M  V30 4666 H 444.038 1.67589 0.26681 0
M  V30 4667 H 442.81 3.79815 0.941071 0
M  V30 4668 H 442.433 3.08943 2.5028 0
M  V30 4669 N 443.43 -0.535701 1.48216 0
M  V30 4670 C 444.841 -1.11769 1.49548 0
M  V30 4671 C 445.192 -1.94442 0.26207 0
M  V30 4672 O 444.317 -2.06987 -0.631287 0
M  V30 4673 C 444.912 -2.03367 2.70975 0
M  V30 4674 C 443.471 -2.56795 2.75196 0
M  V30 4675 C 442.618 -1.33631 2.42977 0
M  V30 4676 H 445.569 -0.321232 1.55415 0
M  V30 4677 H 445.59 -2.87569 2.49167 0
M  V30 4678 H 445.102 -1.43169 3.60727 0
M  V30 4679 H 443.203 -3.20731 1.89638 0
M  V30 4680 H 443.316 -2.9632 3.76472 0
M  V30 4681 H 441.68 -1.6502 1.94012 0
M  V30 4682 H 442.463 -0.75194 3.34964 0
M  V30 4683 N 444.908 -1.36708 -0.784132 0
M  V30 4684 C 446.185 -1.21776 -1.53069 0
M  V30 4685 C 446.565 0.193876 -2.10208 0
M  V30 4686 O 445.913 1.20012 -1.94446 0
M  V30 4687 C 446.123 -2.30395 -2.62143 0
M  V30 4688 C 447.471 -2.67325 -3.29882 0
M  V30 4689 O 448.495 -2.29478 -2.7243 0
M  V30 4690 O 447.354 -3.32485 -4.33724 0
M  V30 4691 H 444.448 -0.474459 -0.677361 0
M  V30 4692 H 446.994 -1.48454 -0.82216 0
M  V30 4693 H 445.766 -3.2498 -2.17953 0
M  V30 4694 H 445.389 -2.05112 -3.40609 0
M  V30 4695 N 446.386 1.0089 -1.21074 0
M  V30 4696 C 447.318 2.09737 -0.924291 0
M  V30 4697 C 448.331 1.62546 0.0909809 0
M  V30 4698 O 449.52 1.77942 -0.141021 0
M  V30 4699 C 446.62 3.36922 -0.36559 0
M  V30 4700 C 445.793 4.13216 -1.43426 0
M  V30 4701 C 444.852 5.18696 -0.885496 0
M  V30 4702 O 443.878 5.47176 -1.56801 0
M  V30 4703 N 445.08 5.79718 0.301227 0
M  V30 4704 H 447.845 2.34895 -1.8613 0
M  V30 4705 H 445.406 1.17341 -1.11546 0
M  V30 4706 H 447.398 4.04697 0.0158407 0
M  V30 4707 H 445.968 3.08952 0.476149 0
M  V30 4708 H 445.188 3.40301 -1.9897 0
M  V30 4709 H 446.476 4.60967 -2.15376 0
M  V30 4710 H 445.874 5.58926 0.872849 0
M  V30 4711 H 444.431 6.48804 0.624211 0
M  V30 4712 N 447.864 1.01787 1.20321 0
M  V30 4713 C 449.141 0.622978 1.85414 0
M  V30 4714 C 449.521 -0.898887 1.91006 0
M  V30 4715 O 448.869 -1.79112 1.41884 0
M  V30 4716 C 449.079 1.27226 3.24984 0
M  V30 4717 C 450.427 1.3885 4.01255 0
M  V30 4718 O 451.451 1.22857 3.34342 0
M  V30 4719 O 450.31 1.64705 5.2109 0
M  V30 4720 H 447.404 0.215116 0.798533 0
M  V30 4721 H 449.95 1.11533 1.27901 0
M  V30 4722 H 448.722 2.31209 3.15687 0
M  V30 4723 H 448.345 0.767069 3.90131 0
M  V30 4724 N 449.342 -1.36122 0.79427 0
M  V30 4725 C 450.305 -2.28309 0.201889 0
M  V30 4726 C 451.305 -1.49041 -0.603603 0
M  V30 4727 O 452.495 -1.68964 -0.423888 0
M  V30 4728 C 449.627 -3.3321 -0.719978 0
M  V30 4729 H 450.82 -2.82208 1.01481 0
M  V30 4730 H 448.373 -1.45768 0.564037 0
M  V30 4731 H 449.108 -2.84475 -1.55706 0
M  V30 4732 H 448.893 -3.91835 -0.144266 0
M  V30 4733 H 450.383 -4.02044 -1.12916 0
M  V30 4734 N 450.82 -0.546701 -1.47814 0
M  V30 4735 C 452.048 -0.0232857 -2.06887 0
M  V30 4736 C 452.463 1.26571 -1.4009 0
M  V30 4737 O 451.82 1.7569 -0.493906 0
M  V30 4738 C 451.871 0.186975 -3.61016 0
M  V30 4739 O 451.592 -1.05097 -4.25307 0
M  V30 4740 C 453.093 0.748872 -4.36929 0
M  V30 4741 H 450.313 -0.0410763 -0.669742 0
M  V30 4742 H 452.857 -0.757117 -1.89968 0
M  V30 4743 H 451.012 0.870903 -3.77484 0
M  V30 4744 H 451.426 -0.842121 -5.17695 0
M  V30 4745 H 452.9 0.845334 -5.45489 0
M  V30 4746 H 453.377 1.75772 -4.02493 0
M  V30 4747 H 453.983 0.100979 -4.2518 0
M  V30 4748 N 452.299 1.55045 -0.282633 0
M  V30 4749 C 453.529 2.03872 0.334635 0
M  V30 4750 C 453.937 1.16018 1.49454 0
M  V30 4751 O 453.28 0.174449 1.8287 0
M  V30 4752 C 453.342 3.48791 0.870905 0
M  V30 4753 C 453.006 4.56715 -0.161338 0
M  V30 4754 C 454.003 5.10513 -0.983466 0
M  V30 4755 C 451.688 5.01417 -0.297745 0
M  V30 4756 C 453.682 6.07538 -1.92811 0
M  V30 4757 C 451.369 5.98265 -1.24586 0
M  V30 4758 C 452.367 6.51208 -2.05954 0
M  V30 4759 O 452.055 7.46162 -2.99162 0
M  V30 4760 H 451.787 0.671324 0.0793742 0
M  V30 4761 H 454.341 2.01169 -0.41473 0
M  V30 4762 H 452.571 3.48758 1.67047 0
M  V30 4763 H 454.26 3.80916 1.40207 0
M  V30 4764 H 455.026 4.76785 -0.888856 0
M  V30 4765 H 450.905 4.59849 0.325604 0
M  V30 4766 H 454.449 6.48787 -2.56363 0
M  V30 4767 H 450.346 6.31412 -1.34126 0
M  V30 4768 H 451.114 7.63903 -2.93929 0
M  V30 4769 N 453.777 0.010035 1.57597 0
M  V30 4770 C 455.024 -0.6727 1.91 0
M  V30 4771 C 455.352 -1.73219 0.884614 0
M  V30 4772 O 454.607 -1.95395 -0.109215 0
M  V30 4773 C 454.906 -1.34434 3.31153 0
M  V30 4774 C 454.572 -0.417083 4.48967 0
M  V30 4775 C 453.234 -0.161809 4.80928 0
M  V30 4776 C 455.586 0.220753 5.20732 0
M  V30 4777 C 452.914 0.739426 5.82022 0
M  V30 4778 C 455.266 1.10993 6.22787 0
M  V30 4779 C 453.93 1.37428 6.532 0
M  V30 4780 H 453.2 -0.246158 0.698918 0
M  V30 4781 H 455.847 0.0677145 1.9138 0
M  V30 4782 H 454.152 -2.15905 3.26944 0
M  V30 4783 H 455.849 -1.87883 3.54261 0
M  V30 4784 H 452.439 -0.626217 4.24001 0
M  V30 4785 H 456.623 0.0365643 4.96287 0
M  V30 4786 H 451.879 0.952139 6.03941 0
M  V30 4787 H 456.053 1.61046 6.77523 0
M  V30 4788 H 453.68 2.0743 7.31353 0
M  V30 4789 N 455.255 -1.55392 -0.262866 0
M  V30 4790 C 456.503 -1.76127 -0.991147 0
M  V30 4791 C 456.824 -0.571083 -1.8645 0
M  V30 4792 O 456.094 0.413698 -1.91482 0
M  V30 4793 H 454.674 -0.649528 -0.368948 0
M  V30 4794 H 457.336 -1.9281 -0.284655 0
M  V30 4795 H 456.432 -2.6663 -1.62219 0
M  V30 4796 N 456.733 0.527833 -1.48498 0
M  V30 4797 C 457.696 1.61439 -1.62696 0
M  V30 4798 C 458.696 1.52824 -0.500136 0
M  V30 4799 O 459.886 1.56456 -0.765976 0
M  V30 4800 C 457.018 3.01063 -1.59918 0
M  V30 4801 H 458.211 1.50189 -2.59583 0
M  V30 4802 H 455.764 0.750055 -1.37127 0
M  V30 4803 H 456.499 3.17818 -0.645163 0
M  V30 4804 H 456.284 3.08725 -2.41726 0
M  V30 4805 H 457.774 3.80057 -1.73051 0
M  V30 4806 N 458.211 1.37122 0.776871 0
M  V30 4807 C 459.458 1.32047 1.53524 0
M  V30 4808 C 459.786 -0.0965631 1.9426 0
M  V30 4809 O 459.041 -1.06866 1.63945 0
M  V30 4810 C 459.34 2.20068 2.81611 0
M  V30 4811 C 459.006 3.68423 2.59953 0
M  V30 4812 C 457.668 4.08854 2.53755 0
M  V30 4813 C 460.02 4.62431 2.40431 0
M  V30 4814 C 457.348 5.41417 2.26018 0
M  V30 4815 C 459.7 5.95225 2.14219 0
M  V30 4816 C 458.364 6.34767 2.06462 0
M  V30 4817 H 457.634 0.483196 0.561785 0
M  V30 4818 H 460.281 1.69284 0.895268 0
M  V30 4819 H 458.586 1.75809 3.50141 0
M  V30 4820 H 460.283 2.13458 3.39465 0
M  V30 4821 H 456.873 3.36354 2.65638 0
M  V30 4822 H 461.057 4.32057 2.44213 0
M  V30 4823 H 456.313 5.71022 2.18504 0
M  V30 4824 H 460.487 6.67626 1.98112 0
M  V30 4825 H 458.114 7.37413 1.84733 0
M  V30 4826 N 459.689 -1.00246 1.21608 0
M  V30 4827 C 460.636 -2.09073 0.977613 0
M  V30 4828 C 461.606 -1.65815 -0.097297 0
M  V30 4829 O 462.791 -1.90734 0.0503445 0
M  V30 4830 C 459.931 -3.40671 0.551133 0
M  V30 4831 C 459.044 -3.97326 1.69576 0
M  V30 4832 C 458.179 -5.17043 1.2182 0
M  V30 4833 C 457.218 -5.65813 2.335 0
M  V30 4834 N 456.355 -6.76778 1.86859 0
M  V30 4835 H 461.195 -2.28806 1.90924 0
M  V30 4836 H 458.732 -1.12186 0.951452 0
M  V30 4837 H 460.69 -4.16225 0.285097 0
M  V30 4838 H 459.32 -3.20967 -0.343489 0
M  V30 4839 H 458.372 -3.18734 2.07637 0
M  V30 4840 H 459.684 -4.29511 2.53617 0
M  V30 4841 H 458.838 -5.99852 0.908975 0
M  V30 4842 H 457.577 -4.86458 0.347869 0
M  V30 4843 H 456.582 -4.81599 2.65222 0
M  V30 4844 H 457.807 -5.98427 3.21033 0
M  V30 4845 H 455.753 -6.47994 1.02174 0
M  V30 4846 H 455.67 -7.08231 2.64471 0
M  V30 4847 H 456.938 -7.63116 1.58978 0
M  V30 4848 N 461.167 -1.02423 -1.1978 0
M  V30 4849 C 462.413 -0.719051 -1.89625 0
M  V30 4850 C 462.746 0.750083 -1.7913 0
M  V30 4851 O 462.021 1.54574 -1.18056 0
M  V30 4852 C 462.304 -1.16499 -3.40735 0
M  V30 4853 C 462.157 -2.695 -3.60125 0
M  V30 4854 C 463.476 -0.742166 -4.33797 0
M  V30 4855 H 460.595 -0.26269 -0.688595 0
M  V30 4856 H 463.237 -1.27333 -1.41018 0
M  V30 4857 H 461.387 -0.69341 -3.82262 0
M  V30 4858 H 463.059 -3.24569 -3.278 0
M  V30 4859 H 461.302 -3.10113 -3.03336 0
M  V30 4860 H 461.973 -2.95757 -4.66081 0
M  V30 4861 H 464.449 -1.1477 -3.99959 0
M  V30 4862 H 463.325 -1.08213 -5.38127 0
M  V30 4863 H 463.586 0.355747 -4.40666 0
M  V30 4864 N 462.645 1.35699 -0.801477 0
M  V30 4865 C 464.061 1.52065 -0.484596 0
M  V30 4866 C 464.261 1.75215 0.995084 0
M  V30 4867 O 463.317 1.79061 1.78026 0
M  V30 4868 C 464.63 2.69908 -1.32552 0
M  V30 4869 C 466.178 2.83784 -1.32044 0
M  V30 4870 C 466.653 4.04646 -2.14536 0
M  V30 4871 N 468.144 4.11814 -2.12046 0
M  V30 4872 C 468.879 5.04437 -2.72636 0
M  V30 4873 N 468.375 6.02426 -3.42133 0
M  V30 4874 N 470.168 4.97144 -2.62305 0
M  V30 4875 H 462.319 1.18928 -1.75983 0
M  V30 4876 H 464.582 0.581455 -0.748741 0
M  V30 4877 H 464.288 2.59363 -2.37537 0
M  V30 4878 H 464.162 3.64376 -0.975181 0
M  V30 4879 H 466.549 2.93783 -0.27846 0
M  V30 4880 H 466.63 1.90188 -1.71062 0
M  V30 4881 H 466.274 3.95407 -3.18772 0
M  V30 4882 H 466.204 4.97413 -1.72882 0
M  V30 4883 H 468.695 3.41664 -1.61476 0
M  V30 4884 H 469.008 6.69688 -3.85666 0
M  V30 4885 H 467.353 6.02615 -3.46237 0
M  V30 4886 H 470.544 4.19546 -2.07603 0
M  V30 4887 H 470.717 5.69138 -3.09815 0
M  V30 4888 N 464.123 0.554532 1.47522 0
M  V30 4889 C 465.4 -0.0360704 1.95567 0
M  V30 4890 C 465.78 -1.48828 1.49711 0
M  V30 4891 O 465.128 -2.16366 0.734717 0
M  V30 4892 C 465.338 0.106631 3.48837 0
M  V30 4893 C 466.686 -0.0400899 4.24581 0
M  V30 4894 O 467.71 0.0340453 3.56184 0
M  V30 4895 O 466.569 -0.199111 5.46137 0
M  V30 4896 H 463.663 -0.0656294 0.824392 0
M  V30 4897 H 466.209 0.620867 1.57935 0
M  V30 4898 H 464.981 1.11727 3.7501 0
M  V30 4899 H 464.604 -0.58804 3.93227 0
M  V30 4900 N 465.601 -1.54893 0.290851 0
M  V30 4901 C 466.85 -1.99111 -0.322113 0
M  V30 4902 C 467.163 -1.18283 -1.55784 0
M  V30 4903 O 468.369 -1.5272 -2.24475 0
M  V30 4904 C 466.825 -3.54442 -0.624438 0
M  V30 4905 C 466.433 -4.44066 0.592373 0
M  V30 4906 C 468.177 -4.07211 -1.19916 0
M  V30 4907 C 466.084 -5.90812 0.263762 0
M  V30 4908 H 465.014 -0.743712 -0.124133 0
M  V30 4909 H 467.665 -1.79132 0.39797 0
M  V30 4910 H 466.047 -3.70281 -1.40384 0
M  V30 4911 H 467.221 -4.39999 1.36886 0
M  V30 4912 H 465.536 -4.02015 1.08502 0
M  V30 4913 H 468.133 -5.14407 -1.45909 0
M  V30 4914 H 468.476 -3.57196 -2.13815 0
M  V30 4915 H 469.009 -3.94873 -0.481687 0
M  V30 4916 H 465.748 -6.44955 1.17105 0
M  V30 4917 H 465.268 -5.97911 -0.475655 0
M  V30 4918 H 466.947 -6.46852 -0.138354 0
M  V30 4919 N 467.08 -0.0183926 -1.57589 0
M  V30 4920 C 468.357 0.700621 -1.82622 0
M  V30 4921 C 468.737 1.90951 -0.90005 0
M  V30 4922 O 468.085 2.28452 0.0469145 0
M  V30 4923 C 468.295 1.08899 -3.31575 0
M  V30 4924 C 469.643 1.48514 -3.9778 0
M  V30 4925 O 470.667 1.18227 -3.36007 0
M  V30 4926 O 469.526 2.04903 -5.06633 0
M  V30 4927 H 466.62 0.342743 -0.752633 0
M  V30 4928 H 469.166 -0.0452548 -1.6964 0
M  V30 4929 H 467.938 0.228113 -3.90635 0
M  V30 4930 H 467.561 1.89338 -3.49624 0
M  V30 4931 O 468.597 1.61027 0.12348 0
M  V30 4932 H 469.288 1.78369 0.755254 0
M  V30 END ATOM
M  V30 BEGIN BOND
M  V30 END BOND
M  V30 END CTAB
M  END
$$$$
