drugbank_target|P01583 Interleukin-1 alpha (DB06372)
 OpenBabel12092120583D

  0  0  0     0  0            999 V3000
M  V30 BEGIN CTAB
M  V30 COUNTS 4273 4315 0 0 0
M  V30 BEGIN ATOM
M  V30 1 H -0.908 1.98254 -0.117106 0
M  V30 2 N 0 1.576 0 0
M  V30 3 C 0.933 2.03868 1.02534 0
M  V30 4 C 1.911 0.928543 1.3348 0
M  V30 5 O 3.095 1.19667 1.45644 0
M  V30 6 C 0.222 2.43627 2.35294 0
M  V30 7 C -0.732 3.65373 2.2001 0
M  V30 8 S 0.101 5.13292 1.52614 0
M  V30 9 C 1.257 5.56322 2.86805 0
M  V30 10 H 1.49 2.90518 0.631377 0
M  V30 11 H -0.977 1.52953 0.210867 0
M  V30 12 H 0.981 2.67203 3.11629 0
M  V30 13 H -0.358 1.57376 2.7183 0
M  V30 14 H -1.165 3.90944 3.18086 0
M  V30 15 H -1.563 3.418 1.51819 0
M  V30 16 H 0.729 5.58782 3.83104 0
M  V30 17 H 1.672 6.56266 2.65933 0
M  V30 18 H 2.08 4.83886 2.90714 0
M  V30 19 N 1.4781 -0.272755 1.55222 0
M  V30 20 C 2.4411 -1.32041 1.87344 0
M  V30 21 C 3.4411 -1.42342 0.74803 0
M  V30 22 O 4.6311 -1.41488 1.0162 0
M  V30 23 C 1.7631 -2.70173 2.07893 0
M  V30 24 H 2.9561 -1.04789 2.80997 0
M  V30 25 H 0.5091 -0.51083 1.47717 0
M  V30 26 H 1.2441 -3.02605 1.16622 0
M  V30 27 H 1.0291 -2.64082 2.89833 0
M  V30 28 H 2.5191 -3.45869 2.34017 0
M  V30 29 N 2.9562 -1.48159 -0.537278 0
M  V30 30 C 3.9032 -1.62138 -1.64256 0
M  V30 31 C 4.8732 -0.463668 -1.59497 0
M  V30 32 O 6.0582 -0.686241 -1.78032 0
M  V30 33 C 3.1982 -1.66028 -3.02537 0
M  V30 34 C 2.3112 -2.92855 -3.17585 0
M  V30 35 C 1.4462 -2.87952 -4.46382 0
M  V30 36 C 0.4852 -4.09516 -4.54932 0
M  V30 37 N -0.3778 -4.02733 -5.75109 0
M  V30 38 H 4.4622 -2.56529 -1.51647 0
M  V30 39 H 1.9992 -1.27224 -0.738414 0
M  V30 40 H 3.9572 -1.66265 -3.82638 0
M  V30 41 H 2.5872 -0.751331 -3.13934 0
M  V30 42 H 1.6392 -3.02395 -2.30784 0
M  V30 43 H 2.9512 -3.82822 -3.19764 0
M  V30 44 H 2.1052 -2.8655 -5.34765 0
M  V30 45 H 0.8442 -1.95702 -4.46712 0
M  V30 46 H -0.1508 -4.11201 -3.64957 0
M  V30 47 H 1.0742 -5.02917 -4.56346 0
M  V30 48 H -0.9798 -3.13299 -5.76351 0
M  V30 49 H -1.0628 -4.86397 -5.78752 0
M  V30 50 H 0.2052 -4.05379 -6.65799 0
M  V30 51 N 4.4343 0.785586 -1.36625 0
M  V30 52 C 5.6803 1.54591 -1.31261 0
M  V30 53 C 6.0133 1.93906 0.106823 0
M  V30 54 O 5.2883 1.63007 1.06108 0
M  V30 55 C 5.5713 2.82038 -2.23889 0
M  V30 56 C 5.4243 2.49066 -3.74548 0
M  V30 57 C 6.7433 3.83887 -2.15217 0
M  V30 58 H 3.8623 0.560846 -0.478143 0
M  V30 59 H 6.5043 0.902278 -1.67209 0
M  V30 60 H 4.6543 3.36961 -1.93363 0
M  V30 61 H 6.3263 2.00164 -4.15611 0
M  V30 62 H 4.5693 1.81954 -3.93796 0
M  V30 63 H 5.2403 3.40109 -4.34776 0
M  V30 64 H 7.7163 3.38421 -2.42096 0
M  V30 65 H 6.5923 4.70806 -2.82193 0
M  V30 66 H 6.8533 4.27131 -1.14068 0
M  V30 67 N 5.9124 1.20967 1.01018 0
M  V30 68 C 7.3234 1.02319 1.56165 0
M  V30 69 C 7.6744 -0.418546 1.91684 0
M  V30 70 O 6.7994 -1.30096 1.72928 0
M  V30 71 C 7.3944 1.85109 2.8376 0
M  V30 72 C 5.9534 1.70809 3.35412 0
M  V30 73 C 5.1004 1.82643 2.08655 0
M  V30 74 H 8.0514 1.35065 0.833255 0
M  V30 75 H 8.0724 1.35827 3.55431 0
M  V30 76 H 7.5844 2.90035 2.57878 0
M  V30 77 H 5.6854 0.685464 3.66241 0
M  V30 78 H 5.7984 2.52467 4.07182 0
M  V30 79 H 4.1624 1.25896 2.21409 0
M  V30 80 H 4.9454 2.89066 1.85191 0
M  V30 81 N 7.3905 -1.2043 1.01659 0
M  V30 82 C 8.6675 -1.8548 0.621004 0
M  V30 83 C 9.0475 -1.9091 -0.900919 0
M  V30 84 O 8.3955 -1.41694 -1.79263 0
M  V30 85 C 8.6055 -3.25119 1.2688 0
M  V30 86 C 9.9535 -4.01403 1.38423 0
M  V30 87 O 10.9775 -3.34473 1.22501 0
M  V30 88 O 9.8365 -5.21265 1.64151 0
M  V30 89 H 6.9305 -0.798761 0.214266 0
M  V30 90 H 9.4765 -1.28019 1.11396 0
M  V30 91 H 8.2485 -3.15932 2.30873 0
M  V30 92 H 7.8715 -3.90212 0.762917 0
M  V30 93 N 8.8686 -0.792821 -1.36206 0
M  V30 94 C 9.8016 -0.139422 -2.27774 0
M  V30 95 C 10.7796 0.68649 -1.47398 0
M  V30 96 O 11.9636 0.656738 -1.7669 0
M  V30 97 C 9.0906 0.807947 -3.28922 0
M  V30 98 C 8.1366 0.0633999 -4.26453 0
M  V30 99 S 8.9696 -1.26319 -5.20388 0
M  V30 100 C 10.1256 -0.31991 -6.25082 0
M  V30 101 H 10.3586 -0.915809 -2.82843 0
M  V30 102 H 7.8916 -0.587203 -1.42798 0
M  V30 103 H 9.8496 1.34908 -3.87699 0
M  V30 104 H 8.5106 1.55761 -2.72759 0
M  V30 105 H 7.7036 0.782386 -4.9789 0
M  V30 106 H 7.3056 -0.407352 -3.71775 0
M  V30 107 H 9.5976 0.499985 -6.75653 0
M  V30 108 H 10.5406 -1.00307 -7.00959 0
M  V30 109 H 10.9486 0.0782694 -5.64446 0
M  V30 110 N 10.3467 1.47872 -0.545128 0
M  V30 111 C 11.5937 2.02493 -0.0165858 0
M  V30 112 C 11.9217 1.42073 1.32836 0
M  V30 113 O 11.1767 0.561459 1.87473 0
M  V30 114 C 11.4757 3.57131 0.13867 0
M  V30 115 C 11.1417 4.36411 -1.13384 0
M  V30 116 C 9.8037 4.57792 -1.48256 0
M  V30 117 C 12.1557 4.82223 -1.97764 0
M  V30 118 C 9.4837 5.22233 -2.67376 0
M  V30 119 C 11.8357 5.47977 -3.16076 0
M  V30 120 C 10.4997 5.67593 -3.51275 0
M  V30 121 H 9.7697 0.740975 -0.00606918 0
M  V30 122 H 12.4167 1.77683 -0.714207 0
M  V30 123 H 10.7217 3.80865 0.919172 0
M  V30 124 H 12.4187 3.97031 0.562782 0
M  V30 125 H 9.0087 4.2004 -0.852297 0
M  V30 126 H 13.1927 4.65493 -1.72132 0
M  V30 127 H 8.4487 5.35616 -2.94831 0
M  V30 128 H 12.6227 5.8244 -3.81755 0
M  V30 129 H 10.2497 6.17298 -4.43675 0
M  V30 130 N 11.8248 0.280983 1.55075 0
M  V30 131 C 12.7348 -0.61388 2.26426 0
M  V30 132 C 13.7508 -1.16521 1.29224 0
M  V30 133 O 14.9268 -1.19426 1.62171 0
M  V30 134 C 11.9918 -1.7788 2.9759 0
M  V30 135 C 11.0528 -1.26355 4.10284 0
M  V30 136 C 10.2858 -2.37295 4.78045 0
M  V30 137 O 10.5088 -3.56777 4.45047 0
M  V30 138 O 9.4428 -2.05119 5.65871 0
M  V30 139 H 13.2688 -0.0356932 3.03679 0
M  V30 140 H 10.8538 0.0481686 1.49322 0
M  V30 141 H 12.7358 -2.45791 3.42293 0
M  V30 142 H 11.4108 -2.34397 2.23249 0
M  V30 143 H 10.3178 -0.550735 3.70024 0
M  V30 144 H 11.6508 -0.744065 4.86543 0
M  V30 145 N 13.3029 -1.57598 0.00835791 0
M  V30 146 C 14.5799 -1.82172 -0.712235 0
M  V30 147 C 14.9599 -0.887873 -1.9152 0
M  V30 148 O 14.3079 0.06146 -2.28417 0
M  V30 149 C 14.5179 -3.30875 -1.11008 0
M  V30 150 C 15.8659 -3.96826 -1.51044 0
M  V30 151 O 16.8899 -3.35248 -1.20364 0
M  V30 152 O 15.7489 -5.05318 -2.08125 0
M  V30 153 H 12.8429 -0.750435 -0.347529 0
M  V30 154 H 15.3889 -1.69665 0.0344523 0
M  V30 155 H 14.1609 -3.90481 -0.252982 0
M  V30 156 H 13.7839 -3.48412 -1.9156 0
M  V30 157 N 14.781 0.264519 -1.55364 0
M  V30 158 C 15.711 1.33121 -1.91836 0
M  V30 159 C 16.692 1.51101 -0.781192 0
M  V30 160 O 17.877 1.64003 -1.04003 0
M  V30 161 C 15.007 2.68921 -2.19769 0
M  V30 162 C 13.961 2.65661 -3.35571 0
M  V30 163 C 13.287 4.05093 -3.49004 0
M  V30 164 C 14.587 2.24187 -4.71739 0
M  V30 165 H 16.281 1.02844 -2.81182 0
M  V30 166 H 13.827 0.493286 -1.35287 0
M  V30 167 H 15.78 3.43663 -2.43872 0
M  V30 168 H 14.504 3.00799 -1.27231 0
M  V30 169 H 13.163 1.93377 -3.1145 0
M  V30 170 H 12.811 4.34206 -2.53917 0
M  V30 171 H 12.511 4.03804 -4.26868 0
M  V30 172 H 14.035 4.81561 -3.75408 0
M  V30 173 H 15.449 2.88654 -4.9533 0
M  V30 174 H 13.846 2.34044 -5.52579 0
M  V30 175 H 14.916 1.19327 -4.69988 0
M  V30 176 N 16.2591 1.48442 0.529413 0
M  V30 177 C 17.2061 1.63007 1.63394 0
M  V30 178 C 18.1761 0.47212 1.59249 0
M  V30 179 O 19.3611 0.695673 1.77666 0
M  V30 180 C 16.5011 1.6763 3.01653 0
M  V30 181 C 15.6141 2.94535 3.16027 0
M  V30 182 C 14.7491 2.90316 4.44849 0
M  V30 183 C 13.7881 4.11923 4.52754 0
M  V30 184 N 12.9251 4.05777 5.72965 0
M  V30 185 H 17.7651 2.5733 1.50285 0
M  V30 186 H 15.3021 1.27613 0.731656 0
M  V30 187 H 17.2601 1.68292 3.81751 0
M  V30 188 H 15.8901 0.76797 3.13532 0
M  V30 189 H 14.9421 3.03615 2.29177 0
M  V30 190 H 16.2541 3.84512 3.17729 0
M  V30 191 H 15.4081 2.89382 5.33238 0
M  V30 192 H 14.1471 1.98068 4.45668 0
M  V30 193 H 13.1521 4.13131 3.62771 0
M  V30 194 H 14.3771 5.0533 4.53672 0
M  V30 195 H 12.3231 3.16351 5.74681 0
M  V30 196 H 12.2401 4.8946 5.76164 0
M  V30 197 H 13.5081 4.08904 6.6364 0
M  V30 198 N 17.7372 -0.778329 1.37039 0
M  V30 199 C 18.6852 -1.91278 1.32345 0
M  V30 200 C 19.6792 -1.68051 0.213331 0
M  V30 201 O 20.8852 -1.75922 0.38098 0
M  V30 202 H 17.2602 -0.628909 0.412283 0
M  V30 203 H 19.2312 -1.92355 2.28127 0
M  V30 204 C 17.9802 -3.28455 1.14073 0
M  V30 205 H 17.3032 -3.46901 1.98746 0
M  V30 206 H 18.7432 -4.08152 1.14837 0
M  V30 207 C 17.2022 -3.36548 -0.154015 0
M  V30 208 O 17.7322 -3.85186 -1.13993 0
M  V30 209 N 15.9382 -2.89894 -0.202475 0
M  V30 210 H 15.4852 -2.50504 0.600476 0
M  V30 211 H 15.4432 -2.9569 -1.06841 0
M  V30 212 N 19.2153 -1.21501 -1.00376 0
M  V30 213 C 20.4553 -1.04444 -1.75701 0
M  V30 214 C 20.8193 0.414644 -1.87469 0
M  V30 215 O 22.0203 0.705763 -2.59369 0
M  V30 216 C 20.2913 -1.72389 -3.13077 0
M  V30 217 S 21.8503 -1.70604 -4.04277 0
M  V30 218 H 18.6683 -0.374249 -0.604532 0
M  V30 219 H 21.2703 -1.54267 -1.20091 0
M  V30 220 H 19.9743 -2.77734 -3.02146 0
M  V30 221 H 19.5053 -1.22751 -3.73759 0
M  V30 222 H 21.5203 -0.748012 -4.9053 0
M  V30 223 N 20.6934 1.19889 -1.02296 0
M  V30 224 C 21.9234 1.93109 -0.734332 0
M  V30 225 C 22.3314 1.75377 0.709889 0
M  V30 226 O 21.6744 1.06912 1.49384 0
M  V30 227 C 21.7364 3.45362 -0.99827 0
M  V30 228 C 21.4004 3.8686 -2.43287 0
M  V30 229 C 22.3974 3.92102 -3.41397 0
M  V30 230 C 20.0824 4.18668 -2.77529 0
M  V30 231 C 22.0764 4.28573 -4.71809 0
M  V30 232 C 19.7634 4.54813 -4.08153 0
M  V30 233 C 20.7614 4.59739 -5.05103 0
M  V30 234 O 20.4494 4.95051 -6.33388 0
M  V30 235 H 20.1814 0.620409 -0.268456 0
M  V30 236 H 22.7354 1.53144 -1.3688 0
M  V30 237 H 20.9654 3.85482 -0.306645 0
M  V30 238 H 22.6544 3.99814 -0.700234 0
M  V30 239 H 23.4204 3.67685 -3.1628 0
M  V30 240 H 19.2994 4.14021 -2.0275 0
M  V30 241 H 22.8434 4.32333 -5.4748 0
M  V30 242 H 18.7404 4.78687 -4.33047 0
M  V30 243 H 19.5084 5.1302 -6.37772 0
M  V30 244 N 22.1715 0.800033 1.35784 0
M  V30 245 C 23.3965 0.388511 2.03729 0
M  V30 246 C 23.8215 -0.990481 1.5991 0
M  V30 247 O 23.1795 -1.64013 0.772612 0
M  V30 248 C 23.2275 0.4726 3.5749 0
M  V30 249 O 22.3315 -0.51646 4.09153 0
M  V30 250 H 21.6725 0.163271 0.643614 0
M  V30 251 H 24.2025 1.0841 1.73518 0
M  V30 252 H 24.2125 0.34003 4.06581 0
M  V30 253 H 22.8875 1.47848 3.88734 0
M  V30 254 H 21.4645 -0.344673 3.71304 0
M  V30 255 N 23.6496 -1.47581 0.552962 0
M  V30 256 C 24.5596 -2.33743 -0.200353 0
M  V30 257 C 25.5756 -1.47928 -0.916151 0
M  V30 258 O 26.7516 -1.80865 -0.885993 0
M  V30 259 C 23.8166 -3.24536 -1.21973 0
M  V30 260 C 22.8776 -4.26238 -0.511819 0
M  V30 261 C 22.1106 -5.12693 -1.48263 0
M  V30 262 O 22.3336 -5.01525 -2.71714 0
M  V30 263 O 21.2676 -5.93375 -1.00945 0
M  V30 264 H 25.0936 -2.9945 0.506304 0
M  V30 265 H 22.6786 -1.46071 0.313622 0
M  V30 266 H 24.5606 -3.80631 -1.80827 0
M  V30 267 H 23.2356 -2.61462 -1.90839 0
M  V30 268 H 22.1426 -3.73914 0.117799 0
M  V30 269 H 23.4756 -4.92014 0.135308 0
M  V30 270 N 25.1277 -0.289203 -1.54924 0
M  V30 271 C 26.0757 0.607966 -2.24514 0
M  V30 272 C 27.0697 1.14655 -1.24702 0
M  V30 273 O 28.2757 1.09856 -1.4259 0
M  V30 274 H 24.6507 0.21464 -0.720718 0
M  V30 275 H 26.6217 -0.00164182 -2.984 0
M  V30 276 C 25.3707 1.77406 -2.99036 0
M  V30 277 H 24.6937 1.36884 -3.75637 0
M  V30 278 H 26.1337 2.37814 -3.51028 0
M  V30 279 C 24.5927 2.67107 -2.05318 0
M  V30 280 O 25.1227 3.6787 -1.61353 0
M  V30 281 N 23.3287 2.34582 -1.71521 0
M  V30 282 H 22.8757 1.52688 -2.07471 0
M  V30 283 H 22.8337 2.94867 -1.0909 0
M  V30 284 N 26.6058 1.57591 -0.0167156 0
M  V30 285 C 27.5158 2.1291 0.98521 0
M  V30 286 C 28.5318 1.07834 1.36557 0
M  V30 287 O 29.7078 1.39826 1.44951 0
M  V30 288 C 26.7728 2.63512 2.25305 0
M  V30 289 C 25.8338 3.83256 1.93426 0
M  V30 290 C 25.0668 4.31435 3.14165 0
M  V30 291 O 25.2898 3.78851 4.26413 0
M  V30 292 O 24.2238 5.23416 2.97186 0
M  V30 293 H 28.0498 2.98772 0.544888 0
M  V30 294 H 25.6348 1.48012 0.203141 0
M  V30 295 H 27.5168 2.96183 2.99756 0
M  V30 296 H 26.1918 1.8074 2.68542 0
M  V30 297 H 25.0988 3.55531 1.16398 0
M  V30 298 H 26.4318 4.67153 1.55013 0
M  V30 299 N 28.0839 -0.256276 1.55502 0
M  V30 300 C 28.9939 -1.33882 1.92647 0
M  V30 301 C 30.0099 -1.53159 0.825727 0
M  V30 302 O 31.1859 -1.66963 1.12629 0
M  V30 303 C 28.2509 -2.6751 2.20543 0
M  V30 304 C 27.3119 -2.56836 3.43997 0
M  V30 305 C 26.5449 -3.84092 3.70553 0
M  V30 306 O 26.7679 -4.85545 2.99336 0
M  V30 307 O 25.7019 -3.83288 4.64084 0
M  V30 308 H 29.5279 -1.05374 2.84833 0
M  V30 309 H 27.1129 -0.456237 1.42263 0
M  V30 310 H 28.9949 -3.46492 2.39835 0
M  V30 311 H 27.6699 -2.9577 1.31536 0
M  V30 312 H 26.5769 -1.76172 3.30021 0
M  V30 313 H 27.9099 -2.33523 4.33275 0
M  V30 314 N 29.562 -1.4872 -0.521534 0
M  V30 315 C 30.839 -1.4766 -1.2828 0
M  V30 316 C 31.219 -0.19292 -2.10217 0
M  V30 317 O 30.567 0.825193 -2.13079 0
M  V30 318 C 30.777 -2.74358 -2.15705 0
M  V30 319 C 32.125 -3.23028 -2.75569 0
M  V30 320 O 33.149 -2.75333 -2.25987 0
M  V30 321 O 32.008 -4.0604 -3.65778 0
M  V30 322 H 29.102 -0.590085 -0.579421 0
M  V30 323 H 31.648 -1.60963 -0.537492 0
M  V30 324 H 30.42 -3.59292 -1.54999 0
M  V30 325 H 30.043 -2.63816 -2.97467 0
M  V30 326 N 31.0401 0.771051 -1.3745 0
M  V30 327 C 32.2651 1.56529 -1.36065 0
M  V30 328 C 32.6901 1.88029 0.0515859 0
M  V30 329 O 32.0481 1.49282 1.02882 0
M  V30 330 C 32.0961 2.85187 -2.20683 0
M  V30 331 O 31.2001 3.79593 -1.61193 0
M  V30 332 H 30.5411 0.47411 -0.464883 0
M  V30 333 H 33.0711 0.954269 -1.80983 0
M  V30 334 H 33.0811 3.34283 -2.33921 0
M  V30 335 H 31.7561 2.61588 -3.23334 0
M  V30 336 H 30.3331 3.38239 -1.56999 0
M  V30 337 N 32.5182 1.22032 0.997298 0
M  V30 338 C 33.7432 1.06921 1.77715 0
M  V30 339 C 34.1682 -0.376226 1.84299 0
M  V30 340 O 33.5262 -1.27165 1.29223 0
M  V30 341 C 33.5742 1.67996 3.19076 0
M  V30 342 O 32.6782 0.930653 4.01762 0
M  V30 343 H 32.0192 0.375814 0.547412 0
M  V30 344 H 34.5492 1.61737 1.25309 0
M  V30 345 H 34.5592 1.72538 3.69723 0
M  V30 346 H 33.2342 2.73182 3.13599 0
M  V30 347 H 31.8112 0.960917 3.60307 0
M  V30 348 N 33.9963 -1.19345 1.0293 0
M  V30 349 C 35.2213 -1.93538 0.745511 0
M  V30 350 C 35.6463 -1.75007 -0.689511 0
M  V30 351 O 35.0043 -1.05265 -1.47611 0
M  V30 352 C 35.0523 -3.43336 1.10239 0
M  V30 353 O 34.1563 -4.11806 0.221289 0
M  V30 354 H 33.4973 -0.604193 0.275404 0
M  V30 355 H 36.0273 -1.5141 1.37609 0
M  V30 356 H 36.0373 -3.94004 1.05947 0
M  V30 357 H 34.7123 -3.56146 2.14786 0
M  V30 358 H 33.2893 -3.715 0.322842 0
M  V30 359 N 35.4744 -0.807222 -1.35358 0
M  V30 360 C 36.7234 -0.384376 -1.98004 0
M  V30 361 C 37.0364 1.0543 -1.64754 0
M  V30 362 O 38.2424 1.58029 -2.20769 0
M  V30 363 C 36.6984 -0.636326 -3.5423 0
M  V30 364 C 36.3064 -2.08759 -3.96388 0
M  V30 365 C 38.0504 -0.278869 -4.23583 0
M  V30 366 C 35.9574 -2.28525 -5.45463 0
M  V30 367 H 34.8874 -0.139986 -0.740891 0
M  V30 368 H 37.5384 -0.991369 -1.54415 0
M  V30 369 H 35.9204 0.0406256 -3.95979 0
M  V30 370 H 37.0944 -2.8024 -3.6579 0
M  V30 371 H 35.4094 -2.40497 -3.39926 0
M  V30 372 H 38.0064 -0.404599 -5.33167 0
M  V30 373 H 38.3494 0.775012 -4.09022 0
M  V30 374 H 38.8824 -0.909764 -3.87257 0
M  V30 375 H 35.6214 -3.32361 -5.64992 0
M  V30 376 H 35.1414 -1.61569 -5.77629 0
M  V30 377 H 36.8204 -2.10109 -6.11934 0
M  V30 378 N 36.9525 1.47285 -0.560781 0
M  V30 379 C 38.2295 1.9558 0.0277798 0
M  V30 380 C 38.6095 1.5034 1.48192 0
M  V30 381 O 37.9575 0.743882 2.16052 0
M  V30 382 C 38.1675 3.48789 -0.121418 0
M  V30 383 C 39.5155 4.24594 0.0220912 0
M  V30 384 O 40.5395 3.56166 -0.0491439 0
M  V30 385 O 39.3985 5.46217 0.175958 0
M  V30 386 H 36.4925 0.824663 0.0621342 0
M  V30 387 H 39.0385 1.5767 -0.627556 0
M  V30 388 H 37.8105 3.74533 -1.13316 0
M  V30 389 H 37.4335 3.93473 0.571366 0
M  V30 390 N 38.4306 0.297415 1.54768 0
M  V30 391 C 39.3806 -0.595275 2.20092 0
M  V30 392 C 40.3646 -1.10163 1.17273 0
M  V30 393 O 41.5566 -1.043 1.43006 0
M  V30 394 C 38.6856 -1.7684 2.94249 0
M  V30 395 C 37.7716 -1.27818 4.0438 0
M  V30 396 N 38.1626 -0.505695 5.03266 0
M  V30 397 C 36.4606 -1.55923 4.17857 0
M  V30 398 C 37.1616 -0.245094 5.81183 0
M  V30 399 N 36.1376 -0.823881 5.3732 0
M  V30 400 H 39.9396 0.00250837 2.939 0
M  V30 401 H 37.4536 0.102007 1.62079 0
M  V30 402 H 39.4506 -2.41944 3.39513 0
M  V30 403 H 38.1106 -2.36992 2.21957 0
M  V30 404 H 39.1216 -0.150928 5.1768 0
M  V30 405 H 35.7986 -2.16849 3.56767 0
M  V30 406 H 37.1886 0.375084 6.70852 0
M  V30 407 N 39.9087 -1.5758 0.0250728 0
M  V30 408 C 40.8387 -2.13007 -0.956575 0
M  V30 409 C 41.8197 -1.0452 -1.342 0
M  V30 410 O 43.0047 -1.32332 -1.42133 0
M  V30 411 C 40.1347 -2.65386 -2.24026 0
M  V30 412 C 39.0887 -3.78623 -1.99571 0
M  V30 413 C 38.4147 -4.17414 -3.3417 0
M  V30 414 C 39.7147 -5.04867 -1.33814 0
M  V30 415 H 41.4087 -2.9528 -0.494991 0
M  V30 416 H 38.9547 -1.42042 -0.236651 0
M  V30 417 H 40.9077 -3.02794 -2.93076 0
M  V30 418 H 39.6317 -1.80268 -2.72343 0
M  V30 419 H 38.2907 -3.41646 -1.32941 0
M  V30 420 H 37.9387 -3.29284 -3.80238 0
M  V30 421 H 37.6387 -4.93719 -3.18615 0
M  V30 422 H 39.1627 -4.57402 -4.04495 0
M  V30 423 H 40.5767 -5.39888 -1.92857 0
M  V30 424 H 38.9737 -5.86144 -1.28669 0
M  V30 425 H 40.0437 -4.83904 -0.310561 0
M  V30 426 N 41.3868 0.248026 -1.55636 0
M  V30 427 C 42.6118 0.998028 -1.81808 0
M  V30 428 C 43.0368 1.78207 -0.601979 0
M  V30 429 O 42.3948 1.75653 0.448961 0
M  V30 430 C 42.4428 1.9125 -3.05705 0
M  V30 431 O 41.5468 3.00406 -2.82542 0
M  V30 432 H 40.8878 0.284045 -0.600179 0
M  V30 433 H 43.4178 0.269357 -2.02819 0
M  V30 434 H 43.4278 2.32737 -3.35108 0
M  V30 435 H 42.1028 1.33602 -3.93857 0
M  V30 436 H 40.6798 2.63056 -2.64303 0
M  V30 437 N 42.8649 1.48995 0.513639 0
M  V30 438 C 43.7949 1.67636 1.62544 0
M  V30 439 C 44.7759 0.525087 1.61793 0
M  V30 440 O 45.9609 0.759502 1.78732 0
M  V30 441 C 43.0909 1.73114 3.01079 0
M  V30 442 C 42.0449 2.87905 3.16693 0
M  V30 443 C 41.3709 2.78486 4.56453 0
M  V30 444 C 42.6709 4.29005 2.97913 0
M  V30 445 H 44.3649 2.60716 1.47198 0
M  V30 446 H 41.9109 1.25465 0.706714 0
M  V30 447 H 43.8639 1.84742 3.78746 0
M  V30 448 H 42.5879 0.766241 3.17484 0
M  V30 449 H 41.2469 2.75859 2.41448 0
M  V30 450 H 40.8949 1.7993 4.69717 0
M  V30 451 H 40.5949 3.55523 4.67843 0
M  V30 452 H 42.1189 2.92104 5.36197 0
M  V30 453 H 43.5329 4.41798 3.65359 0
M  V30 454 H 41.9299 5.07166 3.20785 0
M  V30 455 H 42.9999 4.44329 1.94165 0
M  V30 456 N 44.343 -0.763751 1.37857 0
M  V30 457 C 45.291 -1.89864 1.34367 0
M  V30 458 C 46.285 -1.67816 0.231143 0
M  V30 459 O 47.491 -1.75508 0.399617 0
M  V30 460 H 43.866 -0.624501 0.41893 0
M  V30 461 H 45.837 -1.89925 2.30155 0
M  V30 462 C 44.586 -3.27227 1.1755 0
M  V30 463 H 43.909 -3.44773 2.02414 0
M  V30 464 H 45.349 -4.06911 1.1916 0
M  V30 465 C 43.808 -3.36692 -0.118311 0
M  V30 466 O 44.338 -3.86374 -1.09902 0
M  V30 467 N 42.544 -2.90092 -0.171717 0
M  V30 468 H 42.091 -2.49853 0.627012 0
M  V30 469 H 42.049 -2.96806 -1.03699 0
M  V30 470 N 45.8211 -1.22559 -0.990812 0
M  V30 471 C 46.7531 -0.955325 -2.08342 0
M  V30 472 C 47.7661 0.0668408 -1.62663 0
M  V30 473 O 48.9551 -0.167421 -1.77713 0
M  V30 474 C 46.0551 -0.415566 -3.36342 0
M  V30 475 C 45.2281 -1.49544 -4.11042 0
M  V30 476 C 44.2871 -0.962399 -5.17324 0
M  V30 477 O 43.3131 -1.64907 -5.44788 0
M  V30 478 N 44.5151 0.215134 -5.80101 0
M  V30 479 H 47.2801 -1.89596 -2.32106 0
M  V30 480 H 44.8411 -1.13276 -1.15673 0
M  V30 481 H 46.8331 -0.0442386 -4.04676 0
M  V30 482 H 45.4031 0.430232 -3.09625 0
M  V30 483 H 44.6231 -2.04 -3.37309 0
M  V30 484 H 45.9111 -2.22195 -4.57719 0
M  V30 485 H 45.3091 0.789779 -5.6016 0
M  V30 486 H 43.8661 0.527826 -6.49659 0
M  V30 487 N 47.2992 1.18797 -1.03562 0
M  V30 488 C 48.2462 2.22253 -0.622259 0
M  V30 489 C 49.2162 1.61987 0.36736 0
M  V30 490 O 50.4012 1.88986 0.262492 0
M  V30 491 C 47.5412 3.45097 0.0138462 0
M  V30 492 C 46.6542 4.19722 -1.02263 0
M  V30 493 C 45.7892 5.30009 -0.355573 0
M  V30 494 C 44.8282 5.96399 -1.37749 0
M  V30 495 N 43.9652 6.98234 -0.735766 0
M  V30 496 H 48.8052 2.56968 -1.50903 0
M  V30 497 H 46.3422 1.26245 -0.755017 0
M  V30 498 H 48.3002 4.15279 0.399948 0
M  V30 499 H 46.9302 3.11018 0.864158 0
M  V30 500 H 45.9822 3.48418 -1.52673 0
M  V30 501 H 47.2942 4.65227 -1.79903 0
M  V30 502 H 46.4482 6.0664 0.0850095 0
M  V30 503 H 45.1872 4.85592 0.452967 0
M  V30 504 H 44.1922 5.18512 -1.82826 0
M  V30 505 H 45.4172 6.42899 -2.18764 0
M  V30 506 H 43.3632 6.55979 0.0525597 0
M  V30 507 H 43.2802 7.41965 -1.44995 0
M  V30 508 H 44.5482 7.78845 -0.31941 0
M  V30 509 N 48.7773 0.814389 1.34928 0
M  V30 510 C 50.0023 0.410097 2.03305 0
M  V30 511 C 50.4273 -0.973464 1.60951 0
M  V30 512 O 49.7853 -1.63185 0.789964 0
M  V30 513 C 49.8333 0.51049 3.56968 0
M  V30 514 O 48.9373 -0.473035 4.09678 0
M  V30 515 H 48.2783 0.170088 0.641846 0
M  V30 516 H 50.8083 1.10244 1.72358 0
M  V30 517 H 50.8183 0.383135 4.06197 0
M  V30 518 H 49.4933 1.51963 3.87144 0
M  V30 519 H 48.0703 -0.305272 3.71648 0
M  V30 520 N 50.2554 -1.46986 0.568584 0
M  V30 521 C 51.5024 -2.02441 0.0487986 0
M  V30 522 C 51.8304 -1.44169 -1.30559 0
M  V30 523 O 51.0854 -0.591213 -1.86556 0
M  V30 524 C 51.3844 -3.57306 -0.081836 0
M  V30 525 C 51.0504 -4.34552 1.20313 0
M  V30 526 C 49.7124 -4.55376 1.5552 0
M  V30 527 C 52.0644 -4.79016 2.05411 0
M  V30 528 C 49.3924 -5.17913 2.7565 0
M  V30 529 C 51.7444 -5.42879 3.24754 0
M  V30 530 C 50.4084 -5.61933 3.60261 0
M  V30 531 H 49.6784 -0.740785 0.0178567 0
M  V30 532 H 52.3254 -1.76525 0.742384 0
M  V30 533 H 50.6304 -3.8228 -0.858463 0
M  V30 534 H 52.3274 -3.97876 -0.499546 0
M  V30 535 H 48.9174 -4.18631 0.919014 0
M  V30 536 H 53.1014 -4.62696 1.79516 0
M  V30 537 H 48.3574 -5.30858 3.03315 0
M  V30 538 H 52.5314 -5.76293 3.90973 0
M  V30 539 H 50.1584 -6.10161 4.53439 0
M  V30 540 N 51.7335 -0.305618 -1.54608 0
M  V30 541 C 52.9635 0.304333 -2.04346 0
M  V30 542 C 53.3715 1.47715 -1.18224 0
M  V30 543 O 52.7145 1.82591 -0.201577 0
M  V30 544 C 52.7765 0.819031 -3.50046 0
M  V30 545 C 52.4405 -0.22912 -4.56425 0
M  V30 546 C 53.4375 -1.05914 -5.08997 0
M  V30 547 C 51.1225 -0.372148 -5.0092 0
M  V30 548 C 53.1165 -2.01809 -6.04609 0
M  V30 549 C 50.8035 -1.33454 -5.9635 0
M  V30 550 C 51.8015 -2.15599 -6.48079 0
M  V30 551 O 51.4895 -3.10205 -7.41639 0
M  V30 552 H 51.2215 0.0693996 -0.672428 0
M  V30 553 H 53.7755 -0.444548 -2.00532 0
M  V30 554 H 52.0055 1.61852 -3.51199 0
M  V30 555 H 53.6945 1.34537 -3.82955 0
M  V30 556 H 54.4605 -0.959538 -4.75413 0
M  V30 557 H 50.3395 0.257304 -4.60281 0
M  V30 558 H 53.8835 -2.65966 -6.44909 0
M  V30 559 H 49.7805 -1.43485 -6.29351 0
M  V30 560 H 50.5485 -3.05237 -7.59455 0
M  V30 561 N 53.2116 1.57565 -0.0334293 0
M  V30 562 C 54.1616 2.06978 0.956237 0
M  V30 563 C 55.1456 0.971193 1.28283 0
M  V30 564 O 56.3376 1.23471 1.26822 0
M  V30 565 C 53.4666 2.60393 2.23719 0
M  V30 566 C 52.5526 3.7719 1.93877 0
M  V30 567 N 52.9436 4.87639 1.34321 0
M  V30 568 C 51.2416 3.85758 2.23845 0
M  V30 569 C 51.9426 5.68825 1.21709 0
M  V30 570 N 50.9186 5.1587 1.71404 0
M  V30 571 H 54.7206 2.89773 0.490815 0
M  V30 572 H 52.2346 1.61492 0.171478 0
M  V30 573 H 54.2316 2.94088 2.95496 0
M  V30 574 H 52.8916 1.79031 2.70884 0
M  V30 575 H 53.9026 5.07803 1.01767 0
M  V30 576 H 50.5796 3.1531 2.73653 0
M  V30 577 H 51.9696 6.67631 0.75621 0
M  V30 578 N 54.6897 -0.239769 1.55765 0
M  V30 579 C 55.9357 -0.968234 1.78194 0
M  V30 580 C 56.2687 -1.84701 0.599938 0
M  V30 581 O 55.5437 -1.9031 -0.401524 0
M  V30 582 C 55.8267 -1.8227 3.10564 0
M  V30 583 C 55.6797 -0.971633 4.3918 0
M  V30 584 C 56.9987 -2.80388 3.39221 0
M  V30 585 H 54.1177 -0.350572 0.648281 0
M  V30 586 H 56.7597 -0.238259 1.885 0
M  V30 587 H 54.9097 -2.44507 3.01908 0
M  V30 588 H 56.5817 -0.367408 4.59835 0
M  V30 589 H 54.8247 -0.276276 4.32919 0
M  V30 590 H 55.4957 -1.60346 5.28198 0
M  V30 591 H 57.9717 -2.28287 3.47885 0
M  V30 592 H 56.8477 -3.3729 4.33044 0
M  V30 593 H 57.1087 -3.57212 2.60484 0
M  V30 594 N 56.1678 -1.49265 -0.50573 0
M  V30 595 C 57.3928 -1.62478 -1.28902 0
M  V30 596 C 57.8178 -0.294332 -1.85783 0
M  V30 597 O 57.1758 0.737412 -1.65626 0
M  V30 598 C 57.2238 -2.69268 -2.39848 0
M  V30 599 O 56.3278 -2.28113 -3.43567 0
M  V30 600 H 55.6688 -0.54399 -0.380751 0
M  V30 601 H 58.1988 -1.95421 -0.605952 0
M  V30 602 H 58.2088 -2.91291 -2.85681 0
M  V30 603 H 56.8838 -3.65846 -1.97812 0
M  V30 604 H 55.4608 -2.16401 -3.03685 0
M  V30 605 N 57.6459 0.756429 -1.3826 0
M  V30 606 C 58.8759 1.54341 -1.3734 0
M  V30 607 C 59.2839 1.89159 0.0393917 0
M  V30 608 O 58.6269 1.5307 1.01565 0
M  V30 609 C 58.6889 2.87238 -2.16182 0
M  V30 610 C 58.3529 2.74973 -3.65019 0
M  V30 611 C 59.3499 2.44962 -4.58574 0
M  V30 612 C 57.0349 2.92515 -4.08338 0
M  V30 613 C 59.0289 2.32642 -5.93428 0
M  V30 614 C 56.7159 2.79815 -5.43274 0
M  V30 615 C 57.7139 2.49921 -6.35632 0
M  V30 616 O 57.4019 2.37275 -7.68086 0
M  V30 617 H 57.1339 0.484281 -0.471643 0
M  V30 618 H 59.6879 0.944152 -1.82414 0
M  V30 619 H 57.9179 3.49342 -1.65822 0
M  V30 620 H 59.6069 3.48731 -2.07705 0
M  V30 621 H 60.3729 2.31081 -4.26412 0
M  V30 622 H 56.2519 3.14781 -3.368 0
M  V30 623 H 59.7959 2.0923 -6.65484 0
M  V30 624 H 55.6929 2.93269 -5.75034 0
M  V30 625 H 56.4609 2.52509 -7.78577 0
M  V30 626 N 59.124 1.23083 0.984299 0
M  V30 627 C 60.372 1.05848 1.72165 0
M  V30 628 C 60.693 -0.406049 1.90726 0
M  V30 629 O 59.963 -1.29139 1.47309 0
M  V30 630 H 58.543 0.388685 0.637913 0
M  V30 631 H 61.205 1.54736 1.18503 0
M  V30 632 H 60.301 1.54327 2.71274 0
M  V30 633 N 60.6021 -1.18246 1.0419 0
M  V30 634 C 62.0131 -1.69914 0.773698 0
M  V30 635 C 62.3641 -1.83085 -0.705297 0
M  V30 636 O 61.4891 -1.51123 -1.5489 0
M  V30 637 C 62.0841 -3.08619 1.39784 0
M  V30 638 C 60.6431 -3.57494 1.17792 0
M  V30 639 C 59.7901 -2.34013 1.48773 0
M  V30 640 H 62.7411 -1.02904 1.20816 0
M  V30 641 H 62.7621 -3.71958 0.801714 0
M  V30 642 H 62.2741 -2.99001 2.47426 0
M  V30 643 H 60.3751 -3.72406 0.120295 0
M  V30 644 H 60.4881 -4.40852 1.87581 0
M  V30 645 H 58.8521 -2.37986 0.907463 0
M  V30 646 H 59.6351 -2.27013 2.57527 0
M  V30 647 N 62.0802 -0.821533 -1.34494 0
M  V30 648 C 63.0102 -0.257138 -2.3208 0
M  V30 649 C 63.9912 0.625645 -1.58176 0
M  V30 650 O 65.1762 0.552811 -1.86166 0
M  V30 651 C 62.3062 0.582958 -3.42372 0
M  V30 652 C 61.2602 -0.202571 -4.2752 0
M  V30 653 C 60.5862 0.760179 -5.29269 0
M  V30 654 C 61.8862 -1.40998 -5.02908 0
M  V30 655 H 63.5802 -1.07247 -2.79532 0
M  V30 656 H 61.1262 -0.517163 -1.34393 0
M  V30 657 H 63.0792 0.987972 -4.09655 0
M  V30 658 H 61.8032 1.43133 -2.93565 0
M  V30 659 H 60.4622 -0.588936 -3.61838 0
M  V30 660 H 60.1102 1.60447 -4.76724 0
M  V30 661 H 59.8102 0.238809 -5.87115 0
M  V30 662 H 61.3342 1.16308 -5.9942 0
M  V30 663 H 62.7482 -1.07905 -5.63054 0
M  V30 664 H 61.1452 -1.86689 -5.70322 0
M  V30 665 H 62.2152 -2.1889 -4.32684 0
M  V30 666 N 63.5583 1.46682 -0.576371 0
M  V30 667 C 64.5083 2.27278 0.181288 0
M  V30 668 C 65.4923 1.35497 0.867721 0
M  V30 669 O 66.6843 1.59717 0.762863 0
M  V30 670 C 63.8133 3.21703 1.19841 0
M  V30 671 C 62.8993 4.20969 0.51442 0
M  V30 672 N 63.2903 5.03999 -0.426407 0
M  V30 673 C 61.5883 4.39373 0.765963 0
M  V30 674 C 62.2893 5.75812 -0.825565 0
M  V30 675 N 61.2653 5.43315 -0.176116 0
M  V30 676 H 65.0673 2.88863 -0.541785 0
M  V30 677 H 62.5813 1.57455 -0.397697 0
M  V30 678 H 64.5783 3.78145 1.75533 0
M  V30 679 H 63.2383 2.61677 1.92238 0
M  V30 680 H 64.2493 5.11659 -0.8016 0
M  V30 681 H 60.9263 3.90502 1.47698 0
M  V30 682 H 62.3163 6.52577 -1.59976 0
M  V30 683 N 65.0364 0.313813 1.54444 0
M  V30 684 C 65.9464 -0.565714 2.27677 0
M  V30 685 C 66.9624 -1.13754 1.31666 0
M  V30 686 O 68.1384 -1.15959 1.64668 0
M  V30 687 C 65.2034 -1.71528 3.01296 0
M  V30 688 C 64.2644 -1.17624 4.12872 0
M  V30 689 C 63.4974 -2.27102 4.8297 0
M  V30 690 O 63.7204 -3.47256 4.52514 0
M  V30 691 O 62.6544 -1.9307 5.70094 0
M  V30 692 H 66.4804 0.0287296 3.03686 0
M  V30 693 H 64.0654 0.0798312 1.49187 0
M  V30 694 H 65.9474 -2.38476 3.4743 0
M  V30 695 H 64.6224 -2.29608 2.2817 0
M  V30 696 H 63.5294 -0.472124 3.71109 0
M  V30 697 H 64.8624 -0.640695 4.88012 0
M  V30 698 N 66.5145 -1.57545 0.0417849 0
M  V30 699 C 67.7625 -1.91937 -0.632829 0
M  V30 700 C 68.0835 -0.919978 -1.71934 0
M  V30 701 O 67.3535 0.0366064 -1.95866 0
M  V30 702 H 65.9335 -0.708493 -0.236742 0
M  V30 703 H 68.5955 -1.9468 0.0925745 0
M  V30 704 H 67.6915 -2.92912 -1.07746 0
M  V30 705 N 67.9926 0.231505 -1.5589 0
M  V30 706 C 69.2326 0.964533 -1.80211 0
M  V30 707 C 69.5966 1.81926 -0.613744 0
M  V30 708 O 70.7976 2.58526 -0.736045 0
M  V30 709 C 69.0686 1.78956 -3.09369 0
M  V30 710 S 70.6276 2.57959 -3.54969 0
M  V30 711 H 67.4456 0.324173 -0.632798 0
M  V30 712 H 70.0476 0.230985 -1.94131 0
M  V30 713 H 68.7516 1.15161 -3.93911 0
M  V30 714 H 68.2826 2.56559 -2.9823 0
M  V30 715 H 70.2976 3.81309 -3.17519 0
M  V30 716 N 69.4707 1.49531 0.497807 0
M  V30 717 C 70.4037 1.61043 1.6168 0
M  V30 718 C 71.3817 0.459386 1.55976 0
M  V30 719 O 72.5657 0.675358 1.75986 0
M  V30 720 C 69.6927 1.56833 3.00202 0
M  V30 721 C 68.7387 2.77173 3.24156 0
M  V30 722 S 69.5717 4.38808 3.06933 0
M  V30 723 C 70.7277 4.37248 4.47845 0
M  V30 724 H 70.9607 2.55702 1.51671 0
M  V30 725 H 68.4937 1.38462 0.683201 0
M  V30 726 H 70.4517 1.55089 3.80076 0
M  V30 727 H 69.1127 0.634561 3.07623 0
M  V30 728 H 68.3057 2.70456 4.25288 0
M  V30 729 H 67.9077 2.76346 2.5201 0
M  V30 730 H 70.1997 4.09164 5.39992 0
M  V30 731 H 71.1427 5.38668 4.59612 0
M  V30 732 H 71.5507 3.67286 4.28674 0
M  V30 733 N 70.9488 -0.749086 1.3866 0
M  V30 734 C 72.2258 -1.4992 1.25632 0
M  V30 735 C 72.6058 -2.10633 -0.140317 0
M  V30 736 O 71.9538 -1.97437 -1.15025 0
M  V30 737 C 72.1638 -2.56195 2.36992 0
M  V30 738 C 73.5118 -3.22972 2.75634 0
M  V30 739 O 74.5358 -2.66502 2.36337 0
M  V30 740 O 73.3948 -4.25122 3.43415 0
M  V30 741 H 70.4888 -0.665067 0.491544 0
M  V30 742 H 73.0348 -0.784113 1.50498 0
M  V30 743 H 71.8068 -2.09612 3.30422 0
M  V30 744 H 71.4298 -3.35279 2.13714 0
M  V30 745 N 72.4269 -1.23603 -0.977757 0
M  V30 746 C 73.3589 -0.977369 -2.07317 0
M  V30 747 C 74.3719 0.0495845 -1.62724 0
M  V30 748 O 75.5609 -0.186261 -1.77526 0
M  V30 749 C 72.6609 -0.451216 -3.35883 0
M  V30 750 C 71.8339 -1.53896 -4.09432 0
M  V30 751 C 70.8929 -1.01721 -5.16274 0
M  V30 752 O 69.9189 -1.70676 -5.43009 0
M  V30 753 N 71.1209 0.153594 -5.80297 0
M  V30 754 H 73.8859 -1.92047 -2.30082 0
M  V30 755 H 71.4469 -1.14497 -1.14465 0
M  V30 756 H 73.4389 -0.0871574 -4.04606 0
M  V30 757 H 72.0089 0.397368 -3.10064 0
M  V30 758 H 71.2289 -2.07566 -3.35127 0
M  V30 759 H 72.5169 -2.27037 -4.55337 0
M  V30 760 H 71.9149 0.730323 -5.60966 0
M  V30 761 H 70.4719 0.458892 -6.50183 0
M  V30 762 N 73.905 1.17692 -1.04816 0
M  V30 763 C 75.13 1.92327 -0.776207 0
M  V30 764 C 75.555 1.76082 0.661581 0
M  V30 765 O 74.913 1.076 1.45917 0
M  V30 766 C 74.961 3.41539 -1.15687 0
M  V30 767 O 74.065 4.11402 -0.286775 0
M  V30 768 H 73.406 0.599735 -0.284981 0
M  V30 769 H 75.936 1.49201 -1.4 0
M  V30 770 H 75.946 3.92269 -1.12202 0
M  V30 771 H 74.621 3.52684 -2.20425 0
M  V30 772 H 73.198 3.70939 -0.381903 0
M  V30 773 N 75.3831 0.828654 1.34056 0
M  V30 774 C 76.6291 0.42008 1.98402 0
M  V30 775 C 76.9621 -1.01564 1.65525 0
M  V30 776 O 76.2371 -1.70834 0.929831 0
M  V30 777 C 76.5201 0.62927 3.54559 0
M  V30 778 C 76.3731 2.11152 3.97159 0
M  V30 779 C 77.6921 0.0688756 4.40046 0
M  V30 780 H 74.8111 0.154104 0.720709 0
M  V30 781 H 77.4531 1.04228 1.5886 0
M  V30 782 H 75.6031 0.0996418 3.88372 0
M  V30 783 H 77.2751 2.70522 3.73651 0
M  V30 784 H 75.5181 2.59985 3.47261 0
M  V30 785 H 76.1891 2.20868 5.05887 0
M  V30 786 H 78.6651 0.521458 4.1282 0
M  V30 787 H 77.5411 0.245006 5.48353 0
M  V30 788 H 77.8021 -1.0266 4.30015 0
M  V30 789 N 76.8612 -1.46375 0.584142 0
M  V30 790 C 78.0862 -2.07268 0.0740405 0
M  V30 791 C 78.5112 -1.42979 -1.22223 0
M  V30 792 O 77.8692 -0.514092 -1.73859 0
M  V30 793 C 77.9172 -3.60518 -0.0767769 0
M  V30 794 O 77.0212 -3.96533 -1.13292 0
M  V30 795 H 76.3622 -0.660961 0.0634524 0
M  V30 796 H 78.8922 -1.87991 0.807492 0
M  V30 797 H 78.9022 -4.07021 -0.282489 0
M  V30 798 H 77.5772 -4.06702 0.86986 0
M  V30 799 H 76.1542 -3.61738 -0.905553 0
M  V30 800 N 78.3393 -0.321999 -1.54275 0
M  V30 801 C 79.2693 0.537411 -2.27231 0
M  V30 802 C 80.2503 1.12064 -1.27968 0
M  V30 803 O 81.4353 1.14606 -1.56777 0
M  V30 804 C 78.5653 1.69919 -3.02894 0
M  V30 805 C 77.5193 1.24534 -4.09482 0
M  V30 806 C 76.8453 2.49394 -4.72977 0
M  V30 807 C 78.1453 0.361335 -5.21049 0
M  V30 808 H 79.8393 -0.0711406 -2.99315 0
M  V30 809 H 77.3853 -0.0356555 -1.43956 0
M  V30 810 H 79.3383 2.30668 -3.52662 0
M  V30 811 H 78.0623 2.33431 -2.28424 0
M  V30 812 H 76.7213 0.660782 -3.60596 0
M  V30 813 H 76.3693 3.11265 -3.95124 0
M  V30 814 H 76.0693 2.19718 -5.44975 0
M  V30 815 H 77.5933 3.10908 -5.25517 0
M  V30 816 H 79.0073 0.875072 -5.66582 0
M  V30 817 H 77.4043 0.157428 -5.99893 0
M  V30 818 H 78.4743 -0.60822 -4.8107 0
M  V30 819 N 79.8174 1.5752 -0.0501392 0
M  V30 820 C 81.0424 1.97376 0.636997 0
M  V30 821 C 81.4674 0.927466 1.63645 0
M  V30 822 O 80.8254 -0.10941 1.8097 0
M  V30 823 C 80.8734 3.36304 1.30123 0
M  V30 824 O 79.9774 3.34156 2.41689 0
M  V30 825 H 79.3184 0.642998 0.165679 0
M  V30 826 H 81.8484 2.04258 -0.118233 0
M  V30 827 H 81.8584 3.73008 1.65315 0
M  V30 828 H 80.5334 4.11993 0.568746 0
M  V30 829 H 79.1104 3.09196 2.08451 0
M  V30 830 N 81.2955 -0.223234 1.56011 0
M  V30 831 C 82.5445 -0.945912 1.78144 0
M  V30 832 C 82.8575 -1.85567 0.618396 0
M  V30 833 O 84.0635 -2.61688 0.723318 0
M  V30 834 C 82.5195 -1.73216 3.15475 0
M  V30 835 C 82.1275 -0.868619 4.39499 0
M  V30 836 C 83.8715 -2.44615 3.46935 0
M  V30 837 C 81.7785 -1.65212 5.67855 0
M  V30 838 H 80.7085 -0.356929 0.664167 0
M  V30 839 H 83.3595 -0.199845 1.82409 0
M  V30 840 H 81.7415 -2.52107 3.05382 0
M  V30 841 H 82.9155 -0.120366 4.60643 0
M  V30 842 H 81.2305 -0.26683 4.15544 0
M  V30 843 H 83.8275 -3.03732 4.40058 0
M  V30 844 H 84.1705 -3.17417 2.69355 0
M  V30 845 H 84.7035 -1.72715 3.58349 0
M  V30 846 H 81.4425 -0.967407 6.48322 0
M  V30 847 H 80.9625 -2.37503 5.50774 0
M  V30 848 H 82.6415 -2.21322 6.07968 0
M  V30 849 N 82.7736 -1.49793 -0.48987 0
M  V30 850 C 83.9986 -1.63836 -1.27172 0
M  V30 851 C 84.4236 -0.31402 -1.8546 0
M  V30 852 O 83.7816 0.719803 -1.66399 0
M  V30 853 C 83.8296 -2.71797 -2.36978 0
M  V30 854 O 82.9336 -2.31744 -3.41128 0
M  V30 855 H 82.2746 -0.547997 -0.37496 0
M  V30 856 H 84.8046 -1.96053 -0.585191 0
M  V30 857 H 84.8146 -2.94305 -2.82575 0
M  V30 858 H 83.4896 -3.67923 -1.93921 0
M  V30 859 H 82.0666 -2.1961 -3.01373 0
M  V30 860 N 84.2517 0.741722 -1.39055 0
M  V30 861 C 85.1617 1.88621 -1.39496 0
M  V30 862 C 86.1777 1.71557 -0.290578 0
M  V30 863 O 87.3537 1.94275 -0.530954 0
M  V30 864 C 84.4187 3.24134 -1.23037 0
M  V30 865 C 83.4797 3.5364 -2.43387 0
M  V30 866 C 82.7127 4.82687 -2.27703 0
M  V30 867 O 82.9357 5.55922 -1.27696 0
M  V30 868 O 81.8697 5.1194 -3.16545 0
M  V30 869 H 85.6957 1.91203 -2.35956 0
M  V30 870 H 83.2807 0.888625 -1.20099 0
M  V30 871 H 85.1627 4.0513 -1.15964 0
M  V30 872 H 83.8377 3.22337 -0.296691 0
M  V30 873 H 82.7447 2.72758 -2.56035 0
M  V30 874 H 84.0777 3.60209 -3.35425 0
M  V30 875 N 85.7298 1.2412 0.971189 0
M  V30 876 C 86.9578 1.10575 1.74874 0
M  V30 877 C 87.3728 -0.342017 1.85676 0
M  V30 878 O 86.7298 -1.23617 1.34258 0
M  V30 879 C 86.7808 1.73579 3.171 0
M  V30 880 O 86.5018 3.12695 3.06844 0
M  V30 881 C 88.0028 1.65598 4.11208 0
M  V30 882 H 85.2228 0.386504 0.548503 0
M  V30 883 H 87.7668 1.64156 1.21955 0
M  V30 884 H 85.9218 1.24009 3.67016 0
M  V30 885 H 86.3358 3.43412 3.96445 0
M  V30 886 H 87.8098 2.1437 5.08674 0
M  V30 887 H 88.2868 0.616532 4.34851 0
M  V30 888 H 88.8928 2.14578 3.67201 0
M  V30 889 N 87.2079 -1.17134 1.05439 0
M  V30 890 C 88.4329 -1.91913 0.786396 0
M  V30 891 C 88.8579 -1.7643 -0.652234 0
M  V30 892 O 88.2159 -1.08372 -1.45345 0
M  V30 893 C 88.2639 -3.40921 1.17497 0
M  V30 894 O 87.3679 -4.11244 0.308589 0
M  V30 895 H 86.7089 -0.598215 0.288158 0
M  V30 896 H 89.2389 -1.48457 1.4079 0
M  V30 897 H 89.2489 -3.91668 1.14281 0
M  V30 898 H 87.9239 -3.5151 2.22292 0
M  V30 899 H 86.5009 -3.70731 0.40157 0
M  V30 900 N 88.686 -0.835752 -1.33615 0
M  V30 901 C 89.633 -0.26473 -2.29277 0
M  V30 902 C 90.603 0.617712 -1.54187 0
M  V30 903 O 91.788 0.556641 -1.825 0
M  V30 904 C 88.928 0.556777 -3.40579 0
M  V30 905 C 88.041 -0.349339 -4.30585 0
M  V30 906 C 87.176 0.482969 -5.29 0
M  V30 907 C 86.215 -0.421732 -6.10645 0
M  V30 908 N 85.352 0.372262 -7.01112 0
M  V30 909 H 90.192 -1.08582 -2.77514 0
M  V30 910 H 87.729 -0.546927 -1.36554 0
M  V30 911 H 89.687 1.04852 -4.03809 0
M  V30 912 H 88.317 1.34286 -2.93542 0
M  V30 913 H 87.369 -0.959372 -3.68104 0
M  V30 914 H 88.681 -1.04445 -4.87742 0
M  V30 915 H 87.835 1.03866 -5.97743 0
M  V30 916 H 86.574 1.21153 -4.72412 0
M  V30 917 H 85.579 -0.989464 -5.40823 0
M  V30 918 H 86.804 -1.14861 -6.69316 0
M  V30 919 H 84.75 1.08426 -6.46977 0
M  V30 920 H 84.667 -0.264198 -7.55538 0
M  V30 921 H 85.935 0.910293 -7.74167 0
M  V30 922 N 90.1641 1.46063 -0.591896 0
M  V30 923 C 91.3921 2.06717 -0.0868936 0
M  V30 924 C 91.8071 1.43916 1.22203 0
M  V30 925 O 91.1641 0.547698 1.74088 0
M  V30 926 C 91.2151 3.6142 0.0758725 0
M  V30 927 O 90.9361 4.21874 -1.18126 0
M  V30 928 C 92.4371 4.39025 0.61416 0
M  V30 929 H 89.6571 0.668162 -0.0616518 0
M  V30 930 H 92.2011 1.8755 -0.815175 0
M  V30 931 H 90.3561 3.79983 0.754413 0
M  V30 932 H 90.7701 5.14861 -1.00092 0
M  V30 933 H 92.2441 5.4783 0.677193 0
M  V30 934 H 92.7211 4.07708 1.63312 0
M  V30 935 H 93.3271 4.2529 -0.0298142 0
M  V30 936 N 91.6422 0.330177 1.54103 0
M  V30 937 C 92.8672 -0.274893 2.0557 0
M  V30 938 C 93.2922 -1.44487 1.20437 0
M  V30 939 O 92.6502 -1.80021 0.214991 0
M  V30 940 C 92.6982 -0.68079 3.54115 0
M  V30 941 O 91.8022 -1.7824 3.71893 0
M  V30 942 H 91.1432 -0.0483849 0.662235 0
M  V30 943 H 93.6732 0.480508 1.98878 0
M  V30 944 H 93.6832 -0.961635 3.96505 0
M  V30 945 H 92.3582 0.174903 4.15532 0
M  V30 946 H 90.9352 -1.49985 3.41407 0
M  V30 947 N 93.1203 -1.57491 0.0584922 0
M  V30 948 C 94.0673 -2.11958 -0.913376 0
M  V30 949 C 95.0373 -1.02875 -1.30407 0
M  V30 950 O 96.2223 -1.30464 -1.39226 0
M  V30 951 C 93.3623 -2.67497 -2.18035 0
M  V30 952 C 92.4753 -3.90691 -1.84349 0
M  V30 953 C 91.6103 -4.3452 -3.05559 0
M  V30 954 C 90.6493 -5.50395 -2.67827 0
M  V30 955 N 89.7863 -5.89244 -3.81754 0
M  V30 956 H 94.6263 -2.94704 -0.442017 0
M  V30 957 H 92.1633 -1.45643 -0.206545 0
M  V30 958 H 94.1213 -2.978 -2.92183 0
M  V30 959 H 92.7513 -1.87537 -2.62735 0
M  V30 960 H 91.8033 -3.66934 -1.00319 0
M  V30 961 H 93.1153 -4.7489 -1.5258 0
M  V30 962 H 92.2693 -4.66414 -3.87998 0
M  V30 963 H 91.0083 -3.49147 -3.40511 0
M  V30 964 H 90.0133 -5.18165 -1.83806 0
M  V30 965 H 91.2383 -6.3749 -2.34059 0
M  V30 966 H 89.1843 -5.06823 -4.16493 0
M  V30 967 H 89.1013 -6.68151 -3.53708 0
M  V30 968 H 90.3693 -6.25756 -4.64811 0
M  V30 969 N 94.5984 0.214957 -1.56127 0
M  V30 970 C 95.5284 1.2695 -1.95974 0
M  V30 971 C 96.5094 1.48539 -0.828868 0
M  V30 972 O 97.6944 1.60611 -1.09168 0
M  V30 973 C 94.8244 2.61794 -2.28214 0
M  V30 974 C 93.7784 2.54851 -3.43853 0
M  V30 975 C 93.1044 3.93785 -3.61715 0
M  V30 976 C 94.4044 2.09065 -4.78632 0
M  V30 977 H 96.0984 0.93846 -2.84312 0
M  V30 978 H 93.6444 0.449996 -1.36788 0
M  V30 979 H 95.5974 3.35731 -2.54682 0
M  V30 980 H 94.3214 2.96599 -1.36736 0
M  V30 981 H 92.9804 1.8337 -3.17444 0
M  V30 982 H 92.6284 4.25908 -2.67602 0
M  V30 983 H 92.3284 3.90019 -4.39498 0
M  V30 984 H 93.8524 4.69374 -3.90539 0
M  V30 985 H 95.2664 2.7275 -5.04262 0
M  V30 986 H 93.6634 2.16346 -5.59745 0
M  V30 987 H 94.7334 1.04315 -4.73547 0
M  V30 988 N 96.0765 1.50051 0.48192 0
M  V30 989 C 97.3045 1.64237 1.25832 0
M  V30 990 C 97.7195 0.321336 1.86045 0
M  V30 991 O 97.0765 -0.695478 1.68729 0
M  V30 992 C 97.1275 2.72548 2.37487 0
M  V30 993 O 96.8485 3.99529 1.79745 0
M  V30 994 C 98.3495 2.9761 3.28547 0
M  V30 995 H 95.5695 0.55237 0.380957 0
M  V30 996 H 98.1135 1.96207 0.576467 0
M  V30 997 H 96.2685 2.43303 3.01467 0
M  V30 998 H 96.6825 4.59342 2.5319 0
M  V30 999 H 98.1565 3.77084 4.03127 0
M  V30 1000 H 98.6335 2.0826 3.86684 0
M  V30 1001 H 99.2395 3.28345 2.70314 0
M  V30 1002 N 97.5546 -0.734337 1.39446 0
M  V30 1003 C 98.8016 -1.49391 1.36706 0
M  V30 1004 C 99.1296 -1.94465 -0.0367813 0
M  V30 1005 O 98.3846 -1.67154 -1.01774 0
M  V30 1006 C 98.6836 -2.74711 2.28623 0
M  V30 1007 C 98.3496 -2.48501 3.76242 0
M  V30 1008 C 97.0116 -2.41062 4.16464 0
M  V30 1009 C 99.3636 -2.26098 4.69606 0
M  V30 1010 C 96.6916 -2.09262 5.48112 0
M  V30 1011 C 99.0436 -1.95814 6.01531 0
M  V30 1012 C 97.7076 -1.86845 6.40816 0
M  V30 1013 H 96.9776 -0.546661 0.500243 0
M  V30 1014 H 99.6246 -0.842788 1.71957 0
M  V30 1015 H 97.9296 -3.44569 1.86492 0
M  V30 1016 H 99.6266 -3.32741 2.23796 0
M  V30 1017 H 96.2166 -2.55169 3.44364 0
M  V30 1018 H 100.401 -2.30812 4.39363 0
M  V30 1019 H 95.6566 -2.00841 5.77471 0
M  V30 1020 H 99.8306 -1.77488 6.73403 0
M  V30 1021 H 97.4576 -1.6197 7.42745 0
M  V30 1022 N 99.0327 -1.24633 -0.964593 0
M  V30 1023 C 99.9797 -1.04144 -2.05968 0
M  V30 1024 C 100.95 0.046262 -1.66036 0
M  V30 1025 O 102.135 -0.108972 -1.90489 0
M  V30 1026 C 99.2747 -0.65563 -3.38815 0
M  V30 1027 C 98.3877 -1.81714 -3.91923 0
M  V30 1028 C 97.5227 -1.37662 -5.13052 0
M  V30 1029 C 96.5617 -2.50788 -5.58365 0
M  V30 1030 N 95.6987 -2.07582 -6.70712 0
M  V30 1031 H 100.539 -1.9787 -2.22827 0
M  V30 1032 H 98.0757 -0.9855 -1.09208 0
M  V30 1033 H 100.034 -0.412954 -4.15151 0
M  V30 1034 H 98.6637 0.244627 -3.21872 0
M  V30 1035 H 97.7157 -2.1734 -3.12198 0
M  V30 1036 H 99.0277 -2.66705 -4.21509 0
M  V30 1037 H 98.1817 -1.093 -5.96773 0
M  V30 1038 H 96.9207 -0.497293 -4.85158 0
M  V30 1039 H 95.9257 -2.79906 -4.73215 0
M  V30 1040 H 97.1507 -3.39283 -5.88272 0
M  V30 1041 H 95.0967 -1.22051 -6.44546 0
M  V30 1042 H 95.0137 -2.86125 -6.99763 0
M  V30 1043 H 96.2817 -1.82369 -7.57867 0
M  V30 1044 N 100.511 1.16574 -1.06058 0
M  V30 1045 C 101.421 2.2452 -0.680282 0
M  V30 1046 C 102.437 1.71348 0.302604 0
M  V30 1047 O 103.613 2.00822 0.152513 0
M  V30 1048 C 100.678 3.46629 -0.0700315 0
M  V30 1049 C 99.7388 4.14849 -1.10448 0
M  V30 1050 C 98.9718 5.31129 -0.523256 0
M  V30 1051 O 99.1948 5.66514 0.664709 0
M  V30 1052 O 98.1288 5.88526 -1.26179 0
M  V30 1053 H 101.955 2.59355 -1.58015 0
M  V30 1054 H 99.5398 1.24043 -0.832694 0
M  V30 1055 H 101.422 4.20543 0.268667 0
M  V30 1056 H 100.097 3.13573 0.803353 0
M  V30 1057 H 99.0038 3.42916 -1.49532 0
M  V30 1058 H 100.337 4.51954 -1.94931 0
M  V30 1059 N 101.989 0.842826 1.3317 0
M  V30 1060 C 103.214 0.453129 2.02389 0
M  V30 1061 C 103.639 -0.939105 1.6298 0
M  V30 1062 O 102.997 -1.61472 0.8244 0
M  V30 1063 C 103.045 0.586094 3.55805 0
M  V30 1064 O 102.149 -0.386029 4.10589 0
M  V30 1065 H 101.49 0.183664 0.638094 0
M  V30 1066 H 104.02 1.13875 1.69981 0
M  V30 1067 H 104.03 0.469209 4.05293 0
M  V30 1068 H 102.705 1.6014 3.83833 0
M  V30 1069 H 101.282 -0.226371 3.72212 0
M  V30 1070 N 103.467 -1.45747 0.599634 0
M  V30 1071 C 104.4 -2.27547 -0.172552 0
M  V30 1072 C 105.378 -1.36657 -0.881116 0
M  V30 1073 O 106.562 -1.66081 -0.891595 0
M  V30 1074 C 103.689 -3.14829 -1.24903 0
M  V30 1075 C 102.735 -4.21603 -0.644465 0
M  V30 1076 S 103.568 -5.32754 0.541606 0
M  V30 1077 C 104.724 -6.23604 -0.535656 0
M  V30 1078 H 104.957 -2.92691 0.521468 0
M  V30 1079 H 102.49 -1.49473 0.386947 0
M  V30 1080 H 104.448 -3.65675 -1.86527 0
M  V30 1081 H 103.109 -2.48965 -1.91508 0
M  V30 1082 H 102.302 -4.82566 -1.45417 0
M  V30 1083 H 101.904 -3.73857 -0.103534 0
M  V30 1084 H 104.196 -6.62519 -1.41686 0
M  V30 1085 H 105.139 -7.0809 0.0376246 0
M  V30 1086 H 105.547 -5.58103 -0.84741 0
M  V30 1087 N 104.945 -0.338344 -1.53925 0
M  V30 1088 C 106.191 0.260143 -2.01125 0
M  V30 1089 C 106.524 1.50617 -1.22589 0
M  V30 1090 O 105.799 1.91979 -0.312113 0
M  V30 1091 C 106.082 0.579499 -3.55407 0
M  V30 1092 C 105.935 -0.678264 -4.44657 0
M  V30 1093 C 107.254 1.39122 -4.17532 0
M  V30 1094 H 104.373 0.0930772 -0.731099 0
M  V30 1095 H 107.015 -0.457852 -1.84401 0
M  V30 1096 H 105.165 1.19118 -3.69788 0
M  V30 1097 H 106.837 -1.31631 -4.42121 0
M  V30 1098 H 105.08 -1.3042 -4.13731 0
M  V30 1099 H 105.751 -0.410143 -5.50474 0
M  V30 1100 H 108.227 0.874035 -4.06817 0
M  V30 1101 H 107.103 1.58342 -5.25565 0
M  V30 1102 H 107.364 2.39178 -3.71815 0
M  V30 1103 N 106.423 1.57458 -0.0668435 0
M  V30 1104 C 107.669 1.93587 0.6043 0
M  V30 1105 C 108.002 0.946722 1.69561 0
M  V30 1106 O 107.277 -0.0248516 1.94484 0
M  V30 1107 C 107.56 3.40014 1.18585 0
M  V30 1108 C 107.413 4.49685 0.101529 0
M  V30 1109 C 108.732 3.87154 2.09284 0
M  V30 1110 H 105.851 0.703958 0.218202 0
M  V30 1111 H 108.493 1.89542 -0.131804 0
M  V30 1112 H 106.643 3.43592 1.81319 0
M  V30 1113 H 108.315 4.5823 -0.531279 0
M  V30 1114 H 106.558 4.30059 -0.568487 0
M  V30 1115 H 107.229 5.49266 0.54874 0
M  V30 1116 H 109.705 3.85551 1.56491 0
M  V30 1117 H 108.581 4.90231 2.46911 0
M  V30 1118 H 108.842 3.2481 2.99918 0
M  V30 1119 N 107.901 -0.206675 1.56239 0
M  V30 1120 C 109.147 -0.930218 1.80208 0
M  V30 1121 C 109.48 -1.83387 0.638981 0
M  V30 1122 O 108.755 -1.91119 -0.361066 0
M  V30 1123 C 109.038 -1.75641 3.1436 0
M  V30 1124 C 108.891 -0.878257 4.41142 0
M  V30 1125 C 110.21 -2.73129 3.45092 0
M  V30 1126 H 107.329 -0.336742 0.655571 0
M  V30 1127 H 109.971 -0.198222 1.88963 0
M  V30 1128 H 108.121 -2.38048 3.07027 0
M  V30 1129 H 109.793 -0.269787 4.6051 0
M  V30 1130 H 108.036 -0.184385 4.33408 0
M  V30 1131 H 108.707 -1.49106 5.3148 0
M  V30 1132 H 111.183 -2.20856 3.52649 0
M  V30 1133 H 110.059 -3.28028 4.40101 0
M  V30 1134 H 110.32 -3.51606 2.68003 0
M  V30 1135 N 109.379 -1.50304 -0.473955 0
M  V30 1136 C 110.342 -1.6841 -1.55469 0
M  V30 1137 C 111.342 -0.554905 -1.50922 0
M  V30 1138 O 112.532 -0.821882 -1.53593 0
M  V30 1139 C 109.664 -1.70667 -2.95102 0
M  V30 1140 H 110.857 -2.64828 -1.40733 0
M  V30 1141 H 108.41 -1.39742 -0.700132 0
M  V30 1142 H 109.145 -0.75932 -3.15285 0
M  V30 1143 H 108.93 -2.52698 -2.9981 0
M  V30 1144 H 110.42 -1.8664 -3.73571 0
M  V30 1145 N 110.857 0.726932 -1.39834 0
M  V30 1146 C 112.085 1.51613 -1.40787 0
M  V30 1147 C 112.5 1.88799 -0.00451505 0
M  V30 1148 O 111.857 1.54662 0.968809 0
M  V30 1149 C 111.908 2.79863 -2.28821 0
M  V30 1150 O 111.629 2.44253 -3.63692 0
M  V30 1151 C 113.13 3.73837 -2.38245 0
M  V30 1152 H 110.35 0.468264 -0.480593 0
M  V30 1153 H 112.894 0.897607 -1.83748 0
M  V30 1154 H 111.049 3.38027 -1.89252 0
M  V30 1155 H 111.463 3.26695 -4.1033 0
M  V30 1156 H 112.937 4.60699 -3.04073 0
M  V30 1157 H 113.414 4.16153 -1.40403 0
M  V30 1158 H 114.02 3.21589 -2.78317 0
M  V30 1159 N 112.336 1.25143 0.95797 0
M  V30 1160 C 113.284 1.05019 2.07542 0
M  V30 1161 C 114.278 -0.0178751 1.69391 0
M  V30 1162 O 115.484 0.137472 1.79474 0
M  V30 1163 H 111.859 0.32265 0.679265 0
M  V30 1164 H 113.83 1.99759 2.21673 0
M  V30 1165 C 112.579 0.682074 3.40944 0
M  V30 1166 H 111.902 1.49573 3.70767 0
M  V30 1167 H 113.342 0.580945 4.20001 0
M  V30 1168 C 111.801 -0.611608 3.31302 0
M  V30 1169 O 112.331 -1.65465 3.66038 0
M  V30 1170 N 110.537 -0.595982 2.84423 0
M  V30 1171 H 110.084 0.253192 2.56353 0
M  V30 1172 H 110.042 -1.46173 2.78354 0
M  V30 1173 N 113.814 -1.1601 1.06675 0
M  V30 1174 C 115.062 -1.86264 0.784229 0
M  V30 1175 C 115.383 -1.82328 -0.691488 0
M  V30 1176 O 114.653 -1.25947 -1.50047 0
M  V30 1177 H 113.233 -0.689621 0.28711 0
M  V30 1178 H 115.895 -1.40664 1.34906 0
M  V30 1179 H 114.991 -2.91595 1.11259 0
M  V30 1180 N 115.292 -0.849877 -1.32721 0
M  V30 1181 C 116.239 -0.289033 -2.28983 0
M  V30 1182 C 117.209 0.601324 -1.54833 0
M  V30 1183 O 118.394 0.537253 -1.8308 0
M  V30 1184 C 115.534 0.520623 -3.4115 0
M  V30 1185 C 114.647 -0.394989 -4.3019 0
M  V30 1186 C 113.782 0.426834 -5.29482 0
M  V30 1187 C 112.821 -0.486476 -6.10164 0
M  V30 1188 N 111.958 0.297879 -7.01468 0
M  V30 1189 H 116.798 -1.11519 -2.76347 0
M  V30 1190 H 114.335 -0.56138 -1.35967 0
M  V30 1191 H 116.293 1.00563 -4.04899 0
M  V30 1192 H 114.923 1.31165 -2.9495 0
M  V30 1193 H 113.975 -0.99836 -3.67065 0
M  V30 1194 H 115.287 -1.09612 -4.86607 0
M  V30 1195 H 114.441 0.975205 -5.98811 0
M  V30 1196 H 113.18 1.16136 -4.73671 0
M  V30 1197 H 112.185 -1.04677 -5.39743 0
M  V30 1198 H 113.41 -1.21953 -6.6806 0
M  V30 1199 H 111.356 1.01558 -6.48091 0
M  V30 1200 H 111.273 -0.344318 -7.55216 0
M  V30 1201 H 112.541 0.828131 -7.75089 0
M  V30 1202 N 116.77 1.45427 -0.607355 0
M  V30 1203 C 118.016 2.0254 -0.102607 0
M  V30 1204 C 118.349 1.47478 1.26348 0
M  V30 1205 O 117.624 0.64939 1.83339 0
M  V30 1206 C 117.907 3.60044 -0.0634347 0
M  V30 1207 C 117.76 4.2544 -1.46017 0
M  V30 1208 C 119.079 4.35646 0.624514 0
M  V30 1209 H 116.198 0.73598 -0.0387607 0
M  V30 1210 H 118.84 1.73284 -0.779282 0
M  V30 1211 H 116.99 3.85101 0.512808 0
M  V30 1212 H 118.662 4.11569 -2.08347 0
M  V30 1213 H 116.905 3.83849 -2.02094 0
M  V30 1214 H 117.576 5.34342 -1.385 0
M  V30 1215 H 120.052 4.15882 0.134723 0
M  V30 1216 H 118.928 5.45376 0.621028 0
M  V30 1217 H 119.189 4.08501 1.69055 0
M  V30 1218 N 118.248 0.346503 1.53744 0
M  V30 1219 C 119.178 -0.501193 2.28058 0
M  V30 1220 C 120.159 -1.10014 1.29734 0
M  V30 1221 O 121.344 -1.12097 1.58581 0
M  V30 1222 C 118.474 -1.65078 3.05559 0
M  V30 1223 C 117.428 -1.18003 4.11411 0
M  V30 1224 C 116.754 -2.41837 4.76884 0
M  V30 1225 C 118.054 -0.278394 5.21558 0
M  V30 1226 H 119.748 0.11875 2.99164 0
M  V30 1227 H 117.294 0.0585531 1.43881 0
M  V30 1228 H 119.247 -2.25028 3.56287 0
M  V30 1229 H 117.971 -2.29767 2.32109 0
M  V30 1230 H 116.63 -0.603331 3.61601 0
M  V30 1231 H 116.278 -3.0494 4.00026 0
M  V30 1232 H 115.978 -2.1102 5.48402 0
M  V30 1233 H 117.502 -3.02508 5.30397 0
M  V30 1234 H 118.916 -0.784823 5.67903 0
M  V30 1235 H 117.313 -0.0619707 6.00068 0
M  V30 1236 H 118.383 0.684677 4.80042 0
M  V30 1237 N 119.726 -1.57421 0.075193 0
M  V30 1238 C 120.673 -2.12915 -0.890843 0
M  V30 1239 C 121.643 -1.04252 -1.29309 0
M  V30 1240 O 122.828 -1.31933 -1.37834 0
M  V30 1241 C 119.968 -2.69795 -2.15186 0
M  V30 1242 C 119.081 -3.92624 -1.80194 0
M  V30 1243 C 118.216 -4.37736 -3.00933 0
M  V30 1244 C 117.255 -5.53205 -2.61974 0
M  V30 1245 N 116.392 -5.9326 -3.75483 0
M  V30 1246 H 121.232 -2.95156 -0.410735 0
M  V30 1247 H 118.769 -1.45854 -0.191086 0
M  V30 1248 H 120.727 -3.00883 -2.89008 0
M  V30 1249 H 119.357 -1.90313 -2.60731 0
M  V30 1250 H 118.409 -3.67977 -0.964218 0
M  V30 1251 H 119.721 -4.76482 -1.47534 0
M  V30 1252 H 118.875 -4.70503 -3.8303 0
M  V30 1253 H 117.614 -3.52739 -3.36789 0
M  V30 1254 H 116.619 -5.20086 -1.783 0
M  V30 1255 H 117.844 -6.39936 -2.27284 0
M  V30 1256 H 115.79 -5.11212 -4.11094 0
M  V30 1257 H 115.707 -6.71865 -3.46602 0
M  V30 1258 H 116.975 -6.30651 -4.58148 0
M  V30 1259 N 121.204 0.198386 -1.56346 0
M  V30 1260 C 122.151 1.24589 -1.94284 0
M  V30 1261 C 123.121 1.454 -0.802997 0
M  V30 1262 O 124.306 1.58588 -1.06087 0
M  V30 1263 C 121.446 2.58631 -2.28482 0
M  V30 1264 C 120.559 2.45426 -3.55514 0
M  V30 1265 C 119.694 3.7215 -3.79049 0
M  V30 1266 C 118.733 3.53763 -4.99518 0
M  V30 1267 N 117.87 4.72491 -5.19323 0
M  V30 1268 H 122.71 0.915356 -2.83593 0
M  V30 1269 H 120.247 0.440629 -1.40346 0
M  V30 1270 H 122.205 3.3672 -2.46324 0
M  V30 1271 H 120.835 2.89734 -1.42317 0
M  V30 1272 H 119.887 1.58652 -3.45737 0
M  V30 1273 H 121.199 2.27772 -4.43758 0
M  V30 1274 H 120.353 4.58679 -3.97113 0
M  V30 1275 H 119.092 3.92754 -2.89129 0
M  V30 1276 H 118.097 2.65619 -4.8138 0
M  V30 1277 H 119.322 3.34607 -5.90944 0
M  V30 1278 H 117.268 4.93365 -4.3235 0
M  V30 1279 H 117.185 4.5765 -6.01741 0
M  V30 1280 H 118.453 5.6038 -5.41843 0
M  V30 1281 N 122.682 1.50554 0.465978 0
M  V30 1282 C 124.098 1.38093 0.800154 0
M  V30 1283 C 124.298 0.440988 1.96615 0
M  V30 1284 O 123.354 -0.114499 2.5224 0
M  V30 1285 C 124.667 2.79565 1.10742 0
M  V30 1286 C 126.215 2.88516 1.21357 0
M  V30 1287 C 126.69 4.30833 1.55393 0
M  V30 1288 N 128.181 4.33807 1.62375 0
M  V30 1289 C 128.916 5.40927 1.90225 0
M  V30 1290 N 128.412 6.58247 2.16062 0
M  V30 1291 N 130.205 5.28376 1.9177 0
M  V30 1292 H 122.356 2.10237 -0.302366 0
M  V30 1293 H 124.619 0.945203 -0.0727746 0
M  V30 1294 H 124.325 3.50208 0.323661 0
M  V30 1295 H 124.199 3.17125 2.04234 0
M  V30 1296 H 126.586 2.1809 1.98799 0
M  V30 1297 H 126.667 2.54492 0.258321 0
M  V30 1298 H 126.311 5.01799 0.784889 0
M  V30 1299 H 126.241 4.62347 2.52076 0
M  V30 1300 H 128.732 3.49212 1.44427 0
M  V30 1301 H 129.045 7.3569 2.36601 0
M  V30 1302 H 127.39 6.61413 2.13444 0
M  V30 1303 H 130.581 4.35715 1.71085 0
M  V30 1304 H 130.754 6.11944 2.13139 0
M  V30 1305 N 124.16 -0.719506 1.40217 0
M  V30 1306 C 125.576 -1.02707 1.22161 0
M  V30 1307 C 125.776 -2.0128 0.0940557 0
M  V30 1308 O 124.832 -2.46452 -0.549318 0
M  V30 1309 C 126.145 -1.57454 2.56181 0
M  V30 1310 C 127.693 -1.69458 2.63159 0
M  V30 1311 C 128.168 -2.27611 3.97438 0
M  V30 1312 N 129.659 -2.35002 3.99159 0
M  V30 1313 C 130.394 -2.80972 4.99842 0
M  V30 1314 N 129.89 -3.26723 6.10921 0
M  V30 1315 N 131.683 -2.80321 4.87213 0
M  V30 1316 H 123.834 -0.0660492 2.12297 0
M  V30 1317 H 126.097 -0.0919077 0.943534 0
M  V30 1318 H 125.803 -0.924873 3.39321 0
M  V30 1319 H 125.677 -2.56036 2.76993 0
M  V30 1320 H 128.064 -2.33543 1.80393 0
M  V30 1321 H 128.145 -0.694867 2.46181 0
M  V30 1322 H 127.789 -1.6415 4.80643 0
M  V30 1323 H 127.719 -3.2829 4.11744 0
M  V30 1324 H 130.21 -2.02685 3.18947 0
M  V30 1325 H 130.523 -3.60355 6.8364 0
M  V30 1326 H 128.868 -3.24692 6.14492 0
M  V30 1327 H 132.059 -2.43912 3.9953 0
M  V30 1328 H 132.232 -3.15831 5.65822 0
M  V30 1329 N 125.638 -1.25649 -0.95132 0
M  V30 1330 C 126.568 -1.08808 -2.06599 0
M  V30 1331 C 127.549 0.00382547 -1.701 0
M  V30 1332 O 128.734 -0.166325 -1.93486 0
M  V30 1333 C 125.864 -0.709542 -3.39975 0
M  V30 1334 C 124.818 -1.75206 -3.90496 0
M  V30 1335 C 124.144 -1.22811 -5.20405 0
M  V30 1336 C 125.444 -3.15153 -4.16504 0
M  V30 1337 H 127.138 -2.02048 -2.20946 0
M  V30 1338 H 124.684 -0.972835 -1.06169 0
M  V30 1339 H 126.637 -0.578649 -4.17408 0
M  V30 1340 H 125.361 0.258556 -3.25575 0
M  V30 1341 H 124.02 -1.87145 -3.15234 0
M  V30 1342 H 123.668 -0.250145 -5.02378 0
M  V30 1343 H 123.368 -1.92492 -5.55176 0
M  V30 1344 H 124.892 -1.10968 -6.00432 0
M  V30 1345 H 126.306 -3.06349 -4.84586 0
M  V30 1346 H 124.703 -3.82333 -4.62538 0
M  V30 1347 H 125.773 -3.61966 -3.22658 0
M  V30 1348 N 127.117 1.15442 -1.07289 0
M  V30 1349 C 128.342 1.90638 -0.816828 0
M  V30 1350 C 128.767 1.77445 0.624083 0
M  V30 1351 O 128.125 1.10671 1.43602 0
M  V30 1352 C 128.173 3.39008 -1.22906 0
M  V30 1353 O 127.277 4.10701 -0.373975 0
M  V30 1354 H 126.618 0.593555 -0.297638 0
M  V30 1355 H 129.148 1.46198 -1.43134 0
M  V30 1356 H 129.158 3.89801 -1.20497 0
M  V30 1357 H 127.833 3.47929 -2.27856 0
M  V30 1358 H 126.41 3.70046 -0.460499 0
M  V30 1359 N 128.595 0.856903 1.32268 0
M  V30 1360 C 129.525 0.31858 2.31316 0
M  V30 1361 C 130.506 -0.583487 1.59779 0
M  V30 1362 O 131.691 -0.503259 1.87566 0
M  V30 1363 C 128.821 -0.491979 3.43798 0
M  V30 1364 C 127.775 0.315849 4.26833 0
M  V30 1365 C 127.101 -0.619586 5.31098 0
M  V30 1366 C 128.401 1.54282 4.98993 0
M  V30 1367 H 130.095 1.14621 2.76591 0
M  V30 1368 H 127.641 0.552613 1.32974 0
M  V30 1369 H 129.594 -0.879012 4.1213 0
M  V30 1370 H 128.318 -1.35299 2.97257 0
M  V30 1371 H 126.977 0.684664 3.6015 0
M  V30 1372 H 126.625 -1.47751 4.8081 0
M  V30 1373 H 126.325 -0.0830621 5.87541 0
M  V30 1374 H 127.849 -1.00375 6.02293 0
M  V30 1375 H 129.263 1.22796 5.59995 0
M  V30 1376 H 127.66 2.01745 5.65172 0
M  V30 1377 H 128.73 2.30285 4.26728 0
M  V30 1378 N 130.073 -1.45103 0.615059 0
M  V30 1379 C 131.298 -2.07064 0.117988 0
M  V30 1380 C 131.723 -1.4554 -1.19163 0
M  V30 1381 O 131.081 -0.550855 -1.72729 0
M  V30 1382 C 131.129 -3.606 -0.000288387 0
M  V30 1383 O 130.233 -3.98847 -1.04856 0
M  V30 1384 H 129.574 -0.659467 0.0774581 0
M  V30 1385 H 132.104 -1.86236 0.847186 0
M  V30 1386 H 132.114 -4.07529 -0.196091 0
M  V30 1387 H 130.789 -4.04765 0.955932 0
M  V30 1388 H 129.366 -3.63577 -0.828619 0
M  V30 1389 N 131.551 -0.354651 -1.53558 0
M  V30 1390 C 132.483 0.5315 -2.22952 0
M  V30 1391 C 133.496 1.05503 -1.23988 0
M  V30 1392 O 134.685 0.963279 -1.50277 0
M  V30 1393 C 131.785 1.74538 -2.90499 0
M  V30 1394 C 130.958 1.35524 -4.15875 0
M  V30 1395 C 130.017 2.42999 -4.66731 0
M  V30 1396 O 129.043 2.05844 -5.30676 0
M  V30 1397 N 130.245 3.74423 -4.43608 0
M  V30 1398 H 133.01 -0.0628615 -2.99634 0
M  V30 1399 H 130.571 -0.179302 -1.60904 0
M  V30 1400 H 132.563 2.45892 -3.21433 0
M  V30 1401 H 131.133 2.24686 -2.17336 0
M  V30 1402 H 130.353 0.471998 -3.91364 0
M  V30 1403 H 131.641 1.07071 -4.97406 0
M  V30 1404 H 131.039 4.07391 -3.92491 0
M  V30 1405 H 129.596 4.41913 -4.7912 0
M  V30 1406 N 133.029 1.57378 -0.0835403 0
M  V30 1407 C 134.254 1.98682 0.594987 0
M  V30 1408 C 134.679 0.961969 1.61641 0
M  V30 1409 O 134.037 -0.0709989 1.81161 0
M  V30 1410 C 134.085 3.38988 1.2296 0
M  V30 1411 O 133.189 3.39208 2.34546 0
M  V30 1412 H 132.53 0.646368 0.152002 0
M  V30 1413 H 135.06 2.03961 -0.161533 0
M  V30 1414 H 135.07 3.76431 1.57366 0
M  V30 1415 H 133.745 4.13107 0.481228 0
M  V30 1416 H 132.322 3.13548 2.01846 0
M  V30 1417 N 134.507 -0.190092 1.56449 0
M  V30 1418 C 135.756 -0.907912 1.80111 0
M  V30 1419 C 136.069 -1.84214 0.657619 0
M  V30 1420 O 137.275 -2.60094 0.778663 0
M  V30 1421 C 135.731 -1.66485 3.19078 0
M  V30 1422 C 135.339 -0.7752 4.41242 0
M  V30 1423 C 137.083 -2.37201 3.52045 0
M  V30 1424 C 134.99 -1.53129 5.71231 0
M  V30 1425 H 133.92 -0.34276 0.671589 0
M  V30 1426 H 136.571 -0.161109 1.82791 0
M  V30 1427 H 134.953 -2.45572 3.10661 0
M  V30 1428 H 136.127 -0.0226298 4.60794 0
M  V30 1429 H 134.442 -0.178627 4.16017 0
M  V30 1430 H 137.039 -2.94329 4.46402 0
M  V30 1431 H 137.382 -3.11632 2.76028 0
M  V30 1432 H 137.915 -1.65075 3.61932 0
M  V30 1433 H 134.654 -0.82967 6.50228 0
M  V30 1434 H 134.174 -2.25767 5.55688 0
M  V30 1435 H 135.853 -2.08377 6.12526 0
M  V30 1436 N 135.985 -1.50799 -0.457987 0
M  V30 1437 C 137.213 -1.66218 -1.23203 0
M  V30 1438 C 137.628 -0.350894 -1.85511 0
M  V30 1439 O 136.985 0.668546 -1.69814 0
M  V30 1440 C 137.036 -2.76291 -2.33121 0
M  V30 1441 O 136.757 -4.02338 -1.73366 0
M  V30 1442 C 138.258 -3.028 -3.2377 0
M  V30 1443 H 135.478 -0.558361 -0.372121 0
M  V30 1444 H 138.022 -1.97099 -0.545179 0
M  V30 1445 H 136.177 -2.48068 -2.97558 0
M  V30 1446 H 136.591 -4.63312 -2.4585 0
M  V30 1447 H 138.065 -3.8345 -3.97077 0
M  V30 1448 H 138.542 -2.14385 -3.83322 0
M  V30 1449 H 139.148 -3.32604 -2.65056 0
M  V30 1450 N 137.463 0.71206 -1.40597 0
M  V30 1451 C 138.74 1.46536 -1.29563 0
M  V30 1452 C 139.12 2.10931 0.0844217 0
M  V30 1453 O 138.468 2.00418 1.0975 0
M  V30 1454 C 138.678 2.49821 -2.43701 0
M  V30 1455 C 140.026 3.15551 -2.841 0
M  V30 1456 O 141.05 2.60142 -2.4332 0
M  V30 1457 O 139.909 4.15867 -3.54566 0
M  V30 1458 H 137.003 0.651801 -0.509004 0
M  V30 1459 H 139.549 0.743935 -1.52524 0
M  V30 1460 H 138.321 2.00778 -3.35863 0
M  V30 1461 H 137.944 3.29495 -2.22528 0
M  V30 1462 N 138.941 1.26152 0.944643 0
M  V30 1463 C 140.218 1.02247 1.66748 0
M  V30 1464 C 140.598 -0.448202 2.06287 0
M  V30 1465 O 139.946 -1.42779 1.78399 0
M  V30 1466 C 140.156 1.96788 2.88228 0
M  V30 1467 C 141.504 2.25201 3.59958 0
M  V30 1468 O 142.528 1.94626 2.98327 0
M  V30 1469 O 141.387 2.77242 4.70956 0
M  V30 1470 H 138.481 0.388517 0.730057 0
M  V30 1471 H 141.027 1.37348 0.99668 0
M  V30 1472 H 139.799 2.96047 2.55875 0
M  V30 1473 H 139.422 1.62145 3.63035 0
M  V30 1474 N 140.419 -1.14872 1.07899 0
M  V30 1475 C 141.696 -1.81928 0.71845 0
M  V30 1476 C 142.076 -1.95417 -0.798455 0
M  V30 1477 O 141.424 -1.50997 -1.715 0
M  V30 1478 C 141.634 -3.17937 1.43935 0
M  V30 1479 C 142.982 -3.93501 1.59506 0
M  V30 1480 O 144.006 -3.27509 1.40058 0
M  V30 1481 O 142.865 -5.1183 1.91551 0
M  V30 1482 H 139.959 -0.78628 0.256305 0
M  V30 1483 H 142.505 -1.21934 1.18026 0
M  V30 1484 H 141.277 -3.0325 2.47295 0
M  V30 1485 H 140.9 -3.85619 0.968687 0
M  V30 1486 N 141.898 -0.863906 -1.31812 0
M  V30 1487 C 142.828 -0.330843 -2.31144 0
M  V30 1488 C 143.809 0.575005 -1.60087 0
M  V30 1489 O 144.994 0.493304 -1.8783 0
M  V30 1490 C 142.124 0.47374 -3.44054 0
M  V30 1491 C 141.078 -0.338481 -4.26659 0
M  V30 1492 C 140.404 0.591412 -5.31419 0
M  V30 1493 C 141.704 -1.56926 -4.98168 0
M  V30 1494 H 143.398 -1.16086 -2.75979 0
M  V30 1495 H 140.944 -0.559657 -1.32679 0
M  V30 1496 H 142.897 0.857143 -4.12591 0
M  V30 1497 H 141.621 1.33721 -2.9797 0
M  V30 1498 H 140.28 -0.703754 -3.59782 0
M  V30 1499 H 139.928 1.45199 -4.81587 0
M  V30 1500 H 139.628 0.0519022 -5.87577 0
M  V30 1501 H 141.152 0.97179 -6.02817 0
M  V30 1502 H 142.566 -1.25764 -5.59336 0
M  V30 1503 H 140.963 -2.04739 -5.64094 0
M  V30 1504 H 142.033 -2.32544 -4.25501 0
M  V30 1505 N 143.376 1.44774 -0.622745 0
M  V30 1506 C 144.286 2.34433 0.0886031 0
M  V30 1507 C 145.302 1.52131 0.844529 0
M  V30 1508 O 146.478 1.84886 0.798691 0
M  V30 1509 C 143.543 3.29986 1.0635 0
M  V30 1510 C 142.604 4.28195 0.307873 0
M  V30 1511 C 141.837 5.19183 1.23633 0
M  V30 1512 O 142.06 5.13918 2.47476 0
M  V30 1513 O 140.994 5.97515 0.725189 0
M  V30 1514 H 144.82 2.96693 -0.648599 0
M  V30 1515 H 142.405 1.44408 -0.382957 0
M  V30 1516 H 144.287 3.88825 1.6246 0
M  V30 1517 H 142.962 2.70269 1.78146 0
M  V30 1518 H 141.869 3.72927 -0.296064 0
M  V30 1519 H 143.202 4.90808 -0.3699 0
M  V30 1520 N 144.854 0.36279 1.53368 0
M  V30 1521 C 145.817 -0.472679 2.24273 0
M  V30 1522 C 146.817 -1.012 1.24961 0
M  V30 1523 O 148.007 -0.898194 1.49259 0
M  V30 1524 C 145.139 -1.66039 2.97731 0
M  V30 1525 H 146.332 0.14773 2.99536 0
M  V30 1526 H 143.885 0.114434 1.55881 0
M  V30 1527 H 144.62 -2.31896 2.26704 0
M  V30 1528 H 144.405 -1.28066 3.70596 0
M  V30 1529 H 145.895 -2.25252 3.51641 0
M  V30 1530 N 146.332 -1.57332 0.0918853 0
M  V30 1531 C 147.581 -1.93412 -0.572249 0
M  V30 1532 C 147.894 -0.975515 -1.69538 0
M  V30 1533 O 149.1 -1.22991 -2.42045 0
M  V30 1534 C 147.556 -3.43648 -1.0693 0
M  V30 1535 C 147.164 -4.47994 0.0239049 0
M  V30 1536 C 148.908 -3.88695 -1.70635 0
M  V30 1537 C 146.815 -5.89381 -0.488319 0
M  V30 1538 H 145.745 -0.721939 -0.217532 0
M  V30 1539 H 148.396 -1.82735 0.167369 0
M  V30 1540 H 146.778 -3.49466 -1.8625 0
M  V30 1541 H 147.952 -4.53815 0.799277 0
M  V30 1542 H 146.267 -4.12536 0.565946 0
M  V30 1543 H 148.864 -4.91725 -2.10025 0
M  V30 1544 H 149.207 -3.27166 -2.57426 0
M  V30 1545 H 149.74 -3.85564 -0.979023 0
M  V30 1546 H 146.479 -6.54602 0.342906 0
M  V30 1547 H 145.999 -5.87037 -1.23077 0
M  V30 1548 H 147.678 -6.39863 -0.958317 0
M  V30 1549 N 147.81 0.181792 -1.56548 0
M  V30 1550 C 148.773 1.20894 -1.94724 0
M  V30 1551 C 149.773 1.37738 -0.829747 0
M  V30 1552 O 150.963 1.35323 -1.09697 0
M  V30 1553 C 148.095 2.57593 -2.23291 0
M  V30 1554 H 149.288 0.882275 -2.86629 0
M  V30 1555 H 146.841 0.423838 -1.50444 0
M  V30 1556 H 147.576 2.95291 -1.34067 0
M  V30 1557 H 147.361 2.46735 -3.04736 0
M  V30 1558 H 148.851 3.31637 -2.53785 0
M  V30 1559 N 149.288 1.51039 0.449983 0
M  V30 1560 C 150.236 1.71995 1.5659 0
M  V30 1561 C 151.23 0.586029 1.5894 0
M  V30 1562 O 152.436 0.76709 1.62837 0
M  V30 1563 H 148.811 0.543233 0.520001 0
M  V30 1564 H 150.782 2.65562 1.36085 0
M  V30 1565 C 149.531 1.8506 2.9436 0
M  V30 1566 H 148.854 2.71712 2.93279 0
M  V30 1567 H 150.294 2.0374 3.71842 0
M  V30 1568 C 148.753 0.607277 3.31382 0
M  V30 1569 O 149.283 -0.243903 4.00959 0
M  V30 1570 N 147.489 0.455073 2.87015 0
M  V30 1571 H 147.036 1.14879 2.30566 0
M  V30 1572 H 146.994 -0.375611 3.12148 0
M  V30 1573 N 150.766 -0.704594 1.40972 0
M  V30 1574 C 152.043 -1.45847 1.30338 0
M  V30 1575 C 152.423 -2.10973 -0.0732344 0
M  V30 1576 O 151.771 -2.00997 -1.08685 0
M  V30 1577 C 151.981 -2.48525 2.45023 0
M  V30 1578 C 153.329 -3.1404 2.8577 0
M  V30 1579 O 154.353 -2.58848 2.44696 0
M  V30 1580 O 153.212 -4.13981 3.56766 0
M  V30 1581 H 150.306 -0.649092 0.512454 0
M  V30 1582 H 152.852 -0.735836 1.52917 0
M  V30 1583 H 151.624 -1.98994 3.36923 0
M  V30 1584 H 151.247 -3.2831 2.24272 0
M  V30 1585 N 152.244 -1.26651 -0.937939 0
M  V30 1586 C 153.469 -1.15279 -1.72411 0
M  V30 1587 C 153.894 0.287866 -1.85884 0
M  V30 1588 O 153.252 1.20855 -1.35143 0
M  V30 1589 C 153.3 -1.83028 -3.10698 0
M  V30 1590 O 152.404 -1.12128 -3.96864 0
M  V30 1591 H 151.745 -0.401504 -0.528858 0
M  V30 1592 H 154.275 -1.67531 -1.1745 0
M  V30 1593 H 154.285 -1.89981 -3.6107 0
M  V30 1594 H 152.96 -2.87833 -3.00208 0
M  V30 1595 H 151.537 -1.13173 -3.55312 0
M  V30 1596 N 153.722 1.14298 -1.08507 0
M  V30 1597 C 154.632 2.23027 -0.727753 0
M  V30 1598 C 155.648 1.71952 0.26619 0
M  V30 1599 O 156.824 2.011 0.109882 0
M  V30 1600 C 153.889 3.46403 -0.143541 0
M  V30 1601 C 152.95 4.12413 -1.19223 0
M  V30 1602 C 152.183 5.29899 -0.635798 0
M  V30 1603 O 152.406 5.67796 0.544393 0
M  V30 1604 O 151.34 5.85717 -1.38634 0
M  V30 1605 H 155.166 2.55945 -1.63481 0
M  V30 1606 H 152.751 1.22248 -0.858817 0
M  V30 1607 H 154.633 4.21018 0.179404 0
M  V30 1608 H 153.308 3.15206 0.736659 0
M  V30 1609 H 152.215 3.39667 -1.56772 0
M  V30 1610 H 153.548 4.47718 -2.04474 0
M  V30 1611 N 155.201 0.870884 1.31352 0
M  V30 1612 C 156.111 0.330783 2.32256 0
M  V30 1613 C 157.127 -0.559767 1.6475 0
M  V30 1614 O 158.303 -0.456263 1.96164 0
M  V30 1615 C 155.368 -0.458137 3.4366 0
M  V30 1616 C 154.429 0.460482 4.26823 0
M  V30 1617 C 153.662 -0.290881 5.32907 0
M  V30 1618 O 153.885 -1.51885 5.49806 0
M  V30 1619 O 152.819 0.351732 6.00871 0
M  V30 1620 H 156.645 1.16718 2.80376 0
M  V30 1621 H 154.23 0.634285 1.35267 0
M  V30 1622 H 156.112 -0.905343 4.1156 0
M  V30 1623 H 154.787 -1.27106 2.97701 0
M  V30 1624 H 153.694 0.956207 3.61673 0
M  V30 1625 H 155.027 1.23903 4.7635 0
M  V30 1626 N 156.679 -1.44442 0.630414 0
M  V30 1627 C 157.589 -2.34476 -0.0761693 0
M  V30 1628 C 158.605 -1.52576 -0.836449 0
M  V30 1629 O 159.781 -1.85307 -0.788874 0
M  V30 1630 C 156.846 -3.30545 -1.04599 0
M  V30 1631 C 155.907 -4.28352 -0.28516 0
M  V30 1632 C 155.14 -5.19831 -1.20878 0
M  V30 1633 O 155.363 -5.15223 -2.44747 0
M  V30 1634 O 154.297 -5.97892 -0.693491 0
M  V30 1635 H 158.123 -2.96345 0.664324 0
M  V30 1636 H 155.708 -1.44203 0.39061 0
M  V30 1637 H 157.59 -3.89681 -1.60396 0
M  V30 1638 H 156.265 -2.7121 -1.76711 0
M  V30 1639 H 155.172 -3.72764 0.315837 0
M  V30 1640 H 156.505 -4.90605 0.395924 0
M  V30 1641 N 158.157 -0.370918 -1.53173 0
M  V30 1642 C 159.406 0.218249 -2.00516 0
M  V30 1643 C 159.719 1.49429 -1.26215 0
M  V30 1644 O 160.925 2.16239 -1.64174 0
M  V30 1645 C 159.381 0.43948 -3.57207 0
M  V30 1646 C 158.989 -0.822244 -4.4039 0
M  V30 1647 C 160.733 0.986012 -4.1289 0
M  V30 1648 C 158.64 -0.570304 -5.88644 0
M  V30 1649 H 157.57 0.0853333 -0.749156 0
M  V30 1650 H 160.221 -0.490483 -1.76823 0
M  V30 1651 H 158.603 1.20961 -3.77074 0
M  V30 1652 H 159.777 -1.59557 -4.32294 0
M  V30 1653 H 158.092 -1.29238 -3.95836 0
M  V30 1654 H 160.689 1.18991 -5.21292 0
M  V30 1655 H 161.032 1.94972 -3.6782 0
M  V30 1656 H 161.565 0.27592 -3.96842 0
M  V30 1657 H 158.304 -1.50449 -6.38001 0
M  V30 1658 H 157.824 0.164427 -5.99575 0
M  V30 1659 H 159.503 -0.19784 -6.46697 0
M  V30 1660 N 159.635 1.57281 -0.100228 0
M  V30 1661 C 160.884 1.93713 0.561984 0
M  V30 1662 C 161.197 0.984492 1.69018 0
M  V30 1663 O 162.403 1.24273 2.41389 0
M  V30 1664 C 160.859 3.4421 1.05106 0
M  V30 1665 C 160.467 4.47975 -0.0476628 0
M  V30 1666 C 162.211 3.89595 1.68571 0
M  V30 1667 C 160.118 5.89631 0.457055 0
M  V30 1668 H 159.048 0.723082 0.2137 0
M  V30 1669 H 161.699 1.82644 -0.177057 0
M  V30 1670 H 160.081 3.50449 1.84395 0
M  V30 1671 H 161.255 4.53385 -0.823333 0
M  V30 1672 H 159.57 4.1223 -0.587816 0
M  V30 1673 H 162.167 4.92832 2.07414 0
M  V30 1674 H 162.51 3.28526 2.55688 0
M  V30 1675 H 163.043 3.86078 0.958562 0
M  V30 1676 H 159.782 6.54411 -0.377616 0
M  V30 1677 H 159.302 5.87681 1.19962 0
M  V30 1678 H 160.981 6.40363 0.92437 0
M  V30 1679 N 161.113 -0.173488 1.56642 0
M  V30 1680 C 162.06 -1.21482 1.96242 0
M  V30 1681 C 163.03 -1.44104 0.826027 0
M  V30 1682 O 164.215 -1.5688 1.08597 0
M  V30 1683 C 161.355 -2.54964 2.32567 0
M  V30 1684 C 160.468 -2.39739 3.59373 0
M  V30 1685 C 159.603 -3.66072 3.84921 0
M  V30 1686 C 158.642 -3.45771 5.05083 0
M  V30 1687 N 157.779 -4.64169 5.26775 0
M  V30 1688 H 162.619 -0.870123 2.85014 0
M  V30 1689 H 160.156 -0.418245 1.41029 0
M  V30 1690 H 162.114 -3.32758 2.5165 0
M  V30 1691 H 160.744 -2.87433 1.46908 0
M  V30 1692 H 159.796 -1.53131 3.48217 0
M  V30 1693 H 161.108 -2.20683 4.47326 0
M  V30 1694 H 160.262 -4.52303 4.0436 0
M  V30 1695 H 159.001 -3.88105 2.9534 0
M  V30 1696 H 158.006 -2.57927 4.85545 0
M  V30 1697 H 159.231 -3.25163 5.96193 0
M  V30 1698 H 157.177 -4.86425 4.40144 0
M  V30 1699 H 157.094 -4.48019 6.08946 0
M  V30 1700 H 158.362 -5.51689 5.5069 0
M  V30 1701 N 162.591 -1.51276 -0.441967 0
M  V30 1702 C 164.002 -1.56244 -1.02199 0
M  V30 1703 C 164.353 -0.383149 -1.92422 0
M  V30 1704 O 163.478 0.500613 -2.1053 0
M  V30 1705 C 164.073 -2.83162 -1.86024 0
M  V30 1706 C 162.632 -2.90716 -2.39084 0
M  V30 1707 C 161.779 -2.50858 -1.18175 0
M  V30 1708 H 164.73 -1.5712 -0.223416 0
M  V30 1709 H 164.751 -2.66663 -2.71425 0
M  V30 1710 H 164.263 -3.68974 -1.20331 0
M  V30 1711 H 162.364 -2.09323 -3.08244 0
M  V30 1712 H 162.477 -3.94266 -2.72198 0
M  V30 1713 H 160.841 -2.03951 -1.52565 0
M  V30 1714 H 161.624 -3.3901 -0.541001 0
M  V30 1715 N 164.069 0.697108 -1.41344 0
M  V30 1716 C 165.485 1.00751 -1.2378 0
M  V30 1717 C 165.685 2.01105 -0.126066 0
M  V30 1718 O 164.741 2.47295 0.51004 0
M  V30 1719 C 166.054 1.53359 -2.58653 0
M  V30 1720 C 167.602 1.6525 -2.65822 0
M  V30 1721 C 168.077 2.2126 -4.01009 0
M  V30 1722 N 169.568 2.28622 -4.02847 0
M  V30 1723 C 170.303 2.72984 -5.04249 0
M  V30 1724 N 169.799 3.16962 -6.16041 0
M  V30 1725 N 171.592 2.72534 -4.91611 0
M  V30 1726 H 163.743 0.0322662 -2.12375 0
M  V30 1727 H 166.006 0.0768853 -0.944877 0
M  V30 1728 H 165.712 0.870773 -3.4075 0
M  V30 1729 H 165.586 2.51597 -2.81032 0
M  V30 1730 H 167.973 2.30644 -1.84086 0
M  V30 1731 H 168.054 0.655614 -2.47256 0
M  V30 1732 H 167.698 1.56482 -4.83193 0
M  V30 1733 H 167.628 3.21698 -4.16915 0
M  V30 1734 H 170.119 1.97585 -3.22131 0
M  V30 1735 H 170.432 3.49434 -6.89287 0
M  V30 1736 H 168.777 3.14875 -6.1958 0
M  V30 1737 H 171.968 2.37525 -4.0336 0
M  V30 1738 H 172.141 3.06789 -5.70775 0
M  V30 1739 N 165.547 1.27147 0.931209 0
M  V30 1740 C 166.772 1.16191 1.71797 0
M  V30 1741 C 167.197 -0.278004 1.86034 0
M  V30 1742 O 166.555 -1.20137 1.35782 0
M  V30 1743 C 166.603 1.84673 3.09723 0
M  V30 1744 O 165.707 1.14231 3.96264 0
M  V30 1745 H 165.048 0.404303 0.526721 0
M  V30 1746 H 167.578 1.68152 1.1656 0
M  V30 1747 H 167.588 1.91893 3.60057 0
M  V30 1748 H 166.263 2.89421 2.98677 0
M  V30 1749 H 164.84 1.15056 3.54706 0
M  V30 1750 N 167.025 -1.13721 1.09112 0
M  V30 1751 C 167.988 -2.17222 0.731241 0
M  V30 1752 C 168.988 -1.59035 -0.237566 0
M  V30 1753 O 170.178 -1.74192 -0.0161704 0
M  V30 1754 C 167.31 -3.40804 0.0808443 0
M  V30 1755 H 168.503 -2.50573 1.64783 0
M  V30 1756 H 166.056 -1.28493 0.889897 0
M  V30 1757 H 166.791 -3.1304 -0.847127 0
M  V30 1758 H 166.576 -3.84306 0.777896 0
M  V30 1759 H 168.066 -4.1731 -0.155657 0
M  V30 1760 N 168.503 -0.877838 -1.30888 0
M  V30 1761 C 169.914 -0.544193 -1.78593 0
M  V30 1762 C 170.265 0.939301 -1.72254 0
M  V30 1763 O 169.39 1.7337 -1.29505 0
M  V30 1764 C 169.985 -0.98105 -3.24285 0
M  V30 1765 C 168.544 -0.698935 -3.69854 0
M  V30 1766 C 167.691 -1.168 -2.51502 0
M  V30 1767 H 170.642 -1.06278 -1.17859 0
M  V30 1768 H 170.663 -0.307009 -3.79259 0
M  V30 1769 H 170.175 -2.06079 -3.28866 0
M  V30 1770 H 168.276 0.369112 -3.70767 0
M  V30 1771 H 168.389 -1.28148 -4.61644 0
M  V30 1772 H 166.753 -0.587535 -2.47831 0
M  V30 1773 H 167.536 -2.25533 -2.58824 0
M  V30 1774 N 169.982 1.44106 -0.638065 0
M  V30 1775 C 171.229 2.01978 -0.14533 0
M  V30 1776 C 171.557 1.50234 1.23532 0
M  V30 1777 O 170.812 0.679548 1.83523 0
M  V30 1778 C 171.111 3.5729 -0.0887327 0
M  V30 1779 C 170.777 4.28317 -1.40909 0
M  V30 1780 C 169.439 4.47437 -1.77069 0
M  V30 1781 C 171.791 4.6867 -2.28031 0
M  V30 1782 C 169.119 5.04171 -3.00047 0
M  V30 1783 C 171.471 5.26766 -3.50286 0
M  V30 1784 C 170.135 5.44104 -3.86661 0
M  V30 1785 H 169.405 0.739089 -0.0531801 0
M  V30 1786 H 172.052 1.72781 -0.825761 0
M  V30 1787 H 170.357 3.8594 0.675095 0
M  V30 1788 H 172.054 3.99807 0.309145 0
M  V30 1789 H 168.644 4.1377 -1.1177 0
M  V30 1790 H 172.828 4.53604 -2.01388 0
M  V30 1791 H 168.084 5.15782 -3.28298 0
M  V30 1792 H 172.258 5.56983 -4.18023 0
M  V30 1793 H 169.885 5.87832 -4.82034 0
M  V30 1794 N 171.46 0.379036 1.52974 0
M  V30 1795 C 172.685 -0.209353 2.06341 0
M  V30 1796 C 173.11 -1.40583 1.24972 0
M  V30 1797 O 172.468 -1.79246 0.272155 0
M  V30 1798 C 172.516 -0.567786 3.56102 0
M  V30 1799 O 171.62 -1.66318 3.77375 0
M  V30 1800 H 170.961 -0.0272919 0.663439 0
M  V30 1801 H 173.491 0.543536 1.97248 0
M  V30 1802 H 173.501 -0.835003 3.99364 0
M  V30 1803 H 172.176 0.307013 4.14765 0
M  V30 1804 H 170.753 -1.39048 3.46006 0
M  V30 1805 N 172.938 -1.57226 0.108567 0
M  V30 1806 C 174.185 -1.94833 -0.551943 0
M  V30 1807 C 174.513 -0.991204 -1.67348 0
M  V30 1808 O 173.768 -0.0131878 -1.95696 0
M  V30 1809 C 174.067 -3.38911 -1.13463 0
M  V30 1810 C 173.733 -4.50696 -0.135509 0
M  V30 1811 C 172.395 -4.80998 0.139252 0
M  V30 1812 C 174.747 -5.18333 0.545957 0
M  V30 1813 C 172.075 -5.76259 1.10194 0
M  V30 1814 C 174.427 -6.14627 1.49721 0
M  V30 1815 C 173.091 -6.43327 1.78006 0
M  V30 1816 H 172.361 -0.712944 -0.20197 0
M  V30 1817 H 175.008 -1.90582 0.18726 0
M  V30 1818 H 173.313 -3.39805 -1.95037 0
M  V30 1819 H 175.01 -3.65317 -1.65362 0
M  V30 1820 H 171.6 -4.27087 -0.359846 0
M  V30 1821 H 175.784 -4.95087 0.346842 0
M  V30 1822 H 171.04 -5.96804 1.32795 0
M  V30 1823 H 175.214 -6.66126 2.03099 0
M  V30 1824 H 172.841 -7.1695 2.52759 0
M  V30 1825 N 174.416 0.165178 -1.56732 0
M  V30 1826 C 175.346 1.20651 -1.99914 0
M  V30 1827 C 176.327 1.45827 -0.875705 0
M  V30 1828 O 177.512 1.57057 -1.14223 0
M  V30 1829 C 174.642 2.54401 -2.36427 0
M  V30 1830 C 173.596 2.43782 -3.51787 0
M  V30 1831 C 172.922 3.82078 -3.7406 0
M  V30 1832 C 174.222 1.93732 -4.85041 0
M  V30 1833 H 175.916 0.847534 -2.87154 0
M  V30 1834 H 173.462 0.40625 -1.38151 0
M  V30 1835 H 175.415 3.27458 -2.65234 0
M  V30 1836 H 174.139 2.92098 -1.46103 0
M  V30 1837 H 172.798 1.73178 -3.23117 0
M  V30 1838 H 172.446 4.17179 -2.81017 0
M  V30 1839 H 172.146 3.7584 -4.51684 0
M  V30 1840 H 173.67 4.56712 -4.05274 0
M  V30 1841 H 175.084 2.56569 -5.12684 0
M  V30 1842 H 173.481 1.98428 -5.66345 0
M  V30 1843 H 174.551 0.891962 -4.76626 0
M  V30 1844 N 175.894 1.51508 0.433938 0
M  V30 1845 C 177.119 1.68443 1.21003 0
M  V30 1846 C 177.544 0.382636 1.84167 0
M  V30 1847 O 176.902 -0.65755 1.68956 0
M  V30 1848 C 176.95 2.80405 2.26727 0
M  V30 1849 O 176.054 2.44245 3.32292 0
M  V30 1850 H 175.395 0.561536 0.354363 0
M  V30 1851 H 177.925 1.9809 0.512024 0
M  V30 1852 H 177.935 3.0459 2.71457 0
M  V30 1853 H 176.61 3.74867 1.80132 0
M  V30 1854 H 175.187 2.30644 2.93015 0
M  V30 1855 N 177.372 -0.689602 1.41712 0
M  V30 1856 C 178.32 -1.82475 1.44242 0
M  V30 1857 C 179.314 -1.66354 0.319774 0
M  V30 1858 O 180.52 -1.73143 0.492089 0
M  V30 1859 H 176.895 -0.601416 0.451445 0
M  V30 1860 H 178.866 -1.77458 2.39899 0
M  V30 1861 C 177.615 -3.20535 1.3473 0
M  V30 1862 H 176.938 -3.33559 2.20405 0
M  V30 1863 H 178.378 -4.00023 1.40562 0
M  V30 1864 C 176.837 -3.36846 0.0603281 0
M  V30 1865 O 177.367 -3.91656 -0.892663 0
M  V30 1866 N 175.573 -2.90595 -0.0177039 0
M  V30 1867 H 175.12 -2.46178 0.758572 0
M  V30 1868 H 175.078 -3.01886 -0.878201 0
M  V30 1869 N 178.85 -1.27639 -0.924453 0
M  V30 1870 C 180.096 -1.14336 -1.67497 0
M  V30 1871 C 180.429 0.309465 -1.91718 0
M  V30 1872 O 179.704 1.22608 -1.50989 0
M  V30 1873 C 179.987 -1.93096 -3.0395 0
M  V30 1874 C 179.84 -3.46381 -2.8695 0
M  V30 1875 C 181.159 -1.73798 -4.0433 0
M  V30 1876 H 178.278 -0.416728 -0.607871 0
M  V30 1877 H 180.92 -1.56832 -1.07256 0
M  V30 1878 H 179.07 -1.56982 -3.55372 0
M  V30 1879 H 180.742 -3.92343 -2.42621 0
M  V30 1880 H 178.985 -3.72557 -2.22225 0
M  V30 1881 H 179.656 -3.96735 -3.83804 0
M  V30 1882 H 182.132 -2.05293 -3.61931 0
M  V30 1883 H 181.008 -2.31294 -4.97789 0
M  V30 1884 H 181.269 -0.686725 -4.36734 0
M  V30 1885 N 180.328 1.1314 -1.09713 0
M  V30 1886 C 181.275 2.18642 -0.739196 0
M  V30 1887 C 182.245 1.63706 0.280978 0
M  V30 1888 O 183.43 1.90111 0.161946 0
M  V30 1889 C 180.57 3.44685 -0.169102 0
M  V30 1890 C 179.683 4.13711 -1.24367 0
M  V30 1891 C 178.818 5.27379 -0.636019 0
M  V30 1892 C 177.857 5.88259 -1.69169 0
M  V30 1893 N 176.994 6.93352 -1.10485 0
M  V30 1894 H 181.834 2.48607 -1.64312 0
M  V30 1895 H 179.371 1.22066 -0.820875 0
M  V30 1896 H 181.329 4.16815 0.179256 0
M  V30 1897 H 179.959 3.15161 0.698079 0
M  V30 1898 H 179.011 3.39835 -1.70927 0
M  V30 1899 H 180.323 4.55037 -2.04311 0
M  V30 1900 H 179.477 6.06238 -0.236677 0
M  V30 1901 H 178.216 4.8731 0.194928 0
M  V30 1902 H 177.221 5.08092 -2.10055 0
M  V30 1903 H 178.446 6.30399 -2.52536 0
M  V30 1904 H 176.392 6.55335 -0.295234 0
M  V30 1905 H 176.309 7.33236 -1.84121 0
M  V30 1906 H 177.577 7.76057 -0.73181 0
M  V30 1907 N 181.806 0.884767 1.30421 0
M  V30 1908 C 183.036 0.517293 2.00019 0
M  V30 1909 C 183.444 -0.898632 1.66497 0
M  V30 1910 O 182.787 -1.60245 0.898181 0
M  V30 1911 C 182.849 0.612025 3.54252 0
M  V30 1912 C 182.513 1.99222 4.1129 0
M  V30 1913 C 183.51 2.9616 4.273 0
M  V30 1914 C 181.195 2.29755 4.46674 0
M  V30 1915 C 183.189 4.21764 4.77906 0
M  V30 1916 C 180.876 3.55606 4.96979 0
M  V30 1917 C 181.874 4.51425 5.12547 0
M  V30 1918 O 181.562 5.75043 5.61766 0
M  V30 1919 H 181.294 0.198529 0.64619 0
M  V30 1920 H 183.848 1.1919 1.67281 0
M  V30 1921 H 182.078 -0.119561 3.86515 0
M  V30 1922 H 183.767 0.255859 4.05093 0
M  V30 1923 H 184.533 2.73882 4.00267 0
M  V30 1924 H 180.412 1.55942 4.33824 0
M  V30 1925 H 183.956 4.96561 4.89972 0
M  V30 1926 H 179.853 3.7772 5.23448 0
M  V30 1927 H 180.621 5.77422 5.80109 0
M  V30 1928 N 183.284 -1.43765 0.645699 0
M  V30 1929 C 184.232 -2.32516 -0.0624849 0
M  V30 1930 C 185.226 -1.48183 -0.820855 0
M  V30 1931 O 186.432 -1.64439 -0.732106 0
M  V30 1932 H 182.807 -0.750989 -0.0389864 0
M  V30 1933 H 184.778 -2.89979 0.703892 0
M  V30 1934 C 183.527 -3.32389 -1.02044 0
M  V30 1935 H 182.85 -3.97301 -0.446312 0
M  V30 1936 H 184.29 -3.97138 -1.48517 0
M  V30 1937 C 182.749 -2.62416 -2.11281 0
M  V30 1938 O 183.279 -2.434 -3.19561 0
M  V30 1939 N 181.485 -2.21913 -1.87624 0
M  V30 1940 H 181.032 -2.37578 -0.995703 0
M  V30 1941 H 180.99 -1.75424 -2.6091 0
M  V30 1942 N 184.763 -0.387143 -1.52771 0
M  V30 1943 C 186.01 0.195735 -2.01552 0
M  V30 1944 C 186.338 1.46995 -1.27369 0
M  V30 1945 O 185.593 1.92325 -0.361879 0
M  V30 1946 C 185.892 0.512209 -3.53711 0
M  V30 1947 C 185.558 -0.670202 -4.45891 0
M  V30 1948 C 184.22 -0.994586 -4.70809 0
M  V30 1949 C 186.572 -1.46134 -5.00294 0
M  V30 1950 C 183.9 -2.11169 -5.4738 0
M  V30 1951 C 186.252 -2.56903 -5.78086 0
M  V30 1952 C 184.916 -2.89852 -6.01284 0
M  V30 1953 H 184.186 0.0716246 -0.73753 0
M  V30 1954 H 186.833 -0.524046 -1.8419 0
M  V30 1955 H 185.138 1.31329 -3.69134 0
M  V30 1956 H 186.835 0.975804 -3.88946 0
M  V30 1957 H 183.425 -0.407366 -4.2666 0
M  V30 1958 H 187.609 -1.22397 -4.80971 0
M  V30 1959 H 182.865 -2.3707 -5.63567 0
M  V30 1960 H 187.039 -3.18608 -6.19243 0
M  V30 1961 H 184.666 -3.76533 -6.60399 0
M  V30 1962 N 186.241 1.57166 -0.116904 0
M  V30 1963 C 187.174 2.10912 0.871291 0
M  V30 1964 C 188.152 1.025 1.26224 0
M  V30 1965 O 189.336 1.3014 1.36366 0
M  V30 1966 C 186.463 2.6041 2.16574 0
M  V30 1967 C 185.509 3.80687 1.92302 0
M  V30 1968 S 186.342 5.23199 1.14119 0
M  V30 1969 C 187.498 5.76064 2.44748 0
M  V30 1970 H 187.731 2.94401 0.414138 0
M  V30 1971 H 185.264 1.54096 0.096829 0
M  V30 1972 H 187.222 2.89583 2.9095 0
M  V30 1973 H 185.883 1.77106 2.59408 0
M  V30 1974 H 185.076 4.13462 2.8821 0
M  V30 1975 H 184.678 3.5212 1.26047 0
M  V30 1976 H 186.97 5.8566 3.406 0
M  V30 1977 H 187.913 6.74184 2.16521 0
M  V30 1978 H 188.321 5.04117 2.54019 0
M  V30 1979 N 187.719 -0.156864 1.56817 0
M  V30 1980 C 189.135 -0.50916 1.5126 0
M  V30 1981 C 189.335 -1.83897 0.823658 0
M  V30 1982 O 188.391 -2.49469 0.390055 0
M  V30 1983 C 189.704 -0.52857 2.96018 0
M  V30 1984 C 191.252 -0.614771 3.06903 0
M  V30 1985 C 191.727 -0.664938 4.53147 0
M  V30 1986 N 193.218 -0.727433 4.57452 0
M  V30 1987 C 193.953 -0.787067 5.67973 0
M  V30 1988 N 193.449 -0.806649 6.88088 0
M  V30 1989 N 195.242 -0.827195 5.5598 0
M  V30 1990 H 187.393 0.714935 2.00006 0
M  V30 1991 H 189.656 0.259526 0.911784 0
M  V30 1992 H 189.362 0.380154 3.49639 0
M  V30 1993 H 189.236 -1.36998 3.51442 0
M  V30 1994 H 191.623 -1.51392 2.53307 0
M  V30 1995 H 191.704 0.253597 2.5454 0
M  V30 1996 H 191.348 0.230011 5.07379 0
M  V30 1997 H 191.278 -1.54966 5.03282 0
M  V30 1998 H 193.769 -0.719998 3.70978 0
M  V30 1999 H 194.082 -0.853727 7.6807 0
M  V30 2000 H 192.427 -0.774687 6.90669 0
M  V30 2001 H 195.618 -0.808998 4.61056 0
M  V30 2002 H 195.791 -0.870206 6.4213 0
M  V30 2003 N 189.197 -1.51736 -0.425897 0
M  V30 2004 C 190.446 -1.64201 -1.17136 0
M  V30 2005 C 190.759 -0.369705 -1.92074 0
M  V30 2006 O 191.965 -0.373898 -2.68913 0
M  V30 2007 C 190.421 -2.90035 -2.13091 0
M  V30 2008 C 190.029 -4.24312 -1.43747 0
M  V30 2009 C 191.773 -3.1186 -2.87999 0
M  V30 2010 C 189.68 -5.41285 -2.38253 0
M  V30 2011 H 188.61 -0.611624 -0.440944 0
M  V30 2012 H 191.261 -1.78212 -0.437328 0
M  V30 2013 H 189.643 -2.69684 -2.89977 0
M  V30 2014 H 190.817 -4.55086 -0.723408 0
M  V30 2015 H 189.132 -4.08456 -0.809465 0
M  V30 2016 H 191.729 -3.96427 -3.58817 0
M  V30 2017 H 192.072 -2.25403 -3.49999 0
M  V30 2018 H 192.605 -3.32605 -2.18217 0
M  V30 2019 H 189.344 -6.30037 -1.80925 0
M  V30 2020 H 188.864 -5.14872 -3.0768 0
M  V30 2021 H 190.543 -5.73694 -2.99139 0
M  V30 2022 N 190.675 0.682077 -1.42076 0
M  V30 2023 C 191.924 1.43786 -1.41451 0
M  V30 2024 C 192.237 1.95574 -0.0317074 0
M  V30 2025 O 193.443 2.71326 0.0971462 0
M  V30 2026 C 191.899 2.60071 -2.48779 0
M  V30 2027 C 191.507 2.15013 -3.93031 0
M  V30 2028 C 193.251 3.37626 -2.57311 0
M  V30 2029 C 191.158 3.28336 -4.91883 0
M  V30 2030 H 190.088 0.540143 -0.526082 0
M  V30 2031 H 192.739 0.739157 -1.67955 0
M  V30 2032 H 191.121 3.32275 -2.15429 0
M  V30 2033 H 192.295 1.5001 -4.35699 0
M  V30 2034 H 190.61 1.50416 -3.88284 0
M  V30 2035 H 193.207 4.22012 -3.28345 0
M  V30 2036 H 193.55 3.83727 -1.61429 0
M  V30 2037 H 194.083 2.72488 -2.89819 0
M  V30 2038 H 190.822 2.87234 -5.89217 0
M  V30 2039 H 190.342 3.92145 -4.53853 0
M  V30 2040 H 192.021 3.93913 -5.13265 0
M  V30 2041 N 192.153 1.28127 0.917671 0
M  V30 2042 C 193.1 1.11717 2.0196 0
M  V30 2043 C 194.07 0.0153929 1.66093 0
M  V30 2044 O 195.255 0.179596 1.89953 0
M  V30 2045 C 192.395 0.780927 3.36148 0
M  V30 2046 C 191.508 1.96135 3.84909 0
M  V30 2047 C 190.643 1.56609 5.0759 0
M  V30 2048 C 189.682 2.71339 5.48673 0
M  V30 2049 N 188.819 2.32332 6.62545 0
M  V30 2050 H 193.659 2.06003 2.15329 0
M  V30 2051 H 191.196 1.02535 1.05475 0
M  V30 2052 H 193.154 0.56675 4.13333 0
M  V30 2053 H 191.784 -0.124998 3.22558 0
M  V30 2054 H 190.836 2.28777 3.03916 0
M  V30 2055 H 192.148 2.82165 4.1132 0
M  V30 2056 H 191.302 1.31374 5.92305 0
M  V30 2057 H 190.041 0.677014 4.82978 0
M  V30 2058 H 189.046 2.97276 4.62501 0
M  V30 2059 H 190.271 3.60882 5.75274 0
M  V30 2060 H 188.217 1.45889 6.39572 0
M  V30 2061 H 188.134 3.11899 6.88662 0
M  V30 2062 H 189.402 2.10371 7.50576 0
M  V30 2063 N 193.631 -1.12557 1.10312 0
M  V30 2064 C 194.861 -1.87592 0.865617 0
M  V30 2065 C 195.269 -1.79851 -0.587389 0
M  V30 2066 O 194.612 -1.16949 -1.41664 0
M  V30 2067 C 194.674 -3.37665 1.23381 0
M  V30 2068 C 194.338 -3.69181 2.69359 0
M  V30 2069 C 195.335 -3.67652 3.67597 0
M  V30 2070 C 193.02 -3.98555 3.05711 0
M  V30 2071 C 195.014 -3.95053 5.00212 0
M  V30 2072 C 192.701 -4.25616 4.38514 0
M  V30 2073 C 193.699 -4.23851 5.35574 0
M  V30 2074 O 193.387 -4.50242 6.65986 0
M  V30 2075 H 193.119 -0.600442 0.310557 0
M  V30 2076 H 195.673 -1.4335 1.47105 0
M  V30 2077 H 193.903 -3.82454 0.571467 0
M  V30 2078 H 195.592 -3.94041 0.973994 0
M  V30 2079 H 196.358 -3.45024 3.40857 0
M  V30 2080 H 192.237 -3.99071 2.30789 0
M  V30 2081 H 195.781 -3.93591 5.75962 0
M  V30 2082 H 191.678 -4.47718 4.64994 0
M  V30 2083 H 192.446 -4.67867 6.71597 0
M  V30 2084 N 195.109 -0.891671 -1.2995 0
M  V30 2085 C 196.019 -0.367691 -2.31701 0
M  V30 2086 C 197.035 0.533486 -1.6562 0
M  V30 2087 O 198.211 0.424997 -1.96865 0
M  V30 2088 C 195.276 0.403406 -3.44345 0
M  V30 2089 C 194.337 -0.528328 -4.26037 0
M  V30 2090 C 193.57 0.206063 -5.33302 0
M  V30 2091 O 193.793 1.43119 -5.52153 0
M  V30 2092 O 192.727 -0.447281 -6.00236 0
M  V30 2093 H 196.553 -1.21163 -2.78484 0
M  V30 2094 H 194.138 -0.655725 -1.34241 0
M  V30 2095 H 196.02 0.839753 -4.12948 0
M  V30 2096 H 194.695 1.22354 -2.99685 0
M  V30 2097 H 193.602 -1.01362 -3.60106 0
M  V30 2098 H 194.935 -1.31465 -4.74318 0
M  V30 2099 N 196.587 1.43421 -0.653314 0
M  V30 2100 C 197.834 2.01812 -0.166745 0
M  V30 2101 C 198.162 1.51535 1.21931 0
M  V30 2102 O 197.417 0.698975 1.82792 0
M  V30 2103 C 197.716 3.57176 -0.126623 0
M  V30 2104 C 197.382 4.26798 -1.45444 0
M  V30 2105 C 196.044 4.45534 -1.81805 0
M  V30 2106 C 198.396 4.66225 -2.32989 0
M  V30 2107 C 195.724 5.00961 -3.05377 0
M  V30 2108 C 198.076 5.23021 -3.55853 0
M  V30 2109 C 196.74 5.39973 -3.9241 0
M  V30 2110 H 196.01 0.738484 -0.0610162 0
M  V30 2111 H 198.657 1.71896 -0.84404 0
M  V30 2112 H 196.962 3.86634 0.634123 0
M  V30 2113 H 198.659 4.00112 0.266723 0
M  V30 2114 H 195.249 4.12561 -1.16153 0
M  V30 2115 H 199.433 4.51443 -2.06187 0
M  V30 2116 H 194.689 5.12271 -3.3375 0
M  V30 2117 H 198.863 5.52518 -4.23907 0
M  V30 2118 H 196.49 5.82687 -4.88242 0
M  V30 2119 N 198.065 0.39524 1.52563 0
M  V30 2120 C 199.314 -0.186321 2.00838 0
M  V30 2121 C 199.627 -1.47402 1.28577 0
M  V30 2122 O 200.833 -2.13599 1.67593 0
M  V30 2123 C 199.289 -0.382595 3.57861 0
M  V30 2124 C 198.897 0.892202 4.39026 0
M  V30 2125 C 200.641 -0.9202 4.14406 0
M  V30 2126 C 198.548 0.66388 5.87662 0
M  V30 2127 H 197.478 -0.0734041 0.750418 0
M  V30 2128 H 200.129 0.518552 1.76021 0
M  V30 2129 H 198.511 -1.14946 3.7895 0
M  V30 2130 H 199.685 1.66414 4.29701 0
M  V30 2131 H 198 1.35519 3.9373 0
M  V30 2132 H 200.597 -1.10683 5.23119 0
M  V30 2133 H 200.94 -1.89096 3.70875 0
M  V30 2134 H 201.473 -0.212751 3.97231 0
M  V30 2135 H 198.212 1.6058 6.35527 0
M  V30 2136 H 197.732 -0.0690193 5.9976 0
M  V30 2137 H 199.411 0.300699 6.46301 0
M  V30 2138 N 199.544 -1.57102 0.125237 0
M  V30 2139 C 200.474 -2.18659 -0.819174 0
M  V30 2140 C 201.455 -1.12843 -1.27281 0
M  V30 2141 O 202.64 -1.41104 -1.33429 0
M  V30 2142 C 199.77 -2.79096 -2.06695 0
M  V30 2143 C 198.724 -3.90548 -1.75088 0
M  V30 2144 C 198.05 -4.37821 -3.06948 0
M  V30 2145 C 199.35 -5.12356 -1.01435 0
M  V30 2146 H 201.044 -2.9783 -0.306202 0
M  V30 2147 H 198.59 -1.4326 -0.145839 0
M  V30 2148 H 200.543 -3.2082 -2.73226 0
M  V30 2149 H 199.267 -1.97223 -2.60328 0
M  V30 2150 H 197.926 -3.49409 -1.10944 0
M  V30 2151 H 197.574 -3.52799 -3.58527 0
M  V30 2152 H 197.274 -5.12982 -2.86571 0
M  V30 2153 H 198.798 -4.822 -3.74587 0
M  V30 2154 H 200.212 -5.5106 -1.58132 0
M  V30 2155 H 198.609 -5.9314 -0.911319 0
M  V30 2156 H 199.679 -4.849 -0.00218681 0
M  V30 2157 N 201.022 0.148545 -1.56898 0
M  V30 2158 C 201.97 1.20265 -1.99096 0
M  V30 2159 C 202.964 1.44559 -0.883123 0
M  V30 2160 O 204.17 1.4487 -1.0683 0
M  V30 2161 H 200.545 0.404786 -0.63376 0
M  V30 2162 H 202.516 0.82004 -2.86911 0
M  V30 2163 C 201.265 2.52886 -2.3863 0
M  V30 2164 H 200.588 2.35021 -3.23427 0
M  V30 2165 H 202.028 3.25274 -2.7198 0
M  V30 2166 C 200.487 3.13315 -1.23837 0
M  V30 2167 O 201.017 3.98077 -0.538268 0
M  V30 2168 N 199.223 2.72742 -1.00301 0
M  V30 2169 H 198.77 2.03912 -1.5741 0
M  V30 2170 H 198.728 3.13507 -0.236838 0
M  V30 2171 N 202.5 1.5196 0.417844 0
M  V30 2172 C 203.777 1.56146 1.17803 0
M  V30 2173 C 204.157 0.337275 2.08388 0
M  V30 2174 O 203.505 -0.676447 2.18258 0
M  V30 2175 C 203.715 2.88566 1.96293 0
M  V30 2176 C 205.063 3.41244 2.52662 0
M  V30 2177 O 206.087 2.90247 2.06483 0
M  V30 2178 O 204.946 4.30273 3.36938 0
M  V30 2179 H 202.04 0.628598 0.537395 0
M  V30 2180 H 204.586 1.64283 0.425331 0
M  V30 2181 H 203.358 3.69116 1.2988 0
M  V30 2182 H 202.981 2.83681 2.78587 0
M  V30 2183 N 203.978 -0.674533 1.42435 0
M  V30 2184 C 204.941 -1.76986 1.45632 0
M  V30 2185 C 205.941 -1.5708 0.343871 0
M  V30 2186 O 207.131 -1.63367 0.604709 0
M  V30 2187 C 204.263 -3.15623 1.28822 0
M  V30 2188 H 205.456 -1.75539 2.43158 0
M  V30 2189 H 203.009 -0.884189 1.28887 0
M  V30 2190 H 203.744 -3.22696 0.322193 0
M  V30 2191 H 203.529 -3.31475 2.09444 0
M  V30 2192 H 205.019 -3.95537 1.33942 0
M  V30 2193 N 205.456 -1.28612 -0.910864 0
M  V30 2194 C 206.386 -1.15326 -2.03032 0
M  V30 2195 C 207.367 -0.0502924 -1.70026 0
M  V30 2196 O 208.552 -0.227797 -1.92859 0
M  V30 2197 C 205.682 -0.817343 -3.37545 0
M  V30 2198 C 204.636 -1.8754 -3.84724 0
M  V30 2199 C 203.962 -1.39305 -5.16235 0
M  V30 2200 C 205.262 -3.28244 -4.06267 0
M  V30 2201 H 206.956 -2.08975 -2.14406 0
M  V30 2202 H 204.502 -1.00612 -1.03021 0
M  V30 2203 H 206.455 -0.711151 -4.15356 0
M  V30 2204 H 205.179 0.154846 -3.26233 0
M  V30 2205 H 203.838 -1.97079 -3.09121 0
M  V30 2206 H 203.486 -0.409846 -5.01328 0
M  V30 2207 H 203.186 -2.10057 -5.48771 0
M  V30 2208 H 204.71 -1.30014 -5.96598 0
M  V30 2209 H 206.124 -3.21611 -4.74594 0
M  V30 2210 H 204.521 -3.96855 -4.5014 0
M  V30 2211 H 205.591 -3.72048 -3.10979 0
M  V30 2212 N 206.934 1.1197 -1.10907 0
M  V30 2213 C 207.882 2.19927 -0.757303 0
M  V30 2214 C 208.876 1.67564 0.248747 0
M  V30 2215 O 210.082 1.79672 0.108605 0
M  V30 2216 H 206.457 0.716925 -0.226987 0
M  V30 2217 H 208.428 2.46847 -1.67658 0
M  V30 2218 C 207.177 3.47061 -0.210671 0
M  V30 2219 H 206.5 3.87703 -0.976049 0
M  V30 2220 H 207.94 4.24 -0.0026584 0
M  V30 2221 C 206.399 3.19864 1.05777 0
M  V30 2222 O 206.929 3.40049 2.13845 0
M  V30 2223 N 205.135 2.73636 0.978349 0
M  V30 2224 H 204.682 2.5741 0.0988246 0
M  V30 2225 H 204.64 2.55815 1.82773 0
M  V30 2226 N 208.412 0.89855 1.29475 0
M  V30 2227 C 209.344 0.332726 2.26772 0
M  V30 2228 C 210.357 -0.520323 1.54261 0
M  V30 2229 O 211.546 -0.337668 1.75277 0
M  V30 2230 C 208.646 -0.544334 3.345 0
M  V30 2231 C 207.819 0.282728 4.36485 0
M  V30 2232 C 206.878 -0.526982 5.23555 0
M  V30 2233 O 205.904 0.0551165 5.69173 0
M  V30 2234 N 207.106 -1.83331 5.5079 0
M  V30 2235 H 209.871 1.16897 2.75962 0
M  V30 2236 H 207.432 0.762919 1.42798 0
M  V30 2237 H 209.424 -1.09239 3.89678 0
M  V30 2238 H 207.994 -1.28127 2.85136 0
M  V30 2239 H 207.214 1.01221 3.80983 0
M  V30 2240 H 208.502 0.84918 5.01664 0
M  V30 2241 H 207.9 -2.32898 5.15534 0
M  V30 2242 H 206.457 -2.32852 6.08788 0
M  V30 2243 N 209.89 -1.43072 0.660911 0
M  V30 2244 C 211.115 -2.06584 0.183805 0
M  V30 2245 C 211.54 -1.49257 -1.14472 0
M  V30 2246 O 210.898 -0.605528 -1.70889 0
M  V30 2247 C 210.946 -3.60418 0.114434 0
M  V30 2248 O 210.05 -4.01981 -0.921137 0
M  V30 2249 H 209.391 -0.656669 0.0983994 0
M  V30 2250 H 211.921 -1.83447 0.906006 0
M  V30 2251 H 211.931 -4.07946 -0.0663394 0
M  V30 2252 H 210.606 -4.01519 1.08422 0
M  V30 2253 H 209.183 -3.66029 -0.71253 0
M  V30 2254 N 211.368 -0.403325 -1.52352 0
M  V30 2255 C 212.617 0.175668 -2.00934 0
M  V30 2256 C 212.93 1.46718 -1.29356 0
M  V30 2257 O 214.136 2.12708 -1.68724 0
M  V30 2258 C 212.592 0.363612 -3.58058 0
M  V30 2259 C 212.2 -0.915472 -4.38547 0
M  V30 2260 C 213.944 0.89821 -4.14888 0
M  V30 2261 C 211.851 -0.695035 -5.87302 0
M  V30 2262 H 210.781 0.0694234 -0.750797 0
M  V30 2263 H 213.432 -0.527879 -1.75743 0
M  V30 2264 H 211.814 1.12935 -3.79555 0
M  V30 2265 H 212.988 -1.68691 -4.28812 0
M  V30 2266 H 211.303 -1.37606 -3.93006 0
M  V30 2267 H 213.9 1.07907 -5.23699 0
M  V30 2268 H 214.243 1.87126 -3.71873 0
M  V30 2269 H 214.776 0.191681 -3.97338 0
M  V30 2270 H 211.515 -1.63948 -6.34666 0
M  V30 2271 H 211.035 0.0372116 -5.99788 0
M  V30 2272 H 212.714 -0.33497 -6.46132 0
M  V30 2273 N 212.846 1.57033 -0.133567 0
M  V30 2274 C 214.095 1.94861 0.520768 0
M  V30 2275 C 214.408 1.02012 1.66892 0
M  V30 2276 O 215.614 1.29365 2.38699 0
M  V30 2277 C 214.07 3.46362 0.977809 0
M  V30 2278 C 213.678 4.47773 -0.142674 0
M  V30 2279 C 215.422 3.93083 1.60269 0
M  V30 2280 C 213.329 5.90468 0.331883 0
M  V30 2281 H 212.259 0.727453 0.198315 0
M  V30 2282 H 214.91 1.82227 -0.215759 0
M  V30 2283 H 213.292 3.54282 1.7692 0
M  V30 2284 H 214.466 4.51536 -0.919317 0
M  V30 2285 H 212.781 4.10891 -0.675124 0
M  V30 2286 H 215.378 4.97121 1.96914 0
M  V30 2287 H 215.721 3.33876 2.48662 0
M  V30 2288 H 216.254 3.88025 0.876453 0
M  V30 2289 H 212.993 6.53463 -0.516341 0
M  V30 2290 H 212.513 5.90094 1.07469 0
M  V30 2291 H 214.192 6.42179 0.788332 0
M  V30 2292 N 214.325 -0.140222 1.56975 0
M  V30 2293 C 215.741 -0.493088 1.51792 0
M  V30 2294 C 215.941 -1.83013 0.843116 0
M  V30 2295 O 214.997 -2.49041 0.416493 0
M  V30 2296 C 216.31 -0.497144 2.96562 0
M  V30 2297 C 217.858 -0.582186 3.07538 0
M  V30 2298 C 218.333 -0.616838 4.53827 0
M  V30 2299 N 219.824 -0.678873 4.58198 0
M  V30 2300 C 220.559 -0.726782 5.68775 0
M  V30 2301 N 220.055 -0.733623 6.88905 0
M  V30 2302 N 221.848 -0.768179 5.56826 0
M  V30 2303 H 213.999 0.736108 1.99237 0
M  V30 2304 H 216.262 0.269182 0.90898 0
M  V30 2305 H 215.968 0.417217 3.49217 0
M  V30 2306 H 215.842 -1.33263 3.52875 0
M  V30 2307 H 218.229 -1.48697 2.54899 0
M  V30 2308 H 218.31 0.280581 2.54257 0
M  V30 2309 H 217.954 0.283812 5.07106 0
M  V30 2310 H 217.884 -1.49619 5.04898 0
M  V30 2311 H 220.375 -0.68061 3.7172 0
M  V30 2312 H 220.688 -0.772215 7.68932 0
M  V30 2313 H 219.033 -0.701389 6.91452 0
M  V30 2314 H 222.224 -0.760051 4.61888 0
M  V30 2315 H 222.397 -0.80205 6.43017 0
M  V30 2316 N 215.803 -1.52179 -0.40978 0
M  V30 2317 C 216.766 -1.74853 -1.48186 0
M  V30 2318 C 217.766 -0.618417 -1.48433 0
M  V30 2319 O 218.956 -0.886286 -1.49969 0
M  V30 2320 C 216.088 -1.8303 -2.87598 0
M  V30 2321 H 217.281 -2.70559 -1.29374 0
M  V30 2322 H 214.834 -1.42586 -0.640233 0
M  V30 2323 H 215.569 -0.89236 -3.11781 0
M  V30 2324 H 215.354 -2.65187 -2.88822 0
M  V30 2325 H 216.844 -2.02316 -3.65319 0
M  V30 2326 N 217.281 0.66697 -1.42791 0
M  V30 2327 C 218.229 1.80157 -1.47127 0
M  V30 2328 C 219.223 1.65825 -0.346199 0
M  V30 2329 O 220.429 1.72338 -0.519572 0
M  V30 2330 H 216.804 0.594158 -0.460956 0
M  V30 2331 H 218.775 1.73619 -2.42692 0
M  V30 2332 C 217.524 3.18351 -1.39813 0
M  V30 2333 H 216.847 3.3001 -2.25684 0
M  V30 2334 H 218.287 3.97736 -1.46908 0
M  V30 2335 C 216.746 3.36707 -0.11391 0
M  V30 2336 O 217.276 3.93027 0.830241 0
M  V30 2337 N 215.482 2.90586 -0.0285295 0
M  V30 2338 H 215.029 2.4494 -0.79764 0
M  V30 2339 H 214.987 3.03245 0.830063 0
M  V30 2340 N 218.759 1.29093 0.90403 0
M  V30 2341 C 220.036 1.075 1.63411 0
M  V30 2342 C 220.416 -0.382346 2.07609 0
M  V30 2343 O 219.764 -1.37031 1.82851 0
M  V30 2344 C 219.974 2.05858 2.81822 0
M  V30 2345 C 221.322 2.36539 3.52611 0
M  V30 2346 O 222.346 2.04019 2.91984 0
M  V30 2347 O 221.205 2.92085 4.61897 0
M  V30 2348 H 218.299 0.411547 0.717327 0
M  V30 2349 H 220.845 1.40449 0.952479 0
M  V30 2350 H 219.617 3.04037 2.46327 0
M  V30 2351 H 219.24 1.73613 3.57693 0
M  V30 2352 N 220.237 -1.11381 1.11499 0
M  V30 2353 C 221.169 -2.17207 0.731704 0
M  V30 2354 C 222.182 -1.61066 -0.236957 0
M  V30 2355 O 223.371 -1.78489 -0.0197591 0
M  V30 2356 C 220.471 -3.38846 0.0607624 0
M  V30 2357 C 219.644 -4.24451 1.0564 0
M  V30 2358 C 218.703 -5.24562 0.4149 0
M  V30 2359 O 217.729 -5.59071 1.069 0
M  V30 2360 N 218.931 -5.74651 -0.821943 0
M  V30 2361 H 221.696 -2.50699 1.64225 0
M  V30 2362 H 219.257 -1.26908 1.00529 0
M  V30 2363 H 221.249 -4.02911 -0.380139 0
M  V30 2364 H 219.819 -3.03411 -0.752376 0
M  V30 2365 H 219.039 -3.56833 1.67524 0
M  V30 2366 H 220.327 -4.78486 1.72998 0
M  V30 2367 H 219.725 -5.48797 -1.37252 0
M  V30 2368 H 218.282 -6.40549 -1.20582 0
M  V30 2369 N 221.715 -0.905404 -1.28997 0
M  V30 2370 C 222.945 -0.549049 -1.99171 0
M  V30 2371 C 223.353 0.87203 -1.67906 0
M  V30 2372 O 222.696 1.58796 -0.923561 0
M  V30 2373 C 222.758 -0.668306 -3.53234 0
M  V30 2374 C 222.422 -2.0574 -4.08069 0
M  V30 2375 C 223.419 -3.0292 -4.22534 0
M  V30 2376 C 221.104 -2.36833 -4.42962 0
M  V30 2377 C 223.098 -4.29314 -4.71135 0
M  V30 2378 C 220.785 -3.63467 -4.91258 0
M  V30 2379 C 221.783 -4.59522 -5.053 0
M  V30 2380 O 221.471 -5.83907 -5.52546 0
M  V30 2381 H 221.203 -0.208784 -0.64295 0
M  V30 2382 H 223.757 -1.21836 -1.65363 0
M  V30 2383 H 221.987 0.0580547 -3.86656 0
M  V30 2384 H 223.676 -0.320273 -4.04634 0
M  V30 2385 H 224.442 -2.80216 -3.95859 0
M  V30 2386 H 220.321 -1.62824 -4.31288 0
M  V30 2387 H 223.865 -5.04293 -4.8201 0
M  V30 2388 H 219.762 -3.86 -5.17372 0
M  V30 2389 H 220.53 -5.86578 -5.70849 0
M  V30 2390 N 223.193 1.4272 -0.668489 0
M  V30 2391 C 224.123 2.335 -0.000100175 0
M  V30 2392 C 225.104 1.50328 0.795964 0
M  V30 2393 O 226.289 1.78949 0.754385 0
M  V30 2394 C 223.419 3.33874 0.956302 0
M  V30 2395 C 222.373 4.27152 0.269278 0
M  V30 2396 C 221.699 5.17684 1.33818 0
M  V30 2397 C 222.999 5.15373 -0.847805 0
M  V30 2398 H 224.693 2.89639 -0.758244 0
M  V30 2399 H 222.239 1.39269 -0.366079 0
M  V30 2400 H 224.192 3.9629 1.43292 0
M  V30 2401 H 222.916 2.76025 1.74579 0
M  V30 2402 H 221.575 3.66123 -0.187042 0
M  V30 2403 H 221.223 4.56165 2.1195 0
M  V30 2404 H 220.923 5.80918 0.883659 0
M  V30 2405 H 222.447 5.82974 1.81586 0
M  V30 2406 H 223.861 5.7151 -0.452681 0
M  V30 2407 H 222.258 5.87407 -1.22773 0
M  V30 2408 H 223.328 4.5415 -1.69929 0
M  V30 2409 N 224.671 0.411399 1.52136 0
M  V30 2410 C 225.899 -0.163076 2.06256 0
M  V30 2411 C 226.314 -1.3867 1.28125 0
M  V30 2412 O 225.671 -1.79423 0.333721 0
M  V30 2413 C 225.722 -0.511252 3.57867 0
M  V30 2414 O 225.443 0.66378 4.33042 0
M  V30 2415 C 226.944 -1.13921 4.28412 0
M  V30 2416 H 224.164 -0.0193897 0.67072 0
M  V30 2417 H 226.708 0.583007 1.96013 0
M  V30 2418 H 224.863 -1.20723 3.6811 0
M  V30 2419 H 225.277 0.372601 5.23175 0
M  V30 2420 H 226.751 -1.33302 5.35663 0
M  V30 2421 H 227.228 -2.11296 3.85033 0
M  V30 2422 H 227.834 -0.483373 4.22544 0
M  V30 2423 N 226.149 -1.5696 0.141893 0
M  V30 2424 C 227.112 -2.15316 -0.785587 0
M  V30 2425 C 228.112 -1.09366 -1.1788 0
M  V30 2426 O 229.302 -1.35031 -1.10056 0
M  V30 2427 C 226.434 -2.71211 -2.06537 0
M  V30 2428 H 227.627 -2.98608 -0.278041 0
M  V30 2429 H 225.18 -1.5593 -0.107519 0
M  V30 2430 H 225.915 -1.91571 -2.6167 0
M  V30 2431 H 225.7 -3.4872 -1.79268 0
M  V30 2432 H 227.19 -3.16189 -2.72789 0
M  V30 2433 N 227.627 0.131896 -1.57047 0
M  V30 2434 C 228.59 1.14638 -1.98471 0
M  V30 2435 C 229.59 1.35029 -0.873148 0
M  V30 2436 O 230.78 1.31764 -1.13946 0
M  V30 2437 C 227.912 2.50358 -2.31373 0
M  V30 2438 H 229.105 0.79064 -2.8929 0
M  V30 2439 H 226.658 0.375761 -1.51716 0
M  V30 2440 H 227.393 2.90876 -1.43393 0
M  V30 2441 H 227.178 2.36915 -3.12432 0
M  V30 2442 H 228.668 3.23395 -2.64207 0
M  V30 2443 N 229.106 1.52395 0.401703 0
M  V30 2444 C 230.069 1.75636 1.47257 0
M  V30 2445 C 231.069 0.62628 1.48103 0
M  V30 2446 O 232.259 0.894227 1.49497 0
M  V30 2447 C 229.391 1.84553 2.86624 0
M  V30 2448 H 230.584 2.71241 1.27938 0
M  V30 2449 H 228.137 1.42923 0.632662 0
M  V30 2450 H 228.872 0.908882 3.11303 0
M  V30 2451 H 228.657 2.66715 2.87412 0
M  V30 2452 H 230.147 2.04251 3.64241 0
M  V30 2453 N 230.584 -0.659388 1.43143 0
M  V30 2454 C 231.514 -1.78422 1.50625 0
M  V30 2455 C 232.495 -1.66216 0.361443 0
M  V30 2456 O 233.68 -1.85404 0.577834 0
M  V30 2457 C 230.81 -3.16815 1.42287 0
M  V30 2458 C 229.764 -3.43777 2.54954 0
M  V30 2459 C 229.09 -4.81905 2.31671 0
M  V30 2460 C 230.39 -3.39134 3.97222 0
M  V30 2461 H 232.084 -1.72417 2.44771 0
M  V30 2462 H 229.63 -0.828084 1.17808 0
M  V30 2463 H 231.583 -3.95253 1.46127 0
M  V30 2464 H 230.307 -3.23534 0.446435 0
M  V30 2465 H 228.966 -2.67707 2.50457 0
M  V30 2466 H 228.614 -4.85294 1.32284 0
M  V30 2467 H 228.314 -5.00906 3.07192 0
M  V30 2468 H 229.838 -5.62609 2.37284 0
M  V30 2469 H 231.252 -4.07518 4.03239 0
M  V30 2470 H 229.649 -3.69671 4.72719 0
M  V30 2471 H 230.719 -2.37426 4.22797 0
M  V30 2472 N 232.062 -1.29571 -0.897171 0
M  V30 2473 C 233.012 -1.11539 -1.98855 0
M  V30 2474 C 233.996 -0.0340716 -1.60864 0
M  V30 2475 O 235.188 -0.256062 -1.75138 0
M  V30 2476 C 232.317 -0.796603 -3.3393 0
M  V30 2477 C 231.403 -1.91758 -3.78272 0
M  V30 2478 N 231.794 -3.16143 -3.94826 0
M  V30 2479 C 230.092 -1.81119 -4.07568 0
M  V30 2480 C 230.793 -3.89293 -4.32233 0
M  V30 2481 N 229.769 -3.17255 -4.41419 0
M  V30 2482 H 233.571 -2.05894 -2.09726 0
M  V30 2483 H 231.085 -1.20732 -1.08616 0
M  V30 2484 H 233.082 -0.648459 -4.11826 0
M  V30 2485 H 231.742 0.139003 -3.24402 0
M  V30 2486 H 232.753 -3.5157 -3.80288 0
M  V30 2487 H 229.43 -0.948461 -4.06584 0
M  V30 2488 H 230.82 -4.9635 -4.52865 0
M  V30 2489 N 233.54 1.10788 -1.12088 0
M  V30 2490 C 234.488 2.19111 -0.780587 0
M  V30 2491 C 235.482 1.67818 0.230961 0
M  V30 2492 O 236.688 1.79777 0.0895427 0
M  V30 2493 H 233.063 0.714477 -0.234578 0
M  V30 2494 H 235.034 2.45055 -1.70266 0
M  V30 2495 C 233.783 3.46818 -0.24747 0
M  V30 2496 H 233.106 3.86646 -1.01712 0
M  V30 2497 H 234.546 4.23973 -0.0476291 0
M  V30 2498 C 233.005 3.20968 1.02378 0
M  V30 2499 O 233.535 3.42298 2.10226 0
M  V30 2500 N 231.741 2.74658 0.949271 0
M  V30 2501 H 231.288 2.57501 0.0715173 0
M  V30 2502 H 231.246 2.57739 1.80049 0
M  V30 2503 N 235.018 0.912232 1.28515 0
M  V30 2504 C 235.948 0.416403 2.29757 0
M  V30 2505 C 236.929 -0.515194 1.6211 0
M  V30 2506 O 238.114 -0.423253 1.89532 0
M  V30 2507 C 235.244 -0.34572 3.45575 0
M  V30 2508 C 234.198 0.496599 4.25109 0
M  V30 2509 C 233.524 -0.393771 5.33248 0
M  V30 2510 C 234.824 1.75307 4.92001 0
M  V30 2511 H 236.518 1.26249 2.7148 0
M  V30 2512 H 234.064 0.608515 1.30511 0
M  V30 2513 H 236.017 -0.703422 4.15488 0
M  V30 2514 H 234.741 -1.2257 3.02728 0
M  V30 2515 H 233.4 0.8368 3.56922 0
M  V30 2516 H 233.048 -1.27225 4.86644 0
M  V30 2517 H 232.748 0.166209 5.87365 0
M  V30 2518 H 234.272 -0.747389 6.06009 0
M  V30 2519 H 235.686 1.46437 5.54283 0
M  V30 2520 H 234.083 2.25534 5.56106 0
M  V30 2521 H 235.153 2.48176 4.16577 0
M  V30 2522 N 236.496 -1.42363 0.676048 0
M  V30 2523 C 237.773 -1.95183 0.127726 0
M  V30 2524 C 238.153 -1.61641 -1.35777 0
M  V30 2525 O 237.501 -0.913216 -2.09458 0
M  V30 2526 C 237.711 -3.46721 0.398199 0
M  V30 2527 C 239.059 -4.23427 0.315383 0
M  V30 2528 O 240.083 -3.54649 0.332016 0
M  V30 2529 O 238.942 -5.45888 0.25865 0
M  V30 2530 H 236.036 -0.826992 0.00359427 0
M  V30 2531 H 238.582 -1.52184 0.750864 0
M  V30 2532 H 237.354 -3.64344 1.4272 0
M  V30 2533 H 236.977 -3.96769 -0.256885 0
M  V30 2534 N 237.974 -0.419461 -1.51915 0
M  V30 2535 C 238.884 0.407528 -2.31033 0
M  V30 2536 C 239.9 1.04413 -1.3919 0
M  V30 2537 O 241.076 1.0434 -1.72265 0
M  V30 2538 C 238.141 1.50365 -3.12396 0
M  V30 2539 C 237.202 0.889029 -4.19994 0
M  V30 2540 C 236.435 1.93291 -4.97468 0
M  V30 2541 O 236.658 3.15259 -4.75361 0
M  V30 2542 O 235.592 1.53339 -5.8204 0
M  V30 2543 H 239.418 -0.237865 -3.02767 0
M  V30 2544 H 237.003 -0.182413 -1.48282 0
M  V30 2545 H 238.885 2.13975 -3.63032 0
M  V30 2546 H 237.56 2.13345 -2.43445 0
M  V30 2547 H 236.467 0.215353 -3.7348 0
M  V30 2548 H 237.8 0.302991 -4.91267 0
M  V30 2549 N 239.452 1.56882 -0.150215 0
M  V30 2550 C 240.415 2.1573 0.774157 0
M  V30 2551 C 241.415 1.0999 1.17298 0
M  V30 2552 O 242.605 1.35613 1.09338 0
M  V30 2553 C 239.737 2.72302 2.05096 0
M  V30 2554 H 240.93 2.98752 0.262201 0
M  V30 2555 H 238.483 1.55985 0.099248 0
M  V30 2556 H 239.218 1.92956 2.6065 0
M  V30 2557 H 239.003 3.49665 1.77416 0
M  V30 2558 H 240.493 3.17632 2.71109 0
M  V30 2559 N 240.93 -0.123565 1.57115 0
M  V30 2560 C 242.176 -0.833386 1.84885 0
M  V30 2561 C 242.509 -1.79742 0.735292 0
M  V30 2562 O 241.784 -1.92764 -0.25925 0
M  V30 2563 C 242.067 -1.5873 3.23228 0
M  V30 2564 C 241.92 -0.643183 4.45178 0
M  V30 2565 C 243.239 -2.54453 3.59085 0
M  V30 2566 H 240.358 -0.301518 0.6725 0
M  V30 2567 H 243 -0.097778 1.89748 0
M  V30 2568 H 241.15 -2.21438 3.19214 0
M  V30 2569 H 242.822 -0.0253015 4.61293 0
M  V30 2570 H 241.065 0.0456139 4.33776 0
M  V30 2571 H 241.736 -1.20724 5.38637 0
M  V30 2572 H 244.212 -2.01853 3.63861 0
M  V30 2573 H 243.088 -3.04238 4.5687 0
M  V30 2574 H 243.349 -3.36906 2.86264 0
M  V30 2575 N 242.408 -1.52605 -0.393616 0
M  V30 2576 C 243.355 -1.77055 -1.48054 0
M  V30 2577 C 244.325 -0.61358 -1.54352 0
M  V30 2578 O 245.51 -0.852806 -1.70681 0
M  V30 2579 C 242.65 -1.94108 -2.85335 0
M  V30 2580 C 241.763 -3.21792 -2.88226 0
M  V30 2581 C 240.898 -3.29188 -4.16904 0
M  V30 2582 C 239.937 -4.51013 -4.13828 0
M  V30 2583 N 239.074 -4.55716 -5.34105 0
M  V30 2584 H 243.914 -2.69815 -1.26506 0
M  V30 2585 H 241.451 -1.33683 -0.61379 0
M  V30 2586 H 243.409 -2.01979 -3.65049 0
M  V30 2587 H 242.039 -1.04713 -3.05344 0
M  V30 2588 H 241.091 -3.23015 -2.00911 0
M  V30 2589 H 242.403 -4.11557 -2.8182 0
M  V30 2590 H 241.557 -3.36216 -5.05018 0
M  V30 2591 H 240.296 -2.37389 -4.26026 0
M  V30 2592 H 239.301 -4.44115 -3.24102 0
M  V30 2593 H 240.526 -5.44123 -4.06333 0
M  V30 2594 H 238.472 -3.66807 -5.43865 0
M  V30 2595 H 238.389 -5.39346 -5.29756 0
M  V30 2596 H 239.657 -4.66993 -6.2413 0
M  V30 2597 N 243.887 0.651787 -1.4349 0
M  V30 2598 C 245.134 1.41167 -1.45183 0
M  V30 2599 C 245.462 1.94349 -0.0766601 0
M  V30 2600 O 244.717 1.72804 0.918555 0
M  V30 2601 C 245.016 2.60914 -2.44251 0
M  V30 2602 C 244.682 2.26142 -3.9009 0
M  V30 2603 C 243.344 2.16371 -4.2981 0
M  V30 2604 C 245.696 1.98334 -4.81989 0
M  V30 2605 C 243.024 1.7695 -5.5938 0
M  V30 2606 C 245.376 1.6041 -6.11924 0
M  V30 2607 C 244.04 1.49166 -6.5062 0
M  V30 2608 H 243.31 0.516566 -0.531263 0
M  V30 2609 H 245.957 0.741099 -1.76579 0
M  V30 2610 H 244.262 3.3311 -2.06265 0
M  V30 2611 H 245.959 3.19127 -2.42815 0
M  V30 2612 H 242.549 2.34658 -3.58655 0
M  V30 2613 H 246.733 2.04803 -4.52072 0
M  V30 2614 H 241.989 1.66831 -5.88198 0
M  V30 2615 H 246.163 1.37925 -6.82605 0
M  V30 2616 H 243.79 1.1839 -7.50925 0
M  V30 2617 N 245.365 1.30045 0.890287 0
M  V30 2618 C 246.642 1.09227 1.62262 0
M  V30 2619 C 247.022 -0.360305 2.08002 0
M  V30 2620 O 246.37 -1.35084 1.84295 0
M  V30 2621 C 246.58 2.08835 2.79623 0
M  V30 2622 C 247.928 2.40266 3.50082 0
M  V30 2623 O 248.952 2.07104 2.89804 0
M  V30 2624 O 247.811 2.96967 4.58773 0
M  V30 2625 H 244.905 0.419132 0.712922 0
M  V30 2626 H 247.451 1.41451 0.937529 0
M  V30 2627 H 246.223 3.06633 2.43089 0
M  V30 2628 H 245.846 1.77397 3.55832 0
M  V30 2629 N 246.843 -1.10192 1.12674 0
M  V30 2630 C 247.776 -2.15847 0.740625 0
M  V30 2631 C 248.754 -1.60352 -0.269421 0
M  V30 2632 O 249.938 -1.87796 -0.16278 0
M  V30 2633 C 247.065 -3.38562 0.096641 0
M  V30 2634 C 246.111 -4.12758 1.07391 0
M  V30 2635 S 246.944 -4.67997 2.60267 0
M  V30 2636 C 248.1 -5.94021 1.97206 0
M  V30 2637 H 248.333 -2.48266 1.63558 0
M  V30 2638 H 245.866 -1.22019 0.946087 0
M  V30 2639 H 247.824 -4.09621 -0.268535 0
M  V30 2640 H 246.485 -3.04377 -0.775462 0
M  V30 2641 H 245.678 -5.00755 0.570997 0
M  V30 2642 H 245.28 -3.47523 1.38216 0
M  V30 2643 H 247.572 -6.64589 1.31634 0
M  V30 2644 H 248.515 -6.48979 2.83253 0
M  V30 2645 H 248.923 -5.46169 1.42686 0
M  V30 2646 N 248.321 -0.919034 -1.28029 0
M  V30 2647 C 249.569 -0.553838 -1.94363 0
M  V30 2648 C 249.89 0.906357 -1.72656 0
M  V30 2649 O 249.16 1.64143 -1.0693 0
M  V30 2650 H 247.74 -0.201834 -0.719216 0
M  V30 2651 H 250.402 -1.16954 -1.55909 0
M  V30 2652 H 249.498 -0.752758 -3.02886 0
M  V30 2653 N 249.799 1.42003 -0.683588 0
M  V30 2654 C 250.762 2.29191 -0.0198243 0
M  V30 2655 C 251.762 1.43773 0.72013 0
M  V30 2656 O 252.952 1.65061 0.556815 0
M  V30 2657 C 250.084 3.26435 0.982487 0
M  V30 2658 H 251.277 2.8938 -0.787345 0
M  V30 2659 H 248.83 1.49789 -0.446418 0
M  V30 2660 H 249.565 2.71203 1.77819 0
M  V30 2661 H 249.35 3.89449 0.455182 0
M  V30 2662 H 250.84 3.918 1.44508 0
M  V30 2663 N 251.277 0.427512 1.51691 0
M  V30 2664 C 252.507 -0.140986 2.06118 0
M  V30 2665 C 252.915 -1.37854 1.29588 0
M  V30 2666 O 252.258 -1.80411 0.346036 0
M  V30 2667 C 252.32 -0.538276 3.55447 0
M  V30 2668 C 251.984 0.591095 4.53161 0
M  V30 2669 C 252.981 1.46027 4.98971 0
M  V30 2670 C 250.666 0.769028 4.96378 0
M  V30 2671 C 252.66 2.49216 5.8666 0
M  V30 2672 C 250.347 1.80421 5.83859 0
M  V30 2673 C 251.345 2.66417 6.28897 0
M  V30 2674 O 251.033 3.68159 7.14643 0
M  V30 2675 H 250.765 -0.0157455 0.675817 0
M  V30 2676 H 253.319 0.602495 1.96365 0
M  V30 2677 H 251.549 -1.33432 3.6295 0
M  V30 2678 H 253.238 -1.0368 3.92435 0
M  V30 2679 H 254.004 1.33429 4.66285 0
M  V30 2680 H 249.883 0.109273 4.6087 0
M  V30 2681 H 253.427 3.16372 6.21735 0
M  V30 2682 H 249.324 1.93042 6.15959 0
M  V30 2683 H 250.092 3.64622 7.32798 0
M  V30 2684 N 252.755 -1.56801 0.158532 0
M  V30 2685 C 253.702 -2.17337 -0.776729 0
M  V30 2686 C 254.672 -1.1096 -1.23601 0
M  V30 2687 O 255.857 -1.39054 -1.30647 0
M  V30 2688 C 252.997 -2.80822 -2.00582 0
M  V30 2689 C 252.11 -4.01624 -1.59129 0
M  V30 2690 C 251.245 -4.53072 -2.77306 0
M  V30 2691 C 250.284 -5.66314 -2.32282 0
M  V30 2692 N 249.421 -6.12329 -3.43508 0
M  V30 2693 H 254.261 -2.96918 -0.253701 0
M  V30 2694 H 251.798 -1.46661 -0.113504 0
M  V30 2695 H 253.756 -3.15779 -2.72652 0
M  V30 2696 H 252.386 -2.03866 -2.50277 0
M  V30 2697 H 251.438 -3.72571 -0.767806 0
M  V30 2698 H 252.75 -4.83633 -1.2207 0
M  V30 2699 H 251.904 -4.90145 -3.57551 0
M  V30 2700 H 250.643 -3.70095 -3.17617 0
M  V30 2701 H 249.648 -5.28806 -1.5048 0
M  V30 2702 H 250.873 -6.51085 -1.93043 0
M  V30 2703 H 248.819 -5.32284 -3.83418 0
M  V30 2704 H 248.736 -6.89293 -3.105 0
M  V30 2705 H 250.004 -6.5405 -4.24075 0
M  V30 2706 N 254.233 0.115231 -1.57178 0
M  V30 2707 C 255.458 0.840354 -1.89612 0
M  V30 2708 C 255.883 1.72464 -0.750845 0
M  V30 2709 O 255.241 1.78826 0.298478 0
M  V30 2710 C 255.289 1.64654 -3.20814 0
M  V30 2711 O 254.393 2.7538 -3.06985 0
M  V30 2712 H 253.734 0.232158 -0.622092 0
M  V30 2713 H 256.264 0.0964977 -2.04372 0
M  V30 2714 H 256.274 2.03499 -3.53627 0
M  V30 2715 H 254.949 0.997416 -4.03763 0
M  V30 2716 H 253.526 2.3971 -2.85646 0
M  V30 2717 N 255.711 1.52812 0.385517 0
M  V30 2718 C 256.936 1.72207 1.15583 0
M  V30 2719 C 257.361 0.441034 1.82857 0
M  V30 2720 O 256.719 -0.603465 1.70962 0
M  V30 2721 C 256.767 2.87476 2.17692 0
M  V30 2722 O 255.871 2.54693 3.24354 0
M  V30 2723 H 255.212 0.572526 0.336319 0
M  V30 2724 H 257.742 1.99618 0.448744 0
M  V30 2725 H 257.752 3.13072 2.6163 0
M  V30 2726 H 256.427 3.80408 1.68115 0
M  V30 2727 H 255.004 2.3985 2.85529 0
M  V30 2728 N 257.189 -0.644168 1.43834 0
M  V30 2729 C 258.136 -1.75671 1.49694 0
M  V30 2730 C 259.106 -1.6246 0.345809 0
M  V30 2731 O 260.291 -1.82573 0.554234 0
M  V30 2732 C 257.431 -3.13867 1.43463 0
M  V30 2733 C 256.544 -3.38147 2.6885 0
M  V30 2734 C 255.679 -4.66241 2.54544 0
M  V30 2735 C 254.718 -4.83657 3.75157 0
M  V30 2736 N 253.855 -6.03016 3.59605 0
M  V30 2737 H 258.695 -1.69998 2.44754 0
M  V30 2738 H 256.232 -0.829458 1.21484 0
M  V30 2739 H 258.19 -3.9377 1.37843 0
M  V30 2740 H 256.82 -3.18588 0.519783 0
M  V30 2741 H 255.872 -2.52276 2.84712 0
M  V30 2742 H 257.184 -3.46899 3.58417 0
M  V30 2743 H 256.338 -5.54285 2.46683 0
M  V30 2744 H 255.077 -4.59826 1.62516 0
M  V30 2745 H 254.082 -3.94046 3.83416 0
M  V30 2746 H 255.307 -4.91896 4.68204 0
M  V30 2747 H 253.253 -5.97715 2.7032 0
M  V30 2748 H 253.17 -6.12766 4.42779 0
M  V30 2749 H 254.438 -6.93657 3.55613 0
M  V30 2750 N 258.668 -1.30515 -0.883378 0
M  V30 2751 C 259.945 -1.10086 -1.6168 0
M  V30 2752 C 260.325 0.349269 -2.08191 0
M  V30 2753 O 259.673 1.34105 -1.85008 0
M  V30 2754 C 259.883 -2.10315 -2.78511 0
M  V30 2755 C 261.231 -2.42119 -3.48803 0
M  V30 2756 O 262.255 -2.08638 -2.88702 0
M  V30 2757 O 261.114 -2.99396 -4.57192 0
M  V30 2758 H 258.208 -0.422907 -0.710689 0
M  V30 2759 H 260.754 -1.41947 -0.930015 0
M  V30 2760 H 259.526 -3.07917 -2.41459 0
M  V30 2761 H 259.149 -1.79282 -3.54886 0
M  V30 2762 N 260.146 1.09593 -1.13257 0
M  V30 2763 C 261.423 1.78293 -0.804432 0
M  V30 2764 C 261.803 1.99004 0.70431 0
M  V30 2765 O 261.151 1.59007 1.641 0
M  V30 2766 C 261.361 3.10707 -1.5894 0
M  V30 2767 C 262.709 3.85443 -1.78099 0
M  V30 2768 O 263.733 3.20454 -1.55525 0
M  V30 2769 O 262.592 5.02108 -2.15753 0
M  V30 2770 H 259.686 0.773156 -0.293528 0
M  V30 2771 H 262.232 1.16164 -1.23709 0
M  V30 2772 H 261.004 2.91106 -2.61482 0
M  V30 2773 H 260.627 3.80558 -1.15157 0
M  V30 2774 N 261.624 0.925811 1.2754 0
M  V30 2775 C 262.587 0.428129 2.25166 0
M  V30 2776 C 263.587 -0.452261 1.54309 0
M  V30 2777 O 264.777 -0.253608 1.72344 0
M  V30 2778 C 261.909 -0.384749 3.38722 0
M  V30 2779 H 263.102 1.29066 2.70706 0
M  V30 2780 H 260.655 0.706323 1.3943 0
M  V30 2781 H 261.39 -1.26618 2.98561 0
M  V30 2782 H 261.175 0.246454 3.91325 0
M  V30 2783 H 262.665 -0.723389 4.11287 0
M  V30 2784 N 263.102 -1.41638 0.69111 0
M  V30 2785 C 264.049 -2.30789 0.0229705 0
M  V30 2786 C 265.019 -1.46863 -0.775911 0
M  V30 2787 O 266.204 -1.75661 -0.74485 0
M  V30 2788 C 263.344 -3.32868 -0.910666 0
M  V30 2789 C 262.457 -4.31875 -0.103874 0
M  V30 2790 C 261.592 -5.21024 -1.03475 0
M  V30 2791 C 260.631 -6.11702 -0.220598 0
M  V30 2792 N 259.768 -6.93349 -1.10504 0
M  V30 2793 H 264.608 -2.87366 0.788978 0
M  V30 2794 H 262.145 -1.41535 0.400794 0
M  V30 2795 H 264.103 -3.90596 -1.46597 0
M  V30 2796 H 262.733 -2.77851 -1.64312 0
M  V30 2797 H 261.785 -3.76131 0.568285 0
M  V30 2798 H 263.097 -4.96003 0.527504 0
M  V30 2799 H 262.251 -5.83565 -1.65943 0
M  V30 2800 H 260.99 -4.57112 -1.69999 0
M  V30 2801 H 259.995 -5.48215 0.417187 0
M  V30 2802 H 261.22 -6.77668 0.440784 0
M  V30 2803 H 259.166 -6.3205 -1.75638 0
M  V30 2804 H 259.083 -7.54146 -0.529125 0
M  V30 2805 H 260.351 -7.60362 -1.71667 0
M  V30 2806 N 264.58 -0.43555 -1.51462 0
M  V30 2807 C 265.829 0.133007 -2.01261 0
M  V30 2808 C 266.142 1.43942 -1.32439 0
M  V30 2809 O 267.348 2.09081 -1.73198 0
M  V30 2810 C 265.804 0.287581 -3.58749 0
M  V30 2811 C 265.412 -1.00829 -4.36506 0
M  V30 2812 C 267.156 0.810004 -4.167 0
M  V30 2813 C 265.063 -0.819454 -5.85695 0
M  V30 2814 H 263.993 0.0534822 -0.752101 0
M  V30 2815 H 266.644 -0.565038 -1.74584 0
M  V30 2816 H 265.026 1.04859 -3.81865 0
M  V30 2817 H 266.2 -1.77749 -4.25138 0
M  V30 2818 H 264.515 -1.45911 -3.89999 0
M  V30 2819 H 267.112 0.967743 -5.2587 0
M  V30 2820 H 267.455 1.79196 -3.75758 0
M  V30 2821 H 267.988 0.107357 -3.97655 0
M  V30 2822 H 264.727 -1.77374 -6.31046 0
M  V30 2823 H 264.247 -0.0900208 -5.99732 0
M  V30 2824 H 265.926 -0.471949 -6.45276 0
M  V30 2825 N 266.058 1.56714 -0.166846 0
M  V30 2826 C 267.286 2.0112 0.485644 0
M  V30 2827 C 267.701 1.04705 1.57106 0
M  V30 2828 O 267.058 0.0471923 1.82439 0
M  V30 2829 C 267.109 3.45361 1.06808 0
M  V30 2830 O 266.83 4.38092 0.0259995 0
M  V30 2831 C 268.331 4.05145 1.79924 0
M  V30 2832 H 265.551 0.65931 0.124704 0
M  V30 2833 H 268.095 2.02746 -0.267262 0
M  V30 2834 H 266.25 3.44524 1.7715 0
M  V30 2835 H 266.664 5.22519 0.455398 0
M  V30 2836 H 268.138 5.08009 2.15942 0
M  V30 2837 H 268.615 3.46982 2.69258 0
M  V30 2838 H 269.221 4.09672 1.14234 0
M  V30 2839 N 267.536 -0.106894 1.57237 0
M  V30 2840 C 268.782 -0.81373 1.85759 0
M  V30 2841 C 269.115 -1.78952 0.754315 0
M  V30 2842 O 268.39 -1.93029 -0.23879 0
M  V30 2843 C 268.673 -1.55293 3.24894 0
M  V30 2844 C 268.526 -0.595929 4.45835 0
M  V30 2845 C 269.845 -2.5063 3.61763 0
M  V30 2846 H 266.964 -0.294369 0.67566 0
M  V30 2847 H 269.606 -0.0776472 1.89841 0
M  V30 2848 H 267.756 -2.1804 3.21544 0
M  V30 2849 H 269.428 0.0236262 4.61294 0
M  V30 2850 H 267.671 0.0916191 4.33703 0
M  V30 2851 H 268.342 -1.15004 5.39887 0
M  V30 2852 H 270.818 -1.97982 3.65981 0
M  V30 2853 H 269.694 -2.99376 4.60071 0
M  V30 2854 H 269.955 -3.3385 2.89821 0
M  V30 2855 N 269.014 -1.53014 -0.377408 0
M  V30 2856 C 270.263 -1.67845 -1.11853 0
M  V30 2857 C 270.576 -0.430625 -1.90801 0
M  V30 2858 O 271.782 -0.459261 -2.67587 0
M  V30 2859 C 270.238 -2.96668 -2.03756 0
M  V30 2860 C 269.846 -4.28671 -1.30175 0
M  V30 2861 C 271.59 -3.20865 -2.77932 0
M  V30 2862 C 269.497 -5.48591 -2.20911 0
M  V30 2863 H 268.427 -0.625343 -0.421263 0
M  V30 2864 H 271.078 -1.79514 -0.380409 0
M  V30 2865 H 269.46 -2.78773 -2.8125 0
M  V30 2866 H 270.634 -4.57157 -0.578259 0
M  V30 2867 H 268.949 -4.10825 -0.679108 0
M  V30 2868 H 271.546 -4.07642 -3.46024 0
M  V30 2869 H 271.889 -2.36424 -3.4265 0
M  V30 2870 H 272.422 -3.39379 -2.07525 0
M  V30 2871 H 269.161 -6.35474 -1.6079 0
M  V30 2872 H 268.681 -5.244 -2.91144 0
M  V30 2873 H 270.36 -5.8292 -2.80736 0
M  V30 2874 N 270.492 0.636531 -1.44174 0
M  V30 2875 C 271.422 1.76003 -1.53444 0
M  V30 2876 C 272.403 1.65619 -0.387841 0
M  V30 2877 O 273.588 1.84461 -0.607257 0
M  V30 2878 C 270.718 3.14511 -1.4731 0
M  V30 2879 C 269.672 3.39677 -2.60391 0
M  V30 2880 C 268.998 4.78159 -2.39308 0
M  V30 2881 C 270.298 3.32772 -4.02567 0
M  V30 2882 H 271.992 1.68501 -2.47483 0
M  V30 2883 H 269.538 0.809237 -1.19111 0
M  V30 2884 H 271.491 3.92878 -1.52397 0
M  V30 2885 H 270.215 3.22783 -0.49785 0
M  V30 2886 H 268.874 2.63688 -2.54684 0
M  V30 2887 H 268.522 4.83128 -1.39988 0
M  V30 2888 H 268.222 4.95956 -3.15122 0
M  V30 2889 H 269.746 5.58762 -2.46205 0
M  V30 2890 H 271.16 4.01051 -4.09672 0
M  V30 2891 H 269.557 3.62104 -4.7854 0
M  V30 2892 H 270.627 2.30669 -4.2652 0
M  V30 2893 N 271.97 1.30982 0.876444 0
M  V30 2894 C 273.386 1.09498 1.16113 0
M  V30 2895 C 273.586 -0.13875 2.01022 0
M  V30 2896 O 272.642 -0.829935 2.38471 0
M  V30 2897 C 273.955 2.36308 1.85954 0
M  V30 2898 C 275.503 2.41856 1.98683 0
M  V30 2899 C 275.978 3.6853 2.71937 0
M  V30 2900 N 277.469 3.69387 2.79477 0
M  V30 2901 C 278.204 4.64096 3.36753 0
M  V30 2902 N 277.7 5.69155 3.95012 0
M  V30 2903 N 279.493 4.51626 3.3465 0
M  V30 2904 H 271.644 2.10118 0.310494 0
M  V30 2905 H 273.907 0.926634 0.200131 0
M  V30 2906 H 273.613 3.26388 1.31011 0
M  V30 2907 H 273.487 2.4561 2.86278 0
M  V30 2908 H 275.874 1.52249 2.52793 0
M  V30 2909 H 275.955 2.36523 0.9742 0
M  V30 2910 H 275.599 4.58499 2.18496 0
M  V30 2911 H 275.529 3.71127 3.73593 0
M  V30 2912 H 278.02 2.93438 2.38123 0
M  V30 2913 H 278.333 6.3751 4.36808 0
M  V30 2914 H 276.678 5.72937 3.93406 0
M  V30 2915 H 279.869 3.68728 2.8837 0
M  V30 2916 H 280.042 5.25614 3.7899 0
M  V30 2917 N 273.449 -1.08991 1.13837 0
M  V30 2918 C 274.698 -1.80631 0.897509 0
M  V30 2919 C 275.011 -1.86872 -0.57777 0
M  V30 2920 O 276.217 -2.54866 -0.935701 0
M  V30 2921 C 274.673 -3.24517 1.55618 0
M  V30 2922 C 274.281 -3.26529 3.0673 0
M  V30 2923 C 276.025 -4.00882 1.3962 0
M  V30 2924 C 273.932 -4.64965 3.65461 0
M  V30 2925 H 272.862 -0.67691 0.332129 0
M  V30 2926 H 275.513 -1.2246 1.3666 0
M  V30 2927 H 273.895 -3.82778 1.01476 0
M  V30 2928 H 275.069 -2.78008 3.67489 0
M  V30 2929 H 273.384 -2.63656 3.22296 0
M  V30 2930 H 275.981 -5.03167 1.80906 0
M  V30 2931 H 276.324 -4.14896 0.341578 0
M  V30 2932 H 276.857 -3.49075 1.90766 0
M  V30 2933 H 273.596 -4.56153 4.70749 0
M  V30 2934 H 273.116 -5.13792 3.09481 0
M  V30 2935 H 274.795 -5.3394 3.654 0
M  V30 2936 N 274.927 -0.932562 -1.27047 0
M  V30 2937 C 276.152 -0.591474 -1.98787 0
M  V30 2938 C 276.577 0.824601 -1.69062 0
M  V30 2939 O 275.935 1.5541 -0.933677 0
M  V30 2940 C 275.983 -0.829808 -3.50922 0
M  V30 2941 O 275.087 0.102266 -4.12273 0
M  V30 2942 H 274.428 -0.227185 -0.623926 0
M  V30 2943 H 276.958 -1.25314 -1.61733 0
M  V30 2944 H 276.968 -0.747292 -4.01098 0
M  V30 2945 H 275.643 -1.86201 -3.7189 0
M  V30 2946 H 274.22 -0.0305761 -3.72887 0
M  V30 2947 N 276.405 1.4127 -0.698611 0
M  V30 2948 C 277.352 2.30773 -0.0352094 0
M  V30 2949 C 278.322 1.47273 0.768111 0
M  V30 2950 O 279.507 1.76053 0.735524 0
M  V30 2951 C 276.647 3.33346 0.893 0
M  V30 2952 C 275.76 4.31924 0.0809695 0
M  V30 2953 C 274.895 5.21566 1.0071 0
M  V30 2954 C 273.934 6.11811 0.188155 0
M  V30 2955 N 273.071 6.93926 1.06825 0
M  V30 2956 H 277.911 2.86943 -0.804207 0
M  V30 2957 H 275.448 1.4132 -0.408294 0
M  V30 2958 H 277.406 3.91368 1.44523 0
M  V30 2959 H 276.036 2.78719 1.62836 0
M  V30 2960 H 275.088 3.75825 -0.588224 0
M  V30 2961 H 276.4 4.95716 -0.553801 0
M  V30 2962 H 275.554 5.84437 1.62845 0
M  V30 2963 H 274.293 4.58008 1.67572 0
M  V30 2964 H 273.298 5.47986 -0.446254 0
M  V30 2965 H 274.523 6.77425 -0.476716 0
M  V30 2966 H 272.469 6.32973 1.72283 0
M  V30 2967 H 272.386 7.54416 0.489123 0
M  V30 2968 H 273.654 7.61262 1.67632 0
M  V30 2969 N 277.883 0.443576 1.51229 0
M  V30 2970 C 279.111 -0.11929 2.06556 0
M  V30 2971 C 279.526 -1.35921 1.31038 0
M  V30 2972 O 278.883 -1.78675 0.371704 0
M  V30 2973 C 278.934 -0.435228 3.5887 0
M  V30 2974 O 278.655 0.755486 4.31537 0
M  V30 2975 C 280.156 -1.04808 4.30732 0
M  V30 2976 H 277.376 -0.0051584 0.67098 0
M  V30 2977 H 279.92 0.624453 1.94733 0
M  V30 2978 H 278.075 -1.12887 3.70588 0
M  V30 2979 H 278.489 0.483491 5.22267 0
M  V30 2980 H 279.963 -1.2191 5.3837 0
M  V30 2981 H 280.44 -2.03081 3.89429 0
M  V30 2982 H 281.046 -0.393637 4.23474 0
M  V30 2983 N 279.361 -1.56624 0.175154 0
M  V30 2984 C 280.293 -2.15333 -0.785128 0
M  V30 2985 C 281.306 -1.1099 -1.19101 0
M  V30 2986 O 282.495 -1.38162 -1.13019 0
M  V30 2987 C 279.595 -2.68427 -2.06882 0
M  V30 2988 C 278.768 -3.97466 -1.8259 0
M  V30 2989 C 277.827 -4.35585 -2.95215 0
M  V30 2990 O 276.853 -5.03389 -2.65684 0
M  V30 2991 N 278.055 -3.97457 -4.23094 0
M  V30 2992 H 280.82 -2.98359 -0.283187 0
M  V30 2993 H 278.381 -1.61898 -0.00749817 0
M  V30 2994 H 280.373 -2.90924 -2.81328 0
M  V30 2995 H 278.943 -1.89968 -2.48256 0
M  V30 2996 H 278.163 -3.83307 -0.920287 0
M  V30 2997 H 279.451 -4.81736 -1.63733 0
M  V30 2998 H 278.849 -3.42878 -4.49945 0
M  V30 2999 H 277.406 -4.24947 -4.9423 0
M  V30 3000 N 280.839 0.0985539 -1.57292 0
M  V30 3001 C 281.769 1.12064 -2.04851 0
M  V30 3002 C 282.75 1.41981 -0.936767 0
M  V30 3003 O 283.935 1.52071 -1.20781 0
M  V30 3004 C 281.065 2.44144 -2.47004 0
M  V30 3005 C 280.019 2.28643 -3.6181 0
M  V30 3006 C 279.345 3.65869 -3.89929 0
M  V30 3007 C 280.645 1.72986 -4.92822 0
M  V30 3008 H 282.339 0.724979 -2.9049 0
M  V30 3009 H 279.885 0.34729 -1.39749 0
M  V30 3010 H 281.838 3.15914 -2.78884 0
M  V30 3011 H 280.562 2.85639 -1.5836 0
M  V30 3012 H 279.221 1.59318 -3.30172 0
M  V30 3013 H 278.869 4.04885 -2.98458 0
M  V30 3014 H 278.569 3.56344 -4.67218 0
M  V30 3015 H 280.093 4.39112 -4.2428 0
M  V30 3016 H 281.507 2.34593 -5.23105 0
M  V30 3017 H 279.904 1.74229 -5.74251 0
M  V30 3018 H 280.974 0.689007 -4.7998 0
M  V30 3019 N 282.317 1.53212 0.369288 0
M  V30 3020 C 283.547 1.72868 1.13139 0
M  V30 3021 C 283.955 0.455754 1.83629 0
M  V30 3022 O 283.298 -0.580861 1.74275 0
M  V30 3023 C 283.36 2.83667 2.20847 0
M  V30 3024 C 283.024 4.24142 1.70155 0
M  V30 3025 C 284.021 5.06619 1.16763 0
M  V30 3026 C 281.706 4.70539 1.7578 0
M  V30 3027 C 283.7 6.33581 0.696678 0
M  V30 3028 C 281.387 5.97481 1.28297 0
M  V30 3029 C 282.385 6.78833 0.753307 0
M  V30 3030 O 282.073 8.03393 0.285475 0
M  V30 3031 H 281.805 0.581707 0.344373 0
M  V30 3032 H 284.359 2.00736 0.435243 0
M  V30 3033 H 282.589 2.51265 2.93944 0
M  V30 3034 H 284.278 2.91536 2.82421 0
M  V30 3035 H 285.044 4.71948 1.11758 0
M  V30 3036 H 280.923 4.07293 2.15949 0
M  V30 3037 H 284.467 6.97027 0.282581 0
M  V30 3038 H 280.364 6.31651 1.32994 0
M  V30 3039 H 281.132 8.17497 0.405145 0
M  V30 3040 N 283.795 -0.628877 1.44509 0
M  V30 3041 C 285.041 -1.39045 1.47629 0
M  V30 3042 C 285.374 -1.93892 0.109343 0
M  V30 3043 O 284.649 -1.7379 -0.87334 0
M  V30 3044 C 284.932 -2.55408 2.53848 0
M  V30 3045 C 284.785 -2.05896 3.99909 0
M  V30 3046 C 286.104 -3.5759 2.56549 0
M  V30 3047 H 283.223 -0.504232 0.537512 0
M  V30 3048 H 285.865 -0.710854 1.76201 0
M  V30 3049 H 284.015 -3.13384 2.29615 0
M  V30 3050 H 285.687 -1.52734 4.35282 0
M  V30 3051 H 283.93 -1.37061 4.11578 0
M  V30 3052 H 284.601 -2.89681 4.69882 0
M  V30 3053 H 287.077 -3.09419 2.78207 0
M  V30 3054 H 285.953 -4.36527 3.32769 0
M  V30 3055 H 286.214 -4.11808 1.60832 0
M  V30 3056 N 285.273 -1.31445 -0.869486 0
M  V30 3057 C 286.501 -1.24122 -1.65534 0
M  V30 3058 C 286.916 0.193387 -1.87807 0
M  V30 3059 O 286.273 1.12557 -1.43656 0
M  V30 3060 C 286.324 -1.98229 -3.02304 0
M  V30 3061 O 286.045 -3.3609 -2.81026 0
M  V30 3062 C 287.546 -1.97751 -3.96749 0
M  V30 3063 H 284.766 -0.428868 -0.516055 0
M  V30 3064 H 287.31 -1.73328 -1.08525 0
M  V30 3065 H 285.465 -1.52782 -3.56001 0
M  V30 3066 H 285.879 -3.7383 -3.67902 0
M  V30 3067 H 287.353 -2.54114 -4.90031 0
M  V30 3068 H 287.83 -0.960137 -4.28577 0
M  V30 3069 H 288.436 -2.43079 -3.48988 0
M  V30 3070 N 286.751 1.08385 -1.14413 0
M  V30 3071 C 287.714 2.13486 -0.834048 0
M  V30 3072 C 288.714 1.59988 0.161418 0
M  V30 3073 O 289.904 1.74071 -0.0669575 0
M  V30 3074 C 287.036 3.4003 -0.243354 0
M  V30 3075 H 288.229 2.42425 -1.7655 0
M  V30 3076 H 285.782 1.24101 -0.950189 0
M  V30 3077 H 286.517 3.16726 0.696807 0
M  V30 3078 H 286.302 3.80157 -0.960367 0
M  V30 3079 H 287.792 4.17577 -0.0436242 0
M  V30 3080 N 288.23 0.939286 1.26551 0
M  V30 3081 C 289.162 0.404704 2.25599 0
M  V30 3082 C 290.175 -0.470983 1.55838 0
M  V30 3083 O 291.364 -0.281734 1.76263 0
M  V30 3084 C 288.464 -0.43764 3.36062 0
M  V30 3085 C 287.637 0.421449 4.35365 0
M  V30 3086 C 286.696 -0.36015 5.24966 0
M  V30 3087 O 285.722 0.236167 5.6871 0
M  V30 3088 N 286.924 -1.65715 5.56344 0
M  V30 3089 H 289.689 1.25618 2.72103 0
M  V30 3090 H 287.25 0.807963 1.40298 0
M  V30 3091 H 289.242 -0.967866 3.92956 0
M  V30 3092 H 287.812 -1.18991 2.89067 0
M  V30 3093 H 287.032 1.1329 3.7757 0
M  V30 3094 H 288.32 1.00835 4.98708 0
M  V30 3095 H 287.718 -2.16378 5.22682 0
M  V30 3096 H 286.275 -2.13366 6.15888 0
M  V30 3097 N 289.708 -1.40897 0.706093 0
M  V30 3098 C 290.985 -1.94868 0.169099 0
M  V30 3099 C 291.365 -1.64485 -1.32318 0
M  V30 3100 O 290.713 -0.95744 -2.07474 0
M  V30 3101 C 290.923 -3.45798 0.471654 0
M  V30 3102 C 292.271 -4.22663 0.405127 0
M  V30 3103 O 293.295 -3.53865 0.407168 0
M  V30 3104 O 292.154 -5.45216 0.374383 0
M  V30 3105 H 289.248 -0.82673 0.0211352 0
M  V30 3106 H 291.794 -1.50558 0.782976 0
M  V30 3107 H 290.566 -3.61235 1.50416 0
M  V30 3108 H 290.189 -3.97225 -0.172666 0
M  V30 3109 N 291.186 -0.45159 -1.50991 0
M  V30 3110 C 292.096 0.358431 -2.31846 0
M  V30 3111 C 293.112 1.01438 -1.41373 0
M  V30 3112 O 294.288 1.00663 -1.74439 0
M  V30 3113 C 291.353 1.43704 -3.15515 0
M  V30 3114 C 290.414 0.799742 -4.21785 0
M  V30 3115 C 289.647 1.82696 -5.01456 0
M  V30 3116 O 289.87 3.05105 -4.81941 0
M  V30 3117 O 288.804 1.40958 -5.85162 0
M  V30 3118 H 292.63 -0.302032 -3.02194 0
M  V30 3119 H 290.215 -0.213825 -1.47862 0
M  V30 3120 H 292.097 2.06227 -3.67489 0
M  V30 3121 H 290.772 2.08133 -2.47916 0
M  V30 3122 H 289.679 0.136084 -3.73852 0
M  V30 3123 H 291.012 0.198718 -4.91799 0
M  V30 3124 N 292.664 1.56529 -0.183458 0
M  V30 3125 C 293.941 1.88959 0.50536 0
M  V30 3126 C 294.321 1.09523 1.80466 0
M  V30 3127 O 293.669 0.19278 2.27685 0
M  V30 3128 C 293.879 3.41162 0.73547 0
M  V30 3129 C 295.227 4.11155 1.06005 0
M  V30 3130 O 296.251 3.46548 0.823594 0
M  V30 3131 O 295.11 5.25318 1.50675 0
M  V30 3132 H 292.204 0.78441 0.261973 0
M  V30 3133 H 294.75 1.68231 -0.222802 0
M  V30 3134 H 293.522 3.90874 -0.182561 0
M  V30 3135 H 293.145 3.67543 1.51651 0
M  V30 3136 N 294.142 -0.090211 1.57342 0
M  V30 3137 C 295.074 -1.13541 1.99101 0
M  V30 3138 C 296.087 -1.3604 0.894258 0
M  V30 3139 O 297.276 -1.34606 1.17233 0
M  V30 3140 C 294.376 -2.49001 2.29895 0
M  V30 3141 C 293.549 -2.46712 3.61182 0
M  V30 3142 C 292.608 -3.64136 3.79857 0
M  V30 3143 O 291.634 -3.46405 4.51655 0
M  V30 3144 N 292.836 -4.83802 3.20806 0
M  V30 3145 H 295.601 -0.779942 2.89373 0
M  V30 3146 H 293.162 -0.279125 1.59476 0
M  V30 3147 H 295.154 -3.26166 2.39578 0
M  V30 3148 H 293.724 -2.76619 1.45605 0
M  V30 3149 H 292.944 -1.55058 3.62423 0
M  V30 3150 H 294.232 -2.42265 4.4742 0
M  V30 3151 H 293.63 -5.01112 2.62494 0
M  V30 3152 H 292.187 -5.58543 3.35966 0
M  V30 3153 N 295.62 -1.53406 -0.361157 0
M  V30 3154 C 297.031 -1.61442 -0.937728 0
M  V30 3155 C 297.382 -0.48461 -1.90121 0
M  V30 3156 O 296.507 0.388312 -2.12888 0
M  V30 3157 C 297.102 -2.92624 -1.70753 0
M  V30 3158 C 295.661 -3.02981 -2.23337 0
M  V30 3159 C 294.808 -2.5677 -1.04712 0
M  V30 3160 H 297.759 -1.58083 -0.139816 0
M  V30 3161 H 297.78 -2.80675 -2.56908 0
M  V30 3162 H 297.292 -3.74834 -1.00604 0
M  V30 3163 H 295.393 -2.25368 -2.96715 0
M  V30 3164 H 295.506 -4.0814 -2.50916 0
M  V30 3165 H 293.87 -2.11752 -1.41539 0
M  V30 3166 H 294.653 -3.41402 -0.360539 0
M  V30 3167 N 297.098 0.621204 -1.44841 0
M  V30 3168 C 298.344 1.3826 -1.48365 0
M  V30 3169 C 298.677 1.93831 -0.119624 0
M  V30 3170 O 297.952 1.74251 0.864111 0
M  V30 3171 C 298.235 2.54058 -2.55199 0
M  V30 3172 C 298.088 2.03772 -4.00995 0
M  V30 3173 C 299.407 3.56225 -2.58442 0
M  V30 3174 H 296.526 0.501374 -0.540179 0
M  V30 3175 H 299.168 0.7015 -1.76576 0
M  V30 3176 H 297.318 3.12162 -2.31274 0
M  V30 3177 H 298.99 1.50423 -4.36086 0
M  V30 3178 H 297.233 1.34876 -4.12299 0
M  V30 3179 H 297.904 2.87185 -4.71411 0
M  V30 3180 H 300.38 3.07939 -2.79844 0
M  V30 3181 H 299.256 4.34756 -3.3508 0
M  V30 3182 H 299.517 4.10949 -1.63013 0
M  V30 3183 N 298.576 1.31904 0.862503 0
M  V30 3184 C 299.506 1.22782 1.98612 0
M  V30 3185 C 300.487 0.113362 1.69722 0
M  V30 3186 O 301.672 0.299218 1.91881 0
M  V30 3187 C 298.802 0.942058 3.34279 0
M  V30 3188 C 297.756 2.0169 3.77499 0
M  V30 3189 C 297.082 1.58369 5.10709 0
M  V30 3190 C 298.382 3.43096 3.93805 0
M  V30 3191 H 300.076 2.16788 2.06502 0
M  V30 3192 H 297.622 1.04366 0.992154 0
M  V30 3193 H 299.575 0.864818 4.1243 0
M  V30 3194 H 298.299 -0.0336603 3.26583 0
M  V30 3195 H 296.958 2.08416 3.01593 0
M  V30 3196 H 296.606 0.595628 4.99461 0
M  V30 3197 H 296.306 2.30279 5.40597 0
M  V30 3198 H 297.83 1.52067 5.91361 0
M  V30 3199 H 299.244 3.39003 4.62331 0
M  V30 3200 H 297.641 4.13288 4.35101 0
M  V30 3201 H 298.711 3.83334 2.96957 0
M  V30 3202 N 300.054 -1.07777 1.14986 0
M  V30 3203 C 300.984 -2.16865 0.865557 0
M  V30 3204 C 301.965 -1.69123 -0.182083 0
M  V30 3205 O 303.15 -1.94164 -0.0373815 0
M  V30 3206 C 300.28 -3.45539 0.349313 0
M  V30 3207 C 299.234 -4.06708 1.33313 0
M  V30 3208 C 298.56 -5.30411 0.675918 0
M  V30 3209 C 299.86 -4.47241 2.69764 0
M  V30 3210 H 301.554 -2.40905 1.77778 0
M  V30 3211 H 299.1 -1.15781 0.856203 0
M  V30 3212 H 301.053 -4.21174 0.137983 0
M  V30 3213 H 299.777 -3.21072 -0.598362 0
M  V30 3214 H 298.436 -3.33112 1.53075 0
M  V30 3215 H 298.084 -5.02232 -0.277767 0
M  V30 3216 H 297.784 -5.72293 1.33244 0
M  V30 3217 H 299.308 -6.08755 0.474262 0
M  V30 3218 H 300.722 -5.14025 2.53873 0
M  V30 3219 H 299.119 -5.00062 3.3175 0
M  V30 3220 H 300.189 -3.58818 3.26156 0
M  V30 3221 N 301.532 -0.945985 -1.26051 0
M  V30 3222 C 302.479 -0.45809 -2.26208 0
M  V30 3223 C 303.449 0.484816 -1.58867 0
M  V30 3224 O 304.634 0.399969 -1.86561 0
M  V30 3225 C 301.774 0.266131 -3.44072 0
M  V30 3226 C 300.887 -0.713005 -4.26075 0
M  V30 3227 C 300.022 0.0329013 -5.3119 0
M  V30 3228 C 299.061 -0.93774 -6.04874 0
M  V30 3229 N 298.198 -0.223274 -7.01745 0
M  V30 3230 H 303.038 -1.3171 -2.67313 0
M  V30 3231 H 300.575 -0.66069 -1.31428 0
M  V30 3232 H 302.533 0.702514 -4.11243 0
M  V30 3233 H 301.163 1.08925 -3.03867 0
M  V30 3234 H 300.215 -1.26789 -3.58648 0
M  V30 3235 H 301.527 -1.45406 -4.77136 0
M  V30 3236 H 300.681 0.528335 -6.04395 0
M  V30 3237 H 299.42 0.806801 -4.8098 0
M  V30 3238 H 298.425 -1.44425 -5.30492 0
M  V30 3239 H 299.65 -1.71172 -6.57173 0
M  V30 3240 H 297.596 0.532046 -6.53839 0
M  V30 3241 H 297.513 -0.90357 -7.50581 0
M  V30 3242 H 298.781 0.250907 -7.79096 0
M  V30 3243 N 303.011 1.40521 -0.713556 0
M  V30 3244 C 303.921 2.34522 -0.0606667 0
M  V30 3245 C 304.937 1.57193 0.74607 0
M  V30 3246 O 306.113 1.89591 0.679493 0
M  V30 3247 C 303.178 3.36081 0.851491 0
M  V30 3248 C 302.239 4.29286 0.0349339 0
M  V30 3249 C 301.472 5.25994 0.903649 0
M  V30 3250 O 301.695 5.28616 2.14292 0
M  V30 3251 O 300.629 6.00918 0.343723 0
M  V30 3252 H 304.455 2.91968 -0.835972 0
M  V30 3253 H 302.04 1.41681 -0.47402 0
M  V30 3254 H 303.922 3.98369 1.37404 0
M  V30 3255 H 302.597 2.81052 1.60598 0
M  V30 3256 H 301.504 3.70289 -0.532633 0
M  V30 3257 H 302.837 4.87462 -0.681287 0
M  V30 3258 N 304.489 0.459591 1.5075 0
M  V30 3259 C 305.422 -0.386257 2.24907 0
M  V30 3260 C 306.4 -1.006 1.27744 0
M  V30 3261 O 307.584 -1.04416 1.56938 0
M  V30 3262 C 304.711 -1.54021 3.01654 0
M  V30 3263 C 303.757 -1.03898 4.13651 0
M  V30 3264 S 304.59 0.0370501 5.35487 0
M  V30 3265 C 305.746 -1.12105 6.15779 0
M  V30 3266 H 305.979 0.243272 2.96303 0
M  V30 3267 H 303.512 0.244339 1.52454 0
M  V30 3268 H 305.47 -2.20163 3.46466 0
M  V30 3269 H 304.131 -2.14121 2.29806 0
M  V30 3270 H 303.324 -1.90254 4.66711 0
M  V30 3271 H 302.926 -0.45545 3.71216 0
M  V30 3272 H 305.218 -2.03501 6.46215 0
M  V30 3273 H 306.161 -0.62995 7.05292 0
M  V30 3274 H 306.569 -1.36967 5.47631 0
M  V30 3275 N 305.967 -1.56429 0.191757 0
M  V30 3276 C 307.378 -1.83912 -0.321428 0
M  V30 3277 C 307.729 -1.11231 -1.61623 0
M  V30 3278 O 306.854 -0.37202 -2.13178 0
M  V30 3279 C 307.449 -3.33624 -0.589961 0
M  V30 3280 C 306.008 -3.6153 -1.04753 0
M  V30 3281 C 305.155 -2.7714 -0.0943327 0
M  V30 3282 H 308.106 -1.53161 0.415612 0
M  V30 3283 H 308.127 -3.52213 -1.43966 0
M  V30 3284 H 307.639 -3.86495 0.352588 0
M  V30 3285 H 305.74 -3.14089 -2.00447 0
M  V30 3286 H 305.853 -4.69737 -0.942549 0
M  V30 3287 H 304.217 -2.47638 -0.595589 0
M  V30 3288 H 305 -3.32799 0.842601 0
M  V30 3289 N 307.445 0.0818655 -1.57387 0
M  V30 3290 C 308.355 1.11642 -2.06333 0
M  V30 3291 C 309.371 1.43033 -0.99083 0
M  V30 3292 O 310.547 1.53411 -1.30488 0
M  V30 3293 C 307.612 2.41342 -2.48907 0
M  V30 3294 C 306.673 2.17014 -3.7041 0
M  V30 3295 C 305.906 3.4053 -4.10944 0
M  V30 3296 O 306.129 4.4927 -3.51444 0
M  V30 3297 O 305.063 3.29336 -5.03807 0
M  V30 3298 H 308.889 0.730657 -2.9478 0
M  V30 3299 H 306.474 0.295301 -1.46452 0
M  V30 3300 H 308.356 3.17691 -2.76858 0
M  V30 3301 H 307.031 2.79319 -1.63593 0
M  V30 3302 H 305.938 1.38403 -3.47556 0
M  V30 3303 H 307.271 1.83923 -4.56545 0
M  V30 3304 N 308.923 1.53595 0.353017 0
M  V30 3305 C 310.172 1.69603 1.09168 0
M  V30 3306 C 310.485 0.460925 1.90092 0
M  V30 3307 O 311.691 0.501774 2.66823 0
M  V30 3308 C 310.147 2.99872 1.9901 0
M  V30 3309 C 309.755 4.30687 1.23339 0
M  V30 3310 C 311.499 3.25246 2.72792 0
M  V30 3311 C 309.406 5.52036 2.12156 0
M  V30 3312 H 308.336 0.631966 0.411261 0
M  V30 3313 H 310.987 1.80096 0.351802 0
M  V30 3314 H 309.369 2.83212 2.7678 0
M  V30 3315 H 310.543 4.58019 0.505456 0
M  V30 3316 H 308.858 4.11853 0.613663 0
M  V30 3317 H 311.455 4.13095 3.39495 0
M  V30 3318 H 311.798 2.41846 3.38846 0
M  V30 3319 H 312.331 3.42638 2.021 0
M  V30 3320 H 309.07 6.37951 1.50659 0
M  V30 3321 H 308.59 5.28966 2.82764 0
M  V30 3322 H 310.269 5.87313 2.71427 0
M  V30 3323 N 310.401 -0.613514 1.45168 0
M  V30 3324 C 311.812 -1.19539 1.43413 0
M  V30 3325 C 312.163 -1.95558 0.158632 0
M  V30 3326 O 311.288 -2.0335 -0.740119 0
M  V30 3327 C 311.883 -2.17445 2.59813 0
M  V30 3328 C 310.442 -2.71022 2.61197 0
M  V30 3329 C 309.589 -1.46323 2.35552 0
M  V30 3330 H 312.54 -0.403163 1.53494 0
M  V30 3331 H 312.561 -3.00373 2.33574 0
M  V30 3332 H 312.073 -1.62089 3.52631 0
M  V30 3333 H 310.174 -3.30332 1.7237 0
M  V30 3334 H 310.287 -3.15859 3.60236 0
M  V30 3335 H 308.651 -1.75072 1.84992 0
M  V30 3336 H 309.434 -0.92844 3.30507 0
M  V30 3337 N 311.879 -1.3236 -0.855495 0
M  V30 3338 C 312.826 -1.21225 -1.964 0
M  V30 3339 C 313.796 -0.0946204 -1.6583 0
M  V30 3340 O 314.981 -0.27002 -1.8888 0
M  V30 3341 C 312.121 -0.940419 -3.32039 0
M  V30 3342 C 311.234 -2.14276 -3.75113 0
M  V30 3343 C 310.369 -1.80648 -4.9954 0
M  V30 3344 C 309.408 -2.97208 -5.35102 0
M  V30 3345 N 308.545 -2.63678 -6.50706 0
M  V30 3346 H 313.385 -2.16042 -2.05255 0
M  V30 3347 H 310.922 -1.07451 -1.00463 0
M  V30 3348 H 312.88 -0.763311 -4.10158 0
M  V30 3349 H 311.51 -0.0290413 -3.22787 0
M  V30 3350 H 310.562 -2.43017 -2.92655 0
M  V30 3351 H 311.874 -3.01468 -3.97389 0
M  V30 3352 H 311.028 -1.59484 -5.85363 0
M  V30 3353 H 309.767 -0.906678 -4.79198 0
M  V30 3354 H 308.772 -3.19004 -4.47791 0
M  V30 3355 H 309.997 -3.87918 -5.57401 0
M  V30 3356 H 307.943 -1.76238 -6.31883 0
M  V30 3357 H 307.86 -3.444 -6.72997 0
M  V30 3358 H 309.128 -2.45942 -7.39684 0
M  V30 3359 N 313.357 1.07166 -1.15556 0
M  V30 3360 C 314.585 1.83514 -0.955519 0
M  V30 3361 C 315 1.82163 0.49621 0
M  V30 3362 O 314.357 1.23441 1.34419 0
M  V30 3363 C 314.408 3.30515 -1.46432 0
M  V30 3364 O 314.129 3.31937 -2.85918 0
M  V30 3365 C 315.63 4.23625 -1.30603 0
M  V30 3366 H 312.85 0.578926 -0.339244 0
M  V30 3367 H 315.394 1.35265 -1.53374 0
M  V30 3368 H 313.549 3.76106 -0.928584 0
M  V30 3369 H 313.963 4.23794 -3.09029 0
M  V30 3370 H 315.437 5.24831 -1.71047 0
M  V30 3371 H 315.914 4.38485 -0.250441 0
M  V30 3372 H 316.52 3.83871 -1.83094 0
M  V30 3373 N 314.835 0.952656 1.25548 0
M  V30 3374 C 316.084 0.602053 1.92505 0
M  V30 3375 C 316.397 -0.864663 1.75451 0
M  V30 3376 O 317.603 -1.32514 2.36965 0
M  V30 3377 C 316.059 1.02607 3.44963 0
M  V30 3378 C 315.667 2.51519 3.70732 0
M  V30 3379 C 317.411 0.747905 4.1786 0
M  V30 3380 C 315.318 2.87732 5.16686 0
M  V30 3381 H 314.248 0.22146 0.720744 0
M  V30 3382 H 316.899 1.15684 1.42441 0
M  V30 3383 H 315.281 0.399712 3.93978 0
M  V30 3384 H 316.455 3.19157 3.32378 0
M  V30 3385 H 314.77 2.76786 3.11092 0
M  V30 3386 H 317.367 0.994647 5.25367 0
M  V30 3387 H 317.71 -0.315629 4.15102 0
M  V30 3388 H 318.243 1.33452 3.74747 0
M  V30 3389 H 314.982 3.93095 5.24554 0
M  V30 3390 H 314.502 2.24765 5.56094 0
M  V30 3391 H 316.181 2.76817 5.84792 0
M  V30 3392 N 316.313 -1.40141 0.720998 0
M  V30 3393 C 317.541 -2.05096 0.272656 0
M  V30 3394 C 317.956 -1.54334 -1.0875 0
M  V30 3395 O 317.313 -0.702211 -1.6845 0
M  V30 3396 C 317.364 -3.60636 0.249835 0
M  V30 3397 O 317.085 -4.09526 1.55629 0
M  V30 3398 C 318.586 -4.42772 -0.216396 0
M  V30 3399 H 315.806 -0.659897 0.121558 0
M  V30 3400 H 318.35 -1.79449 0.980723 0
M  V30 3401 H 316.505 -3.85232 -0.409237 0
M  V30 3402 H 316.919 -5.03758 1.4604 0
M  V30 3403 H 318.393 -5.51702 -0.181212 0
M  V30 3404 H 318.87 -4.20756 -1.25941 0
M  V30 3405 H 319.476 -4.23294 0.412596 0
M  V30 3406 N 317.792 -0.46758 -1.50504 0
M  V30 3407 C 319.04 0.0884469 -2.01906 0
M  V30 3408 C 319.361 1.40532 -1.35188 0
M  V30 3409 O 318.631 1.89515 -0.496079 0
M  V30 3410 H 317.211 0.0356765 -0.746148 0
M  V30 3411 H 319.873 -0.6172 -1.84869 0
M  V30 3412 H 318.969 0.2425 -3.11156 0
M  V30 3413 N 319.27 1.56325 -0.20005 0
M  V30 3414 C 320.495 2.02548 0.44597 0
M  V30 3415 C 320.92 1.07922 1.5406 0
M  V30 3416 O 320.278 0.0635775 1.81188 0
M  V30 3417 C 320.326 3.47175 0.974761 0
M  V30 3418 O 319.43 3.55671 2.08739 0
M  V30 3419 H 318.771 0.655862 0.103638 0
M  V30 3420 H 321.301 2.02201 -0.312381 0
M  V30 3421 H 321.311 3.87067 1.2901 0
M  V30 3422 H 319.986 4.15538 0.17347 0
M  V30 3423 H 318.563 3.27657 1.78032 0
M  V30 3424 N 320.748 -0.0735177 1.57428 0
M  V30 3425 C 321.658 -1.10547 2.06922 0
M  V30 3426 C 322.674 -1.42506 0.998402 0
M  V30 3427 O 323.85 -1.52717 1.31299 0
M  V30 3428 C 320.915 -2.40019 2.50184 0
M  V30 3429 C 319.976 -2.15046 3.71556 0
M  V30 3430 C 319.209 -3.38345 4.12745 0
M  V30 3431 O 319.432 -4.47399 3.53822 0
M  V30 3432 O 318.366 -3.2666 5.05546 0
M  V30 3433 H 322.192 -0.715013 2.95163 0
M  V30 3434 H 319.777 -0.287531 1.46607 0
M  V30 3435 H 321.659 -3.16218 2.78539 0
M  V30 3436 H 320.334 -2.78447 1.65072 0
M  V30 3437 H 319.241 -1.36558 3.48285 0
M  V30 3438 H 320.574 -1.81499 4.57514 0
M  V30 3439 N 322.226 -1.5378 -0.344866 0
M  V30 3440 C 323.454 -1.74899 -1.10534 0
M  V30 3441 C 323.869 -0.487534 -1.82397 0
M  V30 3442 O 323.226 0.540741 -1.74305 0
M  V30 3443 C 323.277 -2.92822 -2.11984 0
M  V30 3444 O 322.998 -4.14089 -1.43044 0
M  V30 3445 C 324.499 -3.25982 -3.00417 0
M  V30 3446 H 321.719 -0.584426 -0.329678 0
M  V30 3447 H 324.263 -2.006 -0.397474 0
M  V30 3448 H 322.418 -2.69457 -2.78338 0
M  V30 3449 H 322.832 -4.80272 -2.10805 0
M  V30 3450 H 324.306 -4.11848 -3.67539 0
M  V30 3451 H 324.783 -2.42228 -3.66363 0
M  V30 3452 H 325.389 -3.51349 -2.39654 0
M  V30 3453 N 323.704 0.605807 -1.45491 0
M  V30 3454 C 324.652 1.73754 -1.54636 0
M  V30 3455 C 325.646 1.64207 -0.416219 0
M  V30 3456 O 326.852 1.69979 -0.592199 0
M  V30 3457 H 323.227 0.574073 -0.485741 0
M  V30 3458 H 325.198 1.63169 -2.49837 0
M  V30 3459 C 323.947 3.12135 -1.53189 0
M  V30 3460 H 323.27 3.20141 -2.39478 0
M  V30 3461 H 324.71 3.91147 -1.63645 0
M  V30 3462 C 323.169 3.35921 -0.256616 0
M  V30 3463 O 323.699 3.96194 0.662798 0
M  V30 3464 N 321.905 2.90204 -0.151751 0
M  V30 3465 H 321.452 2.41336 -0.90081 0
M  V30 3466 H 321.41 3.06492 0.700699 0
M  V30 3467 N 325.182 1.32811 0.848464 0
M  V30 3468 C 326.112 1.24882 1.97299 0
M  V30 3469 C 327.093 0.131357 1.69592 0
M  V30 3470 O 328.278 0.319553 1.91553 0
M  V30 3471 C 325.408 0.97746 3.33261 0
M  V30 3472 C 324.362 2.05682 3.75338 0
M  V30 3473 C 323.688 1.63777 5.09 0
M  V30 3474 C 324.988 3.47254 3.90144 0
M  V30 3475 H 326.682 2.18966 2.04191 0
M  V30 3476 H 324.228 1.05413 0.981029 0
M  V30 3477 H 326.181 0.908513 4.1149 0
M  V30 3478 H 324.905 0.000980011 3.266 0
M  V30 3479 H 323.564 2.11603 2.99366 0
M  V30 3480 H 323.212 0.648569 4.98801 0
M  V30 3481 H 322.912 2.36 5.38124 0
M  V30 3482 H 324.436 1.5833 5.89715 0
M  V30 3483 H 325.85 3.43888 4.58709 0
M  V30 3484 H 324.247 4.1788 4.30693 0
M  V30 3485 H 325.317 3.86462 2.92874 0
M  V30 3486 N 326.66 -1.06551 1.16123 0
M  V30 3487 C 327.59 -2.15935 0.88851 0
M  V30 3488 C 328.571 -1.69306 -0.164135 0
M  V30 3489 O 329.756 -1.94193 -0.0167857 0
M  V30 3490 C 326.886 -3.45149 0.385942 0
M  V30 3491 C 325.84 -4.05271 1.3762 0
M  V30 3492 C 325.166 -5.29664 0.732137 0
M  V30 3493 C 326.466 -4.44355 2.74493 0
M  V30 3494 H 328.16 -2.39006 1.80323 0
M  V30 3495 H 325.706 -1.14866 0.868435 0
M  V30 3496 H 327.659 -4.21004 0.182647 0
M  V30 3497 H 326.383 -3.21689 -0.564274 0
M  V30 3498 H 325.042 -3.3147 1.56599 0
M  V30 3499 H 324.69 -5.02499 -0.224483 0
M  V30 3500 H 324.39 -5.70848 1.39307 0
M  V30 3501 H 325.914 -6.08218 0.538802 0
M  V30 3502 H 327.328 -5.11303 2.59311 0
M  V30 3503 H 325.725 -4.96515 3.37035 0
M  V30 3504 H 326.795 -3.55339 3.29943 0
M  V30 3505 N 328.138 -0.959301 -1.25041 0
M  V30 3506 C 329.385 -0.616611 -1.92884 0
M  V30 3507 C 329.713 0.847036 -1.75087 0
M  V30 3508 O 328.968 1.62374 -1.09239 0
M  V30 3509 C 329.267 -0.927136 -3.45165 0
M  V30 3510 C 328.933 -2.37757 -3.83122 0
M  V30 3511 C 327.595 -2.77402 -3.93194 0
M  V30 3512 C 329.947 -3.31929 -4.01836 0
M  V30 3513 C 327.275 -4.10277 -4.19392 0
M  V30 3514 C 329.627 -4.64423 -4.29528 0
M  V30 3515 C 328.291 -5.03857 -4.37818 0
M  V30 3516 H 327.561 -0.225634 -0.705812 0
M  V30 3517 H 330.208 -1.20921 -1.48493 0
M  V30 3518 H 328.513 -0.252195 -3.90987 0
M  V30 3519 H 330.21 -0.6405 -3.95852 0
M  V30 3520 H 326.8 -2.06013 -3.75841 0
M  V30 3521 H 330.984 -3.02488 -3.93465 0
M  V30 3522 H 326.24 -4.40467 -4.24027 0
M  V30 3523 H 330.414 -5.37369 -4.42953 0
M  V30 3524 H 328.041 -6.06843 -4.57871 0
M  V30 3525 N 329.616 1.39756 -0.72842 0
M  V30 3526 C 330.863 2.00645 -0.273487 0
M  V30 3527 C 331.191 1.57786 1.13727 0
M  V30 3528 O 330.446 0.794886 1.7883 0
M  V30 3529 C 330.745 3.56002 -0.315776 0
M  V30 3530 C 330.411 4.18489 -1.67863 0
M  V30 3531 C 329.073 4.3527 -2.05166 0
M  V30 3532 C 331.425 4.53219 -2.57375 0
M  V30 3533 C 328.753 4.84069 -3.31503 0
M  V30 3534 C 331.105 5.03423 -3.83077 0
M  V30 3535 C 329.769 5.18413 -4.20481 0
M  V30 3536 H 329.039 0.734211 -0.100076 0
M  V30 3537 H 331.686 1.6718 -0.933972 0
M  V30 3538 H 329.991 3.89452 0.428285 0
M  V30 3539 H 331.688 4.00963 0.0542575 0
M  V30 3540 H 328.278 4.05824 -1.37858 0
M  V30 3541 H 332.462 4.39878 -2.29827 0
M  V30 3542 H 327.718 4.93859 -3.60435 0
M  V30 3543 H 331.892 5.2927 -4.52599 0
M  V30 3544 H 329.519 5.55987 -5.18443 0
M  V30 3545 N 331.094 0.475555 1.50254 0
M  V30 3546 C 332.34 -0.0701075 2.03279 0
M  V30 3547 C 332.695 -1.37007 1.35081 0
M  V30 3548 O 331.988 -1.8577 0.469052 0
M  V30 3549 C 332.182 -0.305114 3.56095 0
M  V30 3550 C 332.011 0.970515 4.39103 0
M  V30 3551 C 330.781 1.51509 4.82051 0
M  V30 3552 C 332.979 1.8671 4.79212 0
M  V30 3553 N 330.961 2.73928 5.49397 0
M  V30 3554 C 332.332 2.93715 5.46014 0
M  V30 3555 C 334.387 1.87695 4.61167 0
M  V30 3556 C 333.09 4.01699 5.96683 0
M  V30 3557 C 335.116 2.94637 5.12779 0
M  V30 3558 C 334.478 4.00361 5.79561 0
M  V30 3559 H 330.577 0.014486 0.781866 0
M  V30 3560 H 333.161 0.644755 1.83714 0
M  V30 3561 H 331.332 -0.989019 3.75597 0
M  V30 3562 H 333.064 -0.845516 3.95769 0
M  V30 3563 H 329.819 1.06367 4.61501 0
M  V30 3564 H 330.243 3.36109 5.87673 0
M  V30 3565 H 334.885 1.07273 4.08965 0
M  V30 3566 H 332.603 4.82934 6.4792 0
M  V30 3567 H 336.189 2.96388 5.00645 0
M  V30 3568 H 335.069 4.81751 6.18778 0
M  V30 3569 N 332.573 -1.56217 0.208337 0
M  V30 3570 C 333.483 -2.23316 -0.718836 0
M  V30 3571 C 334.499 -1.23648 -1.22422 0
M  V30 3572 O 335.675 -1.56423 -1.26861 0
M  V30 3573 C 332.74 -2.88968 -1.91568 0
M  V30 3574 C 331.801 -4.03943 -1.45357 0
M  V30 3575 C 331.034 -4.66455 -2.59337 0
M  V30 3576 O 331.257 -4.27919 -3.77149 0
M  V30 3577 O 330.191 -5.55686 -2.31293 0
M  V30 3578 H 334.017 -3.03182 -0.177315 0
M  V30 3579 H 331.602 -1.49384 -0.0215402 0
M  V30 3580 H 333.484 -3.30455 -2.61491 0
M  V30 3581 H 332.159 -2.12071 -2.44556 0
M  V30 3582 H 331.066 -3.67052 -0.722746 0
M  V30 3583 H 332.399 -4.82543 -0.970219 0
M  V30 3584 N 334.051 0.0651679 -1.57465 0
M  V30 3585 C 335.279 0.775808 -1.91804 0
M  V30 3586 C 335.694 1.70782 -0.804916 0
M  V30 3587 O 335.051 1.81153 0.221311 0
M  V30 3588 C 335.102 1.56381 -3.25925 0
M  V30 3589 O 334.823 0.669248 -4.32958 0
M  V30 3590 C 336.324 2.37485 -3.7432 0
M  V30 3591 H 333.544 0.2202 -0.63384 0
M  V30 3592 H 336.088 0.0334587 -2.04473 0
M  V30 3593 H 334.243 2.25837 -3.14764 0
M  V30 3594 H 334.657 1.21801 -5.10162 0
M  V30 3595 H 336.131 2.88223 -4.70778 0
M  V30 3596 H 336.608 3.17307 -3.03666 0
M  V30 3597 H 337.214 1.73173 -3.88447 0
M  V30 3598 N 335.529 1.53961 0.336706 0
M  V30 3599 C 336.479 1.7881 1.41461 0
M  V30 3600 C 337.463 0.643561 1.47469 0
M  V30 3601 O 338.655 0.903166 1.52223 0
M  V30 3602 C 335.784 2.00722 2.78506 0
M  V30 3603 C 334.87 3.2126 2.76862 0
M  V30 3604 N 335.261 4.42588 2.44845 0
M  V30 3605 C 333.559 3.22568 3.08004 0
M  V30 3606 C 334.26 5.2447 2.51607 0
M  V30 3607 N 333.236 4.61344 2.87511 0
M  V30 3608 H 337.038 2.70205 1.15615 0
M  V30 3609 H 334.552 1.52978 0.545112 0
M  V30 3610 H 336.549 2.1666 3.5618 0
M  V30 3611 H 335.209 1.10573 3.05293 0
M  V30 3612 H 336.22 4.69819 2.17922 0
M  V30 3613 H 332.897 2.42409 3.39918 0
M  V30 3614 H 334.287 6.31324 2.29955 0
M  V30 3615 N 337.007 -0.598083 1.45811 0
M  V30 3616 C 338.255 -1.35413 1.50026 0
M  V30 3617 C 338.576 -1.94444 0.147177 0
M  V30 3618 O 337.846 -1.77701 -0.824571 0
M  V30 3619 H 336.426 -0.502727 0.552517 0
M  V30 3620 H 339.088 -0.701606 1.81834 0
M  V30 3621 H 338.184 -2.16871 2.2444 0
M  V30 3622 N 338.485 -1.33259 -0.841409 0
M  V30 3623 C 339.713 -1.27605 -1.62864 0
M  V30 3624 C 340.128 0.153507 -1.88175 0
M  V30 3625 O 339.485 1.09485 -1.46011 0
M  V30 3626 C 339.536 -2.04596 -2.98031 0
M  V30 3627 O 339.257 -3.41975 -2.73834 0
M  V30 3628 C 340.758 -2.06122 -3.92465 0
M  V30 3629 H 337.978 -0.439718 -0.506842 0
M  V30 3630 H 340.522 -1.75591 -1.04824 0
M  V30 3631 H 338.677 -1.60299 -3.5268 0
M  V30 3632 H 339.091 -3.81549 -3.59889 0
M  V30 3633 H 340.565 -2.64451 -4.84531 0
M  V30 3634 H 341.042 -1.05083 -4.26444 0
M  V30 3635 H 341.648 -2.50427 -3.43753 0
M  V30 3636 N 339.963 1.05934 -1.16686 0
M  V30 3637 C 340.91 2.13499 -0.876748 0
M  V30 3638 C 341.88 1.65162 0.176299 0
M  V30 3639 O 343.065 1.90757 0.0407143 0
M  V30 3640 C 340.205 3.42912 -0.387967 0
M  V30 3641 C 339.318 4.04964 -1.50426 0
M  V30 3642 C 338.453 5.22266 -0.970125 0
M  V30 3643 C 337.492 5.76309 -2.06238 0
M  V30 3644 N 336.629 6.84922 -1.54356 0
M  V30 3645 H 341.469 2.37654 -1.7979 0
M  V30 3646 H 339.006 1.16598 -0.896843 0
M  V30 3647 H 340.964 4.17111 -0.086186 0
M  V30 3648 H 339.594 3.18963 0.496235 0
M  V30 3649 H 338.646 3.28277 -1.92193 0
M  V30 3650 H 339.958 4.41122 -2.32836 0
M  V30 3651 H 339.112 6.03506 -0.621743 0
M  V30 3652 H 337.851 4.87564 -0.115377 0
M  V30 3653 H 336.856 4.93704 -2.41942 0
M  V30 3654 H 338.081 6.13062 -2.92115 0
M  V30 3655 H 336.027 6.52131 -0.711406 0
M  V30 3656 H 335.944 7.20043 -2.30379 0
M  V30 3657 H 337.212 7.69832 -1.22387 0
M  V30 3658 N 341.441 0.965919 1.2453 0
M  V30 3659 C 342.389 0.486506 2.27455 0
M  V30 3660 C 343.383 -0.449041 1.6334 0
M  V30 3661 O 344.589 -0.324527 1.7705 0
M  V30 3662 H 340.964 0.138857 0.739069 0
M  V30 3663 H 342.935 1.3666 2.65267 0
M  V30 3664 C 341.684 -0.209481 3.47068 0
M  V30 3665 H 341.007 0.50129 3.96645 0
M  V30 3666 H 342.447 -0.508775 4.20936 0
M  V30 3667 C 340.906 -1.43586 3.0477 0
M  V30 3668 O 341.436 -2.53299 3.11773 0
M  V30 3669 N 339.642 -1.30126 2.59838 0
M  V30 3670 H 339.189 -0.408583 2.54339 0
M  V30 3671 H 339.147 -2.12294 2.31902 0
M  V30 3672 N 342.919 -1.39368 0.735821 0
M  V30 3673 C 344.149 -2.04498 0.293967 0
M  V30 3674 C 344.557 -1.55593 -1.07645 0
M  V30 3675 O 343.9 -0.716324 -1.69158 0
M  V30 3676 C 343.962 -3.58836 0.218342 0
M  V30 3677 C 343.626 -4.30721 1.52736 0
M  V30 3678 C 344.623 -4.57305 2.47322 0
M  V30 3679 C 342.308 -4.69251 1.79189 0
M  V30 3680 C 344.302 -5.21429 3.66593 0
M  V30 3681 C 341.989 -5.33104 2.98737 0
M  V30 3682 C 342.987 -5.59125 3.9226 0
M  V30 3683 O 342.675 -6.21653 5.09708 0
M  V30 3684 H 342.407 -0.664118 0.126189 0
M  V30 3685 H 344.961 -1.79385 1.00051 0
M  V30 3686 H 343.191 -3.8285 -0.544314 0
M  V30 3687 H 344.88 -4.05447 -0.191626 0
M  V30 3688 H 345.646 -4.27983 2.28156 0
M  V30 3689 H 341.525 -4.48354 1.07239 0
M  V30 3690 H 345.069 -5.41656 4.39607 0
M  V30 3691 H 340.966 -5.61846 3.17803 0
M  V30 3692 H 341.734 -6.40146 5.10054 0
M  V30 3693 N 344.397 -0.483516 -1.5 0
M  V30 3694 C 345.644 0.0671597 -2.02389 0
M  V30 3695 C 345.972 1.38597 -1.36459 0
M  V30 3696 O 345.227 1.89634 -0.483458 0
M  V30 3697 C 345.526 0.286226 -3.56252 0
M  V30 3698 C 345.192 -0.952416 -4.40726 0
M  V30 3699 C 343.854 -1.29199 -4.63531 0
M  V30 3700 C 346.206 -1.77655 -4.89988 0
M  V30 3701 C 343.534 -2.45553 -5.32842 0
M  V30 3702 C 345.886 -2.93147 -5.60578 0
M  V30 3703 C 344.55 -3.27505 -5.81633 0
M  V30 3704 H 343.82 0.0245755 -0.740592 0
M  V30 3705 H 346.467 -0.640124 -1.80485 0
M  V30 3706 H 344.772 1.07587 -3.76739 0
M  V30 3707 H 346.469 0.726473 -3.94365 0
M  V30 3708 H 343.059 -0.677881 -4.23205 0
M  V30 3709 H 347.243 -1.52737 -4.72213 0
M  V30 3710 H 342.499 -2.72431 -5.47349 0
M  V30 3711 H 346.673 -3.57344 -5.97727 0
M  V30 3712 H 344.3 -4.1777 -6.35116 0
M  V30 3713 N 345.875 1.56104 -0.216619 0
M  V30 3714 C 347.103 2.02563 0.421413 0
M  V30 3715 C 347.518 1.0965 1.53695 0
M  V30 3716 O 346.875 0.10521 1.82196 0
M  V30 3717 C 346.926 3.48584 0.957665 0
M  V30 3718 O 346.647 4.37953 -0.113389 0
M  V30 3719 C 348.148 4.10664 1.66943 0
M  V30 3720 H 345.368 0.662944 0.103665 0
M  V30 3721 H 347.912 2.01793 -0.331629 0
M  V30 3722 H 346.067 3.49985 1.661 0
M  V30 3723 H 346.481 5.23704 0.288932 0
M  V30 3724 H 347.955 5.14622 1.99671 0
M  V30 3725 H 348.432 3.55373 2.58083 0
M  V30 3726 H 349.038 4.13098 1.01142 0
M  V30 3727 N 347.353 -0.0568162 1.57498 0
M  V30 3728 C 348.578 -0.769402 1.92601 0
M  V30 3729 C 349.003 -1.69559 0.814336 0
M  V30 3730 O 348.361 -1.79811 -0.231903 0
M  V30 3731 C 348.409 -1.52634 3.26704 0
M  V30 3732 O 347.513 -2.63797 3.16994 0
M  V30 3733 H 346.854 -0.208909 0.63028 0
M  V30 3734 H 349.384 -0.0205798 2.0459 0
M  V30 3735 H 349.394 -1.90234 3.60936 0
M  V30 3736 H 348.069 -0.846875 4.07186 0
M  V30 3737 H 346.646 -2.28943 2.94346 0
M  V30 3738 N 348.832 -1.54138 -0.328536 0
M  V30 3739 C 350.078 -1.7236 -1.06865 0
M  V30 3740 C 350.411 -0.493231 -1.87832 0
M  V30 3741 O 349.686 0.5098 -1.877 0
M  V30 3742 C 349.969 -2.99621 -1.99747 0
M  V30 3743 C 349.822 -4.32899 -1.22143 0
M  V30 3744 C 351.141 -3.22615 -2.99345 0
M  V30 3745 H 348.26 -0.627151 -0.387105 0
M  V30 3746 H 350.902 -1.86827 -0.345767 0
M  V30 3747 H 349.052 -2.87418 -2.61387 0
M  V30 3748 H 350.724 -4.56978 -0.630017 0
M  V30 3749 H 348.967 -4.30628 -0.523628 0
M  V30 3750 H 349.638 -5.18154 -1.90318 0
M  V30 3751 H 352.114 -3.34248 -2.47826 0
M  V30 3752 H 350.99 -4.13027 -3.61524 0
M  V30 3753 H 351.251 -2.3961 -3.71536 0
M  V30 3754 N 350.31 0.590341 -1.46126 0
M  V30 3755 C 351.273 1.68194 -1.55703 0
M  V30 3756 C 352.273 1.54808 -0.434868 0
M  V30 3757 O 353.463 1.59564 -0.698928 0
M  V30 3758 C 350.595 3.07575 -1.47005 0
M  V30 3759 H 351.788 1.61064 -2.52979 0
M  V30 3760 H 349.341 0.807541 -1.33823 0
M  V30 3761 H 350.076 3.20268 -0.509785 0
M  V30 3762 H 349.861 3.187 -2.28414 0
M  V30 3763 H 351.351 3.87055 -1.56776 0
M  V30 3764 N 351.788 1.33704 0.83433 0
M  V30 3765 C 352.738 1.20899 1.93306 0
M  V30 3766 C 353.722 0.110783 1.60518 0
M  V30 3767 O 354.914 0.339331 1.73717 0
M  V30 3768 C 352.043 0.955018 3.29749 0
M  V30 3769 C 351.129 2.09587 3.68692 0
M  V30 3770 N 351.52 3.34621 3.79292 0
M  V30 3771 C 349.818 2.00358 3.98463 0
M  V30 3772 C 350.519 4.09472 4.13167 0
M  V30 3773 N 349.495 3.37954 4.25779 0
M  V30 3774 H 353.297 2.15665 1.99664 0
M  V30 3775 H 350.811 1.25777 1.02732 0
M  V30 3776 H 352.808 0.844208 4.08263 0
M  V30 3777 H 351.468 0.0159317 3.24696 0
M  V30 3778 H 352.479 3.69313 3.63082 0
M  V30 3779 H 349.156 1.14137 4.01596 0
M  V30 3780 H 350.546 5.17391 4.28668 0
M  V30 3781 N 353.266 -1.05314 1.17247 0
M  V30 3782 C 354.677 -1.59753 0.96623 0
M  V30 3783 C 355.028 -1.9005 -0.487378 0
M  V30 3784 O 354.153 -1.68126 -1.36245 0
M  V30 3785 C 354.748 -2.90249 1.74759 0
M  V30 3786 C 353.307 -3.41352 1.58606 0
M  V30 3787 C 352.454 -2.15103 1.75002 0
M  V30 3788 H 355.405 -0.881406 1.31973 0
M  V30 3789 H 355.426 -3.60097 1.22925 0
M  V30 3790 H 354.938 -2.68166 2.8055 0
M  V30 3791 H 353.039 -3.68474 0.552985 0
M  V30 3792 H 353.152 -4.16019 2.37624 0
M  V30 3793 H 351.516 -2.25804 1.17833 0
M  V30 3794 H 352.299 -1.95491 2.82202 0
M  V30 3795 N 354.744 -0.972509 -1.24016 0
M  V30 3796 C 355.692 -0.498562 -2.27194 0
M  V30 3797 C 356.686 0.440372 -1.63576 0
M  V30 3798 O 357.892 0.315133 -1.7722 0
M  V30 3799 H 354.267 -0.142775 -0.738322 0
M  V30 3800 H 356.238 -1.38065 -2.64539 0
M  V30 3801 C 354.987 0.191072 -3.47175 0
M  V30 3802 H 354.31 -0.522318 -3.96373 0
M  V30 3803 H 355.75 0.486445 -4.212 0
M  V30 3804 C 354.209 1.41967 -3.05527 0
M  V30 3805 O 354.739 2.51642 -3.13112 0
M  V30 3806 N 352.945 1.28746 -2.60524 0
M  V30 3807 H 352.492 0.395089 -2.54552 0
M  V30 3808 H 352.45 2.11061 -2.33025 0
M  V30 3809 N 356.222 1.38976 -0.743202 0
M  V30 3810 C 357.152 2.33171 -0.123873 0
M  V30 3811 C 358.133 1.54336 0.71516 0
M  V30 3812 O 359.318 1.82696 0.658467 0
M  V30 3813 C 356.448 3.38474 0.777978 0
M  V30 3814 C 355.402 4.27979 0.0424758 0
M  V30 3815 C 354.728 5.2405 1.06189 0
M  V30 3816 C 356.028 5.10155 -1.1198 0
M  V30 3817 H 357.722 2.85213 -0.910709 0
M  V30 3818 H 355.268 1.37133 -0.439388 0
M  V30 3819 H 357.221 4.03328 1.22084 0
M  V30 3820 H 355.945 2.84891 1.59702 0
M  V30 3821 H 354.604 3.64616 -0.380853 0
M  V30 3822 H 354.252 4.66758 1.87472 0
M  V30 3823 H 353.952 5.84785 0.574485 0
M  V30 3824 H 355.476 5.9178 1.50428 0
M  V30 3825 H 356.89 5.68307 -0.75499 0
M  V30 3826 H 355.287 5.80073 -1.53738 0
M  V30 3827 H 356.357 4.44504 -1.93764 0
M  V30 3828 N 357.7 0.491464 1.49741 0
M  V30 3829 C 358.947 -0.0564256 2.02421 0
M  V30 3830 C 359.275 -1.37872 1.37192 0
M  V30 3831 O 358.53 -1.89375 0.493508 0
M  V30 3832 C 358.829 -0.267329 3.56399 0
M  V30 3833 C 358.495 0.975775 4.40215 0
M  V30 3834 C 357.157 1.31655 4.62839 0
M  V30 3835 C 359.509 1.80251 4.89039 0
M  V30 3836 C 356.837 2.48375 5.31532 0
M  V30 3837 C 359.189 2.96116 5.59015 0
M  V30 3838 C 357.853 3.30585 5.79888 0
M  V30 3839 H 357.123 -0.0206476 0.740712 0
M  V30 3840 H 359.77 0.649686 1.80143 0
M  V30 3841 H 358.075 -1.05588 3.77304 0
M  V30 3842 H 359.772 -0.705549 3.94744 0
M  V30 3843 H 356.362 0.700315 4.2284 0
M  V30 3844 H 360.546 1.55239 4.71396 0
M  V30 3845 H 355.802 2.7533 5.45897 0
M  V30 3846 H 359.976 3.60509 5.95824 0
M  V30 3847 H 357.603 4.21132 6.32892 0
M  V30 3848 N 359.178 -1.55987 0.224894 0
M  V30 3849 C 360.427 -1.97566 -0.406273 0
M  V30 3850 C 360.74 -1.11569 -1.6066 0
M  V30 3851 O 361.946 -1.43062 -2.3075 0
M  V30 3852 C 360.402 -3.51474 -0.774207 0
M  V30 3853 C 360.01 -4.46179 0.403496 0
M  V30 3854 C 361.754 -4.01758 -1.37079 0
M  V30 3855 C 359.661 -5.91399 0.0129412 0
M  V30 3856 H 358.591 -0.737777 -0.155565 0
M  V30 3857 H 361.242 -1.80659 0.321635 0
M  V30 3858 H 359.624 -3.63994 -1.55963 0
M  V30 3859 H 360.798 -4.45409 1.18101 0
M  V30 3860 H 359.113 -4.06255 0.913536 0
M  V30 3861 H 361.71 -5.07756 -1.67596 0
M  V30 3862 H 362.053 -3.47805 -2.28773 0
M  V30 3863 H 362.586 -3.92475 -0.648733 0
M  V30 3864 H 359.325 -6.49341 0.896451 0
M  V30 3865 H 358.845 -5.95356 -0.728821 0
M  V30 3866 H 360.524 -6.45683 -0.412582 0
M  V30 3867 N 360.656 0.0484629 -1.57525 0
M  V30 3868 C 361.619 1.03956 -2.04269 0
M  V30 3869 C 362.619 1.30211 -0.943496 0
M  V30 3870 O 363.809 1.25539 -1.20771 0
M  V30 3871 C 360.941 2.37742 -2.44319 0
M  V30 3872 H 362.134 0.636182 -2.93075 0
M  V30 3873 H 359.687 0.294811 -1.53494 0
M  V30 3874 H 360.422 2.82866 -1.5861 0
M  V30 3875 H 360.207 2.20021 -3.24551 0
M  V30 3876 H 361.697 3.08936 -2.80978 0
M  V30 3877 N 362.134 1.5431 0.320358 0
M  V30 3878 C 363.362 1.76636 1.07738 0
M  V30 3879 C 363.777 0.51649 1.81598 0
M  V30 3880 O 363.134 -0.512942 1.75143 0
M  V30 3881 C 363.185 2.96158 2.07299 0
M  V30 3882 O 362.906 4.16313 1.36438 0
M  V30 3883 C 364.407 3.3072 2.95193 0
M  V30 3884 H 361.627 0.589597 0.320339 0
M  V30 3885 H 364.171 2.01207 0.36551 0
M  V30 3886 H 362.326 2.73851 2.74016 0
M  V30 3887 H 362.74 4.83565 2.03138 0
M  V30 3888 H 364.214 4.17643 3.60941 0
M  V30 3889 H 364.691 2.48026 3.62463 0
M  V30 3890 H 365.297 3.55117 2.34034 0
M  V30 3891 N 363.613 -0.582584 1.46437 0
M  V30 3892 C 364.56 -1.69164 1.5701 0
M  V30 3893 C 365.53 -1.60847 0.414403 0
M  V30 3894 O 366.715 -1.80058 0.631171 0
M  V30 3895 C 363.855 -3.075 1.56646 0
M  V30 3896 C 362.968 -3.2644 2.82951 0
M  V30 3897 C 362.103 -4.55026 2.7409 0
M  V30 3898 C 361.142 -4.6731 3.95333 0
M  V30 3899 N 360.279 -5.87221 3.84858 0
M  V30 3900 H 365.119 -1.59464 2.51744 0
M  V30 3901 H 362.656 -0.777186 1.24893 0
M  V30 3902 H 364.614 -3.8757 1.5442 0
M  V30 3903 H 363.244 -3.16096 0.654439 0
M  V30 3904 H 362.296 -2.39974 2.95155 0
M  V30 3905 H 363.608 -3.31385 3.72808 0
M  V30 3906 H 362.762 -5.43324 2.6997 0
M  V30 3907 H 361.501 -4.52519 1.81873 0
M  V30 3908 H 360.506 -3.77429 3.99784 0
M  V30 3909 H 361.731 -4.71595 4.88646 0
M  V30 3910 H 359.677 -5.85712 2.95427 0
M  V30 3911 H 359.594 -5.93435 4.6837 0
M  V30 3912 H 360.862 -6.7795 3.84713 0
M  V30 3913 N 365.091 -1.34144 -0.827227 0
M  V30 3914 C 366.023 -1.21206 -1.9453 0
M  V30 3915 C 367.036 -0.140176 -1.62195 0
M  V30 3916 O 368.225 -0.391647 -1.7415 0
M  V30 3917 C 365.325 -0.839141 -3.28347 0
M  V30 3918 C 364.498 -2.0051 -3.88734 0
M  V30 3919 C 363.557 -1.61128 -5.00923 0
M  V30 3920 O 362.583 -2.32726 -5.19449 0
M  V30 3921 N 363.785 -0.522958 -5.7814 0
M  V30 3922 H 366.55 -2.17525 -2.06162 0
M  V30 3923 H 364.111 -1.27043 -1.00358 0
M  V30 3924 H 366.103 -0.557556 -4.00841 0
M  V30 3925 H 364.673 0.0337293 -3.12582 0
M  V30 3926 H 363.893 -2.45166 -3.08686 0
M  V30 3927 H 365.181 -2.78498 -4.25812 0
M  V30 3928 H 364.579 0.0723518 -5.65654 0
M  V30 3929 H 363.136 -0.301089 -6.51104 0
M  V30 3930 N 366.569 1.04691 -1.17803 0
M  V30 3931 C 367.846 1.7472 -0.879328 0
M  V30 3932 C 368.226 2.01812 0.619271 0
M  V30 3933 O 367.574 1.65824 1.57209 0
M  V30 3934 C 367.784 3.03686 -1.71976 0
M  V30 3935 C 369.132 3.77542 -1.94286 0
M  V30 3936 O 370.156 3.13569 -1.68976 0
M  V30 3937 O 369.015 4.92506 -2.36855 0
M  V30 3938 H 366.109 0.760011 -0.326056 0
M  V30 3939 H 368.655 1.10813 -1.28525 0
M  V30 3940 H 367.427 2.79754 -2.73594 0
M  V30 3941 H 367.05 3.75332 -1.31194 0
M  V30 3942 N 368.047 0.979072 1.23499 0
M  V30 3943 C 369.277 0.664237 1.95631 0
M  V30 3944 C 369.685 -0.772653 1.72704 0
M  V30 3945 O 369.028 -1.53141 1.01457 0
M  V30 3946 C 369.09 0.873115 3.48736 0
M  V30 3947 C 368.754 2.29182 3.95379 0
M  V30 3948 C 369.751 3.2704 4.04155 0
M  V30 3949 C 367.436 2.62256 4.28401 0
M  V30 3950 C 369.43 4.56052 4.45304 0
M  V30 3951 C 367.117 3.91491 4.69231 0
M  V30 3952 C 368.115 4.88201 4.77649 0
M  V30 3953 O 367.803 6.15129 5.17563 0
M  V30 3954 H 367.535 0.245915 0.629684 0
M  V30 3955 H 370.089 1.3127 1.57979 0
M  V30 3956 H 368.319 0.167476 3.86337 0
M  V30 3957 H 370.008 0.555642 4.02079 0
M  V30 3958 H 370.774 3.02819 3.78848 0
M  V30 3959 H 366.653 1.87692 4.21061 0
M  V30 3960 H 370.197 5.31538 4.51789 0
M  V30 3961 H 366.094 4.15508 4.93987 0
M  V30 3962 H 366.862 6.18862 5.35679 0
M  V30 3963 N 369.525 -1.3858 0.750561 0
M  V30 3964 C 370.771 -2.0095 0.31477 0
M  V30 3965 C 371.126 -1.58509 -1.09053 0
M  V30 3966 O 370.419 -0.8112 -1.7358 0
M  V30 3967 C 370.613 -3.55455 0.372373 0
M  V30 3968 C 370.442 -4.12898 1.78173 0
M  V30 3969 C 369.212 -4.44797 2.39757 0
M  V30 3970 C 371.41 -4.35366 2.7379 0
M  V30 3971 N 369.392 -4.87831 3.72685 0
M  V30 3972 C 370.763 -4.80775 3.91478 0
M  V30 3973 C 372.818 -4.1746 2.71351 0
M  V30 3974 C 371.521 -5.10155 5.07084 0
M  V30 3975 C 373.547 -4.47963 3.86113 0
M  V30 3976 C 372.909 -4.93593 5.02539 0
M  V30 3977 H 369.008 -0.765083 0.161776 0
M  V30 3978 H 371.592 -1.68246 0.979867 0
M  V30 3979 H 369.763 -3.87512 -0.26244 0
M  V30 3980 H 371.495 -4.04614 -0.0834479 0
M  V30 3981 H 368.25 -4.33135 1.91548 0
M  V30 3982 H 368.674 -5.13685 4.40972 0
M  V30 3983 H 373.316 -3.81372 1.82524 0
M  V30 3984 H 371.034 -5.45141 5.96529 0
M  V30 3985 H 374.62 -4.35717 3.85542 0
M  V30 3986 H 373.5 -5.16746 5.89867 0
M  V30 3987 N 371.003 -0.499398 -1.49478 0
M  V30 3988 C 372.249 0.0457576 -2.02748 0
M  V30 3989 C 372.582 1.36793 -1.37846 0
M  V30 3990 O 371.857 1.87596 -0.513601 0
M  V30 3991 C 372.14 0.199986 -3.59544 0
M  V30 3992 C 371.993 -1.1452 -4.34977 0
M  V30 3993 C 373.312 0.94137 -4.29914 0
M  V30 3994 H 370.431 0.0151552 -0.736844 0
M  V30 3995 H 373.073 -0.650498 -1.78518 0
M  V30 3996 H 371.223 0.793007 -3.8032 0
M  V30 3997 H 372.895 -1.77697 -4.25701 0
M  V30 3998 H 371.138 -1.73488 -3.97598 0
M  V30 3999 H 371.809 -0.990607 -5.43039 0
M  V30 4000 H 374.285 0.43844 -4.13784 0
M  V30 4001 H 373.161 1.01812 -5.39375 0
M  V30 4002 H 373.422 1.98471 -3.95046 0
M  V30 4003 N 372.481 1.55866 -0.233164 0
M  V30 4004 C 373.721 2.00506 0.397078 0
M  V30 4005 C 374.085 1.1176 1.56121 0
M  V30 4006 O 375.286 1.45796 2.25825 0
M  V30 4007 C 373.557 3.4811 0.809601 0
M  V30 4008 S 375.116 4.14765 1.43231 0
M  V30 4009 H 371.934 0.699828 0.125547 0
M  V30 4010 H 374.536 1.92429 -0.345177 0
M  V30 4011 H 373.24 4.10373 -0.0471601 0
M  V30 4012 H 372.771 3.60085 1.58438 0
M  V30 4013 H 374.786 4.14914 2.7214 0
M  V30 4014 N 373.959 -0.0401083 1.57549 0
M  V30 4015 C 374.889 -1.04384 2.08869 0
M  V30 4016 C 375.87 -1.38407 0.988817 0
M  V30 4017 O 377.055 -1.47483 1.26342 0
M  V30 4018 C 374.185 -2.34808 2.55895 0
M  V30 4019 C 373.139 -2.15057 3.70047 0
M  V30 4020 C 372.465 -3.51145 4.03239 0
M  V30 4021 C 373.765 -1.54576 4.98902 0
M  V30 4022 H 375.459 -0.616666 2.92981 0
M  V30 4023 H 373.005 -0.295184 1.40942 0
M  V30 4024 H 374.958 -3.05346 2.90417 0
M  V30 4025 H 373.682 -2.79565 1.68853 0
M  V30 4026 H 372.341 -1.46954 3.35857 0
M  V30 4027 H 371.989 -3.93529 3.13279 0
M  V30 4028 H 371.689 -3.38758 4.80122 0
M  V30 4029 H 373.213 -4.23062 4.40285 0
M  V30 4030 H 374.627 -2.15017 5.31451 0
M  V30 4031 H 373.024 -1.52796 5.80322 0
M  V30 4032 H 374.094 -0.51039 4.82206 0
M  V30 4033 N 375.437 -1.54477 -0.31217 0
M  V30 4034 C 376.4 -1.83923 -1.36766 0
M  V30 4035 C 377.4 -0.711563 -1.44199 0
M  V30 4036 O 378.59 -0.979866 -1.44029 0
M  V30 4037 C 375.722 -2.0095 -2.75376 0
M  V30 4038 H 376.915 -2.78239 -1.11906 0
M  V30 4039 H 374.468 -1.46369 -0.548257 0
M  V30 4040 H 375.203 -1.08883 -3.05475 0
M  V30 4041 H 374.988 -2.83018 -2.71373 0
M  V30 4042 H 376.478 -2.2514 -3.51713 0
M  V30 4043 N 376.915 0.57481 -1.46744 0
M  V30 4044 C 378.163 1.33009 -1.52161 0
M  V30 4045 C 378.484 1.94185 -0.178092 0
M  V30 4046 O 377.754 1.7899 0.796196 0
M  V30 4047 H 376.334 0.493873 -0.560445 0
M  V30 4048 H 378.996 0.672589 -1.82927 0
M  V30 4049 H 378.092 2.13273 -2.27862 0
M  V30 4050 N 378.394 1.34581 0.820102 0
M  V30 4051 C 379.642 1.26845 1.57336 0
M  V30 4052 C 379.963 -0.160667 1.94337 0
M  V30 4053 O 379.233 -1.09396 1.6251 0
M  V30 4054 H 377.813 0.466514 0.583415 0
M  V30 4055 H 380.475 1.68526 0.979027 0
M  V30 4056 H 379.571 1.87513 2.4949 0
M  V30 4057 N 379.872 -1.04064 1.18357 0
M  V30 4058 C 381.283 -1.58719 0.98312 0
M  V30 4059 C 381.634 -1.90556 -0.467193 0
M  V30 4060 O 380.759 -1.69561 -1.34454 0
M  V30 4061 C 381.354 -2.88379 1.77828 0
M  V30 4062 C 379.913 -3.3965 1.62218 0
M  V30 4063 C 379.06 -2.13235 1.77274 0
M  V30 4064 H 382.011 -0.867359 1.32901 0
M  V30 4065 H 382.032 -3.58773 1.26737 0
M  V30 4066 H 381.544 -2.65176 2.83379 0
M  V30 4067 H 379.645 -3.67866 0.592036 0
M  V30 4068 H 379.758 -4.13475 2.42023 0
M  V30 4069 H 378.122 -2.24542 1.20221 0
M  V30 4070 H 378.905 -1.92487 2.8426 0
M  V30 4071 N 381.35 -0.985608 -1.22978 0
M  V30 4072 C 382.761 -0.693593 -1.73338 0
M  V30 4073 C 383.112 0.789935 -1.79595 0
M  V30 4074 O 382.237 1.61771 -1.43733 0
M  V30 4075 C 382.832 -1.25235 -3.14804 0
M  V30 4076 C 381.391 -1.00987 -3.626 0
M  V30 4077 C 380.538 -1.37695 -2.40698 0
M  V30 4078 H 383.489 -1.15884 -1.08428 0
M  V30 4079 H 383.51 -0.627329 -3.75293 0
M  V30 4080 H 383.022 -2.33209 -3.10218 0
M  V30 4081 H 381.123 0.0535565 -3.72562 0
M  V30 4082 H 381.236 -1.66812 -4.49122 0
M  V30 4083 H 379.6 -0.795459 -2.4196 0
M  V30 4084 H 380.383 -2.46657 -2.38779 0
M  V30 4085 N 382.828 1.3818 -0.7579 0
M  V30 4086 C 384.053 2.04827 -0.325679 0
M  V30 4087 C 384.478 1.56788 1.03919 0
M  V30 4088 O 383.836 0.721811 1.66312 0
M  V30 4089 C 383.884 3.58774 -0.362447 0
M  V30 4090 O 382.988 4.07372 0.642033 0
M  V30 4091 H 382.329 0.64833 -0.143402 0
M  V30 4092 H 384.859 1.7677 -1.03023 0
M  V30 4093 H 384.869 4.07434 -0.214844 0
M  V30 4094 H 383.544 3.93096 -1.35824 0
M  V30 4095 H 382.121 3.70068 0.458688 0
M  V30 4096 N 384.306 0.507319 1.49211 0
M  V30 4097 C 385.555 -0.0368315 2.01666 0
M  V30 4098 C 385.868 -1.37459 1.39156 0
M  V30 4099 O 387.074 -2.00579 1.82976 0
M  V30 4100 C 385.53 -0.116089 3.59713 0
M  V30 4101 C 385.138 1.2154 4.31198 0
M  V30 4102 C 386.882 -0.610268 4.2009 0
M  V30 4103 C 384.789 1.09796 5.81119 0
M  V30 4104 H 383.719 -0.0175376 0.753796 0
M  V30 4105 H 386.37 0.647691 1.71689 0
M  V30 4106 H 384.752 -0.8652 3.86433 0
M  V30 4107 H 385.926 1.9783 4.16173 0
M  V30 4108 H 384.241 1.64352 3.82593 0
M  V30 4109 H 386.838 -0.715742 5.29888 0
M  V30 4110 H 387.181 -1.61064 3.8388 0
M  V30 4111 H 387.714 0.0824916 3.97714 0
M  V30 4112 H 384.453 2.0728 6.21864 0
M  V30 4113 H 383.973 0.376058 5.9862 0
M  V30 4114 H 385.652 0.779281 6.4229 0
M  V30 4115 N 385.784 -1.5574 0.241426 0
M  V30 4116 C 387.012 -2.03208 -0.389134 0
M  V30 4117 C 387.427 -1.12082 -1.51931 0
M  V30 4118 O 386.784 -0.134183 -1.82006 0
M  V30 4119 C 386.835 -3.50064 -0.902087 0
M  V30 4120 O 386.556 -4.37717 0.18305 0
M  V30 4121 C 388.057 -4.13268 -1.60389 0
M  V30 4122 H 385.277 -0.664509 -0.0931053 0
M  V30 4123 H 387.821 -2.0124 0.36369 0
M  V30 4124 H 385.976 -3.52583 -1.60511 0
M  V30 4125 H 386.39 -5.24097 -0.205579 0
M  V30 4126 H 387.864 -5.17733 -1.91458 0
M  V30 4127 H 388.341 -3.59434 -2.52397 0
M  V30 4128 H 388.947 -4.14655 -0.945576 0
M  V30 4129 N 387.262 0.0317525 -1.57568 0
M  V30 4130 C 388.539 0.758366 -1.803 0
M  V30 4131 C 388.919 1.93718 -0.838845 0
M  V30 4132 O 388.267 2.28187 0.119571 0
M  V30 4133 C 388.477 1.19392 -3.27943 0
M  V30 4134 C 389.825 1.61094 -3.92854 0
M  V30 4135 O 390.849 1.28857 -3.32076 0
M  V30 4136 O 389.708 2.20918 -4.99858 0
M  V30 4137 H 386.802 0.366514 -0.741348 0
M  V30 4138 H 389.348 0.00873765 -1.69698 0
M  V30 4139 H 388.12 0.352275 -3.89711 0
M  V30 4140 H 387.743 2.00365 -3.43424 0
M  V30 4141 N 388.74 1.54641 0.303973 0
M  V30 4142 C 389.987 1.7378 1.03955 0
M  V30 4143 C 390.315 0.521986 1.87365 0
M  V30 4144 O 389.57 -0.496099 1.89308 0
M  V30 4145 C 389.869 2.97753 1.97681 0
M  V30 4146 C 389.535 4.31671 1.30271 0
M  V30 4147 C 388.197 4.68075 1.11619 0
M  V30 4148 C 390.549 5.147 0.82055 0
M  V30 4149 C 387.877 5.8509 0.434304 0
M  V30 4150 C 390.229 6.32416 0.152395 0
M  V30 4151 C 388.893 6.67484 -0.0461067 0
M  V30 4152 H 388.163 0.635908 0.380398 0
M  V30 4153 H 390.81 1.88896 0.314718 0
M  V30 4154 H 389.115 2.77406 2.76682 0
M  V30 4155 H 390.812 3.09756 2.54661 0
M  V30 4156 H 387.402 4.03041 1.45795 0
M  V30 4157 H 391.586 4.87077 0.952374 0
M  V30 4158 H 386.842 6.10806 0.269495 0
M  V30 4159 H 391.016 6.96023 -0.229126 0
M  V30 4160 H 388.643 7.58011 -0.576494 0
M  V30 4161 N 390.218 -0.567019 1.47046 0
M  V30 4162 C 391.15 -1.68985 1.54844 0
M  V30 4163 C 392.163 -1.56869 0.435431 0
M  V30 4164 O 393.352 -1.64006 0.70457 0
M  V30 4165 C 390.452 -3.07373 1.42742 0
M  V30 4166 C 389.625 -3.45339 2.6844 0
M  V30 4167 C 388.684 -4.62849 2.50314 0
M  V30 4168 O 387.71 -4.67922 3.24095 0
M  V30 4169 N 388.912 -5.58726 1.57499 0
M  V30 4170 H 391.677 -1.62745 2.51663 0
M  V30 4171 H 389.238 -0.753411 1.43302 0
M  V30 4172 H 391.23 -3.83803 1.28365 0
M  V30 4173 H 389.8 -3.07893 0.540445 0
M  V30 4174 H 389.02 -2.58455 2.97648 0
M  V30 4175 H 390.308 -3.67476 3.51907 0
M  V30 4176 H 389.706 -5.57376 0.966876 0
M  V30 4177 H 388.263 -6.34523 1.49078 0
M  V30 4178 N 391.696 -1.35014 -0.812953 0
M  V30 4179 C 392.945 -1.27269 -1.56479 0
M  V30 4180 C 393.258 0.152771 -1.95002 0
M  V30 4181 O 394.464 0.352451 -2.69203 0
M  V30 4182 C 392.92 -2.23159 -2.82362 0
M  V30 4183 C 392.528 -3.71016 -2.511 0
M  V30 4184 C 394.272 -2.24342 -3.60376 0
M  V30 4185 C 392.179 -4.58746 -3.73237 0
M  V30 4186 H 391.109 -0.472829 -0.587324 0
M  V30 4187 H 393.76 -1.6024 -0.894171 0
M  V30 4188 H 392.142 -1.83151 -3.51101 0
M  V30 4189 H 393.316 -4.1962 -1.90409 0
M  V30 4190 H 391.631 -3.72378 -1.86343 0
M  V30 4191 H 394.228 -2.87107 -4.51081 0
M  V30 4192 H 394.571 -1.24542 -3.97234 0
M  V30 4193 H 395.104 -2.62846 -2.98591 0
M  V30 4194 H 391.843 -5.59521 -3.41492 0
M  V30 4195 H 391.363 -4.14871 -4.33176 0
M  V30 4196 H 393.042 -4.73852 -4.40537 0
M  V30 4197 N 393.175 1.03435 -1.18907 0
M  V30 4198 C 394.105 2.13503 -0.945448 0
M  V30 4199 C 395.086 1.69682 0.119189 0
M  V30 4200 O 396.271 1.94169 -0.034707 0
M  V30 4201 C 393.401 3.44004 -0.477316 0
M  V30 4202 C 392.355 4.0148 -1.48316 0
M  V30 4203 C 391.681 5.27537 -0.872311 0
M  V30 4204 C 392.981 4.36921 -2.86177 0
M  V30 4205 H 394.675 2.34141 -1.86597 0
M  V30 4206 H 392.221 1.12523 -0.898584 0
M  V30 4207 H 394.174 4.20372 -0.294204 0
M  V30 4208 H 392.898 3.23072 0.478786 0
M  V30 4209 H 391.557 3.27201 -1.65332 0
M  V30 4210 H 391.205 5.02917 0.0911752 0
M  V30 4211 H 390.905 5.66954 -1.54393 0
M  V30 4212 H 392.429 6.06576 -0.699871 0
M  V30 4213 H 393.843 5.04248 -2.72776 0
M  V30 4214 H 392.24 4.87405 -3.50081 0
M  V30 4215 H 393.31 3.46466 -3.39248 0
M  V30 4216 N 394.653 0.992116 1.22453 0
M  V30 4217 C 395.563 0.55065 2.28046 0
M  V30 4218 C 396.579 -0.400189 1.69335 0
M  V30 4219 O 397.755 -0.267215 1.99619 0
M  V30 4220 C 394.82 -0.128496 3.46462 0
M  V30 4221 C 393.881 0.865208 4.20491 0
M  V30 4222 C 393.114 0.218377 5.33253 0
M  V30 4223 O 393.337 -0.987894 5.6178 0
M  V30 4224 O 392.271 0.922845 5.94783 0
M  V30 4225 H 396.097 1.4291 2.67975 0
M  V30 4226 H 393.682 0.760326 1.28606 0
M  V30 4227 H 395.564 -0.508947 4.18315 0
M  V30 4228 H 394.239 -0.981526 3.0846 0
M  V30 4229 H 393.146 1.29658 3.50913 0
M  V30 4230 H 394.479 1.68741 4.62371 0
M  V30 4231 N 396.131 -1.37776 0.765217 0
M  V30 4232 C 397.079 -2.32209 0.134798 0
M  V30 4233 C 398.073 -1.54607 -0.692315 0
M  V30 4234 O 399.279 -1.70052 -0.590109 0
M  V30 4235 H 395.654 -0.751591 0.0248005 0
M  V30 4236 H 397.625 -2.8297 0.947119 0
M  V30 4237 C 396.374 -3.39841 -0.735063 0
M  V30 4238 H 395.697 -3.99654 -0.107991 0
M  V30 4239 H 397.137 -4.08296 -1.14326 0
M  V30 4240 C 395.596 -2.79378 -1.88281 0
M  V30 4241 O 396.126 -2.69608 -2.97783 0
M  V30 4242 N 394.332 -2.37016 -1.68142 0
M  V30 4243 H 393.879 -2.45162 -0.790772 0
M  V30 4244 H 393.837 -1.96905 -2.45104 0
M  V30 4245 N 397.609 -0.515225 -1.4894 0
M  V30 4246 C 398.541 0.292481 -2.27326 0
M  V30 4247 C 399.554 0.917838 -1.3446 0
M  V30 4248 O 400.743 0.798772 -1.5963 0
M  V30 4249 C 397.843 1.42803 -3.07344 0
M  V30 4250 C 397.016 0.907347 -4.27885 0
M  V30 4251 C 396.075 1.92222 -4.89834 0
M  V30 4252 O 395.101 1.48506 -5.49486 0
M  V30 4253 N 396.303 3.25355 -4.80754 0
M  V30 4254 H 399.068 -0.379721 -2.97285 0
M  V30 4255 H 396.629 -0.348638 -1.58102 0
M  V30 4256 H 398.621 2.10481 -3.45658 0
M  V30 4257 H 397.191 2.00414 -2.39902 0
M  V30 4258 H 396.411 0.0550218 -3.94162 0
M  V30 4259 H 397.699 0.538108 -5.05946 0
M  V30 4260 H 397.097 3.6355 -4.33414 0
M  V30 4261 H 395.654 3.88707 -5.23211 0
M  V30 4262 N 399.087 1.5561 -0.249682 0
M  V30 4263 C 400.05 2.20217 0.635394 0
M  V30 4264 C 401.05 1.17227 1.10066 0
M  V30 4265 O 402.24 1.42292 1.00492 0
M  V30 4266 C 399.372 2.84794 1.87363 0
M  V30 4267 H 400.565 2.99814 0.0716752 0
M  V30 4268 H 398.118 1.563 -0.000153234 0
M  V30 4269 H 398.853 2.09142 2.47851 0
M  V30 4270 H 398.638 3.60241 1.5482 0
M  V30 4271 H 400.128 3.3423 2.5036 0
M  V30 4272 O 400.604 0.114399 1.61094 0
M  V30 4273 H 401.295 -0.485048 1.87529 0
M  V30 END ATOM
M  V30 BEGIN BOND
M  V30 END BOND
M  V30 END CTAB
M  END
$$$$
