drugbank_target|P24394 Interleukin-4 receptor subunit alpha (DB05078; DB12159)
 OpenBabel12092120143D

  0  0  0     0  0            999 V3000
M  V30 BEGIN CTAB
M  V30 COUNTS 12356 12544 0 0 0
M  V30 BEGIN ATOM
M  V30 1 H -0.908 1.98254 -0.117106 0
M  V30 2 N 0 1.576 0 0
M  V30 3 C 0.933 2.03868 1.02534 0
M  V30 4 C 1.911 0.928543 1.3348 0
M  V30 5 O 3.095 1.19667 1.45644 0
M  V30 6 C 0.222 2.43627 2.35294 0
M  V30 7 C -0.732 3.65373 2.2001 0
M  V30 8 S 0.101 5.13292 1.52614 0
M  V30 9 C 1.257 5.56322 2.86805 0
M  V30 10 H 1.49 2.90518 0.631377 0
M  V30 11 H -0.977 1.52953 0.210867 0
M  V30 12 H 0.981 2.67203 3.11629 0
M  V30 13 H -0.358 1.57376 2.7183 0
M  V30 14 H -1.165 3.90944 3.18086 0
M  V30 15 H -1.563 3.418 1.51819 0
M  V30 16 H 0.729 5.58782 3.83104 0
M  V30 17 H 1.672 6.56266 2.65933 0
M  V30 18 H 2.08 4.83886 2.90714 0
M  V30 19 N 1.4781 -0.272755 1.55222 0
M  V30 20 C 2.7261 -1.00234 1.75492 0
M  V30 21 C 3.0471 -1.8681 0.5592 0
M  V30 22 O 2.3171 -1.91215 -0.425882 0
M  V30 23 H 0.8971 -0.373076 0.647166 0
M  V30 24 H 3.5591 -0.296926 1.92625 0
M  V30 25 H 2.6551 -1.63913 2.65592 0
M  V30 26 N 2.9562 -1.48159 -0.537278 0
M  V30 27 C 4.2022 -1.57015 -1.29297 0
M  V30 28 C 4.5572 -0.237791 -1.90925 0
M  V30 29 O 3.8502 0.758621 -1.75942 0
M  V30 30 C 4.0442 -2.63956 -2.40961 0
M  V30 31 C 3.8732 -4.07461 -1.90278 0
M  V30 32 C 2.6432 -4.74685 -1.73213 0
M  V30 33 C 4.8412 -4.93858 -1.43556 0
M  V30 34 N 2.8232 -6.02633 -1.17078 0
M  V30 35 C 4.1942 -6.11993 -0.993204 0
M  V30 36 C 6.2492 -4.80141 -1.31792 0
M  V30 37 C 4.9522 -7.17923 -0.444872 0
M  V30 38 C 6.9782 -5.86186 -0.783585 0
M  V30 39 C 6.3402 -7.03524 -0.351261 0
M  V30 40 H 2.4392 -0.629154 -0.464423 0
M  V30 41 H 5.0232 -1.85006 -0.606705 0
M  V30 42 H 3.1942 -2.378 -3.07093 0
M  V30 43 H 4.9262 -2.62539 -3.07986 0
M  V30 44 H 1.6812 -4.30902 -1.9652 0
M  V30 45 H 2.1052 -6.7085 -0.910421 0
M  V30 46 H 6.7472 -3.89772 -1.63823 0
M  V30 47 H 4.4652 -8.08022 -0.11222 0
M  V30 48 H 8.0512 -5.77624 -0.695835 0
M  V30 49 H 6.9312 -7.8418 0.055777 0
M  V30 50 N 4.4343 0.785586 -1.36625 0
M  V30 51 C 5.3643 1.91259 -1.33949 0
M  V30 52 C 6.3453 1.68795 -0.210325 0
M  V30 53 O 7.5303 1.89854 -0.408561 0
M  V30 54 C 4.6603 3.28339 -1.13186 0
M  V30 55 C 3.6143 3.65335 -2.22967 0
M  V30 56 C 2.9403 5.00806 -1.87342 0
M  V30 57 C 4.2403 3.7352 -3.65075 0
M  V30 58 H 5.9343 1.93755 -2.28253 0
M  V30 59 H 3.4803 0.930788 -1.09874 0
M  V30 60 H 5.4333 4.06804 -1.09948 0
M  V30 61 H 4.1573 3.2624 -0.153332 0
M  V30 62 H 2.8163 2.89169 -2.25337 0
M  V30 63 H 2.4643 4.95233 -0.880545 0
M  V30 64 H 2.1643 5.26529 -2.60846 0
M  V30 65 H 3.6883 5.81687 -1.85667 0
M  V30 66 H 5.1023 4.42168 -3.64911 0
M  V30 67 H 3.4993 4.10731 -4.37516 0
M  V30 68 H 4.5693 2.74527 -3.99703 0
M  V30 69 N 5.9124 1.20967 1.01018 0
M  V30 70 C 7.1524 1.03511 1.76252 0
M  V30 71 C 7.5164 -0.42458 1.87247 0
M  V30 72 O 8.7174 -0.719508 2.58991 0
M  V30 73 C 6.9884 1.70726 3.13986 0
M  V30 74 S 8.5474 1.68458 4.05176 0
M  V30 75 H 5.3654 0.371037 0.606508 0
M  V30 76 H 7.9674 1.53628 1.20908 0
M  V30 77 H 6.6714 2.76128 3.03614 0
M  V30 78 H 6.2024 1.20767 3.74405 0
M  V30 79 H 8.2174 0.721987 4.90919 0
M  V30 80 N 7.3905 -1.2043 1.01659 0
M  V30 81 C 8.6155 -1.94318 0.724942 0
M  V30 82 C 9.0405 -1.74266 -0.708034 0
M  V30 83 O 8.3985 -1.03694 -1.48719 0
M  V30 84 C 8.4465 -3.44486 1.06591 0
M  V30 85 O 7.5505 -4.12017 0.177599 0
M  V30 86 H 6.8915 -0.60708 0.26898 0
M  V30 87 H 9.4215 -1.52861 1.35995 0
M  V30 88 H 9.4315 -3.95106 1.01762 0
M  V30 89 H 8.1065 -3.58404 2.10997 0
M  V30 90 H 6.6835 -3.71821 0.283421 0
M  V30 91 N 8.8686 -0.792821 -1.36206 0
M  V30 92 C 10.1166 -0.366062 -1.98757 0
M  V30 93 C 10.4376 1.0668 -1.63231 0
M  V30 94 O 9.7076 1.73587 -0.907978 0
M  V30 95 H 8.2876 -0.132364 -0.735179 0
M  V30 96 H 10.9496 -1.01562 -1.66347 0
M  V30 97 H 10.0456 -0.460638 -3.08682 0
M  V30 98 N 10.3467 1.47872 -0.545128 0
M  V30 99 C 11.2767 2.32661 0.197793 0
M  V30 100 C 12.2577 1.43041 0.920504 0
M  V30 101 O 13.4427 1.71912 0.90333 0
M  V30 102 C 10.5727 3.24569 1.23582 0
M  V30 103 C 9.5267 4.23333 0.630323 0
M  V30 104 C 8.8527 5.0448 1.77211 0
M  V30 105 C 10.1527 5.20704 -0.407974 0
M  V30 106 H 11.8467 2.95024 -0.510045 0
M  V30 107 H 9.3927 1.4187 -0.246731 0
M  V30 108 H 11.3457 3.8272 1.76362 0
M  V30 109 H 10.0697 2.60236 1.97344 0
M  V30 110 H 8.7287 3.6639 0.123922 0
M  V30 111 H 8.3767 4.36561 2.49847 0
M  V30 112 H 8.0767 5.71339 1.37281 0
M  V30 113 H 9.6007 5.65487 2.3034 0
M  V30 114 H 11.0147 5.7329 0.033305 0
M  V30 115 H 9.4117 5.95699 -0.725486 0
M  V30 116 H 10.4817 4.66917 -1.30828 0
M  V30 117 N 11.8248 0.280983 1.55075 0
M  V30 118 C 12.7548 -0.597469 2.25727 0
M  V30 119 C 13.7358 -1.15417 1.24952 0
M  V30 120 O 14.9208 -1.18722 1.53684 0
M  V30 121 C 12.0508 -1.7789 2.98283 0
M  V30 122 C 11.0048 -1.35347 4.06036 0
M  V30 123 C 10.3308 -2.61846 4.66198 0
M  V30 124 C 11.6308 -0.499354 5.19907 0
M  V30 125 H 13.3248 -0.00824265 2.99399 0
M  V30 126 H 10.8708 -0.0025244 1.44 0
M  V30 127 H 12.8238 -2.39937 3.46422 0
M  V30 128 H 11.5478 -2.39405 2.22155 0
M  V30 129 H 10.2068 -0.756156 3.58717 0
M  V30 130 H 9.8548 -3.21632 3.86732 0
M  V30 131 H 9.5548 -2.3409 5.38958 0
M  V30 132 H 11.0788 -3.24732 5.1709 0
M  V30 133 H 12.4928 -1.02498 5.64063 0
M  V30 134 H 10.8898 -0.316424 5.99265 0
M  V30 135 H 11.9598 0.480459 4.82514 0
M  V30 136 N 13.3029 -1.57598 0.00835791 0
M  V30 137 C 14.5499 -1.90928 -0.674732 0
M  V30 138 C 14.8779 -0.88277 -1.73313 0
M  V30 139 O 14.1329 0.111294 -1.95383 0
M  V30 140 C 14.4319 -3.3101 -1.34787 0
M  V30 141 C 14.0979 -4.48922 -0.421861 0
M  V30 142 C 12.7599 -4.8091 -0.166927 0
M  V30 143 C 15.1119 -5.20755 0.215211 0
M  V30 144 C 12.4399 -5.821 0.733232 0
M  V30 145 C 14.7919 -6.22905 1.1033 0
M  V30 146 C 13.4559 -6.53346 1.36733 0
M  V30 147 H 12.7259 -0.698656 -0.246902 0
M  V30 148 H 15.3729 -1.91387 0.0656779 0
M  V30 149 H 13.6779 -3.26714 -2.16253 0
M  V30 150 H 15.3749 -3.54061 -1.8826 0
M  V30 151 H 11.9649 -4.23934 -0.630729 0
M  V30 152 H 16.1489 -4.9629 0.0312829 0
M  V30 153 H 11.4049 -6.04042 0.945712 0
M  V30 154 H 15.5789 -6.77694 1.60325 0
M  V30 155 H 13.2059 -7.31573 2.06652 0
M  V30 156 N 14.781 0.264519 -1.55364 0
M  V30 157 C 16.192 0.834936 -1.6699 0
M  V30 158 C 16.543 1.86718 -0.602552 0
M  V30 159 O 15.668 2.14899 0.254425 0
M  V30 160 C 16.263 1.5212 -3.02729 0
M  V30 161 C 14.822 2.03954 -3.16354 0
M  V30 162 C 13.969 0.884498 -2.62815 0
M  V30 163 H 16.92 0.0406869 -1.58648 0
M  V30 164 H 16.941 2.38853 -2.96191 0
M  V30 165 H 16.453 0.769668 -3.80392 0
M  V30 166 H 14.554 2.82041 -2.43482 0
M  V30 167 H 14.667 2.24902 -4.23032 0
M  V30 168 H 13.031 1.2802 -2.20188 0
M  V30 169 H 13.814 0.14634 -3.42988 0
M  V30 170 N 16.2591 1.48442 0.529413 0
M  V30 171 C 17.5051 1.5672 1.28711 0
M  V30 172 C 17.8381 0.2406 1.92704 0
M  V30 173 O 17.1131 -0.753454 1.79313 0
M  V30 174 C 17.3961 2.70587 2.37603 0
M  V30 175 C 17.2491 4.12953 1.78297 0
M  V30 176 C 18.5681 2.80212 3.39366 0
M  V30 177 H 15.6871 0.570474 0.466613 0
M  V30 178 H 18.3291 1.80617 0.589706 0
M  V30 179 H 16.4791 2.50342 2.97088 0
M  V30 180 H 18.1511 4.44639 1.22858 0
M  V30 181 H 16.3941 4.19927 1.0883 0
M  V30 182 H 17.0651 4.88448 2.57144 0
M  V30 183 H 19.5411 2.98553 2.89836 0
M  V30 184 H 18.4171 3.61611 4.12951 0
M  V30 185 H 18.6781 1.88393 3.99951 0
M  V30 186 N 17.7372 -0.778329 1.37039 0
M  V30 187 C 18.9622 -1.57248 1.35233 0
M  V30 188 C 19.3872 -1.87999 -0.0615568 0
M  V30 189 O 18.7452 -1.48734 -1.03672 0
M  V30 190 C 18.7932 -2.86353 2.19167 0
M  V30 191 O 17.8972 -3.80442 1.59178 0
M  V30 192 H 17.2382 -0.476569 0.462362 0
M  V30 193 H 19.7682 -0.963853 1.80474 0
M  V30 194 H 19.7782 -3.35519 2.32145 0
M  V30 195 H 18.4532 -2.63299 3.21942 0
M  V30 196 H 17.0302 -3.39067 1.55203 0
M  V30 197 N 19.2153 -1.21501 -1.00376 0
M  V30 198 C 20.4553 -1.04444 -1.75701 0
M  V30 199 C 20.8193 0.414644 -1.87469 0
M  V30 200 O 22.0203 0.705763 -2.59369 0
M  V30 201 C 20.2913 -1.72389 -3.13077 0
M  V30 202 S 21.8503 -1.70604 -4.04277 0
M  V30 203 H 18.6683 -0.374249 -0.604532 0
M  V30 204 H 21.2703 -1.54267 -1.20091 0
M  V30 205 H 19.9743 -2.77734 -3.02146 0
M  V30 206 H 19.5053 -1.22751 -3.73759 0
M  V30 207 H 21.5203 -0.748012 -4.9053 0
M  V30 208 N 20.6934 1.19889 -1.02296 0
M  V30 209 C 21.6234 2.25141 -0.619174 0
M  V30 210 C 22.6044 1.66051 0.368915 0
M  V30 211 O 23.7894 1.92546 0.252941 0
M  V30 212 C 20.9194 3.4728 0.0368783 0
M  V30 213 C 19.8734 4.19005 -0.872865 0
M  V30 214 C 19.1994 5.34637 -0.0822402 0
M  V30 215 C 20.4994 4.74452 -2.18387 0
M  V30 216 H 22.1934 2.59171 -1.49903 0
M  V30 217 H 19.7394 1.24579 -0.722222 0
M  V30 218 H 21.6924 4.20098 0.330958 0
M  V30 219 H 20.4164 3.12433 0.95149 0
M  V30 220 H 19.0754 3.48061 -1.15105 0
M  V30 221 H 18.7234 4.96034 0.83422 0
M  V30 222 H 18.4234 5.83557 -0.688149 0
M  V30 223 H 19.9474 6.10255 0.205238 0
M  V30 224 H 21.3614 5.39055 -1.95172 0
M  V30 225 H 19.7584 5.33834 -2.74119 0
M  V30 226 H 20.8284 3.92844 -2.84257 0
M  V30 227 N 22.1715 0.800033 1.35784 0
M  V30 228 C 23.4175 0.377901 1.99248 0
M  V30 229 C 23.7505 -1.05052 1.63333 0
M  V30 230 O 23.0255 -1.72768 0.893385 0
M  V30 231 C 23.3085 0.553922 3.55814 0
M  V30 232 C 23.1615 2.0268 4.01548 0
M  V30 233 C 24.4805 -0.0244802 4.40093 0
M  V30 234 H 21.5995 0.138782 0.723815 0
M  V30 235 H 24.2415 1.00835 1.61035 0
M  V30 236 H 22.3915 0.0172398 3.88496 0
M  V30 237 H 24.0635 2.62536 3.79305 0
M  V30 238 H 22.3065 2.5256 3.52698 0
M  V30 239 H 22.9775 2.10087 5.10458 0
M  V30 240 H 25.4535 0.433775 4.13833 0
M  V30 241 H 24.3295 0.128637 5.48749 0
M  V30 242 H 24.5905 -1.11758 4.27741 0
M  V30 243 N 23.6496 -1.47581 0.552962 0
M  V30 244 C 24.5796 -2.32762 -0.185451 0
M  V30 245 C 25.5606 -1.43527 -0.912905 0
M  V30 246 O 26.7456 -1.72388 -0.894201 0
M  V30 247 C 23.8756 -3.25219 -1.21859 0
M  V30 248 C 22.8296 -4.23661 -0.607864 0
M  V30 249 C 22.1556 -5.05413 -1.74533 0
M  V30 250 C 23.4556 -5.20481 0.435582 0
M  V30 251 H 25.1496 -2.94749 0.525684 0
M  V30 252 H 22.6956 -1.41738 0.254251 0
M  V30 253 H 24.6486 -3.8365 -1.7433 0
M  V30 254 H 23.3726 -2.61279 -1.95961 0
M  V30 255 H 22.0316 -3.66451 -0.104489 0
M  V30 256 H 21.6796 -4.3788 -2.47529 0
M  V30 257 H 21.3796 -5.72059 -1.34249 0
M  V30 258 H 22.9036 -5.66701 -2.27338 0
M  V30 259 H 24.3176 -5.733 -0.00290157 0
M  V30 260 H 22.7146 -5.95305 0.757067 0
M  V30 261 H 23.7846 -4.66217 1.33303 0
M  V30 262 N 25.1277 -0.289203 -1.54924 0
M  V30 263 C 26.0577 0.58549 -2.2604 0
M  V30 264 C 27.0387 1.14753 -1.25562 0
M  V30 265 O 28.2237 1.17906 -1.54311 0
M  V30 266 C 25.3537 1.76305 -2.99222 0
M  V30 267 C 24.3077 1.33191 -4.06748 0
M  V30 268 C 23.6337 2.5937 -4.6758 0
M  V30 269 C 24.9337 0.471775 -5.20165 0
M  V30 270 H 26.6277 -0.00763532 -2.99399 0
M  V30 271 H 24.1737 -0.00511229 -1.43999 0
M  V30 272 H 26.1267 2.38097 -3.47689 0
M  V30 273 H 24.8507 2.38223 -2.23422 0
M  V30 274 H 23.5097 0.737121 -3.59113 0
M  V30 275 H 23.1577 3.19576 -3.88433 0
M  V30 276 H 22.8577 2.31228 -5.40192 0
M  V30 277 H 24.3817 3.21985 -5.18804 0
M  V30 278 H 25.7957 0.995056 -5.64599 0
M  V30 279 H 24.1927 0.284639 -5.99425 0
M  V30 280 H 25.2627 -0.506041 -4.82252 0
M  V30 281 N 26.6058 1.57591 -0.0167156 0
M  V30 282 C 27.5378 2.06343 0.997753 0
M  V30 283 C 28.5508 0.984469 1.29661 0
M  V30 284 O 29.7398 1.26093 1.26344 0
M  V30 285 C 26.8398 2.46255 2.32834 0
M  V30 286 C 26.0128 3.77083 2.21646 0
M  V30 287 C 25.0718 4.0368 3.37534 0
M  V30 288 O 24.0978 4.7411 3.14973 0
M  V30 289 N 25.2998 3.52881 4.60929 0
M  V30 290 H 28.0648 2.93997 0.581875 0
M  V30 291 H 25.6258 1.61002 0.170316 0
M  V30 292 H 27.6178 2.61149 3.09166 0
M  V30 293 H 26.1878 1.64032 2.66106 0
M  V30 294 H 25.4078 3.72106 1.30119 0
M  V30 295 H 26.6958 4.62822 2.11361 0
M  V30 296 H 26.0938 2.95878 4.82154 0
M  V30 297 H 24.6508 3.73076 5.34469 0
M  V30 298 N 28.0839 -0.256276 1.55502 0
M  V30 299 C 29.3299 -0.987079 1.77157 0
M  V30 300 C 29.6629 -1.85327 0.580315 0
M  V30 301 O 28.9379 -1.89874 -0.421686 0
M  V30 302 C 29.2209 -1.85553 3.08613 0
M  V30 303 C 29.0739 -1.01816 4.38125 0
M  V30 304 C 30.3929 -2.8397 3.36228 0
M  V30 305 H 27.5119 -0.357428 0.644526 0
M  V30 306 H 30.1539 -0.258239 1.88237 0
M  V30 307 H 28.3039 -2.47695 2.99298 0
M  V30 308 H 29.9759 -0.416159 4.59419 0
M  V30 309 H 28.2189 -0.322178 4.32602 0
M  V30 310 H 28.8899 -1.65939 5.26468 0
M  V30 311 H 31.3659 -2.31964 3.45445 0
M  V30 312 H 30.2419 -3.41864 4.29442 0
M  V30 313 H 30.5029 -3.59955 2.56681 0
M  V30 314 N 29.562 -1.4872 -0.521534 0
M  V30 315 C 30.525 -1.63379 -1.60748 0
M  V30 316 C 31.525 -0.50661 -1.52611 0
M  V30 317 O 32.715 -0.772601 -1.5613 0
M  V30 318 C 29.847 -1.61192 -3.00383 0
M  V30 319 H 31.04 -2.60217 -1.49087 0
M  V30 320 H 28.593 -1.37444 -0.744235 0
M  V30 321 H 29.328 -0.65863 -3.17541 0
M  V30 322 H 29.113 -2.43032 -3.07698 0
M  V30 323 H 30.603 -1.7466 -3.7932 0
M  V30 324 N 31.0401 0.771051 -1.3745 0
M  V30 325 C 32.2651 1.56529 -1.36065 0
M  V30 326 C 32.6901 1.88029 0.0515859 0
M  V30 327 O 32.0481 1.49282 1.02882 0
M  V30 328 C 32.0961 2.85187 -2.20683 0
M  V30 329 O 31.2001 3.79593 -1.61193 0
M  V30 330 H 30.5411 0.47411 -0.464883 0
M  V30 331 H 33.0711 0.954269 -1.80983 0
M  V30 332 H 33.0811 3.34283 -2.33921 0
M  V30 333 H 31.7561 2.61588 -3.23334 0
M  V30 334 H 30.3331 3.38239 -1.56999 0
M  V30 335 N 32.5182 1.22032 0.997298 0
M  V30 336 C 33.7432 1.06921 1.77715 0
M  V30 337 C 34.1682 -0.376226 1.84299 0
M  V30 338 O 33.5262 -1.27165 1.29223 0
M  V30 339 C 33.5742 1.67996 3.19076 0
M  V30 340 O 32.6782 0.930653 4.01762 0
M  V30 341 H 32.0192 0.375814 0.547412 0
M  V30 342 H 34.5492 1.61737 1.25309 0
M  V30 343 H 34.5592 1.72538 3.69723 0
M  V30 344 H 33.2342 2.73182 3.13599 0
M  V30 345 H 31.8112 0.960917 3.60307 0
M  V30 346 N 33.9963 -1.19345 1.0293 0
M  V30 347 C 35.2443 -1.88665 0.724574 0
M  V30 348 C 35.5653 -1.80036 -0.749144 0
M  V30 349 O 34.8353 -1.2111 -1.53978 0
M  V30 350 H 33.4153 -0.698406 0.265025 0
M  V30 351 H 36.0773 -1.44885 1.30362 0
M  V30 352 H 35.1733 -2.94987 1.01926 0
M  V30 353 N 35.4744 -0.807222 -1.35358 0
M  V30 354 C 36.4224 -0.20614 -2.31685 0
M  V30 355 C 37.4164 0.644445 -1.56663 0
M  V30 356 O 38.6224 0.537538 -1.71786 0
M  V30 357 H 34.9974 -0.0479006 -0.750473 0
M  V30 358 H 36.9684 -1.03369 -2.79924 0
M  V30 359 C 35.7174 0.630212 -3.41941 0
M  V30 360 H 35.0404 -0.0149558 -3.99797 0
M  V30 361 H 36.4804 1.01716 -4.11619 0
M  V30 362 C 34.9394 1.79601 -2.85035 0
M  V30 363 O 35.4694 2.89351 -2.78637 0
M  V30 364 N 33.6754 1.60774 -2.42074 0
M  V30 365 H 33.2224 0.715009 -2.47478 0
M  V30 366 H 33.1804 2.38933 -2.04349 0
M  V30 367 N 36.9525 1.47285 -0.560781 0
M  V30 368 C 37.8855 2.27009 0.232821 0
M  V30 369 C 38.8635 1.34273 0.917039 0
M  V30 370 O 40.0475 1.63659 0.935315 0
M  V30 371 C 37.1745 3.11406 1.33206 0
M  V30 372 C 36.2205 4.19746 0.756019 0
M  V30 373 S 37.0535 5.34003 -0.400165 0
M  V30 374 C 38.2095 6.21964 0.700805 0
M  V30 375 H 38.4425 2.93971 -0.443683 0
M  V30 376 H 35.9755 1.50446 -0.347181 0
M  V30 377 H 37.9335 3.60601 1.96156 0
M  V30 378 H 36.5945 2.438 1.98041 0
M  V30 379 H 35.7875 4.78541 1.5816 0
M  V30 380 H 35.3895 3.73451 0.202619 0
M  V30 381 H 37.6815 6.58529 1.59202 0
M  V30 382 H 38.6245 7.07941 0.150126 0
M  V30 383 H 39.0325 5.5566 0.995083 0
M  V30 384 N 38.4306 0.297415 1.54768 0
M  V30 385 C 39.3776 -0.580276 2.23386 0
M  V30 386 C 40.3476 -1.13238 1.21517 0
M  V30 387 O 41.5326 -1.17757 1.50126 0
M  V30 388 C 38.6726 -1.74801 2.97555 0
M  V30 389 C 37.7856 -1.22764 4.1419 0
M  V30 390 C 36.9206 -2.35895 4.75949 0
M  V30 391 C 35.9596 -1.80974 5.84735 0
M  V30 392 N 35.0966 -2.87664 6.40464 0
M  V30 393 H 39.9366 0.0114833 2.97998 0
M  V30 394 H 37.4736 0.0174361 1.4709 0
M  V30 395 H 39.4316 -2.43475 3.38786 0
M  V30 396 H 38.0616 -2.31145 2.25326 0
M  V30 397 H 37.1136 -0.433271 3.77924 0
M  V30 398 H 38.4256 -0.785551 4.92575 0
M  V30 399 H 37.5796 -3.12523 5.20014 0
M  V30 400 H 36.3186 -2.83429 3.96887 0
M  V30 401 H 35.3236 -1.02834 5.40097 0
M  V30 402 H 36.5486 -1.34348 6.65678 0
M  V30 403 H 34.4946 -3.34538 5.64287 0
M  V30 404 H 34.4116 -2.4794 7.14186 0
M  V30 405 H 35.6796 -3.642 6.89187 0
M  V30 406 N 39.9087 -1.5758 0.0250728 0
M  V30 407 C 41.1547 -1.91917 -0.655413 0
M  V30 408 C 41.4877 -0.901433 -1.72011 0
M  V30 409 O 40.7627 0.0764069 -1.9435 0
M  V30 410 C 41.0457 -3.36751 -1.27558 0
M  V30 411 C 40.8987 -4.49258 -0.220719 0
M  V30 412 C 42.2177 -3.81469 -2.19475 0
M  V30 413 H 39.3367 -0.697925 -0.23679 0
M  V30 414 H 41.9787 -1.89825 0.0815036 0
M  V30 415 H 40.1287 -3.38664 -1.90365 0
M  V30 416 H 41.8007 -4.59478 0.409601 0
M  V30 417 H 40.0437 -4.31415 0.454264 0
M  V30 418 H 40.7147 -5.47618 -0.694175 0
M  V30 419 H 43.1907 -3.81266 -1.66659 0
M  V30 420 H 42.0667 -4.83512 -2.59822 0
M  V30 421 H 42.3277 -3.16744 -3.08424 0
M  V30 422 N 41.3868 0.248026 -1.55636 0
M  V30 423 C 42.3168 1.31079 -1.93237 0
M  V30 424 C 43.2978 1.50264 -0.797174 0
M  V30 425 O 44.4828 1.62891 -1.05737 0
M  V30 426 C 41.6128 2.66575 -2.22609 0
M  V30 427 C 40.5668 2.62087 -3.3837 0
M  V30 428 C 39.8928 4.01369 -3.53281 0
M  V30 429 C 41.1928 2.19171 -4.7409 0
M  V30 430 H 42.8868 0.998556 -2.82257 0
M  V30 431 H 40.4328 0.47891 -1.35803 0
M  V30 432 H 42.3858 3.41057 -2.47503 0
M  V30 433 H 41.1098 2.99432 -1.30414 0
M  V30 434 H 39.7688 1.90063 -3.13483 0
M  V30 435 H 39.4168 4.31489 -2.58508 0
M  V30 436 H 39.1168 3.99254 -4.31127 0
M  V30 437 H 40.6408 4.77552 -3.80495 0
M  V30 438 H 42.0548 2.83384 -4.98363 0
M  V30 439 H 40.4518 2.2817 -5.5503 0
M  V30 440 H 41.5218 1.14336 -4.71227 0
M  V30 441 N 42.8649 1.48995 0.513639 0
M  V30 442 C 43.7969 1.60836 1.63293 0
M  V30 443 C 44.8099 0.491701 1.55197 0
M  V30 444 O 45.9989 0.763238 1.6136 0
M  V30 445 C 43.0989 1.53731 3.02027 0
M  V30 446 C 42.2719 2.80715 3.35437 0
M  V30 447 C 41.3309 2.66837 4.53525 0
M  V30 448 O 40.3569 3.40753 4.55934 0
M  V30 449 N 41.5589 1.77539 5.52684 0
M  V30 450 H 44.3239 2.57366 1.53566 0
M  V30 451 H 41.8849 1.45925 0.701259 0
M  V30 452 H 43.8769 1.42118 3.78926 0
M  V30 453 H 42.4469 0.651092 3.05744 0
M  V30 454 H 41.6669 3.06772 2.47557 0
M  V30 455 H 42.9549 3.64927 3.54551 0
M  V30 456 H 42.3529 1.16719 5.53528 0
M  V30 457 H 40.9099 1.71856 6.28736 0
M  V30 458 N 44.343 -0.763751 1.37857 0
M  V30 459 C 45.253 -1.90817 1.36478 0
M  V30 460 C 46.269 -1.71997 0.263248 0
M  V30 461 O 47.445 -1.95095 0.499979 0
M  V30 462 C 44.51 -3.2605 1.17864 0
M  V30 463 C 43.571 -3.57467 2.3773 0
M  V30 464 C 42.804 -4.86249 2.19995 0
M  V30 465 O 43.027 -5.57884 1.18836 0
M  V30 466 O 41.961 -5.16911 3.08361 0
M  V30 467 H 45.787 -1.94933 2.32884 0
M  V30 468 H 43.372 -0.907619 1.1867 0
M  V30 469 H 45.254 -4.06924 1.09504 0
M  V30 470 H 43.929 -3.22769 0.245372 0
M  V30 471 H 42.836 -2.76796 2.51664 0
M  V30 472 H 44.169 -3.655 3.29652 0
M  V30 473 N 45.8211 -1.22559 -0.990812 0
M  V30 474 C 47.2321 -1.04791 -1.54518 0
M  V30 475 C 47.5831 0.387998 -1.92325 0
M  V30 476 O 46.7081 1.27328 -1.74976 0
M  V30 477 C 47.3031 -1.896 -2.80779 0
M  V30 478 C 45.8621 -1.76124 -3.32652 0
M  V30 479 C 45.0091 -1.8594 -2.05722 0
M  V30 480 H 47.9601 -1.36374 -0.811662 0
M  V30 481 H 47.9811 -1.41464 -3.53225 0
M  V30 482 H 47.4931 -2.94101 -2.53231 0
M  V30 483 H 45.5941 -0.743643 -3.65104 0
M  V30 484 H 45.7071 -2.58913 -4.03114 0
M  V30 485 H 44.0711 -1.29403 -2.19379 0
M  V30 486 H 44.8541 -2.91976 -1.80568 0
M  V30 487 N 47.2992 1.18797 -1.03562 0
M  V30 488 C 48.5272 1.92599 -0.755869 0
M  V30 489 C 48.9422 1.75886 0.686271 0
M  V30 490 O 48.2992 1.08517 1.46732 0
M  V30 491 C 48.3502 3.44159 -1.10619 0
M  V30 492 O 48.0712 3.60341 -2.4917 0
M  V30 493 C 49.5722 4.3507 -0.850214 0
M  V30 494 H 46.7922 0.611587 -0.276048 0
M  V30 495 H 49.3362 1.50742 -1.38192 0
M  V30 496 H 47.4912 3.83823 -0.525194 0
M  V30 497 H 47.9052 4.54128 -2.62427 0
M  V30 498 H 49.3792 5.39989 -1.14523 0
M  V30 499 H 49.8562 4.38673 0.215176 0
M  V30 500 H 50.4622 4.01097 -1.41426 0
M  V30 501 N 48.7773 0.814389 1.34928 0
M  V30 502 C 50.0173 0.404165 2.00364 0
M  V30 503 C 50.3813 -1.01166 1.63185 0
M  V30 504 O 51.5823 -1.52431 2.21401 0
M  V30 505 C 49.8533 0.590718 3.52484 0
M  V30 506 S 51.4123 0.272075 4.37956 0
M  V30 507 H 48.2303 0.15311 0.694319 0
M  V30 508 H 50.8323 1.05834 1.64376 0
M  V30 509 H 49.5363 1.62099 3.77031 0
M  V30 510 H 49.0673 -0.0785013 3.93322 0
M  V30 511 H 51.0823 -0.917405 4.87645 0
M  V30 512 N 50.2554 -1.46986 0.568584 0
M  V30 513 C 51.5014 -2.02741 0.0488709 0
M  V30 514 C 51.8344 -1.44077 -1.30214 0
M  V30 515 O 51.1094 -0.600552 -1.84996 0
M  V30 516 C 51.3924 -3.60086 -0.032047 0
M  V30 517 C 51.2454 -4.29162 1.34686 0
M  V30 518 C 52.5644 -4.33838 -0.739798 0
M  V30 519 H 49.6834 -0.736749 0.0192338 0
M  V30 520 H 52.3254 -1.75289 0.733065 0
M  V30 521 H 50.4754 -3.83606 -0.61473 0
M  V30 522 H 52.1474 -4.16948 1.97362 0
M  V30 523 H 50.3904 -3.89073 1.91846 0
M  V30 524 H 51.0614 -5.37826 1.24285 0
M  V30 525 H 53.5374 -4.15378 -0.244939 0
M  V30 526 H 52.4134 -5.43537 -0.765406 0
M  V30 527 H 52.6744 -4.03875 -1.79827 0
M  V30 528 N 51.7335 -0.305618 -1.54608 0
M  V30 529 C 52.9585 0.307562 -2.05107 0
M  V30 530 C 53.3835 1.46385 -1.18123 0
M  V30 531 O 52.7415 1.8034 -0.186324 0
M  V30 532 C 52.7895 0.73704 -3.52987 0
M  V30 533 O 51.8935 1.84134 -3.6901 0
M  V30 534 H 51.2345 0.0589143 -0.661381 0
M  V30 535 H 53.7645 -0.448807 -1.99617 0
M  V30 536 H 53.7745 1.02459 -3.94925 0
M  V30 537 H 52.4495 -0.108773 -4.15758 0
M  V30 538 H 51.0265 1.55398 -3.38978 0
M  V30 539 N 53.2116 1.57565 -0.0334293 0
M  V30 540 C 54.4886 1.83282 0.683163 0
M  V30 541 C 54.8686 0.91823 1.90084 0
M  V30 542 O 54.2166 -0.025113 2.28486 0
M  V30 543 C 54.4266 3.32599 1.0573 0
M  V30 544 C 55.7746 3.99179 1.44711 0
M  V30 545 O 56.7986 3.3712 1.15015 0
M  V30 546 O 55.6576 5.08565 2.0006 0
M  V30 547 H 52.7516 0.755869 0.335546 0
M  V30 548 H 55.2976 1.69589 -0.0614402 0
M  V30 549 H 54.0696 3.90834 0.190828 0
M  V30 550 H 53.6926 3.51415 1.85993 0
M  V30 551 N 54.6897 -0.239769 1.55765 0
M  V30 552 C 55.9197 -0.982743 1.8173 0
M  V30 553 C 56.3277 -1.7917 0.607835 0
M  V30 554 O 55.6707 -1.78525 -0.432973 0
M  V30 555 C 55.7327 -1.96332 3.01155 0
M  V30 556 C 55.3967 -1.34062 4.36894 0
M  V30 557 C 56.3937 -0.739539 5.14613 0
M  V30 558 C 54.0787 -1.35784 4.83599 0
M  V30 559 C 56.0727 -0.163989 6.37189 0
M  V30 560 C 53.7597 -0.778441 6.06122 0
M  V30 561 C 54.7577 -0.182548 6.82756 0
M  V30 562 O 54.4457 0.387887 8.02964 0
M  V30 563 H 54.1777 -0.294481 0.608487 0
M  V30 564 H 56.7317 -0.26572 2.03674 0
M  V30 565 H 54.9617 -2.71884 2.74984 0
M  V30 566 H 56.6507 -2.57032 3.14149 0
M  V30 567 H 57.4167 -0.718687 4.79646 0
M  V30 568 H 53.2957 -1.81105 4.23936 0
M  V30 569 H 56.8397 0.301753 6.96947 0
M  V30 570 H 52.7367 -0.796645 6.40565 0
M  V30 571 H 53.5047 0.28044 8.18019 0
M  V30 572 N 56.1678 -1.49265 -0.50573 0
M  V30 573 C 57.1008 -1.60183 -1.62532 0
M  V30 574 C 58.0788 -0.451107 -1.56217 0
M  V30 575 O 59.2628 -0.666016 -1.76342 0
M  V30 576 C 56.3898 -1.55238 -3.01029 0
M  V30 577 C 55.4358 -2.7545 -3.25621 0
M  V30 578 S 56.2688 -4.37174 -3.09256 0
M  V30 579 C 57.4248 -4.34866 -4.50158 0
M  V30 580 H 57.6578 -2.54894 -1.53025 0
M  V30 581 H 55.1908 -1.38098 -0.690535 0
M  V30 582 H 57.1488 -1.53071 -3.80893 0
M  V30 583 H 55.8098 -0.618238 -3.07956 0
M  V30 584 H 55.0028 -2.68197 -4.26716 0
M  V30 585 H 54.6048 -2.75005 -2.53472 0
M  V30 586 H 56.8968 -4.06295 -5.42154 0
M  V30 587 H 57.8398 -5.36223 -4.62462 0
M  V30 588 H 58.2478 -3.65007 -4.30616 0
M  V30 589 N 57.6459 0.756429 -1.3826 0
M  V30 590 C 58.8709 1.55077 -1.37717 0
M  V30 591 C 59.2959 1.88073 0.03164 0
M  V30 592 O 58.6539 1.50364 1.01293 0
M  V30 593 C 58.7019 2.8283 -2.23695 0
M  V30 594 O 57.8059 3.77862 -1.6521 0
M  V30 595 H 57.1469 0.469152 -0.469885 0
M  V30 596 H 59.6769 0.935019 -1.81985 0
M  V30 597 H 59.6869 3.31783 -2.37453 0
M  V30 598 H 58.3619 2.58144 -3.2609 0
M  V30 599 H 56.9389 3.36555 -1.60578 0
M  V30 600 N 59.124 1.23083 0.984299 0
M  V30 601 C 60.373 1.05466 1.71929 0
M  V30 602 C 60.686 -0.409211 1.91272 0
M  V30 603 O 61.892 -0.705226 2.62181 0
M  V30 604 C 60.348 1.83874 3.09384 0
M  V30 605 C 59.956 3.34566 2.97943 0
M  V30 606 C 61.7 1.74734 3.8687 0
M  V30 607 C 59.607 4.05381 4.30605 0
M  V30 608 H 58.537 0.391039 0.644674 0
M  V30 609 H 61.188 1.47013 1.09815 0
M  V30 610 H 59.57 1.35131 3.72231 0
M  V30 611 H 60.744 3.90767 2.44209 0
M  V30 612 H 59.059 3.44476 2.33934 0
M  V30 613 H 61.656 2.24957 4.85076 0
M  V30 614 H 61.999 0.709372 4.10212 0
M  V30 615 H 62.532 2.21067 3.30717 0
M  V30 616 H 59.271 5.09467 4.1246 0
M  V30 617 H 58.791 3.53967 4.84218 0
M  V30 618 H 60.47 4.11458 4.99311 0
M  V30 619 N 60.6021 -1.18246 1.0419 0
M  V30 620 C 61.8271 -1.92736 0.765996 0
M  V30 621 C 62.2521 -1.75728 -0.67091 0
M  V30 622 O 61.6101 -1.06825 -1.46486 0
M  V30 623 C 61.6581 -3.42148 1.13875 0
M  V30 624 O 60.7621 -4.11548 0.264954 0
M  V30 625 H 60.1031 -0.601238 0.281797 0
M  V30 626 H 62.6331 -1.49942 1.39207 0
M  V30 627 H 62.6431 -3.92858 1.1012 0
M  V30 628 H 61.3181 -3.53848 2.18551 0
M  V30 629 H 59.8951 -3.71137 0.362226 0
M  V30 630 N 62.0802 -0.821533 -1.34494 0
M  V30 631 C 63.3082 -0.421884 -2.02553 0
M  V30 632 C 63.7232 0.971745 -1.61872 0
M  V30 633 O 63.0802 1.62864 -0.823496 0
M  V30 634 C 63.1312 -0.51285 -3.57844 0
M  V30 635 O 62.8522 -1.85155 -3.97051 0
M  V30 636 C 64.3532 -0.107921 -4.43169 0
M  V30 637 H 61.5732 -0.169482 -0.649243 0
M  V30 638 H 64.1172 -1.1093 -1.71798 0
M  V30 639 H 62.2722 0.126474 -3.87193 0
M  V30 640 H 62.6862 -1.82482 -4.91732 0
M  V30 641 H 64.1602 -0.222657 -5.51551 0
M  V30 642 H 64.6372 0.948401 -4.28838 0
M  V30 643 H 65.2432 -0.720989 -4.19144 0
M  V30 644 N 63.5583 1.46682 -0.576371 0
M  V30 645 C 64.7983 2.04306 -0.0621356 0
M  V30 646 C 65.1623 1.4389 1.2712 0
M  V30 647 O 66.3633 1.92675 1.87429 0
M  V30 648 C 64.6343 3.57399 0.00927922 0
M  V30 649 S 66.1933 4.36309 0.466859 0
M  V30 650 H 63.0113 0.710167 -0.0344016 0
M  V30 651 H 65.6133 1.79807 -0.767437 0
M  V30 652 H 64.3173 3.98889 -0.965178 0
M  V30 653 H 63.8483 3.86424 0.737547 0
M  V30 654 H 65.8633 4.6533 1.72287 0
M  V30 655 N 65.0364 0.313813 1.54444 0
M  V30 656 C 65.9464 -0.565714 2.27677 0
M  V30 657 C 66.9624 -1.13754 1.31666 0
M  V30 658 O 68.1384 -1.15959 1.64668 0
M  V30 659 C 65.2034 -1.71528 3.01296 0
M  V30 660 C 64.2644 -1.17624 4.12872 0
M  V30 661 C 63.4974 -2.27102 4.8297 0
M  V30 662 O 63.7204 -3.47256 4.52514 0
M  V30 663 O 62.6544 -1.9307 5.70094 0
M  V30 664 H 66.4804 0.0287296 3.03686 0
M  V30 665 H 64.0654 0.0798312 1.49187 0
M  V30 666 H 65.9474 -2.38476 3.4743 0
M  V30 667 H 64.6224 -2.29608 2.2817 0
M  V30 668 H 63.5294 -0.472124 3.71109 0
M  V30 669 H 64.8624 -0.640695 4.88012 0
M  V30 670 N 66.5145 -1.57545 0.0417849 0
M  V30 671 C 67.7605 -1.93424 -0.629168 0
M  V30 672 C 68.1155 -0.919564 -1.69002 0
M  V30 673 O 67.4085 0.0626178 -1.91498 0
M  V30 674 C 67.6025 -3.33794 -1.27735 0
M  V30 675 C 67.4315 -4.48822 -0.280806 0
M  V30 676 C 66.2015 -5.05148 0.123869 0
M  V30 677 C 68.3995 -5.12148 0.470012 0
M  V30 678 N 66.3815 -6.03703 1.11426 0
M  V30 679 C 67.7525 -6.05921 1.31377 0
M  V30 680 C 69.8075 -4.95078 0.529343 0
M  V30 681 C 68.5105 -6.84459 2.21152 0
M  V30 682 C 70.5365 -5.74235 1.41448 0
M  V30 683 C 69.8985 -6.67634 2.24598 0
M  V30 684 H 65.9975 -0.755418 -0.202158 0
M  V30 685 H 68.5815 -1.94378 0.111923 0
M  V30 686 H 66.7525 -3.33635 -1.98852 0
M  V30 687 H 68.4845 -3.56988 -1.90635 0
M  V30 688 H 65.2395 -4.72923 -0.253178 0
M  V30 689 H 65.6635 -6.57674 1.60607 0
M  V30 690 H 70.3055 -4.22683 -0.0992798 0
M  V30 691 H 68.0235 -7.56151 2.85063 0
M  V30 692 H 71.6095 -5.63057 1.46484 0
M  V30 693 H 70.4895 -7.27817 2.9198 0
M  V30 694 N 67.9926 0.231505 -1.5589 0
M  V30 695 C 68.9396 1.28682 -1.91598 0
M  V30 696 C 69.9096 1.47071 -0.771974 0
M  V30 697 O 71.0946 1.60802 -1.027 0
M  V30 698 C 68.2346 2.6342 -2.22944 0
M  V30 699 C 67.3476 2.52912 -3.50228 0
M  V30 700 C 66.4826 3.80106 -3.7107 0
M  V30 701 C 65.5216 3.64279 -4.91902 0
M  V30 702 N 64.6586 4.834 -5.09184 0
M  V30 703 H 69.4986 0.975305 -2.81588 0
M  V30 704 H 67.0356 0.470299 -1.39379 0
M  V30 705 H 68.9936 3.41869 -2.39126 0
M  V30 706 H 67.6236 2.92687 -1.36139 0
M  V30 707 H 66.6756 1.6595 -3.42294 0
M  V30 708 H 67.9876 2.37133 -4.38827 0
M  V30 709 H 67.1416 4.66999 -3.87295 0
M  V30 710 H 65.8806 3.98799 -2.80733 0
M  V30 711 H 64.8856 2.7577 -4.75637 0
M  V30 712 H 66.1106 3.47067 -5.83714 0
M  V30 713 H 64.0566 5.02425 -4.21788 0
M  V30 714 H 63.9736 4.70311 -5.91898 0
M  V30 715 H 65.2416 5.71747 -5.29835 0
M  V30 716 N 69.4707 1.49531 0.497807 0
M  V30 717 C 70.4037 1.61043 1.6168 0
M  V30 718 C 71.3817 0.459386 1.55976 0
M  V30 719 O 72.5657 0.675358 1.75986 0
M  V30 720 C 69.6927 1.56833 3.00202 0
M  V30 721 C 68.7387 2.77173 3.24156 0
M  V30 722 S 69.5717 4.38808 3.06933 0
M  V30 723 C 70.7277 4.37248 4.47845 0
M  V30 724 H 70.9607 2.55702 1.51671 0
M  V30 725 H 68.4937 1.38462 0.683201 0
M  V30 726 H 70.4517 1.55089 3.80076 0
M  V30 727 H 69.1127 0.634561 3.07623 0
M  V30 728 H 68.3057 2.70456 4.25288 0
M  V30 729 H 67.9077 2.76346 2.5201 0
M  V30 730 H 70.1997 4.09164 5.39992 0
M  V30 731 H 71.1427 5.38668 4.59612 0
M  V30 732 H 71.5507 3.67286 4.28674 0
M  V30 733 N 70.9488 -0.749086 1.3866 0
M  V30 734 C 71.8968 -1.88428 1.36373 0
M  V30 735 C 72.8908 -1.67561 0.248929 0
M  V30 736 O 74.0968 -1.75074 0.41821 0
M  V30 737 H 70.4718 -0.620023 0.42553 0
M  V30 738 H 72.4428 -1.87473 2.32156 0
M  V30 739 C 71.1918 -3.25961 1.21014 0
M  V30 740 H 70.5148 -3.42607 2.06059 0
M  V30 741 H 71.9548 -4.05625 1.23469 0
M  V30 742 C 70.4138 -3.36799 -0.0825941 0
M  V30 743 O 70.9438 -3.87517 -1.05797 0
M  V30 744 N 69.1498 -2.90258 -0.140939 0
M  V30 745 H 68.6968 -2.49174 0.653477 0
M  V30 746 H 68.6548 -2.97889 -1.00545 0
M  V30 747 N 72.4269 -1.23603 -0.977757 0
M  V30 748 C 73.6749 -1.06759 -1.71601 0
M  V30 749 C 73.9959 0.395929 -1.90938 0
M  V30 750 O 73.2659 1.28356 -1.47992 0
M  V30 751 H 71.8459 -0.392062 -0.635843 0
M  V30 752 H 74.5079 -1.55362 -1.1768 0
M  V30 753 H 73.6039 -1.55763 -2.70452 0
M  V30 754 N 73.905 1.17692 -1.04816 0
M  V30 755 C 75.316 1.69501 -0.782698 0
M  V30 756 C 75.667 1.83456 0.695577 0
M  V30 757 O 74.792 1.51942 1.54086 0
M  V30 758 C 75.387 3.07874 -1.41419 0
M  V30 759 C 73.946 3.56864 -1.19686 0
M  V30 760 C 73.093 2.3322 -1.50012 0
M  V30 761 H 76.044 1.02262 -1.2136 0
M  V30 762 H 76.065 3.71528 -0.821428 0
M  V30 763 H 75.577 2.97685 -2.49009 0
M  V30 764 H 73.678 3.72337 -0.140043 0
M  V30 765 H 73.791 4.39851 -1.89916 0
M  V30 766 H 72.155 2.37501 -0.920071 0
M  V30 767 H 72.938 2.25644 -2.58727 0
M  V30 768 N 75.3831 0.828654 1.34056 0
M  V30 769 C 76.6111 0.43262 2.02326 0
M  V30 770 C 77.0261 -0.963147 1.62385 0
M  V30 771 O 76.3831 -1.62425 0.832121 0
M  V30 772 C 76.4341 0.53182 3.57567 0
M  V30 773 O 76.1551 1.87258 3.96063 0
M  V30 774 C 77.6561 0.131422 4.43105 0
M  V30 775 H 74.8761 0.172923 0.648335 0
M  V30 776 H 77.4201 1.1184 1.71208 0
M  V30 777 H 75.5751 -0.105938 3.87255 0
M  V30 778 H 75.9891 1.85087 4.90758 0
M  V30 779 H 77.4631 0.251904 5.51425 0
M  V30 780 H 77.9401 -0.925645 4.29335 0
M  V30 781 H 78.5461 0.743207 4.18756 0
M  V30 782 N 76.8612 -1.46375 0.584142 0
M  V30 783 C 77.8092 -2.32042 -0.161047 0
M  V30 784 C 78.8032 -1.44569 -0.882966 0
M  V30 785 O 80.0092 -1.61186 -0.801191 0
M  V30 786 H 76.3842 -0.748659 -0.0708033 0
M  V30 787 H 78.3552 -2.92704 0.580269 0
M  V30 788 C 77.1042 -3.27762 -1.1605 0
M  V30 789 H 76.4272 -3.95051 -0.614419 0
M  V30 790 H 77.8672 -3.90481 -1.65228 0
M  V30 791 C 76.3262 -2.53218 -2.22221 0
M  V30 792 O 76.8562 -2.29628 -3.29597 0
M  V30 793 N 75.0622 -2.13756 -1.96868 0
M  V30 794 H 74.6092 -2.33142 -1.09557 0
M  V30 795 H 74.5672 -1.642 -2.68115 0
M  V30 796 N 78.3393 -0.321999 -1.54275 0
M  V30 797 C 79.5793 0.281657 -2.0245 0
M  V30 798 C 79.9433 1.49468 -1.20513 0
M  V30 799 O 81.1443 2.17109 -1.58484 0
M  V30 800 C 79.4153 0.609014 -3.52173 0
M  V30 801 S 80.9743 1.19255 -4.22284 0
M  V30 802 H 77.7923 0.0852825 -0.705867 0
M  V30 803 H 80.3943 -0.454758 -1.90137 0
M  V30 804 H 79.0983 -0.281982 -4.0943 0
M  V30 805 H 78.6293 1.37567 -3.68563 0
M  V30 806 H 80.6443 2.47944 -4.29812 0
M  V30 807 N 79.8174 1.5752 -0.0501392 0
M  V30 808 C 81.0424 1.97376 0.636997 0
M  V30 809 C 81.4674 0.927466 1.63645 0
M  V30 810 O 80.8254 -0.10941 1.8097 0
M  V30 811 C 80.8734 3.36304 1.30123 0
M  V30 812 O 79.9774 3.34156 2.41689 0
M  V30 813 H 79.3184 0.642998 0.165679 0
M  V30 814 H 81.8484 2.04258 -0.118233 0
M  V30 815 H 81.8584 3.73008 1.65315 0
M  V30 816 H 80.5334 4.11993 0.568746 0
M  V30 817 H 79.1104 3.09196 2.08451 0
M  V30 818 N 81.2955 -0.223234 1.56011 0
M  V30 819 C 82.5235 -0.964812 1.83027 0
M  V30 820 C 82.9385 -1.78013 0.62904 0
M  V30 821 O 82.2955 -1.78008 -0.402414 0
M  V30 822 C 82.3465 -1.88373 3.08542 0
M  V30 823 O 82.0675 -1.10137 4.2403 0
M  V30 824 C 83.5685 -2.73934 3.48533 0
M  V30 825 H 80.7885 -0.282842 0.608475 0
M  V30 826 H 83.3325 -0.238971 2.03099 0
M  V30 827 H 81.4875 -2.56354 2.9045 0
M  V30 828 H 81.9015 -1.72501 4.95322 0
M  V30 829 H 83.3755 -3.34117 4.39397 0
M  V30 830 H 83.8525 -3.46244 2.70207 0
M  V30 831 H 84.4585 -2.11369 3.69057 0
M  V30 832 N 82.7736 -1.49793 -0.48987 0
M  V30 833 C 83.6836 -1.70036 -1.61632 0
M  V30 834 C 84.6996 -0.583102 -1.63939 0
M  V30 835 O 85.8756 -0.859169 -1.82154 0
M  V30 836 C 82.9406 -1.77277 -2.97949 0
M  V30 837 C 82.0016 -3.00918 -3.06181 0
M  V30 838 C 81.2346 -3.07804 -4.35996 0
M  V30 839 O 81.4576 -2.21982 -5.25433 0
M  V30 840 O 80.3916 -4.00369 -4.49431 0
M  V30 841 H 84.2176 -2.65486 -1.47482 0
M  V30 842 H 81.8026 -1.33666 -0.667362 0
M  V30 843 H 83.6846 -1.84329 -3.78947 0
M  V30 844 H 82.3596 -0.850076 -3.12339 0
M  V30 845 H 81.2666 -2.99377 -2.2433 0
M  V30 846 H 82.5996 -3.92704 -2.96723 0
M  V30 847 N 84.2517 0.741722 -1.39055 0
M  V30 848 C 85.1817 1.869 -1.39966 0
M  V30 849 C 86.1627 1.6804 -0.26392 0
M  V30 850 O 87.3477 1.88458 -0.468755 0
M  V30 851 C 84.4777 3.24572 -1.23574 0
M  V30 852 C 83.4317 3.58056 -2.34477 0
M  V30 853 C 82.7577 4.94593 -2.0318 0
M  V30 854 C 84.0577 3.61716 -3.76774 0
M  V30 855 H 85.7517 1.86395 -2.34302 0
M  V30 856 H 83.2977 0.895361 -1.1278 0
M  V30 857 H 85.2507 4.031 -1.22834 0
M  V30 858 H 83.9747 3.25587 -0.257045 0
M  V30 859 H 82.6337 2.81854 -2.34423 0
M  V30 860 H 82.2817 4.92181 -1.03765 0
M  V30 861 H 81.9817 5.17964 -2.77465 0
M  V30 862 H 83.5057 5.75486 -2.04079 0
M  V30 863 H 84.9197 4.30335 -3.78794 0
M  V30 864 H 83.3167 3.96603 -4.50362 0
M  V30 865 H 84.3867 2.61672 -4.08235 0
M  V30 866 N 85.7298 1.2412 0.971189 0
M  V30 867 C 87.1458 1.00584 1.23916 0
M  V30 868 C 87.3458 -0.287481 1.99439 0
M  V30 869 O 86.4018 -1.00454 2.31658 0
M  V30 870 C 87.7148 2.21864 2.0297 0
M  V30 871 C 89.2628 2.26452 2.16076 0
M  V30 872 C 89.7378 3.47343 2.98524 0
M  V30 873 N 91.2288 3.47639 3.06107 0
M  V30 874 C 91.9638 4.37837 3.70251 0
M  V30 875 N 91.4598 5.38286 4.36142 0
M  V30 876 N 93.2528 4.25558 3.67228 0
M  V30 877 H 85.4038 2.07236 0.465499 0
M  V30 878 H 87.6668 0.909236 0.268315 0
M  V30 879 H 87.3728 3.15771 1.54861 0
M  V30 880 H 87.2468 2.23698 3.03709 0
M  V30 881 H 89.6338 1.33078 2.6339 0
M  V30 882 H 89.7148 2.28645 1.14696 0
M  V30 883 H 89.3588 4.41029 2.51905 0
M  V30 884 H 89.2888 3.42393 4.00093 0
M  V30 885 H 91.7798 2.74966 2.59233 0
M  V30 886 H 92.0928 6.03352 4.82894 0
M  V30 887 H 90.4378 5.42176 4.34822 0
M  V30 888 H 93.6288 3.46322 3.14927 0
M  V30 889 H 93.8018 4.96054 4.16935 0
M  V30 890 N 87.2079 -1.17134 1.05439 0
M  V30 891 C 88.1379 -2.2342 0.678649 0
M  V30 892 C 89.1189 -1.66971 -0.32476 0
M  V30 893 O 90.3039 -1.93149 -0.201802 0
M  V30 894 C 87.4339 -3.47256 0.0552099 0
M  V30 895 C 86.3879 -4.16543 0.98365 0
M  V30 896 C 85.7139 -5.34231 0.223961 0
M  V30 897 C 87.0139 -4.68495 2.3089 0
M  V30 898 H 88.7079 -2.55105 1.56722 0
M  V30 899 H 86.2539 -1.2262 0.754998 0
M  V30 900 H 88.2069 -4.20828 -0.21946 0
M  V30 901 H 86.9309 -3.14846 -0.868319 0
M  V30 902 H 85.5899 -3.44887 1.24293 0
M  V30 903 H 85.2379 -4.98071 -0.702412 0
M  V30 904 H 84.9379 -5.81527 0.842627 0
M  V30 905 H 86.4619 -6.10585 -0.0433671 0
M  V30 906 H 87.8759 -5.33691 2.09396 0
M  V30 907 H 86.2729 -5.26379 2.88176 0
M  V30 908 H 87.3429 -3.85169 2.94572 0
M  V30 909 N 88.686 -0.835752 -1.33615 0
M  V30 910 C 89.616 -0.281739 -2.31794 0
M  V30 911 C 90.597 0.608833 -1.58831 0
M  V30 912 O 91.782 0.533035 -1.86741 0
M  V30 913 C 88.912 0.546612 -3.42971 0
M  V30 914 C 87.866 -0.247904 -4.27281 0
M  V30 915 C 87.192 0.704001 -5.30045 0
M  V30 916 C 88.492 -1.46324 -5.01385 0
M  V30 917 H 90.186 -1.10206 -2.78379 0
M  V30 918 H 87.732 -0.531388 -1.33837 0
M  V30 919 H 89.685 0.944467 -4.1068 0
M  V30 920 H 88.409 1.40011 -2.95067 0
M  V30 921 H 87.068 -0.627281 -3.61194 0
M  V30 922 H 86.716 1.55381 -4.78399 0
M  V30 923 H 86.416 0.176524 -5.87335 0
M  V30 924 H 87.94 1.09944 -6.0062 0
M  V30 925 H 89.354 -1.13871 -5.61877 0
M  V30 926 H 87.751 -1.92728 -5.6831 0
M  V30 927 H 88.821 -2.23467 -4.30338 0
M  V30 928 N 90.1641 1.46063 -0.591896 0
M  V30 929 C 91.3941 2.06418 -0.0867676 0
M  V30 930 C 91.8021 1.43975 1.22751 0
M  V30 931 O 91.1451 0.542531 1.75506 0
M  V30 932 C 91.2071 3.59213 0.143725 0
M  V30 933 C 90.8711 4.439 -1.08635 0
M  V30 934 C 91.8681 4.79864 -2.00067 0
M  V30 935 C 89.5531 4.84896 -1.31077 0
M  V30 936 C 91.5471 5.55661 -3.12282 0
M  V30 937 C 89.2341 5.6045 -2.43596 0
M  V30 938 C 90.2321 5.95747 -3.34027 0
M  V30 939 O 89.9201 6.69772 -4.4459 0
M  V30 940 H 89.6521 0.673443 -0.0587447 0
M  V30 941 H 92.2061 1.88539 -0.814994 0
M  V30 942 H 90.4361 3.75433 0.926668 0
M  V30 943 H 92.1251 4.01463 0.5985 0
M  V30 944 H 92.8911 4.48763 -1.83947 0
M  V30 945 H 88.7701 4.56867 -0.61594 0
M  V30 946 H 92.3141 5.8313 -3.82891 0
M  V30 947 H 88.2111 5.90965 -2.59674 0
M  V30 948 H 88.9791 6.88207 -4.43073 0
M  V30 949 N 91.6422 0.330177 1.54103 0
M  V30 950 C 92.5742 -0.566902 2.22079 0
M  V30 951 C 93.5872 -1.07462 1.22294 0
M  V30 952 O 94.7762 -0.987065 1.48726 0
M  V30 953 C 91.8762 -1.79138 2.87685 0
M  V30 954 C 91.0492 -1.42123 4.13666 0
M  V30 955 C 90.1082 -2.50394 4.62806 0
M  V30 956 O 89.1342 -2.14261 5.27334 0
M  V30 957 N 90.3362 -3.81433 4.37595 0
M  V30 958 H 93.1012 0.0151844 2.99696 0
M  V30 959 H 90.6622 0.153681 1.61169 0
M  V30 960 H 92.6542 -2.50975 3.1748 0
M  V30 961 H 91.2242 -2.28115 2.13734 0
M  V30 962 H 90.4442 -0.534201 3.90564 0
M  V30 963 H 91.7322 -1.14971 4.9564 0
M  V30 964 H 91.1302 -4.13584 3.8596 0
M  V30 965 H 89.6872 -4.4948 4.72029 0
M  V30 966 N 93.1203 -1.57491 0.0584922 0
M  V30 967 C 94.0503 -2.14988 -0.911178 0
M  V30 968 C 95.0313 -1.07343 -1.31952 0
M  V30 969 O 96.2163 -1.35318 -1.39294 0
M  V30 970 C 93.3463 -2.70078 -2.18347 0
M  V30 971 C 92.3003 -3.82771 -1.91495 0
M  V30 972 C 91.6263 -4.24408 -3.25241 0
M  V30 973 C 92.9263 -5.07592 -1.23075 0
M  V30 974 H 94.6203 -2.96263 -0.432246 0
M  V30 975 H 92.1663 -1.42512 -0.206469 0
M  V30 976 H 94.1193 -3.08943 -2.86587 0
M  V30 977 H 92.8433 -1.86005 -2.68458 0
M  V30 978 H 91.5023 -3.44389 -1.25664 0
M  V30 979 H 91.1503 -3.37275 -3.73168 0
M  V30 980 H 90.8503 -5.00366 -3.08071 0
M  V30 981 H 92.3743 -4.65879 -3.94701 0
M  V30 982 H 93.7883 -5.43857 -1.81362 0
M  V30 983 H 92.1853 -5.88741 -1.16207 0
M  V30 984 H 93.2553 -4.84454 -0.207847 0
M  V30 985 N 94.5984 0.214957 -1.56127 0
M  V30 986 C 95.8444 0.939762 -1.79712 0
M  V30 987 C 96.1774 1.83723 -0.629247 0
M  V30 988 O 95.4524 1.90925 0.371197 0
M  V30 989 C 95.7354 1.77306 -3.13424 0
M  V30 990 C 95.5884 0.90164 -4.40671 0
M  V30 991 C 96.9074 2.74956 -3.43638 0
M  V30 992 H 94.0264 0.340214 -0.653776 0
M  V30 993 H 96.6684 0.20824 -1.88855 0
M  V30 994 H 94.8184 2.39673 -3.0576 0
M  V30 995 H 96.4904 0.294206 -4.60361 0
M  V30 996 H 94.7334 0.207368 -4.33304 0
M  V30 997 H 95.4044 1.51923 -5.30682 0
M  V30 998 H 97.8804 2.22724 -3.51473 0
M  V30 999 H 96.7564 3.30358 -4.38355 0
M  V30 1000 H 97.0174 3.53023 -2.66134 0
M  V30 1001 N 96.0765 1.50051 0.48192 0
M  V30 1002 C 97.3235 1.60498 1.23477 0
M  V30 1003 C 97.6515 0.300331 1.92167 0
M  V30 1004 O 96.9065 -0.713094 1.82246 0
M  V30 1005 C 97.2055 2.72717 2.30998 0
M  V30 1006 C 96.8715 4.13572 1.79636 0
M  V30 1007 C 95.5335 4.519 1.65348 0
M  V30 1008 C 97.8855 5.01649 1.41412 0
M  V30 1009 C 95.2135 5.76057 1.11244 0
M  V30 1010 C 97.5655 6.26343 0.887538 0
M  V30 1011 C 96.2295 6.63483 0.731207 0
M  V30 1012 H 95.4995 0.587303 0.451836 0
M  V30 1013 H 98.1465 1.83948 0.532468 0
M  V30 1014 H 96.4515 2.43312 3.07094 0
M  V30 1015 H 98.1485 2.78006 2.88988 0
M  V30 1016 H 94.7385 3.83329 1.91721 0
M  V30 1017 H 98.9225 4.72679 1.51289 0
M  V30 1018 H 94.1785 6.03516 0.978686 0
M  V30 1019 H 98.3525 6.93958 0.582654 0
M  V30 1020 H 95.9795 7.59568 0.309806 0
M  V30 1021 N 97.5546 -0.734337 1.39446 0
M  V30 1022 C 98.4846 -1.86155 1.40955 0
M  V30 1023 C 99.4656 -1.67898 0.272827 0
M  V30 1024 O 100.651 -1.88207 0.478743 0
M  V30 1025 C 97.7806 -3.23912 1.25294 0
M  V30 1026 C 96.7346 -3.56808 2.36373 0
M  V30 1027 C 96.0606 -4.93508 2.058 0
M  V30 1028 C 97.3606 -3.59713 3.78687 0
M  V30 1029 H 99.0546 -1.8515 2.35287 0
M  V30 1030 H 96.6006 -0.889367 1.13253 0
M  V30 1031 H 98.5536 -4.02443 1.2497 0
M  V30 1032 H 97.2776 -3.25446 0.274308 0
M  V30 1033 H 95.9366 -2.80606 2.35914 0
M  V30 1034 H 95.5846 -4.91623 1.06374 0
M  V30 1035 H 95.2846 -5.16486 2.80208 0
M  V30 1036 H 96.8086 -5.74396 2.07128 0
M  V30 1037 H 98.2226 -4.2832 3.81071 0
M  V30 1038 H 96.6196 -3.94209 4.52459 0
M  V30 1039 H 97.6896 -2.59504 4.09617 0
M  V30 1040 N 99.0327 -1.24633 -0.964593 0
M  V30 1041 C 99.9627 -1.06611 -2.07741 0
M  V30 1042 C 100.944 0.0218666 -1.70086 0
M  V30 1043 O 102.129 -0.145793 -1.93652 0
M  V30 1044 C 99.2587 -0.673444 -3.40708 0
M  V30 1045 C 98.2127 -1.71054 -3.92332 0
M  V30 1046 C 97.5387 -1.17285 -5.21678 0
M  V30 1047 C 98.8387 -3.10718 -4.19824 0
M  V30 1048 H 100.533 -1.99693 -2.23076 0
M  V30 1049 H 98.0787 -0.96152 -1.07195 0
M  V30 1050 H 100.032 -0.534345 -4.17998 0
M  V30 1051 H 98.7557 0.293073 -3.25282 0
M  V30 1052 H 97.4147 -1.83791 -3.17201 0
M  V30 1053 H 97.0627 -0.196847 -5.02615 0
M  V30 1054 H 96.7627 -1.86592 -5.57187 0
M  V30 1055 H 98.2867 -1.04593 -6.01575 0
M  V30 1056 H 99.7007 -3.01192 -4.87808 0
M  V30 1057 H 98.0977 -3.77406 -4.66567 0
M  V30 1058 H 99.1677 -3.58524 -3.26479 0
M  V30 1059 N 100.511 1.16574 -1.06058 0
M  V30 1060 C 101.736 1.91493 -0.796562 0
M  V30 1061 C 102.161 1.76773 0.642868 0
M  V30 1062 O 101.519 1.09142 1.44768 0
M  V30 1063 C 101.567 3.40293 -1.19303 0
M  V30 1064 O 100.671 4.11074 -0.330394 0
M  V30 1065 H 100.012 0.596678 -0.291326 0
M  V30 1066 H 102.542 1.47708 -1.41575 0
M  V30 1067 H 102.552 3.91057 -1.16356 0
M  V30 1068 H 101.227 3.50326 -2.24153 0
M  V30 1069 H 99.8038 3.70513 -0.421225 0
M  V30 1070 N 101.989 0.842826 1.3317 0
M  V30 1071 C 102.899 0.281444 2.32906 0
M  V30 1072 C 103.915 -0.594587 1.63526 0
M  V30 1073 O 105.091 -0.49777 1.95152 0
M  V30 1074 C 102.156 -0.530929 3.42611 0
M  V30 1075 C 101.217 0.369843 4.27704 0
M  V30 1076 C 100.45 -0.403853 5.3217 0
M  V30 1077 O 100.673 -1.63513 5.46461 0
M  V30 1078 O 99.6069 0.224199 6.01482 0
M  V30 1079 H 103.433 1.10744 2.82789 0
M  V30 1080 H 101.018 0.60545 1.36582 0
M  V30 1081 H 102.9 -0.992437 4.09547 0
M  V30 1082 H 101.575 -1.33392 2.94938 0
M  V30 1083 H 100.482 0.879275 3.6362 0
M  V30 1084 H 101.815 1.13771 4.78871 0
M  V30 1085 N 103.467 -1.45747 0.599634 0
M  V30 1086 C 104.43 -2.28917 -0.113835 0
M  V30 1087 C 105.43 -1.3933 -0.802729 0
M  V30 1088 O 106.62 -1.61534 -0.652103 0
M  V30 1089 C 103.752 -3.20152 -1.17114 0
M  V30 1090 H 104.945 -2.93478 0.617289 0
M  V30 1091 H 102.498 -1.52137 0.358327 0
M  V30 1092 H 103.233 -2.60374 -1.93329 0
M  V30 1093 H 103.018 -3.86133 -0.681468 0
M  V30 1094 H 104.508 -3.82708 -1.67105 0
M  V30 1095 N 104.945 -0.338344 -1.53925 0
M  V30 1096 C 105.895 0.536712 -2.21593 0
M  V30 1097 C 106.879 1.07015 -1.20153 0
M  V30 1098 O 108.071 1.00471 -1.45721 0
M  V30 1099 C 105.2 1.68977 -2.98834 0
M  V30 1100 C 104.286 1.17052 -4.07627 0
M  V30 1101 N 104.677 0.372085 -5.0443 0
M  V30 1102 C 102.975 1.44789 -4.21844 0
M  V30 1103 C 103.676 0.0909171 -5.81629 0
M  V30 1104 N 102.652 0.681131 -5.39316 0
M  V30 1105 H 106.454 -0.0804298 -2.9379 0
M  V30 1106 H 103.968 -0.144943 -1.61752 0
M  V30 1107 H 105.965 2.32857 -3.45808 0
M  V30 1108 H 104.625 2.31024 -2.28162 0
M  V30 1109 H 105.636 0.0136217 -5.17898 0
M  V30 1110 H 102.313 2.07313 -3.62391 0
M  V30 1111 H 103.703 -0.552817 -6.69622 0
M  V30 1112 N 106.423 1.57458 -0.0668435 0
M  V30 1113 C 107.651 1.97624 0.612565 0
M  V30 1114 C 108.066 0.94502 1.63447 0
M  V30 1115 O 107.423 -0.0689276 1.8237 0
M  V30 1116 C 107.474 3.37869 1.28555 0
M  V30 1117 O 107.195 4.3704 0.304557 0
M  V30 1118 C 108.696 3.92882 2.05325 0
M  V30 1119 H 105.916 0.650045 0.166381 0
M  V30 1120 H 108.46 2.04035 -0.137782 0
M  V30 1121 H 106.615 3.3256 1.98702 0
M  V30 1122 H 107.029 5.18565 0.786779 0
M  V30 1123 H 108.503 4.93247 2.47812 0
M  V30 1124 H 108.98 3.29156 2.9078 0
M  V30 1125 H 109.586 4.01577 1.40056 0
M  V30 1126 N 107.901 -0.206675 1.56239 0
M  V30 1127 C 109.141 -0.93574 1.81723 0
M  V30 1128 C 109.505 -1.80927 0.642609 0
M  V30 1129 O 110.706 -2.57323 0.777081 0
M  V30 1130 C 108.977 -1.74012 3.12177 0
M  V30 1131 S 110.536 -2.52279 3.59028 0
M  V30 1132 H 107.354 -0.314065 0.637875 0
M  V30 1133 H 109.956 -0.200071 1.94474 0
M  V30 1134 H 108.66 -1.0888 3.95693 0
M  V30 1135 H 108.191 -2.51782 3.02274 0
M  V30 1136 H 110.206 -3.76209 3.23545 0
M  V30 1137 N 109.379 -1.50304 -0.473955 0
M  V30 1138 C 110.628 -1.60392 -1.22301 0
M  V30 1139 C 110.941 -0.308411 -1.93153 0
M  V30 1140 O 112.147 -0.288156 -2.69966 0
M  V30 1141 C 110.603 -2.83109 -2.2221 0
M  V30 1142 C 110.211 -4.19524 -1.57173 0
M  V30 1143 C 111.955 -3.0254 -2.97775 0
M  V30 1144 C 109.862 -5.33431 -2.55353 0
M  V30 1145 H 108.792 -0.597286 -0.460179 0
M  V30 1146 H 111.443 -1.76731 -0.493803 0
M  V30 1147 H 109.825 -2.60322 -2.9841 0
M  V30 1148 H 110.999 -4.52554 -0.867824 0
M  V30 1149 H 109.314 -4.05674 -0.939002 0
M  V30 1150 H 111.911 -3.84811 -3.71248 0
M  V30 1151 H 112.254 -2.14154 -3.56992 0
M  V30 1152 H 112.787 -3.25494 -2.28688 0
M  V30 1153 H 109.526 -6.23962 -2.00878 0
M  V30 1154 H 109.046 -5.04823 -3.23904 0
M  V30 1155 H 110.725 -5.63887 -3.17239 0
M  V30 1156 N 110.857 0.726932 -1.39834 0
M  V30 1157 C 112.268 1.30558 -1.3346 0
M  V30 1158 C 112.619 1.962 -0.00273003 0
M  V30 1159 O 111.744 1.96826 0.899371 0
M  V30 1160 C 112.339 2.37404 -2.41713 0
M  V30 1161 C 110.898 2.90921 -2.38835 0
M  V30 1162 C 110.045 1.64578 -2.2318 0
M  V30 1163 H 112.996 0.523862 -1.49804 0
M  V30 1164 H 113.017 3.17984 -2.08966 0
M  V30 1165 H 112.529 1.89599 -3.38635 0
M  V30 1166 H 110.63 3.42985 -1.45575 0
M  V30 1167 H 110.743 3.43487 -3.33997 0
M  V30 1168 H 109.107 1.89219 -1.70494 0
M  V30 1169 H 109.89 1.18814 -3.22084 0
M  V30 1170 N 112.336 1.25143 0.95797 0
M  V30 1171 C 113.246 1.06968 2.08794 0
M  V30 1172 C 114.262 0.00773911 1.73998 0
M  V30 1173 O 115.438 0.207972 2.00323 0
M  V30 1174 C 112.503 0.68691 3.39827 0
M  V30 1175 C 111.564 1.82641 3.88511 0
M  V30 1176 C 110.797 1.46181 5.1329 0
M  V30 1177 O 111.02 0.355971 5.69288 0
M  V30 1178 O 109.954 2.29085 5.566 0
M  V30 1179 H 113.78 2.01723 2.27027 0
M  V30 1180 H 111.365 1.04051 1.07209 0
M  V30 1181 H 113.247 0.485417 4.18595 0
M  V30 1182 H 111.922 -0.231417 3.22872 0
M  V30 1183 H 110.829 2.08274 3.10762 0
M  V30 1184 H 112.162 2.72386 4.09959 0
M  V30 1185 N 113.814 -1.1601 1.06675 0
M  V30 1186 C 114.762 -2.22586 0.675157 0
M  V30 1187 C 115.756 -1.66525 -0.310766 0
M  V30 1188 O 116.962 -1.79145 -0.175215 0
M  V30 1189 H 113.337 -0.724855 0.200223 0
M  V30 1190 H 115.308 -2.52899 1.58381 0
M  V30 1191 C 114.057 -3.47604 0.0817162 0
M  V30 1192 H 113.38 -3.91058 0.831484 0
M  V30 1193 H 114.82 -4.23718 -0.154708 0
M  V30 1194 C 113.279 -3.15718 -1.17576 0
M  V30 1195 O 113.809 -3.31878 -2.26318 0
M  V30 1196 N 112.015 -2.69816 -1.07923 0
M  V30 1197 H 111.562 -2.56866 -0.194293 0
M  V30 1198 H 111.52 -2.48855 -1.92141 0
M  V30 1199 N 115.292 -0.849877 -1.32721 0
M  V30 1200 C 116.24 -0.279745 -2.30912 0
M  V30 1201 C 117.234 0.594278 -1.58634 0
M  V30 1202 O 118.44 0.482613 -1.73409 0
M  V30 1203 H 114.815 -0.0717521 -0.748569 0
M  V30 1204 H 116.786 -1.12222 -2.76494 0
M  V30 1205 C 115.535 0.521108 -3.43773 0
M  V30 1206 H 114.858 -0.142141 -3.99547 0
M  V30 1207 H 116.298 0.885693 -4.14646 0
M  V30 1208 C 114.757 1.70442 -2.90605 0
M  V30 1209 O 115.287 2.8034 -2.87702 0
M  V30 1210 N 113.493 1.52991 -2.47067 0
M  V30 1211 H 113.04 0.635914 -2.49628 0
M  V30 1212 H 112.998 2.32311 -2.11847 0
M  V30 1213 N 116.77 1.45427 -0.607355 0
M  V30 1214 C 118.018 2.01841 -0.102253 0
M  V30 1215 C 118.339 1.47832 1.27164 0
M  V30 1216 O 117.609 0.672497 1.83995 0
M  V30 1217 H 116.189 0.746188 -0.0348101 0
M  V30 1218 H 118.851 1.78229 -0.7887 0
M  V30 1219 H 117.947 3.12057 -0.0518585 0
M  V30 1220 N 118.248 0.346503 1.53744 0
M  V30 1221 C 119.496 -0.248612 2.00565 0
M  V30 1222 C 119.817 -1.5083 1.23593 0
M  V30 1223 O 119.087 -1.92858 0.343912 0
M  V30 1224 H 117.667 -0.0948564 0.740953 0
M  V30 1225 H 120.329 0.468341 1.89189 0
M  V30 1226 H 119.425 -0.488994 3.08245 0
M  V30 1227 N 119.726 -1.57421 0.075193 0
M  V30 1228 C 120.689 -2.11791 -0.876203 0
M  V30 1229 C 121.689 -1.04268 -1.22412 0
M  V30 1230 O 122.879 -1.30242 -1.15684 0
M  V30 1231 C 120.011 -2.62207 -2.17854 0
M  V30 1232 H 121.204 -2.9716 -0.40444 0
M  V30 1233 H 118.757 -1.55333 -0.173557 0
M  V30 1234 H 119.492 -1.803 -2.6956 0
M  V30 1235 H 119.277 -3.40802 -1.93897 0
M  V30 1236 H 120.767 -3.04335 -2.85955 0
M  V30 1237 N 121.204 0.198386 -1.56346 0
M  V30 1238 C 122.452 0.91747 -1.80075 0
M  V30 1239 C 122.773 1.83929 -0.647692 0
M  V30 1240 O 122.043 1.93029 0.334166 0
M  V30 1241 H 120.623 0.341774 -0.664228 0
M  V30 1242 H 123.285 0.204684 -1.93822 0
M  V30 1243 H 122.381 1.51055 -2.7311 0
M  V30 1244 N 122.682 1.50554 0.465978 0
M  V30 1245 C 123.922 1.63439 1.22747 0
M  V30 1246 C 124.286 0.329822 1.89146 0
M  V30 1247 O 125.487 0.334161 2.66715 0
M  V30 1248 C 123.758 2.78542 2.2394 0
M  V30 1249 S 125.317 3.11591 3.0896 0
M  V30 1250 H 122.135 0.576113 0.416672 0
M  V30 1251 H 124.737 1.88357 0.523641 0
M  V30 1252 H 123.441 3.71805 1.7375 0
M  V30 1253 H 122.972 2.55726 2.98944 0
M  V30 1254 H 124.987 2.55811 4.25176 0
M  V30 1255 N 124.16 -0.719506 1.40217 0
M  V30 1256 C 125.406 -1.48152 1.38488 0
M  V30 1257 C 125.739 -1.94195 -0.0141867 0
M  V30 1258 O 125.014 -1.67884 -0.982096 0
M  V30 1259 C 125.297 -2.71035 2.37091 0
M  V30 1260 C 125.15 -2.30912 3.86005 0
M  V30 1261 C 126.469 -3.73182 2.33288 0
M  V30 1262 H 123.588 -0.537395 0.504357 0
M  V30 1263 H 126.23 -0.821472 1.71324 0
M  V30 1264 H 124.38 -3.27352 2.0922 0
M  V30 1265 H 126.052 -1.80107 4.24687 0
M  V30 1266 H 124.295 -1.62958 4.02029 0
M  V30 1267 H 124.966 -3.18978 4.50508 0
M  V30 1268 H 127.442 -3.26485 2.57966 0
M  V30 1269 H 126.318 -4.56806 3.04334 0
M  V30 1270 H 126.579 -4.21202 1.34317 0
M  V30 1271 N 125.638 -1.25649 -0.95132 0
M  V30 1272 C 126.878 -1.11802 -1.71113 0
M  V30 1273 C 127.242 0.334758 -1.89059 0
M  V30 1274 O 128.443 0.595121 -2.62129 0
M  V30 1275 C 126.714 -1.85512 -3.05483 0
M  V30 1276 S 128.273 -1.87597 -3.96677 0
M  V30 1277 H 125.091 -0.399552 -0.588115 0
M  V30 1278 H 127.693 -1.59222 -1.1344 0
M  V30 1279 H 126.397 -2.90299 -2.90094 0
M  V30 1280 H 125.928 -1.38493 -3.68216 0
M  V30 1281 H 127.943 -0.955389 -4.86916 0
M  V30 1282 N 127.117 1.15442 -1.07289 0
M  V30 1283 C 128.067 2.18164 -0.662467 0
M  V30 1284 C 129.051 1.57845 0.312074 0
M  V30 1285 O 130.243 1.76552 0.125905 0
M  V30 1286 C 127.372 3.43246 -0.0611295 0
M  V30 1287 C 126.458 4.1062 -1.06077 0
M  V30 1288 N 126.849 4.53491 -2.24008 0
M  V30 1289 C 125.147 4.36949 -0.893964 0
M  V30 1290 C 125.848 5.05731 -2.87422 0
M  V30 1291 N 124.824 4.99236 -2.15091 0
M  V30 1292 H 128.626 2.49038 -1.56068 0
M  V30 1293 H 126.14 1.32003 -0.945988 0
M  V30 1294 H 128.137 4.16145 0.250792 0
M  V30 1295 H 126.797 3.13854 0.832207 0
M  V30 1296 H 127.808 4.46898 -2.6173 0
M  V30 1297 H 124.485 4.17466 -0.0534693 0
M  V30 1298 H 125.875 5.48865 -3.87553 0
M  V30 1299 N 128.595 0.856903 1.32268 0
M  V30 1300 C 129.525 0.31858 2.31316 0
M  V30 1301 C 130.506 -0.583487 1.59779 0
M  V30 1302 O 131.691 -0.503259 1.87566 0
M  V30 1303 C 128.821 -0.491979 3.43798 0
M  V30 1304 C 127.775 0.315849 4.26833 0
M  V30 1305 C 127.101 -0.619586 5.31098 0
M  V30 1306 C 128.401 1.54282 4.98993 0
M  V30 1307 H 130.095 1.14621 2.76591 0
M  V30 1308 H 127.641 0.552613 1.32974 0
M  V30 1309 H 129.594 -0.879012 4.1213 0
M  V30 1310 H 128.318 -1.35299 2.97257 0
M  V30 1311 H 126.977 0.684664 3.6015 0
M  V30 1312 H 126.625 -1.47751 4.8081 0
M  V30 1313 H 126.325 -0.0830621 5.87541 0
M  V30 1314 H 127.849 -1.00375 6.02293 0
M  V30 1315 H 129.263 1.22796 5.59995 0
M  V30 1316 H 127.66 2.01745 5.65172 0
M  V30 1317 H 128.73 2.30285 4.26728 0
M  V30 1318 N 130.073 -1.45103 0.615059 0
M  V30 1319 C 131.003 -2.33339 -0.0865619 0
M  V30 1320 C 131.984 -1.4727 -0.851209 0
M  V30 1321 O 133.169 -1.76026 -0.820281 0
M  V30 1322 C 130.299 -3.30095 -1.07956 0
M  V30 1323 C 129.253 -4.25858 -0.427628 0
M  V30 1324 C 128.579 -5.12361 -1.5294 0
M  V30 1325 C 129.879 -5.18165 0.655944 0
M  V30 1326 H 131.573 -2.92254 0.650224 0
M  V30 1327 H 129.119 -1.40532 0.314138 0
M  V30 1328 H 131.072 -3.90698 -1.57901 0
M  V30 1329 H 129.796 -2.69355 -1.84703 0
M  V30 1330 H 128.455 -3.66564 0.0510292 0
M  V30 1331 H 128.103 -4.47984 -2.28734 0
M  V30 1332 H 127.803 -5.77238 -1.09865 0
M  V30 1333 H 129.327 -5.75833 -2.03098 0
M  V30 1334 H 130.741 -5.72796 0.240257 0
M  V30 1335 H 129.138 -5.91559 1.00888 0
M  V30 1336 H 130.208 -4.60144 1.52957 0
M  V30 1337 N 131.551 -0.354651 -1.53558 0
M  V30 1338 C 132.484 0.540273 -2.21712 0
M  V30 1339 C 133.462 1.09161 -1.2051 0
M  V30 1340 O 134.646 1.14979 -1.49372 0
M  V30 1341 C 131.773 1.74435 -2.90328 0
M  V30 1342 C 130.819 1.32146 -4.05512 0
M  V30 1343 S 131.652 0.331924 -5.3447 0
M  V30 1344 C 132.808 1.54258 -6.06593 0
M  V30 1345 H 133.041 -0.0385776 -2.97275 0
M  V30 1346 H 130.574 -0.138736 -1.53775 0
M  V30 1347 H 132.532 2.43507 -3.30476 0
M  V30 1348 H 131.193 2.29444 -2.1451 0
M  V30 1349 H 130.386 2.21952 -4.52497 0
M  V30 1350 H 129.988 0.710091 -3.67197 0
M  V30 1351 H 132.28 2.47534 -6.30661 0
M  V30 1352 H 133.223 1.11431 -6.99277 0
M  V30 1353 H 133.631 1.74367 -5.36895 0
M  V30 1354 N 133.029 1.57378 -0.0835403 0
M  V30 1355 C 134.306 1.85363 0.624507 0
M  V30 1356 C 134.686 0.978239 1.87066 0
M  V30 1357 O 134.034 0.0475908 2.2845 0
M  V30 1358 C 134.244 3.35795 0.950947 0
M  V30 1359 C 135.592 4.03581 1.31939 0
M  V30 1360 O 136.616 3.40609 1.04232 0
M  V30 1361 O 135.475 5.14672 1.83779 0
M  V30 1362 H 132.569 0.766162 0.311329 0
M  V30 1363 H 135.115 1.69307 -0.115362 0
M  V30 1364 H 133.887 3.91244 0.0663899 0
M  V30 1365 H 133.51 3.57154 1.74719 0
M  V30 1366 N 134.507 -0.190092 1.56449 0
M  V30 1367 C 135.784 -0.935886 1.71757 0
M  V30 1368 C 136.164 -2.01173 0.639726 0
M  V30 1369 O 135.512 -2.25827 -0.348502 0
M  V30 1370 C 135.722 -1.51775 3.1427 0
M  V30 1371 C 137.07 -1.99794 3.74656 0
M  V30 1372 O 138.094 -1.61607 3.1743 0
M  V30 1373 O 136.953 -2.70079 4.751 0
M  V30 1374 H 134.047 -0.439229 0.700719 0
M  V30 1375 H 136.593 -0.179395 1.68749 0
M  V30 1376 H 135.365 -0.742505 3.84191 0
M  V30 1377 H 134.988 -2.33894 3.21527 0
M  V30 1378 N 135.985 -1.50799 -0.457987 0
M  V30 1379 C 137.231 -1.62683 -1.21088 0
M  V30 1380 C 137.564 -0.332268 -1.91336 0
M  V30 1381 O 136.839 0.667043 -1.82704 0
M  V30 1382 C 137.122 -2.81615 -2.24422 0
M  V30 1383 C 136.975 -4.20989 -1.58392 0
M  V30 1384 C 138.294 -2.96085 -3.2561 0
M  V30 1385 H 135.413 -0.592087 -0.438864 0
M  V30 1386 H 138.055 -1.83225 -0.50286 0
M  V30 1387 H 136.205 -2.64231 -2.84806 0
M  V30 1388 H 137.877 -4.49994 -1.01504 0
M  V30 1389 H 136.12 -4.24641 -0.886704 0
M  V30 1390 H 136.791 -5.0016 -2.33547 0
M  V30 1391 H 139.267 -3.12042 -2.75262 0
M  V30 1392 H 138.143 -3.80902 -3.95228 0
M  V30 1393 H 138.404 -2.0726 -3.90507 0
M  V30 1394 N 137.463 0.71206 -1.40597 0
M  V30 1395 C 138.709 1.47416 -1.39271 0
M  V30 1396 C 139.042 1.942 0.00388791 0
M  V30 1397 O 138.317 1.68403 0.973179 0
M  V30 1398 C 138.6 2.69774 -2.38525 0
M  V30 1399 C 138.453 2.28861 -3.87224 0
M  V30 1400 C 139.772 3.71939 -2.35264 0
M  V30 1401 H 136.891 0.534713 -0.5072 0
M  V30 1402 H 139.533 0.812375 -1.71757 0
M  V30 1403 H 137.683 3.26238 -2.10953 0
M  V30 1404 H 139.355 1.77852 -4.25636 0
M  V30 1405 H 137.598 1.60824 -4.02887 0
M  V30 1406 H 138.269 3.16584 -4.52193 0
M  V30 1407 H 140.745 3.25113 -2.59694 0
M  V30 1408 H 139.621 4.55186 -3.06753 0
M  V30 1409 H 139.882 4.20484 -1.36549 0
M  V30 1410 N 138.941 1.26152 0.944643 0
M  V30 1411 C 140.166 1.14363 1.7302 0
M  V30 1412 C 140.591 -0.29772 1.85729 0
M  V30 1413 O 139.949 -1.2157 1.34501 0
M  V30 1414 C 139.997 1.81378 3.11664 0
M  V30 1415 O 139.101 1.10022 3.97453 0
M  V30 1416 H 138.442 0.398694 0.53098 0
M  V30 1417 H 140.972 1.66906 1.18337 0
M  V30 1418 H 140.982 1.88064 3.62072 0
M  V30 1419 H 139.657 2.86237 3.0173 0
M  V30 1420 H 138.234 1.11287 3.55907 0
M  V30 1421 N 140.419 -1.14872 1.07899 0
M  V30 1422 C 141.382 -2.17986 0.708161 0
M  V30 1423 C 142.382 -1.58775 -0.25442 0
M  V30 1424 O 143.572 -1.74166 -0.034645 0
M  V30 1425 C 140.704 -3.40871 0.0446929 0
M  V30 1426 H 141.897 -2.52306 1.62116 0
M  V30 1427 H 139.45 -1.2943 0.876218 0
M  V30 1428 H 140.185 -3.12124 -0.880281 0
M  V30 1429 H 139.97 -3.8511 0.737091 0
M  V30 1430 H 141.46 -4.17121 -0.19991 0
M  V30 1431 N 141.898 -0.863906 -1.31812 0
M  V30 1432 C 143.175 -0.39275 -1.91616 0
M  V30 1433 C 143.555 1.12461 -1.7865 0
M  V30 1434 O 142.903 1.95045 -1.19037 0
M  V30 1435 C 143.113 -0.867385 -3.38049 0
M  V30 1436 C 144.461 -0.889966 -4.15168 0
M  V30 1437 O 145.485 -0.812635 -3.46806 0
M  V30 1438 O 144.344 -1.00079 -5.37258 0
M  V30 1439 H 141.438 -0.116358 -0.818773 0
M  V30 1440 H 143.984 -0.951418 -1.40521 0
M  V30 1441 H 142.756 -1.91081 -3.41473 0
M  V30 1442 H 142.379 -0.286687 -3.96565 0
M  V30 1443 N 143.376 1.44774 -0.622745 0
M  V30 1444 C 144.324 2.32387 0.0994683 0
M  V30 1445 C 145.318 1.46859 0.844326 0
M  V30 1446 O 146.524 1.63254 0.758174 0
M  V30 1447 H 142.899 0.750273 0.0509291 0
M  V30 1448 H 144.87 2.91062 -0.65767 0
M  V30 1449 C 143.619 3.30723 1.07319 0
M  V30 1450 H 142.942 3.96541 0.509462 0
M  V30 1451 H 144.382 3.94725 1.54817 0
M  V30 1452 C 142.841 2.59021 2.15429 0
M  V30 1453 O 143.371 2.38286 3.23393 0
M  V30 1454 N 141.577 2.189 1.91131 0
M  V30 1455 H 141.124 2.35964 1.03337 0
M  V30 1456 H 141.082 1.71251 2.63668 0
M  V30 1457 N 144.854 0.36279 1.53368 0
M  V30 1458 C 146.084 -0.228281 2.05335 0
M  V30 1459 C 146.492 -1.43226 1.23625 0
M  V30 1460 O 145.835 -1.81717 0.269206 0
M  V30 1461 C 145.897 -0.688549 3.52845 0
M  V30 1462 C 145.561 0.398362 4.5526 0
M  V30 1463 C 146.558 1.24732 5.04716 0
M  V30 1464 C 144.243 0.557805 4.99193 0
M  V30 1465 C 146.237 2.2411 5.96702 0
M  V30 1466 C 143.924 1.55495 5.90986 0
M  V30 1467 C 144.922 2.39503 6.39631 0
M  V30 1468 O 144.61 3.37517 7.29615 0
M  V30 1469 H 144.342 -0.044395 0.674541 0
M  V30 1470 H 146.896 0.518668 1.98744 0
M  V30 1471 H 145.126 -1.48706 3.56964 0
M  V30 1472 H 146.815 -1.20231 3.87685 0
M  V30 1473 H 147.581 1.13532 4.71525 0
M  V30 1474 H 143.46 -0.0862959 4.60919 0
M  V30 1475 H 147.004 2.89718 6.34594 0
M  V30 1476 H 142.901 1.66744 6.23592 0
M  V30 1477 H 143.669 3.33213 7.47604 0
M  V30 1478 N 146.332 -1.57332 0.0918853 0
M  V30 1479 C 147.56 -1.98574 -0.581048 0
M  V30 1480 C 147.975 -0.970903 -1.61923 0
M  V30 1481 O 147.332 0.0399054 -1.82456 0
M  V30 1482 C 147.383 -3.39872 -1.23164 0
M  V30 1483 O 147.104 -4.37469 -0.234989 0
M  V30 1484 C 148.605 -3.96099 -1.99049 0
M  V30 1485 H 145.825 -0.65261 -0.156018 0
M  V30 1486 H 148.369 -2.0379 0.170225 0
M  V30 1487 H 146.524 -3.35679 -1.93386 0
M  V30 1488 H 146.938 -5.19751 -0.70418 0
M  V30 1489 H 148.412 -4.97127 -2.39934 0
M  V30 1490 H 148.889 -3.3374 -2.85507 0
M  V30 1491 H 149.495 -4.03755 -1.3365 0
M  V30 1492 N 147.81 0.181792 -1.56548 0
M  V30 1493 C 148.74 1.22765 -1.98623 0
M  V30 1494 C 149.721 1.46747 -0.860189 0
M  V30 1495 O 150.906 1.58259 -1.12551 0
M  V30 1496 C 148.036 2.56894 -2.33715 0
M  V30 1497 C 146.99 2.475 -3.49182 0
M  V30 1498 C 146.316 3.86023 -3.69986 0
M  V30 1499 C 147.616 1.98866 -4.82959 0
M  V30 1500 H 149.31 0.877942 -2.86239 0
M  V30 1501 H 146.856 0.42088 -1.37712 0
M  V30 1502 H 148.809 3.30253 -2.61746 0
M  V30 1503 H 147.533 2.93632 -1.42997 0
M  V30 1504 H 146.192 1.76596 -3.21262 0
M  V30 1505 H 145.84 4.20136 -2.76576 0
M  V30 1506 H 145.54 3.80609 -4.47672 0
M  V30 1507 H 147.064 4.60984 -4.00407 0
M  V30 1508 H 148.478 2.61992 -5.09934 0
M  V30 1509 H 146.875 2.04424 -5.64208 0
M  V30 1510 H 147.945 0.942465 -4.75653 0
M  V30 1511 N 149.288 1.51039 0.449983 0
M  V30 1512 C 150.565 1.53612 1.21089 0
M  V30 1513 C 150.945 0.292997 2.09057 0
M  V30 1514 O 150.293 -0.72259 2.16774 0
M  V30 1515 C 150.503 2.84337 2.0237 0
M  V30 1516 C 151.851 3.35807 2.59843 0
M  V30 1517 O 152.875 2.85802 2.12593 0
M  V30 1518 O 151.734 4.23029 3.45989 0
M  V30 1519 H 148.828 0.617057 0.550608 0
M  V30 1520 H 151.374 1.63344 0.460082 0
M  V30 1521 H 150.146 3.66278 1.37681 0
M  V30 1522 H 149.769 2.77708 2.84542 0
M  V30 1523 N 150.766 -0.704594 1.40972 0
M  V30 1524 C 151.696 -1.83124 1.44872 0
M  V30 1525 C 152.677 -1.67281 0.30838 0
M  V30 1526 O 153.862 -1.87149 0.518556 0
M  V30 1527 C 150.992 -3.21181 1.32136 0
M  V30 1528 C 149.946 -3.51714 2.43888 0
M  V30 1529 C 149.272 -4.89032 2.16222 0
M  V30 1530 C 150.572 -3.516 3.86232 0
M  V30 1531 H 152.266 -1.80117 2.39161 0
M  V30 1532 H 149.812 -0.865145 1.15114 0
M  V30 1533 H 151.765 -3.99702 1.33479 0
M  V30 1534 H 150.489 -3.24791 0.343279 0
M  V30 1535 H 149.148 -2.75539 2.41813 0
M  V30 1536 H 148.796 -4.89256 1.16778 0
M  V30 1537 H 148.496 -5.10426 2.911 0
M  V30 1538 H 150.02 -5.69873 2.19265 0
M  V30 1539 H 151.434 -4.2014 3.9007 0
M  V30 1540 H 149.831 -3.84523 4.60719 0
M  V30 1541 H 150.901 -2.50757 4.15029 0
M  V30 1542 N 152.244 -1.26651 -0.937939 0
M  V30 1543 C 153.49 -1.13562 -1.68746 0
M  V30 1544 C 153.845 0.317241 -1.89767 0
M  V30 1545 O 153.138 1.22939 -1.46957 0
M  V30 1546 C 153.332 -1.84168 -3.06295 0
M  V30 1547 C 153.161 -3.36171 -2.98696 0
M  V30 1548 C 151.931 -4.05468 -3.01535 0
M  V30 1549 C 154.129 -4.32312 -2.78588 0
M  V30 1550 N 152.111 -5.44118 -2.84269 0
M  V30 1551 C 153.482 -5.58159 -2.69924 0
M  V30 1552 C 155.537 -4.22524 -2.63396 0
M  V30 1553 C 154.24 -6.75335 -2.47618 0
M  V30 1554 C 156.266 -5.39411 -2.42466 0
M  V30 1555 C 155.628 -6.64208 -2.34536 0
M  V30 1556 H 151.727 -0.470361 -0.624728 0
M  V30 1557 H 154.311 -1.59982 -1.10968 0
M  V30 1558 H 152.482 -1.40219 -3.62206 0
M  V30 1559 H 154.214 -1.63674 -3.70126 0
M  V30 1560 H 150.969 -3.56854 -3.11372 0
M  V30 1561 H 151.393 -6.1693 -2.78795 0
M  V30 1562 H 156.035 -3.26771 -2.68292 0
M  V30 1563 H 153.753 -7.71182 -2.41463 0
M  V30 1564 H 157.339 -5.33711 -2.31611 0
M  V30 1565 H 156.219 -7.53129 -2.18555 0
M  V30 1566 N 153.722 1.14298 -1.08507 0
M  V30 1567 C 154.685 2.17607 -0.719711 0
M  V30 1568 C 155.685 1.58907 0.245997 0
M  V30 1569 O 156.875 1.74181 0.0254081 0
M  V30 1570 C 154.007 3.40842 -0.0627695 0
M  V30 1571 H 155.2 2.51443 -1.63452 0
M  V30 1572 H 152.753 1.28963 -0.88307 0
M  V30 1573 H 153.488 3.12587 0.863716 0
M  V30 1574 H 153.273 3.84713 -0.757504 0
M  V30 1575 H 154.763 4.17221 0.177786 0
M  V30 1576 N 155.201 0.870884 1.31352 0
M  V30 1577 C 156.449 0.48132 1.96285 0
M  V30 1578 C 156.77 -0.969813 1.69173 0
M  V30 1579 O 156.04 -1.67998 1.00764 0
M  V30 1580 H 154.62 0.175002 0.726212 0
M  V30 1581 H 157.282 1.11087 1.60143 0
M  V30 1582 H 156.378 0.639825 3.05471 0
M  V30 1583 N 156.679 -1.44442 0.630414 0
M  V30 1584 C 157.611 -2.2892 -0.113347 0
M  V30 1585 C 158.624 -1.41243 -0.80959 0
M  V30 1586 O 159.813 -1.65402 -0.671156 0
M  V30 1587 C 156.913 -3.17594 -1.18266 0
M  V30 1588 C 156.086 -4.33682 -0.569073 0
M  V30 1589 C 155.145 -5.03397 -1.53226 0
M  V30 1590 O 154.171 -5.59438 -1.04967 0
M  V30 1591 N 155.373 -5.04783 -2.86661 0
M  V30 1592 H 158.138 -2.93392 0.611636 0
M  V30 1593 H 155.699 -1.54881 0.471523 0
M  V30 1594 H 157.691 -3.61097 -1.82732 0
M  V30 1595 H 156.261 -2.54876 -1.80988 0
M  V30 1596 H 155.481 -3.9338 0.254187 0
M  V30 1597 H 156.769 -5.08608 -0.139767 0
M  V30 1598 H 156.167 -4.60584 -3.28449 0
M  V30 1599 H 154.724 -5.52077 -3.46489 0
M  V30 1600 N 158.157 -0.370918 -1.53173 0
M  V30 1601 C 159.089 0.507823 -2.23503 0
M  V30 1602 C 160.102 1.04182 -1.251 0
M  V30 1603 O 161.291 0.947286 -1.5129 0
M  V30 1604 C 158.391 1.71447 -2.92334 0
M  V30 1605 C 157.564 1.31105 -4.17289 0
M  V30 1606 C 156.623 2.38035 -4.69282 0
M  V30 1607 O 155.649 2.00204 -5.32829 0
M  V30 1608 N 156.851 3.69697 -4.47554 0
M  V30 1609 H 159.616 -0.0946382 -2.99551 0
M  V30 1610 H 157.177 -0.196358 -1.60705 0
M  V30 1611 H 159.169 2.42469 -3.24023 0
M  V30 1612 H 157.739 2.22368 -2.19707 0
M  V30 1613 H 156.959 0.430462 -3.91843 0
M  V30 1614 H 158.247 1.0179 -4.98514 0
M  V30 1615 H 157.645 4.03205 -3.9679 0
M  V30 1616 H 156.202 4.36807 -4.8378 0
M  V30 1617 N 159.635 1.57281 -0.100228 0
M  V30 1618 C 160.565 2.17328 0.853857 0
M  V30 1619 C 161.546 1.10804 1.2906 0
M  V30 1620 O 162.731 1.38963 1.35657 0
M  V30 1621 C 159.861 2.75772 2.11109 0
M  V30 1622 C 158.815 3.87713 1.81279 0
M  V30 1623 C 158.141 4.32882 3.13874 0
M  V30 1624 C 159.441 5.10677 1.09574 0
M  V30 1625 H 161.135 2.97305 0.353545 0
M  V30 1626 H 158.681 1.43009 0.168612 0
M  V30 1627 H 160.634 3.16433 2.78296 0
M  V30 1628 H 159.358 1.93057 2.63432 0
M  V30 1629 H 158.017 3.476 1.16489 0
M  V30 1630 H 157.665 3.47051 3.64095 0
M  V30 1631 H 157.365 5.08358 2.94696 0
M  V30 1632 H 158.889 4.7618 3.82211 0
M  V30 1633 H 160.303 5.48474 1.66879 0
M  V30 1634 H 158.7 5.91615 1.00557 0
M  V30 1635 H 159.77 4.84835 0.0793299 0
M  V30 1636 N 161.113 -0.173488 1.56642 0
M  V30 1637 C 162.043 -1.2171 1.99271 0
M  V30 1638 C 163.024 -1.46289 0.867959 0
M  V30 1639 O 164.209 -1.5766 1.13388 0
M  V30 1640 C 161.339 -2.55651 2.35074 0
M  V30 1641 C 160.293 -2.45645 3.50489 0
M  V30 1642 C 159.619 -3.84056 3.72028 0
M  V30 1643 C 160.919 -1.96302 4.84007 0
M  V30 1644 H 162.613 -0.86275 2.867 0
M  V30 1645 H 160.159 -0.413571 1.37933 0
M  V30 1646 H 162.112 -3.2886 2.63494 0
M  V30 1647 H 160.836 -2.92869 1.44552 0
M  V30 1648 H 159.495 -1.7489 3.22194 0
M  V30 1649 H 159.143 -4.18664 2.788 0
M  V30 1650 H 158.843 -3.7823 4.49684 0
M  V30 1651 H 160.367 -4.58854 4.02846 0
M  V30 1652 H 161.781 -2.59284 5.11317 0
M  V30 1653 H 160.178 -2.01429 5.65284 0
M  V30 1654 H 161.248 -0.917226 4.76146 0
M  V30 1655 N 162.591 -1.51276 -0.441967 0
M  V30 1656 C 163.837 -1.6492 -1.1905 0
M  V30 1657 C 164.192 -0.358731 -1.89026 0
M  V30 1658 O 163.485 0.645193 -1.8041 0
M  V30 1659 C 163.679 -2.78746 -2.23686 0
M  V30 1660 C 163.508 -4.18737 -1.63979 0
M  V30 1661 C 162.278 -4.84739 -1.42674 0
M  V30 1662 C 164.476 -5.01988 -1.11858 0
M  V30 1663 N 162.458 -6.08858 -0.785159 0
M  V30 1664 C 163.829 -6.17071 -0.601989 0
M  V30 1665 C 165.884 -4.87551 -1.0099 0
M  V30 1666 C 164.587 -7.19299 0.0126012 0
M  V30 1667 C 166.613 -5.89983 -0.409206 0
M  V30 1668 C 165.975 -7.04333 0.0968651 0
M  V30 1669 H 162.074 -0.657416 -0.423471 0
M  V30 1670 H 164.658 -1.8849 -0.48782 0
M  V30 1671 H 162.829 -2.56848 -2.91348 0
M  V30 1672 H 164.561 -2.81595 -2.90666 0
M  V30 1673 H 161.316 -4.42528 -1.68719 0
M  V30 1674 H 161.74 -6.75282 -0.481942 0
M  V30 1675 H 166.382 -3.99401 -1.38703 0
M  V30 1676 H 164.1 -8.071 0.401879 0
M  V30 1677 H 167.686 -5.8088 -0.327079 0
M  V30 1678 H 166.566 -7.82238 0.554373 0
M  V30 1679 N 164.069 0.697108 -1.41344 0
M  V30 1680 C 165.016 1.81106 -1.43071 0
M  V30 1681 C 165.986 1.63632 -0.285275 0
M  V30 1682 O 167.171 1.84504 -0.486091 0
M  V30 1683 C 164.311 3.18975 -1.31715 0
M  V30 1684 C 163.424 3.47892 -2.56115 0
M  V30 1685 C 162.559 4.75367 -2.37064 0
M  V30 1686 C 161.598 4.97247 -3.56948 0
M  V30 1687 N 160.735 6.15947 -3.36977 0
M  V30 1688 H 165.575 1.78965 -2.38276 0
M  V30 1689 H 163.112 0.873975 -1.18322 0
M  V30 1690 H 165.07 3.98615 -1.23133 0
M  V30 1691 H 163.7 3.20297 -0.401183 0
M  V30 1692 H 162.752 2.62669 -2.75153 0
M  V30 1693 H 164.064 3.59962 -3.45295 0
M  V30 1694 H 163.218 5.63059 -2.25941 0
M  V30 1695 H 161.957 4.65541 -1.45338 0
M  V30 1696 H 160.962 4.08004 -3.68527 0
M  V30 1697 H 162.187 5.08934 -4.49626 0
M  V30 1698 H 160.133 6.07336 -2.47949 0
M  V30 1699 H 160.05 6.28777 -4.19732 0
M  V30 1700 H 161.318 7.06377 -3.29623 0
M  V30 1701 N 165.547 1.27147 0.931209 0
M  V30 1702 C 166.795 1.13055 1.6752 0
M  V30 1703 C 167.116 -0.324791 1.92276 0
M  V30 1704 O 166.386 -1.22775 1.52654 0
M  V30 1705 H 164.966 0.415391 0.620854 0
M  V30 1706 H 167.628 1.59623 1.11833 0
M  V30 1707 H 166.724 1.65694 2.64485 0
M  V30 1708 N 167.025 -1.13721 1.09112 0
M  V30 1709 C 168.25 -1.89314 0.847053 0
M  V30 1710 C 168.675 -1.78416 -0.595774 0
M  V30 1711 O 168.033 -1.12942 -1.41823 0
M  V30 1712 C 168.081 -3.3701 1.28284 0
M  V30 1713 O 167.185 -4.10054 0.439267 0
M  V30 1714 H 166.526 -0.588745 0.307044 0
M  V30 1715 H 169.056 -1.43902 1.45442 0
M  V30 1716 H 169.066 -3.87834 1.26683 0
M  V30 1717 H 167.741 -3.4426 2.33363 0
M  V30 1718 H 166.318 -3.69266 0.519312 0
M  V30 1719 N 168.503 -0.877838 -1.30888 0
M  V30 1720 C 169.75 -0.492696 -1.96415 0
M  V30 1721 C 170.078 0.956671 -1.69346 0
M  V30 1722 O 169.333 1.68993 -0.986913 0
M  V30 1723 C 169.632 -0.705748 -3.50363 0
M  V30 1724 C 169.298 -2.1291 -3.97467 0
M  V30 1725 C 167.96 -2.51834 -4.1004 0
M  V30 1726 C 170.312 -3.05702 -4.22132 0
M  V30 1727 C 167.64 -3.82775 -4.44635 0
M  V30 1728 C 169.992 -4.36166 -4.58194 0
M  V30 1729 C 168.656 -4.74993 -4.68975 0
M  V30 1730 H 167.926 -0.18029 -0.718733 0
M  V30 1731 H 170.573 -1.11233 -1.55883 0
M  V30 1732 H 168.878 -0.00303058 -3.918 0
M  V30 1733 H 170.575 -0.387456 -3.99124 0
M  V30 1734 H 167.165 -1.81694 -3.88182 0
M  V30 1735 H 171.349 -2.76853 -4.11906 0
M  V30 1736 H 166.605 -4.12609 -4.51181 0
M  V30 1737 H 170.779 -5.08111 -4.76231 0
M  V30 1738 H 168.406 -5.76495 -4.95537 0
M  V30 1739 N 169.982 1.44106 -0.638065 0
M  V30 1740 C 170.929 2.30715 0.062701 0
M  V30 1741 C 171.899 1.43882 0.829883 0
M  V30 1742 O 173.084 1.72775 0.809532 0
M  V30 1743 C 170.224 3.29258 1.03358 0
M  V30 1744 C 169.337 4.31192 0.26409 0
M  V30 1745 C 168.472 5.16825 1.22741 0
M  V30 1746 C 167.511 6.10462 0.447475 0
M  V30 1747 N 166.648 6.8877 1.36161 0
M  V30 1748 H 171.488 2.90096 -0.681781 0
M  V30 1749 H 169.025 1.42925 -0.347988 0
M  V30 1750 H 170.983 3.84886 1.60992 0
M  V30 1751 H 169.613 2.71562 1.74511 0
M  V30 1752 H 168.665 3.77981 -0.428295 0
M  V30 1753 H 169.977 4.97619 -0.343052 0
M  V30 1754 H 169.131 5.77004 1.87487 0
M  V30 1755 H 167.87 4.50488 1.86847 0
M  V30 1756 H 166.875 5.49386 -0.213433 0
M  V30 1757 H 168.1 6.78837 -0.188968 0
M  V30 1758 H 166.046 6.25096 1.98975 0
M  V30 1759 H 165.963 7.51663 0.808656 0
M  V30 1760 H 167.231 7.53467 1.99769 0
M  V30 1761 N 171.46 0.379036 1.52974 0
M  V30 1762 C 172.871 -0.0972525 1.86447 0
M  V30 1763 C 173.222 -1.47027 1.29914 0
M  V30 1764 O 172.347 -2.07135 0.626433 0
M  V30 1765 C 172.942 -0.183248 3.38304 0
M  V30 1766 C 171.501 -0.603812 3.71525 0
M  V30 1767 C 170.648 0.240632 2.76254 0
M  V30 1768 H 173.599 0.597316 1.4703 0
M  V30 1769 H 173.62 -1.00432 3.67006 0
M  V30 1770 H 173.132 0.816191 3.79421 0
M  V30 1771 H 171.233 -1.61099 3.35973 0
M  V30 1772 H 171.346 -0.369086 4.77676 0
M  V30 1773 H 169.71 -0.292548 2.53014 0
M  V30 1774 H 170.493 1.23786 3.20206 0
M  V30 1775 N 172.938 -1.57226 0.108567 0
M  V30 1776 C 174.163 -1.99604 -0.563303 0
M  V30 1777 C 174.588 -0.987563 -1.6009 0
M  V30 1778 O 173.946 0.0421687 -1.81251 0
M  V30 1779 C 173.994 -3.40902 -1.17552 0
M  V30 1780 O 173.098 -3.42896 -2.2912 0
M  V30 1781 H 172.439 -0.648704 -0.1417 0
M  V30 1782 H 174.969 -2.03679 0.193961 0
M  V30 1783 H 174.979 -3.78886 -1.51357 0
M  V30 1784 H 173.654 -4.1382 -0.415445 0
M  V30 1785 H 172.231 -3.1672 -1.96832 0
M  V30 1786 N 174.416 0.165178 -1.56732 0
M  V30 1787 C 175.326 1.22423 -2.00125 0
M  V30 1788 C 176.342 1.48084 -0.913619 0
M  V30 1789 O 177.518 1.60112 -1.22172 0
M  V30 1790 C 174.583 2.54197 -2.35764 0
M  V30 1791 C 173.644 2.36343 -3.58386 0
M  V30 1792 C 172.877 3.61834 -3.92316 0
M  V30 1793 O 173.1 4.67267 -3.27135 0
M  V30 1794 O 172.034 3.55579 -4.85641 0
M  V30 1795 H 175.86 0.885886 -2.90492 0
M  V30 1796 H 173.445 0.372518 -1.44681 0
M  V30 1797 H 175.327 3.3192 -2.59629 0
M  V30 1798 H 174.002 2.87598 -1.48557 0
M  V30 1799 H 172.909 1.56632 -3.39731 0
M  V30 1800 H 174.242 2.07865 -4.46154 0
M  V30 1801 N 175.894 1.51508 0.433938 0
M  V30 1802 C 176.844 1.69451 1.52546 0
M  V30 1803 C 177.828 0.548474 1.51263 0
M  V30 1804 O 179.02 0.804529 1.57659 0
M  V30 1805 C 176.149 1.82604 2.90707 0
M  V30 1806 C 175.235 3.03002 2.96733 0
M  V30 1807 N 175.626 4.26121 2.72496 0
M  V30 1808 C 173.924 3.02327 3.27894 0
M  V30 1809 C 174.625 5.07407 2.84452 0
M  V30 1810 N 173.601 4.42126 3.16269 0
M  V30 1811 H 177.403 2.62305 1.32564 0
M  V30 1812 H 174.917 1.49202 0.641297 0
M  V30 1813 H 176.914 1.93569 3.69238 0
M  V30 1814 H 175.574 0.909339 3.11707 0
M  V30 1815 H 176.585 4.55009 2.4736 0
M  V30 1816 H 173.262 2.20301 3.54646 0
M  V30 1817 H 174.652 6.15422 2.69639 0
M  V30 1818 N 177.372 -0.689602 1.41712 0
M  V30 1819 C 178.618 -1.45181 1.41599 0
M  V30 1820 C 178.951 -1.94181 0.0270081 0
M  V30 1821 O 178.226 -1.6993 -0.946265 0
M  V30 1822 C 178.509 -2.65945 2.42787 0
M  V30 1823 C 178.362 -2.22672 3.90816 0
M  V30 1824 C 179.681 -3.68149 2.41151 0
M  V30 1825 H 176.8 -0.526576 0.515642 0
M  V30 1826 H 179.442 -0.784947 1.73028 0
M  V30 1827 H 177.592 -3.2284 2.16116 0
M  V30 1828 H 179.264 -1.71058 4.28412 0
M  V30 1829 H 177.507 -1.54394 4.05395 0
M  V30 1830 H 178.178 -3.0935 4.57172 0
M  V30 1831 H 180.654 -3.2094 2.64834 0
M  V30 1832 H 179.53 -4.50248 3.13955 0
M  V30 1833 H 179.791 -4.18259 1.43221 0
M  V30 1834 N 178.85 -1.27639 -0.924453 0
M  V30 1835 C 179.797 -1.10644 -2.0255 0
M  V30 1836 C 180.767 -0.00658438 -1.66099 0
M  V30 1837 O 181.952 -0.16952 -1.90045 0
M  V30 1838 C 179.092 -0.76309 -3.36557 0
M  V30 1839 C 178.205 -1.94091 -3.85944 0
M  V30 1840 C 177.34 -1.53914 -5.08413 0
M  V30 1841 C 176.379 -2.68425 -5.50104 0
M  V30 1842 N 175.516 -2.28815 -6.63768 0
M  V30 1843 H 180.356 -2.04858 -2.16419 0
M  V30 1844 H 177.893 -1.01974 -1.06017 0
M  V30 1845 H 179.851 -0.544822 -4.13627 0
M  V30 1846 H 178.481 0.142102 -3.22487 0
M  V30 1847 H 177.533 -2.27162 -3.05125 0
M  V30 1848 H 178.845 -2.7998 -4.12811 0
M  V30 1849 H 177.999 -1.28231 -5.92994 0
M  V30 1850 H 176.738 -0.651391 -4.8333 0
M  V30 1851 H 175.743 -2.94819 -4.64071 0
M  V30 1852 H 176.968 -3.57826 -5.7718 0
M  V30 1853 H 174.914 -1.42495 -6.40337 0
M  V30 1854 H 174.831 -3.08242 -6.90306 0
M  V30 1855 H 176.099 -2.06387 -7.51681 0
M  V30 1856 N 180.328 1.1314 -1.09713 0
M  V30 1857 C 181.739 1.66029 -0.853885 0
M  V30 1858 C 182.09 1.86241 0.617142 0
M  V30 1859 O 181.215 1.5834 1.47503 0
M  V30 1860 C 181.81 3.01599 -1.5435 0
M  V30 1861 C 180.369 3.51467 -1.34714 0
M  V30 1862 C 179.516 2.26648 -1.59769 0
M  V30 1863 H 182.467 0.970226 -1.25588 0
M  V30 1864 H 182.488 3.67709 -0.978267 0
M  V30 1865 H 182 2.86856 -2.6141 0
M  V30 1866 H 180.101 3.71408 -0.297838 0
M  V30 1867 H 180.214 4.314 -2.08401 0
M  V30 1868 H 178.578 2.33385 -1.01998 0
M  V30 1869 H 179.361 2.14467 -2.68065 0
M  V30 1870 N 181.806 0.884767 1.30421 0
M  V30 1871 C 183.222 0.57874 1.48737 0
M  V30 1872 C 183.422 -0.883567 1.81095 0
M  V30 1873 O 182.478 -1.6648 1.89844 0
M  V30 1874 C 183.791 1.49171 2.61091 0
M  V30 1875 C 185.339 1.49532 2.74971 0
M  V30 1876 C 185.814 2.39421 3.90438 0
M  V30 1877 N 187.305 2.37383 3.97748 0
M  V30 1878 C 188.04 3.03647 4.86401 0
M  V30 1879 N 187.536 3.79136 5.79852 0
M  V30 1880 N 189.329 2.9288 4.79768 0
M  V30 1881 H 181.48 1.83075 1.0769 0
M  V30 1882 H 183.743 0.783637 0.533495 0
M  V30 1883 H 183.449 2.53291 2.44001 0
M  V30 1884 H 183.323 1.20113 3.57565 0
M  V30 1885 H 185.71 0.46163 2.91467 0
M  V30 1886 H 185.791 1.8262 1.79119 0
M  V30 1887 H 185.435 3.42874 3.74699 0
M  V30 1888 H 185.365 2.03649 4.85628 0
M  V30 1889 H 187.856 1.82525 3.30897 0
M  V30 1890 H 188.169 4.26789 6.4426 0
M  V30 1891 H 186.514 3.83243 5.79784 0
M  V30 1892 H 189.705 2.33433 4.05742 0
M  V30 1893 H 189.878 3.448 5.4865 0
M  V30 1894 N 183.284 -1.43765 0.645699 0
M  V30 1895 C 184.247 -2.29163 -0.0409488 0
M  V30 1896 C 185.247 -1.41813 -0.757996 0
M  V30 1897 O 186.437 -1.63527 -0.600382 0
M  V30 1898 C 183.569 -3.23716 -1.06869 0
M  V30 1899 H 184.762 -2.91366 0.710345 0
M  V30 1900 H 182.315 -1.5092 0.406547 0
M  V30 1901 H 183.05 -2.66393 -1.84947 0
M  V30 1902 H 182.835 -3.88105 -0.558277 0
M  V30 1903 H 184.325 -3.87831 -1.54845 0
M  V30 1904 N 184.763 -0.387143 -1.52771 0
M  V30 1905 C 186.174 0.0873634 -1.86495 0
M  V30 1906 C 186.525 1.46336 -1.30691 0
M  V30 1907 O 185.65 2.068 -0.637409 0
M  V30 1908 C 186.245 0.165305 -3.38396 0
M  V30 1909 C 184.804 0.584101 -3.7184 0
M  V30 1910 C 183.951 -0.255279 -2.76122 0
M  V30 1911 H 186.902 -0.605104 -1.46711 0
M  V30 1912 H 186.923 0.984848 -3.67534 0
M  V30 1913 H 186.435 -0.836301 -3.78982 0
M  V30 1914 H 184.536 1.59315 -3.36823 0
M  V30 1915 H 184.649 0.343749 -4.77865 0
M  V30 1916 H 183.013 0.279126 -2.53166 0
M  V30 1917 H 183.796 -1.25482 -3.19545 0
M  V30 1918 N 186.241 1.57166 -0.116904 0
M  V30 1919 C 187.489 1.94737 0.540533 0
M  V30 1920 C 187.81 1.00096 1.67349 0
M  V30 1921 O 187.08 0.0568854 1.95817 0
M  V30 1922 H 185.66 0.718981 0.202669 0
M  V30 1923 H 188.322 1.94017 -0.185353 0
M  V30 1924 H 187.418 2.97719 0.936483 0
M  V30 1925 N 187.719 -0.156864 1.56817 0
M  V30 1926 C 188.667 -1.21319 1.98455 0
M  V30 1927 C 189.661 -1.45025 0.875444 0
M  V30 1928 O 190.867 -1.45435 1.0606 0
M  V30 1929 H 187.242 -0.408142 0.631605 0
M  V30 1930 H 189.213 -0.835244 2.86472 0
M  V30 1931 C 187.962 -2.54148 2.37285 0
M  V30 1932 H 187.285 -2.36733 3.22176 0
M  V30 1933 H 188.725 -3.26712 2.70251 0
M  V30 1934 C 187.184 -3.13967 1.22173 0
M  V30 1935 O 187.714 -3.98357 0.517149 0
M  V30 1936 N 185.92 -2.7327 0.988536 0
M  V30 1937 H 185.467 -2.04744 1.56326 0
M  V30 1938 H 185.425 -3.13628 0.220209 0
M  V30 1939 N 189.197 -1.51736 -0.425897 0
M  V30 1940 C 190.127 -1.76827 -1.52494 0
M  V30 1941 C 191.108 -0.618524 -1.58456 0
M  V30 1942 O 192.293 -0.862416 -1.74 0
M  V30 1943 C 189.423 -1.90374 -2.90474 0
M  V30 1944 C 188.377 -3.0588 -2.99369 0
M  V30 1945 C 187.703 -3.04625 -4.3944 0
M  V30 1946 C 189.003 -4.45644 -2.72394 0
M  V30 1947 H 190.697 -2.68855 -1.31748 0
M  V30 1948 H 188.243 -1.29372 -0.632362 0
M  V30 1949 H 190.196 -2.0651 -3.6733 0
M  V30 1950 H 188.92 -0.95004 -3.12477 0
M  V30 1951 H 187.579 -2.89467 -2.24954 0
M  V30 1952 H 187.227 -2.0701 -4.58428 0
M  V30 1953 H 186.927 -3.82195 -4.46319 0
M  V30 1954 H 188.451 -3.22869 -5.18255 0
M  V30 1955 H 189.865 -4.62348 -3.38979 0
M  V30 1956 H 188.262 -5.25006 -2.9067 0
M  V30 1957 H 189.332 -4.54893 -1.67929 0
M  V30 1958 N 190.675 0.682077 -1.42076 0
M  V30 1959 C 191.903 1.47057 -1.4554 0
M  V30 1960 C 192.318 1.8869 -0.0645779 0
M  V30 1961 O 191.675 1.57666 0.919115 0
M  V30 1962 C 191.726 2.72442 -2.37609 0
M  V30 1963 O 191.447 2.32559 -3.71279 0
M  V30 1964 C 192.948 3.66069 -2.50017 0
M  V30 1965 H 190.168 0.452737 -0.495248 0
M  V30 1966 H 192.712 0.838695 -1.8651 0
M  V30 1967 H 190.867 3.31835 -1.9991 0
M  V30 1968 H 191.281 3.13475 -4.20516 0
M  V30 1969 H 192.755 4.50792 -3.18576 0
M  V30 1970 H 193.232 4.11476 -1.53572 0
M  V30 1971 H 193.838 3.12572 -2.88407 0
M  V30 1972 N 192.153 1.28127 0.917671 0
M  V30 1973 C 193.399 1.15223 1.66888 0
M  V30 1974 C 193.732 -0.299293 1.9188 0
M  V30 1975 O 193.007 -1.21805 1.51637 0
M  V30 1976 C 193.29 1.94706 3.02922 0
M  V30 1977 C 193.143 3.47898 2.85109 0
M  V30 1978 C 194.462 1.75939 4.03402 0
M  V30 1979 H 191.581 0.419946 0.605652 0
M  V30 1980 H 194.223 1.57398 1.06423 0
M  V30 1981 H 192.373 1.58864 3.54534 0
M  V30 1982 H 194.045 3.93624 2.40537 0
M  V30 1983 H 192.288 3.7373 2.20246 0
M  V30 1984 H 192.959 3.98765 3.81694 0
M  V30 1985 H 195.435 2.07209 3.60837 0
M  V30 1986 H 194.311 2.33931 4.96556 0
M  V30 1987 H 194.572 0.709877 4.36364 0
M  V30 1988 N 193.631 -1.12557 1.10312 0
M  V30 1989 C 194.581 -2.16331 0.720076 0
M  V30 1990 C 195.565 -1.58616 -0.270115 0
M  V30 1991 O 196.757 -1.76823 -0.0790507 0
M  V30 1992 C 193.886 -3.42963 0.152113 0
M  V30 1993 C 192.972 -4.07663 1.16927 0
M  V30 1994 N 193.363 -4.47392 2.35953 0
M  V30 1995 C 191.661 -4.34425 1.0095 0
M  V30 1996 C 192.362 -4.97932 3.0073 0
M  V30 1997 N 191.338 -4.93358 2.28252 0
M  V30 1998 H 195.14 -2.44813 1.62616 0
M  V30 1999 H 192.654 -1.29449 0.980654 0
M  V30 2000 H 194.651 -4.16664 -0.14037 0
M  V30 2001 H 193.311 -3.1595 -0.748701 0
M  V30 2002 H 194.322 -4.39802 2.73486 0
M  V30 2003 H 190.999 -4.17177 0.164134 0
M  V30 2004 H 192.389 -5.38397 4.01969 0
M  V30 2005 N 195.109 -0.891671 -1.2995 0
M  V30 2006 C 196.337 -0.52866 -2.00032 0
M  V30 2007 C 196.752 0.884574 -1.66795 0
M  V30 2008 O 196.109 1.5827 -0.908669 0
M  V30 2009 C 196.16 -0.701814 -3.54622 0
M  V30 2010 O 195.881 -2.05942 -3.86678 0
M  V30 2011 C 197.382 -0.342683 -4.41973 0
M  V30 2012 H 194.602 -0.203659 -0.639347 0
M  V30 2013 H 197.146 -1.19881 -1.65677 0
M  V30 2014 H 195.301 -0.0789468 -3.8732 0
M  V30 2015 H 195.715 -2.08291 -4.81368 0
M  V30 2016 H 197.189 -0.514709 -5.49595 0
M  V30 2017 H 197.666 0.71975 -4.33262 0
M  V30 2018 H 198.272 -0.942154 -4.14733 0
M  V30 2019 N 196.587 1.43421 -0.653314 0
M  V30 2020 C 197.535 2.32546 0.0501531 0
M  V30 2021 C 198.529 1.48617 0.812985 0
M  V30 2022 O 199.735 1.64825 0.723375 0
M  V30 2023 H 196.11 0.751185 0.0350032 0
M  V30 2024 H 198.081 2.89602 -0.719261 0
M  V30 2025 C 196.83 3.32925 1.00279 0
M  V30 2026 H 196.153 3.97532 0.425236 0
M  V30 2027 H 197.593 3.9792 1.46409 0
M  V30 2028 C 196.052 2.63532 2.09886 0
M  V30 2029 O 196.582 2.45092 3.18265 0
M  V30 2030 N 194.788 2.22905 1.86445 0
M  V30 2031 H 194.335 2.38103 0.98309 0
M  V30 2032 H 194.293 1.76805 2.59976 0
M  V30 2033 N 198.065 0.39524 1.52563 0
M  V30 2034 C 199.311 -0.185318 2.01952 0
M  V30 2035 C 199.644 -1.45964 1.28095 0
M  V30 2036 O 198.919 -1.90689 0.38315 0
M  V30 2037 C 199.202 -0.447193 3.57312 0
M  V30 2038 C 199.055 0.842828 4.41833 0
M  V30 2039 C 200.374 -1.23529 4.22408 0
M  V30 2040 H 197.493 -0.0658788 0.73405 0
M  V30 2041 H 200.135 0.525975 1.82575 0
M  V30 2042 H 198.285 -1.05312 3.73954 0
M  V30 2043 H 199.957 1.4795 4.36931 0
M  V30 2044 H 198.2 1.45686 4.08605 0
M  V30 2045 H 198.871 0.614165 5.48573 0
M  V30 2046 H 201.347 -0.722445 4.0978 0
M  V30 2047 H 200.223 -1.38727 5.3108 0
M  V30 2048 H 200.484 -2.25213 3.80436 0
M  V30 2049 N 199.544 -1.57102 0.125237 0
M  V30 2050 C 200.769 -2.0019 -0.542101 0
M  V30 2051 C 201.194 -1.00449 -1.59034 0
M  V30 2052 O 200.552 0.0229423 -1.81285 0
M  V30 2053 C 200.6 -3.42129 -1.13929 0
M  V30 2054 O 199.704 -3.45307 -2.2547 0
M  V30 2055 H 199.045 -0.650171 -0.134812 0
M  V30 2056 H 201.575 -2.03461 0.215553 0
M  V30 2057 H 201.585 -3.80471 -1.4733 0
M  V30 2058 H 200.26 -4.14237 -0.371531 0
M  V30 2059 H 198.837 -3.1879 -1.93462 0
M  V30 2060 N 201.022 0.148545 -1.56898 0
M  V30 2061 C 202.299 0.890019 -1.74178 0
M  V30 2062 C 202.679 1.99407 -0.692839 0
M  V30 2063 O 202.027 2.26671 0.288505 0
M  V30 2064 C 202.237 1.43389 -3.18183 0
M  V30 2065 C 203.585 1.89791 -3.79822 0
M  V30 2066 O 204.609 1.53134 -3.21603 0
M  V30 2067 O 203.468 2.57387 -4.82093 0
M  V30 2068 H 200.562 0.420496 -0.712118 0
M  V30 2069 H 203.108 0.134591 -1.69165 0
M  V30 2070 H 201.88 0.640383 -3.86024 0
M  V30 2071 H 201.503 2.25287 -3.27615 0
M  V30 2072 N 202.5 1.5196 0.417844 0
M  V30 2073 C 203.728 1.69426 1.18753 0
M  V30 2074 C 204.143 0.399955 1.84515 0
M  V30 2075 O 203.5 -0.623288 1.71527 0
M  V30 2076 C 203.551 2.82375 2.25714 0
M  V30 2077 O 203.272 4.06793 1.62638 0
M  V30 2078 C 204.773 3.11277 3.15628 0
M  V30 2079 H 201.993 0.568031 0.357186 0
M  V30 2080 H 204.537 1.98475 0.49273 0
M  V30 2081 H 202.692 2.5587 2.90877 0
M  V30 2082 H 203.106 4.69667 2.3348 0
M  V30 2083 H 204.58 3.93843 3.86771 0
M  V30 2084 H 205.057 2.24473 3.77503 0
M  V30 2085 H 205.663 3.39515 2.56144 0
M  V30 2086 N 203.978 -0.674533 1.42435 0
M  V30 2087 C 204.908 -1.80009 1.48724 0
M  V30 2088 C 205.889 -1.6659 0.343793 0
M  V30 2089 O 207.074 -1.86007 0.558137 0
M  V30 2090 C 204.204 -3.18306 1.38919 0
M  V30 2091 C 203.158 -3.46461 2.51294 0
M  V30 2092 C 202.484 -4.84335 2.26547 0
M  V30 2093 C 203.784 -3.43328 3.93603 0
M  V30 2094 H 205.478 -1.75004 2.42928 0
M  V30 2095 H 203.024 -0.840533 1.16923 0
M  V30 2096 H 204.977 -3.9678 1.41927 0
M  V30 2097 H 203.701 -3.2399 0.412094 0
M  V30 2098 H 202.36 -2.70348 2.47604 0
M  V30 2099 H 202.008 -4.86669 1.2713 0
M  V30 2100 H 201.708 -5.04136 3.01861 0
M  V30 2101 H 203.232 -5.65094 2.31304 0
M  V30 2102 H 204.646 -4.11772 3.98894 0
M  V30 2103 H 203.043 -3.74664 4.68771 0
M  V30 2104 H 204.113 -2.41897 4.20255 0
M  V30 2105 N 205.456 -1.28612 -0.910864 0
M  V30 2106 C 206.386 -1.15326 -2.03032 0
M  V30 2107 C 207.367 -0.0502924 -1.70026 0
M  V30 2108 O 208.552 -0.227797 -1.92859 0
M  V30 2109 C 205.682 -0.817343 -3.37545 0
M  V30 2110 C 204.636 -1.8754 -3.84724 0
M  V30 2111 C 203.962 -1.39305 -5.16235 0
M  V30 2112 C 205.262 -3.28244 -4.06267 0
M  V30 2113 H 206.956 -2.08975 -2.14406 0
M  V30 2114 H 204.502 -1.00612 -1.03021 0
M  V30 2115 H 206.455 -0.711151 -4.15356 0
M  V30 2116 H 205.179 0.154846 -3.26233 0
M  V30 2117 H 203.838 -1.97079 -3.09121 0
M  V30 2118 H 203.486 -0.409846 -5.01328 0
M  V30 2119 H 203.186 -2.10057 -5.48771 0
M  V30 2120 H 204.71 -1.30014 -5.96598 0
M  V30 2121 H 206.124 -3.21611 -4.74594 0
M  V30 2122 H 204.521 -3.96855 -4.5014 0
M  V30 2123 H 205.591 -3.72048 -3.10979 0
M  V30 2124 N 206.934 1.1197 -1.10907 0
M  V30 2125 C 207.864 2.19928 -0.784473 0
M  V30 2126 C 208.845 1.6833 0.244726 0
M  V30 2127 O 210.03 1.93892 0.109418 0
M  V30 2128 C 207.16 3.46597 -0.220827 0
M  V30 2129 C 206.114 4.11376 -1.18127 0
M  V30 2130 C 205.44 5.32554 -0.478594 0
M  V30 2131 C 206.74 4.56945 -2.52979 0
M  V30 2132 H 208.434 2.47337 -1.68715 0
M  V30 2133 H 205.98 1.18879 -0.812642 0
M  V30 2134 H 207.933 4.21396 0.0184278 0
M  V30 2135 H 206.657 3.1863 0.717113 0
M  V30 2136 H 205.316 3.38564 -1.40606 0
M  V30 2137 H 204.964 5.00856 0.463976 0
M  V30 2138 H 204.664 5.76844 -1.11912 0
M  V30 2139 H 206.188 6.10096 -0.248 0
M  V30 2140 H 207.602 5.23093 -2.3462 0
M  V30 2141 H 205.999 5.1203 -3.12962 0
M  V30 2142 H 207.069 3.70676 -3.12614 0
M  V30 2143 N 208.412 0.89855 1.29475 0
M  V30 2144 C 209.64 0.539261 1.99749 0
M  V30 2145 C 210.055 -0.875716 1.67262 0
M  V30 2146 O 209.412 -1.57786 0.917049 0
M  V30 2147 C 209.463 0.72061 3.54245 0
M  V30 2148 O 209.184 2.07989 3.8558 0
M  V30 2149 C 210.685 0.366118 4.41786 0
M  V30 2150 H 207.905 0.207047 0.638258 0
M  V30 2151 H 210.449 1.20758 1.65039 0
M  V30 2152 H 208.604 0.0994862 3.87272 0
M  V30 2153 H 209.018 2.10841 4.80257 0
M  V30 2154 H 210.492 0.543848 5.49314 0
M  V30 2155 H 210.969 -0.696763 4.33638 0
M  V30 2156 H 211.575 0.964135 4.14228 0
M  V30 2157 N 209.89 -1.43072 0.660911 0
M  V30 2158 C 211.136 -2.02545 0.186337 0
M  V30 2159 C 211.491 -1.51253 -1.18913 0
M  V30 2160 O 210.784 -0.699167 -1.78388 0
M  V30 2161 C 210.978 -3.57103 0.145563 0
M  V30 2162 C 210.807 -4.23393 1.51554 0
M  V30 2163 C 209.577 -4.59144 2.10984 0
M  V30 2164 C 211.775 -4.51897 2.45548 0
M  V30 2165 N 209.757 -5.10545 3.40907 0
M  V30 2166 C 211.128 -5.04698 3.6011 0
M  V30 2167 C 213.183 -4.33872 2.44253 0
M  V30 2168 C 211.886 -5.41371 4.73613 0
M  V30 2169 C 213.912 -4.71612 3.56842 0
M  V30 2170 C 213.274 -5.24553 4.70131 0
M  V30 2171 H 209.373 -0.773823 0.112792 0
M  V30 2172 H 211.957 -1.74137 0.870885 0
M  V30 2173 H 210.128 -3.85059 -0.508353 0
M  V30 2174 H 211.86 -4.03264 -0.340598 0
M  V30 2175 H 208.615 -4.4444 1.63615 0
M  V30 2176 H 209.039 -5.40689 4.07411 0
M  V30 2177 H 213.681 -3.92208 1.579 0
M  V30 2178 H 211.399 -5.81975 5.60652 0
M  V30 2179 H 214.985 -4.59354 3.57051 0
M  V30 2180 H 213.865 -5.53213 5.5581 0
M  V30 2181 N 211.368 -0.403325 -1.52352 0
M  V30 2182 C 212.593 0.176499 -2.06648 0
M  V30 2183 C 213.018 1.38577 -1.27193 0
M  V30 2184 O 212.376 1.7879 -0.300637 0
M  V30 2185 C 212.424 0.511061 -3.5696 0
M  V30 2186 O 211.528 1.60294 -3.79973 0
M  V30 2187 H 210.869 0.0167337 -0.663789 0
M  V30 2188 H 213.399 -0.574848 -1.96359 0
M  V30 2189 H 213.409 0.771362 -4.00642 0
M  V30 2190 H 212.084 -0.37296 -4.14224 0
M  V30 2191 H 210.661 1.33526 -3.48174 0
M  V30 2192 N 212.846 1.57033 -0.133567 0
M  V30 2193 C 213.794 2.17348 0.828412 0
M  V30 2194 C 214.788 1.12671 1.26498 0
M  V30 2195 O 215.994 1.30947 1.23502 0
M  V30 2196 H 212.369 0.695775 0.285309 0
M  V30 2197 H 214.34 2.96935 0.295372 0
M  V30 2198 C 213.089 2.79893 2.06289 0
M  V30 2199 H 212.412 3.60147 1.73592 0
M  V30 2200 H 213.852 3.25615 2.71572 0
M  V30 2201 C 212.311 1.77713 2.86216 0
M  V30 2202 O 212.841 1.23937 3.82103 0
M  V30 2203 N 211.047 1.47321 2.50489 0
M  V30 2204 H 210.594 1.91243 1.7258 0
M  V30 2205 H 210.552 0.79199 3.04261 0
M  V30 2206 N 214.325 -0.140222 1.56975 0
M  V30 2207 C 215.736 -0.699596 1.73097 0
M  V30 2208 C 216.087 -1.8134 0.749022 0
M  V30 2209 O 215.212 -2.16241 -0.0828503 0
M  V30 2210 C 215.807 -1.27582 3.1386 0
M  V30 2211 C 214.366 -1.78169 3.31561 0
M  V30 2212 C 213.513 -0.672855 2.69013 0
M  V30 2213 H 216.464 0.0855115 1.58469 0
M  V30 2214 H 216.485 -2.14561 3.14235 0
M  V30 2215 H 215.997 -0.464955 3.85305 0
M  V30 2216 H 214.098 -2.61801 2.65124 0
M  V30 2217 H 214.211 -1.90574 4.39566 0
M  V30 2218 H 212.575 -1.10118 2.29665 0
M  V30 2219 H 213.358 0.126679 3.43066 0
M  V30 2220 N 215.803 -1.52179 -0.40978 0
M  V30 2221 C 217.033 -1.69807 -1.17682 0
M  V30 2222 C 217.441 -0.406908 -1.84773 0
M  V30 2223 O 216.784 0.626863 -1.72673 0
M  V30 2224 C 216.846 -2.77712 -2.2829 0
M  V30 2225 C 216.51 -4.19481 -1.81341 0
M  V30 2226 C 217.507 -5.03345 -1.30154 0
M  V30 2227 C 215.192 -4.65713 -1.88194 0
M  V30 2228 C 217.186 -6.31511 -0.864416 0
M  V30 2229 C 214.873 -5.93869 -1.44093 0
M  V30 2230 C 215.871 -6.76597 -0.933023 0
M  V30 2231 O 215.559 -8.02354 -0.49838 0
M  V30 2232 H 215.291 -0.572372 -0.359675 0
M  V30 2233 H 217.845 -1.99511 -0.488311 0
M  V30 2234 H 216.075 -2.43383 -3.00502 0
M  V30 2235 H 217.764 -2.83946 -2.90051 0
M  V30 2236 H 218.53 -4.68819 -1.24232 0
M  V30 2237 H 214.409 -4.01424 -2.26671 0
M  V30 2238 H 217.953 -6.96033 -0.467286 0
M  V30 2239 H 213.85 -6.27903 -1.49694 0
M  V30 2240 H 214.618 -8.16135 -0.621747 0
M  V30 2241 N 217.281 0.66697 -1.42791 0
M  V30 2242 C 218.692 1.2478 -1.38877 0
M  V30 2243 C 219.043 1.96012 -0.0859426 0
M  V30 2244 O 218.168 2.00463 0.815081 0
M  V30 2245 C 218.763 2.26938 -2.51564 0
M  V30 2246 C 217.322 2.80529 -2.50959 0
M  V30 2247 C 216.469 1.54965 -2.29959 0
M  V30 2248 H 219.42 0.459853 -1.51892 0
M  V30 2249 H 219.441 3.08834 -2.22265 0
M  V30 2250 H 218.953 1.75065 -3.46372 0
M  V30 2251 H 217.054 3.36502 -1.59991 0
M  V30 2252 H 217.167 3.29012 -3.48265 0
M  V30 2253 H 215.531 1.81817 -1.78366 0
M  V30 2254 H 216.314 1.05047 -3.26833 0
M  V30 2255 N 218.759 1.29093 0.90403 0
M  V30 2256 C 220.17 1.15186 1.46932 0
M  V30 2257 C 220.521 -0.254587 1.94541 0
M  V30 2258 O 219.646 -1.14972 1.83332 0
M  V30 2259 C 220.241 2.08492 2.67051 0
M  V30 2260 C 218.8 1.98621 3.19729 0
M  V30 2261 C 217.947 1.9967 1.92425 0
M  V30 2262 H 220.898 1.41641 0.715789 0
M  V30 2263 H 220.919 1.65461 3.42641 0
M  V30 2264 H 220.431 3.10847 2.3237 0
M  V30 2265 H 218.532 0.993389 3.59114 0
M  V30 2266 H 218.645 2.86068 3.8432 0
M  V30 2267 H 217.009 1.44208 2.09943 0
M  V30 2268 H 217.792 3.03721 1.60026 0
M  V30 2269 N 220.237 -1.11381 1.11499 0
M  V30 2270 C 221.514 -1.7955 0.775965 0
M  V30 2271 C 221.894 -1.97859 -0.73588 0
M  V30 2272 O 221.242 -1.56376 -1.66609 0
M  V30 2273 C 221.452 -3.13196 1.53977 0
M  V30 2274 C 222.8 -3.88227 1.71944 0
M  V30 2275 O 223.824 -3.22887 1.50407 0
M  V30 2276 O 222.683 -5.05477 2.07738 0
M  V30 2277 H 219.777 -0.777728 0.28119 0
M  V30 2278 H 222.323 -1.18118 1.21845 0
M  V30 2279 H 221.095 -2.95229 2.56818 0
M  V30 2280 H 220.718 -3.82342 1.09088 0
M  V30 2281 N 221.715 -0.905404 -1.28997 0
M  V30 2282 C 222.663 -0.377431 -2.29517 0
M  V30 2283 C 223.657 0.526461 -1.61012 0
M  V30 2284 O 224.863 0.40863 -1.753 0
M  V30 2285 H 221.238 -0.103437 -0.744852 0
M  V30 2286 H 223.209 -1.23848 -2.71485 0
M  V30 2287 C 221.958 0.374833 -3.45674 0
M  V30 2288 H 221.281 -0.311474 -3.98585 0
M  V30 2289 H 222.721 0.70903 -4.1803 0
M  V30 2290 C 221.18 1.57963 -2.97572 0
M  V30 2291 O 221.71 2.67886 -2.99333 0
M  V30 2292 N 219.916 1.42375 -2.53333 0
M  V30 2293 H 219.463 0.529466 -2.521 0
M  V30 2294 H 219.421 2.23117 -2.21509 0
M  V30 2295 N 223.193 1.4272 -0.668489 0
M  V30 2296 C 224.423 2.05668 -0.196063 0
M  V30 2297 C 224.831 1.5028 1.14946 0
M  V30 2298 O 224.174 0.6348 1.72383 0
M  V30 2299 C 224.236 3.59469 -0.0468879 0
M  V30 2300 C 223.9 4.37518 -1.32012 0
M  V30 2301 C 224.897 4.68584 -2.25222 0
M  V30 2302 C 222.582 4.77266 -1.56596 0
M  V30 2303 C 224.576 5.38326 -3.41297 0
M  V30 2304 C 222.263 5.4675 -2.72962 0
M  V30 2305 C 223.261 5.77204 -3.65137 0
M  V30 2306 O 222.949 6.45264 -4.79468 0
M  V30 2307 H 222.681 0.669382 -0.0943599 0
M  V30 2308 H 225.235 1.83954 -0.913788 0
M  V30 2309 H 223.465 3.79817 0.726357 0
M  V30 2310 H 225.154 4.04071 0.384852 0
M  V30 2311 H 225.92 4.38382 -2.07477 0
M  V30 2312 H 221.799 4.52959 -0.857249 0
M  V30 2313 H 225.343 5.62014 -4.13263 0
M  V30 2314 H 221.24 5.76369 -2.90635 0
M  V30 2315 H 222.008 6.63753 -4.78931 0
M  V30 2316 N 224.671 0.411399 1.52136 0
M  V30 2317 C 225.601 -0.404015 2.29978 0
M  V30 2318 C 226.582 -1.04412 1.34284 0
M  V30 2319 O 227.767 -1.0527 1.63192 0
M  V30 2320 C 224.897 -1.5197 3.12286 0
M  V30 2321 C 223.851 -1.00448 4.16046 0
M  V30 2322 C 223.177 -2.21393 4.86712 0
M  V30 2323 C 224.477 -0.0569336 5.22269 0
M  V30 2324 H 226.171 0.245529 2.98392 0
M  V30 2325 H 223.717 0.119525 1.43503 0
M  V30 2326 H 225.67 -2.09715 3.6551 0
M  V30 2327 H 224.394 -2.19716 2.41646 0
M  V30 2328 H 223.053 -0.449421 3.63835 0
M  V30 2329 H 222.701 -2.87699 4.12599 0
M  V30 2330 H 222.401 -1.87571 5.56858 0
M  V30 2331 H 223.925 -2.7974 5.4275 0
M  V30 2332 H 225.339 -0.54325 5.7072 0
M  V30 2333 H 223.736 0.192594 5.99791 0
M  V30 2334 H 224.806 0.887663 4.76706 0
M  V30 2335 N 226.149 -1.5696 0.141893 0
M  V30 2336 C 227.379 -2.00031 -0.516828 0
M  V30 2337 C 227.787 -1.02091 -1.59293 0
M  V30 2338 O 227.13 -0.00909657 -1.83698 0
M  V30 2339 C 227.192 -3.39534 -1.1814 0
M  V30 2340 C 226.856 -4.56313 -0.250513 0
M  V30 2341 C 227.853 -5.17295 0.519839 0
M  V30 2342 C 225.538 -5.02061 -0.154907 0
M  V30 2343 C 227.532 -6.2243 1.3733 0
M  V30 2344 C 225.219 -6.07053 0.702161 0
M  V30 2345 C 226.217 -6.67106 1.46487 0
M  V30 2346 O 225.905 -7.70066 2.30767 0
M  V30 2347 H 225.637 -0.661451 -0.139493 0
M  V30 2348 H 228.191 -2.04086 0.231926 0
M  V30 2349 H 226.421 -3.32302 -1.97769 0
M  V30 2350 H 228.11 -3.66745 -1.73933 0
M  V30 2351 H 228.876 -4.82852 0.45598 0
M  V30 2352 H 224.755 -4.5505 -0.7383 0
M  V30 2353 H 228.299 -6.69233 1.96909 0
M  V30 2354 H 224.196 -6.40923 0.76733 0
M  V30 2355 H 224.964 -7.87264 2.23959 0
M  V30 2356 N 227.627 0.131896 -1.57047 0
M  V30 2357 C 228.575 1.18146 -2.0036 0
M  V30 2358 C 229.569 1.43614 -0.898406 0
M  V30 2359 O 230.775 1.43729 -1.08361 0
M  V30 2360 H 227.15 0.398042 -0.638018 0
M  V30 2361 H 229.121 0.789564 -2.87765 0
M  V30 2362 C 227.87 2.50341 -2.41298 0
M  V30 2363 H 227.193 2.31578 -3.25902 0
M  V30 2364 H 228.633 3.22371 -2.75414 0
M  V30 2365 C 227.092 3.11984 -1.27153 0
M  V30 2366 O 227.622 3.97484 -0.580459 0
M  V30 2367 N 225.828 2.71662 -1.03189 0
M  V30 2368 H 225.375 2.02231 -1.59564 0
M  V30 2369 H 225.333 3.13238 -0.270077 0
M  V30 2370 N 229.106 1.52395 0.401703 0
M  V30 2371 C 230.056 1.72649 1.48917 0
M  V30 2372 C 231.04 0.580436 1.50066 0
M  V30 2373 O 232.232 0.83779 1.55917 0
M  V30 2374 C 229.361 1.88729 2.86769 0
M  V30 2375 C 228.447 3.09228 2.90239 0
M  V30 2376 N 228.838 4.31805 2.63396 0
M  V30 2377 C 227.136 3.09214 3.21408 0
M  V30 2378 C 227.837 5.13326 2.73625 0
M  V30 2379 N 226.813 4.48735 3.06819 0
M  V30 2380 H 230.615 2.65058 1.26971 0
M  V30 2381 H 228.129 1.50528 0.609504 0
M  V30 2382 H 230.126 2.01358 3.65049 0
M  V30 2383 H 228.786 0.975252 3.09708 0
M  V30 2384 H 229.797 4.60154 2.37653 0
M  V30 2385 H 226.474 2.27774 3.49893 0
M  V30 2386 H 227.864 6.21003 2.56524 0
M  V30 2387 N 230.584 -0.659388 1.43143 0
M  V30 2388 C 231.514 -1.78422 1.50625 0
M  V30 2389 C 232.495 -1.66216 0.361443 0
M  V30 2390 O 233.68 -1.85404 0.577834 0
M  V30 2391 C 230.81 -3.16815 1.42287 0
M  V30 2392 C 229.764 -3.43777 2.54954 0
M  V30 2393 C 229.09 -4.81905 2.31671 0
M  V30 2394 C 230.39 -3.39134 3.97222 0
M  V30 2395 H 232.084 -1.72417 2.44771 0
M  V30 2396 H 229.63 -0.828084 1.17808 0
M  V30 2397 H 231.583 -3.95253 1.46127 0
M  V30 2398 H 230.307 -3.23534 0.446435 0
M  V30 2399 H 228.966 -2.67707 2.50457 0
M  V30 2400 H 228.614 -4.85294 1.32284 0
M  V30 2401 H 228.314 -5.00906 3.07192 0
M  V30 2402 H 229.838 -5.62609 2.37284 0
M  V30 2403 H 231.252 -4.07518 4.03239 0
M  V30 2404 H 229.649 -3.69671 4.72719 0
M  V30 2405 H 230.719 -2.37426 4.22797 0
M  V30 2406 N 232.062 -1.29571 -0.897171 0
M  V30 2407 C 233.29 -1.20583 -1.68129 0
M  V30 2408 C 233.705 0.233181 -1.87354 0
M  V30 2409 O 233.062 1.15579 -1.41236 0
M  V30 2410 C 233.113 -1.91772 -3.06441 0
M  V30 2411 O 232.834 -3.30053 -2.88091 0
M  V30 2412 C 234.335 -1.89291 -4.00854 0
M  V30 2413 H 231.555 -0.417826 -0.525036 0
M  V30 2414 H 234.099 -1.70987 -1.12177 0
M  V30 2415 H 232.254 -1.45196 -3.59161 0
M  V30 2416 H 232.668 -3.65942 -3.75748 0
M  V30 2417 H 234.142 -2.43662 -4.95311 0
M  V30 2418 H 234.619 -0.869014 -4.30517 0
M  V30 2419 H 235.225 -2.35622 -3.54066 0
M  V30 2420 N 233.54 1.10788 -1.12088 0
M  V30 2421 C 234.77 1.86191 -0.895351 0
M  V30 2422 C 235.178 1.80763 0.558702 0
M  V30 2423 O 234.521 1.19188 1.39785 0
M  V30 2424 C 234.583 3.35659 -1.28737 0
M  V30 2425 C 234.247 3.64849 -2.75198 0
M  V30 2426 C 235.244 3.61757 -3.734 0
M  V30 2427 C 232.929 3.93641 -3.12013 0
M  V30 2428 C 234.923 3.87045 -5.06434 0
M  V30 2429 C 232.61 4.18585 -4.4523 0
M  V30 2430 C 233.608 4.15277 -5.42249 0
M  V30 2431 O 233.296 4.3959 -6.73065 0
M  V30 2432 H 233.028 0.595425 -0.32007 0
M  V30 2433 H 235.582 1.40992 -1.49367 0
M  V30 2434 H 233.812 3.81497 -0.63224 0
M  V30 2435 H 235.501 3.92441 -1.03656 0
M  V30 2436 H 236.267 3.39557 -3.46303 0
M  V30 2437 H 232.146 3.95348 -2.37109 0
M  V30 2438 H 235.69 3.84378 -5.82151 0
M  V30 2439 H 231.587 4.40264 -4.72057 0
M  V30 2440 H 232.355 4.57123 -6.78956 0
M  V30 2441 N 235.018 0.912232 1.28515 0
M  V30 2442 C 235.981 0.404223 2.25607 0
M  V30 2443 C 236.981 -0.468602 1.53821 0
M  V30 2444 O 238.171 -0.271873 1.72065 0
M  V30 2445 C 235.303 -0.420653 3.38295 0
M  V30 2446 H 236.496 1.26188 2.7206 0
M  V30 2447 H 234.049 0.691495 1.40171 0
M  V30 2448 H 234.784 -1.29777 2.97201 0
M  V30 2449 H 234.569 0.204935 3.91564 0
M  V30 2450 H 236.059 -0.766971 4.10496 0
M  V30 2451 N 236.496 -1.42363 0.676048 0
M  V30 2452 C 237.742 -2.0182 0.199125 0
M  V30 2453 C 238.075 -1.53339 -1.19168 0
M  V30 2454 O 237.35 -0.736124 -1.80032 0
M  V30 2455 C 237.633 -3.59331 0.235144 0
M  V30 2456 C 237.486 -4.17989 1.66149 0
M  V30 2457 C 238.805 -4.3813 -0.41595 0
M  V30 2458 H 235.924 -0.733293 0.0738311 0
M  V30 2459 H 238.566 -1.69368 0.86107 0
M  V30 2460 H 236.716 -3.87109 -0.328487 0
M  V30 2461 H 238.388 -4.0116 2.27747 0
M  V30 2462 H 236.631 -3.7377 2.20178 0
M  V30 2463 H 237.302 -5.27126 1.63837 0
M  V30 2464 H 239.778 -4.16051 0.0638529 0
M  V30 2465 H 238.654 -5.47717 -0.360115 0
M  V30 2466 H 238.915 -4.16101 -1.49373 0
M  V30 2467 N 237.974 -0.419461 -1.51915 0
M  V30 2468 C 238.922 0.415502 -2.28859 0
M  V30 2469 C 239.916 1.03674 -1.3397 0
M  V30 2470 O 241.122 0.973757 -1.51387 0
M  V30 2471 H 237.497 0.152786 -0.736315 0
M  V30 2472 H 239.468 -0.254531 -2.97312 0
M  V30 2473 C 238.217 1.51425 -3.12995 0
M  V30 2474 H 237.54 1.04556 -3.85886 0
M  V30 2475 H 238.98 2.07208 -3.6992 0
M  V30 2476 C 237.439 2.48745 -2.27217 0
M  V30 2477 O 237.969 3.52871 -1.9195 0
M  V30 2478 N 236.175 2.19202 -1.90785 0
M  V30 2479 H 235.722 1.34556 -2.19664 0
M  V30 2480 H 235.68 2.84561 -1.33687 0
M  V30 2481 N 239.452 1.56882 -0.150215 0
M  V30 2482 C 240.701 1.95403 0.500071 0
M  V30 2483 C 241.014 1.03777 1.658 0
M  V30 2484 O 242.22 1.31889 2.37313 0
M  V30 2485 C 240.676 3.4738 0.941018 0
M  V30 2486 C 240.284 4.47596 -0.190158 0
M  V30 2487 C 242.028 3.9476 1.56091 0
M  V30 2488 C 239.935 5.90787 0.269237 0
M  V30 2489 H 238.865 0.729515 0.190588 0
M  V30 2490 H 241.516 1.81988 -0.235074 0
M  V30 2491 H 239.898 3.56138 1.73152 0
M  V30 2492 H 241.072 4.50536 -0.967157 0
M  V30 2493 H 239.387 4.10151 -0.718666 0
M  V30 2494 H 241.984 4.99181 1.9163 0
M  V30 2495 H 242.327 3.36494 2.45107 0
M  V30 2496 H 242.86 3.88932 0.835249 0
M  V30 2497 H 239.599 6.52879 -0.585621 0
M  V30 2498 H 239.119 5.912 1.01204 0
M  V30 2499 H 240.798 6.42979 0.720176 0
M  V30 2500 N 240.93 -0.123565 1.57115 0
M  V30 2501 C 242.176 -0.828428 1.85765 0
M  V30 2502 C 242.531 -1.77709 0.737371 0
M  V30 2503 O 241.824 -1.89787 -0.262978 0
M  V30 2504 C 242.018 -1.62016 3.18568 0
M  V30 2505 C 241.847 -0.749663 4.43407 0
M  V30 2506 C 240.617 -0.406251 5.03664 0
M  V30 2507 C 242.815 -0.0693505 5.14253 0
M  V30 2508 N 240.797 0.475389 6.12057 0
M  V30 2509 C 242.168 0.671474 6.16353 0
M  V30 2510 C 244.223 0.00754393 4.97899 0
M  V30 2511 C 242.926 1.48197 7.03868 0
M  V30 2512 C 244.952 0.804845 5.85898 0
M  V30 2513 C 244.314 1.53388 6.87497 0
M  V30 2514 H 240.413 -0.280219 0.73007 0
M  V30 2515 H 242.997 -0.0924183 1.94481 0
M  V30 2516 H 241.168 -2.32724 3.10957 0
M  V30 2517 H 242.9 -2.27 3.35042 0
M  V30 2518 H 239.655 -0.747446 4.67665 0
M  V30 2519 H 240.079 0.907924 6.70884 0
M  V30 2520 H 244.721 -0.541741 4.19315 0
M  V30 2521 H 242.439 2.04242 7.81864 0
M  V30 2522 H 246.025 0.866642 5.75309 0
M  V30 2523 H 244.905 2.1409 7.5441 0
M  V30 2524 N 242.408 -1.52605 -0.393616 0
M  V30 2525 C 243.633 -1.71592 -1.16495 0
M  V30 2526 C 244.058 -0.43133 -1.83088 0
M  V30 2527 O 243.416 0.612523 -1.7064 0
M  V30 2528 C 243.464 -2.86318 -2.19213 0
M  V30 2529 O 242.568 -2.52969 -3.257 0
M  V30 2530 H 241.909 -0.570734 -0.33935 0
M  V30 2531 H 244.439 -1.99377 -0.459324 0
M  V30 2532 H 244.449 -3.1168 -2.63286 0
M  V30 2533 H 243.124 -3.79511 -1.7013 0
M  V30 2534 H 241.701 -2.38332 -2.86797 0
M  V30 2535 N 243.887 0.651787 -1.4349 0
M  V30 2536 C 244.797 1.79368 -1.5121 0
M  V30 2537 C 245.813 1.69361 -0.399093 0
M  V30 2538 O 246.989 1.90505 -0.653431 0
M  V30 2539 C 244.054 3.15653 -1.43401 0
M  V30 2540 C 243.115 3.37446 -2.65384 0
M  V30 2541 C 242.348 4.67229 -2.57939 0
M  V30 2542 O 242.571 5.46676 -1.62792 0
M  V30 2543 O 241.505 4.90773 -3.48462 0
M  V30 2544 H 245.331 1.7581 -2.47638 0
M  V30 2545 H 242.916 0.810447 -1.25507 0
M  V30 2546 H 244.798 3.96935 -1.41494 0
M  V30 2547 H 243.473 3.19798 -0.501085 0
M  V30 2548 H 242.38 2.55923 -2.72863 0
M  V30 2549 H 243.713 3.38148 -3.57654 0
M  V30 2550 N 245.365 1.30045 0.890287 0
M  V30 2551 C 246.313 1.15873 2.01683 0
M  V30 2552 C 247.307 0.0719403 1.69247 0
M  V30 2553 O 248.513 0.232414 1.78493 0
M  V30 2554 H 244.888 0.358203 0.661207 0
M  V30 2555 H 246.859 2.11229 2.10772 0
M  V30 2556 C 245.608 0.861842 3.36849 0
M  V30 2557 H 244.931 1.69016 3.62317 0
M  V30 2558 H 246.371 0.802762 4.16331 0
M  V30 2559 C 244.83 -0.435132 3.34078 0
M  V30 2560 O 245.36 -1.4583 3.74295 0
M  V30 2561 N 243.566 -0.444377 2.87182 0
M  V30 2562 H 243.113 0.388723 2.5465 0
M  V30 2563 H 243.071 -1.31213 2.85711 0
M  V30 2564 N 246.843 -1.10192 1.12674 0
M  V30 2565 C 248.12 -1.78717 0.794965 0
M  V30 2566 C 248.5 -1.98628 -0.714853 0
M  V30 2567 O 247.848 -1.58135 -1.64941 0
M  V30 2568 C 248.058 -3.11546 1.5729 0
M  V30 2569 C 249.406 -3.86382 1.76052 0
M  V30 2570 O 250.43 -3.21274 1.53823 0
M  V30 2571 O 249.289 -5.03246 2.13087 0
M  V30 2572 H 246.383 -0.774702 0.289423 0
M  V30 2573 H 248.929 -1.16819 1.23091 0
M  V30 2574 H 247.701 -2.92489 2.59935 0
M  V30 2575 H 247.324 -3.81164 1.13137 0
M  V30 2576 N 248.321 -0.919034 -1.28029 0
M  V30 2577 C 249.732 -0.600735 -1.76771 0
M  V30 2578 C 250.083 0.884024 -1.75156 0
M  V30 2579 O 249.208 1.69163 -1.34956 0
M  V30 2580 C 249.803 -1.08372 -3.21 0
M  V30 2581 C 248.362 -0.816248 -3.67443 0
M  V30 2582 C 247.509 -1.24742 -2.47658 0
M  V30 2583 H 250.46 -1.09974 -1.14418 0
M  V30 2584 H 250.481 -0.427512 -3.78091 0
M  V30 2585 H 249.993 -2.16437 -3.22144 0
M  V30 2586 H 248.094 0.250968 -3.71754 0
M  V30 2587 H 248.207 -1.4277 -4.57333 0
M  V30 2588 H 246.571 -0.666083 -2.45836 0
M  V30 2589 H 247.354 -2.33653 -2.51518 0
M  V30 2590 N 249.799 1.42003 -0.683588 0
M  V30 2591 C 250.762 2.29191 -0.0198243 0
M  V30 2592 C 251.762 1.43773 0.72013 0
M  V30 2593 O 252.952 1.65061 0.556815 0
M  V30 2594 C 250.084 3.26435 0.982487 0
M  V30 2595 H 251.277 2.8938 -0.787345 0
M  V30 2596 H 248.83 1.49789 -0.446418 0
M  V30 2597 H 249.565 2.71203 1.77819 0
M  V30 2598 H 249.35 3.89449 0.455182 0
M  V30 2599 H 250.84 3.918 1.44508 0
M  V30 2600 N 251.277 0.427512 1.51691 0
M  V30 2601 C 252.554 -0.201684 1.94557 0
M  V30 2602 C 252.934 -1.60981 1.36559 0
M  V30 2603 O 252.282 -2.21814 0.548702 0
M  V30 2604 C 252.492 -0.189394 3.48486 0
M  V30 2605 C 253.84 -0.39978 4.22714 0
M  V30 2606 O 254.864 -0.267945 3.55191 0
M  V30 2607 O 253.723 -0.661249 5.42485 0
M  V30 2608 H 250.817 -0.135261 0.815864 0
M  V30 2609 H 253.363 0.484782 1.62628 0
M  V30 2610 H 252.135 0.795431 3.8313 0
M  V30 2611 H 251.758 -0.919187 3.86829 0
M  V30 2612 N 252.755 -1.56801 0.158532 0
M  V30 2613 C 254.002 -1.9649 -0.489679 0
M  V30 2614 C 254.33 -1.04394 -1.6411 0
M  V30 2615 O 253.585 -0.0754401 -1.95555 0
M  V30 2616 C 253.884 -3.4235 -1.02623 0
M  V30 2617 C 253.55 -4.50899 0.00794526 0
M  V30 2618 C 252.212 -4.80312 0.292207 0
M  V30 2619 C 254.564 -5.16333 0.710584 0
M  V30 2620 C 251.892 -5.72461 1.28472 0
M  V30 2621 C 254.244 -6.09553 1.69199 0
M  V30 2622 C 252.908 -6.37339 1.98383 0
M  V30 2623 H 252.178 -0.719009 -0.179186 0
M  V30 2624 H 254.825 -1.8989 0.247798 0
M  V30 2625 H 253.13 -3.45838 -1.84128 0
M  V30 2626 H 254.827 -3.70393 -1.53656 0
M  V30 2627 H 251.417 -4.28015 -0.22379 0
M  V30 2628 H 255.601 -4.93732 0.504174 0
M  V30 2629 H 250.857 -5.92278 1.51714 0
M  V30 2630 H 255.031 -6.59327 2.24189 0
M  V30 2631 H 252.658 -7.08546 2.7544 0
M  V30 2632 N 254.233 0.115231 -1.57178 0
M  V30 2633 C 255.649 0.468877 -1.52557 0
M  V30 2634 C 255.849 1.81649 -0.872125 0
M  V30 2635 O 254.905 2.48347 -0.45606 0
M  V30 2636 C 256.218 0.4499 -2.97315 0
M  V30 2637 C 257.766 0.533185 -3.08425 0
M  V30 2638 C 258.241 0.54456 -4.54751 0
M  V30 2639 N 259.732 0.605892 -4.5922 0
M  V30 2640 C 260.467 0.636203 -5.6986 0
M  V30 2641 N 259.963 0.623931 -6.89985 0
M  V30 2642 N 261.756 0.679496 -5.57978 0
M  V30 2643 H 253.907 -0.767712 -1.9804 0
M  V30 2644 H 256.17 -0.283609 -0.904583 0
M  V30 2645 H 255.876 -0.472721 -3.48509 0
M  V30 2646 H 255.75 1.27632 -3.5495 0
M  V30 2647 H 258.137 1.44623 -2.57232 0
M  V30 2648 H 258.218 -0.320995 -2.53778 0
M  V30 2649 H 257.862 -0.364452 -5.06591 0
M  V30 2650 H 257.792 1.41568 -5.07214 0
M  V30 2651 H 260.283 0.621386 -3.72756 0
M  V30 2652 H 260.596 0.649787 -7.70063 0
M  V30 2653 H 258.941 0.591296 -6.9248 0
M  V30 2654 H 262.132 0.686472 -4.63039 0
M  V30 2655 H 262.305 0.69965 -6.44212 0
M  V30 2656 N 255.711 1.52812 0.385517 0
M  V30 2657 C 256.96 1.67249 1.12741 0
M  V30 2658 C 257.273 0.4205 1.91027 0
M  V30 2659 O 258.479 0.445064 2.67827 0
M  V30 2660 C 256.935 2.95583 2.05326 0
M  V30 2661 C 256.543 4.27974 1.32447 0
M  V30 2662 C 258.287 3.19386 2.7963 0
M  V30 2663 C 256.194 5.47412 2.23818 0
M  V30 2664 H 255.124 0.6231 0.424573 0
M  V30 2665 H 257.775 1.79309 0.389924 0
M  V30 2666 H 256.157 2.77277 2.82725 0
M  V30 2667 H 257.331 4.56844 0.602495 0
M  V30 2668 H 255.646 4.10459 0.700885 0
M  V30 2669 H 258.243 4.05801 3.48181 0
M  V30 2670 H 258.586 2.34604 3.43899 0
M  V30 2671 H 259.119 3.38274 2.09322 0
M  V30 2672 H 255.858 6.34612 1.64157 0
M  V30 2673 H 255.378 5.22849 2.93921 0
M  V30 2674 H 257.057 5.81423 2.83824 0
M  V30 2675 N 257.189 -0.644168 1.43834 0
M  V30 2676 C 258.419 -1.42939 1.49171 0
M  V30 2677 C 258.827 -1.88874 0.111048 0
M  V30 2678 O 258.17 -1.60656 -0.8908 0
M  V30 2679 C 258.232 -2.69151 2.38324 0
M  V30 2680 C 257.896 -2.45097 3.85715 0
M  V30 2681 C 258.893 -2.07747 4.76589 0
M  V30 2682 C 256.578 -2.59141 4.30292 0
M  V30 2683 C 258.572 -1.8475 6.10038 0
M  V30 2684 C 256.259 -2.35759 5.63792 0
M  V30 2685 C 257.257 -1.9862 6.53482 0
M  V30 2686 O 256.945 -1.75489 7.84512 0
M  V30 2687 H 256.677 -0.445271 0.508635 0
M  V30 2688 H 259.231 -0.79621 1.8934 0
M  V30 2689 H 257.461 -3.3506 1.93058 0
M  V30 2690 H 259.15 -3.31123 2.3476 0
M  V30 2691 H 259.916 -1.96465 4.43426 0
M  V30 2692 H 255.795 -2.87022 3.60749 0
M  V30 2693 H 259.339 -1.55686 6.80006 0
M  V30 2694 H 255.236 -2.46646 5.9652 0
M  V30 2695 H 256.004 -1.89841 7.9618 0
M  V30 2696 N 258.668 -1.30515 -0.883378 0
M  V30 2697 C 259.616 -1.16941 -2.01066 0
M  V30 2698 C 260.61 -0.0809148 -1.69207 0
M  V30 2699 O 261.816 -0.241877 -1.78367 0
M  V30 2700 H 258.191 -0.361705 -0.659298 0
M  V30 2701 H 260.162 -2.12344 -2.09649 0
M  V30 2702 C 258.911 -0.879694 -3.36388 0
M  V30 2703 H 258.234 -1.70936 -3.61415 0
M  V30 2704 H 259.674 -0.82483 -4.159 0
M  V30 2705 C 258.133 0.417409 -3.34304 0
M  V30 2706 O 258.663 1.43843 -3.75063 0
M  V30 2707 N 256.869 0.429141 -2.87414 0
M  V30 2708 H 256.416 -0.402222 -2.5444 0
M  V30 2709 H 256.374 1.29696 -2.86403 0
M  V30 2710 N 260.146 1.09593 -1.13257 0
M  V30 2711 C 261.392 1.82003 -0.89458 0
M  V30 2712 C 261.725 1.85402 0.577906 0
M  V30 2713 O 261 1.32099 1.42759 0
M  V30 2714 C 261.283 3.28237 -1.48096 0
M  V30 2715 C 261.136 3.3312 -3.02244 0
M  V30 2716 C 262.455 4.24871 -1.14774 0
M  V30 2717 H 259.574 0.66077 -0.326424 0
M  V30 2718 H 262.216 1.28389 -1.40058 0
M  V30 2719 H 260.366 3.74024 -1.05062 0
M  V30 2720 H 262.038 2.95748 -3.54021 0
M  V30 2721 H 260.281 2.72756 -3.37323 0
M  V30 2722 H 260.952 4.3613 -3.38371 0
M  V30 2723 H 263.428 3.87361 -1.51957 0
M  V30 2724 H 262.304 5.25532 -1.58452 0
M  V30 2725 H 262.565 4.42058 -0.0611849 0
M  V30 2726 N 261.624 0.925811 1.2754 0
M  V30 2727 C 262.852 0.581509 1.9856 0
M  V30 2728 C 263.267 -0.840041 1.69082 0
M  V30 2729 O 262.624 -1.55805 0.950312 0
M  V30 2730 C 262.675 0.795589 3.52637 0
M  V30 2731 O 262.396 2.16121 3.81082 0
M  V30 2732 C 263.897 0.459744 4.4091 0
M  V30 2733 H 261.117 0.220538 0.633722 0
M  V30 2734 H 263.661 1.24232 1.6244 0
M  V30 2735 H 261.816 0.18161 3.86974 0
M  V30 2736 H 262.23 2.2098 4.75676 0
M  V30 2737 H 263.704 0.660244 5.48037 0
M  V30 2738 H 264.181 -0.604625 4.35018 0
M  V30 2739 H 264.787 1.05178 4.12089 0
M  V30 2740 N 263.102 -1.41638 0.69111 0
M  V30 2741 C 264.332 -2.0533 0.228758 0
M  V30 2742 C 264.74 -1.52089 -1.12541 0
M  V30 2743 O 264.083 -0.662145 -1.71351 0
M  V30 2744 C 264.145 -3.59349 0.10407 0
M  V30 2745 C 263.809 -4.35362 1.38956 0
M  V30 2746 C 264.806 -4.64942 2.32648 0
M  V30 2747 C 262.491 -4.74714 1.64169 0
M  V30 2748 C 264.485 -5.32828 3.49818 0
M  V30 2749 C 262.172 -5.42338 2.81625 0
M  V30 2750 C 263.17 -5.71322 3.74273 0
M  V30 2751 O 262.858 -6.37554 4.89673 0
M  V30 2752 H 262.59 -0.667796 0.104997 0
M  V30 2753 H 265.144 -1.82477 0.942938 0
M  V30 2754 H 263.374 -3.80924 -0.665839 0
M  V30 2755 H 265.063 -4.04633 -0.320519 0
M  V30 2756 H 265.829 -4.35025 2.14425 0
M  V30 2757 H 261.708 -4.51538 0.929202 0
M  V30 2758 H 265.252 -5.55368 4.22152 0
M  V30 2759 H 261.149 -5.71673 2.99768 0
M  V30 2760 H 261.917 -6.56049 4.8943 0
M  V30 2761 N 264.58 -0.43555 -1.51462 0
M  V30 2762 C 265.51 0.367376 -2.30592 0
M  V30 2763 C 266.491 1.02263 -1.35928 0
M  V30 2764 O 267.676 1.02661 -1.64847 0
M  V30 2765 C 264.806 1.46983 -3.14664 0
M  V30 2766 C 263.76 0.938161 -4.17591 0
M  V30 2767 C 263.086 2.13622 -4.90173 0
M  V30 2768 C 264.386 -0.0261621 -5.22293 0
M  V30 2769 H 266.08 -0.292969 -2.97963 0
M  V30 2770 H 263.626 -0.14234 -1.43295 0
M  V30 2771 H 265.579 2.03873 -3.688 0
M  V30 2772 H 264.303 2.15843 -2.4511 0
M  V30 2773 H 262.962 0.391481 -3.64504 0
M  V30 2774 H 262.61 2.81098 -4.17124 0
M  V30 2775 H 262.31 1.78688 -5.59772 0
M  V30 2776 H 263.834 2.7107 -5.47132 0
M  V30 2777 H 265.248 0.452384 -5.71512 0
M  V30 2778 H 263.645 -0.287992 -5.99409 0
M  V30 2779 H 264.715 -0.963391 -4.75233 0
M  V30 2780 N 266.058 1.56714 -0.166846 0
M  V30 2781 C 266.968 2.21331 0.777791 0
M  V30 2782 C 267.984 1.20358 1.25658 0
M  V30 2783 O 269.16 1.53005 1.30964 0
M  V30 2784 C 266.225 2.83787 1.99163 0
M  V30 2785 C 265.286 3.99947 1.56016 0
M  V30 2786 C 264.519 4.59415 2.71613 0
M  V30 2787 O 264.742 4.17769 3.88362 0
M  V30 2788 O 263.676 5.49359 2.45945 0
M  V30 2789 H 267.502 3.02605 0.257636 0
M  V30 2790 H 265.087 1.49275 0.0611393 0
M  V30 2791 H 266.969 3.23405 2.70161 0
M  V30 2792 H 265.644 2.05513 2.50092 0
M  V30 2793 H 264.551 3.65007 0.819809 0
M  V30 2794 H 265.884 4.79801 1.09782 0
M  V30 2795 N 267.536 -0.106894 1.57237 0
M  V30 2796 C 268.947 -0.662723 1.74542 0
M  V30 2797 C 269.298 -1.7971 0.787319 0
M  V30 2798 O 268.423 -2.16368 -0.0369636 0
M  V30 2799 C 269.018 -1.20896 3.16496 0
M  V30 2800 C 267.577 -1.71096 3.35266 0
M  V30 2801 C 266.724 -0.615642 2.7038 0
M  V30 2802 H 269.675 0.119106 1.58252 0
M  V30 2803 H 269.696 -2.07847 3.18716 0
M  V30 2804 H 269.208 -0.383122 3.86204 0
M  V30 2805 H 267.309 -2.56119 2.70618 0
M  V30 2806 H 267.422 -1.81208 4.43509 0
M  V30 2807 H 265.786 -1.05222 2.31949 0
M  V30 2808 H 266.569 0.199419 3.4272 0
M  V30 2809 N 269.014 -1.53014 -0.377408 0
M  V30 2810 C 270.239 -1.72818 -1.14668 0
M  V30 2811 C 270.664 -0.450725 -1.8262 0
M  V30 2812 O 270.022 0.59439 -1.7128 0
M  V30 2813 C 270.07 -2.88627 -2.16164 0
M  V30 2814 O 269.174 -2.56409 -3.22998 0
M  V30 2815 H 268.515 -0.574301 -0.333278 0
M  V30 2816 H 271.045 -1.99853 -0.438152 0
M  V30 2817 H 271.055 -3.14455 -2.59966 0
M  V30 2818 H 269.73 -3.81294 -1.66095 0
M  V30 2819 H 268.307 -2.4136 -2.84253 0
M  V30 2820 N 270.492 0.636531 -1.44174 0
M  V30 2821 C 271.422 1.76003 -1.53444 0
M  V30 2822 C 272.403 1.65619 -0.387841 0
M  V30 2823 O 273.588 1.84461 -0.607257 0
M  V30 2824 C 270.718 3.14511 -1.4731 0
M  V30 2825 C 269.672 3.39677 -2.60391 0
M  V30 2826 C 268.998 4.78159 -2.39308 0
M  V30 2827 C 270.298 3.32772 -4.02567 0
M  V30 2828 H 271.992 1.68501 -2.47483 0
M  V30 2829 H 269.538 0.809237 -1.19111 0
M  V30 2830 H 271.491 3.92878 -1.52397 0
M  V30 2831 H 270.215 3.22783 -0.49785 0
M  V30 2832 H 268.874 2.63688 -2.54684 0
M  V30 2833 H 268.522 4.83128 -1.39988 0
M  V30 2834 H 268.222 4.95956 -3.15122 0
M  V30 2835 H 269.746 5.58762 -2.46205 0
M  V30 2836 H 271.16 4.01051 -4.09672 0
M  V30 2837 H 269.557 3.62104 -4.7854 0
M  V30 2838 H 270.627 2.30669 -4.2652 0
M  V30 2839 N 271.97 1.30982 0.876444 0
M  V30 2840 C 273.386 1.09498 1.16113 0
M  V30 2841 C 273.586 -0.13875 2.01022 0
M  V30 2842 O 272.642 -0.829935 2.38471 0
M  V30 2843 C 273.955 2.36308 1.85954 0
M  V30 2844 C 275.503 2.41856 1.98683 0
M  V30 2845 C 275.978 3.6853 2.71937 0
M  V30 2846 N 277.469 3.69387 2.79477 0
M  V30 2847 C 278.204 4.64096 3.36753 0
M  V30 2848 N 277.7 5.69155 3.95012 0
M  V30 2849 N 279.493 4.51626 3.3465 0
M  V30 2850 H 271.644 2.10118 0.310494 0
M  V30 2851 H 273.907 0.926634 0.200131 0
M  V30 2852 H 273.613 3.26388 1.31011 0
M  V30 2853 H 273.487 2.4561 2.86278 0
M  V30 2854 H 275.874 1.52249 2.52793 0
M  V30 2855 H 275.955 2.36523 0.9742 0
M  V30 2856 H 275.599 4.58499 2.18496 0
M  V30 2857 H 275.529 3.71127 3.73593 0
M  V30 2858 H 278.02 2.93438 2.38123 0
M  V30 2859 H 278.333 6.3751 4.36808 0
M  V30 2860 H 276.678 5.72937 3.93406 0
M  V30 2861 H 279.869 3.68728 2.8837 0
M  V30 2862 H 280.042 5.25614 3.7899 0
M  V30 2863 N 273.449 -1.08991 1.13837 0
M  V30 2864 C 274.698 -1.80631 0.897509 0
M  V30 2865 C 275.011 -1.86872 -0.57777 0
M  V30 2866 O 276.217 -2.54866 -0.935701 0
M  V30 2867 C 274.673 -3.24517 1.55618 0
M  V30 2868 C 274.281 -3.26529 3.0673 0
M  V30 2869 C 276.025 -4.00882 1.3962 0
M  V30 2870 C 273.932 -4.64965 3.65461 0
M  V30 2871 H 272.862 -0.67691 0.332129 0
M  V30 2872 H 275.513 -1.2246 1.3666 0
M  V30 2873 H 273.895 -3.82778 1.01476 0
M  V30 2874 H 275.069 -2.78008 3.67489 0
M  V30 2875 H 273.384 -2.63656 3.22296 0
M  V30 2876 H 275.981 -5.03167 1.80906 0
M  V30 2877 H 276.324 -4.14896 0.341578 0
M  V30 2878 H 276.857 -3.49075 1.90766 0
M  V30 2879 H 273.596 -4.56153 4.70749 0
M  V30 2880 H 273.116 -5.13792 3.09481 0
M  V30 2881 H 274.795 -5.3394 3.654 0
M  V30 2882 N 274.927 -0.932562 -1.27047 0
M  V30 2883 C 275.89 -0.440064 -2.24936 0
M  V30 2884 C 276.89 0.444071 -1.54547 0
M  V30 2885 O 278.08 0.244465 -1.72476 0
M  V30 2886 C 275.212 0.36678 -3.38921 0
M  V30 2887 H 276.405 -1.305 -2.70018 0
M  V30 2888 H 273.958 -0.713707 -1.39054 0
M  V30 2889 H 274.693 1.25033 -2.99228 0
M  V30 2890 H 274.478 -0.267204 -3.91188 0
M  V30 2891 H 275.968 0.701567 -4.11665 0
M  V30 2892 N 276.405 1.4127 -0.698611 0
M  V30 2893 C 277.368 2.29158 -0.044132 0
M  V30 2894 C 278.368 1.44529 0.704841 0
M  V30 2895 O 279.558 1.65643 0.539276 0
M  V30 2896 C 276.69 3.27459 0.947809 0
M  V30 2897 H 277.883 2.88529 -0.817994 0
M  V30 2898 H 275.436 1.49307 -0.46228 0
M  V30 2899 H 276.171 2.73073 1.74933 0
M  V30 2900 H 275.956 3.8991 0.41385 0
M  V30 2901 H 277.446 3.93311 1.40344 0
M  V30 2902 N 277.883 0.443576 1.51229 0
M  V30 2903 C 279.108 -0.121648 2.07043 0
M  V30 2904 C 279.533 -1.35156 1.30823 0
M  V30 2905 O 278.891 -1.7793 0.347934 0
M  V30 2906 C 278.939 -0.41624 3.5819 0
M  V30 2907 O 278.043 -1.50163 3.8409 0
M  V30 2908 H 277.384 0.000871367 0.663999 0
M  V30 2909 H 279.914 0.626706 1.94765 0
M  V30 2910 H 279.924 -0.664867 4.02546 0
M  V30 2911 H 278.599 0.482653 4.1309 0
M  V30 2912 H 277.176 -1.24248 3.51592 0
M  V30 2913 N 279.361 -1.56624 0.175154 0
M  V30 2914 C 280.589 -2.01374 -0.474971 0
M  V30 2915 C 281.004 -1.05537 -1.56548 0
M  V30 2916 O 280.361 -0.0568668 -1.82411 0
M  V30 2917 C 280.412 -3.45923 -1.04975 0
M  V30 2918 O 280.133 -4.381 -0.00276605 0
M  V30 2919 C 281.634 -4.06093 -1.77773 0
M  V30 2920 H 278.854 -0.659962 -0.121206 0
M  V30 2921 H 281.398 -2.02601 0.27801 0
M  V30 2922 H 279.553 -3.45458 -1.75321 0
M  V30 2923 H 279.967 -5.22753 -0.427681 0
M  V30 2924 H 281.441 -5.09147 -2.13245 0
M  V30 2925 H 281.918 -3.48405 -2.67414 0
M  V30 2926 H 282.524 -4.10272 -1.12059 0
M  V30 2927 N 280.839 0.0985539 -1.57292 0
M  V30 2928 C 281.769 1.12064 -2.04851 0
M  V30 2929 C 282.75 1.41981 -0.936767 0
M  V30 2930 O 283.935 1.52071 -1.20781 0
M  V30 2931 C 281.065 2.44144 -2.47004 0
M  V30 2932 C 280.019 2.28643 -3.6181 0
M  V30 2933 C 279.345 3.65869 -3.89929 0
M  V30 2934 C 280.645 1.72986 -4.92822 0
M  V30 2935 H 282.339 0.724979 -2.9049 0
M  V30 2936 H 279.885 0.34729 -1.39749 0
M  V30 2937 H 281.838 3.15914 -2.78884 0
M  V30 2938 H 280.562 2.85639 -1.5836 0
M  V30 2939 H 279.221 1.59318 -3.30172 0
M  V30 2940 H 278.869 4.04885 -2.98458 0
M  V30 2941 H 278.569 3.56344 -4.67218 0
M  V30 2942 H 280.093 4.39112 -4.2428 0
M  V30 2943 H 281.507 2.34593 -5.23105 0
M  V30 2944 H 279.904 1.74229 -5.74251 0
M  V30 2945 H 280.974 0.689007 -4.7998 0
M  V30 2946 N 282.317 1.53212 0.369288 0
M  V30 2947 C 283.264 1.79388 1.45219 0
M  V30 2948 C 284.234 0.638059 1.53356 0
M  V30 2949 O 285.419 0.879852 1.69302 0
M  V30 2950 C 282.559 1.98623 2.82211 0
M  V30 2951 C 281.672 3.26337 2.8307 0
M  V30 2952 C 280.807 3.35779 4.11614 0
M  V30 2953 C 279.846 4.5754 4.06601 0
M  V30 2954 N 278.983 4.64155 5.26787 0
M  V30 2955 H 283.823 2.71794 1.22198 0
M  V30 2956 H 281.36 1.34642 0.592444 0
M  V30 2957 H 283.318 2.07761 3.61789 0
M  V30 2958 H 281.948 1.09558 3.03639 0
M  V30 2959 H 281 3.26171 1.95747 0
M  V30 2960 H 282.312 4.15988 2.75237 0
M  V30 2961 H 281.466 3.44208 4.99606 0
M  V30 2962 H 280.205 2.44137 4.22195 0
M  V30 2963 H 279.21 4.49215 3.16996 0
M  V30 2964 H 280.435 5.50519 3.97625 0
M  V30 2965 H 278.381 3.75413 5.3796 0
M  V30 2966 H 278.298 5.47706 5.21109 0
M  V30 2967 H 279.566 4.76863 6.16621 0
M  V30 2968 N 283.795 -0.628877 1.44509 0
M  V30 2969 C 285.02 -1.42048 1.5112 0
M  V30 2970 C 285.445 -1.87594 0.137818 0
M  V30 2971 O 284.803 -1.58873 -0.873437 0
M  V30 2972 C 284.851 -2.61541 2.48251 0
M  V30 2973 O 283.955 -3.61453 1.98559 0
M  V30 2974 H 283.296 -0.424942 0.510216 0
M  V30 2975 H 285.826 -0.767374 1.89664 0
M  V30 2976 H 285.836 -3.09057 2.66361 0
M  V30 2977 H 284.511 -2.27736 3.48007 0
M  V30 2978 H 283.088 -3.20731 1.90227 0
M  V30 2979 N 285.273 -1.31445 -0.869486 0
M  V30 2980 C 286.521 -1.20918 -1.61936 0
M  V30 2981 C 286.842 0.232683 -1.93607 0
M  V30 2982 O 286.112 1.15352 -1.58338 0
M  V30 2983 H 284.692 -0.44454 -0.600328 0
M  V30 2984 H 287.354 -1.64776 -1.0409 0
M  V30 2985 H 286.45 -1.78124 -2.56278 0
M  V30 2986 N 286.751 1.08385 -1.14413 0
M  V30 2987 C 288 1.80153 -0.907076 0
M  V30 2988 C 288.313 1.87176 0.567851 0
M  V30 2989 O 289.519 2.55359 0.922172 0
M  V30 2990 C 287.975 3.23687 -1.57336 0
M  V30 2991 C 287.583 3.24897 -3.08457 0
M  V30 2992 C 289.327 4.00136 -1.41744 0
M  V30 2993 C 287.234 4.6302 -3.67921 0
M  V30 2994 H 286.164 0.675139 -0.335714 0
M  V30 2995 H 288.815 1.21733 -1.37307 0
M  V30 2996 H 287.197 3.82234 -1.03505 0
M  V30 2997 H 288.371 2.76055 -3.68958 0
M  V30 2998 H 286.686 2.61943 -3.2369 0
M  V30 2999 H 289.283 5.02201 -1.83572 0
M  V30 3000 H 289.626 4.14709 -0.363576 0
M  V30 3001 H 290.159 3.48058 -1.92614 0
M  V30 3002 H 286.898 4.5365 -4.73161 0
M  V30 3003 H 286.418 5.12143 -3.12201 0
M  V30 3004 H 288.097 5.31994 -3.68227 0
M  V30 3005 N 288.23 0.939286 1.26551 0
M  V30 3006 C 289.455 0.602008 1.98471 0
M  V30 3007 C 289.88 -0.815624 1.69497 0
M  V30 3008 O 289.238 -1.54912 0.941905 0
M  V30 3009 C 289.286 0.848407 3.50477 0
M  V30 3010 O 288.39 -0.0804009 4.12322 0
M  V30 3011 H 287.731 0.23049 0.622712 0
M  V30 3012 H 290.261 1.2617 1.61066 0
M  V30 3013 H 290.271 0.768553 4.00696 0
M  V30 3014 H 288.946 1.88171 3.70897 0
M  V30 3015 H 287.523 0.0503508 3.72866 0
M  V30 3016 N 289.708 -1.40897 0.706093 0
M  V30 3017 C 290.938 -2.05075 0.250523 0
M  V30 3018 C 291.346 -1.53275 -1.10921 0
M  V30 3019 O 290.689 -0.680281 -1.7064 0
M  V30 3020 C 290.751 -3.59219 0.142178 0
M  V30 3021 C 290.415 -4.33864 1.43566 0
M  V30 3022 C 291.412 -4.62448 2.37566 0
M  V30 3023 C 289.097 -4.72946 1.69195 0
M  V30 3024 C 291.091 -5.29088 3.5545 0
M  V30 3025 C 288.778 -5.3932 2.87362 0
M  V30 3026 C 289.776 -5.6732 3.80312 0
M  V30 3027 O 289.464 -6.32325 4.96408 0
M  V30 3028 H 289.196 -0.666645 0.112074 0
M  V30 3029 H 291.75 -1.81467 0.962239 0
M  V30 3030 H 289.98 -3.81609 -0.6254 0
M  V30 3031 H 291.669 -4.0495 -0.277584 0
M  V30 3032 H 292.435 -4.32727 2.19027 0
M  V30 3033 H 288.314 -4.50527 0.977042 0
M  V30 3034 H 291.858 -5.50859 4.28018 0
M  V30 3035 H 287.755 -5.68461 3.05814 0
M  V30 3036 H 288.523 -6.50821 4.9636 0
M  V30 3037 N 291.186 -0.45159 -1.50991 0
M  V30 3038 C 292.602 -0.104647 -1.59257 0
M  V30 3039 C 292.802 1.38728 -1.4614 0
M  V30 3040 O 291.858 2.15866 -1.30989 0
M  V30 3041 C 293.171 -0.637468 -2.93865 0
M  V30 3042 C 294.719 -0.599166 -3.07212 0
M  V30 3043 C 295.194 -1.1092 -4.44366 0
M  V30 3044 N 296.685 -1.06778 -4.50725 0
M  V30 3045 C 297.42 -1.43314 -5.55201 0
M  V30 3046 N 296.916 -1.87204 -6.67028 0
M  V30 3047 N 298.709 -1.3504 -5.45638 0
M  V30 3048 H 290.86 -1.42214 -1.57762 0
M  V30 3049 H 293.123 -0.586921 -0.744465 0
M  V30 3050 H 292.829 -1.68187 -3.08879 0
M  V30 3051 H 292.703 -0.0702139 -3.77135 0
M  V30 3052 H 295.09 0.436277 -2.91857 0
M  V30 3053 H 295.171 -1.20299 -2.25747 0
M  V30 3054 H 294.815 -2.14318 -4.60467 0
M  V30 3055 H 294.745 -0.481773 -5.24392 0
M  V30 3056 H 297.236 -0.745643 -3.70471 0
M  V30 3057 H 297.549 -2.13282 -7.42786 0
M  V30 3058 H 295.894 -1.91142 -6.68199 0
M  V30 3059 H 299.085 -1.00607 -4.57161 0
M  V30 3060 H 299.258 -1.63841 -6.26945 0
M  V30 3061 N 292.664 1.56529 -0.183458 0
M  V30 3062 C 293.627 2.17324 0.728223 0
M  V30 3063 C 294.627 1.12453 1.14939 0
M  V30 3064 O 295.817 1.37902 1.06437 0
M  V30 3065 C 292.949 2.76591 1.99274 0
M  V30 3066 H 294.142 2.99241 0.198772 0
M  V30 3067 H 291.695 1.5616 0.0661391 0
M  V30 3068 H 292.43 1.98441 2.56499 0
M  V30 3069 H 292.215 3.5335 1.69959 0
M  V30 3070 H 293.705 3.23311 2.6431 0
M  V30 3071 N 294.142 -0.090211 1.57342 0
M  V30 3072 C 295.558 -0.444547 1.53284 0
M  V30 3073 C 295.758 -1.80238 0.900914 0
M  V30 3074 O 294.814 -2.4759 0.495513 0
M  V30 3075 C 296.127 -0.402543 2.97993 0
M  V30 3076 C 297.675 -0.48405 3.09234 0
M  V30 3077 C 298.15 -0.472144 4.5556 0
M  V30 3078 N 299.641 -0.532757 4.60126 0
M  V30 3079 C 300.376 -0.545462 5.708 0
M  V30 3080 N 299.872 -0.514082 6.9089 0
M  V30 3081 N 301.665 -0.59064 5.58988 0
M  V30 3082 H 293.816 0.799121 1.96794 0
M  V30 3083 H 296.079 0.297965 0.899956 0
M  V30 3084 H 295.785 0.528106 3.47712 0
M  V30 3085 H 295.659 -1.21969 3.56936 0
M  V30 3086 H 298.046 -1.40512 2.595 0
M  V30 3087 H 298.127 0.361328 2.53235 0
M  V30 3088 H 297.771 0.445 5.05947 0
M  V30 3089 H 297.701 -1.3348 5.09402 0
M  V30 3090 H 300.192 -0.562006 3.73698 0
M  V30 3091 H 300.505 -0.527195 7.71 0
M  V30 3092 H 298.85 -0.481054 6.93333 0
M  V30 3093 H 302.041 -0.61272 4.64073 0
M  V30 3094 H 302.214 -0.597073 6.45243 0
M  V30 3095 N 295.62 -1.53406 -0.361157 0
M  V30 3096 C 296.866 -1.70054 -1.10496 0
M  V30 3097 C 297.199 -0.453278 -1.88836 0
M  V30 3098 O 296.474 0.5495 -1.86576 0
M  V30 3099 C 296.757 -2.95317 -2.06058 0
M  V30 3100 C 296.61 -4.3021 -1.31298 0
M  V30 3101 C 297.929 -3.16193 -3.06121 0
M  V30 3102 H 295.048 -0.618799 -0.400321 0
M  V30 3103 H 297.69 -1.86052 -0.385318 0
M  V30 3104 H 295.84 -2.81809 -2.67425 0
M  V30 3105 H 297.512 -4.55538 -0.726807 0
M  V30 3106 H 295.755 -4.29421 -0.614853 0
M  V30 3107 H 296.426 -5.14 -2.01265 0
M  V30 3108 H 298.902 -3.28916 -2.5486 0
M  V30 3109 H 297.778 -4.05266 -3.70204 0
M  V30 3110 H 298.039 -2.31676 -3.76535 0
M  V30 3111 N 297.098 0.621204 -1.44841 0
M  V30 3112 C 298.514 0.94048 -1.28946 0
M  V30 3113 C 298.714 2.00154 -0.23249 0
M  V30 3114 O 297.77 2.49651 0.378237 0
M  V30 3115 C 299.083 1.39433 -2.66419 0
M  V30 3116 C 300.631 1.50927 -2.74208 0
M  V30 3117 C 301.106 1.99692 -4.12174 0
M  V30 3118 N 302.597 2.06947 -4.144 0
M  V30 3119 C 303.332 2.45871 -5.1801 0
M  V30 3120 N 302.828 2.83862 -6.31977 0
M  V30 3121 N 304.621 2.46092 -5.05366 0
M  V30 3122 H 296.772 -0.0803548 -2.12248 0
M  V30 3123 H 299.035 0.0266913 -0.947624 0
M  V30 3124 H 298.741 0.688925 -3.44887 0
M  V30 3125 H 298.615 2.36347 -2.93973 0
M  V30 3126 H 301.002 2.20561 -1.96053 0
M  V30 3127 H 301.083 0.523627 -2.50383 0
M  V30 3128 H 300.727 1.30649 -4.90809 0
M  V30 3129 H 300.657 2.99146 -4.33381 0
M  V30 3130 H 303.148 1.80232 -3.32152 0
M  V30 3131 H 303.461 3.12405 -7.0684 0
M  V30 3132 H 301.806 2.8159 -6.35399 0
M  V30 3133 H 304.997 2.1581 -4.15384 0
M  V30 3134 H 305.17 2.76102 -5.86235 0
M  V30 3135 N 298.576 1.31904 0.862503 0
M  V30 3136 C 299.539 1.20131 1.95195 0
M  V30 3137 C 300.539 0.126409 1.60302 0
M  V30 3138 O 301.729 0.376234 1.70089 0
M  V30 3139 C 298.861 0.845691 3.30244 0
M  V30 3140 H 300.054 2.16943 2.07064 0
M  V30 3141 H 297.607 1.15622 1.05172 0
M  V30 3142 H 298.342 -0.120957 3.24074 0
M  V30 3143 H 298.127 1.62276 3.56944 0
M  V30 3144 H 299.617 0.787418 4.10109 0
M  V30 3145 N 300.054 -1.07777 1.14986 0
M  V30 3146 C 301.3 -1.80719 0.93339 0
M  V30 3147 C 301.655 -1.8484 -0.534019 0
M  V30 3148 O 300.948 -1.31795 -1.3907 0
M  V30 3149 C 301.142 -3.25495 1.47608 0
M  V30 3150 C 300.971 -3.3548 2.99472 0
M  V30 3151 C 299.741 -3.46293 3.6798 0
M  V30 3152 C 301.939 -3.26596 3.97291 0
M  V30 3153 N 299.921 -3.45136 5.07695 0
M  V30 3154 C 301.292 -3.32506 5.23297 0
M  V30 3155 C 303.347 -3.10376 3.89321 0
M  V30 3156 C 302.05 -3.23866 6.42264 0
M  V30 3157 C 304.076 -3.03069 5.07842 0
M  V30 3158 C 303.438 -3.09587 6.32721 0
M  V30 3159 H 299.537 -0.674814 0.395158 0
M  V30 3160 H 302.121 -1.28681 1.46114 0
M  V30 3161 H 300.292 -3.75963 0.975022 0
M  V30 3162 H 302.024 -3.86535 1.19887 0
M  V30 3163 H 298.779 -3.50456 3.18555 0
M  V30 3164 H 299.203 -3.48097 5.80653 0
M  V30 3165 H 303.845 -3.04194 2.93642 0
M  V30 3166 H 301.563 -3.28807 7.38181 0
M  V30 3167 H 305.149 -2.91629 5.03432 0
M  V30 3168 H 304.029 -3.0397 7.22891 0
M  V30 3169 N 301.532 -0.945985 -1.26051 0
M  V30 3170 C 302.495 -0.463897 -2.24456 0
M  V30 3171 C 303.495 0.427655 -1.55009 0
M  V30 3172 O 304.685 0.226157 -1.72726 0
M  V30 3173 C 301.817 0.330812 -3.39291 0
M  V30 3174 H 303.01 -1.33357 -2.68619 0
M  V30 3175 H 300.563 -0.728416 -1.38289 0
M  V30 3176 H 301.298 1.21852 -3.00537 0
M  V30 3177 H 301.083 -0.308679 -3.90883 0
M  V30 3178 H 302.573 0.657865 -4.12386 0
M  V30 3179 N 303.011 1.40521 -0.713556 0
M  V30 3180 C 303.943 2.29191 -0.0203126 0
M  V30 3181 C 304.956 1.45723 0.725864 0
M  V30 3182 O 306.145 1.69033 0.573581 0
M  V30 3183 C 303.245 3.2395 0.995486 0
M  V30 3184 C 302.418 4.36262 0.315256 0
M  V30 3185 C 301.477 5.11474 1.23616 0
M  V30 3186 O 300.503 5.64606 0.721719 0
M  V30 3187 N 301.705 5.20638 2.56743 0
M  V30 3188 H 304.47 2.89327 -0.781652 0
M  V30 3189 H 302.031 1.51869 -0.561022 0
M  V30 3190 H 304.023 3.71137 1.61368 0
M  V30 3191 H 302.593 2.64995 1.6582 0
M  V30 3192 H 301.813 3.91228 -0.483106 0
M  V30 3193 H 303.101 5.08558 -0.157004 0
M  V30 3194 H 302.499 4.7895 3.01037 0
M  V30 3195 H 301.056 5.71339 3.13712 0
M  V30 3196 N 304.489 0.459591 1.5075 0
M  V30 3197 C 305.729 -0.09824 2.04164 0
M  V30 3198 C 306.093 -1.3801 1.33481 0
M  V30 3199 O 307.294 -2.01959 1.77387 0
M  V30 3200 C 305.565 -0.289467 3.56226 0
M  V30 3201 S 307.124 -0.807507 4.31306 0
M  V30 3202 H 303.942 -0.0213845 0.710678 0
M  V30 3203 H 306.544 0.624098 1.85271 0
M  V30 3204 H 305.248 0.649461 4.05229 0
M  V30 3205 H 304.779 -1.03825 3.79452 0
M  V30 3206 H 306.794 -2.0824 4.50389 0
M  V30 3207 N 305.967 -1.56429 0.191757 0
M  V30 3208 C 307.197 -2.01574 -0.452928 0
M  V30 3209 C 307.605 -1.07107 -1.55964 0
M  V30 3210 O 306.948 -0.067534 -1.83576 0
M  V30 3211 C 307.01 -3.43121 -1.07278 0
M  V30 3212 C 306.674 -4.56879 -0.105214 0
M  V30 3213 C 307.671 -5.15379 0.684149 0
M  V30 3214 C 305.356 -5.023 0.00489824 0
M  V30 3215 C 307.35 -6.17746 1.57062 0
M  V30 3216 C 305.037 -6.04511 0.894935 0
M  V30 3217 C 306.035 -6.62108 1.67637 0
M  V30 3218 O 305.723 -7.62335 2.55149 0
M  V30 3219 H 305.455 -0.665554 -0.118379 0
M  V30 3220 H 308.009 -2.03245 0.296737 0
M  V30 3221 H 306.239 -3.38425 -1.87097 0
M  V30 3222 H 307.928 -3.72093 -1.62177 0
M  V30 3223 H 308.694 -4.81157 0.609365 0
M  V30 3224 H 304.573 -4.57168 -0.593156 0
M  V30 3225 H 308.117 -6.6263 2.181 0
M  V30 3226 H 304.014 -6.38157 0.970847 0
M  V30 3227 H 304.782 -7.79741 2.48892 0
M  V30 3228 N 307.445 0.0818655 -1.57387 0
M  V30 3229 C 308.393 1.11712 -2.04018 0
M  V30 3230 C 309.387 1.40683 -0.94364 0
M  V30 3231 O 310.593 1.40209 -1.12878 0
M  V30 3232 H 306.968 0.377542 -0.650358 0
M  V30 3233 H 308.939 0.697614 -2.90131 0
M  V30 3234 C 307.688 2.42537 -2.49141 0
M  V30 3235 H 307.011 2.21092 -3.33104 0
M  V30 3236 H 308.451 3.13446 -2.85531 0
M  V30 3237 C 306.91 3.0778 -1.37014 0
M  V30 3238 O 307.44 3.95436 -0.706621 0
M  V30 3239 N 305.646 2.68242 -1.11779 0
M  V30 3240 H 305.193 1.97052 -1.65917 0
M  V30 3241 H 305.151 3.1222 -0.369594 0
M  V30 3242 N 308.923 1.53595 0.353017 0
M  V30 3243 C 310.151 1.74311 1.1146 0
M  V30 3244 C 310.566 0.477854 1.82653 0
M  V30 3245 O 309.923 -0.549977 1.74016 0
M  V30 3246 C 309.974 2.91694 2.13534 0
M  V30 3247 O 309.695 4.13325 1.45238 0
M  V30 3248 C 311.196 3.24384 3.02142 0
M  V30 3249 H 308.416 0.582669 0.332773 0
M  V30 3250 H 310.96 2.00386 0.408107 0
M  V30 3251 H 309.115 2.67977 2.79763 0
M  V30 3252 H 309.529 4.79148 2.13349 0
M  V30 3253 H 311.003 4.09893 3.69718 0
M  V30 3254 H 311.48 2.40282 3.67643 0
M  V30 3255 H 312.086 3.50073 2.41514 0
M  V30 3256 N 310.401 -0.613514 1.45168 0
M  V30 3257 C 311.629 -1.39946 1.5239 0
M  V30 3258 C 312.044 -1.88167 0.154531 0
M  V30 3259 O 311.401 -1.61872 -0.842843 0
M  V30 3260 C 311.452 -2.60795 2.50337 0
M  V30 3261 O 311.173 -2.1458 3.81952 0
M  V30 3262 C 312.674 -3.53723 2.67198 0
M  V30 3263 H 309.894 -0.428593 0.516284 0
M  V30 3264 H 312.438 -0.748753 1.903 0
M  V30 3265 H 310.593 -3.21919 2.15515 0
M  V30 3266 H 311.007 -2.93055 4.34993 0
M  V30 3267 H 312.481 -4.35079 3.39721 0
M  V30 3268 H 312.958 -4.0368 1.73029 0
M  V30 3269 H 313.564 -2.98456 3.02992 0
M  V30 3270 N 311.879 -1.3236 -0.855495 0
M  V30 3271 C 313.125 -1.24064 -1.61182 0
M  V30 3272 C 313.48 0.195914 -1.914 0
M  V30 3273 O 312.773 1.13345 -1.54478 0
M  V30 3274 C 312.967 -2.03275 -2.93963 0
M  V30 3275 C 312.796 -3.54486 -2.76712 0
M  V30 3276 C 311.566 -4.23824 -2.75139 0
M  V30 3277 C 313.764 -4.49154 -2.50531 0
M  V30 3278 N 311.746 -5.61095 -2.4909 0
M  V30 3279 C 313.117 -5.74195 -2.3388 0
M  V30 3280 C 315.172 -4.3842 -2.35992 0
M  V30 3281 C 313.875 -6.89716 -2.04168 0
M  V30 3282 C 315.901 -5.53739 -2.0767 0
M  V30 3283 C 315.263 -6.77779 -1.9182 0
M  V30 3284 H 311.362 -0.509139 -0.59355 0
M  V30 3285 H 313.946 -1.66715 -1.00569 0
M  V30 3286 H 312.117 -1.6297 -3.52555 0
M  V30 3287 H 313.849 -1.86881 -3.58967 0
M  V30 3288 H 310.604 -3.75934 -2.88047 0
M  V30 3289 H 311.028 -6.33411 -2.38996 0
M  V30 3290 H 315.67 -3.43172 -2.46967 0
M  V30 3291 H 313.388 -7.84977 -1.9193 0
M  V30 3292 H 316.974 -5.4736 -1.97201 0
M  V30 3293 H 315.854 -7.65504 -1.70217 0
M  V30 3294 N 313.357 1.07166 -1.15556 0
M  V30 3295 C 314.582 1.84053 -0.955988 0
M  V30 3296 C 315.007 1.81586 0.490739 0
M  V30 3297 O 314.365 1.21018 1.34997 0
M  V30 3298 C 314.413 3.28957 -1.47714 0
M  V30 3299 O 313.517 4.06795 -0.677593 0
M  V30 3300 H 312.858 0.569842 -0.340847 0
M  V30 3301 H 315.388 1.35178 -1.53584 0
M  V30 3302 H 315.398 3.79788 -1.4908 0
M  V30 3303 H 314.073 3.30068 -2.53037 0
M  V30 3304 H 312.65 3.6561 -0.733721 0
M  V30 3305 N 314.835 0.952656 1.25548 0
M  V30 3306 C 315.745 0.47782 2.29682 0
M  V30 3307 C 316.761 -0.453859 1.67977 0
M  V30 3308 O 317.937 -0.330587 1.98668 0
M  V30 3309 C 315.002 -0.238655 3.45878 0
M  V30 3310 C 314.063 0.730994 4.23031 0
M  V30 3311 C 313.296 0.0486165 5.33678 0
M  V30 3312 O 313.519 -1.16612 5.58353 0
M  V30 3313 O 312.453 0.733152 5.97418 0
M  V30 3314 H 316.279 1.34312 2.72386 0
M  V30 3315 H 313.864 0.719026 1.30959 0
M  V30 3316 H 315.746 -0.641774 4.16484 0
M  V30 3317 H 314.421 -1.07916 3.05181 0
M  V30 3318 H 313.328 1.18428 3.5486 0
M  V30 3319 H 314.661 1.53946 4.67506 0
M  V30 3320 N 316.313 -1.40141 0.720998 0
M  V30 3321 C 317.559 -2.01572 0.272075 0
M  V30 3322 C 317.914 -1.5616 -1.12391 0
M  V30 3323 O 317.207 -0.774198 -1.75262 0
M  V30 3324 C 317.401 -3.56165 0.296892 0
M  V30 3325 C 317.23 -4.16584 1.69375 0
M  V30 3326 C 316 -4.49783 2.30269 0
M  V30 3327 C 318.198 -4.41076 2.64493 0
M  V30 3328 N 316.18 -4.95626 3.62254 0
M  V30 3329 C 317.551 -4.88971 3.81192 0
M  V30 3330 C 319.606 -4.23122 2.62435 0
M  V30 3331 C 318.309 -5.20796 4.96149 0
M  V30 3332 C 320.335 -4.56052 3.76524 0
M  V30 3333 C 319.697 -5.04141 4.91956 0
M  V30 3334 H 315.796 -0.768343 0.145511 0
M  V30 3335 H 318.38 -1.70287 0.943959 0
M  V30 3336 H 316.551 -3.86868 -0.344578 0
M  V30 3337 H 318.283 -4.04346 -0.169254 0
M  V30 3338 H 315.038 -4.37101 1.82318 0
M  V30 3339 H 315.462 -5.22923 4.29977 0
M  V30 3340 H 320.104 -3.85158 1.74393 0
M  V30 3341 H 317.822 -5.57672 5.84831 0
M  V30 3342 H 321.408 -4.43796 3.76213 0
M  V30 3343 H 320.288 -5.29142 5.78774 0
M  V30 3344 N 317.792 -0.46758 -1.50504 0
M  V30 3345 C 319.017 0.0886943 -2.0721 0
M  V30 3346 C 319.442 1.33057 -1.32956 0
M  V30 3347 O 318.8 1.77354 -0.376197 0
M  V30 3348 C 318.848 0.359202 -3.58806 0
M  V30 3349 O 317.952 1.44034 -3.8643 0
M  V30 3350 H 317.293 -0.0114349 -0.663902 0
M  V30 3351 H 319.823 -0.657613 -1.93744 0
M  V30 3352 H 319.833 0.600742 -4.03553 0
M  V30 3353 H 318.508 -0.548311 -4.1227 0
M  V30 3354 H 317.085 1.18638 -3.53524 0
M  V30 3355 N 319.27 1.56325 -0.20005 0
M  V30 3356 C 320.681 1.8408 0.31167 0
M  V30 3357 C 321.032 1.12087 1.61031 0
M  V30 3358 O 320.157 0.38332 2.12978 0
M  V30 3359 C 320.752 3.33932 0.57226 0
M  V30 3360 C 319.311 3.6208 1.02834 0
M  V30 3361 C 318.458 2.77186 0.079634 0
M  V30 3362 H 321.409 1.52939 -0.423729 0
M  V30 3363 H 321.43 3.52971 1.42096 0
M  V30 3364 H 320.942 3.86303 -0.37308 0
M  V30 3365 H 319.043 3.15147 1.98778 0
M  V30 3366 H 319.156 4.7023 0.917624 0
M  V30 3367 H 317.52 2.47951 0.582448 0
M  V30 3368 H 318.303 3.32347 -0.860238 0
M  V30 3369 N 320.748 -0.0735177 1.57428 0
M  V30 3370 C 321.973 -0.789787 1.91774 0
M  V30 3371 C 322.398 -1.70413 0.796306 0
M  V30 3372 O 321.756 -1.79555 -0.250961 0
M  V30 3373 C 321.804 -1.5609 3.25067 0
M  V30 3374 O 320.908 -2.67144 3.14178 0
M  V30 3375 H 320.249 -0.215582 0.628029 0
M  V30 3376 H 322.779 -0.0422781 2.04556 0
M  V30 3377 H 322.789 -1.94052 3.58898 0
M  V30 3378 H 321.464 -0.890015 4.06265 0
M  V30 3379 H 320.041 -2.32052 2.91901 0
M  V30 3380 N 322.226 -1.5378 -0.344866 0
M  V30 3381 C 323.454 -1.74899 -1.10534 0
M  V30 3382 C 323.869 -0.487534 -1.82397 0
M  V30 3383 O 323.226 0.540741 -1.74305 0
M  V30 3384 C 323.277 -2.92822 -2.11984 0
M  V30 3385 O 322.998 -4.14089 -1.43044 0
M  V30 3386 C 324.499 -3.25982 -3.00417 0
M  V30 3387 H 321.719 -0.584426 -0.329678 0
M  V30 3388 H 324.263 -2.006 -0.397474 0
M  V30 3389 H 322.418 -2.69457 -2.78338 0
M  V30 3390 H 322.832 -4.80272 -2.10805 0
M  V30 3391 H 324.306 -4.11848 -3.67539 0
M  V30 3392 H 324.783 -2.42228 -3.66363 0
M  V30 3393 H 325.389 -3.51349 -2.39654 0
M  V30 3394 N 323.704 0.605807 -1.45491 0
M  V30 3395 C 324.651 1.7164 -1.54299 0
M  V30 3396 C 325.621 1.61486 -0.388761 0
M  V30 3397 O 326.806 1.81039 -0.602445 0
M  V30 3398 C 323.946 3.09953 -1.51734 0
M  V30 3399 C 323.059 3.309 -2.77721 0
M  V30 3400 C 322.194 4.59329 -2.66816 0
M  V30 3401 C 321.233 4.7354 -3.87848 0
M  V30 3402 N 320.37 5.9327 -3.75467 0
M  V30 3403 H 325.21 1.63449 -2.49176 0
M  V30 3404 H 322.747 0.796957 -1.23641 0
M  V30 3405 H 324.705 3.89977 -1.48235 0
M  V30 3406 H 323.335 3.17098 -0.604068 0
M  V30 3407 H 322.387 2.44639 -2.913 0
M  V30 3408 H 323.699 3.37274 -3.67488 0
M  V30 3409 H 322.853 5.4755 -2.61292 0
M  V30 3410 H 321.592 4.55355 -1.74651 0
M  V30 3411 H 320.597 3.83741 -3.93729 0
M  V30 3412 H 321.822 4.79309 -4.81082 0
M  V30 3413 H 319.768 5.90338 -2.86072 0
M  V30 3414 H 319.685 6.00811 -4.5887 0
M  V30 3415 H 320.953 6.83984 -3.73879 0
M  V30 3416 N 325.182 1.32811 0.848464 0
M  V30 3417 C 326.428 1.24917 1.60522 0
M  V30 3418 C 326.783 -0.185761 1.91501 0
M  V30 3419 O 326.076 -1.12524 1.55077 0
M  V30 3420 C 326.27 2.04831 2.92881 0
M  V30 3421 C 326.099 3.55949 2.74828 0
M  V30 3422 C 324.869 4.25277 2.72887 0
M  V30 3423 C 327.067 4.50476 2.48145 0
M  V30 3424 N 325.049 5.62408 2.46111 0
M  V30 3425 C 326.42 5.75427 2.30832 0
M  V30 3426 C 328.475 4.39665 2.33664 0
M  V30 3427 C 327.178 6.90789 2.00508 0
M  V30 3428 C 329.204 5.54833 2.04731 0
M  V30 3429 C 328.566 6.78787 1.88223 0
M  V30 3430 H 324.665 0.512279 0.590842 0
M  V30 3431 H 327.249 1.67246 0.996839 0
M  V30 3432 H 325.42 1.64837 3.51686 0
M  V30 3433 H 327.152 1.88782 3.57971 0
M  V30 3434 H 323.907 3.77456 2.86049 0
M  V30 3435 H 324.331 6.3467 2.35634 0
M  V30 3436 H 328.973 3.44477 2.45144 0
M  V30 3437 H 326.691 7.85984 1.87765 0
M  V30 3438 H 330.277 5.48398 1.94295 0
M  V30 3439 H 329.157 7.66396 1.66155 0
M  V30 3440 N 326.66 -1.06551 1.16123 0
M  V30 3441 C 327.61 -2.12209 0.833736 0
M  V30 3442 C 328.594 -1.59825 -0.185656 0
M  V30 3443 O 329.786 -1.76994 0.0147906 0
M  V30 3444 C 326.915 -3.41674 0.333697 0
M  V30 3445 C 326.001 -4.00892 1.38372 0
M  V30 3446 N 326.392 -4.34256 2.59337 0
M  V30 3447 C 324.69 -4.28463 1.23836 0
M  V30 3448 C 325.391 -4.81291 3.26701 0
M  V30 3449 N 324.367 -4.80565 2.54083 0
M  V30 3450 H 328.169 -2.35849 1.75364 0
M  V30 3451 H 325.683 -1.24068 1.04789 0
M  V30 3452 H 327.68 -4.16822 0.0806918 0
M  V30 3453 H 326.34 -3.19475 -0.58017 0
M  V30 3454 H 327.351 -4.24687 2.96415 0
M  V30 3455 H 324.028 -4.15721 0.38504 0
M  V30 3456 H 325.418 -5.16332 4.29943 0
M  V30 3457 N 328.138 -0.959301 -1.25041 0
M  V30 3458 C 329.086 -0.474437 -2.2771 0
M  V30 3459 C 330.08 0.457697 -1.631 0
M  V30 3460 O 331.286 0.333912 -1.76876 0
M  V30 3461 H 327.661 -0.134936 -0.739795 0
M  V30 3462 H 329.632 -1.35251 -2.65988 0
M  V30 3463 C 328.381 0.227884 -3.46952 0
M  V30 3464 H 327.704 -0.480248 -3.96905 0
M  V30 3465 H 329.144 0.531091 -4.20661 0
M  V30 3466 C 327.603 1.452 -3.04004 0
M  V30 3467 O 328.133 2.54949 -3.10426 0
M  V30 3468 N 326.339 1.31502 -2.59144 0
M  V30 3469 H 325.886 0.422065 -2.54119 0
M  V30 3470 H 325.844 2.13521 -2.30773 0
M  V30 3471 N 329.616 1.39756 -0.72842 0
M  V30 3472 C 330.841 2.05472 -0.282159 0
M  V30 3473 C 331.266 1.54549 1.07221 0
M  V30 3474 O 330.624 0.686372 1.67805 0
M  V30 3475 C 330.672 3.59462 -0.286264 0
M  V30 3476 O 329.776 4.05918 0.728298 0
M  V30 3477 H 329.117 0.651226 -0.129618 0
M  V30 3478 H 331.647 1.78915 -0.992499 0
M  V30 3479 H 331.657 4.07798 -0.128373 0
M  V30 3480 H 330.332 3.95889 -1.27456 0
M  V30 3481 H 328.909 3.69012 0.537081 0
M  V30 3482 N 331.094 0.475555 1.50254 0
M  V30 3483 C 332.324 -0.0753399 2.06463 0
M  V30 3484 C 332.732 -1.33661 1.33908 0
M  V30 3485 O 332.075 -1.79219 0.403257 0
M  V30 3486 C 332.137 -0.424921 3.5698 0
M  V30 3487 C 331.801 0.734965 4.51051 0
M  V30 3488 C 332.798 1.61827 4.94073 0
M  V30 3489 C 330.483 0.926557 4.9368 0
M  V30 3490 C 332.477 2.67754 5.78434 0
M  V30 3491 C 330.164 1.98904 5.77824 0
M  V30 3492 C 331.162 2.8629 6.20103 0
M  V30 3493 O 330.85 3.90708 7.02568 0
M  V30 3494 H 330.582 0.00576308 0.675975 0
M  V30 3495 H 333.136 0.664662 1.94349 0
M  V30 3496 H 331.366 -1.21817 3.67012 0
M  V30 3497 H 333.055 -0.911422 3.95535 0
M  V30 3498 H 333.821 1.48196 4.61804 0
M  V30 3499 H 329.7 0.25584 4.6029 0
M  V30 3500 H 333.244 3.35992 6.11355 0
M  V30 3501 H 329.141 2.12541 6.09505 0
M  V30 3502 H 329.909 3.87751 7.20827 0
M  V30 3503 N 332.573 -1.56217 0.208337 0
M  V30 3504 C 333.989 -1.58919 -0.14729 0
M  V30 3505 C 334.189 -1.22486 -1.59998 0
M  V30 3506 O 333.245 -0.953849 -2.3379 0
M  V30 3507 C 334.558 -3.00236 0.167048 0
M  V30 3508 C 336.106 -3.12813 0.108219 0
M  V30 3509 C 336.581 -4.56284 0.396049 0
M  V30 3510 N 338.072 -4.61912 0.345142 0
M  V30 3511 C 338.807 -5.70837 0.541523 0
M  V30 3512 N 338.303 -6.88178 0.798968 0
M  V30 3513 N 340.096 -5.60091 0.474867 0
M  V30 3514 H 332.247 -1.78177 1.15614 0
M  V30 3515 H 334.51 -0.827555 0.462446 0
M  V30 3516 H 334.216 -3.31499 1.1748 0
M  V30 3517 H 334.09 -3.7354 -0.524184 0
M  V30 3518 H 336.477 -2.81354 -0.890157 0
M  V30 3519 H 336.558 -2.41866 0.832729 0
M  V30 3520 H 336.202 -4.88458 1.3918 0
M  V30 3521 H 336.132 -5.25439 -0.349502 0
M  V30 3522 H 338.623 -3.77589 0.153316 0
M  V30 3523 H 338.936 -7.67095 0.93727 0
M  V30 3524 H 337.281 -6.89953 0.836013 0
M  V30 3525 H 340.472 -4.67297 0.274064 0
M  V30 3526 H 340.645 -6.44917 0.631326 0
M  V30 3527 N 334.051 0.0651679 -1.57465 0
M  V30 3528 C 334.961 1.09448 -2.07505 0
M  V30 3529 C 335.977 1.41974 -1.00595 0
M  V30 3530 O 337.153 1.52018 -1.32107 0
M  V30 3531 C 334.218 2.38689 -2.51453 0
M  V30 3532 C 333.279 2.13073 -3.72691 0
M  V30 3533 C 332.512 3.36152 -4.14533 0
M  V30 3534 O 332.735 4.45517 -3.56189 0
M  V30 3535 O 331.669 3.23974 -5.07272 0
M  V30 3536 H 335.495 0.69935 -2.95538 0
M  V30 3537 H 333.08 0.279752 -1.46757 0
M  V30 3538 H 334.962 3.14736 -2.80212 0
M  V30 3539 H 333.637 2.77568 -1.66546 0
M  V30 3540 H 332.544 1.34709 -3.49005 0
M  V30 3541 H 333.877 1.79071 -4.5847 0
M  V30 3542 N 335.529 1.53961 0.336706 0
M  V30 3543 C 336.94 1.62914 0.911925 0
M  V30 3544 C 337.291 0.514795 1.89326 0
M  V30 3545 O 336.416 -0.354395 2.13478 0
M  V30 3546 C 337.011 2.95304 1.66076 0
M  V30 3547 C 335.57 3.06496 2.18489 0
M  V30 3548 C 334.717 2.58403 1.00613 0
M  V30 3549 H 337.668 1.58285 0.114649 0
M  V30 3550 H 337.689 2.84727 2.5241 0
M  V30 3551 H 337.201 3.76387 0.946276 0
M  V30 3552 H 335.302 2.3006 2.93092 0
M  V30 3553 H 335.415 4.1208 2.44391 0
M  V30 3554 H 333.779 2.13977 1.38152 0
M  V30 3555 H 334.562 3.41932 0.306179 0
M  V30 3556 N 337.007 -0.598083 1.45811 0
M  V30 3557 C 338.254 -1.35681 1.50323 0
M  V30 3558 C 338.582 -1.9393 0.148739 0
M  V30 3559 O 337.837 -1.76094 -0.853787 0
M  V30 3560 C 338.136 -2.51669 2.53766 0
M  V30 3561 C 337.802 -2.11508 3.98215 0
M  V30 3562 C 336.464 -2.0027 4.37545 0
M  V30 3563 C 338.816 -1.80308 4.89018 0
M  V30 3564 C 336.144 -1.56067 5.65562 0
M  V30 3565 C 338.496 -1.37589 6.17456 0
M  V30 3566 C 337.16 -1.24916 6.55708 0
M  V30 3567 H 336.43 -0.496492 0.550069 0
M  V30 3568 H 339.077 -0.675052 1.79207 0
M  V30 3569 H 337.382 -3.25225 2.18486 0
M  V30 3570 H 339.079 -3.09895 2.54492 0
M  V30 3571 H 335.669 -2.21185 3.67117 0
M  V30 3572 H 339.853 -1.87884 4.59362 0
M  V30 3573 H 335.109 -1.44886 5.93985 0
M  V30 3574 H 339.283 -1.12495 6.87254 0
M  V30 3575 H 336.91 -0.904386 7.54801 0
M  V30 3576 N 338.485 -1.33259 -0.841409 0
M  V30 3577 C 339.395 -1.25332 -1.98316 0
M  V30 3578 C 340.411 -0.164364 -1.73222 0
M  V30 3579 O 341.587 -0.387486 -1.97637 0
M  V30 3580 C 338.652 -0.990078 -3.32262 0
M  V30 3581 C 337.713 -2.16879 -3.70489 0
M  V30 3582 C 336.946 -1.91801 -4.98044 0
M  V30 3583 O 337.169 -0.867075 -5.63771 0
M  V30 3584 O 336.103 -2.78267 -5.33714 0
M  V30 3585 H 339.929 -2.21344 -2.07944 0
M  V30 3586 H 337.514 -1.1328 -0.974058 0
M  V30 3587 H 339.396 -0.860321 -4.12524 0
M  V30 3588 H 338.071 -0.0602155 -3.23644 0
M  V30 3589 H 336.978 -2.35407 -2.90748 0
M  V30 3590 H 338.311 -3.0819 -3.8377 0
M  V30 3591 N 339.963 1.05934 -1.16686 0
M  V30 3592 C 340.895 2.13468 -0.834503 0
M  V30 3593 C 341.908 1.62013 0.15984 0
M  V30 3594 O 343.097 1.7838 -0.0654228 0
M  V30 3595 C 340.197 3.3817 -0.222361 0
M  V30 3596 C 339.37 4.18928 -1.25771 0
M  V30 3597 C 338.429 5.21985 -0.664703 0
M  V30 3598 O 337.455 5.53334 -1.33453 0
M  V30 3599 N 338.657 5.77919 0.546834 0
M  V30 3600 H 341.422 2.42578 -1.75999 0
M  V30 3601 H 338.983 1.21967 -1.06469 0
M  V30 3602 H 340.975 4.04266 0.187472 0
M  V30 3603 H 339.545 3.06655 0.606758 0
M  V30 3604 H 338.765 3.48433 -1.84358 0
M  V30 3605 H 340.053 4.69687 -1.95631 0
M  V30 3606 H 339.451 5.54721 1.10912 0
M  V30 3607 H 338.008 6.45573 0.898829 0
M  V30 3608 N 341.441 0.965919 1.2453 0
M  V30 3609 C 342.391 0.465731 2.23193 0
M  V30 3610 C 343.375 -0.451277 1.54442 0
M  V30 3611 O 344.567 -0.282489 1.74731 0
M  V30 3612 C 341.696 -0.244511 3.42428 0
M  V30 3613 C 340.782 0.691222 4.18429 0
M  V30 3614 N 341.173 1.82771 4.71623 0
M  V30 3615 C 339.471 0.501649 4.4317 0
M  V30 3616 C 340.172 2.41285 5.29298 0
M  V30 3617 N 339.148 1.69819 5.16394 0
M  V30 3618 H 342.95 1.33291 2.61937 0
M  V30 3619 H 340.464 0.824789 1.39896 0
M  V30 3620 H 342.461 -0.620056 4.12263 0
M  V30 3621 H 341.121 -1.10815 3.05205 0
M  V30 3622 H 342.132 2.20929 4.68413 0
M  V30 3623 H 338.809 -0.318177 4.16286 0
M  V30 3624 H 340.199 3.37181 5.8117 0
M  V30 3625 N 342.919 -1.39368 0.735821 0
M  V30 3626 C 343.849 -2.33234 0.111506 0
M  V30 3627 C 344.83 -1.53954 -0.723334 0
M  V30 3628 O 346.015 -1.82344 -0.668147 0
M  V30 3629 C 343.145 -3.38057 -0.795917 0
M  V30 3630 C 342.099 -4.2795 -0.065172 0
M  V30 3631 C 341.425 -5.23479 -1.08967 0
M  V30 3632 C 342.725 -5.10741 1.09273 0
M  V30 3633 H 344.419 -2.85692 0.895571 0
M  V30 3634 H 341.965 -1.37364 0.432109 0
M  V30 3635 H 343.918 -4.02675 -1.24221 0
M  V30 3636 H 342.642 -2.8404 -1.61211 0
M  V30 3637 H 341.301 -3.64813 0.361511 0
M  V30 3638 H 340.949 -4.65758 -1.89944 0
M  V30 3639 H 340.649 -5.84472 -0.605489 0
M  V30 3640 H 342.173 -5.90974 -1.53565 0
M  V30 3641 H 343.587 -5.68699 0.724841 0
M  V30 3642 H 341.984 -5.8088 1.50659 0
M  V30 3643 H 343.054 -4.45525 1.91404 0
M  V30 3644 N 344.397 -0.483516 -1.5 0
M  V30 3645 C 345.327 0.293829 -2.31644 0
M  V30 3646 C 346.308 0.978864 -1.39112 0
M  V30 3647 O 347.493 0.973644 -1.68029 0
M  V30 3648 C 344.623 1.36897 -3.19181 0
M  V30 3649 C 343.577 0.804833 -4.20365 0
M  V30 3650 C 342.903 1.9792 -4.96721 0
M  V30 3651 C 344.203 -0.192313 -5.21946 0
M  V30 3652 H 345.897 -0.387616 -2.9688 0
M  V30 3653 H 343.443 -0.187856 -1.42769 0
M  V30 3654 H 345.396 1.92037 -3.751 0
M  V30 3655 H 344.12 2.07936 -2.51853 0
M  V30 3656 H 342.779 0.275319 -3.65565 0
M  V30 3657 H 342.427 2.67686 -4.25856 0
M  V30 3658 H 342.127 1.60789 -5.65173 0
M  V30 3659 H 343.651 2.53526 -5.55479 0
M  V30 3660 H 345.065 0.270333 -5.72662 0
M  V30 3661 H 343.462 -0.478543 -5.98189 0
M  V30 3662 H 344.532 -1.11409 -4.71928 0
M  V30 3663 N 345.875 1.56104 -0.216619 0
M  V30 3664 C 346.805 2.23063 0.690296 0
M  V30 3665 C 347.786 1.20072 1.20485 0
M  V30 3666 O 348.971 1.48643 1.24976 0
M  V30 3667 C 346.101 2.90672 1.90072 0
M  V30 3668 C 345.055 4.00092 1.5202 0
M  V30 3669 C 344.381 4.54972 2.80899 0
M  V30 3670 C 345.681 5.17398 0.71391 0
M  V30 3671 H 347.375 2.99109 0.132038 0
M  V30 3672 H 344.921 1.43866 0.0620664 0
M  V30 3673 H 346.874 3.36204 2.54057 0
M  V30 3674 H 345.598 2.12066 2.48386 0
M  V30 3675 H 344.257 3.55283 0.903839 0
M  V30 3676 H 343.905 3.73102 3.37348 0
M  V30 3677 H 343.605 5.28817 2.56176 0
M  V30 3678 H 345.129 5.0322 3.45836 0
M  V30 3679 H 346.543 5.59342 1.25735 0
M  V30 3680 H 344.94 5.97444 0.563951 0
M  V30 3681 H 346.01 4.84088 -0.280527 0
M  V30 3682 N 347.353 -0.0568162 1.57498 0
M  V30 3683 C 348.601 -0.751617 1.87604 0
M  V30 3684 C 348.922 -1.77351 0.81066 0
M  V30 3685 O 348.192 -1.95254 -0.159018 0
M  V30 3686 H 346.772 -0.280583 0.692302 0
M  V30 3687 H 349.434 -0.0293483 1.94878 0
M  V30 3688 H 348.53 -1.25852 2.856 0
M  V30 3689 N 348.832 -1.54138 -0.328536 0
M  V30 3690 C 350.078 -1.7236 -1.06865 0
M  V30 3691 C 350.411 -0.493231 -1.87832 0
M  V30 3692 O 349.686 0.5098 -1.877 0
M  V30 3693 C 349.969 -2.99621 -1.99747 0
M  V30 3694 C 349.822 -4.32899 -1.22143 0
M  V30 3695 C 351.141 -3.22615 -2.99345 0
M  V30 3696 H 348.26 -0.627151 -0.387105 0
M  V30 3697 H 350.902 -1.86827 -0.345767 0
M  V30 3698 H 349.052 -2.87418 -2.61387 0
M  V30 3699 H 350.724 -4.56978 -0.630017 0
M  V30 3700 H 348.967 -4.30628 -0.523628 0
M  V30 3701 H 349.638 -5.18154 -1.90318 0
M  V30 3702 H 352.114 -3.34248 -2.47826 0
M  V30 3703 H 350.99 -4.13027 -3.61524 0
M  V30 3704 H 351.251 -2.3961 -3.71536 0
M  V30 3705 N 350.31 0.590341 -1.46126 0
M  V30 3706 C 351.535 1.37991 -1.54833 0
M  V30 3707 C 351.96 1.87163 -0.187506 0
M  V30 3708 O 351.318 1.61133 0.831008 0
M  V30 3709 C 351.366 2.54867 -2.55098 0
M  V30 3710 O 350.47 3.56061 -2.08073 0
M  V30 3711 H 349.811 0.411265 -0.521303 0
M  V30 3712 H 352.341 0.716819 -1.91632 0
M  V30 3713 H 352.351 3.01886 -2.74461 0
M  V30 3714 H 351.026 2.18429 -3.53923 0
M  V30 3715 H 349.603 3.15574 -1.98664 0
M  V30 3716 N 351.788 1.33704 0.83433 0
M  V30 3717 C 353.034 1.25603 1.59222 0
M  V30 3718 C 353.367 -0.176659 1.93395 0
M  V30 3719 O 352.642 -1.11915 1.59076 0
M  V30 3720 C 352.925 2.13576 2.89926 0
M  V30 3721 C 352.778 3.65326 2.62406 0
M  V30 3722 C 354.097 2.01238 3.91397 0
M  V30 3723 H 351.216 0.457613 0.577719 0
M  V30 3724 H 353.858 1.63848 0.961972 0
M  V30 3725 H 352.008 1.8109 3.43713 0
M  V30 3726 H 353.68 4.08124 2.15017 0
M  V30 3727 H 351.923 3.8698 1.96033 0
M  V30 3728 H 352.594 4.22232 3.55562 0
M  V30 3729 H 355.07 2.29738 3.46929 0
M  V30 3730 H 353.946 2.65036 4.80673 0
M  V30 3731 H 354.207 0.985951 4.30966 0
M  V30 3732 N 353.266 -1.05314 1.17247 0
M  V30 3733 C 354.491 -1.82509 0.985148 0
M  V30 3734 C 354.916 -1.82343 -0.461788 0
M  V30 3735 O 354.274 -1.23151 -1.33055 0
M  V30 3736 C 354.322 -3.26566 1.52929 0
M  V30 3737 O 353.426 -4.05666 0.742225 0
M  V30 3738 H 352.767 -0.564347 0.349869 0
M  V30 3739 H 355.297 -1.32718 1.55715 0
M  V30 3740 H 355.307 -3.77369 1.55103 0
M  V30 3741 H 353.982 -3.26001 2.58256 0
M  V30 3742 H 352.559 -3.64397 0.791794 0
M  V30 3743 N 354.744 -0.972509 -1.24016 0
M  V30 3744 C 355.984 -0.644951 -1.93958 0
M  V30 3745 C 356.348 0.80559 -1.74282 0
M  V30 3746 O 357.549 1.2436 -2.38302 0
M  V30 3747 C 355.82 -1.01521 -3.42678 0
M  V30 3748 S 357.379 -0.802927 -4.31391 0
M  V30 3749 H 354.197 -0.236452 -0.670531 0
M  V30 3750 H 356.799 -1.25048 -1.50277 0
M  V30 3751 H 355.503 -2.06769 -3.54506 0
M  V30 3752 H 355.034 -0.400648 -3.91355 0
M  V30 3753 H 357.049 0.317256 -4.95185 0
M  V30 3754 N 356.222 1.38976 -0.743202 0
M  V30 3755 C 357.471 1.99581 -0.291592 0
M  V30 3756 C 357.784 1.59656 1.13001 0
M  V30 3757 O 358.99 2.13157 1.68156 0
M  V30 3758 C 357.446 3.56813 -0.470391 0
M  V30 3759 C 357.054 4.05695 -1.90041 0
M  V30 3760 C 358.798 4.24423 -0.0809709 0
M  V30 3761 C 356.705 5.5553 -2.02832 0
M  V30 3762 H 355.635 0.746615 -0.105272 0
M  V30 3763 H 358.286 1.58872 -0.918258 0
M  V30 3764 H 356.668 3.95359 0.225299 0
M  V30 3765 H 357.842 3.78464 -2.62872 0
M  V30 3766 H 356.157 3.50775 -2.24379 0
M  V30 3767 H 358.754 5.34474 -0.155445 0
M  V30 3768 H 359.097 4.04962 0.96497 0
M  V30 3769 H 359.63 3.9108 -0.728124 0
M  V30 3770 H 356.369 5.79881 -3.05643 0
M  V30 3771 H 355.889 5.84537 -1.34448 0
M  V30 3772 H 357.568 6.21069 -1.81335 0
M  V30 3773 N 357.7 0.491464 1.49741 0
M  V30 3774 C 358.946 -0.0565092 2.02721 0
M  V30 3775 C 359.279 -1.37522 1.37118 0
M  V30 3776 O 358.554 -1.87866 0.503645 0
M  V30 3777 C 358.837 -0.219051 3.59433 0
M  V30 3778 C 358.69 1.12211 4.35579 0
M  V30 3779 C 360.009 -0.964157 4.29409 0
M  V30 3780 H 357.128 -0.0190627 0.736753 0
M  V30 3781 H 359.77 0.641021 1.7886 0
M  V30 3782 H 357.92 -0.813165 3.79895 0
M  V30 3783 H 359.592 1.75437 4.26637 0
M  V30 3784 H 357.835 1.71377 3.98513 0
M  V30 3785 H 358.506 0.961794 5.43556 0
M  V30 3786 H 360.982 -0.460378 4.13545 0
M  V30 3787 H 359.858 -1.04671 5.38828 0
M  V30 3788 H 360.119 -2.00563 3.93988 0
M  V30 3789 N 359.178 -1.55987 0.224894 0
M  V30 3790 C 360.427 -1.97566 -0.406273 0
M  V30 3791 C 360.74 -1.11569 -1.6066 0
M  V30 3792 O 361.946 -1.43062 -2.3075 0
M  V30 3793 C 360.402 -3.51474 -0.774207 0
M  V30 3794 C 360.01 -4.46179 0.403496 0
M  V30 3795 C 361.754 -4.01758 -1.37079 0
M  V30 3796 C 359.661 -5.91399 0.0129412 0
M  V30 3797 H 358.591 -0.737777 -0.155565 0
M  V30 3798 H 361.242 -1.80659 0.321635 0
M  V30 3799 H 359.624 -3.63994 -1.55963 0
M  V30 3800 H 360.798 -4.45409 1.18101 0
M  V30 3801 H 359.113 -4.06255 0.913536 0
M  V30 3802 H 361.71 -5.07756 -1.67596 0
M  V30 3803 H 362.053 -3.47805 -2.28773 0
M  V30 3804 H 362.586 -3.92475 -0.648733 0
M  V30 3805 H 359.325 -6.49341 0.896451 0
M  V30 3806 H 358.845 -5.95356 -0.728821 0
M  V30 3807 H 360.524 -6.45683 -0.412582 0
M  V30 3808 N 360.656 0.0484629 -1.57525 0
M  V30 3809 C 361.586 1.0549 -2.08313 0
M  V30 3810 C 362.567 1.38929 -0.981463 0
M  V30 3811 O 363.752 1.48151 -1.25558 0
M  V30 3812 C 360.882 2.36162 -2.54646 0
M  V30 3813 C 359.836 2.17016 -3.68901 0
M  V30 3814 C 359.162 3.53278 -4.01371 0
M  V30 3815 C 360.462 1.57219 -4.98076 0
M  V30 3816 H 362.156 0.632195 -2.92649 0
M  V30 3817 H 359.702 0.302654 -1.40784 0
M  V30 3818 H 361.655 3.06882 -2.88793 0
M  V30 3819 H 360.379 2.80456 -1.67368 0
M  V30 3820 H 359.038 1.48733 -3.35073 0
M  V30 3821 H 358.686 3.95185 -3.11188 0
M  V30 3822 H 358.386 3.41299 -4.78318 0
M  V30 3823 H 359.91 4.25391 -4.38035 0
M  V30 3824 H 361.324 2.17832 -5.30304 0
M  V30 3825 H 359.721 1.55871 -5.79503 0
M  V30 3826 H 360.791 0.535956 -4.81929 0
M  V30 3827 N 362.134 1.5431 0.320358 0
M  V30 3828 C 363.097 1.83195 1.3774 0
M  V30 3829 C 364.097 0.703906 1.44575 0
M  V30 3830 O 365.287 0.972214 1.44546 0
M  V30 3831 C 362.419 1.99487 2.76438 0
M  V30 3832 H 363.612 2.77642 1.1338 0
M  V30 3833 H 361.165 1.46076 0.556012 0
M  V30 3834 H 361.9 1.07262 3.06048 0
M  V30 3835 H 361.685 2.81575 2.7287 0
M  V30 3836 H 363.175 2.23271 3.52902 0
M  V30 3837 N 363.613 -0.582584 1.46437 0
M  V30 3838 C 364.859 -1.34278 1.51978 0
M  V30 3839 C 365.192 -1.93446 0.170973 0
M  V30 3840 O 364.467 -1.76481 -0.817608 0
M  V30 3841 C 364.75 -2.47203 2.61845 0
M  V30 3842 C 364.603 -1.93069 4.06257 0
M  V30 3843 C 365.922 -3.49247 2.67795 0
M  V30 3844 H 363.041 -0.486876 0.553282 0
M  V30 3845 H 365.683 -0.654437 1.78374 0
M  V30 3846 H 363.833 -3.0592 2.39469 0
M  V30 3847 H 365.505 -1.38808 4.3992 0
M  V30 3848 H 363.748 -1.23898 4.1573 0
M  V30 3849 H 364.419 -2.74586 4.7886 0
M  V30 3850 H 366.895 -3.00411 2.8791 0
M  V30 3851 H 365.771 -4.25719 3.46489 0
M  V30 3852 H 366.032 -4.06482 1.73852 0
M  V30 3853 N 365.091 -1.34144 -0.827227 0
M  V30 3854 C 366.331 -1.27603 -1.59677 0
M  V30 3855 C 366.695 0.153035 -1.91389 0
M  V30 3856 O 367.896 0.342566 -2.66608 0
M  V30 3857 C 366.167 -2.13784 -2.86411 0
M  V30 3858 S 367.726 -2.24552 -3.76991 0
M  V30 3859 H 364.544 -0.453789 -0.547354 0
M  V30 3860 H 367.146 -1.69309 -0.977479 0
M  V30 3861 H 365.85 -3.16627 -2.61104 0
M  V30 3862 H 365.381 -1.72959 -3.5334 0
M  V30 3863 H 367.396 -1.41514 -4.75593 0
M  V30 3864 N 366.569 1.04691 -1.17803 0
M  V30 3865 C 367.499 2.14494 -0.92275 0
M  V30 3866 C 368.48 1.69546 0.137179 0
M  V30 3867 O 369.665 1.94195 -0.0141108 0
M  V30 3868 C 366.795 3.44491 -0.440803 0
M  V30 3869 C 365.749 4.03031 -1.4405 0
M  V30 3870 C 365.075 5.28432 -0.81631 0
M  V30 3871 C 366.375 4.39932 -2.81527 0
M  V30 3872 H 368.069 2.36107 -1.84103 0
M  V30 3873 H 365.615 1.1347 -0.886599 0
M  V30 3874 H 367.568 4.2066 -0.249602 0
M  V30 3875 H 366.292 3.22546 0.513025 0
M  V30 3876 H 364.951 3.28937 -1.61853 0
M  V30 3877 H 364.599 5.02792 0.144511 0
M  V30 3878 H 364.299 5.68559 -1.48371 0
M  V30 3879 H 365.823 6.07284 -0.635496 0
M  V30 3880 H 367.237 5.07113 -2.67412 0
M  V30 3881 H 365.634 4.9109 -3.44892 0
M  V30 3882 H 366.704 3.50045 -3.35554 0
M  V30 3883 N 368.047 0.979072 1.23499 0
M  V30 3884 C 368.977 0.537606 2.27227 0
M  V30 3885 C 369.958 -0.428539 1.64613 0
M  V30 3886 O 371.143 -0.322191 1.91509 0
M  V30 3887 C 368.273 -0.162052 3.46922 0
M  V30 3888 C 367.227 0.721242 4.21879 0
M  V30 3889 C 366.553 -0.110555 5.34586 0
M  V30 3890 C 367.853 2.01141 4.82016 0
M  V30 3891 H 369.547 1.40462 2.64406 0
M  V30 3892 H 367.093 0.67684 1.27102 0
M  V30 3893 H 369.046 -0.482192 4.18632 0
M  V30 3894 H 367.77 -1.06351 3.08799 0
M  V30 3895 H 366.429 1.02482 3.51984 0
M  V30 3896 H 366.077 -1.0125 4.92704 0
M  V30 3897 H 365.777 0.477325 5.85658 0
M  V30 3898 H 367.301 -0.425107 6.09118 0
M  V30 3899 H 368.715 1.75612 5.45741 0
M  V30 3900 H 367.112 2.54695 5.43369 0
M  V30 3901 H 368.182 2.69909 4.02836 0
M  V30 3902 N 369.525 -1.3858 0.750561 0
M  V30 3903 C 370.765 -2.02032 0.310258 0
M  V30 3904 C 371.129 -1.58288 -1.08668 0
M  V30 3905 O 372.33 -2.14049 -1.62593 0
M  V30 3906 C 370.601 -3.54856 0.425647 0
M  V30 3907 S 372.16 -4.38748 0.0674797 0
M  V30 3908 H 368.978 -0.700705 0.120554 0
M  V30 3909 H 371.58 -1.69134 0.980512 0
M  V30 3910 H 370.284 -3.84182 1.44335 0
M  V30 3911 H 369.815 -3.92527 -0.261894 0
M  V30 3912 H 371.83 -4.82835 -1.14388 0
M  V30 3913 N 371.003 -0.499398 -1.49478 0
M  V30 3914 C 372.233 0.0424839 -2.06556 0
M  V30 3915 C 372.641 1.31514 -1.36018 0
M  V30 3916 O 371.984 1.78555 -0.431718 0
M  V30 3917 C 372.046 0.368074 -3.57611 0
M  V30 3918 C 371.71 -0.806631 -4.49825 0
M  V30 3919 C 372.707 -1.69667 -4.91436 0
M  V30 3920 C 370.392 -1.00498 -4.92144 0
M  V30 3921 C 372.386 -2.76923 -5.74101 0
M  V30 3922 C 370.073 -2.08072 -5.74586 0
M  V30 3923 C 371.071 -2.96119 -6.15469 0
M  V30 3924 O 370.759 -4.01836 -6.96264 0
M  V30 3925 H 370.491 -0.0165165 -0.675798 0
M  V30 3926 H 373.045 -0.695497 -1.93267 0
M  V30 3927 H 371.275 1.15963 -3.68903 0
M  V30 3928 H 372.964 0.848381 -3.96935 0
M  V30 3929 H 373.73 -1.55524 -4.59388 0
M  V30 3930 H 369.609 -0.329036 -4.59824 0
M  V30 3931 H 373.153 -3.45676 -6.05932 0
M  V30 3932 H 369.05 -2.22211 -6.06047 0
M  V30 3933 H 369.818 -3.9917 -7.14567 0
M  V30 3934 N 372.481 1.55866 -0.233164 0
M  V30 3935 C 373.727 1.98897 0.395959 0
M  V30 3936 C 374.06 1.12091 1.58585 0
M  V30 3937 O 373.335 0.181182 1.93654 0
M  V30 3938 C 373.618 3.50658 0.819224 0
M  V30 3939 C 373.471 4.48233 -0.375109 0
M  V30 3940 C 374.79 4.07135 1.67121 0
M  V30 3941 H 371.909 0.723102 0.142451 0
M  V30 3942 H 374.551 1.87082 -0.331725 0
M  V30 3943 H 372.701 3.60857 1.43925 0
M  V30 3944 H 374.373 4.50031 -1.01341 0
M  V30 3945 H 372.616 4.21624 -1.02058 0
M  V30 3946 H 373.287 5.51988 -0.0358328 0
M  V30 3947 H 375.763 3.99952 1.14795 0
M  V30 3948 H 374.639 5.13615 1.93625 0
M  V30 3949 H 374.9 3.54736 2.63846 0
M  V30 3950 N 373.959 -0.0401083 1.57549 0
M  V30 3951 C 375.184 -0.748931 1.93406 0
M  V30 3952 C 375.609 -1.68686 0.832274 0
M  V30 3953 O 374.967 -1.80047 -0.212818 0
M  V30 3954 C 375.015 -1.4916 3.28304 0
M  V30 3955 O 374.119 -2.6042 3.19774 0
M  V30 3956 H 373.46 -0.202212 0.63246 0
M  V30 3957 H 375.99 0.00112086 2.046 0
M  V30 3958 H 376 -1.86395 3.62934 0
M  V30 3959 H 374.675 -0.80364 4.08062 0
M  V30 3960 H 373.252 -2.25808 2.96758 0
M  V30 3961 N 375.437 -1.54477 -0.31217 0
M  V30 3962 C 376.686 -1.72438 -1.04633 0
M  V30 3963 C 376.999 -0.511163 -1.88803 0
M  V30 3964 O 378.205 -0.572341 -2.65399 0
M  V30 3965 C 376.661 -3.05043 -1.9099 0
M  V30 3966 C 376.269 -4.33806 -1.11877 0
M  V30 3967 C 378.013 -3.32364 -2.64073 0
M  V30 3968 C 375.92 -5.57467 -1.97445 0
M  V30 3969 H 374.85 -0.642647 -0.394361 0
M  V30 3970 H 377.501 -1.80966 -0.303929 0
M  V30 3971 H 375.883 -2.90451 -2.69173 0
M  V30 3972 H 377.057 -4.59199 -0.383843 0
M  V30 3973 H 375.372 -4.13336 -0.504252 0
M  V30 3974 H 377.969 -4.21951 -3.28423 0
M  V30 3975 H 378.312 -2.50745 -3.32314 0
M  V30 3976 H 378.845 -3.47875 -1.92944 0
M  V30 3977 H 375.584 -6.41722 -1.33692 0
M  V30 3978 H 375.104 -5.36277 -2.6864 0
M  V30 3979 H 376.783 -5.94303 -2.5576 0
M  V30 3980 N 376.915 0.57481 -1.46744 0
M  V30 3981 C 378.143 1.35856 -1.56047 0
M  V30 3982 C 378.558 1.87691 -0.204365 0
M  V30 3983 O 377.915 1.64049 0.79963 0
M  V30 3984 C 377.966 2.54066 -2.57163 0
M  V30 3985 O 377.687 2.04377 -3.87507 0
M  V30 3986 C 379.188 3.46514 -2.76483 0
M  V30 3987 H 376.408 0.414754 -0.527466 0
M  V30 3988 H 378.952 0.698035 -1.92218 0
M  V30 3989 H 377.107 3.16092 -2.23974 0
M  V30 3990 H 377.521 2.81419 -4.4261 0
M  V30 3991 H 378.995 4.25919 -3.51137 0
M  V30 3992 H 379.472 3.98951 -1.83671 0
M  V30 3993 H 380.078 2.90318 -3.10799 0
M  V30 3994 N 378.394 1.34581 0.820102 0
M  V30 3995 C 379.341 1.2639 1.93117 0
M  V30 3996 C 380.311 0.138554 1.65521 0
M  V30 3997 O 381.496 0.320004 1.88097 0
M  V30 3998 C 378.636 1.02812 3.29429 0
M  V30 3999 C 377.749 2.24146 3.693 0
M  V30 4000 C 376.884 1.93829 4.94574 0
M  V30 4001 C 375.923 3.1129 5.27034 0
M  V30 4002 N 375.06 2.80838 6.43486 0
M  V30 4003 H 379.9 2.21408 1.99455 0
M  V30 4004 H 377.437 1.10077 0.975784 0
M  V30 4005 H 379.395 0.871788 4.0799 0
M  V30 4006 H 378.025 0.114612 3.22596 0
M  V30 4007 H 377.077 2.50691 2.86109 0
M  V30 4008 H 378.389 3.11899 3.89257 0
M  V30 4009 H 377.543 1.74948 5.80929 0
M  V30 4010 H 376.282 1.03341 4.76626 0
M  V30 4011 H 375.287 3.30764 4.39175 0
M  V30 4012 H 376.512 4.02561 5.4692 0
M  V30 4013 H 374.458 1.92929 6.26988 0
M  V30 4014 H 374.375 3.62123 6.63629 0
M  V30 4015 H 375.643 2.65467 7.32903 0
M  V30 4016 N 379.872 -1.04064 1.18357 0
M  V30 4017 C 381.121 -1.76662 0.973313 0
M  V30 4018 C 381.434 -1.89154 -0.497991 0
M  V30 4019 O 382.64 -2.58606 -0.826762 0
M  V30 4020 C 381.096 -3.17624 1.69242 0
M  V30 4021 C 380.704 -3.13225 3.20303 0
M  V30 4022 C 382.448 -3.946 1.56497 0
M  V30 4023 C 380.355 -4.49046 3.84853 0
M  V30 4024 H 379.285 -0.662214 0.36054 0
M  V30 4025 H 381.936 -1.16553 1.41731 0
M  V30 4026 H 380.318 -3.78129 1.1762 0
M  V30 4027 H 381.492 -2.62172 3.78949 0
M  V30 4028 H 379.807 -2.49749 3.33189 0
M  V30 4029 H 382.404 -4.95042 2.02084 0
M  V30 4030 H 382.747 -4.13074 0.517243 0
M  V30 4031 H 383.28 -3.4067 2.05399 0
M  V30 4032 H 380.019 -4.35777 4.89672 0
M  V30 4033 H 379.539 -5.00203 3.30994 0
M  V30 4034 H 381.218 -5.17961 3.87718 0
M  V30 4035 N 381.35 -0.985608 -1.22978 0
M  V30 4036 C 382.297 -0.529825 -2.24636 0
M  V30 4037 C 383.267 0.434028 -1.60329 0
M  V30 4038 O 384.452 0.340414 -1.87739 0
M  V30 4039 C 381.592 0.156533 -3.44745 0
M  V30 4040 C 380.705 -0.848197 -4.23591 0
M  V30 4041 C 379.84 -0.136109 -5.31026 0
M  V30 4042 C 378.879 -1.1297 -6.01585 0
M  V30 4043 N 378.016 -0.446415 -7.00679 0
M  V30 4044 H 382.856 -1.40148 -2.62988 0
M  V30 4045 H 380.393 -0.702168 -1.29259 0
M  V30 4046 H 382.351 0.571324 -4.1327 0
M  V30 4047 H 380.981 0.992025 -3.07179 0
M  V30 4048 H 380.033 -1.38135 -3.54433 0
M  V30 4049 H 381.345 -1.60512 -4.72268 0
M  V30 4050 H 380.499 0.335784 -6.0577 0
M  V30 4051 H 379.238 0.653373 -4.83304 0
M  V30 4052 H 378.243 -1.6123 -5.25628 0
M  V30 4053 H 379.468 -1.91993 -6.51395 0
M  V30 4054 H 377.414 0.323763 -6.55201 0
M  V30 4055 H 377.331 -1.1419 -7.47326 0
M  V30 4056 H 378.599 0.00291697 -7.795 0
M  V30 4057 N 382.828 1.3818 -0.7579 0
M  V30 4058 C 383.775 2.30416 -0.133057 0
M  V30 4059 C 384.745 1.50398 0.704957 0
M  V30 4060 O 385.93 1.79014 0.660192 0
M  V30 4061 C 383.07 3.36834 0.750813 0
M  V30 4062 C 382.183 4.31879 -0.102297 0
M  V30 4063 C 381.318 5.25368 0.784979 0
M  V30 4064 C 380.357 6.12058 -0.0715046 0
M  V30 4065 N 379.494 6.97832 0.772972 0
M  V30 4066 H 384.334 2.83274 -0.925186 0
M  V30 4067 H 381.871 1.39461 -0.467866 0
M  V30 4068 H 383.829 3.97145 1.27794 0
M  V30 4069 H 382.459 2.85374 1.50868 0
M  V30 4070 H 381.511 3.72991 -0.747095 0
M  V30 4071 H 382.823 4.92921 -0.763552 0
M  V30 4072 H 381.977 5.90818 1.37911 0
M  V30 4073 H 380.716 4.64703 1.47996 0
M  V30 4074 H 379.721 5.456 -0.678272 0
M  V30 4075 H 380.946 6.74793 -0.763606 0
M  V30 4076 H 378.892 6.3971 1.45282 0
M  V30 4077 H 378.809 7.55812 0.168709 0
M  V30 4078 H 380.077 7.67687 1.35194 0
M  V30 4079 N 384.306 0.507319 1.49211 0
M  V30 4080 C 385.216 -0.272136 2.33016 0
M  V30 4081 C 386.232 -0.961206 1.45041 0
M  V30 4082 O 387.408 -0.941191 1.78055 0
M  V30 4083 C 384.473 -1.31895 3.20631 0
M  V30 4084 C 383.534 -0.642648 4.24463 0
M  V30 4085 C 382.767 -1.63959 5.07891 0
M  V30 4086 O 382.99 -2.87007 4.92933 0
M  V30 4087 O 381.924 -1.19143 5.8999 0
M  V30 4088 H 385.75 0.413982 3.00865 0
M  V30 4089 H 383.335 0.268556 1.46966 0
M  V30 4090 H 385.217 -1.92446 3.7489 0
M  V30 4091 H 383.892 -1.98788 2.5547 0
M  V30 4092 H 382.799 0.00276252 3.741 0
M  V30 4093 H 384.132 -0.0160534 4.92197 0
M  V30 4094 N 385.784 -1.5574 0.241426 0
M  V30 4095 C 387.03 -1.99846 -0.378555 0
M  V30 4096 C 387.385 -1.12665 -1.55963 0
M  V30 4097 O 386.678 -0.180966 -1.90743 0
M  V30 4098 C 386.872 -3.47308 -0.843317 0
M  V30 4099 C 386.701 -4.48756 0.291178 0
M  V30 4100 C 385.471 -4.9949 0.764077 0
M  V30 4101 C 387.669 -5.02039 1.11631 0
M  V30 4102 N 385.651 -5.84676 1.87156 0
M  V30 4103 C 387.022 -5.84343 2.07226 0
M  V30 4104 C 389.077 -4.84354 1.15349 0
M  V30 4105 C 387.78 -6.50851 3.06245 0
M  V30 4106 C 389.806 -5.51636 2.13195 0
M  V30 4107 C 389.168 -6.33724 3.07528 0
M  V30 4108 H 385.267 -0.774968 -0.104634 0
M  V30 4109 H 387.851 -1.91385 0.357751 0
M  V30 4110 H 386.022 -3.56178 -1.54893 0
M  V30 4111 H 387.754 -3.78299 -1.43779 0
M  V30 4112 H 384.509 -4.72311 0.349175 0
M  V30 4113 H 384.933 -6.31967 2.42789 0
M  V30 4114 H 389.575 -4.20525 0.438057 0
M  V30 4115 H 387.293 -7.1385 3.78739 0
M  V30 4116 H 390.879 -5.39909 2.16771 0
M  V30 4117 H 389.759 -6.84867 3.82003 0
M  V30 4118 N 387.262 0.0317525 -1.57568 0
M  V30 4119 C 388.508 0.718712 -1.90279 0
M  V30 4120 C 388.863 1.73108 -0.839727 0
M  V30 4121 O 388.156 1.90997 0.15188 0
M  V30 4122 C 388.35 1.43167 -3.27472 0
M  V30 4123 C 388.179 0.489869 -4.47024 0
M  V30 4124 C 386.949 0.111909 -5.05176 0
M  V30 4125 C 389.147 -0.230592 -5.13783 0
M  V30 4126 N 387.129 -0.831427 -6.08244 0
M  V30 4127 C 388.5 -1.02968 -6.1139 0
M  V30 4128 C 390.555 -0.297821 -4.97008 0
M  V30 4129 C 389.258 -1.88982 -6.9403 0
M  V30 4130 C 391.284 -1.14507 -5.80209 0
M  V30 4131 C 390.646 -1.9321 -6.77384 0
M  V30 4132 H 386.745 0.237177 -0.745165 0
M  V30 4133 H 389.329 -0.0211267 -1.94689 0
M  V30 4134 H 387.5 2.14199 -3.23996 0
M  V30 4135 H 389.232 2.0708 -3.47707 0
M  V30 4136 H 385.987 0.473513 -4.71227 0
M  V30 4137 H 386.411 -1.29752 -6.6445 0
M  V30 4138 H 391.053 0.296346 -4.2176 0
M  V30 4139 H 388.771 -2.4948 -7.68626 0
M  V30 4140 H 392.357 -1.20059 -5.69278 0
M  V30 4141 H 391.237 -2.57711 -7.40645 0
M  V30 4142 N 388.74 1.54641 0.303973 0
M  V30 4143 C 390.017 1.64455 1.05896 0
M  V30 4144 C 390.397 0.490923 2.05312 0
M  V30 4145 O 389.745 -0.512685 2.22674 0
M  V30 4146 C 389.955 3.02331 1.74347 0
M  V30 4147 C 391.303 3.59045 2.26653 0
M  V30 4148 O 392.327 3.04764 1.84384 0
M  V30 4149 O 391.186 4.54081 3.04093 0
M  V30 4150 H 388.28 0.666729 0.489287 0
M  V30 4151 H 390.826 1.66986 0.302298 0
M  V30 4152 H 389.598 3.77734 1.02142 0
M  V30 4153 H 389.221 3.03565 2.56777 0
M  V30 4154 N 390.218 -0.567019 1.47046 0
M  V30 4155 C 391.15 -1.68985 1.54844 0
M  V30 4156 C 392.163 -1.56869 0.435431 0
M  V30 4157 O 393.352 -1.64006 0.70457 0
M  V30 4158 C 390.452 -3.07373 1.42742 0
M  V30 4159 C 389.625 -3.45339 2.6844 0
M  V30 4160 C 388.684 -4.62849 2.50314 0
M  V30 4161 O 387.71 -4.67922 3.24095 0
M  V30 4162 N 388.912 -5.58726 1.57499 0
M  V30 4163 H 391.677 -1.62745 2.51663 0
M  V30 4164 H 389.238 -0.753411 1.43302 0
M  V30 4165 H 391.23 -3.83803 1.28365 0
M  V30 4166 H 389.8 -3.07893 0.540445 0
M  V30 4167 H 389.02 -2.58455 2.97648 0
M  V30 4168 H 390.308 -3.67476 3.51907 0
M  V30 4169 H 389.706 -5.57376 0.966876 0
M  V30 4170 H 388.263 -6.34523 1.49078 0
M  V30 4171 N 391.696 -1.35014 -0.812953 0
M  V30 4172 C 392.945 -1.27269 -1.56479 0
M  V30 4173 C 393.258 0.152771 -1.95002 0
M  V30 4174 O 394.464 0.352451 -2.69203 0
M  V30 4175 C 392.92 -2.23159 -2.82362 0
M  V30 4176 C 392.528 -3.71016 -2.511 0
M  V30 4177 C 394.272 -2.24342 -3.60376 0
M  V30 4178 C 392.179 -4.58746 -3.73237 0
M  V30 4179 H 391.109 -0.472829 -0.587324 0
M  V30 4180 H 393.76 -1.6024 -0.894171 0
M  V30 4181 H 392.142 -1.83151 -3.51101 0
M  V30 4182 H 393.316 -4.1962 -1.90409 0
M  V30 4183 H 391.631 -3.72378 -1.86343 0
M  V30 4184 H 394.228 -2.87107 -4.51081 0
M  V30 4185 H 394.571 -1.24542 -3.97234 0
M  V30 4186 H 395.104 -2.62846 -2.98591 0
M  V30 4187 H 391.843 -5.59521 -3.41492 0
M  V30 4188 H 391.363 -4.14871 -4.33176 0
M  V30 4189 H 393.042 -4.73852 -4.40537 0
M  V30 4190 N 393.175 1.03435 -1.18907 0
M  V30 4191 C 394.586 1.58195 -0.991523 0
M  V30 4192 C 394.937 1.90801 0.457081 0
M  V30 4193 O 394.062 1.70272 1.33553 0
M  V30 4194 C 394.657 2.87432 -1.79355 0
M  V30 4195 C 393.216 3.38785 -1.64017 0
M  V30 4196 C 392.363 2.12292 -1.78402 0
M  V30 4197 H 395.314 0.860299 -1.33359 0
M  V30 4198 H 395.335 3.58096 -1.28638 0
M  V30 4199 H 394.847 2.63669 -2.84781 0
M  V30 4200 H 392.948 3.67547 -0.611536 0
M  V30 4201 H 393.061 4.12186 -2.44212 0
M  V30 4202 H 391.425 2.23901 -1.2141 0
M  V30 4203 H 392.208 1.90977 -2.85277 0
M  V30 4204 N 394.653 0.992116 1.22453 0
M  V30 4205 C 395.601 0.534644 2.26372 0
M  V30 4206 C 396.595 -0.414293 1.64256 0
M  V30 4207 O 397.801 -0.286899 1.77699 0
M  V30 4208 H 394.176 0.154502 0.735957 0
M  V30 4209 H 396.147 1.42256 2.62309 0
M  V30 4210 C 394.896 -0.135815 3.47435 0
M  V30 4211 H 394.219 0.585311 3.95492 0
M  V30 4212 H 395.659 -0.419374 4.21921 0
M  V30 4213 C 394.118 -1.37089 3.07747 0
M  V30 4214 O 394.648 -2.46629 3.17076 0
M  V30 4215 N 392.854 -1.24585 2.62539 0
M  V30 4216 H 392.401 -0.354542 2.55149 0
M  V30 4217 H 392.359 -2.07327 2.36353 0
M  V30 4218 N 396.131 -1.37776 0.765217 0
M  V30 4219 C 397.542 -1.82521 0.392819 0
M  V30 4220 C 397.893 -1.63789 -1.08017 0
M  V30 4221 O 397.018 -1.14542 -1.83601 0
M  V30 4222 C 397.613 -3.31358 0.706214 0
M  V30 4223 C 396.172 -3.74406 0.386952 0
M  V30 4224 C 395.319 -2.60394 0.953422 0
M  V30 4225 H 398.27 -1.2634 0.960412 0
M  V30 4226 H 398.291 -3.80498 -0.0114706 0
M  V30 4227 H 397.803 -3.44959 1.77833 0
M  V30 4228 H 395.904 -3.66377 -0.678112 0
M  V30 4229 H 396.017 -4.70749 0.890636 0
M  V30 4230 H 394.381 -2.51878 0.378064 0
M  V30 4231 H 395.164 -2.76791 2.03081 0
M  V30 4232 N 397.609 -0.515225 -1.4894 0
M  V30 4233 C 398.572 0.244681 -2.2789 0
M  V30 4234 C 399.572 0.881166 -1.34507 0
M  V30 4235 O 400.762 0.743497 -1.57537 0
M  V30 4236 C 397.894 1.35247 -3.12923 0
M  V30 4237 H 399.087 -0.448289 -2.96531 0
M  V30 4238 H 396.64 -0.270656 -1.53939 0
M  V30 4239 H 397.375 2.07916 -2.48881 0
M  V30 4240 H 397.16 0.901374 -3.81599 0
M  V30 4241 H 398.65 1.88737 -3.72516 0
M  V30 4242 N 399.087 1.5561 -0.249682 0
M  V30 4243 C 400.503 1.59254 0.105103 0
M  V30 4244 C 400.703 1.26685 1.56694 0
M  V30 4245 O 399.759 1.0155 2.31179 0
M  V30 4246 C 401.072 2.99687 -0.246592 0
M  V30 4247 C 402.62 3.12416 -0.191118 0
M  V30 4248 C 403.095 4.55074 -0.516885 0
M  V30 4249 N 404.586 4.60835 -0.467489 0
M  V30 4250 C 405.321 5.69201 -0.69268 0
M  V30 4251 N 404.817 6.85817 -0.981146 0
M  V30 4252 N 406.61 5.58635 -0.623198 0
M  V30 4253 H 398.761 1.75049 -1.20298 0
M  V30 4254 H 401.024 0.815003 -0.484225 0
M  V30 4255 H 400.73 3.28267 -1.26228 0
M  V30 4256 H 400.604 3.74798 0.424962 0
M  V30 4257 H 402.991 2.83615 0.815247 0
M  V30 4258 H 403.072 2.39573 -0.896563 0
M  V30 4259 H 402.716 4.84596 -1.52082 0
M  V30 4260 H 402.646 5.26181 0.210068 0
M  V30 4261 H 405.137 3.7705 -0.253373 0
M  V30 4262 H 405.45 7.64341 -1.14032 0
M  V30 4263 H 403.795 6.87494 -1.01865 0
M  V30 4264 H 406.986 4.66406 -0.397863 0
M  V30 4265 H 407.159 6.43017 -0.802093 0
M  V30 4266 N 400.565 -0.0233959 1.57583 0
M  V30 4267 C 401.79 -0.728376 1.94189 0
M  V30 4268 C 402.215 -1.67793 0.850119 0
M  V30 4269 O 401.573 -1.80262 -0.19371 0
M  V30 4270 C 401.621 -1.45669 3.29868 0
M  V30 4271 O 400.725 -2.57013 3.22518 0
M  V30 4272 H 400.066 -0.195493 0.63457 0
M  V30 4273 H 402.596 0.0228214 2.04587 0
M  V30 4274 H 402.606 -1.82535 3.6489 0
M  V30 4275 H 401.281 -0.760314 4.08891 0
M  V30 4276 H 399.858 -2.22648 2.99136 0
M  V30 4277 N 402.043 -1.548 -0.295768 0
M  V30 4278 C 403.459 -1.4613 -0.641722 0
M  V30 4279 C 403.659 -0.656771 -1.90496 0
M  V30 4280 O 402.715 -0.166547 -2.5195 0
M  V30 4281 C 404.028 -2.90141 -0.789852 0
M  V30 4282 C 405.576 -3.00216 -0.885396 0
M  V30 4283 C 406.051 -4.45434 -1.06548 0
M  V30 4284 N 407.542 -4.49166 -1.13156 0
M  V30 4285 C 408.277 -5.58717 -1.28929 0
M  V30 4286 N 407.773 -6.78182 -1.41567 0
M  V30 4287 N 409.566 -5.46415 -1.31859 0
M  V30 4288 H 401.717 -2.05574 0.534147 0
M  V30 4289 H 403.98 -0.931259 0.177372 0
M  V30 4290 H 403.686 -3.51635 0.0675598 0
M  V30 4291 H 403.56 -3.37859 -1.67724 0
M  V30 4292 H 405.947 -2.38833 -1.73329 0
M  V30 4293 H 406.028 -2.55787 0.0261185 0
M  V30 4294 H 405.672 -5.07413 -0.222335 0
M  V30 4295 H 405.602 -4.87499 -1.9913 0
M  V30 4296 H 408.093 -3.631 -1.04721 0
M  V30 4297 H 408.406 -7.57428 -1.53372 0
M  V30 4298 H 406.751 -6.81037 -1.38613 0
M  V30 4299 H 409.942 -4.5203 -1.21601 0
M  V30 4300 H 410.115 -6.31841 -1.43808 0
M  V30 4301 N 403.521 0.559213 -1.47345 0
M  V30 4302 C 404.451 1.67622 -1.62558 0
M  V30 4303 C 405.432 1.63331 -0.475087 0
M  V30 4304 O 406.617 1.80983 -0.704182 0
M  V30 4305 C 403.747 3.0626 -1.63774 0
M  V30 4306 C 402.701 3.25397 -2.7803 0
M  V30 4307 C 402.027 4.64801 -2.64318 0
M  V30 4308 C 403.327 3.10965 -4.19641 0
M  V30 4309 H 405.021 1.55146 -2.56067 0
M  V30 4310 H 402.567 0.744961 -1.23233 0
M  V30 4311 H 404.52 3.84247 -1.73008 0
M  V30 4312 H 403.244 3.1969 -0.66825 0
M  V30 4313 H 401.903 2.49817 -2.68304 0
M  V30 4314 H 401.551 4.75028 -1.65401 0
M  V30 4315 H 401.251 4.78555 -3.40968 0
M  V30 4316 H 402.775 5.44926 -2.75478 0
M  V30 4317 H 404.189 3.78772 -4.30354 0
M  V30 4318 H 402.586 3.36229 -4.97062 0
M  V30 4319 H 403.656 2.07736 -4.38148 0
M  V30 4320 N 404.999 1.35443 0.805782 0
M  V30 4321 C 406.245 1.28952 1.56522 0
M  V30 4322 C 406.578 -0.135597 1.93726 0
M  V30 4323 O 405.853 -1.08516 1.61414 0
M  V30 4324 C 406.136 2.19678 2.85331 0
M  V30 4325 C 405.989 3.7081 2.54598 0
M  V30 4326 C 407.308 2.09495 3.8704 0
M  V30 4327 H 404.427 0.469764 0.567883 0
M  V30 4328 H 407.069 1.65851 0.927001 0
M  V30 4329 H 405.219 1.8834 3.39795 0
M  V30 4330 H 406.891 4.12593 2.06312 0
M  V30 4331 H 405.134 3.91051 1.8778 0
M  V30 4332 H 405.805 4.29679 3.46525 0
M  V30 4333 H 408.281 2.37045 3.41978 0
M  V30 4334 H 407.157 2.75173 4.74943 0
M  V30 4335 H 407.418 1.07714 4.28777 0
M  V30 4336 N 406.477 -1.02803 1.19454 0
M  V30 4337 C 407.44 -2.09264 0.934955 0
M  V30 4338 C 408.44 -1.60576 -0.0849015 0
M  V30 4339 O 409.63 -1.73554 0.149933 0
M  V30 4340 C 406.762 -3.38482 0.40531 0
M  V30 4341 H 407.955 -2.33726 1.87916 0
M  V30 4342 H 405.508 -1.19426 1.00832 0
M  V30 4343 H 406.243 -3.19689 -0.544899 0
M  V30 4344 H 406.028 -3.75142 1.14065 0
M  V30 4345 H 407.518 -4.16894 0.242806 0
M  V30 4346 N 407.956 -0.998596 -1.21925 0
M  V30 4347 C 409.205 -0.673085 -1.90138 0
M  V30 4348 C 409.518 0.79895 -1.78539 0
M  V30 4349 O 410.724 1.23628 -2.4172 0
M  V30 4350 C 409.18 -1.15339 -3.40918 0
M  V30 4351 C 408.788 -2.65106 -3.61141 0
M  V30 4352 C 410.532 -0.902476 -4.14796 0
M  V30 4353 C 408.439 -3.0671 -5.05651 0
M  V30 4354 H 407.369 -0.248057 -0.712028 0
M  V30 4355 H 410.02 -1.20891 -1.38049 0
M  V30 4356 H 408.402 -0.545658 -3.92223 0
M  V30 4357 H 409.576 -3.31274 -3.20304 0
M  V30 4358 H 407.891 -2.88142 -3.00605 0
M  V30 4359 H 410.488 -1.18895 -5.21314 0
M  V30 4360 H 410.831 0.161349 -4.15987 0
M  V30 4361 H 411.364 -1.47269 -3.69536 0
M  V30 4362 H 408.103 -4.12292 -5.09603 0
M  V30 4363 H 407.623 -2.45249 -5.47369 0
M  V30 4364 H 409.302 -2.9833 -5.74115 0
M  V30 4365 N 409.434 1.37368 -0.772513 0
M  V30 4366 C 410.683 1.98918 -0.333861 0
M  V30 4367 C 410.996 1.62017 1.09589 0
M  V30 4368 O 412.202 2.16676 1.63596 0
M  V30 4369 C 410.658 3.55735 -0.545971 0
M  V30 4370 C 410.266 4.01573 -1.98603 0
M  V30 4371 C 412.01 4.24156 -0.170979 0
M  V30 4372 C 409.917 5.51102 -2.1457 0
M  V30 4373 H 408.847 0.744214 -0.121085 0
M  V30 4374 H 411.498 1.56888 -0.95175 0
M  V30 4375 H 409.88 3.95748 0.141387 0
M  V30 4376 H 411.054 3.72803 -2.7084 0
M  V30 4377 H 409.369 3.45937 -2.31769 0
M  V30 4378 H 411.966 5.34024 -0.26878 0
M  V30 4379 H 412.309 4.06917 0.878855 0
M  V30 4380 H 412.842 3.89447 -0.810914 0
M  V30 4381 H 409.581 5.73268 -3.17875 0
M  V30 4382 H 409.101 5.81554 -1.46817 0
M  V30 4383 H 410.78 6.17083 -1.94468 0
M  V30 4384 N 410.912 0.523116 1.48665 0
M  V30 4385 C 412.161 -0.01544 2.01694 0
M  V30 4386 C 412.474 -1.35975 1.40606 0
M  V30 4387 O 413.68 -1.98627 1.85093 0
M  V30 4388 C 412.136 -0.0779303 3.59816 0
M  V30 4389 C 411.744 1.26107 4.29885 0
M  V30 4390 C 413.488 -0.565678 4.20714 0
M  V30 4391 C 411.395 1.15954 5.79921 0
M  V30 4392 H 410.325 -0.00954163 0.75394 0
M  V30 4393 H 412.976 0.665865 1.70993 0
M  V30 4394 H 411.358 -0.824165 3.87329 0
M  V30 4395 H 412.532 2.02233 4.14051 0
M  V30 4396 H 410.847 1.68401 3.80828 0
M  V30 4397 H 413.444 -0.6595 5.30617 0
M  V30 4398 H 413.787 -1.56984 3.85567 0
M  V30 4399 H 414.32 0.12467 3.97605 0
M  V30 4400 H 411.059 2.13864 6.19631 0
M  V30 4401 H 410.579 0.439529 5.98187 0
M  V30 4402 H 412.258 0.847361 6.41427 0
M  V30 4403 N 412.39 -1.55475 0.257931 0
M  V30 4404 C 413.322 -2.19192 -0.669881 0
M  V30 4405 C 414.335 -1.17148 -1.1305 0
M  V30 4406 O 415.524 -1.43959 -1.05537 0
M  V30 4407 C 412.624 -2.79016 -1.92363 0
M  V30 4408 C 411.797 -4.06586 -1.61265 0
M  V30 4409 C 410.856 -4.50622 -2.7171 0
M  V30 4410 O 409.882 -5.16765 -2.38627 0
M  V30 4411 N 411.084 -4.19325 -4.01431 0
M  V30 4412 H 413.849 -2.99441 -0.124635 0
M  V30 4413 H 411.41 -1.6171 0.0783311 0
M  V30 4414 H 413.402 -3.05427 -2.65511 0
M  V30 4415 H 411.972 -2.0286 -2.37837 0
M  V30 4416 H 411.192 -3.87646 -0.715811 0
M  V30 4417 H 412.48 -4.89737 -1.37967 0
M  V30 4418 H 411.878 -3.66247 -4.31138 0
M  V30 4419 H 410.435 -4.50547 -4.7101 0
M  V30 4420 N 413.868 0.0150385 -1.57593 0
M  V30 4421 C 415.145 0.7392 -1.81094 0
M  V30 4422 C 415.525 1.92817 -0.859344 0
M  V30 4423 O 414.873 2.28301 0.095362 0
M  V30 4424 C 415.083 1.15907 -3.29191 0
M  V30 4425 C 416.431 1.56918 -3.9454 0
M  V30 4426 O 417.455 1.25328 -3.33424 0
M  V30 4427 O 416.314 2.15604 -5.02173 0
M  V30 4428 H 413.408 0.358631 -0.745193 0
M  V30 4429 H 415.954 -0.00926156 -1.69697 0
M  V30 4430 H 414.726 0.310921 -3.90063 0
M  V30 4431 H 414.349 1.96711 -3.45529 0
M  V30 4432 N 415.346 1.54954 0.287554 0
M  V30 4433 C 416.309 1.86076 1.33823 0
M  V30 4434 C 417.309 0.734414 1.43049 0
M  V30 4435 O 418.499 1.00266 1.42452 0
M  V30 4436 C 415.631 2.05305 2.72144 0
M  V30 4437 H 416.824 2.79984 1.07465 0
M  V30 4438 H 414.377 1.47223 0.524902 0
M  V30 4439 H 415.112 1.1373 3.03704 0
M  V30 4440 H 414.897 2.873 2.66836 0
M  V30 4441 H 416.387 2.30706 3.48087 0
M  V30 4442 N 416.824 -0.551391 1.4764 0
M  V30 4443 C 417.756 -1.67333 1.56628 0
M  V30 4444 C 418.769 -1.56398 0.452045 0
M  V30 4445 O 419.958 -1.6325 0.721926 0
M  V30 4446 C 417.058 -3.05841 1.45994 0
M  V30 4447 C 416.231 -3.42472 2.72088 0
M  V30 4448 C 415.29 -4.60168 2.55209 0
M  V30 4449 O 414.316 -4.64458 3.2904 0
M  V30 4450 N 415.518 -5.57024 1.63416 0
M  V30 4451 H 418.283 -1.60066 2.53375 0
M  V30 4452 H 415.844 -0.738169 1.44093 0
M  V30 4453 H 417.836 -3.8242 1.32428 0
M  V30 4454 H 416.406 -3.07302 0.573071 0
M  V30 4455 H 415.626 -2.55284 3.00373 0
M  V30 4456 H 416.914 -3.63723 3.55785 0
M  V30 4457 H 416.312 -5.56319 1.02594 0
M  V30 4458 H 414.869 -6.32906 1.558 0
M  V30 4459 N 418.302 -1.35869 -0.798587 0
M  V30 4460 C 419.55 -1.29332 -1.55298 0
M  V30 4461 C 419.871 0.129729 -1.94568 0
M  V30 4462 O 419.141 1.06796 -1.6423 0
M  V30 4463 H 417.721 -0.475737 -0.57592 0
M  V30 4464 H 420.383 -1.70062 -0.952093 0
M  V30 4465 H 419.479 -1.91458 -2.46476 0
M  V30 4466 N 419.78 1.02168 -1.19998 0
M  V30 4467 C 421.005 1.79833 -1.03319 0
M  V30 4468 C 421.43 1.83504 0.413281 0
M  V30 4469 O 420.788 1.26635 1.29743 0
M  V30 4470 C 420.836 3.22396 -1.61533 0
M  V30 4471 O 419.94 4.03555 -0.849519 0
M  V30 4472 H 419.281 0.554872 -0.364709 0
M  V30 4473 H 421.811 1.28542 -1.59179 0
M  V30 4474 H 421.821 3.73124 -1.65054 0
M  V30 4475 H 420.496 3.19039 -2.66809 0
M  V30 4476 H 419.073 3.62169 -0.888129 0
M  V30 4477 N 421.258 1.00505 1.21394 0
M  V30 4478 C 422.19 0.52372 2.23136 0
M  V30 4479 C 423.203 -0.387714 1.58116 0
M  V30 4480 O 424.392 -0.187905 1.77508 0
M  V30 4481 C 421.492 -0.258885 3.3791 0
M  V30 4482 C 420.665 0.651634 4.32519 0
M  V30 4483 C 419.724 -0.0813705 5.26137 0
M  V30 4484 O 418.75 0.537295 5.66658 0
M  V30 4485 N 419.952 -1.35992 5.64346 0
M  V30 4486 H 422.717 1.39865 2.65062 0
M  V30 4487 H 420.278 0.881196 1.35818 0
M  V30 4488 H 422.27 -0.758208 3.97534 0
M  V30 4489 H 420.84 -1.035 2.94968 0
M  V30 4490 H 420.06 1.33145 3.71034 0
M  V30 4491 H 421.348 1.27129 4.92662 0
M  V30 4492 H 420.746 -1.88368 5.33417 0
M  V30 4493 H 419.303 -1.8042 6.26332 0
M  V30 4494 N 422.737 -1.36956 0.779787 0
M  V30 4495 C 423.983 -2.00237 0.357324 0
M  V30 4496 C 424.338 -1.60787 -1.05666 0
M  V30 4497 O 423.631 -0.847836 -1.71821 0
M  V30 4498 C 423.825 -3.54585 0.447686 0
M  V30 4499 C 423.654 -4.09025 1.86891 0
M  V30 4500 C 422.424 -4.39612 2.49138 0
M  V30 4501 C 424.622 -4.29461 2.82963 0
M  V30 4502 N 422.604 -4.79816 3.82949 0
M  V30 4503 C 423.975 -4.72363 4.01588 0
M  V30 4504 C 426.03 -4.1161 2.80145 0
M  V30 4505 C 424.733 -4.99284 5.17791 0
M  V30 4506 C 426.759 -4.39672 3.95528 0
M  V30 4507 C 426.121 -4.82822 5.12896 0
M  V30 4508 H 422.22 -0.76148 0.177968 0
M  V30 4509 H 424.804 -1.6613 1.01533 0
M  V30 4510 H 422.975 -3.87982 -0.180184 0
M  V30 4511 H 424.707 -4.047 0.0023955 0
M  V30 4512 H 421.462 -4.28975 2.00693 0
M  V30 4513 H 421.886 -5.04216 4.51769 0
M  V30 4514 H 426.528 -3.77415 1.90572 0
M  V30 4515 H 424.246 -5.32365 6.07958 0
M  V30 4516 H 427.832 -4.27441 3.94697 0
M  V30 4517 H 426.712 -5.04118 6.00695 0
M  V30 4518 N 424.215 -0.530993 -1.48385 0
M  V30 4519 C 425.125 0.23503 -2.3342 0
M  V30 4520 C 426.141 0.93801 -1.46552 0
M  V30 4521 O 427.317 0.912745 -1.7953 0
M  V30 4522 C 424.382 1.26778 -3.22689 0
M  V30 4523 C 423.443 0.575038 -4.25431 0
M  V30 4524 C 422.676 1.55858 -5.10435 0
M  V30 4525 O 422.899 2.79129 -4.97437 0
M  V30 4526 O 421.833 1.09742 -5.91811 0
M  V30 4527 H 425.659 -0.461794 -3.00169 0
M  V30 4528 H 423.244 -0.291903 -1.46521 0
M  V30 4529 H 425.126 1.86457 -3.77904 0
M  V30 4530 H 423.801 1.94699 -2.586 0
M  V30 4531 H 422.708 -0.0622782 -3.74048 0
M  V30 4532 H 424.041 -0.062253 -4.92161 0
M  V30 4533 N 425.693 1.55336 -0.266172 0
M  V30 4534 C 426.64 2.22172 0.625165 0
M  V30 4535 C 427.61 1.19211 1.15663 0
M  V30 4536 O 428.795 1.47723 1.20758 0
M  V30 4537 C 425.935 2.93972 1.8076 0
M  V30 4538 C 425.048 4.11632 1.31084 0
M  V30 4539 C 424.183 4.71099 2.45436 0
M  V30 4540 C 423.222 5.8097 1.92718 0
M  V30 4541 N 422.359 6.34538 3.00509 0
M  V30 4542 H 427.199 2.9796 0.0485582 0
M  V30 4543 H 424.736 1.47095 0.0122024 0
M  V30 4544 H 426.694 3.33811 2.50251 0
M  V30 4545 H 425.324 2.20623 2.35638 0
M  V30 4546 H 424.376 3.76975 0.509326 0
M  V30 4547 H 425.688 4.90893 0.884633 0
M  V30 4548 H 424.842 5.13612 3.22936 0
M  V30 4549 H 423.581 3.91096 2.91368 0
M  V30 4550 H 422.586 5.37916 1.13695 0
M  V30 4551 H 423.811 6.62836 1.47733 0
M  V30 4552 H 421.757 5.57433 3.45839 0
M  V30 4553 H 421.674 7.09046 2.62279 0
M  V30 4554 H 422.942 6.81709 3.78011 0
M  V30 4555 N 427.171 -0.0066808 1.57599 0
M  V30 4556 C 428.587 -0.36267 1.55425 0
M  V30 4557 C 428.787 -1.75209 0.995187 0
M  V30 4558 O 427.843 -2.44616 0.626058 0
M  V30 4559 C 429.156 -0.244017 2.99708 0
M  V30 4560 C 430.704 -0.319451 3.11366 0
M  V30 4561 C 431.179 -0.229998 4.57422 0
M  V30 4562 N 432.67 -0.288105 4.62303 0
M  V30 4563 C 433.405 -0.242127 5.72889 0
M  V30 4564 N 432.901 -0.147133 6.92644 0
M  V30 4565 N 434.694 -0.293502 5.61333 0
M  V30 4566 H 426.845 0.902314 1.92281 0
M  V30 4567 H 429.108 0.34525 0.882896 0
M  V30 4568 H 428.814 0.711678 3.44424 0
M  V30 4569 H 428.688 -1.02877 3.629 0
M  V30 4570 H 431.075 -1.26559 2.66584 0
M  V30 4571 H 431.156 0.495055 2.50964 0
M  V30 4572 H 430.8 0.712566 5.02877 0
M  V30 4573 H 430.73 -1.0629 5.15761 0
M  V30 4574 H 433.221 -0.363126 3.76151 0
M  V30 4575 H 433.534 -0.117763 7.7271 0
M  V30 4576 H 431.879 -0.112857 6.94908 0
M  V30 4577 H 435.07 -0.365864 4.66668 0
M  V30 4578 H 435.243 -0.254204 6.47501 0
M  V30 4579 N 428.649 -1.55105 -0.279332 0
M  V30 4580 C 429.874 -1.7976 -1.03446 0
M  V30 4581 C 430.299 -0.565952 -1.79384 0
M  V30 4582 O 429.657 0.484259 -1.74713 0
M  V30 4583 C 429.705 -3.0179 -1.97371 0
M  V30 4584 O 428.809 -2.76432 -3.06038 0
M  V30 4585 H 428.15 -0.594334 -0.29608 0
M  V30 4586 H 430.68 -2.02235 -0.310165 0
M  V30 4587 H 430.69 -3.30351 -2.39441 0
M  V30 4588 H 429.365 -3.91085 -1.4151 0
M  V30 4589 H 427.942 -2.58949 -2.68328 0
M  V30 4590 N 430.127 0.543554 -1.4793 0
M  V30 4591 C 431.543 0.870806 -1.3375 0
M  V30 4592 C 431.743 1.9864 -0.338261 0
M  V30 4593 O 430.799 2.51305 0.245371 0
M  V30 4594 C 432.112 1.25114 -2.73435 0
M  V30 4595 C 433.66 1.3618 -2.81823 0
M  V30 4596 C 434.135 1.77563 -4.22179 0
M  V30 4597 N 435.626 1.8469 -4.24787 0
M  V30 4598 C 436.361 2.18067 -5.30315 0
M  V30 4599 N 435.857 2.49963 -6.46135 0
M  V30 4600 N 437.65 2.18958 -5.17701 0
M  V30 4601 H 429.801 -0.19275 -2.11524 0
M  V30 4602 H 432.064 -0.0235777 -0.947707 0
M  V30 4603 H 431.77 0.50514 -3.48053 0
M  V30 4604 H 431.644 2.20431 -3.06088 0
M  V30 4605 H 434.031 2.09859 -2.07468 0
M  V30 4606 H 434.112 0.390169 -2.52807 0
M  V30 4607 H 433.756 1.04449 -4.97044 0
M  V30 4608 H 433.686 2.75753 -4.48629 0
M  V30 4609 H 436.177 1.62372 -3.41239 0
M  V30 4610 H 436.49 2.74497 -7.22406 0
M  V30 4611 H 434.835 2.47513 -6.49432 0
M  V30 4612 H 438.026 1.93488 -4.2624 0
M  V30 4613 H 438.199 2.44639 -6.00047 0
M  V30 4614 N 431.605 1.3629 0.791371 0
M  V30 4615 C 432.853 1.30154 1.5461 0
M  V30 4616 C 433.174 -0.119409 1.94634 0
M  V30 4617 O 432.444 -1.05924 1.64794 0
M  V30 4618 H 431.024 0.478784 0.573389 0
M  V30 4619 H 433.686 1.70565 0.94306 0
M  V30 4620 H 432.782 1.92762 2.45457 0
M  V30 4621 N 433.083 -1.0153 1.20538 0
M  V30 4622 C 434.015 -2.10224 0.913155 0
M  V30 4623 C 435.028 -1.62495 -0.0995998 0
M  V30 4624 O 436.217 -1.78014 0.131582 0
M  V30 4625 C 433.317 -3.37111 0.347717 0
M  V30 4626 C 432.49 -4.13971 1.41233 0
M  V30 4627 C 431.549 -5.19158 0.857976 0
M  V30 4628 O 430.575 -5.48 1.53897 0
M  V30 4629 N 431.777 -5.7955 -0.331966 0
M  V30 4630 H 434.542 -2.35879 1.84881 0
M  V30 4631 H 432.103 -1.17931 1.10923 0
M  V30 4632 H 434.095 -4.04683 -0.0373026 0
M  V30 4633 H 432.665 -3.08696 -0.492527 0
M  V30 4634 H 431.885 -3.41351 1.97163 0
M  V30 4635 H 433.173 -4.62103 2.12928 0
M  V30 4636 H 432.571 -5.58455 -0.902478 0
M  V30 4637 H 431.128 -6.48464 -0.65861 0
M  V30 4638 N 434.561 -1.01147 -1.20859 0
M  V30 4639 C 435.471 -0.58686 -2.27141 0
M  V30 4640 C 436.487 0.373198 -1.69951 0
M  V30 4641 O 437.663 0.235423 -2.00019 0
M  V30 4642 C 434.728 0.0733602 -3.46622 0
M  V30 4643 C 433.789 -0.931995 -4.19061 0
M  V30 4644 C 433.022 -0.303186 -5.32838 0
M  V30 4645 O 433.245 0.898395 -5.63281 0
M  V30 4646 O 432.179 -1.01735 -5.9324 0
M  V30 4647 H 436.005 -1.47155 -2.65667 0
M  V30 4648 H 433.59 -0.780689 -1.2738 0
M  V30 4649 H 435.472 0.442333 -4.19072 0
M  V30 4650 H 434.147 0.932329 -3.09983 0
M  V30 4651 H 433.054 -1.35224 -3.48805 0
M  V30 4652 H 434.387 -1.76076 -4.59628 0
M  V30 4653 N 436.039 1.36541 -0.78704 0
M  V30 4654 C 437.45 1.81873 -0.421807 0
M  V30 4655 C 437.801 1.65487 1.05397 0
M  V30 4656 O 436.926 1.17448 1.81755 0
M  V30 4657 C 437.521 3.30192 -0.758841 0
M  V30 4658 C 436.08 3.73743 -0.446468 0
M  V30 4659 C 435.227 2.58844 -0.994728 0
M  V30 4660 H 438.178 1.24796 -0.98039 0
M  V30 4661 H 438.199 3.80468 -0.0490648 0
M  V30 4662 H 437.711 3.42087 -1.83299 0
M  V30 4663 H 435.812 3.6741 0.619739 0
M  V30 4664 H 435.925 4.69272 -0.965415 0
M  V30 4665 H 434.289 2.51245 -0.418087 0
M  V30 4666 H 435.072 2.73525 -2.07458 0
M  V30 4667 N 437.518 0.538854 1.48102 0
M  V30 4668 C 438.481 -0.208395 2.28251 0
M  V30 4669 C 439.481 -0.859656 1.35892 0
M  V30 4670 O 440.671 -0.71834 1.58699 0
M  V30 4671 C 437.803 -1.30252 3.15035 0
M  V30 4672 H 438.996 0.495407 2.9578 0
M  V30 4673 H 436.549 0.295112 1.53489 0
M  V30 4674 H 437.284 -2.0393 2.52157 0
M  V30 4675 H 437.069 -0.840551 3.82985 0
M  V30 4676 H 438.559 -1.82787 3.75471 0
M  V30 4677 N 438.996 -1.55193 0.274407 0
M  V30 4678 C 439.943 -2.225 -0.613374 0
M  V30 4679 C 440.913 -1.19823 -1.15029 0
M  V30 4680 O 442.098 -1.48362 -1.19973 0
M  V30 4681 C 439.238 -2.94927 -1.79199 0
M  V30 4682 C 438.351 -4.12322 -1.28899 0
M  V30 4683 C 437.486 -4.72394 -2.42934 0
M  V30 4684 C 436.525 -5.81984 -1.89634 0
M  V30 4685 N 435.662 -6.36123 -2.9714 0
M  V30 4686 H 440.502 -2.97982 -0.032756 0
M  V30 4687 H 438.039 -1.47099 -0.00440146 0
M  V30 4688 H 439.997 -3.35134 -2.48478 0
M  V30 4689 H 438.627 -2.2187 -2.34465 0
M  V30 4690 H 437.679 -3.7724 -0.489327 0
M  V30 4691 H 438.991 -4.91355 -0.858587 0
M  V30 4692 H 438.145 -5.15317 -3.20208 0
M  V30 4693 H 436.884 -3.92636 -2.8929 0
M  V30 4694 H 435.889 -5.38511 -1.1084 0
M  V30 4695 H 437.114 -6.6361 -1.44215 0
M  V30 4696 H 435.06 -5.59259 -3.42878 0
M  V30 4697 H 434.977 -7.10427 -2.58515 0
M  V30 4698 H 436.245 -6.83704 -3.74391 0
M  V30 4699 N 440.474 -0.00167713 -1.576 0
M  V30 4700 C 441.714 0.687302 -1.92498 0
M  V30 4701 C 442.078 1.70844 -0.876144 0
M  V30 4702 O 443.279 2.44792 -1.11043 0
M  V30 4703 C 441.55 1.31217 -3.32441 0
M  V30 4704 S 443.109 2.02604 -3.89226 0
M  V30 4705 H 439.927 0.226985 -0.673794 0
M  V30 4706 H 442.529 -0.0587666 -1.95412 0
M  V30 4707 H 441.233 0.556164 -4.06614 0
M  V30 4708 H 440.764 2.09613 -3.32905 0
M  V30 4709 H 442.779 3.30137 -3.70438 0
M  V30 4710 N 441.952 1.55251 0.271103 0
M  V30 4711 C 443.363 1.66635 0.842007 0
M  V30 4712 C 443.714 0.594631 1.86972 0
M  V30 4713 O 442.839 -0.263532 2.14789 0
M  V30 4714 C 443.434 3.02082 1.53401 0
M  V30 4715 C 441.993 3.15487 2.05293 0
M  V30 4716 C 441.14 2.62438 0.895631 0
M  V30 4717 H 444.091 1.58629 0.0474117 0
M  V30 4718 H 444.112 2.95176 2.40107 0
M  V30 4719 H 443.624 3.80062 0.785786 0
M  V30 4720 H 441.725 2.42284 2.83071 0
M  V30 4721 H 441.838 4.22075 2.26693 0
M  V30 4722 H 440.202 2.19644 1.28953 0
M  V30 4723 H 440.985 3.42923 0.160878 0
M  V30 4724 N 443.43 -0.535701 1.48216 0
M  V30 4725 C 444.38 -1.63688 1.58714 0
M  V30 4726 C 445.364 -1.54635 0.444615 0
M  V30 4727 O 446.556 -1.62753 0.695742 0
M  V30 4728 C 443.685 -3.02423 1.62466 0
M  V30 4729 C 442.771 -3.16601 2.82178 0
M  V30 4730 N 443.162 -3.00771 4.06658 0
M  V30 4731 C 441.46 -3.47645 2.79391 0
M  V30 4732 C 442.161 -3.18213 4.86945 0
M  V30 4733 N 441.137 -3.45528 4.19656 0
M  V30 4734 H 444.939 -1.5005 2.5271 0
M  V30 4735 H 442.453 -0.741018 1.44508 0
M  V30 4736 H 444.45 -3.81517 1.6808 0
M  V30 4737 H 443.11 -3.17157 0.695826 0
M  V30 4738 H 444.121 -2.77652 4.37184 0
M  V30 4739 H 440.798 -3.68771 1.95739 0
M  V30 4740 H 442.188 -3.1076 5.95716 0
M  V30 4741 N 444.908 -1.36708 -0.784132 0
M  V30 4742 C 446.154 -1.32433 -1.54379 0
M  V30 4743 C 446.509 0.0941816 -1.92169 0
M  V30 4744 O 445.802 1.04997 -1.60269 0
M  V30 4745 C 445.996 -2.18571 -2.82774 0
M  V30 4746 C 445.825 -3.68656 -2.57533 0
M  V30 4747 C 444.595 -4.37813 -2.52286 0
M  V30 4748 C 446.793 -4.61802 -2.2637 0
M  V30 4749 N 444.775 -5.7351 -2.18997 0
M  V30 4750 C 446.146 -5.85785 -2.03115 0
M  V30 4751 C 448.201 -4.50313 -2.12421 0
M  V30 4752 C 446.904 -6.99569 -1.67321 0
M  V30 4753 C 448.93 -5.63969 -1.78026 0
M  V30 4754 C 448.292 -6.86994 -1.55622 0
M  V30 4755 H 444.391 -0.539886 -0.565727 0
M  V30 4756 H 446.975 -1.71812 -0.915908 0
M  V30 4757 H 445.146 -1.81429 -3.43421 0
M  V30 4758 H 446.878 -2.05646 -3.48557 0
M  V30 4759 H 443.633 -3.90674 -2.67714 0
M  V30 4760 H 444.057 -6.45189 -2.05084 0
M  V30 4761 H 448.699 -3.55781 -2.28429 0
M  V30 4762 H 446.417 -7.94047 -1.5005 0
M  V30 4763 H 450.003 -5.57044 -1.67909 0
M  V30 4764 H 448.883 -7.7345 -1.294 0
M  V30 4765 N 446.386 1.0089 -1.21074 0
M  V30 4766 C 447.333 2.09588 -0.966512 0
M  V30 4767 C 448.303 1.65761 0.106089 0
M  V30 4768 O 449.488 1.90758 -0.0402287 0
M  V30 4769 C 446.628 3.40958 -0.533058 0
M  V30 4770 C 445.741 3.9822 -1.67467 0
M  V30 4771 C 444.876 5.17682 -1.19076 0
M  V30 4772 C 443.915 5.67043 -2.30496 0
M  V30 4773 N 443.052 6.77759 -1.83267 0
M  V30 4774 H 447.892 2.29815 -1.89708 0
M  V30 4775 H 445.429 1.12689 -0.945489 0
M  V30 4776 H 447.387 4.1637 -0.263019 0
M  V30 4777 H 446.017 3.20781 0.360505 0
M  V30 4778 H 445.069 3.1983 -2.05944 0
M  V30 4779 H 446.381 4.3085 -2.51336 0
M  V30 4780 H 445.535 6.00326 -0.877151 0
M  V30 4781 H 444.274 4.86635 -0.322066 0
M  V30 4782 H 443.279 4.82999 -2.62664 0
M  V30 4783 H 444.504 6.00121 -3.17855 0
M  V30 4784 H 442.45 6.48527 -0.987356 0
M  V30 4785 H 442.367 7.09624 -2.60711 0
M  V30 4786 H 443.635 7.63949 -1.54928 0
M  V30 4787 N 447.864 1.01787 1.20321 0
M  V30 4788 C 448.812 0.58254 2.25187 0
M  V30 4789 C 449.806 -0.379359 1.65098 0
M  V30 4790 O 451.012 -0.249142 1.78267 0
M  V30 4791 H 447.387 0.170078 0.732514 0
M  V30 4792 H 449.358 1.47788 2.59232 0
M  V30 4793 C 448.107 -0.0620885 3.47645 0
M  V30 4794 H 447.43 0.669069 3.94162 0
M  V30 4795 H 448.87 -0.329784 4.22716 0
M  V30 4796 C 447.329 -1.3053 3.10586 0
M  V30 4797 O 447.859 -2.39848 3.22236 0
M  V30 4798 N 446.065 -1.18988 2.65123 0
M  V30 4799 H 445.612 -0.300341 2.55843 0
M  V30 4800 H 445.57 -2.02267 2.40698 0
M  V30 4801 N 449.342 -1.36122 0.79427 0
M  V30 4802 C 450.582 -2.00942 0.374376 0
M  V30 4803 C 450.946 -1.61666 -1.03577 0
M  V30 4804 O 452.147 -2.19113 -1.55701 0
M  V30 4805 C 450.418 -3.53323 0.538327 0
M  V30 4806 S 451.977 -4.38311 0.20703 0
M  V30 4807 H 448.795 -0.696515 0.142785 0
M  V30 4808 H 451.397 -1.65929 1.03382 0
M  V30 4809 H 450.101 -3.79395 1.56484 0
M  V30 4810 H 449.632 -3.93162 -0.136882 0
M  V30 4811 H 451.647 -4.8623 -0.989695 0
M  V30 4812 N 450.82 -0.546701 -1.47814 0
M  V30 4813 C 451.75 0.195317 -2.32682 0
M  V30 4814 C 452.731 0.918981 -1.43139 0
M  V30 4815 O 453.916 0.901501 -1.72008 0
M  V30 4816 C 451.046 1.23237 -3.247 0
M  V30 4817 C 450 0.625818 -4.234 0
M  V30 4818 C 449.326 1.76674 -5.04669 0
M  V30 4819 C 450.626 -0.413515 -5.2066 0
M  V30 4820 H 452.32 -0.513184 -2.94969 0
M  V30 4821 H 449.866 -0.248241 -1.41844 0
M  V30 4822 H 451.819 1.75955 -3.82907 0
M  V30 4823 H 450.543 1.97067 -2.60446 0
M  V30 4824 H 449.202 0.120023 -3.66403 0
M  V30 4825 H 448.85 2.49383 -4.36826 0
M  V30 4826 H 448.55 1.36673 -5.71484 0
M  V30 4827 H 450.074 2.29738 -5.65732 0
M  V30 4828 H 451.488 0.0272042 -5.73294 0
M  V30 4829 H 449.885 -0.731825 -5.95621 0
M  V30 4830 H 450.955 -1.31325 -4.66778 0
M  V30 4831 N 452.299 1.55045 -0.282633 0
M  V30 4832 C 453.527 2.04168 0.33512 0
M  V30 4833 C 453.942 1.16071 1.48906 0
M  V30 4834 O 453.299 0.182391 1.81586 0
M  V30 4835 C 453.35 3.52332 0.808957 0
M  V30 4836 O 453.071 4.37078 -0.299038 0
M  V30 4837 C 454.572 4.17375 1.49375 0
M  V30 4838 H 451.792 0.666744 0.0754543 0
M  V30 4839 H 454.336 2.00205 -0.416918 0
M  V30 4840 H 452.491 3.56715 1.51106 0
M  V30 4841 H 452.905 5.24458 0.0665514 0
M  V30 4842 H 454.379 5.22627 1.77664 0
M  V30 4843 H 454.856 3.65999 2.42778 0
M  V30 4844 H 455.462 4.17016 0.835305 0
M  V30 4845 N 453.777 0.010035 1.57597 0
M  V30 4846 C 454.724 -0.978122 2.09049 0
M  V30 4847 C 455.694 -1.33509 0.988159 0
M  V30 4848 O 456.879 -1.43172 1.26121 0
M  V30 4849 C 454.019 -2.26158 2.60666 0
M  V30 4850 C 453.132 -1.96275 3.84838 0
M  V30 4851 C 452.267 -3.18776 4.24918 0
M  V30 4852 C 451.306 -2.84625 5.41899 0
M  V30 4853 N 450.443 -3.99693 5.77226 0
M  V30 4854 H 455.283 -0.532431 2.93205 0
M  V30 4855 H 452.82 -0.251234 1.44939 0
M  V30 4856 H 454.778 -3.01202 2.88675 0
M  V30 4857 H 453.408 -2.68378 1.79369 0
M  V30 4858 H 452.46 -1.11555 3.63675 0
M  V30 4859 H 453.772 -1.67111 4.69974 0
M  V30 4860 H 452.926 -4.02157 4.54262 0
M  V30 4861 H 451.665 -3.51087 3.38511 0
M  V30 4862 H 450.67 -1.99653 5.12268 0
M  V30 4863 H 451.895 -2.53551 6.29991 0
M  V30 4864 H 449.841 -4.31882 4.93776 0
M  V30 4865 H 449.758 -3.74087 6.56959 0
M  V30 4866 H 451.026 -4.83834 6.11167 0
M  V30 4867 N 455.255 -1.55392 -0.262866 0
M  V30 4868 C 456.185 -1.91978 -1.32917 0
M  V30 4869 C 457.166 -0.7828 -1.51017 0
M  V30 4870 O 458.351 -1.04178 -1.63892 0
M  V30 4871 C 455.481 -2.20055 -2.68687 0
M  V30 4872 C 454.435 -3.35854 -2.65304 0
M  V30 4873 C 453.761 -3.49435 -4.04721 0
M  V30 4874 C 455.061 -4.71977 -2.23685 0
M  V30 4875 H 456.755 -2.81292 -1.02544 0
M  V30 4876 H 454.301 -1.3534 -0.491846 0
M  V30 4877 H 456.254 -2.44237 -3.43404 0
M  V30 4878 H 454.978 -1.27551 -3.00663 0
M  V30 4879 H 453.637 -3.11655 -1.93045 0
M  V30 4880 H 453.285 -2.54379 -4.33936 0
M  V30 4881 H 452.985 -4.27297 -4.0335 0
M  V30 4882 H 454.509 -3.7592 -4.81161 0
M  V30 4883 H 455.923 -4.95637 -2.88127 0
M  V30 4884 H 454.32 -5.52828 -2.33456 0
M  V30 4885 H 455.39 -4.70115 -1.18827 0
M  V30 4886 N 456.733 0.527833 -1.48498 0
M  V30 4887 C 457.663 1.64136 -1.66077 0
M  V30 4888 C 458.644 1.62286 -0.509625 0
M  V30 4889 O 459.829 1.79449 -0.742413 0
M  V30 4890 C 456.959 3.02717 -1.70234 0
M  V30 4891 C 455.913 3.19426 -2.8487 0
M  V30 4892 C 455.239 4.5909 -2.74118 0
M  V30 4893 C 456.539 3.01993 -4.26142 0
M  V30 4894 H 458.233 1.4968 -2.593 0
M  V30 4895 H 455.779 0.718654 -1.24785 0
M  V30 4896 H 457.732 3.80491 -1.8112 0
M  V30 4897 H 456.456 3.18201 -0.735911 0
M  V30 4898 H 455.115 2.4407 -2.73542 0
M  V30 4899 H 454.763 4.71413 -1.7544 0
M  V30 4900 H 454.463 4.71214 -3.51042 0
M  V30 4901 H 455.987 5.3896 -2.86974 0
M  V30 4902 H 457.401 3.69558 -4.38292 0
M  V30 4903 H 455.798 3.2561 -5.04082 0
M  V30 4904 H 456.868 1.98396 -4.42456 0
M  V30 4905 N 458.211 1.37122 0.776871 0
M  V30 4906 C 459.622 1.28667 1.35284 0
M  V30 4907 C 459.973 -0.0680035 1.96082 0
M  V30 4908 O 459.098 -0.969743 1.93455 0
M  V30 4909 C 459.693 2.32997 2.45963 0
M  V30 4910 C 458.252 2.28191 2.99342 0
M  V30 4911 C 457.399 2.17101 1.72517 0
M  V30 4912 H 460.35 1.47819 0.577527 0
M  V30 4913 H 460.371 1.97366 3.2531 0
M  V30 4914 H 459.883 3.3158 2.01684 0
M  V30 4915 H 457.984 1.33115 3.4801 0
M  V30 4916 H 458.097 3.21397 3.55304 0
M  V30 4917 H 456.461 1.63562 1.95242 0
M  V30 4918 H 457.244 3.17591 1.30348 0
M  V30 4919 N 459.689 -1.00246 1.21608 0
M  V30 4920 C 460.929 -1.75589 1.04631 0
M  V30 4921 C 461.293 -1.87513 -0.412648 0
M  V30 4922 O 462.494 -2.59444 -0.703003 0
M  V30 4923 C 460.765 -3.12893 1.72722 0
M  V30 4924 S 462.324 -4.04095 1.71034 0
M  V30 4925 H 459.142 -0.604133 0.374892 0
M  V30 4926 H 461.744 -1.19927 1.54395 0
M  V30 4927 H 460.448 -3.0185 2.78055 0
M  V30 4928 H 459.979 -3.73628 1.23149 0
M  V30 4929 H 461.994 -4.9045 0.753231 0
M  V30 4930 N 461.167 -1.02423 -1.1978 0
M  V30 4931 C 462.414 -0.717988 -1.89344 0
M  V30 4932 C 462.742 0.753036 -1.79331 0
M  V30 4933 O 461.997 1.56355 -1.17692 0
M  V30 4934 C 462.296 -1.1088 -3.39765 0
M  V30 4935 C 461.962 -2.57731 -3.6998 0
M  V30 4936 C 460.624 -2.97854 -3.77937 0
M  V30 4937 C 462.976 -3.52763 -3.83677 0
M  V30 4938 C 460.304 -4.31931 -3.97054 0
M  V30 4939 C 462.656 -4.86538 -4.04306 0
M  V30 4940 C 461.32 -5.26356 -4.10494 0
M  V30 4941 H 460.59 -0.26273 -0.692859 0
M  V30 4942 H 463.237 -1.28623 -1.41875 0
M  V30 4943 H 461.542 -0.459094 -3.89101 0
M  V30 4944 H 463.239 -0.849432 -3.919 0
M  V30 4945 H 459.829 -2.25646 -3.64393 0
M  V30 4946 H 464.013 -3.2292 -3.76877 0
M  V30 4947 H 459.269 -4.62324 -4.00083 0
M  V30 4948 H 463.443 -5.60093 -4.13846 0
M  V30 4949 H 461.07 -6.3026 -4.2506 0
M  V30 4950 N 462.645 1.35699 -0.801477 0
M  V30 4951 C 463.575 2.32436 -0.222658 0
M  V30 4952 C 464.556 1.5723 0.649057 0
M  V30 4953 O 465.741 1.85324 0.580387 0
M  V30 4954 C 462.871 3.41469 0.633719 0
M  V30 4955 C 461.825 4.27774 -0.139083 0
M  V30 4956 C 461.151 5.28082 0.838666 0
M  V30 4957 C 462.451 5.04946 -1.33517 0
M  V30 4958 H 464.145 2.81094 -1.03086 0
M  V30 4959 H 461.691 1.35146 -0.497155 0
M  V30 4960 H 463.644 4.08143 1.04868 0
M  V30 4961 H 462.368 2.91408 1.47475 0
M  V30 4962 H 461.027 3.62673 -0.535156 0
M  V30 4963 H 460.675 4.7429 1.67506 0
M  V30 4964 H 460.375 5.86695 0.32594 0
M  V30 4965 H 461.899 5.97628 1.25194 0
M  V30 4966 H 463.313 5.64593 -0.995349 0
M  V30 4967 H 461.71 5.7303 -1.78202 0
M  V30 4968 H 462.78 4.35886 -2.12442 0
M  V30 4969 N 464.123 0.554532 1.47522 0
M  V30 4970 C 465.033 -0.197865 2.33764 0
M  V30 4971 C 466.049 -0.914576 1.48025 0
M  V30 4972 O 467.225 -0.884067 1.80959 0
M  V30 4973 C 464.29 -1.21628 3.24665 0
M  V30 4974 C 463.351 -0.507283 4.26292 0
M  V30 4975 C 462.584 -1.47718 5.1285 0
M  V30 4976 O 462.807 -2.7118 5.01814 0
M  V30 4977 O 461.741 -1.00313 5.93482 0
M  V30 4978 H 465.567 0.50949 2.99396 0
M  V30 4979 H 463.152 0.315176 1.46038 0
M  V30 4980 H 465.034 -1.80421 3.80823 0
M  V30 4981 H 463.709 -1.9056 2.61665 0
M  V30 4982 H 462.616 0.121778 3.73902 0
M  V30 4983 H 463.949 0.140544 4.91999 0
M  V30 4984 N 465.601 -1.54893 0.290851 0
M  V30 4985 C 466.551 -2.19838 -0.604599 0
M  V30 4986 C 467.535 -1.16805 -1.10659 0
M  V30 4987 O 468.727 -1.42562 -1.04905 0
M  V30 4988 C 465.856 -2.93497 -1.78086 0
M  V30 4989 C 464.942 -4.03835 -1.29531 0
M  V30 4990 N 465.333 -5.03047 -0.527024 0
M  V30 4991 C 463.631 -4.17192 -1.57693 0
M  V30 4992 C 464.332 -5.81074 -0.269728 0
M  V30 4993 N 463.308 -5.36966 -0.846651 0
M  V30 4994 H 467.11 -2.93898 -0.00995032 0
M  V30 4995 H 464.624 -1.62121 0.0951353 0
M  V30 4996 H 466.621 -3.38484 -2.43381 0
M  V30 4997 H 465.281 -2.2095 -2.37931 0
M  V30 4998 H 466.292 -5.17611 -0.172872 0
M  V30 4999 H 462.969 -3.55845 -2.18359 0
M  V30 5000 H 464.359 -6.71005 0.346643 0
M  V30 5001 N 467.08 -0.0183926 -1.57589 0
M  V30 5002 C 468.028 0.985111 -2.10709 0
M  V30 5003 C 469.022 1.34397 -1.0312 0
M  V30 5004 O 470.228 1.32746 -1.21567 0
M  V30 5005 H 466.603 0.335418 -0.673052 0
M  V30 5006 H 468.574 0.511689 -2.9398 0
M  V30 5007 C 467.323 2.26202 -2.64061 0
M  V30 5008 H 466.646 1.9946 -3.4649 0
M  V30 5009 H 468.086 2.94652 -3.04887 0
M  V30 5010 C 466.545 2.98444 -1.5631 0
M  V30 5011 O 467.075 3.90142 -0.956674 0
M  V30 5012 N 465.281 2.6059 -1.28612 0
M  V30 5013 H 464.828 1.86101 -1.78112 0
M  V30 5014 H 464.786 3.09238 -0.567406 0
M  V30 5015 N 468.558 1.5553 0.254621 0
M  V30 5016 C 469.491 1.84624 1.34124 0
M  V30 5017 C 470.469 0.700693 1.46728 0
M  V30 5018 O 471.653 0.94564 1.63064 0
M  V30 5019 C 468.78 2.02412 2.71564 0
M  V30 5020 C 467.826 3.25028 2.7615 0
M  V30 5021 S 468.659 4.81893 2.33538 0
M  V30 5022 C 469.815 5.02677 3.72917 0
M  V30 5023 H 470.048 2.76501 1.09245 0
M  V30 5024 H 467.581 1.47537 0.455211 0
M  V30 5025 H 469.539 2.13345 3.50705 0
M  V30 5026 H 468.2 1.11391 2.93685 0
M  V30 5027 H 467.393 3.34418 3.77069 0
M  V30 5028 H 466.995 3.12781 2.05046 0
M  V30 5029 H 469.287 4.89546 4.68349 0
M  V30 5030 H 470.23 6.0468 3.68467 0
M  V30 5031 H 470.638 4.30561 3.65072 0
M  V30 5032 N 470.036 -0.519951 1.48776 0
M  V30 5033 C 470.983 -1.62352 1.64044 0
M  V30 5034 C 471.953 -1.58945 0.482251 0
M  V30 5035 O 473.138 -1.77219 0.706971 0
M  V30 5036 C 470.278 -3.00579 1.69547 0
M  V30 5037 C 469.391 -3.14145 2.96541 0
M  V30 5038 C 468.526 -4.42991 2.93142 0
M  V30 5039 C 467.565 -4.50122 4.14797 0
M  V30 5040 N 466.702 -5.7037 4.09418 0
M  V30 5041 H 471.542 -1.48643 2.58281 0
M  V30 5042 H 469.079 -0.723516 1.28077 0
M  V30 5043 H 471.037 -3.80671 1.70719 0
M  V30 5044 H 469.667 -3.13036 0.787918 0
M  V30 5045 H 468.719 -2.27239 3.05068 0
M  V30 5046 H 470.031 -3.15275 3.86527 0
M  V30 5047 H 469.185 -5.31385 2.92772 0
M  V30 5048 H 467.924 -4.44398 2.00902 0
M  V30 5049 H 466.929 -3.60133 4.15433 0
M  V30 5050 H 468.154 -4.50445 5.08208 0
M  V30 5051 H 466.1 -5.72655 3.20004 0
M  V30 5052 H 466.017 -5.73036 4.93119 0
M  V30 5053 H 467.285 -6.61023 4.13121 0
M  V30 5054 N 471.514 -1.37532 -0.769588 0
M  V30 5055 C 472.93 -1.18379 -1.07045 0
M  V30 5056 C 473.13 -0.0214312 -2.01489 0
M  V30 5057 O 472.186 0.637809 -2.44312 0
M  V30 5058 C 473.499 -2.50338 -1.66588 0
M  V30 5059 C 475.047 -2.56879 -1.78835 0
M  V30 5060 C 475.522 -3.88974 -2.41792 0
M  V30 5061 N 477.013 -3.90428 -2.4924 0
M  V30 5062 C 477.748 -4.89388 -2.98809 0
M  V30 5063 N 477.244 -5.98745 -3.48535 0
M  V30 5064 N 479.037 -4.76791 -2.97703 0
M  V30 5065 H 471.188 -2.11921 -0.142541 0
M  V30 5066 H 473.451 -0.939608 -0.125863 0
M  V30 5067 H 473.157 -3.35767 -1.0466 0
M  V30 5068 H 473.031 -2.67583 -2.65856 0
M  V30 5069 H 475.418 -1.71856 -2.39895 0
M  V30 5070 H 475.499 -2.43516 -0.783166 0
M  V30 5071 H 475.143 -4.74412 -1.81371 0
M  V30 5072 H 475.073 -3.99641 -3.4292 0
M  V30 5073 H 477.564 -3.11433 -2.14052 0
M  V30 5074 H 477.877 -6.70205 -3.84767 0
M  V30 5075 H 476.222 -6.02387 -3.46634 0
M  V30 5076 H 479.413 -3.90478 -2.58157 0
M  V30 5077 H 479.586 -5.54069 -3.36024 0
M  V30 5078 N 472.992 0.995999 -1.22138 0
M  V30 5079 C 474.269 1.70834 -0.952642 0
M  V30 5080 C 474.649 2.04257 0.533119 0
M  V30 5081 O 473.997 1.72343 1.50034 0
M  V30 5082 C 474.207 2.96119 -1.84701 0
M  V30 5083 C 475.555 3.68962 -2.10124 0
M  V30 5084 O 476.579 3.0612 -1.82124 0
M  V30 5085 O 475.438 4.82017 -2.57531 0
M  V30 5086 H 472.532 0.745498 -0.357997 0
M  V30 5087 H 475.078 1.05262 -1.33109 0
M  V30 5088 H 473.85 2.67898 -2.85213 0
M  V30 5089 H 473.473 3.6943 -1.46995 0
M  V30 5090 N 474.47 1.03057 1.19235 0
M  V30 5091 C 475.38 0.622922 2.26179 0
M  V30 5092 C 476.396 -0.346113 1.70523 0
M  V30 5093 O 477.572 -0.203572 2.00369 0
M  V30 5094 C 474.637 -0.0182063 3.46695 0
M  V30 5095 C 473.698 0.998546 4.17526 0
M  V30 5096 C 472.931 0.387917 5.32288 0
M  V30 5097 O 473.154 -0.808668 5.64639 0
M  V30 5098 O 472.088 1.1116 5.91546 0
M  V30 5099 H 475.914 1.51363 2.63292 0
M  V30 5100 H 473.499 0.800856 1.26122 0
M  V30 5101 H 475.381 -0.375606 4.19723 0
M  V30 5102 H 474.056 -0.882895 3.11427 0
M  V30 5103 H 472.963 1.40756 3.4661 0
M  V30 5104 H 474.296 1.83366 4.56769 0
M  V30 5105 N 475.948 -1.35272 0.808662 0
M  V30 5106 C 477.225 -1.93077 0.313181 0
M  V30 5107 C 477.605 -1.73847 -1.19752 0
M  V30 5108 O 476.953 -1.1087 -1.998 0
M  V30 5109 C 477.163 -3.41347 0.726859 0
M  V30 5110 C 478.511 -4.18493 0.717532 0
M  V30 5111 O 479.535 -3.4987 0.668535 0
M  V30 5112 O 478.394 -5.40937 0.777779 0
M  V30 5113 H 475.488 -0.822885 0.0824018 0
M  V30 5114 H 478.034 -1.44335 0.892499 0
M  V30 5115 H 476.806 -3.49082 1.76797 0
M  V30 5116 H 476.429 -3.97411 0.122461 0
M  V30 5117 N 477.426 -0.562348 -1.47226 0
M  V30 5118 C 478.837 -0.130325 -1.86245 0
M  V30 5119 C 479.188 1.30128 -1.46838 0
M  V30 5120 O 478.313 1.97974 -0.873805 0
M  V30 5121 C 478.908 -0.229738 -3.3802 0
M  V30 5122 C 477.467 0.14728 -3.76112 0
M  V30 5123 C 476.614 -0.574971 -2.71274 0
M  V30 5124 H 479.565 -0.771773 -1.3867 0
M  V30 5125 H 479.586 0.550316 -3.76499 0
M  V30 5126 H 479.098 -1.27178 -3.66671 0
M  V30 5127 H 477.199 1.19023 -3.53078 0
M  V30 5128 H 477.312 -0.214858 -4.78618 0
M  V30 5129 H 475.676 -0.0174756 -2.54694 0
M  V30 5130 H 476.459 -1.61827 -3.02766 0
M  V30 5131 N 478.904 1.54736 -0.299062 0
M  V30 5132 C 479.854 2.20155 0.592932 0
M  V30 5133 C 480.838 1.1739 1.10038 0
M  V30 5134 O 482.03 1.43116 1.04147 0
M  V30 5135 C 479.159 2.94437 1.76527 0
M  V30 5136 C 478.245 4.04516 1.27388 0
M  V30 5137 N 478.636 5.03319 0.500339 0
M  V30 5138 C 476.934 4.18022 1.55478 0
M  V30 5139 C 477.635 5.81209 0.238909 0
M  V30 5140 N 476.611 5.37408 0.818163 0
M  V30 5141 H 480.413 2.93899 -0.00563596 0
M  V30 5142 H 477.927 1.62068 -0.103732 0
M  V30 5143 H 479.924 3.3977 2.41582 0
M  V30 5144 H 478.584 2.22209 2.36756 0
M  V30 5145 H 479.595 5.17696 0.145419 0
M  V30 5146 H 476.272 3.56998 2.16469 0
M  V30 5147 H 477.662 6.70812 -0.382223 0
M  V30 5148 N 480.382 0.0267497 1.57577 0
M  V30 5149 C 481.329 -0.955894 2.10075 0
M  V30 5150 C 482.299 -1.32453 1.00226 0
M  V30 5151 O 483.484 -1.41826 1.27632 0
M  V30 5152 C 480.624 -2.2338 2.6305 0
M  V30 5153 C 479.737 -1.92183 3.86898 0
M  V30 5154 C 478.872 -3.14251 4.28275 0
M  V30 5155 C 477.911 -2.78862 5.44888 0
M  V30 5156 N 477.048 -3.93548 5.81433 0
M  V30 5157 H 481.888 -0.501303 2.93753 0
M  V30 5158 H 479.425 -0.235847 1.45197 0
M  V30 5159 H 481.383 -2.98124 2.91853 0
M  V30 5160 H 480.013 -2.6646 1.82205 0
M  V30 5161 H 479.065 -1.07692 3.64838 0
M  V30 5162 H 480.377 -1.62117 4.7172 0
M  V30 5163 H 479.531 -3.97317 4.58502 0
M  V30 5164 H 478.27 -3.47476 3.42215 0
M  V30 5165 H 477.275 -1.94208 5.14357 0
M  V30 5166 H 478.5 -2.46855 6.32645 0
M  V30 5167 H 476.446 -4.2662 4.98328 0
M  V30 5168 H 476.363 -3.67098 6.6089 0
M  V30 5169 H 477.631 -4.77325 6.16264 0
M  V30 5170 N 481.861 -1.55662 -0.24637 0
M  V30 5171 C 482.824 -1.89558 -1.28842 0
M  V30 5172 C 483.824 -0.772082 -1.41052 0
M  V30 5173 O 485.014 -1.04007 -1.39743 0
M  V30 5174 C 482.146 -2.12449 -2.66605 0
M  V30 5175 H 483.339 -2.82735 -1.00004 0
M  V30 5176 H 480.892 -1.48562 -0.485684 0
M  V30 5177 H 481.627 -1.21742 -3.00582 0
M  V30 5178 H 481.412 -2.94273 -2.59125 0
M  V30 5179 H 482.902 -2.39854 -3.41847 0
M  V30 5180 N 483.339 0.512053 -1.4905 0
M  V30 5181 C 484.302 1.59704 -1.64399 0
M  V30 5182 C 485.302 1.52285 -0.516317 0
M  V30 5183 O 486.492 1.55635 -0.782527 0
M  V30 5184 C 483.624 2.9935 -1.63102 0
M  V30 5185 H 484.817 1.47428 -2.61161 0
M  V30 5186 H 482.37 0.735469 -1.37915 0
M  V30 5187 H 483.105 3.17116 -0.678836 0
M  V30 5188 H 482.89 3.06144 -2.44986 0
M  V30 5189 H 484.38 3.782 -1.77072 0
M  V30 5190 N 484.817 1.37938 0.762283 0
M  V30 5191 C 485.764 1.34467 1.87583 0
M  V30 5192 C 486.734 0.208633 1.64785 0
M  V30 5193 O 487.919 0.399494 1.86571 0
M  V30 5194 C 485.059 1.16692 3.24772 0
M  V30 5195 C 484.172 2.39608 3.59461 0
M  V30 5196 C 483.307 2.14631 4.85908 0
M  V30 5197 C 482.346 3.33364 5.13357 0
M  V30 5198 N 481.483 3.07877 6.30996 0
M  V30 5199 H 486.323 2.29669 1.89885 0
M  V30 5200 H 483.86 1.14116 0.928219 0
M  V30 5201 H 485.818 1.04405 4.03925 0
M  V30 5202 H 484.448 0.251333 3.2182 0
M  V30 5203 H 483.5 2.626 2.75219 0
M  V30 5204 H 484.812 3.28128 3.75678 0
M  V30 5205 H 483.966 1.99429 5.72986 0
M  V30 5206 H 482.705 1.23463 4.71814 0
M  V30 5207 H 481.71 3.49094 4.24751 0
M  V30 5208 H 482.935 4.25395 5.29354 0
M  V30 5209 H 480.881 2.19348 6.18241 0
M  V30 5210 H 480.798 3.89944 6.47673 0
M  V30 5211 H 482.066 2.96313 7.20985 0
M  V30 5212 N 486.295 -0.989507 1.22664 0
M  V30 5213 C 487.205 -2.11449 1.01619 0
M  V30 5214 C 488.221 -1.73962 -0.036545 0
M  V30 5215 O 489.397 -2.00788 0.156924 0
M  V30 5216 C 486.462 -3.41465 0.600204 0
M  V30 5217 C 485.523 -3.93033 1.72695 0
M  V30 5218 C 484.756 -5.16844 1.33071 0
M  V30 5219 O 484.979 -5.7001 0.210975 0
M  V30 5220 O 483.913 -5.6225 2.14845 0
M  V30 5221 H 487.739 -2.32088 1.9588 0
M  V30 5222 H 485.324 -1.09823 1.01289 0
M  V30 5223 H 487.206 -4.19695 0.37873 0
M  V30 5224 H 485.881 -3.22178 -0.313511 0
M  V30 5225 H 484.788 -3.15961 2.00298 0
M  V30 5226 H 486.121 -4.16758 2.61865 0
M  V30 5227 N 487.773 -1.03688 -1.18687 0
M  V30 5228 C 488.706 -0.569112 -2.2099 0
M  V30 5229 C 489.684 0.394315 -1.57746 0
M  V30 5230 O 490.868 0.309519 -1.85941 0
M  V30 5231 C 487.995 0.169104 -3.38278 0
M  V30 5232 C 487.041 -0.746989 -4.19908 0
M  V30 5233 S 487.874 -2.22773 -4.86963 0
M  V30 5234 C 489.03 -1.50025 -6.07654 0
M  V30 5235 H 489.263 -1.43589 -2.60326 0
M  V30 5236 H 486.796 -0.847507 -1.29061 0
M  V30 5237 H 488.754 0.588868 -4.06254 0
M  V30 5238 H 487.415 1.01172 -2.9736 0
M  V30 5239 H 486.608 -0.176626 -5.0369 0
M  V30 5240 H 486.21 -1.10543 -3.5729 0
M  V30 5241 H 488.502 -0.791217 -6.72864 0
M  V30 5242 H 489.445 -2.31498 -6.69189 0
M  V30 5243 H 489.853 -0.994245 -5.55675 0
M  V30 5244 N 489.251 1.34841 -0.815825 0
M  V30 5245 C 490.662 1.80937 -0.46029 0
M  V30 5246 C 491.013 1.67685 1.01863 0
M  V30 5247 O 490.138 1.21277 1.79223 0
M  V30 5248 C 490.733 3.28509 -0.828708 0
M  V30 5249 C 489.292 3.72712 -0.525644 0
M  V30 5250 C 488.439 2.56676 -1.04941 0
M  V30 5251 H 491.39 1.22688 -1.00664 0
M  V30 5252 H 491.411 3.80279 -0.129757 0
M  V30 5253 H 490.923 3.38122 -1.90513 0
M  V30 5254 H 489.024 3.68642 0.541666 0
M  V30 5255 H 489.137 4.67119 -1.06474 0
M  V30 5256 H 487.501 2.50302 -0.471286 0
M  V30 5257 H 488.284 2.69063 -2.13214 0
M  V30 5258 N 490.729 0.570148 1.46925 0
M  V30 5259 C 491.976 0.0509529 2.02436 0
M  V30 5260 C 492.304 -1.30405 1.44308 0
M  V30 5261 O 491.559 -1.86493 0.593198 0
M  V30 5262 C 491.858 -0.0780336 3.57315 0
M  V30 5263 C 491.524 1.20775 4.34424 0
M  V30 5264 C 490.186 1.56004 4.5521 0
M  V30 5265 C 492.538 2.0592 4.78797 0
M  V30 5266 C 489.866 2.76201 5.17619 0
M  V30 5267 C 492.218 3.25332 5.42533 0
M  V30 5268 C 490.882 3.60859 5.61549 0
M  V30 5269 H 490.152 0.018645 0.740765 0
M  V30 5270 H 492.799 0.744262 1.76445 0
M  V30 5271 H 491.104 -0.854394 3.82371 0
M  V30 5272 H 492.801 -0.495312 3.97929 0
M  V30 5273 H 489.391 0.923469 4.18533 0
M  V30 5274 H 493.575 1.80008 4.62505 0
M  V30 5275 H 488.831 3.0388 5.30535 0
M  V30 5276 H 493.005 3.91586 5.75876 0
M  V30 5277 H 490.632 4.54088 6.09678 0
M  V30 5278 N 492.207 -1.54576 0.307264 0
M  V30 5279 C 493.139 -2.21212 -0.599807 0
M  V30 5280 C 494.152 -1.20685 -1.09266 0
M  V30 5281 O 495.341 -1.47244 -1.00903 0
M  V30 5282 C 492.441 -2.84994 -1.83389 0
M  V30 5283 C 491.614 -4.11511 -1.48248 0
M  V30 5284 C 490.673 -4.59038 -2.57237 0
M  V30 5285 O 489.699 -5.24095 -2.22065 0
M  V30 5286 N 490.901 -4.31884 -3.87887 0
M  V30 5287 H 493.666 -2.99686 -0.0293075 0
M  V30 5288 H 491.227 -1.61379 0.129738 0
M  V30 5289 H 493.219 -3.1372 -2.5566 0
M  V30 5290 H 491.789 -2.10324 -2.31263 0
M  V30 5291 H 491.009 -3.89728 -0.592122 0
M  V30 5292 H 492.297 -4.93879 -1.22316 0
M  V30 5293 H 491.695 -3.79778 -4.19268 0
M  V30 5294 H 490.252 -4.65304 -4.56438 0
M  V30 5295 N 493.685 -0.035106 -1.57561 0
M  V30 5296 C 494.933 0.64096 -1.91667 0
M  V30 5297 C 495.254 1.72323 -0.912681 0
M  V30 5298 O 494.524 1.95849 0.0449089 0
M  V30 5299 H 493.104 0.239743 -0.707483 0
M  V30 5300 H 495.766 -0.084321 -1.94718 0
M  V30 5301 H 494.862 1.08987 -2.92452 0
M  V30 5302 N 495.163 1.55791 0.238111 0
M  V30 5303 C 496.388 1.8244 0.986432 0
M  V30 5304 C 496.813 0.613314 1.7782 0
M  V30 5305 O 496.171 -0.437767 1.75935 0
M  V30 5306 C 496.219 3.06917 1.893 0
M  V30 5307 O 495.323 2.84449 2.98601 0
M  V30 5308 H 494.664 0.601975 0.280218 0
M  V30 5309 H 497.194 2.02987 0.256437 0
M  V30 5310 H 497.204 3.36583 2.30598 0
M  V30 5311 H 495.879 3.947 1.31091 0
M  V30 5312 H 494.456 2.65972 2.61368 0
M  V30 5313 N 496.642 -0.504142 1.49319 0
M  V30 5314 C 497.89 -1.25598 1.58334 0
M  V30 5315 C 498.211 -1.93114 0.270538 0
M  V30 5316 O 497.481 -1.82585 -0.709891 0
M  V30 5317 H 496.061 -0.466571 0.58337 0
M  V30 5318 H 498.723 -0.584547 1.85928 0
M  V30 5319 H 497.819 -2.02159 2.37778 0
M  V30 5320 N 498.12 -1.38341 -0.754957 0
M  V30 5321 C 499.067 -1.3546 -1.86867 0
M  V30 5322 C 500.037 -0.217369 -1.64672 0
M  V30 5323 O 501.222 -0.409383 -1.86356 0
M  V30 5324 C 498.362 -1.18413 -3.24149 0
M  V30 5325 C 497.475 -2.41511 -3.58185 0
M  V30 5326 C 496.61 -2.17205 -4.84763 0
M  V30 5327 C 495.649 -3.36081 -5.11582 0
M  V30 5328 N 494.786 -3.11219 -6.29354 0
M  V30 5329 H 499.626 -2.30672 -1.88664 0
M  V30 5330 H 497.163 -1.14607 -0.922154 0
M  V30 5331 H 499.121 -1.06545 -4.03366 0
M  V30 5332 H 497.751 -0.268397 -3.21682 0
M  V30 5333 H 496.803 -2.64056 -2.73822 0
M  V30 5334 H 498.115 -3.30115 -3.73932 0
M  V30 5335 H 497.269 -2.02465 -5.7192 0
M  V30 5336 H 496.008 -1.25964 -4.71152 0
M  V30 5337 H 495.013 -3.51341 -4.22894 0
M  V30 5338 H 496.238 -4.28196 -5.27091 0
M  V30 5339 H 494.184 -2.22624 -6.17069 0
M  V30 5340 H 494.101 -3.93373 -6.45596 0
M  V30 5341 H 495.369 -3.00132 -7.19403 0
M  V30 5342 N 499.598 0.982988 -1.23187 0
M  V30 5343 C 500.823 1.76455 -1.08988 0
M  V30 5344 C 501.248 1.84726 0.354691 0
M  V30 5345 O 500.606 1.30699 1.25649 0
M  V30 5346 C 500.654 3.17094 -1.71708 0
M  V30 5347 O 499.758 4.00648 -0.977477 0
M  V30 5348 H 499.099 0.542988 -0.382177 0
M  V30 5349 H 501.629 1.23413 -1.63188 0
M  V30 5350 H 501.639 3.67684 -1.76841 0
M  V30 5351 H 500.314 3.10389 -2.76823 0
M  V30 5352 H 498.891 3.59161 -1.0029 0
M  V30 5353 N 501.076 1.04316 1.18135 0
M  V30 5354 C 502.039 0.640794 2.2006 0
M  V30 5355 C 503.039 -0.303124 1.57917 0
M  V30 5356 O 504.229 -0.0881855 1.73977 0
M  V30 5357 C 501.361 -0.060148 3.40847 0
M  V30 5358 H 502.554 1.54281 2.57172 0
M  V30 5359 H 500.107 0.836004 1.32063 0
M  V30 5360 H 500.842 -0.975845 3.0927 0
M  V30 5361 H 500.627 0.618319 3.87194 0
M  V30 5362 H 502.117 -0.328082 4.16309 0
M  V30 5363 N 502.554 -1.34406 0.822964 0
M  V30 5364 C 503.8 -1.98999 0.420847 0
M  V30 5365 C 504.155 -1.64067 -1.00498 0
M  V30 5366 O 503.448 -0.902071 -1.69036 0
M  V30 5367 C 503.642 -3.52981 0.560268 0
M  V30 5368 C 503.471 -4.02873 1.99809 0
M  V30 5369 C 502.241 -4.31463 2.62998 0
M  V30 5370 C 504.439 -4.20241 2.96483 0
M  V30 5371 N 502.421 -4.6739 3.9802 0
M  V30 5372 C 503.792 -4.59348 4.16413 0
M  V30 5373 C 505.847 -4.02489 2.93098 0
M  V30 5374 C 504.55 -4.82559 5.33413 0
M  V30 5375 C 506.576 -4.26866 4.09315 0
M  V30 5376 C 505.938 -4.6626 5.27997 0
M  V30 5377 H 502.037 -0.755432 0.202104 0
M  V30 5378 H 504.621 -1.62815 1.06767 0
M  V30 5379 H 502.792 -3.88359 -0.0566596 0
M  V30 5380 H 504.524 -4.04487 0.131146 0
M  V30 5381 H 501.279 -4.22373 2.14238 0
M  V30 5382 H 501.703 -4.89588 4.67582 0
M  V30 5383 H 506.345 -3.71161 2.02483 0
M  V30 5384 H 504.063 -5.12754 6.24587 0
M  V30 5385 H 507.649 -4.14667 4.08096 0
M  V30 5386 H 506.529 -4.84752 6.16429 0
M  V30 5387 N 504.032 -0.577932 -1.46621 0
M  V30 5388 C 505.272 -0.0643097 -2.04299 0
M  V30 5389 C 505.636 1.26967 -1.44026 0
M  V30 5390 O 506.837 1.87224 -1.92875 0
M  V30 5391 C 505.108 0.00547588 -3.574 0
M  V30 5392 S 506.667 0.462216 -4.36359 0
M  V30 5393 H 503.485 -0.0351573 -0.71013 0
M  V30 5394 H 506.087 -0.76935 -1.79725 0
M  V30 5395 H 504.791 -0.969423 -3.98786 0
M  V30 5396 H 504.322 0.733435 -3.86503 0
M  V30 5397 H 506.337 1.71791 -4.65513 0
M  V30 5398 N 505.51 1.54411 -0.315457 0
M  V30 5399 C 506.921 1.85885 0.174265 0
M  V30 5400 C 507.272 1.23723 1.52273 0
M  V30 5401 O 506.397 0.540246 2.09548 0
M  V30 5402 C 506.992 3.37257 0.322981 0
M  V30 5403 C 505.551 3.68711 0.756922 0
M  V30 5404 C 504.698 2.77013 -0.126195 0
M  V30 5405 H 507.649 1.49374 -0.536007 0
M  V30 5406 H 507.67 3.62539 1.15522 0
M  V30 5407 H 507.182 3.82471 -0.658602 0
M  V30 5408 H 505.283 3.29024 1.74854 0
M  V30 5409 H 505.396 4.75741 0.566291 0
M  V30 5410 H 503.76 2.51588 0.39692 0
M  V30 5411 H 504.543 3.25051 -1.1044 0
M  V30 5412 N 506.988 0.0434614 1.5754 0
M  V30 5413 C 508.234 -0.632971 1.92669 0
M  V30 5414 C 508.567 -1.70947 0.921446 0
M  V30 5415 O 507.842 -1.94426 -0.0537202 0
M  V30 5416 C 508.125 -1.23619 3.38216 0
M  V30 5417 C 507.978 -0.168274 4.49485 0
M  V30 5418 C 509.297 -2.15008 3.84005 0
M  V30 5419 H 506.416 -0.228629 0.700641 0
M  V30 5420 H 509.058 0.103651 1.89717 0
M  V30 5421 H 507.208 -1.864 3.40863 0
M  V30 5422 H 508.88 0.463196 4.58969 0
M  V30 5423 H 507.123 0.504581 4.30855 0
M  V30 5424 H 507.794 -0.630218 5.48391 0
M  V30 5425 H 510.27 -1.62198 3.83185 0
M  V30 5426 H 509.146 -2.54161 4.86511 0
M  V30 5427 H 509.407 -3.04707 3.20322 0
M  V30 5428 N 508.466 -1.55915 -0.229846 0
M  V30 5429 C 509.376 -1.94891 -1.30593 0
M  V30 5430 C 510.392 -0.851604 -1.51736 0
M  V30 5431 O 511.568 -1.15447 -1.65027 0
M  V30 5432 C 508.633 -2.25052 -2.63728 0
M  V30 5433 C 507.694 -3.48306 -2.5096 0
M  V30 5434 C 506.927 -3.77019 -3.77747 0
M  V30 5435 O 507.15 -3.07534 -4.80395 0
M  V30 5436 O 506.084 -4.70523 -3.75356 0
M  V30 5437 H 509.91 -2.86581 -1.00525 0
M  V30 5438 H 507.495 -1.43017 -0.432025 0
M  V30 5439 H 509.377 -2.45682 -3.42372 0
M  V30 5440 H 508.052 -1.36538 -2.93495 0
M  V30 5441 H 506.959 -3.32964 -1.70546 0
M  V30 5442 H 508.292 -4.37177 -2.26136 0
M  V30 5443 N 509.944 0.496216 -1.49584 0
M  V30 5444 C 511.193 1.24668 -1.58558 0
M  V30 5445 C 511.506 1.9359 -0.279703 0
M  V30 5446 O 512.712 2.70365 -0.248048 0
M  V30 5447 C 511.168 2.26388 -2.79779 0
M  V30 5448 C 510.776 1.63384 -4.17145 0
M  V30 5449 C 512.52 3.02233 -2.98086 0
M  V30 5450 C 510.427 2.63243 -5.29582 0
M  V30 5451 H 509.357 0.468995 -0.590389 0
M  V30 5452 H 512.008 0.519985 -1.75978 0
M  V30 5453 H 510.39 3.02241 -2.55863 0
M  V30 5454 H 511.564 0.93491 -4.51216 0
M  V30 5455 H 509.879 0.999121 -4.04236 0
M  V30 5456 H 512.476 3.76919 -3.79257 0
M  V30 5457 H 512.819 3.60132 -2.08831 0
M  V30 5458 H 513.352 2.33495 -3.22063 0
M  V30 5459 H 510.091 2.10119 -6.20911 0
M  V30 5460 H 509.611 3.31363 -4.99959 0
M  V30 5461 H 511.29 3.25575 -5.59115 0
M  V30 5462 N 511.423 1.38739 0.74761 0
M  V30 5463 C 512.648 1.38702 1.54197 0
M  V30 5464 C 513.073 -0.019664 1.8809 0
M  V30 5465 O 512.431 -1.00333 1.51006 0
M  V30 5466 C 512.479 2.25492 2.814 0
M  V30 5467 O 511.583 1.67613 3.76802 0
M  V30 5468 H 510.924 0.472863 0.466151 0
M  V30 5469 H 513.454 1.82577 0.923413 0
M  V30 5470 H 513.464 2.39561 3.30264 0
M  V30 5471 H 512.139 3.27727 2.56062 0
M  V30 5472 H 510.716 1.62718 3.35526 0
M  V30 5473 N 512.901 -0.976442 1.23707 0
M  V30 5474 C 513.848 -2.06952 1.02174 0
M  V30 5475 C 514.818 -1.65984 -0.0621034 0
M  V30 5476 O 516.003 -1.90584 0.0907906 0
M  V30 5477 C 513.143 -3.39425 0.62327 0
M  V30 5478 C 512.256 -3.9364 1.77966 0
M  V30 5479 C 511.391 -5.14343 1.3276 0
M  V30 5480 C 510.43 -5.60733 2.45449 0
M  V30 5481 N 509.567 -6.72662 2.01172 0
M  V30 5482 H 514.407 -2.24704 1.95734 0
M  V30 5483 H 511.944 -1.10143 0.975034 0
M  V30 5484 H 513.902 -4.15526 0.37332 0
M  V30 5485 H 512.532 -3.21624 -0.275329 0
M  V30 5486 H 511.584 -3.14258 2.14351 0
M  V30 5487 H 512.896 -4.24035 2.62671 0
M  V30 5488 H 512.05 -5.97789 1.03601 0
M  V30 5489 H 510.789 -4.8561 0.450975 0
M  V30 5490 H 509.794 -4.75865 2.75378 0
M  V30 5491 H 511.019 -5.91483 3.33654 0
M  V30 5492 H 508.965 -6.45681 1.15895 0
M  V30 5493 H 508.882 -7.02462 2.79434 0
M  V30 5494 H 510.15 -7.59572 1.75129 0
M  V30 5495 N 514.379 -1.04941 -1.1758 0
M  V30 5496 C 515.607 -0.778294 -1.91703 0
M  V30 5497 C 516.022 0.665697 -1.76675 0
M  V30 5498 O 515.379 1.45456 -1.10222 0
M  V30 5499 C 515.43 -1.14628 -3.42845 0
M  V30 5500 O 515.151 -2.53359 -3.57409 0
M  V30 5501 C 516.652 -0.900931 -4.34049 0
M  V30 5502 H 513.872 -0.283167 -0.608323 0
M  V30 5503 H 516.416 -1.39942 -1.49119 0
M  V30 5504 H 514.571 -0.569953 -3.83184 0
M  V30 5505 H 514.985 -2.67709 -4.51035 0
M  V30 5506 H 516.459 -1.20817 -5.38616 0
M  V30 5507 H 516.936 0.163966 -4.38894 0
M  V30 5508 H 517.542 -1.46097 -3.99419 0
M  V30 5509 N 515.857 1.33968 -0.830081 0
M  V30 5510 C 517.103 1.98357 -0.422191 0
M  V30 5511 C 517.436 1.65633 1.01387 0
M  V30 5512 O 516.711 0.931648 1.70735 0
M  V30 5513 C 516.994 3.54492 -0.633043 0
M  V30 5514 C 516.847 3.96934 -2.11574 0
M  V30 5515 C 518.166 4.40039 -0.0735584 0
M  V30 5516 H 515.285 0.720544 -0.154871 0
M  V30 5517 H 517.927 1.58749 -1.04397 0
M  V30 5518 H 516.077 3.88361 -0.103775 0
M  V30 5519 H 517.749 3.73363 -2.7092 0
M  V30 5520 H 515.992 3.46984 -2.60354 0
M  V30 5521 H 516.663 5.05651 -2.21406 0
M  V30 5522 H 519.139 4.12764 -0.52585 0
M  V30 5523 H 518.015 5.48327 -0.250841 0
M  V30 5524 H 518.276 4.30124 1.02202 0
M  V30 5525 N 517.335 0.585699 1.46312 0
M  V30 5526 C 518.265 -0.133556 2.33118 0
M  V30 5527 C 519.246 -0.880707 1.45525 0
M  V30 5528 O 520.431 -0.855579 1.74337 0
M  V30 5529 C 517.561 -1.14585 3.27853 0
M  V30 5530 C 516.515 -0.513341 4.2491 0
M  V30 5531 C 515.841 -1.63231 5.09175 0
M  V30 5532 C 517.141 0.551413 5.19381 0
M  V30 5533 H 518.835 0.59121 2.93505 0
M  V30 5534 H 516.381 0.285761 1.41136 0
M  V30 5535 H 518.334 -1.65741 3.87438 0
M  V30 5536 H 517.058 -1.90093 2.65579 0
M  V30 5537 H 515.717 -0.0228349 3.66593 0
M  V30 5538 H 515.365 -2.37713 4.43285 0
M  V30 5539 H 515.065 -1.21473 5.74907 0
M  V30 5540 H 516.589 -2.14658 5.71624 0
M  V30 5541 H 518.003 0.124804 5.73164 0
M  V30 5542 H 516.4 0.889486 5.93471 0
M  V30 5543 H 517.47 1.43655 4.63132 0
M  V30 5544 N 518.813 -1.54241 0.323641 0
M  V30 5545 C 520.059 -2.01572 -0.272089 0
M  V30 5546 C 520.414 -1.20774 -1.49771 0
M  V30 5547 O 519.707 -0.281821 -1.89516 0
M  V30 5548 C 519.901 -3.5129 -0.658031 0
M  V30 5549 C 519.73 -4.46582 0.528645 0
M  V30 5550 C 518.5 -4.94737 1.02777 0
M  V30 5551 C 520.698 -4.95416 1.38086 0
M  V30 5552 N 518.68 -5.73933 2.17885 0
M  V30 5553 C 520.051 -5.72537 2.3791 0
M  V30 5554 C 522.106 -4.77559 1.40861 0
M  V30 5555 C 520.809 -6.33702 3.40314 0
M  V30 5556 C 522.835 -5.39559 2.42136 0
M  V30 5557 C 522.197 -6.16532 3.40688 0
M  V30 5558 H 518.296 -0.779425 -0.0634072 0
M  V30 5559 H 520.88 -1.8922 0.458697 0
M  V30 5560 H 519.051 -3.63888 -1.35795 0
M  V30 5561 H 520.783 -3.85388 -1.23524 0
M  V30 5562 H 517.538 -4.69796 0.599046 0
M  V30 5563 H 517.962 -6.18209 2.75947 0
M  V30 5564 H 522.604 -4.17611 0.660352 0
M  V30 5565 H 520.322 -6.9277 4.16047 0
M  V30 5566 H 523.908 -5.27659 2.45086 0
M  V30 5567 H 522.788 -6.63655 4.1777 0
M  V30 5568 N 520.291 -0.0518155 -1.57515 0
M  V30 5569 C 521.702 0.483787 -1.80323 0
M  V30 5570 C 522.053 1.70879 -0.964099 0
M  V30 5571 O 521.178 2.15643 -0.180872 0
M  V30 5572 C 521.773 0.884459 -3.27052 0
M  V30 5573 C 520.332 1.36504 -3.50776 0
M  V30 5574 C 519.479 0.340539 -2.75201 0
M  V30 5575 H 522.43 -0.277691 -1.56252 0
M  V30 5576 H 522.451 1.74733 -3.38007 0
M  V30 5577 H 521.963 -0.00731093 -3.88099 0
M  V30 5578 H 520.064 2.27598 -2.95009 0
M  V30 5579 H 520.177 1.35675 -4.59488 0
M  V30 5580 H 518.541 0.81356 -2.41357 0
M  V30 5581 H 519.324 -0.543156 -3.38976 0
M  V30 5582 N 521.769 1.56035 0.221574 0
M  V30 5583 C 522.679 1.95581 1.29558 0
M  V30 5584 C 523.695 0.859639 1.51282 0
M  V30 5585 O 524.871 1.16321 1.64413 0
M  V30 5586 C 521.936 2.26447 2.62531 0
M  V30 5587 C 520.997 3.49632 2.4911 0
M  V30 5588 C 520.23 3.79017 3.75742 0
M  V30 5589 O 520.453 3.10077 4.78757 0
M  V30 5590 O 519.387 4.72507 3.72855 0
M  V30 5591 H 523.213 2.8711 0.990035 0
M  V30 5592 H 520.798 1.43244 0.424434 0
M  V30 5593 H 522.68 2.47494 3.41064 0
M  V30 5594 H 521.355 1.38092 2.92766 0
M  V30 5595 H 520.262 3.33864 1.68777 0
M  V30 5596 H 521.595 4.3837 2.23814 0
M  V30 5597 N 523.247 -0.488276 1.49845 0
M  V30 5598 C 524.472 -1.26997 1.63971 0
M  V30 5599 C 524.897 -1.85427 0.315994 0
M  V30 5600 O 524.255 -1.66475 -0.718032 0
M  V30 5601 C 524.303 -2.36689 2.72049 0
M  V30 5602 O 523.407 -3.40882 2.32107 0
M  V30 5603 H 522.748 -0.374376 0.548396 0
M  V30 5604 H 525.278 -0.583104 1.96115 0
M  V30 5605 H 525.288 -2.82262 2.94605 0
M  V30 5606 H 523.963 -1.93529 3.68129 0
M  V30 5607 H 522.54 -3.01139 2.19931 0
M  V30 5608 N 524.725 -1.39134 -0.740242 0
M  V30 5609 C 525.974 -1.35384 -1.49512 0
M  V30 5610 C 526.287 0.04919 -1.95538 0
M  V30 5611 O 527.493 0.209257 -2.70692 0
M  V30 5612 C 525.949 -2.37812 -2.70136 0
M  V30 5613 C 525.557 -3.83804 -2.31081 0
M  V30 5614 C 527.301 -2.4313 -3.47977 0
M  V30 5615 C 525.208 -4.77886 -3.48395 0
M  V30 5616 H 524.138 -0.503297 -0.561434 0
M  V30 5617 H 526.789 -1.64754 -0.807974 0
M  V30 5618 H 525.171 -2.01505 -3.40899 0
M  V30 5619 H 526.345 -4.29123 -1.67898 0
M  V30 5620 H 524.66 -3.81732 -1.66343 0
M  V30 5621 H 527.257 -3.10614 -4.35228 0
M  V30 5622 H 527.6 -1.45423 -3.90074 0
M  V30 5623 H 528.133 -2.78304 -2.84239 0
M  V30 5624 H 524.872 -5.76836 -3.11353 0
M  V30 5625 H 524.392 -4.3725 -4.10576 0
M  V30 5626 H 526.071 -4.96538 -4.148 0
M  V30 5627 N 526.204 0.969867 -1.24223 0
M  V30 5628 C 527.429 1.75289 -1.10853 0
M  V30 5629 C 527.854 1.85091 0.335079 0
M  V30 5630 O 527.212 1.32024 1.24255 0
M  V30 5631 C 527.26 3.15255 -1.75062 0
M  V30 5632 O 526.364 3.99589 -1.01992 0
M  V30 5633 H 525.705 0.538904 -0.387915 0
M  V30 5634 H 528.235 1.21675 -1.64488 0
M  V30 5635 H 528.245 3.65787 -1.80731 0
M  V30 5636 H 526.92 3.07436 -2.801 0
M  V30 5637 H 525.497 3.58077 -1.04094 0
M  V30 5638 N 527.682 1.05563 1.17022 0
M  V30 5639 C 528.928 0.769074 1.87652 0
M  V30 5640 C 529.261 -0.702326 1.81055 0
M  V30 5641 O 528.536 -1.5139 1.22112 0
M  V30 5642 C 528.819 1.25492 3.37526 0
M  V30 5643 C 528.672 2.78953 3.52853 0
M  V30 5644 C 529.991 0.856919 4.31677 0
M  V30 5645 H 527.11 0.280854 0.681388 0
M  V30 5646 H 529.752 1.31027 1.37593 0
M  V30 5647 H 527.902 0.794516 3.80289 0
M  V30 5648 H 529.574 3.33146 3.19079 0
M  V30 5649 H 527.817 3.18046 2.95007 0
M  V30 5650 H 528.488 3.08011 4.58076 0
M  V30 5651 H 530.964 1.25334 3.96775 0
M  V30 5652 H 529.84 1.22443 5.35069 0
M  V30 5653 H 530.101 -0.238787 4.41455 0
M  V30 5654 N 529.16 -1.33526 0.837174 0
M  V30 5655 C 530.406 -1.9813 0.432704 0
M  V30 5656 C 530.739 -1.66168 -1.00508 0
M  V30 5657 O 530.014 -0.94069 -1.70239 0
M  V30 5658 C 530.297 -3.54151 0.651834 0
M  V30 5659 C 530.15 -3.95806 2.13676 0
M  V30 5660 C 531.469 -4.39993 0.0968937 0
M  V30 5661 H 528.588 -0.719713 0.15869 0
M  V30 5662 H 531.23 -1.58193 1.05237 0
M  V30 5663 H 529.38 -3.88301 0.124369 0
M  V30 5664 H 531.052 -3.71921 2.72896 0
M  V30 5665 H 529.295 -3.45599 2.62191 0
M  V30 5666 H 529.966 -5.0447 2.24084 0
M  V30 5667 H 532.442 -4.12479 0.547733 0
M  V30 5668 H 531.318 -5.48186 0.279917 0
M  V30 5669 H 531.579 -4.3066 -0.9992 0
M  V30 5670 N 530.638 -0.59345 -1.46 0
M  V30 5671 C 532.054 -0.255965 -1.57534 0
M  V30 5672 C 532.254 1.24167 -1.58697 0
M  V30 5673 O 531.31 2.02398 -1.50968 0
M  V30 5674 C 532.623 -0.91466 -2.86451 0
M  V30 5675 C 534.171 -0.889253 -3.00102 0
M  V30 5676 C 534.646 -1.52769 -4.3177 0
M  V30 5677 N 536.137 -1.49253 -4.38495 0
M  V30 5678 C 536.872 -1.9558 -5.39014 0
M  V30 5679 N 536.368 -2.49929 -6.46148 0
M  V30 5680 N 538.161 -1.86432 -5.30282 0
M  V30 5681 H 530.312 -1.56604 -1.43489 0
M  V30 5682 H 532.575 -0.655207 -0.685133 0
M  V30 5683 H 532.281 -1.96861 -2.91442 0
M  V30 5684 H 532.155 -0.429356 -3.74748 0
M  V30 5685 H 534.542 0.156111 -2.94687 0
M  V30 5686 H 534.623 -1.41268 -2.13253 0
M  V30 5687 H 534.267 -2.57231 -4.37944 0
M  V30 5688 H 534.197 -0.979398 -5.17412 0
M  V30 5689 H 536.688 -1.09536 -3.61677 0
M  V30 5690 H 537.001 -2.83109 -7.19075 0
M  V30 5691 H 535.346 -2.53961 -6.46938 0
M  V30 5692 H 538.537 -1.43722 -4.4549 0
M  V30 5693 H 538.71 -2.22852 -6.08474 0
M  V30 5694 N 532.116 1.54067 -0.331816 0
M  V30 5695 C 533.356 2.02625 0.26876 0
M  V30 5696 C 533.72 1.21462 1.48697 0
M  V30 5697 O 534.921 1.59863 2.16096 0
M  V30 5698 C 533.192 3.52554 0.586577 0
M  V30 5699 S 534.751 4.23035 1.16563 0
M  V30 5700 H 531.569 0.706395 0.0807862 0
M  V30 5701 H 534.171 1.89844 -0.466856 0
M  V30 5702 H 532.875 4.09242 -0.308046 0
M  V30 5703 H 532.406 3.69432 1.35217 0
M  V30 5704 H 534.421 4.31382 2.45203 0
M  V30 5705 N 533.594 0.0601682 1.57485 0
M  V30 5706 C 534.84 -0.612501 1.93329 0
M  V30 5707 C 535.173 -1.6996 0.939526 0
M  V30 5708 O 534.448 -1.94472 -0.0330957 0
M  V30 5709 C 534.731 -1.20025 3.39508 0
M  V30 5710 C 534.584 -0.12059 4.49638 0
M  V30 5711 C 535.903 -2.10923 3.86264 0
M  V30 5712 H 533.022 -0.221185 0.703027 0
M  V30 5713 H 535.664 0.123768 1.89596 0
M  V30 5714 H 533.814 -1.82774 3.42821 0
M  V30 5715 H 535.486 0.51185 4.58452 0
M  V30 5716 H 533.729 0.550251 4.30296 0
M  V30 5717 H 534.4 -0.572019 5.49028 0
M  V30 5718 H 536.876 -1.58124 3.84884 0
M  V30 5719 H 535.752 -2.48987 4.8918 0
M  V30 5720 H 536.013 -3.01292 3.23536 0
M  V30 5721 N 535.072 -1.5615 -0.213296 0
M  V30 5722 C 535.982 -1.96265 -1.28519 0
M  V30 5723 C 536.998 -0.86765 -1.50824 0
M  V30 5724 O 538.174 -1.17191 -1.63793 0
M  V30 5725 C 535.239 -2.27836 -2.61327 0
M  V30 5726 C 534.3 -3.50949 -2.47252 0
M  V30 5727 C 533.533 -3.81004 -3.73727 0
M  V30 5728 O 533.756 -3.12612 -4.77106 0
M  V30 5729 O 532.69 -4.74477 -3.70344 0
M  V30 5730 H 536.516 -2.87631 -0.974795 0
M  V30 5731 H 534.101 -1.43467 -0.416832 0
M  V30 5732 H 535.983 -2.49299 -3.39747 0
M  V30 5733 H 534.658 -1.39643 -2.9203 0
M  V30 5734 H 533.565 -3.34754 -1.67004 0
M  V30 5735 H 534.898 -4.39551 -2.21486 0
M  V30 5736 N 536.55 0.480323 -1.50102 0
M  V30 5737 C 537.48 1.58769 -1.71215 0
M  V30 5738 C 538.461 1.60583 -0.560997 0
M  V30 5739 O 539.646 1.76996 -0.799127 0
M  V30 5740 C 536.776 2.97148 -1.79778 0
M  V30 5741 C 535.73 3.10201 -2.94888 0
M  V30 5742 C 535.056 4.50137 -2.88584 0
M  V30 5743 C 536.356 2.88283 -4.35534 0
M  V30 5744 H 538.05 1.41354 -2.6393 0
M  V30 5745 H 535.596 0.678591 -1.27008 0
M  V30 5746 H 537.549 3.74536 -1.93133 0
M  V30 5747 H 536.273 3.15699 -0.836772 0
M  V30 5748 H 534.932 2.35244 -2.81169 0
M  V30 5749 H 534.58 4.65593 -1.90349 0
M  V30 5750 H 534.28 4.59808 -3.65856 0
M  V30 5751 H 535.804 5.29558 -3.03976 0
M  V30 5752 H 537.218 3.55427 -4.49827 0
M  V30 5753 H 535.615 3.09408 -5.14186 0
M  V30 5754 H 536.685 1.84219 -4.48544 0
M  V30 5755 N 538.028 1.39524 0.732853 0
M  V30 5756 C 539.275 1.36865 1.49246 0
M  V30 5757 C 539.603 -0.0347118 1.94469 0
M  V30 5758 O 538.858 -1.01596 1.67262 0
M  V30 5759 C 539.157 2.28916 2.74468 0
M  V30 5760 C 538.823 3.76506 2.481 0
M  V30 5761 C 537.485 4.16721 2.40619 0
M  V30 5762 C 539.837 4.69846 2.25598 0
M  V30 5763 C 537.165 5.48334 2.08679 0
M  V30 5764 C 539.517 6.01739 1.95174 0
M  V30 5765 C 538.181 6.41015 1.86163 0
M  V30 5766 H 537.451 0.500824 0.546129 0
M  V30 5767 H 540.098 1.72047 0.840958 0
M  V30 5768 H 538.403 1.86859 3.4437 0
M  V30 5769 H 540.1 2.2415 3.32502 0
M  V30 5770 H 536.69 3.44635 2.54803 0
M  V30 5771 H 540.874 4.39608 2.30344 0
M  V30 5772 H 536.13 5.77685 2.00226 0
M  V30 5773 H 540.304 6.73591 1.76771 0
M  V30 5774 H 537.931 7.42917 1.61179 0
M  V30 5775 N 539.506 -0.963266 1.24736 0
M  V30 5776 C 540.416 -2.09246 1.06082 0
M  V30 5777 C 541.432 -1.74 0.000363101 0
M  V30 5778 O 542.608 -2.0041 0.199479 0
M  V30 5779 C 539.673 -3.40115 0.672498 0
M  V30 5780 C 538.734 -3.89282 1.80993 0
M  V30 5781 C 537.967 -5.13905 1.44004 0
M  V30 5782 O 538.19 -5.69434 0.331835 0
M  V30 5783 O 537.124 -5.57566 2.26723 0
M  V30 5784 H 540.95 -2.27881 2.00759 0
M  V30 5785 H 538.535 -1.07649 1.03595 0
M  V30 5786 H 540.417 -4.18797 0.467668 0
M  V30 5787 H 539.092 -3.22771 -0.245102 0
M  V30 5788 H 537.999 -3.11642 2.06955 0
M  V30 5789 H 539.332 -4.1111 2.70646 0
M  V30 5790 N 540.985 -1.06182 -1.16461 0
M  V30 5791 C 541.948 -0.675723 -2.19013 0
M  V30 5792 C 542.948 0.277963 -1.58379 0
M  V30 5793 O 544.138 0.0604962 -1.74095 0
M  V30 5794 C 541.27 0.00591459 -3.40899 0
M  V30 5795 H 542.463 -1.58353 -2.54685 0
M  V30 5796 H 540.016 -0.856908 -1.30716 0
M  V30 5797 H 540.751 0.92652 -3.10783 0
M  V30 5798 H 540.536 -0.67984 -3.86161 0
M  V30 5799 H 542.026 0.26181 -4.16778 0
M  V30 5800 N 542.463 1.3308 -0.844243 0
M  V30 5801 C 543.874 1.7992 -0.498566 0
M  V30 5802 C 544.225 1.69808 0.982834 0
M  V30 5803 O 543.35 1.25051 1.7661 0
M  V30 5804 C 543.945 3.26677 -0.898204 0
M  V30 5805 C 542.504 3.71513 -0.604583 0
M  V30 5806 C 541.651 2.54393 -1.10362 0
M  V30 5807 H 544.602 1.20526 -1.03244 0
M  V30 5808 H 544.623 3.79918 -0.21039 0
M  V30 5809 H 544.135 3.34004 -1.97643 0
M  V30 5810 H 542.236 3.69708 0.46335 0
M  V30 5811 H 542.349 4.64755 -1.16358 0
M  V30 5812 H 540.713 2.49246 -0.524273 0
M  V30 5813 H 541.496 2.6448 -2.18873 0
M  V30 5814 N 543.941 0.601185 1.45683 0
M  V30 5815 C 545.187 0.0940202 2.02582 0
M  V30 5816 C 545.52 -1.26972 1.46941 0
M  V30 5817 O 544.795 -1.83613 0.641612 0
M  V30 5818 C 545.078 0.0481715 3.60068 0
M  V30 5819 C 544.931 1.44212 4.26055 0
M  V30 5820 C 546.25 -0.642975 4.35378 0
M  V30 5821 H 543.369 0.0356404 0.736138 0
M  V30 5822 H 546.011 0.771929 1.73612 0
M  V30 5823 H 544.161 -0.529128 3.8488 0
M  V30 5824 H 545.833 2.06601 4.12449 0
M  V30 5825 H 544.076 2.00465 3.84703 0
M  V30 5826 H 544.747 1.36234 5.34925 0
M  V30 5827 H 547.223 -0.152351 4.15821 0
M  V30 5828 H 546.099 -0.644141 5.45107 0
M  V30 5829 H 546.36 -1.70785 4.0778 0
M  V30 5830 N 545.419 -1.53889 0.339982 0
M  V30 5831 C 546.329 -2.28604 -0.526988 0
M  V30 5832 C 547.345 -1.33578 -1.11503 0
M  V30 5833 O 548.521 -1.66612 -1.13148 0
M  V30 5834 C 545.586 -3.04164 -1.66389 0
M  V30 5835 C 544.647 -4.14809 -1.10599 0
M  V30 5836 C 543.88 -4.86756 -2.18871 0
M  V30 5837 O 544.103 -4.58343 -3.39526 0
M  V30 5838 O 543.037 -5.73289 -1.83366 0
M  V30 5839 H 546.863 -3.03594 0.0802707 0
M  V30 5840 H 544.448 -1.4903 0.105141 0
M  V30 5841 H 546.33 -3.51427 -2.32544 0
M  V30 5842 H 545.005 -2.32035 -2.25703 0
M  V30 5843 H 543.912 -3.71857 -0.409067 0
M  V30 5844 H 545.245 -4.89029 -0.557771 0
M  V30 5845 N 546.897 -0.0685191 -1.57451 0
M  V30 5846 C 548.137 0.605038 -1.9524 0
M  V30 5847 C 548.501 1.66974 -0.947816 0
M  V30 5848 O 549.702 2.39862 -1.21325 0
M  V30 5849 C 547.973 1.16999 -3.37707 0
M  V30 5850 S 549.532 1.85913 -3.97469 0
M  V30 5851 H 546.35 0.198203 -0.682815 0
M  V30 5852 H 548.952 -0.141594 -1.94987 0
M  V30 5853 H 547.656 0.383205 -4.08607 0
M  V30 5854 H 547.187 1.95305 -3.41496 0
M  V30 5855 H 549.202 3.14128 -3.84107 0
M  V30 5856 N 548.375 1.56261 0.205012 0
M  V30 5857 C 549.285 1.96944 1.27476 0
M  V30 5858 C 550.301 0.875636 1.50362 0
M  V30 5859 O 551.477 1.18058 1.6317 0
M  V30 5860 C 548.542 2.29219 2.60115 0
M  V30 5861 C 547.603 3.52255 2.45387 0
M  V30 5862 C 546.836 3.8298 3.71701 0
M  V30 5863 O 547.059 3.15138 4.75441 0
M  V30 5864 O 545.993 4.76435 3.67823 0
M  V30 5865 H 549.819 2.88144 0.959527 0
M  V30 5866 H 547.404 1.43686 0.409217 0
M  V30 5867 H 549.286 2.51098 3.3842 0
M  V30 5868 H 547.961 1.4119 2.91285 0
M  V30 5869 H 546.868 3.35635 1.65227 0
M  V30 5870 H 548.201 4.40719 2.19152 0
M  V30 5871 N 549.853 -0.472356 1.50355 0
M  V30 5872 C 550.763 -1.59637 1.7191 0
M  V30 5873 C 551.779 -1.63247 0.602195 0
M  V30 5874 O 552.955 -1.81139 0.880369 0
M  V30 5875 C 550.02 -2.9586 1.80742 0
M  V30 5876 C 549.081 -3.02649 3.04471 0
M  V30 5877 C 548.314 -4.32374 3.12872 0
M  V30 5878 O 548.537 -5.22807 2.28099 0
M  V30 5879 O 547.471 -4.44728 4.05587 0
M  V30 5880 H 551.297 -1.44373 2.67189 0
M  V30 5881 H 548.882 -0.651717 1.34436 0
M  V30 5882 H 550.764 -3.7677 1.88739 0
M  V30 5883 H 549.439 -3.11325 0.88647 0
M  V30 5884 H 548.346 -2.20821 3.01975 0
M  V30 5885 H 549.679 -2.92119 3.9614 0
M  V30 5886 N 551.331 -1.39911 -0.725443 0
M  V30 5887 C 552.241 -1.41688 -1.8698 0
M  V30 5888 C 553.257 -0.310579 -1.71206 0
M  V30 5889 O 554.433 -0.55359 -1.93642 0
M  V30 5890 C 551.498 -1.26811 -3.22676 0
M  V30 5891 C 550.559 -2.47497 -3.50776 0
M  V30 5892 C 549.792 -2.3332 -4.79997 0
M  V30 5893 O 550.015 -1.34175 -5.54394 0
M  V30 5894 O 548.949 -3.22498 -5.08211 0
M  V30 5895 H 552.775 -2.38171 -1.88436 0
M  V30 5896 H 550.36 -1.21128 -0.874548 0
M  V30 5897 H 552.242 -1.20684 -4.03749 0
M  V30 5898 H 550.917 -0.334289 -3.21969 0
M  V30 5899 H 549.824 -2.59201 -2.69751 0
M  V30 5900 H 551.157 -3.39606 -3.5627 0
M  V30 5901 N 552.809 0.956637 -1.25245 0
M  V30 5902 C 553.719 2.0868 -1.0719 0
M  V30 5903 C 554.735 1.73997 -0.00959074 0
M  V30 5904 O 555.911 2.00301 -0.210104 0
M  V30 5905 C 552.976 3.39754 -0.690526 0
M  V30 5906 C 552.037 3.88316 -1.83055 0
M  V30 5907 C 551.27 5.13134 -1.46728 0
M  V30 5908 O 551.493 5.6925 -0.362029 0
M  V30 5909 O 550.427 5.56356 -2.29677 0
M  V30 5910 H 554.253 2.26813 -2.01965 0
M  V30 5911 H 551.838 1.07098 -1.04165 0
M  V30 5912 H 553.72 4.18543 -0.489871 0
M  V30 5913 H 552.395 3.22896 0.227981 0
M  V30 5914 H 551.302 3.1054 -2.08604 0
M  V30 5915 H 552.635 4.09669 -2.72822 0
M  V30 5916 N 554.287 1.06798 1.15896 0
M  V30 5917 C 555.197 0.694564 2.24083 0
M  V30 5918 C 556.213 -0.291687 1.71538 0
M  V30 5919 O 557.389 -0.139723 2.00915 0
M  V30 5920 C 554.454 0.0921014 3.46578 0
M  V30 5921 C 553.515 1.13087 4.14137 0
M  V30 5922 C 552.748 0.557064 5.30785 0
M  V30 5923 O 552.971 -0.628623 5.66925 0
M  V30 5924 O 551.905 1.29924 5.8771 0
M  V30 5925 H 555.731 1.59663 2.58344 0
M  V30 5926 H 553.316 0.840575 1.2351 0
M  V30 5927 H 555.198 -0.241884 4.20705 0
M  V30 5928 H 553.873 -0.78337 3.14078 0
M  V30 5929 H 552.78 1.51712 3.41957 0
M  V30 5930 H 554.113 1.97805 4.50704 0
M  V30 5931 N 555.766 -1.3263 0.851289 0
M  V30 5932 C 557.012 -1.9766 0.453694 0
M  V30 5933 C 557.345 -1.67225 -0.987396 0
M  V30 5934 O 556.62 -0.958693 -1.69232 0
M  V30 5935 C 556.903 -3.5344 0.68936 0
M  V30 5936 C 556.756 -3.93517 2.17862 0
M  V30 5937 C 558.075 -4.39866 0.143555 0
M  V30 5938 H 555.194 -0.717989 0.166314 0
M  V30 5939 H 557.836 -1.57068 1.06909 0
M  V30 5940 H 555.986 -3.88147 0.165546 0
M  V30 5941 H 557.658 -3.69006 2.76826 0
M  V30 5942 H 555.901 -3.42798 2.65841 0
M  V30 5943 H 556.572 -5.02065 2.29422 0
M  V30 5944 H 559.048 -4.11875 0.591451 0
M  V30 5945 H 557.924 -5.47858 0.338043 0
M  V30 5946 H 558.185 -4.31696 -0.953466 0
M  V30 5947 N 557.244 -0.608902 -1.45362 0
M  V30 5948 C 558.154 0.110969 -2.34337 0
M  V30 5949 C 559.17 0.859007 -1.51318 0
M  V30 5950 O 560.346 0.816296 -1.84116 0
M  V30 5951 C 557.411 1.09494 -3.28956 0
M  V30 5952 C 556.472 0.348718 -4.27881 0
M  V30 5953 C 555.705 1.28582 -5.17979 0
M  V30 5954 O 555.928 2.52369 -5.11533 0
M  V30 5955 O 554.862 0.782172 -5.96796 0
M  V30 5956 H 558.688 -0.620258 -2.97299 0
M  V30 5957 H 556.273 -0.36916 -1.44767 0
M  V30 5958 H 558.155 1.66163 -3.87257 0
M  V30 5959 H 556.83 1.80717 -2.68557 0
M  V30 5960 H 555.737 -0.260465 -3.73192 0
M  V30 5961 H 557.07 -0.323049 -4.91139 0
M  V30 5962 N 558.722 1.53707 -0.348139 0
M  V30 5963 C 559.632 2.28881 0.514857 0
M  V30 5964 C 560.648 1.34168 1.10793 0
M  V30 5965 O 561.824 1.6721 1.12262 0
M  V30 5966 C 558.889 3.05042 1.64774 0
M  V30 5967 C 557.95 4.15389 1.08398 0
M  V30 5968 C 557.183 4.87909 2.16287 0
M  V30 5969 O 557.406 4.60137 3.3709 0
M  V30 5970 O 556.34 5.74254 1.80323 0
M  V30 5971 H 560.166 3.03547 -0.0963699 0
M  V30 5972 H 557.751 1.48972 -0.113043 0
M  V30 5973 H 559.633 3.52656 2.30677 0
M  V30 5974 H 558.308 2.33228 2.24469 0
M  V30 5975 H 557.215 3.72068 0.389341 0
M  V30 5976 H 558.548 4.89318 0.531829 0
M  V30 5977 N 560.2 0.0768682 1.57412 0
M  V30 5978 C 561.11 -0.903207 2.16516 0
M  V30 5979 C 562.126 -1.32341 1.12968 0
M  V30 5980 O 563.302 -1.39507 1.45258 0
M  V30 5981 C 560.367 -2.1508 2.71922 0
M  V30 5982 C 559.428 -1.78653 3.90361 0
M  V30 5983 C 558.661 -2.97465 4.43114 0
M  V30 5984 O 558.884 -4.11638 3.94854 0
M  V30 5985 O 557.818 -2.76987 5.3438 0
M  V30 5986 H 561.644 -0.430427 3.00634 0
M  V30 5987 H 559.229 -0.146485 1.4868 0
M  V30 5988 H 561.111 -2.8823 3.07411 0
M  V30 5989 H 559.786 -2.61446 1.9086 0
M  V30 5990 H 558.693 -1.0274 3.59716 0
M  V30 5991 H 560.026 -1.37066 4.7273 0
M  V30 5992 N 561.678 -1.56367 -0.196722 0
M  V30 5993 C 562.625 -1.94417 -1.24382 0
M  V30 5994 C 563.595 -0.804543 -1.45315 0
M  V30 5995 O 564.78 -1.06256 -1.58475 0
M  V30 5996 C 561.92 -2.28757 -2.58388 0
M  V30 5997 C 561.033 -3.55775 -2.45047 0
M  V30 5998 C 560.168 -3.79445 -3.71746 0
M  V30 5999 C 559.207 -4.99894 -3.53231 0
M  V30 6000 N 558.344 -5.19826 -4.71938 0
M  V30 6001 H 563.184 -2.83691 -0.912338 0
M  V30 6002 H 560.721 -1.40392 -0.439135 0
M  V30 6003 H 562.679 -2.46682 -3.36457 0
M  V30 6004 H 561.309 -1.42625 -2.89582 0
M  V30 6005 H 560.361 -3.45905 -1.58284 0
M  V30 6006 H 561.673 -4.44 -2.27299 0
M  V30 6007 H 560.827 -3.97601 -4.58256 0
M  V30 6008 H 559.566 -2.89546 -3.92446 0
M  V30 6009 H 558.571 -4.81662 -2.65107 0
M  V30 6010 H 559.796 -5.913 -3.33978 0
M  V30 6011 H 557.742 -4.32875 -4.92905 0
M  V30 6012 H 557.659 -6.02228 -4.57009 0
M  V30 6013 H 558.927 -5.42439 -5.59803 0
M  V30 6014 N 563.156 0.464375 -1.50603 0
M  V30 6015 C 564.404 1.21356 -1.61608 0
M  V30 6016 C 564.725 1.92329 -0.321643 0
M  V30 6017 O 563.995 1.84403 0.661232 0
M  V30 6018 H 562.575 0.45094 -0.595535 0
M  V30 6019 H 565.237 0.535046 -1.87412 0
M  V30 6020 H 564.333 1.95783 -2.43054 0
M  V30 6021 N 564.634 1.40294 0.718013 0
M  V30 6022 C 565.859 1.41941 1.5122 0
M  V30 6023 C 566.284 0.0202371 1.88089 0
M  V30 6024 O 565.642 -0.971078 1.53101 0
M  V30 6025 C 565.69 2.3141 2.76554 0
M  V30 6026 O 564.794 1.75567 3.73162 0
M  V30 6027 H 564.135 0.482644 0.456016 0
M  V30 6028 H 566.665 1.84494 0.884478 0
M  V30 6029 H 566.675 2.46513 3.25108 0
M  V30 6030 H 565.35 3.33085 2.49053 0
M  V30 6031 H 563.927 1.69798 3.31999 0
M  V30 6032 N 566.112 -0.949982 1.2575 0
M  V30 6033 C 567.359 -1.69515 1.10774 0
M  V30 6034 C 567.687 -1.91316 -0.350479 0
M  V30 6035 O 566.942 -1.48515 -1.27443 0
M  V30 6036 C 567.241 -3.08039 1.81237 0
M  V30 6037 C 566.907 -3.06023 3.31151 0
M  V30 6038 C 565.569 -3.0518 3.72047 0
M  V30 6039 C 567.921 -2.98998 4.26907 0
M  V30 6040 C 565.249 -2.95067 5.07102 0
M  V30 6041 C 567.601 -2.90426 5.61992 0
M  V30 6042 C 566.265 -2.87922 6.0221 0
M  V30 6043 H 565.535 -0.6203 0.405351 0
M  V30 6044 H 568.182 -1.10953 1.56082 0
M  V30 6045 H 566.487 -3.70172 1.28373 0
M  V30 6046 H 568.184 -3.64526 1.67098 0
M  V30 6047 H 564.774 -3.07453 2.98614 0
M  V30 6048 H 568.958 -2.98764 3.963 0
M  V30 6049 H 564.214 -2.915 5.37436 0
M  V30 6050 H 568.388 -2.83952 6.35881 0
M  V30 6051 H 566.015 -2.79841 7.06819 0
M  V30 6052 N 567.59 -1.07411 -1.15328 0
M  V30 6053 C 568.83 -0.807011 -1.87794 0
M  V30 6054 C 569.194 0.654987 -1.80482 0
M  V30 6055 O 570.395 1.03716 -2.47985 0
M  V30 6056 C 568.666 -1.30198 -3.32841 0
M  V30 6057 S 570.225 -1.16564 -4.23034 0
M  V30 6058 H 567.043 -0.292429 -0.648079 0
M  V30 6059 H 569.645 -1.37334 -1.39139 0
M  V30 6060 H 568.349 -2.3607 -3.35707 0
M  V30 6061 H 567.88 -0.730881 -3.86551 0
M  V30 6062 H 569.895 -0.103557 -4.96092 0
M  V30 6063 N 569.068 1.32177 -0.85831 0
M  V30 6064 C 570.031 2.27086 -0.310588 0
M  V30 6065 C 571.031 1.51751 0.531806 0
M  V30 6066 O 572.221 1.70794 0.34279 0
M  V30 6067 C 569.353 3.36266 0.560179 0
M  V30 6068 H 570.546 2.77045 -1.1483 0
M  V30 6069 H 568.099 1.42911 -0.632942 0
M  V30 6070 H 568.834 2.9158 1.41956 0
M  V30 6071 H 568.619 3.92077 -0.0428473 0
M  V30 6072 H 570.109 4.06974 0.936056 0
M  V30 6073 N 570.547 0.616602 1.45037 0
M  V30 6074 C 571.772 0.120192 2.07051 0
M  V30 6075 C 572.197 -1.19008 1.45666 0
M  V30 6076 O 571.555 -1.7267 0.552692 0
M  V30 6077 C 571.603 0.00354901 3.606 0
M  V30 6078 O 570.707 -1.04431 3.98958 0
M  V30 6079 H 570.048 0.0781599 0.659384 0
M  V30 6080 H 572.578 0.849167 1.86146 0
M  V30 6081 H 572.588 -0.191754 4.07549 0
M  V30 6082 H 571.263 0.960239 4.04663 0
M  V30 6083 H 569.84 -0.824749 3.63665 0
M  V30 6084 N 572.025 -1.5352 0.356285 0
M  V30 6085 C 573.436 -1.86282 -0.12492 0
M  V30 6086 C 573.787 -1.27717 -1.48939 0
M  V30 6087 O 572.912 -0.595614 -2.08042 0
M  V30 6088 C 573.507 -3.37995 -0.23345 0
M  V30 6089 C 572.066 -3.70588 -0.658899 0
M  V30 6090 C 571.213 -2.76581 0.199596 0
M  V30 6091 H 574.164 -1.47901 0.575423 0
M  V30 6092 H 574.185 -3.65475 -1.0587 0
M  V30 6093 H 573.697 -3.8059 0.759776 0
M  V30 6094 H 571.798 -3.33544 -1.66069 0
M  V30 6095 H 571.911 -4.77076 -0.439957 0
M  V30 6096 H 570.275 -2.52552 -0.330076 0
M  V30 6097 H 571.058 -3.22008 1.19019 0
M  V30 6098 N 573.503 -0.0852151 -1.57369 0
M  V30 6099 C 574.413 0.891712 -2.16992 0
M  V30 6100 C 575.429 1.3174 -1.13669 0
M  V30 6101 O 576.605 1.38735 -1.45995 0
M  V30 6102 C 573.67 2.13635 -2.73059 0
M  V30 6103 C 572.731 1.7658 -3.91303 0
M  V30 6104 C 571.964 2.95111 -4.44686 0
M  V30 6105 O 572.187 4.09539 -3.97032 0
M  V30 6106 O 571.121 2.74149 -5.35841 0
M  V30 6107 H 574.947 0.414477 -3.00858 0
M  V30 6108 H 572.532 0.138598 -1.48756 0
M  V30 6109 H 574.414 2.86595 -3.08935 0
M  V30 6110 H 573.089 2.6043 -1.92244 0
M  V30 6111 H 571.996 1.00831 -3.60255 0
M  V30 6112 H 573.329 1.34557 -4.7345 0
M  V30 6113 N 574.981 1.5647 0.188427 0
M  V30 6114 C 576.206 1.85486 0.927891 0
M  V30 6115 C 576.631 0.669575 1.75779 0
M  V30 6116 O 575.989 -0.381573 1.77239 0
M  V30 6117 C 576.037 3.12784 1.7944 0
M  V30 6118 O 575.141 2.93805 2.894 0
M  V30 6119 H 574.482 0.610585 0.260925 0
M  V30 6120 H 577.012 2.037 0.191729 0
M  V30 6121 H 577.022 3.43749 2.19774 0
M  V30 6122 H 575.697 3.98671 1.18468 0
M  V30 6123 H 574.274 2.74153 2.52774 0
M  V30 6124 N 576.459 -0.456382 1.50847 0
M  V30 6125 C 577.684 -1.2349 1.66628 0
M  V30 6126 C 578.109 -1.84715 0.355254 0
M  V30 6127 O 577.467 -1.67961 -0.682559 0
M  V30 6128 C 577.515 -2.30865 2.77009 0
M  V30 6129 O 576.619 -3.35882 2.39285 0
M  V30 6130 H 575.96 -0.36266 0.556214 0
M  V30 6131 H 578.49 -0.541374 1.97308 0
M  V30 6132 H 578.5 -2.75949 3.00526 0
M  V30 6133 H 577.175 -1.85677 3.72152 0
M  V30 6134 H 575.752 -2.96406 2.26269 0
M  V30 6135 N 577.937 -1.40673 -0.710563 0
M  V30 6136 C 579.353 -1.22813 -1.01928 0
M  V30 6137 C 579.553 -0.10687 -2.01216 0
M  V30 6138 O 578.609 0.533614 -2.46797 0
M  V30 6139 C 579.922 -2.57178 -1.5582 0
M  V30 6140 C 581.47 -2.64233 -1.67779 0
M  V30 6141 C 581.945 -3.98879 -2.25076 0
M  V30 6142 N 583.436 -4.00647 -2.32456 0
M  V30 6143 C 584.171 -5.01621 -2.77784 0
M  V30 6144 N 583.667 -6.12989 -3.22826 0
M  V30 6145 N 585.46 -4.88988 -2.77213 0
M  V30 6146 H 577.611 -2.12335 -0.05253 0
M  V30 6147 H 579.874 -0.9441 -0.085898 0
M  V30 6148 H 579.58 -3.39903 -0.903249 0
M  V30 6149 H 579.454 -2.78618 -2.54267 0
M  V30 6150 H 581.841 -1.81876 -2.3239 0
M  V30 6151 H 581.922 -2.46619 -0.679178 0
M  V30 6152 H 581.566 -4.81678 -1.61086 0
M  V30 6153 H 581.496 -4.13826 -3.25661 0
M  V30 6154 H 583.987 -3.20231 -2.0065 0
M  V30 6155 H 584.3 -6.85921 -3.55995 0
M  V30 6156 H 582.645 -6.16547 -3.20773 0
M  V30 6157 H 585.836 -4.01075 -2.41363 0
M  V30 6158 H 586.009 -5.67822 -3.12221 0
M  V30 6159 N 579.415 0.9433 -1.26252 0
M  V30 6160 C 580.692 1.66639 -1.02424 0
M  V30 6161 C 581.072 2.06335 0.446006 0
M  V30 6162 O 580.42 1.78551 1.42589 0
M  V30 6163 C 580.63 2.88019 -1.97094 0
M  V30 6164 C 581.978 3.59718 -2.25584 0
M  V30 6165 O 583.002 2.9812 -1.94943 0
M  V30 6166 O 581.861 4.7066 -2.77743 0
M  V30 6167 H 578.955 0.729643 -0.389294 0
M  V30 6168 H 581.501 0.995218 -1.37454 0
M  V30 6169 H 580.273 2.5556 -2.96319 0
M  V30 6170 H 579.896 3.62863 -1.62532 0
M  V30 6171 N 580.893 1.08022 1.14757 0
M  V30 6172 C 582.17 0.720386 1.81851 0
M  V30 6173 C 582.55 -0.796375 1.95502 0
M  V30 6174 O 581.898 -1.71339 1.51179 0
M  V30 6175 C 582.108 1.44273 3.17783 0
M  V30 6176 C 583.456 1.59925 3.93331 0
M  V30 6177 O 584.48 1.40407 3.2736 0
M  V30 6178 O 583.339 1.92096 5.11626 0
M  V30 6179 H 580.433 0.257142 0.786007 0
M  V30 6180 H 582.979 1.18155 1.21809 0
M  V30 6181 H 581.751 2.47618 3.02987 0
M  V30 6182 H 581.374 0.97279 3.85516 0
M  V30 6183 N 582.371 -1.3172 0.865308 0
M  V30 6184 C 583.618 -1.96876 0.473931 0
M  V30 6185 C 583.946 -1.68425 -0.972786 0
M  V30 6186 O 583.201 -0.970742 -1.69927 0
M  V30 6187 C 583.5 -3.5102 0.672283 0
M  V30 6188 C 583.166 -3.9948 2.09108 0
M  V30 6189 C 581.828 -4.12425 2.4791 0
M  V30 6190 C 584.18 -4.2503 3.0166 0
M  V30 6191 C 581.508 -4.48267 3.78515 0
M  V30 6192 C 583.86 -4.62335 4.31774 0
M  V30 6193 C 582.524 -4.73486 4.70497 0
M  V30 6194 H 581.794 -0.72042 0.173424 0
M  V30 6195 H 584.441 -1.56937 1.0974 0
M  V30 6196 H 582.746 -3.91785 -0.034356 0
M  V30 6197 H 584.443 -3.99475 0.349353 0
M  V30 6198 H 581.033 -3.89898 1.77981 0
M  V30 6199 H 585.217 -4.14529 2.7291 0
M  V30 6200 H 580.473 -4.55097 4.08285 0
M  V30 6201 H 584.647 -4.81058 5.03543 0
M  V30 6202 H 582.274 -5.01016 5.71741 0
M  V30 6203 N 583.85 -0.624285 -1.44708 0
M  V30 6204 C 584.782 0.12305 -2.28869 0
M  V30 6205 C 585.795 0.81557 -1.40898 0
M  V30 6206 O 586.984 0.678162 -1.65116 0
M  V30 6207 C 584.084 1.19612 -3.1709 0
M  V30 6208 C 583.257 0.587452 -4.33437 0
M  V30 6209 C 582.316 1.55358 -5.02743 0
M  V30 6210 O 581.341 1.07338 -5.58988 0
M  V30 6211 N 582.543 2.88798 -5.03563 0
M  V30 6212 H 585.308 -0.599193 -2.93649 0
M  V30 6213 H 582.87 -0.464954 -1.5508 0
M  V30 6214 H 584.861 1.84261 -3.60319 0
M  V30 6215 H 583.432 1.82067 -2.54107 0
M  V30 6216 H 582.652 -0.237509 -3.93484 0
M  V30 6217 H 583.94 0.161326 -5.08544 0
M  V30 6218 H 583.338 3.30399 -4.59188 0
M  V30 6219 H 581.894 3.48826 -5.50603 0
M  V30 6220 N 585.328 1.53329 -0.364422 0
M  V30 6221 C 586.238 2.29414 0.490552 0
M  V30 6222 C 587.254 1.35335 1.09363 0
M  V30 6223 O 588.43 1.68391 1.10483 0
M  V30 6224 C 585.495 3.06772 1.61529 0
M  V30 6225 C 584.556 4.16516 1.03986 0
M  V30 6226 C 583.789 4.90176 2.111 0
M  V30 6227 O 584.012 4.63687 3.32191 0
M  V30 6228 O 582.946 5.76134 1.74222 0
M  V30 6229 H 586.772 3.03428 -0.12856 0
M  V30 6230 H 584.357 1.48843 -0.128837 0
M  V30 6231 H 586.239 3.55082 2.26924 0
M  V30 6232 H 584.914 2.35596 2.21983 0
M  V30 6233 H 583.821 3.7246 0.349856 0
M  V30 6234 H 585.154 4.89855 0.4799 0
M  V30 6235 N 586.806 0.0935595 1.57322 0
M  V30 6236 C 588.054 -0.569383 1.93913 0
M  V30 6237 C 588.375 -1.68817 0.976009 0
M  V30 6238 O 587.645 -1.9588 0.0278099 0
M  V30 6239 H 586.225 -0.21332 0.715894 0
M  V30 6240 H 588.887 0.156531 1.9427 0
M  V30 6241 H 587.983 -0.980577 2.96296 0
M  V30 6242 N 588.284 -1.56567 -0.180126 0
M  V30 6243 C 589.7 -1.50488 -0.531559 0
M  V30 6244 C 589.9 -0.796267 -1.851 0
M  V30 6245 O 588.956 -0.352978 -2.50021 0
M  V30 6246 C 590.269 -2.95201 -0.572456 0
M  V30 6247 C 591.817 -3.05957 -0.660264 0
M  V30 6248 C 592.292 -4.5211 -0.732135 0
M  V30 6249 N 593.783 -4.56322 -0.795262 0
M  V30 6250 C 594.518 -5.66742 -0.871296 0
M  V30 6251 N 594.014 -6.86815 -0.908708 0
M  V30 6252 N 595.807 -5.54691 -0.909639 0
M  V30 6253 H 587.958 -2.01045 0.685165 0
M  V30 6254 H 590.221 -0.915536 0.245962 0
M  V30 6255 H 589.927 -3.50165 0.328208 0
M  V30 6256 H 589.801 -3.49369 -1.422 0
M  V30 6257 H 592.188 -2.51032 -1.55136 0
M  V30 6258 H 592.269 -2.54888 0.215783 0
M  V30 6259 H 591.913 -5.07664 0.154664 0
M  V30 6260 H 591.843 -5.00926 -1.6242 0
M  V30 6261 H 594.334 -3.69868 -0.77499 0
M  V30 6262 H 594.647 -7.66718 -0.967654 0
M  V30 6263 H 592.992 -6.89443 -0.877132 0
M  V30 6264 H 596.183 -4.59804 -0.877353 0
M  V30 6265 H 596.356 -6.40768 -0.965434 0
M  V30 6266 N 589.762 0.448376 -1.51087 0
M  V30 6267 C 590.672 1.56882 -1.74428 0
M  V30 6268 C 591.688 1.62268 -0.62809 0
M  V30 6269 O 592.864 1.79716 -0.909075 0
M  V30 6270 C 589.929 2.92947 -1.85426 0
M  V30 6271 C 588.99 2.97766 -3.09247 0
M  V30 6272 C 588.223 4.27341 -3.19711 0
M  V30 6273 O 588.446 5.19112 -2.36387 0
M  V30 6274 O 587.38 4.38219 -4.12611 0
M  V30 6275 H 591.206 1.40104 -2.69452 0
M  V30 6276 H 588.791 0.630247 -1.35456 0
M  V30 6277 H 590.673 3.73719 -1.94709 0
M  V30 6278 H 589.348 3.09876 -0.935887 0
M  V30 6279 H 588.255 2.15989 -3.0545 0
M  V30 6280 H 589.588 2.8578 -4.00738 0
M  V30 6281 N 591.24 1.41047 0.703093 0
M  V30 6282 C 592.488 1.39723 1.4602 0
M  V30 6283 C 592.809 0.00461257 1.94999 0
M  V30 6284 O 592.079 -0.952292 1.71196 0
M  V30 6285 H 590.659 0.514281 0.541779 0
M  V30 6286 H 593.321 1.76217 0.832678 0
M  V30 6287 H 592.417 2.07982 2.32701 0
M  V30 6288 N 592.718 -0.936591 1.26751 0
M  V30 6289 C 593.967 -1.67778 1.11953 0
M  V30 6290 C 594.28 -1.92694 -0.33589 0
M  V30 6291 O 595.486 -2.64682 -0.604618 0
M  V30 6292 C 593.942 -3.02138 1.95551 0
M  V30 6293 C 593.55 -2.84953 3.45696 0
M  V30 6294 C 595.294 -3.79917 1.89377 0
M  V30 6295 C 593.201 -4.14814 4.21525 0
M  V30 6296 H 592.131 -0.629275 0.415366 0
M  V30 6297 H 594.782 -1.04122 1.51099 0
M  V30 6298 H 593.164 -3.668 1.49243 0
M  V30 6299 H 594.338 -2.29112 3.99805 0
M  V30 6300 H 592.653 -2.20612 3.53156 0
M  V30 6301 H 595.25 -4.76134 2.43312 0
M  V30 6302 H 595.593 -4.07204 0.865464 0
M  V30 6303 H 596.126 -3.22037 2.33532 0
M  V30 6304 H 592.865 -3.92709 5.24843 0
M  V30 6305 H 592.385 -4.70352 3.72195 0
M  V30 6306 H 594.064 -4.83239 4.3022 0
M  V30 6307 N 594.196 -1.08629 -1.14182 0
M  V30 6308 C 595.442 -0.818556 -1.85546 0
M  V30 6309 C 595.775 0.654076 -1.82854 0
M  V30 6310 O 595.05 1.48099 -1.26083 0
M  V30 6311 C 595.333 -1.34397 -3.3408 0
M  V30 6312 C 595.186 -2.8821 -3.45333 0
M  V30 6313 C 596.505 -0.971069 -4.29253 0
M  V30 6314 H 593.624 -0.298821 -0.673702 0
M  V30 6315 H 596.266 -1.34629 -1.34071 0
M  V30 6316 H 594.416 -0.895064 -3.78049 0
M  V30 6317 H 596.088 -3.41488 -3.10134 0
M  V30 6318 H 594.331 -3.25756 -2.86471 0
M  V30 6319 H 595.002 -3.20047 -4.49749 0
M  V30 6320 H 597.478 -1.35809 -3.93313 0
M  V30 6321 H 596.354 -1.36586 -5.31635 0
M  V30 6322 H 596.615 0.121659 -4.41933 0
M  V30 6323 N 595.674 1.31259 -0.872281 0
M  V30 6324 C 596.637 2.26744 -0.334656 0
M  V30 6325 C 597.637 1.52307 0.515681 0
M  V30 6326 O 598.827 1.71148 0.324656 0
M  V30 6327 C 595.959 3.36841 0.524482 0
M  V30 6328 H 597.152 2.75812 -1.17762 0
M  V30 6329 H 594.705 1.42232 -0.648064 0
M  V30 6330 H 595.44 2.93069 1.38855 0
M  V30 6331 H 595.225 3.92009 -0.0844299 0
M  V30 6332 H 596.715 4.07944 0.892838 0
M  V30 6333 N 597.152 0.631951 1.44375 0
M  V30 6334 C 598.568 0.297642 1.568 0
M  V30 6335 C 598.768 -1.19916 1.61934 0
M  V30 6336 O 597.824 -1.98324 1.56281 0
M  V30 6337 C 599.137 0.990286 2.83926 0
M  V30 6338 C 600.685 0.968507 2.97639 0
M  V30 6339 C 601.16 1.64163 4.27568 0
M  V30 6340 N 602.651 1.60826 4.34384 0
M  V30 6341 C 603.386 2.09802 5.33639 0
M  V30 6342 N 602.882 2.66973 6.39294 0
M  V30 6343 N 604.675 2.00426 5.25153 0
M  V30 6344 H 596.826 1.60353 1.39286 0
M  V30 6345 H 599.089 0.673142 0.667521 0
M  V30 6346 H 598.795 2.04519 2.8612 0
M  V30 6347 H 598.669 0.528563 3.73478 0
M  V30 6348 H 601.056 -0.0779247 2.94997 0
M  V30 6349 H 601.137 1.46873 2.09433 0
M  V30 6350 H 600.781 2.68752 4.3097 0
M  V30 6351 H 600.711 1.11624 5.14634 0
M  V30 6352 H 603.202 1.19087 3.58646 0
M  V30 6353 H 603.515 3.02074 7.11316 0
M  V30 6354 H 601.86 2.71024 6.39977 0
M  V30 6355 H 605.051 1.55483 4.41523 0
M  V30 6356 H 605.224 2.38906 6.02352 0
M  V30 6357 N 598.631 -1.53133 0.372548 0
M  V30 6358 C 599.561 -2.28876 -0.462412 0
M  V30 6359 C 600.542 -1.31583 -1.07796 0
M  V30 6360 O 601.727 -1.60461 -1.09389 0
M  V30 6361 C 598.857 -3.08317 -1.59868 0
M  V30 6362 C 597.811 -4.13355 -1.11003 0
M  V30 6363 C 597.137 -4.8092 -2.33708 0
M  V30 6364 C 598.437 -5.21955 -0.18983 0
M  V30 6365 H 600.131 -2.9892 0.169511 0
M  V30 6366 H 597.677 -1.43761 0.0829658 0
M  V30 6367 H 599.63 -3.60055 -2.18949 0
M  V30 6368 H 598.354 -2.35976 -2.25794 0
M  V30 6369 H 597.013 -3.62573 -0.541869 0
M  V30 6370 H 596.661 -4.05144 -2.98106 0
M  V30 6371 H 596.361 -5.51904 -2.01682 0
M  V30 6372 H 597.885 -5.35455 -2.93462 0
M  V30 6373 H 599.299 -5.69153 -0.688319 0
M  V30 6374 H 597.696 -6.00087 0.0398887 0
M  V30 6375 H 598.766 -4.78811 0.766057 0
M  V30 6376 N 600.109 -0.101901 -1.5727 0
M  V30 6377 C 601.337 0.568392 -1.98939 0
M  V30 6378 C 601.752 1.61301 -0.981194 0
M  V30 6379 O 601.109 1.82478 0.0282869 0
M  V30 6380 C 601.16 1.20997 -3.40649 0
M  V30 6381 O 600.881 0.207129 -4.3761 0
M  V30 6382 C 602.382 1.96523 -3.97358 0
M  V30 6383 H 599.602 0.15186 -0.65359 0
M  V30 6384 H 602.146 -0.183198 -2.03678 0
M  V30 6385 H 600.301 1.91245 -3.36904 0
M  V30 6386 H 600.715 0.671071 -5.20189 0
M  V30 6387 H 602.189 2.36764 -4.98645 0
M  V30 6388 H 602.666 2.83376 -3.35552 0
M  V30 6389 H 603.272 1.31076 -4.04598 0
M  V30 6390 N 601.587 1.56661 0.17182 0
M  V30 6391 C 602.497 1.99604 1.2327 0
M  V30 6392 C 603.513 0.907333 1.4847 0
M  V30 6393 O 604.689 1.21492 1.60629 0
M  V30 6394 C 601.754 2.34685 2.55194 0
M  V30 6395 C 600.815 3.57381 2.3786 0
M  V30 6396 C 600.048 3.90779 3.63494 0
M  V30 6397 O 600.271 3.25152 4.6865 0
M  V30 6398 O 599.205 4.84129 3.57634 0
M  V30 6399 H 603.031 2.90114 0.898192 0
M  V30 6400 H 600.616 1.44522 0.378647 0
M  V30 6401 H 602.498 2.5822 3.33017 0
M  V30 6402 H 601.173 1.47336 2.88225 0
M  V30 6403 H 600.08 3.39064 1.5807 0
M  V30 6404 H 601.413 4.45268 2.09754 0
M  V30 6405 N 603.065 -0.440357 1.51323 0
M  V30 6406 C 604.29 -1.21716 1.67928 0
M  V30 6407 C 604.715 -1.84328 0.374826 0
M  V30 6408 O 604.073 -1.68675 -0.664706 0
M  V30 6409 C 604.121 -2.27914 2.79442 0
M  V30 6410 O 603.225 -3.33325 2.42834 0
M  V30 6411 H 602.566 -0.35674 0.560029 0
M  V30 6412 H 605.096 -0.520417 1.97871 0
M  V30 6413 H 605.106 -2.72746 3.03436 0
M  V30 6414 H 603.781 -1.8172 3.741 0
M  V30 6415 H 602.358 -2.9399 2.294 0
M  V30 6416 N 604.543 -1.41418 -0.695603 0
M  V30 6417 C 605.473 -1.46035 -1.82197 0
M  V30 6418 C 606.454 -0.319025 -1.67082 0
M  V30 6419 O 607.639 -0.530462 -1.86815 0
M  V30 6420 C 604.769 -1.34179 -3.20333 0
M  V30 6421 C 603.723 -2.46123 -3.50154 0
M  V30 6422 C 603.049 -2.19332 -4.87645 0
M  V30 6423 C 604.349 -3.88463 -3.49133 0
M  V30 6424 H 606.043 -2.40303 -1.78591 0
M  V30 6425 H 603.589 -1.15663 -0.857797 0
M  V30 6426 H 605.542 -1.36021 -3.98844 0
M  V30 6427 H 604.266 -0.363952 -3.24566 0
M  V30 6428 H 602.925 -2.43563 -2.73994 0
M  V30 6429 H 602.573 -1.19891 -4.88503 0
M  V30 6430 H 602.273 -2.94344 -5.08562 0
M  V30 6431 H 603.797 -2.22889 -5.68465 0
M  V30 6432 H 605.211 -3.92738 -4.17648 0
M  V30 6433 H 603.608 -4.63158 -3.81582 0
M  V30 6434 H 604.678 -4.16617 -2.48109 0
M  V30 6435 N 606.021 0.929856 -1.27246 0
M  V30 6436 C 607.268 1.67731 -1.13457 0
M  V30 6437 C 607.596 1.9185 0.319998 0
M  V30 6438 O 606.851 1.50524 1.25064 0
M  V30 6439 C 607.15 3.05116 -1.86115 0
M  V30 6440 C 606.816 3.00715 -3.35978 0
M  V30 6441 C 605.478 2.99222 -3.76855 0
M  V30 6442 C 607.83 2.92168 -4.3161 0
M  V30 6443 C 605.158 2.86962 -5.11732 0
M  V30 6444 C 607.51 2.81449 -5.66542 0
M  V30 6445 C 606.174 2.78305 -6.06715 0
M  V30 6446 H 605.444 0.613772 -0.415168 0
M  V30 6447 H 608.091 1.08456 -1.57827 0
M  V30 6448 H 606.396 3.68083 -1.34246 0
M  V30 6449 H 608.093 3.61822 -1.72876 0
M  V30 6450 H 604.683 3.02664 -3.03468 0
M  V30 6451 H 608.867 2.92421 -4.01003 0
M  V30 6452 H 604.123 2.82913 -5.42006 0
M  V30 6453 H 608.297 2.738 -6.40317 0
M  V30 6454 H 605.924 2.68561 -7.11181 0
M  V30 6455 N 607.499 1.09233 1.13605 0
M  V30 6456 C 608.429 0.751738 2.21068 0
M  V30 6457 C 609.41 -0.269688 1.67948 0
M  V30 6458 O 610.595 -0.13819 1.93708 0
M  V30 6459 C 607.725 0.16935 3.46887 0
M  V30 6460 C 606.679 1.12007 4.13084 0
M  V30 6461 C 606.005 0.399483 5.33206 0
M  V30 6462 C 607.305 2.46168 4.6065 0
M  V30 6463 H 608.999 1.65024 2.49815 0
M  V30 6464 H 606.545 0.794905 1.20072 0
M  V30 6465 H 608.498 -0.0809824 4.21322 0
M  V30 6466 H 607.222 -0.764335 3.1753 0
M  V30 6467 H 605.881 1.35564 3.40614 0
M  V30 6468 H 605.529 -0.538277 5.00112 0
M  V30 6469 H 605.229 1.03337 5.78442 0
M  V30 6470 H 606.753 0.157403 6.10397 0
M  V30 6471 H 608.167 2.26829 5.26518 0
M  V30 6472 H 606.564 3.05326 5.1662 0
M  V30 6473 H 607.634 3.07076 3.75276 0
M  V30 6474 N 608.977 -1.30795 0.87923 0
M  V30 6475 C 610.254 -1.91145 0.415086 0
M  V30 6476 C 610.634 -1.7995 -1.10368 0
M  V30 6477 O 609.982 -1.21305 -1.93642 0
M  V30 6478 C 610.192 -3.37014 0.906778 0
M  V30 6479 C 611.54 -4.14101 0.938358 0
M  V30 6480 O 612.564 -3.45834 0.853053 0
M  V30 6481 O 611.423 -5.36054 1.06342 0
M  V30 6482 H 608.517 -0.81736 0.125905 0
M  V30 6483 H 611.063 -1.39401 0.967753 0
M  V30 6484 H 609.835 -3.3922 1.95053 0
M  V30 6485 H 609.458 -3.96204 0.332948 0
M  V30 6486 N 610.455 -0.639598 -1.44038 0
M  V30 6487 C 611.385 0.0469443 -2.33453 0
M  V30 6488 C 612.366 0.82609 -1.48694 0
M  V30 6489 O 613.551 0.790285 -1.77393 0
M  V30 6490 C 610.681 1.02338 -3.3188 0
M  V30 6491 C 609.635 0.355284 -4.26523 0
M  V30 6492 C 608.961 1.44221 -5.14883 0
M  V30 6493 C 610.261 -0.743798 -5.16977 0
M  V30 6494 H 611.955 -0.699735 -2.91108 0
M  V30 6495 H 609.501 -0.337946 -1.39978 0
M  V30 6496 H 611.454 1.51247 -3.93322 0
M  V30 6497 H 610.178 1.80105 -2.72451 0
M  V30 6498 H 608.837 -0.113239 -3.66425 0
M  V30 6499 H 608.485 2.21097 -4.51802 0
M  V30 6500 H 608.185 1.00052 -5.79019 0
M  V30 6501 H 609.709 1.93295 -5.79197 0
M  V30 6502 H 611.123 -0.337444 -5.72306 0
M  V30 6503 H 609.52 -1.10914 -5.89761 0
M  V30 6504 H 610.59 -1.60745 -4.57481 0
M  V30 6505 N 611.933 1.52934 -0.380664 0
M  V30 6506 C 612.863 2.29118 0.450268 0
M  V30 6507 C 613.844 1.32153 1.07096 0
M  V30 6508 O 615.029 1.61038 1.08537 0
M  V30 6509 C 612.159 3.09161 1.58231 0
M  V30 6510 C 611.113 4.13938 1.0881 0
M  V30 6511 C 610.439 4.82153 2.31155 0
M  V30 6512 C 611.739 5.22048 0.162146 0
M  V30 6513 H 613.433 2.98826 -0.185361 0
M  V30 6514 H 610.979 1.43715 -0.0905886 0
M  V30 6515 H 612.932 3.61211 2.17036 0
M  V30 6516 H 611.656 2.3717 2.2454 0
M  V30 6517 H 610.315 3.62855 0.522633 0
M  V30 6518 H 609.963 4.06719 2.95953 0
M  V30 6519 H 609.663 5.52966 1.98752 0
M  V30 6520 H 611.187 5.37004 2.90618 0
M  V30 6521 H 612.601 5.6951 0.658126 0
M  V30 6522 H 610.998 6.00057 -0.0717122 0
M  V30 6523 H 612.068 4.78398 -0.791438 0
M  V30 6524 N 613.412 0.11024 1.57214 0
M  V30 6525 C 614.66 -0.548783 1.94506 0
M  V30 6526 C 614.981 -1.67772 0.99386 0
M  V30 6527 O 614.251 -1.9584 0.0485841 0
M  V30 6528 H 612.831 -0.205715 0.718116 0
M  V30 6529 H 615.493 0.177127 1.94093 0
M  V30 6530 H 614.589 -0.949096 2.97319 0
M  V30 6531 N 614.89 -1.56749 -0.16351 0
M  V30 6532 C 615.8 -2.00255 -1.2221 0
M  V30 6533 C 616.816 -0.915194 -1.47987 0
M  V30 6534 O 617.992 -1.22342 -1.59982 0
M  V30 6535 C 615.057 -2.36035 -2.53946 0
M  V30 6536 C 614.118 -3.58637 -2.35962 0
M  V30 6537 C 613.351 -3.92701 -3.61416 0
M  V30 6538 O 613.574 -3.27632 -4.66919 0
M  V30 6539 O 612.508 -4.86019 -3.55062 0
M  V30 6540 H 616.334 -2.90586 -0.882794 0
M  V30 6541 H 613.919 -1.44721 -0.370978 0
M  V30 6542 H 615.801 -2.59982 -3.31643 0
M  V30 6543 H 614.476 -1.48863 -2.8744 0
M  V30 6544 H 613.383 -3.39898 -1.5627 0
M  V30 6545 H 614.716 -4.46374 -2.0739 0
M  V30 6546 N 616.368 0.432326 -1.51554 0
M  V30 6547 C 617.278 1.55023 -1.76082 0
M  V30 6548 C 618.294 1.61593 -0.645265 0
M  V30 6549 O 619.47 1.78742 -0.928086 0
M  V30 6550 C 616.535 2.90964 -1.88523 0
M  V30 6551 C 615.596 2.9447 -3.12388 0
M  V30 6552 C 614.829 4.23926 -3.24225 0
M  V30 6553 O 615.052 5.16576 -2.4188 0
M  V30 6554 O 613.986 4.33818 -4.17235 0
M  V30 6555 H 617.812 1.37238 -2.70923 0
M  V30 6556 H 615.397 0.615845 -1.36117 0
M  V30 6557 H 617.279 3.71633 -1.98662 0
M  V30 6558 H 615.954 3.08865 -0.9687 0
M  V30 6559 H 614.861 2.12737 -3.07723 0
M  V30 6560 H 616.194 2.81514 -4.03746 0
M  V30 6561 N 617.846 1.41785 0.688094 0
M  V30 6562 C 618.794 1.44436 1.82321 0
M  V30 6563 C 619.788 0.321544 1.6632 0
M  V30 6564 O 620.994 0.493931 1.73091 0
M  V30 6565 H 617.369 0.452084 0.600936 0
M  V30 6566 H 619.34 2.40087 1.77202 0
M  V30 6567 C 618.089 1.35071 3.20392 0
M  V30 6568 H 617.412 2.2076 3.33324 0
M  V30 6569 H 618.852 1.40988 3.99873 0
M  V30 6570 C 617.311 0.0639127 3.36839 0
M  V30 6571 O 617.841 -0.888495 3.91751 0
M  V30 6572 N 616.047 -0.0146114 2.90596 0
M  V30 6573 H 615.594 0.761191 2.46097 0
M  V30 6574 H 615.552 -0.874988 3.01979 0
M  V30 6575 N 619.324 -0.923095 1.27737 0
M  V30 6576 C 620.572 -1.66797 1.14119 0
M  V30 6577 C 620.893 -1.92479 -0.312541 0
M  V30 6578 O 620.163 -1.53432 -1.218 0
M  V30 6579 H 618.743 -0.618196 0.419336 0
M  V30 6580 H 621.405 -1.10815 1.60331 0
M  V30 6581 H 620.501 -2.63424 1.67374 0
M  V30 6582 N 620.802 -1.09834 -1.13024 0
M  V30 6583 C 622.05 -0.835297 -1.8403 0
M  V30 6584 C 622.371 0.640944 -1.84165 0
M  V30 6585 O 621.641 1.46517 -1.30037 0
M  V30 6586 H 620.221 -0.306018 -0.681441 0
M  V30 6587 H 622.883 -1.38734 -1.36891 0
M  V30 6588 H 621.979 -1.19258 -2.88416 0
M  V30 6589 N 622.28 1.30327 -0.886154 0
M  V30 6590 C 623.527 1.96097 -0.505192 0
M  V30 6591 C 623.855 1.69952 0.945868 0
M  V30 6592 O 623.11 0.997653 1.68361 0
M  V30 6593 C 623.409 3.49906 -0.728042 0
M  V30 6594 C 623.075 3.96103 -2.15437 0
M  V30 6595 C 621.737 4.08428 -2.5444 0
M  V30 6596 C 624.089 4.20177 -3.08384 0
M  V30 6597 C 621.417 4.42189 -3.85598 0
M  V30 6598 C 623.769 4.55407 -4.39075 0
M  V30 6599 C 622.433 4.65941 -4.7797 0
M  V30 6600 H 621.703 0.71757 -0.184863 0
M  V30 6601 H 624.35 1.55171 -1.12223 0
M  V30 6602 H 622.655 3.9179 -0.027978 0
M  V30 6603 H 624.352 3.98869 -0.412862 0
M  V30 6604 H 620.942 3.87017 -1.84162 0
M  V30 6605 H 625.126 4.10134 -2.7947 0
M  V30 6606 H 620.382 4.48544 -4.15473 0
M  V30 6607 H 624.556 4.72986 -5.11133 0
M  V30 6608 H 622.183 4.91856 -5.79639 0
M  V30 6609 N 623.758 0.647228 1.43697 0
M  V30 6610 C 624.998 0.16171 2.03759 0
M  V30 6611 C 625.362 -1.19951 1.49919 0
M  V30 6612 O 626.563 -1.77808 2.01588 0
M  V30 6613 C 624.834 0.16505 3.57019 0
M  V30 6614 S 626.393 -0.253497 4.38067 0
M  V30 6615 H 623.211 0.0689985 0.707644 0
M  V30 6616 H 625.813 0.854224 1.7585 0
M  V30 6617 H 624.517 1.15858 3.93707 0
M  V30 6618 H 624.048 -0.548194 3.89562 0
M  V30 6619 H 626.063 -1.49385 4.73179 0
M  V30 6620 N 625.236 -1.5273 0.388769 0
M  V30 6621 C 626.168 -2.24081 -0.481704 0
M  V30 6622 C 627.181 -1.26307 -1.02715 0
M  V30 6623 O 628.37 -1.52386 -0.929565 0
M  V30 6624 C 625.47 -2.94315 -1.68024 0
M  V30 6625 C 624.643 -4.18791 -1.26226 0
M  V30 6626 C 623.702 -4.72028 -2.32542 0
M  V30 6627 O 622.728 -5.35129 -1.93972 0
M  V30 6628 N 623.93 -4.51838 -3.64448 0
M  V30 6629 H 626.695 -2.9942 0.129591 0
M  V30 6630 H 624.256 -1.60465 0.2151 0
M  V30 6631 H 626.248 -3.26831 -2.38671 0
M  V30 6632 H 624.818 -2.22287 -2.19789 0
M  V30 6633 H 624.038 -3.92318 -0.384703 0
M  V30 6634 H 625.326 -4.99668 -0.959647 0
M  V30 6635 H 624.724 -4.01468 -3.98547 0
M  V30 6636 H 623.281 -4.88845 -4.31131 0
M  V30 6637 N 626.714 -0.118576 -1.57153 0
M  V30 6638 C 627.646 0.862247 -2.12363 0
M  V30 6639 C 628.659 1.23025 -1.06625 0
M  V30 6640 O 629.848 1.17927 -1.33998 0
M  V30 6641 C 626.948 2.16425 -2.60794 0
M  V30 6642 C 626.121 1.96801 -3.90626 0
M  V30 6643 C 625.18 3.10726 -4.2466 0
M  V30 6644 O 624.206 2.83659 -4.93484 0
M  V30 6645 N 625.408 4.37147 -3.81946 0
M  V30 6646 H 628.173 0.390564 -2.97144 0
M  V30 6647 H 625.734 0.0658591 -1.61766 0
M  V30 6648 H 627.726 2.91633 -2.80593 0
M  V30 6649 H 626.296 2.54943 -1.80895 0
M  V30 6650 H 625.516 1.05787 -3.7974 0
M  V30 6651 H 626.804 1.80993 -4.7552 0
M  V30 6652 H 626.202 4.62014 -3.26435 0
M  V30 6653 H 624.759 5.09229 -4.06853 0
M  V30 6654 N 628.193 1.56834 0.155195 0
M  V30 6655 C 629.47 1.73799 0.897395 0
M  V30 6656 C 629.85 0.684379 1.99698 0
M  V30 6657 O 629.198 -0.298111 2.26547 0
M  V30 6658 C 629.408 3.17572 1.44737 0
M  V30 6659 C 630.756 3.79014 1.91399 0
M  V30 6660 O 631.78 3.20951 1.54496 0
M  V30 6661 O 630.639 4.80998 2.59429 0
M  V30 6662 H 627.733 0.710329 0.423511 0
M  V30 6663 H 630.279 1.69107 0.141761 0
M  V30 6664 H 629.051 3.85749 0.656741 0
M  V30 6665 H 628.674 3.26657 2.26674 0
M  V30 6666 N 629.671 -0.424282 1.51781 0
M  V30 6667 C 630.604 -1.53633 1.68737 0
M  V30 6668 C 631.582 -1.53549 0.534915 0
M  V30 6669 O 632.766 -1.72483 0.760391 0
M  V30 6670 C 629.893 -2.92195 1.71288 0
M  V30 6671 C 628.939 -3.10251 2.92654 0
M  V30 6672 S 629.772 -2.85166 4.53256 0
M  V30 6673 C 630.928 -4.25986 4.58571 0
M  V30 6674 H 631.161 -1.39018 2.62795 0
M  V30 6675 H 628.694 -0.614854 1.41629 0
M  V30 6676 H 630.652 -3.72059 1.73443 0
M  V30 6677 H 629.313 -3.04162 0.783847 0
M  V30 6678 H 628.506 -4.1159 2.90877 0
M  V30 6679 H 628.108 -2.38231 2.88308 0
M  V30 6680 H 630.4 -5.19392 4.35015 0
M  V30 6681 H 631.343 -4.32792 5.60444 0
M  V30 6682 H 631.751 -4.1025 3.87757 0
M  V30 6683 N 631.149 -1.42148 -0.680565 0
M  V30 6684 C 632.397 -1.42029 -1.43779 0
M  V30 6685 C 632.718 -0.0356347 -1.94967 0
M  V30 6686 O 631.988 0.924936 -1.7269 0
M  V30 6687 H 630.568 -0.522835 -0.533529 0
M  V30 6688 H 633.23 -1.7752 -0.804538 0
M  V30 6689 H 632.326 -2.11658 -2.29363 0
M  V30 6690 N 632.627 0.916307 -1.28225 0
M  V30 6691 C 633.537 2.05165 -1.13775 0
M  V30 6692 C 634.553 1.73879 -0.0649418 0
M  V30 6693 O 635.729 1.99531 -0.273722 0
M  V30 6694 C 632.794 3.37385 -0.798267 0
M  V30 6695 C 631.855 3.82296 -1.95316 0
M  V30 6696 C 631.088 5.08206 -1.62978 0
M  V30 6697 O 631.311 5.6781 -0.542948 0
M  V30 6698 O 630.245 5.48768 -2.47261 0
M  V30 6699 H 634.071 2.20273 -2.09078 0
M  V30 6700 H 631.656 1.0373 -1.07519 0
M  V30 6701 H 633.538 4.16773 -0.62278 0
M  V30 6702 H 632.213 3.23458 0.125139 0
M  V30 6703 H 631.12 3.03746 -2.18378 0
M  V30 6704 H 632.453 4.00782 -2.85718 0
M  V30 6705 N 634.105 1.10431 1.1244 0
M  V30 6706 C 635.33 0.869089 1.88313 0
M  V30 6707 C 635.755 -0.574912 1.79099 0
M  V30 6708 O 635.113 -1.40496 1.14589 0
M  V30 6709 C 635.161 1.32208 3.3549 0
M  V30 6710 O 634.265 0.487092 4.09513 0
M  V30 6711 H 633.606 0.313894 0.585121 0
M  V30 6712 H 636.136 1.47111 1.42195 0
M  V30 6713 H 636.146 1.31201 3.86329 0
M  V30 6714 H 634.821 2.37364 3.41513 0
M  V30 6715 H 633.398 0.562372 3.68635 0
M  V30 6716 N 635.583 -1.29855 0.893053 0
M  V30 6717 C 636.823 -1.97612 0.522399 0
M  V30 6718 C 637.187 -1.68903 -0.913 0
M  V30 6719 O 638.388 -2.30059 -1.39019 0
M  V30 6720 C 636.659 -3.48356 0.79893 0
M  V30 6721 S 638.218 -4.35568 0.531588 0
M  V30 6722 H 635.036 -0.684005 0.194058 0
M  V30 6723 H 637.638 -1.57803 1.15406 0
M  V30 6724 H 636.342 -3.66743 1.84196 0
M  V30 6725 H 635.873 -3.93094 0.155133 0
M  V30 6726 H 637.888 -4.92232 -0.626295 0
M  V30 6727 N 637.061 -0.65484 -1.43351 0
M  V30 6728 C 637.991 0.0221809 -2.33489 0
M  V30 6729 C 638.972 0.810272 -1.49561 0
M  V30 6730 O 640.157 0.771426 -1.78221 0
M  V30 6731 C 637.287 0.988117 -3.32947 0
M  V30 6732 C 636.241 0.310026 -4.26876 0
M  V30 6733 C 635.567 1.38752 -5.16384 0
M  V30 6734 C 636.867 -0.798589 -5.16159 0
M  V30 6735 H 638.561 -0.730571 -2.9035 0
M  V30 6736 H 636.107 -0.352773 -1.39612 0
M  V30 6737 H 638.06 1.47067 -3.94904 0
M  V30 6738 H 636.784 1.77205 -2.74346 0
M  V30 6739 H 635.443 -0.152097 -3.66284 0
M  V30 6740 H 635.091 2.16293 -4.54121 0
M  V30 6741 H 634.791 0.939051 -5.80048 0
M  V30 6742 H 636.315 1.87141 -5.81215 0
M  V30 6743 H 637.729 -0.398126 -5.71916 0
M  V30 6744 H 636.126 -1.17163 -5.88552 0
M  V30 6745 H 637.196 -1.65588 -4.55751 0
M  V30 6746 N 638.539 1.52521 -0.396863 0
M  V30 6747 C 639.469 2.29582 0.425941 0
M  V30 6748 C 640.45 1.33281 1.05689 0
M  V30 6749 O 641.635 1.62181 1.06823 0
M  V30 6750 C 638.765 3.10821 1.54943 0
M  V30 6751 C 637.719 4.15069 1.04413 0
M  V30 6752 C 637.045 4.84578 2.26028 0
M  V30 6753 C 638.345 5.22191 0.106767 0
M  V30 6754 H 640.039 2.98612 -0.217045 0
M  V30 6755 H 637.585 1.43611 -0.105826 0
M  V30 6756 H 639.538 3.63492 2.13193 0
M  V30 6757 H 638.262 2.39538 2.22011 0
M  V30 6758 H 636.921 3.63389 0.484118 0
M  V30 6759 H 636.569 4.09835 2.91623 0
M  V30 6760 H 636.269 5.55043 1.92876 0
M  V30 6761 H 637.793 5.40056 2.84906 0
M  V30 6762 H 639.207 5.70176 0.597685 0
M  V30 6763 H 637.604 5.99947 -0.135352 0
M  V30 6764 H 638.674 4.77531 -0.842134 0
M  V30 6765 N 640.017 0.126909 1.57088 0
M  V30 6766 C 641.428 -0.397201 1.82426 0
M  V30 6767 C 641.779 -1.66084 1.04453 0
M  V30 6768 O 640.904 -2.14534 0.283552 0
M  V30 6769 C 641.499 -0.727411 3.30899 0
M  V30 6770 C 640.058 -1.19612 3.56889 0
M  V30 6771 C 639.205 -0.20885 2.76512 0
M  V30 6772 H 642.156 0.351924 1.54749 0
M  V30 6773 H 642.177 -1.58407 3.45959 0
M  V30 6774 H 641.689 0.19247 3.87622 0
M  V30 6775 H 639.79 -2.13263 3.05532 0
M  V30 6776 H 639.903 -1.13598 4.65438 0
M  V30 6777 H 638.267 -0.697479 2.44964 0
M  V30 6778 H 639.05 0.704267 3.35998 0
M  V30 6779 N 641.495 -1.56914 -0.146875 0
M  V30 6780 C 642.906 -1.72799 -0.706928 0
M  V30 6781 C 643.257 -0.741329 -1.81656 0
M  V30 6782 O 642.382 0.0920162 -2.16204 0
M  V30 6783 C 642.977 -3.13317 -1.28911 0
M  V30 6784 C 641.536 -3.30803 -1.79573 0
M  V30 6785 C 640.683 -2.68725 -0.684252 0
M  V30 6786 H 643.634 -1.58504 0.0787931 0
M  V30 6787 H 643.655 -3.13323 -2.15891 0
M  V30 6788 H 643.167 -3.85104 -0.481284 0
M  V30 6789 H 641.268 -2.64012 -2.62923 0
M  V30 6790 H 641.381 -4.38754 -1.92436 0
M  V30 6791 H 639.745 -2.29196 -1.11091 0
M  V30 6792 H 640.528 -3.43117 0.112134 0
M  V30 6793 N 642.974 0.416227 -1.52004 0
M  V30 6794 C 644.199 1.19029 -1.69843 0
M  V30 6795 C 644.624 1.83708 -0.404103 0
M  V30 6796 O 643.982 1.69711 0.637787 0
M  V30 6797 C 644.03 2.23439 -2.83032 0
M  V30 6798 O 643.134 3.29419 -2.48106 0
M  V30 6799 H 642.475 0.347785 -0.565634 0
M  V30 6800 H 645.005 0.488871 -1.98674 0
M  V30 6801 H 645.015 2.67884 -3.07737 0
M  V30 6802 H 643.69 1.75745 -3.76944 0
M  V30 6803 H 642.267 2.90303 -2.34048 0
M  V30 6804 N 644.452 1.42507 0.673017 0
M  V30 6805 C 645.7 1.42789 1.43023 0
M  V30 6806 C 646.021 0.0459738 1.94946 0
M  V30 6807 O 645.291 -0.915765 1.73178 0
M  V30 6808 H 643.871 0.525657 0.530748 0
M  V30 6809 H 646.533 1.77944 0.795113 0
M  V30 6810 H 645.629 2.12872 2.28237 0
M  V30 6811 N 645.93 -0.909495 1.28709 0
M  V30 6812 C 647.155 -1.69801 1.1909 0
M  V30 6813 C 647.58 -1.86479 -0.246388 0
M  V30 6814 O 646.938 -1.37802 -1.17815 0
M  V30 6815 C 646.986 -3.06543 1.89904 0
M  V30 6816 O 646.09 -3.94268 1.2094 0
M  V30 6817 H 645.431 -0.519783 0.413185 0
M  V30 6818 H 647.961 -1.13689 1.70106 0
M  V30 6819 H 647.971 -3.56748 1.97977 0
M  V30 6820 H 646.646 -2.93722 2.94449 0
M  V30 6821 H 645.223 -3.52702 1.2106 0
M  V30 6822 N 647.408 -1.11026 -1.11852 0
M  V30 6823 C 648.636 -0.878818 -1.87308 0
M  V30 6824 C 649.051 0.57111 -1.79955 0
M  V30 6825 O 648.408 1.39409 -1.17777 0
M  V30 6826 C 648.459 -1.3264 -3.36287 0
M  V30 6827 O 648.18 -2.71948 -3.43476 0
M  V30 6828 C 649.681 -1.12974 -4.28663 0
M  V30 6829 H 646.901 -0.315015 -0.592458 0
M  V30 6830 H 649.445 -1.47649 -1.41492 0
M  V30 6831 H 647.6 -0.772269 -3.79625 0
M  V30 6832 H 648.014 -2.91241 -4.3621 0
M  V30 6833 H 649.488 -1.49198 -5.31454 0
M  V30 6834 H 649.965 -0.0689127 -4.39146 0
M  V30 6835 H 650.571 -1.67064 -3.91113 0
M  V30 6836 N 648.886 1.2938 -0.899927 0
M  V30 6837 C 650.111 2.00228 -0.540692 0
M  V30 6838 C 650.536 1.66909 0.867359 0
M  V30 6839 O 649.894 0.893824 1.57735 0
M  V30 6840 C 649.942 3.52921 -0.740232 0
M  V30 6841 O 649.046 4.11879 0.207154 0
M  V30 6842 H 648.387 0.629505 -0.211233 0
M  V30 6843 H 650.917 1.6487 -1.21158 0
M  V30 6844 H 650.927 4.0287 -0.644973 0
M  V30 6845 H 649.602 3.76508 -1.76677 0
M  V30 6846 H 648.179 3.72845 0.0643315 0
M  V30 6847 N 650.364 0.662433 1.43002 0
M  V30 6848 C 651.327 -0.0142016 2.29196 0
M  V30 6849 C 652.327 -0.741394 1.42688 0
M  V30 6850 O 653.517 -0.581257 1.64216 0
M  V30 6851 C 650.649 -1.03084 3.24941 0
M  V30 6852 H 651.842 0.7443 2.90517 0
M  V30 6853 H 649.395 0.424133 1.50435 0
M  V30 6854 H 650.13 -1.81826 2.68533 0
M  V30 6855 H 649.915 -0.512946 3.8873 0
M  V30 6856 H 651.405 -1.50308 3.89612 0
M  V30 6857 N 651.842 -1.52309 0.404946 0
M  V30 6858 C 652.792 -2.23717 -0.439864 0
M  V30 6859 C 653.776 -1.24692 -1.0169 0
M  V30 6860 O 654.968 -1.49951 -0.940409 0
M  V30 6861 C 652.097 -3.05898 -1.55825 0
M  V30 6862 C 651.183 -4.12331 -0.992188 0
M  V30 6863 N 651.574 -5.0557 -0.152424 0
M  V30 6864 C 649.872 -4.2774 -1.26312 0
M  V30 6865 C 650.573 -5.81474 0.162041 0
M  V30 6866 N 649.549 -5.41767 -0.44601 0
M  V30 6867 H 653.351 -2.93162 0.208084 0
M  V30 6868 H 650.865 -1.60969 0.215131 0
M  V30 6869 H 652.862 -3.55605 -2.17603 0
M  V30 6870 H 651.522 -2.37991 -2.20886 0
M  V30 6871 H 652.533 -5.17468 0.211556 0
M  V30 6872 H 649.21 -3.71062 -1.91362 0
M  V30 6873 H 650.6 -6.66585 0.843423 0
M  V30 6874 N 653.32 -0.135238 -1.57019 0
M  V30 6875 C 654.253 0.846618 -2.11914 0
M  V30 6876 C 655.231 1.25019 -1.03966 0
M  V30 6877 O 656.415 1.34838 -1.31723 0
M  V30 6878 C 653.542 2.1352 -2.6292 0
M  V30 6879 C 652.588 1.87846 -3.82905 0
M  V30 6880 S 653.421 1.08005 -5.24495 0
M  V30 6881 C 654.577 2.38008 -5.78881 0
M  V30 6882 H 654.81 0.379752 -2.94865 0
M  V30 6883 H 652.343 0.0788387 -1.54199 0
M  V30 6884 H 654.301 2.87551 -2.92958 0
M  V30 6885 H 652.962 2.57323 -1.80121 0
M  V30 6886 H 652.155 2.83365 -4.16797 0
M  V30 6887 H 651.757 1.21929 -3.53567 0
M  V30 6888 H 654.049 3.33742 -5.89595 0
M  V30 6889 H 654.992 2.08638 -6.76665 0
M  V30 6890 H 655.4 2.48119 -5.07048 0
M  V30 6891 N 654.798 1.5699 0.138552 0
M  V30 6892 C 656.209 1.73171 0.697754 0
M  V30 6893 C 656.56 0.750952 1.8126 0
M  V30 6894 O 655.685 -0.080549 2.1625 0
M  V30 6895 C 656.28 3.13996 1.27248 0
M  V30 6896 C 654.839 3.3175 1.77816 0
M  V30 6897 C 653.986 2.69084 0.669991 0
M  V30 6898 H 656.937 1.5846 -0.0871979 0
M  V30 6899 H 656.958 3.14463 2.14227 0
M  V30 6900 H 656.47 3.85354 0.460855 0
M  V30 6901 H 654.571 2.65403 2.61519 0
M  V30 6902 H 654.684 4.39768 1.90107 0
M  V30 6903 H 653.048 2.29782 1.09874 0
M  V30 6904 H 653.831 3.43053 -0.130329 0
M  V30 6905 N 656.276 -0.40816 1.52223 0
M  V30 6906 C 657.522 -1.15347 1.67531 0
M  V30 6907 C 657.877 -1.8818 0.400748 0
M  V30 6908 O 657.17 -1.81803 -0.604845 0
M  V30 6909 C 657.364 -2.17422 2.83659 0
M  V30 6910 C 657.193 -1.54611 4.22286 0
M  V30 6911 C 655.963 -1.31841 4.87797 0
M  V30 6912 C 658.161 -1.00648 5.04355 0
M  V30 6913 N 656.143 -0.649338 6.10456 0
M  V30 6914 C 657.514 -0.464384 6.18258 0
M  V30 6915 C 659.569 -0.901041 4.89679 0
M  V30 6916 C 658.272 0.172825 7.19092 0
M  V30 6917 C 660.298 -0.277684 5.90748 0
M  V30 6918 C 659.66 0.253734 7.03943 0
M  V30 6919 H 655.759 -0.408722 0.666686 0
M  V30 6920 H 658.343 -0.445713 1.8953 0
M  V30 6921 H 656.514 -2.85554 2.63274 0
M  V30 6922 H 658.246 -2.84321 2.87999 0
M  V30 6923 H 655.001 -1.58819 4.46176 0
M  V30 6924 H 655.425 -0.3314 6.76188 0
M  V30 6925 H 660.067 -1.29772 4.02392 0
M  V30 6926 H 657.785 0.581564 8.06005 0
M  V30 6927 H 661.371 -0.197605 5.81464 0
M  V30 6928 H 660.251 0.728482 7.80809 0
M  V30 6929 N 657.755 -1.42862 -0.66545 0
M  V30 6930 C 659.032 -1.3431 -1.42197 0
M  V30 6931 C 659.412 0.0150265 -2.11095 0
M  V30 6932 O 658.76 1.03101 -2.03918 0
M  V30 6933 C 658.97 -2.51783 -2.41674 0
M  V30 6934 C 660.318 -2.94321 -3.0604 0
M  V30 6935 O 661.342 -2.51741 -2.52001 0
M  V30 6936 O 660.201 -3.68047 -4.03985 0
M  V30 6937 H 657.295 -0.530159 -0.634713 0
M  V30 6938 H 659.841 -1.54888 -0.693386 0
M  V30 6939 H 658.613 -3.42282 -1.89627 0
M  V30 6940 H 658.236 -2.33241 -3.22001 0
M  V30 6941 N 659.233 0.902656 -1.29189 0
M  V30 6942 C 660.143 2.03946 -1.15944 0
M  V30 6943 C 661.159 1.738 -0.0833803 0
M  V30 6944 O 662.335 1.9923 -0.29487 0
M  V30 6945 C 659.4 3.36519 -0.834006 0
M  V30 6946 C 658.461 3.80203 -1.9936 0
M  V30 6947 C 657.694 5.06449 -1.68359 0
M  V30 6948 O 657.917 5.67202 -0.603141 0
M  V30 6949 O 656.851 5.46114 -2.53067 0
M  V30 6950 H 660.677 2.18043 -2.11403 0
M  V30 6951 H 658.262 1.02584 -1.08613 0
M  V30 6952 H 660.144 4.16089 -0.666949 0
M  V30 6953 H 658.819 3.23573 0.0908245 0
M  V30 6954 H 657.726 3.01413 -2.21588 0
M  V30 6955 H 659.059 3.97729 -2.89952 0
M  V30 6956 N 660.711 1.11618 1.11262 0
M  V30 6957 C 661.958 0.86618 1.8304 0
M  V30 6958 C 662.286 -0.608149 1.84748 0
M  V30 6959 O 661.541 -1.46508 1.29745 0
M  V30 6960 C 661.84 1.37529 3.2988 0
M  V30 6961 C 661.506 2.86317 3.4833 0
M  V30 6962 C 660.168 3.26945 3.53073 0
M  V30 6963 C 662.52 3.82136 3.54431 0
M  V30 6964 C 659.848 4.62117 3.61475 0
M  V30 6965 C 662.2 5.17128 3.64365 0
M  V30 6966 C 660.864 5.57312 3.67369 0
M  V30 6967 H 660.134 0.316958 0.66979 0
M  V30 6968 H 662.781 1.3949 1.31205 0
M  V30 6969 H 661.086 0.766842 3.84222 0
M  V30 6970 H 662.783 1.15817 3.83911 0
M  V30 6971 H 659.373 2.53889 3.45309 0
M  V30 6972 H 663.557 3.51847 3.50025 0
M  V30 6973 H 658.813 4.92655 3.62079 0
M  V30 6974 H 662.987 5.91208 3.68029 0
M  V30 6975 H 660.614 6.62045 3.73632 0
M  V30 6976 N 662.189 -1.289 0.906776 0
M  V30 6977 C 663.6 -1.77336 0.58384 0
M  V30 6978 C 663.951 -1.74304 -0.900697 0
M  V30 6979 O 663.076 -1.33335 -1.70443 0
M  V30 6980 C 663.671 -3.22019 1.05304 0
M  V30 6981 C 662.23 -3.68205 0.781148 0
M  V30 6982 C 661.377 -2.48837 1.22373 0
M  V30 6983 H 664.328 -1.15462 1.08877 0
M  V30 6984 H 664.349 -3.78481 0.391414 0
M  V30 6985 H 663.861 -3.24194 2.13353 0
M  V30 6986 H 661.962 -3.71497 -0.28643 0
M  V30 6987 H 662.075 -4.58675 1.384 0
M  V30 6988 H 660.439 -2.46461 0.642594 0
M  V30 6989 H 661.222 -2.53736 2.31242 0
M  V30 6990 N 663.667 -0.670007 -1.42649 0
M  V30 6991 C 664.892 -0.196955 -2.06463 0
M  V30 6992 C 665.317 1.1352 -1.49983 0
M  V30 6993 O 664.675 1.705 -0.616397 0
M  V30 6994 C 664.723 -0.137381 -3.60338 0
M  V30 6995 O 663.827 0.895523 -4.02559 0
M  V30 6996 H 663.168 -0.102579 -0.656029 0
M  V30 6997 H 665.698 -0.917669 -1.82866 0
M  V30 6998 H 665.708 0.0403625 -4.0798 0
M  V30 6999 H 664.383 -1.10977 -4.0082 0
M  V30 7000 H 662.96 0.689209 -3.66476 0
M  V30 7001 N 665.145 1.52092 -0.413018 0
M  V30 7002 C 666.108 2.25706 0.398687 0
M  V30 7003 C 667.108 1.28221 0.970368 0
M  V30 7004 O 668.298 1.52131 0.848635 0
M  V30 7005 C 665.43 3.03029 1.5616 0
M  V30 7006 H 666.623 2.98888 -0.246131 0
M  V30 7007 H 664.176 1.5542 -0.165622 0
M  V30 7008 H 664.911 2.34205 2.24317 0
M  V30 7009 H 664.696 3.74606 1.15812 0
M  V30 7010 H 666.186 3.58857 2.13569 0
M  V30 7011 N 666.623 0.143563 1.56945 0
M  V30 7012 C 667.871 -0.507402 1.95627 0
M  V30 7013 C 668.192 -1.65626 1.02922 0
M  V30 7014 O 667.462 -1.95693 0.0901136 0
M  V30 7015 H 666.042 -0.190436 0.722318 0
M  V30 7016 H 668.704 0.218257 1.93674 0
M  V30 7017 H 667.8 -0.885816 2.99265 0
M  V30 7018 N 668.101 -1.57061 -0.130224 0
M  V30 7019 C 669.512 -1.73539 -0.68856 0
M  V30 7020 C 669.863 -0.760554 -1.80859 0
M  V30 7021 O 668.988 0.0690796 -2.1629 0
M  V30 7022 C 669.583 -3.14666 -1.25581 0
M  V30 7023 C 668.142 -3.32689 -1.76055 0
M  V30 7024 C 667.289 -2.69436 -0.655712 0
M  V30 7025 H 670.24 -1.58412 0.0956002 0
M  V30 7026 H 670.261 -3.15595 -2.12556 0
M  V30 7027 H 669.773 -3.85593 -0.440412 0
M  V30 7028 H 667.874 -2.66786 -2.60108 0
M  V30 7029 H 667.987 -4.4077 -1.87772 0
M  V30 7030 H 666.351 -2.30362 -1.08654 0
M  V30 7031 H 667.134 -3.42979 0.14852 0
M  V30 7032 N 669.579 0.400081 -1.52437 0
M  V30 7033 C 670.526 1.48803 -1.76426 0
M  V30 7034 C 671.496 1.5461 -0.607032 0
M  V30 7035 O 672.681 1.71041 -0.845563 0
M  V30 7036 C 669.821 2.86156 -1.92896 0
M  V30 7037 C 668.934 2.89587 -3.20567 0
M  V30 7038 C 668.069 4.18296 -3.27417 0
M  V30 7039 C 667.108 4.15736 -4.49255 0
M  V30 7040 N 666.245 5.36032 -4.53447 0
M  V30 7041 H 671.085 1.27649 -2.69276 0
M  V30 7042 H 668.622 0.619451 -1.33421 0
M  V30 7043 H 670.58 3.65901 -2.00429 0
M  V30 7044 H 669.21 3.05785 -1.03418 0
M  V30 7045 H 668.262 2.02278 -3.22161 0
M  V30 7046 H 669.574 2.83562 -4.10358 0
M  V30 7047 H 668.728 5.06439 -3.34072 0
M  V30 7048 H 667.467 4.27028 -2.35581 0
M  V30 7049 H 666.472 3.25982 -4.42737 0
M  V30 7050 H 667.697 4.08636 -5.42396 0
M  V30 7051 H 665.643 5.45415 -3.64498 0
M  V30 7052 H 665.56 5.32038 -5.37096 0
M  V30 7053 H 666.828 6.26104 -4.64343 0
M  V30 7054 N 671.057 1.43213 0.657864 0
M  V30 7055 C 671.967 1.50448 1.80007 0
M  V30 7056 C 672.983 0.39191 1.69529 0
M  V30 7057 O 674.159 0.645349 1.90781 0
M  V30 7058 C 671.224 1.42062 3.16258 0
M  V30 7059 C 670.285 2.63951 3.38568 0
M  V30 7060 C 669.518 2.55956 4.68318 0
M  V30 7061 O 669.741 1.60473 5.47361 0
M  V30 7062 O 668.675 3.46378 4.92245 0
M  V30 7063 H 672.501 2.4689 1.76858 0
M  V30 7064 H 670.086 1.25163 0.81576 0
M  V30 7065 H 671.968 1.3981 3.97531 0
M  V30 7066 H 670.643 0.487524 3.20008 0
M  V30 7067 H 669.55 2.71776 2.57077 0
M  V30 7068 H 670.883 3.56217 3.39662 0
M  V30 7069 N 672.536 -0.895792 1.29666 0
M  V30 7070 C 673.499 -1.98189 1.15124 0
M  V30 7071 C 674.499 -1.60572 0.0855717 0
M  V30 7072 O 675.689 -1.70991 0.332826 0
M  V30 7073 C 672.821 -3.32289 0.761372 0
M  V30 7074 H 674.014 -2.12518 2.11603 0
M  V30 7075 H 671.567 -1.0808 1.12908 0
M  V30 7076 H 672.302 -3.23662 -0.203393 0
M  V30 7077 H 672.087 -3.60958 1.53139 0
M  V30 7078 H 673.577 -4.1198 0.682792 0
M  V30 7079 N 674.014 -1.12206 -1.10668 0
M  V30 7080 C 675.425 -0.890657 -1.64086 0
M  V30 7081 C 675.776 0.575502 -1.8757 0
M  V30 7082 O 674.901 1.4394 -1.61587 0
M  V30 7083 C 675.496 -1.61029 -2.98085 0
M  V30 7084 C 674.055 -1.4251 -3.48379 0
M  V30 7085 C 673.202 -1.64778 -2.23033 0
M  V30 7086 H 676.153 -1.27718 -0.94201 0
M  V30 7087 H 676.174 -1.05993 -3.65439 0
M  V30 7088 H 675.686 -2.67735 -2.80962 0
M  V30 7089 H 673.787 -0.380497 -3.70652 0
M  V30 7090 H 673.9 -2.17959 -4.26651 0
M  V30 7091 H 672.264 -1.07171 -2.31055 0
M  V30 7092 H 673.047 -2.72776 -2.08443 0
M  V30 7093 N 675.492 1.28418 -0.913599 0
M  V30 7094 C 676.903 1.77024 -0.593237 0
M  V30 7095 C 677.254 1.74779 0.891441 0
M  V30 7096 O 676.379 1.34237 1.69733 0
M  V30 7097 C 676.974 3.21456 -1.07011 0
M  V30 7098 C 675.533 3.67786 -0.800664 0
M  V30 7099 C 674.68 2.48185 -1.23691 0
M  V30 7100 H 677.631 1.14883 -1.09487 0
M  V30 7101 H 677.652 3.78269 -0.411481 0
M  V30 7102 H 677.164 3.23058 -2.1507 0
M  V30 7103 H 675.265 3.71644 0.266725 0
M  V30 7104 H 675.378 4.57934 -1.4083 0
M  V30 7105 H 673.742 2.46116 -0.655655 0
M  V30 7106 H 674.525 2.52506 -2.32585 0
M  V30 7107 N 676.97 0.677563 1.42291 0
M  V30 7108 C 678.216 0.209962 2.02313 0
M  V30 7109 C 678.571 -1.1714 1.52631 0
M  V30 7110 O 677.864 -1.7756 0.719938 0
M  V30 7111 C 678.058 0.187229 3.56909 0
M  V30 7112 C 677.887 1.56484 4.21595 0
M  V30 7113 C 676.657 2.16329 4.56651 0
M  V30 7114 C 678.855 2.50805 4.49 0
M  V30 7115 N 676.837 3.46842 5.06531 0
M  V30 7116 C 678.208 3.65976 5.00461 0
M  V30 7117 C 680.263 2.493 4.30992 0
M  V30 7118 C 678.966 4.79899 5.35807 0
M  V30 7119 C 680.992 3.62322 4.67415 0
M  V30 7120 C 680.354 4.76221 5.19031 0
M  V30 7121 H 676.453 0.121815 0.772454 0
M  V30 7122 H 679.037 0.891148 1.73109 0
M  V30 7123 H 677.208 -0.46338 3.85626 0
M  V30 7124 H 678.94 -0.293512 4.03634 0
M  V30 7125 H 675.695 1.6879 4.42501 0
M  V30 7126 H 676.119 4.13694 5.35898 0
M  V30 7127 H 680.761 1.62467 3.90339 0
M  V30 7128 H 678.479 5.67406 5.75392 0
M  V30 7129 H 682.065 3.62388 4.55155 0
M  V30 7130 H 680.945 5.62228 5.46689 0
M  V30 7131 N 678.448 -1.51871 0.421078 0
M  V30 7132 C 679.696 -2.01539 -0.150492 0
M  V30 7133 C 680.017 -1.30803 -1.44623 0
M  V30 7134 O 679.287 -0.437568 -1.90951 0
M  V30 7135 H 677.867 -0.744698 -0.0586041 0
M  V30 7136 H 680.529 -1.8668 0.560059 0
M  V30 7137 H 679.625 -3.10264 -0.338068 0
M  V30 7138 N 679.926 -0.151884 -1.56866 0
M  V30 7139 C 680.873 0.785936 -2.17006 0
M  V30 7140 C 681.843 1.2407 -1.10435 0
M  V30 7141 O 683.028 1.31235 -1.38499 0
M  V30 7142 C 680.168 2.01771 -2.79969 0
M  V30 7143 C 679.281 1.6083 -4.00946 0
M  V30 7144 C 678.416 2.79224 -4.51893 0
M  V30 7145 C 677.455 2.3468 -5.65324 0
M  V30 7146 N 676.592 3.461 -6.10867 0
M  V30 7147 H 681.432 0.266286 -2.96808 0
M  V30 7148 H 678.969 0.11972 -1.46612 0
M  V30 7149 H 680.927 2.73989 -3.14621 0
M  V30 7150 H 679.557 2.51139 -2.02803 0
M  V30 7151 H 678.609 0.783592 -3.72242 0
M  V30 7152 H 679.921 1.24119 -4.83111 0
M  V30 7153 H 679.075 3.59625 -4.88625 0
M  V30 7154 H 677.814 3.19183 -3.68746 0
M  V30 7155 H 676.819 1.52721 -5.28163 0
M  V30 7156 H 678.044 1.95801 -6.5026 0
M  V30 7157 H 675.99 3.85671 -5.30654 0
M  V30 7158 H 675.907 3.1342 -6.87971 0
M  V30 7159 H 677.175 4.26844 -6.52246 0
M  V30 7160 N 681.404 1.57128 0.121893 0
M  V30 7161 C 682.314 2.03425 1.16857 0
M  V30 7162 C 683.33 0.954108 1.45509 0
M  V30 7163 O 684.506 1.26541 1.56682 0
M  V30 7164 C 681.571 2.42685 2.47599 0
M  V30 7165 C 680.632 3.64767 2.2637 0
M  V30 7166 C 679.865 4.02145 3.50878 0
M  V30 7167 O 680.088 3.39897 4.58068 0
M  V30 7168 O 679.022 4.95262 3.42051 0
M  V30 7169 H 682.848 2.92825 0.80544 0
M  V30 7170 H 680.433 1.45654 0.332477 0
M  V30 7171 H 682.315 2.68684 3.24634 0
M  V30 7172 H 680.99 1.56432 2.83392 0
M  V30 7173 H 679.897 3.43922 1.47203 0
M  V30 7174 H 681.23 4.51716 1.95482 0
M  V30 7175 N 682.882 -0.391992 1.52647 0
M  V30 7176 C 683.814 -1.49811 1.73463 0
M  V30 7177 C 684.827 -1.50734 0.615078 0
M  V30 7178 O 686.016 -1.5469 0.890696 0
M  V30 7179 C 683.116 -2.88667 1.77552 0
M  V30 7180 C 682.289 -3.11743 3.06815 0
M  V30 7181 C 681.348 -4.30564 3.02491 0
M  V30 7182 O 680.374 -4.27014 3.76361 0
M  V30 7183 N 681.576 -5.36593 2.21468 0
M  V30 7184 H 684.341 -1.32343 2.68897 0
M  V30 7185 H 681.902 -0.581475 1.51098 0
M  V30 7186 H 683.894 -3.66251 1.7217 0
M  V30 7187 H 682.464 -2.99508 0.895181 0
M  V30 7188 H 681.684 -2.2205 3.25711 0
M  V30 7189 H 682.972 -3.24013 3.92292 0
M  V30 7190 H 682.37 -5.42332 1.60913 0
M  V30 7191 H 680.927 -6.12855 2.21928 0
M  V30 7192 N 684.36 -1.4356 -0.65026 0
M  V30 7193 C 685.771 -1.40324 -1.2315 0
M  V30 7194 C 686.122 -0.108812 -1.95898 0
M  V30 7195 O 685.247 0.79163 -2.01401 0
M  V30 7196 C 685.842 -2.54195 -2.23987 0
M  V30 7197 C 684.401 -2.54215 -2.77582 0
M  V30 7198 C 683.548 -2.31752 -1.5227 0
M  V30 7199 H 686.499 -1.52418 -0.442095 0
M  V30 7200 H 686.52 -2.25854 -3.0622 0
M  V30 7201 H 686.032 -3.48392 -1.71011 0
M  V30 7202 H 684.133 -1.63907 -3.34612 0
M  V30 7203 H 684.246 -3.52081 -3.24925 0
M  V30 7204 H 682.61 -1.80476 -1.79723 0
M  V30 7205 H 683.393 -3.28037 -1.01225 0
M  V30 7206 N 685.838 0.888903 -1.30139 0
M  V30 7207 C 686.768 2.01046 -1.18755 0
M  V30 7208 C 687.749 1.69916 -0.0791438 0
M  V30 7209 O 688.934 1.92445 -0.260498 0
M  V30 7210 C 686.064 3.36109 -0.874518 0
M  V30 7211 C 685.018 3.81486 -1.94043 0
M  V30 7212 C 684.344 5.13796 -1.48047 0
M  V30 7213 C 685.644 4.00637 -3.35093 0
M  V30 7214 H 687.338 2.10828 -2.12584 0
M  V30 7215 H 684.884 1.01298 -1.02346 0
M  V30 7216 H 686.837 4.14089 -0.781548 0
M  V30 7217 H 685.561 3.26449 0.0994519 0
M  V30 7218 H 684.22 3.05731 -2.02297 0
M  V30 7219 H 683.868 5.0056 -0.494878 0
M  V30 7220 H 683.568 5.45127 -2.19341 0
M  V30 7221 H 685.092 5.94305 -1.40121 0
M  V30 7222 H 686.506 4.69067 -3.2962 0
M  V30 7223 H 684.903 4.43339 -4.04438 0
M  V30 7224 H 685.973 3.0462 -3.77273 0
M  V30 7225 N 687.317 1.12792 1.10072 0
M  V30 7226 C 688.267 0.768086 2.14673 0
M  V30 7227 C 689.251 -0.234716 1.59179 0
M  V30 7228 O 690.443 -0.039643 1.76956 0
M  V30 7229 C 687.572 0.228472 3.42539 0
M  V30 7230 C 686.658 1.25979 4.04957 0
M  V30 7231 N 687.049 2.4586 4.42025 0
M  V30 7232 C 685.347 1.10602 4.32069 0
M  V30 7233 C 686.048 3.11747 4.9111 0
M  V30 7234 N 685.024 2.39185 4.88151 0
M  V30 7235 H 688.826 1.68029 2.4113 0
M  V30 7236 H 686.34 1.00925 1.27232 0
M  V30 7237 H 688.337 -0.0475216 4.16873 0
M  V30 7238 H 686.997 -0.678136 3.1754 0
M  V30 7239 H 688.008 2.83215 4.33601 0
M  V30 7240 H 684.685 0.257021 4.16708 0
M  V30 7241 H 686.075 4.13862 5.29309 0
M  V30 7242 N 688.795 -1.27931 0.920396 0
M  V30 7243 C 689.725 -2.29487 0.431024 0
M  V30 7244 C 690.706 -1.62435 -0.504861 0
M  V30 7245 O 691.891 -1.89797 -0.411176 0
M  V30 7246 C 689.021 -3.45788 -0.323709 0
M  V30 7247 C 687.975 -4.24784 0.523658 0
M  V30 7248 C 687.301 -5.33488 -0.359809 0
M  V30 7249 C 688.601 -4.90874 1.78437 0
M  V30 7250 H 690.295 -2.70671 1.27975 0
M  V30 7251 H 687.841 -1.30121 0.616813 0
M  V30 7252 H 689.794 -4.15927 -0.676952 0
M  V30 7253 H 688.518 -3.03502 -1.2064 0
M  V30 7254 H 687.177 -3.56382 0.85951 0
M  V30 7255 H 686.825 -4.87445 -1.24124 0
M  V30 7256 H 686.525 -5.87247 0.203605 0
M  V30 7257 H 688.049 -6.06472 -0.708787 0
M  V30 7258 H 689.463 -5.53339 1.49963 0
M  V30 7259 H 687.86 -5.54659 2.29071 0
M  V30 7260 H 688.93 -4.14988 2.50824 0
M  V30 7261 N 690.273 -0.685099 -1.4193 0
M  V30 7262 C 691.183 -0.013404 -2.34596 0
M  V30 7263 C 692.199 0.777589 -1.55658 0
M  V30 7264 O 693.375 0.717553 -1.88184 0
M  V30 7265 C 690.44 0.919031 -3.34297 0
M  V30 7266 C 689.501 0.121417 -4.29128 0
M  V30 7267 C 688.734 1.00944 -5.24067 0
M  V30 7268 O 688.957 2.24898 -5.24192 0
M  V30 7269 O 687.891 0.464724 -6.00103 0
M  V30 7270 H 691.717 -0.776978 -2.93593 0
M  V30 7271 H 689.302 -0.445379 -1.42607 0
M  V30 7272 H 691.184 1.45402 -3.9552 0
M  V30 7273 H 689.859 1.66228 -2.77759 0
M  V30 7274 H 688.766 -0.45792 -3.71287 0
M  V30 7275 H 690.099 -0.582937 -4.88736 0
M  V30 7276 N 691.751 1.51645 -0.429126 0
M  V30 7277 C 693.162 1.86665 0.0359003 0
M  V30 7278 C 693.513 1.34677 1.42676 0
M  V30 7279 O 692.638 0.694195 2.04963 0
M  V30 7280 C 693.233 3.38724 0.0719221 0
M  V30 7281 C 691.792 3.7331 0.481336 0
M  V30 7282 C 690.939 2.75313 -0.331329 0
M  V30 7283 H 693.89 1.44987 -0.645333 0
M  V30 7284 H 693.911 3.7011 0.883118 0
M  V30 7285 H 693.423 3.76532 -0.940495 0
M  V30 7286 H 691.524 3.41088 1.49966 0
M  V30 7287 H 691.637 4.78631 0.211837 0
M  V30 7288 H 690.001 2.53839 0.209204 0
M  V30 7289 H 690.784 3.15963 -1.34247 0
M  V30 7290 N 693.229 0.160201 1.56784 0
M  V30 7291 C 694.454 -0.497373 2.01348 0
M  V30 7292 C 694.879 -1.56757 1.03966 0
M  V30 7293 O 694.237 -1.81292 0.0174455 0
M  V30 7294 C 694.285 -1.0628 3.44582 0
M  V30 7295 O 693.389 -2.17723 3.50244 0
M  V30 7296 H 692.73 -0.120295 0.653012 0
M  V30 7297 H 695.26 0.260821 2.02931 0
M  V30 7298 H 695.27 -1.38819 3.83658 0
M  V30 7299 H 693.945 -0.279166 4.14962 0
M  V30 7300 H 692.522 -1.86313 3.2302 0
M  V30 7301 N 694.707 -1.5719 -0.113559 0
M  V30 7302 C 696.118 -1.74259 -0.670116 0
M  V30 7303 C 696.469 -0.779694 -1.80042 0
M  V30 7304 O 695.594 0.0461353 -2.16351 0
M  V30 7305 C 696.189 -3.15981 -1.22236 0
M  V30 7306 C 694.748 -3.34537 -1.72516 0
M  V30 7307 C 693.895 -2.70116 -0.627098 0
M  V30 7308 H 696.846 -1.58301 0.112396 0
M  V30 7309 H 696.867 -3.17832 -2.09197 0
M  V30 7310 H 696.379 -3.86038 -0.39949 0
M  V30 7311 H 694.48 -2.6953 -2.57263 0
M  V30 7312 H 694.593 -4.42737 -1.83086 0
M  V30 7313 H 692.957 -2.31501 -1.06204 0
M  V30 7314 H 693.74 -3.42802 0.184889 0
M  V30 7315 N 696.185 0.383891 -1.52853 0
M  V30 7316 C 697.596 0.961591 -1.60032 0
M  V30 7317 C 697.947 1.90819 -0.456333 0
M  V30 7318 O 697.072 2.12288 0.419873 0
M  V30 7319 C 697.667 1.75078 -2.90057 0
M  V30 7320 C 696.226 2.2781 -2.99632 0
M  V30 7321 C 695.373 1.08512 -2.55187 0
M  V30 7322 H 698.324 0.163269 -1.57858 0
M  V30 7323 H 698.345 2.61046 -2.7683 0
M  V30 7324 H 697.857 1.06157 -3.73299 0
M  V30 7325 H 695.958 3.00028 -2.20939 0
M  V30 7326 H 696.071 2.56947 -4.0437 0
M  V30 7327 H 694.435 1.44667 -2.09627 0
M  V30 7328 H 695.218 0.41118 -3.40829 0
M  V30 7329 N 697.663 1.43903 0.642637 0
M  V30 7330 C 698.626 1.49538 1.73698 0
M  V30 7331 C 699.626 0.378776 1.56275 0
M  V30 7332 O 700.816 0.64095 1.6198 0
M  V30 7333 C 697.948 1.35821 3.12675 0
M  V30 7334 H 699.141 2.47008 1.70079 0
M  V30 7335 H 696.694 1.30824 0.85526 0
M  V30 7336 H 697.429 0.393994 3.21898 0
M  V30 7337 H 697.214 2.16776 3.26727 0
M  V30 7338 H 698.704 1.4272 3.92455 0
M  V30 7339 N 699.141 -0.881989 1.30609 0
M  V30 7340 C 700.366 -1.67236 1.22665 0
M  V30 7341 C 700.791 -1.8696 -0.206777 0
M  V30 7342 O 700.149 -1.4027 -1.14865 0
M  V30 7343 C 700.197 -3.02446 1.96363 0
M  V30 7344 O 699.301 -3.91614 1.29276 0
M  V30 7345 H 698.642 -0.510902 0.424117 0
M  V30 7346 H 701.172 -1.10055 1.72479 0
M  V30 7347 H 701.182 -3.52468 2.055 0
M  V30 7348 H 699.857 -2.8741 3.00613 0
M  V30 7349 H 698.434 -3.50055 1.28514 0
M  V30 7350 N 700.619 -1.13374 -1.09472 0
M  V30 7351 C 702.03 -0.90801 -1.63132 0
M  V30 7352 C 702.381 0.555576 -1.8817 0
M  V30 7353 O 701.506 1.42218 -1.63104 0
M  V30 7354 C 702.101 -1.64182 -2.96361 0
M  V30 7355 C 700.66 -1.46197 -3.46848 0
M  V30 7356 C 699.807 -1.67134 -2.21273 0
M  V30 7357 H 702.758 -1.2871 -0.928411 0
M  V30 7358 H 702.779 -1.09863 -3.64294 0
M  V30 7359 H 702.291 -2.707 -2.78106 0
M  V30 7360 H 700.392 -0.419788 -3.70228 0
M  V30 7361 H 700.505 -2.22472 -4.24315 0
M  V30 7362 H 698.869 -1.09616 -2.29905 0
M  V30 7363 H 699.652 -2.74971 -2.05538 0
M  V30 7364 N 702.098 1.27442 -0.927168 0
M  V30 7365 C 703.326 1.98498 -0.583622 0
M  V30 7366 C 703.741 1.69171 0.838241 0
M  V30 7367 O 703.098 0.951969 1.55704 0
M  V30 7368 C 703.149 3.52552 -0.799341 0
M  V30 7369 O 702.87 3.80851 -2.16527 0
M  V30 7370 C 704.371 4.4086 -0.464436 0
M  V30 7371 H 701.591 0.633487 -0.221213 0
M  V30 7372 H 704.135 1.62308 -1.24404 0
M  V30 7373 H 702.29 3.86955 -0.185728 0
M  V30 7374 H 702.704 4.75441 -2.21487 0
M  V30 7375 H 704.178 5.47967 -0.666075 0
M  V30 7376 H 704.655 4.35082 0.599995 0
M  V30 7377 H 705.261 4.11977 -1.05617 0
M  V30 7378 N 703.576 0.692616 1.41565 0
M  V30 7379 C 704.508 -0.0137132 2.29196 0
M  V30 7380 C 705.521 -0.747417 1.44629 0
M  V30 7381 O 706.71 -0.598611 1.68163 0
M  V30 7382 C 703.81 -1.04347 3.22436 0
M  V30 7383 C 702.983 -0.379985 4.35746 0
M  V30 7384 C 702.042 -1.31195 5.09583 0
M  V30 7385 O 701.068 -0.805455 5.63472 0
M  V30 7386 N 702.27 -2.64443 5.16769 0
M  V30 7387 H 705.035 0.738614 2.90456 0
M  V30 7388 H 702.596 0.538415 1.52685 0
M  V30 7389 H 704.588 -1.6686 3.687 0
M  V30 7390 H 703.158 -1.69736 2.62504 0
M  V30 7391 H 702.378 0.424975 3.91903 0
M  V30 7392 H 703.666 0.0814904 5.08735 0
M  V30 7393 H 703.064 -3.08114 4.74428 0
M  V30 7394 H 701.621 -3.22159 5.66619 0
M  V30 7395 N 705.054 -1.51416 0.437162 0
M  V30 7396 C 706.279 -2.0699 -0.130424 0
M  V30 7397 C 706.704 -1.30249 -1.35709 0
M  V30 7398 O 706.062 -0.340388 -1.78076 0
M  V30 7399 C 706.11 -3.5801 -0.43142 0
M  V30 7400 O 705.214 -3.8345 -1.5179 0
M  V30 7401 H 704.555 -0.663997 -0.00194339 0
M  V30 7402 H 707.085 -1.95029 0.618445 0
M  V30 7403 H 707.095 -4.02261 -0.681926 0
M  V30 7404 H 705.77 -4.13291 0.465137 0
M  V30 7405 H 704.347 -3.51062 -1.25737 0
M  V30 7406 N 706.532 -0.168513 -1.56696 0
M  V30 7407 C 707.943 0.348694 -1.83415 0
M  V30 7408 C 708.294 1.63257 -1.0882 0
M  V30 7409 O 707.419 2.13707 -0.340333 0
M  V30 7410 C 708.014 0.639423 -3.32711 0
M  V30 7411 C 706.573 1.10108 -3.59935 0
M  V30 7412 C 705.72 0.135464 -2.76969 0
M  V30 7413 H 708.671 -0.392829 -1.53761 0
M  V30 7414 H 708.692 1.49179 -3.50037 0
M  V30 7415 H 708.204 -0.295173 -3.86976 0
M  V30 7416 H 706.305 2.05088 -3.11079 0
M  V30 7417 H 706.418 1.01218 -4.68286 0
M  V30 7418 H 704.782 0.632286 -2.46727 0
M  V30 7419 H 705.565 -0.793104 -3.34013 0
M  V30 7420 N 708.01 1.57248 0.105221 0
M  V30 7421 C 709.287 1.76566 0.841647 0
M  V30 7422 C 709.667 0.747566 1.9742 0
M  V30 7423 O 709.015 -0.225886 2.27381 0
M  V30 7424 C 709.225 3.22016 1.3456 0
M  V30 7425 C 710.573 3.84911 1.79244 0
M  V30 7426 O 711.597 3.25703 1.44207 0
M  V30 7427 O 710.456 4.89008 2.43995 0
M  V30 7428 H 707.55 0.723443 0.400698 0
M  V30 7429 H 710.096 1.69472 0.0878893 0
M  V30 7430 H 708.868 3.87644 0.533685 0
M  V30 7431 H 708.491 3.33703 2.16167 0
M  V30 7432 N 709.488 -0.375779 1.53054 0
M  V30 7433 C 710.436 -1.48015 1.79428 0
M  V30 7434 C 711.43 -1.55893 0.662854 0
M  V30 7435 O 712.636 -1.58901 0.845599 0
M  V30 7436 H 709.011 -0.492887 0.56795 0
M  V30 7437 H 710.982 -1.22971 2.71884 0
M  V30 7438 C 709.731 -2.84984 1.99197 0
M  V30 7439 H 709.054 -2.79677 2.85693 0
M  V30 7440 H 710.494 -3.61462 2.21633 0
M  V30 7441 C 708.953 -3.28025 0.768183 0
M  V30 7442 O 709.483 -4.01671 -0.0480482 0
M  V30 7443 N 707.689 -2.84454 0.594521 0
M  V30 7444 H 707.236 -2.24688 1.25988 0
M  V30 7445 H 707.194 -3.13609 -0.222916 0
M  V30 7446 N 710.966 -1.44241 -0.634997 0
M  V30 7447 C 711.896 -1.53632 -1.7584 0
M  V30 7448 C 712.877 -0.389603 -1.65578 0
M  V30 7449 O 714.062 -0.609219 -1.84397 0
M  V30 7450 C 711.192 -1.47644 -3.14354 0
M  V30 7451 C 710.146 -2.60752 -3.394 0
M  V30 7452 C 709.472 -2.39817 -4.77904 0
M  V30 7453 C 710.772 -4.02921 -3.32343 0
M  V30 7454 H 712.466 -2.47662 -1.68238 0
M  V30 7455 H 710.012 -1.19197 -0.807969 0
M  V30 7456 H 711.965 -1.52815 -3.92716 0
M  V30 7457 H 710.689 -0.501284 -3.2273 0
M  V30 7458 H 709.348 -2.54965 -2.63417 0
M  V30 7459 H 708.996 -1.40502 -4.82978 0
M  V30 7460 H 708.696 -3.15649 -4.9562 0
M  V30 7461 H 710.22 -2.46799 -5.585 0
M  V30 7462 H 711.634 -4.10098 -4.00615 0
M  V30 7463 H 710.031 -4.78925 -3.61595 0
M  V30 7464 H 711.101 -4.26766 -2.30215 0
M  V30 7465 N 712.444 0.87505 -1.31075 0
M  V30 7466 C 713.672 1.66058 -1.23419 0
M  V30 7467 C 714.087 1.87723 0.201347 0
M  V30 7468 O 713.444 1.43178 1.13165 0
M  V30 7469 C 713.495 3.03142 -1.96945 0
M  V30 7470 O 713.216 2.82448 -3.34895 0
M  V30 7471 C 714.717 3.97583 -1.96067 0
M  V30 7472 H 711.937 0.517868 -0.426677 0
M  V30 7473 H 714.481 1.09258 -1.72867 0
M  V30 7474 H 712.636 3.56645 -1.51271 0
M  V30 7475 H 713.05 3.69483 -3.72267 0
M  V30 7476 H 714.524 4.91104 -2.52034 0
M  V30 7477 H 715.001 4.2898 -0.941961 0
M  V30 7478 H 715.607 3.50015 -2.41597 0
M  V30 7479 N 713.922 1.13953 1.08869 0
M  V30 7480 C 715.162 0.915128 1.8277 0
M  V30 7481 C 715.526 -0.548647 1.83994 0
M  V30 7482 O 716.727 -0.890817 2.5361 0
M  V30 7483 C 714.998 1.49382 3.24684 0
M  V30 7484 S 716.557 1.4103 4.15519 0
M  V30 7485 H 713.375 0.329716 0.629927 0
M  V30 7486 H 715.977 1.45213 1.30895 0
M  V30 7487 H 714.681 2.55241 3.21372 0
M  V30 7488 H 714.212 0.955008 3.81632 0
M  V30 7489 H 716.227 0.392617 4.94644 0
M  V30 7490 N 715.4 -1.26948 0.933913 0
M  V30 7491 C 716.628 -1.98186 0.59414 0
M  V30 7492 C 717.043 -1.69614 -0.829257 0
M  V30 7493 O 716.4 -0.960213 -1.55197 0
M  V30 7494 C 716.451 -3.52123 0.818026 0
M  V30 7495 O 716.172 -3.79698 2.18543 0
M  V30 7496 C 717.673 -4.40608 0.48781 0
M  V30 7497 H 714.893 -0.632305 0.224569 0
M  V30 7498 H 717.437 -1.61646 1.25263 0
M  V30 7499 H 715.592 -3.86851 0.206246 0
M  V30 7500 H 716.006 -4.7426 2.24005 0
M  V30 7501 H 717.48 -5.47606 0.695126 0
M  V30 7502 H 717.957 -4.35394 -0.576913 0
M  V30 7503 H 718.563 -4.11411 1.078 0
M  V30 7504 N 716.879 -0.700114 -1.41195 0
M  V30 7505 C 717.789 -0.0382854 -2.34569 0
M  V30 7506 C 718.805 0.761036 -1.56474 0
M  V30 7507 O 719.981 0.697553 -1.88934 0
M  V30 7508 C 717.046 0.883522 -3.35253 0
M  V30 7509 C 716.107 0.0758957 -4.29233 0
M  V30 7510 C 715.34 0.9538 -5.25108 0
M  V30 7511 O 715.563 2.19326 -5.26547 0
M  V30 7512 O 714.497 0.401049 -6.00562 0
M  V30 7513 H 718.323 -0.808073 -2.92752 0
M  V30 7514 H 715.908 -0.460479 -1.42127 0
M  V30 7515 H 717.79 1.41199 -3.9704 0
M  V30 7516 H 716.465 1.63272 -2.79506 0
M  V30 7517 H 715.372 -0.497274 -3.7078 0
M  V30 7518 H 716.705 -0.634741 -4.8809 0
M  V30 7519 N 718.357 1.51182 -0.445186 0
M  V30 7520 C 719.585 2.06568 0.117091 0
M  V30 7521 C 720 1.31182 1.35781 0
M  V30 7522 O 719.357 0.373605 1.78635 0
M  V30 7523 C 719.408 3.58917 0.431408 0
M  V30 7524 O 719.129 4.31456 -0.760078 0
M  V30 7525 C 720.63 4.30843 1.0435 0
M  V30 7526 H 717.85 0.670985 0.00444436 0
M  V30 7527 H 720.394 1.94666 -0.626525 0
M  V30 7528 H 718.549 3.70708 1.12493 0
M  V30 7529 H 718.963 5.22215 -0.489048 0
M  V30 7530 H 720.437 5.38499 1.21337 0
M  V30 7531 H 720.914 3.89644 2.02667 0
M  V30 7532 H 721.52 4.23516 0.38913 0
M  V30 7533 N 719.835 0.176821 1.56605 0
M  V30 7534 C 721.246 -0.338963 1.83597 0
M  V30 7535 C 721.597 -1.62677 1.09684 0
M  V30 7536 O 720.722 -2.13524 0.351661 0
M  V30 7537 C 721.317 -0.62177 3.33046 0
M  V30 7538 C 719.876 -1.08198 3.60514 0
M  V30 7539 C 719.023 -0.120774 2.77037 0
M  V30 7540 H 721.974 0.400978 1.53551 0
M  V30 7541 H 721.995 -1.47321 3.50823 0
M  V30 7542 H 721.507 0.315692 3.86814 0
M  V30 7543 H 719.608 -2.03435 3.12162 0
M  V30 7544 H 719.721 -0.987329 4.68816 0
M  V30 7545 H 718.085 -0.619192 2.47059 0
M  V30 7546 H 718.868 0.810806 3.33588 0
M  V30 7547 N 721.313 -1.57302 -0.09688 0
M  V30 7548 C 722.243 -2.0497 -1.11846 0
M  V30 7549 C 723.224 -0.938278 -1.41882 0
M  V30 7550 O 724.409 -1.20943 -1.51942 0
M  V30 7551 C 721.539 -2.47264 -2.43881 0
M  V30 7552 C 720.493 -3.62053 -2.28257 0
M  V30 7553 C 719.819 -3.90318 -3.65453 0
M  V30 7554 C 721.119 -4.93005 -1.72461 0
M  V30 7555 H 722.813 -2.90567 -0.721888 0
M  V30 7556 H 720.359 -1.39786 -0.345803 0
M  V30 7557 H 722.312 -2.7922 -3.15617 0
M  V30 7558 H 721.036 -1.58664 -2.8547 0
M  V30 7559 H 719.695 -3.30341 -1.58967 0
M  V30 7560 H 719.343 -2.98889 -4.04567 0
M  V30 7561 H 719.043 -4.67597 -3.55846 0
M  V30 7562 H 720.567 -4.24747 -4.3866 0
M  V30 7563 H 721.981 -5.23354 -2.34036 0
M  V30 7564 H 720.378 -5.74436 -1.73618 0
M  V30 7565 H 721.448 -4.80053 -0.683898 0
M  V30 7566 N 722.791 0.367657 -1.53252 0
M  V30 7567 C 724.037 1.11216 -1.69584 0
M  V30 7568 C 724.37 1.89026 -0.445269 0
M  V30 7569 O 723.645 1.86342 0.557404 0
M  V30 7570 C 723.928 2.07308 -2.94441 0
M  V30 7571 C 723.781 1.3312 -4.2965 0
M  V30 7572 C 725.1 3.07459 -3.14892 0
M  V30 7573 H 722.219 0.40294 -0.617096 0
M  V30 7574 H 724.861 0.393201 -1.85887 0
M  V30 7575 H 723.011 2.68617 -2.80673 0
M  V30 7576 H 724.683 0.746111 -4.55226 0
M  V30 7577 H 722.926 0.633051 -4.29156 0
M  V30 7578 H 723.597 2.03443 -5.13142 0
M  V30 7579 H 726.073 2.56252 -3.27832 0
M  V30 7580 H 724.949 3.71919 -4.03693 0
M  V30 7581 H 725.21 3.77514 -2.30077 0
M  V30 7582 N 724.269 1.44576 0.627338 0
M  V30 7583 C 725.518 1.46837 1.38281 0
M  V30 7584 C 725.831 0.10635 1.95311 0
M  V30 7585 O 727.037 0.00651084 2.71499 0
M  V30 7586 C 725.493 2.58527 2.50384 0
M  V30 7587 C 725.101 4.00953 1.99851 0
M  V30 7588 C 726.845 2.70013 3.27557 0
M  V30 7589 C 724.752 5.0406 3.09318 0
M  V30 7590 H 723.682 0.546319 0.519664 0
M  V30 7591 H 726.333 1.70654 0.674497 0
M  V30 7592 H 724.715 2.27957 3.23808 0
M  V30 7593 H 725.889 4.41108 1.33267 0
M  V30 7594 H 724.204 3.93743 1.35482 0
M  V30 7595 H 726.801 3.44217 4.09168 0
M  V30 7596 H 727.144 1.75961 3.77284 0
M  V30 7597 H 727.677 3.00011 2.61224 0
M  V30 7598 H 724.416 5.99753 2.6453 0
M  V30 7599 H 723.936 4.68493 3.74532 0
M  V30 7600 H 725.615 5.2793 3.74031 0
M  V30 7601 N 725.747 -0.868086 1.31537 0
M  V30 7602 C 726.71 -1.95703 1.19302 0
M  V30 7603 C 727.71 -1.60355 0.119612 0
M  V30 7604 O 728.9 -1.70247 0.36902 0
M  V30 7605 C 726.032 -3.30599 0.831684 0
M  V30 7606 H 727.225 -2.07982 2.16064 0
M  V30 7607 H 724.778 -1.05661 1.15176 0
M  V30 7608 H 725.513 -3.2402 -0.134694 0
M  V30 7609 H 725.298 -3.57629 1.60761 0
M  V30 7610 H 726.788 -4.10439 0.770026 0
M  V30 7611 N 727.225 -1.14528 -1.08264 0
M  V30 7612 C 728.473 -0.912599 -1.80322 0
M  V30 7613 C 728.794 0.562256 -1.86718 0
M  V30 7614 O 728.064 1.40869 -1.36135 0
M  V30 7615 H 726.644 -0.334645 -0.667849 0
M  V30 7616 H 729.306 -1.44415 -1.30883 0
M  V30 7617 H 728.402 -1.31384 -2.83098 0
M  V30 7618 N 728.703 1.26451 -0.940633 0
M  V30 7619 C 729.651 2.28389 -0.440581 0
M  V30 7620 C 730.645 1.62402 0.481859 0
M  V30 7621 O 731.851 1.76361 0.360132 0
M  V30 7622 H 728.226 0.741716 -0.123938 0
M  V30 7623 H 730.197 2.67967 -1.31288 0
M  V30 7624 C 728.946 3.46576 0.279364 0
M  V30 7625 H 728.269 3.97574 -0.421274 0
M  V30 7626 H 729.709 4.19826 0.59348 0
M  V30 7627 C 728.168 3.01815 1.49697 0
M  V30 7628 O 728.698 3.06607 2.59529 0
M  V30 7629 N 726.904 2.57163 1.35334 0
M  V30 7630 H 726.451 2.53464 0.459743 0
M  V30 7631 H 726.409 2.27578 2.16923 0
M  V30 7632 N 730.181 0.707592 1.40822 0
M  V30 7633 C 731.592 0.317011 1.83989 0
M  V30 7634 C 731.943 -1.14697 1.59182 0
M  V30 7635 O 731.068 -1.8818 1.06852 0
M  V30 7636 C 731.663 0.568593 3.33995 0
M  V30 7637 C 730.222 0.231804 3.75686 0
M  V30 7638 C 729.369 0.844933 2.64114 0
M  V30 7639 H 732.32 0.907349 1.30203 0
M  V30 7640 H 732.341 -0.168798 3.80125 0
M  V30 7641 H 731.853 1.63417 3.52018 0
M  V30 7642 H 729.954 -0.82903 3.6326 0
M  V30 7643 H 730.067 0.695219 4.74029 0
M  V30 7644 H 728.431 0.273588 2.53226 0
M  V30 7645 H 729.214 1.91462 2.84951 0
M  V30 7646 N 731.66 -1.50943 0.453197 0
M  V30 7647 C 732.623 -2.26684 -0.338705 0
M  V30 7648 C 733.623 -1.30748 -0.936032 0
M  V30 7649 O 734.813 -1.54327 -0.808002 0
M  V30 7650 C 731.945 -3.07063 -1.48071 0
M  V30 7651 H 733.138 -2.98131 0.325289 0
M  V30 7652 H 730.691 -1.54926 0.206771 0
M  V30 7653 H 731.426 -2.4007 -2.18029 0
M  V30 7654 H 731.211 -3.77545 -1.0584 0
M  V30 7655 H 732.701 -3.64393 -2.0398 0
M  V30 7656 N 733.138 -0.185124 -1.56509 0
M  V30 7657 C 734.368 0.461469 -2.0138 0
M  V30 7658 C 734.776 1.56417 -1.06445 0
M  V30 7659 O 734.119 1.83603 -0.0597515 0
M  V30 7660 C 734.181 1.08731 -3.42663 0
M  V30 7661 C 733.845 0.124581 -4.5683 0
M  V30 7662 C 734.842 -0.662295 -5.15664 0
M  V30 7663 C 732.527 0.0163947 -5.02297 0
M  V30 7664 C 734.521 -1.54442 -6.18406 0
M  V30 7665 C 732.208 -0.869301 -6.04885 0
M  V30 7666 C 733.206 -1.64828 -6.62813 0
M  V30 7667 O 732.894 -2.51915 -7.63409 0
M  V30 7668 H 732.626 0.1212 -0.665046 0
M  V30 7669 H 735.18 -0.288119 -2.03369 0
M  V30 7670 H 733.41 1.8853 -3.37629 0
M  V30 7671 H 735.099 1.63753 -3.71403 0
M  V30 7672 H 735.865 -0.588963 -4.81411 0
M  V30 7673 H 731.744 0.61253 -4.56913 0
M  V30 7674 H 735.288 -2.15289 -6.63548 0
M  V30 7675 H 731.185 -0.943786 -6.38563 0
M  V30 7676 H 731.953 -2.45584 -7.80789 0
M  V30 7677 N 734.616 1.57351 0.0885366 0
M  V30 7678 C 736.032 1.53331 0.442916 0
M  V30 7679 C 736.232 0.902831 1.80142 0
M  V30 7680 O 735.288 0.498147 2.47537 0
M  V30 7681 C 736.601 2.98036 0.399372 0
M  V30 7682 C 738.149 3.09286 0.480759 0
M  V30 7683 C 738.624 4.5561 0.467296 0
M  V30 7684 N 740.115 4.60182 0.52786 0
M  V30 7685 C 740.85 5.70857 0.539388 0
M  V30 7686 N 740.346 6.90944 0.506729 0
M  V30 7687 N 742.139 5.59051 0.584691 0
M  V30 7688 H 734.29 1.96709 -0.801215 0
M  V30 7689 H 736.553 0.899639 -0.298922 0
M  V30 7690 H 736.259 3.47656 -0.531806 0
M  V30 7691 H 736.133 3.57066 1.21589 0
M  V30 7692 H 738.52 2.5965 1.40236 0
M  V30 7693 H 738.601 2.53197 -0.364023 0
M  V30 7694 H 738.245 5.05899 -0.450384 0
M  V30 7695 H 738.175 5.09544 1.32938 0
M  V30 7696 H 740.666 3.73757 0.558028 0
M  V30 7697 H 740.979 7.71055 0.518989 0
M  V30 7698 H 739.324 6.93384 0.473675 0
M  V30 7699 H 742.515 4.64138 0.607781 0
M  V30 7700 H 742.688 6.45307 0.590206 0
M  V30 7701 N 736.094 -0.359525 1.53444 0
M  V30 7702 C 737.319 -1.12644 1.74144 0
M  V30 7703 C 737.744 -1.82082 0.472007 0
M  V30 7704 O 737.102 -1.71962 -0.57436 0
M  V30 7705 C 737.15 -2.12781 2.9113 0
M  V30 7706 O 736.254 -3.19984 2.60162 0
M  V30 7707 H 735.595 -0.326553 0.578152 0
M  V30 7708 H 738.125 -0.414798 2.00351 0
M  V30 7709 H 738.135 -2.56278 3.17467 0
M  V30 7710 H 736.81 -1.61634 3.83207 0
M  V30 7711 H 735.387 -2.81417 2.44661 0
M  V30 7712 N 737.572 -1.44907 -0.619662 0
M  V30 7713 C 738.819 -1.48292 -1.37898 0
M  V30 7714 C 739.147 -0.119933 -1.9413 0
M  V30 7715 O 738.402 0.879834 -1.74807 0
M  V30 7716 C 738.701 -2.50002 -2.55409 0
M  V30 7717 C 738.367 -3.95031 -2.17397 0
M  V30 7718 C 737.029 -4.34524 -2.06743 0
M  V30 7719 C 739.381 -4.86287 -1.87548 0
M  V30 7720 C 736.709 -5.63183 -1.64445 0
M  V30 7721 C 739.061 -6.15346 -1.4674 0
M  V30 7722 C 737.725 -6.53781 -1.34636 0
M  V30 7723 H 736.995 -0.542638 -0.504603 0
M  V30 7724 H 739.642 -1.78186 -0.701581 0
M  V30 7725 H 737.947 -2.13634 -3.28433 0
M  V30 7726 H 739.644 -2.49864 -3.13639 0
M  V30 7727 H 736.234 -3.63793 -2.26611 0
M  V30 7728 H 740.418 -4.56522 -1.94682 0
M  V30 7729 H 735.674 -5.91769 -1.53687 0
M  V30 7730 H 739.848 -6.85508 -1.22685 0
M  V30 7731 H 737.475 -7.53375 -1.01634 0
M  V30 7732 N 739.05 0.861098 -1.31996 0
M  V30 7733 C 740.275 1.65264 -1.2531 0
M  V30 7734 C 740.7 1.87265 0.177007 0
M  V30 7735 O 740.058 1.4208 1.12619 0
M  V30 7736 C 740.106 2.99284 -2.0115 0
M  V30 7737 O 739.21 3.89508 -1.3549 0
M  V30 7738 H 738.551 0.50409 -0.432192 0
M  V30 7739 H 741.081 1.07297 -1.74208 0
M  V30 7740 H 741.091 3.49154 -2.11081 0
M  V30 7741 H 739.766 2.82591 -3.05148 0
M  V30 7742 H 738.343 3.47966 -1.34066 0
M  V30 7743 N 740.528 1.15101 1.07655 0
M  V30 7744 C 741.476 0.840714 2.16875 0
M  V30 7745 C 742.47 -0.184594 1.68391 0
M  V30 7746 O 743.676 -0.0399315 1.79956 0
M  V30 7747 H 740.051 0.254192 0.707736 0
M  V30 7748 H 742.022 1.76959 2.40266 0
M  V30 7749 C 740.771 0.343018 3.46004 0
M  V30 7750 H 740.094 1.12335 3.83694 0
M  V30 7751 H 741.534 0.16453 4.23681 0
M  V30 7752 C 739.993 -0.934881 3.23669 0
M  V30 7753 O 740.523 -2.00706 3.47965 0
M  V30 7754 N 738.729 -0.873167 2.77172 0
M  V30 7755 H 738.276 -0.000479072 2.576 0
M  V30 7756 H 738.234 -1.72873 2.62607 0
M  V30 7757 N 742.006 -1.2595 0.947325 0
M  V30 7758 C 743.231 -1.98083 0.614633 0
M  V30 7759 C 743.656 -1.70013 -0.804815 0
M  V30 7760 O 743.014 -0.95175 -1.54309 0
M  V30 7761 C 743.062 -3.4993 0.870706 0
M  V30 7762 O 742.166 -4.12364 -0.0541451 0
M  V30 7763 H 741.507 -0.621232 0.234451 0
M  V30 7764 H 744.037 -1.60259 1.27193 0
M  V30 7765 H 744.047 -4.00198 0.794051 0
M  V30 7766 H 742.722 -3.69691 1.90529 0
M  V30 7767 H 741.299 -3.72826 0.0740917 0
M  V30 7768 N 743.484 -0.715051 -1.40445 0
M  V30 7769 C 744.414 -0.0768699 -2.33373 0
M  V30 7770 C 745.395 0.746109 -1.52863 0
M  V30 7771 O 746.58 0.695142 -1.81332 0
M  V30 7772 C 743.71 0.846014 -3.36838 0
M  V30 7773 C 742.664 0.128694 -4.27806 0
M  V30 7774 C 741.99 1.16726 -5.21804 0
M  V30 7775 C 743.29 -1.01679 -5.12307 0
M  V30 7776 H 744.984 -0.853061 -2.8699 0
M  V30 7777 H 742.53 -0.41167 -1.3799 0
M  V30 7778 H 744.483 1.30185 -4.00786 0
M  V30 7779 H 743.207 1.6541 -2.81615 0
M  V30 7780 H 741.866 -0.307314 -3.6531 0
M  V30 7781 H 741.514 1.96838 -4.62887 0
M  V30 7782 H 741.214 0.692188 -5.83509 0
M  V30 7783 H 742.738 1.62321 -5.88629 0
M  V30 7784 H 744.152 -0.640337 -5.69713 0
M  V30 7785 H 742.549 -1.4202 -5.83053 0
M  V30 7786 H 743.619 -1.84769 -4.48317 0
M  V30 7787 N 744.962 1.50701 -0.461195 0
M  V30 7788 C 746.187 2.07171 0.0974773 0
M  V30 7789 C 746.612 1.32391 1.3362 0
M  V30 7790 O 745.97 0.368676 1.77512 0
M  V30 7791 C 746.018 3.58651 0.374409 0
M  V30 7792 O 745.122 3.85816 1.4567 0
M  V30 7793 H 744.463 0.663944 -0.00862047 0
M  V30 7794 H 746.993 1.94021 -0.649394 0
M  V30 7795 H 747.003 4.03295 0.617843 0
M  V30 7796 H 745.678 4.12498 -0.530829 0
M  V30 7797 H 744.255 3.53018 1.20136 0
M  V30 7798 N 746.441 0.193421 1.56409 0
M  V30 7799 C 747.373 -0.759944 2.16235 0
M  V30 7800 C 748.386 -1.17797 1.12373 0
M  V30 7801 O 749.575 -1.11399 1.39472 0
M  V30 7802 C 746.675 -2.03735 2.70823 0
M  V30 7803 C 745.848 -1.77939 3.9957 0
M  V30 7804 C 744.907 -2.90111 4.39001 0
M  V30 7805 O 743.933 -2.59791 5.06456 0
M  V30 7806 N 745.135 -4.18426 4.02368 0
M  V30 7807 H 747.9 -0.248348 2.98669 0
M  V30 7808 H 745.461 0.0113966 1.61896 0
M  V30 7809 H 747.453 -2.77914 2.94187 0
M  V30 7810 H 746.023 -2.46022 1.92852 0
M  V30 7811 H 745.243 -0.875491 3.84355 0
M  V30 7812 H 746.531 -1.58099 4.83614 0
M  V30 7813 H 745.929 -4.45913 3.48106 0
M  V30 7814 H 744.486 -4.89237 4.30686 0
M  V30 7815 N 747.919 -1.57396 -0.0801906 0
M  V30 7816 C 749.144 -1.91437 -0.797909 0
M  V30 7817 C 749.569 -0.789075 -1.70749 0
M  V30 7818 O 748.927 0.25857 -1.79447 0
M  V30 7819 C 748.975 -3.24402 -1.57467 0
M  V30 7820 O 748.079 -3.13043 -2.68473 0
M  V30 7821 H 747.42 -0.627109 -0.218243 0
M  V30 7822 H 749.95 -2.04537 -0.050949 0
M  V30 7823 H 749.96 -3.58072 -1.95571 0
M  V30 7824 H 748.635 -4.05884 -0.907229 0
M  V30 7825 H 747.212 -2.90915 -2.33287 0
M  V30 7826 N 749.397 0.351382 -1.53633 0
M  V30 7827 C 750.808 0.927429 -1.62036 0
M  V30 7828 C 751.159 1.89809 -0.496706 0
M  V30 7829 O 750.284 2.1313 0.374749 0
M  V30 7830 C 750.879 1.68886 -2.93706 0
M  V30 7831 C 749.438 2.21404 -3.04397 0
M  V30 7832 C 748.585 1.03075 -2.57431 0
M  V30 7833 H 751.536 0.129748 -1.58169 0
M  V30 7834 H 751.557 2.55116 -2.82305 0
M  V30 7835 H 751.069 0.982149 -3.75467 0
M  V30 7836 H 749.17 2.95274 -2.27253 0
M  V30 7837 H 749.283 2.48312 -4.09729 0
M  V30 7838 H 747.647 1.40188 -2.12649 0
M  V30 7839 H 748.43 0.338793 -3.41624 0
M  V30 7840 N 750.875 1.45233 0.611969 0
M  V30 7841 C 752.115 1.50558 1.38245 0
M  V30 7842 C 752.479 0.141959 1.91474 0
M  V30 7843 O 753.68 0.0698926 2.68709 0
M  V30 7844 C 751.951 2.55136 2.50281 0
M  V30 7845 S 753.51 2.79652 3.38142 0
M  V30 7846 H 750.328 0.532281 0.471378 0
M  V30 7847 H 752.93 1.82285 0.706578 0
M  V30 7848 H 751.634 3.52888 2.09518 0
M  V30 7849 H 751.165 2.25045 3.22674 0
M  V30 7850 H 753.18 2.12699 4.48301 0
M  V30 7851 N 752.353 -0.854086 1.3245 0
M  V30 7852 C 753.764 -1.42427 1.20712 0
M  V30 7853 C 754.115 -1.95371 -0.18013 0
M  V30 7854 O 753.24 -1.87587 -1.07889 0
M  V30 7855 C 753.835 -2.58897 2.18536 0
M  V30 7856 C 752.394 -3.11913 2.10683 0
M  V30 7857 C 751.541 -1.84661 2.06871 0
M  V30 7858 H 754.492 -0.661192 1.4427 0
M  V30 7859 H 754.513 -3.36074 1.78422 0
M  V30 7860 H 754.025 -2.20333 3.19492 0
M  V30 7861 H 752.126 -3.55059 1.12977 0
M  V30 7862 H 752.239 -3.73119 3.00532 0
M  V30 7863 H 750.603 -2.04285 1.52118 0
M  V30 7864 H 751.386 -1.48314 3.09609 0
M  V30 7865 N 753.831 -1.1567 -1.07043 0
M  V30 7866 C 755.247 -0.900006 -1.31803 0
M  V30 7867 C 755.447 0.451293 -1.96381 0
M  V30 7868 O 754.503 1.19252 -2.22565 0
M  V30 7869 C 755.816 -2.04334 -2.20609 0
M  V30 7870 C 757.364 -2.07823 -2.34048 0
M  V30 7871 C 757.839 -3.21488 -3.26204 0
M  V30 7872 N 759.33 -3.21156 -3.33786 0
M  V30 7873 C 760.065 -4.05746 -4.05163 0
M  V30 7874 N 759.561 -5.00407 -4.79129 0
M  V30 7875 N 761.354 -3.93759 -4.01136 0
M  V30 7876 H 753.505 -2.02681 -0.635146 0
M  V30 7877 H 755.768 -0.883956 -0.342528 0
M  V30 7878 H 755.474 -3.01895 -1.80423 0
M  V30 7879 H 755.348 -1.97838 -3.21154 0
M  V30 7880 H 757.735 -1.1086 -2.73485 0
M  V30 7881 H 757.816 -2.18386 -1.33197 0
M  V30 7882 H 757.46 -4.18706 -2.87485 0
M  V30 7883 H 757.39 -3.08162 -4.27017 0
M  V30 7884 H 759.881 -2.52606 -2.81067 0
M  V30 7885 H 760.194 -5.61387 -5.31097 0
M  V30 7886 H 758.539 -5.04393 -4.78135 0
M  V30 7887 H 761.73 -3.19115 -3.42466 0
M  V30 7888 H 761.903 -4.59906 -4.56498 0
M  V30 7889 N 755.309 1.25446 -0.953992 0
M  V30 7890 C 756.219 2.29632 -0.480264 0
M  V30 7891 C 757.235 1.68025 0.452071 0
M  V30 7892 O 758.411 1.98703 0.328472 0
M  V30 7893 C 755.476 3.45903 0.234974 0
M  V30 7894 C 754.537 4.22953 -0.735495 0
M  V30 7895 C 753.77 5.33672 -0.0542957 0
M  V30 7896 O 753.993 5.58477 1.16018 0
M  V30 7897 O 752.927 5.9734 -0.739509 0
M  V30 7898 H 756.753 2.72242 -1.34602 0
M  V30 7899 H 754.338 1.30883 -0.720419 0
M  V30 7900 H 756.22 4.16552 0.637341 0
M  V30 7901 H 754.895 3.05296 1.07592 0
M  V30 7902 H 753.802 3.54734 -1.18806 0
M  V30 7903 H 755.135 4.67341 -1.54444 0
M  V30 7904 N 756.787 0.722489 1.40064 0
M  V30 7905 C 757.717 0.0892452 2.33329 0
M  V30 7906 C 758.698 -0.737992 1.53257 0
M  V30 7907 O 759.883 -0.685516 1.81698 0
M  V30 7908 C 757.013 -0.828139 3.37282 0
M  V30 7909 C 755.967 -0.106005 4.27869 0
M  V30 7910 C 755.293 -1.13957 5.22415 0
M  V30 7911 C 756.593 1.04395 5.11761 0
M  V30 7912 H 758.287 0.868269 2.86534 0
M  V30 7913 H 755.833 0.418982 1.3777 0
M  V30 7914 H 757.786 -1.28058 4.01471 0
M  V30 7915 H 756.51 -1.63914 2.82489 0
M  V30 7916 H 755.169 0.326683 3.65142 0
M  V30 7917 H 754.817 -1.9438 4.63924 0
M  V30 7918 H 754.517 -0.661233 5.83868 0
M  V30 7919 H 756.041 -1.59197 5.89482 0
M  V30 7920 H 757.455 0.670541 5.69365 0
M  V30 7921 H 755.852 1.4511 5.82291 0
M  V30 7922 H 756.922 1.87144 4.47331 0
M  V30 7923 N 758.265 -1.50454 0.469181 0
M  V30 7924 C 759.513 -2.01916 -0.0862982 0
M  V30 7925 C 759.834 -1.35337 -1.40388 0
M  V30 7926 O 759.104 -0.498096 -1.89462 0
M  V30 7927 H 757.684 -0.746185 -0.0348825 0
M  V30 7928 H 760.346 -1.84804 0.619167 0
M  V30 7929 H 759.442 -3.11182 -0.239189 0
M  V30 7930 N 759.743 -0.201713 -1.56304 0
M  V30 7931 C 761.154 0.309711 -1.84113 0
M  V30 7932 C 761.505 1.60912 -1.12258 0
M  V30 7933 O 760.63 2.12937 -0.385587 0
M  V30 7934 C 761.225 0.568706 -3.33993 0
M  V30 7935 C 759.784 1.02448 -3.6219 0
M  V30 7936 C 758.931 0.0766842 -2.77194 0
M  V30 7937 H 761.882 -0.425356 -1.52893 0
M  V30 7938 H 761.903 1.41721 -3.53122 0
M  V30 7939 H 761.415 -0.37719 -3.86263 0
M  V30 7940 H 759.516 1.98443 -3.15359 0
M  V30 7941 H 759.629 0.912619 -4.70328 0
M  V30 7942 H 757.993 0.579809 -2.48013 0
M  V30 7943 H 758.776 -0.863774 -3.32256 0
M  V30 7944 N 761.222 1.57436 0.0718424 0
M  V30 7945 C 762.499 1.78312 0.804006 0
M  V30 7946 C 762.879 0.789273 1.9579 0
M  V30 7947 O 762.227 -0.177605 2.27809 0
M  V30 7948 C 762.437 3.24798 1.277 0
M  V30 7949 C 763.785 3.88627 1.71039 0
M  V30 7950 O 764.809 3.28689 1.37266 0
M  V30 7951 O 763.668 4.94073 2.33567 0
M  V30 7952 H 760.762 0.73178 0.385262 0
M  V30 7953 H 763.308 1.69621 0.0519219 0
M  V30 7954 H 762.08 3.88688 0.45134 0
M  V30 7955 H 761.703 3.38213 2.0904 0
M  V30 7956 N 762.7 -0.34323 1.53817 0
M  V30 7957 C 764.111 -0.918823 1.62525 0
M  V30 7958 C 764.462 -1.89542 0.506765 0
M  V30 7959 O 763.587 -2.13326 -0.363441 0
M  V30 7960 C 764.182 -1.67326 2.94597 0
M  V30 7961 C 762.741 -2.19786 3.05567 0
M  V30 7962 C 761.888 -1.01708 2.57974 0
M  V30 7963 H 764.839 -0.121358 1.58235 0
M  V30 7964 H 764.86 -2.53615 2.83654 0
M  V30 7965 H 764.372 -0.962223 3.75983 0
M  V30 7966 H 762.473 -2.94065 2.28816 0
M  V30 7967 H 762.586 -2.46135 4.1104 0
M  V30 7968 H 760.95 -1.39058 2.13389 0
M  V30 7969 H 761.733 -0.320671 3.41799 0
M  V30 7970 N 764.178 -1.45556 -0.604258 0
M  V30 7971 C 765.108 -1.57327 -1.72541 0
M  V30 7972 C 766.089 -0.424637 -1.64714 0
M  V30 7973 O 767.274 -0.648196 -1.83063 0
M  V30 7974 C 764.404 -1.54279 -3.11152 0
M  V30 7975 C 763.358 -2.67893 -3.33792 0
M  V30 7976 C 762.684 -2.499 -4.72709 0
M  V30 7977 C 763.984 -4.0988 -3.23722 0
M  V30 7978 H 765.678 -2.51175 -1.62947 0
M  V30 7979 H 763.224 -1.20884 -0.782504 0
M  V30 7980 H 765.177 -1.6111 -3.89386 0
M  V30 7981 H 763.901 -0.569627 -3.21594 0
M  V30 7982 H 762.56 -2.60495 -2.57949 0
M  V30 7983 H 762.208 -1.50715 -4.79889 0
M  V30 7984 H 761.908 -3.26091 -4.88813 0
M  V30 7985 H 763.432 -2.5859 -5.5314 0
M  V30 7986 H 764.846 -4.18503 -3.91826 0
M  V30 7987 H 763.243 -4.86487 -3.51355 0
M  V30 7988 H 764.313 -4.31553 -2.21111 0
M  V30 7989 N 765.656 0.84705 -1.32902 0
M  V30 7990 C 766.586 1.97166 -1.25091 0
M  V30 7991 C 767.567 1.69578 -0.133161 0
M  V30 7992 O 768.752 1.91519 -0.321591 0
M  V30 7993 C 765.882 3.33157 -0.981006 0
M  V30 7994 C 764.836 3.75119 -2.06082 0
M  V30 7995 C 764.162 5.08826 -1.64318 0
M  V30 7996 C 765.462 3.89774 -3.47669 0
M  V30 7997 H 767.156 2.03958 -2.19184 0
M  V30 7998 H 764.702 0.979907 -1.05517 0
M  V30 7999 H 766.655 4.11393 -0.912891 0
M  V30 8000 H 765.379 3.266 -0.00445559 0
M  V30 8001 H 764.038 2.9914 -2.11921 0
M  V30 8002 H 763.686 4.98732 -0.653876 0
M  V30 8003 H 763.386 5.37873 -2.36572 0
M  V30 8004 H 764.91 5.89546 -1.58958 0
M  V30 8005 H 766.324 4.58343 -3.44376 0
M  V30 8006 H 764.721 4.30248 -4.18338 0
M  V30 8007 H 765.791 2.92463 -3.86773 0
M  V30 8008 N 767.134 1.16236 1.06428 0
M  V30 8009 C 768.097 0.870163 2.1204 0
M  V30 8010 C 769.097 -0.134239 1.60239 0
M  V30 8011 O 770.287 0.0964932 1.73933 0
M  V30 8012 C 767.419 0.301033 3.39568 0
M  V30 8013 H 768.612 1.8064 2.39394 0
M  V30 8014 H 766.165 0.971116 1.2247 0
M  V30 8015 H 766.9 -0.642948 3.17863 0
M  V30 8016 H 766.685 1.02475 3.78472 0
M  V30 8017 H 768.175 0.114494 4.17443 0
M  V30 8018 N 768.612 -1.24939 0.960631 0
M  V30 8019 C 770.028 -1.45039 0.666018 0
M  V30 8020 C 770.228 -1.86021 -0.774501 0
M  V30 8021 O 769.284 -1.99392 -1.54916 0
M  V30 8022 C 770.597 -2.51775 1.64408 0
M  V30 8023 C 772.145 -2.6561 1.65592 0
M  V30 8024 C 772.62 -3.75536 2.62177 0
M  V30 8025 N 774.111 -3.82954 2.60577 0
M  V30 8026 C 774.846 -4.67517 3.31987 0
M  V30 8027 N 774.342 -5.56321 4.1289 0
M  V30 8028 N 776.135 -4.61535 3.20845 0
M  V30 8029 H 768.286 -0.96632 1.89145 0
M  V30 8030 H 770.549 -0.486034 0.813926 0
M  V30 8031 H 770.255 -2.28534 2.67329 0
M  V30 8032 H 770.129 -3.49804 1.41128 0
M  V30 8033 H 772.516 -2.88212 0.633846 0
M  V30 8034 H 772.597 -1.67962 1.92931 0
M  V30 8035 H 772.241 -3.53684 3.64514 0
M  V30 8036 H 772.171 -4.72682 2.32119 0
M  V30 8037 H 774.662 -3.19478 2.01847 0
M  V30 8038 H 774.975 -6.17787 4.64283 0
M  V30 8039 H 773.32 -5.5601 4.16987 0
M  V30 8040 H 776.511 -3.91169 2.57108 0
M  V30 8041 H 776.684 -5.27214 3.76762 0
M  V30 8042 N 770.09 -0.729906 -1.39679 0
M  V30 8043 C 771.04 -0.0627678 -2.27914 0
M  V30 8044 C 772.024 0.717867 -1.43998 0
M  V30 8045 O 773.216 0.587713 -1.66958 0
M  V30 8046 C 770.345 0.847564 -3.32673 0
M  V30 8047 C 769.431 0.0613515 -4.24056 0
M  V30 8048 N 769.822 -0.962863 -4.96551 0
M  V30 8049 C 768.12 0.291773 -4.45045 0
M  V30 8050 C 768.821 -1.43652 -5.63683 0
M  V30 8051 N 767.797 -0.756044 -5.38317 0
M  V30 8052 H 771.599 -0.847545 -2.81414 0
M  V30 8053 H 769.113 -0.563776 -1.523 0
M  V30 8054 H 771.11 1.34094 -3.94746 0
M  V30 8055 H 769.77 1.63156 -2.80732 0
M  V30 8056 H 770.781 -1.34409 -5.00154 0
M  V30 8057 H 767.458 1.05097 -4.04056 0
M  V30 8058 H 768.848 -2.28835 -6.31731 0
M  V30 8059 N 771.568 1.50203 -0.477153 0
M  V30 8060 C 772.498 2.31517 0.303646 0
M  V30 8061 C 773.479 1.38696 0.984753 0
M  V30 8062 O 774.664 1.67615 0.980758 0
M  V30 8063 C 771.794 3.18598 1.38249 0
M  V30 8064 C 770.748 4.2002 0.822645 0
M  V30 8065 C 770.074 4.95878 2.00024 0
M  V30 8066 C 771.374 5.22023 -0.170185 0
M  V30 8067 H 773.068 2.97042 -0.375027 0
M  V30 8068 H 770.614 1.42848 -0.181802 0
M  V30 8069 H 772.567 3.74282 1.93625 0
M  V30 8070 H 771.291 2.5097 2.09002 0
M  V30 8071 H 769.95 3.65445 0.290813 0
M  V30 8072 H 769.598 4.24717 2.69489 0
M  V30 8073 H 769.298 5.64487 1.63183 0
M  V30 8074 H 770.822 5.54399 2.55878 0
M  V30 8075 H 772.236 5.72543 0.294606 0
M  V30 8076 H 770.633 5.98386 -0.453181 0
M  V30 8077 H 771.703 4.72396 -1.09408 0
M  V30 8078 N 773.046 0.209999 1.56195 0
M  V30 8079 C 773.956 -0.716459 2.23392 0
M  V30 8080 C 774.972 -1.22291 1.23778 0
M  V30 8081 O 776.148 -1.26694 1.56558 0
M  V30 8082 C 773.213 -1.91261 2.89172 0
M  V30 8083 C 772.274 -1.44927 4.04097 0
M  V30 8084 C 771.507 -2.5884 4.66731 0
M  V30 8085 O 771.73 -3.76693 4.2832 0
M  V30 8086 O 770.664 -2.30701 5.55932 0
M  V30 8087 H 774.49 -0.174089 3.03201 0
M  V30 8088 H 772.075 -0.0199505 1.49387 0
M  V30 8089 H 773.957 -2.6114 3.30733 0
M  V30 8090 H 772.632 -2.4433 2.12331 0
M  V30 8091 H 771.539 -0.718839 3.67129 0
M  V30 8092 H 772.872 -0.965084 4.82646 0
M  V30 8093 N 774.524 -1.57472 -0.0634922 0
M  V30 8094 C 775.434 -2.07621 -1.09227 0
M  V30 8095 C 776.45 -1.00746 -1.41867 0
M  V30 8096 O 777.626 -1.32269 -1.51878 0
M  V30 8097 C 774.691 -2.51707 -2.38421 0
M  V30 8098 C 773.752 -3.72917 -2.12676 0
M  V30 8099 C 772.985 -4.14891 -3.3571 0
M  V30 8100 O 773.208 -3.56663 -4.45137 0
M  V30 8101 O 772.142 -5.07616 -3.23434 0
M  V30 8102 H 775.968 -2.95612 -0.696205 0
M  V30 8103 H 773.553 -1.46787 -0.27819 0
M  V30 8104 H 775.435 -2.80547 -3.14438 0
M  V30 8105 H 774.11 -1.66842 -2.77391 0
M  V30 8106 H 773.017 -3.49148 -1.34337 0
M  V30 8107 H 774.35 -4.5866 -1.78583 0
M  V30 8108 N 776.003 0.335068 -1.53997 0
M  V30 8109 C 777.249 1.07594 -1.71905 0
M  V30 8110 C 777.582 1.88039 -0.485264 0
M  V30 8111 O 776.857 1.87482 0.517752 0
M  V30 8112 C 777.14 2.01016 -2.98772 0
M  V30 8113 C 776.993 1.23977 -4.32377 0
M  V30 8114 C 778.312 3.0071 -3.21343 0
M  V30 8115 H 775.431 0.38976 -0.625505 0
M  V30 8116 H 778.073 0.353684 -1.86679 0
M  V30 8117 H 776.223 2.62603 -2.86307 0
M  V30 8118 H 777.895 0.649383 -4.56706 0
M  V30 8119 H 776.138 0.541878 -4.30402 0
M  V30 8120 H 776.809 1.92512 -5.17342 0
M  V30 8121 H 779.285 2.4924 -3.33194 0
M  V30 8122 H 778.161 3.63272 -4.11491 0
M  V30 8123 H 778.422 3.72549 -2.38033 0
M  V30 8124 N 777.481 1.45874 0.596531 0
M  V30 8125 C 778.391 1.57947 1.73464 0
M  V30 8126 C 779.407 0.463461 1.67714 0
M  V30 8127 O 780.583 0.725685 1.87872 0
M  V30 8128 C 777.648 1.55348 3.09948 0
M  V30 8129 C 776.709 2.78074 3.27068 0
M  V30 8130 C 775.942 2.75589 4.57041 0
M  V30 8131 O 776.165 1.83545 5.40063 0
M  V30 8132 O 775.099 3.66945 4.77111 0
M  V30 8133 H 778.925 2.54169 1.66228 0
M  V30 8134 H 776.51 1.2851 0.76194 0
M  V30 8135 H 778.392 1.56545 3.91244 0
M  V30 8136 H 777.067 0.622811 3.17652 0
M  V30 8137 H 775.974 2.82435 2.45319 0
M  V30 8138 H 777.307 3.70303 3.24248 0
M  V30 8139 N 778.959 -0.83999 1.33349 0
M  V30 8140 C 780.37 -1.41139 1.22216 0
M  V30 8141 C 780.721 -1.95551 -0.159398 0
M  V30 8142 O 779.846 -1.88721 -1.05893 0
M  V30 8143 C 780.441 -2.56564 2.21269 0
M  V30 8144 C 779 -3.09661 2.13979 0
M  V30 8145 C 778.147 -1.82457 2.08818 0
M  V30 8146 H 781.098 -0.645853 1.44964 0
M  V30 8147 H 781.119 -3.34163 1.81976 0
M  V30 8148 H 780.631 -2.16932 3.21811 0
M  V30 8149 H 778.732 -3.53841 1.16736 0
M  V30 8150 H 778.845 -3.6991 3.04472 0
M  V30 8151 H 777.209 -2.0266 1.54276 0
M  V30 8152 H 777.992 -1.45022 3.11165 0
M  V30 8153 N 780.437 -1.16799 -1.0581 0
M  V30 8154 C 781.347 -0.893492 -2.16919 0
M  V30 8155 C 782.363 0.136061 -1.73467 0
M  V30 8156 O 783.539 -0.0417348 -2.01357 0
M  V30 8157 C 780.604 -0.403763 -3.44341 0
M  V30 8158 C 779.665 -1.49914 -4.02274 0
M  V30 8159 C 778.898 -1.03269 -5.23614 0
M  V30 8160 O 779.121 0.115647 -5.70283 0
M  V30 8161 O 778.055 -1.8231 -5.73626 0
M  V30 8162 H 781.881 -1.82274 -2.42919 0
M  V30 8163 H 779.466 -0.948361 -1.1544 0
M  V30 8164 H 781.348 -0.137874 -4.21174 0
M  V30 8165 H 780.023 0.497413 -3.19855 0
M  V30 8166 H 778.93 -1.81883 -3.26909 0
M  V30 8167 H 780.263 -2.3758 -4.31064 0
M  V30 8168 N 781.915 1.24427 -0.967243 0
M  V30 8169 C 782.848 2.23885 -0.441683 0
M  V30 8170 C 783.826 1.55231 0.483963 0
M  V30 8171 O 785.01 1.83865 0.415445 0
M  V30 8172 C 782.137 3.36755 0.362458 0
M  V30 8173 C 781.183 4.23495 -0.505407 0
M  V30 8174 S 782.016 4.98916 -1.94534 0
M  V30 8175 C 783.172 6.15245 -1.14997 0
M  V30 8176 H 783.405 2.68118 -1.28453 0
M  V30 8177 H 780.938 1.337 -0.772243 0
M  V30 8178 H 782.896 4.02218 0.820445 0
M  V30 8179 H 781.557 2.91081 1.18027 0
M  V30 8180 H 780.75 5.03876 0.111979 0
M  V30 8181 H 780.352 3.63032 -0.899104 0
M  V30 8182 H 782.644 6.7629 -0.404769 0
M  V30 8183 H 783.587 6.81343 -1.92814 0
M  V30 8184 H 783.995 5.60455 -0.674543 0
M  V30 8185 N 783.393 0.737304 1.3929 0
M  V30 8186 C 784.804 0.355966 1.83275 0
M  V30 8187 C 785.155 -1.11295 1.6158 0
M  V30 8188 O 784.28 -1.85871 1.10819 0
M  V30 8189 C 784.875 0.63931 3.32713 0
M  V30 8190 C 783.434 0.31144 3.75109 0
M  V30 8191 C 782.581 0.900765 2.62262 0
M  V30 8192 H 785.532 0.934763 1.28249 0
M  V30 8193 H 785.553 -0.0881293 3.80398 0
M  V30 8194 H 785.065 1.70847 3.48472 0
M  V30 8195 H 783.166 -0.751791 3.64937 0
M  V30 8196 H 783.279 0.795611 4.72448 0
M  V30 8197 H 781.643 0.327239 2.52589 0
M  V30 8198 H 782.426 1.97463 2.80826 0
M  V30 8199 N 784.871 -1.49948 0.485112 0
M  V30 8200 C 786.111 -2.04301 -0.0635728 0
M  V30 8201 C 786.475 -1.35804 -1.35725 0
M  V30 8202 O 787.676 -1.80789 -1.98919 0
M  V30 8203 C 785.947 -3.56666 -0.228962 0
M  V30 8204 S 787.506 -4.32614 -0.734185 0
M  V30 8205 H 784.324 -0.710939 -0.00931895 0
M  V30 8206 H 786.926 -1.84185 0.655455 0
M  V30 8207 H 785.63 -4.04068 0.718148 0
M  V30 8208 H 785.161 -3.8116 -0.973696 0
M  V30 8209 H 787.176 -4.53859 -2.00565 0
M  V30 8210 N 786.349 -0.21828 -1.56081 0
M  V30 8211 C 787.595 0.414921 -1.9851 0
M  V30 8212 C 787.928 1.59648 -1.10573 0
M  V30 8213 O 787.203 1.93818 -0.162695 0
M  V30 8214 C 787.486 0.852647 -3.4986 0
M  V30 8215 C 787.339 -0.33232 -4.48571 0
M  V30 8216 C 788.658 1.70998 -4.05521 0
M  V30 8217 H 785.777 0.149344 -0.72171 0
M  V30 8218 H 788.419 -0.313858 -1.8739 0
M  V30 8219 H 786.569 1.47362 -3.59467 0
M  V30 8220 H 788.241 -0.970418 -4.50977 0
M  V30 8221 H 786.484 -0.980302 -4.22578 0
M  V30 8222 H 787.155 0.0168407 -5.51997 0
M  V30 8223 H 789.631 1.18606 -3.98838 0
M  V30 8224 H 788.507 1.98517 -5.11744 0
M  V30 8225 H 788.768 2.67219 -3.52202 0
M  V30 8226 N 787.827 1.57504 0.0551401 0
M  V30 8227 C 789.238 1.76626 0.604979 0
M  V30 8228 C 789.589 0.845978 1.77024 0
M  V30 8229 O 788.714 0.0341936 2.16373 0
M  V30 8230 C 789.309 3.203 1.10425 0
M  V30 8231 C 787.868 3.4071 1.59981 0
M  V30 8232 C 787.015 2.72258 0.526414 0
M  V30 8233 H 789.966 1.57775 -0.171072 0
M  V30 8234 H 789.987 3.25377 1.97256 0
M  V30 8235 H 789.499 3.87255 0.255939 0
M  V30 8236 H 787.6 2.78892 2.47083 0
M  V30 8237 H 787.713 4.49227 1.66528 0
M  V30 8238 H 786.077 2.35283 0.97539 0
M  V30 8239 H 786.86 3.41879 -0.311991 0
M  V30 8240 N 789.305 -0.326896 1.54172 0
M  V30 8241 C 790.237 -1.42319 1.79661 0
M  V30 8242 C 791.25 -1.47989 0.678456 0
M  V30 8243 O 792.439 -1.50773 0.955503 0
M  V30 8244 C 789.539 -2.80876 1.89636 0
M  V30 8245 C 788.712 -2.98449 3.19761 0
M  V30 8246 C 787.771 -4.17347 3.2048 0
M  V30 8247 O 786.797 -4.10667 3.94134 0
M  V30 8248 N 787.999 -5.26717 2.44027 0
M  V30 8249 H 790.764 -1.20819 2.74268 0
M  V30 8250 H 788.325 -0.516866 1.53428 0
M  V30 8251 H 790.317 -3.58619 1.87549 0
M  V30 8252 H 788.887 -2.95442 1.02141 0
M  V30 8253 H 788.107 -2.08035 3.34836 0
M  V30 8254 H 789.395 -3.07083 4.05681 0
M  V30 8255 H 788.793 -5.35019 1.8377 0
M  V30 8256 H 787.35 -6.02891 2.47721 0
M  V30 8257 N 790.784 -1.46188 -0.588786 0
M  V30 8258 C 791.714 -1.59148 -1.70863 0
M  V30 8259 C 792.695 -0.442083 -1.64255 0
M  V30 8260 O 793.88 -0.667575 -1.82365 0
M  V30 8261 C 791.01 -1.5757 -3.09498 0
M  V30 8262 C 789.964 -2.71418 -3.30932 0
M  V30 8263 C 789.29 -2.549 -4.70032 0
M  V30 8264 C 790.59 -4.1329 -3.19356 0
M  V30 8265 H 792.284 -2.52889 -1.60274 0
M  V30 8266 H 789.83 -1.21707 -0.769638 0
M  V30 8267 H 791.783 -1.65231 -3.87655 0
M  V30 8268 H 790.507 -0.603705 -3.20972 0
M  V30 8269 H 789.166 -2.63216 -2.55172 0
M  V30 8270 H 788.814 -1.55797 -4.78264 0
M  V30 8271 H 788.514 -3.31257 -4.85327 0
M  V30 8272 H 790.038 -2.64443 -5.50366 0
M  V30 8273 H 791.452 -4.22636 -3.87365 0
M  V30 8274 H 789.849 -4.90187 -3.46175 0
M  V30 8275 H 790.919 -4.33874 -2.16522 0
M  V30 8276 N 792.262 0.832906 -1.33792 0
M  V30 8277 C 793.487 1.62568 -1.28788 0
M  V30 8278 C 793.912 1.87599 0.137246 0
M  V30 8279 O 793.27 1.44436 1.0958 0
M  V30 8280 C 793.318 2.9495 -2.07453 0
M  V30 8281 O 792.422 3.86546 -1.43722 0
M  V30 8282 H 791.763 0.494809 -0.442787 0
M  V30 8283 H 794.293 1.03578 -1.76445 0
M  V30 8284 H 794.303 3.44599 -2.1844 0
M  V30 8285 H 792.978 2.76055 -3.11073 0
M  V30 8286 H 791.555 3.45044 -1.41417 0
M  V30 8287 N 793.74 1.17359 1.05189 0
M  V30 8288 C 794.65 0.904984 2.16442 0
M  V30 8289 C 795.666 -0.12686 1.73537 0
M  V30 8290 O 796.842 0.0524127 2.01332 0
M  V30 8291 C 793.907 0.422019 3.44122 0
M  V30 8292 C 792.968 1.52045 4.01473 0
M  V30 8293 C 792.201 1.06044 5.23059 0
M  V30 8294 O 792.424 -0.0854023 5.70336 0
M  V30 8295 O 791.358 1.85349 5.72651 0
M  V30 8296 H 795.184 1.8356 2.41949 0
M  V30 8297 H 792.769 0.95447 1.14936 0
M  V30 8298 H 794.651 0.160208 4.21095 0
M  V30 8299 H 793.326 -0.480444 3.20115 0
M  V30 8300 H 792.233 1.83615 3.25939 0
M  V30 8301 H 793.566 2.39863 4.29798 0
M  V30 8302 N 795.218 -1.23913 0.973828 0
M  V30 8303 C 796.629 -1.73992 0.677021 0
M  V30 8304 C 796.98 -1.78833 -0.807036 0
M  V30 8305 O 796.105 -1.42183 -1.63135 0
M  V30 8306 C 796.7 -3.15985 1.22226 0
M  V30 8307 C 795.259 -3.63547 0.975228 0
M  V30 8308 C 794.406 -2.42001 1.35392 0
M  V30 8309 H 797.357 -1.09529 1.14844 0
M  V30 8310 H 797.378 -3.75875 0.591489 0
M  V30 8311 H 796.89 -3.12429 2.30238 0
M  V30 8312 H 794.991 -3.72493 -0.0891047 0
M  V30 8313 H 795.104 -4.50693 1.62518 0
M  V30 8314 H 793.468 -2.42708 0.772334 0
M  V30 8315 H 794.251 -2.41122 2.44367 0
M  V30 8316 N 796.696 -0.74468 -1.38897 0
M  V30 8317 C 797.924 -0.307428 -2.04603 0
M  V30 8318 C 798.339 1.06115 -1.56157 0
M  V30 8319 O 797.696 1.67233 -0.730701 0
M  V30 8320 C 797.747 -0.31101 -3.6016 0
M  V30 8321 O 797.468 -1.62557 -4.06825 0
M  V30 8322 C 798.969 0.141213 -4.43075 0
M  V30 8323 H 796.189 -0.132741 -0.657739 0
M  V30 8324 H 798.733 -1.01104 -1.77759 0
M  V30 8325 H 796.888 0.343792 -3.85872 0
M  V30 8326 H 797.302 -1.54569 -5.01207 0
M  V30 8327 H 798.776 0.0875449 -5.51931 0
M  V30 8328 H 799.253 1.18782 -4.22833 0
M  V30 8329 H 799.859 -0.484383 -4.22533 0
M  V30 8330 N 798.174 1.49689 -0.493057 0
M  V30 8331 C 799.402 2.06836 0.0513141 0
M  V30 8332 C 799.817 1.35436 1.31539 0
M  V30 8333 O 799.174 0.430248 1.77356 0
M  V30 8334 C 799.225 3.60107 0.317003 0
M  V30 8335 O 798.946 4.2882 -0.896957 0
M  V30 8336 C 800.447 4.33945 0.905902 0
M  V30 8337 H 797.667 0.670787 -0.0169048 0
M  V30 8338 H 800.211 1.92574 -0.688139 0
M  V30 8339 H 798.366 3.74099 1.00642 0
M  V30 8340 H 798.78 5.20395 -0.654939 0
M  V30 8341 H 800.254 5.42087 1.04144 0
M  V30 8342 H 800.731 3.95895 1.90168 0
M  V30 8343 H 801.337 4.2454 0.254195 0
M  V30 8344 N 799.652 0.226554 1.55963 0
M  V30 8345 C 800.898 -0.404387 1.98727 0
M  V30 8346 C 801.231 -1.59059 1.11418 0
M  V30 8347 O 800.506 -1.93729 0.172971 0
M  V30 8348 C 800.789 -0.834081 3.50307 0
M  V30 8349 C 800.642 0.356104 4.48388 0
M  V30 8350 C 801.961 -1.68845 4.06423 0
M  V30 8351 H 799.08 -0.145515 0.722492 0
M  V30 8352 H 801.722 0.323791 1.87221 0
M  V30 8353 H 799.872 -1.45454 3.60244 0
M  V30 8354 H 801.544 0.99432 4.50456 0
M  V30 8355 H 799.787 1.0027 4.22053 0
M  V30 8356 H 800.458 0.0124333 5.51999 0
M  V30 8357 H 802.934 -1.16489 3.99461 0
M  V30 8358 H 801.81 -1.958 5.1279 0
M  V30 8359 H 802.071 -2.65347 3.53615 0
M  V30 8360 N 801.13 -1.57531 -0.0467866 0
M  V30 8361 C 802.541 -1.76945 -0.595603 0
M  V30 8362 C 802.892 -0.855354 -1.76573 0
M  V30 8363 O 802.017 -0.045668 -2.16352 0
M  V30 8364 C 802.612 -3.20881 -1.08725 0
M  V30 8365 C 801.171 -3.41553 -1.58172 0
M  V30 8366 C 800.318 -2.72533 -0.511968 0
M  V30 8367 H 803.269 -1.57682 0.179436 0
M  V30 8368 H 803.29 -3.26419 -1.95528 0
M  V30 8369 H 802.802 -3.87385 -0.235398 0
M  V30 8370 H 800.903 -2.80199 -2.456 0
M  V30 8371 H 801.016 -4.50104 -1.64143 0
M  V30 8372 H 799.38 -2.35797 -0.962899 0
M  V30 8373 H 800.163 -3.41709 0.330117 0
M  V30 8374 N 802.608 0.318715 -1.54344 0
M  V30 8375 C 803.54 1.41364 -1.80413 0
M  V30 8376 C 804.553 1.47627 -0.686294 0
M  V30 8377 O 805.742 1.50264 -0.963486 0
M  V30 8378 C 802.842 2.79867 -1.91123 0
M  V30 8379 C 802.015 2.96749 -3.21339 0
M  V30 8380 C 801.074 4.15642 -3.22689 0
M  V30 8381 O 800.1 4.08571 -3.96306 0
M  V30 8382 N 801.302 5.25416 -2.46817 0
M  V30 8383 H 804.067 1.19363 -2.74905 0
M  V30 8384 H 801.628 0.508722 -1.537 0
M  V30 8385 H 803.62 3.57619 -1.89448 0
M  V30 8386 H 802.19 2.94896 -1.03706 0
M  V30 8387 H 801.41 2.06257 -3.35934 0
M  V30 8388 H 802.698 3.04927 -4.07304 0
M  V30 8389 H 802.096 5.34037 -1.86605 0
M  V30 8390 H 800.653 6.01569 -2.50915 0
M  V30 8391 N 804.086 1.46499 0.581025 0
M  V30 8392 C 805.497 1.4604 1.16315 0
M  V30 8393 C 805.848 0.202154 1.95156 0
M  V30 8394 O 804.973 -0.694638 2.04948 0
M  V30 8395 C 805.568 2.64593 2.11604 0
M  V30 8396 C 804.127 2.6717 2.65136 0
M  V30 8397 C 803.274 2.38753 1.4104 0
M  V30 8398 H 806.225 1.54354 0.368871 0
M  V30 8399 H 806.246 2.40207 2.95095 0
M  V30 8400 H 805.758 3.56154 1.54194 0
M  V30 8401 H 803.859 1.79685 3.26411 0
M  V30 8402 H 803.972 3.67182 3.07757 0
M  V30 8403 H 802.336 1.88845 1.70908 0
M  V30 8404 H 803.119 3.32493 0.854588 0
M  V30 8405 N 805.565 -0.825799 1.34232 0
M  V30 8406 C 806.475 -1.9684 1.27638 0
M  V30 8407 C 807.491 -1.73018 0.184569 0
M  V30 8408 O 808.667 -1.97172 0.410525 0
M  V30 8409 C 805.732 -3.31084 1.02879 0
M  V30 8410 C 804.793 -3.67933 2.21188 0
M  V30 8411 C 804.026 -4.95772 1.976 0
M  V30 8412 O 804.249 -5.62721 0.93281 0
M  V30 8413 O 803.183 -5.30431 2.84477 0
M  V30 8414 H 807.009 -2.05346 2.23756 0
M  V30 8415 H 804.594 -0.960772 1.1441 0
M  V30 8416 H 806.476 -4.11492 0.908406 0
M  V30 8417 H 805.151 -3.23552 0.0979821 0
M  V30 8418 H 804.058 -2.87981 2.38784 0
M  V30 8419 H 805.391 -3.80147 3.12648 0
M  V30 8420 N 807.043 -1.17915 -1.04565 0
M  V30 8421 C 808.454 -0.976383 -1.59134 0
M  V30 8422 C 808.805 0.475267 -1.90357 0
M  V30 8423 O 807.93 1.35172 -1.6899 0
M  V30 8424 C 808.525 -1.76604 -2.89131 0
M  V30 8425 C 807.084 -1.60777 -3.40335 0
M  V30 8426 C 806.231 -1.76369 -2.13985 0
M  V30 8427 H 809.182 -1.32532 -0.872985 0
M  V30 8428 H 809.203 -1.25215 -3.59307 0
M  V30 8429 H 808.715 -2.82252 -2.66375 0
M  V30 8430 H 806.816 -0.576436 -3.68114 0
M  V30 8431 H 806.929 -2.40268 -4.14497 0
M  V30 8432 H 805.293 -1.19268 -2.25049 0
M  V30 8433 H 806.076 -2.83441 -1.9369 0
M  V30 8434 N 808.521 1.23394 -0.980386 0
M  V30 8435 C 809.431 2.28561 -0.528864 0
M  V30 8436 C 810.447 1.68946 0.416329 0
M  V30 8437 O 811.623 1.99355 0.286251 0
M  V30 8438 C 808.688 3.46323 0.16155 0
M  V30 8439 C 807.749 4.21297 -0.825044 0
M  V30 8440 C 806.982 5.33437 -0.167483 0
M  V30 8441 O 807.205 5.60812 1.04146 0
M  V30 8442 O 806.139 5.95637 -0.866047 0
M  V30 8443 H 809.965 2.69326 -1.40346 0
M  V30 8444 H 807.55 1.29325 -0.748019 0
M  V30 8445 H 809.432 4.17811 0.548841 0
M  V30 8446 H 808.107 3.0751 1.01092 0
M  V30 8447 H 807.014 3.52134 -1.26303 0
M  V30 8448 H 808.347 4.6396 -1.64322 0
M  V30 8449 N 809.999 0.752036 1.385 0
M  V30 8450 C 811.227 0.318274 2.04437 0
M  V30 8451 C 811.642 -1.05285 1.56718 0
M  V30 8452 O 810.999 -1.66844 0.73956 0
M  V30 8453 C 811.05 0.330106 3.5999 0
M  V30 8454 O 810.771 1.64712 4.05957 0
M  V30 8455 C 812.272 -0.117713 4.43144 0
M  V30 8456 H 809.492 0.136228 0.657026 0
M  V30 8457 H 812.036 1.02045 1.7722 0
M  V30 8458 H 810.191 -0.323323 3.86048 0
M  V30 8459 H 810.605 1.57225 5.0038 0
M  V30 8460 H 812.079 -0.0582735 5.51969 0
M  V30 8461 H 812.556 -1.16538 4.23457 0
M  V30 8462 H 813.162 0.506784 4.2227 0
M  V30 8463 N 811.477 -1.49425 0.500989 0
M  V30 8464 C 812.723 -2.03369 -0.0355945 0
M  V30 8465 C 813.078 -1.37387 -1.34694 0
M  V30 8466 O 812.371 -0.500516 -1.84947 0
M  V30 8467 C 812.565 -3.56562 -0.24463 0
M  V30 8468 C 812.394 -4.37392 1.04491 0
M  V30 8469 C 811.164 -4.7941 1.59669 0
M  V30 8470 C 813.362 -4.75974 1.94817 0
M  V30 8471 N 811.344 -5.44668 2.83214 0
M  V30 8472 C 812.715 -5.4095 3.0294 0
M  V30 8473 C 814.77 -4.57915 1.95495 0
M  V30 8474 C 813.473 -5.89779 4.11768 0
M  V30 8475 C 815.499 -5.07705 3.03298 0
M  V30 8476 C 814.861 -5.72682 4.1014 0
M  V30 8477 H 810.96 -0.781507 0.0277547 0
M  V30 8478 H 813.544 -1.82594 0.675844 0
M  V30 8479 H 811.715 -3.77221 -0.925126 0
M  V30 8480 H 813.447 -3.97147 -0.778219 0
M  V30 8481 H 810.202 -4.59629 1.14185 0
M  V30 8482 H 810.626 -5.81884 3.46035 0
M  V30 8483 H 815.268 -4.07085 1.14199 0
M  V30 8484 H 812.986 -6.3963 4.93862 0
M  V30 8485 H 816.572 -4.95542 3.04843 0
M  V30 8486 H 815.452 -6.10512 4.92184 0
M  V30 8487 N 812.955 -0.234822 -1.55841 0
M  V30 8488 C 813.865 0.680828 -2.24504 0
M  V30 8489 C 814.881 1.20306 -1.25708 0
M  V30 8490 O 816.057 1.24188 -1.58554 0
M  V30 8491 C 813.122 1.86636 -2.92178 0
M  V30 8492 C 812.183 1.3848 -4.06352 0
M  V30 8493 C 811.416 2.51382 -4.70789 0
M  V30 8494 O 811.639 3.69831 -4.34259 0
M  V30 8495 O 810.573 2.21828 -5.59532 0
M  V30 8496 H 814.399 0.12583 -3.03439 0
M  V30 8497 H 811.984 -0.00381817 -1.494 0
M  V30 8498 H 813.866 2.55845 -3.34845 0
M  V30 8499 H 812.541 2.40921 -2.16192 0
M  V30 8500 H 811.448 0.660341 -3.68226 0
M  V30 8501 H 812.781 0.888177 -4.8412 0
M  V30 8502 N 814.433 1.57553 0.0384317 0
M  V30 8503 C 815.365 2.02726 1.06934 0
M  V30 8504 C 816.378 0.938502 1.33026 0
M  V30 8505 O 817.567 1.21595 1.30678 0
M  V30 8506 C 814.667 2.37958 2.41308 0
M  V30 8507 C 813.84 3.69098 2.34703 0
M  V30 8508 C 812.899 3.91623 3.51451 0
M  V30 8509 O 811.925 4.628 3.31368 0
M  V30 8510 N 813.127 3.36538 4.72993 0
M  V30 8511 H 815.892 2.91781 0.684381 0
M  V30 8512 H 813.453 1.60307 0.226542 0
M  V30 8513 H 815.445 2.50172 3.18113 0
M  V30 8514 H 814.015 1.54621 2.71682 0
M  V30 8515 H 813.235 3.67325 1.43059 0
M  V30 8516 H 814.523 4.55144 2.27424 0
M  V30 8517 H 813.921 2.78828 4.92211 0
M  V30 8518 H 812.478 3.54148 5.47195 0
M  V30 8519 N 815.911 -0.310526 1.54511 0
M  V30 8520 C 817.16 -1.0445 1.72549 0
M  V30 8521 C 817.473 -1.88748 0.513172 0
M  V30 8522 O 818.679 -2.65338 0.575165 0
M  V30 8523 C 817.135 -1.90665 3.05246 0
M  V30 8524 C 816.743 -1.11415 4.33925 0
M  V30 8525 C 818.487 -2.63719 3.32645 0
M  V30 8526 C 816.394 -1.96852 5.57677 0
M  V30 8527 H 815.324 -0.393676 0.643067 0
M  V30 8528 H 817.975 -0.302003 1.80998 0
M  V30 8529 H 816.357 -2.68864 2.90737 0
M  V30 8530 H 817.531 -0.378956 4.59239 0
M  V30 8531 H 815.846 -0.499853 4.13389 0
M  V30 8532 H 818.443 -3.27974 4.223 0
M  V30 8533 H 818.786 -3.32047 2.51098 0
M  V30 8534 H 819.319 -1.92574 3.48081 0
M  V30 8535 H 816.058 -1.33009 6.41864 0
M  V30 8536 H 815.578 -2.68069 5.36562 0
M  V30 8537 H 817.257 -2.55127 5.94575 0
M  V30 8538 N 817.389 -1.46805 -0.573248 0
M  V30 8539 C 818.319 -1.60951 -1.69165 0
M  V30 8540 C 819.3 -0.45948 -1.63777 0
M  V30 8541 O 820.485 -0.68688 -1.81647 0
M  V30 8542 C 817.615 -1.60844 -3.07809 0
M  V30 8543 C 816.569 -2.74913 -3.28035 0
M  V30 8544 C 815.895 -2.59871 -4.67302 0
M  V30 8545 C 817.195 -4.16654 -3.14955 0
M  V30 8546 H 818.889 -2.54574 -1.57582 0
M  V30 8547 H 816.435 -1.22516 -0.756686 0
M  V30 8548 H 818.388 -1.69334 -3.85881 0
M  V30 8549 H 817.112 -0.637714 -3.20314 0
M  V30 8550 H 815.771 -2.65908 -2.52366 0
M  V30 8551 H 815.419 -1.60861 -4.76585 0
M  V30 8552 H 815.119 -3.36386 -4.81786 0
M  V30 8553 H 816.643 -2.70265 -5.4753 0
M  V30 8554 H 818.057 -4.26721 -3.82861 0
M  V30 8555 H 816.454 -4.93831 -3.40956 0
M  V30 8556 H 817.524 -4.36146 -2.11908 0
M  V30 8557 N 818.867 0.818669 -1.34668 0
M  V30 8558 C 820.283 1.11243 -1.14443 0
M  V30 8559 C 820.483 2.01435 0.0512212 0
M  V30 8560 O 819.539 2.41854 0.725471 0
M  V30 8561 C 820.852 1.75504 -2.4417 0
M  V30 8562 C 822.4 1.8798 -2.50265 0
M  V30 8563 C 822.875 2.55657 -3.80004 0
M  V30 8564 N 824.366 2.63153 -3.81189 0
M  V30 8565 C 825.101 3.16258 -4.78298 0
M  V30 8566 N 824.597 3.69893 -5.85791 0
M  V30 8567 N 826.39 3.14698 -4.65748 0
M  V30 8568 H 818.541 0.218848 -2.1127 0
M  V30 8569 H 820.804 0.159655 -0.934459 0
M  V30 8570 H 820.51 1.16697 -3.31775 0
M  V30 8571 H 820.384 2.75329 -2.57825 0
M  V30 8572 H 822.771 2.45934 -1.63096 0
M  V30 8573 H 822.852 0.870447 -2.40535 0
M  V30 8574 H 822.496 1.98356 -4.67565 0
M  V30 8575 H 822.426 3.57105 -3.87019 0
M  V30 8576 H 824.917 2.2514 -3.03513 0
M  V30 8577 H 825.23 4.08678 -6.55898 0
M  V30 8578 H 823.575 3.68125 -5.89499 0
M  V30 8579 H 826.766 2.72066 -3.80917 0
M  V30 8580 H 826.939 3.5578 -5.41594 0
M  V30 8581 N 820.346 1.18468 1.03938 0
M  V30 8582 C 821.762 0.934635 1.29371 0
M  V30 8583 C 821.962 -0.399067 1.97509 0
M  V30 8584 O 821.018 -1.13309 2.25648 0
M  V30 8585 C 822.331 2.10111 2.15114 0
M  V30 8586 C 823.879 2.13955 2.28456 0
M  V30 8587 C 824.354 3.30024 3.17566 0
M  V30 8588 N 825.845 3.29893 3.25153 0
M  V30 8589 C 826.58 4.16346 3.94263 0
M  V30 8590 N 826.076 5.12934 4.65693 0
M  V30 8591 N 827.869 4.04256 3.90556 0
M  V30 8592 H 820.02 2.04294 0.581185 0
M  V30 8593 H 822.283 0.892727 0.318971 0
M  V30 8594 H 821.989 3.06572 1.72355 0
M  V30 8595 H 821.863 2.06283 3.15796 0
M  V30 8596 H 824.25 1.18072 2.7045 0
M  V30 8597 H 824.331 2.2184 1.2736 0
M  V30 8598 H 823.975 4.26181 2.76283 0
M  V30 8599 H 823.905 3.19376 4.18697 0
M  V30 8600 H 826.396 2.59969 2.74271 0
M  V30 8601 H 826.709 5.75271 5.16026 0
M  V30 8602 H 825.054 5.16893 4.64593 0
M  V30 8603 H 828.245 3.28083 3.33885 0
M  V30 8604 H 828.418 4.71848 4.44144 0
M  V30 8605 N 821.824 -1.22873 0.986916 0
M  V30 8606 C 822.772 -2.26597 0.525043 0
M  V30 8607 C 823.766 -1.64079 -0.421252 0
M  V30 8608 O 824.972 -1.77576 -0.294429 0
M  V30 8609 H 821.347 -0.736606 0.151381 0
M  V30 8610 H 823.318 -2.62909 1.41142 0
M  V30 8611 C 822.067 -3.47374 -0.150542 0
M  V30 8612 H 821.39 -3.95737 0.568541 0
M  V30 8613 H 822.83 -4.21739 -0.437256 0
M  V30 8614 C 821.289 -3.07163 -1.38392 0
M  V30 8615 O 821.819 -3.16028 -2.47971 0
M  V30 8616 N 820.025 -2.62009 -1.25697 0
M  V30 8617 H 819.572 -2.54996 -0.365355 0
M  V30 8618 H 819.53 -2.35472 -2.08327 0
M  V30 8619 N 823.302 -0.75937 -1.38099 0
M  V30 8620 C 824.548 -0.318584 -2.00282 0
M  V30 8621 C 824.881 1.09854 -1.60143 0
M  V30 8622 O 824.156 1.75344 -0.841702 0
M  V30 8623 C 824.439 -0.448047 -3.57302 0
M  V30 8624 C 824.292 -1.9067 -4.07388 0
M  V30 8625 C 825.611 0.155119 -4.39827 0
M  V30 8626 H 822.73 -0.117233 -0.727616 0
M  V30 8627 H 825.372 -0.960097 -1.63958 0
M  V30 8628 H 823.522 0.0981003 -3.88376 0
M  V30 8629 H 825.194 -2.5116 -3.86932 0
M  V30 8630 H 823.437 -2.41979 -3.6004 0
M  V30 8631 H 824.108 -1.94841 -5.1647 0
M  V30 8632 H 826.584 -0.31073 -4.14938 0
M  V30 8633 H 825.46 0.0343264 -5.48889 0
M  V30 8634 H 825.721 1.24407 -4.24235 0
M  V30 8635 N 824.78 1.49157 -0.508906 0
M  V30 8636 C 825.71 2.32109 0.254469 0
M  V30 8637 C 826.691 1.40754 0.955111 0
M  V30 8638 O 827.876 1.69658 0.944983 0
M  V30 8639 C 825.006 3.21458 1.3146 0
M  V30 8640 C 823.96 4.2167 0.733368 0
M  V30 8641 C 823.286 5.00009 1.8946 0
M  V30 8642 C 824.586 5.21544 -0.280875 0
M  V30 8643 H 826.28 2.9618 -0.43795 0
M  V30 8644 H 823.826 1.4243 -0.212062 0
M  V30 8645 H 825.779 3.78305 1.85643 0
M  V30 8646 H 824.503 2.55346 2.03632 0
M  V30 8647 H 823.162 3.65979 0.213231 0
M  V30 8648 H 822.81 4.30338 2.60419 0
M  V30 8649 H 822.51 5.67821 1.51173 0
M  V30 8650 H 824.034 5.59702 2.44061 0
M  V30 8651 H 825.448 5.73039 0.173095 0
M  V30 8652 H 823.845 5.97291 -0.580006 0
M  V30 8653 H 824.915 4.69969 -1.19404 0
M  V30 8654 N 826.258 0.243083 1.55714 0
M  V30 8655 C 827.19 -0.690766 2.18543 0
M  V30 8656 C 828.203 -1.14163 1.16064 0
M  V30 8657 O 829.392 -1.06906 1.42946 0
M  V30 8658 C 826.492 -1.95016 2.77168 0
M  V30 8659 C 825.665 -1.65137 4.05029 0
M  V30 8660 C 824.724 -2.75998 4.48009 0
M  V30 8661 O 823.75 -2.43547 5.14464 0
M  V30 8662 N 824.952 -4.05414 4.15476 0
M  V30 8663 H 827.717 -0.153203 2.99308 0
M  V30 8664 H 825.278 0.0628968 1.61778 0
M  V30 8665 H 827.27 -2.68414 3.0288 0
M  V30 8666 H 825.84 -2.39762 2.00582 0
M  V30 8667 H 825.06 -0.752768 3.86946 0
M  V30 8668 H 826.348 -1.42633 4.88399 0
M  V30 8669 H 825.746 -4.34613 3.62116 0
M  V30 8670 H 824.303 -4.75288 4.46032 0
M  V30 8671 N 827.736 -1.57571 -0.0300757 0
M  V30 8672 C 828.686 -2.02958 -1.03885 0
M  V30 8673 C 829.67 -0.918723 -1.32092 0
M  V30 8674 O 830.862 -1.18262 -1.31694 0
M  V30 8675 C 827.991 -2.51169 -2.34028 0
M  V30 8676 C 827.077 -3.69073 -2.08915 0
M  V30 8677 N 827.468 -4.81831 -1.53858 0
M  V30 8678 C 825.766 -3.76427 -2.39204 0
M  V30 8679 C 826.467 -5.6346 -1.44526 0
M  V30 8680 N 825.443 -5.08545 -1.92048 0
M  V30 8681 H 829.245 -2.8756 -0.607157 0
M  V30 8682 H 826.759 -1.6067 -0.236399 0
M  V30 8683 H 828.756 -2.81944 -3.07104 0
M  V30 8684 H 827.416 -1.67972 -2.77876 0
M  V30 8685 H 828.427 -5.03291 -1.22142 0
M  V30 8686 H 825.104 -3.04029 -2.86134 0
M  V30 8687 H 826.494 -6.64042 -1.02456 0
M  V30 8688 N 829.214 0.302327 -1.54673 0
M  V30 8689 C 830.462 1.03565 -1.73547 0
M  V30 8690 C 830.783 1.87843 -0.523448 0
M  V30 8691 O 830.053 1.90367 0.462295 0
M  V30 8692 H 828.633 0.385358 -0.639928 0
M  V30 8693 H 831.295 0.333632 -1.92023 0
M  V30 8694 H 830.391 1.68952 -2.62415 0
M  V30 8695 N 830.692 1.47107 0.565454 0
M  V30 8696 C 831.655 1.58535 1.65527 0
M  V30 8697 C 832.655 0.461081 1.54048 0
M  V30 8698 O 833.845 0.725911 1.58355 0
M  V30 8699 C 830.977 1.52204 3.05036 0
M  V30 8700 H 832.17 2.55676 1.56747 0
M  V30 8701 H 829.723 1.35174 0.78471 0
M  V30 8702 H 830.458 0.564071 3.19357 0
M  V30 8703 H 830.243 2.3379 3.14777 0
M  V30 8704 H 831.733 1.63322 3.84338 0
M  V30 8705 N 832.17 -0.811516 1.35101 0
M  V30 8706 C 833.133 -1.90467 1.27495 0
M  V30 8707 C 834.133 -1.59703 0.187516 0
M  V30 8708 O 835.323 -1.68528 0.440896 0
M  V30 8709 C 832.455 -3.26774 0.971154 0
M  V30 8710 H 833.648 -1.98631 2.2469 0
M  V30 8711 H 831.201 -1.00681 1.19553 0
M  V30 8712 H 831.936 -3.243 0.0028557 0
M  V30 8713 H 831.721 -3.50488 1.75785 0
M  V30 8714 H 833.211 -4.06804 0.943414 0
M  V30 8715 N 833.648 -1.19017 -1.03309 0
M  V30 8716 C 834.611 -0.926076 -2.09658 0
M  V30 8717 C 835.611 0.0917077 -1.60538 0
M  V30 8718 O 836.801 -0.142574 -1.73616 0
M  V30 8719 C 833.933 -0.390958 -3.38651 0
M  V30 8720 H 835.126 -1.86923 -2.3452 0
M  V30 8721 H 832.679 -1.00325 -1.19853 0
M  V30 8722 H 833.414 0.558446 -3.19456 0
M  V30 8723 H 833.199 -1.12474 -3.75622 0
M  V30 8724 H 834.689 -0.225131 -4.16993 0
M  V30 8725 N 835.127 1.22348 -0.993418 0
M  V30 8726 C 836.09 2.22522 -0.549251 0
M  V30 8727 C 837.09 1.56529 0.368164 0
M  V30 8728 O 838.28 1.73463 0.16005 0
M  V30 8729 C 835.412 3.40307 0.201037 0
M  V30 8730 H 836.605 2.63332 -1.43515 0
M  V30 8731 H 834.158 1.35407 -0.78068 0
M  V30 8732 H 834.893 3.0497 1.10289 0
M  V30 8733 H 834.678 3.8942 -0.457685 0
M  V30 8734 H 836.168 4.14597 0.499946 0
M  V30 8735 N 836.605 0.766683 1.37694 0
M  V30 8736 C 838.016 0.394761 1.82479 0
M  V30 8737 C 838.367 -1.07842 1.63904 0
M  V30 8738 O 837.492 -1.83479 1.14737 0
M  V30 8739 C 838.087 0.70974 3.31283 0
M  V30 8740 C 836.646 0.390936 3.74364 0
M  V30 8741 C 835.793 0.956192 2.60293 0
M  V30 8742 H 838.744 0.961756 1.26238 0
M  V30 8743 H 838.765 -0.00742144 3.80499 0
M  V30 8744 H 838.277 1.782 3.4477 0
M  V30 8745 H 836.378 -0.674213 3.66449 0
M  V30 8746 H 836.491 0.895645 4.70654 0
M  V30 8747 H 834.855 0.380744 2.51838 0
M  V30 8748 H 835.638 2.03375 2.76575 0
M  V30 8749 N 838.083 -1.48885 0.516809 0
M  V30 8750 C 839.329 -2.02788 -0.0220928 0
M  V30 8751 C 839.662 -1.39433 -1.35175 0
M  V30 8752 O 838.937 -0.535459 -1.86984 0
M  V30 8753 C 839.22 -3.59753 -0.158012 0
M  V30 8754 C 839.073 -4.33611 1.19588 0
M  V30 8755 C 840.392 -4.30984 -0.891133 0
M  V30 8756 H 837.511 -0.736971 -0.00655488 0
M  V30 8757 H 840.153 -1.77746 0.671287 0
M  V30 8758 H 838.303 -3.8122 -0.748568 0
M  V30 8759 H 839.975 -4.23598 1.82653 0
M  V30 8760 H 838.218 -3.95547 1.78116 0
M  V30 8761 H 838.889 -5.41846 1.05391 0
M  V30 8762 H 841.365 -4.14267 -0.39012 0
M  V30 8763 H 840.241 -5.40527 -0.955107 0
M  V30 8764 H 840.502 -3.97336 -1.93847 0
M  V30 8765 N 839.561 -0.251338 -1.55583 0
M  V30 8766 C 840.786 0.379136 -2.03905 0
M  V30 8767 C 841.211 1.50428 -1.12929 0
M  V30 8768 O 840.569 1.80882 -0.123114 0
M  V30 8769 C 840.617 0.86009 -3.50193 0
M  V30 8770 O 839.721 1.96932 -3.62342 0
M  V30 8771 H 839.062 0.0820183 -0.658915 0
M  V30 8772 H 841.592 -0.378692 -2.01065 0
M  V30 8773 H 841.602 1.16214 -3.91099 0
M  V30 8774 H 840.277 0.0367559 -4.15884 0
M  V30 8775 H 838.854 1.67163 -3.33333 0
M  V30 8776 N 841.039 1.57585 0.0217189 0
M  V30 8777 C 842.002 2.06004 1.00474 0
M  V30 8778 C 843.002 0.965461 1.2859 0
M  V30 8779 O 844.192 1.22884 1.23471 0
M  V30 8780 C 841.324 2.48319 2.33561 0
M  V30 8781 H 842.517 2.94112 0.586346 0
M  V30 8782 H 840.07 1.53973 0.268716 0
M  V30 8783 H 840.805 1.63389 2.80133 0
M  V30 8784 H 840.59 3.28239 2.1448 0
M  V30 8785 H 842.08 2.86181 3.04122 0
M  V30 8786 N 842.517 -0.29412 1.54831 0
M  V30 8787 C 843.928 -0.866651 1.65366 0
M  V30 8788 C 844.279 -1.87834 0.56681 0
M  V30 8789 O 843.404 -2.14374 -0.295389 0
M  V30 8790 C 843.999 -1.57869 2.99771 0
M  V30 8791 C 842.558 -2.09954 3.12404 0
M  V30 8792 C 841.705 -0.934492 2.6108 0
M  V30 8793 H 844.656 -0.0709551 1.58541 0
M  V30 8794 H 844.677 -2.44462 2.91579 0
M  V30 8795 H 844.189 -0.84212 3.78853 0
M  V30 8796 H 842.29 -2.86637 2.38055 0
M  V30 8797 H 842.403 -2.32934 4.18663 0
M  V30 8798 H 840.767 -1.32199 2.17705 0
M  V30 8799 H 841.55 -0.211768 3.42646 0
M  V30 8800 N 843.995 -1.47404 -0.557645 0
M  V30 8801 C 845.223 -1.57622 -1.34026 0
M  V30 8802 C 845.638 -0.226256 -1.87439 0
M  V30 8803 O 844.995 0.78043 -1.64971 0
M  V30 8804 C 845.046 -2.60111 -2.51047 0
M  V30 8805 O 844.767 -3.89866 -1.99841 0
M  V30 8806 C 846.268 -2.80508 -3.43264 0
M  V30 8807 H 843.488 -0.532271 -0.40857 0
M  V30 8808 H 846.032 -1.93019 -0.675555 0
M  V30 8809 H 844.187 -2.27648 -3.13457 0
M  V30 8810 H 844.601 -4.45864 -2.76234 0
M  V30 8811 H 846.075 -3.56084 -4.21792 0
M  V30 8812 H 846.552 -1.88314 -3.9678 0
M  V30 8813 H 847.158 -3.14166 -2.86671 0
M  V30 8814 N 845.473 0.80434 -1.35529 0
M  V30 8815 C 846.698 1.598 -1.32207 0
M  V30 8816 C 847.123 1.87848 0.0974226 0
M  V30 8817 O 846.481 1.46728 1.06492 0
M  V30 8818 C 846.529 2.90483 -2.13663 0
M  V30 8819 O 845.633 3.83411 -1.51888 0
M  V30 8820 H 844.974 0.485305 -0.453183 0
M  V30 8821 H 847.504 0.998119 -1.78602 0
M  V30 8822 H 847.514 3.39888 -2.257 0
M  V30 8823 H 846.189 2.69395 -3.16859 0
M  V30 8824 H 844.766 3.41967 -1.48704 0
M  V30 8825 N 846.951 1.19563 1.02676 0
M  V30 8826 C 848.199 0.997593 1.75763 0
M  V30 8827 C 848.52 -0.47253 1.89188 0
M  V30 8828 O 847.79 -1.34214 1.42701 0
M  V30 8829 H 846.37 0.366128 0.651122 0
M  V30 8830 H 849.032 1.50495 1.23844 0
M  V30 8831 H 848.128 1.44741 2.76508 0
M  V30 8832 N 848.429 -1.21819 0.999893 0
M  V30 8833 C 849.659 -1.94475 0.697346 0
M  V30 8834 C 850.067 -1.73991 -0.743228 0
M  V30 8835 O 849.41 -1.04042 -1.51397 0
M  V30 8836 C 849.472 -3.47204 0.932181 0
M  V30 8837 C 849.136 -3.91432 2.3586 0
M  V30 8838 C 850.133 -3.98545 3.33853 0
M  V30 8839 C 847.818 -4.23888 2.69489 0
M  V30 8840 C 849.812 -4.37499 4.63545 0
M  V30 8841 C 847.499 -4.62519 3.99399 0
M  V30 8842 C 848.497 -4.69294 4.96238 0
M  V30 8843 O 848.185 -5.07048 6.23825 0
M  V30 8844 H 847.917 -0.625419 0.256567 0
M  V30 8845 H 850.471 -1.55728 1.33933 0
M  V30 8846 H 848.701 -3.85997 0.233025 0
M  V30 8847 H 850.39 -4.01078 0.623807 0
M  V30 8848 H 851.156 -3.73654 3.09205 0
M  V30 8849 H 847.035 -4.17815 1.94812 0
M  V30 8850 H 850.579 -4.42702 5.3913 0
M  V30 8851 H 846.476 -4.86864 4.23833 0
M  V30 8852 H 847.244 -5.25098 6.27865 0
M  V30 8853 N 849.908 -0.773975 -1.37286 0
M  V30 8854 C 850.84 -0.119938 -2.28886 0
M  V30 8855 C 851.853 0.661822 -1.48741 0
M  V30 8856 O 853.042 0.499548 -1.71367 0
M  V30 8857 C 850.142 0.853703 -3.27971 0
M  V30 8858 C 849.315 0.125286 -4.37221 0
M  V30 8859 C 848.374 1.01261 -5.16365 0
M  V30 8860 O 847.4 0.475565 -5.6721 0
M  V30 8861 N 848.602 2.33864 -5.31308 0
M  V30 8862 H 851.367 -0.906702 -2.85655 0
M  V30 8863 H 848.928 -0.626519 -1.49286 0
M  V30 8864 H 850.92 1.4508 -3.77801 0
M  V30 8865 H 849.49 1.54142 -2.71954 0
M  V30 8866 H 848.71 -0.652742 -3.88758 0
M  V30 8867 H 849.998 -0.377959 -5.07394 0
M  V30 8868 H 849.396 2.79929 -4.91585 0
M  V30 8869 H 847.953 2.88575 -5.84438 0
M  V30 8870 N 851.386 1.48609 -0.524698 0
M  V30 8871 C 852.296 2.33318 0.244923 0
M  V30 8872 C 853.312 1.46153 0.944214 0
M  V30 8873 O 854.488 1.79141 0.920347 0
M  V30 8874 C 851.553 3.22149 1.28144 0
M  V30 8875 C 850.614 4.25184 0.593068 0
M  V30 8876 C 849.847 5.0977 1.5802 0
M  V30 8877 O 850.07 4.96249 2.81235 0
M  V30 8878 O 849.004 5.9134 1.1225 0
M  V30 8879 H 852.83 3.00362 -0.449066 0
M  V30 8880 H 850.415 1.46643 -0.285689 0
M  V30 8881 H 852.297 3.77111 1.88057 0
M  V30 8882 H 850.972 2.57772 1.95793 0
M  V30 8883 H 849.879 3.74071 -0.0464214 0
M  V30 8884 H 851.212 4.92183 -0.0413893 0
M  V30 8885 N 852.864 0.259585 1.55447 0
M  V30 8886 C 854.111 -0.361607 1.99245 0
M  V30 8887 C 854.439 -1.57017 1.14787 0
M  V30 8888 O 853.694 -1.94658 0.201724 0
M  V30 8889 C 853.993 -0.802727 3.48269 0
M  V30 8890 C 853.659 0.299472 4.49904 0
M  V30 8891 C 852.321 0.602157 4.77418 0
M  V30 8892 C 854.673 1.04295 5.10658 0
M  V30 8893 C 852.001 1.65217 5.62957 0
M  V30 8894 C 854.353 2.08257 5.97337 0
M  V30 8895 C 853.017 2.39177 6.23178 0
M  V30 8896 H 852.287 -0.132322 0.72909 0
M  V30 8897 H 854.934 0.370059 1.8789 0
M  V30 8898 H 853.239 -1.61381 3.5702 0
M  V30 8899 H 854.936 -1.29385 3.79553 0
M  V30 8900 H 851.526 0.0534256 4.28567 0
M  V30 8901 H 855.71 0.822358 4.89439 0
M  V30 8902 H 850.966 1.89692 5.81229 0
M  V30 8903 H 855.14 2.6635 6.43452 0
M  V30 8904 H 852.767 3.20677 6.89253 0
M  V30 8905 N 854.342 -1.57594 -0.0133615 0
M  V30 8906 C 855.588 -1.90262 -0.702019 0
M  V30 8907 C 855.921 -0.859219 -1.74158 0
M  V30 8908 O 855.196 0.123778 -1.94106 0
M  V30 8909 C 855.479 -3.3354 -1.35732 0
M  V30 8910 C 855.332 -4.48586 -0.330208 0
M  V30 8911 C 856.651 -3.76004 -2.28712 0
M  V30 8912 H 853.77 -0.691943 -0.253739 0
M  V30 8913 H 856.412 -1.89967 0.0351894 0
M  V30 8914 H 854.562 -3.33921 -1.98567 0
M  V30 8915 H 856.234 -4.6034 0.297433 0
M  V30 8916 H 854.477 -4.32394 0.348926 0
M  V30 8917 H 855.148 -5.45762 -0.827508 0
M  V30 8918 H 857.624 -3.77089 -1.75906 0
M  V30 8919 H 856.5 -4.77032 -2.71535 0
M  V30 8920 H 856.761 -3.09129 -3.16056 0
M  V30 8921 N 855.82 0.285905 -1.54985 0
M  V30 8922 C 856.77 1.35505 -1.83364 0
M  V30 8923 C 857.754 1.45273 -0.691698 0
M  V30 8924 O 858.946 1.49172 -0.952725 0
M  V30 8925 C 856.075 2.71756 -2.0977 0
M  V30 8926 C 855.161 2.6615 -3.30189 0
M  V30 8927 N 855.552 2.30161 -4.50399 0
M  V30 8928 C 853.85 2.97232 -3.3252 0
M  V30 8929 C 854.551 2.34228 -5.32459 0
M  V30 8930 N 853.527 2.72187 -4.70548 0
M  V30 8931 H 857.329 1.06668 -2.7386 0
M  V30 8932 H 854.843 0.494521 -1.54688 0
M  V30 8933 H 856.84 3.48864 -2.28253 0
M  V30 8934 H 855.5 3.01492 -1.20551 0
M  V30 8935 H 856.511 2.02358 -4.7673 0
M  V30 8936 H 853.188 3.31764 -2.53454 0
M  V30 8937 H 854.578 2.09074 -6.38543 0
M  V30 8938 N 857.298 1.47698 0.54982 0
M  V30 8939 C 858.261 1.60282 1.63837 0
M  V30 8940 C 859.261 0.477394 1.5355 0
M  V30 8941 O 860.451 0.742665 1.57576 0
M  V30 8942 C 857.583 1.55431 3.03404 0
M  V30 8943 H 858.776 2.57325 1.54026 0
M  V30 8944 H 856.329 1.35999 0.770329 0
M  V30 8945 H 857.064 0.597912 3.1874 0
M  V30 8946 H 856.849 2.37116 3.12279 0
M  V30 8947 H 858.339 1.6739 3.82584 0
M  V30 8948 N 858.776 -0.797141 1.35954 0
M  V30 8949 C 860.022 -1.55698 1.29946 0
M  V30 8950 C 860.355 -1.93808 -0.123259 0
M  V30 8951 O 859.63 -1.62102 -1.07486 0
M  V30 8952 C 859.913 -2.83926 2.2149 0
M  V30 8953 C 859.766 -2.52232 3.72423 0
M  V30 8954 C 861.085 -3.85698 2.11955 0
M  V30 8955 H 858.204 -0.56488 0.47337 0
M  V30 8956 H 860.846 -0.916421 1.66438 0
M  V30 8957 H 858.996 -3.38588 1.905 0
M  V30 8958 H 860.668 -2.0368 4.13899 0
M  V30 8959 H 858.911 -1.85286 3.92239 0
M  V30 8960 H 859.582 -3.43782 4.31877 0
M  V30 8961 H 862.058 -3.40462 2.39218 0
M  V30 8962 H 860.934 -4.73182 2.78191 0
M  V30 8963 H 861.195 -4.28083 1.10442 0
M  V30 8964 N 860.254 -1.20106 -1.0204 0
M  V30 8965 C 861.164 -0.962051 -2.13967 0
M  V30 8966 C 862.18 0.0808053 -1.73812 0
M  V30 8967 O 863.356 -0.105774 -2.01122 0
M  V30 8968 C 860.421 -0.513108 -3.42882 0
M  V30 8969 C 859.482 -1.62636 -3.97301 0
M  V30 8970 C 858.715 -1.19875 -5.20063 0
M  V30 8971 O 858.938 -0.0658423 -5.70362 0
M  V30 8972 O 857.872 -2.00467 -5.67536 0
M  V30 8973 H 861.698 -1.8991 -2.36998 0
M  V30 8974 H 859.283 -0.984608 -1.12365 0
M  V30 8975 H 861.165 -0.271797 -4.20523 0
M  V30 8976 H 859.84 0.395402 -3.21276 0
M  V30 8977 H 858.747 -1.92192 -3.20957 0
M  V30 8978 H 860.08 -2.51174 -4.23288 0
M  V30 8979 N 861.732 1.21287 -1.00634 0
M  V30 8980 C 862.664 2.2308 -0.526094 0
M  V30 8981 C 863.677 1.58157 0.386031 0
M  V30 8982 O 864.866 1.77528 0.186016 0
M  V30 8983 C 861.966 3.37937 0.255289 0
M  V30 8984 C 861.139 4.32449 -0.656236 0
M  V30 8985 C 860.198 5.26145 0.0757714 0
M  V30 8986 O 859.224 5.66601 -0.543325 0
M  V30 8987 N 860.426 5.6449 1.35391 0
M  V30 8988 H 863.191 2.64913 -1.40147 0
M  V30 8989 H 860.752 1.35724 -0.882641 0
M  V30 8990 H 862.744 3.97614 0.753977 0
M  V30 8991 H 861.314 2.95078 1.03187 0
M  V30 8992 H 860.534 3.70892 -1.3354 0
M  V30 8993 H 861.822 4.92526 -1.27653 0
M  V30 8994 H 861.22 5.33617 1.878 0
M  V30 8995 H 859.777 6.26524 1.79753 0
M  V30 8996 N 863.21 0.781244 1.36873 0
M  V30 8997 C 864.458 0.349198 1.9906 0
M  V30 8998 C 864.779 -1.0806 1.62321 0
M  V30 8999 O 864.049 -1.74351 0.893229 0
M  V30 9000 H 862.629 0.126126 0.736275 0
M  V30 9001 H 865.291 1.00148 1.67202 0
M  V30 9002 H 864.387 0.434451 3.09061 0
M  V30 9003 N 864.689 -1.48329 0.532571 0
M  V30 9004 C 865.937 -2.021 -0.000581206 0
M  V30 9005 C 866.258 -1.4117 -1.34522 0
M  V30 9006 O 865.528 -0.578005 -1.87179 0
M  V30 9007 H 864.108 -0.746993 -0.00320281 0
M  V30 9008 H 866.77 -1.82011 0.696991 0
M  V30 9009 H 865.866 -3.11917 -0.106991 0
M  V30 9010 N 866.167 -0.267825 -1.55308 0
M  V30 9011 C 867.395 0.354587 -2.03839 0
M  V30 9012 C 867.81 1.50007 -1.14644 0
M  V30 9013 O 867.167 1.81752 -0.165055 0
M  V30 9014 C 867.218 0.84254 -3.51544 0
M  V30 9015 O 866.939 -0.257318 -4.37344 0
M  V30 9016 C 868.44 1.53351 -4.15931 0
M  V30 9017 H 865.66 0.0818131 -0.665994 0
M  V30 9018 H 868.204 -0.397795 -2.00594 0
M  V30 9019 H 866.359 1.54503 -3.55257 0
M  V30 9020 H 866.773 0.116593 -5.2437 0
M  V30 9021 H 868.247 1.82643 -5.20908 0
M  V30 9022 H 868.724 2.4626 -3.63666 0
M  V30 9023 H 869.33 0.87506 -4.162 0
M  V30 9024 N 867.645 1.57599 0.00500368 0
M  V30 9025 C 868.577 2.04949 1.02609 0
M  V30 9026 C 869.59 0.966507 1.31006 0
M  V30 9027 O 870.779 1.2434 1.2807 0
M  V30 9028 C 867.879 2.43023 2.36206 0
M  V30 9029 C 867.052 3.73993 2.26821 0
M  V30 9030 C 866.111 3.9899 3.43065 0
M  V30 9031 O 865.137 4.69725 3.21477 0
M  V30 9032 N 866.339 3.46496 4.65748 0
M  V30 9033 H 869.104 2.93167 0.622336 0
M  V30 9034 H 866.665 1.60752 0.192488 0
M  V30 9035 H 868.657 2.56863 3.12735 0
M  V30 9036 H 867.227 1.60349 2.68341 0
M  V30 9037 H 866.447 3.70277 1.35235 0
M  V30 9038 H 867.735 4.59865 2.17719 0
M  V30 9039 H 867.133 2.89206 4.86186 0
M  V30 9040 H 865.69 3.65675 5.3956 0
M  V30 9041 N 869.123 -0.277682 1.55134 0
M  V30 9042 C 870.086 -1.32635 1.86924 0
M  V30 9043 C 871.086 -1.42578 0.743507 0
M  V30 9044 O 872.276 -1.4181 1.01171 0
M  V30 9045 C 869.408 -2.70832 2.07034 0
M  V30 9046 H 870.601 -1.0568 2.80663 0
M  V30 9047 H 868.154 -0.515517 1.47554 0
M  V30 9048 H 868.889 -3.02974 1.15661 0
M  V30 9049 H 868.674 -2.65001 2.88993 0
M  V30 9050 H 870.164 -3.46611 2.32918 0
M  V30 9051 N 870.601 -1.47988 -0.541979 0
M  V30 9052 C 871.826 -1.59286 -1.32826 0
M  V30 9053 C 872.251 -0.24894 -1.86445 0
M  V30 9054 O 871.609 0.777581 -1.63778 0
M  V30 9055 C 871.657 -2.6334 -2.46343 0
M  V30 9056 O 870.761 -2.19667 -3.49028 0
M  V30 9057 H 870.102 -0.534543 -0.393903 0
M  V30 9058 H 872.632 -1.93885 -0.653427 0
M  V30 9059 H 872.642 -2.84238 -2.92699 0
M  V30 9060 H 871.317 -3.60913 -2.06675 0
M  V30 9061 H 869.894 -2.08932 -3.08872 0
M  V30 9062 N 872.079 0.78992 -1.36375 0
M  V30 9063 C 873.042 1.88414 -1.30509 0
M  V30 9064 C 874.042 1.59384 -0.2129 0
M  V30 9065 O 875.232 1.67805 -0.467651 0
M  V30 9066 C 872.364 3.25188 -1.02302 0
M  V30 9067 H 873.557 1.95031 -2.27822 0
M  V30 9068 H 871.11 0.987664 -1.2114 0
M  V30 9069 H 871.845 3.24254 -0.0544486 0
M  V30 9070 H 871.63 3.47647 -1.81338 0
M  V30 9071 H 873.12 4.05252 -1.00801 0
M  V30 9072 N 873.557 1.20646 1.01402 0
M  V30 9073 C 874.803 1.0197 1.753 0
M  V30 9074 C 875.136 -0.446803 1.8899 0
M  V30 9075 O 874.411 -1.33169 1.41762 0
M  V30 9076 C 874.694 1.70693 3.17074 0
M  V30 9077 C 874.547 3.24805 3.11162 0
M  V30 9078 C 875.866 1.44212 4.15802 0
M  V30 9079 H 872.985 0.371844 0.636318 0
M  V30 9080 H 875.627 1.48696 1.18277 0
M  V30 9081 H 873.777 1.30968 3.65759 0
M  V30 9082 H 875.449 3.73841 2.70261 0
M  V30 9083 H 873.692 3.55576 2.48492 0
M  V30 9084 H 874.363 3.68049 4.11393 0
M  V30 9085 H 876.839 1.7868 3.75783 0
M  V30 9086 H 875.715 1.94825 5.13161 0
M  V30 9087 H 875.976 0.370252 4.40547 0
M  V30 9088 N 875.035 -1.20752 1.01276 0
M  V30 9089 C 876.281 -1.90302 0.700924 0
M  V30 9090 C 876.614 -1.78406 -0.767142 0
M  V30 9091 O 875.889 -1.16575 -1.55694 0
M  V30 9092 C 876.172 -3.41831 1.13242 0
M  V30 9093 C 876.025 -3.6268 2.66051 0
M  V30 9094 C 877.344 -4.34486 0.700738 0
M  V30 9095 H 874.463 -0.69107 0.256107 0
M  V30 9096 H 877.105 -1.42227 1.25982 0
M  V30 9097 H 875.255 -3.82906 0.656902 0
M  V30 9098 H 876.927 -3.30882 3.21426 0
M  V30 9099 H 875.17 -3.06281 3.07204 0
M  V30 9100 H 875.841 -4.68882 2.91296 0
M  V30 9101 H 878.317 -4.01036 1.10948 0
M  V30 9102 H 877.193 -5.39136 1.03073 0
M  V30 9103 H 877.454 -4.40307 -0.39778 0
M  V30 9104 N 876.513 -0.788492 -1.36457 0
M  V30 9105 C 877.761 -0.359749 -1.98872 0
M  V30 9106 C 878.082 1.07197 -1.62892 0
M  V30 9107 O 877.352 1.73875 -0.902463 0
M  V30 9108 H 875.932 -0.130029 -0.735596 0
M  V30 9109 H 878.594 -1.01033 -1.66668 0
M  V30 9110 H 877.69 -0.450835 -3.08827 0
M  V30 9111 N 877.991 1.48044 -0.54043 0
M  V30 9112 C 878.921 2.32597 0.205178 0
M  V30 9113 C 879.902 1.42748 0.925041 0
M  V30 9114 O 881.087 1.71624 0.908784 0
M  V30 9115 C 878.217 3.24175 1.24612 0
M  V30 9116 C 877.171 4.23131 0.64376 0
M  V30 9117 C 876.497 5.03915 1.78812 0
M  V30 9118 C 877.797 5.20831 -0.39144 0
M  V30 9119 H 879.491 2.95184 -0.500676 0
M  V30 9120 H 877.037 1.41948 -0.242225 0
M  V30 9121 H 878.99 3.82158 1.77576 0
M  V30 9122 H 877.714 2.59608 1.98169 0
M  V30 9123 H 876.373 3.66349 0.135554 0
M  V30 9124 H 876.021 4.35765 2.51232 0
M  V30 9125 H 875.721 5.709 1.39094 0
M  V30 9126 H 877.245 5.64753 2.32134 0
M  V30 9127 H 878.659 5.73277 0.0515064 0
M  V30 9128 H 877.056 5.95926 -0.706569 0
M  V30 9129 H 878.126 4.6733 -1.29345 0
M  V30 9130 N 879.47 0.276058 1.55163 0
M  V30 9131 C 880.718 -0.339782 1.99223 0
M  V30 9132 C 881.039 -1.56307 1.16589 0
M  V30 9133 O 880.309 -1.94225 0.25564 0
M  V30 9134 H 878.889 -0.128534 0.735859 0
M  V30 9135 H 881.551 0.381612 1.91128 0
M  V30 9136 H 880.647 -0.629 3.05696 0
M  V30 9137 N 880.948 -1.576 0.00335426 0
M  V30 9138 C 882.359 -1.7875 -0.539008 0
M  V30 9139 C 882.71 -0.911097 -1.73763 0
M  V30 9140 O 881.835 -0.114476 -2.16097 0
M  V30 9141 C 882.43 -3.24177 -0.984611 0
M  V30 9142 C 880.989 -3.46412 -1.47226 0
M  V30 9143 C 880.136 -2.74024 -0.425004 0
M  V30 9144 H 883.087 -1.57032 0.229511 0
M  V30 9145 H 883.108 -3.32474 -1.85044 0
M  V30 9146 H 882.62 -3.87938 -0.112035 0
M  V30 9147 H 880.721 -2.8787 -2.36562 0
M  V30 9148 H 880.834 -4.55098 -1.49741 0
M  V30 9149 H 879.198 -2.38741 -0.887394 0
M  V30 9150 H 879.981 -3.40486 0.438662 0
M  V30 9151 N 882.426 0.269451 -1.5528 0
M  V30 9152 C 883.837 0.840233 -1.66724 0
M  V30 9153 C 884.188 1.86909 -0.596621 0
M  V30 9154 O 883.313 2.14817 0.261246 0
M  V30 9155 C 883.908 1.5308 -3.02245 0
M  V30 9156 C 882.467 2.04957 -3.15705 0
M  V30 9157 C 881.614 0.892838 -2.62533 0
M  V30 9158 H 884.565 0.0457236 -1.58634 0
M  V30 9159 H 884.586 2.39792 -2.95432 0
M  V30 9160 H 884.098 0.781741 -3.80145 0
M  V30 9161 H 882.199 2.82813 -2.42585 0
M  V30 9162 H 882.312 2.26244 -4.22316 0
M  V30 9163 H 880.676 1.28719 -2.19781 0
M  V30 9164 H 881.459 0.157229 -3.4294 0
M  V30 9165 N 883.904 1.48273 0.534124 0
M  V30 9166 C 885.152 1.55771 1.28762 0
M  V30 9167 C 885.473 0.231575 1.9362 0
M  V30 9168 O 884.743 -0.746533 1.81118 0
M  V30 9169 H 883.323 0.573851 0.47823 0
M  V30 9170 H 885.985 1.84712 0.621888 0
M  V30 9171 H 885.081 2.33657 2.06908 0
M  V30 9172 N 885.382 -0.782676 1.36792 0
M  V30 9173 C 886.292 -1.92679 1.33835 0
M  V30 9174 C 887.308 -1.72344 0.23952 0
M  V30 9175 O 888.484 -1.95766 0.473045 0
M  V30 9176 C 885.549 -3.27644 1.1336 0
M  V30 9177 C 884.61 -3.6071 2.32781 0
M  V30 9178 C 883.843 -4.89234 2.13273 0
M  V30 9179 O 884.066 -5.59468 1.11136 0
M  V30 9180 O 883 -5.21112 3.01208 0
M  V30 9181 H 886.826 -1.98124 2.30175 0
M  V30 9182 H 884.411 -0.923887 1.17408 0
M  V30 9183 H 886.293 -4.08394 1.03886 0
M  V30 9184 H 884.968 -3.23076 0.200868 0
M  V30 9185 H 883.875 -2.80238 2.47825 0
M  V30 9186 H 885.208 -3.70008 3.24584 0
M  V30 9187 N 886.86 -1.21182 -1.00761 0
M  V30 9188 C 887.823 -0.970339 -2.07646 0
M  V30 9189 C 888.823 0.0576345 -1.60697 0
M  V30 9190 O 890.013 -0.179369 -1.73274 0
M  V30 9191 C 887.145 -0.462703 -3.37745 0
M  V30 9192 H 888.338 -1.91856 -2.30502 0
M  V30 9193 H 885.891 -1.02844 -1.17698 0
M  V30 9194 H 886.626 0.490559 -3.20568 0
M  V30 9195 H 886.411 -1.20416 -3.73152 0
M  V30 9196 H 887.901 -0.313531 -4.16421 0
M  V30 9197 N 888.338 1.20213 -1.01915 0
M  V30 9198 C 889.586 1.89272 -0.708552 0
M  V30 9199 C 889.907 1.79394 0.76438 0
M  V30 9200 O 889.177 1.198 1.54999 0
M  V30 9201 H 887.757 0.700628 -0.259094 0
M  V30 9202 H 890.419 1.45985 -1.29129 0
M  V30 9203 H 889.515 2.95841 -0.994215 0
M  V30 9204 N 889.816 0.795718 1.36037 0
M  V30 9205 C 891.046 0.382597 2.03026 0
M  V30 9206 C 891.454 -1.00779 1.60126 0
M  V30 9207 O 890.797 -1.65884 0.78919 0
M  V30 9208 C 890.859 0.374145 3.57548 0
M  V30 9209 C 890.523 1.71318 4.23673 0
M  V30 9210 C 891.52 2.6697 4.4612 0
M  V30 9211 C 889.205 1.99421 4.61017 0
M  V30 9212 C 891.199 3.88916 5.04998 0
M  V30 9213 C 888.886 3.21632 5.19611 0
M  V30 9214 C 889.884 4.16198 5.41542 0
M  V30 9215 O 889.572 5.36254 5.98905 0
M  V30 9216 H 889.304 0.154944 0.658003 0
M  V30 9217 H 891.858 1.07756 1.74865 0
M  V30 9218 H 890.088 -0.377349 3.84854 0
M  V30 9219 H 891.777 -0.01517 4.05897 0
M  V30 9220 H 892.543 2.46548 4.17659 0
M  V30 9221 H 888.422 1.2663 4.43267 0
M  V30 9222 H 891.966 4.6274 5.22032 0
M  V30 9223 H 887.863 3.4193 5.47498 0
M  V30 9224 H 888.631 5.37403 6.17366 0
M  V30 9225 N 891.294 -1.47756 0.548274 0
M  V30 9226 C 892.241 -2.29893 -0.204408 0
M  V30 9227 C 893.211 -1.38509 -0.916761 0
M  V30 9228 O 894.396 -1.67472 -0.91421 0
M  V30 9229 C 891.536 -3.22282 -1.23403 0
M  V30 9230 C 890.649 -4.28753 -0.528654 0
M  V30 9231 C 889.784 -5.08303 -1.54279 0
M  V30 9232 C 888.823 -6.06557 -0.821893 0
M  V30 9233 N 887.96 -6.79098 -1.78243 0
M  V30 9234 H 892.8 -2.93739 0.502163 0
M  V30 9235 H 890.337 -1.44793 0.259471 0
M  V30 9236 H 892.295 -3.74262 -1.84348 0
M  V30 9237 H 890.925 -2.6032 -1.90875 0
M  V30 9238 H 889.977 -3.79899 0.195132 0
M  V30 9239 H 891.289 -4.98787 0.0365066 0
M  V30 9240 H 890.443 -5.64388 -2.22602 0
M  V30 9241 H 889.182 -4.3815 -2.14186 0
M  V30 9242 H 888.187 -5.49659 -0.12469 0
M  V30 9243 H 889.412 -6.78715 -0.228685 0
M  V30 9244 H 887.358 -6.11682 -2.37025 0
M  V30 9245 H 887.275 -7.4527 -1.26919 0
M  V30 9246 H 888.543 -7.39762 -2.45709 0
M  V30 9247 N 892.772 -0.284283 -1.55015 0
M  V30 9248 C 893.735 0.586182 -2.21577 0
M  V30 9249 C 894.735 1.07427 -1.1965 0
M  V30 9250 O 895.925 0.972977 -1.44495 0
M  V30 9251 C 893.057 1.80973 -2.88897 0
M  V30 9252 H 894.25 0.00487253 -2.999 0
M  V30 9253 H 891.803 -0.0349696 -1.56261 0
M  V30 9254 H 892.538 2.43131 -2.14611 0
M  V30 9255 H 892.323 1.46757 -3.636 0
M  V30 9256 H 893.813 2.42853 -3.39724 0
M  V30 9257 N 894.251 1.57596 -0.0117121 0
M  V30 9258 C 895.498 1.91071 0.670667 0
M  V30 9259 C 895.826 0.886457 1.73125 0
M  V30 9260 O 895.081 -0.107135 1.95407 0
M  V30 9261 C 895.38 3.31296 1.34082 0
M  V30 9262 C 895.046 4.49011 0.412305 0
M  V30 9263 C 893.708 4.80945 0.156691 0
M  V30 9264 C 896.06 5.20709 -0.226294 0
M  V30 9265 C 893.388 5.81943 -0.745619 0
M  V30 9266 C 895.74 6.22668 -1.11655 0
M  V30 9267 C 894.404 6.53053 -1.38123 0
M  V30 9268 H 893.674 0.69918 0.245415 0
M  V30 9269 H 896.321 1.91373 -0.0697511 0
M  V30 9270 H 894.626 3.27174 2.15557 0
M  V30 9271 H 896.323 3.54461 1.87506 0
M  V30 9272 H 892.913 4.24067 0.621705 0
M  V30 9273 H 897.097 4.96282 -0.0418456 0
M  V30 9274 H 892.353 6.03839 -0.958566 0
M  V30 9275 H 896.527 6.77351 -1.61767 0
M  V30 9276 H 894.154 7.31132 -2.08208 0
M  V30 9277 N 895.729 -0.261212 1.5542 0
M  V30 9278 C 896.954 -1.01341 1.80955 0
M  V30 9279 C 897.379 -1.78711 0.586849 0
M  V30 9280 O 896.737 -1.75266 -0.463837 0
M  V30 9281 C 896.785 -1.93835 3.04073 0
M  V30 9282 O 895.889 -3.02791 2.79985 0
M  V30 9283 H 895.23 -0.289123 0.597749 0
M  V30 9284 H 897.76 -0.286543 2.02584 0
M  V30 9285 H 897.77 -2.3557 3.33123 0
M  V30 9286 H 896.445 -1.36936 3.9271 0
M  V30 9287 H 895.022 -2.65287 2.62063 0
M  V30 9288 N 897.207 -1.48554 -0.526253 0
M  V30 9289 C 898.432 -1.60686 -1.31129 0
M  V30 9290 C 898.857 -0.268701 -1.86171 0
M  V30 9291 O 898.215 0.760167 -1.64594 0
M  V30 9292 C 898.263 -2.65938 -2.43536 0
M  V30 9293 O 897.367 -2.23356 -3.46678 0
M  V30 9294 H 896.708 -0.538691 -0.388211 0
M  V30 9295 H 899.238 -1.94567 -0.632826 0
M  V30 9296 H 899.248 -2.87327 -2.89668 0
M  V30 9297 H 897.923 -3.63085 -2.02835 0
M  V30 9298 H 896.5 -2.12196 -3.06639 0
M  V30 9299 N 898.685 0.775411 -1.37205 0
M  V30 9300 C 899.615 1.90258 -1.35367 0
M  V30 9301 C 900.596 1.68634 -0.222864 0
M  V30 9302 O 901.781 1.89545 -0.422659 0
M  V30 9303 C 898.911 3.27488 -1.15623 0
M  V30 9304 C 897.865 3.63668 -2.25676 0
M  V30 9305 C 897.191 4.994 -1.91059 0
M  V30 9306 C 898.491 3.70797 -3.67841 0
M  V30 9307 H 900.185 1.92053 -2.29687 0
M  V30 9308 H 897.731 0.922597 -1.10563 0
M  V30 9309 H 899.684 4.05976 -1.12968 0
M  V30 9310 H 898.408 3.26117 -0.177573 0
M  V30 9311 H 897.067 2.87486 -2.2748 0
M  V30 9312 H 896.715 4.94565 -0.917324 0
M  V30 9313 H 896.415 5.24576 -2.64751 0
M  V30 9314 H 897.939 5.80291 -1.89985 0
M  V30 9315 H 899.353 4.39444 -3.68187 0
M  V30 9316 H 897.75 4.07468 -4.40556 0
M  V30 9317 H 898.82 2.71549 -4.01732 0
M  V30 9318 N 900.163 1.21714 1.00117 0
M  V30 9319 C 901.093 1.00397 2.10815 0
M  V30 9320 C 902.074 -0.0723502 1.69946 0
M  V30 9321 O 903.259 0.0882398 1.93999 0
M  V30 9322 C 900.389 0.572001 3.42557 0
M  V30 9323 C 899.343 1.59331 3.97237 0
M  V30 9324 C 898.669 1.01746 5.2493 0
M  V30 9325 C 899.969 2.98117 4.28863 0
M  V30 9326 H 901.663 1.92983 2.28906 0
M  V30 9327 H 899.209 0.929273 1.10002 0
M  V30 9328 H 901.162 0.410018 4.19401 0
M  V30 9329 H 899.886 -0.38951 3.24269 0
M  V30 9330 H 898.545 1.74293 3.22518 0
M  V30 9331 H 898.193 0.0475491 5.02978 0
M  V30 9332 H 897.893 1.69969 5.62481 0
M  V30 9333 H 899.417 0.866881 6.04415 0
M  V30 9334 H 900.831 2.86578 4.96534 0
M  V30 9335 H 899.228 3.63389 4.77565 0
M  V30 9336 H 900.298 3.48674 3.36979 0
M  V30 9337 N 901.641 -1.19671 1.02551 0
M  V30 9338 C 902.604 -2.20987 0.608055 0
M  V30 9339 C 903.604 -1.5745 -0.326534 0
M  V30 9340 O 904.794 -1.73827 -0.114003 0
M  V30 9341 C 901.926 -3.4072 -0.11074 0
M  V30 9342 H 903.119 -2.59434 1.50446 0
M  V30 9343 H 900.672 -1.3329 0.816307 0
M  V30 9344 H 901.407 -3.07787 -1.02165 0
M  V30 9345 H 901.192 -3.88069 0.560772 0
M  V30 9346 H 902.682 -4.15776 -0.389848 0
M  V30 9347 N 903.119 -0.802921 -1.35613 0
M  V30 9348 C 904.344 -0.392846 -2.03645 0
M  V30 9349 C 904.769 0.987075 -1.6012 0
M  V30 9350 O 904.127 1.63849 -0.776101 0
M  V30 9351 C 904.175 -0.480208 -3.57388 0
M  V30 9352 O 903.279 0.507751 -4.09262 0
M  V30 9353 H 902.62 -0.16464 -0.643265 0
M  V30 9354 H 905.15 -1.08779 -1.73287 0
M  V30 9355 H 905.16 -0.348683 -4.06507 0
M  V30 9356 H 903.835 -1.48675 -3.88418 0
M  V30 9357 H 902.412 0.336769 -3.71376 0
M  V30 9358 N 904.597 1.47463 -0.556102 0
M  V30 9359 C 905.822 2.07371 -0.0344729 0
M  V30 9360 C 906.247 1.40621 1.2493 0
M  V30 9361 O 905.605 0.48082 1.74808 0
M  V30 9362 C 905.653 3.60306 0.145563 0
M  V30 9363 O 904.757 3.94299 1.20839 0
M  V30 9364 H 904.098 0.662052 -0.0508274 0
M  V30 9365 H 906.628 1.89498 -0.771469 0
M  V30 9366 H 906.638 4.06408 0.360112 0
M  V30 9367 H 905.313 4.08288 -0.792089 0
M  V30 9368 H 903.89 3.59944 0.97442 0
M  V30 9369 N 906.075 0.2925 1.54862 0
M  V30 9370 C 907.038 -0.574423 2.21885 0
M  V30 9371 C 908.038 -1.06791 1.20218 0
M  V30 9372 O 909.228 -0.9653 1.45009 0
M  V30 9373 C 906.36 -1.79438 2.89853 0
M  V30 9374 H 907.553 0.0110319 2.99898 0
M  V30 9375 H 905.106 0.043256 1.5624 0
M  V30 9376 H 905.841 -2.4199 2.15897 0
M  V30 9377 H 905.626 -1.44827 3.64373 0
M  V30 9378 H 907.116 -2.41048 3.41007 0
M  V30 9379 N 907.553 -1.57587 0.0200696 0
M  V30 9380 C 908.799 -1.91708 -0.661503 0
M  V30 9381 C 909.132 -0.895968 -1.72296 0
M  V30 9382 O 908.407 0.082577 -1.94325 0
M  V30 9383 C 908.69 -3.36344 -1.28627 0
M  V30 9384 C 908.543 -4.49186 -0.234982 0
M  V30 9385 C 909.862 -3.80771 -2.20685 0
M  V30 9386 H 906.981 -0.69717 -0.239005 0
M  V30 9387 H 909.623 -1.8985 0.0754764 0
M  V30 9388 H 907.773 -3.38058 -1.91439 0
M  V30 9389 H 909.445 -4.59606 0.395011 0
M  V30 9390 H 907.688 -4.31557 0.440565 0
M  V30 9391 H 908.359 -5.47395 -0.711558 0
M  V30 9392 H 910.835 -3.80735 -1.67868 0
M  V30 9393 H 909.711 -4.82685 -2.61356 0
M  V30 9394 H 909.972 -3.15764 -3.09428 0
M  V30 9395 N 909.032 0.252966 -1.55557 0
M  V30 9396 C 910.257 1.0038 -1.8149 0
M  V30 9397 C 910.682 1.78397 -0.596318 0
M  V30 9398 O 910.04 1.7551 0.454535 0
M  V30 9399 C 910.088 1.9222 -3.05096 0
M  V30 9400 O 909.192 3.01302 -2.81587 0
M  V30 9401 H 908.533 0.285949 -0.599274 0
M  V30 9402 H 911.063 0.275795 -2.02733 0
M  V30 9403 H 911.073 2.338 -3.34368 0
M  V30 9404 H 909.748 1.34852 -3.93431 0
M  V30 9405 H 908.325 2.63894 -2.63466 0
M  V30 9406 N 910.51 1.48831 0.518367 0
M  V30 9407 C 911.921 1.50842 1.10016 0
M  V30 9408 C 912.272 0.284744 1.94123 0
M  V30 9409 O 911.397 -0.607088 2.0771 0
M  V30 9410 C 911.992 2.73329 2.00191 0
M  V30 9411 C 910.551 2.78175 2.53566 0
M  V30 9412 C 909.698 2.4452 1.30786 0
M  V30 9413 H 912.649 1.55779 0.303073 0
M  V30 9414 H 912.67 2.52506 2.84642 0
M  V30 9415 H 912.182 3.62374 1.3895 0
M  V30 9416 H 910.283 1.93368 3.18496 0
M  V30 9417 H 910.396 3.79905 2.91906 0
M  V30 9418 H 908.76 1.95924 1.62744 0
M  V30 9419 H 909.543 3.35819 0.712797 0
M  V30 9420 N 911.988 -0.768124 1.37614 0
M  V30 9421 C 912.898 -1.91249 1.35871 0
M  V30 9422 C 913.914 -1.7208 0.257786 0
M  V30 9423 O 915.09 -1.95253 0.493782 0
M  V30 9424 C 912.155 -3.26423 1.16829 0
M  V30 9425 C 911.216 -3.5822 2.36594 0
M  V30 9426 C 910.449 -4.86945 2.1845 0
M  V30 9427 O 910.672 -5.58258 1.17064 0
M  V30 9428 O 909.606 -5.17888 3.06718 0
M  V30 9429 H 913.432 -1.95671 2.32264 0
M  V30 9430 H 911.017 -0.911382 1.18382 0
M  V30 9431 H 912.899 -4.07269 1.08212 0
M  V30 9432 H 911.574 -3.22845 0.235123 0
M  V30 9433 H 910.481 -2.77594 2.50783 0
M  V30 9434 H 911.814 -3.66545 3.2849 0
M  V30 9435 N 913.466 -1.22244 -0.994698 0
M  V30 9436 C 914.413 -0.990906 -2.08446 0
M  V30 9437 C 915.383 0.086737 -1.65873 0
M  V30 9438 O 916.568 -0.0624882 -1.90698 0
M  V30 9439 C 913.708 -0.572813 -3.40313 0
M  V30 9440 C 912.821 -1.72103 -3.96238 0
M  V30 9441 C 911.956 -1.2511 -5.16257 0
M  V30 9442 C 910.995 -2.37098 -5.64315 0
M  V30 9443 N 910.132 -1.91164 -6.75574 0
M  V30 9444 H 914.972 -1.92377 -2.27585 0
M  V30 9445 H 912.509 -0.958576 -1.11578 0
M  V30 9446 H 914.467 -0.311594 -4.16035 0
M  V30 9447 H 913.097 0.323044 -3.21179 0
M  V30 9448 H 912.149 -2.09662 -3.17405 0
M  V30 9449 H 913.461 -2.56347 -4.27888 0
M  V30 9450 H 912.615 -0.947152 -5.99261 0
M  V30 9451 H 911.354 -0.378836 -4.86226 0
M  V30 9452 H 910.359 -2.68283 -4.799 0
M  V30 9453 H 911.584 -3.24837 -5.96371 0
M  V30 9454 H 909.53 -1.06298 -6.47331 0
M  V30 9455 H 909.447 -2.68975 -7.06533 0
M  V30 9456 H 910.715 -1.63833 -7.62088 0
M  V30 9457 N 914.944 1.19125 -1.03184 0
M  V30 9458 C 916.184 1.90582 -0.738785 0
M  V30 9459 C 916.548 1.78004 0.719627 0
M  V30 9460 O 917.749 2.44084 1.12589 0
M  V30 9461 C 916.02 3.37319 -1.18114 0
M  V30 9462 S 917.579 4.26962 -1.01238 0
M  V30 9463 H 914.397 0.6582 -0.268875 0
M  V30 9464 H 916.999 1.43999 -1.32229 0
M  V30 9465 H 915.703 3.43999 -2.23814 0
M  V30 9466 H 915.234 3.88935 -0.591051 0
M  V30 9467 H 917.249 4.96143 0.0753558 0
M  V30 9468 N 916.422 0.810101 1.35185 0
M  V30 9469 C 917.67 0.391343 1.98275 0
M  V30 9470 C 917.991 -1.04592 1.64577 0
M  V30 9471 O 917.261 -1.72417 0.93001 0
M  V30 9472 H 915.841 0.141715 0.733434 0
M  V30 9473 H 918.503 1.03672 1.6504 0
M  V30 9474 H 917.599 0.49991 3.0807 0
M  V30 9475 N 917.9 -1.47166 0.563914 0
M  V30 9476 C 919.147 -2.02456 0.042371 0
M  V30 9477 C 919.475 -1.43753 -1.31016 0
M  V30 9478 O 918.73 -0.585287 -1.86743 0
M  V30 9479 C 919.029 -3.57279 -0.0931797 0
M  V30 9480 C 918.695 -4.34932 1.18933 0
M  V30 9481 C 917.357 -4.55867 1.54073 0
M  V30 9482 C 919.709 -4.79665 2.03889 0
M  V30 9483 C 917.037 -5.18785 2.74005 0
M  V30 9484 C 919.389 -5.43907 3.23029 0
M  V30 9485 C 918.053 -5.63074 3.58475 0
M  V30 9486 H 917.323 -0.740838 0.0155047 0
M  V30 9487 H 919.97 -1.76759 0.736776 0
M  V30 9488 H 918.275 -3.82005 -0.870596 0
M  V30 9489 H 919.972 -3.97716 -0.512176 0
M  V30 9490 H 916.562 -4.18921 0.905718 0
M  V30 9491 H 920.746 -4.63264 1.78046 0
M  V30 9492 H 916.002 -5.31818 3.01628 0
M  V30 9493 H 920.176 -5.77531 3.89141 0
M  V30 9494 H 917.803 -6.11598 4.515 0
M  V30 9495 N 919.378 -0.300708 -1.54705 0
M  V30 9496 C 920.626 0.308044 -1.99739 0
M  V30 9497 C 920.947 1.54433 -1.19061 0
M  V30 9498 O 920.217 1.93794 -0.286507 0
M  V30 9499 H 918.797 0.116811 -0.73781 0
M  V30 9500 H 921.459 -0.41197 -1.90496 0
M  V30 9501 H 920.555 0.580287 -3.06658 0
M  V30 9502 N 920.856 1.57574 -0.0284266 0
M  V30 9503 C 921.819 2.09096 0.938691 0
M  V30 9504 C 922.819 1.00588 1.25454 0
M  V30 9505 O 924.009 1.2675 1.19499 0
M  V30 9506 C 921.141 2.55624 2.25542 0
M  V30 9507 H 922.334 2.95829 0.49248 0
M  V30 9508 H 919.887 1.5475 0.219594 0
M  V30 9509 H 920.622 1.72218 2.74793 0
M  V30 9510 H 920.407 3.34896 2.03929 0
M  V30 9511 H 921.897 2.95712 2.94863 0
M  V30 9512 N 922.334 -0.244713 1.55689 0
M  V30 9513 C 923.559 -0.994157 1.8202 0
M  V30 9514 C 923.984 -1.78079 0.60577 0
M  V30 9515 O 923.342 -1.75748 -0.445221 0
M  V30 9516 C 923.39 -1.90599 3.06111 0
M  V30 9517 O 922.494 -2.99804 2.8318 0
M  V30 9518 H 921.835 -0.282767 0.600782 0
M  V30 9519 H 924.365 -0.26504 2.02876 0
M  V30 9520 H 924.375 -2.32023 3.35603 0
M  V30 9521 H 923.05 -1.32763 3.9414 0
M  V30 9522 H 921.627 -2.62493 2.64862 0
M  V30 9523 N 923.813 -1.49104 -0.510467 0
M  V30 9524 C 925.038 -1.62068 -1.29417 0
M  V30 9525 C 925.463 -0.288432 -1.85875 0
M  V30 9526 O 924.821 0.742667 -1.65391 0
M  V30 9527 C 924.869 -2.68506 -2.40701 0
M  V30 9528 O 923.973 -2.27021 -3.4429 0
M  V30 9529 H 923.314 -0.542778 -0.382476 0
M  V30 9530 H 925.844 -1.95228 -0.612154 0
M  V30 9531 H 925.854 -2.90383 -2.86604 0
M  V30 9532 H 924.529 -3.65216 -1.98973 0
M  V30 9533 H 923.106 -2.15436 -3.04371 0
M  V30 9534 N 925.291 0.760815 -1.38019 0
M  V30 9535 C 926.539 1.51673 -1.33566 0
M  V30 9536 C 926.86 1.94852 0.076024 0
M  V30 9537 O 926.13 1.67112 1.02227 0
M  V30 9538 H 924.71 0.562581 -0.491438 0
M  V30 9539 H 927.372 0.904832 -1.72623 0
M  V30 9540 H 926.468 2.41102 -1.98182 0
M  V30 9541 N 926.769 1.22769 0.988202 0
M  V30 9542 C 927.679 1.01844 2.11341 0
M  V30 9543 C 928.695 -0.0346937 1.73965 0
M  V30 9544 O 929.871 0.159061 2.00771 0
M  V30 9545 C 926.936 0.603837 3.41401 0
M  V30 9546 C 925.997 1.73113 3.92849 0
M  V30 9547 C 925.23 1.33621 5.16702 0
M  V30 9548 O 925.453 0.217041 5.69987 0
M  V30 9549 O 924.387 2.15444 5.62021 0
M  V30 9550 H 928.213 1.96127 2.31879 0
M  V30 9551 H 925.798 1.01405 1.09715 0
M  V30 9552 H 927.68 0.383196 4.19654 0
M  V30 9553 H 926.355 -0.310082 3.22211 0
M  V30 9554 H 925.262 2.00634 3.15748 0
M  V30 9555 H 926.595 2.62308 4.1648 0
M  V30 9556 N 928.247 -1.18576 1.03814 0
M  V30 9557 C 929.157 -2.25778 0.637311 0
M  V30 9558 C 930.173 -1.7074 -0.335248 0
M  V30 9559 O 931.349 -2.00494 -0.19081 0
M  V30 9560 C 928.414 -3.467 0.00386953 0
M  V30 9561 C 927.475 -4.16881 1.02511 0
M  V30 9562 C 926.708 -5.32031 0.421802 0
M  V30 9563 O 926.931 -5.65142 -0.772699 0
M  V30 9564 O 925.865 -5.90826 1.14925 0
M  V30 9565 H 929.691 -2.62323 1.53037 0
M  V30 9566 H 927.276 -1.25609 0.80887 0
M  V30 9567 H 929.158 -4.19953 -0.348873 0
M  V30 9568 H 927.833 -3.11983 -0.863047 0
M  V30 9569 H 926.74 -3.45707 1.4296 0
M  V30 9570 H 928.073 -4.55592 1.86271 0
M  V30 9571 N 929.725 -0.817259 -1.34754 0
M  V30 9572 C 930.973 -0.401852 -1.98065 0
M  V30 9573 C 931.294 1.03718 -1.65129 0
M  V30 9574 O 930.564 1.71921 -0.939141 0
M  V30 9575 H 929.144 -0.145603 -0.732672 0
M  V30 9576 H 931.806 -1.04545 -1.64488 0
M  V30 9577 H 930.902 -0.516241 -3.07801 0
M  V30 9578 N 931.203 1.46865 -0.571711 0
M  V30 9579 C 932.433 2.06518 -0.0583129 0
M  V30 9580 C 932.841 1.4227 1.24723 0
M  V30 9581 O 932.184 0.518293 1.76237 0
M  V30 9582 C 932.246 3.5898 0.193214 0
M  V30 9583 C 931.91 4.45355 -1.02507 0
M  V30 9584 C 932.907 4.82575 -1.93435 0
M  V30 9585 C 930.592 4.86656 -1.24382 0
M  V30 9586 C 932.586 5.59912 -3.04595 0
M  V30 9587 C 930.273 5.63754 -2.35849 0
M  V30 9588 C 931.271 6.00294 -3.25785 0
M  V30 9589 O 930.959 6.75836 -4.35318 0
M  V30 9590 H 930.691 0.674188 -0.0494584 0
M  V30 9591 H 933.245 1.89644 -0.788934 0
M  V30 9592 H 931.475 3.7412 0.978319 0
M  V30 9593 H 933.164 4.006 0.653769 0
M  V30 9594 H 933.93 4.51256 -1.77745 0
M  V30 9595 H 929.809 4.57672 -0.55292 0
M  V30 9596 H 933.353 5.88351 -3.74818 0
M  V30 9597 H 929.25 5.94487 -2.51506 0
M  V30 9598 H 930.018 6.94247 -4.33547 0
M  V30 9599 N 932.681 0.308908 1.54543 0
M  V30 9600 C 933.628 -0.563659 2.23811 0
M  V30 9601 C 934.598 -1.12332 1.22355 0
M  V30 9602 O 935.783 -1.16638 1.50997 0
M  V30 9603 C 932.923 -1.72585 2.98845 0
M  V30 9604 C 932.036 -1.19682 4.1509 0
M  V30 9605 C 931.171 -2.32351 4.77688 0
M  V30 9606 C 930.21 -1.76623 5.86064 0
M  V30 9607 N 929.347 -2.82896 6.42584 0
M  V30 9608 H 934.187 0.0336288 2.97981 0
M  V30 9609 H 931.724 0.0283666 1.47073 0
M  V30 9610 H 933.682 -2.40951 3.40586 0
M  V30 9611 H 932.312 -2.29464 2.27037 0
M  V30 9612 H 931.364 -0.405173 3.78236 0
M  V30 9613 H 932.676 -0.748923 4.93146 0
M  V30 9614 H 931.83 -3.0865 5.22322 0
M  V30 9615 H 930.569 -2.80472 3.98982 0
M  V30 9616 H 929.574 -0.988171 5.40847 0
M  V30 9617 H 930.799 -1.29398 6.66658 0
M  V30 9618 H 928.745 -3.30336 5.66758 0
M  V30 9619 H 928.662 -2.42626 7.16009 0
M  V30 9620 H 929.93 -3.59068 6.91875 0
M  V30 9621 N 934.159 -1.57557 0.0367827 0
M  V30 9622 C 935.57 -1.79853 -0.500971 0
M  V30 9623 C 935.921 -0.947749 -1.71791 0
M  V30 9624 O 935.046 -0.160287 -2.15806 0
M  V30 9625 C 935.641 -3.26193 -0.915626 0
M  V30 9626 C 934.2 -3.49457 -1.39845 0
M  V30 9627 C 933.347 -2.74864 -0.366784 0
M  V30 9628 H 936.298 -1.56509 0.262768 0
M  V30 9629 H 936.319 -3.36324 -1.7795 0
M  V30 9630 H 935.831 -3.88089 -0.0297227 0
M  V30 9631 H 933.932 -2.92823 -2.30402 0
M  V30 9632 H 934.045 -4.58172 -1.40054 0
M  V30 9633 H 932.409 -2.4057 -0.836554 0
M  V30 9634 H 933.192 -3.39479 0.510785 0
M  V30 9635 N 935.637 0.236453 -1.55816 0
M  V30 9636 C 936.884 0.963012 -1.78136 0
M  V30 9637 C 937.212 1.84918 -0.602952 0
M  V30 9638 O 936.467 1.91285 0.413325 0
M  V30 9639 C 936.766 1.84549 -3.06066 0
M  V30 9640 C 936.432 1.11381 -4.36927 0
M  V30 9641 C 935.094 0.911635 -4.72486 0
M  V30 9642 C 937.446 0.596 -5.17781 0
M  V30 9643 C 934.774 0.179515 -5.86425 0
M  V30 9644 C 937.126 -0.122702 -6.32481 0
M  V30 9645 C 935.79 -0.336263 -6.66652 0
M  V30 9646 H 935.06 0.352391 -0.651845 0
M  V30 9647 H 937.707 0.232295 -1.90086 0
M  V30 9648 H 936.012 2.6436 -2.89173 0
M  V30 9649 H 937.709 2.40953 -3.20535 0
M  V30 9650 H 934.299 1.28134 -4.08998 0
M  V30 9651 H 938.483 0.73971 -4.90757 0
M  V30 9652 H 933.739 0.00368224 -6.114 0
M  V30 9653 H 937.913 -0.531516 -6.94369 0
M  V30 9654 H 935.54 -0.905507 -7.54788 0
M  V30 9655 N 937.115 1.49373 0.502552 0
M  V30 9656 C 938.047 1.62045 1.62093 0
M  V30 9657 C 939.06 0.503221 1.54827 0
M  V30 9658 O 940.249 0.775208 1.60788 0
M  V30 9659 C 937.349 1.55971 3.00876 0
M  V30 9660 C 936.522 2.832 3.33341 0
M  V30 9661 C 935.581 2.702 4.51529 0
M  V30 9662 O 934.607 3.44132 4.53389 0
M  V30 9663 N 935.809 1.81642 5.5135 0
M  V30 9664 H 938.574 2.58501 1.51649 0
M  V30 9665 H 936.135 1.46442 0.690396 0
M  V30 9666 H 938.127 1.4493 3.77859 0
M  V30 9667 H 936.697 0.673795 3.05252 0
M  V30 9668 H 935.917 3.08604 2.4527 0
M  V30 9669 H 937.205 3.67551 3.51829 0
M  V30 9670 H 936.603 1.20829 5.52645 0
M  V30 9671 H 935.16 1.76524 6.27441 0
M  V30 9672 N 938.594 -0.753485 1.38421 0
M  V30 9673 C 939.871 -1.50318 1.25155 0
M  V30 9674 C 940.251 -2.10588 -0.147003 0
M  V30 9675 O 939.599 -1.97071 -1.15651 0
M  V30 9676 C 939.809 -2.56946 2.36177 0
M  V30 9677 C 941.157 -3.23846 2.74607 0
M  V30 9678 O 942.181 -2.67251 2.3549 0
M  V30 9679 O 941.04 -4.2621 3.42064 0
M  V30 9680 H 938.134 -0.666624 0.48943 0
M  V30 9681 H 940.68 -0.788887 1.50249 0
M  V30 9682 H 939.452 -2.1066 3.29754 0
M  V30 9683 H 939.075 -3.35956 2.12648 0
M  V30 9684 N 940.072 -1.23292 -0.981677 0
M  V30 9685 C 941.002 -1.03738 -2.09191 0
M  V30 9686 C 941.983 0.0453041 -1.7004 0
M  V30 9687 O 943.168 -0.119092 -1.93834 0
M  V30 9688 C 940.298 -0.626426 -3.41604 0
M  V30 9689 C 939.252 -1.65631 -3.94652 0
M  V30 9690 C 938.578 -1.10084 -5.23245 0
M  V30 9691 C 939.878 -3.04903 -4.24066 0
M  V30 9692 H 941.572 -1.966 -2.25807 0
M  V30 9693 H 939.118 -0.946656 -1.0851 0
M  V30 9694 H 941.071 -0.476689 -4.18695 0
M  V30 9695 H 939.795 0.337873 -3.24848 0
M  V30 9696 H 938.454 -1.79402 -3.19704 0
M  V30 9697 H 938.102 -0.127562 -5.02838 0
M  V30 9698 H 937.802 -1.78896 -5.59705 0
M  V30 9699 H 939.326 -0.962928 -6.02959 0
M  V30 9700 H 940.74 -2.94441 -4.91912 0
M  V30 9701 H 939.137 -3.70941 -4.71724 0
M  V30 9702 H 940.207 -3.53991 -3.31389 0
M  V30 9703 N 941.55 1.18024 -1.04442 0
M  V30 9704 C 942.799 1.8743 -0.745185 0
M  V30 9705 C 943.112 1.81459 0.730206 0
M  V30 9706 O 944.318 2.46263 1.1431 0
M  V30 9707 C 942.774 3.36266 -1.28271 0
M  V30 9708 C 942.382 3.50757 -2.787 0
M  V30 9709 C 944.126 4.11048 -1.06018 0
M  V30 9710 C 942.033 4.93573 -3.25791 0
M  V30 9711 H 940.963 0.702038 -0.27506 0
M  V30 9712 H 943.614 1.33333 -1.26073 0
M  V30 9713 H 941.996 3.89853 -0.695002 0
M  V30 9714 H 943.17 3.07423 -3.43261 0
M  V30 9715 H 941.485 2.89385 -2.99408 0
M  V30 9716 H 944.082 5.16395 -1.38711 0
M  V30 9717 H 944.425 4.163 0.00241716 0
M  V30 9718 H 944.958 3.63644 -1.61269 0
M  V30 9719 H 941.697 4.93491 -4.31447 0
M  V30 9720 H 941.217 5.37607 -2.65968 0
M  V30 9721 H 942.896 5.62307 -3.20031 0
M  V30 9722 N 943.028 0.824394 1.34319 0
M  V30 9723 C 944.439 0.471802 1.8064 0
M  V30 9724 C 944.79 -1.00793 1.6833 0
M  V30 9725 O 943.915 -1.78447 1.22416 0
M  V30 9726 C 944.51 0.849609 3.27974 0
M  V30 9727 C 943.069 0.549365 3.72369 0
M  V30 9728 C 942.216 1.06573 2.56003 0
M  V30 9729 H 945.167 1.01443 1.22045 0
M  V30 9730 H 945.188 0.153968 3.80188 0
M  V30 9731 H 944.7 1.92663 3.36902 0
M  V30 9732 H 942.801 -0.518182 3.68979 0
M  V30 9733 H 942.914 1.09446 4.66432 0
M  V30 9734 H 941.278 0.487214 2.49997 0
M  V30 9735 H 942.061 2.14923 2.677 0
M  V30 9736 N 944.506 -1.46559 0.579492 0
M  V30 9737 C 945.754 -2.02 0.0637157 0
M  V30 9738 C 946.075 -1.45378 -1.29962 0
M  V30 9739 O 945.345 -0.637262 -1.85245 0
M  V30 9740 H 943.925 -0.746717 0.0205638 0
M  V30 9741 H 946.587 -1.79702 0.754544 0
M  V30 9742 H 945.683 -3.12099 -0.00770254 0
M  V30 9743 N 945.984 -0.3171 -1.54377 0
M  V30 9744 C 947.224 0.288083 -2.0236 0
M  V30 9745 C 947.588 1.4985 -1.20038 0
M  V30 9746 O 948.789 2.17611 -1.57794 0
M  V30 9747 C 947.06 0.620192 -3.51978 0
M  V30 9748 S 948.619 1.20595 -4.21903 0
M  V30 9749 H 945.437 0.0875231 -0.705592 0
M  V30 9750 H 948.039 -0.448719 -1.90281 0
M  V30 9751 H 946.743 -0.268982 -4.09518 0
M  V30 9752 H 946.274 1.38736 -3.68125 0
M  V30 9753 H 948.289 2.49308 -4.29022 0
M  V30 9754 N 947.462 1.57535 -0.0451378 0
M  V30 9755 C 948.873 1.80116 0.491426 0
M  V30 9756 C 949.224 0.956846 1.71286 0
M  V30 9757 O 948.349 0.17173 2.15718 0
M  V30 9758 C 948.944 3.26674 0.898315 0
M  V30 9759 C 947.503 3.50194 1.37989 0
M  V30 9760 C 946.65 2.75054 0.352202 0
M  V30 9761 H 949.601 1.56368 -0.271065 0
M  V30 9762 H 949.622 3.37263 1.76164 0
M  V30 9763 H 949.134 3.88099 0.009141 0
M  V30 9764 H 947.235 2.94041 2.28846 0
M  V30 9765 H 947.348 4.58909 1.37622 0
M  V30 9766 H 945.712 2.4101 0.823784 0
M  V30 9767 H 946.495 3.39203 -0.528782 0
M  V30 9768 N 948.94 -0.228186 1.55939 0
M  V30 9769 C 950.188 -0.951668 1.78291 0
M  V30 9770 C 950.509 -1.85132 0.612474 0
M  V30 9771 O 949.779 -1.92356 -0.370942 0
M  V30 9772 H 948.359 -0.354388 0.657585 0
M  V30 9773 H 951.021 -0.241635 1.93396 0
M  V30 9774 H 950.117 -1.56239 2.70177 0
M  V30 9775 N 950.418 -1.49637 -0.494624 0
M  V30 9776 C 951.695 -1.4995 -1.25596 0
M  V30 9777 C 952.075 -0.230805 -2.09834 0
M  V30 9778 O 951.423 0.786625 -2.14533 0
M  V30 9779 C 951.633 -2.78204 -2.10721 0
M  V30 9780 C 952.981 -3.27946 -2.69698 0
M  V30 9781 O 954.005 -2.79365 -2.20984 0
M  V30 9782 O 952.864 -4.12571 -3.58395 0
M  V30 9783 H 949.958 -0.60044 -0.568684 0
M  V30 9784 H 952.504 -1.61906 -0.508371 0
M  V30 9785 H 951.276 -3.62029 -1.48494 0
M  V30 9786 H 950.899 -2.69139 -2.92661 0
M  V30 9787 N 951.896 0.746133 -1.38819 0
M  V30 9788 C 953.307 1.32384 -1.31648 0
M  V30 9789 C 953.658 1.96185 0.0243086 0
M  V30 9790 O 952.783 1.95567 0.92641 0
M  V30 9791 C 953.378 2.40712 -2.38418 0
M  V30 9792 C 951.937 2.94185 -2.34803 0
M  V30 9793 C 951.084 1.67639 -2.20891 0
M  V30 9794 H 954.035 0.544457 -1.49068 0
M  V30 9795 H 954.056 3.20833 -2.04564 0
M  V30 9796 H 953.568 1.94247 -3.3599 0
M  V30 9797 H 951.669 3.44959 -1.40834 0
M  V30 9798 H 951.782 3.48057 -3.29231 0
M  V30 9799 H 950.146 1.9155 -1.67871 0
M  V30 9800 H 950.929 1.23242 -3.20416 0
M  V30 9801 N 953.375 1.23811 0.975125 0
M  V30 9802 C 954.338 1.02505 2.05001 0
M  V30 9803 C 955.338 -0.0150084 1.60793 0
M  V30 9804 O 956.528 0.225246 1.72738 0
M  V30 9805 C 953.66 0.552087 3.364 0
M  V30 9806 H 954.853 1.979 2.25335 0
M  V30 9807 H 952.406 1.05929 1.1493 0
M  V30 9808 H 953.141 -0.405394 3.21756 0
M  V30 9809 H 952.926 1.30267 3.69828 0
M  V30 9810 H 954.416 0.423828 4.15444 0
M  V30 9811 N 954.853 -1.17469 1.05066 0
M  V30 9812 C 956.264 -1.69334 0.786304 0
M  V30 9813 C 956.615 -1.83604 -0.691671 0
M  V30 9814 O 955.74 -1.52269 -1.53763 0
M  V30 9815 C 956.335 -3.07572 1.42074 0
M  V30 9816 C 954.894 -3.56609 1.20446 0
M  V30 9817 C 954.041 -2.329 1.50508 0
M  V30 9818 H 956.992 -1.02003 1.21577 0
M  V30 9819 H 957.013 -3.71352 0.829334 0
M  V30 9820 H 956.525 -2.97154 2.49642 0
M  V30 9821 H 954.626 -3.72306 0.147968 0
M  V30 9822 H 954.739 -4.39446 1.90852 0
M  V30 9823 H 953.103 -2.37305 0.925124 0
M  V30 9824 H 953.886 -2.25093 2.59207 0
M  V30 9825 N 956.331 -0.831506 -1.3388 0
M  V30 9826 C 957.577 -0.424302 -1.98312 0
M  V30 9827 C 957.91 1.01211 -1.65741 0
M  V30 9828 O 957.185 1.70636 -0.933464 0
M  V30 9829 C 957.468 -0.636815 -3.54424 0
M  V30 9830 C 957.321 -2.11997 -3.96708 0
M  V30 9831 C 958.64 -0.0782411 -4.4003 0
M  V30 9832 H 955.759 -0.155637 -0.720379 0
M  V30 9833 H 958.401 -1.04566 -1.58638 0
M  V30 9834 H 956.551 -0.107907 -3.8835 0
M  V30 9835 H 958.223 -2.71317 -3.73075 0
M  V30 9836 H 956.466 -2.60723 -3.46707 0
M  V30 9837 H 957.137 -2.21944 -5.05416 0
M  V30 9838 H 959.613 -0.530243 -4.12708 0
M  V30 9839 H 958.489 -0.256676 -5.483 0
M  V30 9840 H 958.75 1.01745 -4.30233 0
M  V30 9841 N 957.809 1.4625 -0.587256 0
M  V30 9842 C 959.22 1.85997 -0.161918 0
M  V30 9843 C 959.571 1.49025 1.27616 0
M  V30 9844 O 958.696 0.907282 1.96462 0
M  V30 9845 C 959.291 3.37582 -0.287077 0
M  V30 9846 C 957.85 3.76308 0.0834211 0
M  V30 9847 C 956.997 2.70259 -0.620932 0
M  V30 9848 H 959.948 1.3734 -0.795199 0
M  V30 9849 H 959.969 3.77379 0.486333 0
M  V30 9850 H 959.481 3.64459 -1.33383 0
M  V30 9851 H 957.582 3.55047 1.13013 0
M  V30 9852 H 957.695 4.78184 -0.296064 0
M  V30 9853 H 956.059 2.54628 -0.0607027 0
M  V30 9854 H 956.842 2.99975 -1.66942 0
M  V30 9855 N 959.287 0.325282 1.54207 0
M  V30 9856 C 960.533 -0.277185 2.00897 0
M  V30 9857 C 960.866 -1.51651 1.21308 0
M  V30 9858 O 960.141 -1.92237 0.295825 0
M  V30 9859 C 960.424 -0.60961 3.54902 0
M  V30 9860 C 960.277 0.640542 4.45216 0
M  V30 9861 C 961.596 -1.42656 4.16338 0
M  V30 9862 H 958.715 -0.0992722 0.730284 0
M  V30 9863 H 961.357 0.442201 1.84783 0
M  V30 9864 H 959.507 -1.22249 3.68765 0
M  V30 9865 H 961.179 1.27878 4.43221 0
M  V30 9866 H 959.422 1.26908 4.14821 0
M  V30 9867 H 960.093 0.363459 5.50802 0
M  V30 9868 H 962.569 -0.908494 4.06061 0
M  V30 9869 H 961.445 -1.62792 5.24204 0
M  V30 9870 H 961.706 -2.42321 3.69774 0
M  V30 9871 N 960.765 -1.57509 0.0534917 0
M  V30 9872 C 962.176 -1.80374 -0.481867 0
M  V30 9873 C 962.527 -0.965917 -1.70776 0
M  V30 9874 O 961.652 -0.183167 -2.15623 0
M  V30 9875 C 962.247 -3.27146 -0.880978 0
M  V30 9876 C 960.806 -3.50921 -1.3613 0
M  V30 9877 C 959.953 -2.75237 -0.337611 0
M  V30 9878 H 962.904 -1.56222 0.279353 0
M  V30 9879 H 962.925 -3.38193 -1.74373 0
M  V30 9880 H 962.437 -3.88098 0.011441 0
M  V30 9881 H 960.538 -2.95251 -2.27283 0
M  V30 9882 H 960.651 -4.59632 -1.35186 0
M  V30 9883 H 959.015 -2.41444 -0.810991 0
M  V30 9884 H 959.798 -3.38918 0.546763 0
M  V30 9885 N 962.243 0.219913 -1.56058 0
M  V30 9886 C 963.173 1.27572 -1.9557 0
M  V30 9887 C 964.154 1.48801 -0.824148 0
M  V30 9888 O 965.339 1.60957 -1.08658 0
M  V30 9889 C 962.469 2.62517 -2.27381 0
M  V30 9890 C 961.423 2.55941 -3.43042 0
M  V30 9891 C 960.749 3.94931 -3.60463 0
M  V30 9892 C 962.049 2.10584 -4.77966 0
M  V30 9893 H 963.743 0.947482 -2.84013 0
M  V30 9894 H 961.289 0.454337 -1.36645 0
M  V30 9895 H 963.242 3.36538 -2.53615 0
M  V30 9896 H 961.966 2.97031 -1.35794 0
M  V30 9897 H 960.625 1.84377 -3.1686 0
M  V30 9898 H 960.273 4.26756 -2.66249 0
M  V30 9899 H 959.973 3.91413 -4.38258 0
M  V30 9900 H 961.497 4.70611 -3.89046 0
M  V30 9901 H 962.911 2.74349 -5.03394 0
M  V30 9902 H 961.308 2.18122 -5.59055 0
M  V30 9903 H 962.378 1.05818 -4.73213 0
M  V30 9904 N 963.721 1.49897 0.486681 0
M  V30 9905 C 964.968 1.60105 1.23986 0
M  V30 9906 C 965.296 0.294228 1.92262 0
M  V30 9907 O 964.551 -0.718876 1.82018 0
M  V30 9908 C 964.85 2.71982 2.31863 0
M  V30 9909 C 964.516 4.13 1.80948 0
M  V30 9910 C 963.178 4.51373 1.66782 0
M  V30 9911 C 965.53 5.01198 1.43004 0
M  V30 9912 C 962.858 5.75701 1.13072 0
M  V30 9913 C 965.21 6.26058 0.90742 0
M  V30 9914 C 963.874 6.63247 0.752269 0
M  V30 9915 H 963.144 0.585866 0.453698 0
M  V30 9916 H 965.791 1.83778 0.538305 0
M  V30 9917 H 964.096 2.42336 3.07865 0
M  V30 9918 H 965.793 2.77087 2.89869 0
M  V30 9919 H 962.383 3.82718 1.92937 0
M  V30 9920 H 966.567 4.72196 1.52789 0
M  V30 9921 H 961.823 6.03202 0.997842 0
M  V30 9922 H 965.997 6.9377 0.604684 0
M  V30 9923 H 963.624 7.59466 0.33392 0
M  V30 9924 N 965.199 -0.738761 1.39212 0
M  V30 9925 C 966.427 -1.52801 1.39497 0
M  V30 9926 C 966.842 -1.88797 -0.0114917 0
M  V30 9927 O 966.199 -1.53835 -0.981887 0
M  V30 9928 C 966.25 -2.81793 2.2644 0
M  V30 9929 O 965.971 -2.47328 3.61608 0
M  V30 9930 C 967.472 -3.75844 2.35067 0
M  V30 9931 H 964.692 -0.472322 0.476606 0
M  V30 9932 H 967.236 -0.913153 1.8298 0
M  V30 9933 H 965.391 -3.3962 1.8638 0
M  V30 9934 H 965.805 -3.30162 4.07545 0
M  V30 9935 H 967.279 -4.6326 3.00157 0
M  V30 9936 H 967.756 -4.17329 1.3687 0
M  V30 9937 H 968.362 -3.23937 2.75581 0
M  V30 9938 N 966.677 -1.24326 -0.968545 0
M  V30 9939 C 967.924 -1.08245 -1.71141 0
M  V30 9940 C 968.252 0.378842 -1.90775 0
M  V30 9941 O 967.507 1.29634 -1.46607 0
M  V30 9942 C 967.806 -1.76644 -3.10695 0
M  V30 9943 C 967.472 -3.26572 -3.10905 0
M  V30 9944 C 966.134 -3.67475 -3.10669 0
M  V30 9945 C 968.486 -4.22422 -3.05302 0
M  V30 9946 C 965.814 -5.02666 -3.02562 0
M  V30 9947 C 968.166 -5.57619 -2.98737 0
M  V30 9948 C 966.83 -5.9787 -2.9683 0
M  V30 9949 H 966.1 -0.396098 -0.626249 0
M  V30 9950 H 968.747 -1.54418 -1.13258 0
M  V30 9951 H 967.052 -1.22864 -3.72037 0
M  V30 9952 H 968.749 -1.61668 -3.66967 0
M  V30 9953 H 965.339 -2.94017 -3.11852 0
M  V30 9954 H 969.523 -3.91821 -3.04614 0
M  V30 9955 H 964.779 -5.3305 -2.99446 0
M  V30 9956 H 968.953 -6.31595 -2.93361 0
M  V30 9957 H 966.58 -7.02587 -2.90303 0
M  V30 9958 N 968.156 1.1691 -1.05688 0
M  V30 9959 C 969.404 1.86922 -0.768409 0
M  V30 9960 C 969.725 1.81735 0.706921 0
M  V30 9961 O 968.995 1.24671 1.51109 0
M  V30 9962 H 967.575 0.69203 -0.281253 0
M  V30 9963 H 970.237 1.41803 -1.33708 0
M  V30 9964 H 969.333 2.92528 -1.08783 0
M  V30 9965 N 969.634 0.838594 1.33437 0
M  V30 9966 C 970.564 0.286672 2.31734 0
M  V30 9967 C 971.545 -0.605451 1.5896 0
M  V30 9968 O 972.73 -0.529059 1.86854 0
M  V30 9969 C 969.86 -0.539311 3.43087 0
M  V30 9970 C 968.814 0.256997 4.27228 0
M  V30 9971 C 968.14 -0.692718 5.30194 0
M  V30 9972 C 969.44 1.47391 5.01072 0
M  V30 9973 H 971.134 1.10798 2.78144 0
M  V30 9974 H 968.68 0.534235 1.33723 0
M  V30 9975 H 970.633 -0.935724 4.1088 0
M  V30 9976 H 969.357 -1.39383 2.95364 0
M  V30 9977 H 968.016 0.634967 3.61059 0
M  V30 9978 H 967.664 -1.54363 4.78729 0
M  V30 9979 H 967.364 -0.164023 5.87371 0
M  V30 9980 H 968.888 -1.08665 6.00853 0
M  V30 9981 H 970.302 1.15067 5.61634 0
M  V30 9982 H 968.699 1.93937 5.67898 0
M  V30 9983 H 969.769 2.24382 4.29861 0
M  V30 9984 N 971.112 -1.45937 0.595003 0
M  V30 9985 C 972.389 -1.95592 0.0178748 0
M  V30 9986 C 972.769 -1.53758 -1.44643 0
M  V30 9987 O 972.117 -0.794104 -2.14257 0
M  V30 9988 C 972.327 -3.4841 0.202789 0
M  V30 9989 C 973.675 -4.2453 0.0770121 0
M  V30 9990 O 974.699 -3.55954 0.132257 0
M  V30 9991 O 973.558 -5.46479 -0.0484271 0
M  V30 9992 H 970.652 -0.825888 -0.0428702 0
M  V30 9993 H 973.198 -1.56162 0.664184 0
M  V30 9994 H 971.97 -3.71787 1.22027 0
M  V30 9995 H 971.593 -3.947 -0.479376 0
M  V30 9996 N 972.59 -0.333456 -1.54032 0
M  V30 9997 C 974.006 0.0188405 -1.59589 0
M  V30 9998 C 974.206 1.49615 -1.34972 0
M  V30 9999 O 973.262 2.2535 -1.13901 0
M  V30 10000 C 974.575 -0.408273 -2.97915 0
M  V30 10001 C 976.123 -0.359763 -3.10926 0
M  V30 10002 C 976.598 -0.76219 -4.51613 0
M  V30 10003 N 978.089 -0.715981 -4.57633 0
M  V30 10004 C 978.824 -0.999436 -5.64623 0
M  V30 10005 N 978.32 -1.35053 -6.79509 0
M  V30 10006 N 980.113 -0.924343 -5.54448 0
M  V30 10007 H 972.264 -1.29587 -1.68289 0
M  V30 10008 H 974.527 -0.527584 -0.787629 0
M  V30 10009 H 974.233 -1.43793 -3.20962 0
M  V30 10010 H 974.107 0.221685 -3.76548 0
M  V30 10011 H 976.494 0.660703 -2.87609 0
M  V30 10012 H 976.575 -1.02479 -2.34375 0
M  V30 10013 H 976.219 -1.78062 -4.75664 0
M  V30 10014 H 976.149 -0.0747478 -5.26547 0
M  V30 10015 H 978.64 -0.456875 -3.75128 0
M  V30 10016 H 978.953 -1.55194 -7.57057 0
M  V30 10017 H 977.298 -1.38889 -6.80981 0
M  V30 10018 H 980.489 -0.649469 -4.63573 0
M  V30 10019 H 980.662 -1.1486 -6.37739 0
M  V30 10020 N 974.068 1.57479 -0.061844 0
M  V30 10021 C 974.978 2.15645 0.923826 0
M  V30 10022 C 975.994 1.117 1.33413 0
M  V30 10023 O 977.17 1.4392 1.40887 0
M  V30 10024 C 974.235 2.69857 2.17665 0
M  V30 10025 C 973.296 3.88638 1.8237 0
M  V30 10026 C 972.529 4.40256 3.01679 0
M  V30 10027 O 972.752 3.90908 4.15388 0
M  V30 10028 O 971.686 5.31713 2.82073 0
M  V30 10029 H 975.512 3.0021 0.459094 0
M  V30 10030 H 973.097 1.48534 0.160665 0
M  V30 10031 H 974.979 3.04647 2.9115 0
M  V30 10032 H 973.654 1.88357 2.63255 0
M  V30 10033 H 972.561 3.58719 1.06167 0
M  V30 10034 H 973.894 4.71401 1.4157 0
M  V30 10035 N 975.546 -0.211634 1.56173 0
M  V30 10036 C 976.957 -0.777776 1.69728 0
M  V30 10037 C 977.308 -1.84566 0.66558 0
M  V30 10038 O 976.433 -2.15639 -0.181338 0
M  V30 10039 C 977.028 -1.41757 3.07718 0
M  V30 10040 C 975.587 -1.93098 3.23094 0
M  V30 10041 C 974.734 -0.794785 2.65666 0
M  V30 10042 H 977.685 0.0131839 1.58695 0
M  V30 10043 H 977.706 -2.28662 3.04128 0
M  V30 10044 H 977.218 -0.640114 3.82785 0
M  V30 10045 H 975.319 -2.73615 2.52914 0
M  V30 10046 H 975.432 -2.10414 4.30422 0
M  V30 10047 H 973.796 -1.20473 2.24407 0
M  V30 10048 H 974.579 -0.0298408 3.43287 0
M  V30 10049 N 977.024 -1.50153 -0.478725 0
M  V30 10050 C 978.435 -1.53706 -1.05978 0
M  V30 10051 C 978.786 -0.336112 -1.933 0
M  V30 10052 O 977.911 0.551803 -2.09246 0
M  V30 10053 C 978.506 -2.78541 -1.92874 0
M  V30 10054 C 977.065 -2.848 -2.46102 0
M  V30 10055 C 976.212 -2.47902 -1.24257 0
M  V30 10056 H 979.163 -1.56528 -0.261664 0
M  V30 10057 H 979.184 -2.59964 -2.77847 0
M  V30 10058 H 978.696 -3.6593 -1.29293 0
M  V30 10059 H 976.797 -2.01744 -3.13257 0
M  V30 10060 H 976.91 -3.87511 -2.81731 0
M  V30 10061 H 975.274 -2.0017 -1.57493 0
M  V30 10062 H 976.057 -3.3759 -0.62351 0
M  V30 10063 N 978.502 0.731368 -1.39602 0
M  V30 10064 C 979.918 1.03739 -1.21286 0
M  V30 10065 C 980.118 2.01353 -0.0769875 0
M  V30 10066 O 979.174 2.45978 0.570193 0
M  V30 10067 C 980.487 1.59621 -2.54837 0
M  V30 10068 C 982.035 1.71683 -2.61713 0
M  V30 10069 C 982.51 2.30973 -3.95494 0
M  V30 10070 N 984.001 2.38378 -3.97153 0
M  V30 10071 C 984.736 2.852 -4.97442 0
M  V30 10072 N 984.232 3.31891 -6.08129 0
M  V30 10073 N 986.025 2.84441 -4.84819 0
M  V30 10074 H 978.176 0.0840456 -2.12234 0
M  V30 10075 H 980.439 0.0999038 -0.942721 0
M  V30 10076 H 980.145 0.953608 -3.38525 0
M  V30 10077 H 980.019 2.58375 -2.74813 0
M  V30 10078 H 982.406 2.35064 -1.78406 0
M  V30 10079 H 982.487 0.715714 -2.45583 0
M  V30 10080 H 982.131 1.68219 -4.79234 0
M  V30 10081 H 982.061 3.31769 -4.08946 0
M  V30 10082 H 984.552 2.05382 -3.17217 0
M  V30 10083 H 984.865 3.66138 -6.8056 0
M  V30 10084 H 983.21 3.2989 -6.11717 0
M  V30 10085 H 986.401 2.4729 -3.97448 0
M  V30 10086 H 986.574 3.20616 -5.63124 0
M  V30 10087 N 979.98 1.24838 0.961938 0
M  V30 10088 C 981.205 1.11967 1.7458 0
M  V30 10089 C 981.63 -0.323287 1.85301 0
M  V30 10090 O 980.988 -1.23412 1.32812 0
M  V30 10091 C 981.036 1.77066 3.14134 0
M  V30 10092 O 980.14 1.04534 3.98932 0
M  V30 10093 H 979.481 0.391338 0.536424 0
M  V30 10094 H 982.011 1.65259 1.20626 0
M  V30 10095 H 982.021 1.83056 3.64629 0
M  V30 10096 H 980.696 2.82052 3.05646 0
M  V30 10097 H 979.273 1.06372 3.57407 0
M  V30 10098 N 981.458 -1.16348 1.06306 0
M  V30 10099 C 982.869 -1.68491 0.80422 0
M  V30 10100 C 983.22 -1.84327 -0.672159 0
M  V30 10101 O 982.345 -1.53892 -1.52139 0
M  V30 10102 C 982.94 -3.06048 1.45328 0
M  V30 10103 C 981.499 -3.55311 1.24221 0
M  V30 10104 C 980.646 -2.31291 1.5297 0
M  V30 10105 H 983.597 -1.00708 1.22652 0
M  V30 10106 H 983.618 -3.70451 0.868674 0
M  V30 10107 H 983.13 -2.9449 2.52779 0
M  V30 10108 H 981.231 -3.72128 0.187447 0
M  V30 10109 H 981.344 -4.37397 1.95502 0
M  V30 10110 H 979.708 -2.3631 0.950241 0
M  V30 10111 H 980.491 -2.22331 2.6158 0
M  V30 10112 N 982.937 -0.845659 -1.3299 0
M  V30 10113 C 983.869 -0.241097 -2.27928 0
M  V30 10114 C 984.882 0.582048 -1.5204 0
M  V30 10115 O 986.071 0.408008 -1.73774 0
M  V30 10116 C 983.171 0.678652 -3.32035 0
M  V30 10117 C 982.344 -0.106652 -4.3727 0
M  V30 10118 C 981.403 0.737478 -5.21006 0
M  V30 10119 O 980.429 0.174231 -5.68933 0
M  V30 10120 N 981.631 2.05372 -5.42957 0
M  V30 10121 H 984.396 -1.05685 -2.80448 0
M  V30 10122 H 981.957 -0.704771 -1.45755 0
M  V30 10123 H 983.949 1.24849 -3.84961 0
M  V30 10124 H 982.519 1.3951 -2.79742 0
M  V30 10125 H 981.739 -0.857897 -3.84752 0
M  V30 10126 H 983.027 -0.646386 -5.04677 0
M  V30 10127 H 982.425 2.53478 -5.05733 0
M  V30 10128 H 980.982 2.5719 -5.98913 0
M  V30 10129 N 984.415 1.45619 -0.602734 0
M  V30 10130 C 985.64 2.07157 -0.100429 0
M  V30 10131 C 986.065 1.44524 1.20393 0
M  V30 10132 O 985.423 0.536191 1.7319 0
M  V30 10133 C 985.471 3.60587 0.0308604 0
M  V30 10134 O 984.575 3.97944 1.08234 0
M  V30 10135 H 983.916 0.6601 -0.0718643 0
M  V30 10136 H 986.446 1.86948 -0.831366 0
M  V30 10137 H 986.456 4.07348 0.230634 0
M  V30 10138 H 985.131 4.05561 -0.921581 0
M  V30 10139 H 983.708 3.62862 0.859414 0
M  V30 10140 N 985.893 0.34162 1.53853 0
M  V30 10141 C 987.118 -0.259608 2.05769 0
M  V30 10142 C 987.543 -1.43588 1.21507 0
M  V30 10143 O 986.901 -1.79856 0.228364 0
M  V30 10144 C 986.949 -0.654455 3.54611 0
M  V30 10145 O 986.053 -1.75472 3.73207 0
M  V30 10146 H 985.394 -0.0434621 0.662576 0
M  V30 10147 H 987.924 0.495274 1.98515 0
M  V30 10148 H 987.934 -0.932142 3.97209 0
M  V30 10149 H 986.609 0.205779 4.15391 0
M  V30 10150 H 985.186 -1.47444 3.42512 0
M  V30 10151 N 987.371 -1.57444 0.0701946 0
M  V30 10152 C 988.321 -2.09154 -0.90767 0
M  V30 10153 C 989.305 -1.00087 -1.25982 0
M  V30 10154 O 990.497 -1.26397 -1.23906 0
M  V30 10155 C 987.626 -2.65544 -2.17581 0
M  V30 10156 C 986.712 -3.81613 -1.85021 0
M  V30 10157 N 987.103 -4.90641 -1.22904 0
M  V30 10158 C 985.401 -3.90878 -2.1478 0
M  V30 10159 C 986.102 -5.71511 -1.084 0
M  V30 10160 N 985.078 -5.1973 -1.59318 0
M  V30 10161 H 988.88 -2.90839 -0.423051 0
M  V30 10162 H 986.394 -1.61848 -0.13374 0
M  V30 10163 H 988.391 -3.00904 -2.88552 0
M  V30 10164 H 987.051 -1.85304 -2.66632 0
M  V30 10165 H 988.062 -5.1004 -0.898878 0
M  V30 10166 H 984.739 -3.21611 -2.66219 0
M  V30 10167 H 986.129 -6.69214 -0.600183 0
M  V30 10168 N 988.849 0.203349 -1.56283 0
M  V30 10169 C 989.779 1.2549 -1.96912 0
M  V30 10170 C 990.76 1.47919 -0.839884 0
M  V30 10171 O 991.945 1.59795 -1.10359 0
M  V30 10172 C 989.075 2.6009 -2.30153 0
M  V30 10173 C 988.029 2.52289 -3.45738 0
M  V30 10174 C 987.355 3.91086 -3.64632 0
M  V30 10175 C 988.655 2.05503 -4.80173 0
M  V30 10176 H 990.349 0.917306 -2.85002 0
M  V30 10177 H 987.895 0.439818 -1.37119 0
M  V30 10178 H 989.848 3.33829 -2.5717 0
M  V30 10179 H 988.572 2.95574 -1.38937 0
M  V30 10180 H 987.231 1.81006 -3.18798 0
M  V30 10181 H 986.879 4.23908 -2.7076 0
M  V30 10182 H 986.579 3.86742 -4.42385 0
M  V30 10183 H 988.103 4.66459 -3.94016 0
M  V30 10184 H 989.517 2.68995 -5.06275 0
M  V30 10185 H 987.914 2.1218 -5.61337 0
M  V30 10186 H 988.984 1.00793 -4.74309 0
M  V30 10187 N 990.327 1.50405 0.470755 0
M  V30 10188 C 991.738 1.54266 1.05162 0
M  V30 10189 C 992.089 0.346359 1.93119 0
M  V30 10190 O 991.214 -0.540699 2.09536 0
M  V30 10191 C 991.809 2.7956 1.91394 0
M  V30 10192 C 990.368 2.86101 2.44588 0
M  V30 10193 C 989.515 2.48557 1.22941 0
M  V30 10194 H 992.466 1.56665 0.253359 0
M  V30 10195 H 992.487 2.61434 2.76464 0
M  V30 10196 H 991.999 3.66611 1.27351 0
M  V30 10197 H 990.1 2.03403 3.12183 0
M  V30 10198 H 990.213 3.88999 2.79672 0
M  V30 10199 H 988.577 2.01003 1.56429 0
M  V30 10200 H 989.36 3.37916 0.605598 0
M  V30 10201 N 991.805 -0.723954 1.39988 0
M  V30 10202 C 993.03 -1.5182 1.41299 0
M  V30 10203 C 993.455 -1.88096 0.0122636 0
M  V30 10204 O 992.813 -1.52687 -0.977559 0
M  V30 10205 C 992.861 -2.77532 2.30235 0
M  V30 10206 O 991.965 -3.73903 1.73984 0
M  V30 10207 H 991.306 -0.458058 0.480707 0
M  V30 10208 H 993.836 -0.892291 1.84118 0
M  V30 10209 H 993.846 -3.2615 2.45132 0
M  V30 10210 H 992.521 -2.50462 3.32026 0
M  V30 10211 H 991.098 -3.32715 1.68389 0
M  V30 10212 N 993.283 -1.25346 -0.955304 0
M  V30 10213 C 994.508 -1.12892 -1.73983 0
M  V30 10214 C 994.933 0.313455 -1.8547 0
M  V30 10215 O 994.291 1.22706 -1.33465 0
M  V30 10216 C 994.339 -1.78729 -3.1319 0
M  V30 10217 O 993.443 -1.06648 -3.98372 0
M  V30 10218 H 992.784 -0.394178 -0.534341 0
M  V30 10219 H 995.314 -1.65897 -1.19747 0
M  V30 10220 H 995.324 -1.84987 -3.63653 0
M  V30 10221 H 993.999 -2.83669 -3.04146 0
M  V30 10222 H 992.576 -1.08266 -3.56837 0
M  V30 10223 N 994.761 1.15782 -1.06922 0
M  V30 10224 C 995.986 1.90896 -0.810771 0
M  V30 10225 C 996.411 1.77246 0.629714 0
M  V30 10226 O 995.769 1.10215 1.43953 0
M  V30 10227 C 995.817 3.39397 -1.21829 0
M  V30 10228 O 994.921 4.10818 -0.360934 0
M  V30 10229 H 994.262 0.594497 -0.295752 0
M  V30 10230 H 996.792 1.46652 -1.42669 0
M  V30 10231 H 996.802 3.90181 -1.19259 0
M  V30 10232 H 995.477 3.4865 -2.2675 0
M  V30 10233 H 994.054 3.7019 -0.448748 0
M  V30 10234 N 996.239 0.8527 1.3254 0
M  V30 10235 C 997.65 0.510012 1.79599 0
M  V30 10236 C 998.001 -0.972002 1.70431 0
M  V30 10237 O 997.126 -1.7581 1.26173 0
M  V30 10238 C 997.721 0.918986 3.26098 0
M  V30 10239 C 996.28 0.628227 3.7112 0
M  V30 10240 C 995.427 1.11979 2.53685 0
M  V30 10241 H 998.378 1.04009 1.19866 0
M  V30 10242 H 998.399 0.234577 3.79776 0
M  V30 10243 H 997.911 1.99765 3.32739 0
M  V30 10244 H 996.012 -0.4398 3.69995 0
M  V30 10245 H 996.125 1.19315 4.64005 0
M  V30 10246 H 994.489 0.540133 2.48907 0
M  V30 10247 H 995.272 2.20552 2.63081 0
M  V30 10248 N 997.718 -1.45297 0.610449 0
M  V30 10249 C 998.628 -2.34349 -0.108475 0
M  V30 10250 C 999.644 -1.51409 -0.857397 0
M  V30 10251 O 1000.82 -1.84202 -0.814337 0
M  V30 10252 C 997.885 -3.29072 -1.09144 0
M  V30 10253 C 996.946 -4.27918 -0.344165 0
M  V30 10254 C 996.179 -5.18116 -1.28031 0
M  V30 10255 O 996.402 -5.11802 -2.51824 0
M  V30 10256 O 995.336 -5.96879 -0.775821 0
M  V30 10257 H 999.162 -2.97232 0.623421 0
M  V30 10258 H 996.747 -1.44728 0.3707 0
M  V30 10259 H 998.629 -3.87433 -1.65751 0
M  V30 10260 H 997.304 -2.68749 -1.80431 0
M  V30 10261 H 996.211 -3.73164 0.264437 0
M  V30 10262 H 997.544 -4.91104 0.328275 0
M  V30 10263 N 999.196 -0.349774 -1.5367 0
M  V30 10264 C 1000.15 0.52023 -2.21986 0
M  V30 10265 C 1001.13 1.06119 -1.20944 0
M  V30 10266 O 1002.32 0.993857 -1.46463 0
M  V30 10267 C 999.451 1.66751 -3.00082 0
M  V30 10268 C 998.537 1.14019 -4.08486 0
M  V30 10269 N 998.928 0.334588 -5.04692 0
M  V30 10270 C 997.226 1.4165 -4.22908 0
M  V30 10271 C 997.927 0.0476906 -5.8168 0
M  V30 10272 N 996.903 0.641032 -5.39807 0
M  V30 10273 H 1000.7 -0.102261 -2.93722 0
M  V30 10274 H 998.219 -0.15696 -1.6164 0
M  V30 10275 H 1000.22 2.30281 -3.47529 0
M  V30 10276 H 998.876 2.29322 -2.29873 0
M  V30 10277 H 999.887 -0.0248665 -5.17894 0
M  V30 10278 H 996.564 2.04615 -3.63922 0
M  V30 10279 H 997.954 -0.602565 -6.69193 0
M  V30 10280 N 1000.67 1.57404 -0.0785433 0
M  V30 10281 C 1001.6 2.16131 0.883726 0
M  V30 10282 C 1002.58 1.09015 1.30575 0
M  V30 10283 O 1003.77 1.3708 1.37559 0
M  V30 10284 C 1000.9 2.72836 2.1489 0
M  V30 10285 C 999.854 3.85178 1.86605 0
M  V30 10286 C 999.18 4.28516 3.1981 0
M  V30 10287 C 1000.48 5.09118 1.16601 0
M  V30 10288 H 1002.17 2.9679 0.394484 0
M  V30 10289 H 999.72 1.42763 0.188304 0
M  V30 10290 H 1001.67 3.12567 2.8263 0
M  V30 10291 H 1000.4 1.89408 2.66068 0
M  V30 10292 H 999.056 3.45962 1.21268 0
M  V30 10293 H 998.704 3.42 3.68843 0
M  V30 10294 H 998.404 5.04249 3.01674 0
M  V30 10295 H 999.928 4.70868 3.88737 0
M  V30 10296 H 1001.34 5.46123 1.74422 0
M  V30 10297 H 999.739 5.90173 1.087 0
M  V30 10298 H 1000.81 4.8468 0.146138 0
M  V30 10299 N 1002.15 -0.195058 1.56388 0
M  V30 10300 C 1003.4 -0.913636 1.8027 0
M  V30 10301 C 1003.72 -1.83791 0.651606 0
M  V30 10302 O 1002.99 -1.931 -0.330057 0
M  V30 10303 H 1001.57 -0.34036 0.664954 0
M  V30 10304 H 1004.23 -0.200559 1.93865 0
M  V30 10305 H 1003.33 -1.50473 2.7343 0
M  V30 10306 N 1003.63 -1.50653 -0.462772 0
M  V30 10307 C 1004.56 -1.73056 -1.5676 0
M  V30 10308 C 1005.54 -0.579699 -1.59917 0
M  V30 10309 O 1006.73 -0.819729 -1.76051 0
M  V30 10310 C 1003.86 -1.83234 -2.9503 0
M  V30 10311 C 1002.81 -2.98488 -3.06739 0
M  V30 10312 C 1002.14 -2.93818 -4.46738 0
M  V30 10313 C 1003.44 -4.38869 -2.83181 0
M  V30 10314 H 1005.13 -2.65562 -1.38265 0
M  V30 10315 H 1002.68 -1.27792 -0.663722 0
M  V30 10316 H 1004.63 -1.97491 -3.72257 0
M  V30 10317 H 1003.35 -0.873558 -3.14701 0
M  V30 10318 H 1002.01 -2.83895 -2.31946 0
M  V30 10319 H 1001.66 -1.95769 -4.63339 0
M  V30 10320 H 1001.36 -3.71197 -4.55507 0
M  V30 10321 H 1002.88 -3.10135 -5.25974 0
M  V30 10322 H 1004.3 -4.53945 -3.50153 0
M  V30 10323 H 1002.69 -5.17762 -3.03386 0
M  V30 10324 H 1003.76 -4.50663 -1.78972 0
M  V30 10325 N 1005.11 0.71652 -1.4037 0
M  V30 10326 C 1006.02 1.86074 -1.42876 0
M  V30 10327 C 1007.03 1.71005 -0.321475 0
M  V30 10328 O 1008.21 1.93286 -0.565909 0
M  V30 10329 C 1005.28 3.21862 -1.28863 0
M  V30 10330 C 1004.34 3.49193 -2.49726 0
M  V30 10331 C 1003.57 4.78502 -2.36372 0
M  V30 10332 O 1003.79 5.53529 -1.37703 0
M  V30 10333 O 1002.73 5.06147 -3.25728 0
M  V30 10334 H 1006.55 1.86916 -2.39366 0
M  V30 10335 H 1004.14 0.866818 -1.21683 0
M  V30 10336 H 1006.02 4.02972 -1.23253 0
M  V30 10337 H 1004.69 3.2175 -0.354783 0
M  V30 10338 H 1003.6 2.68095 -2.60913 0
M  V30 10339 H 1004.93 3.54101 -3.41868 0
M  V30 10340 N 1006.59 1.25851 0.948643 0
M  V30 10341 C 1008 1.09975 1.50872 0
M  V30 10342 C 1008.35 -0.322497 1.93531 0
M  V30 10343 O 1007.47 -1.21316 1.79197 0
M  V30 10344 C 1008.07 1.99021 2.74182 0
M  V30 10345 C 1006.63 1.87313 3.26483 0
M  V30 10346 C 1005.77 1.92815 1.99293 0
M  V30 10347 H 1008.73 1.3905 0.764908 0
M  V30 10348 H 1008.75 1.53372 3.4822 0
M  V30 10349 H 1008.26 3.02527 2.43103 0
M  V30 10350 H 1006.36 0.867136 3.62369 0
M  V30 10351 H 1006.47 2.72446 3.94094 0
M  V30 10352 H 1004.84 1.36774 2.1486 0
M  V30 10353 H 1005.62 2.97936 1.70554 0
M  V30 10354 N 1008.06 -1.15214 1.07534 0
M  V30 10355 C 1009.31 -1.85676 0.79805 0
M  V30 10356 C 1009.63 -1.82837 -0.677919 0
M  V30 10357 O 1008.9 -1.27059 -1.49107 0
M  V30 10358 H 1007.48 -0.687468 0.292227 0
M  V30 10359 H 1010.15 -1.39658 1.35947 0
M  V30 10360 H 1009.24 -2.9076 1.13423 0
M  V30 10361 N 1009.54 -0.859717 -1.32086 0
M  V30 10362 C 1010.45 -0.31108 -2.32528 0
M  V30 10363 C 1011.47 0.573714 -1.6427 0
M  V30 10364 O 1012.64 0.472878 -1.9577 0
M  V30 10365 C 1009.71 0.487256 -3.43259 0
M  V30 10366 C 1008.77 -0.424279 -4.27198 0
M  V30 10367 C 1008 0.336051 -5.32641 0
M  V30 10368 O 1008.23 1.56541 -5.48499 0
M  V30 10369 O 1007.16 -0.300777 -6.01148 0
M  V30 10370 H 1010.99 -1.14336 -2.81355 0
M  V30 10371 H 1008.57 -0.622794 -1.358 0
M  V30 10372 H 1010.45 0.940203 -4.10777 0
M  V30 10373 H 1009.13 1.29626 -2.96612 0
M  V30 10374 H 1008.04 -0.925509 -3.62471 0
M  V30 10375 H 1009.37 -1.1986 -4.77383 0
M  V30 10376 N 1011.02 1.44971 -0.618145 0
M  V30 10377 C 1011.97 2.30606 0.09449 0
M  V30 10378 C 1012.94 1.42725 0.849633 0
M  V30 10379 O 1014.12 1.71643 0.833266 0
M  V30 10380 C 1011.26 3.27803 1.07886 0
M  V30 10381 C 1010.38 4.30787 0.323488 0
M  V30 10382 C 1009.51 5.15085 1.29851 0
M  V30 10383 C 1008.55 6.09788 0.531561 0
M  V30 10384 N 1007.69 6.86829 1.4564 0
M  V30 10385 H 1012.53 2.91008 -0.641738 0
M  V30 10386 H 1010.06 1.43391 -0.328259 0
M  V30 10387 H 1012.02 3.82631 1.66281 0
M  V30 10388 H 1010.65 2.69131 1.78237 0
M  V30 10389 H 1009.7 3.78536 -0.376164 0
M  V30 10390 H 1011.02 4.98044 -0.274443 0
M  V30 10391 H 1010.17 5.74365 1.95421 0
M  V30 10392 H 1008.91 4.4787 1.93037 0
M  V30 10393 H 1007.91 5.49628 -0.137702 0
M  V30 10394 H 1009.14 6.79033 -0.0953993 0
M  V30 10395 H 1007.08 6.22295 2.07571 0
M  V30 10396 H 1007 7.50477 0.912167 0
M  V30 10397 H 1008.27 7.50642 2.10134 0
M  V30 10398 N 1012.5 0.357919 1.53482 0
M  V30 10399 C 1013.74 -0.23451 2.0144 0
M  V30 10400 C 1014.08 -1.49044 1.24497 0
M  V30 10401 O 1013.35 -1.91566 0.336535 0
M  V30 10402 C 1013.64 -0.534193 3.56116 0
M  V30 10403 C 1013.49 0.734834 4.43757 0
M  V30 10404 C 1014.81 -1.33793 4.1927 0
M  V30 10405 H 1011.93 -0.0837595 0.732225 0
M  V30 10406 H 1014.57 0.481297 1.83803 0
M  V30 10407 H 1012.72 -1.144 3.71275 0
M  V30 10408 H 1014.39 1.37251 4.40409 0
M  V30 10409 H 1012.63 1.35678 4.12036 0
M  V30 10410 H 1013.3 0.48021 5.49907 0
M  V30 10411 H 1015.78 -0.822158 4.07897 0
M  V30 10412 H 1014.66 -1.51636 5.27539 0
M  V30 10413 H 1014.92 -2.34423 3.74831 0
M  V30 10414 N 1013.98 -1.5736 0.0868897 0
M  V30 10415 C 1014.89 -2.17087 -0.889402 0
M  V30 10416 C 1015.9 -1.13809 -1.31619 0
M  V30 10417 O 1017.08 -1.46143 -1.38579 0
M  V30 10418 C 1014.14 -2.73286 -2.13344 0
M  V30 10419 C 1013.2 -3.91491 -1.76164 0
M  V30 10420 C 1012.44 -4.45 -2.94637 0
M  V30 10421 O 1012.66 -3.97467 -4.09116 0
M  V30 10422 O 1011.59 -5.36133 -2.73579 0
M  V30 10423 H 1015.42 -3.00902 -0.411275 0
M  V30 10424 H 1013.01 -1.4877 -0.137015 0
M  V30 10425 H 1014.89 -3.0924 -2.86266 0
M  V30 10426 H 1013.56 -1.92521 -2.60225 0
M  V30 10427 H 1012.47 -3.60363 -1.00447 0
M  V30 10428 H 1013.8 -4.73593 -1.34053 0
M  V30 10429 N 1015.45 0.186762 -1.56489 0
M  V30 10430 C 1016.73 0.932229 -1.71956 0
M  V30 10431 C 1017.11 2.01037 -0.644006 0
M  V30 10432 O 1016.46 2.259 0.343694 0
M  V30 10433 C 1016.67 1.51106 -3.14592 0
M  V30 10434 C 1018.02 1.98997 -3.75081 0
M  V30 10435 O 1019.04 1.60931 -3.17773 0
M  V30 10436 O 1017.9 2.69067 -4.75673 0
M  V30 10437 H 1014.99 0.437736 -0.701652 0
M  V30 10438 H 1017.54 0.175803 -1.68787 0
M  V30 10439 H 1016.31 0.734327 -3.84348 0
M  V30 10440 H 1015.94 2.33209 -3.22024 0
M  V30 10441 N 1016.93 1.50896 0.454776 0
M  V30 10442 C 1017.87 1.65608 1.57001 0
M  V30 10443 C 1018.84 0.50387 1.54596 0
M  V30 10444 O 1020.03 0.725485 1.7398 0
M  V30 10445 C 1017.15 1.65366 2.95587 0
M  V30 10446 C 1016.2 2.86344 3.16085 0
M  V30 10447 S 1017.03 4.47418 2.9424 0
M  V30 10448 C 1018.19 4.49895 4.35138 0
M  V30 10449 H 1018.42 2.59941 1.44285 0
M  V30 10450 H 1015.96 1.40362 0.643264 0
M  V30 10451 H 1017.91 1.65911 3.75478 0
M  V30 10452 H 1016.57 0.722407 3.0568 0
M  V30 10453 H 1015.77 2.82526 4.17367 0
M  V30 10454 H 1015.37 2.8345 2.43992 0
M  V30 10455 H 1017.66 4.24462 5.28051 0
M  V30 10456 H 1018.6 5.5161 4.43995 0
M  V30 10457 H 1019.01 3.79412 4.17979 0
M  V30 10458 N 1018.41 -0.709066 1.40748 0
M  V30 10459 C 1019.82 -1.28847 1.35112 0
M  V30 10460 C 1020.17 -1.9618 0.0277149 0
M  V30 10461 O 1019.3 -1.97955 -0.874233 0
M  V30 10462 C 1019.89 -2.34306 2.44716 0
M  V30 10463 C 1018.45 -2.87856 2.4252 0
M  V30 10464 C 1017.6 -1.61723 2.25257 0
M  V30 10465 H 1020.55 -0.504742 1.50459 0
M  V30 10466 H 1020.57 -3.15297 2.12998 0
M  V30 10467 H 1020.08 -1.85271 3.41022 0
M  V30 10468 H 1018.18 -3.41103 1.49931 0
M  V30 10469 H 1018.3 -3.39205 3.38344 0
M  V30 10470 H 1016.66 -1.87032 1.7289 0
M  V30 10471 H 1017.44 -1.14703 3.23571 0
M  V30 10472 N 1019.89 -1.26353 -0.941956 0
M  V30 10473 C 1020.84 -1.07842 -2.04056 0
M  V30 10474 C 1021.81 0.0163064 -1.66092 0
M  V30 10475 O 1022.99 -0.143313 -1.90261 0
M  V30 10476 C 1020.13 -0.716636 -3.37577 0
M  V30 10477 C 1019.24 -1.88754 -3.88582 0
M  V30 10478 C 1018.38 -1.46893 -5.10486 0
M  V30 10479 C 1017.42 -2.60819 -5.53751 0
M  V30 10480 N 1016.56 -2.19646 -6.66858 0
M  V30 10481 H 1021.4 -2.01856 -2.19221 0
M  V30 10482 H 1018.93 -1.00504 -1.07412 0
M  V30 10483 H 1020.89 -0.487768 -4.14339 0
M  V30 10484 H 1019.52 0.18653 -3.22261 0
M  V30 10485 H 1018.57 -2.22936 -3.08227 0
M  V30 10486 H 1019.88 -2.74264 -4.1663 0
M  V30 10487 H 1019.04 -1.20047 -5.94705 0
M  V30 10488 H 1017.78 -0.584721 -4.84182 0
M  V30 10489 H 1016.78 -2.88396 -4.6809 0
M  V30 10490 H 1018.01 -3.49838 -5.82057 0
M  V30 10491 H 1015.95 -1.33657 -6.4224 0
M  V30 10492 H 1015.87 -2.987 -6.94489 0
M  V30 10493 H 1017.14 -1.96009 -7.54454 0
M  V30 10494 N 1021.37 1.14642 -1.08144 0
M  V30 10495 C 1022.78 1.6719 -0.830923 0
M  V30 10496 C 1023.13 1.85373 0.642749 0
M  V30 10497 O 1022.25 1.56293 1.49671 0
M  V30 10498 C 1022.85 3.03697 -1.50179 0
M  V30 10499 C 1021.41 3.5329 -1.29858 0
M  V30 10500 C 1020.56 2.28828 -1.5663 0
M  V30 10501 H 1023.51 0.987441 -1.24239 0
M  V30 10502 H 1023.53 3.69023 -0.9275 0
M  V30 10503 H 1023.04 2.90431 -2.57432 0
M  V30 10504 H 1021.14 3.71783 -0.246626 0
M  V30 10505 H 1021.25 4.34231 -2.02436 0
M  V30 10506 H 1019.62 2.34769 -0.987716 0
M  V30 10507 H 1020.4 2.18141 -2.65084 0
M  V30 10508 N 1022.85 0.866709 1.31628 0
M  V30 10509 C 1024.26 0.529032 1.79048 0
M  V30 10510 C 1024.61 -0.953871 1.71452 0
M  V30 10511 O 1023.73 -1.74462 1.28031 0
M  V30 10512 C 1024.33 0.953522 3.25105 0
M  V30 10513 C 1022.89 0.667554 3.70433 0
M  V30 10514 C 1022.03 1.14664 2.52483 0
M  V30 10515 H 1024.98 1.05275 1.18756 0
M  V30 10516 H 1025.01 0.274844 3.79506 0
M  V30 10517 H 1024.52 2.03283 3.30602 0
M  V30 10518 H 1022.62 -0.400532 3.70441 0
M  V30 10519 H 1022.73 1.2423 4.62714 0
M  V30 10520 H 1021.1 0.566502 2.4832 0
M  V30 10521 H 1021.88 2.2333 2.60727 0
M  V30 10522 N 1024.32 -1.44642 0.625825 0
M  V30 10523 C 1025.25 -2.33397 -0.0692188 0
M  V30 10524 C 1026.23 -1.47898 -0.840241 0
M  V30 10525 O 1027.42 -1.7663 -0.807176 0
M  V30 10526 C 1024.55 -3.30888 -1.055 0
M  V30 10527 C 1023.5 -4.26164 -0.395968 0
M  V30 10528 C 1022.83 -5.13483 -1.49128 0
M  V30 10529 C 1024.13 -5.17663 0.694433 0
M  V30 10530 H 1025.82 -2.91763 0.671925 0
M  V30 10531 H 1023.37 -1.40294 0.324573 0
M  V30 10532 H 1025.32 -3.91861 -1.54993 0
M  V30 10533 H 1024.05 -2.7072 -1.82696 0
M  V30 10534 H 1022.71 -3.66516 0.0782691 0
M  V30 10535 H 1022.35 -4.49672 -2.25399 0
M  V30 10536 H 1022.05 -5.78038 -1.05573 0
M  V30 10537 H 1023.58 -5.77327 -1.98813 0
M  V30 10538 H 1024.99 -5.72602 0.282818 0
M  V30 10539 H 1023.39 -5.90793 1.05281 0
M  V30 10540 H 1024.46 -4.58994 1.56372 0
M  V30 10541 N 1025.8 -0.366053 -1.5329 0
M  V30 10542 C 1027.21 0.113056 -1.86357 0
M  V30 10543 C 1027.56 1.48123 -1.28662 0
M  V30 10544 O 1026.69 2.07658 -0.608849 0
M  V30 10545 C 1027.28 0.211923 -3.38137 0
M  V30 10546 C 1025.84 0.635289 -3.71 0
M  V30 10547 C 1024.99 -0.217203 -2.76448 0
M  V30 10548 H 1027.94 -0.584829 -1.47531 0
M  V30 10549 H 1027.96 1.0354 -3.66142 0
M  V30 10550 H 1027.47 -0.783994 -3.80099 0
M  V30 10551 H 1025.57 1.63942 -3.34595 0
M  V30 10552 H 1025.69 0.409571 -4.77346 0
M  V30 10553 H 1024.05 0.313988 -2.52757 0
M  V30 10554 H 1024.83 -1.21067 -3.21244 0
M  V30 10555 N 1027.28 1.57312 -0.0952337 0
M  V30 10556 C 1028.21 2.11059 0.893678 0
M  V30 10557 C 1029.22 1.04787 1.24594 0
M  V30 10558 O 1030.41 1.32233 1.19903 0
M  V30 10559 C 1027.51 2.57552 2.20272 0
M  V30 10560 C 1026.69 3.87661 2.02578 0
M  V30 10561 C 1025.75 4.2 3.16996 0
M  V30 10562 O 1024.77 4.89219 2.90953 0
M  V30 10563 N 1025.97 3.75414 4.42769 0
M  V30 10564 H 1028.74 2.96532 0.434632 0
M  V30 10565 H 1026.3 1.6165 0.0898661 0
M  V30 10566 H 1028.29 2.76232 2.95766 0
M  V30 10567 H 1026.86 1.7709 2.576 0
M  V30 10568 H 1026.08 3.78128 1.11413 0
M  V30 10569 H 1027.37 4.7278 1.88032 0
M  V30 10570 H 1026.77 3.1954 4.66809 0
M  V30 10571 H 1025.32 3.99249 5.15212 0
M  V30 10572 N 1028.76 -0.17846 1.56586 0
M  V30 10573 C 1029.67 -1.24115 1.9908 0
M  V30 10574 C 1030.68 -1.48854 0.901031 0
M  V30 10575 O 1031.86 -1.61142 1.2081 0
M  V30 10576 C 1028.92 -2.56187 2.33601 0
M  V30 10577 C 1027.99 -2.39373 3.56369 0
M  V30 10578 C 1027.22 -3.65147 3.89234 0
M  V30 10579 O 1027.44 -4.70024 3.23162 0
M  V30 10580 O 1026.38 -3.59683 4.82609 0
M  V30 10581 H 1030.2 -0.910482 2.89731 0
M  V30 10582 H 1027.79 -0.38477 1.4436 0
M  V30 10583 H 1029.67 -3.34109 2.56806 0
M  V30 10584 H 1028.34 -2.88847 1.46113 0
M  V30 10585 H 1027.25 -1.59506 3.38391 0
M  V30 10586 H 1028.58 -2.1164 4.44375 0
M  V30 10587 N 1030.24 -1.51135 -0.446768 0
M  V30 10588 C 1031.17 -1.67949 -1.55967 0
M  V30 10589 C 1032.18 -0.560337 -1.52853 0
M  V30 10590 O 1033.37 -0.83435 -1.578 0
M  V30 10591 C 1030.47 -1.6703 -2.9488 0
M  V30 10592 C 1029.64 -2.95377 -3.22601 0
M  V30 10593 C 1028.7 -2.86772 -4.4119 0
M  V30 10594 O 1027.73 -3.60722 -4.40304 0
M  V30 10595 N 1028.93 -2.01979 -5.44228 0
M  V30 10596 H 1031.69 -2.63951 -1.41951 0
M  V30 10597 H 1029.26 -1.48903 -0.635569 0
M  V30 10598 H 1031.25 -1.58854 -3.7222 0
M  V30 10599 H 1029.82 -0.786623 -3.02541 0
M  V30 10600 H 1029.04 -3.17494 -2.33647 0
M  V30 10601 H 1030.33 -3.80356 -3.37945 0
M  V30 10602 H 1029.72 -1.41257 -5.4778 0
M  V30 10603 H 1028.28 -1.99689 -6.20457 0
M  V30 10604 N 1031.71 0.701592 -1.41122 0
M  V30 10605 C 1032.68 1.79733 -1.42227 0
M  V30 10606 C 1033.68 1.57708 -0.313831 0
M  V30 10607 O 1034.87 1.64492 -0.573423 0
M  V30 10608 C 1032 3.18024 -1.22775 0
M  V30 10609 H 1033.19 1.80148 -2.39764 0
M  V30 10610 H 1030.74 0.908624 -1.27176 0
M  V30 10611 H 1031.48 3.23252 -0.260552 0
M  V30 10612 H 1031.26 3.35411 -2.0308 0
M  V30 10613 H 1032.75 3.98021 -1.2637 0
M  V30 10614 N 1033.19 1.2685 0.935242 0
M  V30 10615 C 1034.42 1.15538 1.71635 0
M  V30 10616 C 1034.83 -0.288698 1.8658 0
M  V30 10617 O 1034.19 -1.19721 1.37743 0
M  V30 10618 C 1034.24 1.8259 3.11999 0
M  V30 10619 O 1033.96 3.21355 2.97763 0
M  V30 10620 C 1035.46 1.77307 4.06297 0
M  V30 10621 H 1032.68 0.402055 0.537208 0
M  V30 10622 H 1035.23 1.67582 1.17203 0
M  V30 10623 H 1033.38 1.3447 3.63313 0
M  V30 10624 H 1033.8 3.54626 3.86446 0
M  V30 10625 H 1035.27 2.28851 5.02326 0
M  V30 10626 H 1035.75 0.740823 4.32907 0
M  V30 10627 H 1036.35 2.25007 3.60904 0
M  V30 10628 N 1034.67 -1.14067 1.0875 0
M  V30 10629 C 1035.95 -1.81389 0.73195 0
M  V30 10630 C 1036.33 -1.96005 -0.78391 0
M  V30 10631 O 1035.68 -1.52267 -1.70373 0
M  V30 10632 C 1035.89 -3.16858 1.46294 0
M  V30 10633 C 1037.23 -3.92305 1.62426 0
M  V30 10634 O 1038.26 -3.26459 1.42488 0
M  V30 10635 O 1037.12 -5.10393 1.9535 0
M  V30 10636 H 1034.21 -0.784354 0.262141 0
M  V30 10637 H 1036.76 -1.21054 1.18929 0
M  V30 10638 H 1035.53 -3.01404 2.49542 0
M  V30 10639 H 1035.15 -3.84889 0.997318 0
M  V30 10640 N 1036.15 -0.873678 -1.31166 0
M  V30 10641 C 1037.56 -0.53852 -1.78765 0
M  V30 10642 C 1037.91 0.944765 -1.71955 0
M  V30 10643 O 1037.04 1.73781 -1.28954 0
M  V30 10644 C 1037.63 -0.970749 -3.24595 0
M  V30 10645 C 1036.19 -0.687189 -3.70074 0
M  V30 10646 C 1035.34 -1.16001 -2.51871 0
M  V30 10647 H 1038.29 -1.05903 -1.18196 0
M  V30 10648 H 1038.31 -0.294966 -3.79355 0
M  V30 10649 H 1037.82 -2.05034 -3.29519 0
M  V30 10650 H 1035.92 0.380881 -3.70648 0
M  V30 10651 H 1036.03 -1.26682 -4.62048 0
M  V30 10652 H 1034.4 -0.579663 -2.48016 0
M  V30 10653 H 1035.18 -2.2471 -2.59539 0
M  V30 10654 N 1037.63 1.44308 -0.633487 0
M  V30 10655 C 1038.56 2.33431 0.0568402 0
M  V30 10656 C 1039.54 1.48342 0.832386 0
M  V30 10657 O 1040.72 1.77056 0.797798 0
M  V30 10658 C 1037.85 3.31443 1.03743 0
M  V30 10659 C 1036.81 4.26368 0.373362 0
M  V30 10660 C 1036.13 5.14267 1.46403 0
M  V30 10661 C 1037.43 5.17287 -0.721876 0
M  V30 10662 H 1039.13 2.91402 -0.687388 0
M  V30 10663 H 1036.67 1.4012 -0.332009 0
M  V30 10664 H 1038.63 3.92677 1.52913 0
M  V30 10665 H 1037.35 2.71686 1.81258 0
M  V30 10666 H 1036.01 3.6647 -0.0977053 0
M  V30 10667 H 1035.66 4.50861 2.23011 0
M  V30 10668 H 1035.36 5.7859 1.02506 0
M  V30 10669 H 1036.88 5.78373 1.95748 0
M  V30 10670 H 1038.29 5.72444 -0.313181 0
M  V30 10671 H 1036.69 5.90226 -1.08413 0
M  V30 10672 H 1037.76 4.58159 -1.58804 0
M  V30 10673 N 1039.1 0.374177 1.53094 0
M  V30 10674 C 1040.35 -0.213131 2.01677 0
M  V30 10675 C 1040.68 -1.47715 1.26071 0
M  V30 10676 O 1039.96 -1.91199 0.356834 0
M  V30 10677 C 1040.24 -0.496392 3.56662 0
M  V30 10678 C 1040.09 0.781859 4.42953 0
M  V30 10679 C 1041.41 -1.29339 4.20666 0
M  V30 10680 H 1038.53 -0.0759885 0.733072 0
M  V30 10681 H 1041.17 0.500765 1.83282 0
M  V30 10682 H 1039.32 -1.10455 3.72467 0
M  V30 10683 H 1041 1.41914 4.38928 0
M  V30 10684 H 1039.24 1.40041 4.10574 0
M  V30 10685 H 1039.91 0.538508 5.49367 0
M  V30 10686 H 1042.39 -0.778848 4.08746 0
M  V30 10687 H 1041.26 -1.46033 5.29118 0
M  V30 10688 H 1041.52 -2.30435 3.77296 0
M  V30 10689 N 1040.58 -1.57259 0.103575 0
M  V30 10690 C 1041.86 -1.86143 -0.600852 0
M  V30 10691 C 1042.24 -1.00198 -1.85805 0
M  V30 10692 O 1041.59 -0.0766791 -2.28371 0
M  V30 10693 C 1041.8 -3.36978 -0.908108 0
M  V30 10694 C 1043.15 -4.05228 -1.26788 0
M  V30 10695 O 1044.17 -3.41908 -0.998859 0
M  V30 10696 O 1043.03 -5.16971 -1.7721 0
M  V30 10697 H 1040.12 -0.770064 -0.301547 0
M  V30 10698 H 1042.67 -1.69147 0.136914 0
M  V30 10699 H 1041.44 -3.91296 -0.0165615 0
M  V30 10700 H 1041.06 -3.5935 -1.70156 0
M  V30 10701 N 1042.06 0.170153 -1.56679 0
M  V30 10702 C 1043.29 0.90618 -1.86556 0
M  V30 10703 C 1043.71 1.74986 -0.690044 0
M  V30 10704 O 1043.07 1.77672 0.360862 0
M  V30 10705 C 1043.12 1.75777 -3.14857 0
M  V30 10706 O 1042.22 2.85952 -2.97162 0
M  V30 10707 H 1041.56 0.253781 -0.613589 0
M  V30 10708 H 1044.09 0.167943 -2.0391 0
M  V30 10709 H 1044.1 2.15747 -3.46291 0
M  V30 10710 H 1042.78 1.13807 -4.00026 0
M  V30 10711 H 1041.35 2.49557 -2.77084 0
M  V30 10712 N 1043.54 1.5137 0.438746 0
M  V30 10713 C 1044.47 1.75528 1.53987 0
M  V30 10714 C 1045.45 0.605067 1.58975 0
M  V30 10715 O 1046.63 0.847634 1.74725 0
M  V30 10716 C 1043.76 1.87904 2.92078 0
M  V30 10717 C 1042.72 3.0333 3.01951 0
M  V30 10718 C 1042.04 3.00888 4.42007 0
M  V30 10719 C 1043.34 4.43319 2.76163 0
M  V30 10720 H 1045.04 2.67728 1.34022 0
M  V30 10721 H 1042.58 1.28831 0.643308 0
M  V30 10722 H 1044.54 2.03388 3.69068 0
M  V30 10723 H 1043.26 0.923514 3.13271 0
M  V30 10724 H 1041.92 2.87549 2.274 0
M  V30 10725 H 1041.57 2.03116 4.60166 0
M  V30 10726 H 1041.27 3.78397 4.49544 0
M  V30 10727 H 1042.79 3.18464 5.20973 0
M  V30 10728 H 1044.21 4.59458 3.42887 0
M  V30 10729 H 1042.6 5.22523 2.9511 0
M  V30 10730 H 1043.67 4.53453 1.71779 0
M  V30 10731 N 1045.02 -0.694098 1.41492 0
M  V30 10732 C 1046.26 -1.45127 1.4065 0
M  V30 10733 C 1046.59 -1.94993 0.0170289 0
M  V30 10734 O 1045.86 -1.71799 -0.941372 0
M  V30 10735 H 1044.44 -0.538493 0.51772 0
M  V30 10736 H 1047.1 -0.821441 1.76744 0
M  V30 10737 H 1046.19 -2.31372 2.0946 0
M  V30 10738 N 1046.49 -1.27344 -0.928501 0
M  V30 10739 C 1047.72 -1.16557 -1.7155 0
M  V30 10740 C 1048.14 0.274044 -1.86093 0
M  V30 10741 O 1047.5 1.19847 -1.36038 0
M  V30 10742 C 1047.55 -1.85332 -3.09329 0
M  V30 10743 O 1046.65 -1.15074 -3.9602 0
M  V30 10744 H 1046 -0.405423 -0.525859 0
M  V30 10745 H 1048.53 -1.68399 -1.16202 0
M  V30 10746 H 1048.54 -1.92659 -3.59648 0
M  V30 10747 H 1047.21 -2.90056 -2.98061 0
M  V30 10748 H 1045.79 -1.1581 -3.54461 0
M  V30 10749 N 1047.97 1.13488 -1.09353 0
M  V30 10750 C 1049.22 1.84383 -0.827488 0
M  V30 10751 C 1049.54 1.83892 0.648745 0
M  V30 10752 O 1048.81 1.29415 1.47066 0
M  V30 10753 H 1047.39 0.682732 -0.303127 0
M  V30 10754 H 1050.05 1.37477 -1.38152 0
M  V30 10755 H 1049.15 2.88919 -1.18035 0
M  V30 10756 N 1049.45 0.880621 1.30701 0
M  V30 10757 C 1050.7 0.492957 1.95583 0
M  V30 10758 C 1051.01 -0.961863 1.70316 0
M  V30 10759 O 1052.22 -1.45617 2.29146 0
M  V30 10760 C 1050.68 0.830656 3.50183 0
M  V30 10761 C 1050.28 2.30295 3.84276 0
M  V30 10762 C 1052.03 0.511979 4.21401 0
M  V30 10763 C 1049.93 2.58251 5.32034 0
M  V30 10764 H 1048.86 0.18062 0.732047 0
M  V30 10765 H 1051.52 1.075 1.48715 0
M  V30 10766 H 1049.9 0.177752 3.95601 0
M  V30 10767 H 1051.07 2.99981 3.49783 0
M  V30 10768 H 1049.39 2.58873 3.2615 0
M  V30 10769 H 1051.98 0.697935 5.30125 0
M  V30 10770 H 1052.33 -0.548327 4.12673 0
M  V30 10771 H 1052.86 1.12189 3.81652 0
M  V30 10772 H 1049.6 3.63005 5.45809 0
M  V30 10773 H 1049.12 1.9317 5.67843 0
M  V30 10774 H 1050.8 2.43527 5.99419 0
M  V30 10775 N 1050.93 -1.4397 0.641131 0
M  V30 10776 C 1052.18 -2.02246 0.14985 0
M  V30 10777 C 1052.51 -1.50387 -1.22871 0
M  V30 10778 O 1051.78 -0.692003 -1.81773 0
M  V30 10779 C 1052.07 -3.59798 0.147449 0
M  V30 10780 C 1051.92 -4.21916 1.55907 0
M  V30 10781 C 1053.24 -4.36985 -0.522667 0
M  V30 10782 H 1050.36 -0.734875 0.0559274 0
M  V30 10783 H 1053 -1.71418 0.819513 0
M  V30 10784 H 1051.15 -3.86193 -0.422789 0
M  V30 10785 H 1052.82 -4.06594 2.17896 0
M  V30 10786 H 1051.06 -3.79028 2.10998 0
M  V30 10787 H 1051.74 -5.30964 1.50934 0
M  V30 10788 H 1054.21 -4.16083 -0.0376226 0
M  V30 10789 H 1053.09 -5.46676 -0.493572 0
M  V30 10790 H 1053.35 -4.12335 -1.59475 0
M  V30 10791 N 1052.41 -0.382291 -1.52893 0
M  V30 10792 C 1053.64 0.202114 -2.05609 0
M  V30 10793 C 1054.05 1.4164 -1.25438 0
M  V30 10794 O 1053.39 1.81359 -0.292324 0
M  V30 10795 C 1053.45 0.64356 -3.53693 0
M  V30 10796 C 1053.11 -0.456305 -4.54716 0
M  V30 10797 C 1054.11 -1.3115 -5.03086 0
M  V30 10798 C 1051.8 -0.621329 -4.98442 0
M  V30 10799 C 1053.79 -2.3169 -5.938 0
M  V30 10800 C 1051.48 -1.63008 -5.88958 0
M  V30 10801 C 1052.48 -2.47629 -6.36529 0
M  V30 10802 O 1052.16 -3.46781 -7.25257 0
M  V30 10803 H 1051.9 0.0358014 -0.675051 0
M  V30 10804 H 1054.45 -0.543935 -1.98067 0
M  V30 10805 H 1052.68 1.44148 -3.58829 0
M  V30 10806 H 1054.37 1.15284 -3.89184 0
M  V30 10807 H 1055.13 -1.19528 -4.70041 0
M  V30 10808 H 1051.01 0.027593 -4.60992 0
M  V30 10809 H 1054.56 -2.97776 -6.30853 0
M  V30 10810 H 1050.45 -1.74671 -6.21418 0
M  V30 10811 H 1051.22 -3.42707 -7.433 0
M  V30 10812 N 1053.89 1.57202 -0.111913 0
M  V30 10813 C 1055.11 1.99723 0.559054 0
M  V30 10814 C 1055.54 0.990968 1.59879 0
M  V30 10815 O 1054.89 -0.038311 1.8126 0
M  V30 10816 C 1054.94 3.41151 1.16826 0
M  V30 10817 O 1054.05 3.43383 2.2839 0
M  V30 10818 H 1053.39 0.649004 0.140319 0
M  V30 10819 H 1055.92 2.03637 -0.198295 0
M  V30 10820 H 1055.93 3.79208 1.50551 0
M  V30 10821 H 1054.6 4.13907 0.406637 0
M  V30 10822 H 1053.18 3.17138 1.96158 0
M  V30 10823 N 1055.36 -0.161842 1.56767 0
M  V30 10824 C 1056.33 -1.18404 1.96247 0
M  V30 10825 C 1057.33 -1.3667 0.84722 0
M  V30 10826 O 1058.52 -1.33915 1.11411 0
M  V30 10827 C 1055.65 -2.54728 2.26553 0
M  V30 10828 H 1056.84 -0.845703 2.87729 0
M  V30 10829 H 1054.39 -0.404645 1.50971 0
M  V30 10830 H 1055.13 -2.93559 1.37816 0
M  V30 10831 H 1054.91 -2.42834 3.07854 0
M  V30 10832 H 1056.4 -3.28378 2.57987 0
M  V30 10833 N 1056.84 -1.516 -0.430713 0
M  V30 10834 C 1057.77 -1.76342 -1.53054 0
M  V30 10835 C 1058.75 -0.61349 -1.58652 0
M  V30 10836 O 1059.94 -0.856888 -1.74273 0
M  V30 10837 C 1057.07 -1.8945 -2.91077 0
M  V30 10838 C 1056.02 -3.04928 -3.00339 0
M  V30 10839 C 1055.35 -3.03228 -4.40405 0
M  V30 10840 C 1056.65 -4.44777 -2.73808 0
M  V30 10841 H 1058.34 -2.68435 -1.326 0
M  V30 10842 H 1055.89 -1.29171 -0.636466 0
M  V30 10843 H 1057.84 -2.05343 -3.67984 0
M  V30 10844 H 1056.56 -0.940114 -3.12777 0
M  V30 10845 H 1055.22 -2.88751 -2.25872 0
M  V30 10846 H 1054.87 -2.05553 -4.59083 0
M  V30 10847 H 1054.57 -3.80776 -4.47531 0
M  V30 10848 H 1056.1 -3.21222 -5.19277 0
M  V30 10849 H 1057.51 -4.6127 -3.40445 0
M  V30 10850 H 1055.91 -5.2408 -2.92335 0
M  V30 10851 H 1056.98 -4.54358 -1.69372 0
M  V30 10852 N 1058.32 0.686584 -1.41858 0
M  V30 10853 C 1059.55 1.47519 -1.45072 0
M  V30 10854 C 1059.96 1.88709 -0.0585868 0
M  V30 10855 O 1059.32 1.57373 0.924116 0
M  V30 10856 C 1059.37 2.73195 -2.36742 0
M  V30 10857 O 1059.09 2.33736 -3.70539 0
M  V30 10858 C 1060.59 3.66861 -2.48854 0
M  V30 10859 H 1057.81 0.454307 -0.493808 0
M  V30 10860 H 1060.36 0.844612 -1.86243 0
M  V30 10861 H 1058.51 3.32468 -1.98856 0
M  V30 10862 H 1058.93 3.14809 -4.19518 0
M  V30 10863 H 1060.4 4.51801 -3.17143 0
M  V30 10864 H 1060.88 4.11961 -1.52265 0
M  V30 10865 H 1061.48 3.13486 -2.87414 0
M  V30 10866 N 1059.8 1.27835 0.921735 0
M  V30 10867 C 1061.04 1.15766 1.68457 0
M  V30 10868 C 1061.4 -0.290542 1.89789 0
M  V30 10869 O 1062.6 -0.53378 2.63447 0
M  V30 10870 C 1060.87 1.92591 3.0107 0
M  V30 10871 S 1062.43 1.96804 3.92191 0
M  V30 10872 H 1059.25 0.413169 0.578629 0
M  V30 10873 H 1061.85 1.61826 1.09693 0
M  V30 10874 H 1060.56 2.96991 2.8324 0
M  V30 10875 H 1060.09 1.47049 3.64884 0
M  V30 10876 H 1062.1 1.06877 4.84553 0
M  V30 10877 N 1061.28 -1.12907 1.09954 0
M  V30 10878 C 1062.23 -2.16558 0.713204 0
M  V30 10879 C 1063.21 -1.5853 -0.27515 0
M  V30 10880 O 1064.4 -1.76797 -0.0846643 0
M  V30 10881 C 1061.53 -3.43009 0.141224 0
M  V30 10882 C 1060.62 -4.08032 1.15632 0
M  V30 10883 N 1061.01 -4.48139 2.34531 0
M  V30 10884 C 1059.31 -4.34743 0.995701 0
M  V30 10885 C 1060.01 -4.98885 2.99147 0
M  V30 10886 N 1058.98 -4.9408 2.26684 0
M  V30 10887 H 1062.78 -2.45328 1.61838 0
M  V30 10888 H 1060.3 -1.29759 0.976539 0
M  V30 10889 H 1062.3 -4.16617 -0.153598 0
M  V30 10890 H 1060.96 -3.15711 -0.758729 0
M  V30 10891 H 1061.97 -4.40668 2.72089 0
M  V30 10892 H 1058.64 -4.17227 0.150888 0
M  V30 10893 H 1060.03 -5.3967 4.00257 0
M  V30 10894 N 1062.75 -0.88754 -1.30232 0
M  V30 10895 C 1063.68 -0.372481 -2.3051 0
M  V30 10896 C 1064.66 0.546037 -1.61098 0
M  V30 10897 O 1065.85 0.459345 -1.88689 0
M  V30 10898 C 1062.98 0.411605 -3.44852 0
M  V30 10899 C 1061.93 -0.415383 -4.2598 0
M  V30 10900 C 1061.26 0.495463 -5.324 0
M  V30 10901 C 1062.56 -1.65886 -4.95257 0
M  V30 10902 H 1064.25 -1.21045 -2.7384 0
M  V30 10903 H 1061.8 -0.583498 -1.31648 0
M  V30 10904 H 1063.75 0.782584 -4.1407 0
M  V30 10905 H 1062.48 1.28325 -3.00334 0
M  V30 10906 H 1061.14 -0.768534 -3.58454 0
M  V30 10907 H 1060.78 1.36489 -4.84128 0
M  V30 10908 H 1060.48 -0.0540885 -5.87575 0
M  V30 10909 H 1062.01 0.862901 -6.04472 0
M  V30 10910 H 1063.42 -1.35832 -5.56976 0
M  V30 10911 H 1061.82 -2.14881 -5.60309 0
M  V30 10912 H 1062.89 -2.40181 -4.21237 0
M  V30 10913 N 1064.23 1.43628 -0.648757 0
M  V30 10914 C 1065.47 2.03742 -0.163878 0
M  V30 10915 C 1065.84 1.50047 1.19791 0
M  V30 10916 O 1067.04 2.01777 1.77594 0
M  V30 10917 C 1065.31 3.57001 -0.168849 0
M  V30 10918 S 1066.87 4.38094 0.248835 0
M  V30 10919 H 1063.69 0.70757 -0.0697515 0
M  V30 10920 H 1066.29 1.75759 -0.856094 0
M  V30 10921 H 1064.99 3.93583 -1.16277 0
M  V30 10922 H 1064.52 3.8962 0.544048 0
M  V30 10923 H 1066.54 4.73338 1.48882 0
M  V30 10924 N 1065.71 0.390394 1.52688 0
M  V30 10925 C 1066.96 -0.191067 2.01195 0
M  V30 10926 C 1067.28 -1.47229 1.27862 0
M  V30 10927 O 1066.55 -1.91793 0.399007 0
M  V30 10928 H 1065.13 -0.073596 0.743366 0
M  V30 10929 H 1067.79 0.522334 1.8777 0
M  V30 10930 H 1066.89 -0.40051 3.0952 0
M  V30 10931 N 1067.19 -1.57141 0.120249 0
M  V30 10932 C 1068.14 -2.11936 -0.84067 0
M  V30 10933 C 1069.12 -1.04044 -1.22734 0
M  V30 10934 O 1070.31 -1.30275 -1.19822 0
M  V30 10935 C 1067.44 -2.72332 -2.09023 0
M  V30 10936 C 1066.53 -3.87306 -1.72786 0
M  V30 10937 N 1066.92 -4.94302 -1.07232 0
M  V30 10938 C 1065.22 -3.97513 -2.02236 0
M  V30 10939 C 1065.92 -5.7467 -0.901626 0
M  V30 10940 N 1064.9 -5.24535 -1.42702 0
M  V30 10941 H 1068.7 -2.92038 -0.330308 0
M  V30 10942 H 1066.21 -1.62192 -0.0821814 0
M  V30 10943 H 1068.21 -3.09932 -2.78833 0
M  V30 10944 H 1066.87 -1.93693 -2.60601 0
M  V30 10945 H 1067.88 -5.12641 -0.736158 0
M  V30 10946 H 1064.56 -3.29917 -2.55853 0
M  V30 10947 H 1065.95 -6.70785 -0.386974 0
M  V30 10948 N 1068.67 0.153526 -1.5685 0
M  V30 10949 C 1069.6 1.19162 -2.00805 0
M  V30 10950 C 1070.58 1.45172 -0.886518 0
M  V30 10951 O 1071.76 1.56203 -1.15387 0
M  V30 10952 C 1068.89 2.52637 -2.38311 0
M  V30 10953 C 1067.85 2.41161 -3.53589 0
M  V30 10954 C 1067.17 3.79287 -3.76889 0
M  V30 10955 C 1068.47 1.90122 -4.86468 0
M  V30 10956 H 1070.17 0.82617 -2.87776 0
M  V30 10957 H 1067.71 0.395972 -1.38449 0
M  V30 10958 H 1069.67 3.25478 -2.6766 0
M  V30 10959 H 1068.39 2.91005 -1.4827 0
M  V30 10960 H 1067.05 1.70772 -3.24395 0
M  V30 10961 H 1066.7 4.15079 -2.84109 0
M  V30 10962 H 1066.4 3.72472 -4.54465 0
M  V30 10963 H 1067.92 4.53687 -4.08657 0
M  V30 10964 H 1069.33 2.52752 -5.14577 0
M  V30 10965 H 1067.73 1.94214 -5.67804 0
M  V30 10966 H 1068.8 0.856517 -4.77275 0
M  V30 10967 N 1070.14 1.51827 0.422667 0
M  V30 10968 C 1071.09 1.74198 1.51406 0
M  V30 10969 C 1072.06 0.584013 1.55494 0
M  V30 10970 O 1073.25 0.820079 1.72277 0
M  V30 10971 C 1070.39 1.88627 2.88988 0
M  V30 10972 C 1069.5 3.16233 2.94314 0
M  V30 10973 C 1068.63 3.21172 4.2311 0
M  V30 10974 C 1067.67 4.43033 4.2236 0
M  V30 10975 N 1066.81 4.4544 5.42704 0
M  V30 10976 H 1071.65 2.67352 1.31632 0
M  V30 10977 H 1069.19 1.32487 0.63919 0
M  V30 10978 H 1071.15 1.94976 3.68837 0
M  V30 10979 H 1069.78 0.988673 3.07287 0
M  V30 10980 H 1068.83 3.19123 2.07039 0
M  V30 10981 H 1070.14 4.06104 2.89623 0
M  V30 10982 H 1069.29 3.26517 5.11343 0
M  V30 10983 H 1068.03 2.29216 4.30478 0
M  V30 10984 H 1067.04 4.37849 3.32518 0
M  V30 10985 H 1068.26 5.3627 4.16643 0
M  V30 10986 H 1066.21 3.56361 5.50766 0
M  V30 10987 H 1066.13 5.29138 5.39953 0
M  V30 10988 H 1067.39 4.54997 6.32928 0
M  V30 10989 N 1071.62 -0.679052 1.4222 0
M  V30 10990 C 1072.55 -1.80455 1.41311 0
M  V30 10991 C 1073.57 -1.59767 0.312799 0
M  V30 10992 O 1074.76 -1.68964 0.575612 0
M  V30 10993 C 1071.86 -3.17492 1.18541 0
M  V30 10994 C 1071.03 -3.65066 2.40926 0
M  V30 10995 C 1070.09 -4.80823 2.13765 0
M  V30 10996 O 1069.11 -4.91587 2.86934 0
M  V30 10997 N 1070.32 -5.69233 1.13813 0
M  V30 10998 H 1073.08 -1.81722 2.38322 0
M  V30 10999 H 1070.64 -0.861988 1.37045 0
M  V30 11000 H 1072.63 -3.92581 0.982958 0
M  V30 11001 H 1071.2 -3.1115 0.300691 0
M  V30 11002 H 1070.42 -2.80702 2.76767 0
M  V30 11003 H 1071.71 -3.93593 3.22431 0
M  V30 11004 H 1071.11 -5.63185 0.532887 0
M  V30 11005 H 1069.67 -6.44152 0.995554 0
M  V30 11006 N 1073.1 -1.28322 -0.914942 0
M  V30 11007 C 1074.34 -1.16657 -1.6784 0
M  V30 11008 C 1074.7 0.280473 -1.8994 0
M  V30 11009 O 1075.91 0.519801 -2.63726 0
M  V30 11010 C 1074.18 -1.94185 -3.00045 0
M  V30 11011 S 1075.74 -1.98881 -3.91141 0
M  V30 11012 H 1072.55 -0.416232 -0.57643 0
M  V30 11013 H 1075.16 -1.62405 -1.08834 0
M  V30 11014 H 1073.86 -2.98488 -2.81661 0
M  V30 11015 H 1073.39 -1.48982 -3.64099 0
M  V30 11016 H 1075.41 -1.09445 -4.8398 0
M  V30 11017 N 1074.58 1.12322 -1.10551 0
M  V30 11018 C 1075.53 2.16177 -0.724679 0
M  V30 11019 C 1076.51 1.58674 0.266739 0
M  V30 11020 O 1077.7 1.7684 0.0752872 0
M  V30 11021 C 1074.83 3.4293 -0.159413 0
M  V30 11022 C 1073.92 4.07413 -1.17794 0
M  V30 11023 N 1074.31 4.46889 -2.36905 0
M  V30 11024 C 1072.61 4.34209 -1.01874 0
M  V30 11025 C 1073.31 4.97291 -3.01789 0
M  V30 11026 N 1072.29 4.92871 -2.29302 0
M  V30 11027 H 1076.09 2.44466 -1.63136 0
M  V30 11028 H 1073.6 1.2924 -0.983407 0
M  V30 11029 H 1075.6 4.16693 0.131502 0
M  V30 11030 H 1074.26 3.16109 0.741975 0
M  V30 11031 H 1075.27 4.39219 -2.74422 0
M  V30 11032 H 1071.95 4.17141 -0.173013 0
M  V30 11033 H 1073.34 5.3754 -4.03114 0
M  V30 11034 N 1076.06 0.894434 1.2976 0
M  V30 11035 C 1077.3 0.516646 1.95385 0
M  V30 11036 C 1077.63 -0.939141 1.70895 0
M  V30 11037 O 1076.9 -1.66153 1.03778 0
M  V30 11038 H 1075.48 0.188072 0.722937 0
M  V30 11039 H 1078.14 1.13958 1.58113 0
M  V30 11040 H 1077.23 0.694819 3.04267 0
M  V30 11041 N 1077.53 -1.43282 0.656365 0
M  V30 11042 C 1078.47 -2.29087 -0.0720378 0
M  V30 11043 C 1079.48 -1.4268 -0.783982 0
M  V30 11044 O 1080.67 -1.66585 -0.641213 0
M  V30 11045 C 1077.77 -3.19676 -1.12519 0
M  V30 11046 C 1076.94 -4.34638 -0.490756 0
M  V30 11047 C 1076 -5.06079 -1.44121 0
M  V30 11048 O 1075.03 -5.6124 -0.948595 0
M  V30 11049 N 1076.23 -5.09872 -2.77509 0
M  V30 11050 H 1078.99 -2.92241 0.664456 0
M  V30 11051 H 1076.55 -1.54006 0.499383 0
M  V30 11052 H 1078.55 -3.64334 -1.76189 0
M  V30 11053 H 1077.12 -2.581 -1.76362 0
M  V30 11054 H 1076.34 -3.92857 0.3251 0
M  V30 11055 H 1077.62 -5.08777 -0.0480061 0
M  V30 11056 H 1077.02 -4.66433 -3.20088 0
M  V30 11057 H 1075.58 -5.58237 -3.36474 0
M  V30 11058 N 1079.01 -0.398486 -1.52479 0
M  V30 11059 C 1079.92 0.439328 -2.3045 0
M  V30 11060 C 1080.94 1.06322 -1.37738 0
M  V30 11061 O 1082.12 1.06704 -1.7081 0
M  V30 11062 C 1079.18 1.54655 -3.10294 0
M  V30 11063 C 1078.24 0.946824 -4.18729 0
M  V30 11064 C 1077.47 2.00129 -4.94757 0
M  V30 11065 O 1077.7 3.2178 -4.70971 0
M  V30 11066 O 1076.63 1.61345 -5.79872 0
M  V30 11067 H 1080.46 -0.196118 -3.03066 0
M  V30 11068 H 1078.04 -0.161961 -1.4852 0
M  V30 11069 H 1079.92 2.18958 -3.60049 0
M  V30 11070 H 1078.6 2.1668 -2.40482 0
M  V30 11071 H 1077.51 0.266802 -3.73147 0
M  V30 11072 H 1078.84 0.370664 -4.90802 0
M  V30 11073 N 1080.49 1.57075 -0.12858 0
M  V30 11074 C 1081.77 1.87075 0.571162 0
M  V30 11075 C 1082.15 1.03141 1.84188 0
M  V30 11076 O 1081.5 0.113001 2.2822 0
M  V30 11077 C 1081.71 3.3838 0.854383 0
M  V30 11078 C 1083.05 4.07194 1.20326 0
M  V30 11079 O 1084.08 3.43454 0.944338 0
M  V30 11080 O 1082.94 5.19725 1.68963 0
M  V30 11081 H 1080.03 0.774764 0.289258 0
M  V30 11082 H 1082.58 1.68908 -0.163806 0
M  V30 11083 H 1081.35 3.91273 -0.0456925 0
M  V30 11084 H 1080.97 3.62012 1.64418 0
M  V30 11085 N 1081.97 -0.145205 1.5693 0
M  V30 11086 C 1083.22 -0.855822 1.83085 0
M  V30 11087 C 1083.54 -1.81625 0.709747 0
M  V30 11088 O 1082.81 -1.94052 -0.268456 0
M  V30 11089 H 1081.39 -0.319032 0.675446 0
M  V30 11090 H 1084.05 -0.138781 1.94405 0
M  V30 11091 H 1083.15 -1.41698 2.78079 0
M  V30 11092 N 1083.45 -1.52049 -0.414609 0
M  V30 11093 C 1084.7 -1.65511 -1.15977 0
M  V30 11094 C 1085.02 -0.384703 -1.91168 0
M  V30 11095 O 1084.29 0.600247 -1.86477 0
M  V30 11096 H 1082.87 -0.610039 -0.431116 0
M  V30 11097 H 1085.53 -1.8907 -0.473139 0
M  V30 11098 H 1084.62 -2.4936 -1.87686 0
M  V30 11099 N 1084.93 0.6715 -1.42579 0
M  V30 11100 C 1085.86 1.79703 -1.42266 0
M  V30 11101 C 1086.87 1.59599 -0.321268 0
M  V30 11102 O 1088.06 1.68657 -0.584564 0
M  V30 11103 C 1085.16 3.16859 -1.20224 0
M  V30 11104 C 1084.33 3.63783 -2.42859 0
M  V30 11105 C 1083.39 4.79683 -2.16312 0
M  V30 11106 O 1082.42 4.90058 -2.89537 0
M  V30 11107 N 1083.62 5.68622 -1.16831 0
M  V30 11108 H 1086.38 1.80455 -2.39282 0
M  V30 11109 H 1083.95 0.854708 -1.375 0
M  V30 11110 H 1085.94 3.92054 -1.00376 0
M  V30 11111 H 1084.51 3.10987 -0.317188 0
M  V30 11112 H 1083.73 2.7923 -2.78252 0
M  V30 11113 H 1085.02 3.91877 -3.24514 0
M  V30 11114 H 1084.41 5.62894 -0.562746 0
M  V30 11115 H 1082.97 6.43615 -1.0297 0
M  V30 11116 N 1086.4 1.28806 0.908124 0
M  V30 11117 C 1087.63 1.19153 1.69146 0
M  V30 11118 C 1088.05 -0.249056 1.8715 0
M  V30 11119 O 1087.4 -1.16772 1.40251 0
M  V30 11120 C 1087.45 1.89167 3.08055 0
M  V30 11121 O 1087.18 3.27599 2.90879 0
M  V30 11122 C 1088.68 1.85886 4.02444 0
M  V30 11123 H 1085.9 0.413359 0.528559 0
M  V30 11124 H 1088.44 1.7003 1.13622 0
M  V30 11125 H 1086.6 1.42146 3.60379 0
M  V30 11126 H 1087.01 3.62743 3.78837 0
M  V30 11127 H 1088.48 2.39454 4.97359 0
M  V30 11128 H 1088.96 0.832483 4.31238 0
M  V30 11129 H 1089.57 2.32612 3.5605 0
M  V30 11130 N 1087.88 -1.11734 1.11145 0
M  V30 11131 C 1089.29 -1.64928 0.874959 0
M  V30 11132 C 1089.64 -1.87012 -0.593375 0
M  V30 11133 O 1088.77 -1.60206 -1.45475 0
M  V30 11134 C 1089.36 -2.99608 1.58178 0
M  V30 11135 C 1087.92 -3.49723 1.39179 0
M  V30 11136 C 1087.07 -2.24595 1.62642 0
M  V30 11137 H 1090.02 -0.954154 1.26813 0
M  V30 11138 H 1090.04 -3.66434 1.02501 0
M  V30 11139 H 1089.55 -2.83504 2.65042 0
M  V30 11140 H 1087.65 -3.70998 0.345111 0
M  V30 11141 H 1087.77 -4.28711 2.13878 0
M  V30 11142 H 1086.13 -2.32067 1.04961 0
M  V30 11143 H 1086.91 -2.11036 2.70774 0
M  V30 11144 N 1089.36 -0.901303 -1.29284 0
M  V30 11145 C 1090.61 -0.528826 -1.95784 0
M  V30 11146 C 1090.94 0.922833 -1.70873 0
M  V30 11147 O 1090.21 1.65448 -1.0226 0
M  V30 11148 C 1090.5 -0.823793 -3.50551 0
M  V30 11149 C 1090.35 -2.32727 -3.84913 0
M  V30 11150 C 1091.67 -0.311382 -4.38997 0
M  V30 11151 H 1088.79 -0.193604 -0.711116 0
M  V30 11152 H 1091.43 -1.12828 -1.52872 0
M  V30 11153 H 1089.58 -0.313612 -3.87232 0
M  V30 11154 H 1091.25 -2.90712 -3.58168 0
M  V30 11155 H 1089.49 -2.78735 -3.32399 0
M  V30 11156 H 1090.17 -2.48423 -4.9294 0
M  V30 11157 H 1092.64 -0.748265 -4.09317 0
M  V30 11158 H 1091.52 -0.546957 -5.46168 0
M  V30 11159 H 1091.78 0.787959 -4.35021 0
M  V30 11160 N 1090.84 1.42931 -0.663954 0
M  V30 11161 C 1091.77 2.28089 0.0710318 0
M  V30 11162 C 1092.75 1.40446 0.819375 0
M  V30 11163 O 1093.93 1.69887 0.816738 0
M  V30 11164 C 1091.06 3.20079 1.10756 0
M  V30 11165 C 1090.11 4.24055 0.456045 0
M  V30 11166 S 1090.94 5.29813 -0.778356 0
M  V30 11167 C 1092.09 6.25371 0.257373 0
M  V30 11168 H 1092.33 2.90078 -0.651315 0
M  V30 11169 H 1089.86 1.47601 -0.453137 0
M  V30 11170 H 1091.82 3.7362 1.70055 0
M  V30 11171 H 1090.48 2.57248 1.80229 0
M  V30 11172 H 1089.67 4.88564 1.23779 0
M  V30 11173 H 1089.27 3.73947 -0.0630832 0
M  V30 11174 H 1091.57 6.68172 1.12037 0
M  V30 11175 H 1092.51 7.0722 -0.352969 0
M  V30 11176 H 1092.92 5.61324 0.597991 0
M  V30 11177 N 1092.32 0.406567 1.52266 0
M  V30 11178 C 1093.28 -0.408251 2.25535 0
M  V30 11179 C 1094.28 -0.975795 1.27808 0
M  V30 11180 O 1095.47 -0.855077 1.5177 0
M  V30 11181 C 1092.6 -1.57443 3.02365 0
M  V30 11182 H 1093.79 0.233459 2.9899 0
M  V30 11183 H 1091.35 0.159032 1.55489 0
M  V30 11184 H 1092.08 -2.25308 2.33252 0
M  V30 11185 H 1091.87 -1.17399 3.74112 0
M  V30 11186 H 1093.36 -2.15088 3.57948 0
M  V30 11187 N 1093.79 -1.57004 0.136909 0
M  V30 11188 C 1095.02 -2.00587 -0.527209 0
M  V30 11189 C 1095.44 -1.01628 -1.58283 0
M  V30 11190 O 1094.8 0.00946934 -1.81298 0
M  V30 11191 C 1094.85 -3.42967 -1.11384 0
M  V30 11192 O 1093.95 -3.46973 -2.22898 0
M  V30 11193 H 1093.3 -0.651155 -0.129976 0
M  V30 11194 H 1095.83 -2.03296 0.230667 0
M  V30 11195 H 1095.84 -3.81555 -1.44499 0
M  V30 11196 H 1094.51 -4.14502 -0.340736 0
M  V30 11197 H 1093.09 -3.20219 -1.91087 0
M  V30 11198 N 1095.27 0.136881 -1.57004 0
M  V30 11199 C 1096.68 0.695911 -1.73245 0
M  V30 11200 C 1097.03 1.8118 -0.75288 0
M  V30 11201 O 1096.16 2.16258 0.0782477 0
M  V30 11202 C 1096.75 1.26914 -3.14131 0
M  V30 11203 C 1095.31 1.77463 -3.31939 0
M  V30 11204 C 1094.46 0.667128 -2.69156 0
M  V30 11205 H 1097.41 -0.0888841 -1.58451 0
M  V30 11206 H 1097.43 2.13892 -3.14691 0
M  V30 11207 H 1096.94 0.456754 -3.85403 0
M  V30 11208 H 1095.05 2.61236 -2.65681 0
M  V30 11209 H 1095.16 1.89638 -4.39971 0
M  V30 11210 H 1093.52 1.09629 -2.29899 0
M  V30 11211 H 1094.31 -0.13398 -3.43038 0
M  V30 11212 N 1096.75 1.52266 0.40654 0
M  V30 11213 C 1097.99 1.6813 1.16239 0
M  V30 11214 C 1098.35 0.403791 1.87706 0
M  V30 11215 O 1099.56 0.438566 2.65198 0
M  V30 11216 C 1097.83 2.87115 2.12837 0
M  V30 11217 S 1099.39 3.23475 2.96495 0
M  V30 11218 H 1096.2 0.59202 0.393743 0
M  V30 11219 H 1098.81 1.90266 0.449325 0
M  V30 11220 H 1097.51 3.78337 1.59026 0
M  V30 11221 H 1097.04 2.6726 2.88679 0
M  V30 11222 H 1099.06 2.72299 4.14811 0
M  V30 11223 N 1098.23 -0.663929 1.42933 0
M  V30 11224 C 1099.47 -1.43583 1.45476 0
M  V30 11225 C 1099.83 -1.91862 0.0728387 0
M  V30 11226 O 1101.03 -2.68786 -0.0270249 0
M  V30 11227 C 1099.3 -2.59316 2.45947 0
M  V30 11228 S 1100.86 -3.48004 2.6728 0
M  V30 11229 H 1097.68 -0.490261 0.514942 0
M  V30 11230 H 1100.28 -0.771834 1.79619 0
M  V30 11231 H 1098.99 -2.22104 3.45106 0
M  V30 11232 H 1098.52 -3.30577 2.13266 0
M  V30 11233 H 1100.53 -4.55677 1.96399 0
M  V30 11234 N 1099.71 -1.29285 -0.901281 0
M  V30 11235 C 1100.95 -1.16934 -1.64836 0
M  V30 11236 C 1101.28 0.279826 -1.92982 0
M  V30 11237 O 1100.55 1.19179 -1.55478 0
M  V30 11238 H 1099.13 -0.429768 -0.61099 0
M  V30 11239 H 1101.79 -1.62189 -1.08077 0
M  V30 11240 H 1100.88 -1.71821 -2.60545 0
M  V30 11241 N 1101.18 1.11143 -1.11736 0
M  V30 11242 C 1102.42 1.84576 -0.878119 0
M  V30 11243 C 1102.79 1.82851 0.585605 0
M  V30 11244 O 1103.99 2.51763 0.941732 0
M  V30 11245 C 1102.26 3.27628 -1.4281 0
M  V30 11246 S 1103.82 4.18276 -1.3263 0
M  V30 11247 H 1100.64 0.636442 -0.316958 0
M  V30 11248 H 1103.24 1.33794 -1.42546 0
M  V30 11249 H 1101.94 3.2645 -2.48714 0
M  V30 11250 H 1101.47 3.83479 -0.877925 0
M  V30 11251 H 1103.49 4.95335 -0.292878 0
M  V30 11252 N 1102.66 0.908147 1.28804 0
M  V30 11253 C 1103.9 0.545425 1.96989 0
M  V30 11254 C 1104.27 -0.893226 1.69957 0
M  V30 11255 O 1105.47 -1.36324 2.31666 0
M  V30 11256 C 1103.74 0.83953 3.474 0
M  V30 11257 S 1105.3 0.582385 4.34918 0
M  V30 11258 H 1102.12 0.202027 0.681693 0
M  V30 11259 H 1104.72 1.1724 1.56445 0
M  V30 11260 H 1103.42 1.88463 3.64568 0
M  V30 11261 H 1102.95 0.200999 3.92886 0
M  V30 11262 H 1104.97 -0.568807 4.92929 0
M  V30 11263 N 1104.14 -1.42577 0.671525 0
M  V30 11264 C 1105.38 -2.03455 0.196271 0
M  V30 11265 C 1105.74 -1.51934 -1.17389 0
M  V30 11266 O 1106.95 -2.04577 -1.74361 0
M  V30 11267 C 1105.22 -3.56687 0.225624 0
M  V30 11268 S 1106.78 -4.38434 -0.179107 0
M  V30 11269 H 1103.59 -0.706371 0.0809995 0
M  V30 11270 H 1106.2 -1.74375 0.883948 0
M  V30 11271 H 1104.9 -3.91684 1.22524 0
M  V30 11272 H 1104.43 -3.90436 -0.481994 0
M  V30 11273 H 1106.45 -4.75646 -1.41332 0
M  V30 11274 N 1105.62 -0.414636 -1.52048 0
M  V30 11275 C 1106.87 0.159034 -2.01473 0
M  V30 11276 C 1107.19 1.45176 -1.30188 0
M  V30 11277 O 1106.46 1.91134 -0.429469 0
M  V30 11278 H 1105.04 0.0617604 -0.744443 0
M  V30 11279 H 1107.7 -0.552141 -1.86916 0
M  V30 11280 H 1106.8 0.351217 -3.10118 0
M  V30 11281 N 1107.1 1.56929 -0.145233 0
M  V30 11282 C 1108.37 1.8767 0.551288 0
M  V30 11283 C 1108.75 1.05089 1.83083 0
M  V30 11284 O 1108.1 0.137201 2.28088 0
M  V30 11285 C 1108.31 3.39268 0.818445 0
M  V30 11286 C 1109.66 4.08447 1.16 0
M  V30 11287 O 1110.68 3.44436 0.907857 0
M  V30 11288 O 1109.54 5.21488 1.63441 0
M  V30 11289 H 1106.64 0.777788 0.281024 0
M  V30 11290 H 1109.18 1.68724 -0.181712 0
M  V30 11291 H 1107.95 3.91203 -0.0871897 0
M  V30 11292 H 1107.58 3.63735 1.60569 0
M  V30 11293 N 1108.58 -0.128553 1.57075 0
M  V30 11294 C 1109.99 -0.481794 1.52154 0
M  V30 11295 C 1110.19 -1.82381 0.856694 0
M  V30 11296 O 1109.25 -2.48725 0.434989 0
M  V30 11297 C 1110.56 -0.475091 2.96923 0
M  V30 11298 C 1112.11 -0.559315 3.07962 0
M  V30 11299 C 1112.58 -0.583095 4.54273 0
M  V30 11300 N 1114.07 -0.644803 4.5869 0
M  V30 11301 C 1114.81 -0.684493 5.693 0
M  V30 11302 N 1114.31 -0.682407 6.89431 0
M  V30 11303 N 1116.1 -0.726777 5.57382 0
M  V30 11304 H 1108.25 0.750894 1.98684 0
M  V30 11305 H 1110.51 0.27593 0.906955 0
M  V30 11306 H 1110.22 0.443157 3.48897 0
M  V30 11307 H 1110.09 -1.30637 3.53856 0
M  V30 11308 H 1112.48 -1.46798 2.55997 0
M  V30 11309 H 1112.56 0.299468 2.54041 0
M  V30 11310 H 1112.2 0.32149 5.06881 0
M  V30 11311 H 1112.13 -1.45863 5.05996 0
M  V30 11312 H 1114.63 -0.652967 3.72216 0
M  V30 11313 H 1114.94 -0.715051 7.69485 0
M  V30 11314 H 1113.28 -0.649984 6.91954 0
M  V30 11315 H 1116.47 -0.725704 4.6244 0
M  V30 11316 H 1116.65 -0.754242 6.43596 0
M  V30 11317 N 1110.05 -1.5248 -0.398459 0
M  V30 11318 C 1111.28 -1.71221 -1.17039 0
M  V30 11319 C 1111.7 -0.425515 -1.83224 0
M  V30 11320 O 1111.06 0.617938 -1.70444 0
M  V30 11321 C 1111.11 -2.8562 -2.20121 0
M  V30 11322 O 1110.21 -2.51934 -3.26501 0
M  V30 11323 H 1109.55 -0.569654 -0.34116 0
M  V30 11324 H 1112.08 -1.99231 -0.465652 0
M  V30 11325 H 1112.09 -3.10842 -2.64275 0
M  V30 11326 H 1110.77 -3.78969 -1.71334 0
M  V30 11327 H 1109.35 -2.3742 -2.87552 0
M  V30 11328 N 1111.53 0.65634 -1.43283 0
M  V30 11329 C 1112.76 1.44906 -1.48382 0
M  V30 11330 C 1113.18 1.87823 -0.101993 0
M  V30 11331 O 1112.54 1.57178 0.903597 0
M  V30 11332 C 1112.59 2.66231 -2.43215 0
M  V30 11333 O 1111.69 3.65176 -1.91625 0
M  V30 11334 H 1111.03 0.434601 -0.502014 0
M  V30 11335 H 1113.56 0.803429 -1.88165 0
M  V30 11336 H 1113.57 3.14083 -2.60414 0
M  V30 11337 H 1112.25 2.34336 -3.43598 0
M  V30 11338 H 1110.82 3.24302 -1.84072 0
M  V30 11339 N 1113.01 1.29761 0.894412 0
M  V30 11340 C 1114.42 1.16275 1.46072 0
M  V30 11341 C 1114.77 -0.240123 1.94725 0
M  V30 11342 O 1113.9 -1.13606 1.84181 0
M  V30 11343 C 1114.49 2.10471 2.65494 0
M  V30 11344 C 1113.05 2.00992 3.18244 0
M  V30 11345 C 1112.2 2.01094 1.90936 0
M  V30 11346 H 1115.15 1.42169 0.705243 0
M  V30 11347 H 1115.17 1.68003 3.41402 0
M  V30 11348 H 1114.68 3.12566 2.30053 0
M  V30 11349 H 1112.78 1.02005 3.58365 0
M  V30 11350 H 1112.9 2.88916 3.82184 0
M  V30 11351 H 1111.26 1.45764 2.08866 0
M  V30 11352 H 1112.04 3.04902 1.57764 0
M  V30 11353 N 1114.49 -1.10549 1.12324 0
M  V30 11354 C 1115.9 -1.63991 0.892402 0
M  V30 11355 C 1116.25 -1.87631 -0.573506 0
M  V30 11356 O 1115.37 -1.6174 -1.43768 0
M  V30 11357 C 1115.97 -2.97914 1.61347 0
M  V30 11358 C 1114.53 -3.48227 1.42881 0
M  V30 11359 C 1113.68 -2.22857 1.65015 0
M  V30 11360 H 1116.63 -0.94065 1.27818 0
M  V30 11361 H 1116.65 -3.65326 1.06382 0
M  V30 11362 H 1116.16 -2.80677 2.68034 0
M  V30 11363 H 1114.26 -3.70611 0.384441 0
M  V30 11364 H 1114.37 -4.26419 2.18413 0
M  V30 11365 H 1112.74 -2.30941 1.07417 0
M  V30 11366 H 1113.52 -2.08152 2.72997 0
M  V30 11367 N 1115.97 -0.914965 -1.28321 0
M  V30 11368 C 1117.19 -0.564654 -1.99046 0
M  V30 11369 C 1117.61 0.854345 -1.68364 0
M  V30 11370 O 1116.97 1.56605 -0.937068 0
M  V30 11371 C 1117.02 -0.765663 -3.53299 0
M  V30 11372 O 1116.74 -2.12883 -3.829 0
M  V30 11373 C 1118.24 -0.422347 -4.41283 0
M  V30 11374 H 1115.46 -0.215158 -0.635569 0
M  V30 11375 H 1118 -1.2285 -1.63487 0
M  V30 11376 H 1116.16 -0.148795 -3.87114 0
M  V30 11377 H 1116.57 -2.1694 -4.77533 0
M  V30 11378 H 1118.05 -0.613757 -5.48577 0
M  V30 11379 H 1118.52 0.641484 -4.3449 0
M  V30 11380 H 1119.13 -1.01681 -4.12966 0
M  V30 11381 N 1117.44 1.42219 -0.679077 0
M  V30 11382 C 1118.67 2.05815 -0.211649 0
M  V30 11383 C 1119.09 1.51037 1.13284 0
M  V30 11384 O 1118.44 0.651894 1.7046 0
M  V30 11385 C 1118.49 3.61218 -0.142663 0
M  V30 11386 O 1118.22 4.13965 -1.43402 0
M  V30 11387 C 1119.72 4.41934 0.347746 0
M  V30 11388 H 1116.94 0.663215 -0.101914 0
M  V30 11389 H 1119.48 1.82282 -0.927017 0
M  V30 11390 H 1117.64 3.83848 0.52342 0
M  V30 11391 H 1118.05 5.07872 -1.31021 0
M  V30 11392 H 1119.52 5.50921 0.344916 0
M  V30 11393 H 1120 4.16832 1.38377 0
M  V30 11394 H 1120.61 4.24332 -0.286751 0
M  V30 11395 N 1118.92 0.422693 1.51826 0
M  V30 11396 C 1120.33 -0.0438129 1.86649 0
M  V30 11397 C 1120.68 -1.43246 1.34071 0
M  V30 11398 O 1119.81 -2.05256 0.685501 0
M  V30 11399 C 1120.4 -0.0862802 3.3869 0
M  V30 11400 C 1118.96 -0.497157 3.73102 0
M  V30 11401 C 1118.11 0.319655 2.75451 0
M  V30 11402 H 1121.06 0.639181 1.45259 0
M  V30 11403 H 1121.08 -0.8988 3.69732 0
M  V30 11404 H 1120.59 0.924525 3.76927 0
M  V30 11405 H 1118.69 -1.51411 3.40449 0
M  V30 11406 H 1118.81 -0.232125 4.78537 0
M  V30 11407 H 1117.17 -0.219963 2.53748 0
M  V30 11408 H 1117.95 1.32906 3.16529 0
M  V30 11409 N 1120.4 -1.5685 0.153553 0
M  V30 11410 C 1121.33 -2.20101 -0.779601 0
M  V30 11411 C 1122.31 -1.15121 -1.25225 0
M  V30 11412 O 1123.5 -1.43487 -1.30862 0
M  V30 11413 C 1120.63 -2.82778 -2.01628 0
M  V30 11414 C 1119.58 -3.93643 -1.68015 0
M  V30 11415 C 1118.91 -4.43286 -2.99001 0
M  V30 11416 C 1120.21 -5.14102 -0.921774 0
M  V30 11417 H 1121.9 -2.98334 -0.252432 0
M  V30 11418 H 1119.45 -1.43499 -0.119975 0
M  V30 11419 H 1121.4 -3.25696 -2.67395 0
M  V30 11420 H 1120.12 -2.01887 -2.56728 0
M  V30 11421 H 1118.78 -3.51354 -1.04624 0
M  V30 11422 H 1118.43 -3.59208 -3.52106 0
M  V30 11423 H 1118.13 -5.18068 -2.77272 0
M  V30 11424 H 1119.65 -4.88878 -3.65828 0
M  V30 11425 H 1121.07 -5.53823 -1.48167 0
M  V30 11426 H 1119.46 -5.94687 -0.804185 0
M  V30 11427 H 1120.53 -4.84825 0.0852757 0
M  V30 11428 N 1121.88 0.120221 -1.57141 0
M  V30 11429 C 1123.29 0.473718 -1.52408 0
M  V30 11430 C 1123.49 1.81925 -0.866354 0
M  V30 11431 O 1122.55 2.48491 -0.448173 0
M  V30 11432 C 1123.86 0.459338 -2.97171 0
M  V30 11433 C 1125.41 0.542975 -3.08254 0
M  V30 11434 C 1125.89 0.558996 -4.54576 0
M  V30 11435 N 1127.38 0.620469 -4.59026 0
M  V30 11436 C 1128.11 0.654292 -5.69655 0
M  V30 11437 N 1127.61 0.645835 -6.89783 0
M  V30 11438 N 1129.4 0.697208 -5.57759 0
M  V30 11439 H 1121.55 -0.76142 -1.98283 0
M  V30 11440 H 1123.81 -0.280736 -0.905479 0
M  V30 11441 H 1123.52 -0.461654 -3.48657 0
M  V30 11442 H 1123.39 1.28759 -3.54543 0
M  V30 11443 H 1125.78 1.45439 -2.56772 0
M  V30 11444 H 1125.86 -0.312936 -2.53879 0
M  V30 11445 H 1125.51 -0.348367 -5.06704 0
M  V30 11446 H 1125.44 1.43177 -5.06762 0
M  V30 11447 H 1127.93 0.633218 -3.72557 0
M  V30 11448 H 1128.24 0.674233 -7.69853 0
M  V30 11449 H 1126.59 0.613279 -6.92289 0
M  V30 11450 H 1129.78 0.70117 -4.62819 0
M  V30 11451 H 1129.95 0.7201 -6.43986 0
M  V30 11452 N 1123.36 1.52689 0.390367 0
M  V30 11453 C 1124.32 1.76726 1.45947 0
M  V30 11454 C 1125.32 0.637269 1.47633 0
M  V30 11455 O 1126.51 0.905312 1.48828 0
M  V30 11456 C 1123.64 1.86678 2.85244 0
M  V30 11457 H 1124.83 2.72185 1.25918 0
M  V30 11458 H 1122.39 1.4339 0.622023 0
M  V30 11459 H 1123.12 0.931991 3.10619 0
M  V30 11460 H 1122.91 2.68843 2.85422 0
M  V30 11461 H 1124.4 2.06952 3.62713 0
M  V30 11462 N 1124.83 -0.648732 1.43629 0
M  V30 11463 C 1126.25 -1.23001 1.40455 0
M  V30 11464 C 1126.6 -1.95886 0.110897 0
M  V30 11465 O 1125.72 -2.01485 -0.789487 0
M  V30 11466 C 1126.32 -2.23716 2.54434 0
M  V30 11467 C 1124.88 -2.77311 2.54511 0
M  V30 11468 C 1124.02 -1.52024 2.31914 0
M  V30 11469 H 1126.97 -0.440473 1.52465 0
M  V30 11470 H 1126.99 -3.05979 2.26179 0
M  V30 11471 H 1126.51 -1.7064 3.48574 0
M  V30 11472 H 1124.61 -3.34437 1.64263 0
M  V30 11473 H 1124.72 -3.2455 3.52426 0
M  V30 11474 H 1123.08 -1.79531 1.80667 0
M  V30 11475 H 1123.87 -1.00876 3.28145 0
M  V30 11476 N 1126.31 -1.30234 -0.887518 0
M  V30 11477 C 1127.59 -1.09572 -1.62029 0
M  V30 11478 C 1127.97 0.355877 -2.08079 0
M  V30 11479 O 1127.32 1.34692 -1.84582 0
M  V30 11480 C 1127.53 -2.0943 -2.79177 0
M  V30 11481 C 1128.88 -2.4101 -3.4957 0
M  V30 11482 O 1129.9 -2.0772 -2.89363 0
M  V30 11483 O 1128.76 -2.97943 -4.5814 0
M  V30 11484 H 1125.85 -0.420648 -0.712028 0
M  V30 11485 H 1128.4 -1.41651 -0.934517 0
M  V30 11486 H 1127.17 -3.07149 -2.42436 0
M  V30 11487 H 1126.79 -1.78154 -3.55453 0
M  V30 11488 N 1127.79 1.09952 -1.12909 0
M  V30 11489 C 1129.2 1.63516 -0.901087 0
M  V30 11490 C 1129.55 1.87932 0.563547 0
M  V30 11491 O 1128.68 1.625 1.42908 0
M  V30 11492 C 1129.27 2.97054 -1.62924 0
M  V30 11493 C 1127.83 3.47464 -1.44725 0
M  V30 11494 C 1126.98 2.21979 -1.66194 0
M  V30 11495 H 1129.93 0.933858 -1.28315 0
M  V30 11496 H 1129.95 3.64757 -1.08318 0
M  V30 11497 H 1129.46 2.79251 -2.69519 0
M  V30 11498 H 1127.56 3.70402 -0.40409 0
M  V30 11499 H 1127.68 4.25254 -2.20671 0
M  V30 11500 H 1126.04 2.30368 -1.0864 0
M  V30 11501 H 1126.82 2.06702 -2.74097 0
M  V30 11502 N 1129.27 0.921757 1.27833 0
M  V30 11503 C 1130.49 0.574599 1.99281 0
M  V30 11504 C 1130.92 -0.838905 1.68357 0
M  V30 11505 O 1130.28 -1.56196 0.920468 0
M  V30 11506 C 1130.32 0.800027 3.51613 0
M  V30 11507 O 1129.43 -0.137215 4.12172 0
M  V30 11508 H 1128.77 0.221887 0.625829 0
M  V30 11509 H 1131.3 1.23939 1.62789 0
M  V30 11510 H 1131.31 0.71326 4.01717 0
M  V30 11511 H 1129.98 1.83042 3.73455 0
M  V30 11512 H 1128.56 -0.00103872 3.729 0
M  V30 11513 N 1130.75 -1.41857 0.686609 0
M  V30 11514 C 1132.16 -1.84439 0.289662 0
M  V30 11515 C 1132.51 -1.57462 -1.17047 0
M  V30 11516 O 1131.63 -1.04046 -1.89745 0
M  V30 11517 C 1132.23 -3.34802 0.518948 0
M  V30 11518 C 1130.79 -3.75988 0.176007 0
M  V30 11519 C 1129.93 -2.65339 0.805632 0
M  V30 11520 H 1132.89 -1.31536 0.88792 0
M  V30 11521 H 1132.91 -3.79833 -0.225209 0
M  V30 11522 H 1132.42 -3.54405 1.58173 0
M  V30 11523 H 1130.52 -3.61989 -0.882865 0
M  V30 11524 H 1130.63 -4.75009 0.624772 0
M  V30 11525 H 1129 -2.53605 0.235966 0
M  V30 11526 H 1129.78 -2.87762 1.8721 0
M  V30 11527 N 1132.22 -0.430739 -1.51599 0
M  V30 11528 C 1133.47 0.137657 -2.01631 0
M  V30 11529 C 1133.79 1.43787 -1.31721 0
M  V30 11530 O 1133.06 1.90668 -0.449717 0
M  V30 11531 H 1131.64 0.0538611 -0.745056 0
M  V30 11532 H 1134.31 -0.571935 -1.86319 0
M  V30 11533 H 1133.4 0.318305 -3.10473 0
M  V30 11534 N 1133.7 1.56767 -0.161869 0
M  V30 11535 C 1134.95 1.96206 0.484537 0
M  V30 11536 C 1135.27 1.04848 1.64414 0
M  V30 11537 O 1134.54 0.112946 1.95574 0
M  V30 11538 H 1133.12 0.724491 0.181994 0
M  V30 11539 H 1135.78 1.93406 -0.240845 0
M  V30 11540 H 1134.88 3.00279 0.85083 0
M  V30 11541 N 1135.18 -0.111886 1.57202 0
M  V30 11542 C 1136.43 -0.819623 1.85499 0
M  V30 11543 C 1136.76 -1.7919 0.748629 0
M  V30 11544 O 1136.03 -1.92952 -0.244918 0
M  V30 11545 C 1136.32 -1.56324 3.24399 0
M  V30 11546 C 1136.17 -0.610081 4.45643 0
M  V30 11547 C 1137.49 -2.51777 3.60966 0
M  V30 11548 H 1134.61 -0.296512 0.674722 0
M  V30 11549 H 1137.25 -0.0836741 1.89816 0
M  V30 11550 H 1135.4 -2.1906 3.2085 0
M  V30 11551 H 1137.07 0.00898038 4.61299 0
M  V30 11552 H 1135.32 0.0778488 4.3373 0
M  V30 11553 H 1135.99 -1.16718 5.39519 0
M  V30 11554 H 1138.46 -1.99143 3.65351 0
M  V30 11555 H 1137.34 -3.00835 4.59118 0
M  V30 11556 H 1137.6 -3.34769 2.8876 0
M  V30 11557 N 1136.66 -1.52894 -0.382264 0
M  V30 11558 C 1138.07 -1.60135 -0.959887 0
M  V30 11559 C 1138.42 -0.458363 -1.90771 0
M  V30 11560 O 1137.55 0.417614 -2.12332 0
M  V30 11561 C 1138.14 -2.90243 -1.74769 0
M  V30 11562 C 1136.7 -2.99874 -2.27491 0
M  V30 11563 C 1135.85 -2.55302 -1.0824 0
M  V30 11564 H 1138.8 -1.57875 -0.161589 0
M  V30 11565 H 1138.82 -2.77108 -2.60751 0
M  V30 11566 H 1138.33 -3.73412 -1.0576 0
M  V30 11567 H 1136.43 -2.21258 -2.99793 0
M  V30 11568 H 1136.54 -4.04643 -2.56516 0
M  V30 11569 H 1134.91 -2.09781 -1.44444 0
M  V30 11570 H 1135.69 -3.40872 -0.407553 0
M  V30 11571 N 1138.14 0.641106 -1.43971 0
M  V30 11572 C 1139.07 1.76489 -1.52885 0
M  V30 11573 C 1140.05 1.65742 -0.38258 0
M  V30 11574 O 1141.23 1.84653 -0.601397 0
M  V30 11575 C 1138.36 3.14977 -1.4631 0
M  V30 11576 C 1137.32 3.40502 -2.59311 0
M  V30 11577 C 1136.64 4.78916 -2.37789 0
M  V30 11578 C 1137.94 3.34048 -4.01509 0
M  V30 11579 H 1139.64 1.69286 -2.46946 0
M  V30 11580 H 1137.18 0.813015 -1.18853 0
M  V30 11581 H 1139.14 3.9336 -1.51149 0
M  V30 11582 H 1137.86 3.2294 -0.487599 0
M  V30 11583 H 1136.52 2.64495 -2.53846 0
M  V30 11584 H 1136.17 4.8357 -1.38454 0
M  V30 11585 H 1135.87 4.96954 -3.13545 0
M  V30 11586 H 1137.39 5.59541 -2.4443 0
M  V30 11587 H 1138.81 4.0235 -4.08396 0
M  V30 11588 H 1137.2 3.63622 -4.77388 0
M  V30 11589 H 1138.27 2.32022 -4.25786 0
M  V30 11590 N 1139.62 1.30703 0.880598 0
M  V30 11591 C 1140.53 1.19389 2.01949 0
M  V30 11592 C 1141.54 0.112868 1.73634 0
M  V30 11593 O 1142.72 0.328643 1.98701 0
M  V30 11594 C 1139.78 0.891004 3.35055 0
M  V30 11595 C 1138.84 2.05784 3.76764 0
M  V30 11596 C 1138.08 1.76931 5.03519 0
M  V30 11597 O 1138.3 0.699326 5.66097 0
M  V30 11598 O 1137.23 2.623 5.4174 0
M  V30 11599 H 1141.06 2.15073 2.14423 0
M  V30 11600 H 1138.64 1.10339 1.00726 0
M  V30 11601 H 1140.53 0.737476 4.14897 0
M  V30 11602 H 1139.2 -0.0358909 3.2368 0
M  V30 11603 H 1138.11 2.26672 2.97608 0
M  V30 11604 H 1139.44 2.96661 3.9275 0
M  V30 11605 N 1141.09 -1.09351 1.1349 0
M  V30 11606 C 1142.06 -2.14185 0.815919 0
M  V30 11607 C 1143.06 -1.59845 -0.174976 0
M  V30 11608 O 1144.25 -1.74122 0.0521971 0
M  V30 11609 C 1141.38 -3.40224 0.214517 0
M  V30 11610 H 1142.57 -2.43913 1.74489 0
M  V30 11611 H 1140.12 -1.24902 0.939634 0
M  V30 11612 H 1140.86 -3.16123 -0.723634 0
M  V30 11613 H 1140.64 -3.80958 0.928102 0
M  V30 11614 H 1142.13 -4.17599 0.00821999 0
M  V30 11615 N 1142.57 -0.928524 -1.27343 0
M  V30 11616 C 1143.8 -0.58516 -1.98974 0
M  V30 11617 C 1144.22 0.829964 -1.68799 0
M  V30 11618 O 1143.58 1.55705 -0.928738 0
M  V30 11619 C 1143.63 -0.818662 -3.51184 0
M  V30 11620 O 1142.73 0.115355 -4.12239 0
M  V30 11621 H 1142.07 -0.225203 -0.624644 0
M  V30 11622 H 1144.6 -1.248 -1.6213 0
M  V30 11623 H 1144.61 -0.734554 -4.01333 0
M  V30 11624 H 1143.29 -1.8502 -3.72479 0
M  V30 11625 H 1141.86 -0.0187371 -3.72895 0
M  V30 11626 N 1144.05 1.41491 -0.694123 0
M  V30 11627 C 1144.98 2.33462 -0.0422169 0
M  V30 11628 C 1145.96 1.51739 0.76872 0
M  V30 11629 O 1147.15 1.8028 0.721985 0
M  V30 11630 C 1144.28 3.35545 0.895925 0
M  V30 11631 C 1143.23 4.27568 0.192188 0
M  V30 11632 C 1142.56 5.20014 1.24459 0
M  V30 11633 C 1143.86 5.1376 -0.940626 0
M  V30 11634 H 1145.55 2.88225 -0.810363 0
M  V30 11635 H 1143.1 1.38586 -0.39114 0
M  V30 11636 H 1145.05 3.9881 1.36121 0
M  V30 11637 H 1143.77 2.79129 1.69572 0
M  V30 11638 H 1142.43 3.65726 -0.25305 0
M  V30 11639 H 1142.08 4.59913 2.03687 0
M  V30 11640 H 1141.78 5.82417 0.778734 0
M  V30 11641 H 1143.3 5.86155 1.71041 0
M  V30 11642 H 1144.72 5.70601 -0.555692 0
M  V30 11643 H 1143.11 5.85097 -1.33349 0
M  V30 11644 H 1144.18 4.51011 -1.78093 0
M  V30 11645 N 1145.53 0.438773 1.51369 0
M  V30 11646 C 1146.77 -0.126367 2.04009 0
M  V30 11647 C 1147.13 -1.39837 1.31566 0
M  V30 11648 O 1148.33 -2.04384 1.74587 0
M  V30 11649 C 1146.6 -0.338531 3.55793 0
M  V30 11650 S 1148.16 -0.866869 4.30152 0
M  V30 11651 H 1144.98 -0.0311763 0.710316 0
M  V30 11652 H 1147.58 0.598507 1.86113 0
M  V30 11653 H 1146.29 0.593555 4.06085 0
M  V30 11654 H 1145.82 -1.09044 3.77985 0
M  V30 11655 H 1147.83 -2.14427 4.47477 0
M  V30 11656 N 1147.01 -1.56678 0.170181 0
M  V30 11657 C 1148.42 -1.83452 -0.346742 0
M  V30 11658 C 1148.77 -1.08993 -1.63141 0
M  V30 11659 O 1147.89 -0.342607 -2.13671 0
M  V30 11660 C 1148.49 -3.32779 -0.635882 0
M  V30 11661 C 1147.05 -3.60052 -1.09725 0
M  V30 11662 C 1146.19 -2.76983 -0.132516 0
M  V30 11663 H 1149.14 -1.53719 0.394465 0
M  V30 11664 H 1149.17 -3.50195 -1.48806 0
M  V30 11665 H 1148.68 -3.86944 0.299291 0
M  V30 11666 H 1146.78 -3.11297 -2.04756 0
M  V30 11667 H 1146.89 -4.68393 -1.00719 0
M  V30 11668 H 1145.26 -2.46794 -0.62966 0
M  V30 11669 H 1146.04 -3.33929 0.796658 0
M  V30 11670 N 1148.48 0.103547 -1.57259 0
M  V30 11671 C 1149.45 1.11039 -2.00507 0
M  V30 11672 C 1150.45 1.33432 -0.897361 0
M  V30 11673 O 1151.64 1.29688 -1.16304 0
M  V30 11674 C 1148.77 2.46144 -2.35851 0
M  V30 11675 H 1149.96 0.738332 -2.90669 0
M  V30 11676 H 1147.51 0.348334 -1.52369 0
M  V30 11677 H 1148.25 2.88242 -1.48617 0
M  V30 11678 H 1148.03 2.31241 -3.16654 0
M  V30 11679 H 1149.52 3.18577 -2.69997 0
M  V30 11680 N 1149.96 1.53094 0.37415 0
M  V30 11681 C 1151.19 1.73061 1.143 0
M  V30 11682 C 1151.61 0.454611 1.82524 0
M  V30 11683 O 1150.97 -0.590743 1.71406 0
M  V30 11684 C 1151.02 2.89086 2.15549 0
M  V30 11685 O 1150.12 2.57096 3.22452 0
M  V30 11686 H 1149.46 0.575009 0.332055 0
M  V30 11687 H 1151.99 1.99946 0.433897 0
M  V30 11688 H 1152 3.15007 2.59296 0
M  V30 11689 H 1150.68 3.81647 1.65283 0
M  V30 11690 H 1149.25 2.41965 2.83738 0
M  V30 11691 N 1151.44 -0.633461 1.44309 0
M  V30 11692 C 1152.37 -1.75676 1.53819 0
M  V30 11693 C 1153.35 -1.65537 0.391365 0
M  V30 11694 O 1154.54 -1.84332 0.611181 0
M  V30 11695 C 1151.67 -3.14197 1.47979 0
M  V30 11696 C 1150.62 -3.39122 2.61113 0
M  V30 11697 C 1149.95 -4.77648 2.40325 0
M  V30 11698 C 1151.25 -3.31914 4.03274 0
M  V30 11699 H 1152.94 -1.67974 2.47841 0
M  V30 11700 H 1150.49 -0.8067 1.19283 0
M  V30 11701 H 1152.44 -3.92553 1.53233 0
M  V30 11702 H 1151.16 -3.22677 0.504718 0
M  V30 11703 H 1149.82 -2.63145 2.55245 0
M  V30 11704 H 1149.47 -4.82829 1.41016 0
M  V30 11705 H 1149.17 -4.95284 3.16177 0
M  V30 11706 H 1150.69 -5.58237 2.47394 0
M  V30 11707 H 1152.11 -4.00178 4.10524 0
M  V30 11708 H 1150.5 -3.61085 4.7931 0
M  V30 11709 H 1151.57 -2.29761 4.2701 0
M  V30 11710 N 1152.92 -1.31168 -0.873655 0
M  V30 11711 C 1153.88 -1.18471 -1.96207 0
M  V30 11712 C 1154.88 -0.112814 -1.60404 0
M  V30 11713 O 1156.07 -0.3618 -1.70401 0
M  V30 11714 C 1153.2 -0.817662 -3.30949 0
M  V30 11715 H 1154.4 -2.1518 -2.08896 0
M  V30 11716 H 1151.95 -1.14727 -1.06149 0
M  V30 11717 H 1152.68 0.148428 -3.2396 0
M  V30 11718 H 1152.47 -1.59244 -3.58307 0
M  V30 11719 H 1153.96 -0.75262 -4.10762 0
M  V30 11720 N 1154.4 1.08748 -1.14068 0
M  V30 11721 C 1155.81 1.62551 -0.918379 0
M  V30 11722 C 1156.16 1.8852 0.543583 0
M  V30 11723 O 1155.28 1.64007 1.41176 0
M  V30 11724 C 1155.88 2.95309 -1.66066 0
M  V30 11725 C 1154.44 3.4591 -1.48403 0
M  V30 11726 C 1153.58 2.20204 -1.6854 0
M  V30 11727 H 1156.54 0.920196 -1.29298 0
M  V30 11728 H 1156.56 3.63587 -1.12181 0
M  V30 11729 H 1156.07 2.76377 -2.72465 0
M  V30 11730 H 1154.17 3.69953 -0.443353 0
M  V30 11731 H 1154.28 4.2289 -2.25169 0
M  V30 11732 H 1152.65 2.29203 -1.11077 0
M  V30 11733 H 1153.43 2.03783 -2.76274 0
M  V30 11734 N 1155.87 0.935264 1.26849 0
M  V30 11735 C 1157.1 0.595704 1.98661 0
M  V30 11736 C 1157.52 -0.821001 1.69237 0
M  V30 11737 O 1156.88 -1.55211 0.936982 0
M  V30 11738 C 1156.93 0.837275 3.50745 0
M  V30 11739 O 1156.03 -0.0934914 4.12294 0
M  V30 11740 H 1155.38 0.228512 0.623441 0
M  V30 11741 H 1157.91 1.25658 1.61466 0
M  V30 11742 H 1157.92 0.755827 4.00938 0
M  V30 11743 H 1156.59 1.86993 3.71492 0
M  V30 11744 H 1155.17 0.0385124 3.7288 0
M  V30 11745 N 1157.35 -1.41121 0.701616 0
M  V30 11746 C 1158.6 -2.00733 0.234682 0
M  V30 11747 C 1158.92 -1.55869 -1.17174 0
M  V30 11748 O 1158.19 -0.791965 -1.79178 0
M  V30 11749 H 1156.77 -0.742288 0.0837745 0
M  V30 11750 H 1159.43 -1.7266 0.904127 0
M  V30 11751 H 1158.53 -3.11041 0.256831 0
M  V30 11752 N 1158.83 -0.446794 -1.51134 0
M  V30 11753 C 1160.08 0.118047 -2.01354 0
M  V30 11754 C 1160.39 1.42953 -1.33505 0
M  V30 11755 O 1161.6 2.07788 -1.74747 0
M  V30 11756 C 1160.05 0.260912 -3.58953 0
M  V30 11757 C 1159.66 -1.0407 -4.35745 0
M  V30 11758 C 1161.41 0.779014 -4.17291 0
M  V30 11759 C 1159.31 -0.862958 -5.8507 0
M  V30 11760 H 1158.24 0.0478915 -0.752478 0
M  V30 11761 H 1160.89 -0.577997 -1.74159 0
M  V30 11762 H 1159.28 1.02018 -3.82633 0
M  V30 11763 H 1160.45 -1.80903 -4.23805 0
M  V30 11764 H 1158.77 -1.48805 -3.88904 0
M  V30 11765 H 1161.36 0.928636 -5.26574 0
M  V30 11766 H 1161.71 1.76399 -3.7708 0
M  V30 11767 H 1162.24 0.0778022 -3.97724 0
M  V30 11768 H 1158.98 -1.82059 -6.2971 0
M  V30 11769 H 1158.5 -0.134588 -5.99649 0
M  V30 11770 H 1160.18 -0.51989 -6.44908 0
M  V30 11771 N 1160.31 1.56586 -0.178487 0
M  V30 11772 C 1161.53 2.01915 0.473841 0
M  V30 11773 C 1161.96 1.05789 1.55533 0
M  V30 11774 O 1161.32 0.0386018 1.81259 0
M  V30 11775 C 1161.36 3.45799 1.02251 0
M  V30 11776 O 1160.47 3.52761 2.1362 0
M  V30 11777 H 1159.81 0.654372 0.112666 0
M  V30 11778 H 1162.34 2.02613 -0.284486 0
M  V30 11779 H 1162.35 3.85252 1.34332 0
M  V30 11780 H 1161.02 4.1526 0.230719 0
M  V30 11781 H 1159.6 3.25172 1.8253 0
M  V30 11782 N 1161.79 -0.095206 1.57312 0
M  V30 11783 C 1162.7 -1.13388 2.05379 0
M  V30 11784 C 1163.71 -1.43868 0.978668 0
M  V30 11785 O 1164.89 -1.54512 1.29182 0
M  V30 11786 C 1161.95 -2.43444 2.46852 0
M  V30 11787 C 1161.01 -2.20146 3.68557 0
M  V30 11788 C 1160.25 -3.44001 4.08043 0
M  V30 11789 O 1160.47 -4.52233 3.47623 0
M  V30 11790 O 1159.4 -3.33596 5.00997 0
M  V30 11791 H 1163.23 -0.755622 2.9415 0
M  V30 11792 H 1160.82 -0.307707 1.46197 0
M  V30 11793 H 1162.7 -3.20027 2.74155 0
M  V30 11794 H 1161.37 -2.80696 1.61219 0
M  V30 11795 H 1160.28 -1.41345 3.46371 0
M  V30 11796 H 1161.61 -1.87787 4.54969 0
M  V30 11797 N 1163.26 -1.53291 -0.366026 0
M  V30 11798 C 1164.21 -1.79697 -1.44836 0
M  V30 11799 C 1165.18 -0.641321 -1.5322 0
M  V30 11800 O 1166.37 -0.883453 -1.69115 0
M  V30 11801 C 1163.51 -1.99223 -2.81788 0
M  V30 11802 C 1162.62 -3.26938 -2.82375 0
M  V30 11803 C 1161.75 -3.36654 -4.10898 0
M  V30 11804 C 1160.79 -4.58404 -4.05626 0
M  V30 11805 N 1159.93 -4.65275 -5.25798 0
M  V30 11806 H 1164.77 -2.72053 -1.21619 0
M  V30 11807 H 1162.31 -1.34768 -0.589577 0
M  V30 11808 H 1164.27 -2.0853 -3.61346 0
M  V30 11809 H 1162.9 -1.10204 -3.03406 0
M  V30 11810 H 1161.95 -3.26587 -1.95052 0
M  V30 11811 H 1163.26 -4.16573 -2.74351 0
M  V30 11812 H 1162.41 -3.4527 -4.98872 0
M  V30 11813 H 1161.15 -2.45035 -4.21674 0
M  V30 11814 H 1160.16 -4.49888 -3.16039 0
M  V30 11815 H 1161.38 -5.51364 -3.96453 0
M  V30 11816 H 1159.33 -3.76557 -5.3716 0
M  V30 11817 H 1159.25 -5.48814 -5.19942 0
M  V30 11818 H 1160.51 -4.78175 -6.15605 0
M  V30 11819 N 1164.74 0.6258 -1.44643 0
M  V30 11820 C 1165.97 1.41726 -1.51422 0
M  V30 11821 C 1166.39 1.87565 -0.14181 0
M  V30 11822 O 1165.75 1.59059 0.870054 0
M  V30 11823 C 1165.8 2.61012 -2.48807 0
M  V30 11824 O 1164.9 3.61029 -1.99328 0
M  V30 11825 H 1164.24 0.423855 -0.511119 0
M  V30 11826 H 1166.77 0.763336 -1.89827 0
M  V30 11827 H 1166.78 3.08489 -2.67018 0
M  V30 11828 H 1165.46 2.26995 -3.48491 0
M  V30 11829 H 1164.04 3.20325 -1.90909 0
M  V30 11830 N 1166.22 1.31629 0.866686 0
M  V30 11831 C 1167.17 1.19556 1.97421 0
M  V30 11832 C 1168.14 0.0805578 1.65905 0
M  V30 11833 O 1169.32 0.253997 1.89102 0
M  V30 11834 C 1166.46 0.912234 3.32825 0
M  V30 11835 C 1165.58 2.11088 3.76916 0
M  V30 11836 C 1164.71 1.76406 5.01053 0
M  V30 11837 C 1163.75 2.9266 5.37602 0
M  V30 11838 N 1162.89 2.58152 6.52918 0
M  V30 11839 H 1167.73 2.14294 2.0708 0
M  V30 11840 H 1165.26 1.06595 1.0137 0
M  V30 11841 H 1167.22 0.72851 4.1079 0
M  V30 11842 H 1165.85 0.00167404 3.228 0
M  V30 11843 H 1164.9 2.40527 2.94705 0
M  V30 11844 H 1166.22 2.98089 3.99931 0
M  V30 11845 H 1165.37 1.54515 5.86694 0
M  V30 11846 H 1164.11 0.866018 4.79949 0
M  V30 11847 H 1163.11 3.15196 4.50479 0
M  V30 11848 H 1164.34 3.83179 5.6067 0
M  V30 11849 H 1162.28 1.70874 6.33355 0
M  V30 11850 H 1162.2 3.38682 6.75892 0
M  V30 11851 H 1163.47 2.39662 7.41743 0
M  V30 11852 N 1167.7 -1.08142 1.14644 0
M  V30 11853 C 1168.92 -1.84857 0.940349 0
M  V30 11854 C 1169.35 -1.81163 -0.506117 0
M  V30 11855 O 1168.71 -1.19869 -1.36019 0
M  V30 11856 C 1168.76 -3.30198 1.4492 0
M  V30 11857 O 1167.86 -4.07355 0.64308 0
M  V30 11858 H 1167.2 -0.572711 0.336003 0
M  V30 11859 H 1169.73 -1.36475 1.52432 0
M  V30 11860 H 1169.74 -3.81039 1.45854 0
M  V30 11861 H 1168.42 -3.32202 2.50229 0
M  V30 11862 H 1166.99 -3.66219 0.702698 0
M  V30 11863 N 1169.18 -0.941978 -1.26351 0
M  V30 11864 C 1170.4 -0.606231 -1.98342 0
M  V30 11865 C 1170.83 0.812014 -1.6967 0
M  V30 11866 O 1170.19 1.54712 -0.9452 0
M  V30 11867 C 1170.23 -0.855864 -3.50296 0
M  V30 11868 O 1169.34 0.0716251 -4.12338 0
M  V30 11869 H 1168.68 -0.231815 -0.62222 0
M  V30 11870 H 1171.21 -1.26513 -1.60797 0
M  V30 11871 H 1171.22 -0.777079 -4.00531 0
M  V30 11872 H 1169.89 -1.8896 -3.70496 0
M  V30 11873 H 1168.47 -0.0582866 -3.72854 0
M  V30 11874 N 1170.66 1.40747 -0.709091 0
M  V30 11875 C 1171.88 2.05841 -0.253816 0
M  V30 11876 C 1172.31 1.53056 1.09341 0
M  V30 11877 O 1171.66 0.663181 1.68735 0
M  V30 11878 C 1171.71 3.59822 -0.236699 0
M  V30 11879 O 1170.82 4.04876 0.784168 0
M  V30 11880 H 1170.16 0.65295 -0.120631 0
M  V30 11881 H 1172.69 1.80266 -0.967749 0
M  V30 11882 H 1172.7 4.07936 -0.0721616 0
M  V30 11883 H 1171.37 3.97608 -1.21988 0
M  V30 11884 H 1169.95 3.68237 0.587884 0
M  V30 11885 N 1172.13 0.454803 1.50895 0
M  V30 11886 C 1173.36 -0.106259 2.07128 0
M  V30 11887 C 1173.78 -1.3418 1.31823 0
M  V30 11888 O 1173.14 -1.77667 0.361147 0
M  V30 11889 C 1173.19 -0.389609 3.58489 0
M  V30 11890 O 1172.29 -1.47305 3.85195 0
M  V30 11891 H 1171.63 0.00580588 0.663975 0
M  V30 11892 H 1174.16 0.641163 1.94294 0
M  V30 11893 H 1174.17 -0.634934 4.03029 0
M  V30 11894 H 1172.85 0.513338 4.1272 0
M  V30 11895 H 1171.43 -1.21631 3.52506 0
M  V30 11896 N 1173.61 -1.56489 0.186789 0
M  V30 11897 C 1174.86 -1.97341 -0.454158 0
M  V30 11898 C 1175.19 -1.07337 -1.622 0
M  V30 11899 O 1174.44 -0.1107 -1.95387 0
M  V30 11900 C 1174.74 -3.44145 -0.964315 0
M  V30 11901 C 1174.41 -4.50812 0.0892734 0
M  V30 11902 C 1173.07 -4.79707 0.378794 0
M  V30 11903 C 1175.42 -5.14968 0.8036 0
M  V30 11904 C 1172.75 -5.70051 1.38776 0
M  V30 11905 C 1175.1 -6.06402 1.80166 0
M  V30 11906 C 1173.76 -6.33657 2.09847 0
M  V30 11907 H 1173.03 -0.722124 -0.166188 0
M  V30 11908 H 1175.68 -1.89412 0.282008 0
M  V30 11909 H 1173.99 -3.49103 -1.7786 0
M  V30 11910 H 1175.68 -3.73104 -1.4695 0
M  V30 11911 H 1172.27 -4.28349 -0.146552 0
M  V30 11912 H 1176.46 -4.92743 0.593147 0
M  V30 11913 H 1171.71 -5.89445 1.62373 0
M  V30 11914 H 1175.89 -6.55176 2.36045 0
M  V30 11915 H 1173.51 -7.03462 2.88175 0
M  V30 11916 N 1175.09 0.086862 -1.5736 0
M  V30 11917 C 1176.04 1.11134 -1.99081 0
M  V30 11918 C 1177.02 1.35318 -0.870506 0
M  V30 11919 O 1178.22 1.35871 -1.13437 0
M  V30 11920 C 1175.34 2.42931 -2.42569 0
M  V30 11921 C 1174.43 2.22085 -3.61302 0
M  V30 11922 N 1174.82 1.71128 -4.75971 0
M  V30 11923 C 1173.12 2.52619 -3.67559 0
M  V30 11924 C 1173.82 1.64745 -5.57883 0
M  V30 11925 N 1172.8 2.10257 -5.01291 0
M  V30 11926 H 1176.6 0.710431 -2.85184 0
M  V30 11927 H 1174.11 0.294168 -1.59714 0
M  V30 11928 H 1176.11 3.17069 -2.7069 0
M  V30 11929 H 1174.77 2.83751 -1.57846 0
M  V30 11930 H 1175.78 1.40207 -4.9856 0
M  V30 11931 H 1172.46 2.96908 -2.93516 0
M  V30 11932 H 1173.85 1.26329 -6.59917 0
M  V30 11933 N 1176.57 1.53483 0.357892 0
M  V30 11934 C 1177.98 1.61641 0.934289 0
M  V30 11935 C 1178.33 0.488655 1.90017 0
M  V30 11936 O 1177.45 -0.38378 2.1297 0
M  V30 11937 C 1178.05 2.92987 1.7013 0
M  V30 11938 C 1176.61 3.03456 2.22692 0
M  V30 11939 C 1175.76 2.56992 1.04165 0
M  V30 11940 H 1178.71 1.58112 0.136452 0
M  V30 11941 H 1178.73 2.81221 2.5631 0
M  V30 11942 H 1178.24 3.75047 0.998056 0
M  V30 11943 H 1176.34 2.25999 2.96235 0
M  V30 11944 H 1176.45 4.08673 2.50046 0
M  V30 11945 H 1174.82 2.12052 1.41088 0
M  V30 11946 H 1175.6 3.41477 0.353272 0
M  V30 11947 N 1178.05 -0.61812 1.44973 0
M  V30 11948 C 1179.01 -1.71135 1.52465 0
M  V30 11949 C 1180.01 -1.5561 0.405246 0
M  V30 11950 O 1181.2 -1.60869 0.668351 0
M  V30 11951 C 1178.33 -3.10324 1.41108 0
M  V30 11952 H 1179.52 -1.65862 2.49859 0
M  V30 11953 H 1177.08 -0.832932 1.32257 0
M  V30 11954 H 1177.81 -3.21183 0.448574 0
M  V30 11955 H 1177.6 -3.23001 2.2229 0
M  V30 11956 H 1179.09 -3.89976 1.49361 0
M  V30 11957 N 1179.52 -1.32087 -0.859693 0
M  V30 11958 C 1180.93 -1.20107 -1.42938 0
M  V30 11959 C 1181.29 0.188411 -1.95293 0
M  V30 11960 O 1180.41 1.08683 -1.87128 0
M  V30 11961 C 1181.01 -2.17436 -2.59821 0
M  V30 11962 C 1179.56 -2.09359 -3.12803 0
M  V30 11963 C 1178.71 -2.06086 -1.85537 0
M  V30 11964 H 1181.66 -1.43989 -0.667302 0
M  V30 11965 H 1181.68 -1.76996 -3.36828 0
M  V30 11966 H 1181.2 -3.18555 -2.21685 0
M  V30 11967 H 1179.3 -1.1147 -3.55535 0
M  V30 11968 H 1179.41 -2.98947 -3.74389 0
M  V30 11969 H 1177.77 -1.51251 -2.04928 0
M  V30 11970 H 1178.56 -3.08978 -1.49625 0
M  V30 11971 N 1181 1.07532 -1.15215 0
M  V30 11972 C 1182.25 1.79737 -0.924062 0
M  V30 11973 C 1182.57 1.87072 0.550356 0
M  V30 11974 O 1181.84 1.37029 1.4 0
M  V30 11975 H 1180.42 0.665704 -0.338891 0
M  V30 11976 H 1183.08 1.29961 -1.45245 0
M  V30 11977 H 1182.18 2.82256 -1.33184 0
M  V30 11978 N 1182.48 0.948665 1.2585 0
M  V30 11979 C 1183.43 0.455115 2.28104 0
M  V30 11980 C 1184.42 -0.471508 1.62706 0
M  V30 11981 O 1185.63 -0.348895 1.76586 0
M  V30 11982 H 1182 0.128659 0.740912 0
M  V30 11983 H 1183.97 1.32991 2.67125 0
M  V30 11984 C 1182.72 -0.25729 3.46747 0
M  V30 11985 H 1182.05 0.44658 3.97298 0
M  V30 11986 H 1183.49 -0.566736 4.20195 0
M  V30 11987 C 1181.95 -1.47772 3.02762 0
M  V30 11988 O 1182.48 -2.57571 3.08253 0
M  V30 11989 N 1180.68 -1.33694 2.5802 0
M  V30 11990 H 1180.23 -0.443595 2.53752 0
M  V30 11991 H 1180.19 -2.1547 2.28954 0
M  V30 11992 N 1183.96 -1.40369 0.716545 0
M  V30 11993 C 1184.92 -2.29083 0.0733105 0
M  V30 11994 C 1185.92 -1.45415 -0.686378 0
M  V30 11995 O 1187.11 -1.66316 -0.518139 0
M  V30 11996 C 1184.24 -3.28639 -0.906032 0
M  V30 11997 H 1185.44 -2.87464 0.85467 0
M  V30 11998 H 1182.99 -1.48706 0.481256 0
M  V30 11999 H 1183.72 -2.75279 -1.71441 0
M  V30 12000 H 1183.51 -3.90405 -0.364163 0
M  V30 12001 H 1185 -3.95066 -1.35324 0
M  V30 12002 N 1185.44 -0.462799 -1.50652 0
M  V30 12003 C 1186.37 0.371837 -2.26164 0
M  V30 12004 C 1187.38 0.96432 -1.31167 0
M  V30 12005 O 1188.57 0.854134 -1.56738 0
M  V30 12006 C 1185.67 1.53469 -3.0216 0
M  V30 12007 C 1184.84 1.0565 -4.24449 0
M  V30 12008 C 1183.9 2.09243 -4.82808 0
M  V30 12009 O 1182.93 1.67641 -5.43953 0
M  V30 12010 N 1184.13 3.41976 -4.69076 0
M  V30 12011 H 1186.9 -0.275476 -2.98431 0
M  V30 12012 H 1184.46 -0.293109 -1.59225 0
M  V30 12013 H 1186.45 2.22446 -3.38083 0
M  V30 12014 H 1185.02 2.08685 -2.32743 0
M  V30 12015 H 1184.24 0.192895 -3.93728 0
M  V30 12016 H 1185.53 0.714796 -5.03754 0
M  V30 12017 H 1184.92 3.78491 -4.20429 0
M  V30 12018 H 1183.48 4.06775 -5.09291 0
M  V30 12019 N 1186.91 1.56388 -0.195085 0
M  V30 12020 C 1188.14 2.02406 0.452399 0
M  V30 12021 C 1188.56 1.07432 1.54402 0
M  V30 12022 O 1187.92 0.0578246 1.81208 0
M  V30 12023 C 1187.97 3.46864 0.985778 0
M  V30 12024 O 1187.07 3.55007 2.09867 0
M  V30 12025 H 1186.42 0.65553 0.105719 0
M  V30 12026 H 1188.95 2.02299 -0.30596 0
M  V30 12027 H 1188.96 3.86655 1.30238 0
M  V30 12028 H 1187.63 4.15481 0.186662 0
M  V30 12029 H 1186.21 3.2709 1.79071 0
M  V30 12030 N 1188.39 -0.0785156 1.57404 0
M  V30 12031 C 1189.62 -0.795871 1.91522 0
M  V30 12032 C 1190.04 -1.70665 0.790892 0
M  V30 12033 O 1189.4 -1.79474 -0.25666 0
M  V30 12034 C 1189.45 -1.57121 3.24569 0
M  V30 12035 O 1188.55 -2.6814 3.13328 0
M  V30 12036 H 1187.89 -0.217575 0.627341 0
M  V30 12037 H 1190.42 -0.0487724 2.04542 0
M  V30 12038 H 1190.43 -1.9519 3.5828 0
M  V30 12039 H 1189.11 -0.902909 4.05981 0
M  V30 12040 H 1187.69 -2.32978 2.91163 0
M  V30 12041 N 1189.87 -1.5367 -0.349747 0
M  V30 12042 C 1191.1 -1.74858 -1.11532 0
M  V30 12043 C 1191.52 -0.483591 -1.81777 0
M  V30 12044 O 1190.88 0.563399 -1.72324 0
M  V30 12045 C 1190.93 -2.92479 -2.10923 0
M  V30 12046 O 1190.03 -2.62194 -3.18321 0
M  V30 12047 H 1189.37 -0.580219 -0.322865 0
M  V30 12048 H 1191.9 -2.00611 -0.402033 0
M  V30 12049 H 1191.91 -3.19093 -2.54252 0
M  V30 12050 H 1190.59 -3.84228 -1.59191 0
M  V30 12051 H 1189.16 -2.46448 -2.79853 0
M  V30 12052 N 1191.35 0.610423 -1.45298 0
M  V30 12053 C 1192.28 1.73507 -1.4976 0
M  V30 12054 C 1193.29 1.58092 -0.38867 0
M  V30 12055 O 1194.48 1.66026 -0.655571 0
M  V30 12056 C 1191.58 3.11475 -1.33554 0
M  V30 12057 C 1190.76 3.53156 -2.5807 0
M  V30 12058 C 1189.81 4.70076 -2.36463 0
M  V30 12059 O 1188.84 4.77337 -3.10061 0
M  V30 12060 N 1190.04 5.63155 -1.40843 0
M  V30 12061 H 1192.81 1.70144 -2.46721 0
M  V30 12062 H 1190.37 0.79562 -1.41002 0
M  V30 12063 H 1192.36 3.87444 -1.16914 0
M  V30 12064 H 1190.93 3.09361 -0.448803 0
M  V30 12065 H 1190.15 2.67178 -2.89844 0
M  V30 12066 H 1191.44 3.77761 -3.40843 0
M  V30 12067 H 1190.84 5.60001 -0.800982 0
M  V30 12068 H 1189.39 6.38669 -1.30175 0
M  V30 12069 N 1192.83 1.32541 0.852676 0
M  V30 12070 C 1194.05 1.2622 1.6394 0
M  V30 12071 C 1194.47 -0.169455 1.88038 0
M  V30 12072 O 1193.83 -1.10719 1.45078 0
M  V30 12073 C 1193.88 2.02062 2.99755 0
M  V30 12074 O 1193.6 3.39641 2.76723 0
M  V30 12075 C 1195.1 2.02787 3.94198 0
M  V30 12076 H 1192.32 0.435405 0.510552 0
M  V30 12077 H 1194.86 1.74696 1.06309 0
M  V30 12078 H 1193.02 1.57303 3.54026 0
M  V30 12079 H 1193.43 3.78484 3.63111 0
M  V30 12080 H 1194.91 2.60333 4.86755 0
M  V30 12081 H 1195.38 1.01464 4.27319 0
M  V30 12082 H 1195.99 2.47504 3.45864 0
M  V30 12083 N 1194.3 -1.0692 1.15784 0
M  V30 12084 C 1195.72 -1.61069 0.944123 0
M  V30 12085 C 1196.07 -1.8936 -0.513522 0
M  V30 12086 O 1195.19 -1.66232 -1.38549 0
M  V30 12087 C 1195.79 -2.9263 1.70743 0
M  V30 12088 C 1194.35 -3.43505 1.53887 0
M  V30 12089 C 1193.49 -2.17495 1.72021 0
M  V30 12090 H 1196.44 -0.89951 1.30746 0
M  V30 12091 H 1196.46 -3.61757 1.17951 0
M  V30 12092 H 1195.98 -2.72007 2.76828 0
M  V30 12093 H 1194.08 -3.69201 0.502153 0
M  V30 12094 H 1194.19 -4.19254 2.31868 0
M  V30 12095 H 1192.55 -2.27407 1.1471 0
M  V30 12096 H 1193.34 -1.99362 2.79481 0
M  V30 12097 N 1195.78 -0.955326 -1.25345 0
M  V30 12098 C 1196.73 -0.474888 -2.25862 0
M  V30 12099 C 1197.7 0.472996 -1.59223 0
M  V30 12100 O 1198.88 0.386094 -1.86853 0
M  V30 12101 C 1196.02 0.240554 -3.44261 0
M  V30 12102 C 1195.14 -0.74465 -4.25534 0
M  V30 12103 C 1194.27 -0.00657513 -5.312 0
M  V30 12104 C 1193.31 -0.982666 -6.04161 0
M  V30 12105 N 1192.45 -0.275418 -7.0156 0
M  V30 12106 H 1197.29 -1.33693 -2.66327 0
M  V30 12107 H 1194.83 -0.670439 -1.30933 0
M  V30 12108 H 1196.78 0.671933 -4.11753 0
M  V30 12109 H 1195.41 1.06664 -3.04668 0
M  V30 12110 H 1194.47 -1.29451 -3.57696 0
M  V30 12111 H 1195.78 -1.48948 -4.76042 0
M  V30 12112 H 1194.93 0.483404 -6.04771 0
M  V30 12113 H 1193.67 0.771035 -4.81567 0
M  V30 12114 H 1192.68 -1.48364 -5.29404 0
M  V30 12115 H 1193.9 -1.76052 -6.55883 0
M  V30 12116 H 1191.85 0.483441 -6.54216 0
M  V30 12117 H 1191.76 -0.959324 -7.49889 0
M  V30 12118 H 1193.03 0.193002 -7.79261 0
M  V30 12119 N 1197.26 1.39987 -0.723979 0
M  V30 12120 C 1198.51 1.99964 -0.26406 0
M  V30 12121 C 1198.82 1.58084 1.1519 0
M  V30 12122 O 1200.03 2.10819 1.71077 0
M  V30 12123 C 1198.49 3.57427 -0.421174 0
M  V30 12124 C 1198.09 4.08276 -1.84432 0
M  V30 12125 C 1199.84 4.24494 -0.0224734 0
M  V30 12126 C 1197.74 5.58272 -1.95157 0
M  V30 12127 H 1196.67 0.747995 -0.0949728 0
M  V30 12128 H 1199.33 1.60122 -0.896276 0
M  V30 12129 H 1197.71 3.95011 0.279762 0
M  V30 12130 H 1198.88 3.82051 -2.57631 0
M  V30 12131 H 1197.2 3.53834 -2.19523 0
M  V30 12132 H 1199.79 5.34637 -0.0817744 0
M  V30 12133 H 1200.14 4.03593 1.02069 0
M  V30 12134 H 1200.67 3.92046 -0.67416 0
M  V30 12135 H 1197.41 5.84038 -2.97623 0
M  V30 12136 H 1196.93 5.86335 -1.2638 0
M  V30 12137 H 1198.61 6.23509 -1.72759 0
M  V30 12138 N 1198.74 0.470782 1.50404 0
M  V30 12139 C 1199.99 -0.0844409 2.02624 0
M  V30 12140 C 1200.32 -1.39398 1.3521 0
M  V30 12141 O 1199.59 -1.88542 0.477707 0
M  V30 12142 C 1199.88 -0.268563 3.59097 0
M  V30 12143 C 1199.73 1.06198 4.37084 0
M  V30 12144 C 1201.05 -1.02324 4.28039 0
M  V30 12145 H 1198.17 -0.0292141 0.736421 0
M  V30 12146 H 1200.81 0.616312 1.79726 0
M  V30 12147 H 1198.96 -0.865441 3.78738 0
M  V30 12148 H 1200.63 1.69541 4.29015 0
M  V30 12149 H 1198.87 1.65868 4.00837 0
M  V30 12150 H 1199.55 0.886795 5.4483 0
M  V30 12151 H 1202.02 -0.517325 4.12872 0
M  V30 12152 H 1200.9 -1.12087 5.37334 0
M  V30 12153 H 1201.16 -2.05974 3.91187 0
M  V30 12154 N 1200.22 -1.56282 0.203376 0
M  V30 12155 C 1201.17 -2.20822 -0.730784 0
M  V30 12156 C 1202.16 -1.18193 -1.21354 0
M  V30 12157 O 1203.37 -1.36318 -1.17547 0
M  V30 12158 H 1199.74 -0.707792 -0.254036 0
M  V30 12159 H 1201.71 -2.97955 -0.162825 0
M  V30 12160 C 1200.46 -2.88803 -1.93618 0
M  V30 12161 H 1199.78 -3.67521 -1.57379 0
M  V30 12162 H 1201.22 -3.37387 -2.56799 0
M  V30 12163 C 1199.68 -1.90285 -2.78017 0
M  V30 12164 O 1200.21 -1.40833 -3.76203 0
M  V30 12165 N 1198.42 -1.58332 -2.43679 0
M  V30 12166 H 1197.97 -1.9874 -1.63891 0
M  V30 12167 H 1197.92 -0.926722 -3.00432 0
M  V30 12168 N 1201.7 0.070167 -1.57444 0
M  V30 12169 C 1202.94 0.769014 -1.8733 0
M  V30 12170 C 1203.27 1.77496 -0.79533 0
M  V30 12171 O 1202.53 1.94586 0.208495 0
M  V30 12172 C 1202.82 1.5111 -3.23883 0
M  V30 12173 C 1202.49 0.644988 -4.46263 0
M  V30 12174 C 1201.15 0.406307 -4.79482 0
M  V30 12175 C 1203.5 0.0444938 -5.21181 0
M  V30 12176 C 1200.83 -0.442322 -5.8503 0
M  V30 12177 C 1203.18 -0.791599 -6.27628 0
M  V30 12178 C 1201.85 -1.04014 -6.59346 0
M  V30 12179 H 1201.12 0.281402 -0.685488 0
M  V30 12180 H 1203.77 0.029752 -1.91477 0
M  V30 12181 H 1202.07 2.32261 -3.15535 0
M  V30 12182 H 1203.77 2.05665 -3.44242 0
M  V30 12183 H 1200.36 0.841148 -4.20265 0
M  V30 12184 H 1204.54 0.216005 -4.9583 0
M  V30 12185 H 1199.8 -0.643607 -6.08003 0
M  V30 12186 H 1203.97 -1.26363 -6.8484 0
M  V30 12187 H 1201.6 -1.69949 -7.4096 0
M  V30 12188 N 1203.17 1.53854 0.341593 0
M  V30 12189 C 1204.42 1.71447 1.08322 0
M  V30 12190 C 1204.75 0.477289 1.88243 0
M  V30 12191 O 1204.03 -0.525695 1.87261 0
M  V30 12192 C 1204.31 2.97917 2.02281 0
M  V30 12193 C 1204.16 4.31847 1.25809 0
M  V30 12194 C 1205.48 3.20065 3.0207 0
M  V30 12195 H 1202.6 0.623847 0.392408 0
M  V30 12196 H 1205.24 1.86527 0.361594 0
M  V30 12197 H 1203.39 2.85191 2.63815 0
M  V30 12198 H 1205.07 4.56427 0.668737 0
M  V30 12199 H 1203.31 4.30169 0.560119 0
M  V30 12200 H 1203.98 5.16522 1.94704 0
M  V30 12201 H 1206.46 3.32135 2.50651 0
M  V30 12202 H 1205.33 4.09947 3.65013 0
M  V30 12203 H 1205.59 2.36452 3.73554 0
M  V30 12204 N 1204.65 -0.602709 1.4562 0
M  V30 12205 C 1205.88 -1.39299 1.53657 0
M  V30 12206 C 1206.3 -1.87315 0.171632 0
M  V30 12207 O 1205.66 -1.60423 -0.844639 0
M  V30 12208 C 1205.71 -2.57021 2.52928 0
M  V30 12209 O 1204.81 -3.57812 2.05047 0
M  V30 12210 H 1204.15 -0.41567 0.517798 0
M  V30 12211 H 1206.68 -0.73304 1.91018 0
M  V30 12212 H 1206.69 -3.04202 2.71892 0
M  V30 12213 H 1205.37 -2.21422 3.52058 0
M  V30 12214 H 1203.94 -3.17247 1.95981 0
M  V30 12215 N 1206.13 -1.32992 -0.845635 0
M  V30 12216 C 1207.38 -1.24249 -1.60281 0
M  V30 12217 C 1207.71 0.193049 -1.93238 0
M  V30 12218 O 1206.98 1.1326 -1.58122 0
M  V30 12219 C 1207.27 -2.1111 -2.91727 0
M  V30 12220 C 1207.12 -3.63088 -2.65494 0
M  V30 12221 C 1208.44 -1.97913 -3.93089 0
M  V30 12222 H 1205.56 -0.452698 -0.581578 0
M  V30 12223 H 1208.2 -1.63026 -0.975828 0
M  V30 12224 H 1206.35 -1.78169 -3.45236 0
M  V30 12225 H 1208.02 -4.06287 -2.18469 0
M  V30 12226 H 1206.26 -3.85304 -1.99306 0
M  V30 12227 H 1206.94 -4.19202 -3.59129 0
M  V30 12228 H 1209.41 -2.26788 -3.48864 0
M  V30 12229 H 1208.29 -2.60952 -4.82903 0
M  V30 12230 H 1208.55 -0.949378 -4.31786 0
M  V30 12231 N 1207.61 1.06304 -1.1635 0
M  V30 12232 C 1208.86 1.78747 -0.943074 0
M  V30 12233 C 1209.18 1.87646 0.530483 0
M  V30 12234 O 1208.45 1.38506 1.38538 0
M  V30 12235 H 1207.03 0.662072 -0.345932 0
M  V30 12236 H 1209.69 1.28413 -1.46615 0
M  V30 12237 H 1208.78 2.80828 -1.3617 0
M  V30 12238 N 1209.09 0.96196 1.24836 0
M  V30 12239 C 1210.5 0.660388 1.7463 0
M  V30 12240 C 1210.85 -0.824064 1.78055 0
M  V30 12241 O 1209.97 -1.64485 1.40619 0
M  V30 12242 C 1210.57 1.19205 3.17137 0
M  V30 12243 C 1209.13 0.940493 3.64461 0
M  V30 12244 C 1208.27 1.33076 2.43282 0
M  V30 12245 H 1211.22 1.13794 1.1062 0
M  V30 12246 H 1211.25 0.555595 3.76422 0
M  V30 12247 H 1210.76 2.27247 3.14612 0
M  V30 12248 H 1208.86 -0.124645 3.72391 0
M  V30 12249 H 1208.97 1.5821 4.52224 0
M  V30 12250 H 1207.34 0.749139 2.43434 0
M  V30 12251 H 1208.12 2.42055 2.43442 0
M  V30 12252 N 1210.56 -1.39601 0.731392 0
M  V30 12253 C 1211.79 -2.04887 0.28789 0
M  V30 12254 C 1212.21 -1.55138 -1.076 0
M  V30 12255 O 1211.56 -0.71471 -1.67923 0
M  V30 12256 C 1211.61 -3.6044 0.276629 0
M  V30 12257 O 1211.34 -4.08358 1.58668 0
M  V30 12258 C 1212.84 -4.4292 -0.183485 0
M  V30 12259 H 1210.06 -0.658976 0.126459 0
M  V30 12260 H 1212.6 -1.78716 0.994031 0
M  V30 12261 H 1210.76 -3.85526 -0.380597 0
M  V30 12262 H 1211.17 -5.02659 1.4978 0
M  V30 12263 H 1212.64 -5.51822 -0.140207 0
M  V30 12264 H 1213.12 -4.2168 -1.22811 0
M  V30 12265 H 1213.73 -4.22976 0.444042 0
M  V30 12266 N 1212.04 -0.478751 -1.50152 0
M  V30 12267 C 1213.27 0.0709455 -2.06478 0
M  V30 12268 C 1213.68 1.33376 -1.34192 0
M  V30 12269 O 1213.02 1.79133 -0.40707 0
M  V30 12270 C 1213.09 0.417322 -3.5707 0
M  V30 12271 C 1212.75 -0.744563 -4.50894 0
M  V30 12272 C 1213.75 -1.62879 -4.93727 0
M  V30 12273 C 1211.43 -0.937062 -4.93482 0
M  V30 12274 C 1213.43 -2.68985 -5.77863 0
M  V30 12275 C 1211.11 -2.00134 -5.77399 0
M  V30 12276 C 1212.11 -2.87609 -6.19492 0
M  V30 12277 O 1211.8 -3.92203 -7.01735 0
M  V30 12278 H 1211.53 -0.00720177 -0.675962 0
M  V30 12279 H 1214.08 -0.668797 -1.94207 0
M  V30 12280 H 1212.31 1.21036 -3.6727 0
M  V30 12281 H 1214 0.903002 -3.95728 0
M  V30 12282 H 1214.77 -1.49179 -4.61488 0
M  V30 12283 H 1210.65 -0.265636 -4.60234 0
M  V30 12284 H 1214.19 -3.37293 -6.10639 0
M  V30 12285 H 1210.09 -2.13837 -6.09052 0
M  V30 12286 H 1210.86 -3.89284 -7.2 0
M  V30 12287 N 1213.52 1.56172 -0.211661 0
M  V30 12288 C 1214.45 2.15791 0.74225 0
M  V30 12289 C 1215.43 1.0994 1.198 0
M  V30 12290 O 1216.62 1.38143 1.28253 0
M  V30 12291 C 1213.74 2.73021 2.00443 0
M  V30 12292 C 1212.79 3.91611 1.68946 0
M  V30 12293 S 1213.62 5.29139 0.822949 0
M  V30 12294 C 1214.78 5.898 2.09491 0
M  V30 12295 H 1215.01 2.96366 0.235482 0
M  V30 12296 H 1212.54 1.544 0.0035357 0
M  V30 12297 H 1214.5 3.06635 2.7292 0
M  V30 12298 H 1213.16 1.92457 2.48232 0
M  V30 12299 H 1212.36 4.30122 2.62699 0
M  V30 12300 H 1211.96 3.59093 1.04539 0
M  V30 12301 H 1214.25 6.05172 3.04587 0
M  V30 12302 H 1215.19 6.86036 1.75386 0
M  V30 12303 H 1215.6 5.18546 2.23093 0
M  V30 12304 N 1215 -0.0618163 1.57479 0
M  V30 12305 C 1216.41 -0.416827 1.54061 0
M  V30 12306 C 1216.61 -1.78584 0.933277 0
M  V30 12307 O 1215.67 -2.46656 0.54009 0
M  V30 12308 C 1216.98 -0.348728 2.98671 0
M  V30 12309 C 1218.53 -0.428194 3.10057 0
M  V30 12310 C 1219.01 -0.389898 4.56337 0
M  V30 12311 N 1220.5 -0.449677 4.61012 0
M  V30 12312 C 1221.23 -0.442418 5.71691 0
M  V30 12313 N 1220.73 -0.389381 6.91705 0
M  V30 12314 N 1222.52 -0.489719 5.59963 0
M  V30 12315 H 1214.67 0.834487 1.9532 0
M  V30 12316 H 1216.94 0.314149 0.894435 0
M  V30 12317 H 1216.64 0.590738 3.46703 0
M  V30 12318 H 1216.52 -1.15511 3.59078 0
M  V30 12319 H 1218.9 -1.35808 2.61992 0
M  V30 12320 H 1218.98 0.406946 2.52542 0
M  V30 12321 H 1218.63 0.536186 5.05062 0
M  V30 12322 H 1218.56 -1.24271 5.11727 0
M  V30 12323 H 1221.05 -0.49451 3.74651 0
M  V30 12324 H 1221.36 -0.388042 7.71825 0
M  V30 12325 H 1219.71 -0.355918 6.94088 0
M  V30 12326 H 1222.9 -0.528915 4.65102 0
M  V30 12327 H 1223.07 -0.480592 6.46215 0
M  V30 12328 N 1216.48 -1.54033 -0.333429 0
M  V30 12329 C 1217.72 -1.72019 -1.07411 0
M  V30 12330 C 1218.06 -0.487265 -1.87988 0
M  V30 12331 O 1217.33 0.515757 -1.87537 0
M  V30 12332 C 1217.61 -2.98986 -2.00698 0
M  V30 12333 C 1217.47 -4.32509 -1.23517 0
M  V30 12334 C 1218.79 -3.21663 -3.00368 0
M  V30 12335 H 1215.9 -0.625919 -0.389094 0
M  V30 12336 H 1218.55 -1.86717 -0.351697 0
M  V30 12337 H 1216.7 -2.86586 -2.62298 0
M  V30 12338 H 1218.37 -4.56775 -0.644522 0
M  V30 12339 H 1216.61 -4.3046 -0.537298 0
M  V30 12340 H 1217.28 -5.17547 -1.91962 0
M  V30 12341 H 1219.76 -3.33459 -2.48886 0
M  V30 12342 H 1218.63 -4.11877 -3.62834 0
M  V30 12343 H 1218.9 -2.3843 -3.72295 0
M  V30 12344 N 1217.95 0.594978 -1.45938 0
M  V30 12345 C 1219.18 1.38482 -1.54394 0
M  V30 12346 C 1219.6 1.87222 -0.181563 0
M  V30 12347 O 1218.96 1.60869 0.836119 0
M  V30 12348 C 1219.01 2.55676 -2.54287 0
M  V30 12349 O 1218.11 3.5672 -2.06941 0
M  V30 12350 H 1217.46 0.412918 -0.519995 0
M  V30 12351 H 1219.99 0.722899 -1.91404 0
M  V30 12352 H 1220 3.02756 -2.73501 0
M  V30 12353 H 1218.67 2.19552 -3.53228 0
M  V30 12354 H 1217.25 3.16204 -1.97661 0
M  V30 12355 O 1219.47 1.43597 0.739068 0
M  V30 12356 H 1220.16 1.35046 1.38861 0
M  V30 END ATOM
M  V30 BEGIN BOND
M  V30 END BOND
M  V30 END CTAB
M  END
$$$$
