drugbank_target|P29323 Ephrin type-B receptor 2 (DB04395; DB12010)
 OpenBabel12092120553D

  0  0  0     0  0            999 V3000
M  V30 BEGIN CTAB
M  V30 COUNTS 16321 16494 0 0 0
M  V30 BEGIN ATOM
M  V30 1 H -0.908 1.98254 -0.117106 0
M  V30 2 N 0 1.576 0 0
M  V30 3 C 0.933 2.03868 1.02534 0
M  V30 4 C 1.911 0.928543 1.3348 0
M  V30 5 O 3.095 1.19667 1.45644 0
M  V30 6 C 0.222 2.43627 2.35294 0
M  V30 7 C -0.732 3.65373 2.2001 0
M  V30 8 S 0.101 5.13292 1.52614 0
M  V30 9 C 1.257 5.56322 2.86805 0
M  V30 10 H 1.49 2.90518 0.631377 0
M  V30 11 H -0.977 1.52953 0.210867 0
M  V30 12 H 0.981 2.67203 3.11629 0
M  V30 13 H -0.358 1.57376 2.7183 0
M  V30 14 H -1.165 3.90944 3.18086 0
M  V30 15 H -1.563 3.418 1.51819 0
M  V30 16 H 0.729 5.58782 3.83104 0
M  V30 17 H 1.672 6.56266 2.65933 0
M  V30 18 H 2.08 4.83886 2.90714 0
M  V30 19 N 1.4781 -0.272755 1.55222 0
M  V30 20 C 2.4411 -1.32041 1.87344 0
M  V30 21 C 3.4411 -1.42342 0.74803 0
M  V30 22 O 4.6311 -1.41488 1.0162 0
M  V30 23 C 1.7631 -2.70173 2.07893 0
M  V30 24 H 2.9561 -1.04789 2.80997 0
M  V30 25 H 0.5091 -0.51083 1.47717 0
M  V30 26 H 1.2441 -3.02605 1.16622 0
M  V30 27 H 1.0291 -2.64082 2.89833 0
M  V30 28 H 2.5191 -3.45869 2.34017 0
M  V30 29 N 2.9562 -1.48159 -0.537278 0
M  V30 30 C 3.8862 -1.65029 -1.6519 0
M  V30 31 C 4.8672 -0.499281 -1.62607 0
M  V30 32 O 6.0522 -0.730972 -1.79918 0
M  V30 33 C 3.1822 -1.68303 -3.03795 0
M  V30 34 C 2.1362 -2.8283 -3.21234 0
M  V30 35 C 1.4622 -2.71189 -4.60826 0
M  V30 36 C 2.7622 -4.24211 -3.04701 0
M  V30 37 H 4.4562 -2.58341 -1.51328 0
M  V30 38 H 2.0022 -1.24325 -0.726585 0
M  V30 39 H 3.9552 -1.78693 -3.81637 0
M  V30 40 H 2.6792 -0.715635 -3.18663 0
M  V30 41 H 1.3382 -2.71983 -2.45807 0
M  V30 42 H 0.9862 -1.72435 -4.7252 0
M  V30 43 H 0.6862 -3.48035 -4.7344 0
M  V30 44 H 2.2102 -2.83537 -5.40777 0
M  V30 45 H 3.6242 -4.3593 -3.72341 0
M  V30 46 H 2.0212 -5.01998 -3.28813 0
M  V30 47 H 3.0912 -4.41184 -2.01209 0
M  V30 48 N 4.4343 0.785586 -1.36625 0
M  V30 49 C 5.8503 1.08419 -1.17122 0
M  V30 50 C 6.0503 2.015 0.00208491 0
M  V30 51 O 5.1063 2.43551 0.666278 0
M  V30 52 C 6.4193 1.69498 -2.48377 0
M  V30 53 C 7.9673 1.81821 -2.54775 0
M  V30 54 C 8.4423 2.46315 -3.86126 0
M  V30 55 N 9.9333 2.53779 -3.87492 0
M  V30 56 C 10.6683 3.045 -4.85868 0
M  V30 57 N 10.1643 3.55499 -5.94637 0
M  V30 58 N 11.9573 3.03247 -4.73284 0
M  V30 59 H 4.1083 0.167264 -2.1174 0
M  V30 60 H 6.3713 0.13682 -0.938075 0
M  V30 61 H 6.0773 1.08571 -3.34522 0
M  V30 62 H 5.9513 2.6896 -2.64462 0
M  V30 63 H 8.3383 2.41884 -1.69045 0
M  V30 64 H 8.4193 0.811532 -2.42586 0
M  V30 65 H 8.0633 1.86895 -4.72263 0
M  V30 66 H 7.9933 3.47561 -3.95612 0
M  V30 67 H 10.4843 2.17672 -3.08913 0
M  V30 68 H 10.7973 3.92562 -6.65669 0
M  V30 69 H 9.1423 3.5364 -5.98301 0
M  V30 70 H 12.3333 2.62696 -3.87438 0
M  V30 71 H 12.5063 3.42467 -5.50109 0
M  V30 72 N 5.9124 1.20967 1.01018 0
M  V30 73 C 7.3284 0.965905 1.27053 0
M  V30 74 C 7.5284 -0.350785 1.98423 0
M  V30 75 O 6.5844 -1.07773 2.28344 0
M  V30 76 C 7.8974 2.15294 2.09926 0
M  V30 77 C 9.4454 2.19463 2.23171 0
M  V30 78 C 9.9204 3.3767 3.09424 0
M  V30 79 N 11.4114 3.37724 3.17012 0
M  V30 80 C 12.1464 4.25837 3.83993 0
M  V30 81 N 11.6424 5.24138 4.53047 0
M  V30 82 N 13.4354 4.1366 3.80581 0
M  V30 83 H 5.5864 2.0565 0.531194 0
M  V30 84 H 7.8494 0.90024 0.297106 0
M  V30 85 H 7.5554 3.10684 1.64828 0
M  V30 86 H 7.4294 2.13923 3.10672 0
M  V30 87 H 9.8164 1.24632 2.6749 0
M  V30 88 H 9.8974 2.2488 1.21912 0
M  V30 89 H 9.5414 4.32791 2.65808 0
M  V30 90 H 9.4714 3.29491 4.10784 0
M  V30 91 H 11.9624 2.6658 2.6785 0
M  V30 92 H 12.2754 5.87684 5.01844 0
M  V30 93 H 10.6204 5.28068 4.5185 0
M  V30 94 H 13.8114 3.36127 3.25785 0
M  V30 95 H 13.9844 4.82538 4.32505 0
M  V30 96 N 7.3905 -1.2043 1.01659 0
M  V30 97 C 8.3205 -2.25466 0.607226 0
M  V30 98 C 9.3015 -1.65853 -0.377716 0
M  V30 99 O 10.4865 -1.92409 -0.263149 0
M  V30 100 C 7.6165 -3.47256 -0.0552949 0
M  V30 101 C 6.5705 -4.19462 0.850632 0
M  V30 102 C 5.8965 -5.34673 0.0538859 0
M  V30 103 C 7.1965 -4.75603 2.15868 0
M  V30 104 H 8.8905 -2.59962 1.48526 0
M  V30 105 H 6.4365 -1.2496 0.715605 0
M  V30 106 H 8.3895 -4.19917 -0.353233 0
M  V30 107 H 7.1135 -3.11924 -0.968045 0
M  V30 108 H 5.7725 -3.48667 1.13257 0
M  V30 109 H 5.4205 -4.95585 -0.860514 0
M  V30 110 H 5.1205 -5.83913 0.657192 0
M  V30 111 H 6.6445 -6.10138 -0.237598 0
M  V30 112 H 8.0585 -5.40083 1.92311 0
M  V30 113 H 6.4555 -5.3528 2.71284 0
M  V30 114 H 7.5255 -3.94346 2.82169 0
M  V30 115 N 8.8686 -0.792821 -1.36206 0
M  V30 116 C 10.1166 -0.366062 -1.98757 0
M  V30 117 C 10.4376 1.0668 -1.63231 0
M  V30 118 O 9.7076 1.73587 -0.907978 0
M  V30 119 H 8.2876 -0.132364 -0.735179 0
M  V30 120 H 10.9496 -1.01562 -1.66347 0
M  V30 121 H 10.0456 -0.460638 -3.08682 0
M  V30 122 N 10.3467 1.47872 -0.545128 0
M  V30 123 C 11.3097 2.28337 0.198717 0
M  V30 124 C 12.3097 1.36255 0.853888 0
M  V30 125 O 13.4997 1.59003 0.711606 0
M  V30 126 C 10.6317 3.15585 1.28915 0
M  V30 127 H 11.8247 2.95567 -0.507941 0
M  V30 128 H 9.3777 1.53362 -0.301616 0
M  V30 129 H 10.1127 2.53019 2.02859 0
M  V30 130 H 9.8977 3.83337 0.824309 0
M  V30 131 H 11.3877 3.76243 1.81194 0
M  V30 132 N 11.8248 0.280983 1.55075 0
M  V30 133 C 12.7878 -0.590896 2.21452 0
M  V30 134 C 13.7878 -1.07682 1.19421 0
M  V30 135 O 14.9778 -0.97605 1.44288 0
M  V30 136 C 12.1098 -1.81587 2.88511 0
M  V30 137 H 13.3028 -0.0112554 2.99898 0
M  V30 138 H 10.8558 0.0316438 1.56268 0
M  V30 139 H 11.5908 -2.43587 2.14093 0
M  V30 140 H 11.3758 -1.4753 3.63287 0
M  V30 141 H 12.8658 -2.43575 3.39206 0
M  V30 142 N 13.3029 -1.57598 0.00835791 0
M  V30 143 C 14.2329 -2.1198 -0.979113 0
M  V30 144 C 15.2139 -1.03091 -1.35301 0
M  V30 145 O 16.3989 -1.30818 -1.43528 0
M  V30 146 C 13.5289 -2.62995 -2.26828 0
M  V30 147 C 12.4829 -3.76485 -2.03576 0
M  V30 148 C 11.8089 -4.13846 -3.38579 0
M  V30 149 C 13.1089 -5.0342 -1.39161 0
M  V30 150 H 14.8029 -2.94738 -0.526281 0
M  V30 151 H 12.3489 -1.41783 -0.251704 0
M  V30 152 H 14.3019 -2.99669 -2.96271 0
M  V30 153 H 13.0259 -1.7737 -2.7424 0
M  V30 154 H 11.6849 -3.40217 -1.36557 0
M  V30 155 H 11.3329 -3.25232 -3.83709 0
M  V30 156 H 11.0329 -4.90312 -3.23834 0
M  V30 157 H 12.5569 -4.53086 -4.09323 0
M  V30 158 H 13.9709 -5.37812 -1.98573 0
M  V30 159 H 12.3679 -5.84746 -1.34878 0
M  V30 160 H 13.4379 -4.83548 -0.361868 0
M  V30 161 N 14.781 0.264519 -1.55364 0
M  V30 162 C 15.711 1.33121 -1.91836 0
M  V30 163 C 16.692 1.51101 -0.781192 0
M  V30 164 O 17.877 1.64003 -1.04003 0
M  V30 165 C 15.007 2.68921 -2.19769 0
M  V30 166 C 13.961 2.65661 -3.35571 0
M  V30 167 C 13.287 4.05093 -3.49004 0
M  V30 168 C 14.587 2.24187 -4.71739 0
M  V30 169 H 16.281 1.02844 -2.81182 0
M  V30 170 H 13.827 0.493286 -1.35287 0
M  V30 171 H 15.78 3.43663 -2.43872 0
M  V30 172 H 14.504 3.00799 -1.27231 0
M  V30 173 H 13.163 1.93377 -3.1145 0
M  V30 174 H 12.811 4.34206 -2.53917 0
M  V30 175 H 12.511 4.03804 -4.26868 0
M  V30 176 H 14.035 4.81561 -3.75408 0
M  V30 177 H 15.449 2.88654 -4.9533 0
M  V30 178 H 13.846 2.34044 -5.52579 0
M  V30 179 H 14.916 1.19327 -4.69988 0
M  V30 180 N 16.2591 1.48442 0.529413 0
M  V30 181 C 17.1891 1.65902 1.64313 0
M  V30 182 C 18.1701 0.507897 1.6234 0
M  V30 183 O 19.3551 0.740503 1.79528 0
M  V30 184 C 16.4851 1.69911 3.02898 0
M  V30 185 C 15.4391 2.8453 3.19729 0
M  V30 186 C 14.7651 2.73629 4.59381 0
M  V30 187 C 16.0651 4.25821 3.02447 0
M  V30 188 H 17.7591 2.5914 1.49955 0
M  V30 189 H 15.3051 1.24709 0.719982 0
M  V30 190 H 17.2581 1.80715 3.80684 0
M  V30 191 H 15.9821 0.732524 3.18279 0
M  V30 192 H 14.6411 2.73283 2.44361 0
M  V30 193 H 14.2891 1.74938 4.71599 0
M  V30 194 H 13.9891 3.50541 4.71588 0
M  V30 195 H 15.5131 2.86401 5.39265 0
M  V30 196 H 16.9271 4.37898 3.70024 0
M  V30 197 H 15.3241 5.03735 3.26146 0
M  V30 198 H 16.3941 4.42244 1.98867 0
M  V30 199 N 17.7372 -0.778329 1.37039 0
M  V30 200 C 18.6672 -1.90546 1.34962 0
M  V30 201 C 19.6482 -1.68681 0.219274 0
M  V30 202 O 20.8332 -1.89634 0.418624 0
M  V30 203 C 17.9632 -3.27734 1.14925 0
M  V30 204 C 16.9172 -3.64147 2.24902 0
M  V30 205 C 16.2432 -4.99806 1.89996 0
M  V30 206 C 17.5432 -3.71579 3.67051 0
M  V30 207 H 19.2372 -1.92541 2.29277 0
M  V30 208 H 16.7832 -0.924948 1.10366 0
M  V30 209 H 18.7362 -4.06215 1.12104 0
M  V30 210 H 17.4602 -3.26154 0.170631 0
M  V30 211 H 16.1192 -2.8797 2.26868 0
M  V30 212 H 15.7672 -4.94759 0.906796 0
M  V30 213 H 15.4672 -5.25139 2.63634 0
M  V30 214 H 16.9912 -5.80694 1.88749 0
M  V30 215 H 18.4052 -4.40227 3.67251 0
M  V30 216 H 16.8022 -4.08405 4.39688 0
M  V30 217 H 17.8722 -2.72404 4.01154 0
M  V30 218 N 19.2153 -1.21501 -1.00376 0
M  V30 219 C 20.6263 -1.03146 -1.55621 0
M  V30 220 C 20.9773 0.408375 -1.91903 0
M  V30 221 O 20.1023 1.29177 -1.73616 0
M  V30 222 C 20.6973 -1.86612 -2.82775 0
M  V30 223 C 19.2563 -1.72586 -3.34501 0
M  V30 224 C 18.4033 -1.83747 -2.07683 0
M  V30 225 H 21.3543 -1.35505 -0.826081 0
M  V30 226 H 21.3753 -1.3771 -3.54706 0
M  V30 227 H 20.8873 -2.91399 -2.56336 0
M  V30 228 H 18.9883 -0.704877 -3.65872 0
M  V30 229 H 19.1013 -2.54623 -4.05837 0
M  V30 230 H 17.4653 -1.27069 -2.20739 0
M  V30 231 H 18.2483 -2.90044 -1.83655 0
M  V30 232 N 20.6934 1.19889 -1.02296 0
M  V30 233 C 21.6234 2.25141 -0.619174 0
M  V30 234 C 22.6044 1.66051 0.368915 0
M  V30 235 O 23.7894 1.92546 0.252941 0
M  V30 236 C 20.9194 3.4728 0.0368783 0
M  V30 237 C 19.8734 4.19005 -0.872865 0
M  V30 238 C 19.1994 5.34637 -0.0822402 0
M  V30 239 C 20.4994 4.74452 -2.18387 0
M  V30 240 H 22.1934 2.59171 -1.49903 0
M  V30 241 H 19.7394 1.24579 -0.722222 0
M  V30 242 H 21.6924 4.20098 0.330958 0
M  V30 243 H 20.4164 3.12433 0.95149 0
M  V30 244 H 19.0754 3.48061 -1.15105 0
M  V30 245 H 18.7234 4.96034 0.83422 0
M  V30 246 H 18.4234 5.83557 -0.688149 0
M  V30 247 H 19.9474 6.10255 0.205238 0
M  V30 248 H 21.3614 5.39055 -1.95172 0
M  V30 249 H 19.7584 5.33834 -2.74119 0
M  V30 250 H 20.8284 3.92844 -2.84257 0
M  V30 251 N 22.1715 0.800033 1.35784 0
M  V30 252 C 23.1015 0.220184 2.3246 0
M  V30 253 C 24.0825 -0.65073 1.57161 0
M  V30 254 O 25.2675 -0.582359 1.85263 0
M  V30 255 C 22.3975 -0.637353 3.41402 0
M  V30 256 C 21.3515 0.134531 4.27789 0
M  V30 257 C 20.6775 -0.844285 5.27992 0
M  V30 258 C 21.9775 1.32979 5.05088 0
M  V30 259 H 23.6715 1.02787 2.81203 0
M  V30 260 H 21.2175 0.495717 1.35199 0
M  V30 261 H 23.1705 -1.05302 4.08031 0
M  V30 262 H 21.8945 -1.47785 2.91251 0
M  V30 263 H 20.5535 0.531296 3.6273 0
M  V30 264 H 20.2015 -1.68011 4.74111 0
M  V30 265 H 19.9015 -0.332184 5.8666 0
M  V30 266 H 21.4255 -1.2583 5.97494 0
M  V30 267 H 22.8395 0.98934 5.64699 0
M  V30 268 H 21.2365 1.77593 5.7322 0
M  V30 269 H 22.3065 2.11978 4.36111 0
M  V30 270 N 23.6496 -1.47581 0.552962 0
M  V30 271 C 24.6126 -2.28439 -0.186605 0
M  V30 272 C 25.6126 -1.36706 -0.84665 0
M  V30 273 O 26.8026 -1.59378 -0.703164 0
M  V30 274 C 23.9346 -3.16264 -1.2724 0
M  V30 275 H 25.1276 -2.95294 0.523609 0
M  V30 276 H 22.6806 -1.532 0.309745 0
M  V30 277 H 23.4156 -2.54091 -2.01514 0
M  V30 278 H 23.2006 -3.83769 -0.803968 0
M  V30 279 H 24.6906 -3.77198 -1.79196 0
M  V30 280 N 25.1277 -0.289203 -1.54924 0
M  V30 281 C 26.0907 0.579144 -2.21762 0
M  V30 282 C 27.0907 1.07047 -1.1999 0
M  V30 283 O 28.2807 0.968384 -1.44803 0
M  V30 284 C 25.4127 1.80055 -2.8947 0
M  V30 285 H 26.6057 -0.00464908 -2.999 0
M  V30 286 H 24.1587 -0.0399306 -1.56249 0
M  V30 287 H 24.8937 2.42449 -2.15381 0
M  V30 288 H 24.6787 1.45602 -3.64064 0
M  V30 289 H 26.1687 2.41773 -3.40493 0
M  V30 290 N 26.6058 1.57591 -0.0167156 0
M  V30 291 C 27.8518 1.91567 0.665582 0
M  V30 292 C 28.1848 0.892298 1.72487 0
M  V30 293 O 27.4598 -0.0867127 1.94307 0
M  V30 294 C 27.7428 3.36069 1.29342 0
M  V30 295 C 27.5958 4.49135 0.244541 0
M  V30 296 C 28.9148 3.803 2.21495 0
M  V30 297 H 26.0338 0.69666 0.240488 0
M  V30 298 H 28.6758 1.89866 -0.0714356 0
M  V30 299 H 26.8258 3.3765 1.92158 0
M  V30 300 H 28.4978 4.59689 -0.385228 0
M  V30 301 H 26.7408 4.3165 -0.431379 0
M  V30 302 H 27.4118 5.47242 0.723207 0
M  V30 303 H 29.8878 3.80377 1.68678 0
M  V30 304 H 28.7638 4.82127 2.62382 0
M  V30 305 H 29.0248 3.15104 3.101 0
M  V30 306 N 28.0839 -0.256276 1.55502 0
M  V30 307 C 28.9939 -1.33882 1.92647 0
M  V30 308 C 30.0099 -1.53159 0.825727 0
M  V30 309 O 31.1859 -1.66963 1.12629 0
M  V30 310 C 28.2509 -2.6751 2.20543 0
M  V30 311 C 27.3119 -2.56836 3.43997 0
M  V30 312 C 26.5449 -3.84092 3.70553 0
M  V30 313 O 26.7679 -4.85545 2.99336 0
M  V30 314 O 25.7019 -3.83288 4.64084 0
M  V30 315 H 29.5279 -1.05374 2.84833 0
M  V30 316 H 27.1129 -0.456237 1.42263 0
M  V30 317 H 28.9949 -3.46492 2.39835 0
M  V30 318 H 27.6699 -2.9577 1.31536 0
M  V30 319 H 26.5769 -1.76172 3.30021 0
M  V30 320 H 27.9099 -2.33523 4.33275 0
M  V30 321 N 29.562 -1.4872 -0.521534 0
M  V30 322 C 30.472 -1.66569 -1.65203 0
M  V30 323 C 31.488 -0.548197 -1.65139 0
M  V30 324 O 32.664 -0.820339 -1.83936 0
M  V30 325 C 29.729 -1.70917 -3.01642 0
M  V30 326 C 28.79 -2.94356 -3.12495 0
M  V30 327 C 28.023 -2.98487 -4.42426 0
M  V30 328 O 28.246 -2.10786 -5.30024 0
M  V30 329 O 27.18 -3.90746 -4.57822 0
M  V30 330 H 31.006 -2.62298 -1.5308 0
M  V30 331 H 28.591 -1.3222 -0.695565 0
M  V30 332 H 30.473 -1.7625 -3.82771 0
M  V30 333 H 29.148 -0.783633 -3.14071 0
M  V30 334 H 28.055 -2.94552 -2.3063 0
M  V30 335 H 29.388 -3.86322 -3.04986 0
M  V30 336 N 31.0401 0.771051 -1.3745 0
M  V30 337 C 32.2681 1.56015 -1.35893 0
M  V30 338 C 32.6831 1.88718 0.0555523 0
M  V30 339 O 32.0401 1.51502 1.01752 0
M  V30 340 C 32.0911 2.87001 -2.19801 0
M  V30 341 O 31.8121 2.557 -3.55738 0
M  V30 342 C 33.3131 3.81228 -2.26231 0
M  V30 343 H 30.5331 0.483317 -0.465453 0
M  V30 344 H 33.0771 0.955611 -1.80799 0
M  V30 345 H 31.2321 3.43877 -1.78402 0
M  V30 346 H 31.6461 3.39584 -3.99729 0
M  V30 347 H 33.1201 4.70139 -2.89263 0
M  V30 348 H 33.5971 4.20409 -1.27093 0
M  V30 349 H 34.2031 3.30281 -2.67945 0
M  V30 350 N 32.5182 1.22032 0.997298 0
M  V30 351 C 33.4482 1.01065 2.10495 0
M  V30 352 C 34.4292 -0.0669542 1.69968 0
M  V30 353 O 35.6142 0.0943987 1.9397 0
M  V30 354 C 32.7442 0.582874 3.42374 0
M  V30 355 C 31.6982 1.60592 3.96729 0
M  V30 356 C 31.0242 1.03412 5.24605 0
M  V30 357 C 32.3242 2.99478 4.27914 0
M  V30 358 H 34.0182 1.93708 2.28292 0
M  V30 359 H 31.5642 0.932761 1.09707 0
M  V30 360 H 33.5172 0.423332 4.19268 0
M  V30 361 H 32.2412 -0.379213 3.24391 0
M  V30 362 H 30.9002 1.75316 3.21963 0
M  V30 363 H 30.5482 0.063518 5.0296 0
M  V30 364 H 30.2482 1.71754 5.61938 0
M  V30 365 H 31.7722 0.886066 6.04137 0
M  V30 366 H 33.1862 2.88153 4.95622 0
M  V30 367 H 31.5832 3.64903 4.76409 0
M  V30 368 H 32.6532 3.49742 3.3587 0
M  V30 369 N 33.9963 -1.19345 1.0293 0
M  V30 370 C 34.9293 -2.21347 0.555029 0
M  V30 371 C 35.9073 -1.57492 -0.404351 0
M  V30 372 O 37.0913 -1.85741 -0.321352 0
M  V30 373 C 34.2183 -3.38163 -0.19064 0
M  V30 374 C 33.2643 -4.20375 0.720236 0
M  V30 375 S 34.0973 -4.88371 2.19668 0
M  V30 376 C 35.2533 -6.08597 1.46153 0
M  V30 377 H 35.4863 -2.61235 1.41929 0
M  V30 378 H 33.0193 -1.29598 0.839272 0
M  V30 379 H 34.9773 -4.05871 -0.614724 0
M  V30 380 H 33.6383 -2.9671 -1.03063 0
M  V30 381 H 32.8313 -5.03793 0.14455 0
M  V30 382 H 32.4333 -3.57987 1.08266 0
M  V30 383 H 34.7253 -6.73354 0.748357 0
M  V30 384 H 35.6683 -6.7065 2.27233 0
M  V30 385 H 36.0763 -5.56297 0.958842 0
M  V30 386 N 35.4744 -0.807222 -1.35358 0
M  V30 387 C 36.7514 -0.311126 -1.9311 0
M  V30 388 C 37.1314 1.19937 -1.73719 0
M  V30 389 O 36.4794 1.99918 -1.10657 0
M  V30 390 C 36.6894 -0.723226 -3.41424 0
M  V30 391 C 38.0374 -0.713078 -4.18569 0
M  V30 392 O 39.0614 -0.664811 -3.49941 0
M  V30 393 O 37.9204 -0.772022 -5.41019 0
M  V30 394 H 35.0144 -0.081526 -0.822972 0
M  V30 395 H 37.5604 -0.890962 -1.4443 0
M  V30 396 H 36.3324 -1.76426 -3.4927 0
M  V30 397 H 35.9554 -0.118232 -3.97424 0
M  V30 398 N 36.9525 1.47285 -0.560781 0
M  V30 399 C 38.1775 2.07359 -0.0410566 0
M  V30 400 C 38.6025 1.41017 1.24483 0
M  V30 401 O 37.9605 0.486368 1.74654 0
M  V30 402 C 38.0085 3.6035 0.134123 0
M  V30 403 O 37.1125 3.94681 1.19587 0
M  V30 404 H 36.4535 0.661887 -0.0529291 0
M  V30 405 H 38.9835 1.89252 -0.777482 0
M  V30 406 H 38.9935 4.0652 0.347207 0
M  V30 407 H 37.6685 4.08034 -0.805047 0
M  V30 408 H 36.2455 3.60251 0.962987 0
M  V30 409 N 38.4306 0.297415 1.54768 0
M  V30 410 C 39.6586 -0.315623 2.04478 0
M  V30 411 C 40.0736 -1.47792 1.17486 0
M  V30 412 O 39.4306 -1.81404 0.19971 0
M  V30 413 C 39.4816 -0.7753 3.53088 0
M  V30 414 O 39.2026 0.340732 4.36773 0
M  V30 415 C 40.7036 -1.45386 4.18781 0
M  V30 416 H 37.9236 -0.0690887 0.667434 0
M  V30 417 H 40.4676 0.436003 1.99798 0
M  V30 418 H 38.6226 -1.47696 3.58141 0
M  V30 419 H 39.0366 -0.0165035 5.24497 0
M  V30 420 H 40.5106 -1.72669 5.24299 0
M  V30 421 H 40.9876 -2.39275 3.68299 0
M  V30 422 H 41.5936 -0.795475 4.17795 0
M  V30 423 N 39.9087 -1.5758 0.0250728 0
M  V30 424 C 41.1367 -1.9593 -0.664747 0
M  V30 425 C 41.5517 -0.901352 -1.65895 0
M  V30 426 O 40.9087 0.117255 -1.82123 0
M  V30 427 C 40.9597 -3.34342 -1.37468 0
M  V30 428 O 40.6807 -4.36079 -0.420324 0
M  V30 429 C 42.1817 -3.873 -2.1567 0
M  V30 430 H 39.4017 -0.645405 -0.183557 0
M  V30 431 H 41.9457 -2.04329 0.0836372 0
M  V30 432 H 40.1007 -3.27175 -2.0745 0
M  V30 433 H 40.5147 -5.16297 -0.923991 0
M  V30 434 H 41.9887 -4.86504 -2.60803 0
M  V30 435 H 42.4657 -3.21331 -2.99405 0
M  V30 436 H 43.0717 -3.97723 -1.50654 0
M  V30 437 N 41.3868 0.248026 -1.55636 0
M  V30 438 C 42.3498 1.29044 -1.89421 0
M  V30 439 C 43.3498 1.41134 -0.770581 0
M  V30 440 O 44.5398 1.39854 -1.03858 0
M  V30 441 C 41.6718 2.66831 -2.12165 0
M  V30 442 H 42.8648 1.00305 -2.82629 0
M  V30 443 H 40.4178 0.487265 -1.48511 0
M  V30 444 H 41.1528 3.00711 -1.21422 0
M  V30 445 H 40.9378 2.59438 -2.93997 0
M  V30 446 H 42.4278 3.42103 -2.3949 0
M  V30 447 N 42.8649 1.48995 0.513639 0
M  V30 448 C 44.0929 1.61531 1.29288 0
M  V30 449 C 44.5079 0.281801 1.86685 0
M  V30 450 O 43.8649 -0.731111 1.67215 0
M  V30 451 C 43.9159 2.67449 2.43215 0
M  V30 452 O 43.6369 3.95626 1.88179 0
M  V30 453 C 45.1379 2.90575 3.34785 0
M  V30 454 H 42.3579 0.544165 0.392588 0
M  V30 455 H 44.9019 1.9494 0.617956 0
M  V30 456 H 43.0569 2.36853 3.0656 0
M  V30 457 H 43.4709 4.53868 2.62876 0
M  V30 458 H 44.9449 3.68449 4.11035 0
M  V30 459 H 45.4219 2.00011 3.91015 0
M  V30 460 H 46.0279 3.22538 2.77218 0
M  V30 461 N 44.343 -0.763751 1.37857 0
M  V30 462 C 45.306 -1.85889 1.34081 0
M  V30 463 C 46.306 -1.58949 0.243277 0
M  V30 464 O 47.496 -1.66882 0.499589 0
M  V30 465 C 44.628 -3.23176 1.08489 0
M  V30 466 H 45.821 -1.90648 2.31502 0
M  V30 467 H 43.374 -0.964367 1.23003 0
M  V30 468 H 44.109 -3.24091 0.116318 0
M  V30 469 H 43.894 -3.44124 1.8794 0
M  V30 470 H 45.384 -4.03254 1.08517 0
M  V30 471 N 45.8211 -1.22559 -0.990812 0
M  V30 472 C 46.7311 -1.01394 -2.11557 0
M  V30 473 C 47.7471 0.0383962 -1.73958 0
M  V30 474 O 48.9231 -0.154787 -2.00804 0
M  V30 475 C 45.9881 -0.596569 -3.41529 0
M  V30 476 C 45.0491 -1.72276 -3.93217 0
M  V30 477 C 44.2821 -1.32521 -5.16985 0
M  V30 478 O 44.5051 -0.204909 -5.70032 0
M  V30 479 O 43.4391 -2.14247 -5.62478 0
M  V30 480 H 47.2651 -1.95633 -2.32296 0
M  V30 481 H 44.8501 -1.01172 -1.0993 0
M  V30 482 H 46.7321 -0.374263 -4.19735 0
M  V30 483 H 45.4071 0.316939 -3.22145 0
M  V30 484 H 44.3141 -1.99961 -3.16174 0
M  V30 485 H 45.6471 -2.61421 -4.17037 0
M  V30 486 N 47.2992 1.18797 -1.03562 0
M  V30 487 C 48.2292 2.24472 -0.643019 0
M  V30 488 C 49.2102 1.66433 0.351283 0
M  V30 489 O 50.3952 1.92803 0.232505 0
M  V30 490 C 47.5252 3.473 4.24935e-05 0
M  V30 491 C 46.4792 4.18055 -0.917257 0
M  V30 492 C 45.8052 5.34519 -0.138941 0
M  V30 493 C 47.1052 4.72109 -2.23407 0
M  V30 494 H 48.7992 2.57566 -1.52643 0
M  V30 495 H 46.3452 1.23806 -0.735394 0
M  V30 496 H 48.2982 4.20426 0.286383 0
M  V30 497 H 47.0222 3.13424 0.918299 0
M  V30 498 H 45.6812 3.46821 -1.1879 0
M  V30 499 H 45.3292 4.96891 0.781562 0
M  V30 500 H 45.0292 5.82794 -0.750005 0
M  V30 501 H 46.5532 6.10438 0.1405 0
M  V30 502 H 47.9672 5.36955 -2.00879 0
M  V30 503 H 46.3642 5.30897 -2.79765 0
M  V30 504 H 47.4342 3.89807 -2.88407 0
M  V30 505 N 48.7773 0.814389 1.34928 0
M  V30 506 C 50.0253 0.397636 1.9815 0
M  V30 507 C 50.3463 -1.04069 1.64908 0
M  V30 508 O 49.6163 -1.72121 0.93548 0
M  V30 509 H 48.1963 0.144043 0.732981 0
M  V30 510 H 50.8583 1.04195 1.6471 0
M  V30 511 H 49.9543 0.509688 3.0791 0
M  V30 512 N 50.2554 -1.46986 0.568584 0
M  V30 513 C 51.5014 -2.0332 0.0571487 0
M  V30 514 C 51.8564 -1.43384 -1.28291 0
M  V30 515 O 51.1494 -0.584304 -1.82473 0
M  V30 516 C 51.3434 -3.57306 -0.081836 0
M  V30 517 C 51.1724 -4.32174 1.24321 0
M  V30 518 C 49.9424 -4.71633 1.81358 0
M  V30 519 C 52.1404 -4.66598 2.16312 0
M  V30 520 N 50.1224 -5.31191 3.07748 0
M  V30 521 C 51.4934 -5.26578 3.27285 0
M  V30 522 C 53.5484 -4.48527 2.16166 0
M  V30 523 C 52.2514 -5.70395 4.38226 0
M  V30 524 C 54.2774 -4.93351 3.26127 0
M  V30 525 C 53.6394 -5.5339 4.3582 0
M  V30 526 H 49.7384 -0.77943 0.063351 0
M  V30 527 H 52.3224 -1.79323 0.758378 0
M  V30 528 H 50.4934 -3.81046 -0.752207 0
M  V30 529 H 52.2254 -4.00282 -0.59637 0
M  V30 530 H 48.9804 -4.53946 1.35019 0
M  V30 531 H 49.4044 -5.65505 3.72201 0
M  V30 532 H 54.0464 -4.01456 1.32638 0
M  V30 533 H 51.7644 -6.16452 5.22506 0
M  V30 534 H 55.3504 -4.81131 3.27115 0
M  V30 535 H 54.2304 -5.87441 5.19503 0
M  V30 536 N 51.7335 -0.305618 -1.54608 0
M  V30 537 C 52.6665 0.610536 -2.19881 0
M  V30 538 C 53.6445 1.1294 -1.16976 0
M  V30 539 O 54.8285 1.19673 -1.45638 0
M  V30 540 C 51.9555 1.83583 -2.84631 0
M  V30 541 C 51.0015 1.4498 -4.01102 0
M  V30 542 S 51.8345 0.501793 -5.33144 0
M  V30 543 C 52.9905 1.73478 -6.01379 0
M  V30 544 H 53.2235 0.0560177 -2.97247 0
M  V30 545 H 50.7565 -0.0897434 -1.54139 0
M  V30 546 H 52.7145 2.53898 -3.22562 0
M  V30 547 H 51.3755 2.36152 -2.07102 0
M  V30 548 H 50.5685 2.36236 -4.45206 0
M  V30 549 H 50.1705 0.826553 -3.64752 0
M  V30 550 H 52.4625 2.67473 -6.22467 0
M  V30 551 H 53.4055 1.33622 -6.95378 0
M  V30 552 H 53.8135 1.9136 -5.31076 0
M  V30 553 N 53.2116 1.57565 -0.0334293 0
M  V30 554 C 54.4576 1.92262 0.645226 0
M  V30 555 C 54.7906 0.910543 1.71531 0
M  V30 556 O 54.0656 -0.066099 1.94388 0
M  V30 557 C 54.3486 3.37422 1.2577 0
M  V30 558 C 54.2016 4.49369 0.196891 0
M  V30 559 C 55.5206 3.82628 2.17449 0
M  V30 560 H 52.6396 0.699171 0.233085 0
M  V30 561 H 55.2816 1.89779 -0.0915694 0
M  V30 562 H 53.4316 3.39669 1.88566 0
M  V30 563 H 55.1036 4.59254 -0.433962 0
M  V30 564 H 53.3466 4.31168 -0.477137 0
M  V30 565 H 54.0176 5.47978 0.665124 0
M  V30 566 H 56.4936 3.82145 1.64634 0
M  V30 567 H 55.3696 4.84883 2.57254 0
M  V30 568 H 55.6306 3.18376 3.0674 0
M  V30 569 N 54.6897 -0.239769 1.55765 0
M  V30 570 C 55.6397 -1.30002 1.87306 0
M  V30 571 C 56.6237 -1.43156 0.73452 0
M  V30 572 O 57.8157 -1.46277 0.99659 0
M  V30 573 C 54.9447 -2.65409 2.17745 0
M  V30 574 C 54.0307 -2.56231 3.37945 0
M  V30 575 N 54.4217 -2.16689 4.57033 0
M  V30 576 C 52.7197 -2.87229 3.41197 0
M  V30 577 C 53.4207 -2.18318 5.39177 0
M  V30 578 N 52.3967 -2.58098 4.78421 0
M  V30 579 H 56.1987 -0.984912 2.76906 0
M  V30 580 H 53.7127 -0.448381 1.56087 0
M  V30 581 H 55.7097 -3.41934 2.38509 0
M  V30 582 H 54.3697 -2.97781 1.29448 0
M  V30 583 H 55.3807 -1.88116 4.82528 0
M  V30 584 H 52.0577 -3.24094 2.63191 0
M  V30 585 H 53.4477 -1.90025 6.44469 0
M  V30 586 N 56.1678 -1.49265 -0.50573 0
M  V30 587 C 57.5788 -1.51769 -1.08734 0
M  V30 588 C 57.9298 -0.301192 -1.93874 0
M  V30 589 O 57.0548 0.589456 -2.08217 0
M  V30 590 C 57.6498 -2.75017 -1.97867 0
M  V30 591 C 56.2088 -2.80314 -2.51199 0
M  V30 592 C 55.3558 -2.4562 -1.28709 0
M  V30 593 H 58.3068 -1.56031 -0.289855 0
M  V30 594 H 58.3278 -2.5491 -2.82491 0
M  V30 595 H 57.8398 -3.63539 -1.35873 0
M  V30 596 H 55.9408 -1.96061 -3.16845 0
M  V30 597 H 56.0538 -3.82366 -2.88675 0
M  V30 598 H 54.4178 -1.97297 -1.61078 0
M  V30 599 H 55.2008 -3.36411 -0.6843 0
M  V30 600 N 57.6459 0.756429 -1.3826 0
M  V30 601 C 59.0569 1.33359 -1.30661 0
M  V30 602 C 59.4079 1.96161 0.0388875 0
M  V30 603 O 58.5329 1.94874 0.940918 0
M  V30 604 C 59.1279 2.42477 -2.36622 0
M  V30 605 C 57.6869 2.95922 -2.3261 0
M  V30 606 C 56.8339 1.69275 -2.19639 0
M  V30 607 H 59.7849 0.55552 -1.4866 0
M  V30 608 H 59.8059 3.22345 -2.02174 0
M  V30 609 H 59.3179 1.96739 -3.34538 0
M  V30 610 H 57.4189 3.45996 -1.38267 0
M  V30 611 H 57.5319 3.50494 -3.26636 0
M  V30 612 H 55.8959 1.92793 -1.66442 0
M  V30 613 H 56.6789 1.25619 -3.19491 0
M  V30 614 N 59.124 1.23083 0.984299 0
M  V30 615 C 60.349 1.088 1.76571 0
M  V30 616 C 60.774 -0.356657 1.84688 0
M  V30 617 O 60.132 -1.25788 1.30565 0
M  V30 618 C 60.18 1.71371 3.17277 0
M  V30 619 O 59.284 0.973213 4.00752 0
M  V30 620 H 58.625 0.381599 0.543395 0
M  V30 621 H 61.155 1.63057 1.23587 0
M  V30 622 H 61.165 1.76449 3.67872 0
M  V30 623 H 59.84 2.76493 3.10684 0
M  V30 624 H 58.417 0.999078 3.59267 0
M  V30 625 N 60.6021 -1.18246 1.0419 0
M  V30 626 C 61.8501 -1.87886 0.744543 0
M  V30 627 C 62.1711 -1.8082 -0.730006 0
M  V30 628 O 61.4411 -1.22736 -1.52685 0
M  V30 629 H 60.0211 -0.695556 0.272417 0
M  V30 630 H 62.6831 -1.43494 1.31892 0
M  V30 631 H 61.7791 -2.9389 1.05049 0
M  V30 632 N 62.0802 -0.821533 -1.34494 0
M  V30 633 C 63.3262 -0.418729 -1.99043 0
M  V30 634 C 63.6812 1.00672 -1.6396 0
M  V30 635 O 62.9742 1.69132 -0.900271 0
M  V30 636 C 63.1682 -0.556512 -3.53041 0
M  V30 637 C 62.9972 -1.9938 -4.03085 0
M  V30 638 C 61.7672 -2.62539 -4.31742 0
M  V30 639 C 63.9652 -2.96035 -4.20556 0
M  V30 640 N 61.9472 -3.97523 -4.67813 0
M  V30 641 C 63.3182 -4.15924 -4.59791 0
M  V30 642 C 65.3732 -2.9267 -4.02801 0
M  V30 643 C 64.0762 -5.32899 -4.83126 0
M  V30 644 C 66.1022 -4.08861 -4.27302 0
M  V30 645 C 65.4642 -5.275 -4.66822 0
M  V30 646 H 61.5632 -0.201299 -0.755647 0
M  V30 647 H 64.1472 -1.06594 -1.62929 0
M  V30 648 H 62.3182 0.0607924 -3.88352 0
M  V30 649 H 64.0502 -0.126842 -4.04501 0
M  V30 650 H 60.8052 -2.13789 -4.22601 0
M  V30 651 H 61.2292 -4.67061 -4.90085 0
M  V30 652 H 65.8712 -2.02088 -3.71376 0
M  V30 653 H 63.5892 -6.24041 -5.13418 0
M  V30 654 H 67.1752 -4.07654 -4.15101 0
M  V30 655 H 66.0552 -6.15913 -4.85408 0
M  V30 656 N 63.5583 1.46682 -0.576371 0
M  V30 657 C 64.4683 2.34032 0.163141 0
M  V30 658 C 65.4843 1.49367 0.892501 0
M  V30 659 O 66.6603 1.82252 0.857106 0
M  V30 660 C 63.7253 3.26435 1.16795 0
M  V30 661 C 62.7863 4.26998 0.443944 0
M  V30 662 C 62.0193 5.14986 1.40088 0
M  V30 663 O 62.2423 5.05785 2.637 0
M  V30 664 O 61.1763 5.94906 0.914917 0
M  V30 665 H 65.0023 2.98607 -0.55388 0
M  V30 666 H 62.5873 1.45554 -0.336821 0
M  V30 667 H 64.4693 3.83459 1.74748 0
M  V30 668 H 63.1443 2.64465 1.86655 0
M  V30 669 H 62.0513 3.7368 -0.177271 0
M  V30 670 H 63.3843 4.91736 -0.213566 0
M  V30 671 N 65.0364 0.313813 1.54444 0
M  V30 672 C 65.9464 -0.565714 2.27677 0
M  V30 673 C 66.9624 -1.13754 1.31666 0
M  V30 674 O 68.1384 -1.15959 1.64668 0
M  V30 675 C 65.2034 -1.71528 3.01296 0
M  V30 676 C 64.2644 -1.17624 4.12872 0
M  V30 677 C 63.4974 -2.27102 4.8297 0
M  V30 678 O 63.7204 -3.47256 4.52514 0
M  V30 679 O 62.6544 -1.9307 5.70094 0
M  V30 680 H 66.4804 0.0287296 3.03686 0
M  V30 681 H 64.0654 0.0798312 1.49187 0
M  V30 682 H 65.9474 -2.38476 3.4743 0
M  V30 683 H 64.6224 -2.29608 2.2817 0
M  V30 684 H 63.5294 -0.472124 3.71109 0
M  V30 685 H 64.8624 -0.640695 4.88012 0
M  V30 686 N 66.5145 -1.57545 0.0417849 0
M  V30 687 C 67.7605 -1.92601 -0.635021 0
M  V30 688 C 68.0935 -0.919627 -1.71045 0
M  V30 689 O 67.3685 0.0557892 -1.9442 0
M  V30 690 C 67.6515 -3.38085 -1.23979 0
M  V30 691 C 67.5045 -4.49467 -0.173057 0
M  V30 692 C 68.8235 -3.83776 -2.15416 0
M  V30 693 H 65.9425 -0.700397 -0.229374 0
M  V30 694 H 68.5845 -1.89728 0.101633 0
M  V30 695 H 66.7345 -3.40664 -1.86762 0
M  V30 696 H 68.4065 -4.59018 0.458312 0
M  V30 697 H 66.6495 -4.30909 0.499996 0
M  V30 698 H 67.3205 -5.48323 -0.636054 0
M  V30 699 H 69.7965 -3.83013 -1.62605 0
M  V30 700 H 68.6725 -4.8624 -2.54679 0
M  V30 701 H 68.9335 -3.19998 -3.05047 0
M  V30 702 N 67.9926 0.231505 -1.5589 0
M  V30 703 C 69.2176 0.978689 -1.82856 0
M  V30 704 C 69.6426 1.77559 -0.620846 0
M  V30 705 O 69.0006 1.76119 0.430305 0
M  V30 706 C 69.0486 1.87997 -3.07716 0
M  V30 707 O 68.1526 2.97393 -2.85712 0
M  V30 708 H 67.4936 0.277663 -0.603158 0
M  V30 709 H 70.0236 0.24783 -2.03093 0
M  V30 710 H 70.0336 2.2917 -3.37558 0
M  V30 711 H 68.7086 1.29417 -3.95252 0
M  V30 712 H 67.2856 2.60238 -2.67078 0
M  V30 713 N 69.4707 1.49531 0.497807 0
M  V30 714 C 70.7187 1.58865 1.24926 0
M  V30 715 C 71.0397 0.278721 1.92998 0
M  V30 716 O 70.3097 -0.702144 1.82885 0
M  V30 717 H 68.8897 0.585343 0.464094 0
M  V30 718 H 71.5517 1.86174 0.57666 0
M  V30 719 H 70.6477 2.38633 2.01149 0
M  V30 720 N 70.9488 -0.749086 1.3866 0
M  V30 721 C 72.1788 -1.53611 1.38157 0
M  V30 722 C 72.5868 -1.89177 -0.0293595 0
M  V30 723 O 71.9298 -1.53606 -1.00752 0
M  V30 724 C 71.9918 -2.86087 2.17702 0
M  V30 725 C 71.6558 -2.73034 3.66472 0
M  V30 726 C 72.6528 -2.42526 4.59866 0
M  V30 727 C 70.3378 -2.90345 4.09884 0
M  V30 728 C 72.3318 -2.29492 5.94653 0
M  V30 729 C 70.0188 -2.7693 5.4475 0
M  V30 730 C 71.0168 -2.46547 6.36949 0
M  V30 731 O 70.7048 -2.33199 7.69333 0
M  V30 732 H 70.4368 -0.481773 0.474205 0
M  V30 733 H 72.9908 -0.934465 1.82912 0
M  V30 734 H 71.2208 -3.48458 1.67672 0
M  V30 735 H 72.9098 -3.47625 2.09551 0
M  V30 736 H 73.6758 -2.28816 4.27631 0
M  V30 737 H 69.5548 -3.1299 3.38464 0
M  V30 738 H 73.0988 -2.05698 6.66584 0
M  V30 739 H 68.9958 -2.90215 5.76581 0
M  V30 740 H 69.7638 -2.48376 7.79905 0
M  V30 741 N 72.4269 -1.23603 -0.977757 0
M  V30 742 C 73.7039 -0.977897 -1.69401 0
M  V30 743 C 74.0839 0.502738 -2.05026 0
M  V30 744 O 73.4319 1.47459 -1.74551 0
M  V30 745 C 73.6419 -1.89077 -2.93345 0
M  V30 746 C 74.9899 -2.15579 -3.65802 0
M  V30 747 O 76.0139 -1.86648 -3.03383 0
M  V30 748 O 74.8729 -2.64658 -4.78141 0
M  V30 749 H 71.9669 -0.369025 -0.740101 0
M  V30 750 H 74.5129 -1.34657 -1.03274 0
M  V30 751 H 73.2849 -2.89158 -2.63634 0
M  V30 752 H 72.9079 -1.52463 -3.67207 0
M  V30 753 N 73.905 1.17692 -1.04816 0
M  V30 754 C 74.815 2.25229 -0.65643 0
M  V30 755 C 75.831 1.71018 0.320761 0
M  V30 756 O 77.007 2.00649 0.173805 0
M  V30 757 C 74.072 3.46684 -0.0332629 0
M  V30 758 C 73.133 4.15997 -1.06042 0
M  V30 759 C 72.366 5.31654 -0.466893 0
M  V30 760 O 72.589 5.65777 0.724758 0
M  V30 761 O 71.523 5.89831 -1.1993 0
M  V30 762 H 75.349 2.61016 -1.55255 0
M  V30 763 H 72.934 1.24919 -0.81949 0
M  V30 764 H 74.816 4.20234 0.313256 0
M  V30 765 H 73.491 3.12703 0.836566 0
M  V30 766 H 72.398 3.44482 -1.45886 0
M  V30 767 H 73.731 4.53996 -1.90127 0
M  V30 768 N 75.3831 0.828654 1.34056 0
M  V30 769 C 76.3311 0.242973 2.31327 0
M  V30 770 C 77.3251 -0.61944 1.57668 0
M  V30 771 O 78.5311 -0.51014 1.7262 0
M  V30 772 H 74.9061 0.059834 0.749616 0
M  V30 773 H 76.8771 1.07809 2.78244 0
M  V30 774 C 75.6261 -0.575733 3.429 0
M  V30 775 H 74.9491 0.0785582 3.99723 0
M  V30 776 H 76.3891 -0.951547 4.13185 0
M  V30 777 C 74.8481 -1.75044 2.87856 0
M  V30 778 O 75.3781 -2.84882 2.83205 0
M  V30 779 N 73.5841 -1.56903 2.44602 0
M  V30 780 H 73.1311 -0.675547 2.48584 0
M  V30 781 H 73.0891 -2.35652 2.08124 0
M  V30 782 N 76.8612 -1.46375 0.584142 0
M  V30 783 C 77.7942 -2.27351 -0.196676 0
M  V30 784 C 78.7722 -1.35715 -0.895561 0
M  V30 785 O 79.9562 -1.65126 -0.90916 0
M  V30 786 C 77.0832 -3.13486 -1.28235 0
M  V30 787 C 76.1292 -4.20896 -0.689145 0
M  V30 788 S 76.9622 -5.33299 0.48507 0
M  V30 789 C 78.1182 -6.23 -0.601767 0
M  V30 790 H 78.3512 -2.93228 0.490395 0
M  V30 791 H 75.8842 -1.49875 0.371071 0
M  V30 792 H 77.8422 -3.63676 -1.90395 0
M  V30 793 H 76.5032 -2.4692 -1.94138 0
M  V30 794 H 75.6962 -4.80997 -1.50527 0
M  V30 795 H 75.2982 -3.73726 -0.143181 0
M  V30 796 H 77.5902 -6.60979 -1.48705 0
M  V30 797 H 78.5332 -7.0809 -0.0374799 0
M  V30 798 H 78.9412 -5.57173 -0.906557 0
M  V30 799 N 78.3393 -0.321999 -1.54275 0
M  V30 800 C 79.2873 0.560206 -2.25753 0
M  V30 801 C 80.2813 1.11984 -1.27106 0
M  V30 802 O 81.4873 1.06806 -1.44888 0
M  V30 803 H 77.8623 0.199304 -0.725108 0
M  V30 804 H 79.8333 -0.0649365 -2.98329 0
M  V30 805 C 78.5823 1.71023 -3.02731 0
M  V30 806 H 77.9053 1.28885 -3.78456 0
M  V30 807 H 79.3453 2.30314 -3.55993 0
M  V30 808 C 77.8043 2.62692 -2.10938 0
M  V30 809 O 78.3343 3.64364 -1.6912 0
M  V30 810 N 76.5403 2.30891 -1.76459 0
M  V30 811 H 76.0873 1.48253 -2.10663 0
M  V30 812 H 76.0453 2.92487 -1.1532 0
M  V30 813 N 79.8174 1.5752 -0.0501392 0
M  V30 814 C 81.0454 1.96963 0.633492 0
M  V30 815 C 81.4604 0.927631 1.6444 0
M  V30 816 O 80.8174 -0.0882665 1.82286 0
M  V30 817 C 80.8684 3.36487 1.32132 0
M  V30 818 O 80.5894 4.36693 0.350894 0
M  V30 819 C 82.0904 3.90682 2.09481 0
M  V30 820 H 79.3104 0.648244 0.173266 0
M  V30 821 H 81.8544 2.0417 -0.116134 0
M  V30 822 H 80.0094 3.30434 2.02218 0
M  V30 823 H 80.4234 5.17702 0.841735 0
M  V30 824 H 81.8974 4.90591 2.5303 0
M  V30 825 H 82.3744 3.26053 2.94255 0
M  V30 826 H 82.9804 4.00069 1.44307 0
M  V30 827 N 81.2955 -0.223234 1.56011 0
M  V30 828 C 82.5445 -0.945912 1.78144 0
M  V30 829 C 82.8575 -1.85567 0.618396 0
M  V30 830 O 84.0635 -2.61688 0.723318 0
M  V30 831 C 82.5195 -1.73216 3.15475 0
M  V30 832 C 82.1275 -0.868619 4.39499 0
M  V30 833 C 83.8715 -2.44615 3.46935 0
M  V30 834 C 81.7785 -1.65212 5.67855 0
M  V30 835 H 80.7085 -0.356929 0.664167 0
M  V30 836 H 83.3595 -0.199845 1.82409 0
M  V30 837 H 81.7415 -2.52107 3.05382 0
M  V30 838 H 82.9155 -0.120366 4.60643 0
M  V30 839 H 81.2305 -0.26683 4.15544 0
M  V30 840 H 83.8275 -3.03732 4.40058 0
M  V30 841 H 84.1705 -3.17417 2.69355 0
M  V30 842 H 84.7035 -1.72715 3.58349 0
M  V30 843 H 81.4425 -0.967407 6.48322 0
M  V30 844 H 80.9625 -2.37503 5.50774 0
M  V30 845 H 82.6415 -2.21322 6.07968 0
M  V30 846 N 82.7736 -1.49793 -0.48987 0
M  V30 847 C 84.1896 -1.36803 -0.822022 0
M  V30 848 C 84.3896 -0.409652 -1.97292 0
M  V30 849 O 83.4456 0.154614 -2.52026 0
M  V30 850 C 84.7586 -2.77768 -1.15175 0
M  V30 851 C 86.3066 -2.86549 -1.25931 0
M  V30 852 C 86.7816 -4.28306 -1.62228 0
M  V30 853 N 88.2726 -4.31169 -1.69256 0
M  V30 854 C 89.0076 -5.37832 -1.98807 0
M  V30 855 N 88.5036 -6.54726 -2.26507 0
M  V30 856 N 90.2966 -5.25258 -2.00152 0
M  V30 857 H 82.4476 -2.10691 0.268881 0
M  V30 858 H 84.7106 -0.946241 0.057728 0
M  V30 859 H 84.4166 -3.49648 -0.379335 0
M  V30 860 H 84.2906 -3.13836 -2.09253 0
M  V30 861 H 86.6776 -2.14899 -2.02243 0
M  V30 862 H 86.7586 -2.54049 -0.298776 0
M  V30 863 H 86.4026 -5.00486 -0.864622 0
M  V30 864 H 86.3326 -4.58279 -2.594 0
M  V30 865 H 88.8236 -3.4687 -1.49965 0
M  V30 866 H 89.1366 -7.31833 -2.48276 0
M  V30 867 H 87.4816 -6.57933 -2.23939 0
M  V30 868 H 90.6726 -4.32938 -1.77996 0
M  V30 869 H 90.8456 -6.08476 -2.22848 0
M  V30 870 N 84.2517 0.741722 -1.39055 0
M  V30 871 C 85.4797 1.53098 -1.39171 0
M  V30 872 C 85.8947 1.88794 0.0155099 0
M  V30 873 O 85.2517 1.53626 0.985159 0
M  V30 874 C 85.3027 2.82274 -2.2584 0
M  V30 875 O 85.0237 2.48097 -3.61081 0
M  V30 876 C 86.5247 3.76343 -2.34266 0
M  V30 877 H 83.7447 0.473335 -0.4756 0
M  V30 878 H 86.2887 0.917045 -1.82785 0
M  V30 879 H 84.4437 3.40015 -1.85656 0
M  V30 880 H 84.8577 3.31029 -4.06842 0
M  V30 881 H 86.3317 4.63898 -2.9917 0
M  V30 882 H 86.8087 4.17619 -1.35982 0
M  V30 883 H 87.4147 3.24523 -2.74891 0
M  V30 884 N 85.7298 1.2412 0.971189 0
M  V30 885 C 86.9598 1.10415 1.7462 0
M  V30 886 C 87.3678 -0.346462 1.86001 0
M  V30 887 O 86.7108 -1.25104 1.34517 0
M  V30 888 C 86.7728 1.66596 3.18568 0
M  V30 889 C 86.4368 3.15446 3.3067 0
M  V30 890 C 87.4338 4.12636 3.16271 0
M  V30 891 C 85.1188 3.55337 3.55022 0
M  V30 892 C 87.1128 5.47699 3.26044 0
M  V30 893 C 84.7998 4.90542 3.64434 0
M  V30 894 C 85.7978 5.86532 3.49956 0
M  V30 895 O 85.4858 7.19279 3.59017 0
M  V30 896 H 85.2178 0.386616 0.55453 0
M  V30 897 H 87.7718 1.64633 1.22821 0
M  V30 898 H 86.0018 1.06808 3.71657 0
M  V30 899 H 87.6908 1.48232 3.77865 0
M  V30 900 H 88.4568 3.8316 2.97344 0
M  V30 901 H 84.3358 2.8113 3.65359 0
M  V30 902 H 87.8798 6.22603 3.14661 0
M  V30 903 H 83.7768 5.19691 3.82873 0
M  V30 904 H 84.5448 7.27153 3.75754 0
M  V30 905 N 87.2079 -1.17134 1.05439 0
M  V30 906 C 88.1399 -2.2078 0.615539 0
M  V30 907 C 89.1529 -1.59584 -0.322001 0
M  V30 908 O 90.3419 -1.78133 -0.114344 0
M  V30 909 C 87.4419 -3.38691 -0.118938 0
M  V30 910 C 86.6149 -4.29454 0.829924 0
M  V30 911 C 85.6739 -5.26024 0.136258 0
M  V30 912 O 84.6999 -5.63952 0.77115 0
M  V30 913 N 85.9019 -5.69487 -1.1254 0
M  V30 914 H 88.6669 -2.59052 1.50705 0
M  V30 915 H 86.2279 -1.32058 0.936603 0
M  V30 916 H 88.2199 -4.00329 -0.593179 0
M  V30 917 H 86.7899 -2.98996 -0.91215 0
M  V30 918 H 86.0099 -3.65211 1.48373 0
M  V30 919 H 87.2979 -4.86984 1.47392 0
M  V30 920 H 86.6959 -5.4075 -1.6615 0
M  V30 921 H 85.2529 -6.33257 -1.54366 0
M  V30 922 N 88.686 -0.835752 -1.33615 0
M  V30 923 C 89.932 -0.430596 -1.98176 0
M  V30 924 C 90.265 1.00684 -1.66061 0
M  V30 925 O 89.54 1.70339 -0.938877 0
M  V30 926 C 89.823 -0.648065 -3.5422 0
M  V30 927 C 89.676 -2.13255 -3.96033 0
M  V30 928 C 90.995 -0.0922113 -4.40003 0
M  V30 929 H 88.114 -0.157924 -0.719881 0
M  V30 930 H 90.756 -1.05069 -1.58305 0
M  V30 931 H 88.906 -0.120237 -3.88314 0
M  V30 932 H 90.578 -2.725 -3.72211 0
M  V30 933 H 88.821 -2.61823 -3.45878 0
M  V30 934 H 89.492 -2.23547 -5.04708 0
M  V30 935 H 91.968 -0.543343 -4.12537 0
M  V30 936 H 90.844 -0.274083 -5.48215 0
M  V30 937 H 91.105 1.00378 -4.30554 0
M  V30 938 N 90.1641 1.46063 -0.591896 0
M  V30 939 C 91.4041 2.04228 -0.0838014 0
M  V30 940 C 91.7681 1.45231 1.25587 0
M  V30 941 O 92.9691 1.94653 1.85375 0
M  V30 942 C 91.2401 3.57389 -0.0286282 0
M  V30 943 S 92.7991 4.3678 0.420557 0
M  V30 944 H 89.6171 0.709762 -0.0419319 0
M  V30 945 H 92.2191 1.78983 -0.786465 0
M  V30 946 H 90.9231 3.97843 -1.00743 0
M  V30 947 H 90.4541 3.87185 0.69652 0
M  V30 948 H 92.4691 4.67131 1.67341 0
M  V30 949 N 91.6422 0.330177 1.54103 0
M  V30 950 C 92.5902 -0.548226 2.26047 0
M  V30 951 C 93.5842 -1.11309 1.27698 0
M  V30 952 O 94.7902 -1.06036 1.45452 0
M  V30 953 H 91.1652 -0.195456 0.726155 0
M  V30 954 H 93.1362 0.0807567 2.98291 0
M  V30 955 C 91.8852 -1.69415 3.03634 0
M  V30 956 H 91.2082 -1.26876 3.79134 0
M  V30 957 H 92.6482 -2.28423 3.5721 0
M  V30 958 C 91.1072 -2.61569 2.12328 0
M  V30 959 O 91.6372 -3.63462 1.7105 0
M  V30 960 N 89.8432 -2.29952 1.77681 0
M  V30 961 H 89.3902 -1.47134 2.11446 0
M  V30 962 H 89.3482 -2.91871 1.16869 0
M  V30 963 N 93.1203 -1.57491 0.0584922 0
M  V30 964 C 94.3663 -1.93264 -0.614558 0
M  V30 965 C 94.6993 -0.937717 -1.7006 0
M  V30 966 O 93.9743 0.0351652 -1.94468 0
M  V30 967 C 94.2573 -3.3938 -1.20386 0
M  V30 968 C 94.1103 -4.49625 -0.125375 0
M  V30 969 C 95.4293 -3.86039 -2.11334 0
M  V30 970 H 92.5483 -0.702791 -0.221933 0
M  V30 971 H 95.1903 -1.8961 0.12175 0
M  V30 972 H 93.3403 -3.42626 -1.83139 0
M  V30 973 H 95.0123 -4.58506 0.506971 0
M  V30 974 H 93.2553 -4.30354 0.545672 0
M  V30 975 H 93.9263 -5.48967 -0.577861 0
M  V30 976 H 96.4023 -3.84716 -1.58534 0
M  V30 977 H 95.2783 -4.88914 -2.49507 0
M  V30 978 H 95.5393 -3.23215 -3.01636 0
M  V30 979 N 94.5984 0.214957 -1.56127 0
M  V30 980 C 95.8454 0.938372 -1.79446 0
M  V30 981 C 96.1734 1.8407 -0.628378 0
M  V30 982 O 95.4284 1.91837 0.386925 0
M  V30 983 C 95.7274 1.80314 -3.0858 0
M  V30 984 C 95.3934 1.05349 -4.3842 0
M  V30 985 C 94.0554 0.846435 -4.73697 0
M  V30 986 C 96.4074 0.524588 -5.18553 0
M  V30 987 C 93.7354 0.098683 -5.86617 0
M  V30 988 C 96.0874 -0.209853 -6.32252 0
M  V30 989 C 94.7514 -0.428102 -6.66126 0
M  V30 990 H 94.0214 0.343375 -0.656639 0
M  V30 991 H 96.6684 0.206077 -1.90388 0
M  V30 992 H 94.9734 2.6035 -2.92789 0
M  V30 993 H 96.6704 2.36513 -3.23825 0
M  V30 994 H 93.2604 1.22486 -4.10725 0
M  V30 995 H 97.4444 0.672008 -4.91729 0
M  V30 996 H 92.7004 -0.0805753 -6.11347 0
M  V30 997 H 96.8744 -0.627157 -6.9357 0
M  V30 998 H 94.5014 -1.00944 -7.53468 0
M  V30 999 N 96.0765 1.50051 0.48192 0
M  V30 1000 C 96.9865 1.7089 1.60728 0
M  V30 1001 C 98.0025 0.591788 1.63627 0
M  V30 1002 O 99.1785 0.868817 1.81696 0
M  V30 1003 C 96.2435 1.78855 2.97005 0
M  V30 1004 C 95.3045 3.02537 3.04581 0
M  V30 1005 C 94.5375 3.10112 4.34357 0
M  V30 1006 O 94.7605 2.24765 5.24249 0
M  V30 1007 O 93.6945 4.02747 4.47301 0
M  V30 1008 H 97.5205 2.66264 1.46072 0
M  V30 1009 H 95.1055 1.34018 0.660264 0
M  V30 1010 H 96.9875 1.86336 3.77964 0
M  V30 1011 H 95.6625 0.866628 3.11883 0
M  V30 1012 H 94.5695 3.00563 2.22739 0
M  V30 1013 H 95.9025 3.94272 2.94636 0
M  V30 1014 N 97.5546 -0.734337 1.39446 0
M  V30 1015 C 98.7796 -1.52866 1.40167 0
M  V30 1016 C 99.2046 -1.881 -0.00171513 0
M  V30 1017 O 98.5626 -1.51957 -0.988879 0
M  V30 1018 C 98.6106 -2.79235 2.28167 0
M  V30 1019 O 97.7146 -3.75185 1.71201 0
M  V30 1020 H 97.0556 -0.461618 0.477289 0
M  V30 1021 H 99.5856 -0.905949 1.8345 0
M  V30 1022 H 99.5956 -3.27963 2.42702 0
M  V30 1023 H 98.2706 -2.52923 3.30156 0
M  V30 1024 H 96.8476 -3.33958 1.65912 0
M  V30 1025 N 99.0327 -1.24633 -0.964593 0
M  V30 1026 C 100.258 -1.11596 -1.74818 0
M  V30 1027 C 100.683 0.32723 -1.85232 0
M  V30 1028 O 100.041 1.23695 -1.32549 0
M  V30 1029 C 100.089 -1.76397 -3.1451 0
M  V30 1030 O 99.1927 -1.03685 -3.99153 0
M  V30 1031 H 98.5337 -0.390196 -0.537255 0
M  V30 1032 H 101.064 -1.65002 -1.20977 0
M  V30 1033 H 101.074 -1.8228 -3.65018 0
M  V30 1034 H 99.7487 -2.81401 -3.06246 0
M  V30 1035 H 98.3257 -1.05611 -3.57632 0
M  V30 1036 N 100.511 1.16574 -1.06058 0
M  V30 1037 C 101.443 2.2045 -0.627239 0
M  V30 1038 C 102.456 1.59752 0.313534 0
M  V30 1039 O 103.645 1.78192 0.104896 0
M  V30 1040 C 100.745 3.3875 0.100974 0
M  V30 1041 C 99.9178 4.29008 -0.852687 0
M  V30 1042 C 98.9768 5.25944 -0.164152 0
M  V30 1043 O 98.0028 5.63535 -0.801047 0
M  V30 1044 N 99.2048 5.70075 1.09518 0
M  V30 1045 H 101.97 2.58249 -1.52077 0
M  V30 1046 H 99.5308 1.3156 -0.943594 0
M  V30 1047 H 101.523 4.00638 0.57194 0
M  V30 1048 H 100.093 2.99476 0.89628 0
M  V30 1049 H 99.3128 3.64419 -1.50308 0
M  V30 1050 H 100.601 4.86195 -1.49972 0
M  V30 1051 H 99.9988 5.41624 1.6328 0
M  V30 1052 H 98.5558 6.34067 1.51006 0
M  V30 1053 N 101.989 0.842826 1.3317 0
M  V30 1054 C 102.937 0.267495 2.31057 0
M  V30 1055 C 103.931 -0.602682 1.58316 0
M  V30 1056 O 105.137 -0.491803 1.73151 0
M  V30 1057 H 101.512 0.0677813 0.748939 0
M  V30 1058 H 103.483 1.10754 2.77085 0
M  V30 1059 C 102.232 -0.539331 3.43492 0
M  V30 1060 H 101.555 0.12095 3.99617 0
M  V30 1061 H 102.995 -0.90767 4.14171 0
M  V30 1062 C 101.454 -1.71981 2.89697 0
M  V30 1063 O 101.984 -2.81862 2.86211 0
M  V30 1064 N 100.19 -1.54299 2.46252 0
M  V30 1065 H 99.7369 -0.649143 2.49287 0
M  V30 1066 H 99.6949 -2.33431 2.10612 0
M  V30 1067 N 103.467 -1.45747 0.599634 0
M  V30 1068 C 104.415 -2.322 -0.136426 0
M  V30 1069 C 105.409 -1.45497 -0.867583 0
M  V30 1070 O 106.615 -1.62027 -0.78405 0
M  V30 1071 H 102.99 -0.749368 -0.0628588 0
M  V30 1072 H 104.961 -2.92072 0.611281 0
M  V30 1073 C 103.71 -3.28974 -1.12567 0
M  V30 1074 H 103.033 -3.9568 -0.572484 0
M  V30 1075 H 104.473 -3.92212 -1.61077 0
M  V30 1076 C 102.932 -2.55561 -2.19523 0
M  V30 1077 O 103.462 -2.33111 -3.27143 0
M  V30 1078 N 101.668 -2.15832 -1.94589 0
M  V30 1079 H 101.215 -2.3429 -1.07078 0
M  V30 1080 H 101.173 -1.67034 -2.66359 0
M  V30 1081 N 104.945 -0.338344 -1.53925 0
M  V30 1082 C 106.191 0.252842 -2.01822 0
M  V30 1083 C 106.546 1.48612 -1.22197 0
M  V30 1084 O 105.839 1.89238 -0.299892 0
M  V30 1085 C 106.033 0.62448 -3.51902 0
M  V30 1086 C 105.862 -0.571235 -4.46057 0
M  V30 1087 C 104.632 -1.07493 -4.93734 0
M  V30 1088 C 106.83 -1.42807 -4.94076 0
M  V30 1089 N 104.812 -2.23351 -5.71828 0
M  V30 1090 C 106.183 -2.43362 -5.70241 0
M  V30 1091 C 108.238 -1.45412 -4.76193 0
M  V30 1092 C 106.941 -3.46346 -6.30426 0
M  V30 1093 C 108.967 -2.47274 -5.37224 0
M  V30 1094 C 108.329 -3.46555 -6.13253 0
M  V30 1095 H 104.428 0.0559669 -0.779995 0
M  V30 1096 H 107.012 -0.476732 -1.88773 0
M  V30 1097 H 105.183 1.32317 -3.65167 0
M  V30 1098 H 106.915 1.19841 -3.86549 0
M  V30 1099 H 103.67 -0.643848 -4.69203 0
M  V30 1100 H 104.094 -2.81834 -6.15548 0
M  V30 1101 H 108.736 -0.700171 -4.16962 0
M  V30 1102 H 106.454 -4.22638 -6.88769 0
M  V30 1103 H 110.04 -2.50109 -5.25297 0
M  V30 1104 H 108.92 -4.24083 -6.59638 0
M  V30 1105 N 106.423 1.57458 -0.0668435 0
M  V30 1106 C 107.353 2.15468 0.899764 0
M  V30 1107 C 108.334 1.08042 1.31381 0
M  V30 1108 O 109.519 1.36054 1.38574 0
M  V30 1109 C 106.649 2.71232 2.16911 0
M  V30 1110 C 105.603 3.83781 1.89463 0
M  V30 1111 C 104.929 4.26127 3.22986 0
M  V30 1112 C 106.229 5.08238 1.20381 0
M  V30 1113 H 107.923 2.96488 0.416529 0
M  V30 1114 H 105.469 1.4262 0.198908 0
M  V30 1115 H 107.422 3.10458 2.84945 0
M  V30 1116 H 106.146 1.87426 2.67468 0
M  V30 1117 H 104.805 3.45051 1.23836 0
M  V30 1118 H 104.453 3.39249 3.71374 0
M  V30 1119 H 104.153 5.01993 3.05413 0
M  V30 1120 H 105.677 4.67966 3.92225 0
M  V30 1121 H 107.091 5.44811 1.78475 0
M  V30 1122 H 105.488 5.89349 1.13083 0
M  V30 1123 H 106.558 4.84558 0.182153 0
M  V30 1124 N 107.901 -0.206675 1.56239 0
M  V30 1125 C 109.317 -0.557025 1.49564 0
M  V30 1126 C 109.517 -1.86424 0.764735 0
M  V30 1127 O 108.573 -2.50584 0.310491 0
M  V30 1128 C 109.886 -0.622478 2.94186 0
M  V30 1129 C 111.434 -0.712099 3.04792 0
M  V30 1130 C 111.909 -0.808767 4.50803 0
M  V30 1131 N 113.4 -0.8726 4.54907 0
M  V30 1132 C 114.135 -0.967365 5.65181 0
M  V30 1133 N 113.631 -1.02515 6.85173 0
M  V30 1134 N 115.424 -1.00366 5.53067 0
M  V30 1135 H 107.575 0.650943 2.02179 0
M  V30 1136 H 109.838 0.230387 0.919579 0
M  V30 1137 H 109.544 0.268727 3.50672 0
M  V30 1138 H 109.418 -1.4811 3.46905 0
M  V30 1139 H 111.805 -1.59374 2.48363 0
M  V30 1140 H 111.886 0.172489 2.55218 0
M  V30 1141 H 111.53 0.0684754 5.07854 0
M  V30 1142 H 111.46 -1.70899 4.98098 0
M  V30 1143 H 113.951 -0.837657 3.68499 0
M  V30 1144 H 114.264 -1.09765 7.64965 0
M  V30 1145 H 112.609 -0.994026 6.87855 0
M  V30 1146 H 115.8 -0.95527 4.58249 0
M  V30 1147 H 115.973 -1.07405 6.39037 0
M  V30 1148 N 109.379 -1.50304 -0.473955 0
M  V30 1149 C 110.607 -1.64902 -1.24959 0
M  V30 1150 C 111.022 -0.331198 -1.85872 0
M  V30 1151 O 110.379 0.68652 -1.69095 0
M  V30 1152 C 110.43 -2.73803 -2.36038 0
M  V30 1153 O 110.151 -4.00477 -1.77624 0
M  V30 1154 C 111.652 -2.99349 -3.26964 0
M  V30 1155 H 108.872 -0.554383 -0.378022 0
M  V30 1156 H 111.416 -1.9651 -0.566054 0
M  V30 1157 H 109.571 -2.44898 -3.00173 0
M  V30 1158 H 109.985 -4.60678 -2.5075 0
M  V30 1159 H 111.459 -3.79217 -4.01121 0
M  V30 1160 H 111.936 -2.10307 -3.85574 0
M  V30 1161 H 112.542 -3.29774 -2.68569 0
M  V30 1162 N 110.857 0.726932 -1.39834 0
M  V30 1163 C 111.804 1.841 -1.39197 0
M  V30 1164 C 112.774 1.642 -0.250502 0
M  V30 1165 O 113.959 1.85494 -0.446846 0
M  V30 1166 C 111.099 3.21697 -1.24919 0
M  V30 1167 C 110.212 3.53247 -2.48678 0
M  V30 1168 C 109.347 4.80289 -2.26928 0
M  V30 1169 C 108.386 5.04707 -3.4632 0
M  V30 1170 N 107.523 6.22956 -3.23836 0
M  V30 1171 H 112.363 1.83979 -2.34427 0
M  V30 1172 H 109.9 0.898876 -1.16442 0
M  V30 1173 H 111.858 4.01137 -1.1465 0
M  V30 1174 H 110.488 3.21076 -0.333153 0
M  V30 1175 H 109.54 2.68447 -2.69519 0
M  V30 1176 H 110.852 3.67205 -3.37582 0
M  V30 1177 H 110.006 5.67725 -2.13947 0
M  V30 1178 H 108.745 4.68519 -1.35431 0
M  V30 1179 H 107.75 4.1573 -3.5979 0
M  V30 1180 H 108.975 5.18357 -4.38729 0
M  V30 1181 H 106.921 6.12459 -2.35011 0
M  V30 1182 H 106.838 6.37539 -4.063 0
M  V30 1183 H 108.106 7.1321 -3.14566 0
M  V30 1184 N 112.336 1.25143 0.95797 0
M  V30 1185 C 113.583 1.09692 1.70217 0
M  V30 1186 C 113.911 -0.362654 1.91089 0
M  V30 1187 O 113.166 -1.28386 1.47701 0
M  V30 1188 C 113.465 1.79272 3.09187 0
M  V30 1189 C 113.131 3.29196 3.08125 0
M  V30 1190 C 111.793 3.70096 3.07543 0
M  V30 1191 C 114.145 4.24995 3.0171 0
M  V30 1192 C 111.473 5.05213 2.9829 0
M  V30 1193 C 113.825 5.60132 2.93999 0
M  V30 1194 C 112.489 6.00365 2.9175 0
M  V30 1195 H 111.759 0.401393 0.622868 0
M  V30 1196 H 114.406 1.55372 1.11945 0
M  V30 1197 H 112.711 1.26014 3.70982 0
M  V30 1198 H 114.408 1.64773 3.65583 0
M  V30 1199 H 110.998 2.96651 3.09348 0
M  V30 1200 H 115.182 3.9439 3.01281 0
M  V30 1201 H 110.438 5.35569 2.94916 0
M  V30 1202 H 114.612 6.3406 2.87996 0
M  V30 1203 H 112.239 7.05023 2.84336 0
M  V30 1204 N 113.814 -1.1601 1.06675 0
M  V30 1205 C 115.063 -1.85973 0.780818 0
M  V30 1206 C 115.376 -1.82819 -0.695444 0
M  V30 1207 O 116.582 -2.484 -1.09589 0
M  V30 1208 C 115.038 -3.33757 1.34665 0
M  V30 1209 C 114.646 -3.45374 2.85343 0
M  V30 1210 C 116.39 -4.0895 1.13843 0
M  V30 1211 C 114.297 -4.87266 3.35151 0
M  V30 1212 H 113.227 -0.696661 0.288407 0
M  V30 1213 H 115.878 -1.30903 1.28595 0
M  V30 1214 H 114.26 -3.88456 0.769274 0
M  V30 1215 H 115.434 -3.00816 3.49065 0
M  V30 1216 H 113.749 -2.83619 3.04876 0
M  V30 1217 H 116.346 -5.13654 1.4854 0
M  V30 1218 H 116.689 -4.16229 0.0770282 0
M  V30 1219 H 117.222 -3.605 1.68179 0
M  V30 1220 H 113.961 -4.85168 4.40786 0
M  V30 1221 H 113.481 -5.32433 2.76179 0
M  V30 1222 H 115.16 -5.56097 3.30704 0
M  V30 1223 N 115.292 -0.849877 -1.32721 0
M  V30 1224 C 116.708 -0.539102 -1.50219 0
M  V30 1225 C 116.908 0.931271 -1.78689 0
M  V30 1226 O 115.964 1.71455 -1.85363 0
M  V30 1227 C 117.277 -1.42196 -2.64954 0
M  V30 1228 C 118.825 -1.42189 -2.78839 0
M  V30 1229 C 119.3 -2.28985 -3.96648 0
M  V30 1230 N 120.791 -2.26754 -4.03902 0
M  V30 1231 C 121.526 -2.90644 -4.94281 0
M  V30 1232 N 121.022 -3.63629 -5.897 0
M  V30 1233 N 122.815 -2.80057 -4.87365 0
M  V30 1234 H 114.966 -1.80156 -1.12506 0
M  V30 1235 H 117.229 -0.769217 -0.554085 0
M  V30 1236 H 116.935 -2.46733 -2.50631 0
M  V30 1237 H 116.809 -1.10591 -3.60624 0
M  V30 1238 H 119.196 -0.38419 -2.92588 0
M  V30 1239 H 119.277 -1.77807 -1.83898 0
M  V30 1240 H 118.921 -3.32819 -3.83658 0
M  V30 1241 H 118.851 -1.90702 -4.90857 0
M  V30 1242 H 121.342 -1.73688 -3.3562 0
M  V30 1243 H 121.655 -4.09558 -6.55349 0
M  V30 1244 H 120 -3.67737 -5.89741 0
M  V30 1245 H 123.191 -2.22593 -4.11789 0
M  V30 1246 H 123.364 -3.30132 -5.57599 0
M  V30 1247 N 116.77 1.45427 -0.607355 0
M  V30 1248 C 118.186 1.57283 -0.270985 0
M  V30 1249 C 118.386 1.59875 1.22647 0
M  V30 1250 O 117.442 1.52893 2.00948 0
M  V30 1251 C 118.755 2.85566 -0.941952 0
M  V30 1252 C 120.303 2.9924 -0.917849 0
M  V30 1253 C 120.778 4.30293 -1.56882 0
M  V30 1254 N 122.269 4.37051 -1.5343 0
M  V30 1255 C 123.004 5.37123 -2.00715 0
M  V30 1256 N 122.5 6.43734 -2.56084 0
M  V30 1257 N 124.293 5.28479 -1.91484 0
M  V30 1258 H 116.444 1.41988 -1.57966 0
M  V30 1259 H 118.707 0.67885 -0.661715 0
M  V30 1260 H 118.413 2.8955 -1.99633 0
M  V30 1261 H 118.287 3.74322 -0.465096 0
M  V30 1262 H 120.674 2.94822 0.127984 0
M  V30 1263 H 120.755 2.11895 -1.43297 0
M  V30 1264 H 120.399 4.35469 -2.61398 0
M  V30 1265 H 120.329 5.16454 -1.02873 0
M  V30 1266 H 122.82 3.60615 -1.12982 0
M  V30 1267 H 123.133 7.16341 -2.89958 0
M  V30 1268 H 121.478 6.44485 -2.60122 0
M  V30 1269 H 124.669 4.44098 -1.47967 0
M  V30 1270 H 124.842 6.0632 -2.28648 0
M  V30 1271 N 118.248 0.346503 1.53744 0
M  V30 1272 C 119.664 -0.00530975 1.59599 0
M  V30 1273 C 119.864 -1.48465 1.36236 0
M  V30 1274 O 118.92 -2.24376 1.15808 0
M  V30 1275 C 120.233 0.433516 2.97559 0
M  V30 1276 C 121.781 0.386111 3.10609 0
M  V30 1277 C 122.256 0.800451 4.50951 0
M  V30 1278 N 123.747 0.754753 4.5701 0
M  V30 1279 C 124.482 1.04727 5.63755 0
M  V30 1280 N 123.978 1.4081 6.7834 0
M  V30 1281 N 125.771 0.971316 5.53644 0
M  V30 1282 H 117.922 1.31009 1.67184 0
M  V30 1283 H 120.185 0.534242 0.783128 0
M  V30 1284 H 119.891 1.46509 3.19731 0
M  V30 1285 H 119.765 -0.189753 3.76722 0
M  V30 1286 H 122.152 -0.636295 2.88158 0
M  V30 1287 H 122.233 1.04462 2.33498 0
M  V30 1288 H 121.877 1.82088 4.74137 0
M  V30 1289 H 121.807 0.119386 5.26465 0
M  V30 1290 H 124.298 0.488662 3.74727 0
M  V30 1291 H 124.611 1.61607 7.55714 0
M  V30 1292 H 122.956 1.44657 6.79779 0
M  V30 1293 H 126.147 0.688748 4.63005 0
M  V30 1294 H 126.32 1.20263 6.36742 0
M  V30 1295 N 119.726 -1.57421 0.075193 0
M  V30 1296 C 120.974 -1.93236 -0.591974 0
M  V30 1297 C 121.295 -0.956241 -1.69944 0
M  V30 1298 O 120.565 -0.00494792 -1.95899 0
M  V30 1299 H 119.145 -0.713355 -0.22166 0
M  V30 1300 H 121.807 -1.9444 0.133848 0
M  V30 1301 H 120.903 -2.95131 -1.01509 0
M  V30 1302 N 121.204 0.198386 -1.56346 0
M  V30 1303 C 122.167 1.22952 -1.93431 0
M  V30 1304 C 123.167 1.38611 -0.815092 0
M  V30 1305 O 124.357 1.36479 -1.08255 0
M  V30 1306 C 121.489 2.59946 -2.20546 0
M  V30 1307 H 122.682 0.912626 -2.85677 0
M  V30 1308 H 120.235 0.43977 -1.49986 0
M  V30 1309 H 120.97 2.96696 -1.30927 0
M  V30 1310 H 120.755 2.49953 -3.02102 0
M  V30 1311 H 122.245 3.3431 -2.50253 0
M  V30 1312 N 122.682 1.50554 0.465978 0
M  V30 1313 C 123.632 1.66177 1.56106 0
M  V30 1314 C 124.616 0.516265 1.52393 0
M  V30 1315 O 125.808 0.770906 1.5933 0
M  V30 1316 C 122.937 1.76396 2.94515 0
M  V30 1317 C 122.023 2.9664 3.03093 0
M  V30 1318 N 122.414 4.20245 2.81474 0
M  V30 1319 C 120.712 2.95304 3.34233 0
M  V30 1320 C 121.413 5.01259 2.95151 0
M  V30 1321 N 120.389 4.35318 3.25576 0
M  V30 1322 H 124.191 2.59434 1.38099 0
M  V30 1323 H 121.705 1.47808 0.6728 0
M  V30 1324 H 123.702 1.85694 3.73261 0
M  V30 1325 H 122.362 0.843017 3.13565 0
M  V30 1326 H 123.373 4.4966 2.56956 0
M  V30 1327 H 120.05 2.12729 3.59239 0
M  V30 1328 H 121.44 6.09564 2.82632 0
M  V30 1329 N 124.16 -0.719506 1.40217 0
M  V30 1330 C 125.576 -1.02707 1.22161 0
M  V30 1331 C 125.776 -2.0128 0.0940557 0
M  V30 1332 O 124.832 -2.46452 -0.549318 0
M  V30 1333 C 126.145 -1.57454 2.56181 0
M  V30 1334 C 127.693 -1.69458 2.63159 0
M  V30 1335 C 128.168 -2.27611 3.97438 0
M  V30 1336 N 129.659 -2.35002 3.99159 0
M  V30 1337 C 130.394 -2.80972 4.99842 0
M  V30 1338 N 129.89 -3.26723 6.10921 0
M  V30 1339 N 131.683 -2.80321 4.87213 0
M  V30 1340 H 123.834 -0.0660492 2.12297 0
M  V30 1341 H 126.097 -0.0919077 0.943534 0
M  V30 1342 H 125.803 -0.924873 3.39321 0
M  V30 1343 H 125.677 -2.56036 2.76993 0
M  V30 1344 H 128.064 -2.33543 1.80393 0
M  V30 1345 H 128.145 -0.694867 2.46181 0
M  V30 1346 H 127.789 -1.6415 4.80643 0
M  V30 1347 H 127.719 -3.2829 4.11744 0
M  V30 1348 H 130.21 -2.02685 3.18947 0
M  V30 1349 H 130.523 -3.60355 6.8364 0
M  V30 1350 H 128.868 -3.24692 6.14492 0
M  V30 1351 H 132.059 -2.43912 3.9953 0
M  V30 1352 H 132.232 -3.15831 5.65822 0
M  V30 1353 N 125.638 -1.25649 -0.95132 0
M  V30 1354 C 126.887 -1.09988 -1.69073 0
M  V30 1355 C 127.2 0.358355 -1.92289 0
M  V30 1356 O 128.406 0.635466 -2.63958 0
M  V30 1357 C 126.862 -1.92012 -3.044 0
M  V30 1358 C 126.47 -3.42347 -2.88968 0
M  V30 1359 C 128.214 -1.8493 -3.82101 0
M  V30 1360 C 126.121 -4.16655 -4.19705 0
M  V30 1361 H 125.051 -0.407993 -0.63408 0
M  V30 1362 H 127.702 -1.49873 -1.05879 0
M  V30 1363 H 126.084 -1.44952 -3.68517 0
M  V30 1364 H 127.258 -3.97104 -2.33762 0
M  V30 1365 H 125.573 -3.50557 -2.24719 0
M  V30 1366 H 128.17 -2.37739 -4.78941 0
M  V30 1367 H 128.513 -0.817883 -4.08187 0
M  V30 1368 H 129.046 -2.29758 -3.2474 0
M  V30 1369 H 125.785 -5.20224 -3.98807 0
M  V30 1370 H 125.305 -3.66681 -4.74663 0
M  V30 1371 H 126.984 -4.24551 -4.88227 0
M  V30 1372 N 127.117 1.15442 -1.07289 0
M  V30 1373 C 128.067 2.18164 -0.662467 0
M  V30 1374 C 129.051 1.57845 0.312074 0
M  V30 1375 O 130.243 1.76552 0.125905 0
M  V30 1376 C 127.372 3.43246 -0.0611295 0
M  V30 1377 C 126.458 4.1062 -1.06077 0
M  V30 1378 N 126.849 4.53491 -2.24008 0
M  V30 1379 C 125.147 4.36949 -0.893964 0
M  V30 1380 C 125.848 5.05731 -2.87422 0
M  V30 1381 N 124.824 4.99236 -2.15091 0
M  V30 1382 H 128.626 2.49038 -1.56068 0
M  V30 1383 H 126.14 1.32003 -0.945988 0
M  V30 1384 H 128.137 4.16145 0.250792 0
M  V30 1385 H 126.797 3.13854 0.832207 0
M  V30 1386 H 127.808 4.46898 -2.6173 0
M  V30 1387 H 124.485 4.17466 -0.0534693 0
M  V30 1388 H 125.875 5.48865 -3.87553 0
M  V30 1389 N 128.595 0.856903 1.32268 0
M  V30 1390 C 129.841 0.462069 1.97466 0
M  V30 1391 C 130.174 -0.980298 1.67642 0
M  V30 1392 O 129.449 -1.68824 0.965858 0
M  V30 1393 C 129.732 0.704336 3.53145 0
M  V30 1394 C 129.585 2.19529 3.9259 0
M  V30 1395 C 130.904 0.1622 4.39801 0
M  V30 1396 H 128.023 0.169357 0.717278 0
M  V30 1397 H 130.665 1.07574 1.56614 0
M  V30 1398 H 128.815 0.181999 3.88073 0
M  V30 1399 H 130.487 2.78387 3.67829 0
M  V30 1400 H 128.73 2.67292 3.41668 0
M  V30 1401 H 129.401 2.31549 5.01088 0
M  V30 1402 H 131.877 0.608905 4.11621 0
M  V30 1403 H 130.753 0.361265 5.4771 0
M  V30 1404 H 131.014 -0.935158 4.32096 0
M  V30 1405 N 130.073 -1.45103 0.615059 0
M  V30 1406 C 130.983 -2.34382 -0.101034 0
M  V30 1407 C 131.999 -1.51681 -0.852585 0
M  V30 1408 O 133.175 -1.8446 -0.808484 0
M  V30 1409 C 130.24 -3.29417 -1.08099 0
M  V30 1410 C 129.301 -4.28025 -0.330577 0
M  V30 1411 C 128.534 -5.1852 -1.26385 0
M  V30 1412 O 128.757 -5.12598 -2.50198 0
M  V30 1413 O 127.691 -5.97122 -0.756866 0
M  V30 1414 H 131.517 -2.97033 0.632855 0
M  V30 1415 H 129.102 -1.4461 0.375293 0
M  V30 1416 H 130.984 -3.87958 -1.6452 0
M  V30 1417 H 129.659 -2.69321 -1.79577 0
M  V30 1418 H 128.566 -3.73078 0.276283 0
M  V30 1419 H 129.899 -4.90997 0.343866 0
M  V30 1420 N 131.551 -0.354651 -1.53558 0
M  V30 1421 C 132.484 0.540273 -2.21712 0
M  V30 1422 C 133.462 1.09161 -1.2051 0
M  V30 1423 O 134.646 1.14979 -1.49372 0
M  V30 1424 C 131.773 1.74435 -2.90328 0
M  V30 1425 C 130.819 1.32146 -4.05512 0
M  V30 1426 S 131.652 0.331924 -5.3447 0
M  V30 1427 C 132.808 1.54258 -6.06593 0
M  V30 1428 H 133.041 -0.0385776 -2.97275 0
M  V30 1429 H 130.574 -0.138736 -1.53775 0
M  V30 1430 H 132.532 2.43507 -3.30476 0
M  V30 1431 H 131.193 2.29444 -2.1451 0
M  V30 1432 H 130.386 2.21952 -4.52497 0
M  V30 1433 H 129.988 0.710091 -3.67197 0
M  V30 1434 H 132.28 2.47534 -6.30661 0
M  V30 1435 H 133.223 1.11431 -6.99277 0
M  V30 1436 H 133.631 1.74367 -5.36895 0
M  V30 1437 N 133.029 1.57378 -0.0835403 0
M  V30 1438 C 133.976 2.13384 0.879539 0
M  V30 1439 C 134.946 1.04936 1.28754 0
M  V30 1440 O 136.131 1.32662 1.37133 0
M  V30 1441 C 133.271 2.70932 2.13752 0
M  V30 1442 C 132.384 3.93575 1.7811 0
M  V30 1443 C 131.519 4.39326 2.98607 0
M  V30 1444 C 130.558 5.54587 2.59037 0
M  V30 1445 N 129.695 5.95243 3.72331 0
M  V30 1446 H 134.535 2.9537 0.395076 0
M  V30 1447 H 132.072 1.45953 0.183349 0
M  V30 1448 H 134.03 3.02411 2.87408 0
M  V30 1449 H 132.66 1.91693 2.59718 0
M  V30 1450 H 131.712 3.68483 0.94469 0
M  V30 1451 H 133.024 4.77258 1.45005 0
M  V30 1452 H 132.178 4.72528 3.80529 0
M  V30 1453 H 130.917 3.5452 3.34913 0
M  V30 1454 H 129.922 5.21024 1.75539 0
M  V30 1455 H 131.147 6.41133 2.23887 0
M  V30 1456 H 129.093 5.13385 4.08378 0
M  V30 1457 H 129.01 6.73694 3.43034 0
M  V30 1458 H 130.278 6.33072 4.54797 0
M  V30 1459 N 134.507 -0.190092 1.56449 0
M  V30 1460 C 135.754 -0.909705 1.80916 0
M  V30 1461 C 136.082 -1.83047 0.657583 0
M  V30 1462 O 135.337 -1.92428 -0.356356 0
M  V30 1463 C 135.636 -1.75382 3.1141 0
M  V30 1464 C 135.302 -0.983606 4.40041 0
M  V30 1465 C 133.964 -0.770967 4.74984 0
M  V30 1466 C 136.316 -0.442024 5.19322 0
M  V30 1467 C 133.644 -0.0053448 5.867 0
M  V30 1468 C 135.996 0.310412 6.31838 0
M  V30 1469 C 134.66 0.534023 6.6536 0
M  V30 1470 H 133.93 -0.332885 0.662019 0
M  V30 1471 H 136.577 -0.175762 1.90692 0
M  V30 1472 H 134.882 -2.55659 2.96893 0
M  V30 1473 H 136.579 -2.31331 3.27547 0
M  V30 1474 H 133.169 -1.15936 4.12622 0
M  V30 1475 H 137.353 -0.593693 4.92736 0
M  V30 1476 H 132.609 0.177825 6.11141 0
M  V30 1477 H 136.783 0.737419 6.92485 0
M  V30 1478 H 134.41 1.12918 7.51767 0
M  V30 1479 N 135.985 -1.50799 -0.457987 0
M  V30 1480 C 137.21 -1.66496 -1.23668 0
M  V30 1481 C 137.635 -0.353288 -1.84752 0
M  V30 1482 O 136.993 0.684346 -1.67888 0
M  V30 1483 C 137.041 -2.76763 -2.3116 0
M  V30 1484 O 136.145 -2.38928 -3.36136 0
M  V30 1485 H 135.486 -0.555828 -0.363252 0
M  V30 1486 H 138.016 -1.9725 -0.543474 0
M  V30 1487 H 138.026 -3.00232 -2.76269 0
M  V30 1488 H 136.701 -3.71954 -1.86073 0
M  V30 1489 H 135.278 -2.25953 -2.96647 0
M  V30 1490 N 137.463 0.71206 -1.40597 0
M  V30 1491 C 138.709 1.47416 -1.39271 0
M  V30 1492 C 139.042 1.942 0.00388791 0
M  V30 1493 O 138.317 1.68403 0.973179 0
M  V30 1494 C 138.6 2.69774 -2.38525 0
M  V30 1495 C 138.453 2.28861 -3.87224 0
M  V30 1496 C 139.772 3.71939 -2.35264 0
M  V30 1497 H 136.891 0.534713 -0.5072 0
M  V30 1498 H 139.533 0.812375 -1.71757 0
M  V30 1499 H 137.683 3.26238 -2.10953 0
M  V30 1500 H 139.355 1.77852 -4.25636 0
M  V30 1501 H 137.598 1.60824 -4.02887 0
M  V30 1502 H 138.269 3.16584 -4.52193 0
M  V30 1503 H 140.745 3.25113 -2.59694 0
M  V30 1504 H 139.621 4.55186 -3.06753 0
M  V30 1505 H 139.882 4.20484 -1.36549 0
M  V30 1506 N 138.941 1.26152 0.944643 0
M  V30 1507 C 140.357 1.03189 1.21754 0
M  V30 1508 C 140.557 -0.245112 2.00004 0
M  V30 1509 O 139.613 -0.955176 2.33736 0
M  V30 1510 C 140.926 2.26119 1.98219 0
M  V30 1511 C 142.474 2.30984 2.11224 0
M  V30 1512 C 142.949 3.53597 2.91089 0
M  V30 1513 N 144.44 3.54053 2.98664 0
M  V30 1514 C 145.175 4.45593 3.60881 0
M  V30 1515 N 144.671 5.47416 4.24626 0
M  V30 1516 N 146.464 4.33252 3.58119 0
M  V30 1517 H 138.615 2.08177 0.421437 0
M  V30 1518 H 140.878 0.914723 0.248969 0
M  V30 1519 H 140.584 3.18984 1.48128 0
M  V30 1520 H 140.458 2.3009 2.98895 0
M  V30 1521 H 142.845 1.38635 2.60508 0
M  V30 1522 H 142.926 2.31026 1.09821 0
M  V30 1523 H 142.57 4.46273 2.42493 0
M  V30 1524 H 142.5 3.50802 3.92741 0
M  V30 1525 H 144.991 2.80403 2.53343 0
M  V30 1526 H 145.304 6.13459 4.69987 0
M  V30 1527 H 143.649 5.51278 4.23223 0
M  V30 1528 H 146.84 3.52924 3.0751 0
M  V30 1529 H 147.013 5.04786 4.06319 0
M  V30 1530 N 140.419 -1.14872 1.07899 0
M  V30 1531 C 141.696 -1.81928 0.71845 0
M  V30 1532 C 142.076 -1.95417 -0.798455 0
M  V30 1533 O 141.424 -1.50997 -1.715 0
M  V30 1534 C 141.634 -3.17937 1.43935 0
M  V30 1535 C 142.982 -3.93501 1.59506 0
M  V30 1536 O 144.006 -3.27509 1.40058 0
M  V30 1537 O 142.865 -5.1183 1.91551 0
M  V30 1538 H 139.959 -0.78628 0.256305 0
M  V30 1539 H 142.505 -1.21934 1.18026 0
M  V30 1540 H 141.277 -3.0325 2.47295 0
M  V30 1541 H 140.9 -3.85619 0.968687 0
M  V30 1542 N 141.898 -0.863906 -1.31812 0
M  V30 1543 C 143.138 -0.47825 -1.98726 0
M  V30 1544 C 143.502 0.950397 -1.66828 0
M  V30 1545 O 144.703 1.44109 -2.26905 0
M  V30 1546 C 142.974 -0.721134 -3.50049 0
M  V30 1547 S 144.533 -0.434432 -4.36644 0
M  V30 1548 H 141.351 -0.178773 -0.688158 0
M  V30 1549 H 143.953 -1.11862 -1.60334 0
M  V30 1550 H 142.657 -1.75981 -3.70755 0
M  V30 1551 H 142.188 -0.0675315 -3.93342 0
M  V30 1552 H 144.203 0.735786 -4.90714 0
M  V30 1553 N 143.376 1.44774 -0.622745 0
M  V30 1554 C 144.601 2.06999 -0.128968 0
M  V30 1555 C 145.026 1.4617 1.1839 0
M  V30 1556 O 144.384 0.560007 1.72434 0
M  V30 1557 C 144.432 3.60595 -0.0188351 0
M  V30 1558 O 143.536 3.99398 1.02739 0
M  V30 1559 H 142.877 0.659047 -0.0809544 0
M  V30 1560 H 145.407 1.85784 -0.85705 0
M  V30 1561 H 145.417 4.07627 0.174476 0
M  V30 1562 H 144.092 4.04252 -0.977384 0
M  V30 1563 H 142.669 3.64011 0.809326 0
M  V30 1564 N 144.854 0.36279 1.53368 0
M  V30 1565 C 146.079 -0.231226 2.06107 0
M  V30 1566 C 146.504 -1.419 1.23474 0
M  V30 1567 O 145.862 -1.79524 0.253128 0
M  V30 1568 C 145.91 -0.605523 3.5548 0
M  V30 1569 O 145.014 -1.70312 3.7559 0
M  V30 1570 H 144.355 -0.034327 0.663112 0
M  V30 1571 H 146.885 0.522584 1.97814 0
M  V30 1572 H 146.895 -0.877314 3.98456 0
M  V30 1573 H 145.57 0.263004 4.15068 0
M  V30 1574 H 144.147 -1.4271 3.44512 0
M  V30 1575 N 146.332 -1.57332 0.0918853 0
M  V30 1576 C 147.581 -1.93412 -0.572249 0
M  V30 1577 C 147.894 -0.975515 -1.69538 0
M  V30 1578 O 149.1 -1.22991 -2.42045 0
M  V30 1579 C 147.556 -3.43648 -1.0693 0
M  V30 1580 C 147.164 -4.47994 0.0239049 0
M  V30 1581 C 148.908 -3.88695 -1.70635 0
M  V30 1582 C 146.815 -5.89381 -0.488319 0
M  V30 1583 H 145.745 -0.721939 -0.217532 0
M  V30 1584 H 148.396 -1.82735 0.167369 0
M  V30 1585 H 146.778 -3.49466 -1.8625 0
M  V30 1586 H 147.952 -4.53815 0.799277 0
M  V30 1587 H 146.267 -4.12536 0.565946 0
M  V30 1588 H 148.864 -4.91725 -2.10025 0
M  V30 1589 H 149.207 -3.27166 -2.57426 0
M  V30 1590 H 149.74 -3.85564 -0.979023 0
M  V30 1591 H 146.479 -6.54602 0.342906 0
M  V30 1592 H 145.999 -5.87037 -1.23077 0
M  V30 1593 H 147.678 -6.39863 -0.958317 0
M  V30 1594 N 147.81 0.181792 -1.56548 0
M  V30 1595 C 149.221 0.745244 -1.71181 0
M  V30 1596 C 149.572 1.83262 -0.70068 0
M  V30 1597 O 148.697 2.15946 0.140154 0
M  V30 1598 C 149.292 1.35859 -3.10367 0
M  V30 1599 C 147.851 1.86898 -3.2672 0
M  V30 1600 C 146.998 0.743942 -2.67134 0
M  V30 1601 H 149.949 -0.0434661 -1.5864 0
M  V30 1602 H 149.97 2.22817 -3.08436 0
M  V30 1603 H 149.482 0.566948 -3.83937 0
M  V30 1604 H 147.583 2.68738 -2.5809 0
M  V30 1605 H 147.696 2.02162 -4.34359 0
M  V30 1606 H 146.06 1.16169 -2.26665 0
M  V30 1607 H 146.843 -0.035676 -3.43281 0
M  V30 1608 N 149.288 1.51039 0.449983 0
M  V30 1609 C 150.513 1.6715 1.22783 0
M  V30 1610 C 150.938 0.363081 1.84563 0
M  V30 1611 O 150.296 -0.675433 1.68249 0
M  V30 1612 C 150.344 2.77985 2.29689 0
M  V30 1613 O 149.448 2.40707 3.34864 0
M  V30 1614 H 148.789 0.557746 0.360299 0
M  V30 1615 H 151.319 1.97535 0.533005 0
M  V30 1616 H 151.329 3.01693 2.74673 0
M  V30 1617 H 150.004 3.72935 1.84098 0
M  V30 1618 H 148.581 2.27523 2.95445 0
M  V30 1619 N 150.766 -0.704594 1.40972 0
M  V30 1620 C 152.012 -1.46675 1.40051 0
M  V30 1621 C 152.345 -1.94199 0.00641102 0
M  V30 1622 O 151.62 -1.68916 -0.964235 0
M  V30 1623 C 151.903 -2.68505 2.39952 0
M  V30 1624 C 151.756 -2.26805 3.88432 0
M  V30 1625 C 153.075 -3.70686 2.37233 0
M  V30 1626 H 150.194 -0.532015 0.510028 0
M  V30 1627 H 152.836 -0.803255 1.72185 0
M  V30 1628 H 150.986 -3.25114 2.1268 0
M  V30 1629 H 152.658 -1.75592 4.26574 0
M  V30 1630 H 150.901 -1.58685 4.03734 0
M  V30 1631 H 151.572 -3.14181 4.53866 0
M  V30 1632 H 154.048 -3.23731 2.61415 0
M  V30 1633 H 152.924 -4.53553 3.09162 0
M  V30 1634 H 153.185 -4.19754 1.38777 0
M  V30 1635 N 152.244 -1.26651 -0.937939 0
M  V30 1636 C 153.655 -1.1125 -1.49934 0
M  V30 1637 C 154.006 0.306077 -1.93798 0
M  V30 1638 O 153.131 1.19792 -1.80219 0
M  V30 1639 C 153.726 -2.01339 -2.72485 0
M  V30 1640 C 152.285 -1.90074 -3.24883 0
M  V30 1641 C 151.432 -1.94498 -1.97651 0
M  V30 1642 H 154.383 -1.39693 -0.753091 0
M  V30 1643 H 154.404 -1.56319 -3.46907 0
M  V30 1644 H 153.916 -3.04577 -2.40529 0
M  V30 1645 H 152.017 -0.897827 -3.61621 0
M  V30 1646 H 152.13 -2.75778 -3.9177 0
M  V30 1647 H 150.494 -1.38591 -2.13693 0
M  V30 1648 H 151.277 -2.99372 -1.68022 0
M  V30 1649 N 153.722 1.14298 -1.08507 0
M  V30 1650 C 154.97 1.84993 -0.813763 0
M  V30 1651 C 155.291 1.83405 0.662393 0
M  V30 1652 O 154.561 1.28319 1.48024 0
M  V30 1653 H 153.141 0.684966 -0.298045 0
M  V30 1654 H 155.803 1.385 -1.37126 0
M  V30 1655 H 154.899 2.89788 -1.15884 0
M  V30 1656 N 155.201 0.870884 1.31352 0
M  V30 1657 C 156.426 0.495957 2.01383 0
M  V30 1658 C 156.851 -0.904324 1.64935 0
M  V30 1659 O 156.209 -1.59687 0.858466 0
M  V30 1660 C 156.257 0.661433 3.54482 0
M  V30 1661 O 155.361 -0.298851 4.11316 0
M  V30 1662 H 154.702 0.197158 0.634054 0
M  V30 1663 H 157.232 1.17455 1.67527 0
M  V30 1664 H 157.242 0.555072 4.04207 0
M  V30 1665 H 155.917 1.68246 3.8035 0
M  V30 1666 H 154.494 -0.147368 3.72609 0
M  V30 1667 N 156.679 -1.44442 0.630414 0
M  V30 1668 C 157.919 -2.03934 0.137919 0
M  V30 1669 C 158.283 -1.48509 -1.21692 0
M  V30 1670 O 159.484 -1.99499 -1.80149 0
M  V30 1671 C 157.755 -3.57187 0.123373 0
M  V30 1672 S 159.314 -4.37741 -0.304604 0
M  V30 1673 H 156.132 -0.708401 0.0607353 0
M  V30 1674 H 158.734 -1.76835 0.833643 0
M  V30 1675 H 157.438 -3.95032 1.11256 0
M  V30 1676 H 156.969 -3.88895 -0.59362 0
M  V30 1677 H 158.984 -4.71403 -1.54897 0
M  V30 1678 N 158.157 -0.370918 -1.53173 0
M  V30 1679 C 159.104 0.473035 -2.259 0
M  V30 1680 C 160.074 1.07311 -1.26781 0
M  V30 1681 O 161.259 1.1046 -1.55574 0
M  V30 1682 C 158.399 1.60405 -3.05556 0
M  V30 1683 C 157.512 1.02863 -4.19575 0
M  V30 1684 C 156.647 2.12918 -4.86661 0
M  V30 1685 C 155.686 1.52869 -5.92704 0
M  V30 1686 N 154.823 2.56779 -6.53459 0
M  V30 1687 H 159.663 -0.153649 -2.97604 0
M  V30 1688 H 157.2 -0.0875946 -1.46839 0
M  V30 1689 H 159.158 2.27034 -3.50016 0
M  V30 1690 H 157.788 2.20131 -2.36097 0
M  V30 1691 H 156.84 0.252465 -3.79561 0
M  V30 1692 H 158.152 0.549642 -4.95762 0
M  V30 1693 H 157.306 2.87356 -5.34333 0
M  V30 1694 H 156.045 2.6417 -4.09958 0
M  V30 1695 H 155.05 0.769479 -5.44389 0
M  V30 1696 H 156.275 1.02435 -6.7133 0
M  V30 1697 H 154.221 3.07235 -5.79606 0
M  V30 1698 H 154.138 2.13583 -7.25202 0
M  V30 1699 H 155.406 3.30903 -7.05779 0
M  V30 1700 N 159.635 1.57281 -0.100228 0
M  V30 1701 C 160.545 2.17833 0.870965 0
M  V30 1702 C 161.561 1.14921 1.30649 0
M  V30 1703 O 162.737 1.47313 1.37335 0
M  V30 1704 C 159.802 2.75085 2.1102 0
M  V30 1705 C 158.863 3.9297 1.72838 0
M  V30 1706 C 158.096 4.47482 2.90854 0
M  V30 1707 O 158.319 4.00922 4.05731 0
M  V30 1708 O 157.253 5.38433 2.69023 0
M  V30 1709 H 161.079 3.0124 0.38575 0
M  V30 1710 H 158.664 1.48881 0.124397 0
M  V30 1711 H 160.546 3.11656 2.83634 0
M  V30 1712 H 159.221 1.94721 2.58584 0
M  V30 1713 H 158.128 3.61201 0.973883 0
M  V30 1714 H 159.461 4.74713 1.30033 0
M  V30 1715 N 161.113 -0.173488 1.56642 0
M  V30 1716 C 162.341 -0.906095 1.86004 0
M  V30 1717 C 162.756 -1.75921 0.685355 0
M  V30 1718 O 162.113 -1.79198 -0.345578 0
M  V30 1719 C 162.164 -1.78462 3.14378 0
M  V30 1720 O 161.885 -0.965914 4.27319 0
M  V30 1721 C 163.386 -2.62707 3.57071 0
M  V30 1722 H 160.606 -0.263341 0.617165 0
M  V30 1723 H 163.15 -0.174236 2.03756 0
M  V30 1724 H 161.305 -2.46984 2.98459 0
M  V30 1725 H 161.719 -1.56655 5.00559 0
M  V30 1726 H 163.193 -3.19969 4.49804 0
M  V30 1727 H 163.67 -3.37472 2.81086 0
M  V30 1728 H 164.276 -1.99521 3.75595 0
M  V30 1729 N 162.591 -1.51276 -0.441967 0
M  V30 1730 C 163.838 -1.63715 -1.19179 0
M  V30 1731 C 164.166 -0.351175 -1.91303 0
M  V30 1732 O 163.421 0.664524 -1.84072 0
M  V30 1733 C 163.72 -2.78746 -2.23686 0
M  V30 1734 C 163.386 -4.18189 -1.68607 0
M  V30 1735 C 162.048 -4.56125 -1.53308 0
M  V30 1736 C 164.4 -5.05222 -1.28062 0
M  V30 1737 C 161.728 -5.78804 -0.959317 0
M  V30 1738 C 164.08 -6.28476 -0.721162 0
M  V30 1739 C 162.744 -6.65188 -0.55504 0
M  V30 1740 H 162.014 -0.599076 -0.436106 0
M  V30 1741 H 164.661 -1.85296 -0.48351 0
M  V30 1742 H 162.966 -2.51369 -3.00535 0
M  V30 1743 H 164.663 -2.8557 -2.81515 0
M  V30 1744 H 161.253 -3.88277 -1.8149 0
M  V30 1745 H 165.437 -4.76524 -1.38704 0
M  V30 1746 H 160.693 -6.05899 -0.81833 0
M  V30 1747 H 164.867 -6.95259 -0.398458 0
M  V30 1748 H 162.494 -7.60123 -0.108311 0
M  V30 1749 N 164.069 0.697108 -1.41344 0
M  V30 1750 C 165.017 1.83237 -1.43272 0
M  V30 1751 C 166.011 1.66522 -0.310947 0
M  V30 1752 O 167.217 1.73402 -0.482899 0
M  V30 1753 H 163.592 0.603802 -0.448249 0
M  V30 1754 H 165.563 1.78727 -2.38954 0
M  V30 1755 C 164.312 3.21245 -1.33029 0
M  V30 1756 H 163.635 3.34723 -2.18633 0
M  V30 1757 H 165.075 4.00763 -1.38439 0
M  V30 1758 C 163.534 3.36873 -0.0424635 0
M  V30 1759 O 164.064 3.91177 0.913421 0
M  V30 1760 N 162.27 2.90581 0.0331145 0
M  V30 1761 H 161.817 2.46577 -0.745506 0
M  V30 1762 H 161.775 3.01416 0.894199 0
M  V30 1763 N 165.547 1.27147 0.931209 0
M  V30 1764 C 166.477 1.12081 2.04842 0
M  V30 1765 C 167.458 0.0232364 1.70084 0
M  V30 1766 O 168.643 0.197085 1.93197 0
M  V30 1767 C 165.773 0.76354 3.38803 0
M  V30 1768 C 164.727 1.81396 3.87659 0
M  V30 1769 C 164.053 1.31075 5.18385 0
M  V30 1770 C 165.353 3.21739 4.11438 0
M  V30 1771 H 167.047 2.05537 2.17703 0
M  V30 1772 H 164.593 0.989603 1.04608 0
M  V30 1773 H 166.546 0.644982 4.16435 0
M  V30 1774 H 165.27 -0.206727 3.25945 0
M  V30 1775 H 163.929 1.92136 3.12217 0
M  V30 1776 H 163.577 0.330037 5.01916 0
M  V30 1777 H 163.277 2.013 5.52044 0
M  V30 1778 H 164.801 1.20506 5.98591 0
M  V30 1779 H 166.215 3.14019 4.79651 0
M  V30 1780 H 164.612 3.89644 4.56397 0
M  V30 1781 H 165.682 3.67054 3.16859 0
M  V30 1782 N 167.025 -1.13721 1.09112 0
M  V30 1783 C 168.255 -1.88499 0.845671 0
M  V30 1784 C 168.663 -1.79218 -0.606432 0
M  V30 1785 O 168.006 -1.1544 -1.42896 0
M  V30 1786 C 168.068 -3.38954 1.19793 0
M  V30 1787 C 167.732 -3.72018 2.65428 0
M  V30 1788 C 168.729 -3.7153 3.63677 0
M  V30 1789 C 166.414 -4.01775 3.01467 0
M  V30 1790 C 168.408 -4.00336 4.95994 0
M  V30 1791 C 166.095 -4.30243 4.33975 0
M  V30 1792 C 167.093 -4.29508 5.31048 0
M  V30 1793 O 166.781 -4.5728 6.61173 0
M  V30 1794 H 166.513 -0.603702 0.304171 0
M  V30 1795 H 169.067 -1.44903 1.45576 0
M  V30 1796 H 167.297 -3.83039 0.530871 0
M  V30 1797 H 168.986 -3.95052 0.932146 0
M  V30 1798 H 169.752 -3.4862 3.37179 0
M  V30 1799 H 165.631 -4.01496 2.26544 0
M  V30 1800 H 169.175 -3.99678 5.71755 0
M  V30 1801 H 165.072 -4.52625 4.60219 0
M  V30 1802 H 165.84 -4.74964 6.66597 0
M  V30 1803 N 168.503 -0.877838 -1.30888 0
M  V30 1804 C 169.733 -0.506678 -2.00291 0
M  V30 1805 C 170.141 0.907449 -1.66018 0
M  V30 1806 O 169.484 1.60719 -0.88967 0
M  V30 1807 C 169.546 -0.59323 -3.54572 0
M  V30 1808 C 169.21 -1.97038 -4.12341 0
M  V30 1809 C 170.207 -2.93889 -4.28865 0
M  V30 1810 C 167.892 -2.27383 -4.47886 0
M  V30 1811 C 169.886 -4.19224 -4.80136 0
M  V30 1812 C 167.573 -3.52965 -4.98857 0
M  V30 1813 C 168.571 -4.48701 -5.14934 0
M  V30 1814 O 168.259 -5.72056 -5.64808 0
M  V30 1815 H 167.991 -0.1951 -0.647234 0
M  V30 1816 H 170.545 -1.18301 -1.6791 0
M  V30 1817 H 168.775 0.140057 -3.86446 0
M  V30 1818 H 170.464 -0.234372 -4.05223 0
M  V30 1819 H 171.23 -2.71756 -4.01714 0
M  V30 1820 H 167.109 -1.53639 -4.34645 0
M  V30 1821 H 170.653 -4.93956 -4.92599 0
M  V30 1822 H 166.55 -3.74939 -5.25443 0
M  V30 1823 H 167.318 -5.74337 -5.83163 0
M  V30 1824 N 169.982 1.44106 -0.638065 0
M  V30 1825 C 171.212 2.06037 -0.152394 0
M  V30 1826 C 171.62 1.47808 1.18108 0
M  V30 1827 O 170.963 0.598092 1.73691 0
M  V30 1828 C 171.025 3.59488 0.0293714 0
M  V30 1829 C 170.689 4.4022 -1.22702 0
M  V30 1830 C 171.686 4.73256 -2.15232 0
M  V30 1831 C 169.371 4.8048 -1.46437 0
M  V30 1832 C 171.365 5.45444 -3.29802 0
M  V30 1833 C 169.052 5.52417 -2.61303 0
M  V30 1834 C 170.05 5.84819 -3.52811 0
M  V30 1835 O 169.738 6.55289 -4.65673 0
M  V30 1836 H 169.47 0.671233 -0.0801401 0
M  V30 1837 H 172.024 1.85851 -0.874563 0
M  V30 1838 H 170.254 3.78191 0.806758 0
M  V30 1839 H 171.943 4.03164 0.470475 0
M  V30 1840 H 172.709 4.42684 -1.98131 0
M  V30 1841 H 168.588 4.54676 -0.760977 0
M  V30 1842 H 172.132 5.70653 -4.01249 0
M  V30 1843 H 168.029 5.82404 -2.78344 0
M  V30 1844 H 168.797 6.73762 -4.64744 0
M  V30 1845 N 171.46 0.379036 1.52974 0
M  V30 1846 C 172.37 -0.468639 2.29872 0
M  V30 1847 C 173.386 -1.08067 1.36373 0
M  V30 1848 O 174.562 -1.08871 1.69438 0
M  V30 1849 C 171.627 -1.58594 3.083 0
M  V30 1850 C 170.688 -1.00007 4.17489 0
M  V30 1851 C 169.921 -2.06413 4.92168 0
M  V30 1852 O 170.144 -3.27751 4.66835 0
M  V30 1853 O 169.078 -1.68717 5.7777 0
M  V30 1854 H 172.904 0.157508 3.03291 0
M  V30 1855 H 170.489 0.143035 1.48714 0
M  V30 1856 H 172.371 -2.23525 3.57232 0
M  V30 1857 H 171.046 -2.19724 2.37703 0
M  V30 1858 H 169.953 -0.314299 3.72777 0
M  V30 1859 H 171.286 -0.433135 4.90291 0
M  V30 1860 N 172.938 -1.57226 0.108567 0
M  V30 1861 C 173.901 -2.13602 -0.831082 0
M  V30 1862 C 174.901 -1.06841 -1.20173 0
M  V30 1863 O 176.091 -1.32666 -1.12895 0
M  V30 1864 C 173.223 -2.66769 -2.12243 0
M  V30 1865 H 174.416 -2.97951 -0.341317 0
M  V30 1866 H 171.969 -1.55667 -0.14057 0
M  V30 1867 H 172.704 -1.85977 -2.65675 0
M  V30 1868 H 172.489 -3.44839 -1.86625 0
M  V30 1869 H 173.979 -3.10332 -2.79435 0
M  V30 1870 N 174.416 0.165178 -1.56732 0
M  V30 1871 C 175.693 0.908443 -1.73224 0
M  V30 1872 C 176.073 2.0013 -0.67165 0
M  V30 1873 O 175.421 2.26353 0.31253 0
M  V30 1874 C 175.631 1.46756 -3.16644 0
M  V30 1875 C 176.979 1.93809 -3.77787 0
M  V30 1876 O 178.003 1.56537 -3.1996 0
M  V30 1877 O 176.862 2.62486 -4.79336 0
M  V30 1878 H 173.956 0.428025 -0.707618 0
M  V30 1879 H 176.502 0.152526 -1.69013 0
M  V30 1880 H 175.274 0.68129 -3.85323 0
M  V30 1881 H 174.897 2.28749 -3.25207 0
M  V30 1882 N 175.894 1.51508 0.433938 0
M  V30 1883 C 177.141 1.64345 1.18309 0
M  V30 1884 C 177.469 0.361315 1.91115 0
M  V30 1885 O 176.724 -0.654753 1.84422 0
M  V30 1886 C 177.023 2.79928 2.22205 0
M  V30 1887 C 176.689 4.19078 1.66387 0
M  V30 1888 C 175.351 4.56932 1.50887 0
M  V30 1889 C 177.703 5.05894 1.25381 0
M  V30 1890 C 175.031 5.79305 0.928608 0
M  V30 1891 C 177.383 6.2885 0.687823 0
M  V30 1892 C 176.047 6.65473 0.519755 0
M  V30 1893 H 175.317 0.601381 0.432923 0
M  V30 1894 H 177.964 1.85549 0.473676 0
M  V30 1895 H 176.269 2.52959 2.99197 0
M  V30 1896 H 177.966 2.87059 2.79997 0
M  V30 1897 H 174.556 3.89234 1.79428 0
M  V30 1898 H 178.74 4.77253 1.36175 0
M  V30 1899 H 173.996 6.06324 0.786186 0
M  V30 1900 H 178.17 6.95461 0.361581 0
M  V30 1901 H 175.797 7.6017 0.0679979 0
M  V30 1902 N 177.372 -0.689602 1.41712 0
M  V30 1903 C 178.649 -1.44457 1.31877 0
M  V30 1904 C 179.029 -2.11039 -0.0508537 0
M  V30 1905 O 178.377 -2.02138 -1.06547 0
M  V30 1906 C 178.587 -2.45913 2.47645 0
M  V30 1907 C 179.935 -3.10991 2.89084 0
M  V30 1908 O 180.959 -2.56238 2.47428 0
M  V30 1909 O 179.818 -4.10174 3.61137 0
M  V30 1910 H 176.912 -0.64362 0.519309 0
M  V30 1911 H 179.458 -0.719576 1.53689 0
M  V30 1912 H 178.23 -1.95409 3.39015 0
M  V30 1913 H 177.853 -3.25913 2.27742 0
M  V30 1914 N 178.85 -1.27639 -0.924453 0
M  V30 1915 C 180.075 -1.17101 -1.71179 0
M  V30 1916 C 180.5 0.268134 -1.86179 0
M  V30 1917 O 179.858 1.19415 -1.36418 0
M  V30 1918 C 179.906 -1.86313 -3.08739 0
M  V30 1919 O 179.01 -1.16331 -3.95652 0
M  V30 1920 H 178.351 -0.407091 -0.524569 0
M  V30 1921 H 180.881 -1.68767 -1.15666 0
M  V30 1922 H 180.891 -1.938 -3.59034 0
M  V30 1923 H 179.566 -2.91001 -2.97138 0
M  V30 1924 H 178.143 -1.16935 -3.54091 0
M  V30 1925 N 180.328 1.1314 -1.09713 0
M  V30 1926 C 181.291 2.16831 -0.742751 0
M  V30 1927 C 182.291 1.59159 0.229129 0
M  V30 1928 O 183.481 1.74199 0.00693237 0
M  V30 1929 C 180.613 3.40756 -0.0989168 0
M  V30 1930 H 181.806 2.49695 -1.66109 0
M  V30 1931 H 179.359 1.2802 -0.896699 0
M  V30 1932 H 180.094 3.13485 0.830514 0
M  V30 1933 H 179.879 3.83888 -0.798265 0
M  V30 1934 H 181.369 4.17386 0.133524 0
M  V30 1935 N 181.806 0.884767 1.30421 0
M  V30 1936 C 183.034 0.518044 2.0031 0
M  V30 1937 C 183.449 -0.893408 1.66324 0
M  V30 1938 O 182.806 -1.5875 0.900262 0
M  V30 1939 C 182.857 0.682997 3.54989 0
M  V30 1940 O 182.578 2.03888 3.87764 0
M  V30 1941 C 184.079 0.31924 4.42149 0
M  V30 1942 H 181.299 0.200265 0.640418 0
M  V30 1943 H 183.843 1.19001 1.6631 0
M  V30 1944 H 181.998 0.0584052 3.87356 0
M  V30 1945 H 182.412 2.05735 4.82466 0
M  V30 1946 H 183.886 0.485555 5.4986 0
M  V30 1947 H 184.363 -0.742717 4.32875 0
M  V30 1948 H 184.969 0.920147 4.15227 0
M  V30 1949 N 183.284 -1.43765 0.645699 0
M  V30 1950 C 184.231 -2.30745 -0.0504648 0
M  V30 1951 C 185.201 -1.4432 -0.822241 0
M  V30 1952 O 186.386 -1.73202 -0.800358 0
M  V30 1953 C 183.526 -3.29802 -1.0161 0
M  V30 1954 C 182.639 -4.31326 -0.241219 0
M  V30 1955 C 181.774 -5.17469 -1.19998 0
M  V30 1956 C 180.813 -6.10691 -0.415094 0
M  V30 1957 N 179.95 -6.89483 -1.32506 0
M  V30 1958 H 184.79 -2.8973 0.697155 0
M  V30 1959 H 182.327 -1.42738 0.355563 0
M  V30 1960 H 184.285 -3.85734 -1.58949 0
M  V30 1961 H 182.915 -2.72483 -1.73069 0
M  V30 1962 H 181.967 -3.77749 0.448334 0
M  V30 1963 H 183.279 -4.9743 0.369437 0
M  V30 1964 H 182.433 -5.7799 -1.84424 0
M  V30 1965 H 181.172 -4.51473 -1.84455 0
M  V30 1966 H 180.177 -5.49265 0.242565 0
M  V30 1967 H 181.402 -6.78727 0.224966 0
M  V30 1968 H 179.348 -6.26142 -1.95657 0
M  V30 1969 H 179.265 -7.52081 -0.768783 0
M  V30 1970 H 180.533 -7.54516 -1.9577 0
M  V30 1971 N 184.763 -0.387143 -1.52771 0
M  V30 1972 C 185.991 0.195869 -2.05971 0
M  V30 1973 C 186.406 1.40691 -1.25903 0
M  V30 1974 O 185.763 1.79931 -0.305134 0
M  V30 1975 C 185.814 0.56812 -3.57008 0
M  V30 1976 O 185.535 -0.594803 -4.34043 0
M  V30 1977 C 187.036 1.20723 -4.26545 0
M  V30 1978 H 184.256 0.0300578 -0.670326 0
M  V30 1979 H 186.8 -0.551749 -1.96916 0
M  V30 1980 H 184.955 1.26564 -3.66143 0
M  V30 1981 H 185.369 -0.289322 -5.23701 0
M  V30 1982 H 186.843 1.41807 -5.33474 0
M  V30 1983 H 187.32 2.17395 -3.81623 0
M  V30 1984 H 187.926 0.550535 -4.21722 0
M  V30 1985 N 186.241 1.57166 -0.116904 0
M  V30 1986 C 187.488 1.95123 0.541603 0
M  V30 1987 C 187.816 1.00006 1.6682 0
M  V30 1988 O 187.071 0.0235658 1.95686 0
M  V30 1989 C 187.37 3.39508 1.11664 0
M  V30 1990 C 187.036 4.50762 0.111606 0
M  V30 1991 C 185.698 4.80918 -0.164758 0
M  V30 1992 C 188.05 5.18036 -0.573438 0
M  V30 1993 C 185.378 5.75666 -1.13249 0
M  V30 1994 C 187.73 6.13824 -1.52978 0
M  V30 1995 C 186.394 6.42374 -1.81415 0
M  V30 1996 H 185.664 0.714005 0.198187 0
M  V30 1997 H 188.311 1.9048 -0.197365 0
M  V30 1998 H 186.616 3.40835 1.93232 0
M  V30 1999 H 188.313 3.66189 1.63422 0
M  V30 2000 H 184.903 4.27272 0.337192 0
M  V30 2001 H 189.087 4.94896 -0.373092 0
M  V30 2002 H 184.343 5.96092 -1.35958 0
M  V30 2003 H 188.517 6.65039 -2.06629 0
M  V30 2004 H 186.144 7.15599 -2.56557 0
M  V30 2005 N 187.719 -0.156864 1.56817 0
M  V30 2006 C 189.13 -0.717916 1.72345 0
M  V30 2007 C 189.481 -1.82124 0.729747 0
M  V30 2008 O 188.606 -2.16141 -0.105781 0
M  V30 2009 C 189.201 -1.30904 3.12489 0
M  V30 2010 C 187.76 -1.81676 3.29653 0
M  V30 2011 C 186.907 -0.701349 2.68284 0
M  V30 2012 H 189.858 0.0686989 1.58551 0
M  V30 2013 H 189.879 -2.17882 3.11942 0
M  V30 2014 H 189.391 -0.505796 3.8479 0
M  V30 2015 H 187.492 -2.64598 2.62333 0
M  V30 2016 H 187.605 -1.95226 4.3752 0
M  V30 2017 H 185.969 -1.12548 2.28484 0
M  V30 2018 H 186.752 0.0902846 3.43181 0
M  V30 2019 N 189.197 -1.51736 -0.425897 0
M  V30 2020 C 190.145 -1.74464 -1.53834 0
M  V30 2021 C 191.139 -0.611241 -1.57988 0
M  V30 2022 O 192.345 -0.792899 -1.61596 0
M  V30 2023 H 188.72 -0.551437 -0.511293 0
M  V30 2024 H 190.691 -2.67694 -1.31843 0
M  V30 2025 C 189.44 -1.8972 -2.91379 0
M  V30 2026 H 188.763 -2.76344 -2.88919 0
M  V30 2027 H 190.203 -2.09629 -3.68553 0
M  V30 2028 C 188.662 -0.65992 -3.30374 0
M  V30 2029 O 189.192 0.180083 -4.01296 0
M  V30 2030 N 187.398 -0.500677 -2.86254 0
M  V30 2031 H 186.945 -1.18532 -2.28709 0
M  V30 2032 H 186.903 0.325903 -3.12706 0
M  V30 2033 N 190.675 0.682077 -1.42076 0
M  V30 2034 C 191.921 1.44283 -1.43366 0
M  V30 2035 C 192.276 1.92344 -0.0465775 0
M  V30 2036 O 191.569 1.67517 0.929973 0
M  V30 2037 C 191.763 2.66036 -2.38662 0
M  V30 2038 C 191.592 2.29889 -3.86499 0
M  V30 2039 C 190.362 2.19599 -4.55087 0
M  V30 2040 C 192.56 1.91999 -4.77117 0
M  V30 2041 N 190.542 1.76478 -5.87987 0
M  V30 2042 C 191.913 1.59741 -5.99068 0
M  V30 2043 C 193.968 1.78927 -4.64639 0
M  V30 2044 C 192.671 1.15723 -7.0993 0
M  V30 2045 C 194.697 1.36314 -5.75476 0
M  V30 2046 C 194.059 1.04975 -6.96534 0
M  V30 2047 H 190.158 0.524739 -0.579805 0
M  V30 2048 H 192.742 0.787834 -1.78048 0
M  V30 2049 H 190.913 3.29237 -2.06053 0
M  V30 2050 H 192.645 3.32588 -2.30581 0
M  V30 2051 H 189.4 2.38433 -4.09202 0
M  V30 2052 H 189.824 1.57362 -6.58458 0
M  V30 2053 H 194.466 2.01805 -3.7153 0
M  V30 2054 H 192.184 0.91591 -8.02893 0
M  V30 2055 H 195.77 1.26731 -5.6783 0
M  V30 2056 H 194.65 0.725017 -7.80841 0
M  V30 2057 N 192.153 1.28127 0.917671 0
M  V30 2058 C 193.086 1.06039 2.02067 0
M  V30 2059 C 194.064 -0.0223285 1.62585 0
M  V30 2060 O 195.248 0.124823 1.88086 0
M  V30 2061 C 192.375 0.610596 3.33151 0
M  V30 2062 C 191.421 1.68937 3.91615 0
M  V30 2063 S 192.254 3.28437 4.22953 0
M  V30 2064 C 193.41 2.85283 5.57103 0
M  V30 2065 H 193.643 1.99425 2.20493 0
M  V30 2066 H 191.176 1.12071 1.06205 0
M  V30 2067 H 193.134 0.357778 4.08938 0
M  V30 2068 H 191.795 -0.303364 3.12632 0
M  V30 2069 H 190.988 1.32619 4.86239 0
M  V30 2070 H 190.59 1.89478 3.2245 0
M  V30 2071 H 192.882 2.3121 6.36827 0
M  V30 2072 H 193.825 3.7869 5.98331 0
M  V30 2073 H 194.233 2.24118 5.18104 0
M  V30 2074 N 193.631 -1.12557 1.10312 0
M  V30 2075 C 194.541 -2.21841 0.763142 0
M  V30 2076 C 195.557 -1.72354 -0.238801 0
M  V30 2077 O 196.733 -2.01249 -0.0778746 0
M  V30 2078 C 193.798 -3.46131 0.198632 0
M  V30 2079 C 192.859 -4.10464 1.25769 0
M  V30 2080 C 192.092 -5.28821 0.72002 0
M  V30 2081 O 192.315 -5.6859 -0.453993 0
M  V30 2082 O 191.249 -5.83437 1.47935 0
M  V30 2083 H 195.075 -2.53312 1.67532 0
M  V30 2084 H 192.66 -1.20867 0.878157 0
M  V30 2085 H 194.542 -4.2125 -0.112401 0
M  V30 2086 H 193.217 -3.16338 -0.686419 0
M  V30 2087 H 192.124 -3.3713 1.62156 0
M  V30 2088 H 193.457 -4.44408 2.11571 0
M  V30 2089 N 195.109 -0.891671 -1.2995 0
M  V30 2090 C 196.057 -0.353066 -2.29905 0
M  V30 2091 C 197.051 0.543509 -1.60444 0
M  V30 2092 O 198.257 0.4272 -1.74857 0
M  V30 2093 H 194.632 -0.095531 -0.745907 0
M  V30 2094 H 196.603 -1.20961 -2.72784 0
M  V30 2095 C 195.352 0.411475 -3.45257 0
M  V30 2096 H 194.675 -0.269182 -3.98893 0
M  V30 2097 H 196.115 0.753328 -4.17254 0
M  V30 2098 C 194.574 1.6111 -2.9588 0
M  V30 2099 O 195.104 2.71045 -2.96475 0
M  V30 2100 N 193.31 1.45054 -2.51809 0
M  V30 2101 H 192.857 0.556175 -2.51524 0
M  V30 2102 H 192.815 2.25453 -2.1913 0
M  V30 2103 N 196.587 1.43421 -0.653314 0
M  V30 2104 C 197.998 1.85065 -0.246537 0
M  V30 2105 C 198.349 1.54688 1.2069 0
M  V30 2106 O 197.474 0.995896 1.92122 0
M  V30 2107 C 198.069 3.35922 -0.440666 0
M  V30 2108 C 196.628 3.76297 -0.0882064 0
M  V30 2109 C 195.775 2.67147 -0.743484 0
M  V30 2110 H 198.726 1.33572 -0.856979 0
M  V30 2111 H 198.747 3.79204 0.313798 0
M  V30 2112 H 198.259 3.58 -1.49858 0
M  V30 2113 H 196.36 3.5983 0.96711 0
M  V30 2114 H 196.473 4.76338 -0.513738 0
M  V30 2115 H 194.837 2.54086 -0.176712 0
M  V30 2116 H 195.62 2.92053 -1.80443 0
M  V30 2117 N 198.065 0.39524 1.52563 0
M  V30 2118 C 199.311 -0.177763 2.02622 0
M  V30 2119 C 199.666 -1.43974 1.27629 0
M  V30 2120 O 198.959 -1.87995 0.36992 0
M  V30 2121 C 199.153 -0.493444 3.53977 0
M  V30 2122 C 198.982 0.736392 4.4363 0
M  V30 2123 C 197.752 1.25744 4.89404 0
M  V30 2124 C 199.95 1.61046 4.88435 0
M  V30 2125 N 197.932 2.44421 5.63145 0
M  V30 2126 C 199.303 2.64359 5.60816 0
M  V30 2127 C 201.358 1.62985 4.70468 0
M  V30 2128 C 200.061 3.69505 6.17137 0
M  V30 2129 C 202.087 2.67042 5.27677 0
M  V30 2130 C 201.449 3.69077 5.99968 0
M  V30 2131 H 197.548 -0.0269794 0.781534 0
M  V30 2132 H 200.132 0.546466 1.86874 0
M  V30 2133 H 198.303 -1.18672 3.69826 0
M  V30 2134 H 200.035 -1.05412 3.90731 0
M  V30 2135 H 196.79 0.817546 4.6649 0
M  V30 2136 H 197.214 3.04485 6.04663 0
M  V30 2137 H 201.856 0.854442 4.14076 0
M  V30 2138 H 199.574 4.4791 6.72608 0
M  V30 2139 H 203.16 2.69433 5.15652 0
M  V30 2140 H 202.04 4.48273 6.43444 0
M  V30 2141 N 199.544 -1.57102 0.125237 0
M  V30 2142 C 200.79 -1.95697 -0.532035 0
M  V30 2143 C 201.123 -1.009 -1.6593 0
M  V30 2144 O 200.398 -0.047347 -1.94442 0
M  V30 2145 C 200.681 -3.44181 -1.05884 0
M  V30 2146 C 200.534 -4.49752 0.0654392 0
M  V30 2147 C 201.853 -3.94655 -1.9477 0
M  V30 2148 H 198.972 -0.711571 -0.191925 0
M  V30 2149 H 201.614 -1.88923 0.20206 0
M  V30 2150 H 199.764 -3.50085 -1.68442 0
M  V30 2151 H 201.436 -4.55943 0.700982 0
M  V30 2152 H 199.679 -4.27653 0.727709 0
M  V30 2153 H 200.35 -5.50924 -0.344505 0
M  V30 2154 H 202.826 -3.91094 -1.42074 0
M  V30 2155 H 201.702 -4.99057 -2.28546 0
M  V30 2156 H 201.963 -3.35718 -2.87656 0
M  V30 2157 N 201.022 0.148545 -1.56898 0
M  V30 2158 C 201.969 1.18345 -1.98149 0
M  V30 2159 C 202.939 1.42772 -0.848848 0
M  V30 2160 O 204.124 1.55132 -1.11079 0
M  V30 2161 C 201.264 2.51231 -2.36594 0
M  V30 2162 C 200.377 2.33991 -3.63142 0
M  V30 2163 C 199.512 3.59902 -3.90697 0
M  V30 2164 C 198.551 3.37692 -5.1052 0
M  V30 2165 N 197.688 4.5573 -5.34092 0
M  V30 2166 H 202.528 0.82467 -2.86362 0
M  V30 2167 H 200.065 0.395756 -1.41676 0
M  V30 2168 H 202.023 3.28713 -2.56912 0
M  V30 2169 H 200.653 2.85059 -1.51463 0
M  V30 2170 H 199.705 1.47572 -3.50609 0
M  V30 2171 H 201.017 2.13539 -4.5078 0
M  V30 2172 H 200.171 4.45813 -4.11505 0
M  V30 2173 H 198.91 3.83357 -3.01477 0
M  V30 2174 H 197.915 2.5017 -4.89587 0
M  V30 2175 H 199.14 3.15637 -6.0129 0
M  V30 2176 H 197.086 4.79361 -4.47827 0
M  V30 2177 H 197.003 4.38274 -6.15996 0
M  V30 2178 H 198.271 5.42858 -5.59397 0
M  V30 2179 N 202.5 1.5196 0.417844 0
M  V30 2180 C 203.746 1.65836 1.16732 0
M  V30 2181 C 204.079 0.382881 1.90388 0
M  V30 2182 O 203.354 -0.618368 1.84408 0
M  V30 2183 C 203.637 2.87466 2.16876 0
M  V30 2184 C 203.49 4.25041 1.47174 0
M  V30 2185 C 204.809 3.04613 3.17646 0
M  V30 2186 H 201.928 0.603515 0.423011 0
M  V30 2187 H 204.57 1.84494 0.454105 0
M  V30 2188 H 202.72 2.71689 2.777 0
M  V30 2189 H 204.392 4.52527 0.895376 0
M  V30 2190 H 202.635 4.26843 0.773806 0
M  V30 2191 H 203.306 5.06176 2.20204 0
M  V30 2192 H 205.782 3.1923 2.66892 0
M  V30 2193 H 204.658 3.91247 3.8499 0
M  V30 2194 H 204.919 2.17541 3.84874 0
M  V30 2195 N 203.978 -0.674533 1.42435 0
M  V30 2196 C 205.255 -1.4305 1.33402 0
M  V30 2197 C 205.635 -2.11081 -0.0284674 0
M  V30 2198 O 204.983 -2.03257 -1.04397 0
M  V30 2199 C 205.193 -2.43272 2.50239 0
M  V30 2200 C 206.541 -3.07907 2.92367 0
M  V30 2201 O 207.565 -2.53599 2.50132 0
M  V30 2202 O 206.424 -4.0632 3.65467 0
M  V30 2203 H 203.518 -0.638076 0.526106 0
M  V30 2204 H 206.064 -0.703235 1.54443 0
M  V30 2205 H 204.836 -1.91803 3.41068 0
M  V30 2206 H 204.459 -3.23479 2.31186 0
M  V30 2207 N 205.456 -1.28612 -0.910864 0
M  V30 2208 C 206.684 -1.18792 -1.69399 0
M  V30 2209 C 207.099 0.253039 -1.87097 0
M  V30 2210 O 206.456 1.17071 -1.40003 0
M  V30 2211 C 206.507 -1.88511 -3.08457 0
M  V30 2212 O 206.228 -3.26979 -2.91576 0
M  V30 2213 C 207.729 -1.85029 -4.02839 0
M  V30 2214 H 204.949 -0.412233 -0.529438 0
M  V30 2215 H 207.493 -1.69788 -1.13984 0
M  V30 2216 H 205.648 -1.41379 -3.60681 0
M  V30 2217 H 206.062 -3.61936 -3.79608 0
M  V30 2218 H 207.536 -2.38395 -4.97867 0
M  V30 2219 H 208.013 -0.823303 -4.31414 0
M  V30 2220 H 208.619 -2.31853 -3.56545 0
M  V30 2221 N 206.934 1.1197 -1.10907 0
M  V30 2222 C 208.183 1.82947 -0.849302 0
M  V30 2223 C 208.496 1.85275 0.627112 0
M  V30 2224 O 209.702 2.52296 1.00295 0
M  V30 2225 C 208.158 3.28529 -1.46959 0
M  V30 2226 C 207.766 3.34546 -2.97965 0
M  V30 2227 C 209.51 4.04443 -1.28942 0
M  V30 2228 C 207.417 4.74491 -3.53004 0
M  V30 2229 H 206.347 0.685477 -0.314065 0
M  V30 2230 H 208.998 1.2604 -1.33365 0
M  V30 2231 H 207.38 3.85333 -0.912917 0
M  V30 2232 H 208.554 2.87654 -3.59989 0
M  V30 2233 H 206.869 2.72108 -3.15192 0
M  V30 2234 H 209.466 5.07787 -1.67502 0
M  V30 2235 H 209.809 4.15656 -0.231456 0
M  V30 2236 H 210.342 3.5401 -1.81443 0
M  V30 2237 H 207.081 4.68474 -4.58489 0
M  V30 2238 H 206.601 5.21816 -2.9575 0
M  V30 2239 H 208.28 5.4344 -3.51115 0
M  V30 2240 N 208.412 0.89855 1.29475 0
M  V30 2241 C 209.375 0.380272 2.26023 0
M  V30 2242 C 210.375 -0.484891 1.53315 0
M  V30 2243 O 211.565 -0.290108 1.71767 0
M  V30 2244 C 208.697 -0.45651 3.3783 0
M  V30 2245 H 209.89 1.23295 2.73383 0
M  V30 2246 H 207.443 0.676589 1.40897 0
M  V30 2247 H 208.178 -1.32922 2.95808 0
M  V30 2248 H 207.963 0.163393 3.91759 0
M  V30 2249 H 209.453 -0.810466 4.0966 0
M  V30 2250 N 209.89 -1.43072 0.660911 0
M  V30 2251 C 210.853 -2.29194 -0.0166406 0
M  V30 2252 C 211.853 -1.42609 -0.742912 0
M  V30 2253 O 213.043 -1.64155 -0.583004 0
M  V30 2254 C 210.175 -3.24831 -1.0343 0
M  V30 2255 H 211.368 -2.90596 0.741208 0
M  V30 2256 H 208.921 -1.5048 0.422532 0
M  V30 2257 H 209.656 -2.68339 -1.82111 0
M  V30 2258 H 209.441 -3.88676 -0.517082 0
M  V30 2259 H 210.931 -3.89451 -1.50723 0
M  V30 2260 N 211.368 -0.403325 -1.52352 0
M  V30 2261 C 212.645 0.232611 -1.94212 0
M  V30 2262 C 213.025 1.63133 -1.33981 0
M  V30 2263 O 212.373 2.22659 -0.513344 0
M  V30 2264 C 212.583 0.244811 -3.4814 0
M  V30 2265 C 213.931 0.46698 -4.22024 0
M  V30 2266 O 214.955 0.324419 -3.5472 0
M  V30 2267 O 213.814 0.74747 -5.41364 0
M  V30 2268 H 210.908 0.148223 -0.813609 0
M  V30 2269 H 213.454 -0.458848 -1.63379 0
M  V30 2270 H 212.226 -0.734378 -3.84347 0
M  V30 2271 H 211.849 0.980611 -3.85318 0
M  V30 2272 N 212.846 1.57033 -0.133567 0
M  V30 2273 C 213.756 2.19632 0.824564 0
M  V30 2274 C 214.772 1.17666 1.28182 0
M  V30 2275 O 215.948 1.50193 1.3418 0
M  V30 2276 C 213.013 2.79499 2.05137 0
M  V30 2277 C 212.074 3.96548 1.64464 0
M  V30 2278 C 211.307 4.5355 2.81297 0
M  V30 2279 O 211.53 4.09438 3.97136 0
M  V30 2280 O 210.464 5.44018 2.57542 0
M  V30 2281 H 214.29 3.01991 0.321766 0
M  V30 2282 H 211.875 1.49112 0.0927889 0
M  V30 2283 H 213.757 3.17602 2.7696 0
M  V30 2284 H 212.432 2.00162 2.54395 0
M  V30 2285 H 211.339 3.63186 0.897048 0
M  V30 2286 H 212.672 4.77364 1.19934 0
M  V30 2287 N 214.325 -0.140222 1.56975 0
M  V30 2288 C 215.55 -0.870414 1.88251 0
M  V30 2289 C 215.975 -1.73637 0.723312 0
M  V30 2290 O 215.333 -1.78329 -0.32689 0
M  V30 2291 C 215.381 -1.69737 3.18154 0
M  V30 2292 O 214.485 -2.80229 3.02565 0
M  V30 2293 H 213.826 -0.242025 0.61832 0
M  V30 2294 H 216.356 -0.128999 2.04193 0
M  V30 2295 H 216.366 -2.09099 3.50345 0
M  V30 2296 H 215.041 -1.06152 4.02125 0
M  V30 2297 H 213.618 -2.44224 2.81796 0
M  V30 2298 N 215.803 -1.52179 -0.40978 0
M  V30 2299 C 217.05 -1.66206 -1.15679 0
M  V30 2300 C 217.378 -0.391674 -1.90516 0
M  V30 2301 O 216.633 0.62533 -1.8544 0
M  V30 2302 C 216.932 -2.83428 -2.17723 0
M  V30 2303 C 216.598 -4.21672 -1.59699 0
M  V30 2304 C 215.26 -4.59274 -1.43599 0
M  V30 2305 C 217.612 -5.07825 -1.17317 0
M  V30 2306 C 214.94 -5.80709 -0.836328 0
M  V30 2307 C 217.292 -6.29864 -0.587691 0
M  V30 2308 C 215.956 -6.66216 -0.413818 0
M  V30 2309 H 215.226 -0.608192 -0.423301 0
M  V30 2310 H 217.873 -1.86279 -0.444097 0
M  V30 2311 H 216.178 -2.57687 -2.95135 0
M  V30 2312 H 217.875 -2.91477 -2.75394 0
M  V30 2313 H 214.465 -3.9204 -1.73213 0
M  V30 2314 H 218.649 -4.79359 -1.28565 0
M  V30 2315 H 213.905 -6.07498 -0.689626 0
M  V30 2316 H 218.079 -6.95948 -0.250894 0
M  V30 2317 H 215.706 -7.60182 0.0529471 0
M  V30 2318 N 217.281 0.66697 -1.42791 0
M  V30 2319 C 218.506 1.46004 -1.47301 0
M  V30 2320 C 218.931 1.87894 -0.0880317 0
M  V30 2321 O 218.289 1.56502 0.915253 0
M  V30 2322 C 218.337 2.68031 -2.41229 0
M  V30 2323 O 217.441 3.6659 -1.88906 0
M  V30 2324 H 216.782 0.43832 -0.49877 0
M  V30 2325 H 219.312 0.817391 -1.87563 0
M  V30 2326 H 219.322 3.1601 -2.58073 0
M  V30 2327 H 217.997 2.36883 -3.41847 0
M  V30 2328 H 216.574 3.25661 -1.81656 0
M  V30 2329 N 218.759 1.29093 0.90403 0
M  V30 2330 C 219.691 1.09658 2.01266 0
M  V30 2331 C 220.704 0.0453729 1.62737 0
M  V30 2332 O 221.893 0.289446 1.76138 0
M  V30 2333 C 218.993 0.646278 3.32681 0
M  V30 2334 C 218.166 1.77505 3.99763 0
M  V30 2335 C 217.225 1.31649 5.09465 0
M  V30 2336 O 216.251 2.02045 5.32134 0
M  V30 2337 N 217.453 0.184997 5.80205 0
M  V30 2338 H 220.218 2.05135 2.18494 0
M  V30 2339 H 217.779 1.20975 1.07594 0
M  V30 2340 H 219.771 0.322906 4.0341 0
M  V30 2341 H 218.341 -0.215916 3.11853 0
M  V30 2342 H 217.561 2.26752 3.22455 0
M  V30 2343 H 218.849 2.53198 4.41325 0
M  V30 2344 H 218.247 -0.402021 5.6427 0
M  V30 2345 H 216.804 -0.0790358 6.51752 0
M  V30 2346 N 220.237 -1.11381 1.11499 0
M  V30 2347 C 221.483 -1.83403 0.865512 0
M  V30 2348 C 221.816 -1.84459 -0.607329 0
M  V30 2349 O 221.091 -1.29811 -1.44842 0
M  V30 2350 C 221.374 -3.30552 1.42855 0
M  V30 2351 C 221.227 -3.37886 2.96906 0
M  V30 2352 C 222.546 -4.26643 1.08 0
M  V30 2353 H 219.665 -0.665879 0.31587 0
M  V30 2354 H 222.307 -1.30601 1.37998 0
M  V30 2355 H 220.457 -3.75648 0.990985 0
M  V30 2356 H 222.129 -3.01343 3.49271 0
M  V30 2357 H 220.372 -2.78088 3.32941 0
M  V30 2358 H 221.043 -4.41458 3.31389 0
M  V30 2359 H 223.519 -3.89729 1.45775 0
M  V30 2360 H 222.395 -5.27986 1.50072 0
M  V30 2361 H 222.656 -4.42099 -0.00915037 0
M  V30 2362 N 221.715 -0.905404 -1.28997 0
M  V30 2363 C 222.992 -0.453513 -1.9027 0
M  V30 2364 C 223.372 1.06721 -1.82137 0
M  V30 2365 O 222.72 1.91159 -1.25182 0
M  V30 2366 C 222.93 -0.974494 -3.35119 0
M  V30 2367 C 224.278 -1.0216 -4.12127 0
M  V30 2368 O 225.302 -0.922557 -3.44046 0
M  V30 2369 O 224.161 -1.17121 -5.33802 0
M  V30 2370 H 221.255 -0.142347 -0.814657 0
M  V30 2371 H 223.801 -0.995642 -1.37423 0
M  V30 2372 H 222.573 -2.01848 -3.35221 0
M  V30 2373 H 222.196 -0.412706 -3.95452 0
M  V30 2374 N 223.193 1.4272 -0.668489 0
M  V30 2375 C 224.123 2.335 -0.000100175 0
M  V30 2376 C 225.104 1.50328 0.795964 0
M  V30 2377 O 226.289 1.78949 0.754385 0
M  V30 2378 C 223.419 3.33874 0.956302 0
M  V30 2379 C 222.373 4.27152 0.269278 0
M  V30 2380 C 221.699 5.17684 1.33818 0
M  V30 2381 C 222.999 5.15373 -0.847805 0
M  V30 2382 H 224.693 2.89639 -0.758244 0
M  V30 2383 H 222.239 1.39269 -0.366079 0
M  V30 2384 H 224.192 3.9629 1.43292 0
M  V30 2385 H 222.916 2.76025 1.74579 0
M  V30 2386 H 221.575 3.66123 -0.187042 0
M  V30 2387 H 221.223 4.56165 2.1195 0
M  V30 2388 H 220.923 5.80918 0.883659 0
M  V30 2389 H 222.447 5.82974 1.81586 0
M  V30 2390 H 223.861 5.7151 -0.452681 0
M  V30 2391 H 222.258 5.87407 -1.22773 0
M  V30 2392 H 223.328 4.5415 -1.69929 0
M  V30 2393 N 224.671 0.411399 1.52136 0
M  V30 2394 C 225.919 -0.163322 2.01439 0
M  V30 2395 C 226.24 -1.45453 1.29879 0
M  V30 2396 O 225.51 -1.91225 0.4254 0
M  V30 2397 H 224.09 -0.0633447 0.744309 0
M  V30 2398 H 226.752 0.548161 1.87033 0
M  V30 2399 H 225.848 -0.357817 3.10042 0
M  V30 2400 N 226.149 -1.5696 0.141893 0
M  V30 2401 C 227.397 -1.95573 -0.509484 0
M  V30 2402 C 227.718 -1.02746 -1.65736 0
M  V30 2403 O 226.988 -0.0880311 -1.95702 0
M  V30 2404 H 225.568 -0.722115 -0.191205 0
M  V30 2405 H 228.23 -1.93697 0.216196 0
M  V30 2406 H 227.326 -2.99171 -0.889 0
M  V30 2407 N 227.627 0.131896 -1.57047 0
M  V30 2408 C 229.043 0.485031 -1.52051 0
M  V30 2409 C 229.243 1.82563 -0.85281 0
M  V30 2410 O 228.299 2.48817 -0.429694 0
M  V30 2411 C 229.612 0.481409 -2.96821 0
M  V30 2412 C 231.16 0.565868 -3.07842 0
M  V30 2413 C 231.635 0.592762 -4.54148 0
M  V30 2414 N 233.126 0.654564 -4.58552 0
M  V30 2415 C 233.861 0.696608 -5.69153 0
M  V30 2416 N 233.357 0.697078 -6.89284 0
M  V30 2417 N 235.15 0.738639 -5.57226 0
M  V30 2418 H 227.301 -0.746664 -1.98843 0
M  V30 2419 H 229.564 -0.273999 -0.90754 0
M  V30 2420 H 229.27 -0.435731 -3.4899 0
M  V30 2421 H 229.144 1.3139 -3.53577 0
M  V30 2422 H 231.531 1.47343 -2.55684 0
M  V30 2423 H 231.612 -0.29406 -2.54104 0
M  V30 2424 H 231.256 -0.310701 -5.06949 0
M  V30 2425 H 231.186 1.46939 -5.05684 0
M  V30 2426 H 233.677 0.660887 -3.72076 0
M  V30 2427 H 233.99 0.731426 -7.69331 0
M  V30 2428 H 232.335 0.66471 -6.91814 0
M  V30 2429 H 235.526 0.735545 -4.62285 0
M  V30 2430 H 235.699 0.767938 -6.43434 0
M  V30 2431 N 229.106 1.52395 0.401703 0
M  V30 2432 C 230.352 1.67065 1.14966 0
M  V30 2433 C 230.685 0.403052 1.89971 0
M  V30 2434 O 229.96 -0.598774 1.85054 0
M  V30 2435 C 230.243 2.8975 2.13815 0
M  V30 2436 C 230.096 4.26578 1.42658 0
M  V30 2437 C 231.415 3.07965 3.14397 0
M  V30 2438 H 228.534 0.607968 0.416587 0
M  V30 2439 H 231.176 1.84965 0.434511 0
M  V30 2440 H 229.326 2.74619 2.74803 0
M  V30 2441 H 230.998 4.53451 0.847329 0
M  V30 2442 H 229.241 4.27639 0.72849 0
M  V30 2443 H 229.912 5.08483 2.14823 0
M  V30 2444 H 232.388 3.22043 2.63491 0
M  V30 2445 H 231.264 3.95308 3.80819 0
M  V30 2446 H 231.525 2.21611 3.82545 0
M  V30 2447 N 230.584 -0.659388 1.43143 0
M  V30 2448 C 231.517 -1.78425 1.42267 0
M  V30 2449 C 232.495 -1.60085 0.284894 0
M  V30 2450 O 233.679 -1.82351 0.477527 0
M  V30 2451 C 230.806 -3.15642 1.22833 0
M  V30 2452 C 229.852 -3.52698 2.39806 0
M  V30 2453 S 230.685 -3.53372 4.02353 0
M  V30 2454 C 231.841 -4.93256 3.85291 0
M  V30 2455 H 232.074 -1.78897 2.37452 0
M  V30 2456 H 229.607 -0.831469 1.301 0
M  V30 2457 H 231.565 -3.94838 1.12308 0
M  V30 2458 H 230.226 -3.12739 0.29207 0
M  V30 2459 H 229.419 -4.52475 2.21996 0
M  V30 2460 H 229.021 -2.80899 2.46925 0
M  V30 2461 H 231.313 -5.81751 3.47235 0
M  V30 2462 H 232.256 -5.16115 4.84799 0
M  V30 2463 H 232.664 -4.665 3.17865 0
M  V30 2464 N 232.062 -1.29571 -0.897171 0
M  V30 2465 C 233.009 -1.14916 -2.00158 0
M  V30 2466 C 233.979 -0.0418149 -1.66047 0
M  V30 2467 O 235.164 -0.209793 -1.89643 0
M  V30 2468 C 232.304 -0.834307 -3.34863 0
M  V30 2469 C 231.417 -2.02234 -3.8174 0
M  V30 2470 C 230.552 -1.64664 -5.05034 0
M  V30 2471 C 229.591 -2.80033 -5.44286 0
M  V30 2472 N 228.728 -2.42843 -6.58765 0
M  V30 2473 H 233.568 -2.09403 -2.12025 0
M  V30 2474 H 231.105 -1.042 -1.0383 0
M  V30 2475 H 233.063 -0.632436 -4.12379 0
M  V30 2476 H 231.693 0.0736656 -3.22716 0
M  V30 2477 H 230.745 -2.33583 -3.00238 0
M  V30 2478 H 232.057 -2.88673 -4.06779 0
M  V30 2479 H 231.211 -1.4078 -5.9014 0
M  V30 2480 H 229.95 -0.753766 -4.8184 0
M  V30 2481 H 228.955 -3.04596 -4.57713 0
M  V30 2482 H 230.18 -3.69989 -5.6946 0
M  V30 2483 H 228.126 -1.56046 -6.3717 0
M  V30 2484 H 228.043 -3.22815 -6.83613 0
M  V30 2485 H 229.311 -2.22285 -7.47134 0
M  V30 2486 N 233.54 1.10788 -1.12088 0
M  V30 2487 C 234.789 1.82036 -0.868659 0
M  V30 2488 C 235.102 1.85929 0.607426 0
M  V30 2489 O 236.308 2.53346 0.97613 0
M  V30 2490 C 234.764 3.26951 -1.50435 0
M  V30 2491 C 234.372 3.31367 -3.01496 0
M  V30 2492 C 236.116 4.03053 -1.33225 0
M  V30 2493 C 234.023 4.7072 -3.58017 0
M  V30 2494 H 232.953 0.682108 -0.321318 0
M  V30 2495 H 235.604 1.24618 -1.34694 0
M  V30 2496 H 233.986 3.84343 -0.953735 0
M  V30 2497 H 235.16 2.83819 -3.6302 0
M  V30 2498 H 233.475 2.6875 -3.18061 0
M  V30 2499 H 236.072 5.05981 -1.72878 0
M  V30 2500 H 236.415 4.15387 -0.275529 0
M  V30 2501 H 236.948 3.52066 -1.85188 0
M  V30 2502 H 233.687 4.63585 -4.63432 0
M  V30 2503 H 233.207 5.1865 -3.01268 0
M  V30 2504 H 234.886 5.39685 -3.56859 0
M  V30 2505 N 235.018 0.912232 1.28515 0
M  V30 2506 C 235.966 0.389597 2.29314 0
M  V30 2507 C 236.96 -0.517915 1.61289 0
M  V30 2508 O 238.166 -0.399328 1.75515 0
M  V30 2509 H 234.541 0.107386 0.744293 0
M  V30 2510 H 236.512 1.25286 2.70825 0
M  V30 2511 C 235.261 -0.356496 3.45868 0
M  V30 2512 H 234.584 0.332608 3.98414 0
M  V30 2513 H 236.024 -0.686851 4.184 0
M  V30 2514 C 234.483 -1.56383 2.98406 0
M  V30 2515 O 235.013 -2.66294 3.00749 0
M  V30 2516 N 233.219 -1.41029 2.54085 0
M  V30 2517 H 232.766 -0.516089 2.52377 0
M  V30 2518 H 232.724 -2.21939 2.22689 0
M  V30 2519 N 236.496 -1.42363 0.676048 0
M  V30 2520 C 237.724 -2.05859 0.207268 0
M  V30 2521 C 238.139 -1.50796 -1.13605 0
M  V30 2522 O 237.496 -0.648265 -1.70598 0
M  V30 2523 C 237.547 -3.61248 0.134975 0
M  V30 2524 O 237.268 -4.1427 1.42521 0
M  V30 2525 C 238.769 -4.41859 -0.357151 0
M  V30 2526 H 235.989 -0.663431 0.100503 0
M  V30 2527 H 238.533 -1.82479 0.923136 0
M  V30 2528 H 236.688 -3.83735 -0.531588 0
M  V30 2529 H 237.102 -5.0815 1.29939 0
M  V30 2530 H 238.576 -5.50847 -0.356641 0
M  V30 2531 H 239.053 -4.16536 -1.39264 0
M  V30 2532 H 239.659 -4.24392 0.27772 0
M  V30 2533 N 237.974 -0.419461 -1.51915 0
M  V30 2534 C 238.884 0.407528 -2.31033 0
M  V30 2535 C 239.9 1.04413 -1.3919 0
M  V30 2536 O 241.076 1.0434 -1.72265 0
M  V30 2537 C 238.141 1.50365 -3.12396 0
M  V30 2538 C 237.202 0.889029 -4.19994 0
M  V30 2539 C 236.435 1.93291 -4.97468 0
M  V30 2540 O 236.658 3.15259 -4.75361 0
M  V30 2541 O 235.592 1.53339 -5.8204 0
M  V30 2542 H 239.418 -0.237865 -3.02767 0
M  V30 2543 H 237.003 -0.182413 -1.48282 0
M  V30 2544 H 238.885 2.13975 -3.63032 0
M  V30 2545 H 237.56 2.13345 -2.43445 0
M  V30 2546 H 236.467 0.215353 -3.7348 0
M  V30 2547 H 237.8 0.302991 -4.91267 0
M  V30 2548 N 239.452 1.56882 -0.150215 0
M  V30 2549 C 240.698 1.96518 0.500834 0
M  V30 2550 C 241.031 1.03527 1.64304 0
M  V30 2551 O 240.306 0.0782751 1.94342 0
M  V30 2552 C 240.589 3.45822 1.00395 0
M  V30 2553 C 240.442 4.49591 -0.136983 0
M  V30 2554 C 241.761 3.97704 1.88467 0
M  V30 2555 H 238.88 0.714535 0.18058 0
M  V30 2556 H 241.522 1.88577 -0.232091 0
M  V30 2557 H 239.672 3.5272 1.62851 0
M  V30 2558 H 241.344 4.5477 -0.77343 0
M  V30 2559 H 239.587 4.26441 -0.795652 0
M  V30 2560 H 240.258 5.51402 0.256815 0
M  V30 2561 H 242.734 3.93304 1.35834 0
M  V30 2562 H 241.61 5.0263 2.20578 0
M  V30 2563 H 241.871 3.40252 2.82279 0
M  V30 2564 N 240.93 -0.123565 1.57115 0
M  V30 2565 C 242.346 -0.476961 1.52306 0
M  V30 2566 C 242.546 -1.82109 0.86248 0
M  V30 2567 O 241.602 -2.48586 0.442884 0
M  V30 2568 C 242.915 -0.465661 2.97073 0
M  V30 2569 C 244.463 -0.549534 3.08138 0
M  V30 2570 C 244.938 -0.568669 4.54456 0
M  V30 2571 N 246.429 -0.630237 4.58892 0
M  V30 2572 C 247.164 -0.666415 5.69514 0
M  V30 2573 N 246.66 -0.660514 6.89644 0
M  V30 2574 N 248.453 -0.709077 5.5761 0
M  V30 2575 H 240.604 0.757198 1.98445 0
M  V30 2576 H 242.867 0.278808 0.906074 0
M  V30 2577 H 242.573 0.454232 3.48754 0
M  V30 2578 H 242.447 -1.29513 3.54269 0
M  V30 2579 H 244.834 -1.45985 2.56461 0
M  V30 2580 H 244.915 0.307532 2.53945 0
M  V30 2581 H 244.559 0.337581 5.06777 0
M  V30 2582 H 244.489 -1.44256 5.06456 0
M  V30 2583 H 246.98 -0.641146 3.72421 0
M  V30 2584 H 247.293 -0.690616 7.69708 0
M  V30 2585 H 245.638 -0.628012 6.92157 0
M  V30 2586 H 248.829 -0.711019 4.62668 0
M  V30 2587 H 249.002 -0.733804 6.43832 0
M  V30 2588 N 242.408 -1.52605 -0.393616 0
M  V30 2589 C 243.633 -1.71592 -1.16495 0
M  V30 2590 C 244.058 -0.43133 -1.83088 0
M  V30 2591 O 243.416 0.612523 -1.7064 0
M  V30 2592 C 243.464 -2.86318 -2.19213 0
M  V30 2593 O 242.568 -2.52969 -3.257 0
M  V30 2594 H 241.909 -0.570734 -0.33935 0
M  V30 2595 H 244.439 -1.99377 -0.459324 0
M  V30 2596 H 244.449 -3.1168 -2.63286 0
M  V30 2597 H 243.124 -3.79511 -1.7013 0
M  V30 2598 H 241.701 -2.38332 -2.86797 0
M  V30 2599 N 243.887 0.651787 -1.4349 0
M  V30 2600 C 245.134 1.41167 -1.45183 0
M  V30 2601 C 245.462 1.94349 -0.0766601 0
M  V30 2602 O 244.717 1.72804 0.918555 0
M  V30 2603 C 245.016 2.60914 -2.44251 0
M  V30 2604 C 244.682 2.26142 -3.9009 0
M  V30 2605 C 243.344 2.16371 -4.2981 0
M  V30 2606 C 245.696 1.98334 -4.81989 0
M  V30 2607 C 243.024 1.7695 -5.5938 0
M  V30 2608 C 245.376 1.6041 -6.11924 0
M  V30 2609 C 244.04 1.49166 -6.5062 0
M  V30 2610 H 243.31 0.516566 -0.531263 0
M  V30 2611 H 245.957 0.741099 -1.76579 0
M  V30 2612 H 244.262 3.3311 -2.06265 0
M  V30 2613 H 245.959 3.19127 -2.42815 0
M  V30 2614 H 242.549 2.34658 -3.58655 0
M  V30 2615 H 246.733 2.04803 -4.52072 0
M  V30 2616 H 241.989 1.66831 -5.88198 0
M  V30 2617 H 246.163 1.37925 -6.82605 0
M  V30 2618 H 243.79 1.1839 -7.50925 0
M  V30 2619 N 245.365 1.30045 0.890287 0
M  V30 2620 C 246.613 1.18327 1.63839 0
M  V30 2621 C 246.934 -0.263455 1.93212 0
M  V30 2622 O 246.204 -1.17856 1.56482 0
M  V30 2623 H 244.784 0.434933 0.607324 0
M  V30 2624 H 247.446 1.631 1.06698 0
M  V30 2625 H 246.542 1.74024 2.59079 0
M  V30 2626 N 246.843 -1.10192 1.12674 0
M  V30 2627 C 248.254 -1.63707 0.897604 0
M  V30 2628 C 248.605 -1.87812 -0.567546 0
M  V30 2629 O 247.73 -1.62196 -1.43253 0
M  V30 2630 C 248.325 -2.974 1.62292 0
M  V30 2631 C 246.884 -3.47772 1.43986 0
M  V30 2632 C 246.031 -2.22332 1.65722 0
M  V30 2633 H 248.982 -0.936587 1.28116 0
M  V30 2634 H 249.003 -3.64986 1.07541 0
M  V30 2635 H 248.515 -2.79824 2.68924 0
M  V30 2636 H 246.616 -3.70487 0.396206 0
M  V30 2637 H 246.729 -4.25723 2.19765 0
M  V30 2638 H 245.093 -2.30599 1.08149 0
M  V30 2639 H 245.876 -2.07285 2.73657 0
M  V30 2640 N 248.321 -0.919034 -1.28029 0
M  V30 2641 C 249.567 -0.555757 -1.95036 0
M  V30 2642 C 249.9 0.899198 -1.72128 0
M  V30 2643 O 249.175 1.64023 -1.04531 0
M  V30 2644 C 249.458 -0.872024 -3.49382 0
M  V30 2645 C 249.311 -2.3801 -3.81669 0
M  V30 2646 C 250.63 -0.37185 -4.38526 0
M  V30 2647 H 247.749 -0.203386 -0.708381 0
M  V30 2648 H 250.391 -1.14924 -1.51303 0
M  V30 2649 H 248.541 -0.366946 -3.86763 0
M  V30 2650 H 250.213 -2.9562 -3.54128 0
M  V30 2651 H 248.456 -2.83289 -3.28526 0
M  V30 2652 H 249.127 -2.55192 -4.8947 0
M  V30 2653 H 251.603 -0.804602 -4.08247 0
M  V30 2654 H 250.479 -0.622173 -5.45362 0
M  V30 2655 H 250.74 0.727934 -4.36066 0
M  V30 2656 N 249.799 1.42003 -0.683588 0
M  V30 2657 C 251.024 2.06265 -0.216647 0
M  V30 2658 C 251.449 1.51059 1.12083 0
M  V30 2659 O 250.807 0.632638 1.69904 0
M  V30 2660 C 250.855 3.60191 -0.171759 0
M  V30 2661 O 249.959 4.03396 0.857069 0
M  V30 2662 H 249.3 0.65502 -0.108834 0
M  V30 2663 H 251.83 1.81982 -0.935077 0
M  V30 2664 H 251.84 4.08 0.0014303 0
M  V30 2665 H 250.515 3.99743 -1.14796 0
M  V30 2666 H 249.092 3.67117 0.654208 0
M  V30 2667 N 251.277 0.427512 1.51691 0
M  V30 2668 C 252.693 0.0792977 1.59403 0
M  V30 2669 C 252.893 -1.41035 1.43914 0
M  V30 2670 O 251.949 -2.17922 1.27539 0
M  V30 2671 C 253.262 0.590636 2.94842 0
M  V30 2672 C 254.81 0.550215 3.08126 0
M  V30 2673 C 255.285 1.03836 4.46074 0
M  V30 2674 N 256.776 0.995943 4.52366 0
M  V30 2675 C 257.511 1.34463 5.57411 0
M  V30 2676 N 257.007 1.76569 6.69922 0
M  V30 2677 N 258.8 1.26343 5.47717 0
M  V30 2678 H 250.951 1.39687 1.60004 0
M  V30 2679 H 253.214 0.575003 0.753708 0
M  V30 2680 H 252.92 1.63251 3.11516 0
M  V30 2681 H 252.794 0.0102061 3.77199 0
M  V30 2682 H 255.181 -0.482654 2.91126 0
M  V30 2683 H 255.262 1.16693 2.27632 0
M  V30 2684 H 254.906 2.06965 4.63819 0
M  V30 2685 H 254.836 0.398286 5.25092 0
M  V30 2686 H 257.327 0.68661 3.7161 0
M  V30 2687 H 257.64 2.01438 7.46085 0
M  V30 2688 H 255.985 1.80488 6.71155 0
M  V30 2689 H 259.176 0.933209 4.58703 0
M  V30 2690 H 259.349 1.53846 6.29472 0
M  V30 2691 N 252.755 -1.56801 0.158532 0
M  V30 2692 C 253.98 -2.01295 -0.499516 0
M  V30 2693 C 254.405 -1.03799 -1.56867 0
M  V30 2694 O 253.763 -0.0155162 -1.81293 0
M  V30 2695 C 253.811 -3.44469 -1.06647 0
M  V30 2696 O 252.915 -3.50012 -2.18095 0
M  V30 2697 H 252.256 -0.652884 -0.12099 0
M  V30 2698 H 254.786 -2.02958 0.258661 0
M  V30 2699 H 254.796 -3.8351 -1.39227 0
M  V30 2700 H 253.471 -4.14932 -0.283581 0
M  V30 2701 H 252.048 -3.22822 -1.86656 0
M  V30 2702 N 254.233 0.115231 -1.57178 0
M  V30 2703 C 255.481 0.820727 -1.84685 0
M  V30 2704 C 255.802 1.80237 -0.744279 0
M  V30 2705 O 255.072 1.94529 0.231375 0
M  V30 2706 H 253.652 0.306084 -0.681411 0
M  V30 2707 H 256.314 0.101656 -1.94635 0
M  V30 2708 H 255.41 1.36366 -2.80733 0
M  V30 2709 N 255.711 1.52812 0.385517 0
M  V30 2710 C 256.958 1.68026 1.1302 0
M  V30 2711 C 257.286 0.421934 1.89868 0
M  V30 2712 O 256.541 -0.595749 1.86412 0
M  V30 2713 C 256.84 2.86856 2.13187 0
M  V30 2714 C 256.506 4.24159 1.5297 0
M  V30 2715 C 255.168 4.61501 1.36274 0
M  V30 2716 C 257.52 5.09627 1.09223 0
M  V30 2717 C 254.848 5.81966 0.743837 0
M  V30 2718 C 257.2 6.30719 0.487411 0
M  V30 2719 C 255.864 6.6679 0.307777 0
M  V30 2720 H 255.134 0.614849 0.413571 0
M  V30 2721 H 257.781 1.86962 0.414405 0
M  V30 2722 H 256.086 2.6235 2.90998 0
M  V30 2723 H 257.783 2.95821 2.70722 0
M  V30 2724 H 254.373 3.94746 1.66954 0
M  V30 2725 H 258.557 4.81343 1.20922 0
M  V30 2726 H 253.813 6.08519 0.592891 0
M  V30 2727 H 257.987 6.96259 0.140143 0
M  V30 2728 H 255.614 7.60001 -0.173879 0
M  V30 2729 N 257.189 -0.644168 1.43834 0
M  V30 2730 C 258.419 -1.42939 1.49171 0
M  V30 2731 C 258.827 -1.88874 0.111048 0
M  V30 2732 O 258.17 -1.60656 -0.8908 0
M  V30 2733 C 258.232 -2.69151 2.38324 0
M  V30 2734 C 257.896 -2.45097 3.85715 0
M  V30 2735 C 258.893 -2.07747 4.76589 0
M  V30 2736 C 256.578 -2.59141 4.30292 0
M  V30 2737 C 258.572 -1.8475 6.10038 0
M  V30 2738 C 256.259 -2.35759 5.63792 0
M  V30 2739 C 257.257 -1.9862 6.53482 0
M  V30 2740 O 256.945 -1.75489 7.84512 0
M  V30 2741 H 256.677 -0.445271 0.508635 0
M  V30 2742 H 259.231 -0.79621 1.8934 0
M  V30 2743 H 257.461 -3.3506 1.93058 0
M  V30 2744 H 259.15 -3.31123 2.3476 0
M  V30 2745 H 259.916 -1.96465 4.43426 0
M  V30 2746 H 255.795 -2.87022 3.60749 0
M  V30 2747 H 259.339 -1.55686 6.80006 0
M  V30 2748 H 255.236 -2.46646 5.9652 0
M  V30 2749 H 256.004 -1.89841 7.9618 0
M  V30 2750 N 258.668 -1.30515 -0.883378 0
M  V30 2751 C 259.598 -1.19607 -2.00541 0
M  V30 2752 C 260.579 -0.086346 -1.69881 0
M  V30 2753 O 261.764 -0.268654 -1.92333 0
M  V30 2754 C 258.894 -0.888758 -3.35736 0
M  V30 2755 C 257.848 -1.95659 -3.8066 0
M  V30 2756 C 257.174 -1.50224 -5.13164 0
M  V30 2757 C 258.474 -3.36788 -3.99213 0
M  V30 2758 H 260.168 -2.13476 -2.09925 0
M  V30 2759 H 257.714 -1.02775 -1.00863 0
M  V30 2760 H 259.667 -0.799094 -4.13754 0
M  V30 2761 H 258.391 0.0856125 -3.26488 0
M  V30 2762 H 257.05 -2.03591 -3.04871 0
M  V30 2763 H 256.698 -0.516092 -5.00345 0
M  V30 2764 H 256.398 -2.2165 -5.44192 0
M  V30 2765 H 257.922 -1.42639 -5.93706 0
M  V30 2766 H 259.336 -3.31605 -4.67665 0
M  V30 2767 H 257.733 -4.06314 -4.41621 0
M  V30 2768 H 258.803 -3.78561 -3.03017 0
M  V30 2769 N 260.146 1.09593 -1.13257 0
M  V30 2770 C 261.109 2.14359 -0.811358 0
M  V30 2771 C 262.109 1.59808 0.178377 0
M  V30 2772 O 263.299 1.74132 -0.0484911 0
M  V30 2773 C 260.431 3.40269 -0.207276 0
M  V30 2774 H 261.624 2.44284 -1.73969 0
M  V30 2775 H 259.177 1.25102 -0.936973 0
M  V30 2776 H 259.912 3.15969 0.73036 0
M  V30 2777 H 259.697 3.81154 -0.919992 0
M  V30 2778 H 261.187 4.176 0.000667944 0
M  V30 2779 N 261.624 0.925811 1.2754 0
M  V30 2780 C 262.871 0.565255 1.94451 0
M  V30 2781 C 263.199 -0.89316 1.7278 0
M  V30 2782 O 262.454 -1.65213 1.04895 0
M  V30 2783 C 262.753 0.835296 3.47502 0
M  V30 2784 C 262.419 2.27515 3.89291 0
M  V30 2785 C 261.081 2.66879 4.00411 0
M  V30 2786 C 263.433 3.21158 4.10496 0
M  V30 2787 C 260.761 3.99014 4.30122 0
M  V30 2788 C 263.113 4.52871 4.4169 0
M  V30 2789 C 261.777 4.92072 4.51023 0
M  V30 2790 H 261.047 0.206841 0.711546 0
M  V30 2791 H 263.694 1.16942 1.51647 0
M  V30 2792 H 261.999 0.148442 3.91519 0
M  V30 2793 H 263.696 0.535322 3.97411 0
M  V30 2794 H 260.286 1.95976 3.81171 0
M  V30 2795 H 264.47 2.9195 4.01346 0
M  V30 2796 H 259.726 4.2907 4.35556 0
M  V30 2797 H 263.9 5.25436 4.57045 0
M  V30 2798 H 261.527 5.9449 4.738 0
M  V30 2799 N 263.102 -1.41638 0.69111 0
M  V30 2800 C 264.034 -2.29194 -0.0161523 0
M  V30 2801 C 265.047 -1.44549 -0.748955 0
M  V30 2802 O 266.236 -1.681 -0.6004 0
M  V30 2803 C 263.336 -3.22325 -1.0469 0
M  V30 2804 C 262.509 -4.35706 -0.384621 0
M  V30 2805 C 261.568 -5.09443 -1.31737 0
M  V30 2806 O 260.594 -5.63386 -0.811451 0
M  V30 2807 N 261.796 -5.16487 -2.64993 0
M  V30 2808 H 264.561 -2.90534 0.735523 0
M  V30 2809 H 262.122 -1.52742 0.53679 0
M  V30 2810 H 264.114 -3.68522 -1.67252 0
M  V30 2811 H 262.684 -2.62323 -1.70015 0
M  V30 2812 H 261.904 -3.91948 0.420804 0
M  V30 2813 H 263.192 -5.08743 0.0760765 0
M  V30 2814 H 262.59 -4.741 -3.08619 0
M  V30 2815 H 261.147 -5.66276 -3.22761 0
M  V30 2816 N 264.58 -0.43555 -1.51462 0
M  V30 2817 C 265.857 0.191364 -1.94662 0
M  V30 2818 C 266.237 1.60254 -1.37411 0
M  V30 2819 O 265.585 2.2152 -0.560458 0
M  V30 2820 C 265.795 0.17091 -3.48581 0
M  V30 2821 C 267.143 0.377357 -4.2292 0
M  V30 2822 O 268.167 0.249104 -3.55328 0
M  V30 2823 O 267.026 0.63247 -5.42828 0
M  V30 2824 H 264.12 0.130932 -0.816569 0
M  V30 2825 H 266.666 -0.4934 -1.62369 0
M  V30 2826 H 265.438 -0.815738 -3.82703 0
M  V30 2827 H 265.061 0.898659 -3.87311 0
M  V30 2828 N 266.058 1.56714 -0.166846 0
M  V30 2829 C 267.288 2.00828 0.48494 0
M  V30 2830 C 267.696 1.04612 1.57648 0
M  V30 2831 O 267.039 0.0383201 1.8366 0
M  V30 2832 C 267.101 3.4137 1.12723 0
M  V30 2833 C 266.765 4.56654 0.177886 0
M  V30 2834 C 267.762 5.16402 -0.60207 0
M  V30 2835 C 265.447 5.02244 0.0750139 0
M  V30 2836 C 267.441 6.20167 -1.47215 0
M  V30 2837 C 265.128 6.05859 -0.798649 0
M  V30 2838 C 266.126 6.64691 -1.57082 0
M  V30 2839 O 265.814 7.66297 -2.42989 0
M  V30 2840 H 265.546 0.663587 0.128953 0
M  V30 2841 H 268.1 2.03692 -0.264365 0
M  V30 2842 H 266.33 3.35406 1.92457 0
M  V30 2843 H 268.019 3.69466 1.68076 0
M  V30 2844 H 268.785 4.82065 -0.53274 0
M  V30 2845 H 264.664 4.56167 0.665812 0
M  V30 2846 H 268.208 6.66016 -2.07531 0
M  V30 2847 H 264.105 6.39621 -0.869199 0
M  V30 2848 H 264.873 7.83601 -2.36455 0
M  V30 2849 N 267.536 -0.106894 1.57237 0
M  V30 2850 C 268.784 -0.810921 1.85117 0
M  V30 2851 C 269.105 -1.7984 0.753827 0
M  V30 2852 O 268.375 -1.94649 -0.221056 0
M  V30 2853 H 266.955 -0.302466 0.683025 0
M  V30 2854 H 269.617 -0.0913324 1.94686 0
M  V30 2855 H 268.713 -1.34875 2.81452 0
M  V30 2856 N 269.014 -1.53014 -0.377408 0
M  V30 2857 C 270.262 -1.6829 -1.11906 0
M  V30 2858 C 270.583 -0.431206 -1.90173 0
M  V30 2859 O 269.853 0.554595 -1.87886 0
M  V30 2860 H 268.433 -0.620371 -0.416112 0
M  V30 2861 H 271.095 -1.90167 -0.426893 0
M  V30 2862 H 270.191 -2.53862 -1.8155 0
M  V30 2863 N 270.492 0.636531 -1.44174 0
M  V30 2864 C 271.732 1.40781 -1.48189 0
M  V30 2865 C 272.096 1.91688 -0.10944 0
M  V30 2866 O 273.297 2.68789 -0.0242741 0
M  V30 2867 C 271.568 2.54575 -2.50851 0
M  V30 2868 S 273.127 3.4284 -2.73873 0
M  V30 2869 H 269.945 0.480345 -0.524204 0
M  V30 2870 H 272.547 0.737416 -1.81059 0
M  V30 2871 H 271.251 2.15478 -3.49281 0
M  V30 2872 H 270.782 3.26447 -2.19536 0
M  V30 2873 H 272.797 4.51846 -2.05059 0
M  V30 2874 N 271.97 1.30982 0.876444 0
M  V30 2875 C 272.903 1.12414 1.98591 0
M  V30 2876 C 273.881 0.0294078 1.62573 0
M  V30 2877 O 275.065 0.184598 1.87594 0
M  V30 2878 C 272.192 0.716276 3.3104 0
M  V30 2879 C 271.238 1.81311 3.86042 0
M  V30 2880 S 272.071 3.41727 4.1229 0
M  V30 2881 C 273.227 3.02863 5.47745 0
M  V30 2882 H 273.46 2.06338 2.14037 0
M  V30 2883 H 270.993 1.15393 1.02586 0
M  V30 2884 H 272.951 0.487697 4.07593 0
M  V30 2885 H 271.612 -0.203749 3.13438 0
M  V30 2886 H 270.805 1.48021 4.81774 0
M  V30 2887 H 270.407 1.99641 3.16259 0
M  V30 2888 H 272.699 2.51353 6.29148 0
M  V30 2889 H 273.642 3.97533 5.8598 0
M  V30 2890 H 274.05 2.40487 5.10711 0
M  V30 2891 N 273.449 -1.08991 1.13837 0
M  V30 2892 C 274.674 -1.85551 0.926585 0
M  V30 2893 C 275.099 -1.80782 -0.519566 0
M  V30 2894 O 274.457 -1.18855 -1.36906 0
M  V30 2895 C 274.505 -3.31266 1.42462 0
M  V30 2896 O 273.609 -4.07822 0.612789 0
M  V30 2897 H 272.95 -0.575192 0.331738 0
M  V30 2898 H 275.48 -1.37604 1.51414 0
M  V30 2899 H 275.49 -3.82112 1.43019 0
M  V30 2900 H 274.165 -3.34052 2.47754 0
M  V30 2901 H 272.742 -3.66731 0.675463 0
M  V30 2902 N 274.927 -0.932562 -1.27047 0
M  V30 2903 C 275.857 -0.452902 -2.29066 0
M  V30 2904 C 276.838 0.489338 -1.62909 0
M  V30 2905 O 278.023 0.393046 -1.90181 0
M  V30 2906 C 275.153 0.290698 -3.46081 0
M  V30 2907 C 274.107 -0.564168 -4.24265 0
M  V30 2908 C 273.433 0.308886 -5.33807 0
M  V30 2909 C 274.733 -1.83112 -4.89149 0
M  V30 2910 H 276.427 -1.30552 -2.69437 0
M  V30 2911 H 273.973 -0.629201 -1.29526 0
M  V30 2912 H 275.926 0.637233 -4.16554 0
M  V30 2913 H 274.65 1.17738 -3.0464 0
M  V30 2914 H 273.309 -0.893477 -3.55545 0
M  V30 2915 H 272.957 1.19467 -4.88607 0
M  V30 2916 H 272.657 -0.259633 -5.87026 0
M  V30 2917 H 274.181 0.650884 -6.07121 0
M  V30 2918 H 275.595 -1.55236 -5.51883 0
M  V30 2919 H 273.992 -2.34353 -5.52448 0
M  V30 2920 H 275.062 -2.54772 -4.12576 0
M  V30 2921 N 276.405 1.4127 -0.698611 0
M  V30 2922 C 277.654 2.00408 -0.227949 0
M  V30 2923 C 277.967 1.55981 1.18023 0
M  V30 2924 O 279.173 2.07699 1.74852 0
M  V30 2925 C 277.629 3.58129 -0.356636 0
M  V30 2926 C 277.237 4.11536 -1.77037 0
M  V30 2927 C 278.981 4.24466 0.0540969 0
M  V30 2928 C 276.888 5.61701 -1.85055 0
M  V30 2929 H 275.818 0.749586 -0.0814657 0
M  V30 2930 H 278.469 1.61713 -0.867249 0
M  V30 2931 H 276.851 3.94442 0.350965 0
M  V30 2932 H 278.025 3.86636 -2.50698 0
M  V30 2933 H 276.34 3.57736 -2.13105 0
M  V30 2934 H 278.937 5.34698 0.0146723 0
M  V30 2935 H 279.28 4.01687 1.09332 0
M  V30 2936 H 279.813 3.93198 -0.603337 0
M  V30 2937 H 276.552 5.89312 -2.8704 0
M  V30 2938 H 276.072 5.88519 -1.15783 0
M  V30 2939 H 277.751 6.26524 -1.61484 0
M  V30 2940 N 277.883 0.443576 1.51229 0
M  V30 2941 C 278.846 -0.353132 2.26463 0
M  V30 2942 C 279.846 -0.944338 1.3015 0
M  V30 2943 O 281.036 -0.817813 1.5381 0
M  V30 2944 C 278.168 -1.50023 3.06114 0
M  V30 2945 H 279.361 0.3063 2.98332 0
M  V30 2946 H 276.914 0.196902 1.55055 0
M  V30 2947 H 277.649 -2.19553 2.38677 0
M  V30 2948 H 277.434 -1.08241 3.76864 0
M  V30 2949 H 278.924 -2.06296 3.63087 0
M  V30 2950 N 279.361 -1.56624 0.175154 0
M  V30 2951 C 280.607 -1.9729 -0.469506 0
M  V30 2952 C 280.94 -1.06128 -1.62636 0
M  V30 2953 O 280.215 -0.109183 -1.94193 0
M  V30 2954 C 280.498 -3.47375 -0.948804 0
M  V30 2955 C 280.351 -4.49317 0.208491 0
M  V30 2956 C 281.67 -4.00652 -1.82116 0
M  V30 2957 H 278.789 -0.717317 -0.16919 0
M  V30 2958 H 281.431 -1.88184 0.262062 0
M  V30 2959 H 279.581 -3.55267 -1.57219 0
M  V30 2960 H 281.253 -4.53482 0.845682 0
M  V30 2961 H 279.496 -4.25121 0.863395 0
M  V30 2962 H 280.167 -5.51741 -0.169059 0
M  V30 2963 H 282.643 -3.95416 -1.2956 0
M  V30 2964 H 281.519 -5.06075 -2.12554 0
M  V30 2965 H 281.78 -3.44699 -2.7683 0
M  V30 2966 N 280.839 0.0985539 -1.57292 0
M  V30 2967 C 282.255 0.45267 -1.53046 0
M  V30 2968 C 282.455 1.80713 -0.891342 0
M  V30 2969 O 281.511 2.4785 -0.482375 0
M  V30 2970 C 282.824 0.418341 -2.97776 0
M  V30 2971 C 284.372 0.500443 -3.08973 0
M  V30 2972 C 284.847 0.496297 -4.55303 0
M  V30 2973 N 286.338 0.557151 -4.59837 0
M  V30 2974 C 287.073 0.575726 -5.70502 0
M  V30 2975 N 286.569 0.550714 -6.90608 0
M  V30 2976 N 288.362 0.620277 -5.58667 0
M  V30 2977 H 280.513 -0.788673 -1.97215 0
M  V30 2978 H 282.776 -0.293188 -0.901524 0
M  V30 2979 H 282.482 -0.509659 -3.47988 0
M  V30 2980 H 282.356 1.2386 -3.56284 0
M  V30 2981 H 284.743 1.41886 -2.58751 0
M  V30 2982 H 284.824 -0.347894 -2.53423 0
M  V30 2983 H 284.468 -0.418162 -5.06176 0
M  V30 2984 H 284.398 1.3618 -5.08687 0
M  V30 2985 H 286.889 0.581816 -3.73394 0
M  V30 2986 H 287.202 0.568075 -7.70709 0
M  V30 2987 H 285.547 0.517816 -6.93068 0
M  V30 2988 H 288.738 0.637322 -4.63741 0
M  V30 2989 H 288.911 0.631283 -6.44918 0
M  V30 2990 N 282.317 1.53212 0.369288 0
M  V30 2991 C 283.563 1.69466 1.11397 0
M  V30 2992 C 283.896 0.443257 1.89074 0
M  V30 2993 O 283.171 -0.559386 1.86282 0
M  V30 2994 C 283.454 2.9422 2.07621 0
M  V30 2995 C 283.307 4.29508 1.33577 0
M  V30 2996 C 284.626 3.14565 3.07794 0
M  V30 2997 H 281.745 0.616667 0.403597 0
M  V30 2998 H 284.387 1.85845 0.395179 0
M  V30 2999 H 282.537 2.80387 2.68916 0
M  V30 3000 H 284.209 4.55147 0.750955 0
M  V30 3001 H 282.452 4.29088 0.637618 0
M  V30 3002 H 283.123 5.12926 2.03989 0
M  V30 3003 H 285.599 3.2756 2.56601 0
M  V30 3004 H 284.475 4.03297 3.72348 0
M  V30 3005 H 284.736 2.29675 3.77759 0
M  V30 3006 N 283.795 -0.628877 1.44509 0
M  V30 3007 C 285.042 -1.38839 1.47411 0
M  V30 3008 C 285.37 -1.94202 0.10757 0
M  V30 3009 O 284.625 -1.74243 -0.890947 0
M  V30 3010 C 284.924 -2.56995 2.48371 0
M  V30 3011 C 284.59 -2.19908 3.93639 0
M  V30 3012 C 283.252 -2.09506 4.33198 0
M  V30 3013 C 285.604 -1.9064 4.85083 0
M  V30 3014 C 282.932 -1.68028 5.62124 0
M  V30 3015 C 285.284 -1.50655 6.14399 0
M  V30 3016 C 283.948 -1.38796 6.5291 0
M  V30 3017 H 283.218 -0.508048 0.539414 0
M  V30 3018 H 285.865 -0.712913 1.77735 0
M  V30 3019 H 284.17 -3.29786 2.11538 0
M  V30 3020 H 285.867 -3.15223 2.47861 0
M  V30 3021 H 282.457 -2.28922 3.62343 0
M  V30 3022 H 286.641 -1.97585 4.55273 0
M  V30 3023 H 281.897 -1.57452 5.90778 0
M  V30 3024 H 286.071 -1.27048 6.84713 0
M  V30 3025 H 283.698 -1.06429 7.52713 0
M  V30 3026 N 285.273 -1.31445 -0.869486 0
M  V30 3027 C 286.503 -1.23942 -1.65294 0
M  V30 3028 C 286.911 0.197561 -1.88166 0
M  V30 3029 O 286.254 1.14019 -1.44033 0
M  V30 3030 C 286.316 -1.91385 -3.04322 0
M  V30 3031 C 285.98 -3.40726 -3.04557 0
M  V30 3032 C 286.977 -4.36464 -2.82481 0
M  V30 3033 C 284.662 -3.82425 -3.25663 0
M  V30 3034 C 286.656 -5.71876 -2.8149 0
M  V30 3035 C 284.343 -5.1795 -3.243 0
M  V30 3036 C 285.341 -6.12486 -3.02241 0
M  V30 3037 O 285.029 -7.45534 -3.00724 0
M  V30 3038 H 284.761 -0.429459 -0.522054 0
M  V30 3039 H 287.315 -1.73873 -1.0935 0
M  V30 3040 H 285.545 -1.36004 -3.61994 0
M  V30 3041 H 287.234 -1.77791 -3.64891 0
M  V30 3042 H 288 -4.05576 -2.65956 0
M  V30 3043 H 283.879 -3.09274 -3.41863 0
M  V30 3044 H 287.423 -6.45638 -2.64191 0
M  V30 3045 H 283.32 -5.48473 -3.40365 0
M  V30 3046 H 284.088 -7.54713 -3.16782 0
M  V30 3047 N 286.751 1.08385 -1.14413 0
M  V30 3048 C 288.167 1.32844 -0.884563 0
M  V30 3049 C 288.367 1.95841 0.474181 0
M  V30 3050 O 287.423 2.21158 1.21842 0
M  V30 3051 C 288.736 2.22978 -2.01745 0
M  V30 3052 C 290.284 2.36458 -2.05077 0
M  V30 3053 C 290.759 3.29934 -3.1766 0
M  V30 3054 N 292.25 3.37511 -3.17239 0
M  V30 3055 C 292.985 4.09871 -4.0099 0
M  V30 3056 N 292.481 4.84936 -4.94781 0
M  V30 3057 N 294.274 4.05704 -3.89051 0
M  V30 3058 H 286.425 0.658756 -2.01926 0
M  V30 3059 H 288.688 0.352821 -0.879899 0
M  V30 3060 H 288.394 1.83934 -2.99769 0
M  V30 3061 H 288.268 3.23441 -1.94077 0
M  V30 3062 H 290.655 2.7476 -1.0766 0
M  V30 3063 H 290.736 1.35736 -2.16816 0
M  V30 3064 H 290.38 2.92352 -4.15322 0
M  V30 3065 H 290.31 4.30584 -3.03158 0
M  V30 3066 H 292.801 2.83996 -2.49308 0
M  V30 3067 H 293.114 5.37612 -5.55151 0
M  V30 3068 H 291.459 4.83988 -4.98779 0
M  V30 3069 H 294.65 3.46167 -3.15097 0
M  V30 3070 H 294.823 4.61834 -4.54547 0
M  V30 3071 N 288.23 0.939286 1.26551 0
M  V30 3072 C 289.177 0.446088 2.26448 0
M  V30 3073 C 290.147 -0.493234 1.58608 0
M  V30 3074 O 291.332 -0.409857 1.86346 0
M  V30 3075 C 288.472 -0.284375 3.43926 0
M  V30 3076 C 287.585 0.690399 4.26448 0
M  V30 3077 C 286.72 -0.0610712 5.31165 0
M  V30 3078 C 285.759 0.905649 6.05363 0
M  V30 3079 N 284.896 0.186055 7.01853 0
M  V30 3080 H 289.736 1.30291 2.68008 0
M  V30 3081 H 287.273 0.65371 1.31776 0
M  V30 3082 H 289.231 -0.724313 4.10864 0
M  V30 3083 H 287.861 -1.10535 3.03285 0
M  V30 3084 H 286.913 1.24885 3.59316 0
M  V30 3085 H 288.225 1.42873 4.779 0
M  V30 3086 H 287.379 -0.56038 6.04106 0
M  V30 3087 H 286.118 -0.832297 4.80546 0
M  V30 3088 H 285.123 1.4161 5.3125 0
M  V30 3089 H 286.348 1.67685 6.58072 0
M  V30 3090 H 284.294 -0.566714 6.53548 0
M  V30 3091 H 284.211 0.863752 7.51049 0
M  V30 3092 H 285.479 -0.292221 7.78952 0
M  V30 3093 N 289.708 -1.40897 0.706093 0
M  V30 3094 C 290.948 -2.02916 0.245827 0
M  V30 3095 C 291.312 -1.54751 -1.13649 0
M  V30 3096 O 292.513 -2.08768 -1.69321 0
M  V30 3097 C 290.784 -3.56031 0.312537 0
M  V30 3098 S 292.343 -4.38741 -0.0721388 0
M  V30 3099 H 289.161 -0.704186 0.0982007 0
M  V30 3100 H 291.763 -1.72168 0.926207 0
M  V30 3101 H 290.467 -3.88579 1.32039 0
M  V30 3102 H 289.998 -3.91495 -0.386641 0
M  V30 3103 H 292.013 -4.78952 -1.29692 0
M  V30 3104 N 291.186 -0.45159 -1.50991 0
M  V30 3105 C 292.597 0.00818571 -1.86698 0
M  V30 3106 C 292.948 1.40661 -1.3678 0
M  V30 3107 O 292.073 2.0391 -0.724546 0
M  V30 3108 C 292.668 0.0216303 -3.38793 0
M  V30 3109 C 291.227 0.425865 -3.73983 0
M  V30 3110 C 290.374 -0.372163 -2.74791 0
M  V30 3111 H 293.325 -0.666785 -1.44013 0
M  V30 3112 H 293.346 0.828078 -3.7138 0
M  V30 3113 H 292.858 -0.996288 -3.75094 0
M  V30 3114 H 290.959 1.44886 -3.43277 0
M  V30 3115 H 291.072 0.140761 -4.78893 0
M  V30 3116 H 289.436 0.171498 -2.54122 0
M  V30 3117 H 290.219 -1.38922 -3.13935 0
M  V30 3118 N 292.664 1.56529 -0.183458 0
M  V30 3119 C 294.08 1.58664 0.172554 0
M  V30 3120 C 294.28 1.19925 1.61926 0
M  V30 3121 O 293.336 0.916534 2.35278 0
M  V30 3122 C 294.649 3.00463 -0.119262 0
M  V30 3123 C 296.197 3.12945 -0.0584396 0
M  V30 3124 C 296.672 4.56857 -0.323408 0
M  V30 3125 N 298.163 4.62403 -0.271612 0
M  V30 3126 C 298.898 5.71626 -0.450639 0
M  V30 3127 N 298.394 6.89362 -0.689384 0
M  V30 3128 N 300.187 5.60775 -0.385701 0
M  V30 3129 H 292.338 1.79994 -1.12765 0
M  V30 3130 H 294.601 0.834808 -0.449222 0
M  V30 3131 H 294.307 3.33326 -1.12192 0
M  V30 3132 H 294.181 3.72659 0.583544 0
M  V30 3133 H 296.568 2.79902 0.934805 0
M  V30 3134 H 296.649 2.4316 -0.794144 0
M  V30 3135 H 296.293 4.9061 -1.31392 0
M  V30 3136 H 296.223 5.24816 0.43305 0
M  V30 3137 H 298.714 3.77785 -0.0932256 0
M  V30 3138 H 299.027 7.68489 -0.815113 0
M  V30 3139 H 297.372 6.91196 -0.726142 0
M  V30 3140 H 300.563 4.67674 -0.199687 0
M  V30 3141 H 300.736 6.4584 -0.528646 0
M  V30 3142 N 294.142 -0.090211 1.57342 0
M  V30 3143 C 295.391 -0.791531 1.8552 0
M  V30 3144 C 295.704 -1.79659 0.773441 0
M  V30 3145 O 296.91 -2.54616 0.942497 0
M  V30 3146 C 295.366 -1.45856 3.2902 0
M  V30 3147 C 294.974 -0.493017 4.45279 0
M  V30 3148 C 296.718 -2.14332 3.66418 0
M  V30 3149 C 294.625 -1.16491 5.79814 0
M  V30 3150 H 293.555 -0.299356 0.692027 0
M  V30 3151 H 296.206 -0.0445343 1.83446 0
M  V30 3152 H 294.588 -2.25318 3.2565 0
M  V30 3153 H 295.762 0.270464 4.60006 0
M  V30 3154 H 294.077 0.0863061 4.16311 0
M  V30 3155 H 296.674 -2.65344 4.64216 0
M  V30 3156 H 297.017 -2.93447 2.95287 0
M  V30 3157 H 297.55 -1.41724 3.71698 0
M  V30 3158 H 294.289 -0.41447 6.54188 0
M  V30 3159 H 293.809 -1.8997 5.68921 0
M  V30 3160 H 295.488 -1.69001 6.24538 0
M  V30 3161 N 295.62 -1.53406 -0.361157 0
M  V30 3162 C 296.869 -1.69022 -1.10066 0
M  V30 3163 C 297.182 -0.450838 -1.90333 0
M  V30 3164 O 298.388 -0.487617 -2.67085 0
M  V30 3165 C 296.844 -2.98812 -2.00598 0
M  V30 3166 C 296.452 -4.30027 -1.25621 0
M  V30 3167 C 298.196 -3.23795 -2.74513 0
M  V30 3168 C 296.103 -5.50903 -2.1508 0
M  V30 3169 H 295.033 -0.629776 -0.414606 0
M  V30 3170 H 297.684 -1.79907 -0.361348 0
M  V30 3171 H 296.066 -2.8174 -2.78278 0
M  V30 3172 H 297.24 -4.57745 -0.529739 0
M  V30 3173 H 295.555 -4.11522 -0.635496 0
M  V30 3174 H 298.152 -4.11289 -3.41681 0
M  V30 3175 H 298.495 -2.40045 -3.40123 0
M  V30 3176 H 299.028 -3.41561 -2.03914 0
M  V30 3177 H 295.767 -6.37143 -1.54041 0
M  V30 3178 H 295.287 -5.27459 -2.85565 0
M  V30 3179 H 296.966 -5.85865 -2.74538 0
M  V30 3180 N 297.098 0.621204 -1.44841 0
M  V30 3181 C 298.03 1.74615 -1.48466 0
M  V30 3182 C 299.043 1.58377 -0.37691 0
M  V30 3183 O 300.232 1.66508 -0.643215 0
M  V30 3184 C 297.332 3.12459 -1.31236 0
M  V30 3185 C 296.505 3.55064 -2.55438 0
M  V30 3186 C 295.564 4.71821 -2.32963 0
M  V30 3187 O 294.59 4.79628 -3.06505 0
M  V30 3188 N 295.792 5.64186 -1.36654 0
M  V30 3189 H 298.557 1.71973 -2.45449 0
M  V30 3190 H 296.118 0.806077 -1.40407 0
M  V30 3191 H 298.11 3.88302 -1.14032 0
M  V30 3192 H 296.68 3.09686 -0.4258 0
M  V30 3193 H 295.9 2.69324 -2.87851 0
M  V30 3194 H 297.188 3.80284 -3.38026 0
M  V30 3195 H 296.586 5.6058 -0.759344 0
M  V30 3196 H 295.143 6.39618 -1.25425 0
M  V30 3197 N 298.576 1.31904 0.862503 0
M  V30 3198 C 299.524 1.20125 1.9918 0
M  V30 3199 C 300.518 0.107824 1.69056 0
M  V30 3200 O 301.724 0.270223 1.7796 0
M  V30 3201 H 298.099 0.372148 0.65346 0
M  V30 3202 H 300.07 2.15652 2.06244 0
M  V30 3203 C 298.819 0.933099 3.34946 0
M  V30 3204 H 298.142 1.76664 3.5865 0
M  V30 3205 H 299.582 0.890892 4.14535 0
M  V30 3206 C 298.041 -0.364172 3.34926 0
M  V30 3207 O 298.571 -1.37858 3.77304 0
M  V30 3208 N 296.777 -0.383362 2.8806 0
M  V30 3209 H 296.324 0.442651 2.53768 0
M  V30 3210 H 296.282 -1.25123 2.8843 0
M  V30 3211 N 300.054 -1.07777 1.14986 0
M  V30 3212 C 301.302 -1.79934 0.920235 0
M  V30 3213 C 301.623 -1.86955 -0.554336 0
M  V30 3214 O 300.893 -1.36731 -1.40291 0
M  V30 3215 H 299.473 -0.666424 0.337473 0
M  V30 3216 H 302.135 -1.3027 1.44968 0
M  V30 3217 H 301.231 -2.82539 1.32583 0
M  V30 3218 N 301.532 -0.945985 -1.26051 0
M  V30 3219 C 302.495 -0.463897 -2.24456 0
M  V30 3220 C 303.495 0.427655 -1.55009 0
M  V30 3221 O 304.685 0.226157 -1.72726 0
M  V30 3222 C 301.817 0.330812 -3.39291 0
M  V30 3223 H 303.01 -1.33357 -2.68619 0
M  V30 3224 H 300.563 -0.728416 -1.38289 0
M  V30 3225 H 301.298 1.21852 -3.00537 0
M  V30 3226 H 301.083 -0.308679 -3.90883 0
M  V30 3227 H 302.573 0.657865 -4.12386 0
M  V30 3228 N 303.011 1.40521 -0.713556 0
M  V30 3229 C 304.26 2.00155 -0.249192 0
M  V30 3230 C 304.573 1.57224 1.16362 0
M  V30 3231 O 305.779 2.09542 1.72639 0
M  V30 3232 C 304.235 3.5773 -0.3946 0
M  V30 3233 C 303.843 4.09635 -1.81392 0
M  V30 3234 C 305.587 4.24499 0.00907364 0
M  V30 3235 C 303.494 5.59707 -1.91003 0
M  V30 3236 H 302.424 0.74868 -0.0894114 0
M  V30 3237 H 305.075 1.60784 -0.884352 0
M  V30 3238 H 303.457 3.94792 0.30911 0
M  V30 3239 H 304.631 3.83955 -2.54785 0
M  V30 3240 H 302.946 3.55456 -2.16888 0
M  V30 3241 H 305.543 5.34683 -0.0420404 0
M  V30 3242 H 305.886 4.02824 1.05065 0
M  V30 3243 H 306.419 3.92536 -0.645007 0
M  V30 3244 H 303.158 5.86234 -2.93275 0
M  V30 3245 H 302.678 5.87258 -1.22019 0
M  V30 3246 H 304.357 6.24776 -1.6812 0
M  V30 3247 N 304.489 0.459591 1.5075 0
M  V30 3248 C 305.736 -0.0993495 2.02256 0
M  V30 3249 C 306.064 -1.40751 1.34237 0
M  V30 3250 O 305.319 -1.90379 0.453228 0
M  V30 3251 C 305.618 -0.342866 3.55752 0
M  V30 3252 C 305.284 0.88218 4.42186 0
M  V30 3253 C 303.946 1.21808 4.65528 0
M  V30 3254 C 306.298 1.69837 4.92752 0
M  V30 3255 C 303.626 2.37045 5.36681 0
M  V30 3256 C 305.978 2.84192 5.65171 0
M  V30 3257 C 304.642 3.1821 5.8677 0
M  V30 3258 H 303.912 -0.0363545 0.740108 0
M  V30 3259 H 306.559 0.611329 1.8148 0
M  V30 3260 H 304.864 -1.13567 3.7498 0
M  V30 3261 H 306.561 -0.789121 3.93159 0
M  V30 3262 H 303.151 0.610467 4.2423 0
M  V30 3263 H 307.335 1.45205 4.74583 0
M  V30 3264 H 302.591 2.63689 5.51614 0
M  V30 3265 H 306.765 3.4779 6.03337 0
M  V30 3266 H 304.392 4.07613 6.41682 0
M  V30 3267 N 305.967 -1.56429 0.191757 0
M  V30 3268 C 306.899 -2.16154 -0.762245 0
M  V30 3269 C 307.912 -1.12247 -1.17917 0
M  V30 3270 O 309.101 -1.39353 -1.11548 0
M  V30 3271 C 306.201 -2.70606 -2.04024 0
M  V30 3272 C 305.374 -3.99381 -1.78364 0
M  V30 3273 C 304.433 -4.38692 -2.90578 0
M  V30 3274 O 303.459 -5.06179 -2.6033 0
M  V30 3275 N 304.661 -4.01922 -4.18854 0
M  V30 3276 H 307.426 -2.98643 -0.251526 0
M  V30 3277 H 304.987 -1.61897 0.00967373 0
M  V30 3278 H 306.979 -2.93891 -2.78227 0
M  V30 3279 H 305.549 -1.9259 -2.46227 0
M  V30 3280 H 304.769 -3.84262 -0.879581 0
M  V30 3281 H 306.057 -4.83445 -1.58614 0
M  V30 3282 H 305.455 -3.47631 -4.46283 0
M  V30 3283 H 304.012 -4.30165 -4.89695 0
M  V30 3284 N 307.445 0.0818655 -1.57387 0
M  V30 3285 C 308.355 1.11642 -2.06333 0
M  V30 3286 C 309.371 1.43033 -0.99083 0
M  V30 3287 O 310.547 1.53411 -1.30488 0
M  V30 3288 C 307.612 2.41342 -2.48907 0
M  V30 3289 C 306.673 2.17014 -3.7041 0
M  V30 3290 C 305.906 3.4053 -4.10944 0
M  V30 3291 O 306.129 4.4927 -3.51444 0
M  V30 3292 O 305.063 3.29336 -5.03807 0
M  V30 3293 H 308.889 0.730657 -2.9478 0
M  V30 3294 H 306.474 0.295301 -1.46452 0
M  V30 3295 H 308.356 3.17691 -2.76858 0
M  V30 3296 H 307.031 2.79319 -1.63593 0
M  V30 3297 H 305.938 1.38403 -3.47556 0
M  V30 3298 H 307.271 1.83923 -4.56545 0
M  V30 3299 N 308.923 1.53595 0.353017 0
M  V30 3300 C 310.151 1.74311 1.1146 0
M  V30 3301 C 310.566 0.477854 1.82653 0
M  V30 3302 O 309.923 -0.549977 1.74016 0
M  V30 3303 C 309.974 2.91694 2.13534 0
M  V30 3304 O 309.695 4.13325 1.45238 0
M  V30 3305 C 311.196 3.24384 3.02142 0
M  V30 3306 H 308.416 0.582669 0.332773 0
M  V30 3307 H 310.96 2.00386 0.408107 0
M  V30 3308 H 309.115 2.67977 2.79763 0
M  V30 3309 H 309.529 4.79148 2.13349 0
M  V30 3310 H 311.003 4.09893 3.69718 0
M  V30 3311 H 311.48 2.40282 3.67643 0
M  V30 3312 H 312.086 3.50073 2.41514 0
M  V30 3313 N 310.401 -0.613514 1.45168 0
M  V30 3314 C 311.331 -1.7354 1.56225 0
M  V30 3315 C 312.312 -1.64981 0.41414 0
M  V30 3316 O 313.497 -1.83472 0.636526 0
M  V30 3317 C 310.627 -3.12128 1.52295 0
M  V30 3318 C 309.581 -3.35491 2.65762 0
M  V30 3319 C 308.907 -4.74291 2.46885 0
M  V30 3320 C 310.207 -3.26325 4.0781 0
M  V30 3321 H 311.901 -1.64543 2.50132 0
M  V30 3322 H 309.447 -0.790185 1.20383 0
M  V30 3323 H 311.4 -3.90404 1.58628 0
M  V30 3324 H 310.124 -3.2195 0.549139 0
M  V30 3325 H 308.783 -2.59603 2.58847 0
M  V30 3326 H 308.431 -4.80839 1.47657 0
M  V30 3327 H 308.131 -4.9088 3.22972 0
M  V30 3328 H 309.655 -5.54775 2.55063 0
M  V30 3329 H 311.069 -3.94483 4.16 0
M  V30 3330 H 309.466 -3.54445 4.8424 0
M  V30 3331 H 310.536 -2.23855 4.30136 0
M  V30 3332 N 311.879 -1.3236 -0.855495 0
M  V30 3333 C 313.104 -1.2601 -1.64731 0
M  V30 3334 C 313.529 0.169068 -1.87339 0
M  V30 3335 O 312.887 1.12016 -1.42556 0
M  V30 3336 C 312.935 -2.02417 -2.98429 0
M  V30 3337 O 312.039 -1.3714 -3.8893 0
M  V30 3338 H 311.38 -0.434325 -0.502253 0
M  V30 3339 H 313.91 -1.74661 -1.06558 0
M  V30 3340 H 313.92 -2.12559 -3.48257 0
M  V30 3341 H 312.595 -3.06343 -2.81295 0
M  V30 3342 H 311.172 -1.3554 -3.47395 0
M  V30 3343 N 313.357 1.07166 -1.15556 0
M  V30 3344 C 314.605 1.79443 -0.929764 0
M  V30 3345 C 314.926 1.87246 0.544414 0
M  V30 3346 O 314.196 1.37473 1.39564 0
M  V30 3347 H 312.776 0.664625 -0.341003 0
M  V30 3348 H 315.438 1.29499 -1.45657 0
M  V30 3349 H 314.534 2.81832 -1.34079 0
M  V30 3350 N 314.835 0.952656 1.25548 0
M  V30 3351 C 315.798 0.475794 2.24207 0
M  V30 3352 C 316.798 -0.419428 1.55234 0
M  V30 3353 O 317.988 -0.216994 1.72843 0
M  V30 3354 C 315.12 -0.312814 3.39462 0
M  V30 3355 H 316.313 1.34779 2.67908 0
M  V30 3356 H 313.866 0.735739 1.37901 0
M  V30 3357 H 314.601 -1.20257 3.01179 0
M  V30 3358 H 314.386 0.329404 3.90714 0
M  V30 3359 H 315.876 -0.635986 4.12729 0
M  V30 3360 N 316.313 -1.40141 0.720998 0
M  V30 3361 C 317.223 -2.34486 0.0731031 0
M  V30 3362 C 318.239 -1.57587 -0.737723 0
M  V30 3363 O 319.415 -1.89949 -0.669429 0
M  V30 3364 C 316.48 -3.36528 -0.833656 0
M  V30 3365 C 315.541 -4.29298 -0.0121673 0
M  V30 3366 C 314.774 -5.26466 -0.875742 0
M  V30 3367 O 314.997 -5.29745 -2.11485 0
M  V30 3368 O 313.931 -6.01092 -0.31185 0
M  V30 3369 H 317.757 -2.9152 0.851444 0
M  V30 3370 H 315.342 -1.41427 0.481527 0
M  V30 3371 H 317.224 -3.99093 -1.35289 0
M  V30 3372 H 315.899 -2.81899 -1.59105 0
M  V30 3373 H 314.806 -3.70001 0.552262 0
M  V30 3374 H 316.139 -4.87094 0.707129 0
M  V30 3375 N 317.792 -0.46758 -1.50504 0
M  V30 3376 C 319.017 0.0886943 -2.0721 0
M  V30 3377 C 319.442 1.33057 -1.32956 0
M  V30 3378 O 318.8 1.77354 -0.376197 0
M  V30 3379 C 318.848 0.359202 -3.58806 0
M  V30 3380 O 317.952 1.44034 -3.8643 0
M  V30 3381 H 317.293 -0.0114349 -0.663902 0
M  V30 3382 H 319.823 -0.657613 -1.93744 0
M  V30 3383 H 319.833 0.600742 -4.03553 0
M  V30 3384 H 318.508 -0.548311 -4.1227 0
M  V30 3385 H 317.085 1.18638 -3.53524 0
M  V30 3386 N 319.27 1.56325 -0.20005 0
M  V30 3387 C 320.498 2.02105 0.442874 0
M  V30 3388 C 320.913 1.08014 1.5485 0
M  V30 3389 O 320.27 0.0858797 1.82298 0
M  V30 3390 C 320.321 3.47549 0.994583 0
M  V30 3391 O 320.042 4.38049 -0.0669322 0
M  V30 3392 C 321.543 4.0887 1.7129 0
M  V30 3393 H 318.763 0.661807 0.110691 0
M  V30 3394 H 321.307 2.02134 -0.310207 0
M  V30 3395 H 319.462 3.48204 1.69803 0
M  V30 3396 H 319.876 5.23368 0.344462 0
M  V30 3397 H 321.35 5.12475 2.05118 0
M  V30 3398 H 321.827 3.52615 2.61838 0
M  V30 3399 H 322.433 4.12002 1.05518 0
M  V30 3400 N 320.748 -0.0735177 1.57428 0
M  V30 3401 C 321.973 -0.789787 1.91774 0
M  V30 3402 C 322.398 -1.70413 0.796306 0
M  V30 3403 O 321.756 -1.79555 -0.250961 0
M  V30 3404 C 321.804 -1.5609 3.25067 0
M  V30 3405 O 320.908 -2.67144 3.14178 0
M  V30 3406 H 320.249 -0.215582 0.628029 0
M  V30 3407 H 322.779 -0.0422781 2.04556 0
M  V30 3408 H 322.789 -1.94052 3.58898 0
M  V30 3409 H 321.464 -0.890015 4.06265 0
M  V30 3410 H 320.041 -2.32052 2.91901 0
M  V30 3411 N 322.226 -1.5378 -0.344866 0
M  V30 3412 C 323.156 -1.84662 -1.42906 0
M  V30 3413 C 324.137 -0.701648 -1.54955 0
M  V30 3414 O 325.322 -0.953438 -1.69184 0
M  V30 3415 C 322.452 -2.05503 -2.79974 0
M  V30 3416 C 321.406 -3.21318 -2.82734 0
M  V30 3417 C 320.732 -3.2749 -4.22675 0
M  V30 3418 C 322.032 -4.59456 -2.48389 0
M  V30 3419 H 323.726 -2.75461 -1.17311 0
M  V30 3420 H 321.272 -1.32542 -0.562896 0
M  V30 3421 H 323.225 -2.25691 -3.55867 0
M  V30 3422 H 321.949 -1.11434 -3.07002 0
M  V30 3423 H 320.608 -3.00984 -2.09294 0
M  V30 3424 H 320.256 -2.31019 -4.4681 0
M  V30 3425 H 319.956 -4.05316 -4.25433 0
M  V30 3426 H 321.48 -3.49887 -5.00412 0
M  V30 3427 H 322.894 -4.79667 -3.13995 0
M  V30 3428 H 321.291 -5.39675 -2.62432 0
M  V30 3429 H 322.361 -4.63155 -1.4358 0
M  V30 3430 N 323.704 0.605807 -1.45491 0
M  V30 3431 C 324.95 1.36679 -1.49823 0
M  V30 3432 C 325.283 1.93693 -0.140175 0
M  V30 3433 O 324.558 1.75158 0.845581 0
M  V30 3434 C 324.841 2.51337 -2.57879 0
M  V30 3435 C 324.694 1.99508 -4.03134 0
M  V30 3436 C 326.013 3.53463 -2.62205 0
M  V30 3437 H 323.132 0.495617 -0.545466 0
M  V30 3438 H 325.774 0.682732 -1.7731 0
M  V30 3439 H 323.924 3.09691 -2.34571 0
M  V30 3440 H 325.596 1.45789 -4.37656 0
M  V30 3441 H 323.839 1.30496 -4.13707 0
M  V30 3442 H 324.51 2.82169 -4.74431 0
M  V30 3443 H 326.986 3.04953 -2.83095 0
M  V30 3444 H 325.862 4.31178 -3.39672 0
M  V30 3445 H 326.123 4.09197 -1.67363 0
M  V30 3446 N 325.182 1.32811 0.848464 0
M  V30 3447 C 326.145 1.22194 1.9391 0
M  V30 3448 C 327.145 0.143404 1.60159 0
M  V30 3449 O 328.335 0.394253 1.6968 0
M  V30 3450 C 325.467 0.88067 3.29328 0
M  V30 3451 H 326.66 2.19127 2.04752 0
M  V30 3452 H 324.213 1.16731 1.0394 0
M  V30 3453 H 324.948 -0.0865776 3.24184 0
M  V30 3454 H 324.733 1.66052 3.55203 0
M  V30 3455 H 326.223 0.830871 4.09251 0
M  V30 3456 N 326.66 -1.06551 1.16123 0
M  V30 3457 C 327.623 -2.12132 0.867906 0
M  V30 3458 C 328.623 -1.60224 -0.135944 0
M  V30 3459 O 329.813 -1.73943 0.0946422 0
M  V30 3460 C 326.945 -3.396 0.297419 0
M  V30 3461 H 328.138 -2.39586 1.80385 0
M  V30 3462 H 325.691 -1.22574 0.969812 0
M  V30 3463 H 326.426 -3.17794 -0.64633 0
M  V30 3464 H 326.211 -3.78581 1.02073 0
M  V30 3465 H 327.701 -4.17455 0.110052 0
M  V30 3466 N 328.138 -0.959301 -1.25041 0
M  V30 3467 C 329.554 -0.664474 -1.4511 0
M  V30 3468 C 329.754 0.776481 -1.85938 0
M  V30 3469 O 328.81 1.55128 -1.99227 0
M  V30 3470 C 330.123 -1.64139 -2.5195 0
M  V30 3471 C 331.671 -1.65309 -2.65786 0
M  V30 3472 C 332.146 -2.61777 -3.75815 0
M  V30 3473 N 333.637 -2.60169 -3.83231 0
M  V30 3474 C 334.372 -3.31489 -4.6787 0
M  V30 3475 N 333.868 -4.12298 -5.56761 0
M  V30 3476 N 335.661 -3.20354 -4.61876 0
M  V30 3477 H 327.812 -1.89043 -0.968332 0
M  V30 3478 H 330.075 -0.813408 -0.4869 0
M  V30 3479 H 329.781 -2.67086 -2.28819 0
M  V30 3480 H 329.655 -1.40756 -3.49954 0
M  V30 3481 H 332.042 -0.630778 -2.8828 0
M  V30 3482 H 332.123 -1.92753 -1.68167 0
M  V30 3483 H 331.767 -3.64137 -3.54071 0
M  V30 3484 H 331.697 -2.31616 -4.72929 0
M  V30 3485 H 334.188 -2.01507 -3.19692 0
M  V30 3486 H 334.501 -4.63625 -6.18281 0
M  V30 3487 H 332.846 -4.16395 -5.56454 0
M  V30 3488 H 336.037 -2.56692 -3.91442 0
M  V30 3489 H 336.21 -3.76201 -5.27614 0
M  V30 3490 N 329.616 1.39756 -0.72842 0
M  V30 3491 C 330.864 2.00248 -0.272946 0
M  V30 3492 C 331.185 1.58077 1.14178 0
M  V30 3493 O 330.455 0.826014 1.77634 0
M  V30 3494 H 329.035 0.740554 -0.0979247 0
M  V30 3495 H 331.697 1.70903 -0.936912 0
M  V30 3496 H 330.793 3.10495 -0.316142 0
M  V30 3497 N 331.094 0.475555 1.50254 0
M  V30 3498 C 332.319 -0.0777042 2.07254 0
M  V30 3499 C 332.744 -1.3235 1.3366 0
M  V30 3500 O 332.102 -1.77152 0.385597 0
M  V30 3501 C 332.15 -0.340169 3.58992 0
M  V30 3502 O 331.254 -1.41982 3.87188 0
M  V30 3503 H 330.595 0.0149556 0.663832 0
M  V30 3504 H 333.125 0.667878 1.93392 0
M  V30 3505 H 333.135 -0.579332 4.03866 0
M  V30 3506 H 331.81 0.570167 4.11973 0
M  V30 3507 H 330.387 -1.16762 3.54148 0
M  V30 3508 N 332.573 -1.56217 0.208337 0
M  V30 3509 C 333.813 -1.99849 -0.428927 0
M  V30 3510 C 334.177 -1.09262 -1.57879 0
M  V30 3511 O 335.378 -1.42185 -2.28116 0
M  V30 3512 C 333.649 -3.46777 -0.864879 0
M  V30 3513 S 335.208 -4.12434 -1.49811 0
M  V30 3514 H 332.026 -0.697742 -0.136665 0
M  V30 3515 H 334.628 -1.92953 0.314519 0
M  V30 3516 H 333.332 -4.10396 -0.0181326 0
M  V30 3517 H 332.863 -3.57518 -1.64147 0
M  V30 3518 H 334.878 -4.10532 -2.78707 0
M  V30 3519 N 334.051 0.0651679 -1.57465 0
M  V30 3520 C 335.3 0.761916 -1.86756 0
M  V30 3521 C 335.613 1.78406 -0.801925 0
M  V30 3522 O 336.819 2.53084 -0.982885 0
M  V30 3523 C 335.275 1.40603 -3.31299 0
M  V30 3524 C 334.883 0.422115 -4.46007 0
M  V30 3525 C 336.627 2.08476 -3.69781 0
M  V30 3526 C 334.534 1.07252 -5.81593 0
M  V30 3527 H 333.464 0.288308 -0.696702 0
M  V30 3528 H 336.115 0.015344 -1.83494 0
M  V30 3529 H 334.497 2.20109 -3.29193 0
M  V30 3530 H 335.671 -0.343613 -4.59517 0
M  V30 3531 H 333.986 -0.152527 -4.16121 0
M  V30 3532 H 336.583 2.57925 -4.68379 0
M  V30 3533 H 336.926 2.88712 -2.99919 0
M  V30 3534 H 337.459 1.35792 -3.73905 0
M  V30 3535 H 334.198 0.310342 -6.54765 0
M  V30 3536 H 333.718 1.80895 -5.71872 0
M  V30 3537 H 335.397 1.59043 -6.27148 0
M  V30 3538 N 335.529 1.53961 0.336706 0
M  V30 3539 C 336.492 1.81724 1.39675 0
M  V30 3540 C 337.492 0.688532 1.45313 0
M  V30 3541 O 338.682 0.956829 1.45569 0
M  V30 3542 C 335.814 1.96543 2.78538 0
M  V30 3543 H 337.007 2.76424 1.16318 0
M  V30 3544 H 334.56 1.45478 0.571474 0
M  V30 3545 H 335.295 1.0401 3.07168 0
M  V30 3546 H 335.08 2.78665 2.75841 0
M  V30 3547 H 336.57 2.19516 3.5525 0
M  V30 3548 N 337.007 -0.598083 1.45811 0
M  V30 3549 C 337.955 -1.72932 1.55555 0
M  V30 3550 C 338.949 -1.63984 0.424921 0
M  V30 3551 O 340.155 -1.69663 0.601205 0
M  V30 3552 H 336.53 -0.571489 0.488779 0
M  V30 3553 H 338.501 -1.61842 2.50699 0
M  V30 3554 C 337.25 -3.11318 1.54843 0
M  V30 3555 H 336.573 -3.18867 2.41172 0
M  V30 3556 H 338.013 -3.90274 1.65717 0
M  V30 3557 C 336.472 -3.3578 0.274427 0
M  V30 3558 O 337.002 -3.9654 -0.641778 0
M  V30 3559 N 335.208 -2.90119 0.167139 0
M  V30 3560 H 334.755 -2.40855 0.913596 0
M  V30 3561 H 334.713 -3.0686 -0.684435 0
M  V30 3562 N 338.485 -1.33259 -0.841409 0
M  V30 3563 C 339.448 -1.23221 -1.9326 0
M  V30 3564 C 340.448 -0.151895 -1.60081 0
M  V30 3565 O 341.638 -0.403246 -1.69468 0
M  V30 3566 C 338.77 -0.898123 -3.28856 0
M  V30 3567 H 339.963 -2.2021 -2.03587 0
M  V30 3568 H 337.516 -1.17281 -1.03319 0
M  V30 3569 H 338.251 0.0693841 -3.24226 0
M  V30 3570 H 338.036 -1.67934 -3.54317 0
M  V30 3571 H 339.526 -0.852563 -4.08805 0
M  V30 3572 N 339.963 1.05934 -1.16686 0
M  V30 3573 C 340.873 2.17014 -0.891183 0
M  V30 3574 C 341.889 1.73453 0.137907 0
M  V30 3575 O 343.065 2.01361 -0.039592 0
M  V30 3576 C 340.13 3.44384 -0.400099 0
M  V30 3577 C 339.191 4.02433 -1.49486 0
M  V30 3578 C 338.424 5.23723 -1.02711 0
M  V30 3579 O 338.647 5.7027 0.121716 0
M  V30 3580 O 337.581 5.7382 -1.81699 0
M  V30 3581 H 341.407 2.43113 -1.82015 0
M  V30 3582 H 338.992 1.15541 -0.947132 0
M  V30 3583 H 340.874 4.21189 -0.133392 0
M  V30 3584 H 339.549 3.19802 0.500817 0
M  V30 3585 H 338.456 3.27102 -1.81535 0
M  V30 3586 H 339.789 4.31317 -2.37121 0
M  V30 3587 N 341.441 0.965919 1.2453 0
M  V30 3588 C 342.351 0.502154 2.29163 0
M  V30 3589 C 343.367 -0.436017 1.68448 0
M  V30 3590 O 344.543 -0.309497 1.99008 0
M  V30 3591 C 341.608 -0.201956 3.46111 0
M  V30 3592 C 340.669 0.775821 4.22232 0
M  V30 3593 C 339.902 0.105217 5.33596 0
M  V30 3594 O 340.125 -1.10683 5.59558 0
M  V30 3595 O 339.059 0.796475 5.96607 0
M  V30 3596 H 342.885 1.37194 2.70946 0
M  V30 3597 H 340.47 0.732875 1.30189 0
M  V30 3598 H 342.352 -0.597564 4.17142 0
M  V30 3599 H 341.027 -1.04673 3.06309 0
M  V30 3600 H 339.934 1.22185 3.53584 0
M  V30 3601 H 341.267 1.58896 4.65846 0
M  V30 3602 N 342.919 -1.39368 0.735821 0
M  V30 3603 C 344.165 -2.00794 0.284544 0
M  V30 3604 C 344.498 -1.58255 -1.12557 0
M  V30 3605 O 343.773 -0.811819 -1.76748 0
M  V30 3606 C 344.056 -3.58011 0.387337 0
M  V30 3607 C 343.909 -4.10566 1.83728 0
M  V30 3608 C 345.228 -4.395 -0.22975 0
M  V30 3609 H 342.347 -0.729501 0.104866 0
M  V30 3610 H 344.989 -1.65564 0.93213 0
M  V30 3611 H 343.139 -3.88154 -0.164006 0
M  V30 3612 H 344.811 -3.91139 2.44556 0
M  V30 3613 H 343.054 -3.64095 2.35833 0
M  V30 3614 H 343.725 -5.19702 1.86047 0
M  V30 3615 H 346.201 -4.15406 0.240257 0
M  V30 3616 H 345.077 -5.48752 -0.127485 0
M  V30 3617 H 345.338 -4.22062 -1.3159 0
M  V30 3618 N 344.397 -0.483516 -1.5 0
M  V30 3619 C 345.674 0.129337 -1.95172 0
M  V30 3620 C 346.054 1.55802 -1.4244 0
M  V30 3621 O 345.402 2.19625 -0.630649 0
M  V30 3622 C 345.612 0.0599251 -3.48949 0
M  V30 3623 C 346.96 0.242617 -4.23906 0
M  V30 3624 O 347.984 0.135933 -3.55941 0
M  V30 3625 O 346.843 0.459454 -5.44565 0
M  V30 3626 H 343.937 0.104887 -0.820322 0
M  V30 3627 H 346.483 -0.544807 -1.60717 0
M  V30 3628 H 345.255 -0.937079 -3.79914 0
M  V30 3629 H 344.878 0.774984 -3.89974 0
M  V30 3630 N 345.875 1.56104 -0.216619 0
M  V30 3631 C 347.121 1.98466 0.417033 0
M  V30 3632 C 347.454 1.10403 1.59765 0
M  V30 3633 O 346.729 0.160632 1.93836 0
M  V30 3634 C 347.012 3.49769 0.85637 0
M  V30 3635 C 346.865 4.48606 -0.327546 0
M  V30 3636 C 348.184 4.05339 1.7143 0
M  V30 3637 H 345.303 0.721551 0.150112 0
M  V30 3638 H 347.945 1.87423 -0.311864 0
M  V30 3639 H 346.095 3.5931 1.47745 0
M  V30 3640 H 347.767 4.5108 -0.965618 0
M  V30 3641 H 346.01 4.22682 -0.975805 0
M  V30 3642 H 346.681 5.51995 0.0227149 0
M  V30 3643 H 349.157 3.98712 1.19031 0
M  V30 3644 H 348.033 5.11533 1.99061 0
M  V30 3645 H 348.294 3.51918 2.67593 0
M  V30 3646 N 347.353 -0.0568162 1.57498 0
M  V30 3647 C 348.764 -0.606858 1.76562 0
M  V30 3648 C 349.115 -1.77114 0.844094 0
M  V30 3649 O 348.24 -2.16376 0.0318911 0
M  V30 3650 C 348.835 -1.10766 3.20182 0
M  V30 3651 C 347.394 -1.60344 3.40539 0
M  V30 3652 C 346.541 -0.529311 2.72201 0
M  V30 3653 H 349.492 0.169393 1.57793 0
M  V30 3654 H 349.513 -1.97602 3.25167 0
M  V30 3655 H 349.025 -0.26006 3.87228 0
M  V30 3656 H 347.126 -2.47379 2.78629 0
M  V30 3657 H 347.239 -1.67006 4.4905 0
M  V30 3658 H 345.603 -0.977893 2.35179 0
M  V30 3659 H 346.386 0.308352 3.41912 0
M  V30 3660 N 348.832 -1.54138 -0.328536 0
M  V30 3661 C 350.081 -1.71318 -1.06456 0
M  V30 3662 C 350.394 -0.491109 -1.89334 0
M  V30 3663 O 351.6 -0.54416 -2.65991 0
M  V30 3664 C 350.056 -3.03 -1.94214 0
M  V30 3665 C 349.664 -4.32595 -1.16471 0
M  V30 3666 C 351.408 -3.29544 -2.67583 0
M  V30 3667 C 349.315 -5.55341 -2.03347 0
M  V30 3668 H 348.245 -0.638429 -0.401155 0
M  V30 3669 H 350.896 -1.80633 -0.323106 0
M  V30 3670 H 349.278 -2.87579 -2.72239 0
M  V30 3671 H 350.452 -4.58766 -0.432525 0
M  V30 3672 H 348.767 -4.12777 -0.548063 0
M  V30 3673 H 351.364 -4.18444 -3.3288 0
M  V30 3674 H 351.707 -2.47206 -3.34955 0
M  V30 3675 H 352.24 -3.45809 -1.96623 0
M  V30 3676 H 348.979 -6.40268 -1.40491 0
M  V30 3677 H 348.499 -5.33397 -2.74313 0
M  V30 3678 H 350.178 -5.91557 -2.62049 0
M  V30 3679 N 350.31 0.590341 -1.46126 0
M  V30 3680 C 351.257 1.69994 -1.56111 0
M  V30 3681 C 352.227 1.61065 -0.405867 0
M  V30 3682 O 353.412 1.8039 -0.621613 0
M  V30 3683 C 350.552 3.08326 -1.55013 0
M  V30 3684 C 349.665 3.27936 -2.81215 0
M  V30 3685 C 348.8 4.56473 -2.71673 0
M  V30 3686 C 347.839 4.694 -3.92849 0
M  V30 3687 N 346.976 5.89254 -3.81738 0
M  V30 3688 H 351.816 1.60797 -2.50895 0
M  V30 3689 H 349.353 0.783799 -1.24479 0
M  V30 3690 H 351.311 3.88383 -1.52362 0
M  V30 3691 H 349.941 3.16439 -0.637667 0
M  V30 3692 H 348.993 2.41536 -2.93879 0
M  V30 3693 H 350.305 3.33357 -3.71045 0
M  V30 3694 H 349.459 5.44748 -2.67085 0
M  V30 3695 H 348.198 4.53477 -1.7947 0
M  V30 3696 H 347.203 3.79544 -3.97777 0
M  V30 3697 H 348.428 4.7418 -4.86138 0
M  V30 3698 H 346.374 5.87271 -2.92317 0
M  V30 3699 H 346.291 5.95911 -4.65217 0
M  V30 3700 H 347.559 6.79981 -3.81112 0
M  V30 3701 N 351.788 1.33704 0.83433 0
M  V30 3702 C 352.718 1.26967 1.95963 0
M  V30 3703 C 353.699 0.149337 1.69443 0
M  V30 3704 O 354.884 0.339852 1.91203 0
M  V30 3705 C 352.014 1.01275 3.32206 0
M  V30 3706 C 350.968 2.09652 3.73136 0
M  V30 3707 C 350.294 1.69166 5.07235 0
M  V30 3708 C 351.594 3.51372 3.86439 0
M  V30 3709 H 353.288 2.2112 2.01857 0
M  V30 3710 H 350.834 1.06447 0.969793 0
M  V30 3711 H 352.787 0.952106 4.10503 0
M  V30 3712 H 351.511 0.0356203 3.26581 0
M  V30 3713 H 350.17 2.14766 2.97104 0
M  V30 3714 H 349.818 0.701437 4.98085 0
M  V30 3715 H 349.518 2.41694 5.35591 0
M  V30 3716 H 351.042 1.64576 5.88003 0
M  V30 3717 H 352.456 3.48734 4.55036 0
M  V30 3718 H 350.853 4.22425 4.26236 0
M  V30 3719 H 351.923 3.89546 2.88759 0
M  V30 3720 N 353.266 -1.05314 1.17247 0
M  V30 3721 C 354.496 -1.81707 0.983166 0
M  V30 3722 C 354.904 -1.83222 -0.471822 0
M  V30 3723 O 354.247 -1.25721 -1.3394 0
M  V30 3724 C 354.309 -3.29134 1.44606 0
M  V30 3725 C 353.973 -3.51304 2.92292 0
M  V30 3726 C 354.97 -3.4353 3.90235 0
M  V30 3727 C 352.655 -3.78306 3.30439 0
M  V30 3728 C 354.649 -3.62442 5.24323 0
M  V30 3729 C 352.336 -3.96866 4.64694 0
M  V30 3730 C 353.334 -3.88933 5.61445 0
M  V30 3731 O 353.022 -4.06976 6.93272 0
M  V30 3732 H 352.754 -0.579476 0.348114 0
M  V30 3733 H 355.308 -1.33705 1.55924 0
M  V30 3734 H 353.538 -3.78046 0.813537 0
M  V30 3735 H 355.227 -3.87049 1.22262 0
M  V30 3736 H 355.993 -3.22648 3.62109 0
M  V30 3737 H 351.872 -3.83585 2.55702 0
M  V30 3738 H 355.416 -3.56165 5.99827 0
M  V30 3739 H 351.313 -4.1724 4.92525 0
M  V30 3740 H 352.081 -4.24209 6.99992 0
M  V30 3741 N 354.744 -0.972509 -1.24016 0
M  V30 3742 C 355.984 -0.644951 -1.93958 0
M  V30 3743 C 356.348 0.80559 -1.74282 0
M  V30 3744 O 357.549 1.2436 -2.38302 0
M  V30 3745 C 355.82 -1.01521 -3.42678 0
M  V30 3746 S 357.379 -0.802927 -4.31391 0
M  V30 3747 H 354.197 -0.236452 -0.670531 0
M  V30 3748 H 356.799 -1.25048 -1.50277 0
M  V30 3749 H 355.503 -2.06769 -3.54506 0
M  V30 3750 H 355.034 -0.400648 -3.91355 0
M  V30 3751 H 357.049 0.317256 -4.95185 0
M  V30 3752 N 356.222 1.38976 -0.743202 0
M  V30 3753 C 357.17 2.32394 -0.0978389 0
M  V30 3754 C 358.164 1.53486 0.716824 0
M  V30 3755 O 359.37 1.69092 0.617088 0
M  V30 3756 H 355.745 0.75189 -0.0128402 0
M  V30 3757 H 357.716 2.84441 -0.901981 0
M  V30 3758 C 356.465 3.38629 0.789036 0
M  V30 3759 H 355.788 3.99432 0.171559 0
M  V30 3760 H 357.228 4.06426 1.20807 0
M  V30 3761 C 355.687 2.76347 1.92702 0
M  V30 3762 O 356.217 2.64836 3.02034 0
M  V30 3763 N 354.423 2.34311 1.71891 0
M  V30 3764 H 353.97 2.43873 0.829675 0
M  V30 3765 H 353.928 1.9298 2.48205 0
M  V30 3766 N 357.7 0.491464 1.49741 0
M  V30 3767 C 358.948 -0.0563141 2.02022 0
M  V30 3768 C 359.269 -1.38363 1.37407 0
M  V30 3769 O 358.539 -1.88702 0.526166 0
M  V30 3770 H 357.119 -0.0238014 0.746621 0
M  V30 3771 H 359.781 0.646533 1.83864 0
M  V30 3772 H 358.877 -0.192967 3.11503 0
M  V30 3773 N 359.178 -1.55987 0.224894 0
M  V30 3774 C 360.455 -1.90232 -0.455083 0
M  V30 3775 C 360.835 -1.14269 -1.77499 0
M  V30 3776 O 360.183 -0.253079 -2.27094 0
M  V30 3777 C 360.393 -3.42993 -0.644758 0
M  V30 3778 C 361.741 -4.13821 -0.950669 0
M  V30 3779 O 362.765 -3.4861 -0.731423 0
M  V30 3780 O 361.624 -5.29128 -1.36695 0
M  V30 3781 H 358.718 -0.79108 -0.241084 0
M  V30 3782 H 361.264 -1.67581 0.267327 0
M  V30 3783 H 360.036 -3.90252 0.28613 0
M  V30 3784 H 359.659 -3.71434 -1.41853 0
M  V30 3785 N 360.656 0.0484629 -1.57525 0
M  V30 3786 C 361.904 0.741657 -1.88 0
M  V30 3787 C 362.225 1.76918 -0.820054 0
M  V30 3788 O 361.495 1.95335 0.148661 0
M  V30 3789 H 360.075 0.276908 -0.69378 0
M  V30 3790 H 362.737 0.019013 -1.94891 0
M  V30 3791 H 361.833 1.24336 -2.86264 0
M  V30 3792 N 362.134 1.5431 0.320358 0
M  V30 3793 C 363.044 1.86946 1.41734 0
M  V30 3794 C 364.06 0.761689 1.56443 0
M  V30 3795 O 365.236 1.05629 1.71477 0
M  V30 3796 C 362.301 2.09293 2.76401 0
M  V30 3797 C 361.362 3.33082 2.70841 0
M  V30 3798 C 360.595 3.54353 3.99086 0
M  V30 3799 O 360.818 2.79002 4.97508 0
M  V30 3800 O 359.752 4.47838 4.0215 0
M  V30 3801 H 363.578 2.80232 1.17062 0
M  V30 3802 H 361.163 1.40255 0.514673 0
M  V30 3803 H 363.045 2.25303 3.56113 0
M  V30 3804 H 361.72 1.19194 3.00956 0
M  V30 3805 H 360.627 3.22454 1.89668 0
M  V30 3806 H 361.96 4.23249 2.5124 0
M  V30 3807 N 363.613 -0.582584 1.46437 0
M  V30 3808 C 364.859 -1.34064 1.52965 0
M  V30 3809 C 365.214 -1.91566 0.178968 0
M  V30 3810 O 364.507 -1.73526 -0.812365 0
M  V30 3811 C 364.701 -2.48964 2.56421 0
M  V30 3812 C 364.53 -2.02717 4.01417 0
M  V30 3813 C 363.3 -1.87728 4.69134 0
M  V30 3814 C 365.498 -1.58675 4.8921 0
M  V30 3815 N 363.48 -1.35554 5.98747 0
M  V30 3816 C 364.851 -1.18093 6.08649 0
M  V30 3817 C 366.906 -1.46494 4.75861 0
M  V30 3818 C 365.609 -0.665427 7.16215 0
M  V30 3819 C 367.635 -0.96347 5.83499 0
M  V30 3820 C 366.997 -0.567432 7.02111 0
M  V30 3821 H 363.096 -0.483551 0.614575 0
M  V30 3822 H 365.68 -0.663309 1.83053 0
M  V30 3823 H 363.851 -3.1426 2.28244 0
M  V30 3824 H 365.583 -3.15913 2.52944 0
M  V30 3825 H 362.338 -2.09678 4.24655 0
M  V30 3826 H 362.762 -1.11628 6.67734 0
M  V30 3827 H 367.404 -1.75731 3.8455 0
M  V30 3828 H 365.122 -0.360639 8.07295 0
M  V30 3829 H 368.708 -0.873129 5.75211 0
M  V30 3830 H 367.588 -0.185389 7.83981 0
M  V30 3831 N 365.091 -1.34144 -0.827227 0
M  V30 3832 C 366.021 -1.28005 -1.95287 0
M  V30 3833 C 367.002 -0.158321 -1.69362 0
M  V30 3834 O 368.187 -0.349987 -1.9102 0
M  V30 3835 C 365.317 -1.03036 -3.31664 0
M  V30 3836 C 364.271 -2.11628 -3.72019 0
M  V30 3837 C 363.597 -1.71854 -5.0633 0
M  V30 3838 C 364.897 -3.53417 -3.8457 0
M  V30 3839 H 366.591 -2.22187 -2.00682 0
M  V30 3840 H 364.137 -1.0696 -0.964135 0
M  V30 3841 H 366.09 -0.973863 -4.09993 0
M  V30 3842 H 364.814 -0.0529391 -3.26557 0
M  V30 3843 H 363.473 -2.16339 -2.95961 0
M  V30 3844 H 363.121 -0.727841 -4.97706 0
M  V30 3845 H 362.821 -2.44531 -5.34302 0
M  V30 3846 H 364.345 -1.67692 -5.87122 0
M  V30 3847 H 365.759 -3.51142 -4.5318 0
M  V30 3848 H 364.156 -4.24679 -4.2399 0
M  V30 3849 H 365.226 -3.91072 -2.86689 0
M  V30 3850 N 366.569 1.04691 -1.17803 0
M  V30 3851 C 367.815 1.78045 -0.970969 0
M  V30 3852 C 368.148 1.87686 0.498751 0
M  V30 3853 O 367.423 1.38035 1.37027 0
M  V30 3854 C 367.706 3.2166 -1.61884 0
M  V30 3855 C 367.559 3.20001 -3.161 0
M  V30 3856 C 368.878 4.1962 -1.3269 0
M  V30 3857 H 365.997 0.64633 -0.354155 0
M  V30 3858 H 368.639 1.22333 -1.45378 0
M  V30 3859 H 366.789 3.69232 -1.20831 0
M  V30 3860 H 368.461 2.80467 -3.66246 0
M  V30 3861 H 366.704 2.58203 -3.48588 0
M  V30 3862 H 367.375 4.21386 -3.56564 0
M  V30 3863 H 369.851 3.80567 -1.68249 0
M  V30 3864 H 368.727 5.18339 -1.80599 0
M  V30 3865 H 368.988 4.414 -0.248622 0
M  V30 3866 N 368.047 0.979072 1.23499 0
M  V30 3867 C 369.458 0.684391 1.73704 0
M  V30 3868 C 369.809 -0.799448 1.79174 0
M  V30 3869 O 368.934 -1.62531 1.42873 0
M  V30 3870 C 369.529 1.23564 3.15464 0
M  V30 3871 C 368.088 0.99063 3.6313 0
M  V30 3872 C 367.235 1.36416 2.41425 0
M  V30 3873 H 370.186 1.15307 1.09041 0
M  V30 3874 H 370.207 0.607417 3.7562 0
M  V30 3875 H 369.719 2.31561 3.1145 0
M  V30 3876 H 367.82 -0.0733136 3.72528 0
M  V30 3877 H 367.933 1.64427 4.5 0
M  V30 3878 H 366.297 0.782616 2.42378 0
M  V30 3879 H 367.08 2.45387 2.40083 0
M  V30 3880 N 369.525 -1.3858 0.750561 0
M  V30 3881 C 370.774 -1.99424 0.302172 0
M  V30 3882 C 371.087 -1.60254 -1.12152 0
M  V30 3883 O 372.293 -2.14046 -1.67023 0
M  V30 3884 C 370.749 -3.56558 0.489307 0
M  V30 3885 C 370.357 -4.04682 1.92189 0
M  V30 3886 C 372.101 -4.24374 0.103478 0
M  V30 3887 C 370.008 -5.54446 2.05775 0
M  V30 3888 H 368.938 -0.746046 0.10923 0
M  V30 3889 H 371.589 -1.58383 0.92667 0
M  V30 3890 H 369.971 -3.95472 -0.204329 0
M  V30 3891 H 371.145 -3.77065 2.64875 0
M  V30 3892 H 369.46 -3.4958 2.26236 0
M  V30 3893 H 372.057 -5.34384 0.183787 0
M  V30 3894 H 372.4 -4.05468 -0.943481 0
M  V30 3895 H 372.933 -3.90688 0.748854 0
M  V30 3896 H 369.672 -5.78252 3.08714 0
M  V30 3897 H 369.192 -5.83816 1.37546 0
M  V30 3898 H 370.871 -6.20099 1.84626 0
M  V30 3899 N 371.003 -0.499398 -1.49478 0
M  V30 3900 C 372.251 0.0455996 -2.02049 0
M  V30 3901 C 372.572 1.37633 -1.38138 0
M  V30 3902 O 371.842 1.8842 -0.536166 0
M  V30 3903 H 370.422 0.0198416 -0.746736 0
M  V30 3904 H 373.084 -0.656274 -1.83519 0
M  V30 3905 H 372.18 0.176445 -3.11601 0
M  V30 3906 N 372.481 1.55866 -0.233164 0
M  V30 3907 C 373.897 1.59133 0.121988 0
M  V30 3908 C 374.097 1.25016 1.58029 0
M  V30 3909 O 373.153 0.990922 2.32243 0
M  V30 3910 C 374.466 2.99932 -0.214792 0
M  V30 3911 C 376.014 3.12601 -0.157971 0
M  V30 3912 C 376.489 4.55597 -0.46859 0
M  V30 3913 N 377.98 4.61305 -0.418585 0
M  V30 3914 C 378.715 5.69903 -0.63227 0
M  V30 3915 N 378.211 6.86819 -0.90835 0
M  V30 3916 N 380.004 5.59264 -0.563913 0
M  V30 3917 H 372.155 1.76315 -1.18434 0
M  V30 3918 H 374.418 0.820093 -0.475553 0
M  V30 3919 H 374.124 3.29588 -1.22739 0
M  V30 3920 H 373.998 3.74327 0.464691 0
M  V30 3921 H 376.385 2.82735 0.845283 0
M  V30 3922 H 376.466 2.40511 -0.871102 0
M  V30 3923 H 376.11 4.86182 -1.46934 0
M  V30 3924 H 376.04 5.25928 0.265865 0
M  V30 3925 H 378.531 3.77297 -0.213368 0
M  V30 3926 H 378.844 7.65507 -1.05919 0
M  V30 3927 H 377.189 6.88536 -0.945673 0
M  V30 3928 H 380.38 4.66802 -0.348372 0
M  V30 3929 H 380.553 6.43831 -0.733847 0
M  V30 3930 N 373.959 -0.0401083 1.57549 0
M  V30 3931 C 375.199 -0.738098 1.90608 0
M  V30 3932 C 375.563 -1.73107 0.830539 0
M  V30 3933 O 376.764 -2.4765 1.04513 0
M  V30 3934 C 375.035 -1.39985 3.28845 0
M  V30 3935 S 376.594 -2.12852 3.83718 0
M  V30 3936 H 373.412 -0.24477 0.667539 0
M  V30 3937 H 376.014 0.00693599 1.95499 0
M  V30 3938 H 374.718 -0.663775 4.04997 0
M  V30 3939 H 374.249 -2.18366 3.2723 0
M  V30 3940 H 376.264 -3.39842 3.61555 0
M  V30 3941 N 375.437 -1.54477 -0.31217 0
M  V30 3942 C 376.37 -1.79519 -1.40884 0
M  V30 3943 C 377.348 -0.645753 -1.49227 0
M  V30 3944 O 378.532 -0.884468 -1.66461 0
M  V30 3945 C 375.659 -1.92194 -2.78889 0
M  V30 3946 C 374.705 -3.14555 -2.88023 0
M  V30 3947 S 375.538 -4.72893 -2.51262 0
M  V30 3948 C 376.694 -4.8849 -3.91317 0
M  V30 3949 H 376.927 -2.72256 -1.19432 0
M  V30 3950 H 374.46 -1.45746 -0.509654 0
M  V30 3951 H 376.418 -2.00182 -3.58382 0
M  V30 3952 H 375.079 -1.00414 -2.97617 0
M  V30 3953 H 374.272 -3.20193 -3.89221 0
M  V30 3954 H 373.874 -3.04955 -2.16514 0
M  V30 3955 H 376.166 -4.71826 -4.86196 0
M  V30 3956 H 377.109 -5.90588 -3.90656 0
M  V30 3957 H 377.517 -4.16715 -3.80801 0
M  V30 3958 N 376.915 0.57481 -1.46744 0
M  V30 3959 C 378.155 1.34369 -1.54027 0
M  V30 3960 C 378.519 1.91051 -0.190642 0
M  V30 3961 O 379.72 2.68444 -0.138255 0
M  V30 3962 C 377.991 2.43706 -2.61423 0
M  V30 3963 S 379.55 3.30915 -2.88167 0
M  V30 3964 H 376.368 0.45768 -0.544105 0
M  V30 3965 H 378.97 0.659959 -1.84024 0
M  V30 3966 H 377.674 2.0047 -3.58106 0
M  V30 3967 H 377.205 3.16842 -2.33184 0
M  V30 3968 H 379.22 4.42742 -2.24039 0
M  V30 3969 N 378.394 1.34581 0.820102 0
M  V30 3970 C 379.341 1.2639 1.93117 0
M  V30 3971 C 380.311 0.138554 1.65521 0
M  V30 3972 O 381.496 0.320004 1.88097 0
M  V30 3973 C 378.636 1.02812 3.29429 0
M  V30 3974 C 377.749 2.24146 3.693 0
M  V30 3975 C 376.884 1.93829 4.94574 0
M  V30 3976 C 375.923 3.1129 5.27034 0
M  V30 3977 N 375.06 2.80838 6.43486 0
M  V30 3978 H 379.9 2.21408 1.99455 0
M  V30 3979 H 377.437 1.10077 0.975784 0
M  V30 3980 H 379.395 0.871788 4.0799 0
M  V30 3981 H 378.025 0.114612 3.22596 0
M  V30 3982 H 377.077 2.50691 2.86109 0
M  V30 3983 H 378.389 3.11899 3.89257 0
M  V30 3984 H 377.543 1.74948 5.80929 0
M  V30 3985 H 376.282 1.03341 4.76626 0
M  V30 3986 H 375.287 3.30764 4.39175 0
M  V30 3987 H 376.512 4.02561 5.4692 0
M  V30 3988 H 374.458 1.92929 6.26988 0
M  V30 3989 H 374.375 3.62123 6.63629 0
M  V30 3990 H 375.643 2.65467 7.32903 0
M  V30 3991 N 379.872 -1.04064 1.18357 0
M  V30 3992 C 380.835 -2.10243 0.912707 0
M  V30 3993 C 381.835 -1.60477 -0.101928 0
M  V30 3994 O 383.025 -1.73703 0.131517 0
M  V30 3995 C 380.157 -3.38893 0.369387 0
M  V30 3996 H 381.35 -2.35706 1.85426 0
M  V30 3997 H 378.903 -1.20489 0.995594 0
M  V30 3998 H 379.638 -3.19094 -0.578776 0
M  V30 3999 H 379.423 -3.76331 1.1008 0
M  V30 4000 H 380.913 -4.17128 0.198575 0
M  V30 4001 N 381.35 -0.985608 -1.22978 0
M  V30 4002 C 382.598 -0.656087 -1.91154 0
M  V30 4003 C 382.919 0.813561 -1.77218 0
M  V30 4004 O 382.189 1.58244 -1.1548 0
M  V30 4005 H 380.769 -0.239674 -0.707506 0
M  V30 4006 H 383.431 -1.25054 -1.49491 0
M  V30 4007 H 382.527 -0.912253 -2.9847 0
M  V30 4008 N 382.828 1.3818 -0.7579 0
M  V30 4009 C 384.075 2.00019 -0.315985 0
M  V30 4010 C 384.403 1.60163 1.10355 0
M  V30 4011 O 383.658 0.83264 1.77103 0
M  V30 4012 C 383.957 3.55252 -0.391218 0
M  V30 4013 C 383.623 4.14834 -1.76702 0
M  V30 4014 C 382.285 4.30821 -2.14353 0
M  V30 4015 C 384.637 4.47658 -2.66931 0
M  V30 4016 C 381.965 4.76928 -3.41696 0
M  V30 4017 C 384.317 4.95184 -3.93669 0
M  V30 4018 C 382.981 5.09377 -4.31383 0
M  V30 4019 H 382.251 0.731923 -0.115627 0
M  V30 4020 H 384.898 1.65161 -0.969223 0
M  V30 4021 H 383.203 3.90273 0.34558 0
M  V30 4022 H 384.9 4.00988 -0.030805 0
M  V30 4023 H 381.49 4.02808 -1.46435 0
M  V30 4024 H 385.674 4.34904 -2.39106 0
M  V30 4025 H 380.93 4.86103 -3.70829 0
M  V30 4026 H 385.104 5.19551 -4.63724 0
M  V30 4027 H 382.731 5.44865 -5.30119 0
M  V30 4028 N 384.306 0.507319 1.49211 0
M  V30 4029 C 385.216 -0.272136 2.33016 0
M  V30 4030 C 386.232 -0.961206 1.45041 0
M  V30 4031 O 387.408 -0.941191 1.78055 0
M  V30 4032 C 384.473 -1.31895 3.20631 0
M  V30 4033 C 383.534 -0.642648 4.24463 0
M  V30 4034 C 382.767 -1.63959 5.07891 0
M  V30 4035 O 382.99 -2.87007 4.92933 0
M  V30 4036 O 381.924 -1.19143 5.8999 0
M  V30 4037 H 385.75 0.413982 3.00865 0
M  V30 4038 H 383.335 0.268556 1.46966 0
M  V30 4039 H 385.217 -1.92446 3.7489 0
M  V30 4040 H 383.892 -1.98788 2.5547 0
M  V30 4041 H 382.799 0.00276252 3.741 0
M  V30 4042 H 384.132 -0.0160534 4.92197 0
M  V30 4043 N 385.784 -1.5574 0.241426 0
M  V30 4044 C 386.747 -2.19877 -0.647063 0
M  V30 4045 C 387.747 -1.16642 -1.10686 0
M  V30 4046 O 388.937 -1.41757 -1.01245 0
M  V30 4047 C 386.069 -2.83797 -1.88871 0
M  V30 4048 H 387.262 -2.99772 -0.087574 0
M  V30 4049 H 384.815 -1.56298 -0.00813574 0
M  V30 4050 H 385.55 -2.07824 -2.48957 0
M  V30 4051 H 385.335 -3.59414 -1.56728 0
M  V30 4052 H 386.825 -3.32898 -2.52129 0
M  V30 4053 N 387.262 0.0317525 -1.57568 0
M  V30 4054 C 388.508 0.724175 -1.8943 0
M  V30 4055 C 388.841 1.75149 -0.838836 0
M  V30 4056 O 388.116 1.93948 0.146422 0
M  V30 4057 C 388.399 1.39615 -3.31933 0
M  V30 4058 C 388.252 0.382537 -4.4817 0
M  V30 4059 C 389.571 2.33084 -3.73309 0
M  V30 4060 H 386.69 0.261797 -0.688935 0
M  V30 4061 H 389.332 -0.013017 -1.89996 0
M  V30 4062 H 387.482 2.02451 -3.31581 0
M  V30 4063 H 389.154 -0.243689 -4.60656 0
M  V30 4064 H 387.397 -0.29844 -4.32772 0
M  V30 4065 H 388.068 0.891145 -5.44759 0
M  V30 4066 H 390.544 1.80295 -3.7501 0
M  V30 4067 H 389.42 2.77084 -4.73831 0
M  V30 4068 H 389.681 3.19643 -3.05419 0
M  V30 4069 N 388.74 1.54641 0.303973 0
M  V30 4070 C 389.65 1.88439 1.39743 0
M  V30 4071 C 390.666 0.778239 1.55626 0
M  V30 4072 O 391.842 1.07442 1.70347 0
M  V30 4073 C 388.907 2.12212 2.74166 0
M  V30 4074 C 387.968 3.35936 2.67293 0
M  V30 4075 C 387.201 3.58566 3.95305 0
M  V30 4076 O 387.424 2.84263 4.9452 0
M  V30 4077 O 386.358 4.52078 3.97378 0
M  V30 4078 H 390.184 2.81458 1.14083 0
M  V30 4079 H 387.769 1.40793 0.499768 0
M  V30 4080 H 389.651 2.29067 3.53704 0
M  V30 4081 H 388.326 1.22379 2.99675 0
M  V30 4082 H 387.233 3.24448 1.86237 0
M  V30 4083 H 388.566 4.2589 2.46736 0
M  V30 4084 N 390.218 -0.567019 1.47046 0
M  V30 4085 C 391.166 -1.69593 1.59188 0
M  V30 4086 C 392.16 -1.63046 0.459609 0
M  V30 4087 O 393.366 -1.6835 0.637058 0
M  V30 4088 H 389.741 -0.560993 0.500791 0
M  V30 4089 H 391.712 -1.56488 2.54075 0
M  V30 4090 C 390.461 -3.07964 1.61411 0
M  V30 4091 H 389.784 -3.13679 2.47881 0
M  V30 4092 H 391.224 -3.86671 1.73958 0
M  V30 4093 C 389.683 -3.35123 0.34559 0
M  V30 4094 O 390.213 -3.97812 -0.557521 0
M  V30 4095 N 388.419 -2.89699 0.22864 0
M  V30 4096 H 387.966 -2.38863 0.964479 0
M  V30 4097 H 387.924 -3.08242 -0.619192 0
M  V30 4098 N 391.696 -1.35014 -0.812953 0
M  V30 4099 C 392.944 -1.27678 -1.56661 0
M  V30 4100 C 393.265 0.150359 -1.94419 0
M  V30 4101 O 392.535 1.08532 -1.63088 0
M  V30 4102 H 391.115 -0.469602 -0.580933 0
M  V30 4103 H 393.777 -1.69043 -0.970076 0
M  V30 4104 H 392.873 -1.88833 -2.48492 0
M  V30 4105 N 393.175 1.03435 -1.18907 0
M  V30 4106 C 394.403 1.80381 -1.01342 0
M  V30 4107 C 394.818 1.83649 0.438005 0
M  V30 4108 O 394.175 1.27655 1.30424 0
M  V30 4109 C 394.226 3.25689 -1.56873 0
M  V30 4110 O 393.947 3.22673 -2.96334 0
M  V30 4111 C 395.448 4.19255 -1.44014 0
M  V30 4112 H 392.668 0.56784 -0.35749 0
M  V30 4113 H 395.212 1.30317 -1.576 0
M  V30 4114 H 393.367 3.72962 -1.04777 0
M  V30 4115 H 393.781 4.13748 -3.22355 0
M  V30 4116 H 395.255 5.19123 -1.87657 0
M  V30 4117 H 395.732 4.37467 -0.389815 0
M  V30 4118 H 396.338 3.77851 -1.95214 0
M  V30 4119 N 394.653 0.992116 1.22453 0
M  V30 4120 C 395.899 0.668523 1.91464 0
M  V30 4121 C 396.232 -0.797313 1.77078 0
M  V30 4122 O 395.507 -1.5765 1.13916 0
M  V30 4123 C 395.79 1.07424 3.43703 0
M  V30 4124 C 395.643 2.59857 3.67143 0
M  V30 4125 C 396.962 0.626891 4.35612 0
M  V30 4126 H 394.081 0.244341 0.695318 0
M  V30 4127 H 396.723 1.2355 1.44345 0
M  V30 4128 H 394.873 0.591816 3.83966 0
M  V30 4129 H 396.545 3.15764 3.3629 0
M  V30 4130 H 394.788 3.01961 3.11451 0
M  V30 4131 H 395.459 2.83296 4.73759 0
M  V30 4132 H 397.935 1.04125 4.02861 0
M  V30 4133 H 396.811 0.939076 5.40807 0
M  V30 4134 H 397.072 -0.472457 4.39568 0
M  V30 4135 N 396.131 -1.37776 0.765217 0
M  V30 4136 C 397.371 -2.01691 0.331669 0
M  V30 4137 C 397.735 -1.59432 -1.06983 0
M  V30 4138 O 398.936 -2.15761 -1.60314 0
M  V30 4139 C 397.207 -3.54385 0.463261 0
M  V30 4140 S 398.766 -4.38652 0.114011 0
M  V30 4141 H 395.584 -0.699387 0.127979 0
M  V30 4142 H 398.186 -1.68084 0.998396 0
M  V30 4143 H 396.89 -3.82629 1.48401 0
M  V30 4144 H 396.421 -3.92783 -0.220246 0
M  V30 4145 H 398.436 -4.84021 -1.09261 0
M  V30 4146 N 397.609 -0.515225 -1.4894 0
M  V30 4147 C 399.025 -0.172099 -1.58669 0
M  V30 4148 C 399.225 1.32405 -1.51892 0
M  V30 4149 O 398.281 2.10116 -1.40027 0
M  V30 4150 C 399.594 -0.761533 -2.90897 0
M  V30 4151 C 401.142 -0.728926 -3.04394 0
M  V30 4152 C 401.617 -1.29667 -4.39261 0
M  V30 4153 N 403.108 -1.25799 -4.4579 0
M  V30 4154 C 403.843 -1.66733 -5.48623 0
M  V30 4155 N 403.339 -2.15327 -6.58488 0
M  V30 4156 N 405.132 -1.58061 -5.39419 0
M  V30 4157 H 397.283 -1.48778 -1.51588 0
M  V30 4158 H 399.546 -0.617968 -0.718901 0
M  V30 4159 H 399.252 -1.81136 -3.01468 0
M  V30 4160 H 399.126 -0.230106 -3.76497 0
M  V30 4161 H 401.513 0.312098 -2.93445 0
M  V30 4162 H 401.594 -1.29766 -2.20442 0
M  V30 4163 H 401.238 -2.33655 -4.50963 0
M  V30 4164 H 401.168 -0.703752 -5.21876 0
M  V30 4165 H 403.659 -0.902102 -3.66975 0
M  V30 4166 H 403.972 -2.44594 -7.33071 0
M  V30 4167 H 402.317 -2.19311 -6.59491 0
M  V30 4168 H 405.508 -1.19906 -4.52482 0
M  V30 4169 H 405.681 -1.90284 -6.19432 0
M  V30 4170 N 399.087 1.5561 -0.249682 0
M  V30 4171 C 400.335 1.98618 0.373548 0
M  V30 4172 C 400.656 1.13919 1.58264 0
M  V30 4173 O 399.926 0.222637 1.94631 0
M  V30 4174 H 398.506 0.733571 0.141006 0
M  V30 4175 H 401.168 1.91748 -0.349117 0
M  V30 4176 H 400.264 3.04584 0.680796 0
M  V30 4177 N 400.565 -0.0233959 1.57583 0
M  V30 4178 C 401.805 -0.71784 1.9138 0
M  V30 4179 C 402.169 -1.72216 0.848853 0
M  V30 4180 O 403.37 -2.46527 1.07134 0
M  V30 4181 C 401.641 -1.36489 3.30311 0
M  V30 4182 S 403.2 -2.0877 3.85954 0
M  V30 4183 H 400.018 -0.237676 0.670098 0
M  V30 4184 H 402.62 0.0276709 1.9548 0
M  V30 4185 H 401.324 -0.620782 4.05678 0
M  V30 4186 H 400.855 -2.14883 3.29528 0
M  V30 4187 H 402.87 -3.35988 3.65139 0
M  V30 4188 N 402.043 -1.548 -0.295768 0
M  V30 4189 C 403.454 -1.65274 -0.868411 0
M  V30 4190 C 403.805 -0.56481 -1.87894 0
M  V30 4191 O 402.93 0.29767 -2.14343 0
M  V30 4192 C 403.525 -2.99603 -1.58188 0
M  V30 4193 C 402.084 -3.12181 -2.10286 0
M  V30 4194 C 401.231 -2.6098 -0.93727 0
M  V30 4195 H 404.182 -1.58534 -0.0726422 0
M  V30 4196 H 404.203 -2.91319 -2.44772 0
M  V30 4197 H 403.715 -3.78764 -0.846151 0
M  V30 4198 H 401.816 -2.3775 -2.8689 0
M  V30 4199 H 401.929 -4.18415 -2.33379 0
M  V30 4200 H 400.293 -2.17564 -1.32431 0
M  V30 4201 H 401.076 -3.42623 -0.215414 0
M  V30 4202 N 403.521 0.559213 -1.47345 0
M  V30 4203 C 404.746 1.34676 -1.57725 0
M  V30 4204 C 405.171 1.86723 -0.227164 0
M  V30 4205 O 404.529 1.6286 0.796642 0
M  V30 4206 C 404.577 2.49399 -2.60447 0
M  V30 4207 O 403.681 3.51567 -2.15578 0
M  V30 4208 H 403.022 0.400115 -0.52991 0
M  V30 4209 H 405.552 0.676009 -1.93109 0
M  V30 4210 H 405.562 2.95996 -2.80803 0
M  V30 4211 H 404.237 2.10873 -3.58477 0
M  V30 4212 H 402.814 3.11289 -2.05313 0
M  V30 4213 N 404.999 1.35443 0.805782 0
M  V30 4214 C 406.247 1.28507 1.55982 0
M  V30 4215 C 406.568 -0.140046 1.94496 0
M  V30 4216 O 405.838 -1.07666 1.63661 0
M  V30 4217 H 404.418 0.472676 0.578434 0
M  V30 4218 H 407.08 1.69555 0.961098 0
M  V30 4219 H 406.176 1.90148 2.47488 0
M  V30 4220 N 406.477 -1.02803 1.19454 0
M  V30 4221 C 407.705 -1.79841 1.02297 0
M  V30 4222 C 408.12 -1.83879 -0.428259 0
M  V30 4223 O 407.477 -1.28345 -1.29745 0
M  V30 4224 C 407.528 -3.24852 1.58598 0
M  V30 4225 O 407.249 -3.21097 2.98041 0
M  V30 4226 C 408.75 -4.18485 1.46236 0
M  V30 4227 H 405.97 -0.565936 0.360496 0
M  V30 4228 H 408.514 -1.2948 1.58288 0
M  V30 4229 H 406.669 -3.72401 1.06753 0
M  V30 4230 H 407.083 -4.12033 3.24545 0
M  V30 4231 H 408.557 -5.18121 1.90407 0
M  V30 4232 H 409.034 -4.37254 0.41301 0
M  V30 4233 H 409.64 -3.76811 1.97215 0
M  V30 4234 N 407.956 -0.998596 -1.21925 0
M  V30 4235 C 409.203 -0.677663 -1.90824 0
M  V30 4236 C 409.531 0.790905 -1.77693 0
M  V30 4237 O 408.786 1.58817 -1.14349 0
M  V30 4238 C 409.085 -1.03648 -3.42041 0
M  V30 4239 C 408.751 -2.49825 -3.75364 0
M  V30 4240 C 407.413 -2.8977 -3.8417 0
M  V30 4241 C 409.765 -3.44545 -3.91073 0
M  V30 4242 C 407.093 -4.23412 -4.06127 0
M  V30 4243 C 409.445 -4.77853 -4.14535 0
M  V30 4244 C 408.109 -5.17531 -4.21566 0
M  V30 4245 H 407.379 -0.247975 -0.698276 0
M  V30 4246 H 410.026 -1.25584 -1.44571 0
M  V30 4247 H 408.331 -0.376457 -3.89987 0
M  V30 4248 H 410.028 -0.766113 -3.93614 0
M  V30 4249 H 406.618 -2.17866 -3.69097 0
M  V30 4250 H 410.802 -3.14853 -3.83642 0
M  V30 4251 H 406.058 -4.53734 -4.09799 0
M  V30 4252 H 410.232 -5.51189 -4.25633 0
M  V30 4253 H 407.859 -6.21102 -4.38333 0
M  V30 4254 N 409.434 1.37368 -0.772513 0
M  V30 4255 C 410.381 2.30262 -0.157488 0
M  V30 4256 C 411.351 1.51137 0.688965 0
M  V30 4257 O 412.536 1.79704 0.641168 0
M  V30 4258 C 409.676 3.37611 0.715045 0
M  V30 4259 C 408.789 4.31746 -0.148098 0
M  V30 4260 C 407.924 5.26171 0.729213 0
M  V30 4261 C 406.963 6.11948 -0.136418 0
M  V30 4262 N 406.1 6.98613 0.698914 0
M  V30 4263 H 410.94 2.82277 -0.955179 0
M  V30 4264 H 408.477 1.38957 -0.482631 0
M  V30 4265 H 410.435 3.98479 1.23575 0
M  V30 4266 H 409.065 2.86959 1.47833 0
M  V30 4267 H 408.117 3.72178 -0.786613 0
M  V30 4268 H 409.429 4.92084 -0.81579 0
M  V30 4269 H 408.583 5.92247 1.31637 0
M  V30 4270 H 407.322 4.66246 1.43059 0
M  V30 4271 H 406.327 5.4485 -0.736102 0
M  V30 4272 H 407.552 6.73945 -0.835134 0
M  V30 4273 H 405.498 6.41215 1.38489 0
M  V30 4274 H 405.415 7.55948 0.0885358 0
M  V30 4275 H 406.683 7.69077 1.27044 0
M  V30 4276 N 410.912 0.523116 1.48665 0
M  V30 4277 C 411.875 -0.232592 2.28017 0
M  V30 4278 C 412.875 -0.874021 1.34972 0
M  V30 4279 O 414.065 -0.735132 1.57929 0
M  V30 4280 C 411.197 -1.33586 3.13636 0
M  V30 4281 H 412.39 0.464008 2.96289 0
M  V30 4282 H 409.943 0.278816 1.53793 0
M  V30 4283 H 410.678 -2.06593 2.4998 0
M  V30 4284 H 410.463 -0.881125 3.82071 0
M  V30 4285 H 411.953 -1.86759 3.73511 0
M  V30 4286 N 412.39 -1.55475 0.257931 0
M  V30 4287 C 413.338 -2.23244 -0.653076 0
M  V30 4288 C 414.332 -1.22366 -1.17144 0
M  V30 4289 O 415.538 -1.40347 -1.12706 0
M  V30 4290 H 411.913 -0.716247 -0.229117 0
M  V30 4291 H 413.884 -2.98343 -0.0584788 0
M  V30 4292 C 412.633 -2.95401 -1.83395 0
M  V30 4293 H 411.956 -3.72802 -1.44424 0
M  V30 4294 H 413.396 -3.46165 -2.44838 0
M  V30 4295 C 411.855 -1.99895 -2.71189 0
M  V30 4296 O 412.385 -1.53909 -3.71046 0
M  V30 4297 N 410.591 -1.6676 -2.3799 0
M  V30 4298 H 410.138 -2.04352 -1.56837 0
M  V30 4299 H 410.096 -1.03127 -2.97005 0
M  V30 4300 N 413.868 0.0150385 -1.57593 0
M  V30 4301 C 414.8 1.03912 -2.04291 0
M  V30 4302 C 415.813 1.31618 -0.958146 0
M  V30 4303 O 417.002 1.28859 -1.23522 0
M  V30 4304 C 414.102 2.37749 -2.41514 0
M  V30 4305 C 413.275 2.29198 -3.72541 0
M  V30 4306 C 412.334 3.45598 -3.96797 0
M  V30 4307 O 411.36 3.24461 -4.67668 0
M  V30 4308 N 412.562 4.67945 -3.43523 0
M  V30 4309 H 415.327 0.64099 -2.92765 0
M  V30 4310 H 412.888 0.20272 -1.60626 0
M  V30 4311 H 414.88 3.14364 -2.54867 0
M  V30 4312 H 413.45 2.69357 -1.58637 0
M  V30 4313 H 412.67 1.3759 -3.69408 0
M  V30 4314 H 413.958 2.20642 -4.5847 0
M  V30 4315 H 413.356 4.88017 -2.86104 0
M  V30 4316 H 411.913 5.41878 -3.62232 0
M  V30 4317 N 415.346 1.54954 0.287554 0
M  V30 4318 C 416.594 1.74528 1.01904 0
M  V30 4319 C 416.915 0.541349 1.87335 0
M  V30 4320 O 416.185 -0.444108 1.908 0
M  V30 4321 H 414.765 0.643576 0.379235 0
M  V30 4322 H 417.427 1.92333 0.315294 0
M  V30 4323 H 416.523 2.64015 1.6644 0
M  V30 4324 N 416.824 -0.551391 1.4764 0
M  V30 4325 C 418.101 -1.31229 1.45046 0
M  V30 4326 C 418.481 -2.10563 0.150527 0
M  V30 4327 O 417.829 -2.11374 -0.867956 0
M  V30 4328 C 418.039 -2.21189 2.69956 0
M  V30 4329 C 419.387 -2.82021 3.1741 0
M  V30 4330 O 420.411 -2.31488 2.70724 0
M  V30 4331 O 419.27 -3.73885 3.98588 0
M  V30 4332 H 416.364 -0.591193 0.578291 0
M  V30 4333 H 418.91 -0.569813 1.59847 0
M  V30 4334 H 417.682 -1.62207 3.56096 0
M  V30 4335 H 417.305 -3.02722 2.57769 0
M  V30 4336 N 418.302 -1.35869 -0.798587 0
M  V30 4337 C 419.212 -1.31578 -1.94228 0
M  V30 4338 C 420.228 -0.21939 -1.72611 0
M  V30 4339 O 421.404 -0.450167 -1.96305 0
M  V30 4340 C 418.469 -1.09528 -3.28944 0
M  V30 4341 C 417.53 -2.28556 -3.63402 0
M  V30 4342 C 416.763 -2.07549 -4.9169 0
M  V30 4343 O 416.986 -1.046 -5.60727 0
M  V30 4344 O 415.92 -2.95106 -5.24591 0
M  V30 4345 H 419.746 -2.27847 -2.00796 0
M  V30 4346 H 417.331 -1.16322 -0.937526 0
M  V30 4347 H 419.213 -0.991127 -4.09579 0
M  V30 4348 H 417.888 -0.16315 -3.23289 0
M  V30 4349 H 416.795 -2.44538 -2.83112 0
M  V30 4350 H 418.128 -3.20244 -3.73771 0
M  V30 4351 N 419.78 1.02168 -1.19998 0
M  V30 4352 C 420.743 2.08765 -0.94604 0
M  V30 4353 C 421.743 1.60618 0.0763846 0
M  V30 4354 O 422.933 1.73472 -0.159135 0
M  V30 4355 C 420.065 3.38262 -0.423255 0
M  V30 4356 H 421.258 2.32726 -1.89153 0
M  V30 4357 H 418.811 1.1889 -1.01464 0
M  V30 4358 H 419.546 3.19974 0.527938 0
M  V30 4359 H 419.331 3.74532 -1.16053 0
M  V30 4360 H 420.821 4.16759 -0.264911 0
M  V30 4361 N 421.258 1.00505 1.21394 0
M  V30 4362 C 422.498 0.696149 1.9218 0
M  V30 4363 C 422.862 -0.759099 1.76357 0
M  V30 4364 O 424.063 -1.17998 2.41516 0
M  V30 4365 C 422.334 1.10571 3.39866 0
M  V30 4366 S 423.893 0.91702 4.29111 0
M  V30 4367 H 420.711 0.254147 0.664026 0
M  V30 4368 H 423.313 1.28988 1.46909 0
M  V30 4369 H 422.017 2.16096 3.489 0
M  V30 4370 H 421.548 0.504268 3.90155 0
M  V30 4371 H 423.563 -0.185855 4.95852 0
M  V30 4372 N 422.737 -1.36956 0.779787 0
M  V30 4373 C 423.965 -2.03755 0.359398 0
M  V30 4374 C 424.38 -1.58807 -1.02106 0
M  V30 4375 O 423.737 -0.773024 -1.6532 0
M  V30 4376 C 423.788 -3.59251 0.402568 0
M  V30 4377 O 423.509 -4.02557 1.72858 0
M  V30 4378 C 425.01 -4.43291 -0.0284068 0
M  V30 4379 H 422.23 -0.654148 0.149437 0
M  V30 4380 H 424.774 -1.75128 1.05595 0
M  V30 4381 H 422.929 -3.86621 -0.245478 0
M  V30 4382 H 423.343 -4.97111 1.67275 0
M  V30 4383 H 424.817 -5.51975 0.0529466 0
M  V30 4384 H 425.294 -4.25719 -1.07982 0
M  V30 4385 H 425.9 -4.21163 0.591758 0
M  V30 4386 N 424.215 -0.530993 -1.48385 0
M  V30 4387 C 425.165 0.251092 -2.26613 0
M  V30 4388 C 426.149 0.908977 -1.32765 0
M  V30 4389 O 427.341 0.811616 -1.57295 0
M  V30 4390 C 424.47 1.29677 -3.17866 0
M  V30 4391 C 423.556 0.643627 -4.19188 0
M  V30 4392 N 423.947 -0.271223 -5.05072 0
M  V30 4393 C 422.245 0.900711 -4.3681 0
M  V30 4394 C 422.946 -0.648109 -5.78078 0
M  V30 4395 N 421.922 -0.00895987 -5.43599 0
M  V30 4396 H 425.724 -0.452702 -2.90393 0
M  V30 4397 H 423.238 -0.349091 -1.58604 0
M  V30 4398 H 425.235 1.87079 -3.72568 0
M  V30 4399 H 423.895 2.00193 -2.55642 0
M  V30 4400 H 424.906 -0.643883 -5.13882 0
M  V30 4401 H 421.583 1.59636 -3.85775 0
M  V30 4402 H 422.973 -1.39833 -6.57188 0
M  V30 4403 N 425.693 1.55336 -0.266172 0
M  V30 4404 C 426.933 2.01303 0.354459 0
M  V30 4405 C 427.297 1.15046 1.53715 0
M  V30 4406 O 428.498 1.50554 2.22681 0
M  V30 4407 C 426.769 3.49748 0.735579 0
M  V30 4408 S 428.328 4.1771 1.34401 0
M  V30 4409 H 425.146 0.702333 0.110674 0
M  V30 4410 H 427.748 1.91653 -0.385916 0
M  V30 4411 H 426.452 4.10181 -0.134196 0
M  V30 4412 H 425.983 3.63364 1.50764 0
M  V30 4413 H 427.998 4.20594 2.63278 0
M  V30 4414 N 427.171 -0.0066808 1.57599 0
M  V30 4415 C 428.582 -0.550379 1.78403 0
M  V30 4416 C 428.933 -1.74339 0.900014 0
M  V30 4417 O 428.058 -2.16166 0.100713 0
M  V30 4418 C 428.653 -1.00523 3.23544 0
M  V30 4419 C 427.212 -1.49428 3.45468 0
M  V30 4420 C 426.359 -0.442444 2.73748 0
M  V30 4421 H 429.31 0.219508 1.57175 0
M  V30 4422 H 429.331 -1.87157 3.31289 0
M  V30 4423 H 428.843 -0.136735 3.87859 0
M  V30 4424 H 426.944 -2.3839 2.86358 0
M  V30 4425 H 427.057 -1.52635 4.54136 0
M  V30 4426 H 425.421 -0.902578 2.38171 0
M  V30 4427 H 426.204 0.416973 3.40758 0
M  V30 4428 N 428.649 -1.55105 -0.279332 0
M  V30 4429 C 429.898 -1.74618 -1.00952 0
M  V30 4430 C 430.211 -0.551096 -1.87676 0
M  V30 4431 O 431.417 -0.628507 -2.64125 0
M  V30 4432 C 429.873 -3.09025 -1.84476 0
M  V30 4433 C 429.481 -4.36081 -1.0265 0
M  V30 4434 C 431.225 -3.37891 -2.56963 0
M  V30 4435 C 429.132 -5.6153 -1.85576 0
M  V30 4436 H 428.062 -0.650868 -0.38064 0
M  V30 4437 H 430.713 -1.81569 -0.265475 0
M  V30 4438 H 429.095 -2.96095 -2.62952 0
M  V30 4439 H 430.269 -4.59909 -0.286354 0
M  V30 4440 H 428.584 -4.14312 -0.416464 0
M  V30 4441 H 431.181 -4.28822 -3.19399 0
M  V30 4442 H 431.524 -2.57737 -3.26921 0
M  V30 4443 H 432.057 -3.5189 -1.85522 0
M  V30 4444 H 428.796 -6.44413 -1.2005 0
M  V30 4445 H 428.316 -5.41854 -2.57204 0
M  V30 4446 H 429.995 -5.99594 -2.43096 0
M  V30 4447 N 430.127 0.543554 -1.4793 0
M  V30 4448 C 431.075 1.67039 -1.61866 0
M  V30 4449 C 432.069 1.62294 -0.48549 0
M  V30 4450 O 433.275 1.67315 -0.66376 0
M  V30 4451 H 429.65 0.552954 -0.509652 0
M  V30 4452 H 431.621 1.52426 -2.56533 0
M  V30 4453 C 430.37 3.05357 -1.6629 0
M  V30 4454 H 429.693 3.09696 -2.5284 0
M  V30 4455 H 431.133 3.83855 -1.80088 0
M  V30 4456 C 429.592 3.34531 -0.398861 0
M  V30 4457 O 430.122 3.98649 0.494162 0
M  V30 4458 N 428.328 2.89299 -0.2747 0
M  V30 4459 H 427.875 2.37298 -1.00236 0
M  V30 4460 H 427.833 3.09188 0.570075 0
M  V30 4461 N 431.605 1.3629 0.791371 0
M  V30 4462 C 432.83 1.33726 1.58531 0
M  V30 4463 C 433.255 -0.0794933 1.87932 0
M  V30 4464 O 432.613 -1.05087 1.47738 0
M  V30 4465 C 432.661 2.16425 2.88431 0
M  V30 4466 O 431.765 1.5554 3.81944 0
M  V30 4467 H 431.106 0.457793 0.480959 0
M  V30 4468 H 433.636 1.79547 0.981031 0
M  V30 4469 H 433.646 2.28933 3.37718 0
M  V30 4470 H 432.321 3.19415 2.66359 0
M  V30 4471 H 430.898 1.51961 3.40532 0
M  V30 4472 N 433.083 -1.0153 1.20538 0
M  V30 4473 C 434.499 -1.27461 0.96051 0
M  V30 4474 C 434.699 -1.98273 -0.359193 0
M  V30 4475 O 433.755 -2.27886 -1.0874 0
M  V30 4476 C 435.068 -2.10837 2.14402 0
M  V30 4477 C 436.616 -2.24099 2.18515 0
M  V30 4478 C 437.091 -3.10852 3.36355 0
M  V30 4479 N 438.582 -3.18441 3.36377 0
M  V30 4480 C 439.317 -3.85795 4.24205 0
M  V30 4481 N 438.813 -4.55264 5.22213 0
M  V30 4482 N 440.606 -3.82331 4.12043 0
M  V30 4483 H 432.757 -0.539907 2.05423 0
M  V30 4484 H 435.02 -0.30092 0.898972 0
M  V30 4485 H 434.726 -1.66144 3.09983 0
M  V30 4486 H 434.6 -3.11576 2.12604 0
M  V30 4487 H 436.987 -2.68016 1.23497 0
M  V30 4488 H 437.068 -1.22865 2.24361 0
M  V30 4489 H 436.712 -2.6764 4.31661 0
M  V30 4490 H 436.642 -4.12177 3.27746 0
M  V30 4491 H 439.133 -2.68978 2.65442 0
M  V30 4492 H 439.446 -5.04331 5.85551 0
M  V30 4493 H 437.791 -4.54085 5.26148 0
M  V30 4494 H 440.982 -3.27207 3.34743 0
M  V30 4495 H 441.155 -4.34547 4.807 0
M  V30 4496 N 434.561 -1.01147 -1.20859 0
M  V30 4497 C 435.789 -0.716911 -1.94082 0
M  V30 4498 C 436.204 0.721568 -1.74467 0
M  V30 4499 O 435.561 1.48889 -1.05539 0
M  V30 4500 C 435.612 -1.03662 -3.46318 0
M  V30 4501 O 435.333 -2.4186 -3.65288 0
M  V30 4502 C 436.834 -0.762386 -4.36695 0
M  V30 4503 H 434.054 -0.26367 -0.617024 0
M  V30 4504 H 436.598 -1.35127 -1.53496 0
M  V30 4505 H 434.753 -0.447757 -3.84804 0
M  V30 4506 H 435.167 -2.53224 -4.59323 0
M  V30 4507 H 436.641 -1.03621 -5.42187 0
M  V30 4508 H 437.118 0.303514 -4.3815 0
M  V30 4509 H 437.724 -1.33316 -4.03865 0
M  V30 4510 N 436.039 1.36541 -0.78704 0
M  V30 4511 C 437.267 2.03561 -0.370199 0
M  V30 4512 C 437.682 1.59347 1.01263 0
M  V30 4513 O 437.039 0.781781 1.64907 0
M  V30 4514 C 437.09 3.59033 -0.421614 0
M  V30 4515 O 436.811 4.01634 -1.7499 0
M  V30 4516 C 438.312 4.433 0.00489763 0
M  V30 4517 H 435.532 0.653346 -0.152904 0
M  V30 4518 H 438.076 1.74566 -1.06522 0
M  V30 4519 H 436.231 3.86746 0.224971 0
M  V30 4520 H 436.645 4.96217 -1.69909 0
M  V30 4521 H 438.119 5.51939 -0.0822184 0
M  V30 4522 H 438.596 4.26285 1.05723 0
M  V30 4523 H 439.202 4.20843 -0.614085 0
M  V30 4524 N 437.518 0.538854 1.48102 0
M  V30 4525 C 438.743 0.0102694 2.07397 0
M  V30 4526 C 439.168 -1.26562 1.39153 0
M  V30 4527 O 438.526 -1.75357 0.460387 0
M  V30 4528 C 438.574 -0.187602 3.60112 0
M  V30 4529 O 437.678 -1.25432 3.92862 0
M  V30 4530 H 437.019 0.0430975 0.6626 0
M  V30 4531 H 439.549 0.749301 1.90385 0
M  V30 4532 H 439.559 -0.407517 4.0596 0
M  V30 4533 H 438.234 0.744386 4.09184 0
M  V30 4534 H 436.811 -1.01636 3.58782 0
M  V30 4535 N 438.996 -1.55193 0.274407 0
M  V30 4536 C 439.906 -2.26164 -0.623473 0
M  V30 4537 C 440.922 -1.28729 -1.17068 0
M  V30 4538 O 442.098 -1.61663 -1.20112 0
M  V30 4539 C 439.163 -2.96833 -1.7914 0
M  V30 4540 C 438.224 -4.09745 -1.28093 0
M  V30 4541 C 437.457 -4.77034 -2.3932 0
M  V30 4542 O 437.68 -4.4353 -3.5866 0
M  V30 4543 O 436.614 -5.64996 -2.07516 0
M  V30 4544 H 440.44 -3.03661 -0.0485661 0
M  V30 4545 H 438.025 -1.49341 0.0418382 0
M  V30 4546 H 439.907 -3.41248 -2.4724 0
M  V30 4547 H 438.582 -2.22253 -2.35341 0
M  V30 4548 H 437.489 -3.69787 -0.566416 0
M  V30 4549 H 438.822 -4.86224 -0.764683 0
M  V30 4550 N 440.474 -0.00167713 -1.576 0
M  V30 4551 C 441.722 0.681471 -1.90264 0
M  V30 4552 C 442.043 1.7422 -0.875924 0
M  V30 4553 O 441.313 1.95709 0.0864412 0
M  V30 4554 H 439.893 0.254696 -0.702239 0
M  V30 4555 H 442.555 -0.0429996 -1.94853 0
M  V30 4556 H 441.651 1.15166 -2.90075 0
M  V30 4557 N 441.952 1.55251 0.271103 0
M  V30 4558 C 442.915 1.87484 1.31842 0
M  V30 4559 C 443.915 0.749545 1.42262 0
M  V30 4560 O 445.105 1.01771 1.4138 0
M  V30 4561 C 442.237 2.0818 2.69951 0
M  V30 4562 H 443.43 2.81108 1.0449 0
M  V30 4563 H 440.983 1.47771 0.509258 0
M  V30 4564 H 441.718 1.16944 3.02481 0
M  V30 4565 H 441.503 2.90114 2.63774 0
M  V30 4566 H 442.993 2.34385 3.4562 0
M  V30 4567 N 443.43 -0.535701 1.48216 0
M  V30 4568 C 444.658 -1.31671 1.59594 0
M  V30 4569 C 445.073 -1.87083 0.254056 0
M  V30 4570 O 444.43 -1.66112 -0.755854 0
M  V30 4571 C 444.481 -2.47158 2.63809 0
M  V30 4572 O 444.202 -1.94032 3.92789 0
M  V30 4573 C 445.703 -3.39062 2.85573 0
M  V30 4574 H 442.923 -0.400623 0.538277 0
M  V30 4575 H 445.467 -0.646827 1.94001 0
M  V30 4576 H 443.622 -3.10043 2.32276 0
M  V30 4577 H 444.036 -2.69585 4.49916 0
M  V30 4578 H 445.51 -4.16459 3.62306 0
M  V30 4579 H 445.987 -3.93941 1.94184 0
M  V30 4580 H 446.593 -2.81975 3.18387 0
M  V30 4581 N 444.908 -1.36708 -0.784132 0
M  V30 4582 C 445.856 -1.31533 -1.91838 0
M  V30 4583 C 446.85 -0.206205 -1.6814 0
M  V30 4584 O 448.056 -0.373519 -1.76082 0
M  V30 4585 H 444.431 -0.409613 -0.630651 0
M  V30 4586 H 446.402 -2.2731 -1.9332 0
M  V30 4587 C 445.151 -1.12679 -3.28936 0
M  V30 4588 H 444.474 -1.97274 -3.4774 0
M  V30 4589 H 445.914 -1.13106 -4.08636 0
M  V30 4590 C 444.373 0.168281 -3.36479 0
M  V30 4591 O 444.903 1.15625 -3.84699 0
M  V30 4592 N 443.109 0.214762 -2.89805 0
M  V30 4593 H 442.656 -0.589852 -2.50756 0
M  V30 4594 H 442.614 1.08094 -2.95234 0
M  V30 4595 N 446.386 1.0089 -1.21074 0
M  V30 4596 C 447.626 1.76142 -1.03699 0
M  V30 4597 C 447.99 1.87292 0.422587 0
M  V30 4598 O 449.191 2.59068 0.716752 0
M  V30 4599 C 447.462 3.13805 -1.7106 0
M  V30 4600 S 449.021 4.04996 -1.68889 0
M  V30 4601 H 445.839 0.606113 -0.371683 0
M  V30 4602 H 448.441 1.20744 -1.53756 0
M  V30 4603 H 447.145 3.0332 -2.76451 0
M  V30 4604 H 446.676 3.74276 -1.21166 0
M  V30 4605 H 448.691 4.90842 -0.727211 0
M  V30 4606 N 447.864 1.01787 1.20321 0
M  V30 4607 C 449.11 0.708985 1.90003 0
M  V30 4608 C 449.443 -0.759572 1.78729 0
M  V30 4609 O 448.718 -1.55198 1.17234 0
M  V30 4610 C 449.001 1.1469 3.41348 0
M  V30 4611 C 448.854 2.67586 3.61549 0
M  V30 4612 C 450.173 0.71915 4.34185 0
M  V30 4613 H 447.292 0.259034 0.689978 0
M  V30 4614 H 449.934 1.26584 1.41692 0
M  V30 4615 H 448.084 0.673128 3.82624 0
M  V30 4616 H 449.756 3.22826 3.29517 0
M  V30 4617 H 447.999 3.085 3.04976 0
M  V30 4618 H 448.67 2.93281 4.67643 0
M  V30 4619 H 451.146 1.12647 4.00562 0
M  V30 4620 H 450.022 1.05358 5.38694 0
M  V30 4621 H 450.283 -0.379111 4.40472 0
M  V30 4622 N 449.342 -1.36122 0.79427 0
M  V30 4623 C 450.582 -2.00942 0.374376 0
M  V30 4624 C 450.946 -1.61666 -1.03577 0
M  V30 4625 O 452.147 -2.19113 -1.55701 0
M  V30 4626 C 450.418 -3.53323 0.538327 0
M  V30 4627 S 451.977 -4.38311 0.20703 0
M  V30 4628 H 448.795 -0.696515 0.142785 0
M  V30 4629 H 451.397 -1.65929 1.03382 0
M  V30 4630 H 450.101 -3.79395 1.56484 0
M  V30 4631 H 449.632 -3.93162 -0.136882 0
M  V30 4632 H 451.647 -4.8623 -0.989695 0
M  V30 4633 N 450.82 -0.546701 -1.47814 0
M  V30 4634 C 452.236 -0.205717 -1.58269 0
M  V30 4635 C 452.436 1.29153 -1.54667 0
M  V30 4636 O 451.492 2.07098 -1.44453 0
M  V30 4637 C 452.805 -0.823065 -2.89216 0
M  V30 4638 C 454.353 -0.793328 -3.02779 0
M  V30 4639 C 454.828 -1.38955 -4.36412 0
M  V30 4640 N 456.319 -1.35227 -4.43021 0
M  V30 4641 C 457.054 -1.78333 -5.44963 0
M  V30 4642 N 456.55 -2.29246 -6.53772 0
M  V30 4643 N 458.343 -1.69467 -5.35945 0
M  V30 4644 H 450.494 -1.5196 -1.48398 0
M  V30 4645 H 452.757 -0.633078 -0.705632 0
M  V30 4646 H 452.463 -1.8749 -2.97558 0
M  V30 4647 H 452.337 -0.309915 -3.75925 0
M  V30 4648 H 454.724 0.249784 -2.94041 0
M  V30 4649 H 454.805 -1.34412 -2.17639 0
M  V30 4650 H 454.449 -2.43168 -4.45906 0
M  V30 4651 H 454.379 -0.814291 -5.20266 0
M  V30 4652 H 456.87 -0.979739 -3.64979 0
M  V30 4653 H 457.183 -2.60089 -7.27718 0
M  V30 4654 H 455.528 -2.3325 -6.5469 0
M  V30 4655 H 458.719 -1.29477 -4.49837 0
M  V30 4656 H 458.892 -2.03381 -6.15256 0
M  V30 4657 N 452.299 1.55045 -0.282633 0
M  V30 4658 C 453.247 2.24254 0.617478 0
M  V30 4659 C 454.241 1.24215 1.15183 0
M  V30 4660 O 455.447 1.42123 1.10459 0
M  V30 4661 H 451.822 0.719801 0.217693 0
M  V30 4662 H 453.793 2.98398 0.0110076 0
M  V30 4663 C 452.542 2.98281 1.78672 0
M  V30 4664 H 451.865 3.75053 1.38475 0
M  V30 4665 H 453.305 3.50017 2.393 0
M  V30 4666 C 451.764 2.04184 2.67975 0
M  V30 4667 O 452.294 1.59792 3.6855 0
M  V30 4668 N 450.5 1.70526 2.35307 0
M  V30 4669 H 450.047 2.06821 1.53567 0
M  V30 4670 H 450.005 1.07839 2.95327 0
M  V30 4671 N 453.777 0.010035 1.57597 0
M  V30 4672 C 455.025 -0.671371 1.90623 0
M  V30 4673 C 455.346 -1.73753 0.885151 0
M  V30 4674 O 454.616 -1.95752 -0.0760611 0
M  V30 4675 H 453.196 -0.250968 0.703579 0
M  V30 4676 H 455.858 0.0533325 1.94827 0
M  V30 4677 H 454.954 -1.13626 2.90681 0
M  V30 4678 N 455.255 -1.55392 -0.262866 0
M  V30 4679 C 456.485 -1.80251 -1.00961 0
M  V30 4680 C 456.893 -0.58117 -1.80053 0
M  V30 4681 O 456.236 0.459427 -1.77862 0
M  V30 4682 C 456.298 -2.98207 -2.00781 0
M  V30 4683 C 455.962 -4.34856 -1.40533 0
M  V30 4684 C 456.959 -5.13459 -0.815853 0
M  V30 4685 C 454.644 -4.8153 -1.42948 0
M  V30 4686 C 456.638 -6.36875 -0.258562 0
M  V30 4687 C 454.325 -6.04899 -0.868334 0
M  V30 4688 C 455.323 -6.8241 -0.283884 0
M  V30 4689 O 455.011 -8.03451 0.268644 0
M  V30 4690 H 454.743 -0.604049 -0.303482 0
M  V30 4691 H 457.297 -2.03257 -0.295926 0
M  V30 4692 H 455.527 -2.70917 -2.75936 0
M  V30 4693 H 457.216 -3.10299 -2.61667 0
M  V30 4694 H 457.982 -4.78526 -0.789812 0
M  V30 4695 H 453.861 -4.21201 -1.87378 0
M  V30 4696 H 457.405 -6.97318 0.198257 0
M  V30 4697 H 453.302 -6.39312 -0.891649 0
M  V30 4698 H 454.07 -8.18346 0.158974 0
M  V30 4699 N 456.733 0.527833 -1.48498 0
M  V30 4700 C 457.963 1.30633 -1.60058 0
M  V30 4701 C 458.371 1.87394 -0.260786 0
M  V30 4702 O 457.714 1.67227 0.760317 0
M  V30 4703 C 457.776 2.49361 -2.58958 0
M  V30 4704 C 457.44 2.13671 -4.03972 0
M  V30 4705 C 458.437 1.69217 -4.91591 0
M  V30 4706 C 456.122 2.24129 -4.49524 0
M  V30 4707 C 458.116 1.35689 -6.2279 0
M  V30 4708 C 455.803 1.90212 -5.80743 0
M  V30 4709 C 456.801 1.46063 -6.67199 0
M  V30 4710 O 456.489 1.12593 -7.95976 0
M  V30 4711 H 456.221 0.403444 -0.54241 0
M  V30 4712 H 458.775 0.643233 -1.95068 0
M  V30 4713 H 457.005 3.18659 -2.19073 0
M  V30 4714 H 458.694 3.11421 -2.6033 0
M  V30 4715 H 459.46 1.60607 -4.57636 0
M  V30 4716 H 455.339 2.57447 -3.82416 0
M  V30 4717 H 458.883 1.01157 -6.90227 0
M  V30 4718 H 454.78 1.98464 -6.14233 0
M  V30 4719 H 455.548 1.25972 -8.08748 0
M  V30 4720 N 458.211 1.37122 0.776871 0
M  V30 4721 C 459.627 1.1781 1.07671 0
M  V30 4722 C 459.827 0.0107454 2.01497 0
M  V30 4723 O 458.883 -0.650756 2.4397 0
M  V30 4724 C 460.196 2.49451 1.67913 0
M  V30 4725 C 461.744 2.55927 1.80195 0
M  V30 4726 C 462.219 3.87686 2.43851 0
M  V30 4727 N 463.71 3.891 2.51307 0
M  V30 4728 C 464.445 4.87797 3.014 0
M  V30 4729 N 463.941 5.96888 3.51705 0
M  V30 4730 N 465.734 4.75205 3.00227 0
M  V30 4731 H 457.885 2.11843 0.153778 0
M  V30 4732 H 460.148 0.938927 0.130844 0
M  V30 4733 H 459.854 3.35207 1.06439 0
M  V30 4734 H 459.728 2.66169 2.67271 0
M  V30 4735 H 462.115 1.70582 2.40803 0
M  V30 4736 H 462.196 2.43097 0.796069 0
M  V30 4737 H 461.84 4.73444 1.83884 0
M  V30 4738 H 461.77 3.97817 3.45035 0
M  V30 4739 H 464.261 3.10293 2.157 0
M  V30 4740 H 464.574 6.68155 3.88316 0
M  V30 4741 H 462.919 6.0054 3.49824 0
M  V30 4742 H 466.11 3.89103 2.60224 0
M  V30 4743 H 466.283 5.52279 3.38957 0
M  V30 4744 N 459.689 -1.00246 1.21608 0
M  V30 4745 C 460.652 -2.07233 0.979133 0
M  V30 4746 C 461.652 -1.6072 -0.0508219 0
M  V30 4747 O 462.842 -1.73196 0.186712 0
M  V30 4748 C 459.974 -3.37546 0.477016 0
M  V30 4749 H 461.167 -2.29687 1.92831 0
M  V30 4750 H 458.72 -1.17261 1.03342 0
M  V30 4751 H 459.455 -3.20773 -0.476966 0
M  V30 4752 H 459.24 -3.72638 1.21997 0
M  V30 4753 H 460.73 -4.16285 0.331181 0
M  V30 4754 N 461.167 -1.02423 -1.1978 0
M  V30 4755 C 462.444 -0.632802 -1.85081 0
M  V30 4756 C 462.824 0.888745 -1.9148 0
M  V30 4757 O 462.172 1.78357 -1.42832 0
M  V30 4758 C 462.382 -1.28947 -3.24305 0
M  V30 4759 C 463.73 -1.40976 -4.00513 0
M  V30 4760 O 464.754 -1.24628 -3.33686 0
M  V30 4761 O 463.613 -1.67467 -5.20209 0
M  V30 4762 H 460.707 -0.219348 -0.79738 0
M  V30 4763 H 463.253 -1.12209 -1.27307 0
M  V30 4764 H 462.025 -2.3288 -3.14456 0
M  V30 4765 H 461.648 -0.787748 -3.89718 0
M  V30 4766 N 462.645 1.35699 -0.801477 0
M  V30 4767 C 463.575 2.32436 -0.222658 0
M  V30 4768 C 464.556 1.5723 0.649057 0
M  V30 4769 O 465.741 1.85324 0.580387 0
M  V30 4770 C 462.871 3.41469 0.633719 0
M  V30 4771 C 461.825 4.27774 -0.139083 0
M  V30 4772 C 461.151 5.28082 0.838666 0
M  V30 4773 C 462.451 5.04946 -1.33517 0
M  V30 4774 H 464.145 2.81094 -1.03086 0
M  V30 4775 H 461.691 1.35146 -0.497155 0
M  V30 4776 H 463.644 4.08143 1.04868 0
M  V30 4777 H 462.368 2.91408 1.47475 0
M  V30 4778 H 461.027 3.62673 -0.535156 0
M  V30 4779 H 460.675 4.7429 1.67506 0
M  V30 4780 H 460.375 5.86695 0.32594 0
M  V30 4781 H 461.899 5.97628 1.25194 0
M  V30 4782 H 463.313 5.64593 -0.995349 0
M  V30 4783 H 461.71 5.7303 -1.78202 0
M  V30 4784 H 462.78 4.35886 -2.12442 0
M  V30 4785 N 464.123 0.554532 1.47522 0
M  V30 4786 C 465.4 -0.0360704 1.95567 0
M  V30 4787 C 465.78 -1.48828 1.49711 0
M  V30 4788 O 465.128 -2.16366 0.734717 0
M  V30 4789 C 465.338 0.106631 3.48837 0
M  V30 4790 C 466.686 -0.0400899 4.24581 0
M  V30 4791 O 467.71 0.0340453 3.56184 0
M  V30 4792 O 466.569 -0.199111 5.46137 0
M  V30 4793 H 463.663 -0.0656294 0.824392 0
M  V30 4794 H 466.209 0.620867 1.57935 0
M  V30 4795 H 464.981 1.11727 3.7501 0
M  V30 4796 H 464.604 -0.58804 3.93227 0
M  V30 4797 N 465.601 -1.54893 0.290851 0
M  V30 4798 C 467.012 -1.85584 -0.203816 0
M  V30 4799 C 467.363 -1.21285 -1.54222 0
M  V30 4800 O 466.488 -0.506841 -2.10381 0
M  V30 4801 C 467.083 -3.367 -0.376595 0
M  V30 4802 C 465.642 -3.6746 -0.815485 0
M  V30 4803 C 464.789 -2.77178 0.0821087 0
M  V30 4804 H 467.74 -1.50208 0.512175 0
M  V30 4805 H 467.761 -3.60656 -1.21275 0
M  V30 4806 H 467.273 -3.8347 0.59767 0
M  V30 4807 H 465.374 -3.26201 -1.80066 0
M  V30 4808 H 465.487 -4.7478 -0.641905 0
M  V30 4809 H 463.851 -2.50925 -0.436895 0
M  V30 4810 H 464.634 -3.26767 1.05254 0
M  V30 4811 N 467.08 -0.0183926 -1.57589 0
M  V30 4812 C 468.01 0.965596 -2.12599 0
M  V30 4813 C 468.991 1.34641 -1.0395 0
M  V30 4814 O 470.176 1.42693 -1.31729 0
M  V30 4815 C 467.306 2.25149 -2.64434 0
M  V30 4816 C 466.26 2.01175 -3.77773 0
M  V30 4817 C 465.586 3.35937 -4.15994 0
M  V30 4818 C 466.886 1.35953 -5.04296 0
M  V30 4819 H 468.58 0.507504 -2.95067 0
M  V30 4820 H 466.126 0.242671 -1.41941 0
M  V30 4821 H 468.079 2.94357 -3.01549 0
M  V30 4822 H 466.803 2.73105 -1.79112 0
M  V30 4823 H 465.462 1.34388 -3.4108 0
M  V30 4824 H 465.11 3.81631 -3.27669 0
M  V30 4825 H 464.81 3.20705 -4.92364 0
M  V30 4826 H 466.334 4.0643 -4.55683 0
M  V30 4827 H 467.748 1.95144 -5.39065 0
M  V30 4828 H 466.145 1.31152 -5.85593 0
M  V30 4829 H 467.215 0.331071 -4.83768 0
M  V30 4830 N 468.558 1.5553 0.254621 0
M  V30 4831 C 469.835 1.6774 1.00611 0
M  V30 4832 C 470.215 0.555993 2.03647 0
M  V30 4833 O 469.563 -0.441583 2.24193 0
M  V30 4834 C 469.773 3.07725 1.6464 0
M  V30 4835 C 471.121 3.66074 2.15116 0
M  V30 4836 O 472.145 3.10476 1.74595 0
M  V30 4837 O 471.004 4.63526 2.89493 0
M  V30 4838 H 468.098 0.681958 0.467828 0
M  V30 4839 H 470.644 1.67863 0.24902 0
M  V30 4840 H 469.416 3.80792 0.900734 0
M  V30 4841 H 469.039 3.1158 2.46989 0
M  V30 4842 N 470.036 -0.519951 1.48776 0
M  V30 4843 C 470.969 -1.64053 1.58625 0
M  V30 4844 C 471.947 -1.5664 0.43618 0
M  V30 4845 O 473.131 -1.76969 0.649159 0
M  V30 4846 C 470.258 -3.02497 1.52359 0
M  V30 4847 C 469.304 -3.28235 2.72331 0
M  V30 4848 S 470.137 -3.13414 4.34203 0
M  V30 4849 C 471.293 -4.54287 4.30551 0
M  V30 4850 H 471.526 -1.5545 2.53422 0
M  V30 4851 H 469.059 -0.703681 1.37433 0
M  V30 4852 H 471.017 -3.82336 1.4943 0
M  V30 4853 H 469.678 -3.08531 0.588824 0
M  V30 4854 H 468.871 -4.29256 2.64113 0
M  V30 4855 H 468.473 -2.56085 2.72574 0
M  V30 4856 H 470.765 -5.46006 4.01103 0
M  V30 4857 H 471.708 -4.67558 5.31785 0
M  V30 4858 H 472.116 -4.34079 3.60881 0
M  V30 4859 N 471.514 -1.37532 -0.769588 0
M  V30 4860 C 472.925 -1.29382 -1.346 0
M  V30 4861 C 473.276 0.0576039 -1.96115 0
M  V30 4862 O 472.401 0.95947 -1.93967 0
M  V30 4863 C 472.996 -2.34298 -2.44724 0
M  V30 4864 C 471.555 -2.29776 -2.98128 0
M  V30 4865 C 470.702 -2.18013 -1.71364 0
M  V30 4866 H 473.653 -1.48123 -0.56968 0
M  V30 4867 H 473.674 -1.99089 -3.24259 0
M  V30 4868 H 473.186 -3.32645 -1.99922 0
M  V30 4869 H 471.287 -1.34959 -3.47299 0
M  V30 4870 H 471.4 -3.23276 -3.53595 0
M  V30 4871 H 469.764 -1.64595 -1.94372 0
M  V30 4872 H 470.547 -3.18278 -1.28662 0
M  V30 4873 N 472.992 0.995999 -1.22138 0
M  V30 4874 C 474.232 1.75032 -1.05561 0
M  V30 4875 C 474.596 1.87729 0.402698 0
M  V30 4876 O 475.797 2.59813 0.689234 0
M  V30 4877 C 474.068 3.11973 -1.74379 0
M  V30 4878 S 475.627 4.03182 -1.73175 0
M  V30 4879 H 472.445 0.602137 -0.37809 0
M  V30 4880 H 475.047 1.19107 -1.55028 0
M  V30 4881 H 473.751 3.00371 -2.79652 0
M  V30 4882 H 473.282 3.7297 -1.25128 0
M  V30 4883 H 475.297 4.90043 -0.77923 0
M  V30 4884 N 474.47 1.03057 1.19235 0
M  V30 4885 C 475.698 0.747697 1.92917 0
M  V30 4886 C 476.113 -0.69372 1.75593 0
M  V30 4887 O 475.47 -1.47191 1.07894 0
M  V30 4888 C 475.521 1.09159 3.44625 0
M  V30 4889 O 475.242 2.47641 3.61394 0
M  V30 4890 C 476.743 0.831763 4.35427 0
M  V30 4891 H 473.963 0.273453 0.612751 0
M  V30 4892 H 476.507 1.37552 1.51327 0
M  V30 4893 H 474.662 0.508919 3.84043 0
M  V30 4894 H 475.076 2.60499 4.55237 0
M  V30 4895 H 476.55 1.12233 5.4047 0
M  V30 4896 H 477.027 -0.233769 4.38577 0
M  V30 4897 H 477.633 1.39725 4.01693 0
M  V30 4898 N 475.948 -1.35272 0.808662 0
M  V30 4899 C 477.176 -2.02946 0.402537 0
M  V30 4900 C 477.591 -1.60937 -0.987147 0
M  V30 4901 O 476.948 -0.807917 -1.63643 0
M  V30 4902 C 476.999 -3.58317 0.47868 0
M  V30 4903 O 476.72 -3.98799 1.81358 0
M  V30 4904 C 478.221 -4.43251 0.0656281 0
M  V30 4905 H 475.441 -0.650831 0.163279 0
M  V30 4906 H 477.985 -1.72849 1.09286 0
M  V30 4907 H 476.14 -3.87055 -0.163415 0
M  V30 4908 H 476.554 -4.93451 1.77781 0
M  V30 4909 H 478.028 -5.51738 0.170017 0
M  V30 4910 H 478.505 -4.27913 -0.989278 0
M  V30 4911 H 479.111 -4.19813 0.68096 0
M  V30 4912 N 477.426 -0.562348 -1.47226 0
M  V30 4913 C 478.675 -0.038041 -2.01664 0
M  V30 4914 C 478.988 1.32199 -1.44162 0
M  V30 4915 O 480.194 1.9365 -1.90294 0
M  V30 4916 C 478.65 -0.0174958 -3.59896 0
M  V30 4917 C 478.258 -1.3746 -4.2639 0
M  V30 4918 C 480.002 0.453934 -4.22066 0
M  V30 4919 C 477.909 -1.31289 -5.76643 0
M  V30 4920 H 476.839 -0.0104511 -0.753928 0
M  V30 4921 H 479.49 -0.710966 -1.69167 0
M  V30 4922 H 477.872 0.721182 -3.89378 0
M  V30 4923 H 479.046 -2.1314 -4.08544 0
M  V30 4924 H 477.361 -1.78438 -3.7623 0
M  V30 4925 H 479.958 0.518584 -5.32179 0
M  V30 4926 H 480.301 1.46706 -3.89594 0
M  V30 4927 H 480.834 -0.230044 -3.97134 0
M  V30 4928 H 477.573 -2.30217 -6.13743 0
M  V30 4929 H 477.093 -0.597973 -5.96812 0
M  V30 4930 H 478.772 -1.01713 -6.38955 0
M  V30 4931 N 478.904 1.54736 -0.299062 0
M  V30 4932 C 480.315 1.8569 0.193971 0
M  V30 4933 C 480.666 1.22101 1.53577 0
M  V30 4934 O 479.791 0.51799 2.10109 0
M  V30 4935 C 480.386 3.36895 0.358733 0
M  V30 4936 C 478.945 3.67887 0.795986 0
M  V30 4937 C 478.092 2.77131 -0.096807 0
M  V30 4938 H 481.043 1.49934 -0.520134 0
M  V30 4939 H 481.064 3.61294 1.19361 0
M  V30 4940 H 480.576 3.83148 -0.617998 0
M  V30 4941 H 478.677 3.27151 1.78334 0
M  V30 4942 H 478.79 4.75114 0.616718 0
M  V30 4943 H 477.154 2.51153 0.423581 0
M  V30 4944 H 477.937 3.26204 -1.06986 0
M  V30 4945 N 480.382 0.0267497 1.57577 0
M  V30 4946 C 481.607 -0.666227 1.96408 0
M  V30 4947 C 482.032 -1.65004 0.903071 0
M  V30 4948 O 481.39 -1.80787 -0.136263 0
M  V30 4949 C 481.438 -1.35101 3.34335 0
M  V30 4950 O 480.542 -2.46623 3.30531 0
M  V30 4951 H 479.883 -0.175206 0.640468 0
M  V30 4952 H 482.413 0.0878977 2.04411 0
M  V30 4953 H 482.423 -1.70834 3.70513 0
M  V30 4954 H 481.098 -0.629844 4.11103 0
M  V30 4955 H 479.675 -2.13019 3.06068 0
M  V30 4956 N 481.861 -1.55662 -0.24637 0
M  V30 4957 C 482.824 -1.89558 -1.28842 0
M  V30 4958 C 483.824 -0.772082 -1.41052 0
M  V30 4959 O 485.014 -1.04007 -1.39743 0
M  V30 4960 C 482.146 -2.12449 -2.66605 0
M  V30 4961 H 483.339 -2.82735 -1.00004 0
M  V30 4962 H 480.892 -1.48562 -0.485684 0
M  V30 4963 H 481.627 -1.21742 -3.00582 0
M  V30 4964 H 481.412 -2.94273 -2.59125 0
M  V30 4965 H 482.902 -2.39854 -3.41847 0
M  V30 4966 N 483.339 0.512053 -1.4905 0
M  V30 4967 C 484.75 1.09376 -1.51307 0
M  V30 4968 C 485.101 1.94 -0.292971 0
M  V30 4969 O 484.226 2.07965 0.598277 0
M  V30 4970 C 484.821 1.99031 -2.74176 0
M  V30 4971 C 483.38 2.52385 -2.79247 0
M  V30 4972 C 482.527 1.29749 -2.45073 0
M  V30 4973 H 485.478 0.296467 -1.55906 0
M  V30 4974 H 485.499 2.83569 -2.53711 0
M  V30 4975 H 485.011 1.37412 -3.62959 0
M  V30 4976 H 483.112 3.17673 -1.94716 0
M  V30 4977 H 483.225 2.90293 -3.81139 0
M  V30 4978 H 481.589 1.61912 -1.96612 0
M  V30 4979 H 482.372 0.698555 -3.36118 0
M  V30 4980 N 484.817 1.37938 0.762283 0
M  V30 4981 C 485.749 1.30349 1.88525 0
M  V30 4982 C 486.762 0.217402 1.61342 0
M  V30 4983 O 487.951 0.474291 1.72084 0
M  V30 4984 C 485.051 0.994844 3.23969 0
M  V30 4985 C 484.224 2.18829 3.78725 0
M  V30 4986 C 483.283 1.84844 4.92665 0
M  V30 4987 O 482.309 2.57244 5.07754 0
M  V30 4988 N 483.511 0.798201 5.74986 0
M  V30 4989 H 486.276 2.27114 1.95549 0
M  V30 4990 H 483.837 1.31686 0.941825 0
M  V30 4991 H 485.829 0.748168 3.97724 0
M  V30 4992 H 484.399 0.115446 3.12387 0
M  V30 4993 H 483.619 2.59615 2.96637 0
M  V30 4994 H 484.907 2.98497 4.1204 0
M  V30 4995 H 484.305 0.197611 5.65355 0
M  V30 4996 H 482.862 0.611396 6.48926 0
M  V30 4997 N 486.295 -0.989507 1.22664 0
M  V30 4998 C 487.258 -2.06183 1.00106 0
M  V30 4999 C 488.258 -1.60765 -0.0337726 0
M  V30 5000 O 489.448 -1.72989 0.205072 0
M  V30 5001 C 486.58 -3.37021 0.51279 0
M  V30 5002 H 487.773 -2.27629 1.95256 0
M  V30 5003 H 485.326 -1.16158 1.0458 0
M  V30 5004 H 486.061 -3.21261 -0.442917 0
M  V30 5005 H 485.846 -3.71323 1.25942 0
M  V30 5006 H 487.336 -4.1591 0.375315 0
M  V30 5007 N 487.773 -1.03688 -1.18687 0
M  V30 5008 C 489.019 -0.739123 -1.88851 0
M  V30 5009 C 489.352 0.731042 -1.79915 0
M  V30 5010 O 488.627 1.53313 -1.19688 0
M  V30 5011 C 488.91 -1.20106 -3.3948 0
M  V30 5012 C 488.763 -2.73304 -3.57246 0
M  V30 5013 C 490.082 -0.788134 -4.32986 0
M  V30 5014 H 487.201 -0.269978 -0.68577 0
M  V30 5015 H 489.843 -1.28822 -1.3966 0
M  V30 5016 H 487.993 -0.733915 -3.81505 0
M  V30 5017 H 489.665 -3.28027 -3.24339 0
M  V30 5018 H 487.908 -3.13313 -3.00029 0
M  V30 5019 H 488.579 -3.00684 -4.62918 0
M  V30 5020 H 491.055 -1.19005 -3.98719 0
M  V30 5021 H 489.931 -1.13915 -5.36949 0
M  V30 5022 H 490.192 0.308988 -4.41019 0
M  V30 5023 N 489.251 1.34841 -0.815825 0
M  V30 5024 C 490.5 1.97755 -0.396976 0
M  V30 5025 C 490.813 1.65422 1.04379 0
M  V30 5026 O 492.019 2.21771 1.5662 0
M  V30 5027 C 490.475 3.53818 -0.658869 0
M  V30 5028 C 490.083 3.95051 -2.11278 0
M  V30 5029 C 491.827 4.23397 -0.305834 0
M  V30 5030 C 489.734 5.43997 -2.31994 0
M  V30 5031 H 488.664 0.739985 -0.1447 0
M  V30 5032 H 491.315 1.53781 -1.00118 0
M  V30 5033 H 489.697 3.95997 0.0154112 0
M  V30 5034 H 490.871 3.63998 -2.82564 0
M  V30 5035 H 489.186 3.38388 -2.42657 0
M  V30 5036 H 491.783 5.32899 -0.43854 0
M  V30 5037 H 492.126 4.09508 0.748952 0
M  V30 5038 H 492.659 3.8667 -0.934403 0
M  V30 5039 H 489.398 5.62865 -3.35952 0
M  V30 5040 H 488.918 5.76589 -1.65244 0
M  V30 5041 H 490.597 6.10584 -2.14001 0
M  V30 5042 N 490.729 0.570148 1.46925 0
M  V30 5043 C 491.954 0.0542592 2.07329 0
M  V30 5044 C 492.379 -1.23582 1.41806 0
M  V30 5045 O 491.737 -1.74341 0.497479 0
M  V30 5046 C 491.785 -0.111175 3.60429 0
M  V30 5047 O 490.889 -1.17071 3.95434 0
M  V30 5048 H 490.23 0.0571425 0.661537 0
M  V30 5049 H 492.76 0.789516 1.88753 0
M  V30 5050 H 492.77 -0.321315 4.06733 0
M  V30 5051 H 491.445 0.831012 4.07513 0
M  V30 5052 H 490.022 -0.940029 3.60857 0
M  V30 5053 N 492.207 -1.54576 0.307264 0
M  V30 5054 C 493.432 -2.05139 -0.305379 0
M  V30 5055 C 493.857 -1.18278 -1.46259 0
M  V30 5056 O 493.215 -0.188243 -1.8032 0
M  V30 5057 C 493.263 -3.53066 -0.733283 0
M  V30 5058 O 492.367 -3.69206 -1.83741 0
M  V30 5059 H 491.708 -0.661444 -0.0582105 0
M  V30 5060 H 494.238 -1.99569 0.450931 0
M  V30 5061 H 494.248 -3.95034 -1.02039 0
M  V30 5062 H 492.923 -4.15746 0.113198 0
M  V30 5063 H 491.5 -3.39143 -1.55037 0
M  V30 5064 N 493.685 -0.035106 -1.57561 0
M  V30 5065 C 494.931 0.64318 -1.92331 0
M  V30 5066 C 495.264 1.71434 -0.912368 0
M  V30 5067 O 494.539 1.94395 0.0640303 0
M  V30 5068 C 494.822 1.25411 -3.37556 0
M  V30 5069 C 494.675 0.192109 -4.4939 0
M  V30 5070 C 495.994 2.17041 -3.82859 0
M  V30 5071 H 493.113 0.232341 -0.699419 0
M  V30 5072 H 495.755 -0.0935889 -1.89769 0
M  V30 5073 H 493.905 1.88205 -3.39869 0
M  V30 5074 H 495.577 -0.438849 -4.59208 0
M  V30 5075 H 493.82 -0.481725 -4.31117 0
M  V30 5076 H 494.491 0.659292 -5.48049 0
M  V30 5077 H 496.967 1.64228 -3.8232 0
M  V30 5078 H 495.843 2.56738 -4.85157 0
M  V30 5079 H 496.104 3.06401 -3.18702 0
M  V30 5080 N 495.163 1.55791 0.238111 0
M  V30 5081 C 496.111 1.91885 1.31464 0
M  V30 5082 C 497.105 0.798929 1.49377 0
M  V30 5083 O 498.311 0.983626 1.50747 0
M  V30 5084 H 494.686 0.609551 0.440399 0
M  V30 5085 H 496.657 2.81747 0.982925 0
M  V30 5086 C 495.406 2.23763 2.6613 0
M  V30 5087 H 494.729 3.09444 2.53149 0
M  V30 5088 H 496.169 2.52915 3.40309 0
M  V30 5089 C 494.628 1.05699 3.1989 0
M  V30 5090 O 495.158 0.309524 4.00506 0
M  V30 5091 N 493.364 0.845251 2.78036 0
M  V30 5092 H 492.911 1.4548 2.12588 0
M  V30 5093 H 492.869 0.0569973 3.14348 0
M  V30 5094 N 496.642 -0.504142 1.49319 0
M  V30 5095 C 497.552 -1.63248 1.68486 0
M  V30 5096 C 498.568 -1.64488 0.567432 0
M  V30 5097 O 499.744 -1.82966 0.841749 0
M  V30 5098 C 496.809 -2.99627 1.74426 0
M  V30 5099 C 495.87 -3.09039 2.97982 0
M  V30 5100 C 495.103 -4.38913 3.0363 0
M  V30 5101 O 495.326 -5.27528 2.16958 0
M  V30 5102 O 494.26 -4.53231 3.96062 0
M  V30 5103 H 498.086 -1.50008 2.64067 0
M  V30 5104 H 495.671 -0.680086 1.33023 0
M  V30 5105 H 497.553 -3.80689 1.80705 0
M  V30 5106 H 496.228 -3.13136 0.820233 0
M  V30 5107 H 495.135 -2.27177 2.97223 0
M  V30 5108 H 496.468 -3.00456 3.89855 0
M  V30 5109 N 498.12 -1.38341 -0.754957 0
M  V30 5110 C 499.348 -1.37704 -1.54419 0
M  V30 5111 C 499.763 0.0335243 -1.8877 0
M  V30 5112 O 499.12 0.999773 -1.52679 0
M  V30 5113 C 499.171 -2.23136 -2.84416 0
M  V30 5114 O 498.892 -3.58697 -2.51531 0
M  V30 5115 C 500.393 -2.30664 -3.78562 0
M  V30 5116 H 497.613 -0.471061 -0.477852 0
M  V30 5117 H 500.157 -1.81902 -0.934446 0
M  V30 5118 H 498.312 -1.82403 -3.41772 0
M  V30 5119 H 498.726 -4.03665 -3.34896 0
M  V30 5120 H 500.2 -2.9473 -4.66732 0
M  V30 5121 H 500.677 -1.3199 -4.18898 0
M  V30 5122 H 501.283 -2.71781 -3.27131 0
M  V30 5123 N 499.598 0.982988 -1.23187 0
M  V30 5124 C 500.823 1.76455 -1.08988 0
M  V30 5125 C 501.248 1.84726 0.354691 0
M  V30 5126 O 500.606 1.30699 1.25649 0
M  V30 5127 C 500.654 3.17094 -1.71708 0
M  V30 5128 O 499.758 4.00648 -0.977477 0
M  V30 5129 H 499.099 0.542988 -0.382177 0
M  V30 5130 H 501.629 1.23413 -1.63188 0
M  V30 5131 H 501.639 3.67684 -1.76841 0
M  V30 5132 H 500.314 3.10389 -2.76823 0
M  V30 5133 H 498.891 3.59161 -1.0029 0
M  V30 5134 N 501.076 1.04316 1.18135 0
M  V30 5135 C 502.006 0.657299 2.24058 0
M  V30 5136 C 502.987 -0.340678 1.66654 0
M  V30 5137 O 504.172 -0.220223 1.92947 0
M  V30 5138 C 501.302 0.0220715 3.47293 0
M  V30 5139 C 500.256 0.943857 4.17463 0
M  V30 5140 C 499.582 0.172973 5.3442 0
M  V30 5141 C 500.882 2.26409 4.70677 0
M  V30 5142 H 502.576 1.5428 2.56589 0
M  V30 5143 H 500.122 0.743263 1.23335 0
M  V30 5144 H 502.075 -0.259607 4.206 0
M  V30 5145 H 500.799 -0.898323 3.14003 0
M  V30 5146 H 499.458 1.20996 3.46057 0
M  V30 5147 H 499.106 -0.749907 4.97379 0
M  V30 5148 H 498.806 0.787098 5.82304 0
M  V30 5149 H 500.33 -0.101628 6.10515 0
M  V30 5150 H 501.744 2.04294 5.35665 0
M  V30 5151 H 500.141 2.8314 5.29105 0
M  V30 5152 H 501.211 2.90883 3.87962 0
M  V30 5153 N 502.554 -1.34406 0.822964 0
M  V30 5154 C 503.487 -2.27407 0.190124 0
M  V30 5155 C 504.465 -1.4889 -0.653486 0
M  V30 5156 O 505.649 -1.78109 -0.617216 0
M  V30 5157 C 502.776 -3.3064 -0.734477 0
M  V30 5158 C 501.822 -4.26488 0.0316099 0
M  V30 5159 S 502.655 -5.17445 1.3788 0
M  V30 5160 C 503.811 -6.24214 0.45907 0
M  V30 5161 H 504.044 -2.80733 0.978586 0
M  V30 5162 H 501.577 -1.41455 0.618866 0
M  V30 5163 H 503.535 -3.90607 -1.26238 0
M  V30 5164 H 502.196 -2.76161 -1.49646 0
M  V30 5165 H 501.389 -4.9951 -0.671285 0
M  V30 5166 H 500.991 -3.70775 0.490066 0
M  V30 5167 H 503.283 -6.76599 -0.349357 0
M  V30 5168 H 504.226 -6.98551 1.15896 0
M  V30 5169 H 504.634 -5.6448 0.0474825 0
M  V30 5170 N 504.032 -0.577932 -1.46621 0
M  V30 5171 C 504.962 0.145917 -2.33044 0
M  V30 5172 C 505.943 0.888412 -1.45056 0
M  V30 5173 O 507.128 0.864812 -1.73881 0
M  V30 5174 C 504.258 1.16322 -3.27241 0
M  V30 5175 C 503.212 0.535868 -4.24632 0
M  V30 5176 C 502.538 1.65929 -5.08303 0
M  V30 5177 C 503.838 -0.523861 -5.19666 0
M  V30 5178 H 505.532 -0.575636 -2.93814 0
M  V30 5179 H 503.078 -0.278272 -1.41286 0
M  V30 5180 H 505.031 1.67793 -3.86553 0
M  V30 5181 H 503.755 1.91498 -2.64567 0
M  V30 5182 H 502.414 0.0422759 -3.66576 0
M  V30 5183 H 502.062 2.40061 -4.42018 0
M  V30 5184 H 501.762 1.2452 -5.74255 0
M  V30 5185 H 503.286 2.17686 -5.70478 0
M  V30 5186 H 504.7 -0.0944059 -5.73222 0
M  V30 5187 H 503.097 -0.858 -5.93935 0
M  V30 5188 H 504.167 -1.41197 -4.63887 0
M  V30 5189 N 505.51 1.54411 -0.315457 0
M  V30 5190 C 506.42 2.27737 0.56329 0
M  V30 5191 C 507.436 1.31787 1.13614 0
M  V30 5192 O 508.612 1.64791 1.15784 0
M  V30 5193 C 505.677 3.01478 1.71207 0
M  V30 5194 C 504.738 4.12997 1.17185 0
M  V30 5195 C 503.971 4.83212 2.26588 0
M  V30 5196 O 504.194 4.52884 3.46775 0
M  V30 5197 O 503.128 5.70299 1.92463 0
M  V30 5198 H 506.954 3.03683 -0.0319614 0
M  V30 5199 H 504.539 1.49178 -0.0814188 0
M  V30 5200 H 506.421 3.47683 2.38106 0
M  V30 5201 H 505.096 2.28414 2.29366 0
M  V30 5202 H 504.003 3.71159 0.468174 0
M  V30 5203 H 505.336 4.8808 0.635501 0
M  V30 5204 N 506.988 0.0434614 1.5754 0
M  V30 5205 C 508.234 -0.627109 1.93491 0
M  V30 5206 C 508.589 -1.68904 0.921362 0
M  V30 5207 O 507.882 -1.91504 -0.0605799 0
M  V30 5208 C 508.076 -1.2738 3.3393 0
M  V30 5209 C 507.905 -0.27603 4.48852 0
M  V30 5210 C 506.675 0.129244 5.05135 0
M  V30 5211 C 508.873 0.475462 5.12098 0
M  V30 5212 N 506.855 1.12068 6.03584 0
M  V30 5213 C 508.226 1.32021 6.05781 0
M  V30 5214 C 510.281 0.534611 4.95022 0
M  V30 5215 C 508.984 2.2188 6.84223 0
M  V30 5216 C 511.01 1.42059 5.74085 0
M  V30 5217 C 510.372 2.25309 6.67394 0
M  V30 5218 H 506.471 -0.201354 0.755633 0
M  V30 5219 H 509.055 0.113991 1.94366 0
M  V30 5220 H 507.226 -1.98496 3.33847 0
M  V30 5221 H 508.958 -1.90255 3.57191 0
M  V30 5222 H 505.713 -0.248145 4.72949 0
M  V30 5223 H 506.137 1.61306 6.57502 0
M  V30 5224 H 510.779 -0.0947817 4.22694 0
M  V30 5225 H 508.497 2.85868 7.55847 0
M  V30 5226 H 512.083 1.47083 5.62901 0
M  V30 5227 H 510.963 2.92754 7.27506 0
M  V30 5228 N 508.466 -1.55915 -0.229846 0
M  V30 5229 C 509.694 -1.82617 -0.972562 0
M  V30 5230 C 510.109 -0.621488 -1.78278 0
M  V30 5231 O 509.466 0.409956 -1.77836 0
M  V30 5232 C 509.517 -3.0774 -1.89679 0
M  V30 5233 O 509.238 -4.23559 -1.11934 0
M  V30 5234 C 510.739 -3.47368 -2.75409 0
M  V30 5235 H 507.959 -0.60727 -0.285419 0
M  V30 5236 H 510.503 -2.02996 -0.247579 0
M  V30 5237 H 508.658 -2.89361 -2.57583 0
M  V30 5238 H 509.072 -4.94586 -1.74599 0
M  V30 5239 H 510.546 -4.37977 -3.35977 0
M  V30 5240 H 511.023 -2.68737 -3.47386 0
M  V30 5241 H 511.629 -3.68158 -2.12931 0
M  V30 5242 N 509.944 0.496216 -1.49584 0
M  V30 5243 C 511.355 1.07765 -1.52459 0
M  V30 5244 C 511.706 1.93679 -0.31353 0
M  V30 5245 O 510.831 2.08588 0.576186 0
M  V30 5246 C 511.426 1.96111 -2.76271 0
M  V30 5247 C 509.985 2.49409 -2.81908 0
M  V30 5248 C 509.132 1.27142 -2.46435 0
M  V30 5249 H 512.083 0.279914 -1.56212 0
M  V30 5250 H 512.104 2.80862 -2.56704 0
M  V30 5251 H 511.616 1.33555 -3.64396 0
M  V30 5252 H 509.717 3.1559 -1.98074 0
M  V30 5253 H 509.83 2.86234 -3.84196 0
M  V30 5254 H 508.194 1.59818 -1.98319 0
M  V30 5255 H 508.977 0.662866 -3.3684 0
M  V30 5256 N 511.423 1.38739 0.74761 0
M  V30 5257 C 512.834 1.31507 1.32524 0
M  V30 5258 C 513.185 -0.0263963 1.96182 0
M  V30 5259 O 512.31 -0.92849 1.95469 0
M  V30 5260 C 512.905 2.38162 2.40966 0
M  V30 5261 C 511.464 2.34489 2.94434 0
M  V30 5262 C 510.611 2.20712 1.67873 0
M  V30 5263 H 513.562 1.4901 0.546043 0
M  V30 5264 H 513.583 2.04222 3.21051 0
M  V30 5265 H 513.095 3.35783 1.94605 0
M  V30 5266 H 511.196 1.40467 3.45108 0
M  V30 5267 H 511.309 3.28861 3.48407 0
M  V30 5268 H 509.673 1.67667 1.91729 0
M  V30 5269 H 510.456 3.20285 1.23582 0
M  V30 5270 N 512.901 -0.976442 1.23707 0
M  V30 5271 C 514.317 -1.24341 1.00058 0
M  V30 5272 C 514.517 -1.99315 -0.295932 0
M  V30 5273 O 513.573 -2.3123 -1.01435 0
M  V30 5274 C 514.886 -2.03909 2.21001 0
M  V30 5275 C 516.434 -2.17034 2.25534 0
M  V30 5276 C 516.909 -2.99994 3.46075 0
M  V30 5277 N 518.4 -3.07578 3.46338 0
M  V30 5278 C 519.135 -3.72104 4.36264 0
M  V30 5279 N 518.631 -4.3842 5.36432 0
M  V30 5280 N 520.424 -3.69029 4.23998 0
M  V30 5281 H 512.575 -0.47428 2.07037 0
M  V30 5282 H 514.838 -0.272167 0.908091 0
M  V30 5283 H 514.544 -1.56198 3.15111 0
M  V30 5284 H 514.418 -3.04654 2.22409 0
M  V30 5285 H 516.805 -2.63951 1.31961 0
M  V30 5286 H 516.886 -1.15664 2.28156 0
M  V30 5287 H 516.53 -2.53772 4.39957 0
M  V30 5288 H 516.46 -4.01541 3.40694 0
M  V30 5289 H 518.951 -2.60397 2.73865 0
M  V30 5290 H 519.264 -4.85447 6.013 0
M  V30 5291 H 517.609 -4.37116 5.40328 0
M  V30 5292 H 520.8 -3.16392 3.44984 0
M  V30 5293 H 520.973 -4.19034 4.94282 0
M  V30 5294 N 514.379 -1.04941 -1.1758 0
M  V30 5295 C 515.656 -0.671918 -1.83697 0
M  V30 5296 C 516.036 0.847929 -1.93322 0
M  V30 5297 O 515.384 1.75287 -1.46583 0
M  V30 5298 C 515.594 -1.35797 -3.21497 0
M  V30 5299 C 516.942 -1.4944 -3.97433 0
M  V30 5300 O 517.966 -1.31678 -3.30967 0
M  V30 5301 O 516.825 -1.78463 -5.1654 0
M  V30 5302 H 513.919 -0.236212 -0.792548 0
M  V30 5303 H 516.465 -1.14884 -1.24899 0
M  V30 5304 H 515.237 -2.39498 -3.09446 0
M  V30 5305 H 514.86 -0.870236 -3.8796 0
M  V30 5306 N 515.857 1.33968 -0.830081 0
M  V30 5307 C 517.082 2.02813 -0.433796 0
M  V30 5308 C 517.507 1.62076 0.954614 0
M  V30 5309 O 516.865 0.808955 1.62252 0
M  V30 5310 C 516.913 3.56348 -0.552115 0
M  V30 5311 O 516.017 4.10202 0.425191 0
M  V30 5312 H 515.358 0.639817 -0.177567 0
M  V30 5313 H 517.888 1.7106 -1.12248 0
M  V30 5314 H 517.898 4.05722 -0.430513 0
M  V30 5315 H 516.573 3.85344 -1.56471 0
M  V30 5316 H 515.15 3.71979 0.261878 0
M  V30 5317 N 517.335 0.585699 1.46312 0
M  V30 5318 C 518.583 0.072278 2.01971 0
M  V30 5319 C 518.904 -1.29345 1.45928 0
M  V30 5320 O 518.174 -1.84973 0.645109 0
M  V30 5321 H 516.754 0.023729 0.746623 0
M  V30 5322 H 519.416 0.762155 1.7938 0
M  V30 5323 H 518.512 0.00552767 3.121 0
M  V30 5324 N 518.813 -1.54241 0.323641 0
M  V30 5325 C 520.061 -2.00174 -0.278359 0
M  V30 5326 C 520.382 -1.2134 -1.52648 0
M  V30 5327 O 519.652 -0.315244 -1.93347 0
M  V30 5328 H 518.232 -0.739463 -0.105845 0
M  V30 5329 H 520.894 -1.89864 0.440204 0
M  V30 5330 H 519.99 -3.07486 -0.5347 0
M  V30 5331 N 520.291 -0.0518155 -1.57515 0
M  V30 5332 C 521.707 0.304735 -1.56664 0
M  V30 5333 C 521.907 1.71395 -1.05953 0
M  V30 5334 O 520.963 2.42123 -0.716414 0
M  V30 5335 C 522.276 0.132614 -3.00407 0
M  V30 5336 C 523.824 0.20367 -3.12337 0
M  V30 5337 C 524.299 0.0600706 -4.57961 0
M  V30 5338 N 525.79 0.116326 -4.63054 0
M  V30 5339 C 526.525 0.0293363 -5.73392 0
M  V30 5340 N 526.021 -0.110038 -6.92713 0
M  V30 5341 N 527.814 0.0849651 -5.62036 0
M  V30 5342 H 519.965 -0.973056 -1.888 0
M  V30 5343 H 522.228 -0.377781 -0.869474 0
M  V30 5344 H 521.934 -0.839019 -3.41546 0
M  V30 5345 H 521.808 0.893376 -3.66468 0
M  V30 5346 H 524.195 1.16578 -2.71097 0
M  V30 5347 H 524.276 -0.587857 -2.48954 0
M  V30 5348 H 523.92 -0.898715 -4.99886 0
M  V30 5349 H 523.85 0.87075 -5.19351 0
M  V30 5350 H 526.341 0.22327 -3.7724 0
M  V30 5351 H 526.654 -0.169104 -7.72615 0
M  V30 5352 H 524.999 -0.145132 -6.94848 0
M  V30 5353 H 528.19 0.192411 -4.67704 0
M  V30 5354 H 528.363 0.0137131 -6.47999 0
M  V30 5355 N 521.769 1.56035 0.221574 0
M  V30 5356 C 522.679 1.95581 1.29558 0
M  V30 5357 C 523.695 0.859639 1.51282 0
M  V30 5358 O 524.871 1.16321 1.64413 0
M  V30 5359 C 521.936 2.26447 2.62531 0
M  V30 5360 C 520.997 3.49632 2.4911 0
M  V30 5361 C 520.23 3.79017 3.75742 0
M  V30 5362 O 520.453 3.10077 4.78757 0
M  V30 5363 O 519.387 4.72507 3.72855 0
M  V30 5364 H 523.213 2.8711 0.990035 0
M  V30 5365 H 520.798 1.43244 0.424434 0
M  V30 5366 H 522.68 2.47494 3.41064 0
M  V30 5367 H 521.355 1.38092 2.92766 0
M  V30 5368 H 520.262 3.33864 1.68777 0
M  V30 5369 H 521.595 4.3837 2.23814 0
M  V30 5370 N 523.247 -0.488276 1.49845 0
M  V30 5371 C 524.524 -1.24959 1.50481 0
M  V30 5372 C 524.904 -2.09735 0.239698 0
M  V30 5373 O 524.252 -2.14865 -0.777524 0
M  V30 5374 C 524.462 -2.0954 2.79095 0
M  V30 5375 C 525.81 -2.68305 3.29086 0
M  V30 5376 O 526.834 -2.19797 2.80299 0
M  V30 5377 O 525.693 -3.56643 4.14087 0
M  V30 5378 H 522.787 -0.566133 0.602845 0
M  V30 5379 H 525.333 -0.501504 1.6212 0
M  V30 5380 H 524.105 -1.46958 3.62656 0
M  V30 5381 H 523.728 -2.91517 2.70377 0
M  V30 5382 N 524.725 -1.39134 -0.740242 0
M  V30 5383 C 525.655 -1.40165 -1.86751 0
M  V30 5384 C 526.636 -0.265708 -1.68012 0
M  V30 5385 O 527.821 -0.47076 -1.88408 0
M  V30 5386 C 524.951 -1.2392 -3.2444 0
M  V30 5387 C 523.905 -2.34858 -3.57807 0
M  V30 5388 C 523.231 -2.03707 -4.94376 0
M  V30 5389 C 524.531 -3.77159 -3.61315 0
M  V30 5390 H 526.225 -2.345 -1.86145 0
M  V30 5391 H 523.771 -1.12875 -0.89416 0
M  V30 5392 H 525.724 -1.23263 -4.02969 0
M  V30 5393 H 524.448 -0.26051 -3.25559 0
M  V30 5394 H 523.107 -2.34723 -2.81604 0
M  V30 5395 H 522.755 -1.04289 -4.9207 0
M  V30 5396 H 522.455 -2.78016 -5.17669 0
M  V30 5397 H 523.979 -2.04691 -5.75268 0
M  V30 5398 H 525.393 -3.79252 -4.29931 0
M  V30 5399 H 523.79 -4.50784 -3.96124 0
M  V30 5400 H 524.86 -4.08513 -2.61238 0
M  V30 5401 N 526.204 0.969867 -1.24223 0
M  V30 5402 C 527.45 1.7151 -1.08223 0
M  V30 5403 C 527.783 1.90478 0.37838 0
M  V30 5404 O 527.058 1.4647 1.27971 0
M  V30 5405 C 527.341 3.10714 -1.82013 0
M  V30 5406 C 527.194 2.9925 -3.35811 0
M  V30 5407 C 528.513 4.10332 -1.59108 0
M  V30 5408 H 525.632 0.622499 -0.394543 0
M  V30 5409 H 528.274 1.1284 -1.52863 0
M  V30 5410 H 526.424 3.608 -1.44068 0
M  V30 5411 H 528.096 2.56608 -3.83341 0
M  V30 5412 H 526.339 2.35512 -3.64303 0
M  V30 5413 H 527.01 3.97857 -3.82641 0
M  V30 5414 H 529.486 3.69097 -1.92111 0
M  V30 5415 H 528.362 5.05804 -2.13198 0
M  V30 5416 H 528.623 4.38926 -0.528832 0
M  V30 5417 N 527.682 1.05563 1.17022 0
M  V30 5418 C 528.912 0.787307 1.91011 0
M  V30 5419 C 529.32 -0.661256 1.77268 0
M  V30 5420 O 528.663 -1.46379 1.10991 0
M  V30 5421 C 528.725 1.09313 3.42478 0
M  V30 5422 C 528.389 2.53863 3.80004 0
M  V30 5423 C 529.386 3.52081 3.82538 0
M  V30 5424 C 527.071 2.88969 4.10855 0
M  V30 5425 C 529.065 4.83449 4.15399 0
M  V30 5426 C 526.752 4.2054 4.43384 0
M  V30 5427 C 527.75 5.17589 4.45635 0
M  V30 5428 O 527.438 6.46799 4.77395 0
M  V30 5429 H 527.17 0.285463 0.61277 0
M  V30 5430 H 529.724 1.41051 1.49311 0
M  V30 5431 H 527.954 0.412833 3.8449 0
M  V30 5432 H 529.643 0.810224 3.97731 0
M  V30 5433 H 530.409 3.26299 3.58823 0
M  V30 5434 H 526.288 2.1409 4.08272 0
M  V30 5435 H 529.832 5.59194 4.1707 0
M  V30 5436 H 525.729 4.46083 4.66563 0
M  V30 5437 H 526.497 6.51677 4.95237 0
M  V30 5438 N 529.16 -1.33526 0.837174 0
M  V30 5439 C 530.108 -2.31168 0.257698 0
M  V30 5440 C 531.102 -1.5806 -0.609388 0
M  V30 5441 O 532.308 -1.72941 -0.499139 0
M  V30 5442 H 528.683 -0.74922 0.0646058 0
M  V30 5443 H 530.654 -2.77552 1.09578 0
M  V30 5444 C 529.403 -3.4326 -0.553887 0
M  V30 5445 H 528.726 -3.99665 0.104008 0
M  V30 5446 H 530.166 -4.13782 -0.925219 0
M  V30 5447 C 528.625 -2.88965 -1.73207 0
M  V30 5448 O 529.155 -2.85013 -2.83073 0
M  V30 5449 N 527.361 -2.45596 -1.55342 0
M  V30 5450 H 526.908 -2.49009 -0.659705 0
M  V30 5451 H 526.866 -2.0962 -2.34322 0
M  V30 5452 N 530.638 -0.59345 -1.46 0
M  V30 5453 C 531.887 -0.0808084 -2.01538 0
M  V30 5454 C 532.2 1.29112 -1.46934 0
M  V30 5455 O 533.406 1.8957 -1.94359 0
M  V30 5456 C 531.862 -0.0938311 -3.59778 0
M  V30 5457 C 531.47 -1.46474 -4.23379 0
M  V30 5458 C 533.214 0.364306 -4.22934 0
M  V30 5459 C 531.121 -1.4349 -5.73729 0
M  V30 5460 H 530.051 -0.0264407 -0.753536 0
M  V30 5461 H 532.702 -0.746689 -1.67621 0
M  V30 5462 H 531.084 0.638427 -3.9082 0
M  V30 5463 H 532.258 -2.21758 -4.03931 0
M  V30 5464 H 530.573 -1.86379 -3.7236 0
M  V30 5465 H 533.17 0.405584 -5.3316 0
M  V30 5466 H 533.513 1.38409 -3.92618 0
M  V30 5467 H 534.046 -0.31423 -3.96557 0
M  V30 5468 H 530.785 -2.43184 -6.08722 0
M  V30 5469 H 530.305 -0.724431 -5.95409 0
M  V30 5470 H 531.984 -1.15243 -6.36654 0
M  V30 5471 N 532.116 1.54067 -0.331816 0
M  V30 5472 C 533.365 1.99895 0.269209 0
M  V30 5473 C 533.678 1.22371 1.52593 0
M  V30 5474 O 534.884 1.58618 2.20347 0
M  V30 5475 C 533.34 3.55972 0.530244 0
M  V30 5476 C 532.948 4.4234 -0.709901 0
M  V30 5477 C 534.692 4.10247 1.09077 0
M  V30 5478 C 532.599 5.89905 -0.420312 0
M  V30 5479 H 531.529 0.746741 0.104371 0
M  V30 5480 H 534.18 1.78014 -0.445324 0
M  V30 5481 H 532.562 3.73873 1.30518 0
M  V30 5482 H 533.736 4.36215 -1.48504 0
M  V30 5483 H 532.051 3.98997 -1.19123 0
M  V30 5484 H 534.648 5.18095 1.32219 0
M  V30 5485 H 534.991 3.62739 2.0427 0
M  V30 5486 H 535.524 3.96011 0.376824 0
M  V30 5487 H 532.263 6.41623 -1.34164 0
M  V30 5488 H 531.783 5.98962 0.316962 0
M  V30 5489 H 533.462 6.46991 -0.0331956 0
M  V30 5490 N 533.594 0.0601682 1.57485 0
M  V30 5491 C 534.834 -0.615384 1.94916 0
M  V30 5492 C 535.198 -1.67475 0.938948 0
M  V30 5493 O 536.399 -2.40502 1.20051 0
M  V30 5494 C 534.67 -1.18788 3.37082 0
M  V30 5495 S 536.229 -1.88018 3.96478 0
M  V30 5496 H 533.047 -0.201821 0.681754 0
M  V30 5497 H 535.649 0.131252 1.95059 0
M  V30 5498 H 534.353 -0.404869 4.08398 0
M  V30 5499 H 533.884 -1.97114 3.40455 0
M  V30 5500 H 535.899 -3.16161 3.82435 0
M  V30 5501 N 535.072 -1.5615 -0.213296 0
M  V30 5502 C 536.019 -1.93086 -1.26437 0
M  V30 5503 C 536.989 -0.789086 -1.4616 0
M  V30 5504 O 538.174 -1.04569 -1.59593 0
M  V30 5505 C 535.314 -2.26003 -2.608 0
M  V30 5506 C 534.427 -3.53156 -2.48807 0
M  V30 5507 C 533.562 -3.7548 -3.7575 0
M  V30 5508 C 532.601 -4.96119 -3.58514 0
M  V30 5509 N 531.738 -5.14791 -4.77425 0
M  V30 5510 H 536.578 -2.82707 -0.942376 0
M  V30 5511 H 534.115 -1.39919 -0.454001 0
M  V30 5512 H 536.073 -2.431 -3.39055 0
M  V30 5513 H 534.703 -1.39546 -2.91079 0
M  V30 5514 H 533.755 -3.44207 -1.61944 0
M  V30 5515 H 535.067 -4.41565 -2.31996 0
M  V30 5516 H 534.221 -3.92718 -4.62447 0
M  V30 5517 H 532.96 -2.85368 -3.95495 0
M  V30 5518 H 531.965 -4.78823 -2.70201 0
M  V30 5519 H 533.19 -5.87724 -3.40231 0
M  V30 5520 H 531.136 -4.27623 -4.97468 0
M  V30 5521 H 531.053 -5.97347 -4.63371 0
M  V30 5522 H 532.321 -5.36471 -5.65525 0
M  V30 5523 N 536.55 0.480323 -1.50102 0
M  V30 5524 C 537.775 1.26126 -1.64642 0
M  V30 5525 C 538.2 1.85257 -0.325823 0
M  V30 5526 O 537.558 1.66854 0.709194 0
M  V30 5527 C 537.606 2.35243 -2.73301 0
M  V30 5528 O 536.71 3.39646 -2.33911 0
M  V30 5529 H 536.051 0.371463 -0.550374 0
M  V30 5530 H 538.581 0.572696 -1.96421 0
M  V30 5531 H 538.591 2.80695 -2.96098 0
M  V30 5532 H 537.266 1.91574 -3.6915 0
M  V30 5533 H 535.843 2.99969 -2.21525 0
M  V30 5534 N 538.028 1.39524 0.732853 0
M  V30 5535 C 539.268 1.383 1.50508 0
M  V30 5536 C 539.632 -0.0208271 1.91989 0
M  V30 5537 O 540.833 -0.158091 2.68335 0
M  V30 5538 C 539.104 2.33007 2.71003 0
M  V30 5539 S 540.663 2.49989 3.60626 0
M  V30 5540 H 537.481 0.490417 0.514794 0
M  V30 5541 H 540.083 1.75641 0.858524 0
M  V30 5542 H 538.787 3.33862 2.38672 0
M  V30 5543 H 538.318 1.96889 3.40585 0
M  V30 5544 H 540.333 1.7394 4.64714 0
M  V30 5545 N 539.506 -0.963266 1.24736 0
M  V30 5546 C 540.754 -1.70343 1.08755 0
M  V30 5547 C 541.075 -1.91387 -0.373619 0
M  V30 5548 O 540.345 -1.4948 -1.2662 0
M  V30 5549 H 538.925 -0.631224 0.399456 0
M  V30 5550 H 541.587 -1.15859 1.56725 0
M  V30 5551 H 540.683 -2.68616 1.58909 0
M  V30 5552 N 540.985 -1.06182 -1.16461 0
M  V30 5553 C 542.21 -0.798599 -1.91408 0
M  V30 5554 C 542.635 0.640987 -1.76842 0
M  V30 5555 O 541.993 1.44652 -1.09296 0
M  V30 5556 C 542.041 -1.19665 -3.40165 0
M  V30 5557 O 541.145 -0.334768 -4.11039 0
M  V30 5558 H 540.486 -0.291961 -0.596368 0
M  V30 5559 H 543.016 -1.41732 -1.47557 0
M  V30 5560 H 543.026 -1.16772 -3.90933 0
M  V30 5561 H 541.701 -2.24526 -3.50087 0
M  V30 5562 H 540.278 -0.425168 -3.70468 0
M  V30 5563 N 542.463 1.3308 -0.844243 0
M  V30 5564 C 543.711 1.97215 -0.441676 0
M  V30 5565 C 544.032 1.67185 1.0037 0
M  V30 5566 O 543.302 0.973588 1.69994 0
M  V30 5567 H 541.882 0.72959 -0.160335 0
M  V30 5568 H 544.544 1.62348 -1.07838 0
M  V30 5569 H 543.64 3.06698 -0.57815 0
M  V30 5570 N 543.941 0.601185 1.45683 0
M  V30 5571 C 545.357 0.264315 1.57396 0
M  V30 5572 C 545.557 -1.23324 1.59353 0
M  V30 5573 O 544.613 -2.01594 1.52039 0
M  V30 5574 C 545.926 0.929839 2.85962 0
M  V30 5575 C 547.474 0.905156 2.99626 0
M  V30 5576 C 547.949 1.55057 4.30954 0
M  V30 5577 N 549.44 1.51576 4.37697 0
M  V30 5578 C 550.175 1.98436 5.37969 0
M  V30 5579 N 549.671 2.53352 6.44813 0
M  V30 5580 N 551.464 1.89242 5.29286 0
M  V30 5581 H 543.615 1.57363 1.42656 0
M  V30 5582 H 545.878 0.658831 0.681649 0
M  V30 5583 H 545.584 1.98404 2.90394 0
M  V30 5584 H 545.458 0.449224 3.74515 0
M  V30 5585 H 547.845 -0.14048 2.94765 0
M  V30 5586 H 547.926 1.42397 2.12501 0
M  V30 5587 H 547.57 2.5955 4.36573 0
M  V30 5588 H 547.5 1.00682 5.16886 0
M  V30 5589 H 549.991 1.11452 3.61091 0
M  V30 5590 H 550.304 2.86918 7.17564 0
M  V30 5591 H 548.649 2.57388 6.45582 0
M  V30 5592 H 551.84 1.46083 4.44722 0
M  V30 5593 H 552.013 2.26075 6.07284 0
M  V30 5594 N 545.419 -1.53889 0.339982 0
M  V30 5595 C 546.667 -2.00458 -0.257112 0
M  V30 5596 C 546.988 -1.22953 -1.51353 0
M  V30 5597 O 546.258 -0.335734 -1.93002 0
M  V30 5598 H 544.838 -0.740544 -0.0979965 0
M  V30 5599 H 547.5 -1.89386 0.460317 0
M  V30 5600 H 546.596 -3.08035 -0.502057 0
M  V30 5601 N 546.897 -0.0685191 -1.57451 0
M  V30 5602 C 547.86 0.885173 -2.11417 0
M  V30 5603 C 548.86 1.22853 -1.03748 0
M  V30 5604 O 550.05 1.16235 -1.2975 0
M  V30 5605 C 547.182 2.18964 -2.61281 0
M  V30 5606 H 548.375 0.417034 -2.96986 0
M  V30 5607 H 545.928 0.18014 -1.55258 0
M  V30 5608 H 546.663 2.70321 -1.79156 0
M  V30 5609 H 546.448 1.9534 -3.39977 0
M  V30 5610 H 547.938 2.87242 -3.0312 0
M  V30 5611 N 548.375 1.56261 0.205012 0
M  V30 5612 C 549.615 1.81823 0.933806 0
M  V30 5613 C 549.979 0.644534 1.80858 0
M  V30 5614 O 551.18 0.779819 2.5724 0
M  V30 5615 C 549.451 3.12362 1.7368 0
M  V30 5616 S 551.01 3.59296 2.51897 0
M  V30 5617 H 547.828 0.638209 0.313386 0
M  V30 5618 H 550.43 1.94495 0.198001 0
M  V30 5619 H 549.134 3.95809 1.08459 0
M  V30 5620 H 548.665 3.02542 2.5146 0
M  V30 5621 H 550.68 3.23945 3.75864 0
M  V30 5622 N 549.853 -0.472356 1.50355 0
M  V30 5623 C 551.081 -1.24784 1.65035 0
M  V30 5624 C 551.496 -1.85837 0.333176 0
M  V30 5625 O 550.853 -1.69168 -0.68472 0
M  V30 5626 C 550.904 -2.35747 2.74054 0
M  V30 5627 O 550.625 -1.77197 4.00665 0
M  V30 5628 C 552.126 -3.26645 2.99696 0
M  V30 5629 H 549.346 -0.377432 0.554785 0
M  V30 5630 H 551.89 -0.563962 1.9657 0
M  V30 5631 H 550.045 -2.99912 2.45217 0
M  V30 5632 H 550.459 -2.5026 4.60945 0
M  V30 5633 H 551.933 -4.00718 3.79644 0
M  V30 5634 H 552.41 -3.8535 2.10718 0
M  V30 5635 H 553.016 -2.68218 3.3006 0
M  V30 5636 N 551.331 -1.39911 -0.725443 0
M  V30 5637 C 552.747 -1.21725 -1.03224 0
M  V30 5638 C 552.947 -0.0855224 -2.01318 0
M  V30 5639 O 552.003 0.55976 -2.46217 0
M  V30 5640 C 553.316 -2.55511 -1.58539 0
M  V30 5641 C 554.864 -2.62439 -1.70572 0
M  V30 5642 C 555.339 -3.9647 -2.29294 0
M  V30 5643 N 556.83 -3.98159 -2.36692 0
M  V30 5644 C 557.565 -4.98647 -2.83088 0
M  V30 5645 N 557.061 -6.0953 -3.2931 0
M  V30 5646 N 558.854 -4.8602 -2.82384 0
M  V30 5647 H 551.005 -2.12267 -0.075048 0
M  V30 5648 H 553.268 -0.943136 -0.0959066 0
M  V30 5649 H 552.974 -3.38926 -0.939249 0
M  V30 5650 H 552.848 -2.75905 -2.57208 0
M  V30 5651 H 555.235 -1.79401 -2.34306 0
M  V30 5652 H 555.316 -2.45885 -0.705297 0
M  V30 5653 H 554.96 -4.79942 -1.66186 0
M  V30 5654 H 554.89 -4.10349 -3.30032 0
M  V30 5655 H 557.381 -3.18085 -2.04035 0
M  V30 5656 H 557.694 -6.82106 -3.6325 0
M  V30 5657 H 556.039 -6.1311 -3.27294 0
M  V30 5658 H 559.23 -3.98493 -2.45603 0
M  V30 5659 H 559.403 -5.64478 -3.18226 0
M  V30 5660 N 552.809 0.956637 -1.25245 0
M  V30 5661 C 554.049 1.71585 -1.11076 0
M  V30 5662 C 554.413 1.88916 0.34277 0
M  V30 5663 O 555.614 2.61875 0.606227 0
M  V30 5664 C 553.885 3.06267 -1.84215 0
M  V30 5665 S 555.444 3.97469 -1.85914 0
M  V30 5666 H 552.262 0.589803 -0.397055 0
M  V30 5667 H 554.864 1.14114 -1.58739 0
M  V30 5668 H 553.568 2.91322 -2.89067 0
M  V30 5669 H 553.099 3.688 -1.36931 0
M  V30 5670 H 555.114 4.87316 -0.93474 0
M  V30 5671 N 554.287 1.06798 1.15896 0
M  V30 5672 C 555.535 0.786211 1.8618 0
M  V30 5673 C 555.856 -0.689547 1.82401 0
M  V30 5674 O 555.126 -1.49913 1.26107 0
M  V30 5675 H 553.706 0.287843 0.689315 0
M  V30 5676 H 556.368 1.35055 1.40521 0
M  V30 5677 H 555.464 1.1157 2.91477 0
M  V30 5678 N 555.766 -1.3263 0.851289 0
M  V30 5679 C 557.043 -1.91982 0.374448 0
M  V30 5680 C 557.423 -1.77568 -1.14161 0
M  V30 5681 O 556.771 -1.1717 -1.96172 0
M  V30 5682 C 556.981 -3.38862 0.835088 0
M  V30 5683 C 558.329 -4.15999 0.850309 0
M  V30 5684 O 559.353 -3.47566 0.779505 0
M  V30 5685 O 558.212 -5.38189 0.949481 0
M  V30 5686 H 555.306 -0.819846 0.10854 0
M  V30 5687 H 557.852 -1.41422 0.937966 0
M  V30 5688 H 556.624 -3.43281 1.87814 0
M  V30 5689 H 556.247 -3.96821 0.248833 0
M  V30 5690 N 557.244 -0.608902 -1.45362 0
M  V30 5691 C 558.192 0.121639 -2.32282 0
M  V30 5692 C 559.186 0.858301 -1.46046 0
M  V30 5693 O 560.392 0.773718 -1.62523 0
M  V30 5694 H 556.767 0.058086 -0.749753 0
M  V30 5695 H 558.738 -0.629866 -2.91677 0
M  V30 5696 C 557.487 1.1047 -3.29684 0
M  V30 5697 H 556.81 0.547278 -3.96036 0
M  V30 5698 H 558.25 1.58576 -3.9323 0
M  V30 5699 C 556.709 2.17891 -2.56954 0
M  V30 5700 O 557.239 3.25652 -2.35189 0
M  V30 5701 N 555.445 1.93211 -2.17066 0
M  V30 5702 H 554.992 1.05584 -2.34967 0
M  V30 5703 H 554.95 2.6529 -1.68727 0
M  V30 5704 N 558.722 1.53707 -0.348139 0
M  V30 5705 C 559.968 2.01286 0.247332 0
M  V30 5706 C 560.301 1.23546 1.49834 0
M  V30 5707 O 559.576 0.324331 1.91777 0
M  V30 5708 C 559.859 3.55768 0.556858 0
M  V30 5709 C 559.712 4.44216 -0.706564 0
M  V30 5710 C 561.031 4.1841 1.3646 0
M  V30 5711 H 558.15 0.731677 0.0884201 0
M  V30 5712 H 560.792 1.84106 -0.469584 0
M  V30 5713 H 558.942 3.70539 1.16761 0
M  V30 5714 H 560.614 4.41274 -1.34444 0
M  V30 5715 H 558.857 4.12892 -1.33052 0
M  V30 5716 H 559.528 5.50202 -0.445186 0
M  V30 5717 H 562.004 4.07365 0.848113 0
M  V30 5718 H 560.88 5.26563 1.54992 0
M  V30 5719 H 561.141 3.7333 2.36805 0
M  V30 5720 N 560.2 0.0768682 1.57412 0
M  V30 5721 C 561.132 -0.918248 2.10002 0
M  V30 5722 C 562.145 -1.25808 1.03325 0
M  V30 5723 O 563.334 -1.21438 1.30824 0
M  V30 5724 C 560.434 -2.23263 2.54964 0
M  V30 5725 C 559.607 -2.07088 3.8527 0
M  V30 5726 C 558.666 -3.21876 4.16272 0
M  V30 5727 O 557.692 -2.96643 4.8579 0
M  V30 5728 N 558.894 -4.4712 3.70221 0
M  V30 5729 H 561.659 -0.469209 2.96004 0
M  V30 5730 H 559.22 -0.108725 1.61535 0
M  V30 5731 H 561.212 -2.9897 2.72762 0
M  V30 5732 H 559.782 -2.59649 1.74072 0
M  V30 5733 H 559.002 -1.15818 3.76802 0
M  V30 5734 H 560.29 -1.93537 4.70554 0
M  V30 5735 H 559.688 -4.70506 3.1407 0
M  V30 5736 H 558.245 -5.19837 3.93209 0
M  V30 5737 N 561.678 -1.56367 -0.196722 0
M  V30 5738 C 562.908 -1.84371 -0.932254 0
M  V30 5739 C 563.316 -0.657013 -1.77426 0
M  V30 5740 O 562.659 0.383576 -1.79651 0
M  V30 5741 C 562.721 -3.06454 -1.87952 0
M  V30 5742 C 562.385 -4.40425 -1.21962 0
M  V30 5743 C 563.382 -5.16457 -0.597343 0
M  V30 5744 C 561.067 -4.8716 -1.22396 0
M  V30 5745 C 563.061 -6.37399 0.0117913 0
M  V30 5746 C 560.748 -6.08038 -0.610995 0
M  V30 5747 C 561.746 -6.83 0.00580487 0
M  V30 5748 O 561.434 -8.01589 0.609173 0
M  V30 5749 H 561.166 -0.616377 -0.277589 0
M  V30 5750 H 563.72 -2.04329 -0.209452 0
M  V30 5751 H 561.95 -2.82377 -2.64197 0
M  V30 5752 H 563.639 -3.21118 -2.48271 0
M  V30 5753 H 564.405 -4.81445 -0.586142 0
M  V30 5754 H 560.284 -4.2877 -1.69345 0
M  V30 5755 H 563.828 -6.9585 0.493836 0
M  V30 5756 H 559.725 -6.42519 -0.619693 0
M  V30 5757 H 560.493 -8.16935 0.505919 0
M  V30 5758 N 563.156 0.464375 -1.50603 0
M  V30 5759 C 564.119 1.54393 -1.69397 0
M  V30 5760 C 565.119 1.50566 -0.564504 0
M  V30 5761 O 566.309 1.53066 -0.831645 0
M  V30 5762 C 563.441 2.9401 -1.72543 0
M  V30 5763 H 564.634 1.39044 -2.65719 0
M  V30 5764 H 562.187 0.69122 -1.40185 0
M  V30 5765 H 562.922 3.14795 -0.77938 0
M  V30 5766 H 562.707 2.98195 -2.54602 0
M  V30 5767 H 564.197 3.72375 -1.89015 0
M  V30 5768 N 564.634 1.40294 0.718013 0
M  V30 5769 C 566.045 1.34289 1.29705 0
M  V30 5770 C 566.396 0.0152228 1.96194 0
M  V30 5771 O 565.521 -0.88682 1.97394 0
M  V30 5772 C 566.116 2.43219 2.3586 0
M  V30 5773 C 564.675 2.40682 2.89394 0
M  V30 5774 C 563.822 2.24223 1.63154 0
M  V30 5775 H 566.773 1.50135 0.514312 0
M  V30 5776 H 566.794 2.10986 3.16647 0
M  V30 5777 H 566.306 3.39836 1.87439 0
M  V30 5778 H 564.407 1.47756 3.42051 0
M  V30 5779 H 564.52 3.36177 3.41353 0
M  V30 5780 H 562.884 1.71696 1.88129 0
M  V30 5781 H 563.667 3.22834 1.16761 0
M  V30 5782 N 566.112 -0.949982 1.2575 0
M  V30 5783 C 567.528 -1.22191 1.02672 0
M  V30 5784 C 567.728 -1.99898 -0.253588 0
M  V30 5785 O 566.784 -2.33329 -0.965076 0
M  V30 5786 C 568.097 -1.99175 2.25277 0
M  V30 5787 C 569.645 -2.12201 2.30087 0
M  V30 5788 C 570.12 -2.92586 3.5236 0
M  V30 5789 N 571.611 -3.00163 3.52784 0
M  V30 5790 C 572.346 -3.62766 4.44059 0
M  V30 5791 N 571.842 -4.26943 5.45611 0
M  V30 5792 N 573.635 -3.59953 4.3173 0
M  V30 5793 H 565.786 -0.430258 2.07996 0
M  V30 5794 H 568.049 -0.252844 0.91366 0
M  V30 5795 H 567.755 -1.49479 3.18354 0
M  V30 5796 H 567.629 -2.99868 2.28821 0
M  V30 5797 H 570.016 -2.61093 1.3753 0
M  V30 5798 H 570.097 -1.10799 2.30559 0
M  V30 5799 H 569.741 -2.44383 4.45241 0
M  V30 5800 H 569.671 -3.94224 3.49134 0
M  V30 5801 H 572.162 -2.54529 2.79327 0
M  V30 5802 H 572.475 -4.72583 6.11461 0
M  V30 5803 H 570.82 -4.25557 5.49478 0
M  V30 5804 H 574.011 -3.09003 3.51617 0
M  V30 5805 H 574.184 -4.08455 5.03059 0
M  V30 5806 N 567.59 -1.07411 -1.15328 0
M  V30 5807 C 568.522 -0.652924 -2.19703 0
M  V30 5808 C 569.535 0.294869 -1.60107 0
M  V30 5809 O 570.724 0.0840932 -1.78302 0
M  V30 5810 C 567.824 0.061434 -3.38844 0
M  V30 5811 C 566.997 -0.902696 -4.27984 0
M  V30 5812 C 566.056 -0.225521 -5.25717 0
M  V30 5813 O 565.082 -0.86676 -5.62562 0
M  V30 5814 N 566.284 1.02858 -5.71315 0
M  V30 5815 H 569.049 -1.55081 -2.56457 0
M  V30 5816 H 566.61 -0.958883 -1.30449 0
M  V30 5817 H 568.602 0.525145 -4.01278 0
M  V30 5818 H 567.172 0.861269 -3.00501 0
M  V30 5819 H 566.392 -1.54551 -3.6264 0
M  V30 5820 H 567.68 -1.55636 -4.84412 0
M  V30 5821 H 567.078 1.56948 -5.43492 0
M  V30 5822 H 565.635 1.43596 -6.35786 0
M  V30 5823 N 569.068 1.32177 -0.85831 0
M  V30 5824 C 569.998 2.31282 -0.321041 0
M  V30 5825 C 570.979 1.59841 0.581786 0
M  V30 5826 O 572.164 1.87619 0.501262 0
M  V30 5827 C 569.294 3.4385 0.48832 0
M  V30 5828 C 568.248 4.26799 -0.320391 0
M  V30 5829 C 567.574 5.31164 0.613934 0
M  V30 5830 C 568.874 4.98829 -1.54813 0
M  V30 5831 H 570.568 2.76469 -1.14915 0
M  V30 5832 H 568.114 1.32916 -0.554028 0
M  V30 5833 H 570.067 4.12224 0.874626 0
M  V30 5834 H 568.791 2.97401 1.34983 0
M  V30 5835 H 567.45 3.60077 -0.688497 0
M  V30 5836 H 567.098 4.80967 1.47239 0
M  V30 5837 H 566.798 5.8755 0.0768097 0
M  V30 5838 H 568.322 6.024 0.997336 0
M  V30 5839 H 569.736 5.59864 -1.23392 0
M  V30 5840 H 568.133 5.64957 -2.02346 0
M  V30 5841 H 569.203 4.26483 -2.30739 0
M  V30 5842 N 570.547 0.616602 1.45037 0
M  V30 5843 C 571.795 0.115103 2.01772 0
M  V30 5844 C 572.116 -1.2622 1.48639 0
M  V30 5845 O 571.386 -1.83563 0.684199 0
M  V30 5846 H 569.966 0.0395607 0.745952 0
M  V30 5847 H 572.628 0.800032 1.77723 0
M  V30 5848 H 571.724 0.0717274 3.12018 0
M  V30 5849 N 572.025 -1.5352 0.356285 0
M  V30 5850 C 572.955 -2.28372 -0.486661 0
M  V30 5851 C 573.936 -1.30432 -1.09185 0
M  V30 5852 O 575.121 -1.59291 -1.11085 0
M  V30 5853 C 572.251 -3.06604 -1.63129 0
M  V30 5854 C 571.205 -4.12154 -1.15381 0
M  V30 5855 C 570.531 -4.78415 -2.38796 0
M  V30 5856 C 571.831 -5.21724 -0.245179 0
M  V30 5857 H 573.525 -2.99083 0.137797 0
M  V30 5858 H 571.071 -1.43841 0.0677134 0
M  V30 5859 H 573.024 -3.57712 -2.22755 0
M  V30 5860 H 571.748 -2.33568 -2.28284 0
M  V30 5861 H 570.407 -3.61978 -0.580294 0
M  V30 5862 H 570.055 -4.01959 -3.02387 0
M  V30 5863 H 569.755 -5.49734 -2.07524 0
M  V30 5864 H 571.279 -5.32313 -2.99125 0
M  V30 5865 H 572.693 -5.68391 -0.748646 0
M  V30 5866 H 571.09 -6.00095 -0.0237608 0
M  V30 5867 H 572.16 -4.79596 0.715229 0
M  V30 5868 N 573.503 -0.0852151 -1.57369 0
M  V30 5869 C 574.731 0.58946 -1.98325 0
M  V30 5870 C 575.146 1.62333 -0.96403 0
M  V30 5871 O 574.503 1.82438 0.0476395 0
M  V30 5872 C 574.554 1.24604 -3.39347 0
M  V30 5873 O 574.275 0.253532 -4.37366 0
M  V30 5874 C 575.776 2.00726 -3.95252 0
M  V30 5875 H 572.996 0.158783 -0.651942 0
M  V30 5876 H 575.54 -0.161584 -2.03861 0
M  V30 5877 H 573.695 1.94808 -3.34856 0
M  V30 5878 H 574.109 0.726207 -5.19448 0
M  V30 5879 H 575.583 2.42039 -4.96106 0
M  V30 5880 H 576.06 2.86919 -3.32527 0
M  V30 5881 H 576.666 1.3536 -4.03185 0
M  V30 5882 N 574.981 1.5647 0.188427 0
M  V30 5883 C 575.891 1.98285 1.2538 0
M  V30 5884 C 576.907 0.891535 1.49424 0
M  V30 5885 O 578.083 1.19782 1.61908 0
M  V30 5886 C 575.148 2.31965 2.57669 0
M  V30 5887 C 574.209 3.54838 2.41638 0
M  V30 5888 C 573.442 3.86901 3.67618 0
M  V30 5889 O 573.665 3.20163 4.72072 0
M  V30 5890 O 572.599 4.80309 3.62749 0
M  V30 5891 H 576.425 2.89145 0.928912 0
M  V30 5892 H 574.01 1.44112 0.393955 0
M  V30 5893 H 575.892 2.54673 3.35737 0
M  V30 5894 H 574.567 1.44271 2.89771 0
M  V30 5895 H 573.474 3.37369 1.61658 0
M  V30 5896 H 574.807 4.43019 2.14465 0
M  V30 5897 N 576.459 -0.456382 1.50847 0
M  V30 5898 C 577.87 -1.03685 1.55262 0
M  V30 5899 C 578.221 -1.92779 0.364771 0
M  V30 5900 O 577.346 -2.10043 -0.52068 0
M  V30 5901 C 577.941 -1.88718 2.81374 0
M  V30 5902 C 576.5 -2.41847 2.88422 0
M  V30 5903 C 575.647 -1.20564 2.49719 0
M  V30 5904 H 578.598 -0.238399 1.56899 0
M  V30 5905 H 578.619 -2.73957 2.6406 0
M  V30 5906 H 578.131 -1.23847 3.67809 0
M  V30 5907 H 576.232 -3.10228 2.06372 0
M  V30 5908 H 576.345 -2.75947 3.9165 0
M  V30 5909 H 574.709 -1.54504 2.02486 0
M  V30 5910 H 575.492 -0.573326 3.38479 0
M  V30 5911 N 577.937 -1.40673 -0.710563 0
M  V30 5912 C 579.353 -1.22813 -1.01928 0
M  V30 5913 C 579.553 -0.10687 -2.01216 0
M  V30 5914 O 578.609 0.533614 -2.46797 0
M  V30 5915 C 579.922 -2.57178 -1.5582 0
M  V30 5916 C 581.47 -2.64233 -1.67779 0
M  V30 5917 C 581.945 -3.98879 -2.25076 0
M  V30 5918 N 583.436 -4.00647 -2.32456 0
M  V30 5919 C 584.171 -5.01621 -2.77784 0
M  V30 5920 N 583.667 -6.12989 -3.22826 0
M  V30 5921 N 585.46 -4.88988 -2.77213 0
M  V30 5922 H 577.611 -2.12335 -0.05253 0
M  V30 5923 H 579.874 -0.9441 -0.085898 0
M  V30 5924 H 579.58 -3.39903 -0.903249 0
M  V30 5925 H 579.454 -2.78618 -2.54267 0
M  V30 5926 H 581.841 -1.81876 -2.3239 0
M  V30 5927 H 581.922 -2.46619 -0.679178 0
M  V30 5928 H 581.566 -4.81678 -1.61086 0
M  V30 5929 H 581.496 -4.13826 -3.25661 0
M  V30 5930 H 583.987 -3.20231 -2.0065 0
M  V30 5931 H 584.3 -6.85921 -3.55995 0
M  V30 5932 H 582.645 -6.16547 -3.20773 0
M  V30 5933 H 585.836 -4.01075 -2.41363 0
M  V30 5934 H 586.009 -5.67822 -3.12221 0
M  V30 5935 N 579.415 0.9433 -1.26252 0
M  V30 5936 C 580.664 1.68369 -1.11062 0
M  V30 5937 C 580.977 1.92514 0.346104 0
M  V30 5938 O 582.183 2.64358 0.618646 0
M  V30 5939 C 580.639 3.03171 -1.93946 0
M  V30 5940 C 580.247 2.86782 -3.4418 0
M  V30 5941 C 581.991 3.80916 -1.87359 0
M  V30 5942 C 579.898 4.17044 -4.19319 0
M  V30 5943 H 578.828 0.631469 -0.412023 0
M  V30 5944 H 581.479 1.04922 -1.50544 0
M  V30 5945 H 579.861 3.67587 -1.47296 0
M  V30 5946 H 581.035 2.31229 -3.98585 0
M  V30 5947 H 579.35 2.22482 -3.51981 0
M  V30 5948 H 581.947 4.77417 -2.40784 0
M  V30 5949 H 582.29 4.07658 -0.843857 0
M  V30 5950 H 582.823 3.2327 -2.31821 0
M  V30 5951 H 579.562 3.95487 -5.22753 0
M  V30 5952 H 579.082 4.72319 -3.69696 0
M  V30 5953 H 580.761 4.85513 -4.27651 0
M  V30 5954 N 580.893 1.08022 1.14757 0
M  V30 5955 C 582.123 0.827646 1.89298 0
M  V30 5956 C 582.531 -0.623506 1.78631 0
M  V30 5957 O 581.874 -1.43991 1.14071 0
M  V30 5958 C 581.936 1.16553 3.40082 0
M  V30 5959 C 581.6 2.61866 3.74533 0
M  V30 5960 C 582.597 3.60116 3.74984 0
M  V30 5961 C 580.282 2.97619 4.04633 0
M  V30 5962 C 582.276 4.92151 4.05051 0
M  V30 5963 C 579.963 4.2985 4.34364 0
M  V30 5964 C 580.961 5.26926 4.34555 0
M  V30 5965 O 580.649 6.5678 4.63568 0
M  V30 5966 H 580.381 0.298396 0.606577 0
M  V30 5967 H 582.935 1.44187 1.46285 0
M  V30 5968 H 581.165 0.494296 3.83528 0
M  V30 5969 H 582.854 0.894407 3.95923 0
M  V30 5970 H 583.62 3.33837 3.51821 0
M  V30 5971 H 579.499 2.22702 4.03639 0
M  V30 5972 H 583.043 5.67915 4.05115 0
M  V30 5973 H 578.94 4.55879 4.56995 0
M  V30 5974 H 579.708 6.62035 4.81303 0
M  V30 5975 N 582.371 -1.3172 0.865308 0
M  V30 5976 C 583.62 -1.96145 0.470098 0
M  V30 5977 C 583.933 -1.69182 -0.981674 0
M  V30 5978 O 585.139 -2.27431 -1.48281 0
M  V30 5979 C 583.595 -3.51129 0.789732 0
M  V30 5980 C 583.203 -3.86938 2.25795 0
M  V30 5981 C 584.947 -4.2197 0.462765 0
M  V30 5982 C 582.854 -5.35012 2.52024 0
M  V30 5983 H 581.784 -0.734105 0.172065 0
M  V30 5984 H 584.435 -1.49959 1.05757 0
M  V30 5985 H 582.817 -3.95781 0.131571 0
M  V30 5986 H 583.991 -3.5326 2.95879 0
M  V30 5987 H 582.306 -3.29149 2.55049 0
M  V30 5988 H 584.903 -5.30904 0.636019 0
M  V30 5989 H 585.246 -4.12005 -0.59645 0
M  V30 5990 H 585.779 -3.82936 1.07727 0
M  V30 5991 H 582.518 -5.50008 3.56611 0
M  V30 5992 H 582.038 -5.70058 1.8653 0
M  V30 5993 H 583.717 -6.0222 2.36515 0
M  V30 5994 N 583.85 -0.624285 -1.44708 0
M  V30 5995 C 585.075 -0.131171 -2.06985 0
M  V30 5996 C 585.5 1.18234 -1.46295 0
M  V30 5997 O 584.858 1.72375 -0.561842 0
M  V30 5998 C 584.906 -0.0226724 -3.60593 0
M  V30 5999 O 584.01 1.02314 -3.99507 0
M  V30 6000 H 583.351 -0.0816556 -0.65896 0
M  V30 6001 H 585.88 -0.859027 -1.85693 0
M  V30 6002 H 585.891 0.170138 -4.07645 0
M  V30 6003 H 584.566 -0.981685 -4.04148 0
M  V30 6004 H 583.143 0.805452 -3.64097 0
M  V30 6005 N 585.328 1.53329 -0.364422 0
M  V30 6006 C 586.605 1.93557 0.281962 0
M  V30 6007 C 586.985 1.29786 1.6649 0
M  V30 6008 O 586.333 0.456512 2.23893 0
M  V30 6009 C 586.543 3.47405 0.333331 0
M  V30 6010 C 587.891 4.20699 0.574231 0
M  V30 6011 O 588.915 3.53779 0.414588 0
M  V30 6012 O 587.774 5.39287 0.885002 0
M  V30 6013 H 584.868 0.809573 0.168881 0
M  V30 6014 H 587.414 1.64494 -0.417121 0
M  V30 6015 H 586.186 3.86091 -0.636326 0
M  V30 6016 H 585.809 3.82697 1.07836 0
M  V30 6017 N 586.806 0.0935595 1.57322 0
M  V30 6018 C 587.736 -0.863062 2.16964 0
M  V30 6019 C 588.717 -1.29528 1.10256 0
M  V30 6020 O 589.902 -1.36245 1.38387 0
M  V30 6021 C 587.032 -2.12276 2.74875 0
M  V30 6022 C 585.986 -1.82921 3.86942 0
M  V30 6023 C 585.312 -3.15707 4.31548 0
M  V30 6024 C 586.612 -1.11737 5.10208 0
M  V30 6025 H 588.306 -0.366145 2.97153 0
M  V30 6026 H 585.852 -0.174673 1.42937 0
M  V30 6027 H 587.805 -2.79634 3.1525 0
M  V30 6028 H 586.529 -2.64248 1.91938 0
M  V30 6029 H 585.188 -1.17961 3.47103 0
M  V30 6030 H 584.836 -3.65563 3.45504 0
M  V30 6031 H 584.536 -2.96849 5.07104 0
M  V30 6032 H 586.06 -3.84226 4.74555 0
M  V30 6033 H 587.474 -1.69203 5.47762 0
M  V30 6034 H 585.871 -1.03064 5.91183 0
M  V30 6035 H 586.941 -0.0998818 4.84797 0
M  V30 6036 N 588.284 -1.56567 -0.180126 0
M  V30 6037 C 589.214 -1.98753 -1.22553 0
M  V30 6038 C 590.195 -0.86175 -1.46656 0
M  V30 6039 O 591.38 -1.12719 -1.58139 0
M  V30 6040 C 588.51 -2.33988 -2.56645 0
M  V30 6041 C 587.464 -3.49445 -2.47128 0
M  V30 6042 C 586.79 -3.70397 -3.8563 0
M  V30 6043 C 588.09 -4.83171 -1.98352 0
M  V30 6044 H 589.784 -2.86332 -0.874896 0
M  V30 6045 H 587.33 -1.37757 -0.419414 0
M  V30 6046 H 589.283 -2.62097 -3.29974 0
M  V30 6047 H 588.007 -1.43309 -2.93479 0
M  V30 6048 H 586.666 -3.2145 -1.76254 0
M  V30 6049 H 586.314 -2.77023 -4.19842 0
M  V30 6050 H 586.014 -4.48077 -3.80132 0
M  V30 6051 H 587.538 -4.00897 -4.60558 0
M  V30 6052 H 588.952 -5.10213 -2.61449 0
M  V30 6053 H 587.349 -5.64425 -2.03823 0
M  V30 6054 H 588.419 -4.75753 -0.937402 0
M  V30 6055 N 589.762 0.448376 -1.51087 0
M  V30 6056 C 590.725 1.52588 -1.71025 0
M  V30 6057 C 591.725 1.49958 -0.580442 0
M  V30 6058 O 592.915 1.52176 -0.847833 0
M  V30 6059 C 590.047 2.92163 -1.75652 0
M  V30 6060 H 591.24 1.36218 -2.67179 0
M  V30 6061 H 588.793 0.676313 -1.4091 0
M  V30 6062 H 589.528 3.13951 -0.812724 0
M  V30 6063 H 589.313 2.95478 -2.57751 0
M  V30 6064 H 590.803 3.70349 -1.92953 0
M  V30 6065 N 591.24 1.41047 0.703093 0
M  V30 6066 C 592.19 1.38774 1.80903 0
M  V30 6067 C 593.174 0.263275 1.58731 0
M  V30 6068 O 594.366 0.503362 1.69692 0
M  V30 6069 C 591.495 1.26497 3.19145 0
M  V30 6070 C 590.581 2.43775 3.47037 0
M  V30 6071 N 590.972 3.69249 3.45672 0
M  V30 6072 C 589.27 2.37425 3.77552 0
M  V30 6073 C 589.971 4.46989 3.72258 0
M  V30 6074 N 588.947 3.76998 3.91629 0
M  V30 6075 H 592.749 2.33714 1.78199 0
M  V30 6076 H 590.263 1.34996 0.902762 0
M  V30 6077 H 592.26 1.2295 3.98358 0
M  V30 6078 H 590.92 0.32534 3.23066 0
M  V30 6079 H 591.931 4.02239 3.26228 0
M  V30 6080 H 588.608 1.51895 3.88888 0
M  V30 6081 H 589.998 5.55894 3.77402 0
M  V30 6082 N 592.718 -0.936591 1.26751 0
M  V30 6083 C 593.946 -1.71758 1.15355 0
M  V30 6084 C 594.361 -1.86549 -0.290683 0
M  V30 6085 O 593.718 -1.37616 -1.19868 0
M  V30 6086 C 593.769 -3.12193 1.82258 0
M  V30 6087 O 593.49 -2.98105 3.21038 0
M  V30 6088 C 594.991 -4.06485 1.76875 0
M  V30 6089 H 592.211 -0.537636 0.401483 0
M  V30 6090 H 594.755 -1.17382 1.67457 0
M  V30 6091 H 592.91 -3.63456 1.34083 0
M  V30 6092 H 593.324 -3.86824 3.54214 0
M  V30 6093 H 594.798 -5.02569 2.28316 0
M  V30 6094 H 595.275 -4.32986 0.736216 0
M  V30 6095 H 595.881 -3.61144 2.24623 0
M  V30 6096 N 594.196 -1.08629 -1.14182 0
M  V30 6097 C 595.128 -0.676189 -2.18998 0
M  V30 6098 C 596.141 0.277871 -1.60411 0
M  V30 6099 O 597.33 0.0651771 -1.78381 0
M  V30 6100 C 594.43 0.0254916 -3.3889 0
M  V30 6101 C 593.603 -0.948039 -4.27002 0
M  V30 6102 C 592.662 -0.281268 -5.25448 0
M  V30 6103 O 591.688 -0.926378 -5.61611 0
M  V30 6104 N 592.89 0.967923 -5.72374 0
M  V30 6105 H 595.655 -1.57792 -2.54798 0
M  V30 6106 H 593.216 -0.972665 -1.29425 0
M  V30 6107 H 595.208 0.482554 -4.01813 0
M  V30 6108 H 593.778 0.829348 -3.01398 0
M  V30 6109 H 592.998 -1.58388 -3.6098 0
M  V30 6110 H 594.286 -1.60765 -4.82734 0
M  V30 6111 H 593.684 1.51175 -5.45126 0
M  V30 6112 H 592.241 1.36844 -6.37273 0
M  V30 6113 N 595.674 1.31259 -0.872281 0
M  V30 6114 C 596.904 2.00504 -0.498183 0
M  V30 6115 C 597.312 1.65632 0.914479 0
M  V30 6116 O 596.655 0.882849 1.61095 0
M  V30 6117 C 596.717 3.5482 -0.578194 0
M  V30 6118 C 596.381 4.13172 -1.95289 0
M  V30 6119 C 597.378 4.30107 -2.92069 0
M  V30 6120 C 595.063 4.48846 -2.25483 0
M  V30 6121 C 597.057 4.81908 -4.17185 0
M  V30 6122 C 594.744 5.00349 -3.50847 0
M  V30 6123 C 595.742 5.16831 -4.46514 0
M  V30 6124 O 595.43 5.67228 -5.69656 0
M  V30 6125 H 595.162 0.648055 -0.192354 0
M  V30 6126 H 597.716 1.6841 -1.17589 0
M  V30 6127 H 595.946 3.86383 0.156438 0
M  V30 6128 H 597.635 4.05318 -0.217192 0
M  V30 6129 H 598.401 4.02862 -2.7005 0
M  V30 6130 H 594.28 4.35292 -1.51795 0
M  V30 6131 H 597.824 4.94688 -4.91863 0
M  V30 6132 H 593.721 5.27028 -3.72708 0
M  V30 6133 H 594.489 5.85592 -5.7186 0
M  V30 6134 N 597.152 0.631951 1.44375 0
M  V30 6135 C 598.38 0.143867 2.06399 0
M  V30 6136 C 598.795 -1.18188 1.47231 0
M  V30 6137 O 598.152 -1.72511 0.595498 0
M  V30 6138 C 598.203 0.0238253 3.61492 0
M  V30 6139 O 597.924 1.29715 4.18456 0
M  V30 6140 C 599.425 -0.492856 4.40552 0
M  V30 6141 H 596.645 0.0800542 0.666207 0
M  V30 6142 H 599.189 0.866586 1.85231 0
M  V30 6143 H 597.344 -0.649338 3.81919 0
M  V30 6144 H 597.758 1.14252 5.11905 0
M  V30 6145 H 599.232 -0.525861 5.49489 0
M  V30 6146 H 599.709 -1.52006 4.12057 0
M  V30 6147 H 600.315 0.147085 4.25046 0
M  V30 6148 N 598.631 -1.53133 0.372548 0
M  V30 6149 C 599.878 -2.01356 -0.214959 0
M  V30 6150 C 600.206 -1.2596 -1.48204 0
M  V30 6151 O 599.461 -0.343511 -1.92662 0
M  V30 6152 C 599.76 -3.53206 -0.545938 0
M  V30 6153 C 599.426 -4.46511 0.627624 0
M  V30 6154 C 598.088 -4.71737 0.949615 0
M  V30 6155 C 600.44 -5.01666 1.41353 0
M  V30 6156 C 597.768 -5.4937 2.05936 0
M  V30 6157 C 600.12 -5.80511 2.51375 0
M  V30 6158 C 598.784 -6.04022 2.84101 0
M  V30 6159 H 598.054 -0.736813 -0.078659 0
M  V30 6160 H 600.701 -1.84682 0.506447 0
M  V30 6161 H 599.006 -3.67864 -1.34845 0
M  V30 6162 H 600.703 -3.87997 -1.01287 0
M  V30 6163 H 597.293 -4.27029 0.366635 0
M  V30 6164 H 601.477 -4.82117 1.17802 0
M  V30 6165 H 596.733 -5.65803 2.31682 0
M  V30 6166 H 600.907 -6.22255 3.12684 0
M  V30 6167 H 598.534 -6.63962 3.70214 0
M  V30 6168 N 600.109 -0.101901 -1.5727 0
M  V30 6169 C 601.019 0.868647 -2.17926 0
M  V30 6170 C 602.035 1.30527 -1.1506 0
M  V30 6171 O 603.211 1.37178 -1.47459 0
M  V30 6172 C 600.276 2.10727 -2.75309 0
M  V30 6173 C 599.337 1.7242 -3.93154 0
M  V30 6174 C 598.57 2.90377 -4.47791 0
M  V30 6175 O 598.793 4.05305 -4.01353 0
M  V30 6176 O 597.727 2.6845 -5.38719 0
M  V30 6177 H 601.553 0.382544 -3.01281 0
M  V30 6178 H 599.138 0.122812 -1.48894 0
M  V30 6179 H 601.02 2.83303 -3.11958 0
M  V30 6180 H 599.695 2.58376 -1.94996 0
M  V30 6181 H 598.602 0.970039 -3.61305 0
M  V30 6182 H 599.935 1.29528 -4.74851 0
M  V30 6183 N 601.587 1.56661 0.17182 0
M  V30 6184 C 602.836 1.81158 0.886831 0
M  V30 6185 C 603.149 0.679072 1.83434 0
M  V30 6186 O 604.355 0.808964 2.59168 0
M  V30 6187 C 602.811 3.20999 1.6275 0
M  V30 6188 C 602.419 4.42117 0.723652 0
M  V30 6189 C 604.163 3.5479 2.33076 0
M  V30 6190 C 602.07 5.7298 1.46452 0
M  V30 6191 H 601 0.675543 0.334899 0
M  V30 6192 H 603.651 1.82967 0.139765 0
M  V30 6193 H 602.033 3.13506 2.4193 0
M  V30 6194 H 603.207 4.60789 -0.0311485 0
M  V30 6195 H 601.522 4.16197 0.130063 0
M  V30 6196 H 604.119 4.49806 2.89099 0
M  V30 6197 H 604.462 2.79646 3.08389 0
M  V30 6198 H 604.995 3.63834 1.6084 0
M  V30 6199 H 601.734 6.51152 0.753729 0
M  V30 6200 H 601.254 5.58285 2.19266 0
M  V30 6201 H 602.933 6.14916 2.01214 0
M  V30 6202 N 603.065 -0.440357 1.51323 0
M  V30 6203 C 603.997 -1.55254 1.68609 0
M  V30 6204 C 605.01 -1.52614 0.566812 0
M  V30 6205 O 606.199 -1.57445 0.841032 0
M  V30 6206 C 603.299 -2.94169 1.68279 0
M  V30 6207 C 602.472 -3.21346 2.96742 0
M  V30 6208 C 601.531 -4.3997 2.8864 0
M  V30 6209 O 600.557 -4.38771 3.62586 0
M  V30 6210 N 601.759 -5.43367 2.04285 0
M  V30 6211 H 604.524 -1.40831 2.6455 0
M  V30 6212 H 602.085 -0.629251 1.49171 0
M  V30 6213 H 604.077 -3.71543 1.60431 0
M  V30 6214 H 602.647 -3.02205 0.799441 0
M  V30 6215 H 601.867 -2.32299 3.18482 0
M  V30 6216 H 603.155 -3.3633 3.81785 0
M  V30 6217 H 602.553 -5.47176 1.43578 0
M  V30 6218 H 601.11 -6.19605 2.02318 0
M  V30 6219 N 604.543 -1.41418 -0.695603 0
M  V30 6220 C 605.506 -1.42988 -1.79129 0
M  V30 6221 C 606.506 -0.320514 -1.57573 0
M  V30 6222 O 607.696 -0.58039 -1.64247 0
M  V30 6223 C 604.828 -1.24122 -3.175 0
M  V30 6224 H 606.021 -2.40526 -1.7913 0
M  V30 6225 H 603.574 -1.2756 -0.903225 0
M  V30 6226 H 604.309 -0.274253 -3.23138 0
M  V30 6227 H 604.094 -2.045 -3.34547 0
M  V30 6228 H 605.584 -1.28056 -3.97481 0
M  V30 6229 N 606.021 0.929856 -1.27246 0
M  V30 6230 C 607.267 1.6798 -1.13625 0
M  V30 6231 C 607.6 1.91586 0.317589 0
M  V30 6232 O 606.875 1.50467 1.23247 0
M  V30 6233 C 607.158 3.04766 -1.91806 0
M  V30 6234 C 607.011 2.88415 -3.45162 0
M  V30 6235 C 608.33 4.05063 -1.72082 0
M  V30 6236 H 605.449 0.609632 -0.414147 0
M  V30 6237 H 608.091 1.0792 -1.56376 0
M  V30 6238 H 606.241 3.56034 -1.55474 0
M  V30 6239 H 607.913 2.44282 -3.91311 0
M  V30 6240 H 606.156 2.23802 -3.71611 0
M  V30 6241 H 606.827 3.85482 -3.95105 0
M  V30 6242 H 609.303 3.62798 -2.03757 0
M  V30 6243 H 608.179 4.98765 -2.29182 0
M  V30 6244 H 608.44 4.37021 -0.668206 0
M  V30 6245 N 607.499 1.09233 1.13605 0
M  V30 6246 C 608.447 0.724572 2.21027 0
M  V30 6247 C 609.441 -0.273595 1.67176 0
M  V30 6248 O 610.647 -0.135266 1.79491 0
M  V30 6249 H 607.022 0.216319 0.720215 0
M  V30 6250 H 608.993 1.63975 2.49309 0
M  V30 6251 C 607.742 0.159126 3.47336 0
M  V30 6252 H 607.065 0.918387 3.89109 0
M  V30 6253 H 608.505 -0.0602851 4.23957 0
M  V30 6254 C 606.964 -1.10514 3.18258 0
M  V30 6255 O 607.494 -2.18869 3.36837 0
M  V30 6256 N 605.7 -1.01886 2.72154 0
M  V30 6257 H 605.247 -0.137027 2.57235 0
M  V30 6258 H 605.205 -1.8655 2.53074 0
M  V30 6259 N 608.977 -1.30795 0.87923 0
M  V30 6260 C 610.225 -1.95974 0.493809 0
M  V30 6261 C 610.546 -1.69787 -0.959021 0
M  V30 6262 O 609.816 -1.01832 -1.67353 0
M  V30 6263 H 608.396 -0.725083 0.179622 0
M  V30 6264 H 611.058 -1.59432 1.12105 0
M  V30 6265 H 610.154 -3.05058 0.659263 0
M  V30 6266 N 610.455 -0.639598 -1.44038 0
M  V30 6267 C 611.701 -0.147698 -2.02261 0
M  V30 6268 C 612.034 1.23031 -1.50256 0
M  V30 6269 O 611.309 1.81847 -0.690068 0
M  V30 6270 C 611.592 -0.14362 -3.59813 0
M  V30 6271 C 611.445 -1.55458 -4.22082 0
M  V30 6272 C 612.764 0.527317 -4.36929 0
M  V30 6273 H 609.883 -0.0551453 -0.734934 0
M  V30 6274 H 612.525 -0.817688 -1.71505 0
M  V30 6275 H 610.675 0.426898 -3.86147 0
M  V30 6276 H 612.347 -2.17464 -4.06826 0
M  V30 6277 H 610.59 -2.10594 -3.79253 0
M  V30 6278 H 611.261 -1.50369 -5.31124 0
M  V30 6279 H 613.737 0.0420504 -4.16079 0
M  V30 6280 H 612.613 0.499389 -5.46624 0
M  V30 6281 H 612.874 1.59914 -4.12165 0
M  V30 6282 N 611.933 1.52934 -0.380664 0
M  V30 6283 C 613.161 2.05886 0.204599 0
M  V30 6284 C 613.576 1.25305 1.41223 0
M  V30 6285 O 612.933 0.297504 1.80059 0
M  V30 6286 C 612.984 3.56764 0.583249 0
M  V30 6287 O 612.705 4.34292 -0.576398 0
M  V30 6288 C 614.206 4.2603 1.2253 0
M  V30 6289 H 611.426 0.670193 0.0328991 0
M  V30 6290 H 613.97 1.97148 -0.543397 0
M  V30 6291 H 612.125 3.65603 1.28115 0
M  V30 6292 H 612.539 5.23819 -0.267119 0
M  V30 6293 H 614.013 5.32868 1.44068 0
M  V30 6294 H 614.49 3.80698 2.19011 0
M  V30 6295 H 615.096 4.21485 0.568407 0
M  V30 6296 N 613.412 0.11024 1.57214 0
M  V30 6297 C 614.689 -0.592956 1.86396 0
M  V30 6298 C 615.069 -1.85379 1.00985 0
M  V30 6299 O 614.417 -2.28337 0.0863592 0
M  V30 6300 C 614.627 -0.893816 3.3736 0
M  V30 6301 C 615.975 -1.25069 4.05762 0
M  V30 6302 O 616.999 -0.984356 3.42329 0
M  V30 6303 O 615.858 -1.75017 5.17718 0
M  V30 6304 H 612.952 -0.29828 0.771335 0
M  V30 6305 H 615.498 0.144083 1.69087 0
M  V30 6306 H 614.27 2.6031e-05 3.913 0
M  V30 6307 H 613.893 -1.68631 3.60068 0
M  V30 6308 N 614.89 -1.56749 -0.16351 0
M  V30 6309 C 615.822 -1.93587 -1.22705 0
M  V30 6310 C 616.835 -0.829824 -1.40063 0
M  V30 6311 O 618.024 -1.10826 -1.39928 0
M  V30 6312 C 615.124 -2.1803 -2.59454 0
M  V30 6313 C 614.297 -3.4928 -2.63292 0
M  V30 6314 C 613.356 -3.62457 -3.8146 0
M  V30 6315 O 612.382 -4.35004 -3.67096 0
M  V30 6316 N 613.584 -2.97888 -4.9824 0
M  V30 6317 H 616.349 -2.8542 -0.914081 0
M  V30 6318 H 613.91 -1.58 -0.353214 0
M  V30 6319 H 615.902 -2.24102 -3.36987 0
M  V30 6320 H 614.472 -1.32543 -2.8311 0
M  V30 6321 H 613.692 -3.54795 -1.71796 0
M  V30 6322 H 614.98 -4.35632 -2.62873 0
M  V30 6323 H 614.378 -2.38833 -5.12811 0
M  V30 6324 H 612.935 -3.09545 -5.73607 0
M  V30 6325 N 616.368 0.432326 -1.51554 0
M  V30 6326 C 617.593 1.20824 -1.68571 0
M  V30 6327 C 618.018 1.84126 -0.384596 0
M  V30 6328 O 617.376 1.69025 0.655751 0
M  V30 6329 C 617.424 2.26429 -2.80646 0
M  V30 6330 O 616.528 3.32032 -2.44598 0
M  V30 6331 H 615.869 0.353765 -0.561913 0
M  V30 6332 H 618.399 0.509916 -1.98144 0
M  V30 6333 H 618.409 2.71133 -3.04878 0
M  V30 6334 H 617.084 1.79733 -3.75058 0
M  V30 6335 H 615.661 2.92769 -2.30956 0
M  V30 6336 N 617.846 1.41785 0.688094 0
M  V30 6337 C 619.257 1.3701 1.26828 0
M  V30 6338 C 619.608 0.056835 1.96118 0
M  V30 6339 O 618.733 -0.84475 1.99231 0
M  V30 6340 C 619.328 2.48168 2.30648 0
M  V30 6341 C 617.887 2.46766 2.84224 0
M  V30 6342 C 617.034 2.27633 1.58361 0
M  V30 6343 H 619.985 1.51192 0.482351 0
M  V30 6344 H 620.006 2.17655 3.121 0
M  V30 6345 H 619.518 3.43735 1.80188 0
M  V30 6346 H 617.619 1.54978 3.3884 0
M  V30 6347 H 617.732 3.43342 3.34145 0
M  V30 6348 H 616.096 1.75648 1.84445 0
M  V30 6349 H 616.879 3.25238 1.09887 0
M  V30 6350 N 619.324 -0.923095 1.27737 0
M  V30 6351 C 620.571 -1.67127 1.14345 0
M  V30 6352 C 620.899 -1.92017 -0.30982 0
M  V30 6353 O 620.154 -1.51185 -1.24264 0
M  V30 6354 C 620.453 -3.04125 1.8773 0
M  V30 6355 C 620.119 -2.98929 3.37568 0
M  V30 6356 C 618.781 -2.9722 3.78436 0
M  V30 6357 C 621.133 -2.89875 4.33154 0
M  V30 6358 C 618.461 -2.84244 5.13247 0
M  V30 6359 C 620.813 -2.7844 5.68026 0
M  V30 6360 C 619.477 -2.75083 6.08182 0
M  V30 6361 H 618.747 -0.611562 0.418417 0
M  V30 6362 H 621.394 -1.07618 1.584 0
M  V30 6363 H 619.699 -3.67366 1.36196 0
M  V30 6364 H 621.396 -3.609 1.74792 0
M  V30 6365 H 617.986 -3.0105 3.05069 0
M  V30 6366 H 622.17 -2.9029 4.02548 0
M  V30 6367 H 617.426 -2.80034 5.43499 0
M  V30 6368 H 621.6 -2.70401 6.4176 0
M  V30 6369 H 619.227 -2.64786 7.12596 0
M  V30 6370 N 620.802 -1.09834 -1.13024 0
M  V30 6371 C 622.027 -0.85909 -1.88771 0
M  V30 6372 C 622.452 0.584402 -1.78791 0
M  V30 6373 O 621.81 1.41101 -1.13842 0
M  V30 6374 C 621.858 -1.30427 -3.36186 0
M  V30 6375 O 620.962 -0.465368 -4.09766 0
M  V30 6376 H 620.303 -0.310786 -0.586778 0
M  V30 6377 H 622.833 -1.46355 -1.42973 0
M  V30 6378 H 622.843 -1.2915 -3.8702 0
M  V30 6379 H 621.518 -2.3555 -3.42767 0
M  V30 6380 H 620.095 -0.542814 -3.68928 0
M  V30 6381 N 622.28 1.30327 -0.886154 0
M  V30 6382 C 623.691 1.78243 -0.555554 0
M  V30 6383 C 624.042 1.72849 0.928314 0
M  V30 6384 O 623.167 1.30607 1.72542 0
M  V30 6385 C 623.762 3.23654 -1.00168 0
M  V30 6386 C 622.321 3.69401 -0.722471 0
M  V30 6387 C 621.468 2.50753 -1.18399 0
M  V30 6388 H 624.419 1.1718 -1.07026 0
M  V30 6389 H 624.44 3.79056 -0.331152 0
M  V30 6390 H 623.952 3.27548 -2.08169 0
M  V30 6391 H 622.053 3.70995 0.345496 0
M  V30 6392 H 622.166 4.60818 -1.31085 0
M  V30 6393 H 620.53 2.47452 -0.603303 0
M  V30 6394 H 621.313 2.57383 -2.27176 0
M  V30 6395 N 623.758 0.647228 1.43697 0
M  V30 6396 C 624.69 -0.0866232 2.29036 0
M  V30 6397 C 625.703 -0.793051 1.42178 0
M  V30 6398 O 626.892 -0.651807 1.66174 0
M  V30 6399 C 623.992 -1.14552 3.18953 0
M  V30 6400 C 623.165 -0.518422 4.34317 0
M  V30 6401 C 622.224 -1.4734 5.05151 0
M  V30 6402 O 621.25 -0.984312 5.60625 0
M  V30 6403 N 622.452 -2.8075 5.08094 0
M  V30 6404 H 625.217 0.645834 2.92659 0
M  V30 6405 H 622.778 0.489567 1.54321 0
M  V30 6406 H 624.77 -1.78505 3.63205 0
M  V30 6407 H 623.34 -1.78001 2.56971 0
M  V30 6408 H 622.56 0.300079 3.93056 0
M  V30 6409 H 623.848 -0.080401 5.08736 0
M  V30 6410 H 623.246 -3.23052 4.64386 0
M  V30 6411 H 621.803 -3.40022 5.56083 0
M  V30 6412 N 625.236 -1.5273 0.388769 0
M  V30 6413 C 626.483 -2.01573 -0.19359 0
M  V30 6414 C 626.811 -1.27525 -1.46859 0
M  V30 6415 O 626.066 -0.363926 -1.92286 0
M  V30 6416 C 626.365 -3.53765 -0.508445 0
M  V30 6417 C 626.031 -4.4582 0.674947 0
M  V30 6418 C 624.693 -4.70703 0.999596 0
M  V30 6419 C 627.045 -5.00138 1.46666 0
M  V30 6420 C 624.373 -5.47155 2.11751 0
M  V30 6421 C 626.725 -5.77812 2.57518 0
M  V30 6422 C 625.389 -6.00975 2.90492 0
M  V30 6423 H 624.659 -0.737606 -0.0708397 0
M  V30 6424 H 627.306 -1.84134 0.526006 0
M  V30 6425 H 625.611 -3.69274 -1.30936 0
M  V30 6426 H 627.308 -3.8905 -0.971664 0
M  V30 6427 H 623.898 -4.26616 0.411906 0
M  V30 6428 H 628.082 -4.8084 1.22909 0
M  V30 6429 H 623.338 -5.63314 2.3767 0
M  V30 6430 H 627.512 -6.18904 3.19267 0
M  V30 6431 H 625.139 -6.59998 3.77236 0
M  V30 6432 N 626.714 -0.118576 -1.57153 0
M  V30 6433 C 627.677 0.817464 -2.14127 0
M  V30 6434 C 628.677 1.1949 -1.07604 0
M  V30 6435 O 629.867 1.12048 -1.33382 0
M  V30 6436 C 626.999 2.10541 -2.68115 0
M  V30 6437 H 628.192 0.322339 -2.98163 0
M  V30 6438 H 625.745 0.130655 -1.55753 0
M  V30 6439 H 626.48 2.64485 -1.87665 0
M  V30 6440 H 626.265 1.84425 -3.4602 0
M  V30 6441 H 627.755 2.77453 -3.12105 0
M  V30 6442 N 628.193 1.56834 0.155195 0
M  V30 6443 C 629.418 1.87412 0.888337 0
M  V30 6444 C 629.843 0.70671 1.74319 0
M  V30 6445 O 629.201 -0.343892 1.78009 0
M  V30 6446 C 629.249 3.1652 1.72765 0
M  V30 6447 O 628.353 2.99877 2.83103 0
M  V30 6448 H 627.694 0.615983 0.247914 0
M  V30 6449 H 630.224 2.04061 0.148478 0
M  V30 6450 H 630.234 3.48334 2.12433 0
M  V30 6451 H 628.909 4.01094 1.09985 0
M  V30 6452 H 627.486 2.79453 2.46902 0
M  V30 6453 N 629.671 -0.424282 1.51781 0
M  V30 6454 C 630.917 -1.17434 1.6534 0
M  V30 6455 C 631.25 -1.90549 0.374806 0
M  V30 6456 O 630.525 -1.84145 -0.626179 0
M  V30 6457 C 630.808 -2.18093 2.86544 0
M  V30 6458 C 630.661 -1.48975 4.24413 0
M  V30 6459 C 631.98 -3.18934 3.03264 0
M  V30 6460 H 629.099 -0.425566 0.601716 0
M  V30 6461 H 631.741 -0.461921 1.84299 0
M  V30 6462 H 629.891 -2.78849 2.7051 0
M  V30 6463 H 631.563 -0.914551 4.52143 0
M  V30 6464 H 629.806 -0.791893 4.26511 0
M  V30 6465 H 630.477 -2.22347 5.05238 0
M  V30 6466 H 632.953 -2.68243 3.18096 0
M  V30 6467 H 631.829 -3.86645 3.89611 0
M  V30 6468 H 632.09 -3.85793 2.15908 0
M  V30 6469 N 631.149 -1.42148 -0.680565 0
M  V30 6470 C 632.097 -1.45401 -1.81552 0
M  V30 6471 C 633.091 -0.33036 -1.66147 0
M  V30 6472 O 634.297 -0.503103 -1.72826 0
M  V30 6473 H 630.672 -0.455265 -0.59853 0
M  V30 6474 H 632.643 -2.41024 -1.75926 0
M  V30 6475 C 631.392 -1.36769 -3.19671 0
M  V30 6476 H 630.715 -2.22525 -3.32149 0
M  V30 6477 H 632.155 -1.43106 -3.9912 0
M  V30 6478 C 630.614 -0.0817752 -3.36801 0
M  V30 6479 O 631.144 0.867707 -3.92216 0
M  V30 6480 N 629.35 -0.000799811 -2.906 0
M  V30 6481 H 628.897 -0.774231 -2.4569 0
M  V30 6482 H 628.855 0.858961 -3.02439 0
M  V30 6483 N 632.627 0.916307 -1.28225 0
M  V30 6484 C 633.876 1.65975 -1.14608 0
M  V30 6485 C 634.189 1.93204 0.305191 0
M  V30 6486 O 635.395 2.65611 0.562432 0
M  V30 6487 C 633.851 2.98989 -2.00333 0
M  V30 6488 C 633.459 2.79417 -3.50186 0
M  V30 6489 C 635.203 3.76856 -1.95397 0
M  V30 6490 C 633.11 4.08056 -4.28071 0
M  V30 6491 H 632.04 0.622587 -0.425324 0
M  V30 6492 H 634.691 1.01705 -1.52736 0
M  V30 6493 H 633.073 3.6438 -1.5506 0
M  V30 6494 H 634.247 2.22723 -4.034 0
M  V30 6495 H 632.562 2.14966 -3.56621 0
M  V30 6496 H 635.159 4.72203 -2.50856 0
M  V30 6497 H 635.502 4.05776 -0.930137 0
M  V30 6498 H 636.035 3.1828 -2.38626 0
M  V30 6499 H 632.774 3.8431 -5.31024 0
M  V30 6500 H 632.294 4.64371 -3.79631 0
M  V30 6501 H 633.973 4.76333 -4.37854 0
M  V30 6502 N 634.105 1.10431 1.1244 0
M  V30 6503 C 635.333 0.868872 1.87772 0
M  V30 6504 C 635.748 -0.580645 1.7965 0
M  V30 6505 O 635.105 -1.40031 1.17036 0
M  V30 6506 C 635.156 1.30855 3.36986 0
M  V30 6507 O 634.877 2.70123 3.44914 0
M  V30 6508 C 636.378 1.107 4.29256 0
M  V30 6509 H 633.598 0.311868 0.59412 0
M  V30 6510 H 636.142 1.46897 1.42273 0
M  V30 6511 H 634.297 0.752126 3.80029 0
M  V30 6512 H 634.711 2.88923 4.37748 0
M  V30 6513 H 636.185 1.46378 5.32238 0
M  V30 6514 H 636.662 0.0456228 4.39176 0
M  V30 6515 H 637.268 1.64988 3.91994 0
M  V30 6516 N 635.583 -1.29855 0.893053 0
M  V30 6517 C 636.811 -1.99976 0.530788 0
M  V30 6518 C 637.226 -1.66889 -0.882799 0
M  V30 6519 O 636.583 -0.910352 -1.58173 0
M  V30 6520 C 636.634 -3.54547 0.705587 0
M  V30 6521 O 636.355 -3.86458 2.06353 0
M  V30 6522 C 637.856 -4.41937 0.347387 0
M  V30 6523 H 635.076 -0.639129 0.204339 0
M  V30 6524 H 637.62 -1.65549 1.20057 0
M  V30 6525 H 635.775 -3.87311 0.0830685 0
M  V30 6526 H 636.189 -4.81146 2.08803 0
M  V30 6527 H 637.663 -5.4954 0.520557 0
M  V30 6528 H 638.14 -4.33339 -0.715139 0
M  V30 6529 H 638.746 -4.14633 0.946567 0
M  V30 6530 N 637.061 -0.65484 -1.43351 0
M  V30 6531 C 638.009 0.0476784 -2.32551 0
M  V30 6532 C 639.003 0.811403 -1.48703 0
M  V30 6533 O 640.209 0.721621 -1.64902 0
M  V30 6534 H 636.584 0.0342038 -0.751222 0
M  V30 6535 H 638.555 -0.722342 -2.89525 0
M  V30 6536 C 637.304 0.999251 -3.33032 0
M  V30 6537 H 636.627 0.421005 -3.97577 0
M  V30 6538 H 638.067 1.45986 -3.98076 0
M  V30 6539 C 636.526 2.09606 -2.63756 0
M  V30 6540 O 637.056 3.18004 -2.4543 0
M  V30 6541 N 635.262 1.86207 -2.23103 0
M  V30 6542 H 634.809 0.980555 -2.38208 0
M  V30 6543 H 634.767 2.59787 -1.77081 0
M  V30 6544 N 638.539 1.52521 -0.396863 0
M  V30 6545 C 639.471 2.24333 0.469814 0
M  V30 6546 C 640.484 1.2685 1.02043 0
M  V30 6547 O 641.673 1.52876 0.92147 0
M  V30 6548 C 638.773 2.95202 1.66461 0
M  V30 6549 C 637.946 4.19454 1.24003 0
M  V30 6550 C 637.005 4.73255 2.30036 0
M  V30 6551 O 636.031 5.36151 1.91131 0
M  V30 6552 N 637.233 4.53765 3.62047 0
M  V30 6553 H 639.998 2.99347 -0.145468 0
M  V30 6554 H 637.559 1.60348 -0.223606 0
M  V30 6555 H 639.551 3.28092 2.36934 0
M  V30 6556 H 638.121 2.2345 2.18607 0
M  V30 6557 H 637.341 3.92517 0.363892 0
M  V30 6558 H 638.629 5.0017 0.933135 0
M  V30 6559 H 638.027 4.03576 3.96412 0
M  V30 6560 H 636.584 4.91124 4.28533 0
M  V30 6561 N 640.017 0.126909 1.57088 0
M  V30 6562 C 640.98 -0.806097 2.14557 0
M  V30 6563 C 641.98 -1.18918 1.08236 0
M  V30 6564 O 643.17 -1.11339 1.33975 0
M  V30 6565 C 640.302 -2.09116 2.69227 0
M  V30 6566 H 641.495 -0.306522 2.98329 0
M  V30 6567 H 639.048 -0.122393 1.5582 0
M  V30 6568 H 639.783 -2.63486 1.89065 0
M  V30 6569 H 639.568 -1.82588 3.46993 0
M  V30 6570 H 641.058 -2.75794 3.13572 0
M  V30 6571 N 641.495 -1.56914 -0.146875 0
M  V30 6572 C 642.458 -1.97368 -1.16526 0
M  V30 6573 C 643.458 -0.860223 -1.35856 0
M  V30 6574 O 644.648 -1.12684 -1.32846 0
M  V30 6575 C 641.78 -2.28974 -2.52555 0
M  V30 6576 H 642.973 -2.88523 -0.818209 0
M  V30 6577 H 640.526 -1.5135 -0.390221 0
M  V30 6578 H 641.261 -1.40611 -2.92231 0
M  V30 6579 H 641.046 -3.10157 -2.39886 0
M  V30 6580 H 642.536 -2.61109 -3.25902 0
M  V30 6581 N 642.974 0.416227 -1.52004 0
M  V30 6582 C 644.385 0.995319 -1.57957 0
M  V30 6583 C 644.736 1.91744 -0.415754 0
M  V30 6584 O 643.861 2.11349 0.464808 0
M  V30 6585 C 644.456 1.81191 -2.86278 0
M  V30 6586 C 643.015 2.34115 -2.94732 0
M  V30 6587 C 642.162 1.139 -2.52828 0
M  V30 6588 H 645.113 0.196716 -1.57476 0
M  V30 6589 H 645.134 2.66859 -2.71231 0
M  V30 6590 H 644.646 1.14051 -3.70963 0
M  V30 6591 H 642.747 3.04647 -2.14525 0
M  V30 6592 H 642.86 2.65466 -3.98829 0
M  V30 6593 H 641.224 1.49081 -2.06511 0
M  V30 6594 H 642.007 0.483383 -3.3988 0
M  V30 6595 N 644.452 1.42507 0.673017 0
M  V30 6596 C 645.677 1.4668 1.46627 0
M  V30 6597 C 646.102 0.080066 1.8793 0
M  V30 6598 O 645.46 -0.921879 1.56112 0
M  V30 6599 C 645.508 2.40091 2.69051 0
M  V30 6600 O 644.612 1.8735 3.67387 0
M  V30 6601 H 643.953 0.496908 0.44043 0
M  V30 6602 H 646.483 1.87215 0.825334 0
M  V30 6603 H 646.493 2.56731 3.17101 0
M  V30 6604 H 645.168 3.4084 2.3833 0
M  V30 6605 H 643.745 1.80274 3.26429 0
M  V30 6606 N 645.93 -0.909495 1.28709 0
M  V30 6607 C 646.893 -1.99399 1.13016 0
M  V30 6608 C 647.893 -1.60654 0.068536 0
M  V30 6609 O 649.083 -1.71334 0.314671 0
M  V30 6610 C 646.215 -3.33078 0.726085 0
M  V30 6611 H 647.408 -2.14751 2.09338 0
M  V30 6612 H 644.961 -1.09272 1.11756 0
M  V30 6613 H 645.696 -3.23428 -0.23771 0
M  V30 6614 H 645.481 -3.62562 1.49302 0
M  V30 6615 H 646.971 -4.12681 0.639058 0
M  V30 6616 N 647.408 -1.11026 -1.11852 0
M  V30 6617 C 648.654 -0.857729 -1.83768 0
M  V30 6618 C 648.987 0.615143 -1.842 0
M  V30 6619 O 648.262 1.45391 -1.29196 0
M  V30 6620 C 648.545 -1.41453 -3.31154 0
M  V30 6621 C 648.398 -2.95471 -3.39142 0
M  V30 6622 C 649.717 -1.0619 -4.27097 0
M  V30 6623 H 646.836 -0.313044 -0.667212 0
M  V30 6624 H 649.478 -1.37443 -1.31185 0
M  V30 6625 H 647.628 -0.975052 -3.76065 0
M  V30 6626 H 649.3 -3.4799 -3.02821 0
M  V30 6627 H 647.543 -3.31759 -2.79497 0
M  V30 6628 H 648.214 -3.29515 -4.42859 0
M  V30 6629 H 650.69 -1.44122 -3.90344 0
M  V30 6630 H 649.566 -1.47832 -5.28618 0
M  V30 6631 H 649.827 0.0278912 -4.42091 0
M  V30 6632 N 648.886 1.2938 -0.899927 0
M  V30 6633 C 650.111 2.00228 -0.540692 0
M  V30 6634 C 650.536 1.66909 0.867359 0
M  V30 6635 O 649.894 0.893824 1.57735 0
M  V30 6636 C 649.942 3.52921 -0.740232 0
M  V30 6637 O 649.046 4.11879 0.207154 0
M  V30 6638 H 648.387 0.629505 -0.211233 0
M  V30 6639 H 650.917 1.6487 -1.21158 0
M  V30 6640 H 650.927 4.0287 -0.644973 0
M  V30 6641 H 649.602 3.76508 -1.76677 0
M  V30 6642 H 648.179 3.72845 0.0643315 0
M  V30 6643 N 650.364 0.662433 1.43002 0
M  V30 6644 C 651.613 0.176873 2.00923 0
M  V30 6645 C 651.926 -1.21954 1.52927 0
M  V30 6646 O 653.132 -1.80081 2.03182 0
M  V30 6647 C 651.588 0.265379 3.5892 0
M  V30 6648 C 651.196 1.66507 4.15908 0
M  V30 6649 C 652.94 -0.162103 4.2419 0
M  V30 6650 C 650.847 1.707 5.66229 0
M  V30 6651 H 649.777 0.0623627 0.751417 0
M  V30 6652 H 652.428 0.825813 1.63868 0
M  V30 6653 H 650.81 -0.451235 3.93421 0
M  V30 6654 H 651.984 2.40777 3.92891 0
M  V30 6655 H 650.299 2.03932 3.63044 0
M  V30 6656 H 652.896 -0.150745 5.34487 0
M  V30 6657 H 653.239 -1.19519 3.98774 0
M  V30 6658 H 653.772 0.503075 3.94606 0
M  V30 6659 H 650.511 2.7195 5.96426 0
M  V30 6660 H 650.031 1.00768 5.91275 0
M  V30 6661 H 651.71 1.45487 6.3043 0
M  V30 6662 N 651.842 -1.52309 0.404946 0
M  V30 6663 C 652.775 -2.23369 -0.467087 0
M  V30 6664 C 653.753 -1.24034 -1.0514 0
M  V30 6665 O 654.937 -1.53071 -1.10006 0
M  V30 6666 C 652.064 -2.95906 -1.64795 0
M  V30 6667 C 651.11 -4.09637 -1.18743 0
M  V30 6668 S 651.943 -5.35273 -0.156022 0
M  V30 6669 C 653.099 -6.11337 -1.34231 0
M  V30 6670 H 653.332 -2.96987 0.136294 0
M  V30 6671 H 650.865 -1.53236 0.189219 0
M  V30 6672 H 652.823 -3.38304 -2.3251 0
M  V30 6673 H 651.484 -2.21937 -2.22267 0
M  V30 6674 H 650.677 -4.59549 -2.06955 0
M  V30 6675 H 650.279 -3.69333 -0.588981 0
M  V30 6676 H 652.571 -6.38458 -2.26665 0
M  V30 6677 H 653.514 -7.02563 -0.883804 0
M  V30 6678 H 653.922 -5.42338 -1.56621 0
M  V30 6679 N 653.32 -0.135238 -1.57019 0
M  V30 6680 C 654.27 0.820408 -2.12728 0
M  V30 6681 C 655.254 1.21735 -1.05211 0
M  V30 6682 O 656.446 1.18574 -1.31413 0
M  V30 6683 C 653.575 2.06414 -2.74314 0
M  V30 6684 C 652.661 1.69083 -3.88937 0
M  V30 6685 N 653.052 1.0251 -4.95303 0
M  V30 6686 C 651.35 1.98434 -3.99425 0
M  V30 6687 C 652.051 0.846749 -5.75504 0
M  V30 6688 N 651.027 1.3769 -5.25873 0
M  V30 6689 H 654.829 0.302426 -2.9234 0
M  V30 6690 H 652.343 0.0667009 -1.62263 0
M  V30 6691 H 654.34 2.75863 -3.12579 0
M  V30 6692 H 653 2.58741 -1.96171 0
M  V30 6693 H 654.011 0.687207 -5.1332 0
M  V30 6694 H 650.688 2.52693 -3.32344 0
M  V30 6695 H 652.078 0.322949 -6.71123 0
M  V30 6696 N 654.798 1.5699 0.138552 0
M  V30 6697 C 655.73 1.95515 1.1961 0
M  V30 6698 C 656.743 0.852002 1.38726 0
M  V30 6699 O 657.932 1.13038 1.38147 0
M  V30 6700 C 655.032 2.2213 2.55952 0
M  V30 6701 C 654.205 3.53424 2.57702 0
M  V30 6702 C 653.264 3.6848 3.75645 0
M  V30 6703 O 652.29 4.4079 3.60129 0
M  V30 6704 N 653.492 3.05777 4.93438 0
M  V30 6705 H 656.257 2.86838 0.868557 0
M  V30 6706 H 653.818 1.58542 0.328033 0
M  V30 6707 H 655.81 2.29435 3.33379 0
M  V30 6708 H 654.38 1.3703 2.80965 0
M  V30 6709 H 653.6 3.57484 1.6613 0
M  V30 6710 H 654.888 4.39759 2.55909 0
M  V30 6711 H 654.286 2.46961 5.08947 0
M  V30 6712 H 652.843 3.18631 5.6861 0
M  V30 6713 N 656.276 -0.40816 1.52223 0
M  V30 6714 C 657.522 -1.15673 1.66576 0
M  V30 6715 C 657.855 -1.90141 0.394996 0
M  V30 6716 O 657.13 -1.84798 -0.606613 0
M  V30 6717 C 657.413 -2.15042 2.88841 0
M  V30 6718 C 657.266 -1.44465 4.25969 0
M  V30 6719 C 658.585 -3.15699 3.0663 0
M  V30 6720 H 655.704 -0.41916 0.606196 0
M  V30 6721 H 658.346 -0.442348 1.84779 0
M  V30 6722 H 656.496 -2.75964 2.73452 0
M  V30 6723 H 658.168 -0.866544 4.53088 0
M  V30 6724 H 656.411 -0.746612 4.27327 0
M  V30 6725 H 657.082 -2.16976 5.07568 0
M  V30 6726 H 659.558 -2.64854 3.20923 0
M  V30 6727 H 658.434 -3.82491 3.9369 0
M  V30 6728 H 658.695 -3.83481 2.19987 0
M  V30 6729 N 657.755 -1.42862 -0.66545 0
M  V30 6730 C 658.98 -1.47456 -1.45848 0
M  V30 6731 C 659.405 -0.0900312 -1.87884 0
M  V30 6732 O 658.763 0.913587 -1.56599 0
M  V30 6733 C 658.811 -2.41514 -2.67774 0
M  V30 6734 O 657.915 -1.89296 -3.66389 0
M  V30 6735 H 657.256 -0.499236 -0.437789 0
M  V30 6736 H 659.786 -1.8765 -0.815394 0
M  V30 6737 H 659.796 -2.58409 -3.15735 0
M  V30 6738 H 658.471 -3.42099 -2.36519 0
M  V30 6739 H 657.048 -1.82003 -3.25468 0
M  V30 6740 N 659.233 0.902656 -1.29189 0
M  V30 6741 C 660.649 1.18296 -1.07137 0
M  V30 6742 C 660.849 2.00701 0.179223 0
M  V30 6743 O 659.905 2.3675 0.877812 0
M  V30 6744 C 661.218 1.90677 -2.32514 0
M  V30 6745 C 662.766 2.03515 -2.37804 0
M  V30 6746 C 663.241 2.79307 -3.62976 0
M  V30 6747 N 664.732 2.86862 -3.63681 0
M  V30 6748 C 665.467 3.46035 -4.57217 0
M  V30 6749 N 664.963 4.06399 -5.61081 0
M  V30 6750 N 666.756 3.43681 -4.44792 0
M  V30 6751 H 658.907 0.352765 -2.0945 0
M  V30 6752 H 661.17 0.21876 -0.922414 0
M  V30 6753 H 660.876 1.3756 -3.23682 0
M  V30 6754 H 660.75 2.91169 -2.39793 0
M  V30 6755 H 663.137 2.55809 -1.47125 0
M  V30 6756 H 663.218 1.02166 -2.34512 0
M  V30 6757 H 662.862 2.2769 -4.54004 0
M  V30 6758 H 662.792 3.80995 -3.63525 0
M  V30 6759 H 665.283 2.43987 -2.88581 0
M  V30 6760 H 665.596 4.49564 -6.2858 0
M  V30 6761 H 663.941 4.0487 -5.64894 0
M  V30 6762 H 667.132 2.9574 -3.62843 0
M  V30 6763 H 667.305 3.89503 -5.17872 0
M  V30 6764 N 660.711 1.11618 1.11262 0
M  V30 6765 C 661.939 0.888739 1.8684 0
M  V30 6766 C 662.354 -0.561558 1.80255 0
M  V30 6767 O 661.711 -1.38782 1.18515 0
M  V30 6768 C 661.762 1.34422 3.35579 0
M  V30 6769 O 661.483 2.73766 3.42029 0
M  V30 6770 C 662.984 1.15246 4.28058 0
M  V30 6771 H 660.204 0.318152 0.590779 0
M  V30 6772 H 662.748 1.48398 1.40707 0
M  V30 6773 H 660.903 0.79239 3.7921 0
M  V30 6774 H 661.317 2.9355 4.34659 0
M  V30 6775 H 662.791 1.52015 5.30656 0
M  V30 6776 H 663.268 0.0922007 4.39103 0
M  V30 6777 H 663.874 1.69136 3.90222 0
M  V30 6778 N 662.189 -1.289 0.906776 0
M  V30 6779 C 663.435 -1.95558 0.53712 0
M  V30 6780 C 663.768 -1.71262 -0.915582 0
M  V30 6781 O 663.043 -1.02961 -1.65013 0
M  V30 6782 C 663.326 -3.50198 0.838645 0
M  V30 6783 C 663.179 -3.83923 2.34357 0
M  V30 6784 C 664.498 -4.38861 0.329988 0
M  V30 6785 H 661.617 -0.710289 0.196617 0
M  V30 6786 H 664.259 -1.52392 1.13475 0
M  V30 6787 H 662.409 -3.87096 0.330024 0
M  V30 6788 H 664.081 -3.56933 2.92227 0
M  V30 6789 H 662.324 -3.31215 2.80141 0
M  V30 6790 H 662.995 -4.91883 2.5051 0
M  V30 6791 H 665.471 -4.08996 0.765609 0
M  V30 6792 H 664.347 -5.45931 0.570105 0
M  V30 6793 H 664.608 -4.35352 -0.769511 0
M  V30 6794 N 663.667 -0.670007 -1.42649 0
M  V30 6795 C 664.944 -0.119451 -1.95235 0
M  V30 6796 C 665.324 1.36461 -1.61064 0
M  V30 6797 O 664.672 2.09843 -0.904329 0
M  V30 6798 C 664.882 -0.383498 -3.46887 0
M  V30 6799 C 666.23 -0.297431 -4.23557 0
M  V30 6800 O 667.254 -0.31698 -3.54787 0
M  V30 6801 O 666.113 -0.235507 -5.45992 0
M  V30 6802 H 663.207 -8.85474e-05 -0.827 0
M  V30 6803 H 665.753 -0.744406 -1.52501 0
M  V30 6804 H 664.525 -1.41174 -3.64946 0
M  V30 6805 H 664.148 0.273702 -3.96657 0
M  V30 6806 N 665.145 1.52092 -0.413018 0
M  V30 6807 C 666.37 2.06756 0.163338 0
M  V30 6808 C 666.795 1.28073 1.37764 0
M  V30 6809 O 666.153 0.312015 1.78595 0
M  V30 6810 C 666.201 3.57278 0.488322 0
M  V30 6811 O 665.305 3.80986 1.57871 0
M  V30 6812 H 664.646 0.663882 0.0125068 0
M  V30 6813 H 667.176 1.95988 -0.587339 0
M  V30 6814 H 667.186 4.01125 0.745836 0
M  V30 6815 H 665.861 4.13978 -0.399327 0
M  V30 6816 H 664.438 3.49017 1.31306 0
M  V30 6817 N 666.623 0.143563 1.56945 0
M  V30 6818 C 667.872 -0.50835 1.95189 0
M  V30 6819 C 668.185 -1.66239 1.03073 0
M  V30 6820 O 669.391 -2.3787 1.30882 0
M  V30 6821 C 667.847 -0.955735 3.46978 0
M  V30 6822 C 667.455 0.171183 4.47673 0
M  V30 6823 C 669.199 -1.57763 3.94095 0
M  V30 6824 C 667.106 -0.294279 5.90667 0
M  V30 6825 H 666.036 -0.193679 0.728701 0
M  V30 6826 H 668.687 0.227357 1.82086 0
M  V30 6827 H 667.069 -1.7466 3.55401 0
M  V30 6828 H 668.243 0.948049 4.50942 0
M  V30 6829 H 666.558 0.701273 4.10452 0
M  V30 6830 H 669.155 -1.93745 4.98364 0
M  V30 6831 H 669.498 -2.46531 3.35452 0
M  V30 6832 H 670.031 -0.851728 3.88575 0
M  V30 6833 H 666.77 0.557939 6.53121 0
M  V30 6834 H 666.29 -1.0371 5.90766 0
M  V30 6835 H 667.969 -0.747426 6.42668 0
M  V30 6836 N 668.101 -1.57061 -0.130224 0
M  V30 6837 C 669.329 -1.88432 -0.854456 0
M  V30 6838 C 669.744 -0.733608 -1.73964 0
M  V30 6839 O 669.101 0.296029 -1.80083 0
M  V30 6840 C 669.152 -3.1918 -1.69724 0
M  V30 6841 O 668.873 -4.2982 -0.847705 0
M  V30 6842 C 670.374 -3.6418 -2.5276 0
M  V30 6843 H 667.594 -0.624193 -0.246221 0
M  V30 6844 H 670.138 -2.04159 -0.11798 0
M  V30 6845 H 668.293 -3.05156 -2.3866 0
M  V30 6846 H 668.707 -5.04689 -1.42792 0
M  V30 6847 H 670.181 -4.58457 -3.07443 0
M  V30 6848 H 670.658 -2.90285 -3.29592 0
M  V30 6849 H 671.264 -3.80954 -1.89087 0
M  V30 6850 N 669.579 0.400081 -1.52437 0
M  V30 6851 C 670.509 1.4947 -1.7939 0
M  V30 6852 C 671.49 1.57383 -0.645329 0
M  V30 6853 O 672.675 1.72511 -0.891826 0
M  V30 6854 C 669.805 2.87201 -1.95276 0
M  V30 6855 C 668.759 2.94134 -3.10917 0
M  V30 6856 C 668.085 4.34207 -3.1204 0
M  V30 6857 C 669.385 2.64791 -4.50203 0
M  V30 6858 H 671.079 1.27165 -2.71052 0
M  V30 6859 H 668.625 0.610312 -1.30427 0
M  V30 6860 H 670.578 3.63772 -2.12715 0
M  V30 6861 H 669.302 3.10819 -1.00294 0
M  V30 6862 H 667.961 2.20009 -2.93243 0
M  V30 6863 H 667.609 4.54848 -2.14761 0
M  V30 6864 H 667.309 4.39768 -3.89715 0
M  V30 6865 H 668.833 5.127 -3.31619 0
M  V30 6866 H 670.247 3.31083 -4.68035 0
M  V30 6867 H 668.644 2.81717 -5.29864 0
M  V30 6868 H 669.714 1.60184 -4.57678 0
M  V30 6869 N 671.057 1.43213 0.657864 0
M  V30 6870 C 672.282 1.48227 1.45064 0
M  V30 6871 C 672.707 0.0999939 1.87834 0
M  V30 6872 O 672.065 -0.905269 1.57081 0
M  V30 6873 C 672.113 2.42931 2.6649 0
M  V30 6874 O 671.217 1.91237 3.6538 0
M  V30 6875 H 670.558 0.501551 0.435135 0
M  V30 6876 H 673.088 1.8808 0.805431 0
M  V30 6877 H 673.098 2.6008 3.1436 0
M  V30 6878 H 671.773 3.43348 2.34701 0
M  V30 6879 H 670.35 1.83726 3.24498 0
M  V30 6880 N 672.536 -0.895792 1.29666 0
M  V30 6881 C 673.782 -1.64921 1.19049 0
M  V30 6882 C 674.137 -1.90707 -0.254678 0
M  V30 6883 O 673.43 -1.5092 -1.18041 0
M  V30 6884 C 673.624 -3.00075 1.94139 0
M  V30 6885 C 673.453 -2.87482 3.4581 0
M  V30 6886 C 672.223 -2.88041 4.15163 0
M  V30 6887 C 674.421 -2.64224 4.41237 0
M  V30 6888 N 672.403 -2.66226 5.5317 0
M  V30 6889 C 673.774 -2.51427 5.66732 0
M  V30 6890 C 675.829 -2.49362 4.30956 0
M  V30 6891 C 674.532 -2.25281 6.83111 0
M  V30 6892 C 676.558 -2.246 5.47091 0
M  V30 6893 C 675.92 -2.12571 6.7156 0
M  V30 6894 H 672.019 -0.608926 0.490646 0
M  V30 6895 H 674.603 -1.05648 1.63544 0
M  V30 6896 H 672.774 -3.574 1.52052 0
M  V30 6897 H 674.506 -3.64544 1.75754 0
M  V30 6898 H 671.261 -2.99471 3.66898 0
M  V30 6899 H 671.685 -2.58361 6.25762 0
M  V30 6900 H 676.327 -2.57403 3.35415 0
M  V30 6901 H 674.045 -2.15978 7.78704 0
M  V30 6902 H 677.631 -2.13939 5.41037 0
M  V30 6903 H 676.511 -1.93676 7.59907 0
M  V30 6904 N 674.014 -1.12206 -1.10668 0
M  V30 6905 C 675.239 -0.898938 -1.86906 0
M  V30 6906 C 675.664 0.546346 -1.79991 0
M  V30 6907 O 675.022 1.38655 -1.1681 0
M  V30 6908 C 675.07 -1.37529 -3.33344 0
M  V30 6909 O 674.174 -0.55218 -4.08687 0
M  V30 6910 H 673.515 -0.323163 -0.580053 0
M  V30 6911 H 676.045 -1.49355 -1.39837 0
M  V30 6912 H 676.055 -1.3733 -3.84193 0
M  V30 6913 H 674.73 -2.42767 -3.37693 0
M  V30 6914 H 673.307 -0.620947 -3.67694 0
M  V30 6915 N 675.492 1.28418 -0.913599 0
M  V30 6916 C 676.424 2.26368 -0.359169 0
M  V30 6917 C 677.437 1.54858 0.502285 0
M  V30 6918 O 678.626 1.75659 0.31719 0
M  V30 6919 C 675.726 3.35112 0.50526 0
M  V30 6920 C 674.899 4.36126 -0.333648 0
M  V30 6921 C 673.958 5.24134 0.465845 0
M  V30 6922 O 672.984 5.6907 -0.121538 0
M  V30 6923 N 674.186 5.52892 1.76891 0
M  V30 6924 H 676.951 2.74579 -1.2011 0
M  V30 6925 H 674.512 1.41898 -0.779532 0
M  V30 6926 H 676.504 3.90926 1.04684 0
M  V30 6927 H 675.074 2.86611 1.2479 0
M  V30 6928 H 674.294 3.79776 -1.0566 0
M  V30 6929 H 675.582 5.00638 -0.907669 0
M  V30 6930 H 674.98 5.18217 2.26865 0
M  V30 6931 H 673.537 6.11464 2.25732 0
M  V30 6932 N 676.97 0.677563 1.42291 0
M  V30 6933 C 678.381 0.277912 1.8462 0
M  V30 6934 C 678.732 -1.18048 1.56714 0
M  V30 6935 O 677.857 -1.90404 1.02836 0
M  V30 6936 C 678.452 0.497619 3.35126 0
M  V30 6937 C 677.011 0.152063 3.76093 0
M  V30 6938 C 676.158 0.78872 2.65847 0
M  V30 6939 H 679.109 0.879527 1.32098 0
M  V30 6940 H 679.13 -0.24939 3.79682 0
M  V30 6941 H 678.642 1.55913 3.55405 0
M  V30 6942 H 676.743 -0.905896 3.6142 0
M  V30 6943 H 676.856 0.594514 4.75397 0
M  V30 6944 H 675.22 0.219813 2.5375 0
M  V30 6945 H 676.003 1.85374 2.88949 0
M  V30 6946 N 678.448 -1.51871 0.421078 0
M  V30 6947 C 679.725 -1.9447 -0.20993 0
M  V30 6948 C 680.105 -1.35875 -1.61558 0
M  V30 6949 O 679.453 -0.539294 -2.22045 0
M  V30 6950 C 679.663 -3.48402 -0.204165 0
M  V30 6951 C 681.011 -4.2254 -0.417696 0
M  V30 6952 O 682.035 -3.55074 -0.282999 0
M  V30 6953 O 680.894 -5.422 -0.684239 0
M  V30 6954 H 677.988 -0.815283 -0.138718 0
M  V30 6955 H 680.534 -1.62832 0.477884 0
M  V30 6956 H 679.306 -3.83464 0.779183 0
M  V30 6957 H 678.929 -3.86436 -0.935576 0
M  V30 6958 N 679.926 -0.151884 -1.56866 0
M  V30 6959 C 680.858 0.817008 -2.14144 0
M  V30 6960 C 681.871 1.20735 -1.0921 0
M  V30 6961 O 683.06 1.15058 -1.36469 0
M  V30 6962 C 680.16 2.10844 -2.65326 0
M  V30 6963 C 679.333 1.88471 -3.94712 0
M  V30 6964 C 678.392 3.01649 -4.31155 0
M  V30 6965 O 677.418 2.73127 -4.9939 0
M  V30 6966 N 678.62 4.28947 -3.91132 0
M  V30 6967 H 681.385 0.327448 -2.97906 0
M  V30 6968 H 678.946 0.0315313 -1.61869 0
M  V30 6969 H 680.938 2.85616 -2.86715 0
M  V30 6970 H 679.508 2.51049 -1.86262 0
M  V30 6971 H 678.728 0.977088 -3.81899 0
M  V30 6972 H 680.016 1.70866 -4.79252 0
M  V30 6973 H 679.414 4.54986 -3.36161 0
M  V30 6974 H 677.971 5.00484 -4.17563 0
M  V30 6975 N 681.404 1.57128 0.121893 0
M  V30 6976 C 682.815 1.73902 0.679348 0
M  V30 6977 C 683.166 0.770135 1.80453 0
M  V30 6978 O 682.291 -0.0576083 2.16323 0
M  V30 6979 C 682.886 3.15328 1.2391 0
M  V30 6980 C 681.445 3.33618 1.74288 0
M  V30 6981 C 680.592 2.6978 0.641414 0
M  V30 6982 H 683.543 1.58359 -0.104 0
M  V30 6983 H 683.564 3.16718 2.10879 0
M  V30 6984 H 683.076 3.85821 0.419957 0
M  V30 6985 H 681.177 2.68162 2.58689 0
M  V30 6986 H 681.29 4.4176 1.85432 0
M  V30 6987 H 679.654 2.30935 1.0743 0
M  V30 6988 H 680.437 3.42895 -0.166707 0
M  V30 6989 N 682.882 -0.391992 1.52647 0
M  V30 6990 C 683.83 -1.4991 1.77848 0
M  V30 6991 C 684.824 -1.56587 0.646282 0
M  V30 6992 O 686.03 -1.59789 0.828698 0
M  V30 6993 H 682.405 -0.498883 0.56269 0
M  V30 6994 H 684.376 -1.25847 2.70564 0
M  V30 6995 C 683.125 -2.87081 1.96163 0
M  V30 6996 H 682.448 -2.82692 2.82711 0
M  V30 6997 H 683.888 -3.63792 2.17787 0
M  V30 6998 C 682.347 -3.28822 0.733348 0
M  V30 6999 O 682.877 -4.01598 -0.0906481 0
M  V30 7000 N 681.083 -2.85068 0.564317 0
M  V30 7001 H 680.63 -2.26012 1.23598 0
M  V30 7002 H 680.588 -3.13355 -0.256166 0
M  V30 7003 N 684.36 -1.4356 -0.65026 0
M  V30 7004 C 685.608 -1.45046 -1.40734 0
M  V30 7005 C 685.929 -0.0769822 -1.94848 0
M  V30 7006 O 685.199 0.888098 -1.74613 0
M  V30 7007 H 683.779 -0.534034 -0.522318 0
M  V30 7008 H 686.441 -1.79186 -0.766703 0
M  V30 7009 H 685.537 -2.16476 -2.24822 0
M  V30 7010 N 685.838 0.888903 -1.30139 0
M  V30 7011 C 687.084 1.6428 -1.18912 0
M  V30 7012 C 687.417 1.92499 0.256477 0
M  V30 7013 O 686.692 1.54312 1.18397 0
M  V30 7014 C 686.975 2.9851 -2.01405 0
M  V30 7015 C 686.828 2.77288 -3.54163 0
M  V30 7016 C 688.147 3.99383 -1.84882 0
M  V30 7017 H 685.266 0.596148 -0.433333 0
M  V30 7018 H 687.908 1.0289 -1.5973 0
M  V30 7019 H 686.058 3.50907 -1.66722 0
M  V30 7020 H 687.73 2.31709 -3.98884 0
M  V30 7021 H 685.973 2.11867 -3.78543 0
M  V30 7022 H 686.644 3.72717 -4.07168 0
M  V30 7023 H 689.12 3.56132 -2.15196 0
M  V30 7024 H 687.996 4.91222 -2.44934 0
M  V30 7025 H 688.257 4.34674 -0.806902 0
M  V30 7026 N 687.317 1.12792 1.10072 0
M  V30 7027 C 688.566 0.880232 1.81479 0
M  V30 7028 C 688.879 -0.595575 1.86312 0
M  V30 7029 O 690.085 -0.959979 2.53962 0
M  V30 7030 C 688.541 1.52514 3.25987 0
M  V30 7031 C 688.149 3.036 3.29441 0
M  V30 7032 C 689.893 1.35788 4.02196 0
M  V30 7033 C 687.8 3.61007 4.68431 0
M  V30 7034 H 686.73 0.325654 0.680048 0
M  V30 7035 H 689.381 1.35485 1.23758 0
M  V30 7036 H 687.763 0.978188 3.83728 0
M  V30 7037 H 688.937 3.64819 2.81502 0
M  V30 7038 H 687.252 3.19765 2.66719 0
M  V30 7039 H 689.849 1.76096 5.0487 0
M  V30 7040 H 690.192 0.301972 4.15203 0
M  V30 7041 H 690.725 1.87426 3.50879 0
M  V30 7042 H 687.464 4.66375 4.60625 0
M  V30 7043 H 686.984 3.04564 5.16721 0
M  V30 7044 H 688.663 3.60289 5.37402 0
M  V30 7045 N 688.795 -1.27931 0.920396 0
M  V30 7046 C 689.725 -2.29487 0.431024 0
M  V30 7047 C 690.706 -1.62435 -0.504861 0
M  V30 7048 O 691.891 -1.89797 -0.411176 0
M  V30 7049 C 689.021 -3.45788 -0.323709 0
M  V30 7050 C 687.975 -4.24784 0.523658 0
M  V30 7051 C 687.301 -5.33488 -0.359809 0
M  V30 7052 C 688.601 -4.90874 1.78437 0
M  V30 7053 H 690.295 -2.70671 1.27975 0
M  V30 7054 H 687.841 -1.30121 0.616813 0
M  V30 7055 H 689.794 -4.15927 -0.676952 0
M  V30 7056 H 688.518 -3.03502 -1.2064 0
M  V30 7057 H 687.177 -3.56382 0.85951 0
M  V30 7058 H 686.825 -4.87445 -1.24124 0
M  V30 7059 H 686.525 -5.87247 0.203605 0
M  V30 7060 H 688.049 -6.06472 -0.708787 0
M  V30 7061 H 689.463 -5.53339 1.49963 0
M  V30 7062 H 687.86 -5.54659 2.29071 0
M  V30 7063 H 688.93 -4.14988 2.50824 0
M  V30 7064 N 690.273 -0.685099 -1.4193 0
M  V30 7065 C 691.55 -0.140152 -1.95097 0
M  V30 7066 C 691.93 1.34745 -1.62502 0
M  V30 7067 O 691.278 2.08872 -0.926534 0
M  V30 7068 C 691.488 -0.420268 -3.4646 0
M  V30 7069 C 692.836 -0.342338 -4.23218 0
M  V30 7070 O 693.86 -0.354592 -3.54431 0
M  V30 7071 O 692.719 -0.293404 -5.45712 0
M  V30 7072 H 689.813 -0.00885998 -0.826953 0
M  V30 7073 H 692.359 -0.760539 -1.51703 0
M  V30 7074 H 691.131 -1.45037 -3.63428 0
M  V30 7075 H 690.754 0.231616 -3.96925 0
M  V30 7076 N 691.751 1.51645 -0.429126 0
M  V30 7077 C 692.981 2.06133 0.138793 0
M  V30 7078 C 693.389 1.29735 1.37716 0
M  V30 7079 O 692.732 0.347955 1.80375 0
M  V30 7080 C 692.794 3.55504 0.534493 0
M  V30 7081 C 692.458 4.53098 -0.595917 0
M  V30 7082 C 693.455 4.98815 -1.46558 0
M  V30 7083 C 691.14 4.96296 -0.774309 0
M  V30 7084 C 693.134 5.86394 -2.4984 0
M  V30 7085 C 690.821 5.83667 -1.81042 0
M  V30 7086 C 691.819 6.28613 -2.67086 0
M  V30 7087 O 691.507 7.14251 -3.68919 0
M  V30 7088 H 691.239 0.675833 0.0150263 0
M  V30 7089 H 693.793 1.96301 -0.604584 0
M  V30 7090 H 692.023 3.63092 1.33045 0
M  V30 7091 H 693.712 3.92545 1.03262 0
M  V30 7092 H 694.478 4.66143 -1.33925 0
M  V30 7093 H 690.357 4.60859 -0.114178 0
M  V30 7094 H 693.901 6.21398 -3.17034 0
M  V30 7095 H 689.798 6.15753 -1.93698 0
M  V30 7096 H 690.566 7.3241 -3.65402 0
M  V30 7097 N 693.229 0.160201 1.56784 0
M  V30 7098 C 694.139 -0.787167 2.21 0
M  V30 7099 C 695.155 -1.26167 1.19825 0
M  V30 7100 O 696.331 -1.31611 1.52448 0
M  V30 7101 C 693.396 -2.00364 2.8294 0
M  V30 7102 C 692.457 -1.5771 3.99282 0
M  V30 7103 C 691.69 -2.73558 4.58259 0
M  V30 7104 O 691.913 -3.90129 4.16119 0
M  V30 7105 O 690.847 -2.48271 5.48311 0
M  V30 7106 H 694.673 -0.270462 3.02493 0
M  V30 7107 H 692.258 -0.0674666 1.49248 0
M  V30 7108 H 694.14 -2.71529 3.22257 0
M  V30 7109 H 692.815 -2.50961 2.04451 0
M  V30 7110 H 691.722 -0.835274 3.64656 0
M  V30 7111 H 693.055 -1.11815 4.79331 0
M  V30 7112 N 694.707 -1.5719 -0.113559 0
M  V30 7113 C 695.637 -2.03772 -1.14013 0
M  V30 7114 C 696.618 -0.923176 -1.42869 0
M  V30 7115 O 697.803 -1.19325 -1.53216 0
M  V30 7116 C 694.933 -2.44663 -2.4649 0
M  V30 7117 C 693.887 -3.59612 -2.32085 0
M  V30 7118 C 693.213 -3.8642 -3.69573 0
M  V30 7119 C 694.513 -4.91149 -1.7768 0
M  V30 7120 H 696.207 -2.89785 -0.752665 0
M  V30 7121 H 693.753 -1.39412 -0.360609 0
M  V30 7122 H 695.706 -2.75857 -3.18561 0
M  V30 7123 H 694.43 -1.55628 -2.87137 0
M  V30 7124 H 693.089 -3.28636 -1.62461 0
M  V30 7125 H 692.737 -2.94581 -4.07715 0
M  V30 7126 H 692.437 -4.63797 -3.60786 0
M  V30 7127 H 693.961 -4.2007 -4.4314 0
M  V30 7128 H 695.375 -5.20843 -2.39574 0
M  V30 7129 H 693.772 -5.72562 -1.79701 0
M  V30 7130 H 694.842 -4.79301 -0.734776 0
M  V30 7131 N 696.185 0.383891 -1.52853 0
M  V30 7132 C 697.117 1.48889 -1.74255 0
M  V30 7133 C 698.13 1.50405 -0.623063 0
M  V30 7134 O 699.319 1.54215 -0.898887 0
M  V30 7135 C 696.419 2.87721 -1.79081 0
M  V30 7136 C 695.592 3.10111 -3.08464 0
M  V30 7137 C 694.651 4.28954 -3.0477 0
M  V30 7138 O 693.677 4.25012 -3.78621 0
M  V30 7139 N 694.879 5.35411 -2.24311 0
M  V30 7140 H 697.644 1.30915 -2.69595 0
M  V30 7141 H 695.205 0.573454 -1.51404 0
M  V30 7142 H 697.197 3.65333 -1.7411 0
M  V30 7143 H 695.767 2.99029 -0.911052 0
M  V30 7144 H 694.987 2.20319 -3.26884 0
M  V30 7145 H 696.275 3.21928 -3.94005 0
M  V30 7146 H 695.673 5.41471 -1.63787 0
M  V30 7147 H 694.23 6.1167 -2.25175 0
M  V30 7148 N 697.663 1.43903 0.642637 0
M  V30 7149 C 698.893 1.49323 1.4278 0
M  V30 7150 C 699.301 0.113058 1.88862 0
M  V30 7151 O 698.644 -0.889089 1.60751 0
M  V30 7152 C 698.706 2.3861 2.68897 0
M  V30 7153 C 698.37 3.85976 2.44687 0
M  V30 7154 C 699.367 4.7681 2.07239 0
M  V30 7155 C 697.052 4.30567 2.58683 0
M  V30 7156 C 699.046 6.10234 1.841 0
M  V30 7157 C 696.733 5.64042 2.35159 0
M  V30 7158 C 697.731 6.53693 1.97925 0
M  V30 7159 O 697.419 7.84698 1.74654 0
M  V30 7160 H 697.151 0.509109 0.444729 0
M  V30 7161 H 699.705 1.89425 0.794195 0
M  V30 7162 H 697.935 1.93415 3.34855 0
M  V30 7163 H 699.624 2.35112 3.30873 0
M  V30 7164 H 700.39 4.43635 1.95993 0
M  V30 7165 H 696.269 3.61054 2.86637 0
M  V30 7166 H 699.813 6.80171 1.54962 0
M  V30 7167 H 695.71 5.96782 2.46011 0
M  V30 7168 H 696.478 7.96382 1.88993 0
M  V30 7169 N 699.141 -0.881989 1.30609 0
M  V30 7170 C 700.371 -1.66469 1.22359 0
M  V30 7171 C 700.779 -1.87969 -0.215507 0
M  V30 7172 O 700.122 -1.42938 -1.15388 0
M  V30 7173 C 700.184 -3.06135 1.88472 0
M  V30 7174 C 699.848 -3.07795 3.37804 0
M  V30 7175 C 700.845 -2.86633 4.33749 0
M  V30 7176 C 698.53 -3.29297 3.793 0
M  V30 7177 C 700.524 -2.86934 5.69164 0
M  V30 7178 C 698.211 -3.29228 5.14832 0
M  V30 7179 C 699.209 -3.08071 6.09574 0
M  V30 7180 O 698.897 -3.07824 7.4263 0
M  V30 7181 H 698.629 -0.526129 0.424458 0
M  V30 7182 H 701.183 -1.11004 1.72821 0
M  V30 7183 H 699.413 -3.63276 1.32543 0
M  V30 7184 H 701.102 -3.66571 1.74301 0
M  V30 7185 H 701.868 -2.69814 4.0302 0
M  V30 7186 H 697.747 -3.44799 3.05998 0
M  V30 7187 H 701.291 -2.70339 6.43088 0
M  V30 7188 H 697.188 -3.45583 5.452 0
M  V30 7189 H 697.956 -3.2397 7.51656 0
M  V30 7190 N 700.619 -1.13374 -1.09472 0
M  V30 7191 C 701.529 -0.824029 -2.19652 0
M  V30 7192 C 702.545 0.19118 -1.72947 0
M  V30 7193 O 703.721 0.0223464 -2.01388 0
M  V30 7194 C 700.786 -0.294009 -3.45451 0
M  V30 7195 C 699.847 -1.3704 -4.0684 0
M  V30 7196 C 699.08 -0.86558 -5.26634 0
M  V30 7197 O 699.303 0.29702 -5.69626 0
M  V30 7198 O 698.237 -1.63968 -5.79136 0
M  V30 7199 H 702.063 -1.74454 -2.48595 0
M  V30 7200 H 699.648 -0.911155 -1.18399 0
M  V30 7201 H 701.53 -0.00381039 -4.214 0
M  V30 7202 H 700.205 0.598921 -3.18111 0
M  V30 7203 H 699.112 -1.71391 -3.3253 0
M  V30 7204 H 700.445 -2.23746 -4.38405 0
M  V30 7205 N 702.098 1.27442 -0.927168 0
M  V30 7206 C 703.045 2.26863 -0.424459 0
M  V30 7207 C 704.015 1.5813 0.508346 0
M  V30 7208 O 705.2 1.85946 0.42762 0
M  V30 7209 C 702.34 3.43639 0.31718 0
M  V30 7210 C 701.453 4.27087 -0.649675 0
M  V30 7211 C 700.588 5.31082 0.111753 0
M  V30 7212 C 699.627 6.062 -0.847843 0
M  V30 7213 N 698.764 7.01999 -0.119074 0
M  V30 7214 H 703.604 2.69239 -1.27728 0
M  V30 7215 H 701.141 1.32394 -0.641106 0
M  V30 7216 H 703.099 4.10155 0.763486 0
M  V30 7217 H 701.729 3.02217 1.13424 0
M  V30 7218 H 700.781 3.60491 -1.21451 0
M  V30 7219 H 702.093 4.79242 -1.38307 0
M  V30 7220 H 701.247 6.03544 0.618 0
M  V30 7221 H 699.986 4.7973 0.878114 0
M  V30 7222 H 698.991 5.32577 -1.36534 0
M  V30 7223 H 700.216 6.59642 -1.61398 0
M  V30 7224 H 698.162 6.52977 0.629051 0
M  V30 7225 H 698.079 7.5184 -0.792046 0
M  V30 7226 H 699.347 7.78638 0.366537 0
M  V30 7227 N 703.576 0.692616 1.41565 0
M  V30 7228 C 704.486 0.0258451 2.34586 0
M  V30 7229 C 705.502 -0.769324 1.56069 0
M  V30 7230 O 706.678 -0.707563 1.88562 0
M  V30 7231 C 703.743 -0.901289 3.3478 0
M  V30 7232 C 702.804 -0.0986579 4.29187 0
M  V30 7233 C 702.037 -0.981634 5.24595 0
M  V30 7234 O 702.26 -2.22115 5.25377 0
M  V30 7235 O 701.194 -0.432892 6.00341 0
M  V30 7236 H 705.02 0.792537 2.93177 0
M  V30 7237 H 702.605 0.452935 1.42369 0
M  V30 7238 H 704.487 -1.43302 3.96286 0
M  V30 7239 H 703.162 -1.64752 2.78637 0
M  V30 7240 H 702.069 0.477604 3.71039 0
M  V30 7241 H 703.402 0.608848 4.8842 0
M  V30 7242 N 705.054 -1.51416 0.437162 0
M  V30 7243 C 705.984 -2.30631 -0.364922 0
M  V30 7244 C 706.965 -1.36037 -1.02118 0
M  V30 7245 O 708.15 -1.64956 -1.02485 0
M  V30 7246 C 705.28 -3.1482 -1.46648 0
M  V30 7247 C 704.234 -4.17691 -0.933717 0
M  V30 7248 C 703.56 -4.904 -2.13101 0
M  V30 7249 C 704.86 -5.2229 0.0317201 0
M  V30 7250 H 706.554 -2.97932 0.29614 0
M  V30 7251 H 704.1 -1.4328 0.143865 0
M  V30 7252 H 706.053 -3.69017 -2.03481 0
M  V30 7253 H 704.777 -2.4534 -2.15583 0
M  V30 7254 H 703.436 -3.64545 -0.387602 0
M  V30 7255 H 703.084 -4.17423 -2.80654 0
M  V30 7256 H 702.784 -5.59962 -1.78092 0
M  V30 7257 H 704.308 -5.4742 -2.70487 0
M  V30 7258 H 705.722 -5.7156 -0.446302 0
M  V30 7259 H 704.119 -5.99378 0.29437 0
M  V30 7260 H 705.189 -4.75131 0.968447 0
M  V30 7261 N 706.532 -0.168513 -1.56696 0
M  V30 7262 C 707.757 0.486688 -2.01609 0
M  V30 7263 C 708.182 1.56203 -1.04796 0
M  V30 7264 O 707.54 1.8128 -0.0270596 0
M  V30 7265 C 707.588 1.04451 -3.45141 0
M  V30 7266 O 706.692 2.15862 -3.51393 0
M  V30 7267 H 706.033 0.116831 -0.653641 0
M  V30 7268 H 708.563 -0.271579 -2.0279 0
M  V30 7269 H 708.573 1.36782 -3.84389 0
M  V30 7270 H 707.248 0.257155 -4.15104 0
M  V30 7271 H 705.825 1.84597 -3.24004 0
M  V30 7272 N 708.01 1.57248 0.105221 0
M  V30 7273 C 708.92 2.04653 1.14693 0
M  V30 7274 C 709.936 0.969488 1.44489 0
M  V30 7275 O 711.112 1.28196 1.55331 0
M  V30 7276 C 708.177 2.45297 2.45011 0
M  V30 7277 C 707.238 3.67148 2.22489 0
M  V30 7278 C 706.471 4.05844 3.46592 0
M  V30 7279 O 706.694 3.44736 4.54437 0
M  V30 7280 O 705.628 4.98862 3.36779 0
M  V30 7281 H 709.454 2.93663 0.774336 0
M  V30 7282 H 707.039 1.45998 0.31701 0
M  V30 7283 H 708.921 2.72112 3.21766 0
M  V30 7284 H 707.596 1.59429 2.81717 0
M  V30 7285 H 706.503 3.45463 1.43547 0
M  V30 7286 H 707.836 4.53764 1.9068 0
M  V30 7287 N 709.488 -0.375779 1.53054 0
M  V30 7288 C 710.718 -1.1387 1.72386 0
M  V30 7289 C 711.126 -1.8382 0.447966 0
M  V30 7290 O 710.469 -1.74027 -0.588244 0
M  V30 7291 C 710.531 -2.22047 2.82728 0
M  V30 7292 C 710.195 -1.71951 4.23417 0
M  V30 7293 C 711.192 -1.18909 5.06119 0
M  V30 7294 C 708.877 -1.77773 4.69789 0
M  V30 7295 C 710.871 -0.723529 6.3328 0
M  V30 7296 C 708.558 -1.30829 5.96931 0
M  V30 7297 C 709.556 -0.782077 6.78508 0
M  V30 7298 O 709.244 -0.319529 8.03265 0
M  V30 7299 H 708.976 -0.346835 0.580242 0
M  V30 7300 H 711.53 -0.443748 2.00549 0
M  V30 7301 H 709.76 -2.95006 2.50017 0
M  V30 7302 H 711.449 -2.83654 2.90336 0
M  V30 7303 H 712.215 -1.13758 4.7147 0
M  V30 7304 H 708.094 -2.17673 4.06373 0
M  V30 7305 H 711.638 -0.312126 6.96901 0
M  V30 7306 H 707.535 -1.3567 6.31081 0
M  V30 7307 H 708.303 -0.439796 8.17318 0
M  V30 7308 N 710.966 -1.44241 -0.634997 0
M  V30 7309 C 711.914 -1.51103 -1.76835 0
M  V30 7310 C 712.908 -0.383051 -1.65012 0
M  V30 7311 O 714.114 -0.557832 -1.71138 0
M  V30 7312 H 710.489 -0.474076 -0.583743 0
M  V30 7313 H 712.46 -2.46499 -1.68169 0
M  V30 7314 C 711.209 -1.4687 -3.15158 0
M  V30 7315 H 710.532 -2.32979 -3.24901 0
M  V30 7316 H 711.972 -1.55731 -3.94365 0
M  V30 7317 C 710.431 -0.188884 -3.3637 0
M  V30 7318 O 710.961 0.742487 -3.94778 0
M  V30 7319 N 709.167 -0.0932516 -2.9045 0
M  V30 7320 H 708.714 -0.852004 -2.43102 0
M  V30 7321 H 708.672 0.762308 -3.05018 0
M  V30 7322 N 712.444 0.87505 -1.31075 0
M  V30 7323 C 713.407 1.96333 -1.18263 0
M  V30 7324 C 714.407 1.60416 -0.111106 0
M  V30 7325 O 715.597 1.7044 -0.359987 0
M  V30 7326 C 712.729 3.31036 -0.81414 0
M  V30 7327 H 713.922 2.09125 -2.14958 0
M  V30 7328 H 711.475 1.06271 -1.14614 0
M  V30 7329 H 712.21 3.23944 0.151875 0
M  V30 7330 H 711.995 3.58476 -1.58862 0
M  V30 7331 H 713.485 4.10842 -0.748249 0
M  V30 7332 N 713.922 1.13953 1.08869 0
M  V30 7333 C 715.15 0.92817 1.84912 0
M  V30 7334 C 715.565 -0.523197 1.81406 0
M  V30 7335 O 714.922 -1.36237 1.21432 0
M  V30 7336 C 714.973 1.41509 3.32652 0
M  V30 7337 O 714.694 2.80959 3.36145 0
M  V30 7338 C 716.195 1.243 4.25517 0
M  V30 7339 H 713.415 0.330612 0.583898 0
M  V30 7340 H 715.959 1.51349 1.37527 0
M  V30 7341 H 714.114 0.872648 3.77444 0
M  V30 7342 H 714.528 3.02704 4.28335 0
M  V30 7343 H 716.002 1.63237 5.27312 0
M  V30 7344 H 716.479 0.18532 4.38809 0
M  V30 7345 H 717.085 1.77375 3.86546 0
M  V30 7346 N 715.4 -1.26948 0.933913 0
M  V30 7347 C 716.363 -2.24889 0.442457 0
M  V30 7348 C 717.363 -1.54594 -0.442426 0
M  V30 7349 O 718.553 -1.72502 -0.242629 0
M  V30 7350 C 715.685 -3.3896 -0.363173 0
M  V30 7351 H 716.878 -2.69879 1.30787 0
M  V30 7352 H 714.431 -1.38978 0.715187 0
M  V30 7353 H 715.166 -2.99361 -1.24714 0
M  V30 7354 H 714.951 -3.9116 0.271366 0
M  V30 7355 H 716.441 -4.11739 -0.697186 0
M  V30 7356 N 716.879 -0.700114 -1.41195 0
M  V30 7357 C 718.128 -0.230082 -2.00383 0
M  V30 7358 C 718.441 1.17857 -1.56106 0
M  V30 7359 O 719.647 1.74631 -2.07885 0
M  V30 7360 C 718.103 -0.360447 -3.5809 0
M  V30 7361 C 717.711 -1.77475 -4.11347 0
M  V30 7362 C 719.455 0.0495799 -4.24471 0
M  V30 7363 C 717.362 -1.85653 -5.61504 0
M  V30 7364 H 716.292 -0.0822633 -0.749499 0
M  V30 7365 H 718.943 -0.868969 -1.6162 0
M  V30 7366 H 717.325 0.346768 -3.94479 0
M  V30 7367 H 718.499 -2.51109 -3.86369 0
M  V30 7368 H 716.814 -2.13486 -3.57509 0
M  V30 7369 H 719.411 0.00898219 -5.34699 0
M  V30 7370 H 719.754 1.08904 -4.01803 0
M  V30 7371 H 720.287 -0.607521 -3.93134 0
M  V30 7372 H 717.026 -2.87667 -5.89006 0
M  V30 7373 H 716.546 -1.1641 -5.88395 0
M  V30 7374 H 718.225 -1.62151 -6.26351 0
M  V30 7375 N 718.357 1.51182 -0.445186 0
M  V30 7376 C 719.304 2.27939 0.362291 0
M  V30 7377 C 720.274 1.31864 1.01 0
M  V30 7378 O 721.459 1.60776 1.02741 0
M  V30 7379 C 718.599 3.13016 1.45311 0
M  V30 7380 C 717.712 4.24093 0.822757 0
M  V30 7381 C 716.847 4.96467 1.88928 0
M  V30 7382 C 715.886 5.99454 1.23778 0
M  V30 7383 N 715.023 6.65206 2.24602 0
M  V30 7384 H 719.863 2.965 -0.29862 0
M  V30 7385 H 717.4 1.46237 -0.15911 0
M  V30 7386 H 719.358 3.60673 2.09692 0
M  V30 7387 H 717.988 2.46553 2.08354 0
M  V30 7388 H 717.04 3.80341 0.0670364 0
M  V30 7389 H 718.352 4.97853 0.307184 0
M  V30 7390 H 717.506 5.47712 2.60953 0
M  V30 7391 H 716.245 4.22355 2.4386 0
M  V30 7392 H 715.25 5.47494 0.503042 0
M  V30 7393 H 716.475 6.75527 0.695694 0
M  V30 7394 H 714.421 5.93901 2.78599 0
M  V30 7395 H 714.338 7.34756 1.77958 0
M  V30 7396 H 715.606 7.21078 2.96085 0
M  V30 7397 N 719.835 0.176821 1.56605 0
M  V30 7398 C 721.06 -0.47599 2.01864 0
M  V30 7399 C 721.485 -1.55645 1.05623 0
M  V30 7400 O 720.843 -1.81263 0.0366729 0
M  V30 7401 C 720.891 -1.02619 3.4569 0
M  V30 7402 O 719.995 -2.13996 3.52533 0
M  V30 7403 H 719.336 -0.113363 0.654251 0
M  V30 7404 H 721.866 0.28233 2.02643 0
M  V30 7405 H 721.876 -1.34742 3.85109 0
M  V30 7406 H 720.551 -0.235138 4.15235 0
M  V30 7407 H 719.128 -1.82876 3.24978 0
M  V30 7408 N 721.313 -1.57302 -0.09688 0
M  V30 7409 C 722.724 -1.7496 -0.651595 0
M  V30 7410 C 723.075 -0.798746 -1.79205 0
M  V30 7411 O 722.2 0.0231858 -2.16388 0
M  V30 7412 C 722.795 -3.17259 -1.18878 0
M  V30 7413 C 721.354 -3.36348 -1.68958 0
M  V30 7414 C 720.501 -2.70766 -0.598413 0
M  V30 7415 H 723.452 -1.58173 0.12918 0
M  V30 7416 H 723.473 -3.20033 -2.05814 0
M  V30 7417 H 722.985 -3.8644 -0.358523 0
M  V30 7418 H 721.086 -2.72243 -2.5439 0
M  V30 7419 H 721.199 -4.44654 -1.7838 0
M  V30 7420 H 719.563 -2.32615 -1.03743 0
M  V30 7421 H 720.346 -3.42586 0.221238 0
M  V30 7422 N 722.791 0.367657 -1.53252 0
M  V30 7423 C 724.019 1.13119 -1.73239 0
M  V30 7424 C 724.434 1.831 -0.460404 0
M  V30 7425 O 723.791 1.73483 0.566557 0
M  V30 7426 C 723.842 2.16308 -2.89643 0
M  V30 7427 O 723.563 1.49175 -4.1192 0
M  V30 7428 C 725.064 3.05224 -3.21486 0
M  V30 7429 H 722.284 0.338318 -0.579467 0
M  V30 7430 H 724.828 0.42721 -1.99988 0
M  V30 7431 H 722.983 2.82307 -2.65295 0
M  V30 7432 H 723.397 2.17912 -4.7709 0
M  V30 7433 H 724.871 3.73613 -4.06346 0
M  V30 7434 H 725.348 3.69919 -2.36763 0
M  V30 7435 H 725.954 2.44843 -3.47753 0
M  V30 7436 N 724.269 1.44576 0.627338 0
M  V30 7437 C 725.217 1.52039 1.76031 0
M  V30 7438 C 726.211 0.391796 1.64807 0
M  V30 7439 O 727.417 0.5669 1.7084 0
M  V30 7440 H 723.792 0.477165 0.581221 0
M  V30 7441 H 725.763 2.47387 1.6686 0
M  V30 7442 C 724.512 1.48539 3.14375 0
M  V30 7443 H 723.835 2.34699 3.23661 0
M  V30 7444 H 725.275 1.57821 3.93534 0
M  V30 7445 C 723.734 0.20672 3.36265 0
M  V30 7446 O 724.264 -0.72154 3.95167 0
M  V30 7447 N 722.47 0.108654 2.90397 0
M  V30 7448 H 722.017 0.864884 2.42647 0
M  V30 7449 H 721.975 -0.746121 3.05418 0
M  V30 7450 N 725.747 -0.868086 1.31537 0
M  V30 7451 C 726.975 -1.65402 1.24298 0
M  V30 7452 C 727.39 -1.87827 -0.191389 0
M  V30 7453 O 726.747 -1.43776 -1.12404 0
M  V30 7454 C 726.798 -3.02093 1.9855 0
M  V30 7455 O 726.519 -2.80668 3.36388 0
M  V30 7456 C 728.02 -3.96538 1.98173 0
M  V30 7457 H 725.24 -0.515598 0.429417 0
M  V30 7458 H 727.784 -1.0834 1.73444 0
M  V30 7459 H 725.939 -3.55838 1.53161 0
M  V30 7460 H 726.353 -3.67504 3.74221 0
M  V30 7461 H 727.827 -4.8976 2.54635 0
M  V30 7462 H 728.304 -4.28474 0.964697 0
M  V30 7463 H 728.91 -3.48729 2.4345 0
M  V30 7464 N 727.225 -1.14528 -1.08264 0
M  V30 7465 C 728.471 -0.91576 -1.80947 0
M  V30 7466 C 728.804 0.55623 -1.86064 0
M  V30 7467 O 728.079 1.41207 -1.33756 0
M  V30 7468 C 728.362 -1.51917 -3.26486 0
M  V30 7469 C 728.215 -3.06111 -3.2957 0
M  V30 7470 C 729.534 -1.19724 -4.23502 0
M  V30 7471 H 726.653 -0.334113 -0.656915 0
M  V30 7472 H 729.295 -1.41547 -1.26746 0
M  V30 7473 H 727.445 -1.0942 -3.72773 0
M  V30 7474 H 729.117 -3.57448 -2.91597 0
M  V30 7475 H 727.36 -3.40483 -2.688 0
M  V30 7476 H 728.031 -3.43438 -4.32151 0
M  V30 7477 H 730.507 -1.56467 -3.85561 0
M  V30 7478 H 729.383 -1.64575 -5.23647 0
M  V30 7479 H 729.644 -0.112771 -4.41956 0
M  V30 7480 N 728.703 1.26451 -0.940633 0
M  V30 7481 C 729.931 1.97868 -0.604642 0
M  V30 7482 C 730.346 1.70051 0.820251 0
M  V30 7483 O 729.703 0.96843 1.54686 0
M  V30 7484 C 729.754 3.51684 -0.836689 0
M  V30 7485 O 729.475 3.78533 -2.20554 0
M  V30 7486 C 730.976 4.40343 -0.511169 0
M  V30 7487 H 728.196 0.631105 -0.227919 0
M  V30 7488 H 730.74 1.60979 -1.26119 0
M  V30 7489 H 728.895 3.86736 -0.226759 0
M  V30 7490 H 729.309 4.73065 -2.26517 0
M  V30 7491 H 730.783 5.47229 -0.724157 0
M  V30 7492 H 731.26 4.35694 0.553815 0
M  V30 7493 H 731.866 4.10834 -1.0998 0
M  V30 7494 N 730.181 0.707592 1.40822 0
M  V30 7495 C 731.427 0.244031 2.01326 0
M  V30 7496 C 731.76 -1.15722 1.55955 0
M  V30 7497 O 731.035 -1.78347 0.776044 0
M  V30 7498 C 731.318 0.315128 3.58718 0
M  V30 7499 C 731.171 1.75419 4.14184 0
M  V30 7500 C 732.49 -0.318251 4.38948 0
M  V30 7501 H 729.609 0.0901471 0.731466 0
M  V30 7502 H 732.251 0.898584 1.67408 0
M  V30 7503 H 730.401 -0.242176 3.87744 0
M  V30 7504 H 732.073 2.36626 3.95987 0
M  V30 7505 H 730.316 2.28449 3.68773 0
M  V30 7506 H 730.987 1.75538 5.23345 0
M  V30 7507 H 733.463 0.156514 4.15806 0
M  V30 7508 H 732.339 -0.238019 5.48384 0
M  V30 7509 H 732.6 -1.40067 4.19325 0
M  V30 7510 N 731.66 -1.50943 0.453197 0
M  V30 7511 C 732.592 -2.25922 -0.38623 0
M  V30 7512 C 733.605 -1.3055 -0.972652 0
M  V30 7513 O 734.794 -1.56191 -0.864097 0
M  V30 7514 C 731.894 -3.01176 -1.5539 0
M  V30 7515 C 731.067 -4.23768 -1.0835 0
M  V30 7516 C 730.126 -4.81466 -2.12313 0
M  V30 7517 O 729.152 -5.42875 -1.71101 0
M  V30 7518 N 730.354 -4.66889 -3.44956 0
M  V30 7519 H 733.119 -2.98601 0.256468 0
M  V30 7520 H 730.68 -1.59408 0.282965 0
M  V30 7521 H 732.672 -3.36659 -2.24594 0
M  V30 7522 H 731.242 -2.31409 -2.10163 0
M  V30 7523 H 730.462 -3.93597 -0.217961 0
M  V30 7524 H 731.75 -5.03289 -0.746857 0
M  V30 7525 H 731.148 -4.18011 -3.81161 0
M  V30 7526 H 729.705 -5.06691 -4.1001 0
M  V30 7527 N 733.138 -0.185124 -1.56509 0
M  V30 7528 C 734.386 0.455357 -1.96903 0
M  V30 7529 C 734.707 1.62839 -1.07277 0
M  V30 7530 O 733.977 1.95385 -0.141966 0
M  V30 7531 H 732.557 0.171218 -0.727113 0
M  V30 7532 H 735.219 -0.26953 -1.93027 0
M  V30 7533 H 734.315 0.80616 -3.01509 0
M  V30 7534 N 734.616 1.57351 0.0885366 0
M  V30 7535 C 735.546 2.05561 1.10757 0
M  V30 7536 C 736.527 0.945789 1.41382 0
M  V30 7537 O 737.712 1.21747 1.51299 0
M  V30 7538 C 734.842 2.48554 2.42566 0
M  V30 7539 C 733.796 3.63259 2.26334 0
M  V30 7540 C 733.122 3.9225 3.63378 0
M  V30 7541 C 734.422 4.93913 1.69844 0
M  V30 7542 H 736.116 2.90946 0.706468 0
M  V30 7543 H 733.662 1.39968 0.338385 0
M  V30 7544 H 735.615 2.8089 3.14132 0
M  V30 7545 H 734.339 1.60176 2.84625 0
M  V30 7546 H 732.998 3.31179 1.57213 0
M  V30 7547 H 732.646 3.0103 4.02976 0
M  V30 7548 H 732.346 4.69478 3.53362 0
M  V30 7549 H 733.87 4.27067 4.36401 0
M  V30 7550 H 735.284 5.24588 2.31258 0
M  V30 7551 H 733.681 5.75349 1.70569 0
M  V30 7552 H 734.751 4.80409 0.65843 0
M  V30 7553 N 736.094 -0.359525 1.53444 0
M  V30 7554 C 737.041 -1.44073 1.8031 0
M  V30 7555 C 738.011 -1.52946 0.647811 0
M  V30 7556 O 739.196 -1.68739 0.890614 0
M  V30 7557 C 736.336 -2.80941 2.00416 0
M  V30 7558 C 735.449 -2.80986 3.28132 0
M  V30 7559 C 734.584 -4.09468 3.38393 0
M  V30 7560 C 733.623 -4.03679 4.60119 0
M  V30 7561 N 732.76 -5.23821 4.675 0
M  V30 7562 H 737.6 -1.20464 2.72566 0
M  V30 7563 H 735.137 -0.583859 1.35017 0
M  V30 7564 H 737.095 -3.60459 2.1006 0
M  V30 7565 H 735.725 -3.02936 1.11489 0
M  V30 7566 H 734.777 -1.93666 3.27411 0
M  V30 7567 H 736.089 -2.72583 4.17732 0
M  V30 7568 H 735.243 -4.97404 3.47382 0
M  V30 7569 H 733.982 -4.20632 2.4682 0
M  V30 7570 H 732.987 -3.14129 4.51224 0
M  V30 7571 H 734.212 -3.94112 5.5304 0
M  V30 7572 H 732.158 -5.35559 3.7883 0
M  V30 7573 H 732.075 -5.17611 5.51013 0
M  V30 7574 H 733.343 -6.13572 4.8078 0
M  V30 7575 N 737.572 -1.44907 -0.619662 0
M  V30 7576 C 738.535 -1.52282 -1.71297 0
M  V30 7577 C 739.535 -0.40359 -1.55653 0
M  V30 7578 O 740.725 -0.666638 -1.6094 0
M  V30 7579 C 737.857 -1.40778 -3.10474 0
M  V30 7580 H 739.05 -2.49683 -1.66128 0
M  V30 7581 H 736.603 -1.32168 -0.834339 0
M  V30 7582 H 737.338 -0.445156 -3.2123 0
M  V30 7583 H 737.123 -2.21947 -3.23237 0
M  V30 7584 H 738.613 -1.48946 -3.90135 0
M  V30 7585 N 739.05 0.861098 -1.31996 0
M  V30 7586 C 740.298 1.61162 -1.21947 0
M  V30 7587 C 740.619 1.93751 0.220351 0
M  V30 7588 O 739.889 1.59069 1.14341 0
M  V30 7589 H 738.469 0.597485 -0.448353 0
M  V30 7590 H 741.131 1.03039 -1.65436 0
M  V30 7591 H 740.227 2.55138 -1.79752 0
M  V30 7592 N 740.528 1.15101 1.07655 0
M  V30 7593 C 741.491 0.847625 2.12951 0
M  V30 7594 C 742.491 -0.151227 1.60087 0
M  V30 7595 O 743.681 0.0780399 1.74025 0
M  V30 7596 C 740.813 0.265 3.39868 0
M  V30 7597 H 742.006 1.7809 2.41296 0
M  V30 7598 H 739.559 0.958072 1.23494 0
M  V30 7599 H 740.294 -0.676625 3.17163 0
M  V30 7600 H 740.079 0.984554 3.79538 0
M  V30 7601 H 741.569 0.0702121 4.17541 0
M  V30 7602 N 742.006 -1.2595 0.947325 0
M  V30 7603 C 743.255 -1.92759 0.593887 0
M  V30 7604 C 743.568 -1.75083 -0.872093 0
M  V30 7605 O 744.774 -2.36401 -1.33518 0
M  V30 7606 C 743.23 -3.45395 1.01144 0
M  V30 7607 C 742.838 -3.71795 2.49946 0
M  V30 7608 C 744.582 -4.18173 0.730185 0
M  V30 7609 C 742.489 -5.17901 2.85539 0
M  V30 7610 H 741.419 -0.721676 0.218403 0
M  V30 7611 H 744.07 -1.4293 1.15079 0
M  V30 7612 H 742.452 -3.94143 0.383007 0
M  V30 7613 H 743.626 -3.33728 3.17746 0
M  V30 7614 H 741.941 -3.12263 2.75465 0
M  V30 7615 H 744.538 -5.25784 0.972367 0
M  V30 7616 H 744.881 -4.14964 -0.333223 0
M  V30 7617 H 745.414 -3.75309 1.31862 0
M  V30 7618 H 742.153 -5.26216 3.90867 0
M  V30 7619 H 741.673 -5.57042 2.22406 0
M  V30 7620 H 743.352 -5.8596 2.74336 0
M  V30 7621 N 743.484 -0.715051 -1.40445 0
M  V30 7622 C 744.714 -0.263576 -2.04912 0
M  V30 7623 C 745.122 1.09943 -1.53978 0
M  V30 7624 O 744.465 1.70203 -0.691133 0
M  V30 7625 C 744.527 -0.165048 -3.59121 0
M  V30 7626 C 744.191 -1.46325 -4.32941 0
M  V30 7627 C 745.188 -2.40506 -4.60926 0
M  V30 7628 C 742.873 -1.72203 -4.7186 0
M  V30 7629 C 744.867 -3.58812 -5.26814 0
M  V30 7630 C 742.554 -2.9079 -5.3748 0
M  V30 7631 C 743.552 -3.83917 -5.64887 0
M  V30 7632 O 743.24 -5.00424 -6.29151 0
M  V30 7633 H 742.972 -0.116317 -0.665918 0
M  V30 7634 H 745.526 -0.973774 -1.8085 0
M  V30 7635 H 743.756 0.601088 -3.82 0
M  V30 7636 H 745.445 0.251794 -4.05118 0
M  V30 7637 H 746.211 -2.21778 -4.31323 0
M  V30 7638 H 742.09 -1.00571 -4.49896 0
M  V30 7639 H 745.634 -4.31517 -5.48123 0
M  V30 7640 H 741.531 -3.09428 -5.66502 0
M  V30 7641 H 742.299 -5.00494 -6.47648 0
M  V30 7642 N 744.962 1.50701 -0.461195 0
M  V30 7643 C 746.208 2.02566 0.0973411 0
M  V30 7644 C 746.541 1.3432 1.40257 0
M  V30 7645 O 745.816 0.465692 1.88843 0
M  V30 7646 C 746.099 3.58919 0.291423 0
M  V30 7647 C 745.952 4.37751 -1.03413 0
M  V30 7648 C 747.271 4.27379 1.05048 0
M  V30 7649 H 744.39 0.73622 0.0339026 0
M  V30 7650 H 747.032 1.80115 -0.604855 0
M  V30 7651 H 745.182 3.78179 0.889539 0
M  V30 7652 H 746.854 4.30085 -1.66806 0
M  V30 7653 H 745.097 4.01885 -1.63313 0
M  V30 7654 H 745.768 5.45384 -0.852085 0
M  V30 7655 H 748.244 4.12534 0.543603 0
M  V30 7656 H 747.12 5.36609 1.15506 0
M  V30 7657 H 747.381 3.89868 2.0846 0
M  V30 7658 N 746.441 0.193421 1.56409 0
M  V30 7659 C 747.688 -0.445789 1.97532 0
M  V30 7660 C 748.016 -1.61744 1.08024 0
M  V30 7661 O 747.271 -1.95338 0.118982 0
M  V30 7662 C 747.57 -0.949718 3.44551 0
M  V30 7663 C 747.236 0.108383 4.5077 0
M  V30 7664 C 745.898 0.399126 4.79542 0
M  V30 7665 C 748.25 0.825423 5.14622 0
M  V30 7666 C 745.578 1.41192 5.69457 0
M  V30 7667 C 747.93 1.82735 6.05632 0
M  V30 7668 C 746.594 2.12531 6.32761 0
M  V30 7669 H 745.864 -0.163126 0.722822 0
M  V30 7670 H 748.511 0.290035 1.89291 0
M  V30 7671 H 746.816 -1.76378 3.49854 0
M  V30 7672 H 748.513 -1.45367 3.73724 0
M  V30 7673 H 745.103 -0.128392 4.28408 0
M  V30 7674 H 749.287 0.61403 4.92487 0
M  V30 7675 H 744.543 1.6487 5.88751 0
M  V30 7676 H 748.717 2.3882 6.5417 0
M  V30 7677 H 746.344 2.91155 7.02234 0
M  V30 7678 N 747.919 -1.57396 -0.0801906 0
M  V30 7679 C 748.851 -1.9982 -1.12271 0
M  V30 7680 C 749.864 -0.902902 -1.35468 0
M  V30 7681 O 751.053 -1.18088 -1.33856 0
M  V30 7682 C 748.153 -2.31476 -2.47532 0
M  V30 7683 C 747.326 -3.62745 -2.44407 0
M  V30 7684 C 746.385 -3.82168 -3.6171 0
M  V30 7685 O 745.411 -4.53852 -3.43522 0
M  V30 7686 N 746.613 -3.2388 -4.81749 0
M  V30 7687 H 749.378 -2.89864 -0.761501 0
M  V30 7688 H 746.939 -1.5965 -0.268965 0
M  V30 7689 H 748.931 -2.4165 -3.24634 0
M  V30 7690 H 747.501 -1.47364 -2.75686 0
M  V30 7691 H 746.721 -3.63403 -1.52747 0
M  V30 7692 H 748.009 -4.48954 -2.39412 0
M  V30 7693 H 747.407 -2.6568 -4.9943 0
M  V30 7694 H 745.964 -3.39515 -5.56392 0
M  V30 7695 N 749.397 0.351382 -1.53633 0
M  V30 7696 C 750.643 1.09411 -1.70754 0
M  V30 7697 C 750.976 1.88544 -0.465293 0
M  V30 7698 O 750.251 1.86923 0.537608 0
M  V30 7699 C 750.534 2.04173 -2.96623 0
M  V30 7700 C 750.387 1.28556 -4.31038 0
M  V30 7701 C 751.706 3.04102 -3.18136 0
M  V30 7702 H 748.825 0.396373 -0.621335 0
M  V30 7703 H 751.467 0.373464 -1.86293 0
M  V30 7704 H 749.617 2.65625 -2.83506 0
M  V30 7705 H 751.289 0.697786 -4.55992 0
M  V30 7706 H 749.532 0.587498 -4.29803 0
M  V30 7707 H 750.203 1.97989 -5.15271 0
M  V30 7708 H 752.679 2.5276 -3.30532 0
M  V30 7709 H 751.555 3.67616 -4.07615 0
M  V30 7710 H 751.816 3.75053 -2.34068 0
M  V30 7711 N 750.875 1.45233 0.611969 0
M  V30 7712 C 752.291 1.29542 0.932251 0
M  V30 7713 C 752.491 0.24523 2.00002 0
M  V30 7714 O 751.547 -0.362333 2.49887 0
M  V30 7715 C 752.86 2.67301 1.37733 0
M  V30 7716 C 754.408 2.75163 1.49178 0
M  V30 7717 C 754.883 4.13437 1.97064 0
M  V30 7718 N 756.374 4.15709 2.04304 0
M  V30 7719 C 757.109 5.19566 2.42568 0
M  V30 7720 N 756.605 6.33771 2.79832 0
M  V30 7721 N 758.398 5.06923 2.42869 0
M  V30 7722 H 750.549 2.12192 -0.0938679 0
M  V30 7723 H 752.812 0.947775 0.0206569 0
M  V30 7724 H 752.518 3.45318 0.666951 0
M  V30 7725 H 752.392 2.95472 2.3447 0
M  V30 7726 H 754.779 1.97453 2.19309 0
M  V30 7727 H 754.86 2.50712 0.507674 0
M  V30 7728 H 754.504 4.91631 1.27521 0
M  V30 7729 H 754.434 4.35277 2.9638 0
M  V30 7730 H 756.925 3.33293 1.78113 0
M  V30 7731 H 757.238 7.08815 3.07898 0
M  V30 7732 H 755.583 6.37179 2.77538 0
M  V30 7733 H 758.774 4.1675 2.1316 0
M  V30 7734 H 758.947 5.87981 2.72364 0
M  V30 7735 N 752.353 -0.854086 1.3245 0
M  V30 7736 C 753.316 -1.94427 1.21371 0
M  V30 7737 C 754.316 -1.60219 0.136613 0
M  V30 7738 O 755.506 -1.69846 0.387057 0
M  V30 7739 C 752.638 -3.29698 0.866701 0
M  V30 7740 H 753.831 -2.05679 2.18257 0
M  V30 7741 H 751.384 -1.04434 1.1629 0
M  V30 7742 H 752.119 -3.24145 -0.100319 0
M  V30 7743 H 751.904 -3.55903 1.64545 0
M  V30 7744 H 753.394 -4.09599 0.813515 0
M  V30 7745 N 753.831 -1.1567 -1.07043 0
M  V30 7746 C 755.247 -0.900006 -1.31803 0
M  V30 7747 C 755.447 0.451293 -1.96381 0
M  V30 7748 O 754.503 1.19252 -2.22565 0
M  V30 7749 C 755.816 -2.04334 -2.20609 0
M  V30 7750 C 757.364 -2.07823 -2.34048 0
M  V30 7751 C 757.839 -3.21488 -3.26204 0
M  V30 7752 N 759.33 -3.21156 -3.33786 0
M  V30 7753 C 760.065 -4.05746 -4.05163 0
M  V30 7754 N 759.561 -5.00407 -4.79129 0
M  V30 7755 N 761.354 -3.93759 -4.01136 0
M  V30 7756 H 753.505 -2.02681 -0.635146 0
M  V30 7757 H 755.768 -0.883956 -0.342528 0
M  V30 7758 H 755.474 -3.01895 -1.80423 0
M  V30 7759 H 755.348 -1.97838 -3.21154 0
M  V30 7760 H 757.735 -1.1086 -2.73485 0
M  V30 7761 H 757.816 -2.18386 -1.33197 0
M  V30 7762 H 757.46 -4.18706 -2.87485 0
M  V30 7763 H 757.39 -3.08162 -4.27017 0
M  V30 7764 H 759.881 -2.52606 -2.81067 0
M  V30 7765 H 760.194 -5.61387 -5.31097 0
M  V30 7766 H 758.539 -5.04393 -4.78135 0
M  V30 7767 H 761.73 -3.19115 -3.42466 0
M  V30 7768 H 761.903 -4.59906 -4.56498 0
M  V30 7769 N 755.309 1.25446 -0.953992 0
M  V30 7770 C 756.537 1.97215 -0.625595 0
M  V30 7771 C 756.952 1.70911 0.802168 0
M  V30 7772 O 756.309 0.984782 1.5365 0
M  V30 7773 C 756.36 3.50777 -0.873943 0
M  V30 7774 O 756.081 3.76173 -2.24556 0
M  V30 7775 C 757.582 4.39776 -0.557845 0
M  V30 7776 H 754.802 0.628652 -0.2346 0
M  V30 7777 H 757.346 1.59632 -1.27819 0
M  V30 7778 H 755.501 3.86474 -0.267765 0
M  V30 7779 H 755.915 4.70636 -2.31522 0
M  V30 7780 H 757.389 5.46431 -0.782157 0
M  V30 7781 H 757.866 4.36257 0.507573 0
M  V30 7782 H 758.472 4.09644 -1.14332 0
M  V30 7783 N 756.787 0.722489 1.40064 0
M  V30 7784 C 758.033 0.265371 2.01056 0
M  V30 7785 C 758.366 -1.14062 1.57174 0
M  V30 7786 O 757.641 -1.77514 0.794916 0
M  V30 7787 C 757.924 0.353157 3.58364 0
M  V30 7788 C 757.777 1.79802 4.123 0
M  V30 7789 C 759.096 -0.271677 4.39261 0
M  V30 7790 H 756.215 0.0979002 0.730469 0
M  V30 7791 H 758.857 0.916289 1.66446 0
M  V30 7792 H 757.007 -0.201037 3.87979 0
M  V30 7793 H 758.679 2.40813 3.93455 0
M  V30 7794 H 756.922 2.32348 3.66329 0
M  V30 7795 H 757.593 1.81079 5.21454 0
M  V30 7796 H 760.069 0.200607 4.15616 0
M  V30 7797 H 758.945 -0.179843 5.48605 0
M  V30 7798 H 759.206 -1.35611 4.20787 0
M  V30 7799 N 758.265 -1.50454 0.469181 0
M  V30 7800 C 759.228 -2.2703 -0.314643 0
M  V30 7801 C 760.228 -1.31734 -0.922111 0
M  V30 7802 O 761.418 -1.55176 -0.791588 0
M  V30 7803 C 758.55 -3.08616 -1.44806 0
M  V30 7804 H 759.743 -2.97769 0.356892 0
M  V30 7805 H 757.296 -1.54698 0.223191 0
M  V30 7806 H 758.031 -2.42369 -2.1547 0
M  V30 7807 H 757.816 -3.78647 -1.01829 0
M  V30 7808 H 759.306 -3.66536 -2.00103 0
M  V30 7809 N 759.743 -0.201713 -1.56304 0
M  V30 7810 C 760.991 0.434447 -1.97375 0
M  V30 7811 C 761.312 1.61692 -1.08998 0
M  V30 7812 O 760.582 1.95223 -0.162682 0
M  V30 7813 H 759.162 0.163497 -0.728888 0
M  V30 7814 H 761.824 -0.289988 -1.92731 0
M  V30 7815 H 760.92 0.774136 -3.02347 0
M  V30 7816 N 761.222 1.57436 0.0718424 0
M  V30 7817 C 762.452 1.91196 0.782795 0
M  V30 7818 C 762.86 0.795927 1.71644 0
M  V30 7819 O 762.203 -0.239604 1.82131 0
M  V30 7820 C 762.265 3.20421 1.63005 0
M  V30 7821 C 761.929 4.48724 0.865782 0
M  V30 7822 C 762.926 5.19571 0.185051 0
M  V30 7823 C 760.611 4.95345 0.832971 0
M  V30 7824 C 762.605 6.3529 -0.518264 0
M  V30 7825 C 760.292 6.1097 0.125884 0
M  V30 7826 C 761.29 6.80794 -0.548533 0
M  V30 7827 O 760.978 7.94213 -1.24423 0
M  V30 7828 H 760.71 0.636486 0.227731 0
M  V30 7829 H 763.264 2.05348 0.0464187 0
M  V30 7830 H 761.494 3.02478 2.40923 0
M  V30 7831 H 763.183 3.39831 2.21968 0
M  V30 7832 H 763.949 4.8458 0.201707 0
M  V30 7833 H 759.828 4.40871 1.34737 0
M  V30 7834 H 763.372 6.89725 -1.04523 0
M  V30 7835 H 759.269 6.45411 0.107155 0
M  V30 7836 H 760.037 8.10331 -1.1535 0
M  V30 7837 N 762.7 -0.34323 1.53817 0
M  V30 7838 C 763.948 -1.0813 1.70741 0
M  V30 7839 C 764.269 -1.89165 0.473461 0
M  V30 7840 O 763.539 -1.89075 -0.512605 0
M  V30 7841 H 762.119 -0.40219 0.629486 0
M  V30 7842 H 764.781 -0.384426 1.91071 0
M  V30 7843 H 763.877 -1.7585 2.57843 0
M  V30 7844 N 764.178 -1.45556 -0.604258 0
M  V30 7845 C 765.594 -1.30035 -0.925368 0
M  V30 7846 C 765.794 -0.255833 -1.99869 0
M  V30 7847 O 764.85 0.349076 -2.50075 0
M  V30 7848 C 766.163 -2.68028 -1.36314 0
M  V30 7849 C 767.711 -2.75951 -1.47717 0
M  V30 7850 C 768.186 -4.14476 -1.94868 0
M  V30 7851 N 769.677 -4.16787 -2.02097 0
M  V30 7852 C 770.412 -5.20845 -2.39809 0
M  V30 7853 N 769.908 -6.35246 -2.76467 0
M  V30 7854 N 771.701 -5.08204 -2.40177 0
M  V30 7855 H 763.852 -2.1214 0.10512 0
M  V30 7856 H 766.115 -0.947871 -0.0156303 0
M  V30 7857 H 765.821 -3.45667 -0.648628 0
M  V30 7858 H 765.695 -2.96711 -2.329 0
M  V30 7859 H 768.082 -1.98613 -2.18258 0
M  V30 7860 H 768.163 -2.50977 -0.494371 0
M  V30 7861 H 767.807 -4.923 -1.24912 0
M  V30 7862 H 767.737 -4.36843 -2.94068 0
M  V30 7863 H 770.228 -3.34233 -1.76343 0
M  V30 7864 H 770.541 -7.10438 -3.04134 0
M  V30 7865 H 768.886 -6.38642 -2.74155 0
M  V30 7866 H 772.077 -4.17874 -2.10947 0
M  V30 7867 H 772.25 -5.89417 -2.69242 0
M  V30 7868 N 765.656 0.84705 -1.32902 0
M  V30 7869 C 766.886 1.63166 -1.26729 0
M  V30 7870 C 767.294 1.88474 0.165595 0
M  V30 7871 O 766.637 1.45947 1.11558 0
M  V30 7872 C 766.699 3.0103 -1.96522 0
M  V30 7873 C 766.363 2.9873 -3.45846 0
M  V30 7874 C 767.36 2.75032 -4.41196 0
M  V30 7875 C 765.045 3.19125 -3.87898 0
M  V30 7876 C 767.039 2.71743 -5.76571 0
M  V30 7877 C 764.726 3.15462 -5.2338 0
M  V30 7878 C 765.724 2.91801 -6.17528 0
M  V30 7879 O 765.412 2.88027 -7.5053 0
M  V30 7880 H 765.144 0.51469 -0.438258 0
M  V30 7881 H 767.698 1.06383 -1.75704 0
M  V30 7882 H 765.928 3.59634 -1.42128 0
M  V30 7883 H 767.617 3.61821 -1.83958 0
M  V30 7884 H 768.383 2.59034 -4.10032 0
M  V30 7885 H 764.262 3.36565 -3.15032 0
M  V30 7886 H 767.806 2.53194 -6.5003 0
M  V30 7887 H 763.703 3.31006 -5.54171 0
M  V30 7888 H 764.471 3.03927 -7.59981 0
M  V30 7889 N 767.134 1.16236 1.06428 0
M  V30 7890 C 768.359 0.967688 1.83441 0
M  V30 7891 C 768.784 -0.479167 1.81894 0
M  V30 7892 O 768.142 -1.34224 1.21875 0
M  V30 7893 C 768.19 1.49806 3.2801 0
M  V30 7894 O 767.294 0.703481 4.06356 0
M  V30 7895 H 766.635 0.344468 0.56766 0
M  V30 7896 H 769.165 1.54442 1.34197 0
M  V30 7897 H 769.175 1.51495 3.78831 0
M  V30 7898 H 767.85 2.55133 3.2845 0
M  V30 7899 H 766.427 0.756986 3.65136 0
M  V30 7900 N 768.612 -1.24939 0.960631 0
M  V30 7901 C 769.86 -1.92437 0.617441 0
M  V30 7902 C 770.181 -1.75543 -0.849101 0
M  V30 7903 O 769.451 -1.12269 -1.60538 0
M  V30 7904 H 768.031 -0.712192 0.225371 0
M  V30 7905 H 770.693 -1.5198 1.22017 0
M  V30 7906 H 769.789 -3.00247 0.851933 0
M  V30 7907 N 770.09 -0.729906 -1.39679 0
M  V30 7908 C 771.037 -0.0866063 -2.30637 0
M  V30 7909 C 772.007 0.735115 -1.48947 0
M  V30 7910 O 773.192 0.696125 -1.77648 0
M  V30 7911 C 770.332 0.818524 -3.35252 0
M  V30 7912 C 769.445 -0.0152635 -4.31997 0
M  V30 7913 C 768.58 0.890669 -5.2368 0
M  V30 7914 C 767.619 0.0518246 -6.12078 0
M  V30 7915 N 766.756 0.913411 -6.96133 0
M  V30 7916 H 771.596 -0.867925 -2.85081 0
M  V30 7917 H 769.133 -0.439673 -1.40376 0
M  V30 7918 H 771.091 1.3577 -3.9449 0
M  V30 7919 H 769.721 1.56587 -2.82277 0
M  V30 7920 H 768.773 -0.671794 -3.74421 0
M  V30 7921 H 770.085 -0.664086 -4.9436 0
M  V30 7922 H 769.239 1.49787 -5.87919 0
M  V30 7923 H 767.978 1.57328 -4.61627 0
M  V30 7924 H 766.983 -0.568209 -5.46856 0
M  V30 7925 H 768.208 -0.627497 -6.76195 0
M  V30 7926 H 766.154 1.58141 -6.36653 0
M  V30 7927 H 766.071 0.320952 -7.55318 0
M  V30 7928 H 767.339 1.50633 -7.64807 0
M  V30 7929 N 771.568 1.50203 -0.477153 0
M  V30 7930 C 772.501 2.25343 0.359983 0
M  V30 7931 C 773.479 1.28909 0.991022 0
M  V30 7932 O 774.663 1.58146 1.02578 0
M  V30 7933 C 771.79 3.03431 1.5049 0
M  V30 7934 C 770.836 4.14836 0.99063 0
M  V30 7935 S 771.669 5.35407 -0.0995413 0
M  V30 7936 C 772.825 6.17045 1.04911 0
M  V30 7937 H 773.058 2.95999 -0.277836 0
M  V30 7938 H 770.591 1.52159 -0.262115 0
M  V30 7939 H 772.549 3.49012 2.16105 0
M  V30 7940 H 771.21 2.32289 2.11425 0
M  V30 7941 H 770.403 4.689 1.84794 0
M  V30 7942 H 770.005 3.71723 0.412097 0
M  V30 7943 H 772.297 6.48546 1.95946 0
M  V30 7944 H 773.24 7.05979 0.547596 0
M  V30 7945 H 773.648 5.49193 1.30567 0
M  V30 7946 N 773.046 0.209999 1.56195 0
M  V30 7947 C 774.276 -0.429373 2.02089 0
M  V30 7948 C 774.684 -1.54703 1.0892 0
M  V30 7949 O 774.027 -1.83485 0.0889535 0
M  V30 7950 C 774.089 -1.03266 3.44349 0
M  V30 7951 C 773.753 -0.0518873 4.56971 0
M  V30 7952 C 774.75 0.744249 5.14545 0
M  V30 7953 C 772.435 0.0635185 5.0226 0
M  V30 7954 C 774.429 1.64261 6.15871 0
M  V30 7955 C 772.116 0.965423 6.03426 0
M  V30 7956 C 773.114 1.75352 6.60106 0
M  V30 7957 O 772.802 2.64029 7.59305 0
M  V30 7958 H 772.534 -0.110604 0.66689 0
M  V30 7959 H 775.088 0.320436 2.02885 0
M  V30 7960 H 773.318 -1.83134 3.40586 0
M  V30 7961 H 775.007 -1.57823 3.73961 0
M  V30 7962 H 775.773 0.665476 4.80413 0
M  V30 7963 H 771.652 -0.539762 4.57829 0
M  V30 7964 H 775.196 2.25819 6.60039 0
M  V30 7965 H 771.093 1.04526 6.36981 0
M  V30 7966 H 771.861 2.57974 7.76783 0
M  V30 7967 N 774.524 -1.57472 -0.0634922 0
M  V30 7968 C 775.771 -1.87654 -0.761066 0
M  V30 7969 C 776.099 -0.802847 -1.77157 0
M  V30 7970 O 775.354 0.200244 -1.94673 0
M  V30 7971 C 775.653 -3.24521 -1.49736 0
M  V30 7972 C 775.319 -4.46532 -0.626065 0
M  V30 7973 C 773.981 -4.7965 -0.385978 0
M  V30 7974 C 776.333 -5.21195 -0.0224001 0
M  V30 7975 C 773.661 -5.84837 0.467118 0
M  V30 7976 C 776.013 -6.27286 0.818198 0
M  V30 7977 C 774.677 -6.58899 1.06808 0
M  V30 7978 H 773.947 -0.686675 -0.278494 0
M  V30 7979 H 776.594 -1.91488 -0.0216348 0
M  V30 7980 H 774.899 -3.16516 -2.30921 0
M  V30 7981 H 776.596 -3.45111 -2.04204 0
M  V30 7982 H 773.186 -4.20618 -0.823325 0
M  V30 7983 H 777.37 -4.95917 -0.194985 0
M  V30 7984 H 772.626 -6.07725 0.669375 0
M  V30 7985 H 776.8 -6.84298 1.29265 0
M  V30 7986 H 774.427 -7.40233 1.73088 0
M  V30 7987 N 776.003 0.335068 -1.53997 0
M  V30 7988 C 776.935 1.4327 -1.78903 0
M  V30 7989 C 777.948 1.48347 -0.670598 0
M  V30 7990 O 779.137 1.51277 -0.947494 0
M  V30 7991 C 776.237 2.81878 -1.88144 0
M  V30 7992 C 775.41 3.00141 -3.18174 0
M  V30 7993 C 774.469 4.19041 -3.18263 0
M  V30 7994 O 773.495 4.12751 -3.9195 0
M  V30 7995 N 774.697 5.28004 -2.41231 0
M  V30 7996 H 777.462 1.22272 -2.73623 0
M  V30 7997 H 775.023 0.524996 -1.53152 0
M  V30 7998 H 777.015 3.59609 -1.85644 0
M  V30 7999 H 775.585 2.9598 -1.00572 0
M  V30 8000 H 774.805 2.09808 -3.33728 0
M  V30 8001 H 776.093 3.0923 -4.04047 0
M  V30 8002 H 775.491 5.35986 -1.8093 0
M  V30 8003 H 774.048 6.04196 -2.44521 0
M  V30 8004 N 777.481 1.45874 0.596531 0
M  V30 8005 C 778.709 1.54013 1.38158 0
M  V30 8006 C 779.124 0.17648 1.87973 0
M  V30 8007 O 778.481 -0.823895 1.62844 0
M  V30 8008 C 778.532 2.53363 2.57855 0
M  V30 8009 O 778.253 3.8443 2.10108 0
M  V30 8010 C 779.754 2.71308 3.50581 0
M  V30 8011 H 776.974 0.521251 0.422538 0
M  V30 8012 H 779.518 1.9116 0.726493 0
M  V30 8013 H 777.673 2.19257 3.19382 0
M  V30 8014 H 778.087 4.38384 2.87958 0
M  V30 8015 H 779.561 3.44776 4.31084 0
M  V30 8016 H 780.038 1.77728 4.01633 0
M  V30 8017 H 780.644 3.06455 2.94899 0
M  V30 8018 N 778.959 -0.83999 1.33349 0
M  V30 8019 C 779.892 -1.95415 1.17848 0
M  V30 8020 C 780.87 -1.6243 0.0742296 0
M  V30 8021 O 782.054 -1.87014 0.23626 0
M  V30 8022 C 779.181 -3.28938 0.807295 0
M  V30 8023 C 778.227 -3.80895 1.91888 0
M  V30 8024 S 779.06 -4.02709 3.52967 0
M  V30 8025 C 780.216 -5.39185 3.17853 0
M  V30 8026 H 780.449 -2.08265 2.12162 0
M  V30 8027 H 777.982 -0.993643 1.18178 0
M  V30 8028 H 779.94 -4.06093 0.599914 0
M  V30 8029 H 778.601 -3.13881 -0.117234 0
M  V30 8030 H 777.794 -4.77508 1.6125 0
M  V30 8031 H 777.396 -3.10633 2.08286 0
M  V30 8032 H 779.688 -6.21978 2.68608 0
M  V30 8033 H 780.631 -5.74795 4.13542 0
M  V30 8034 H 781.039 -5.03885 2.5448 0
M  V30 8035 N 780.437 -1.16799 -1.0581 0
M  V30 8036 C 781.665 -0.97687 -1.82387 0
M  V30 8037 C 782.08 0.474917 -1.82729 0
M  V30 8038 O 781.437 1.3297 -1.25001 0
M  V30 8039 C 781.488 -1.50279 -3.28783 0
M  V30 8040 O 781.209 -2.89772 -3.28578 0
M  V30 8041 C 782.71 -1.35538 -4.22071 0
M  V30 8042 H 779.93 -0.345977 -0.574927 0
M  V30 8043 H 782.474 -1.54942 -1.33466 0
M  V30 8044 H 780.629 -0.972414 -3.74997 0
M  V30 8045 H 781.043 -3.13954 -4.20159 0
M  V30 8046 H 782.517 -1.7716 -5.22799 0
M  V30 8047 H 782.994 -0.301598 -4.38163 0
M  V30 8048 H 783.6 -1.87562 -3.81708 0
M  V30 8049 N 781.915 1.24427 -0.967243 0
M  V30 8050 C 782.825 2.29109 -0.504592 0
M  V30 8051 C 783.841 1.68495 0.434224 0
M  V30 8052 O 785.017 1.99041 0.307379 0
M  V30 8053 C 782.082 3.46133 0.198273 0
M  V30 8054 C 781.143 4.22149 -0.780313 0
M  V30 8055 C 780.376 5.33585 -0.110896 0
M  V30 8056 O 780.599 5.59676 1.10088 0
M  V30 8057 O 779.533 5.96522 -0.802823 0
M  V30 8058 H 783.359 2.708 -1.37482 0
M  V30 8059 H 780.944 1.30111 -0.73426 0
M  V30 8060 H 782.826 4.17205 0.593124 0
M  V30 8061 H 781.501 3.0642 1.04347 0
M  V30 8062 H 780.408 3.53454 -1.22561 0
M  V30 8063 H 781.741 4.65677 -1.59392 0
M  V30 8064 N 783.393 0.737304 1.3929 0
M  V30 8065 C 784.356 0.10731 2.28949 0
M  V30 8066 C 785.356 -0.664716 1.46418 0
M  V30 8067 O 786.546 -0.493392 1.67067 0
M  V30 8068 C 783.678 -0.857145 3.29948 0
M  V30 8069 H 784.871 0.89725 2.86163 0
M  V30 8070 H 782.424 0.503279 1.47976 0
M  V30 8071 H 783.159 -1.67336 2.77794 0
M  V30 8072 H 782.944 -0.306167 3.90903 0
M  V30 8073 H 784.434 -1.29444 3.97031 0
M  V30 8074 N 784.871 -1.49948 0.485112 0
M  V30 8075 C 785.781 -2.32587 -0.306697 0
M  V30 8076 C 786.797 -1.43598 -0.982632 0
M  V30 8077 O 787.973 -1.76638 -0.967519 0
M  V30 8078 C 785.038 -3.18638 -1.3664 0
M  V30 8079 C 784.099 -4.23462 -0.705589 0
M  V30 8080 C 783.332 -5.05401 -1.7148 0
M  V30 8081 O 783.555 -4.88618 -2.94293 0
M  V30 8082 O 782.489 -5.88157 -1.27889 0
M  V30 8083 H 786.315 -3.01447 0.369272 0
M  V30 8084 H 783.9 -1.47349 0.246709 0
M  V30 8085 H 785.782 -3.71992 -1.9799 0
M  V30 8086 H 784.457 -2.52491 -2.02559 0
M  V30 8087 H 783.364 -3.74063 -0.0527733 0
M  V30 8088 H 784.697 -4.92119 -0.0891187 0
M  V30 8089 N 786.349 -0.21828 -1.56081 0
M  V30 8090 C 787.579 0.41865 -2.02314 0
M  V30 8091 C 787.987 1.54124 -1.09739 0
M  V30 8092 O 787.33 1.83435 -0.0986829 0
M  V30 8093 C 787.392 1.01439 -3.44892 0
M  V30 8094 C 787.056 0.0276523 -4.56992 0
M  V30 8095 C 788.053 -0.771526 -5.14143 0
M  V30 8096 C 785.738 -0.0901537 -5.02219 0
M  V30 8097 C 787.732 -1.67525 -6.14991 0
M  V30 8098 C 785.419 -0.997411 -6.02905 0
M  V30 8099 C 786.417 -1.78851 -6.59167 0
M  V30 8100 O 786.105 -2.68052 -7.57894 0
M  V30 8101 H 785.837 0.107066 -0.667468 0
M  V30 8102 H 788.391 -0.331191 -2.02712 0
M  V30 8103 H 786.621 1.81326 -3.41552 0
M  V30 8104 H 788.31 1.55838 -3.74792 0
M  V30 8105 H 789.076 -0.690945 -4.80053 0
M  V30 8106 H 784.955 0.515474 -4.58109 0
M  V30 8107 H 788.499 -2.29316 -6.58832 0
M  V30 8108 H 784.396 -1.07902 -6.36418 0
M  V30 8109 H 785.164 -2.6209 -7.75404 0
M  V30 8110 N 787.827 1.57504 0.0551401 0
M  V30 8111 C 788.759 2.0158 1.09078 0
M  V30 8112 C 789.772 0.92434 1.34014 0
M  V30 8113 O 790.961 1.20202 1.31961 0
M  V30 8114 C 788.061 2.35385 2.43818 0
M  V30 8115 C 787.234 3.66588 2.38605 0
M  V30 8116 C 786.293 3.87874 3.55585 0
M  V30 8117 O 785.319 4.59259 3.36258 0
M  V30 8118 N 786.521 3.31503 4.76536 0
M  V30 8119 H 789.286 2.91039 0.71529 0
M  V30 8120 H 786.847 1.60058 0.243532 0
M  V30 8121 H 788.839 2.46784 3.20749 0
M  V30 8122 H 787.409 1.51731 2.73307 0
M  V30 8123 H 786.629 3.65787 1.46947 0
M  V30 8124 H 787.917 4.52706 2.32239 0
M  V30 8125 H 787.315 2.73592 4.9514 0
M  V30 8126 H 785.872 3.48324 5.50921 0
M  V30 8127 N 789.305 -0.326896 1.54172 0
M  V30 8128 C 790.533 -1.08486 1.76177 0
M  V30 8129 C 790.948 -1.81815 0.508788 0
M  V30 8130 O 790.305 -1.74924 -0.520362 0
M  V30 8131 C 790.356 -2.08552 2.95276 0
M  V30 8132 O 790.077 -1.38202 4.15731 0
M  V30 8133 C 791.578 -2.96593 3.29466 0
M  V30 8134 H 788.798 -0.322835 0.588233 0
M  V30 8135 H 791.342 -0.374036 2.0105 0
M  V30 8136 H 789.497 -2.75174 2.72687 0
M  V30 8137 H 789.911 -2.05186 4.827 0
M  V30 8138 H 791.385 -3.62708 4.16109 0
M  V30 8139 H 791.862 -3.63511 2.46487 0
M  V30 8140 H 792.468 -2.35537 3.54122 0
M  V30 8141 N 790.784 -1.46188 -0.588786 0
M  V30 8142 C 792.009 -1.5498 -1.37826 0
M  V30 8143 C 792.434 -0.189498 -1.87143 0
M  V30 8144 O 791.792 0.829293 -1.61222 0
M  V30 8145 C 791.84 -2.55369 -2.54596 0
M  V30 8146 O 790.944 -2.08452 -3.55839 0
M  V30 8147 H 790.285 -0.521741 -0.41071 0
M  V30 8148 H 792.815 -1.91708 -0.714779 0
M  V30 8149 H 792.825 -2.74782 -3.01594 0
M  V30 8150 H 791.5 -3.54155 -2.18052 0
M  V30 8151 H 790.077 -1.98999 -3.15363 0
M  V30 8152 N 792.262 0.832906 -1.33792 0
M  V30 8153 C 793.511 1.58351 -1.24932 0
M  V30 8154 C 793.824 1.94754 0.181703 0
M  V30 8155 O 795.03 2.6865 0.392375 0
M  V30 8156 C 793.486 2.85643 -2.18943 0
M  V30 8157 C 793.094 2.56581 -3.67247 0
M  V30 8158 C 794.838 3.63667 -2.18968 0
M  V30 8159 C 792.745 3.80006 -4.53155 0
M  V30 8160 H 791.675 0.594278 -0.464058 0
M  V30 8161 H 794.326 0.91786 -1.58895 0
M  V30 8162 H 792.708 3.53781 -1.77919 0
M  V30 8163 H 793.882 1.96617 -4.16747 0
M  V30 8164 H 792.197 1.91851 -3.6957 0
M  V30 8165 H 794.794 4.55293 -2.80379 0
M  V30 8166 H 795.137 3.99039 -1.18631 0
M  V30 8167 H 795.67 3.0246 -2.58384 0
M  V30 8168 H 792.409 3.4976 -5.5439 0
M  V30 8169 H 791.929 4.39288 -4.08395 0
M  V30 8170 H 793.608 4.47523 -4.6726 0
M  V30 8171 N 793.74 1.17359 1.05189 0
M  V30 8172 C 794.672 0.848078 2.12933 0
M  V30 8173 C 795.685 -0.149521 1.62112 0
M  V30 8174 O 796.874 0.0767797 1.78335 0
M  V30 8175 C 793.974 0.243889 3.38021 0
M  V30 8176 C 793.147 1.28436 4.18118 0
M  V30 8177 C 792.206 0.697926 5.21551 0
M  V30 8178 O 791.232 1.36973 5.52473 0
M  V30 8179 N 792.434 -0.510024 5.78255 0
M  V30 8180 H 795.199 1.7754 2.41453 0
M  V30 8181 H 792.76 1.07244 1.21286 0
M  V30 8182 H 794.752 -0.161727 4.04377 0
M  V30 8183 H 793.322 -0.58722 3.07035 0
M  V30 8184 H 792.542 1.86573 3.47252 0
M  V30 8185 H 793.83 1.98617 4.68432 0
M  V30 8186 H 793.228 -1.07378 5.55416 0
M  V30 8187 H 791.785 -0.857705 6.46132 0
M  V30 8188 N 795.218 -1.23913 0.973828 0
M  V30 8189 C 796.128 -2.28838 0.516735 0
M  V30 8190 C 797.144 -1.68723 -0.425282 0
M  V30 8191 O 798.32 -1.99201 -0.296819 0
M  V30 8192 C 795.385 -3.46233 -0.179914 0
M  V30 8193 C 794.446 -4.21729 0.80269 0
M  V30 8194 C 793.679 -5.33518 0.139191 0
M  V30 8195 O 793.902 -5.60252 -1.07118 0
M  V30 8196 O 792.836 -5.96088 0.834447 0
M  V30 8197 H 796.662 -2.70067 1.38916 0
M  V30 8198 H 794.247 -1.2972 0.74115 0
M  V30 8199 H 796.129 -4.17514 -0.570991 0
M  V30 8200 H 794.804 -3.06969 -1.02721 0
M  V30 8201 H 793.711 -3.52799 1.24434 0
M  V30 8202 H 795.044 -4.64825 1.61859 0
M  V30 8203 N 796.696 -0.74468 -1.38897 0
M  V30 8204 C 797.643 -0.111064 -2.30533 0
M  V30 8205 C 798.613 0.719276 -1.49719 0
M  V30 8206 O 799.798 0.677244 -1.78376 0
M  V30 8207 C 796.938 0.78292 -3.36102 0
M  V30 8208 C 796.051 -0.0610817 -4.31957 0
M  V30 8209 C 795.186 0.835075 -5.24595 0
M  V30 8210 C 794.225 -0.0130974 -6.12099 0
M  V30 8211 N 793.362 0.839525 -6.97063 0
M  V30 8212 H 798.202 -0.898113 -2.84144 0
M  V30 8213 H 795.739 -0.454537 -1.39901 0
M  V30 8214 H 797.697 1.31578 -3.95908 0
M  V30 8215 H 796.327 1.53585 -2.83922 0
M  V30 8216 H 795.379 -0.711469 -3.73687 0
M  V30 8217 H 796.691 -0.716482 -4.93627 0
M  V30 8218 H 795.845 1.43542 -5.89475 0
M  V30 8219 H 794.584 1.52423 -4.63269 0
M  V30 8220 H 793.589 -0.626179 -5.46223 0
M  V30 8221 H 794.814 -0.699181 -6.75491 0
M  V30 8222 H 792.76 1.5138 -6.38295 0
M  V30 8223 H 792.677 0.240823 -7.55616 0
M  V30 8224 H 793.945 1.42513 -7.66362 0
M  V30 8225 N 798.174 1.49689 -0.493057 0
M  V30 8226 C 799.104 2.31826 0.279073 0
M  V30 8227 C 800.085 1.39733 0.969987 0
M  V30 8228 O 801.27 1.68646 0.962925 0
M  V30 8229 C 798.4 3.20046 1.34862 0
M  V30 8230 C 797.354 4.20869 0.77805 0
M  V30 8231 C 796.68 4.97971 1.94753 0
M  V30 8232 C 797.98 5.21813 -0.225543 0
M  V30 8233 H 799.674 2.96627 -0.406512 0
M  V30 8234 H 797.22 1.42647 -0.196943 0
M  V30 8235 H 799.173 3.76315 1.89645 0
M  V30 8236 H 797.897 2.53172 2.06328 0
M  V30 8237 H 796.556 3.65733 0.252036 0
M  V30 8238 H 796.204 4.27552 2.64969 0
M  V30 8239 H 795.904 5.66186 1.57187 0
M  V30 8240 H 797.428 5.57082 2.49984 0
M  V30 8241 H 798.842 5.72823 0.233864 0
M  V30 8242 H 797.239 5.97872 -0.516622 0
M  V30 8243 H 798.309 4.71209 -1.14412 0
M  V30 8244 N 799.652 0.226554 1.55963 0
M  V30 8245 C 801.063 -0.280381 1.84583 0
M  V30 8246 C 801.414 -1.59105 1.14804 0
M  V30 8247 O 800.539 -2.12297 0.419414 0
M  V30 8248 C 801.134 -0.515499 3.34855 0
M  V30 8249 C 799.693 -0.966733 3.63774 0
M  V30 8250 C 798.84 -0.0325753 2.77281 0
M  V30 8251 H 801.791 0.449626 1.52197 0
M  V30 8252 H 801.812 -1.36085 3.55332 0
M  V30 8253 H 801.324 0.438594 3.85614 0
M  V30 8254 H 799.425 -1.93401 3.18476 0
M  V30 8255 H 799.538 -0.837679 4.7172 0
M  V30 8256 H 797.902 -0.540279 2.48904 0
M  V30 8257 H 798.685 0.916524 3.30839 0
M  V30 8258 N 801.13 -1.57531 -0.0467866 0
M  V30 8259 C 802.06 -2.08425 -1.05268 0
M  V30 8260 C 803.041 -0.982941 -1.38825 0
M  V30 8261 O 804.226 -1.25716 -1.48018 0
M  V30 8262 C 801.356 -2.54897 -2.35891 0
M  V30 8263 C 800.31 -3.69132 -2.16623 0
M  V30 8264 C 799.636 -4.01747 -3.52851 0
M  V30 8265 C 800.936 -4.98243 -1.56689 0
M  V30 8266 H 802.63 -2.92716 -0.62908 0
M  V30 8267 H 800.176 -1.40816 -0.301156 0
M  V30 8268 H 802.129 -2.8912 -3.06574 0
M  V30 8269 H 800.853 -1.67666 -2.80278 0
M  V30 8270 H 799.512 -3.35231 -1.48377 0
M  V30 8271 H 799.16 -3.11608 -3.94853 0
M  V30 8272 H 798.86 -4.78681 -3.4079 0
M  V30 8273 H 800.384 -4.38487 -4.24925 0
M  V30 8274 H 801.798 -5.30535 -2.17268 0
M  V30 8275 H 800.195 -5.79669 -1.55255 0
M  V30 8276 H 801.265 -4.81986 -0.530827 0
M  V30 8277 N 802.608 0.318715 -1.54344 0
M  V30 8278 C 803.857 1.05363 -1.71993 0
M  V30 8279 C 804.17 1.89018 -0.503155 0
M  V30 8280 O 805.376 2.65639 -0.561085 0
M  V30 8281 C 803.832 1.92281 -3.0423 0
M  V30 8282 C 803.44 1.13715 -4.33328 0
M  V30 8283 C 805.184 2.65479 -3.31242 0
M  V30 8284 C 803.091 1.99806 -5.56625 0
M  V30 8285 H 802.021 0.397081 -0.64097 0
M  V30 8286 H 804.672 0.311598 -1.80835 0
M  V30 8287 H 803.054 2.70402 -2.89307 0
M  V30 8288 H 804.228 0.403305 -4.59032 0
M  V30 8289 H 802.543 0.521769 -4.13118 0
M  V30 8290 H 805.14 3.30209 -4.20555 0
M  V30 8291 H 805.483 3.33374 -2.49334 0
M  V30 8292 H 806.016 1.94417 -3.47054 0
M  V30 8293 H 802.755 1.36411 -6.41149 0
M  V30 8294 H 802.275 2.70911 -5.35133 0
M  V30 8295 H 803.954 2.58277 -5.93213 0
M  V30 8296 N 804.086 1.46499 0.581025 0
M  V30 8297 C 805.335 1.51162 1.3354 0
M  V30 8298 C 805.648 0.168433 1.94873 0
M  V30 8299 O 806.854 0.092883 2.71341 0
M  V30 8300 C 805.31 2.66362 2.42032 0
M  V30 8301 C 804.918 4.07109 1.86994 0
M  V30 8302 C 806.662 2.80297 3.188 0
M  V30 8303 C 804.569 5.13645 2.93125 0
M  V30 8304 H 803.499 0.562576 0.502021 0
M  V30 8305 H 806.15 1.72713 0.619863 0
M  V30 8306 H 804.532 2.38143 3.16392 0
M  V30 8307 H 805.706 4.45125 1.19166 0
M  V30 8308 H 804.021 3.97854 1.22887 0
M  V30 8309 H 806.618 3.5706 3.9801 0
M  V30 8310 H 806.961 1.87875 3.71495 0
M  V30 8311 H 807.494 3.0817 2.51547 0
M  V30 8312 H 804.233 6.07866 2.45315 0
M  V30 8313 H 803.753 4.80172 3.59437 0
M  V30 8314 H 805.432 5.39562 3.57046 0
M  V30 8315 N 805.565 -0.825799 1.34232 0
M  V30 8316 C 806.813 -1.57873 1.26177 0
M  V30 8317 C 807.134 -1.94267 -0.168904 0
M  V30 8318 O 806.404 -1.62045 -1.10084 0
M  V30 8319 H 804.984 -0.585388 0.464037 0
M  V30 8320 H 807.646 -0.986163 1.6811 0
M  V30 8321 H 806.742 -2.50283 1.86453 0
M  V30 8322 N 807.043 -1.17915 -1.04565 0
M  V30 8323 C 808.268 -0.996749 -1.81878 0
M  V30 8324 C 808.693 0.450169 -1.82634 0
M  V30 8325 O 808.051 1.32268 -1.23995 0
M  V30 8326 C 808.099 -1.55005 -3.25585 0
M  V30 8327 O 807.203 -0.76804 -4.05185 0
M  V30 8328 H 806.544 -0.353456 -0.562108 0
M  V30 8329 H 809.074 -1.56557 -1.31723 0
M  V30 8330 H 809.084 -1.57503 -3.76373 0
M  V30 8331 H 807.759 -2.60327 -3.2435 0
M  V30 8332 H 806.336 -0.81498 -3.63885 0
M  V30 8333 N 808.521 1.23394 -0.980386 0
M  V30 8334 C 809.746 1.96384 -0.666935 0
M  V30 8335 C 810.171 1.72087 0.759456 0
M  V30 8336 O 809.529 0.992328 1.51732 0
M  V30 8337 C 809.577 3.47499 -0.963177 0
M  V30 8338 O 808.681 4.12363 -0.0552051 0
M  V30 8339 H 808.022 0.614797 -0.250839 0
M  V30 8340 H 810.552 1.56831 -1.31398 0
M  V30 8341 H 810.562 3.97953 -0.899877 0
M  V30 8342 H 809.237 3.6451 -2.00264 0
M  V30 8343 H 807.814 3.72499 -0.172914 0
M  V30 8344 N 809.999 0.752036 1.385 0
M  V30 8345 C 810.962 0.131587 2.28822 0
M  V30 8346 C 811.962 -0.649149 1.47115 0
M  V30 8347 O 813.152 -0.475645 1.67581 0
M  V30 8348 C 810.284 -0.822101 3.30839 0
M  V30 8349 H 811.477 0.927551 2.85196 0
M  V30 8350 H 809.03 0.518945 1.47434 0
M  V30 8351 H 809.765 -1.6438 2.79553 0
M  V30 8352 H 809.55 -0.264689 3.91206 0
M  V30 8353 H 811.04 -1.25226 3.98382 0
M  V30 8354 N 811.477 -1.49425 0.500989 0
M  V30 8355 C 812.44 -2.27646 -0.266416 0
M  V30 8356 C 813.44 -1.3366 -0.893961 0
M  V30 8357 O 814.63 -1.5682 -0.758495 0
M  V30 8358 C 811.762 -3.11618 -1.38227 0
M  V30 8359 H 812.955 -2.96945 0.419973 0
M  V30 8360 H 810.508 -1.5419 0.255954 0
M  V30 8361 H 811.243 -2.46885 -2.10281 0
M  V30 8362 H 811.028 -3.80721 -0.937746 0
M  V30 8363 H 812.518 -3.70698 -1.92283 0
M  V30 8364 N 812.955 -0.234822 -1.55841 0
M  V30 8365 C 814.203 0.392483 -1.98252 0
M  V30 8366 C 814.524 1.59344 -1.12404 0
M  V30 8367 O 813.794 1.94834 -0.204055 0
M  V30 8368 H 812.374 0.147999 -0.732192 0
M  V30 8369 H 815.036 -0.330804 -1.92072 0
M  V30 8370 H 814.132 0.709829 -3.03921 0
M  V30 8371 N 814.433 1.57553 0.0384317 0
M  V30 8372 C 815.363 2.0898 1.04161 0
M  V30 8373 C 816.344 0.99029 1.38301 0
M  V30 8374 O 817.529 1.26499 1.47349 0
M  V30 8375 C 814.659 2.56145 2.34536 0
M  V30 8376 C 813.613 3.70275 2.14663 0
M  V30 8377 C 812.939 4.03612 3.50715 0
M  V30 8378 C 814.239 4.99067 1.54045 0
M  V30 8379 H 815.933 2.93046 0.613548 0
M  V30 8380 H 813.479 1.40973 0.293684 0
M  V30 8381 H 815.432 2.90741 3.05037 0
M  V30 8382 H 814.156 1.6915 2.79385 0
M  V30 8383 H 812.815 3.36013 1.46597 0
M  V30 8384 H 812.463 3.13698 3.93195 0
M  V30 8385 H 812.163 4.80482 3.38247 0
M  V30 8386 H 813.687 4.40735 4.22593 0
M  V30 8387 H 815.101 5.3168 2.14451 0
M  V30 8388 H 813.498 5.80484 1.52178 0
M  V30 8389 H 814.568 4.8226 0.505259 0
M  V30 8390 N 815.911 -0.310526 1.54511 0
M  V30 8391 C 817.157 -1.04846 1.73595 0
M  V30 8392 C 817.49 -1.87244 0.515118 0
M  V30 8393 O 816.765 -1.88282 -0.48786 0
M  V30 8394 C 817.048 -1.96237 3.01932 0
M  V30 8395 C 816.901 -1.17082 4.34295 0
M  V30 8396 C 818.22 -2.9556 3.26086 0
M  V30 8397 H 815.339 -0.37976 0.631626 0
M  V30 8398 H 817.981 -0.32394 1.87218 0
M  V30 8399 H 816.131 -2.58015 2.90449 0
M  V30 8400 H 817.803 -0.576643 4.57682 0
M  V30 8401 H 816.046 -0.473336 4.3121 0
M  V30 8402 H 816.717 -1.84257 5.20339 0
M  V30 8403 H 819.193 -2.43908 3.37117 0
M  V30 8404 H 818.069 -3.5668 4.17218 0
M  V30 8405 H 818.33 -3.68715 2.4393 0
M  V30 8406 N 817.389 -1.46805 -0.573248 0
M  V30 8407 C 818.636 -1.52604 -1.3311 0
M  V30 8408 C 818.964 -0.181633 -1.9365 0
M  V30 8409 O 818.219 0.823775 -1.77517 0
M  V30 8410 C 818.518 -2.58001 -2.47326 0
M  V30 8411 C 818.184 -4.01747 -2.04719 0
M  V30 8412 C 816.846 -4.40881 -1.92814 0
M  V30 8413 C 819.198 -4.92008 -1.71982 0
M  V30 8414 C 816.526 -5.68129 -1.46445 0
M  V30 8415 C 818.878 -6.19703 -1.27089 0
M  V30 8416 C 817.542 -6.57733 -1.13768 0
M  V30 8417 H 816.812 -0.558417 -0.487084 0
M  V30 8418 H 819.459 -1.80327 -0.644538 0
M  V30 8419 H 817.764 -2.23974 -3.2147 0
M  V30 8420 H 819.461 -2.59715 -3.05531 0
M  V30 8421 H 816.051 -3.70819 -2.14922 0
M  V30 8422 H 820.235 -4.62485 -1.8006 0
M  V30 8423 H 815.491 -5.96359 -1.34783 0
M  V30 8424 H 819.665 -6.89064 -1.00814 0
M  V30 8425 H 817.292 -7.56228 -0.776142 0
M  V30 8426 N 818.867 0.818669 -1.34668 0
M  V30 8427 C 819.797 1.94468 -1.29245 0
M  V30 8428 C 820.778 1.69257 -0.169101 0
M  V30 8429 O 821.963 1.90794 -0.362143 0
M  V30 8430 C 819.093 3.31001 -1.05145 0
M  V30 8431 C 818.047 3.70663 -2.13992 0
M  V30 8432 C 817.373 5.05226 -1.75074 0
M  V30 8433 C 818.673 3.82312 -3.55858 0
M  V30 8434 H 820.367 1.99263 -2.2346 0
M  V30 8435 H 817.913 0.957304 -1.07572 0
M  V30 8436 H 819.866 4.09364 -0.999949 0
M  V30 8437 H 818.59 3.26517 -0.0737312 0
M  V30 8438 H 817.249 2.94578 -2.18219 0
M  V30 8439 H 816.897 4.97233 -0.759518 0
M  V30 8440 H 816.597 5.32734 -2.47928 0
M  V30 8441 H 818.121 5.86042 -1.71427 0
M  V30 8442 H 819.535 4.50935 -3.5402 0
M  V30 8443 H 817.932 4.21278 -4.2737 0
M  V30 8444 H 819.002 2.84193 -3.9289 0
M  V30 8445 N 820.346 1.18468 1.03938 0
M  V30 8446 C 821.595 0.975193 1.76558 0
M  V30 8447 C 821.908 -0.495978 1.89207 0
M  V30 8448 O 823.114 -0.824009 2.58694 0
M  V30 8449 C 821.57 1.69579 3.17444 0
M  V30 8450 C 821.178 3.20636 3.12884 0
M  V30 8451 C 822.922 1.56917 3.94433 0
M  V30 8452 C 820.829 3.8533 4.48636 0
M  V30 8453 H 819.759 0.361244 0.66183 0
M  V30 8454 H 822.41 1.41854 1.16403 0
M  V30 8455 H 820.792 1.18022 3.78004 0
M  V30 8456 H 821.966 3.79228 2.61768 0
M  V30 8457 H 820.281 3.33454 2.49394 0
M  V30 8458 H 822.878 2.02611 4.94826 0
M  V30 8459 H 823.221 0.521638 4.13019 0
M  V30 8460 H 823.754 2.05762 3.40451 0
M  V30 8461 H 820.493 4.90136 4.35255 0
M  V30 8462 H 820.013 3.31526 4.99851 0
M  V30 8463 H 821.692 3.88269 5.17549 0
M  V30 8464 N 821.824 -1.22873 0.986916 0
M  V30 8465 C 822.787 -2.2281 0.537442 0
M  V30 8466 C 823.787 -1.56331 -0.37646 0
M  V30 8467 O 824.977 -1.73376 -0.169247 0
M  V30 8468 C 822.109 -3.40195 -0.219082 0
M  V30 8469 H 823.302 -2.64089 1.42116 0
M  V30 8470 H 820.855 -1.35819 0.773488 0
M  V30 8471 H 821.59 -3.04381 -1.11905 0
M  V30 8472 H 821.375 -3.89657 0.437026 0
M  V30 8473 H 822.865 -4.14326 -0.521926 0
M  V30 8474 N 823.302 -0.75937 -1.38099 0
M  V30 8475 C 824.548 -0.318584 -2.00282 0
M  V30 8476 C 824.881 1.09854 -1.60143 0
M  V30 8477 O 824.156 1.75344 -0.841702 0
M  V30 8478 C 824.439 -0.448047 -3.57302 0
M  V30 8479 C 824.292 -1.9067 -4.07388 0
M  V30 8480 C 825.611 0.155119 -4.39827 0
M  V30 8481 H 822.73 -0.117233 -0.727616 0
M  V30 8482 H 825.372 -0.960097 -1.63958 0
M  V30 8483 H 823.522 0.0981003 -3.88376 0
M  V30 8484 H 825.194 -2.5116 -3.86932 0
M  V30 8485 H 823.437 -2.41979 -3.6004 0
M  V30 8486 H 824.108 -1.94841 -5.1647 0
M  V30 8487 H 826.584 -0.31073 -4.14938 0
M  V30 8488 H 825.46 0.0343264 -5.48889 0
M  V30 8489 H 825.721 1.24407 -4.24235 0
M  V30 8490 N 824.78 1.49157 -0.508906 0
M  V30 8491 C 826.026 2.02773 0.0328469 0
M  V30 8492 C 826.359 1.38714 1.35912 0
M  V30 8493 O 825.634 0.525536 1.87266 0
M  V30 8494 C 825.917 3.59664 0.177088 0
M  V30 8495 C 825.77 4.34239 -1.17287 0
M  V30 8496 C 827.089 4.30505 0.913977 0
M  V30 8497 H 824.208 0.736926 0.0104631 0
M  V30 8498 H 826.85 1.781 -0.661851 0
M  V30 8499 H 825 3.80818 0.768774 0
M  V30 8500 H 826.672 4.24561 -1.80404 0
M  V30 8501 H 824.915 3.96486 -1.76016 0
M  V30 8502 H 825.586 5.42397 -1.02516 0
M  V30 8503 H 828.062 4.14054 0.412084 0
M  V30 8504 H 826.938 5.40012 0.983759 0
M  V30 8505 H 827.199 3.96302 1.95951 0
M  V30 8506 N 826.258 0.243083 1.55714 0
M  V30 8507 C 827.504 -0.383287 1.99145 0
M  V30 8508 C 827.837 -1.57868 1.13098 0
M  V30 8509 O 827.112 -1.93535 0.193509 0
M  V30 8510 C 827.395 -0.796879 3.51172 0
M  V30 8511 C 827.248 0.403642 4.47985 0
M  V30 8512 C 828.567 -1.64525 4.08191 0
M  V30 8513 H 825.686 -0.137843 0.723995 0
M  V30 8514 H 828.328 0.343631 1.86867 0
M  V30 8515 H 826.478 -1.41625 3.61766 0
M  V30 8516 H 828.15 1.04204 4.49376 0
M  V30 8517 H 826.393 1.04741 4.20965 0
M  V30 8518 H 827.064 0.0709794 5.51954 0
M  V30 8519 H 829.54 -1.12246 4.00674 0
M  V30 8520 H 828.416 -1.9035 5.14838 0
M  V30 8521 H 828.677 -2.61582 3.56409 0
M  V30 8522 N 827.736 -1.57571 -0.0300757 0
M  V30 8523 C 828.985 -1.88407 -0.720126 0
M  V30 8524 C 829.298 -0.841466 -1.76575 0
M  V30 8525 O 830.504 -1.03902 -2.50832 0
M  V30 8526 C 828.96 -3.34348 -1.33188 0
M  V30 8527 C 828.568 -4.46837 -0.32266 0
M  V30 8528 C 830.312 -3.74333 -2.00187 0
M  V30 8529 C 828.219 -5.83838 -0.942703 0
M  V30 8530 H 827.149 -0.702952 -0.272718 0
M  V30 8531 H 829.8 -1.83482 0.0255337 0
M  V30 8532 H 828.182 -3.34014 -2.12721 0
M  V30 8533 H 829.356 -4.58638 0.445887 0
M  V30 8534 H 827.671 -4.15678 0.245181 0
M  V30 8535 H 830.268 -4.74008 -2.47428 0
M  V30 8536 H 830.611 -3.06275 -2.81959 0
M  V30 8537 H 831.144 -3.76837 -1.2743 0
M  V30 8538 H 827.883 -6.55294 -0.164413 0
M  V30 8539 H 827.403 -5.75759 -1.68111 0
M  V30 8540 H 829.082 -6.30535 -1.45034 0
M  V30 8541 N 829.214 0.302327 -1.54673 0
M  V30 8542 C 830.177 1.35592 -1.8479 0
M  V30 8543 C 831.177 1.43743 -0.72073 0
M  V30 8544 O 832.367 1.43402 -0.989017 0
M  V30 8545 C 829.499 2.74091 -2.02699 0
M  V30 8546 H 830.692 1.10132 -2.78946 0
M  V30 8547 H 828.245 0.538926 -1.46715 0
M  V30 8548 H 828.98 3.04775 -1.10826 0
M  V30 8549 H 828.765 2.69565 -2.8474 0
M  V30 8550 H 830.255 3.50272 -2.27374 0
M  V30 8551 N 830.692 1.47107 0.565454 0
M  V30 8552 C 831.941 1.5257 1.31929 0
M  V30 8553 C 832.254 0.189092 1.94684 0
M  V30 8554 O 833.46 0.121657 2.71227 0
M  V30 8555 C 831.916 2.68914 2.39193 0
M  V30 8556 C 831.524 4.09069 1.82665 0
M  V30 8557 C 833.268 2.83663 3.1581 0
M  V30 8558 C 831.175 5.16726 2.87661 0
M  V30 8559 H 830.105 0.567869 0.496025 0
M  V30 8560 H 832.756 1.73361 0.60151 0
M  V30 8561 H 831.138 2.41486 3.13848 0
M  V30 8562 H 832.312 4.46364 1.14438 0
M  V30 8563 H 830.627 3.99135 1.1866 0
M  V30 8564 H 833.224 3.61261 3.94201 0
M  V30 8565 H 833.567 1.91804 3.69482 0
M  V30 8566 H 834.1 3.10821 2.48265 0
M  V30 8567 H 830.839 6.10433 2.38854 0
M  V30 8568 H 830.359 4.83957 3.54324 0
M  V30 8569 H 832.038 5.43319 3.51303 0
M  V30 8570 N 832.17 -0.811516 1.35101 0
M  V30 8571 C 833.416 -1.57068 1.28287 0
M  V30 8572 C 833.749 -1.93667 -0.143808 0
M  V30 8573 O 833.024 -1.60953 -1.09199 0
M  V30 8574 C 833.307 -2.86259 2.18466 0
M  V30 8575 C 833.16 -2.56168 3.69727 0
M  V30 8576 C 834.479 -3.87924 2.07852 0
M  V30 8577 H 831.598 -0.569869 0.467353 0
M  V30 8578 H 834.24 -0.934023 1.65457 0
M  V30 8579 H 832.39 -3.4059 1.86898 0
M  V30 8580 H 834.062 -2.08059 4.11715 0
M  V30 8581 H 832.305 -1.89436 3.90252 0
M  V30 8582 H 832.976 -3.48344 4.28206 0
M  V30 8583 H 835.452 -3.4298 2.35593 0
M  V30 8584 H 834.328 -4.76106 2.73157 0
M  V30 8585 H 834.589 -4.2923 1.05896 0
M  V30 8586 N 833.648 -1.19017 -1.03309 0
M  V30 8587 C 834.888 -1.00129 -1.78195 0
M  V30 8588 C 835.252 0.460236 -1.86402 0
M  V30 8589 O 836.453 0.768802 -2.57571 0
M  V30 8590 C 834.724 -1.64703 -3.17187 0
M  V30 8591 S 836.283 -1.60695 -4.08317 0
M  V30 8592 H 833.101 -0.359395 -0.613479 0
M  V30 8593 H 835.703 -1.51293 -1.23818 0
M  V30 8594 H 834.407 -2.70283 -3.08829 0
M  V30 8595 H 833.938 -1.136 -3.76641 0
M  V30 8596 H 835.953 -0.628171 -4.92208 0
M  V30 8597 N 835.127 1.22348 -0.993418 0
M  V30 8598 C 836.075 2.26315 -0.537052 0
M  V30 8599 C 837.069 1.643 0.412545 0
M  V30 8600 O 838.275 1.77729 0.285008 0
M  V30 8601 H 834.65 0.735792 -0.155286 0
M  V30 8602 H 836.621 2.62157 -1.42535 0
M  V30 8603 C 835.37 3.47449 0.132118 0
M  V30 8604 H 834.693 3.9543 -0.589519 0
M  V30 8605 H 836.133 4.21965 0.414884 0
M  V30 8606 C 834.592 3.07893 1.36761 0
M  V30 8607 O 835.122 3.17338 2.46291 0
M  V30 8608 N 833.328 2.62672 1.24305 0
M  V30 8609 H 832.875 2.55186 0.351826 0
M  V30 8610 H 832.833 2.36574 2.07076 0
M  V30 8611 N 836.605 0.766683 1.37694 0
M  V30 8612 C 838.021 0.445739 1.53249 0
M  V30 8613 C 838.221 -1.03935 1.72626 0
M  V30 8614 O 837.277 -1.82525 1.74473 0
M  V30 8615 C 838.59 1.2564 2.73194 0
M  V30 8616 C 840.138 1.24779 2.87053 0
M  V30 8617 C 840.613 2.04169 4.09974 0
M  V30 8618 N 842.104 2.01497 4.17077 0
M  V30 8619 C 842.839 2.5971 5.11212 0
M  V30 8620 N 842.335 3.26691 6.10938 0
M  V30 8621 N 844.128 2.49568 5.03659 0
M  V30 8622 H 836.279 1.72899 1.23368 0
M  V30 8623 H 838.542 0.733701 0.600322 0
M  V30 8624 H 838.248 2.30859 2.65324 0
M  V30 8625 H 838.122 0.882133 3.6674 0
M  V30 8626 H 840.509 0.203603 2.94397 0
M  V30 8627 H 840.59 1.66166 1.9448 0
M  V30 8628 H 840.234 3.08606 4.03392 0
M  V30 8629 H 840.164 1.60167 5.01651 0
M  V30 8630 H 842.655 1.52728 3.45662 0
M  V30 8631 H 842.968 3.68497 6.79286 0
M  V30 8632 H 841.313 3.30789 6.11231 0
M  V30 8633 H 844.504 1.96859 4.24693 0
M  V30 8634 H 844.677 2.95231 5.76839 0
M  V30 8635 N 838.083 -1.48885 0.516809 0
M  V30 8636 C 839.499 -1.58651 0.173788 0
M  V30 8637 C 839.699 -1.52033 -1.32243 0
M  V30 8638 O 838.755 -1.40251 -2.09967 0
M  V30 8639 C 840.068 -2.90816 0.764628 0
M  V30 8640 C 841.616 -3.04316 0.732164 0
M  V30 8641 C 842.091 -4.39123 1.30135 0
M  V30 8642 N 843.582 -4.45656 1.26273 0
M  V30 8643 C 844.317 -5.48446 1.67317 0
M  V30 8644 N 843.813 -6.58258 2.16028 0
M  V30 8645 N 845.606 -5.39251 1.58635 0
M  V30 8646 H 837.757 -1.5143 1.48939 0
M  V30 8647 H 840.02 -0.718243 0.618733 0
M  V30 8648 H 839.726 -3.01275 1.81456 0
M  V30 8649 H 839.6 -3.76473 0.234113 0
M  V30 8650 H 841.987 -2.93478 -0.308975 0
M  V30 8651 H 842.068 -2.20303 1.3 0
M  V30 8652 H 841.712 -4.50714 2.34135 0
M  V30 8653 H 841.642 -5.21801 0.709305 0
M  V30 8654 H 844.133 -3.66879 0.906006 0
M  V30 8655 H 844.446 -7.32811 2.45374 0
M  V30 8656 H 842.791 -6.59257 2.20013 0
M  V30 8657 H 845.982 -4.52354 1.20387 0
M  V30 8658 H 846.155 -6.19229 1.90944 0
M  V30 8659 N 839.561 -0.251338 -1.55583 0
M  V30 8660 C 840.809 0.371434 -1.98657 0
M  V30 8661 C 841.13 1.58143 -1.14087 0
M  V30 8662 O 840.4 1.94607 -0.224708 0
M  V30 8663 H 838.98 0.140225 -0.733721 0
M  V30 8664 H 841.642 -0.351157 -1.9171 0
M  V30 8665 H 840.738 0.677554 -3.04657 0
M  V30 8666 N 841.039 1.57585 0.0217189 0
M  V30 8667 C 842.286 1.89606 0.711045 0
M  V30 8668 C 842.614 0.849535 1.74966 0
M  V30 8669 O 841.869 -0.14856 1.95135 0
M  V30 8670 C 842.168 3.28377 1.41079 0
M  V30 8671 C 841.834 4.48035 0.507454 0
M  V30 8672 C 840.496 4.80504 0.258672 0
M  V30 8673 C 842.848 5.21071 -0.115793 0
M  V30 8674 C 840.176 5.83393 -0.622013 0
M  V30 8675 C 842.528 6.24897 -0.984224 0
M  V30 8676 C 841.192 6.55836 -1.2424 0
M  V30 8677 H 840.462 0.693817 0.26019 0
M  V30 8678 H 843.109 1.91478 -0.0291424 0
M  V30 8679 H 841.414 3.22528 2.22448 0
M  V30 8680 H 843.111 3.50404 1.94982 0
M  V30 8681 H 839.701 4.22653 0.711516 0
M  V30 8682 H 843.885 4.96259 0.0634327 0
M  V30 8683 H 839.141 6.05736 -0.830267 0
M  V30 8684 H 843.315 6.8063 -1.47363 0
M  V30 8685 H 840.942 7.35383 -1.92653 0
M  V30 8686 N 842.517 -0.29412 1.54831 0
M  V30 8687 C 843.427 -1.3854 1.89325 0
M  V30 8688 C 844.443 -1.55127 0.788133 0
M  V30 8689 O 845.619 -1.6966 1.08524 0
M  V30 8690 C 842.684 -2.72809 2.13954 0
M  V30 8691 C 841.745 -2.65148 3.37631 0
M  V30 8692 C 840.978 -3.93014 3.61076 0
M  V30 8693 O 841.201 -4.927 2.87406 0
M  V30 8694 O 840.135 -3.94491 4.54599 0
M  V30 8695 H 843.961 -1.12289 2.82179 0
M  V30 8696 H 841.546 -0.490793 1.41108 0
M  V30 8697 H 843.428 -3.52238 2.31315 0
M  V30 8698 H 842.103 -2.9889 1.24285 0
M  V30 8699 H 841.01 -1.84168 3.25627 0
M  V30 8700 H 842.343 -2.4402 4.27452 0
M  V30 8701 N 843.995 -1.47404 -0.557645 0
M  V30 8702 C 845.411 -1.32913 -0.88353 0
M  V30 8703 C 845.611 -0.31929 -1.98954 0
M  V30 8704 O 844.667 0.26934 -2.51059 0
M  V30 8705 C 845.98 -2.72229 -1.27718 0
M  V30 8706 C 847.528 -2.8051 -1.38863 0
M  V30 8707 C 848.003 -4.20466 -1.81583 0
M  V30 8708 N 849.494 -4.23005 -1.88735 0
M  V30 8709 C 850.229 -5.2821 -2.23118 0
M  V30 8710 N 849.725 -6.4372 -2.56117 0
M  V30 8711 N 851.518 -5.15588 -2.23888 0
M  V30 8712 H 843.669 -2.11698 0.172557 0
M  V30 8713 H 845.932 -0.947889 0.0145334 0
M  V30 8714 H 845.638 -3.47556 -0.538329 0
M  V30 8715 H 845.512 -3.03971 -2.23342 0
M  V30 8716 H 847.899 -2.05457 -2.11829 0
M  V30 8717 H 847.98 -2.52423 -0.414274 0
M  V30 8718 H 847.624 -4.96025 -1.09187 0
M  V30 8719 H 847.554 -4.45977 -2.80021 0
M  V30 8720 H 850.045 -3.39674 -1.65621 0
M  V30 8721 H 850.358 -7.19754 -2.81378 0
M  V30 8722 H 848.703 -6.47041 -2.53698 0
M  V30 8723 H 851.894 -4.24374 -1.97546 0
M  V30 8724 H 852.067 -5.97685 -2.50353 0
M  V30 8725 N 845.473 0.80434 -1.35529 0
M  V30 8726 C 846.436 1.89788 -1.28503 0
M  V30 8727 C 847.436 1.59601 -0.195983 0
M  V30 8728 O 848.626 1.68292 -0.449827 0
M  V30 8729 C 845.758 3.26255 -0.98847 0
M  V30 8730 H 846.951 1.97436 -2.25741 0
M  V30 8731 H 844.504 1.00046 -1.20086 0
M  V30 8732 H 845.239 3.24294 -0.0200541 0
M  V30 8733 H 845.024 3.49551 -1.77641 0
M  V30 8734 H 846.514 4.06298 -0.964975 0
M  V30 8735 N 846.951 1.19563 1.02676 0
M  V30 8736 C 848.228 0.908857 1.73203 0
M  V30 8737 C 848.608 -0.584928 2.02834 0
M  V30 8738 O 847.956 -1.54372 1.68469 0
M  V30 8739 C 848.166 1.77105 3.00724 0
M  V30 8740 C 849.514 2.00667 3.7419 0
M  V30 8741 O 850.538 1.74274 3.10656 0
M  V30 8742 O 849.397 2.4518 4.88415 0
M  V30 8743 H 846.491 0.338909 0.754367 0
M  V30 8744 H 849.037 1.30387 1.08616 0
M  V30 8745 H 847.809 2.78303 2.7507 0
M  V30 8746 H 847.432 1.37546 3.73051 0
M  V30 8747 N 848.429 -1.21819 0.999893 0
M  V30 8748 C 849.654 -1.95298 0.698094 0
M  V30 8749 C 850.079 -1.73273 -0.731982 0
M  V30 8750 O 849.437 -1.01634 -1.50134 0
M  V30 8751 C 849.485 -3.45922 1.01834 0
M  V30 8752 O 848.589 -4.12223 0.120801 0
M  V30 8753 H 847.93 -0.610729 0.260588 0
M  V30 8754 H 850.46 -1.5472 1.33876 0
M  V30 8755 H 850.47 -3.96471 0.963074 0
M  V30 8756 H 849.145 -3.61278 2.06037 0
M  V30 8757 H 847.722 -3.72177 0.232153 0
M  V30 8758 N 849.908 -0.773975 -1.37286 0
M  V30 8759 C 850.818 -0.162571 -2.34036 0
M  V30 8760 C 851.834 0.677022 -1.60289 0
M  V30 8761 O 853.01 0.596423 -1.92366 0
M  V30 8762 C 850.075 0.70457 -3.39465 0
M  V30 8763 C 849.136 -0.151738 -4.29032 0
M  V30 8764 C 848.369 0.674111 -5.29426 0
M  V30 8765 O 848.592 1.91107 -5.37433 0
M  V30 8766 O 847.526 0.0821398 -6.01844 0
M  V30 8767 H 851.352 -0.962119 -2.88057 0
M  V30 8768 H 848.937 -0.53517 -1.39486 0
M  V30 8769 H 850.819 1.19954 -4.03967 0
M  V30 8770 H 849.494 1.48227 -2.87768 0
M  V30 8771 H 848.401 -0.693118 -3.67623 0
M  V30 8772 H 849.734 -0.892575 -4.84039 0
M  V30 8773 N 851.386 1.48609 -0.524698 0
M  V30 8774 C 852.616 2.06599 0.00741868 0
M  V30 8775 C 853.024 1.3823 1.29186 0
M  V30 8776 O 852.367 0.461962 1.77797 0
M  V30 8777 C 852.429 3.58184 0.307324 0
M  V30 8778 C 852.093 4.48391 -0.882864 0
M  V30 8779 C 853.09 4.88485 -1.77984 0
M  V30 8780 C 850.775 4.90367 -1.08837 0
M  V30 8781 C 852.769 5.69319 -2.86627 0
M  V30 8782 C 850.456 5.70972 -2.17794 0
M  V30 8783 C 851.454 6.10355 -3.06523 0
M  V30 8784 O 851.142 6.89343 -4.13596 0
M  V30 8785 H 850.874 0.675421 -0.0279846 0
M  V30 8786 H 853.428 1.92058 -0.7282 0
M  V30 8787 H 851.658 3.70818 1.09685 0
M  V30 8788 H 853.347 3.98318 0.780886 0
M  V30 8789 H 854.113 4.56682 -1.63299 0
M  V30 8790 H 849.992 4.592 -0.407035 0
M  V30 8791 H 853.536 5.99978 -3.55911 0
M  V30 8792 H 849.433 6.02188 -2.32465 0
M  V30 8793 H 850.201 7.07689 -4.1124 0
M  V30 8794 N 852.864 0.259585 1.55447 0
M  V30 8795 C 854.092 -0.365392 2.03648 0
M  V30 8796 C 854.507 -1.50613 1.13847 0
M  V30 8797 O 853.864 -1.81837 0.155414 0
M  V30 8798 C 853.915 -0.861172 3.51093 0
M  V30 8799 O 853.636 0.234121 4.37474 0
M  V30 8800 C 855.137 -1.55555 4.15111 0
M  V30 8801 H 852.357 -0.0853439 0.66555 0
M  V30 8802 H 854.901 0.387151 2.00802 0
M  V30 8803 H 853.056 -1.56385 3.54433 0
M  V30 8804 H 853.47 -0.1444 5.24301 0
M  V30 8805 H 854.944 -1.85403 5.19932 0
M  V30 8806 H 855.421 -2.48185 3.62355 0
M  V30 8807 H 856.027 -0.89712 4.15731 0
M  V30 8808 N 854.342 -1.57594 -0.0133615 0
M  V30 8809 C 855.619 -1.81173 -0.737273 0
M  V30 8810 C 855.999 -0.861395 -1.92726 0
M  V30 8811 O 855.347 0.0929324 -2.28311 0
M  V30 8812 C 855.557 -3.29314 -1.15557 0
M  V30 8813 C 856.905 -3.94707 -1.56498 0
M  V30 8814 O 857.929 -3.33557 -1.24973 0
M  V30 8815 O 856.788 -5.02402 -2.15069 0
M  V30 8816 H 853.882 -0.745575 -0.357837 0
M  V30 8817 H 856.428 -1.69696 0.0110674 0
M  V30 8818 H 855.2 -3.90096 -0.30677 0
M  V30 8819 H 854.823 -3.45739 -1.96343 0
M  V30 8820 N 855.82 0.285905 -1.54985 0
M  V30 8821 C 856.767 1.35306 -1.86978 0
M  V30 8822 C 857.737 1.49682 -0.720046 0
M  V30 8823 O 858.922 1.64297 -0.970107 0
M  V30 8824 C 856.062 2.71059 -2.13591 0
M  V30 8825 C 855.175 2.6501 -3.41165 0
M  V30 8826 C 854.31 3.92856 -3.57544 0
M  V30 8827 C 853.349 3.81266 -4.78855 0
M  V30 8828 N 852.486 5.00919 -4.9196 0
M  V30 8829 H 857.326 1.07323 -2.78003 0
M  V30 8830 H 854.863 0.518776 -1.37649 0
M  V30 8831 H 856.821 3.50026 -2.27019 0
M  V30 8832 H 855.451 2.97271 -1.25816 0
M  V30 8833 H 854.503 1.77824 -3.36278 0
M  V30 8834 H 855.815 2.52342 -4.30262 0
M  V30 8835 H 854.969 4.80263 -3.70718 0
M  V30 8836 H 853.708 4.08377 -2.66608 0
M  V30 8837 H 852.713 2.92243 -4.65698 0
M  V30 8838 H 853.938 3.67277 -5.71213 0
M  V30 8839 H 851.884 5.16875 -4.03951 0
M  V30 8840 H 851.801 4.90732 -5.75081 0
M  V30 8841 H 853.069 5.89935 -5.09507 0
M  V30 8842 N 857.298 1.47698 0.54982 0
M  V30 8843 C 858.228 1.63622 1.66583 0
M  V30 8844 C 859.209 0.485477 1.63025 0
M  V30 8845 O 860.394 0.715692 1.80531 0
M  V30 8846 C 857.524 1.65721 3.05211 0
M  V30 8847 C 856.478 2.80097 3.2362 0
M  V30 8848 C 855.804 2.67272 4.63109 0
M  V30 8849 C 857.104 4.21612 3.08286 0
M  V30 8850 H 858.798 2.57049 1.53512 0
M  V30 8851 H 856.344 1.23705 0.737099 0
M  V30 8852 H 858.297 1.75451 3.83138 0
M  V30 8853 H 857.021 0.688593 3.19258 0
M  V30 8854 H 855.68 2.69889 2.48104 0
M  V30 8855 H 855.328 1.68422 4.73965 0
M  V30 8856 H 855.028 3.44008 4.76374 0
M  V30 8857 H 856.552 2.78942 5.43161 0
M  V30 8858 H 857.966 4.32758 3.76024 0
M  V30 8859 H 856.363 4.99193 3.33057 0
M  V30 8860 H 857.433 4.39462 2.04942 0
M  V30 8861 N 858.776 -0.797141 1.35954 0
M  V30 8862 C 859.708 -1.91782 1.25509 0
M  V30 8863 C 860.721 -1.61843 0.176271 0
M  V30 8864 O 861.91 -1.73235 0.430343 0
M  V30 8865 C 859.01 -3.26396 0.912073 0
M  V30 8866 C 858.183 -3.84171 2.0912 0
M  V30 8867 C 857.242 -4.9721 1.72246 0
M  V30 8868 O 856.268 -5.14136 2.44239 0
M  V30 8869 N 857.47 -5.76831 0.651611 0
M  V30 8870 H 860.235 -2.01266 2.22063 0
M  V30 8871 H 857.796 -0.975033 1.29247 0
M  V30 8872 H 859.788 -3.99499 0.646707 0
M  V30 8873 H 858.358 -3.12579 0.0359079 0
M  V30 8874 H 857.578 -3.03148 2.51982 0
M  V30 8875 H 858.866 -4.19503 2.87914 0
M  V30 8876 H 858.264 -5.65675 0.0536678 0
M  V30 8877 H 856.821 -6.50272 0.44605 0
M  V30 8878 N 860.254 -1.20106 -1.0204 0
M  V30 8879 C 861.204 -0.914145 -2.08872 0
M  V30 8880 C 862.188 0.124503 -1.60418 0
M  V30 8881 O 863.38 -0.0823521 -1.76808 0
M  V30 8882 C 860.509 -0.463897 -3.40151 0
M  V30 8883 C 859.595 -1.53576 -3.95317 0
M  V30 8884 N 859.986 -2.75726 -4.24038 0
M  V30 8885 C 858.284 -1.40103 -4.23423 0
M  V30 8886 C 858.985 -3.44838 -4.68468 0
M  V30 8887 N 857.961 -2.72245 -4.70514 0
M  V30 8888 H 861.763 -1.8424 -2.28982 0
M  V30 8889 H 859.277 -1.0945 -1.19977 0
M  V30 8890 H 861.274 -0.239766 -4.1621 0
M  V30 8891 H 859.934 0.457779 -3.21457 0
M  V30 8892 H 860.945 -3.12412 -4.13061 0
M  V30 8893 H 857.622 -0.543472 -4.13948 0
M  V30 8894 H 859.012 -4.49342 -4.99541 0
M  V30 8895 N 861.732 1.21287 -1.00634 0
M  V30 8896 C 862.962 1.94103 -0.70765 0
M  V30 8897 C 863.37 1.74382 0.733991 0
M  V30 8898 O 862.713 1.04843 1.50843 0
M  V30 8899 C 862.775 3.46705 -0.950581 0
M  V30 8900 C 862.439 3.90176 -2.37932 0
M  V30 8901 C 863.436 3.96769 -3.35961 0
M  V30 8902 C 861.121 4.22453 -2.71733 0
M  V30 8903 C 863.115 4.35034 -4.65858 0
M  V30 8904 C 860.802 4.60394 -4.01846 0
M  V30 8905 C 861.8 4.66656 -4.9872 0
M  V30 8906 O 861.488 5.03732 -6.26505 0
M  V30 8907 H 861.22 0.62405 -0.259881 0
M  V30 8908 H 863.774 1.55015 -1.34757 0
M  V30 8909 H 862.004 3.85868 -0.253492 0
M  V30 8910 H 863.693 4.00741 -0.645069 0
M  V30 8911 H 864.459 3.72009 -3.11182 0
M  V30 8912 H 860.338 4.16776 -1.97025 0
M  V30 8913 H 863.882 4.39836 -5.4147 0
M  V30 8914 H 859.779 4.84609 -4.26409 0
M  V30 8915 H 860.547 5.21761 -6.30641 0
M  V30 8916 N 863.21 0.781244 1.36873 0
M  V30 8917 C 864.438 0.361566 2.03716 0
M  V30 8918 C 864.853 -1.01937 1.58916 0
M  V30 8919 O 864.21 -1.65237 0.774783 0
M  V30 8920 C 864.261 0.406391 3.59208 0
M  V30 8921 O 863.982 1.73286 4.02372 0
M  V30 8922 C 865.483 -0.0236894 4.43294 0
M  V30 8923 H 862.703 0.150133 0.653988 0
M  V30 8924 H 865.247 1.05781 1.75016 0
M  V30 8925 H 863.402 -0.241364 3.86647 0
M  V30 8926 H 863.816 1.67804 4.96933 0
M  V30 8927 H 865.29 0.0588205 5.51969 0
M  V30 8928 H 865.767 -1.07529 4.25833 0
M  V30 8929 H 866.373 0.59624 4.211 0
M  V30 8930 N 864.689 -1.48329 0.532571 0
M  V30 8931 C 865.914 -2.074 0.00147755 0
M  V30 8932 C 866.339 -1.38615 -1.27151 0
M  V30 8933 O 865.697 -0.452949 -1.75551 0
M  V30 8934 C 865.745 -3.60029 -0.202866 0
M  V30 8935 O 864.849 -3.92327 -1.27097 0
M  V30 8936 H 864.19 -0.662777 0.0402883 0
M  V30 8937 H 866.72 -1.90701 0.741224 0
M  V30 8938 H 866.73 -4.05783 -0.424722 0
M  V30 8939 H 865.405 -4.09496 0.727033 0
M  V30 8940 H 863.982 -3.58348 -1.03156 0
M  V30 8941 N 866.167 -0.267825 -1.55308 0
M  V30 8942 C 867.415 0.350343 -1.9904 0
M  V30 8943 C 867.736 1.56924 -1.15758 0
M  V30 8944 O 867.006 1.94358 -0.245336 0
M  V30 8945 H 865.586 0.132435 -0.735167 0
M  V30 8946 H 868.248 -0.371471 -1.91327 0
M  V30 8947 H 867.344 0.645203 -3.05358 0
M  V30 8948 N 867.645 1.57599 0.00500368 0
M  V30 8949 C 868.595 2.04585 1.00643 0
M  V30 8950 C 869.579 0.939622 1.30614 0
M  V30 8951 O 870.771 1.20342 1.29796 0
M  V30 8952 C 867.9 2.5486 2.30002 0
M  V30 8953 C 866.986 3.7235 2.03017 0
M  V30 8954 N 867.377 4.84218 1.46173 0
M  V30 8955 C 865.675 3.80185 2.33185 0
M  V30 8956 C 866.376 5.65688 1.35544 0
M  V30 8957 N 865.352 5.11536 1.83933 0
M  V30 8958 H 869.154 2.8849 0.561332 0
M  V30 8959 H 866.668 1.61026 0.210808 0
M  V30 8960 H 868.665 2.86794 3.0258 0
M  V30 8961 H 867.325 1.72372 2.75169 0
M  V30 8962 H 868.336 5.0517 1.1412 0
M  V30 8963 H 865.013 3.08543 2.81261 0
M  V30 8964 H 866.403 6.65588 0.918791 0
M  V30 8965 N 869.123 -0.277682 1.55134 0
M  V30 8966 C 870.056 -1.3685 1.82612 0
M  V30 8967 C 871.034 -1.47752 0.678833 0
M  V30 8968 O 872.218 -1.6445 0.921329 0
M  V30 8969 C 869.345 -2.74539 1.98359 0
M  V30 8970 C 868.391 -2.80945 3.20893 0
M  V30 8971 S 869.224 -2.40666 4.78373 0
M  V30 8972 C 870.38 -3.80338 4.97085 0
M  V30 8973 H 870.613 -1.13338 2.74849 0
M  V30 8974 H 868.146 -0.477063 1.46845 0
M  V30 8975 H 870.104 -3.53834 2.08115 0
M  V30 8976 H 868.765 -2.95306 1.07019 0
M  V30 8977 H 867.958 -3.81992 3.28783 0
M  V30 8978 H 867.56 -2.09667 3.09703 0
M  V30 8979 H 869.852 -4.75565 4.8254 0
M  V30 8980 H 870.795 -3.77403 5.99143 0
M  V30 8981 H 871.203 -3.71424 4.25094 0
M  V30 8982 N 870.601 -1.47988 -0.541979 0
M  V30 8983 C 871.829 -1.59034 -1.32347 0
M  V30 8984 C 872.244 -0.246123 -1.87189 0
M  V30 8985 O 871.601 0.762889 -1.6579 0
M  V30 8986 C 871.652 -2.62759 -2.48274 0
M  V30 8987 O 871.373 -3.91963 -1.95695 0
M  V30 8988 C 872.874 -2.84133 -3.4027 0
M  V30 8989 H 870.094 -0.536574 -0.402901 0
M  V30 8990 H 872.638 -1.93725 -0.655045 0
M  V30 8991 H 870.793 -2.3096 -3.11025 0
M  V30 8992 H 871.207 -4.48769 -2.7149 0
M  V30 8993 H 872.681 -3.60538 -4.17991 0
M  V30 8994 H 873.158 -1.92512 -3.9476 0
M  V30 8995 H 873.764 -3.17188 -2.83322 0
M  V30 8996 N 872.079 0.78992 -1.36375 0
M  V30 8997 C 873.49 1.36506 -1.2737 0
M  V30 8998 C 873.841 1.96008 0.086711 0
M  V30 8999 O 872.966 1.92521 0.988159 0
M  V30 9000 C 873.561 2.48175 -2.30639 0
M  V30 9001 C 872.12 3.01506 -2.25325 0
M  V30 9002 C 871.267 1.74581 -2.15445 0
M  V30 9003 H 874.218 0.591606 -1.47261 0
M  V30 9004 H 874.239 3.27179 -1.94253 0
M  V30 9005 H 873.751 2.04838 -3.2964 0
M  V30 9006 H 871.852 3.49265 -1.29788 0
M  V30 9007 H 871.965 3.58355 -3.17992 0
M  V30 9008 H 870.329 1.96794 -1.61692 0
M  V30 9009 H 871.112 1.33373 -3.16333 0
M  V30 9010 N 873.557 1.20646 1.01402 0
M  V30 9011 C 874.805 1.01618 1.74695 0
M  V30 9012 C 875.126 -0.452438 1.89679 0
M  V30 9013 O 874.396 -1.32693 1.44116 0
M  V30 9014 H 872.976 0.373013 0.647202 0
M  V30 9015 H 875.638 1.518 1.22241 0
M  V30 9016 H 874.734 1.47666 2.74957 0
M  V30 9017 N 875.035 -1.20752 1.01276 0
M  V30 9018 C 875.968 -2.22091 0.524472 0
M  V30 9019 C 876.946 -1.5692 -0.426017 0
M  V30 9020 O 878.13 -1.8528 -0.346919 0
M  V30 9021 C 875.257 -3.37868 -0.237224 0
M  V30 9022 C 874.303 -4.21327 0.662236 0
M  V30 9023 S 875.136 -4.91352 2.12916 0
M  V30 9024 C 876.292 -6.10553 1.37752 0
M  V30 9025 H 876.525 -2.63166 1.38315 0
M  V30 9026 H 874.058 -1.30742 0.821332 0
M  V30 9027 H 876.016 -4.04985 -0.670599 0
M  V30 9028 H 874.677 -2.95261 -1.07143 0
M  V30 9029 H 873.87 -5.03944 0.0751085 0
M  V30 9030 H 873.472 -3.59445 1.03322 0
M  V30 9031 H 875.764 -6.74322 0.655491 0
M  V30 9032 H 876.707 -6.73717 2.17969 0
M  V30 9033 H 877.115 -5.57566 0.882088 0
M  V30 9034 N 876.513 -0.788492 -1.36457 0
M  V30 9035 C 877.46 -0.18435 -2.30063 0
M  V30 9036 C 878.43 0.67128 -1.51931 0
M  V30 9037 O 879.615 0.620152 -1.8044 0
M  V30 9038 C 876.755 0.675596 -3.38422 0
M  V30 9039 C 875.868 -0.198475 -4.31544 0
M  V30 9040 C 875.003 0.667757 -5.26986 0
M  V30 9041 C 874.042 -0.207825 -6.11747 0
M  V30 9042 N 873.179 0.617335 -6.99381 0
M  V30 9043 H 878.019 -0.988056 -2.81143 0
M  V30 9044 H 875.556 -0.498815 -1.38384 0
M  V30 9045 H 877.514 1.18916 -3.99894 0
M  V30 9046 H 876.144 1.44474 -2.88664 0
M  V30 9047 H 875.196 -0.829995 -3.71235 0
M  V30 9048 H 876.508 -0.873163 -4.91098 0
M  V30 9049 H 875.662 1.24716 -5.93743 0
M  V30 9050 H 874.401 1.37607 -4.67884 0
M  V30 9051 H 873.406 -0.799638 -5.43954 0
M  V30 9052 H 874.631 -0.913729 -6.72925 0
M  V30 9053 H 872.577 1.30996 -6.42788 0
M  V30 9054 H 872.494 0.000307255 -7.56 0
M  V30 9055 H 873.762 1.1806 -7.70508 0
M  V30 9056 N 877.991 1.48044 -0.54043 0
M  V30 9057 C 879.24 2.01698 -0.00809961 0
M  V30 9058 C 879.553 1.42184 1.34325 0
M  V30 9059 O 880.759 1.87398 1.96454 0
M  V30 9060 C 879.215 3.59882 0.035933 0
M  V30 9061 C 878.823 4.28384 -1.31115 0
M  V30 9062 C 880.567 4.21346 0.51654 0
M  V30 9063 C 878.474 5.78529 -1.22714 0
M  V30 9064 H 877.404 0.754 0.000742174 0
M  V30 9065 H 880.055 1.70204 -0.685775 0
M  V30 9066 H 878.437 3.88264 0.778906 0
M  V30 9067 H 879.611 4.11663 -2.07051 0
M  V30 9068 H 877.926 3.78837 -1.72834 0
M  V30 9069 H 880.523 5.31351 0.597529 0
M  V30 9070 H 880.866 3.87373 1.52473 0
M  V30 9071 H 881.399 3.97432 -0.171064 0
M  V30 9072 H 878.138 6.17093 -2.21081 0
M  V30 9073 H 877.658 5.97634 -0.50931 0
M  V30 9074 H 879.337 6.40395 -0.92216 0
M  V30 9075 N 879.47 0.276058 1.55163 0
M  V30 9076 C 880.7 -0.343274 2.03728 0
M  V30 9077 C 881.108 -1.49945 1.15383 0
M  V30 9078 O 880.451 -1.82942 0.166696 0
M  V30 9079 C 880.513 -0.885683 3.48419 0
M  V30 9080 C 880.177 0.141976 4.56779 0
M  V30 9081 C 881.174 0.961816 5.10926 0
M  V30 9082 C 878.859 0.276487 5.01538 0
M  V30 9083 C 880.853 1.90234 6.0835 0
M  V30 9084 C 878.54 1.22049 5.98788 0
M  V30 9085 C 879.538 2.03192 6.52075 0
M  V30 9086 O 879.226 2.95996 7.47423 0
M  V30 9087 H 878.958 -0.0822192 0.670981 0
M  V30 9088 H 881.512 0.406199 2.01343 0
M  V30 9089 H 879.742 -1.68524 3.48047 0
M  V30 9090 H 881.431 -1.4182 3.80318 0
M  V30 9091 H 882.197 0.868637 4.77158 0
M  V30 9092 H 878.076 -0.345095 4.59707 0
M  V30 9093 H 881.62 2.5361 6.49867 0
M  V30 9094 H 877.517 1.31448 6.31974 0
M  V30 9095 H 878.285 2.90688 7.65142 0
M  V30 9096 N 880.948 -1.576 0.00335426 0
M  V30 9097 C 882.197 -1.89892 -0.680001 0
M  V30 9098 C 882.51 -0.878731 -1.7475 0
M  V30 9099 O 883.716 -1.09199 -2.48572 0
M  V30 9100 C 882.172 -3.37098 -1.26066 0
M  V30 9101 C 881.78 -4.4742 -0.227807 0
M  V30 9102 C 883.524 -3.78495 -1.92202 0
M  V30 9103 C 881.431 -5.85706 -0.81865 0
M  V30 9104 H 880.361 -0.708578 -0.257746 0
M  V30 9105 H 883.012 -1.83387 0.0644472 0
M  V30 9106 H 881.394 -3.38451 -2.05589 0
M  V30 9107 H 882.568 -4.57589 0.54307 0
M  V30 9108 H 880.883 -4.15064 0.333297 0
M  V30 9109 H 883.48 -4.7915 -2.37318 0
M  V30 9110 H 883.823 -3.12187 -2.75399 0
M  V30 9111 H 884.356 -3.79456 -1.19408 0
M  V30 9112 H 881.095 -6.55495 -0.0253787 0
M  V30 9113 H 880.615 -5.79196 -1.55861 0
M  V30 9114 H 882.294 -6.33469 -1.31627 0
M  V30 9115 N 882.426 0.269451 -1.5528 0
M  V30 9116 C 883.703 1.02207 -1.66773 0
M  V30 9117 C 884.083 2.04168 -0.536536 0
M  V30 9118 O 883.431 2.23761 0.462956 0
M  V30 9119 C 883.641 1.67569 -3.0614 0
M  V30 9120 C 884.989 2.18599 -3.64005 0
M  V30 9121 O 886.013 1.7755 -3.08795 0
M  V30 9122 O 884.872 2.93903 -4.60742 0
M  V30 9123 H 881.966 0.474314 -0.677462 0
M  V30 9124 H 884.512 0.265026 -1.67618 0
M  V30 9125 H 883.284 0.937029 -3.79915 0
M  V30 9126 H 882.907 2.49951 -3.09209 0
M  V30 9127 N 883.904 1.48273 0.534124 0
M  V30 9128 C 885.315 1.49667 1.1161 0
M  V30 9129 C 885.666 0.264139 1.94414 0
M  V30 9130 O 884.791 -0.629084 2.07054 0
M  V30 9131 C 885.386 2.71191 2.03079 0
M  V30 9132 C 883.945 2.7547 2.56502 0
M  V30 9133 C 883.092 2.43119 1.33373 0
M  V30 9134 H 886.043 1.55449 0.319578 0
M  V30 9135 H 886.064 2.49473 2.87304 0
M  V30 9136 H 885.576 3.60879 1.42785 0
M  V30 9137 H 883.677 1.89979 3.20529 0
M  V30 9138 H 883.79 3.76787 2.95919 0
M  V30 9139 H 882.154 1.94187 1.64813 0
M  V30 9140 H 882.937 3.35044 0.748375 0
M  V30 9141 N 885.382 -0.782676 1.36792 0
M  V30 9142 C 886.629 -1.54083 1.31395 0
M  V30 9143 C 886.957 -1.94217 -0.104797 0
M  V30 9144 O 886.212 -1.63491 -1.0756 0
M  V30 9145 C 886.511 -2.82542 2.18872 0
M  V30 9146 C 886.177 -2.61512 3.67317 0
M  V30 9147 C 884.839 -2.55486 4.07775 0
M  V30 9148 C 887.191 -2.42389 4.61407 0
M  V30 9149 C 884.519 -2.28311 5.40454 0
M  V30 9150 C 886.871 -2.1674 5.94312 0
M  V30 9151 C 885.535 -2.09151 6.33887 0
M  V30 9152 H 884.805 -0.563829 0.48081 0
M  V30 9153 H 887.452 -0.902436 1.68903 0
M  V30 9154 H 885.757 -3.50883 1.74323 0
M  V30 9155 H 887.454 -3.40367 2.12017 0
M  V30 9156 H 884.044 -2.67062 3.35225 0
M  V30 9157 H 888.228 -2.46043 4.31018 0
M  V30 9158 H 883.484 -2.20922 5.70091 0
M  V30 9159 H 887.658 -2.0094 6.6678 0
M  V30 9160 H 885.285 -1.87857 7.36623 0
M  V30 9161 N 886.86 -1.21182 -1.00761 0
M  V30 9162 C 888.088 -1.05335 -1.78079 0
M  V30 9163 C 888.503 0.396988 -1.84579 0
M  V30 9164 O 887.86 1.27548 -1.30529 0
M  V30 9165 C 887.911 -1.64089 -3.22113 0
M  V30 9166 O 887.632 -3.03448 -3.15992 0
M  V30 9167 C 889.133 -1.53318 -4.15943 0
M  V30 9168 H 886.353 -0.37005 -0.559736 0
M  V30 9169 H 888.897 -1.60463 -1.26775 0
M  V30 9170 H 887.052 -1.13059 -3.70535 0
M  V30 9171 H 887.466 -3.31492 -4.06465 0
M  V30 9172 H 888.94 -1.99174 -5.14814 0
M  V30 9173 H 889.417 -0.487166 -4.3649 0
M  V30 9174 H 890.023 -2.03582 -3.73409 0
M  V30 9175 N 888.338 1.20213 -1.01915 0
M  V30 9176 C 889.568 1.93341 -0.728197 0
M  V30 9177 C 889.976 1.75151 0.715454 0
M  V30 9178 O 889.319 1.06437 1.49722 0
M  V30 9179 C 889.381 3.45677 -0.9873 0
M  V30 9180 C 889.045 3.8763 -2.42057 0
M  V30 9181 C 890.042 3.93184 -3.40151 0
M  V30 9182 C 887.727 4.19547 -2.76199 0
M  V30 9183 C 889.721 4.30069 -4.70446 0
M  V30 9184 C 887.408 4.56106 -4.06707 0
M  V30 9185 C 888.406 4.6134 -5.03641 0
M  V30 9186 O 888.094 4.97059 -6.31813 0
M  V30 9187 H 887.826 0.621258 -0.266485 0
M  V30 9188 H 890.38 1.53577 -1.36393 0
M  V30 9189 H 888.61 3.85578 -0.294405 0
M  V30 9190 H 890.299 4.00035 -0.687536 0
M  V30 9191 H 891.065 3.68687 -3.15111 0
M  V30 9192 H 886.944 4.14663 -2.01434 0
M  V30 9193 H 890.488 4.34069 -5.46105 0
M  V30 9194 H 886.385 4.80059 -4.31525 0
M  V30 9195 H 887.153 5.15043 -6.36139 0
M  V30 9196 N 889.816 0.795718 1.36037 0
M  V30 9197 C 890.726 0.199784 2.33748 0
M  V30 9198 C 891.742 -0.651436 1.61345 0
M  V30 9199 O 892.918 -0.565743 1.93291 0
M  V30 9200 C 889.983 -0.650475 3.40543 0
M  V30 9201 C 889.044 0.219974 4.28736 0
M  V30 9202 C 888.277 -0.589798 5.30431 0
M  V30 9203 O 888.5 -1.82532 5.40406 0
M  V30 9204 O 887.434 0.0136187 6.01898 0
M  V30 9205 H 891.26 1.00782 2.8649 0
M  V30 9206 H 888.845 0.557293 1.38617 0
M  V30 9207 H 890.727 -1.13512 4.05824 0
M  V30 9208 H 889.402 -1.4363 2.9009 0
M  V30 9209 H 888.309 0.751516 3.66474 0
M  V30 9210 H 889.642 0.969468 4.82558 0
M  V30 9211 N 891.294 -1.47756 0.548274 0
M  V30 9212 C 892.571 -1.9555 -0.0443603 0
M  V30 9213 C 892.951 -1.49079 -1.49462 0
M  V30 9214 O 892.299 -0.725538 -2.16675 0
M  V30 9215 C 892.509 -3.48879 0.0918425 0
M  V30 9216 C 893.857 -4.2456 -0.0580879 0
M  V30 9217 O 894.881 -3.56195 0.018946 0
M  V30 9218 O 893.74 -5.46048 -0.222261 0
M  V30 9219 H 890.834 -0.824106 -0.0691235 0
M  V30 9220 H 893.38 -1.58196 0.614166 0
M  V30 9221 H 892.152 -3.7548 1.10137 0
M  V30 9222 H 891.775 -3.92975 -0.604704 0
M  V30 9223 N 892.772 -0.284283 -1.55015 0
M  V30 9224 C 894.183 0.211681 -1.85496 0
M  V30 9225 C 894.534 1.54735 -1.2063 0
M  V30 9226 O 893.659 2.10594 -0.497918 0
M  V30 9227 C 894.254 0.390864 -3.36538 0
M  V30 9228 C 892.813 0.831055 -3.67111 0
M  V30 9229 C 891.96 -0.0703581 -2.77211 0
M  V30 9230 H 894.911 -0.505803 -1.50424 0
M  V30 9231 H 894.932 1.22803 -3.60138 0
M  V30 9232 H 894.444 -0.581409 -3.8372 0
M  V30 9233 H 892.545 1.81447 -3.25434 0
M  V30 9234 H 892.658 0.662026 -4.74504 0
M  V30 9235 H 891.022 0.447528 -2.50737 0
M  V30 9236 H 891.805 -1.03868 -3.2721 0
M  V30 9237 N 894.251 1.57596 -0.0117121 0
M  V30 9238 C 895.199 2.1029 0.994035 0
M  V30 9239 C 896.193 1.02549 1.34833 0
M  V30 9240 O 897.399 1.21003 1.3326 0
M  V30 9241 H 893.774 0.671624 0.338268 0
M  V30 9242 H 895.745 2.93761 0.524147 0
M  V30 9243 C 894.494 2.63099 2.27319 0
M  V30 9244 H 893.817 3.45642 2.00927 0
M  V30 9245 H 895.257 3.03635 2.95942 0
M  V30 9246 C 893.716 1.55044 2.99104 0
M  V30 9247 O 894.246 0.940127 3.90544 0
M  V30 9248 N 892.452 1.27506 2.61133 0
M  V30 9249 H 891.999 1.77322 1.86855 0
M  V30 9250 H 891.957 0.554292 3.09475 0
M  V30 9251 N 895.729 -0.261212 1.5542 0
M  V30 9252 C 896.639 -1.34493 1.92221 0
M  V30 9253 C 897.655 -1.53421 0.82086 0
M  V30 9254 O 898.831 -1.6732 1.12099 0
M  V30 9255 C 895.896 -2.68209 2.19692 0
M  V30 9256 C 894.957 -2.57927 3.43179 0
M  V30 9257 C 894.19 -3.85266 3.69331 0
M  V30 9258 O 894.413 -4.86493 2.97793 0
M  V30 9259 O 893.347 -3.8476 4.62865 0
M  V30 9260 H 897.173 -1.06278 2.84497 0
M  V30 9261 H 894.758 -0.460752 1.42118 0
M  V30 9262 H 896.64 -3.47252 2.38734 0
M  V30 9263 H 895.315 -2.96186 1.30597 0
M  V30 9264 H 894.222 -1.77219 3.2946 0
M  V30 9265 H 895.555 -2.34898 4.32532 0
M  V30 9266 N 897.207 -1.48554 -0.526253 0
M  V30 9267 C 898.17 -1.62868 -1.61266 0
M  V30 9268 C 899.17 -0.501762 -1.52771 0
M  V30 9269 O 900.36 -0.76764 -1.56374 0
M  V30 9270 C 897.492 -1.60238 -3.00893 0
M  V30 9271 H 898.685 -2.59742 -1.49913 0
M  V30 9272 H 896.238 -1.37207 -0.748595 0
M  V30 9273 H 896.973 -0.648545 -3.17749 0
M  V30 9274 H 896.758 -2.42054 -3.08468 0
M  V30 9275 H 898.248 -1.73455 -3.79872 0
M  V30 9276 N 898.685 0.775411 -1.37205 0
M  V30 9277 C 899.931 1.53611 -1.32407 0
M  V30 9278 C 900.264 1.9398 0.0924103 0
M  V30 9279 O 899.539 1.63791 1.04893 0
M  V30 9280 C 899.822 2.80367 -2.25979 0
M  V30 9281 C 899.675 2.46275 -3.76389 0
M  V30 9282 C 900.994 3.82277 -2.18064 0
M  V30 9283 H 898.113 0.557278 -0.482297 0
M  V30 9284 H 900.755 0.889826 -1.67875 0
M  V30 9285 H 898.905 3.35515 -1.95862 0
M  V30 9286 H 900.577 1.9707 -4.17087 0
M  V30 9287 H 898.82 1.79023 -3.95137 0
M  V30 9288 H 899.491 3.36868 -4.37291 0
M  V30 9289 H 901.967 3.36613 -2.44604 0
M  V30 9290 H 900.843 4.68696 -2.85684 0
M  V30 9291 H 901.104 4.26272 -1.17239 0
M  V30 9292 N 900.163 1.21714 1.00117 0
M  V30 9293 C 901.579 0.97532 1.26332 0
M  V30 9294 C 901.779 -0.336029 1.98678 0
M  V30 9295 O 900.835 -1.06073 2.29139 0
M  V30 9296 C 902.148 2.16848 2.0832 0
M  V30 9297 C 903.696 2.21115 2.21533 0
M  V30 9298 C 904.171 3.3996 3.06906 0
M  V30 9299 N 905.662 3.40071 3.14494 0
M  V30 9300 C 906.397 4.28678 3.80818 0
M  V30 9301 N 905.893 5.2749 4.49139 0
M  V30 9302 N 907.686 4.16476 3.77497 0
M  V30 9303 H 899.837 2.06039 0.515897 0
M  V30 9304 H 902.1 0.902423 0.290408 0
M  V30 9305 H 901.806 3.119 1.62515 0
M  V30 9306 H 901.68 2.16226 3.09073 0
M  V30 9307 H 904.067 1.26616 2.66557 0
M  V30 9308 H 904.148 2.2578 1.20238 0
M  V30 9309 H 903.792 4.34755 2.62585 0
M  V30 9310 H 903.722 3.32534 4.08324 0
M  V30 9311 H 906.213 2.68563 2.65861 0
M  V30 9312 H 906.526 5.91397 4.97463 0
M  V30 9313 H 904.871 5.31412 4.47914 0
M  V30 9314 H 908.062 3.38539 3.23278 0
M  V30 9315 H 908.235 4.85739 4.28908 0
M  V30 9316 N 901.641 -1.19671 1.02551 0
M  V30 9317 C 902.551 -2.26441 0.613329 0
M  V30 9318 C 903.567 -1.70375 -0.353339 0
M  V30 9319 O 904.743 -2.0028 -0.212064 0
M  V30 9320 C 901.808 -3.46684 -0.0329028 0
M  V30 9321 C 900.869 -4.17945 0.980837 0
M  V30 9322 C 900.102 -5.32448 0.36535 0
M  V30 9323 O 900.325 -5.64291 -0.832596 0
M  V30 9324 O 899.259 -5.92012 1.08652 0
M  V30 9325 H 903.085 -2.63932 1.50246 0
M  V30 9326 H 900.67 -1.2646 0.795502 0
M  V30 9327 H 902.552 -4.1956 -0.393395 0
M  V30 9328 H 901.227 -3.1105 -0.896089 0
M  V30 9329 H 900.134 -3.47204 1.39286 0
M  V30 9330 H 901.467 -4.57542 1.81428 0
M  V30 9331 N 903.119 -0.802921 -1.35613 0
M  V30 9332 C 904.366 -0.381576 -1.98872 0
M  V30 9333 C 904.694 1.0503 -1.63704 0
M  V30 9334 O 903.949 1.7427 -0.890418 0
M  V30 9335 C 904.248 -0.507806 -3.53774 0
M  V30 9336 C 903.914 -1.90245 -4.088 0
M  V30 9337 C 902.576 -2.28401 -4.2354 0
M  V30 9338 C 904.928 -2.81504 -4.3864 0
M  V30 9339 C 902.256 -3.57192 -4.65436 0
M  V30 9340 C 904.608 -4.09737 -4.81973 0
M  V30 9341 C 903.272 -4.47897 -4.94919 0
M  V30 9342 H 902.542 -0.139629 -0.727726 0
M  V30 9343 H 905.189 -1.023 -1.61886 0
M  V30 9344 H 903.494 0.21708 -3.91198 0
M  V30 9345 H 905.191 -0.162625 -4.0067 0
M  V30 9346 H 901.781 -1.596 -3.97776 0
M  V30 9347 H 905.965 -2.53276 -4.26808 0
M  V30 9348 H 901.221 -3.86611 -4.73648 0
M  V30 9349 H 905.395 -4.80555 -5.04024 0
M  V30 9350 H 903.022 -5.47747 -5.27141 0
M  V30 9351 N 904.597 1.47463 -0.556102 0
M  V30 9352 C 905.56 2.28478 0.181743 0
M  V30 9353 C 906.56 1.36886 0.843738 0
M  V30 9354 O 907.75 1.59527 0.69977 0
M  V30 9355 C 904.882 3.16534 1.26566 0
M  V30 9356 H 906.075 2.95182 -0.529892 0
M  V30 9357 H 903.628 1.53134 -0.313005 0
M  V30 9358 H 904.363 2.5452 2.00973 0
M  V30 9359 H 904.148 3.83939 0.795798 0
M  V30 9360 H 905.638 3.77579 1.78393 0
M  V30 9361 N 906.075 0.2925 1.54862 0
M  V30 9362 C 907.022 -0.587365 2.23201 0
M  V30 9363 C 907.992 -1.13623 1.21157 0
M  V30 9364 O 909.177 -1.18233 1.49752 0
M  V30 9365 C 906.317 -1.75745 2.96998 0
M  V30 9366 C 905.43 -1.24078 4.13798 0
M  V30 9367 C 904.565 -2.37405 4.75197 0
M  V30 9368 C 903.604 -1.82829 5.84157 0
M  V30 9369 N 902.741 -2.89696 6.39547 0
M  V30 9370 H 907.581 0.00202207 2.98 0
M  V30 9371 H 905.118 0.012766 1.47094 0
M  V30 9372 H 907.076 -2.44549 3.38011 0
M  V30 9373 H 905.706 -2.3186 2.24591 0
M  V30 9374 H 904.758 -0.445268 3.77785 0
M  V30 9375 H 906.07 -0.801186 4.92324 0
M  V30 9376 H 905.224 -3.14172 5.19019 0
M  V30 9377 H 903.963 -2.84688 3.95985 0
M  V30 9378 H 902.968 -1.04548 5.39768 0
M  V30 9379 H 904.193 -1.36461 6.65248 0
M  V30 9380 H 902.139 -3.36328 5.63222 0
M  V30 9381 H 902.056 -2.50206 7.13395 0
M  V30 9382 H 903.324 -3.66386 6.88027 0
M  V30 9383 N 907.553 -1.57587 0.0200696 0
M  V30 9384 C 908.463 -2.13119 -0.980676 0
M  V30 9385 C 909.479 -1.08124 -1.36328 0
M  V30 9386 O 910.655 -1.40134 -1.44653 0
M  V30 9387 C 907.72 -2.63991 -2.24743 0
M  V30 9388 C 906.781 -3.83667 -1.9261 0
M  V30 9389 C 906.014 -4.32103 -3.13246 0
M  V30 9390 O 906.237 -3.79758 -4.25606 0
M  V30 9391 O 905.171 -5.24047 -2.96072 0
M  V30 9392 H 908.997 -2.98887 -0.538528 0
M  V30 9393 H 906.582 -1.48055 -0.19999 0
M  V30 9394 H 908.464 -2.9682 -2.99125 0
M  V30 9395 H 907.139 -1.81311 -2.68157 0
M  V30 9396 H 906.046 -3.55778 -1.15641 0
M  V30 9397 H 907.379 -4.67482 -1.54019 0
M  V30 9398 N 909.032 0.252966 -1.55557 0
M  V30 9399 C 910.281 0.979736 -1.76307 0
M  V30 9400 C 910.594 1.86714 -0.582871 0
M  V30 9401 O 911.8 2.6302 -0.673247 0
M  V30 9402 C 910.256 1.79205 -3.12112 0
M  V30 9403 C 909.864 0.952333 -4.37761 0
M  V30 9404 C 911.608 2.51191 -3.42203 0
M  V30 9405 C 909.515 1.76018 -5.64599 0
M  V30 9406 H 908.445 0.369538 -0.657235 0
M  V30 9407 H 911.096 0.234619 -1.81994 0
M  V30 9408 H 909.478 2.57888 -3.00515 0
M  V30 9409 H 910.652 0.208251 -4.60329 0
M  V30 9410 H 908.967 0.346082 -4.14959 0
M  V30 9411 H 911.564 3.12074 -4.34182 0
M  V30 9412 H 911.907 3.22499 -2.63249 0
M  V30 9413 H 912.44 1.79523 -3.54988 0
M  V30 9414 H 909.179 1.09095 -6.46358 0
M  V30 9415 H 908.699 2.4797 -5.46142 0
M  V30 9416 H 910.378 2.32884 -6.03634 0
M  V30 9417 N 910.51 1.48831 0.518367 0
M  V30 9418 C 911.787 1.47933 1.27966 0
M  V30 9419 C 912.167 0.197393 2.10175 0
M  V30 9420 O 911.515 -0.820656 2.13255 0
M  V30 9421 C 911.725 2.74816 2.15121 0
M  V30 9422 C 913.073 3.23613 2.74881 0
M  V30 9423 O 914.097 2.75814 2.254 0
M  V30 9424 O 912.956 4.06818 3.64913 0
M  V30 9425 H 910.05 0.591316 0.578164 0
M  V30 9426 H 912.596 1.61077 0.534065 0
M  V30 9427 H 911.368 3.59621 1.54234 0
M  V30 9428 H 910.991 2.64449 2.96905 0
M  V30 9429 N 911.988 -0.768124 1.37614 0
M  V30 9430 C 913.237 -1.5221 1.32345 0
M  V30 9431 C 913.55 -1.95399 -0.0885761 0
M  V30 9432 O 914.756 -2.70216 -0.263752 0
M  V30 9433 C 913.212 -2.74872 2.32322 0
M  V30 9434 C 912.82 -2.38767 3.79071 0
M  V30 9435 C 914.564 -3.52805 2.36069 0
M  V30 9436 C 912.471 -3.57953 4.7077 0
M  V30 9437 H 911.401 -0.571461 0.491883 0
M  V30 9438 H 914.052 -0.841004 1.63093 0
M  V30 9439 H 912.434 -3.44889 1.94596 0
M  V30 9440 H 913.608 -1.7651 4.25654 0
M  V30 9441 H 911.923 -1.74 3.78303 0
M  V30 9442 H 914.52 -4.41397 3.01782 0
M  V30 9443 H 914.863 -3.92925 1.37535 0
M  V30 9444 H 915.396 -2.89788 2.72521 0
M  V30 9445 H 912.135 -3.22911 5.70446 0
M  V30 9446 H 911.655 -4.19302 4.28889 0
M  V30 9447 H 913.334 -4.2472 4.8808 0
M  V30 9448 N 913.466 -1.22244 -0.994698 0
M  V30 9449 C 914.691 -1.07299 -1.77487 0
M  V30 9450 C 915.116 0.372302 -1.84379 0
M  V30 9451 O 914.474 1.2689 -1.29494 0
M  V30 9452 C 914.522 -1.68675 -3.18718 0
M  V30 9453 O 913.626 -0.939202 -4.01563 0
M  V30 9454 H 912.967 -0.376979 -0.546611 0
M  V30 9455 H 915.497 -1.62003 -1.24965 0
M  V30 9456 H 915.507 -1.73324 -3.69354 0
M  V30 9457 H 914.182 -2.73849 -3.13017 0
M  V30 9458 H 912.759 -0.968583 -3.60101 0
M  V30 9459 N 914.944 1.19125 -1.03184 0
M  V30 9460 C 916.184 1.90582 -0.738785 0
M  V30 9461 C 916.548 1.78004 0.719627 0
M  V30 9462 O 917.749 2.44084 1.12589 0
M  V30 9463 C 916.02 3.37319 -1.18114 0
M  V30 9464 S 917.579 4.26962 -1.01238 0
M  V30 9465 H 914.397 0.6582 -0.268875 0
M  V30 9466 H 916.999 1.43999 -1.32229 0
M  V30 9467 H 915.703 3.43999 -2.23814 0
M  V30 9468 H 915.234 3.88935 -0.591051 0
M  V30 9469 H 917.249 4.96143 0.0753558 0
M  V30 9470 N 916.422 0.810101 1.35185 0
M  V30 9471 C 917.668 0.392698 1.98962 0
M  V30 9472 C 918.001 -1.03835 1.64109 0
M  V30 9473 O 917.276 -1.721 0.9062 0
M  V30 9474 C 917.559 0.580349 3.55393 0
M  V30 9475 C 917.412 2.05658 4.00031 0
M  V30 9476 C 918.731 0.00822618 4.40099 0
M  V30 9477 H 915.85 0.144157 0.722764 0
M  V30 9478 H 918.492 1.02029 1.60281 0
M  V30 9479 H 916.642 0.0461106 3.88473 0
M  V30 9480 H 918.314 2.65348 3.77344 0
M  V30 9481 H 916.557 2.55174 3.50811 0
M  V30 9482 H 917.228 2.13875 5.08883 0
M  V30 9483 H 919.704 0.464517 4.13499 0
M  V30 9484 H 918.58 0.169414 5.48638 0
M  V30 9485 H 918.841 -1.08576 4.2856 0
M  V30 9486 N 917.9 -1.47166 0.563914 0
M  V30 9487 C 918.847 -2.30097 -0.180013 0
M  V30 9488 C 919.817 -1.39473 -0.902019 0
M  V30 9489 O 921.002 -1.68432 -0.896396 0
M  V30 9490 C 918.142 -3.23573 -1.19978 0
M  V30 9491 C 917.255 -4.2929 -0.483149 0
M  V30 9492 C 916.39 -5.0991 -1.48879 0
M  V30 9493 C 915.429 -6.07395 -0.757513 0
M  V30 9494 N 914.566 -6.8095 -1.71031 0
M  V30 9495 H 919.406 -2.93189 0.53329 0
M  V30 9496 H 916.943 -1.4451 0.274814 0
M  V30 9497 H 918.901 -3.76196 -1.80368 0
M  V30 9498 H 917.531 -2.6233 -1.88103 0
M  V30 9499 H 916.583 -3.79671 0.235414 0
M  V30 9500 H 917.895 -4.9872 0.0894075 0
M  V30 9501 H 917.049 -5.66717 -2.16603 0
M  V30 9502 H 915.788 -4.40397 -2.09527 0
M  V30 9503 H 914.793 -5.4976 -0.0663841 0
M  V30 9504 H 916.018 -6.78919 -0.156685 0
M  V30 9505 H 913.964 -6.14162 -2.30524 0
M  V30 9506 H 913.881 -7.46574 -1.19007 0
M  V30 9507 H 915.149 -7.42326 -2.37849 0
M  V30 9508 N 919.378 -0.300708 -1.54705 0
M  V30 9509 C 920.627 0.309428 -1.99312 0
M  V30 9510 C 920.94 1.55027 -1.19272 0
M  V30 9511 O 922.146 2.23498 -1.54146 0
M  V30 9512 C 920.602 0.601856 -3.54832 0
M  V30 9513 C 920.21 -0.620636 -4.4368 0
M  V30 9514 C 921.954 1.1732 -4.07966 0
M  V30 9515 C 919.861 -0.301376 -5.90632 0
M  V30 9516 H 918.791 0.119395 -0.744487 0
M  V30 9517 H 921.442 -0.409368 -1.78875 0
M  V30 9518 H 919.824 1.38024 -3.71168 0
M  V30 9519 H 920.998 -1.39685 -4.39118 0
M  V30 9520 H 919.313 -1.1106 -4.01316 0
M  V30 9521 H 921.91 1.42631 -5.15326 0
M  V30 9522 H 922.253 2.11537 -3.5855 0
M  V30 9523 H 922.786 0.456534 -3.95172 0
M  V30 9524 H 919.525 -1.21209 -6.44196 0
M  V30 9525 H 919.045 0.437574 -5.98202 0
M  V30 9526 H 920.724 0.097164 -6.46927 0
M  V30 9527 N 920.856 1.57574 -0.0284266 0
M  V30 9528 C 921.766 2.13637 0.96936 0
M  V30 9529 C 922.782 1.08845 1.35752 0
M  V30 9530 O 923.958 1.40899 1.43908 0
M  V30 9531 C 921.023 2.65179 2.2334 0
M  V30 9532 C 920.084 3.84683 1.90572 0
M  V30 9533 C 919.317 4.33758 3.1095 0
M  V30 9534 O 919.54 3.82009 4.23586 0
M  V30 9535 O 918.474 5.2561 2.93288 0
M  V30 9536 H 922.3 2.99169 0.52267 0
M  V30 9537 H 919.885 1.48159 0.192135 0
M  V30 9538 H 921.767 2.98402 2.97547 0
M  V30 9539 H 920.442 1.82731 2.67191 0
M  V30 9540 H 919.349 3.56386 1.13753 0
M  V30 9541 H 920.682 4.68292 1.51538 0
M  V30 9542 N 922.334 -0.244713 1.55689 0
M  V30 9543 C 923.266 -1.32595 1.86952 0
M  V30 9544 C 924.279 -1.44185 0.755948 0
M  V30 9545 O 925.468 -1.45496 1.03408 0
M  V30 9546 C 922.568 -2.70429 2.04258 0
M  V30 9547 C 921.741 -2.8108 3.35131 0
M  V30 9548 C 920.8 -3.99773 3.42152 0
M  V30 9549 O 919.826 -3.89197 4.15348 0
M  V30 9550 N 921.028 -5.13041 2.71604 0
M  V30 9551 H 923.793 -1.06111 2.80287 0
M  V30 9552 H 921.354 -0.434811 1.55952 0
M  V30 9553 H 923.346 -3.48173 2.06295 0
M  V30 9554 H 921.916 -2.89612 1.17658 0
M  V30 9555 H 921.136 -1.89994 3.45392 0
M  V30 9556 H 922.424 -2.85147 4.21389 0
M  V30 9557 H 921.822 -5.24525 2.11872 0
M  V30 9558 H 920.379 -5.88912 2.79331 0
M  V30 9559 N 923.813 -1.49104 -0.510467 0
M  V30 9560 C 925.059 -1.58346 -1.26705 0
M  V30 9561 C 925.392 -0.265121 -1.92382 0
M  V30 9562 O 924.667 0.730558 -1.80258 0
M  V30 9563 C 924.95 -2.7359 -2.34137 0
M  V30 9564 C 924.803 -4.1519 -1.73024 0
M  V30 9565 C 926.122 -2.84511 -3.3577 0
M  V30 9566 H 923.241 -0.57637 -0.459311 0
M  V30 9567 H 925.883 -1.81353 -0.566658 0
M  V30 9568 H 924.033 -2.54105 -2.93876 0
M  V30 9569 H 925.705 -4.46167 -1.17186 0
M  V30 9570 H 923.948 -4.21279 -1.03473 0
M  V30 9571 H 924.619 -4.91683 -2.50903 0
M  V30 9572 H 927.095 -3.0222 -2.86011 0
M  V30 9573 H 925.971 -3.6684 -4.08313 0
M  V30 9574 H 926.232 -1.93471 -3.97519 0
M  V30 9575 N 925.291 0.760815 -1.38019 0
M  V30 9576 C 926.54 1.51506 -1.3315 0
M  V30 9577 C 926.853 1.95444 0.0782124 0
M  V30 9578 O 928.059 2.70352 0.249418 0
M  V30 9579 C 926.515 2.73636 -2.33776 0
M  V30 9580 C 926.123 2.36753 -3.80332 0
M  V30 9581 C 927.867 3.51548 -2.37937 0
M  V30 9582 C 925.774 3.55451 -4.72661 0
M  V30 9583 H 924.704 0.568844 -0.494907 0
M  V30 9584 H 927.355 0.832343 -1.63537 0
M  V30 9585 H 925.737 3.43852 -1.96422 0
M  V30 9586 H 926.911 1.7425 -4.26584 0
M  V30 9587 H 925.226 1.71991 -3.7922 0
M  V30 9588 H 927.823 4.39791 -3.04119 0
M  V30 9589 H 928.166 3.9219 -1.39617 0
M  V30 9590 H 928.699 2.88339 -2.74054 0
M  V30 9591 H 925.438 3.19882 -5.7215 0
M  V30 9592 H 924.958 4.17022 -4.31107 0
M  V30 9593 H 926.637 4.22125 -4.90326 0
M  V30 9594 N 926.769 1.22769 0.988202 0
M  V30 9595 C 928.017 1.05301 1.725 0
M  V30 9596 C 928.338 -0.412103 1.90596 0
M  V30 9597 O 927.608 -1.29606 1.46898 0
M  V30 9598 H 926.188 0.386658 0.639144 0
M  V30 9599 H 928.85 1.54359 1.18993 0
M  V30 9600 H 927.946 1.53465 2.71763 0
M  V30 9601 N 928.247 -1.18576 1.03814 0
M  V30 9602 C 929.21 -2.2033 0.63146 0
M  V30 9603 C 930.21 -1.57787 -0.309816 0
M  V30 9604 O 931.4 -1.73938 -0.0955598 0
M  V30 9605 C 928.532 -3.40818 -0.0745963 0
M  V30 9606 H 929.725 -2.57824 1.53189 0
M  V30 9607 H 927.278 -1.32416 0.830398 0
M  V30 9608 H 928.013 -3.08853 -0.988947 0
M  V30 9609 H 927.798 -3.87453 0.6019 0
M  V30 9610 H 929.288 -4.16166 -0.345727 0
M  V30 9611 N 929.725 -0.817259 -1.34754 0
M  V30 9612 C 930.973 -0.401852 -1.98065 0
M  V30 9613 C 931.294 1.03718 -1.65129 0
M  V30 9614 O 930.564 1.71921 -0.939141 0
M  V30 9615 H 929.144 -0.145603 -0.732672 0
M  V30 9616 H 931.806 -1.04545 -1.64488 0
M  V30 9617 H 930.902 -0.516241 -3.07801 0
M  V30 9618 N 931.203 1.46865 -0.571711 0
M  V30 9619 C 932.113 2.33979 0.170571 0
M  V30 9620 C 933.129 1.49083 0.897239 0
M  V30 9621 O 934.305 1.81979 0.862888 0
M  V30 9622 C 931.37 3.26063 1.17831 0
M  V30 9623 C 930.431 4.26855 0.457499 0
M  V30 9624 C 929.664 5.14539 1.41722 0
M  V30 9625 O 929.887 5.04945 2.65305 0
M  V30 9626 O 928.821 5.94612 0.9338 0
M  V30 9627 H 932.647 2.98781 -0.544396 0
M  V30 9628 H 930.232 1.4566 -0.332198 0
M  V30 9629 H 932.114 3.82903 1.75965 0
M  V30 9630 H 930.789 2.63871 1.87493 0
M  V30 9631 H 929.696 3.73734 -0.165406 0
M  V30 9632 H 931.029 4.91802 -0.197953 0
M  V30 9633 N 932.681 0.308908 1.54543 0
M  V30 9634 C 933.928 -0.298036 2.00295 0
M  V30 9635 C 934.256 -1.53285 1.19724 0
M  V30 9636 O 933.511 -1.93917 0.263551 0
M  V30 9637 C 933.81 -0.691522 3.50646 0
M  V30 9638 C 933.476 0.442454 4.48724 0
M  V30 9639 C 932.138 0.753739 4.7526 0
M  V30 9640 C 934.49 1.20488 5.07082 0
M  V30 9641 C 931.818 1.83044 5.57415 0
M  V30 9642 C 934.17 2.27156 5.90409 0
M  V30 9643 C 932.834 2.58882 6.15253 0
M  V30 9644 H 932.104 -0.109059 0.73293 0
M  V30 9645 H 934.751 0.429647 1.86618 0
M  V30 9646 H 933.056 -1.49941 3.61974 0
M  V30 9647 H 934.753 -1.17244 3.83477 0
M  V30 9648 H 931.343 0.189744 4.2818 0
M  V30 9649 H 935.527 0.977653 4.86575 0
M  V30 9650 H 930.783 2.08088 5.749 0
M  V30 9651 H 934.957 2.86687 6.34652 0
M  V30 9652 H 932.584 3.42443 6.78702 0
M  V30 9653 N 934.159 -1.57557 0.0367827 0
M  V30 9654 C 935.407 -1.91735 -0.63892 0
M  V30 9655 C 935.728 -0.914515 -1.72226 0
M  V30 9656 O 934.998 0.0428248 -1.95853 0
M  V30 9657 H 933.578 -0.707738 -0.23899 0
M  V30 9658 H 936.24 -1.94708 0.0863931 0
M  V30 9659 H 935.336 -2.92568 -1.08676 0
M  V30 9660 N 935.637 0.236453 -1.55816 0
M  V30 9661 C 936.547 1.31418 -1.94336 0
M  V30 9662 C 937.563 1.52095 -0.845164 0
M  V30 9663 O 938.739 1.65515 -1.14746 0
M  V30 9664 C 935.804 2.6468 -2.23932 0
M  V30 9665 C 934.865 2.52435 -3.47239 0
M  V30 9666 C 934.098 3.79342 -3.75414 0
M  V30 9667 O 934.321 4.81694 -3.05495 0
M  V30 9668 O 933.255 3.77347 -4.68927 0
M  V30 9669 H 937.081 1.01739 -2.86152 0
M  V30 9670 H 934.666 0.438084 -1.42833 0
M  V30 9671 H 936.548 3.4341 -2.44228 0
M  V30 9672 H 935.223 2.94071 -1.35292 0
M  V30 9673 H 934.13 1.71955 -3.32238 0
M  V30 9674 H 935.463 2.27987 -4.36214 0
M  V30 9675 N 937.115 1.49373 0.502552 0
M  V30 9676 C 938.361 1.59016 1.25864 0
M  V30 9677 C 938.694 0.27532 1.92238 0
M  V30 9678 O 937.969 -0.720988 1.80643 0
M  V30 9679 C 938.252 2.74828 2.32683 0
M  V30 9680 C 938.105 4.16102 1.7082 0
M  V30 9681 C 939.424 2.86288 3.34256 0
M  V30 9682 H 936.543 0.578798 0.456248 0
M  V30 9683 H 939.185 1.81651 0.557032 0
M  V30 9684 H 937.335 2.5566 2.92524 0
M  V30 9685 H 939.007 4.46782 1.14818 0
M  V30 9686 H 937.25 4.21822 1.01238 0
M  V30 9687 H 937.921 4.93006 2.48292 0
M  V30 9688 H 940.397 3.03733 2.84404 0
M  V30 9689 H 939.273 3.69001 4.06362 0
M  V30 9690 H 939.534 1.95576 3.96488 0
M  V30 9691 N 938.594 -0.753485 1.38421 0
M  V30 9692 C 939.834 -1.52544 1.3605 0
M  V30 9693 C 940.198 -1.91937 -0.0493257 0
M  V30 9694 O 941.399 -2.6807 -0.197908 0
M  V30 9695 C 939.67 -2.74432 2.28958 0
M  V30 9696 S 941.229 -3.64297 2.44607 0
M  V30 9697 H 938.047 -0.522017 0.48272 0
M  V30 9698 H 940.649 -0.884503 1.74347 0
M  V30 9699 H 939.353 -2.43602 3.30282 0
M  V30 9700 H 938.884 -3.43471 1.91811 0
M  V30 9701 H 940.899 -4.67245 1.67022 0
M  V30 9702 N 940.072 -1.23292 -0.981677 0
M  V30 9703 C 941.297 -1.09176 -1.76339 0
M  V30 9704 C 941.722 0.352726 -1.84763 0
M  V30 9705 O 941.08 1.25509 -1.30832 0
M  V30 9706 C 941.128 -1.72046 -3.16911 0
M  V30 9707 O 940.232 -0.98174 -4.00544 0
M  V30 9708 H 939.573 -0.382755 -0.542581 0
M  V30 9709 H 942.103 -1.63319 -1.23239 0
M  V30 9710 H 942.113 -1.77232 -3.67495 0
M  V30 9711 H 940.788 -2.77154 -3.10095 0
M  V30 9712 H 939.365 -1.00672 -3.59054 0
M  V30 9713 N 941.55 1.18024 -1.04442 0
M  V30 9714 C 942.798 1.87727 -0.74854 0
M  V30 9715 C 943.119 1.80975 0.726156 0
M  V30 9716 O 942.389 1.23061 1.52423 0
M  V30 9717 H 940.969 0.694974 -0.273897 0
M  V30 9718 H 943.631 1.43213 -1.32197 0
M  V30 9719 H 942.727 2.93665 -1.05674 0
M  V30 9720 N 943.028 0.824394 1.34319 0
M  V30 9721 C 943.978 0.219624 2.2694 0
M  V30 9722 C 944.962 -0.616964 1.48601 0
M  V30 9723 O 946.154 -0.471303 1.7061 0
M  V30 9724 C 943.283 -0.616379 3.37721 0
M  V30 9725 C 942.369 0.230917 4.23471 0
M  V30 9726 N 942.76 1.30264 4.88738 0
M  V30 9727 C 941.058 0.0155016 4.45997 0
M  V30 9728 C 941.759 1.82141 5.52449 0
M  V30 9729 N 940.735 1.12508 5.3183 0
M  V30 9730 H 944.537 1.03939 2.74907 0
M  V30 9731 H 942.051 0.667353 1.48055 0
M  V30 9732 H 944.048 -1.06582 4.03046 0
M  V30 9733 H 942.708 -1.43429 2.91304 0
M  V30 9734 H 943.719 1.68545 4.89707 0
M  V30 9735 H 940.396 -0.770128 4.10336 0
M  V30 9736 H 941.786 2.7181 6.14466 0
M  V30 9737 N 944.506 -1.46559 0.579492 0
M  V30 9738 C 945.436 -2.33059 -0.143437 0
M  V30 9739 C 946.417 -1.4515 -0.886868 0
M  V30 9740 O 947.602 -1.73973 -0.862961 0
M  V30 9741 C 944.732 -3.27364 -1.15973 0
M  V30 9742 C 943.686 -4.24689 -0.531348 0
M  V30 9743 C 943.012 -5.08479 -1.65388 0
M  V30 9744 C 944.312 -5.1961 0.529391 0
M  V30 9745 H 946.006 -2.93753 0.578762 0
M  V30 9746 H 943.552 -1.41256 0.279775 0
M  V30 9747 H 945.505 -3.86732 -1.67382 0
M  V30 9748 H 944.229 -2.64771 -1.91217 0
M  V30 9749 H 942.888 -3.6658 -0.0383749 0
M  V30 9750 H 942.536 -4.42273 -2.3959 0
M  V30 9751 H 942.236 -5.74387 -1.23909 0
M  V30 9752 H 943.76 -5.70709 -2.17079 0
M  V30 9753 H 945.174 -5.73212 0.100506 0
M  V30 9754 H 943.571 -5.93843 0.86432 0
M  V30 9755 H 944.641 -4.63737 1.4169 0
M  V30 9756 N 945.984 -0.3171 -1.54377 0
M  V30 9757 C 946.931 0.551782 -2.24107 0
M  V30 9758 C 947.901 1.11681 -1.22949 0
M  V30 9759 O 949.086 1.15836 -1.51614 0
M  V30 9760 C 946.226 1.70997 -2.99756 0
M  V30 9761 C 945.339 1.17479 -4.15719 0
M  V30 9762 C 944.474 2.29815 -4.78914 0
M  V30 9763 C 943.513 1.73513 -5.86992 0
M  V30 9764 N 942.65 2.79485 -6.44075 0
M  V30 9765 H 947.49 -0.049431 -2.97959 0
M  V30 9766 H 945.027 -0.0361658 -1.47056 0
M  V30 9767 H 946.985 2.39141 -3.41859 0
M  V30 9768 H 945.615 2.28257 -2.28251 0
M  V30 9769 H 944.667 0.385109 -3.78446 0
M  V30 9770 H 945.979 0.72276 -4.93536 0
M  V30 9771 H 945.133 3.05875 -5.23952 0
M  V30 9772 H 943.872 2.78352 -4.00464 0
M  V30 9773 H 942.877 0.959475 -5.41363 0
M  V30 9774 H 944.102 1.2586 -6.67335 0
M  V30 9775 H 942.048 3.27325 -5.68502 0
M  V30 9776 H 941.965 2.38825 -7.17286 0
M  V30 9777 H 943.233 3.55394 -6.93769 0
M  V30 9778 N 947.462 1.57535 -0.0451378 0
M  V30 9779 C 948.392 2.14208 0.929372 0
M  V30 9780 C 949.373 1.06221 1.32858 0
M  V30 9781 O 950.558 1.34132 1.40436 0
M  V30 9782 C 947.688 2.68217 2.20629 0
M  V30 9783 C 946.642 3.81134 1.94734 0
M  V30 9784 C 945.968 4.21636 3.28828 0
M  V30 9785 C 947.268 5.06531 1.27374 0
M  V30 9786 H 948.962 2.95886 0.457348 0
M  V30 9787 H 946.508 1.42332 0.218544 0
M  V30 9788 H 948.461 3.06502 2.89196 0
M  V30 9789 H 947.185 1.83722 2.70026 0
M  V30 9790 H 945.844 3.43312 1.28579 0
M  V30 9791 H 945.492 3.34099 3.76014 0
M  V30 9792 H 945.192 4.97736 3.12302 0
M  V30 9793 H 946.716 4.62516 3.98637 0
M  V30 9794 H 948.13 5.423 1.85967 0
M  V30 9795 H 946.527 5.87735 1.21194 0
M  V30 9796 H 947.597 4.84261 0.248913 0
M  V30 9797 N 948.94 -0.228186 1.55939 0
M  V30 9798 C 950.351 -0.795734 1.68893 0
M  V30 9799 C 950.702 -1.85261 0.645967 0
M  V30 9800 O 949.827 -2.15434 -0.2042 0
M  V30 9801 C 950.422 -1.45013 3.06197 0
M  V30 9802 C 948.981 -1.96514 3.21028 0
M  V30 9803 C 948.128 -0.822918 2.64808 0
M  V30 9804 H 951.079 -0.0036485 1.587 0
M  V30 9805 H 951.1 -2.31875 3.01685 0
M  V30 9806 H 950.612 -0.680678 3.82084 0
M  V30 9807 H 948.713 -2.76282 2.49998 0
M  V30 9808 H 948.826 -2.14967 4.28166 0
M  V30 9809 H 947.19 -1.22846 2.23116 0
M  V30 9810 H 947.973 -0.0662493 3.43236 0
M  V30 9811 N 950.418 -1.49637 -0.494624 0
M  V30 9812 C 951.666 -1.5913 -1.24587 0
M  V30 9813 C 951.987 -0.282828 -1.92938 0
M  V30 9814 O 951.257 0.69825 -1.83034 0
M  V30 9815 H 949.837 -0.586329 -0.462847 0
M  V30 9816 H 952.499 -1.86296 -0.572696 0
M  V30 9817 H 951.595 -2.3906 -2.00641 0
M  V30 9818 N 951.896 0.746133 -1.38819 0
M  V30 9819 C 952.843 1.86001 -1.36647 0
M  V30 9820 C 953.813 1.6453 -0.227849 0
M  V30 9821 O 954.998 1.86092 -0.421241 0
M  V30 9822 C 952.138 3.23388 -1.20474 0
M  V30 9823 C 951.251 3.5664 -2.43786 0
M  V30 9824 C 950.386 4.8337 -2.20287 0
M  V30 9825 C 949.425 5.09431 -3.39332 0
M  V30 9826 N 948.562 6.2736 -3.1522 0
M  V30 9827 H 953.402 1.87192 -2.31869 0
M  V30 9828 H 950.939 0.914838 -1.15192 0
M  V30 9829 H 952.897 4.02679 -1.09112 0
M  V30 9830 H 951.527 3.21505 -0.288874 0
M  V30 9831 H 950.579 2.72135 -2.65794 0
M  V30 9832 H 951.891 3.71823 -3.3249 0
M  V30 9833 H 951.045 5.70619 -2.06103 0
M  V30 9834 H 949.784 4.70341 -1.28961 0
M  V30 9835 H 948.789 4.20648 -3.54027 0
M  V30 9836 H 950.014 5.24354 -4.31544 0
M  V30 9837 H 947.96 6.15639 -2.26549 0
M  V30 9838 H 947.877 6.43078 -3.97476 0
M  V30 9839 H 949.145 7.17477 -3.04707 0
M  V30 9840 N 953.375 1.23811 0.975125 0
M  V30 9841 C 954.791 1.0019 1.24234 0
M  V30 9842 C 954.991 -0.293811 1.99346 0
M  V30 9843 O 954.047 -1.01189 2.31337 0
M  V30 9844 C 955.36 2.21218 2.03674 0
M  V30 9845 C 956.908 2.25764 2.16793 0
M  V30 9846 C 957.383 3.46394 2.99626 0
M  V30 9847 N 958.874 3.46665 3.07209 0
M  V30 9848 C 959.609 4.3666 3.71639 0
M  V30 9849 N 959.105 5.36899 4.37849 0
M  V30 9850 N 960.898 4.2439 3.68578 0
M  V30 9851 H 953.049 2.07087 0.472076 0
M  V30 9852 H 955.312 0.90838 0.271201 0
M  V30 9853 H 955.018 3.15277 1.55862 0
M  V30 9854 H 954.892 2.22733 3.04417 0
M  V30 9855 H 957.279 1.32242 2.63811 0
M  V30 9856 H 957.36 2.28279 1.15422 0
M  V30 9857 H 957.004 4.40227 2.53304 0
M  V30 9858 H 956.934 3.41121 4.01178 0
M  V30 9859 H 959.425 2.74142 2.60105 0
M  V30 9860 H 959.738 6.01816 4.84807 0
M  V30 9861 H 958.083 5.40793 4.36541 0
M  V30 9862 H 961.274 3.4532 3.16025 0
M  V30 9863 H 961.447 4.94727 4.18508 0
M  V30 9864 N 954.853 -1.17469 1.05066 0
M  V30 9865 C 955.763 -2.25089 0.661222 0
M  V30 9866 C 956.779 -1.71086 -0.31712 0
M  V30 9867 O 957.955 -2.00685 -0.169534 0
M  V30 9868 C 955.02 -3.46676 0.0406415 0
M  V30 9869 C 954.081 -4.15771 1.06927 0
M  V30 9870 C 953.314 -5.31553 0.478208 0
M  V30 9871 O 953.537 -5.6593 -0.712714 0
M  V30 9872 O 952.471 -5.89574 1.21185 0
M  V30 9873 H 956.297 -2.60685 1.5581 0
M  V30 9874 H 953.882 -1.24744 0.822147 0
M  V30 9875 H 955.764 -4.203 -0.304312 0
M  V30 9876 H 954.439 -3.1288 -0.829909 0
M  V30 9877 H 953.346 -3.44171 1.46619 0
M  V30 9878 H 954.679 -4.53591 1.91092 0
M  V30 9879 N 956.331 -0.831506 -1.3388 0
M  V30 9880 C 957.58 -0.420028 -1.97278 0
M  V30 9881 C 957.893 1.02441 -1.66629 0
M  V30 9882 O 959.099 1.54021 -2.23584 0
M  V30 9883 C 957.555 -0.700116 -3.53025 0
M  V30 9884 C 957.163 -2.15874 -3.92559 0
M  V30 9885 C 958.907 -0.355226 -4.23011 0
M  V30 9886 C 956.814 -2.38327 -5.41252 0
M  V30 9887 H 955.744 -0.153326 -0.738246 0
M  V30 9888 H 958.395 -1.01906 -1.52602 0
M  V30 9889 H 956.777 -0.0308044 -3.95988 0
M  V30 9890 H 957.951 -2.86792 -3.60675 0
M  V30 9891 H 956.266 -2.4659 -3.35533 0
M  V30 9892 H 958.863 -0.500701 -5.32351 0
M  V30 9893 H 959.206 0.70111 -4.10354 0
M  V30 9894 H 959.739 -0.979466 -3.85553 0
M  V30 9895 H 956.478 -3.42498 -5.58906 0
M  V30 9896 H 955.998 -1.71962 -5.74621 0
M  V30 9897 H 957.677 -2.21113 -6.08045 0
M  V30 9898 N 957.809 1.4625 -0.587256 0
M  V30 9899 C 959.056 2.02363 -0.0745746 0
M  V30 9900 C 959.384 1.4582 1.28712 0
M  V30 9901 O 958.639 0.614922 1.85788 0
M  V30 9902 C 958.938 3.57382 0.036328 0
M  V30 9903 C 958.604 4.32985 -1.25837 0
M  V30 9904 C 957.266 4.53358 -1.61306 0
M  V30 9905 C 959.618 4.76361 -2.11494 0
M  V30 9906 C 956.946 5.14361 -2.82223 0
M  V30 9907 C 959.298 5.38699 -3.31641 0
M  V30 9908 C 957.962 5.57299 -3.67388 0
M  V30 9909 H 957.232 0.740497 -0.0272888 0
M  V30 9910 H 959.879 1.75565 -0.764804 0
M  V30 9911 H 958.184 3.83342 0.809712 0
M  V30 9912 H 959.881 3.9848 0.448838 0
M  V30 9913 H 956.471 4.17427 -0.972251 0
M  V30 9914 H 960.655 4.60372 -1.85394 0
M  V30 9915 H 955.911 5.26952 -3.10051 0
M  V30 9916 H 960.085 5.71267 -3.9828 0
M  V30 9917 H 957.712 6.04338 -4.61173 0
M  V30 9918 N 959.287 0.325282 1.54207 0
M  V30 9919 C 960.533 -0.277185 2.00897 0
M  V30 9920 C 960.866 -1.51651 1.21308 0
M  V30 9921 O 960.141 -1.92237 0.295825 0
M  V30 9922 C 960.424 -0.60961 3.54902 0
M  V30 9923 C 960.277 0.640542 4.45216 0
M  V30 9924 C 961.596 -1.42656 4.16338 0
M  V30 9925 H 958.715 -0.0992722 0.730284 0
M  V30 9926 H 961.357 0.442201 1.84783 0
M  V30 9927 H 959.507 -1.22249 3.68765 0
M  V30 9928 H 961.179 1.27878 4.43221 0
M  V30 9929 H 959.422 1.26908 4.14821 0
M  V30 9930 H 960.093 0.363459 5.50802 0
M  V30 9931 H 962.569 -0.908494 4.06061 0
M  V30 9932 H 961.445 -1.62792 5.24204 0
M  V30 9933 H 961.706 -2.42321 3.69774 0
M  V30 9934 N 960.765 -1.57509 0.0534917 0
M  V30 9935 C 961.728 -2.10563 -0.905307 0
M  V30 9936 C 962.728 -1.02571 -1.23838 0
M  V30 9937 O 963.918 -1.28635 -1.17468 0
M  V30 9938 C 961.05 -2.5918 -2.21447 0
M  V30 9939 H 962.243 -2.96575 -0.445354 0
M  V30 9940 H 959.796 -1.55079 -0.194947 0
M  V30 9941 H 960.531 -1.76568 -2.72019 0
M  V30 9942 H 960.316 -3.38098 -1.98575 0
M  V30 9943 H 961.806 -3.00365 -2.90122 0
M  V30 9944 N 962.243 0.219913 -1.56058 0
M  V30 9945 C 963.492 0.942119 -1.78345 0
M  V30 9946 C 963.805 1.85435 -0.622344 0
M  V30 9947 O 965.011 2.61533 -0.728886 0
M  V30 9948 C 963.467 1.72544 -3.15843 0
M  V30 9949 C 963.075 0.859263 -4.39682 0
M  V30 9950 C 964.819 2.43876 -3.47455 0
M  V30 9951 C 962.726 1.64003 -5.68205 0
M  V30 9952 H 961.656 0.355514 -0.664925 0
M  V30 9953 H 964.307 0.195963 -1.82451 0
M  V30 9954 H 962.689 2.51456 -3.05918 0
M  V30 9955 H 963.863 0.110562 -4.60667 0
M  V30 9956 H 962.178 0.257985 -4.156 0
M  V30 9957 H 964.775 3.02794 -4.40704 0
M  V30 9958 H 965.118 3.16843 -2.7003 0
M  V30 9959 H 965.651 1.71952 -3.58716 0
M  V30 9960 H 962.39 0.953606 -6.48526 0
M  V30 9961 H 961.91 2.3633 -5.51279 0
M  V30 9962 H 963.589 2.20028 -6.08438 0
M  V30 9963 N 963.721 1.49897 0.486681 0
M  V30 9964 C 964.668 1.67619 1.58658 0
M  V30 9965 C 965.638 0.517537 1.57831 0
M  V30 9966 O 966.823 0.746272 1.756 0
M  V30 9967 C 963.963 1.762 2.96728 0
M  V30 9968 C 963.076 3.03465 3.07462 0
M  V30 9969 C 962.211 3.02937 4.36351 0
M  V30 9970 C 961.25 4.24721 4.4077 0
M  V30 9971 N 960.387 4.22021 5.61108 0
M  V30 9972 H 965.227 2.61528 1.42853 0
M  V30 9973 H 962.764 1.29657 0.694807 0
M  V30 9974 H 964.722 1.79156 3.76774 0
M  V30 9975 H 963.352 0.857452 3.11203 0
M  V30 9976 H 962.404 3.10054 2.20387 0
M  V30 9977 H 963.716 3.93454 3.06586 0
M  V30 9978 H 962.87 3.04536 5.24731 0
M  V30 9979 H 961.609 2.10751 4.39813 0
M  V30 9980 H 960.614 4.23352 3.5079 0
M  V30 9981 H 961.839 5.18116 4.39013 0
M  V30 9982 H 959.785 3.3268 5.65385 0
M  V30 9983 H 959.702 5.05761 5.61909 0
M  V30 9984 H 960.97 4.27743 6.51656 0
M  V30 9985 N 965.199 -0.738761 1.39212 0
M  V30 9986 C 966.427 -1.52801 1.39497 0
M  V30 9987 C 966.842 -1.88797 -0.0114917 0
M  V30 9988 O 966.199 -1.53835 -0.981887 0
M  V30 9989 C 966.25 -2.81793 2.2644 0
M  V30 9990 O 965.971 -2.47328 3.61608 0
M  V30 9991 C 967.472 -3.75844 2.35067 0
M  V30 9992 H 964.692 -0.472322 0.476606 0
M  V30 9993 H 967.236 -0.913153 1.8298 0
M  V30 9994 H 965.391 -3.3962 1.8638 0
M  V30 9995 H 965.805 -3.30162 4.07545 0
M  V30 9996 H 967.279 -4.6326 3.00157 0
M  V30 9997 H 967.756 -4.17329 1.3687 0
M  V30 9998 H 968.362 -3.23937 2.75581 0
M  V30 9999 N 966.677 -1.24326 -0.968545 0
M  V30 10000 C 967.607 -1.05951 -2.08079 0
M  V30 10001 C 968.588 0.0272666 -1.70078 0
M  V30 10002 O 969.773 -0.139644 -1.93697 0
M  V30 10003 C 966.903 -0.662623 -3.4092 0
M  V30 10004 C 965.857 -1.69807 -3.92873 0
M  V30 10005 C 965.183 -1.15628 -5.22048 0
M  V30 10006 C 966.483 -3.09383 -4.20808 0
M  V30 10007 H 968.177 -1.98984 -2.23709 0
M  V30 10008 H 965.723 -0.958112 -1.075 0
M  V30 10009 H 967.676 -0.521071 -4.18166 0
M  V30 10010 H 966.4 0.303399 -3.25188 0
M  V30 10011 H 965.059 -1.82783 -3.17783 0
M  V30 10012 H 964.707 -0.180888 -5.02675 0
M  V30 10013 H 964.407 -1.84822 -5.57776 0
M  V30 10014 H 965.931 -1.02683 -6.01904 0
M  V30 10015 H 967.345 -2.99642 -4.88761 0
M  V30 10016 H 965.742 -3.75923 -4.67763 0
M  V30 10017 H 966.812 -3.57486 -3.27616 0
M  V30 10018 N 968.156 1.1691 -1.05688 0
M  V30 10019 C 969.103 2.21095 -0.662246 0
M  V30 10020 C 970.073 1.62623 0.338083 0
M  V30 10021 O 971.258 1.89428 0.228362 0
M  V30 10022 C 968.398 3.45066 -0.0484018 0
M  V30 10023 C 967.511 4.17809 -1.09817 0
M  V30 10024 C 966.646 5.29281 -0.451114 0
M  V30 10025 C 965.685 5.93817 -1.48484 0
M  V30 10026 N 964.822 6.96793 -0.861588 0
M  V30 10027 H 969.662 2.54204 -1.55513 0
M  V30 10028 H 967.199 1.24863 -0.777665 0
M  V30 10029 H 969.157 4.15932 0.324978 0
M  V30 10030 H 967.787 3.12526 0.807918 0
M  V30 10031 H 966.839 3.45608 -1.58932 0
M  V30 10032 H 968.151 4.61907 -1.88265 0
M  V30 10033 H 967.305 6.06695 -0.0244251 0
M  V30 10034 H 966.044 4.8633 0.365306 0
M  V30 10035 H 965.049 5.1513 -1.92149 0
M  V30 10036 H 966.274 6.38848 -2.30325 0
M  V30 10037 H 964.22 6.55967 -0.0657688 0
M  V30 10038 H 964.137 7.39229 -1.58354 0
M  V30 10039 H 965.405 7.78142 -0.45984 0
M  V30 10040 N 969.634 0.838594 1.33437 0
M  V30 10041 C 970.859 0.446701 2.02532 0
M  V30 10042 C 971.284 -0.944275 1.62681 0
M  V30 10043 O 970.642 -1.61733 0.81927 0
M  V30 10044 C 970.69 0.574794 3.55989 0
M  V30 10045 O 969.794 -0.399063 4.10465 0
M  V30 10046 H 969.135 0.181637 0.638674 0
M  V30 10047 H 971.665 1.13335 1.70342 0
M  V30 10048 H 971.675 0.456339 4.0544 0
M  V30 10049 H 970.35 1.58921 3.8434 0
M  V30 10050 H 968.927 -0.238187 3.72139 0
M  V30 10051 N 971.112 -1.45937 0.595003 0
M  V30 10052 C 972.36 -2.01921 0.0851368 0
M  V30 10053 C 972.681 -1.46748 -1.28413 0
M  V30 10054 O 971.951 -0.656873 -1.84559 0
M  V30 10055 H 970.531 -0.746457 0.0284826 0
M  V30 10056 H 973.193 -1.78891 0.773561 0
M  V30 10057 H 972.289 -3.1209 0.0254002 0
M  V30 10058 N 972.59 -0.333456 -1.54032 0
M  V30 10059 C 973.82 0.267425 -2.04862 0
M  V30 10060 C 974.228 1.45559 -1.20869 0
M  V30 10061 O 973.571 1.82197 -0.234478 0
M  V30 10062 C 973.633 0.755759 -3.51466 0
M  V30 10063 C 973.297 -0.311409 -4.55938 0
M  V30 10064 C 974.294 -1.15078 -5.07004 0
M  V30 10065 C 971.979 -0.462439 -5.00167 0
M  V30 10066 C 973.973 -2.12682 -6.0087 0
M  V30 10067 C 971.66 -1.44188 -5.93846 0
M  V30 10068 C 972.658 -2.27253 -6.44085 0
M  V30 10069 O 972.346 -3.23532 -7.35923 0
M  V30 10070 H 972.078 0.0572596 -0.673571 0
M  V30 10071 H 974.632 -0.480646 -1.99697 0
M  V30 10072 H 972.862 1.55491 -3.54062 0
M  V30 10073 H 974.551 1.27607 -3.8532 0
M  V30 10074 H 975.317 -1.04513 -4.73605 0
M  V30 10075 H 971.196 0.17424 -4.60671 0
M  V30 10076 H 974.74 -2.77555 -6.40007 0
M  V30 10077 H 970.637 -1.54813 -6.2666 0
M  V30 10078 H 971.405 -3.18886 -7.53826 0
M  V30 10079 N 974.068 1.57479 -0.061844 0
M  V30 10080 C 975.296 1.97429 0.618837 0
M  V30 10081 C 975.711 0.939826 1.63746 0
M  V30 10082 O 975.068 -0.0747173 1.82347 0
M  V30 10083 C 975.119 3.3746 1.29628 0
M  V30 10084 O 974.84 4.36941 0.318431 0
M  V30 10085 C 976.341 3.92228 2.06572 0
M  V30 10086 H 973.561 0.649513 0.168444 0
M  V30 10087 H 976.105 2.04078 -0.131303 0
M  V30 10088 H 974.26 3.31928 1.99757 0
M  V30 10089 H 974.674 5.18313 0.803239 0
M  V30 10090 H 976.148 4.92458 2.49377 0
M  V30 10091 H 976.625 3.28231 2.91824 0
M  V30 10092 H 977.231 4.01131 1.4133 0
M  V30 10093 N 975.546 -0.211634 1.56173 0
M  V30 10094 C 976.456 -1.2831 1.96402 0
M  V30 10095 C 977.472 -1.50731 0.869254 0
M  V30 10096 O 978.648 -1.63669 1.17365 0
M  V30 10097 C 975.713 -2.61084 2.28114 0
M  V30 10098 C 974.774 -2.46879 3.51211 0
M  V30 10099 C 974.007 -3.73321 3.81401 0
M  V30 10100 O 974.23 -4.76773 3.13119 0
M  V30 10101 O 973.164 -3.69839 4.74871 0
M  V30 10102 H 976.99 -0.971733 2.87734 0
M  V30 10103 H 974.575 -0.415305 1.43512 0
M  V30 10104 H 976.457 -3.39481 2.49661 0
M  V30 10105 H 975.132 -2.91881 1.39954 0
M  V30 10106 H 974.039 -1.66648 3.34932 0
M  V30 10107 H 975.372 -2.21018 4.39786 0
M  V30 10108 N 977.024 -1.50153 -0.478725 0
M  V30 10109 C 977.971 -1.68458 -1.57767 0
M  V30 10110 C 978.941 -0.5259 -1.57555 0
M  V30 10111 O 980.126 -0.755574 -1.75202 0
M  V30 10112 C 977.266 -1.77772 -2.95789 0
M  V30 10113 C 976.379 -3.05092 -3.05848 0
M  V30 10114 C 975.514 -3.05247 -4.34739 0
M  V30 10115 C 974.553 -4.27053 -4.38512 0
M  V30 10116 N 973.69 -4.24991 -5.58862 0
M  V30 10117 H 978.53 -2.62282 -1.41464 0
M  V30 10118 H 976.067 -1.30023 -0.687921 0
M  V30 10119 H 978.025 -1.81152 -3.75819 0
M  V30 10120 H 976.655 -0.873944 -3.10744 0
M  V30 10121 H 975.707 -3.11219 -2.1874 0
M  V30 10122 H 977.019 -3.95075 -3.04495 0
M  V30 10123 H 976.173 -3.07314 -5.23109 0
M  V30 10124 H 974.912 -2.13081 -4.38689 0
M  V30 10125 H 973.917 -4.25206 -3.4854 0
M  V30 10126 H 975.142 -5.20437 -4.36259 0
M  V30 10127 H 973.088 -3.35674 -5.63612 0
M  V30 10128 H 973.005 -5.08734 -5.59219 0
M  V30 10129 H 974.273 -4.31193 -6.49379 0
M  V30 10130 N 978.502 0.731368 -1.39602 0
M  V30 10131 C 979.434 1.85575 -1.34516 0
M  V30 10132 C 980.447 1.60818 -0.253287 0
M  V30 10133 O 981.636 1.70984 -0.512505 0
M  V30 10134 C 978.736 3.21673 -1.06676 0
M  V30 10135 C 977.909 3.73757 -2.27211 0
M  V30 10136 C 976.968 4.88426 -1.95773 0
M  V30 10137 O 975.994 5.01898 -2.68491 0
M  V30 10138 N 977.196 5.73065 -0.926083 0
M  V30 10139 H 979.961 1.90442 -2.31413 0
M  V30 10140 H 977.522 0.912258 -1.33752 0
M  V30 10141 H 979.514 3.95959 -0.836577 0
M  V30 10142 H 978.084 3.12052 -0.185003 0
M  V30 10143 H 977.304 2.90781 -2.66158 0
M  V30 10144 H 978.592 4.05289 -3.07601 0
M  V30 10145 H 977.99 5.64774 -0.323497 0
M  V30 10146 H 976.547 6.47403 -0.755795 0
M  V30 10147 N 979.98 1.24838 0.961938 0
M  V30 10148 C 981.396 1.01502 1.23165 0
M  V30 10149 C 981.596 -0.272651 1.99647 0
M  V30 10150 O 980.652 -0.987297 2.32398 0
M  V30 10151 C 981.965 2.23366 2.01316 0
M  V30 10152 C 983.513 2.28051 2.14387 0
M  V30 10153 C 983.988 3.49552 2.95935 0
M  V30 10154 N 985.479 3.49904 3.03515 0
M  V30 10155 C 986.214 4.40577 3.66987 0
M  V30 10156 N 985.71 5.41512 4.3213 0
M  V30 10157 N 987.503 4.28275 3.64056 0
M  V30 10158 H 979.654 2.07576 0.450086 0
M  V30 10159 H 981.917 0.911205 0.261551 0
M  V30 10160 H 981.623 3.16913 1.5251 0
M  V30 10161 H 981.497 2.25949 3.02038 0
M  V30 10162 H 983.884 1.35032 2.62393 0
M  V30 10163 H 983.965 2.29491 1.12994 0
M  V30 10164 H 983.609 4.42889 2.4862 0
M  V30 10165 H 983.539 3.45357 3.97538 0
M  V30 10166 H 986.03 2.76885 2.57183 0
M  V30 10167 H 986.343 6.06924 4.78396 0
M  V30 10168 H 984.688 5.45393 4.3078 0
M  V30 10169 H 987.879 3.48653 3.12344 0
M  V30 10170 H 988.052 4.99138 4.13237 0
M  V30 10171 N 981.458 -1.16348 1.06306 0
M  V30 10172 C 982.874 -1.38873 0.786543 0
M  V30 10173 C 983.074 -1.91915 -0.614061 0
M  V30 10174 O 982.13 -2.11804 -1.3746 0
M  V30 10175 C 983.443 -2.36936 1.85154 0
M  V30 10176 C 984.991 -2.5062 1.87506 0
M  V30 10177 C 985.466 -3.51965 2.9306 0
M  V30 10178 N 986.957 -3.59492 2.92095 0
M  V30 10179 C 987.692 -4.37699 3.70415 0
M  V30 10180 N 987.188 -5.19327 4.58553 0
M  V30 10181 N 988.981 -4.32683 3.58806 0
M  V30 10182 H 981.132 -0.802542 1.96655 0
M  V30 10183 H 983.395 -0.415304 0.852189 0
M  V30 10184 H 983.101 -2.05056 2.85736 0
M  V30 10185 H 982.975 -3.36585 1.70267 0
M  V30 10186 H 985.362 -2.81804 0.875827 0
M  V30 10187 H 985.443 -1.51006 2.06472 0
M  V30 10188 H 985.087 -3.21518 3.93177 0
M  V30 10189 H 985.017 -4.51309 2.71344 0
M  V30 10190 H 987.508 -3.01222 2.28197 0
M  V30 10191 H 987.821 -5.76216 5.1497 0
M  V30 10192 H 986.166 -5.1867 4.62608 0
M  V30 10193 H 989.357 -3.67971 2.89335 0
M  V30 10194 H 989.53 -4.93386 4.20088 0
M  V30 10195 N 982.937 -0.845659 -1.3299 0
M  V30 10196 C 984.214 -0.366306 -1.92139 0
M  V30 10197 C 984.594 1.14912 -1.77083 0
M  V30 10198 O 983.942 1.96667 -1.16338 0
M  V30 10199 C 984.152 -0.820716 -3.39213 0
M  V30 10200 C 985.5 -0.832667 -4.16355 0
M  V30 10201 O 986.524 -0.764764 -3.47893 0
M  V30 10202 O 985.383 -0.926658 -5.38586 0
M  V30 10203 H 982.477 -0.105063 -0.820299 0
M  V30 10204 H 985.023 -0.931962 -1.41819 0
M  V30 10205 H 983.795 -1.86357 -3.44074 0
M  V30 10206 H 983.418 -0.232009 -3.96923 0
M  V30 10207 N 984.415 1.45619 -0.602734 0
M  V30 10208 C 985.662 2.02272 -0.0960337 0
M  V30 10209 C 985.99 1.47177 1.27159 0
M  V30 10210 O 985.245 0.634593 1.85125 0
M  V30 10211 C 985.544 3.574 -0.00157909 0
M  V30 10212 C 985.21 4.31626 -1.30422 0
M  V30 10213 C 983.872 4.51622 -1.66106 0
M  V30 10214 C 986.224 4.74091 -2.16535 0
M  V30 10215 C 983.552 5.11338 -2.87663 0
M  V30 10216 C 985.904 5.35151 -3.37336 0
M  V30 10217 C 984.568 5.53371 -3.73278 0
M  V30 10218 H 983.838 0.740166 -0.0351412 0
M  V30 10219 H 986.485 1.74744 -0.783382 0
M  V30 10220 H 984.79 3.84179 0.769008 0
M  V30 10221 H 986.487 3.98934 0.406549 0
M  V30 10222 H 983.077 4.16372 -1.01647 0
M  V30 10223 H 987.261 4.5838 -1.90266 0
M  V30 10224 H 982.517 5.23634 -3.15622 0
M  V30 10225 H 986.691 5.67011 -4.04316 0
M  V30 10226 H 984.318 5.99412 -4.67556 0
M  V30 10227 N 985.893 0.34162 1.53853 0
M  V30 10228 C 986.823 -0.508431 2.27897 0
M  V30 10229 C 987.804 -1.10425 1.29384 0
M  V30 10230 O 988.989 -1.126 1.58224 0
M  V30 10231 C 986.119 -1.66048 3.05034 0
M  V30 10232 C 985.073 -1.19309 4.11035 0
M  V30 10233 C 984.399 -2.4335 4.76114 0
M  V30 10234 C 985.699 -0.294952 5.21467 0
M  V30 10235 H 987.393 0.109251 2.99201 0
M  V30 10236 H 984.939 0.0539847 1.43899 0
M  V30 10237 H 986.892 -2.26158 3.5557 0
M  V30 10238 H 985.616 -2.30503 2.31379 0
M  V30 10239 H 984.275 -0.614809 3.61408 0
M  V30 10240 H 983.923 -3.06208 3.99056 0
M  V30 10241 H 983.623 -2.1276 5.47729 0
M  V30 10242 H 985.147 -3.0419 5.29434 0
M  V30 10243 H 986.561 -0.80285 5.67651 0
M  V30 10244 H 984.958 -0.0810221 6.00045 0
M  V30 10245 H 986.028 0.669433 4.80257 0
M  V30 10246 N 987.371 -1.57444 0.0701946 0
M  V30 10247 C 988.596 -1.98171 -0.61181 0
M  V30 10248 C 989.021 -0.94823 -1.62451 0
M  V30 10249 O 988.379 0.0863553 -1.81094 0
M  V30 10250 C 988.427 -3.37934 -1.2583 0
M  V30 10251 O 987.531 -3.37207 -2.37414 0
M  V30 10252 H 986.872 -0.645056 -0.157477 0
M  V30 10253 H 989.402 -2.04091 0.144235 0
M  V30 10254 H 989.412 -3.75083 -1.60552 0
M  V30 10255 H 988.087 -4.12684 -0.516234 0
M  V30 10256 H 986.664 -3.11826 -2.04497 0
M  V30 10257 N 988.849 0.203349 -1.56283 0
M  V30 10258 C 989.759 1.27266 -1.9708 0
M  V30 10259 C 990.775 1.50268 -0.877236 0
M  V30 10260 O 991.951 1.63044 -1.18231 0
M  V30 10261 C 989.016 2.59871 -2.29495 0
M  V30 10262 C 988.077 2.45012 -3.52516 0
M  V30 10263 C 987.31 3.71293 -3.83376 0
M  V30 10264 O 987.533 4.75106 -3.15643 0
M  V30 10265 O 986.467 3.67316 -4.76826 0
M  V30 10266 H 990.293 0.956461 -2.88246 0
M  V30 10267 H 987.878 0.407688 -1.4373 0
M  V30 10268 H 989.76 3.38152 -2.51458 0
M  V30 10269 H 988.435 2.91135 -1.415 0
M  V30 10270 H 987.342 1.6487 -3.35811 0
M  V30 10271 H 988.675 2.18683 -4.40952 0
M  V30 10272 N 990.327 1.50405 0.470755 0
M  V30 10273 C 991.29 1.68741 1.5511 0
M  V30 10274 C 992.29 0.558116 1.50804 0
M  V30 10275 O 993.48 0.825149 1.53418 0
M  V30 10276 C 990.612 1.71295 2.94739 0
M  V30 10277 H 991.805 2.65127 1.40169 0
M  V30 10278 H 989.358 1.39891 0.697156 0
M  V30 10279 H 990.093 0.766029 3.15123 0
M  V30 10280 H 989.878 2.53336 2.99271 0
M  V30 10281 H 991.368 1.87434 3.73173 0
M  V30 10282 N 991.805 -0.723954 1.39988 0
M  V30 10283 C 993.03 -1.5182 1.41299 0
M  V30 10284 C 993.455 -1.88096 0.0122636 0
M  V30 10285 O 992.813 -1.52687 -0.977559 0
M  V30 10286 C 992.861 -2.77532 2.30235 0
M  V30 10287 O 991.965 -3.73903 1.73984 0
M  V30 10288 H 991.306 -0.458058 0.480707 0
M  V30 10289 H 993.836 -0.892291 1.84118 0
M  V30 10290 H 993.846 -3.2615 2.45132 0
M  V30 10291 H 992.521 -2.50462 3.32026 0
M  V30 10292 H 991.098 -3.32715 1.68389 0
M  V30 10293 N 993.283 -1.25346 -0.955304 0
M  V30 10294 C 994.532 -1.0945 -1.69421 0
M  V30 10295 C 994.845 0.364459 -1.92175 0
M  V30 10296 O 996.051 0.643843 -2.63755 0
M  V30 10297 C 994.507 -1.91045 -3.05008 0
M  V30 10298 C 994.115 -3.41428 -2.90053 0
M  V30 10299 C 995.859 -1.83716 -3.82686 0
M  V30 10300 C 993.766 -4.1532 -4.21026 0
M  V30 10301 H 992.696 -0.405978 -0.635372 0
M  V30 10302 H 995.347 -1.49536 -1.06354 0
M  V30 10303 H 993.729 -1.43781 -3.68975 0
M  V30 10304 H 994.903 -3.9636 -2.35022 0
M  V30 10305 H 993.218 -3.49842 -2.25831 0
M  V30 10306 H 995.815 -2.36217 -4.79693 0
M  V30 10307 H 996.158 -0.804919 -4.08444 0
M  V30 10308 H 996.691 -2.28726 -3.25468 0
M  V30 10309 H 993.43 -5.18955 -4.00457 0
M  V30 10310 H 992.95 -3.65172 -4.75825 0
M  V30 10311 H 994.629 -4.22999 -4.89572 0
M  V30 10312 N 994.761 1.15782 -1.06922 0
M  V30 10313 C 995.694 2.19336 -0.629837 0
M  V30 10314 C 996.672 1.58774 0.350663 0
M  V30 10315 O 997.856 1.86724 0.258124 0
M  V30 10316 C 994.983 3.38615 0.0757526 0
M  V30 10317 C 994.029 4.17688 -0.862503 0
M  V30 10318 S 994.862 4.80634 -2.36117 0
M  V30 10319 C 996.018 6.03286 -1.66725 0
M  V30 10320 H 996.251 2.56267 -1.50714 0
M  V30 10321 H 993.784 1.26674 -0.882776 0
M  V30 10322 H 995.742 4.07724 0.476611 0
M  V30 10323 H 994.403 3.00037 0.929332 0
M  V30 10324 H 993.596 5.03012 -0.315461 0
M  V30 10325 H 993.198 3.54106 -1.20354 0
M  V30 10326 H 995.49 6.70426 -0.976472 0
M  V30 10327 H 996.433 6.62551 -2.49864 0
M  V30 10328 H 996.841 5.52722 -1.14711 0
M  V30 10329 N 996.239 0.8527 1.3254 0
M  V30 10330 C 997.487 0.454224 1.96929 0
M  V30 10331 C 997.808 -0.993034 1.67821 0
M  V30 10332 O 997.078 -1.69371 0.984393 0
M  V30 10333 H 995.658 0.164977 0.728554 0
M  V30 10334 H 998.32 1.0887 1.61658 0
M  V30 10335 H 997.416 0.597667 3.06324 0
M  V30 10336 N 997.718 -1.45297 0.610449 0
M  V30 10337 C 998.65 -2.28742 -0.144884 0
M  V30 10338 C 999.663 -1.40114 -0.828977 0
M  V30 10339 O 1000.85 -1.64461 -0.693887 0
M  V30 10340 C 997.952 -3.15934 -1.22632 0
M  V30 10341 C 997.125 -4.32857 -0.628785 0
M  V30 10342 C 996.184 -5.01237 -1.60148 0
M  V30 10343 O 995.21 -5.57938 -1.12667 0
M  V30 10344 N 996.412 -5.00785 -2.9359 0
M  V30 10345 H 999.177 -2.94207 0.571145 0
M  V30 10346 H 996.738 -1.55517 0.450134 0
M  V30 10347 H 998.73 -3.58545 -1.87691 0
M  V30 10348 H 997.3 -2.52358 -1.84483 0
M  V30 10349 H 996.52 -3.93693 0.199951 0
M  V30 10350 H 997.808 -5.08367 -0.209845 0
M  V30 10351 H 997.206 -4.56014 -3.34765 0
M  V30 10352 H 995.763 -5.4725 -3.54064 0
M  V30 10353 N 999.196 -0.349774 -1.5367 0
M  V30 10354 C 1000.44 0.244827 -2.01015 0
M  V30 10355 C 1000.77 1.50057 -1.23746 0
M  V30 10356 O 1000.03 1.9315 -0.314872 0
M  V30 10357 C 1000.32 0.598311 -3.52356 0
M  V30 10358 C 999.991 -0.56127 -4.47393 0
M  V30 10359 C 998.653 -0.879481 -4.73095 0
M  V30 10360 C 1001 -1.3389 -5.03709 0
M  V30 10361 C 998.333 -1.97758 -5.52366 0
M  V30 10362 C 1000.68 -2.4273 -5.84179 0
M  V30 10363 C 999.349 -2.75103 -6.08173 0
M  V30 10364 H 998.619 0.0895884 -0.735564 0
M  V30 10365 H 1001.27 -0.478975 -1.85413 0
M  V30 10366 H 999.571 1.40291 -3.65822 0
M  V30 10367 H 1001.27 1.07036 -3.86451 0
M  V30 10368 H 997.858 -0.303201 -4.27526 0
M  V30 10369 H 1002.04 -1.10632 -4.83812 0
M  V30 10370 H 997.298 -2.23257 -5.6918 0
M  V30 10371 H 1001.47 -3.03412 -6.26828 0
M  V30 10372 H 999.099 -3.60317 -6.69385 0
M  V30 10373 N 1000.67 1.57404 -0.0785433 0
M  V30 10374 C 1001.95 1.85163 0.630389 0
M  V30 10375 C 1002.33 0.972295 1.87376 0
M  V30 10376 O 1001.68 0.0403375 2.28464 0
M  V30 10377 C 1001.89 3.35491 0.961604 0
M  V30 10378 C 1003.24 4.0316 1.33219 0
M  V30 10379 O 1004.26 3.40276 1.05313 0
M  V30 10380 O 1003.12 5.14086 1.85412 0
M  V30 10381 H 1000.21 0.765169 0.31376 0
M  V30 10382 H 1002.76 1.69343 -0.109986 0
M  V30 10383 H 1001.53 3.91221 0.0788113 0
M  V30 10384 H 1001.15 3.56598 1.75852 0
M  V30 10385 N 1002.15 -0.195058 1.56388 0
M  V30 10386 C 1003.1 -1.24584 1.90952 0
M  V30 10387 C 1004.09 -1.40993 0.77522 0
M  V30 10388 O 1005.28 -1.43363 1.03808 0
M  V30 10389 C 1002.41 -2.59064 2.25258 0
M  V30 10390 C 1001.49 -2.46447 3.45145 0
M  V30 10391 N 1001.88 -2.0351 4.63052 0
M  V30 10392 C 1000.18 -2.77339 3.49283 0
M  V30 10393 C 1000.88 -2.02785 5.45209 0
M  V30 10394 N 999.859 -2.4429 4.85616 0
M  V30 10395 H 1003.66 -0.9052 2.79613 0
M  V30 10396 H 1001.17 -0.403493 1.57308 0
M  V30 10397 H 1003.17 -3.34963 2.48205 0
M  V30 10398 H 1001.83 -2.93951 1.37924 0
M  V30 10399 H 1002.84 -1.74219 4.87717 0
M  V30 10400 H 999.52 -3.16423 2.72365 0
M  V30 10401 H 1000.91 -1.71489 6.49647 0
M  V30 10402 N 1003.63 -1.50653 -0.462772 0
M  V30 10403 C 1005.04 -1.54821 -1.04342 0
M  V30 10404 C 1005.39 -0.356595 -1.92932 0
M  V30 10405 O 1004.52 0.529579 -2.0982 0
M  V30 10406 C 1005.11 -2.80571 -1.89909 0
M  V30 10407 C 1003.67 -2.87394 -2.43067 0
M  V30 10408 C 1002.82 -2.49206 -1.21621 0
M  V30 10409 H 1005.77 -1.56797 -0.245048 0
M  V30 10410 H 1005.79 -2.62897 -2.75074 0
M  V30 10411 H 1005.3 -3.67281 -1.25405 0
M  V30 10412 H 1003.4 -2.05055 -3.111 0
M  V30 10413 H 1003.52 -3.90477 -2.77605 0
M  V30 10414 H 1001.88 -2.01829 -1.55361 0
M  V30 10415 H 1002.66 -3.38233 -0.587669 0
M  V30 10416 N 1005.11 0.71652 -1.4037 0
M  V30 10417 C 1006.06 1.85194 -1.40734 0
M  V30 10418 C 1007.05 1.66934 -0.287969 0
M  V30 10419 O 1008.26 1.74051 -0.458957 0
M  V30 10420 H 1004.63 0.609922 -0.439885 0
M  V30 10421 H 1006.6 1.82003 -2.36468 0
M  V30 10422 C 1005.35 3.23048 -1.28589 0
M  V30 10423 H 1004.67 3.37704 -2.13999 0
M  V30 10424 H 1006.11 4.02633 -1.32902 0
M  V30 10425 C 1004.57 3.369 0.00396512 0
M  V30 10426 O 1005.1 3.89881 0.967243 0
M  V30 10427 N 1003.31 2.90508 0.0731565 0
M  V30 10428 H 1002.86 2.4758 -0.711454 0
M  V30 10429 H 1002.81 3.00155 0.935652 0
M  V30 10430 N 1006.59 1.25851 0.948643 0
M  V30 10431 C 1007.83 1.11119 1.69648 0
M  V30 10432 C 1008.17 -0.345995 1.91093 0
M  V30 10433 O 1007.44 -1.25467 1.48621 0
M  V30 10434 C 1007.72 1.87261 3.0758 0
M  V30 10435 C 1007.58 3.40842 2.93507 0
M  V30 10436 C 1008.9 1.6605 4.07573 0
M  V30 10437 H 1006.01 0.405052 0.615713 0
M  V30 10438 H 1008.66 1.54756 1.10229 0
M  V30 10439 H 1006.81 1.50172 3.58303 0
M  V30 10440 H 1008.48 3.87641 2.50064 0
M  V30 10441 H 1006.72 3.68248 2.29294 0
M  V30 10442 H 1007.39 3.89339 3.91305 0
M  V30 10443 H 1009.87 1.98348 3.65783 0
M  V30 10444 H 1008.74 2.21753 5.02113 0
M  V30 10445 H 1009.01 0.603256 4.37965 0
M  V30 10446 N 1008.06 -1.15214 1.07534 0
M  V30 10447 C 1009.31 -1.85388 0.794617 0
M  V30 10448 C 1009.63 -1.83331 -0.681838 0
M  V30 10449 O 1010.83 -2.49207 -1.0774 0
M  V30 10450 C 1009.29 -3.32747 1.37141 0
M  V30 10451 C 1008.9 -3.43244 2.87902 0
M  V30 10452 C 1010.64 -4.08093 1.16879 0
M  V30 10453 C 1008.55 -4.84762 3.38763 0
M  V30 10454 H 1007.48 -0.694499 0.293577 0
M  V30 10455 H 1010.13 -1.29944 1.29564 0
M  V30 10456 H 1008.51 -3.87874 0.798121 0
M  V30 10457 H 1009.68 -2.98214 3.51291 0
M  V30 10458 H 1008 -2.81345 3.06975 0
M  V30 10459 H 1010.6 -5.12535 1.52353 0
M  V30 10460 H 1010.94 -4.1616 0.107958 0
M  V30 10461 H 1011.47 -3.59241 1.70854 0
M  V30 10462 H 1008.21 -4.81879 4.4438 0
M  V30 10463 H 1007.73 -5.30366 2.80128 0
M  V30 10464 H 1009.41 -5.53624 3.34827 0
M  V30 10465 N 1009.54 -0.859717 -1.32086 0
M  V30 10466 C 1010.49 -0.279715 -2.26278 0
M  V30 10467 C 1011.48 0.577348 -1.50185 0
M  V30 10468 O 1012.67 0.425903 -1.71799 0
M  V30 10469 C 1009.8 0.526622 -3.39237 0
M  V30 10470 C 1008.88 -0.343112 -4.2271 0
M  V30 10471 N 1009.27 -1.43176 -4.85113 0
M  V30 10472 C 1007.57 -0.133744 -4.45799 0
M  V30 10473 C 1008.27 -1.96725 -5.47425 0
M  V30 10474 N 1007.25 -1.26569 -5.2866 0
M  V30 10475 H 1011.05 -1.11191 -2.72055 0
M  V30 10476 H 1008.57 -0.706372 -1.46233 0
M  V30 10477 H 1010.56 0.958587 -4.0573 0
M  V30 10478 H 1009.22 1.35655 -2.95005 0
M  V30 10479 H 1010.23 -1.81469 -4.85066 0
M  V30 10480 H 1006.91 0.661064 -4.12233 0
M  V30 10481 H 1008.3 -2.88006 -6.07044 0
M  V30 10482 N 1011.02 1.44971 -0.618145 0
M  V30 10483 C 1011.95 2.33357 0.0815955 0
M  V30 10484 C 1012.93 1.47451 0.848072 0
M  V30 10485 O 1014.12 1.762 0.816532 0
M  V30 10486 C 1011.25 3.30324 1.07253 0
M  V30 10487 C 1010.2 4.25948 0.418563 0
M  V30 10488 C 1009.53 5.12685 1.51849 0
M  V30 10489 C 1010.83 5.18024 -0.66697 0
M  V30 10490 H 1012.52 2.92115 -0.656442 0
M  V30 10491 H 1010.07 1.40465 -0.317129 0
M  V30 10492 H 1012.02 3.91033 1.57069 0
M  V30 10493 H 1010.74 2.69748 1.8413 0
M  V30 10494 H 1009.4 3.66553 -0.0588308 0
M  V30 10495 H 1009.05 4.4847 2.2778 0
M  V30 10496 H 1008.75 5.7747 1.08637 0
M  V30 10497 H 1010.27 5.76264 2.01871 0
M  V30 10498 H 1011.69 5.72744 -0.252448 0
M  V30 10499 H 1010.09 5.91343 -1.02146 0
M  V30 10500 H 1011.16 4.59817 -1.53936 0
M  V30 10501 N 1012.5 0.357919 1.53482 0
M  V30 10502 C 1013.41 -0.500273 2.29204 0
M  V30 10503 C 1014.42 -1.09936 1.3487 0
M  V30 10504 O 1015.6 -1.11195 1.67921 0
M  V30 10505 C 1012.67 -1.62828 3.06085 0
M  V30 10506 C 1011.73 -1.05751 4.16071 0
M  V30 10507 C 1010.96 -2.13176 4.89277 0
M  V30 10508 O 1011.18 -3.34153 4.62274 0
M  V30 10509 O 1010.12 -1.76663 5.7539 0
M  V30 10510 H 1013.94 0.115696 3.0348 0
M  V30 10511 H 1011.53 0.122527 1.48897 0
M  V30 10512 H 1013.41 -2.28427 3.54117 0
M  V30 10513 H 1012.08 -2.22979 2.34653 0
M  V30 10514 H 1010.99 -0.365642 3.72309 0
M  V30 10515 H 1012.32 -0.500661 4.89647 0
M  V30 10516 N 1013.98 -1.5736 0.0868897 0
M  V30 10517 C 1015.22 -1.9367 -0.577598 0
M  V30 10518 C 1015.55 -0.968844 -1.69229 0
M  V30 10519 O 1014.82 -0.0195061 -1.9589 0
M  V30 10520 H 1013.4 -0.714983 -0.216353 0
M  V30 10521 H 1016.06 -1.94335 0.148294 0
M  V30 10522 H 1015.15 -2.95877 -0.993128 0
M  V30 10523 N 1015.45 0.186762 -1.56489 0
M  V30 10524 C 1016.7 0.907194 -1.81378 0
M  V30 10525 C 1017.03 1.82558 -0.662283 0
M  V30 10526 O 1016.31 1.91564 0.336699 0
M  V30 10527 C 1016.59 1.71624 -3.16571 0
M  V30 10528 C 1016.44 0.822009 -4.42225 0
M  V30 10529 C 1017.76 2.68713 -3.48542 0
M  V30 10530 H 1014.88 0.328366 -0.659806 0
M  V30 10531 H 1017.52 0.174142 -1.892 0
M  V30 10532 H 1015.67 2.34119 -3.10033 0
M  V30 10533 H 1017.35 0.211122 -4.60817 0
M  V30 10534 H 1015.59 0.129178 -4.33608 0
M  V30 10535 H 1016.26 1.42326 -5.33336 0
M  V30 10536 H 1018.74 2.16348 -3.55433 0
M  V30 10537 H 1017.61 3.22397 -4.44242 0
M  V30 10538 H 1017.87 3.48165 -2.72459 0
M  V30 10539 N 1016.93 1.50896 0.454776 0
M  V30 10540 C 1018.18 1.6294 1.20741 0
M  V30 10541 C 1018.51 0.336339 1.91265 0
M  V30 10542 O 1017.79 -0.663153 1.82846 0
M  V30 10543 C 1018.07 2.82092 2.23822 0
M  V30 10544 C 1017.92 4.21326 1.57495 0
M  V30 10545 C 1019.24 2.96777 3.24979 0
M  V30 10546 H 1016.36 0.59302 0.437603 0
M  V30 10547 H 1019 1.83331 0.498959 0
M  V30 10548 H 1017.15 2.64837 2.84243 0
M  V30 10549 H 1018.82 4.50209 1.00546 0
M  V30 10550 H 1017.07 4.24829 0.877664 0
M  V30 10551 H 1017.74 5.00656 2.32482 0
M  V30 10552 H 1020.21 3.12627 2.74597 0
M  V30 10553 H 1019.09 3.81742 3.94416 0
M  V30 10554 H 1019.35 2.08091 3.90065 0
M  V30 10555 N 1018.41 -0.709066 1.40748 0
M  V30 10556 C 1019.64 -1.49808 1.42707 0
M  V30 10557 C 1020.05 -1.88778 0.0285574 0
M  V30 10558 O 1019.41 -1.55883 -0.949035 0
M  V30 10559 C 1019.46 -2.76926 2.32366 0
M  V30 10560 O 1019.18 -2.39602 3.66773 0
M  V30 10561 C 1020.68 -3.70773 2.42986 0
M  V30 10562 H 1017.9 -0.462106 0.486517 0
M  V30 10563 H 1020.45 -0.874135 1.84876 0
M  V30 10564 H 1018.6 -3.3559 1.93541 0
M  V30 10565 H 1019.02 -3.21443 4.14457 0
M  V30 10566 H 1020.49 -4.56789 3.09916 0
M  V30 10567 H 1020.97 -4.14332 1.45691 0
M  V30 10568 H 1021.57 -3.18019 2.8239 0
M  V30 10569 N 1019.89 -1.26353 -0.941956 0
M  V30 10570 C 1020.84 -1.07842 -2.04056 0
M  V30 10571 C 1021.81 0.0163064 -1.66092 0
M  V30 10572 O 1022.99 -0.143313 -1.90261 0
M  V30 10573 C 1020.13 -0.716636 -3.37577 0
M  V30 10574 C 1019.24 -1.88754 -3.88582 0
M  V30 10575 C 1018.38 -1.46893 -5.10486 0
M  V30 10576 C 1017.42 -2.60819 -5.53751 0
M  V30 10577 N 1016.56 -2.19646 -6.66858 0
M  V30 10578 H 1021.4 -2.01856 -2.19221 0
M  V30 10579 H 1018.93 -1.00504 -1.07412 0
M  V30 10580 H 1020.89 -0.487768 -4.14339 0
M  V30 10581 H 1019.52 0.18653 -3.22261 0
M  V30 10582 H 1018.57 -2.22936 -3.08227 0
M  V30 10583 H 1019.88 -2.74264 -4.1663 0
M  V30 10584 H 1019.04 -1.20047 -5.94705 0
M  V30 10585 H 1017.78 -0.584721 -4.84182 0
M  V30 10586 H 1016.78 -2.88396 -4.6809 0
M  V30 10587 H 1018.01 -3.49838 -5.82057 0
M  V30 10588 H 1015.95 -1.33657 -6.4224 0
M  V30 10589 H 1015.87 -2.987 -6.94489 0
M  V30 10590 H 1017.14 -1.96009 -7.54454 0
M  V30 10591 N 1021.37 1.14642 -1.08144 0
M  V30 10592 C 1022.59 1.90025 -0.830972 0
M  V30 10593 C 1023.02 1.77904 0.610879 0
M  V30 10594 O 1022.38 1.11735 1.42776 0
M  V30 10595 C 1022.42 3.38085 -1.25422 0
M  V30 10596 O 1021.53 4.10412 -0.404486 0
M  V30 10597 H 1020.87 0.591327 -0.302041 0
M  V30 10598 H 1023.4 1.4513 -1.44216 0
M  V30 10599 H 1023.41 3.88894 -1.23391 0
M  V30 10600 H 1022.08 3.46226 -2.30435 0
M  V30 10601 H 1020.66 3.69693 -0.487987 0
M  V30 10602 N 1022.85 0.866709 1.31628 0
M  V30 10603 C 1024.07 0.49039 2.01004 0
M  V30 10604 C 1024.49 -0.916244 1.65077 0
M  V30 10605 O 1023.85 -1.59975 0.8783 0
M  V30 10606 C 1023.9 0.634011 3.55897 0
M  V30 10607 O 1023.62 1.98525 3.90537 0
M  V30 10608 C 1025.12 0.258277 4.42547 0
M  V30 10609 H 1022.34 0.191421 0.643117 0
M  V30 10610 H 1024.88 1.16698 1.67934 0
M  V30 10611 H 1023.04 0.00501801 3.874 0
M  V30 10612 H 1023.45 1.99067 4.85255 0
M  V30 10613 H 1024.93 0.409733 5.50477 0
M  V30 10614 H 1025.4 -0.802301 4.3181 0
M  V30 10615 H 1026.01 0.862837 4.16456 0
M  V30 10616 N 1024.32 -1.44642 0.625825 0
M  V30 10617 C 1025.73 -1.85502 0.211175 0
M  V30 10618 C 1026.09 -1.52356 -1.2362 0
M  V30 10619 O 1025.21 -0.959051 -1.93988 0
M  V30 10620 C 1025.81 -3.36702 0.37648 0
M  V30 10621 C 1024.36 -3.76396 0.0163795 0
M  V30 10622 C 1023.51 -2.68517 0.692368 0
M  V30 10623 H 1026.46 -1.35183 0.831333 0
M  V30 10624 H 1026.48 -3.78536 -0.386106 0
M  V30 10625 H 1026 -3.60795 1.42999 0
M  V30 10626 H 1024.1 -3.57919 -1.0356 0
M  V30 10627 H 1024.21 -4.77231 0.422742 0
M  V30 10628 H 1022.57 -2.54377 0.128191 0
M  V30 10629 H 1023.36 -2.95444 1.74837 0
M  V30 10630 N 1025.8 -0.366053 -1.5329 0
M  V30 10631 C 1027.05 0.223824 -2.01561 0
M  V30 10632 C 1027.38 1.48382 -1.25286 0
M  V30 10633 O 1026.66 1.91385 -0.34669 0
M  V30 10634 C 1026.94 0.5153 -3.56394 0
M  V30 10635 C 1026.79 -0.758357 -4.43361 0
M  V30 10636 C 1028.11 1.31568 -4.19974 0
M  V30 10637 H 1025.23 0.0798751 -0.732659 0
M  V30 10638 H 1027.87 -0.491038 -1.83545 0
M  V30 10639 H 1026.02 1.12429 -3.71876 0
M  V30 10640 H 1027.69 -1.39584 -4.39675 0
M  V30 10641 H 1025.94 -1.37862 -4.11311 0
M  V30 10642 H 1026.61 -0.509366 -5.49645 0
M  V30 10643 H 1029.08 0.800514 -4.08327 0
M  V30 10644 H 1027.96 1.48837 -5.28336 0
M  V30 10645 H 1028.22 2.32432 -3.76069 0
M  V30 10646 N 1027.28 1.57312 -0.0952337 0
M  V30 10647 C 1028.21 2.09691 0.900274 0
M  V30 10648 C 1029.19 1.0075 1.27625 0
M  V30 10649 O 1030.37 1.28249 1.38147 0
M  V30 10650 C 1027.5 2.574 2.20142 0
M  V30 10651 C 1026.55 3.78 1.9753 0
M  V30 10652 S 1027.38 5.21577 1.21318 0
M  V30 10653 C 1028.54 5.72636 2.52663 0
M  V30 10654 H 1028.77 2.93803 0.45467 0
M  V30 10655 H 1026.3 1.53948 0.118056 0
M  V30 10656 H 1028.26 2.85546 2.94914 0
M  V30 10657 H 1026.92 1.73514 2.61824 0
M  V30 10658 H 1026.11 4.09451 2.93881 0
M  V30 10659 H 1025.72 3.50349 1.30888 0
M  V30 10660 H 1028.01 5.80911 3.48638 0
M  V30 10661 H 1028.95 6.71136 2.25791 0
M  V30 10662 H 1029.36 5.00569 2.60943 0
M  V30 10663 N 1028.76 -0.17846 1.56586 0
M  V30 10664 C 1030.01 -0.894502 1.8078 0
M  V30 10665 C 1030.32 -1.8372 0.67129 0
M  V30 10666 O 1031.53 -2.59509 0.797971 0
M  V30 10667 C 1029.98 -1.64109 3.20306 0
M  V30 10668 C 1029.59 -0.742387 4.41806 0
M  V30 10669 C 1031.33 -2.34578 3.53798 0
M  V30 10670 C 1029.24 -1.4888 5.72354 0
M  V30 10671 H 1028.17 -0.33776 0.674117 0
M  V30 10672 H 1030.82 -0.14752 1.82906 0
M  V30 10673 H 1029.2 -2.43257 3.12477 0
M  V30 10674 H 1030.38 0.011615 4.60799 0
M  V30 10675 H 1028.69 -0.147705 4.16138 0
M  V30 10676 H 1031.29 -2.91004 4.48577 0
M  V30 10677 H 1031.63 -3.09572 2.78336 0
M  V30 10678 H 1032.17 -1.62381 3.63149 0
M  V30 10679 H 1028.9 -0.781325 6.50827 0
M  V30 10680 H 1028.42 -2.21631 5.57351 0
M  V30 10681 H 1030.1 -2.03819 6.14058 0
M  V30 10682 N 1030.24 -1.51135 -0.446768 0
M  V30 10683 C 1031.48 -1.62571 -1.19388 0
M  V30 10684 C 1031.8 -0.3432 -1.92566 0
M  V30 10685 O 1033 -0.336804 -2.69403 0
M  V30 10686 C 1031.46 -2.87071 -2.17068 0
M  V30 10687 C 1031.07 -4.22291 -1.49581 0
M  V30 10688 C 1032.81 -3.07862 -2.9227 0
M  V30 10689 C 1030.72 -5.3795 -2.45689 0
M  V30 10690 H 1029.65 -0.60549 -0.449331 0
M  V30 10691 H 1032.3 -1.77593 -0.461846 0
M  V30 10692 H 1030.68 -2.65662 -2.93666 0
M  V30 10693 H 1031.86 -4.54046 -0.786054 0
M  V30 10694 H 1030.17 -4.07302 -0.865677 0
M  V30 10695 H 1032.77 -3.91444 -3.64246 0
M  V30 10696 H 1033.11 -2.20559 -3.53072 0
M  V30 10697 H 1033.64 -3.29566 -2.2278 0
M  V30 10698 H 1030.38 -6.27484 -1.89591 0
M  V30 10699 H 1029.9 -5.10583 -3.14746 0
M  V30 10700 H 1031.58 -5.69517 -3.07017 0
M  V30 10701 N 1031.71 0.701592 -1.41122 0
M  V30 10702 C 1032.94 1.49049 -1.43499 0
M  V30 10703 C 1033.36 1.88761 -0.0385684 0
M  V30 10704 O 1032.71 1.56384 0.940755 0
M  V30 10705 C 1032.76 2.7569 -2.33832 0
M  V30 10706 O 1032.49 2.37653 -3.68039 0
M  V30 10707 C 1033.99 3.69479 -2.44949 0
M  V30 10708 H 1031.21 0.459519 -0.488961 0
M  V30 10709 H 1033.75 0.864318 -1.85337 0
M  V30 10710 H 1031.91 3.34559 -1.95318 0
M  V30 10711 H 1032.32 3.19241 -4.16156 0
M  V30 10712 H 1033.79 4.55139 -3.12334 0
M  V30 10713 H 1034.27 4.13553 -1.47887 0
M  V30 10714 H 1034.88 3.16517 -2.84072 0
M  V30 10715 N 1033.19 1.2685 0.935242 0
M  V30 10716 C 1034.1 1.10716 2.06831 0
M  V30 10717 C 1035.12 0.0391222 1.73956 0
M  V30 10718 O 1036.29 0.244071 1.99916 0
M  V30 10719 C 1033.36 0.748093 3.38533 0
M  V30 10720 C 1032.42 1.89619 3.85153 0
M  V30 10721 C 1031.65 1.55416 5.1057 0
M  V30 10722 O 1031.88 0.458596 5.68553 0
M  V30 10723 O 1030.81 2.39087 5.52378 0
M  V30 10724 H 1034.64 2.05785 2.23352 0
M  V30 10725 H 1032.22 1.05967 1.05315 0
M  V30 10726 H 1034.1 0.560841 4.17651 0
M  V30 10727 H 1032.78 -0.173142 3.23237 0
M  V30 10728 H 1031.68 2.13845 3.06954 0
M  V30 10729 H 1033.02 2.79737 4.04979 0
M  V30 10730 N 1034.67 -1.14067 1.0875 0
M  V30 10731 C 1035.92 -1.85185 0.819317 0
M  V30 10732 C 1036.25 -1.8314 -0.654969 0
M  V30 10733 O 1035.5 -1.25974 -1.49763 0
M  V30 10734 C 1035.8 -3.33273 1.29089 0
M  V30 10735 C 1035.47 -3.55504 2.77359 0
M  V30 10736 C 1034.13 -3.61279 3.17853 0
M  V30 10737 C 1036.48 -3.64041 3.72992 0
M  V30 10738 C 1033.81 -3.73119 4.52768 0
M  V30 10739 C 1036.16 -3.77407 5.07687 0
M  V30 10740 C 1034.82 -3.81433 5.47782 0
M  V30 10741 H 1034.09 -0.67764 0.299809 0
M  V30 10742 H 1036.74 -1.34713 1.36106 0
M  V30 10743 H 1035.05 -3.86049 0.668811 0
M  V30 10744 H 1036.74 -3.86734 1.06009 0
M  V30 10745 H 1033.33 -3.51659 2.45019 0
M  V30 10746 H 1037.52 -3.58866 3.42825 0
M  V30 10747 H 1032.77 -3.74499 4.83281 0
M  V30 10748 H 1036.95 -3.82956 5.81651 0
M  V30 10749 H 1034.57 -3.9036 6.52321 0
M  V30 10750 N 1036.15 -0.873678 -1.31166 0
M  V30 10751 C 1037.08 -0.276805 -2.26515 0
M  V30 10752 C 1038.06 0.596166 -1.51277 0
M  V30 10753 O 1039.24 0.548769 -1.80335 0
M  V30 10754 C 1036.37 0.607711 -3.33203 0
M  V30 10755 C 1035.42 -0.194411 -4.26057 0
M  V30 10756 S 1036.25 -1.57534 -5.11804 0
M  V30 10757 C 1037.41 -0.697047 -6.22006 0
M  V30 10758 H 1037.64 -1.08505 -2.76792 0
M  V30 10759 H 1035.17 -0.672419 -1.38989 0
M  V30 10760 H 1037.13 1.11234 -3.95142 0
M  V30 10761 H 1035.79 1.38994 -2.81673 0
M  V30 10762 H 1034.98 0.480094 -5.01708 0
M  V30 10763 H 1034.59 -0.631262 -3.68634 0
M  V30 10764 H 1036.88 0.0907919 -6.77439 0
M  V30 10765 H 1037.82 -1.42481 -6.93617 0
M  V30 10766 H 1038.23 -0.262954 -5.63887 0
M  V30 10767 N 1037.63 1.44308 -0.633487 0
M  V30 10768 C 1038.54 2.34492 0.0711787 0
M  V30 10769 C 1039.55 1.52754 0.8332 0
M  V30 10770 O 1040.73 1.85475 0.784929 0
M  V30 10771 C 1037.79 3.30767 1.03895 0
M  V30 10772 C 1036.85 4.28412 0.276043 0
M  V30 10773 C 1036.09 5.20087 1.19772 0
M  V30 10774 O 1036.31 5.15743 2.4365 0
M  V30 10775 O 1035.24 5.98038 0.680764 0
M  V30 10776 H 1039.07 2.96203 -0.67063 0
M  V30 10777 H 1036.66 1.4412 -0.393678 0
M  V30 10778 H 1038.54 3.90021 1.59566 0
M  V30 10779 H 1037.21 2.71586 1.76133 0
M  V30 10780 H 1036.12 3.72696 -0.32377 0
M  V30 10781 H 1037.45 4.9052 -0.406364 0
M  V30 10782 N 1039.1 0.374177 1.53094 0
M  V30 10783 C 1040.05 -0.48326 2.27524 0
M  V30 10784 C 1041.05 -1.07606 1.30833 0
M  V30 10785 O 1042.25 -1.01827 1.48429 0
M  V30 10786 H 1038.63 -0.174578 0.731455 0
M  V30 10787 H 1040.6 0.166156 2.97937 0
M  V30 10788 C 1039.35 -1.6065 3.08362 0
M  V30 10789 H 1038.67 -1.15966 3.82612 0
M  V30 10790 H 1040.11 -2.18099 3.63606 0
M  V30 10791 C 1038.57 -2.55381 2.19732 0
M  V30 10792 O 1039.1 -3.58414 1.8139 0
M  V30 10793 N 1037.31 -2.24769 1.84194 0
M  V30 10794 H 1036.85 -1.41018 2.15573 0
M  V30 10795 H 1036.81 -2.88404 1.25181 0
M  V30 10796 N 1040.58 -1.57259 0.103575 0
M  V30 10797 C 1041.83 -1.94272 -0.557024 0
M  V30 10798 C 1042.15 -0.986739 -1.68192 0
M  V30 10799 O 1041.42 -0.0402818 -1.95859 0
M  V30 10800 H 1040 -0.717237 -0.208757 0
M  V30 10801 H 1042.66 -1.94167 0.168898 0
M  V30 10802 H 1041.76 -2.96914 -0.961691 0
M  V30 10803 N 1042.06 0.170153 -1.56679 0
M  V30 10804 C 1043.29 0.90618 -1.86556 0
M  V30 10805 C 1043.71 1.74986 -0.690044 0
M  V30 10806 O 1043.07 1.77672 0.360862 0
M  V30 10807 C 1043.12 1.75777 -3.14857 0
M  V30 10808 O 1042.22 2.85952 -2.97162 0
M  V30 10809 H 1041.56 0.253781 -0.613589 0
M  V30 10810 H 1044.09 0.167943 -2.0391 0
M  V30 10811 H 1044.1 2.15747 -3.46291 0
M  V30 10812 H 1042.78 1.13807 -4.00026 0
M  V30 10813 H 1041.35 2.49557 -2.77084 0
M  V30 10814 N 1043.54 1.5137 0.438746 0
M  V30 10815 C 1044.47 1.75528 1.53987 0
M  V30 10816 C 1045.45 0.605067 1.58975 0
M  V30 10817 O 1046.63 0.847634 1.74725 0
M  V30 10818 C 1043.76 1.87904 2.92078 0
M  V30 10819 C 1042.72 3.0333 3.01951 0
M  V30 10820 C 1042.04 3.00888 4.42007 0
M  V30 10821 C 1043.34 4.43319 2.76163 0
M  V30 10822 H 1045.04 2.67728 1.34022 0
M  V30 10823 H 1042.58 1.28831 0.643308 0
M  V30 10824 H 1044.54 2.03388 3.69068 0
M  V30 10825 H 1043.26 0.923514 3.13271 0
M  V30 10826 H 1041.92 2.87549 2.274 0
M  V30 10827 H 1041.57 2.03116 4.60166 0
M  V30 10828 H 1041.27 3.78397 4.49544 0
M  V30 10829 H 1042.79 3.18464 5.20973 0
M  V30 10830 H 1044.21 4.59458 3.42887 0
M  V30 10831 H 1042.6 5.22523 2.9511 0
M  V30 10832 H 1043.67 4.53453 1.71779 0
M  V30 10833 N 1045.02 -0.694098 1.41492 0
M  V30 10834 C 1046.29 -1.44875 1.31418 0
M  V30 10835 C 1046.67 -2.11022 -0.0575538 0
M  V30 10836 O 1046.02 -2.01799 -1.07188 0
M  V30 10837 C 1046.23 -2.46698 2.46863 0
M  V30 10838 C 1047.58 -3.11907 2.88095 0
M  V30 10839 O 1048.6 -2.57022 2.46613 0
M  V30 10840 O 1047.46 -4.11318 3.59833 0
M  V30 10841 H 1044.56 -0.645266 0.517263 0
M  V30 10842 H 1047.1 -0.724452 1.53459 0
M  V30 10843 H 1045.87 -1.96485 3.38392 0
M  V30 10844 H 1045.5 -3.26634 2.26706 0
M  V30 10845 N 1046.49 -1.27344 -0.928501 0
M  V30 10846 C 1047.72 -1.16557 -1.7155 0
M  V30 10847 C 1048.14 0.274044 -1.86093 0
M  V30 10848 O 1047.5 1.19847 -1.36038 0
M  V30 10849 C 1047.55 -1.85332 -3.09329 0
M  V30 10850 O 1046.65 -1.15074 -3.9602 0
M  V30 10851 H 1046 -0.405423 -0.525859 0
M  V30 10852 H 1048.53 -1.68399 -1.16202 0
M  V30 10853 H 1048.54 -1.92659 -3.59648 0
M  V30 10854 H 1047.21 -2.90056 -2.98061 0
M  V30 10855 H 1045.79 -1.1581 -3.54461 0
M  V30 10856 N 1047.97 1.13488 -1.09353 0
M  V30 10857 C 1049.22 1.84748 -0.829126 0
M  V30 10858 C 1049.55 1.83485 0.645247 0
M  V30 10859 O 1048.8 1.26767 1.49093 0
M  V30 10860 C 1049.1 3.32584 -1.30854 0
M  V30 10861 C 1048.77 3.54028 -2.7924 0
M  V30 10862 C 1047.43 3.59588 -3.19765 0
M  V30 10863 C 1049.78 3.62058 -3.74918 0
M  V30 10864 C 1047.11 3.70712 -4.54741 0
M  V30 10865 C 1049.46 3.7471 -5.09682 0
M  V30 10866 C 1048.13 3.78523 -5.49797 0
M  V30 10867 H 1047.4 0.67604 -0.303399 0
M  V30 10868 H 1050.04 1.33989 -1.36818 0
M  V30 10869 H 1048.35 3.85689 -0.689275 0
M  V30 10870 H 1050.04 3.86166 -1.08059 0
M  V30 10871 H 1046.63 3.50354 -2.4688 0
M  V30 10872 H 1050.82 3.57043 -3.44723 0
M  V30 10873 H 1046.07 3.71931 -4.8526 0
M  V30 10874 H 1050.25 3.79866 -5.83674 0
M  V30 10875 H 1047.88 3.86895 -6.54382 0
M  V30 10876 N 1049.45 0.880621 1.30701 0
M  V30 10877 C 1050.38 0.360251 2.30704 0
M  V30 10878 C 1051.36 -0.554572 1.60806 0
M  V30 10879 O 1052.55 -0.469345 1.88443 0
M  V30 10880 C 1049.68 -0.429888 3.44629 0
M  V30 10881 C 1048.63 0.392786 4.26194 0
M  V30 10882 C 1047.96 -0.52369 5.32129 0
M  V30 10883 C 1049.26 1.63258 4.96129 0
M  V30 10884 H 1050.95 1.19591 2.74478 0
M  V30 10885 H 1048.5 0.576508 1.31956 0
M  V30 10886 H 1050.45 -0.804532 4.13649 0
M  V30 10887 H 1049.17 -1.29916 2.99649 0
M  V30 10888 H 1047.83 0.749514 3.58856 0
M  V30 10889 H 1047.48 -1.39054 4.83397 0
M  V30 10890 H 1047.18 0.0229272 5.87596 0
M  V30 10891 H 1048.71 -0.894946 6.04006 0
M  V30 10892 H 1050.12 1.32877 5.57689 0
M  V30 10893 H 1048.52 2.11906 5.61441 0
M  V30 10894 H 1049.59 2.37944 4.22505 0
M  V30 10895 N 1050.93 -1.4397 0.641131 0
M  V30 10896 C 1052.35 -1.56607 0.30762 0
M  V30 10897 C 1052.55 -1.62694 -1.18882 0
M  V30 10898 O 1051.6 -1.57541 -1.97325 0
M  V30 10899 C 1052.91 -2.83289 1.00834 0
M  V30 10900 C 1054.46 -2.97016 0.98744 0
M  V30 10901 C 1054.94 -4.26514 1.66882 0
M  V30 10902 N 1056.43 -4.33351 1.63589 0
M  V30 10903 C 1057.16 -5.32292 2.13196 0
M  V30 10904 N 1056.66 -6.37582 2.71038 0
M  V30 10905 N 1058.45 -5.23866 2.03766 0
M  V30 10906 H 1050.6 -1.38262 1.61237 0
M  V30 10907 H 1052.87 -0.663221 0.677378 0
M  V30 10908 H 1052.57 -2.84812 2.06337 0
M  V30 10909 H 1052.45 -3.73134 0.552333 0
M  V30 10910 H 1054.83 -2.95041 -0.0591395 0
M  V30 10911 H 1054.91 -2.08493 1.48203 0
M  V30 10912 H 1054.56 -4.2925 2.71491 0
M  V30 10913 H 1054.49 -5.13912 1.14898 0
M  V30 10914 H 1056.98 -3.5788 1.21368 0
M  V30 10915 H 1057.29 -7.09378 3.06597 0
M  V30 10916 H 1055.64 -6.38239 2.75093 0
M  V30 10917 H 1058.83 -4.40524 1.58291 0
M  V30 10918 H 1059 -6.00819 2.42737 0
M  V30 10919 N 1052.41 -0.382291 -1.52893 0
M  V30 10920 C 1053.34 0.491199 -2.23875 0
M  V30 10921 C 1054.35 1.03249 -1.25871 0
M  V30 10922 O 1055.54 0.936016 -1.5199 0
M  V30 10923 C 1052.64 1.6927 -2.936 0
M  V30 10924 C 1051.81 1.28 -4.18252 0
M  V30 10925 C 1050.87 2.34541 -4.71038 0
M  V30 10926 O 1049.9 1.96239 -5.34302 0
M  V30 10927 N 1051.1 3.6636 -4.50289 0
M  V30 10928 H 1053.87 -0.116897 -2.99472 0
M  V30 10929 H 1051.43 -0.208296 -1.60554 0
M  V30 10930 H 1053.42 2.40054 -3.25816 0
M  V30 10931 H 1051.99 2.20729 -2.21354 0
M  V30 10932 H 1051.21 0.40133 -3.92152 0
M  V30 10933 H 1052.5 0.98082 -4.99257 0
M  V30 10934 H 1051.9 4.00245 -3.99775 0
M  V30 10935 H 1050.45 4.332 -4.87013 0
M  V30 10936 N 1053.89 1.57202 -0.111913 0
M  V30 10937 C 1054.83 2.16186 0.858286 0
M  V30 10938 C 1055.83 1.10917 1.28039 0
M  V30 10939 O 1057.03 1.29233 1.25295 0
M  V30 10940 H 1053.41 0.691777 0.29487 0
M  V30 10941 H 1055.38 2.96499 0.336265 0
M  V30 10942 C 1054.13 2.77024 2.10127 0
M  V30 10943 H 1053.45 3.5772 1.78539 0
M  V30 10944 H 1054.89 3.21841 2.76033 0
M  V30 10945 C 1053.35 1.73752 2.88638 0
M  V30 10946 O 1053.88 1.18659 3.83774 0
M  V30 10947 N 1052.09 1.43855 2.52496 0
M  V30 10948 H 1051.63 1.88846 1.75199 0
M  V30 10949 H 1051.59 0.749985 3.05324 0
M  V30 10950 N 1055.36 -0.161842 1.56767 0
M  V30 10951 C 1056.64 -0.904754 1.73417 0
M  V30 10952 C 1057.02 -1.99987 0.675908 0
M  V30 10953 O 1056.37 -2.26419 -0.307712 0
M  V30 10954 C 1056.58 -1.46082 3.16956 0
M  V30 10955 C 1057.93 -1.93004 3.78199 0
M  V30 10956 O 1058.95 -1.55856 3.20293 0
M  V30 10957 O 1057.81 -2.61465 4.79894 0
M  V30 10958 H 1054.9 -0.426518 0.708528 0
M  V30 10959 H 1057.45 -0.148928 1.69045 0
M  V30 10960 H 1056.22 -0.673087 3.85468 0
M  V30 10961 H 1055.84 -2.28056 3.25693 0
M  V30 10962 N 1056.84 -1.516 -0.430713 0
M  V30 10963 C 1058.09 -1.64271 -1.17726 0
M  V30 10964 C 1058.41 -0.364406 -1.91565 0
M  V30 10965 O 1057.68 0.619991 -1.8583 0
M  V30 10966 H 1056.26 -0.605432 -0.437562 0
M  V30 10967 H 1058.92 -1.88557 -0.493166 0
M  V30 10968 H 1058.02 -2.47355 -1.90321 0
M  V30 10969 N 1058.32 0.686584 -1.41858 0
M  V30 10970 C 1059.25 1.81202 -1.40352 0
M  V30 10971 C 1060.26 1.5993 -0.304322 0
M  V30 10972 O 1061.45 1.69267 -0.566643 0
M  V30 10973 C 1058.55 3.18116 -1.16856 0
M  V30 10974 C 1057.73 3.66339 -2.38987 0
M  V30 10975 C 1056.79 4.8195 -2.11212 0
M  V30 10976 O 1055.81 4.93102 -2.84323 0
M  V30 10977 N 1057.01 5.69829 -1.10793 0
M  V30 10978 H 1059.78 1.82983 -2.37355 0
M  V30 10979 H 1057.34 0.869244 -1.36586 0
M  V30 10980 H 1059.33 3.93097 -0.962125 0
M  V30 10981 H 1057.9 3.11306 -0.284186 0
M  V30 10982 H 1057.12 2.82166 -2.75274 0
M  V30 10983 H 1058.41 3.95297 -3.2034 0
M  V30 10984 H 1057.81 5.63459 -0.503012 0
M  V30 10985 H 1056.36 6.44671 -0.961379 0
M  V30 10986 N 1059.8 1.27835 0.921735 0
M  V30 10987 C 1061.04 1.14523 1.67005 0
M  V30 10988 C 1061.37 -0.307776 1.92049 0
M  V30 10989 O 1060.63 -1.24103 1.51317 0
M  V30 10990 C 1060.93 1.88054 3.03925 0
M  V30 10991 C 1060.59 3.37886 2.9857 0
M  V30 10992 C 1059.25 3.78752 2.96817 0
M  V30 10993 C 1061.61 4.33462 2.89414 0
M  V30 10994 C 1058.93 5.13549 2.83698 0
M  V30 10995 C 1061.29 5.68322 2.77836 0
M  V30 10996 C 1059.95 6.08475 2.74436 0
M  V30 10997 H 1059.22 0.419068 0.611116 0
M  V30 10998 H 1061.87 1.58515 1.07449 0
M  V30 10999 H 1060.17 1.36587 3.67221 0
M  V30 11000 H 1061.87 1.75176 3.60714 0
M  V30 11001 H 1058.46 3.05389 3.00725 0
M  V30 11002 H 1062.64 4.02857 2.89862 0
M  V30 11003 H 1057.9 5.43796 2.79456 0
M  V30 11004 H 1062.07 6.42048 2.69717 0
M  V30 11005 H 1059.7 7.12877 2.64027 0
M  V30 11006 N 1061.28 -1.12907 1.09954 0
M  V30 11007 C 1062.5 -1.88138 0.860905 0
M  V30 11008 C 1062.92 -1.79402 -0.588256 0
M  V30 11009 O 1062.28 -1.16442 -1.40526 0
M  V30 11010 C 1062.33 -3.37537 1.29425 0
M  V30 11011 O 1062.05 -3.46056 2.68658 0
M  V30 11012 C 1063.55 -4.29721 1.08879 0
M  V30 11013 H 1060.77 -0.595437 0.309347 0
M  V30 11014 H 1063.31 -1.42894 1.46292 0
M  V30 11015 H 1061.47 -3.80344 0.736009 0
M  V30 11016 H 1061.88 -4.38969 2.87065 0
M  V30 11017 H 1063.36 -5.32854 1.4412 0
M  V30 11018 H 1063.83 -4.39192 0.0270053 0
M  V30 11019 H 1064.44 -3.9269 1.63325 0
M  V30 11020 N 1062.75 -0.88754 -1.30232 0
M  V30 11021 C 1064 -0.508031 -1.96334 0
M  V30 11022 C 1064.33 0.940905 -1.69884 0
M  V30 11023 O 1063.61 1.66523 -1.005 0
M  V30 11024 C 1063.89 -0.786566 -3.51405 0
M  V30 11025 C 1063.74 -2.28632 -3.8736 0
M  V30 11026 C 1065.06 -0.264803 -4.39303 0
M  V30 11027 H 1062.18 -0.186051 -0.71313 0
M  V30 11028 H 1064.82 -1.112 -1.5406 0
M  V30 11029 H 1062.97 -0.272523 -3.87543 0
M  V30 11030 H 1064.65 -2.86896 -3.61231 0
M  V30 11031 H 1062.89 -2.75194 -3.35337 0
M  V30 11032 H 1063.56 -2.43181 -4.95547 0
M  V30 11033 H 1066.04 -0.704809 -4.10087 0
M  V30 11034 H 1064.91 -0.488998 -5.46717 0
M  V30 11035 H 1065.17 0.834055 -4.34161 0
M  V30 11036 N 1064.23 1.43628 -0.648757 0
M  V30 11037 C 1065.48 2.01083 -0.157692 0
M  V30 11038 C 1065.79 1.51756 1.23408 0
M  V30 11039 O 1067 2.01455 1.82012 0
M  V30 11040 C 1065.46 3.59157 -0.231118 0
M  V30 11041 C 1065.06 4.17478 -1.6253 0
M  V30 11042 C 1066.81 4.24016 0.202573 0
M  V30 11043 C 1064.72 5.67832 -1.6529 0
M  V30 11044 H 1063.65 0.751977 -0.0551897 0
M  V30 11045 H 1066.3 1.64648 -0.810139 0
M  V30 11046 H 1064.68 3.92972 0.488755 0
M  V30 11047 H 1065.85 3.9517 -2.37017 0
M  V30 11048 H 1064.17 3.64973 -2.00459 0
M  V30 11049 H 1066.76 5.34319 0.20174 0
M  V30 11050 H 1067.11 3.97616 1.23319 0
M  V30 11051 H 1067.64 3.95068 -0.465398 0
M  V30 11052 H 1064.38 5.98994 -2.66246 0
M  V30 11053 H 1063.9 5.92209 -0.951217 0
M  V30 11054 H 1065.58 6.3179 -1.39465 0
M  V30 11055 N 1065.71 0.390394 1.52688 0
M  V30 11056 C 1066.64 -0.479319 2.24132 0
M  V30 11057 C 1067.66 -1.0258 1.26416 0
M  V30 11058 O 1068.84 -0.927943 1.52484 0
M  V30 11059 C 1065.94 -1.67711 2.94493 0
M  V30 11060 C 1065.12 -1.2578 4.18925 0
M  V30 11061 C 1064.18 -2.3204 4.72275 0
M  V30 11062 O 1063.2 -1.93402 5.35336 0
M  V30 11063 N 1064.4 -3.63967 4.52226 0
M  V30 11064 H 1067.17 0.132777 2.99406 0
M  V30 11065 H 1064.73 0.216807 1.60442 0
M  V30 11066 H 1066.72 -2.38323 3.27084 0
M  V30 11067 H 1065.29 -2.19552 2.22521 0
M  V30 11068 H 1064.51 -0.380528 3.92359 0
M  V30 11069 H 1065.8 -0.954329 4.9977 0
M  V30 11070 H 1065.2 -3.98119 4.01892 0
M  V30 11071 H 1063.76 -4.30611 4.89303 0
M  V30 11072 N 1067.19 -1.57141 0.120249 0
M  V30 11073 C 1068.12 -2.18398 -0.826112 0
M  V30 11074 C 1069.1 -1.12439 -1.27638 0
M  V30 11075 O 1070.28 -1.40679 -1.33877 0
M  V30 11076 C 1067.41 -2.78438 -2.0758 0
M  V30 11077 C 1066.37 -3.89991 -1.76327 0
M  V30 11078 C 1065.69 -4.36844 -3.08336 0
M  V30 11079 C 1066.99 -5.12031 -1.03062 0
M  V30 11080 H 1068.69 -2.97731 -0.315656 0
M  V30 11081 H 1066.23 -1.43213 -0.150387 0
M  V30 11082 H 1068.19 -3.19951 -2.74243 0
M  V30 11083 H 1066.91 -1.96396 -2.60953 0
M  V30 11084 H 1065.57 -3.49055 -1.12053 0
M  V30 11085 H 1065.22 -3.51659 -3.59646 0
M  V30 11086 H 1064.92 -5.1207 -2.88199 0
M  V30 11087 H 1066.44 -4.81009 -3.76116 0
M  V30 11088 H 1067.86 -5.50555 -1.59881 0
M  V30 11089 H 1066.25 -5.92848 -0.930146 0
M  V30 11090 H 1067.32 -4.84897 -0.017582 0
M  V30 11091 N 1068.67 0.153526 -1.5685 0
M  V30 11092 C 1069.91 0.868517 -1.83261 0
M  V30 11093 C 1070.25 1.81112 -0.700857 0
M  V30 11094 O 1069.52 1.92235 0.295989 0
M  V30 11095 C 1069.8 1.6487 -3.2014 0
M  V30 11096 C 1069.66 0.728021 -4.43869 0
M  V30 11097 C 1070.98 2.61259 -3.54163 0
M  V30 11098 H 1068.09 0.314297 -0.666623 0
M  V30 11099 H 1070.74 0.133971 -1.89527 0
M  V30 11100 H 1068.89 2.2749 -3.1493 0
M  V30 11101 H 1070.56 0.113328 -4.61161 0
M  V30 11102 H 1068.8 0.0371744 -4.33784 0
M  V30 11103 H 1069.47 1.30981 -5.36235 0
M  V30 11104 H 1071.95 2.0876 -3.59942 0
M  V30 11105 H 1070.82 3.12902 -4.50981 0
M  V30 11106 H 1071.09 3.42307 -2.79782 0
M  V30 11107 N 1070.14 1.51827 0.422667 0
M  V30 11108 C 1071.39 1.64893 1.16853 0
M  V30 11109 C 1071.71 0.37456 1.91369 0
M  V30 11110 O 1070.98 -0.610128 1.86157 0
M  V30 11111 H 1069.56 0.607744 0.434345 0
M  V30 11112 H 1072.23 1.88816 0.483159 0
M  V30 11113 H 1071.32 2.48361 1.89006 0
M  V30 11114 N 1071.62 -0.679052 1.4222 0
M  V30 11115 C 1072.56 -1.80369 1.39794 0
M  V30 11116 C 1073.53 -1.60462 0.262806 0
M  V30 11117 O 1074.72 -1.82992 0.452352 0
M  V30 11118 C 1071.84 -3.17305 1.18471 0
M  V30 11119 C 1070.89 -3.55969 2.34922 0
M  V30 11120 S 1071.72 -3.58884 3.97445 0
M  V30 11121 C 1072.88 -4.98519 3.78457 0
M  V30 11122 H 1073.11 -1.82152 2.34964 0
M  V30 11123 H 1070.65 -0.84932 1.28942 0
M  V30 11124 H 1072.6 -3.96348 1.06856 0
M  V30 11125 H 1071.26 -3.13112 0.248944 0
M  V30 11126 H 1070.46 -4.55491 2.1574 0
M  V30 11127 H 1070.06 -2.84275 2.4303 0
M  V30 11128 H 1072.35 -5.86481 3.39184 0
M  V30 11129 H 1073.29 -5.22748 4.77641 0
M  V30 11130 H 1073.7 -4.70836 3.11406 0
M  V30 11131 N 1073.1 -1.28322 -0.914942 0
M  V30 11132 C 1074.03 -1.14681 -2.03398 0
M  V30 11133 C 1075.01 -0.0448939 -1.70041 0
M  V30 11134 O 1076.2 -0.221672 -1.92931 0
M  V30 11135 C 1073.33 -0.806623 -3.37803 0
M  V30 11136 C 1072.28 -1.86318 -3.85318 0
M  V30 11137 C 1071.61 -1.37665 -5.16674 0
M  V30 11138 C 1072.91 -3.26953 -4.07307 0
M  V30 11139 H 1074.6 -2.08293 -2.15068 0
M  V30 11140 H 1072.15 -1.00284 -1.03339 0
M  V30 11141 H 1074.1 -0.69796 -4.1558 0
M  V30 11142 H 1072.82 0.165203 -3.26182 0
M  V30 11143 H 1071.48 -1.96096 -3.09745 0
M  V30 11144 H 1071.13 -0.393927 -5.01455 0
M  V30 11145 H 1070.83 -2.08313 -5.49435 0
M  V30 11146 H 1072.35 -1.28119 -5.97007 0
M  V30 11147 H 1073.77 -3.20102 -4.75613 0
M  V30 11148 H 1072.17 -3.95424 -4.51398 0
M  V30 11149 H 1073.24 -3.71059 -3.12159 0
M  V30 11150 N 1074.58 1.12322 -1.10551 0
M  V30 11151 C 1075.99 1.35858 -0.837543 0
M  V30 11152 C 1076.19 1.94062 0.54241 0
M  V30 11153 O 1075.25 2.1676 1.29505 0
M  V30 11154 C 1076.56 2.299 -1.9382 0
M  V30 11155 C 1078.11 2.43488 -1.96679 0
M  V30 11156 C 1078.59 3.40846 -3.05922 0
M  V30 11157 N 1080.08 3.48404 -3.05236 0
M  V30 11158 C 1080.81 4.2365 -3.86405 0
M  V30 11159 N 1080.31 5.01951 -4.77512 0
M  V30 11160 N 1082.1 4.19068 -3.74618 0
M  V30 11161 H 1074.25 0.729002 -1.99498 0
M  V30 11162 H 1076.52 0.38339 -0.867016 0
M  V30 11163 H 1076.22 1.94309 -2.9315 0
M  V30 11164 H 1076.1 3.30033 -1.82641 0
M  V30 11165 H 1078.48 2.78359 -0.979813 0
M  V30 11166 H 1078.56 1.43239 -2.11934 0
M  V30 11167 H 1078.21 3.06704 -4.04839 0
M  V30 11168 H 1078.14 4.40927 -2.87907 0
M  V30 11169 H 1080.63 2.92545 -2.39219 0
M  V30 11170 H 1080.94 5.56707 -5.36002 0
M  V30 11171 H 1079.29 5.01143 -4.8154 0
M  V30 11172 H 1082.48 3.5698 -3.02792 0
M  V30 11173 H 1082.65 4.77455 -4.38111 0
M  V30 11174 N 1076.06 0.894434 1.2976 0
M  V30 11175 C 1077.3 0.516646 1.95385 0
M  V30 11176 C 1077.63 -0.939141 1.70895 0
M  V30 11177 O 1076.9 -1.66153 1.03778 0
M  V30 11178 H 1075.48 0.188072 0.722937 0
M  V30 11179 H 1078.14 1.13958 1.58113 0
M  V30 11180 H 1077.23 0.694819 3.04267 0
M  V30 11181 N 1077.53 -1.43282 0.656365 0
M  V30 11182 C 1078.78 -2.00996 0.168354 0
M  V30 11183 C 1079.1 -1.52408 -1.22601 0
M  V30 11184 O 1080.3 -2.02417 -1.80941 0
M  V30 11185 C 1078.76 -3.5903 0.250161 0
M  V30 11186 C 1078.37 -4.1661 1.64742 0
M  V30 11187 C 1080.11 -4.24118 -0.180084 0
M  V30 11188 C 1078.02 -5.66948 1.68299 0
M  V30 11189 H 1076.95 -0.751674 0.0591769 0
M  V30 11190 H 1079.6 -1.64216 0.818859 0
M  V30 11191 H 1077.98 -3.93226 -0.467908 0
M  V30 11192 H 1079.15 -3.93908 2.3911 0
M  V30 11193 H 1077.47 -3.63905 2.02391 0
M  V30 11194 H 1080.07 -5.34419 -0.173401 0
M  V30 11195 H 1080.41 -3.98264 -1.21208 0
M  V30 11196 H 1080.94 -3.94816 0.486343 0
M  V30 11197 H 1077.68 -5.97573 2.69419 0
M  V30 11198 H 1077.2 -5.91697 0.98261 0
M  V30 11199 H 1078.88 -6.31041 1.42813 0
M  V30 11200 N 1079.01 -0.398486 -1.52479 0
M  V30 11201 C 1079.98 0.420206 -2.25315 0
M  V30 11202 C 1080.98 0.982559 -1.27289 0
M  V30 11203 O 1082.17 0.863113 -1.51314 0
M  V30 11204 C 1079.3 1.59045 -3.01525 0
M  V30 11205 H 1080.49 -0.217599 -2.9911 0
M  V30 11206 H 1078.04 -0.150784 -1.55571 0
M  V30 11207 H 1078.78 2.26542 -2.32054 0
M  V30 11208 H 1078.56 1.19382 -3.73484 0
M  V30 11209 H 1080.05 2.16984 -3.56802 0
M  V30 11210 N 1080.49 1.57075 -0.12858 0
M  V30 11211 C 1081.45 2.14643 0.803813 0
M  V30 11212 C 1082.45 1.08363 1.18803 0
M  V30 11213 O 1083.64 1.34093 1.11197 0
M  V30 11214 C 1080.78 2.6945 2.08829 0
M  V30 11215 H 1081.97 2.98362 0.303347 0
M  V30 11216 H 1079.52 1.55833 0.120735 0
M  V30 11217 H 1080.26 1.89345 2.63285 0
M  V30 11218 H 1080.04 3.47187 1.82218 0
M  V30 11219 H 1081.53 3.13865 2.7546 0
M  V30 11220 N 1081.97 -0.145205 1.5693 0
M  V30 11221 C 1083.22 -0.855822 1.83085 0
M  V30 11222 C 1083.54 -1.81625 0.709747 0
M  V30 11223 O 1082.81 -1.94052 -0.268456 0
M  V30 11224 H 1081.39 -0.319032 0.675446 0
M  V30 11225 H 1084.05 -0.138781 1.94405 0
M  V30 11226 H 1083.15 -1.41698 2.78079 0
M  V30 11227 N 1083.45 -1.52049 -0.414609 0
M  V30 11228 C 1084.38 -1.69712 -1.52555 0
M  V30 11229 C 1085.36 -0.544681 -1.53206 0
M  V30 11230 O 1086.54 -0.771358 -1.71995 0
M  V30 11231 C 1083.67 -1.73145 -2.91099 0
M  V30 11232 C 1082.72 -2.94624 -3.08382 0
M  V30 11233 S 1083.55 -4.55062 -2.82274 0
M  V30 11234 C 1084.7 -4.61274 -4.23057 0
M  V30 11235 H 1084.94 -2.63675 -1.37342 0
M  V30 11236 H 1082.47 -1.42018 -0.605824 0
M  V30 11237 H 1084.43 -1.75808 -3.70947 0
M  V30 11238 H 1083.09 -0.803198 -3.03657 0
M  V30 11239 H 1082.28 -2.93492 -4.0973 0
M  V30 11240 H 1081.88 -2.8982 -2.36391 0
M  V30 11241 H 1084.18 -4.38313 -5.16612 0
M  V30 11242 H 1085.12 -5.63188 -4.29214 0
M  V30 11243 H 1085.53 -3.90361 -4.07773 0
M  V30 11244 N 1084.93 0.6715 -1.42579 0
M  V30 11245 C 1085.87 1.78496 -1.46314 0
M  V30 11246 C 1086.84 1.63091 -0.314743 0
M  V30 11247 O 1088.03 1.83597 -0.519292 0
M  V30 11248 C 1085.17 3.16548 -1.37447 0
M  V30 11249 C 1084.28 3.43216 -2.62348 0
M  V30 11250 C 1083.42 4.71014 -2.456 0
M  V30 11251 C 1082.45 4.90728 -3.65859 0
M  V30 11252 N 1081.59 6.09769 -3.48032 0
M  V30 11253 H 1086.43 1.74638 -2.41466 0
M  V30 11254 H 1083.97 0.852491 -1.19879 0
M  V30 11255 H 1085.93 3.96329 -1.30303 0
M  V30 11256 H 1084.56 3.19522 -0.458891 0
M  V30 11257 H 1083.61 2.57664 -2.79846 0
M  V30 11258 H 1084.92 3.53675 -3.51732 0
M  V30 11259 H 1084.07 5.58892 -2.3606 0
M  V30 11260 H 1082.81 4.62843 -1.53712 0
M  V30 11261 H 1081.82 4.01291 -3.75827 0
M  V30 11262 H 1083.04 5.00741 -4.58732 0
M  V30 11263 H 1080.99 6.02765 -2.58864 0
M  V30 11264 H 1080.91 6.21104 -4.31005 0
M  V30 11265 H 1082.17 7.00317 -3.42311 0
M  V30 11266 N 1086.4 1.28806 0.908124 0
M  V30 11267 C 1087.63 1.1898 1.689 0
M  V30 11268 C 1088.04 -0.253334 1.87496 0
M  V30 11269 O 1087.38 -1.18245 1.40584 0
M  V30 11270 C 1087.45 1.82266 3.0987 0
M  V30 11271 C 1087.11 3.31534 3.14538 0
M  V30 11272 C 1088.11 4.27886 2.95313 0
M  V30 11273 C 1085.79 3.72589 3.36872 0
M  V30 11274 C 1087.79 5.63267 2.98343 0
M  V30 11275 C 1085.47 5.08095 3.39534 0
M  V30 11276 C 1086.47 6.03244 3.2029 0
M  V30 11277 O 1086.16 7.36277 3.22724 0
M  V30 11278 H 1085.89 0.413772 0.534574 0
M  V30 11279 H 1088.45 1.7055 1.14464 0
M  V30 11280 H 1086.68 1.25197 3.65872 0
M  V30 11281 H 1088.36 1.6688 3.70008 0
M  V30 11282 H 1089.13 3.97502 2.77879 0
M  V30 11283 H 1085.01 2.98989 3.50894 0
M  V30 11284 H 1088.55 6.37511 2.83241 0
M  V30 11285 H 1084.45 5.38126 3.56497 0
M  V30 11286 H 1085.22 7.44976 3.39048 0
M  V30 11287 N 1087.88 -1.11734 1.11145 0
M  V30 11288 C 1088.81 -2.1976 0.789152 0
M  V30 11289 C 1089.79 -1.68382 -0.241143 0
M  V30 11290 O 1090.98 -1.93914 -0.105292 0
M  V30 11291 C 1088.11 -3.46549 0.228204 0
M  V30 11292 C 1087.06 -4.11123 1.19002 0
M  V30 11293 C 1086.39 -5.32451 0.489928 0
M  V30 11294 C 1087.69 -4.56406 2.53951 0
M  V30 11295 H 1089.38 -2.46978 1.69241 0
M  V30 11296 H 1086.93 -1.18705 0.81517 0
M  V30 11297 H 1088.88 -4.21399 -0.00945908 0
M  V30 11298 H 1087.6 -3.18782 -0.71033 0
M  V30 11299 H 1086.26 -3.38264 1.41326 0
M  V30 11300 H 1085.91 -5.00953 -0.453315 0
M  V30 11301 H 1085.61 -5.76605 1.1314 0
M  V30 11302 H 1087.14 -6.10042 0.260984 0
M  V30 11303 H 1088.55 -5.22592 2.35733 0
M  V30 11304 H 1086.95 -5.11363 3.14051 0
M  V30 11305 H 1088.02 -3.7001 3.13402 0
M  V30 11306 N 1089.36 -0.901303 -1.29284 0
M  V30 11307 C 1090.32 -0.385081 -2.25942 0
M  V30 11308 C 1091.32 0.481626 -1.53418 0
M  V30 11309 O 1092.51 0.286451 -1.71829 0
M  V30 11310 C 1089.64 0.449319 -3.37926 0
M  V30 11311 H 1090.84 -1.23877 -2.7312 0
M  V30 11312 H 1088.39 -0.679586 -1.40753 0
M  V30 11313 H 1089.13 1.32292 -2.9609 0
M  V30 11314 H 1088.91 -0.171731 -3.91724 0
M  V30 11315 H 1090.4 0.801746 -4.09831 0
M  V30 11316 N 1090.84 1.42931 -0.663954 0
M  V30 11317 C 1092.11 1.95284 -0.111174 0
M  V30 11318 C 1092.49 1.60484 1.37142 0
M  V30 11319 O 1091.84 0.895425 2.10225 0
M  V30 11320 C 1092.05 3.47046 -0.368789 0
M  V30 11321 C 1093.4 4.23679 -0.279473 0
M  V30 11322 O 1094.42 3.54918 -0.301937 0
M  V30 11323 O 1093.28 5.46087 -0.21236 0
M  V30 11324 H 1090.38 0.826993 0.00341718 0
M  V30 11325 H 1092.92 1.52816 -0.737935 0
M  V30 11326 H 1091.7 3.65541 -1.39626 0
M  V30 11327 H 1091.32 3.96537 0.290514 0
M  V30 11328 N 1092.32 0.406567 1.52266 0
M  V30 11329 C 1093.25 -0.464709 2.23418 0
M  V30 11330 C 1094.23 -1.05008 1.24146 0
M  V30 11331 O 1095.41 -1.09843 1.53188 0
M  V30 11332 C 1092.54 -1.64481 2.96081 0
M  V30 11333 C 1091.58 -1.18307 4.09763 0
M  V30 11334 S 1092.42 -0.150326 5.35289 0
M  V30 11335 C 1093.57 -1.3358 6.11479 0
M  V30 11336 H 1093.81 0.139455 2.96973 0
M  V30 11337 H 1091.34 0.19085 1.53216 0
M  V30 11338 H 1093.3 -2.3215 3.38551 0
M  V30 11339 H 1091.96 -2.22031 2.22174 0
M  V30 11340 H 1091.15 -2.06466 4.59769 0
M  V30 11341 H 1090.75 -0.58505 3.69396 0
M  V30 11342 H 1093.04 -2.25986 6.38699 0
M  V30 11343 H 1093.99 -0.876328 7.02656 0
M  V30 11344 H 1094.4 -1.56044 5.42504 0
M  V30 11345 N 1093.79 -1.57004 0.136909 0
M  V30 11346 C 1094.74 -2.17524 -0.823784 0
M  V30 11347 C 1095.74 -1.1294 -1.26258 0
M  V30 11348 O 1096.94 -1.3121 -1.23223 0
M  V30 11349 H 1093.32 -0.696381 -0.283827 0
M  V30 11350 H 1095.29 -2.96997 -0.289052 0
M  V30 11351 C 1094.04 -2.80331 -2.05693 0
M  V30 11352 H 1093.36 -3.60515 -1.72825 0
M  V30 11353 H 1094.8 -3.26192 -2.70878 0
M  V30 11354 C 1093.26 -1.78322 -2.85837 0
M  V30 11355 O 1093.79 -1.2475 -3.81838 0
M  V30 11356 N 1092 -1.47854 -2.50175 0
M  V30 11357 H 1091.54 -1.9161 -1.72173 0
M  V30 11358 H 1091.5 -0.798464 -3.04092 0
M  V30 11359 N 1095.27 0.136881 -1.57004 0
M  V30 11360 C 1096.5 0.861186 -1.87796 0
M  V30 11361 C 1096.91 1.74788 -0.724272 0
M  V30 11362 O 1096.25 1.80984 0.31471 0
M  V30 11363 C 1096.32 1.76115 -3.13407 0
M  V30 11364 C 1095.98 1.05059 -4.4476 0
M  V30 11365 C 1096.98 0.399736 -5.18361 0
M  V30 11366 C 1094.66 1.03709 -4.91477 0
M  V30 11367 C 1096.66 -0.255127 -6.36889 0
M  V30 11368 C 1094.34 0.378414 -6.09927 0
M  V30 11369 C 1095.34 -0.266555 -6.8248 0
M  V30 11370 O 1095.03 -0.914757 -7.98679 0
M  V30 11371 H 1094.76 0.253855 -0.626525 0
M  V30 11372 H 1097.31 0.131291 -2.0498 0
M  V30 11373 H 1095.54 2.53224 -2.92257 0
M  V30 11374 H 1097.23 2.3583 -3.30362 0
M  V30 11375 H 1098 0.401909 -4.83332 0
M  V30 11376 H 1093.88 1.52852 -4.34922 0
M  V30 11377 H 1097.42 -0.759135 -6.93457 0
M  V30 11378 H 1093.32 0.373942 -6.44416 0
M  V30 11379 H 1094.09 -0.817437 -8.14408 0
M  V30 11380 N 1096.75 1.52266 0.40654 0
M  V30 11381 C 1098 1.66699 1.15496 0
M  V30 11382 C 1098.33 0.397019 1.90098 0
M  V30 11383 O 1097.6 -0.604646 1.84863 0
M  V30 11384 C 1097.89 2.8907 2.14734 0
M  V30 11385 C 1097.74 4.26123 1.44012 0
M  V30 11386 C 1099.06 3.06966 3.15373 0
M  V30 11387 H 1096.18 0.606642 0.418515 0
M  V30 11388 H 1098.82 1.84826 0.440381 0
M  V30 11389 H 1096.97 2.73745 2.75673 0
M  V30 11390 H 1098.64 4.5318 0.861722 0
M  V30 11391 H 1096.89 4.27406 0.742064 0
M  V30 11392 H 1097.56 5.07799 2.16436 0
M  V30 11393 H 1100.03 3.21205 2.64512 0
M  V30 11394 H 1098.91 3.94097 3.82072 0
M  V30 11395 H 1099.17 2.20395 3.83247 0
M  V30 11396 N 1098.23 -0.663929 1.42933 0
M  V30 11397 C 1099.18 -1.77007 1.4371 0
M  V30 11398 C 1100.16 -1.57945 0.306948 0
M  V30 11399 O 1101.35 -1.68239 0.549967 0
M  V30 11400 C 1098.48 -3.15535 1.3525 0
M  V30 11401 C 1097.57 -3.40183 2.53252 0
M  V30 11402 N 1097.96 -3.35357 3.78641 0
M  V30 11403 C 1096.26 -3.70861 2.47746 0
M  V30 11404 C 1096.96 -3.5979 4.57085 0
M  V30 11405 N 1095.94 -3.81084 3.87655 0
M  V30 11406 H 1099.74 -1.71686 2.3854 0
M  V30 11407 H 1097.25 -0.865191 1.37434 0
M  V30 11408 H 1099.25 -3.94816 1.33888 0
M  V30 11409 H 1097.91 -3.22046 0.414308 0
M  V30 11410 H 1098.92 -3.15011 4.11082 0
M  V30 11411 H 1095.6 -3.84552 1.62561 0
M  V30 11412 H 1096.99 -3.61928 5.6609 0
M  V30 11413 N 1099.71 -1.29285 -0.901281 0
M  V30 11414 C 1101.12 -1.07263 -1.18182 0
M  V30 11415 C 1101.32 0.177087 -2.0072 0
M  V30 11416 O 1100.38 0.875292 -2.36844 0
M  V30 11417 C 1101.69 -2.32717 -1.9043 0
M  V30 11418 C 1103.24 -2.3802 -2.03262 0
M  V30 11419 C 1103.71 -3.63273 -2.7892 0
M  V30 11420 N 1105.21 -3.63986 -2.86475 0
M  V30 11421 C 1105.94 -4.57585 -3.45549 0
M  V30 11422 N 1105.44 -5.61513 -4.05801 0
M  V30 11423 N 1107.23 -4.45157 -3.43208 0
M  V30 11424 H 1099.38 -2.09487 -0.350536 0
M  V30 11425 H 1101.64 -0.922647 -0.217778 0
M  V30 11426 H 1101.35 -3.23828 -1.37216 0
M  V30 11427 H 1101.22 -2.40102 -2.90913 0
M  V30 11428 H 1103.61 -1.47398 -2.55652 0
M  V30 11429 H 1103.69 -2.3462 -1.01916 0
M  V30 11430 H 1103.34 -4.54246 -2.27206 0
M  V30 11431 H 1103.27 -3.6393 -3.80608 0
M  V30 11432 H 1105.76 -2.8884 -2.43679 0
M  V30 11433 H 1106.07 -6.29058 -4.48894 0
M  V30 11434 H 1104.41 -5.65325 -4.04268 0
M  V30 11435 H 1107.61 -3.63158 -2.95354 0
M  V30 11436 H 1107.78 -5.18286 -3.88952 0
M  V30 11437 N 1101.18 1.11143 -1.11736 0
M  V30 11438 C 1102.46 1.79384 -0.779785 0
M  V30 11439 C 1102.84 1.98015 0.731668 0
M  V30 11440 O 1102.19 1.56731 1.66276 0
M  V30 11441 C 1102.4 3.12868 -1.54643 0
M  V30 11442 C 1103.75 3.8786 -1.7277 0
M  V30 11443 O 1104.77 3.22566 -1.51094 0
M  V30 11444 O 1103.63 5.05034 -2.08813 0
M  V30 11445 H 1100.72 0.777128 -0.282845 0
M  V30 11446 H 1103.27 1.17858 -1.22096 0
M  V30 11447 H 1102.04 2.94682 -2.57446 0
M  V30 11448 H 1101.67 3.82109 -1.09901 0
M  V30 11449 N 1102.66 0.908147 1.28804 0
M  V30 11450 C 1103.59 0.409106 2.29888 0
M  V30 11451 C 1104.57 -0.520338 1.61946 0
M  V30 11452 O 1105.76 -0.429268 1.89396 0
M  V30 11453 C 1102.89 -0.35669 3.45463 0
M  V30 11454 C 1101.84 0.4831 4.25265 0
M  V30 11455 C 1101.17 -0.4107 5.3312 0
M  V30 11456 C 1102.47 1.73744 4.92555 0
M  V30 11457 H 1104.16 1.25386 2.7188 0
M  V30 11458 H 1101.71 0.604368 1.30703 0
M  V30 11459 H 1103.66 -0.71661 4.15262 0
M  V30 11460 H 1102.39 -1.2353 3.02337 0
M  V30 11461 H 1101.04 0.825464 3.57186 0
M  V30 11462 H 1100.69 -1.28769 4.86238 0
M  V30 11463 H 1100.39 0.14756 5.87415 0
M  V30 11464 H 1101.92 -0.766626 6.05768 0
M  V30 11465 H 1103.33 1.44676 5.54745 0
M  V30 11466 H 1101.73 2.23767 5.5682 0
M  V30 11467 H 1102.8 2.46853 4.17363 0
M  V30 11468 N 1104.14 -1.42577 0.671525 0
M  V30 11469 C 1105.1 -2.292 0.000392482 0
M  V30 11470 C 1106.1 -1.43158 -0.732294 0
M  V30 11471 O 1107.29 -1.64583 -0.570789 0
M  V30 11472 C 1104.43 -3.25591 -1.01013 0
M  V30 11473 H 1105.62 -2.90037 0.762783 0
M  V30 11474 H 1103.17 -1.50162 0.433703 0
M  V30 11475 H 1103.91 -2.69685 -1.80112 0
M  V30 11476 H 1103.69 -3.89049 -0.488183 0
M  V30 11477 H 1105.18 -3.90561 -1.47824 0
M  V30 11478 N 1105.62 -0.414636 -1.52048 0
M  V30 11479 C 1106.58 0.396285 -2.25748 0
M  V30 11480 C 1107.58 0.969003 -1.28324 0
M  V30 11481 O 1108.77 0.847016 -1.52221 0
M  V30 11482 C 1105.9 1.55838 -3.03195 0
M  V30 11483 H 1107.1 -0.249311 -2.98862 0
M  V30 11484 H 1104.65 -0.167276 -1.55402 0
M  V30 11485 H 1105.38 2.24068 -2.34444 0
M  V30 11486 H 1105.17 1.15414 -3.74729 0
M  V30 11487 H 1106.66 2.13187 -3.59084 0
M  V30 11488 N 1107.1 1.56929 -0.145233 0
M  V30 11489 C 1108.51 1.58196 0.211194 0
M  V30 11490 C 1108.71 1.15941 1.64803 0
M  V30 11491 O 1107.77 0.858888 2.37443 0
M  V30 11492 C 1109.08 3.00665 -0.0459569 0
M  V30 11493 C 1110.63 3.12995 0.0178913 0
M  V30 11494 C 1111.1 4.5751 -0.211905 0
M  V30 11495 N 1112.6 4.62928 -0.158772 0
M  V30 11496 C 1113.33 5.72555 -0.311111 0
M  V30 11497 N 1112.83 6.90838 -0.521074 0
M  V30 11498 N 1114.62 5.61549 -0.248838 0
M  V30 11499 H 1106.77 1.8269 -1.08342 0
M  V30 11500 H 1109.03 0.845514 -0.428731 0
M  V30 11501 H 1108.74 3.35962 -1.0403 0
M  V30 11502 H 1108.61 3.71125 0.674246 0
M  V30 11503 H 1111 2.7754 1.00278 0
M  V30 11504 H 1111.08 2.45025 -0.734612 0
M  V30 11505 H 1110.73 4.93669 -1.19389 0
M  V30 11506 H 1110.66 5.23604 0.560901 0
M  V30 11507 H 1113.15 3.779 -0.00107283 0
M  V30 11508 H 1113.46 7.70248 -0.62747 0
M  V30 11509 H 1111.8 6.92761 -0.557374 0
M  V30 11510 H 1115 4.68022 -0.0855821 0
M  V30 11511 H 1115.17 6.46937 -0.370997 0
M  V30 11512 N 1108.58 -0.128553 1.57075 0
M  V30 11513 C 1109.52 -1.17719 2.00611 0
M  V30 11514 C 1110.52 -1.43423 0.90146 0
M  V30 11515 O 1111.72 -1.43498 1.08666 0
M  V30 11516 H 1108.1 -0.396683 0.638864 0
M  V30 11517 H 1110.07 -0.783437 2.87932 0
M  V30 11518 C 1108.82 -2.49826 2.41831 0
M  V30 11519 H 1108.14 -2.30883 3.26394 0
M  V30 11520 H 1109.58 -3.21784 2.761 0
M  V30 11521 C 1108.04 -3.11712 1.27816 0
M  V30 11522 O 1108.57 -3.9736 0.588917 0
M  V30 11523 N 1106.78 -2.71442 1.03767 0
M  V30 11524 H 1106.32 -2.01891 1.59994 0
M  V30 11525 H 1106.28 -3.1318 0.276743 0
M  V30 11526 N 1110.05 -1.5248 -0.398459 0
M  V30 11527 C 1111.3 -1.66287 -1.14155 0
M  V30 11528 C 1111.62 -0.40429 -1.91376 0
M  V30 11529 O 1112.82 -0.422341 -2.68195 0
M  V30 11530 C 1111.28 -2.93831 -2.07825 0
M  V30 11531 C 1110.89 -4.26836 -1.3607 0
M  V30 11532 C 1112.63 -3.17004 -2.82327 0
M  V30 11533 C 1110.54 -5.45495 -2.28451 0
M  V30 11534 H 1109.47 -0.619478 -0.42984 0
M  V30 11535 H 1112.12 -1.78972 -0.405112 0
M  V30 11536 H 1110.5 -2.7487 -2.85065 0
M  V30 11537 H 1111.67 -4.56317 -0.641205 0
M  V30 11538 H 1109.99 -4.0985 -0.735659 0
M  V30 11539 H 1112.59 -4.02834 -3.51609 0
M  V30 11540 H 1112.93 -2.3168 -3.45876 0
M  V30 11541 H 1113.46 -3.36487 -2.12183 0
M  V30 11542 H 1110.2 -6.33198 -1.69532 0
M  V30 11543 H 1109.72 -5.20338 -2.98343 0
M  V30 11544 H 1111.4 -5.78996 -2.88743 0
M  V30 11545 N 1111.53 0.65634 -1.43283 0
M  V30 11546 C 1112.46 1.78101 -1.51004 0
M  V30 11547 C 1113.44 1.66138 -0.36498 0
M  V30 11548 O 1114.63 1.85281 -0.581778 0
M  V30 11549 C 1111.76 3.16511 -1.42961 0
M  V30 11550 C 1110.71 3.43233 -2.55685 0
M  V30 11551 C 1110.04 4.81411 -2.32696 0
M  V30 11552 C 1111.34 3.38288 -3.97943 0
M  V30 11553 H 1113.03 1.71896 -2.45137 0
M  V30 11554 H 1110.58 0.825575 -1.17984 0
M  V30 11555 H 1112.53 3.94941 -1.46968 0
M  V30 11556 H 1111.25 3.23439 -0.45332 0
M  V30 11557 H 1109.91 2.67173 -2.51026 0
M  V30 11558 H 1109.56 4.85011 -1.33317 0
M  V30 11559 H 1109.26 5.00251 -3.08257 0
M  V30 11560 H 1110.79 5.62102 -2.38481 0
M  V30 11561 H 1112.2 4.06659 -4.04106 0
M  V30 11562 H 1110.6 3.68664 -4.73505 0
M  V30 11563 H 1111.67 2.36525 -4.23301 0
M  V30 11564 N 1113.01 1.29761 0.894412 0
M  V30 11565 C 1114.26 1.18214 1.64782 0
M  V30 11566 C 1114.59 -0.264635 1.92388 0
M  V30 11567 O 1113.86 -1.19051 1.53809 0
M  V30 11568 C 1114.15 2.00138 2.99361 0
M  V30 11569 C 1114 3.52984 2.78787 0
M  V30 11570 C 1115.32 1.83187 4.00163 0
M  V30 11571 H 1112.44 0.430802 0.597979 0
M  V30 11572 H 1115.08 1.59292 1.03566 0
M  V30 11573 H 1113.23 1.65233 3.51611 0
M  V30 11574 H 1114.9 3.97898 2.33398 0
M  V30 11575 H 1113.14 3.77642 2.13469 0
M  V30 11576 H 1113.82 4.05585 3.7444 0
M  V30 11577 H 1116.29 2.13684 3.57041 0
M  V30 11578 H 1115.17 2.42849 4.92255 0
M  V30 11579 H 1115.43 0.788469 4.35012 0
M  V30 11580 N 1114.49 -1.10549 1.12324 0
M  V30 11581 C 1115.44 -2.18944 0.785248 0
M  V30 11582 C 1116.43 -1.67867 -0.227389 0
M  V30 11583 O 1117.64 -1.79796 -0.0857162 0
M  V30 11584 H 1114.01 -0.713976 0.236098 0
M  V30 11585 H 1115.98 -2.44692 1.70788 0
M  V30 11586 C 1114.73 -3.46765 0.25485 0
M  V30 11587 H 1114.05 -3.86428 1.02534 0
M  V30 11588 H 1115.49 -4.23962 0.0566526 0
M  V30 11589 C 1113.95 -3.21185 -1.01695 0
M  V30 11590 O 1114.48 -3.42745 -2.09497 0
M  V30 11591 N 1112.69 -2.7486 -0.943423 0
M  V30 11592 H 1112.24 -2.57515 -0.0660366 0
M  V30 11593 H 1112.19 -2.58122 -1.795 0
M  V30 11594 N 1115.97 -0.914965 -1.28321 0
M  V30 11595 C 1117.19 -0.564023 -1.99583 0
M  V30 11596 C 1117.62 0.847821 -1.6791 0
M  V30 11597 O 1116.97 1.56682 -0.912171 0
M  V30 11598 C 1117.02 -0.781368 -3.52033 0
M  V30 11599 O 1116.13 0.159072 -4.12093 0
M  V30 11600 H 1115.47 -0.218565 -0.626997 0
M  V30 11601 H 1118 -1.23074 -1.63444 0
M  V30 11602 H 1118.01 -0.691946 -4.0209 0
M  V30 11603 H 1116.68 -1.81059 -3.7442 0
M  V30 11604 H 1115.26 0.0208145 -3.72894 0
M  V30 11605 N 1117.44 1.42219 -0.679077 0
M  V30 11606 C 1118.39 2.32599 0.00820028 0
M  V30 11607 C 1119.39 1.50059 0.786046 0
M  V30 11608 O 1120.59 1.66103 0.693528 0
M  V30 11609 H 1116.97 0.751694 0.0214483 0
M  V30 11610 H 1118.94 2.88257 -0.77138 0
M  V30 11611 C 1117.69 3.3468 0.942581 0
M  V30 11612 H 1117.01 3.98234 0.353463 0
M  V30 11613 H 1118.45 4.00496 1.39208 0
M  V30 11614 C 1116.91 2.67275 2.05099 0
M  V30 11615 O 1117.44 2.50793 3.13793 0
M  V30 11616 N 1115.64 2.26232 1.82394 0
M  V30 11617 H 1115.19 2.39838 0.939983 0
M  V30 11618 H 1115.15 1.81465 2.56744 0
M  V30 11619 N 1118.92 0.422693 1.51826 0
M  V30 11620 C 1119.85 -0.386913 2.30272 0
M  V30 11621 C 1120.83 -1.03411 1.35056 0
M  V30 11622 O 1122.02 -1.04055 1.6397 0
M  V30 11623 C 1119.15 -1.49645 3.13407 0
M  V30 11624 C 1118.1 -0.973532 4.16781 0
M  V30 11625 C 1117.43 -2.1777 4.88344 0
M  V30 11626 C 1118.73 -0.0181194 5.22297 0
M  V30 11627 H 1120.42 0.267697 2.98201 0
M  V30 11628 H 1117.97 0.130186 1.4341 0
M  V30 11629 H 1119.92 -2.06993 3.67059 0
M  V30 11630 H 1118.64 -2.17914 2.43272 0
M  V30 11631 H 1117.3 -0.42237 3.64159 0
M  V30 11632 H 1116.95 -2.84625 4.14726 0
M  V30 11633 H 1116.65 -1.83427 5.58237 0
M  V30 11634 H 1118.18 -2.75699 5.44814 0
M  V30 11635 H 1119.59 -0.500822 5.71108 0
M  V30 11636 H 1117.99 0.237163 5.99631 0
M  V30 11637 H 1119.06 0.923065 4.76033 0
M  V30 11638 N 1120.4 -1.5685 0.153553 0
M  V30 11639 C 1121.65 -1.96625 -0.49665 0
M  V30 11640 C 1121.98 -1.03877 -1.64083 0
M  V30 11641 O 1121.25 -0.0824112 -1.94325 0
M  V30 11642 C 1121.54 -3.46035 -0.996585 0
M  V30 11643 C 1121.39 -4.49561 0.146551 0
M  V30 11644 C 1122.71 -3.98104 -1.8762 0
M  V30 11645 H 1119.83 -0.714917 -0.179059 0
M  V30 11646 H 1122.47 -1.88527 0.236104 0
M  V30 11647 H 1120.62 -3.53066 -1.621 0
M  V30 11648 H 1122.29 -4.54604 0.783108 0
M  V30 11649 H 1120.53 -4.26271 0.804727 0
M  V30 11650 H 1121.21 -5.51456 -0.245078 0
M  V30 11651 H 1123.68 -3.93593 -1.34997 0
M  V30 11652 H 1122.56 -5.03098 -2.19508 0
M  V30 11653 H 1122.82 -3.40852 -2.81554 0
M  V30 11654 N 1121.88 0.120221 -1.57141 0
M  V30 11655 C 1123.12 0.834128 -1.86606 0
M  V30 11656 C 1123.48 1.77109 -0.741383 0
M  V30 11657 O 1124.68 2.52647 -0.917769 0
M  V30 11658 C 1122.95 1.56536 -3.21296 0
M  V30 11659 S 1124.51 2.32101 -3.7239 0
M  V30 11660 H 1121.33 0.278419 -0.65422 0
M  V30 11661 H 1123.93 0.0925474 -1.95281 0
M  V30 11662 H 1122.64 0.868987 -4.01094 0
M  V30 11663 H 1122.17 2.34734 -3.15696 0
M  V30 11664 H 1124.18 3.57799 -3.43794 0
M  V30 11665 N 1123.36 1.52689 0.390367 0
M  V30 11666 C 1124.3 1.7737 1.47677 0
M  V30 11667 C 1125.27 0.616864 1.54221 0
M  V30 11668 O 1126.46 0.856437 1.70499 0
M  V30 11669 C 1123.6 1.94715 2.84921 0
M  V30 11670 C 1122.71 3.22405 2.8754 0
M  V30 11671 C 1121.85 3.30074 4.16202 0
M  V30 11672 C 1120.89 4.51893 4.12867 0
M  V30 11673 N 1120.02 4.56851 5.33134 0
M  V30 11674 H 1124.86 2.70084 1.25932 0
M  V30 11675 H 1122.4 1.33813 0.610943 0
M  V30 11676 H 1124.36 2.02755 3.64618 0
M  V30 11677 H 1122.99 1.05363 3.0512 0
M  V30 11678 H 1122.04 3.23442 2.00223 0
M  V30 11679 H 1123.35 4.12156 2.80943 0
M  V30 11680 H 1122.51 3.3729 5.04302 0
M  V30 11681 H 1121.24 2.38295 4.25519 0
M  V30 11682 H 1120.25 4.44803 3.23156 0
M  V30 11683 H 1121.47 5.44987 4.05174 0
M  V30 11684 H 1119.42 3.67963 5.43083 0
M  V30 11685 H 1119.34 5.40472 5.28607 0
M  V30 11686 H 1120.61 4.6832 6.23134 0
M  V30 11687 N 1124.83 -0.648732 1.43629 0
M  V30 11688 C 1126.08 -1.41066 1.45699 0
M  V30 11689 C 1126.41 -1.94024 0.082612 0
M  V30 11690 O 1125.69 -1.7257 -0.897207 0
M  V30 11691 C 1125.97 -2.58882 2.50304 0
M  V30 11692 C 1125.82 -2.11387 3.97033 0
M  V30 11693 C 1127.14 -3.61092 2.51597 0
M  V30 11694 H 1124.26 -0.511591 0.530512 0
M  V30 11695 H 1126.9 -0.735069 1.75205 0
M  V30 11696 H 1125.05 -3.16518 2.25274 0
M  V30 11697 H 1126.73 -1.58718 4.33136 0
M  V30 11698 H 1124.97 -1.4272 4.0965 0
M  V30 11699 H 1125.64 -2.96129 4.65845 0
M  V30 11700 H 1128.12 -3.13223 2.73917 0
M  V30 11701 H 1126.99 -4.41071 3.26722 0
M  V30 11702 H 1127.25 -4.13985 1.55141 0
M  V30 11703 N 1126.31 -1.30234 -0.887518 0
M  V30 11704 C 1127.54 -1.21955 -1.67755 0
M  V30 11705 C 1127.96 0.214701 -1.86871 0
M  V30 11706 O 1127.32 1.15459 -1.39782 0
M  V30 11707 C 1127.37 -1.95079 -3.03276 0
M  V30 11708 O 1126.47 -1.27615 -3.92158 0
M  V30 11709 H 1125.81 -0.421948 -0.512695 0
M  V30 11710 H 1128.34 -1.72011 -1.10785 0
M  V30 11711 H 1128.35 -2.04004 -3.53336 0
M  V30 11712 H 1127.03 -2.99392 -2.88682 0
M  V30 11713 H 1125.61 -1.27029 -3.50597 0
M  V30 11714 N 1127.79 1.09952 -1.12909 0
M  V30 11715 C 1129.07 1.78547 -0.798767 0
M  V30 11716 C 1129.45 1.9878 0.710624 0
M  V30 11717 O 1128.8 1.58485 1.64604 0
M  V30 11718 C 1129.01 3.1121 -1.57953 0
M  V30 11719 C 1130.35 3.86006 -1.76874 0
M  V30 11720 O 1131.38 3.20946 -1.54506 0
M  V30 11721 O 1130.24 5.02791 -2.14158 0
M  V30 11722 H 1127.33 0.774084 -0.291072 0
M  V30 11723 H 1129.88 1.16557 -1.2334 0
M  V30 11724 H 1128.65 2.91935 -2.60557 0
M  V30 11725 H 1128.27 3.80922 -1.13948 0
M  V30 11726 N 1129.27 0.921757 1.27833 0
M  V30 11727 C 1130.52 0.559078 1.94629 0
M  V30 11728 C 1130.84 -0.898641 1.72495 0
M  V30 11729 O 1130.1 -1.65546 1.0437 0
M  V30 11730 C 1130.4 0.824259 3.47765 0
M  V30 11731 C 1130.06 2.26278 3.90011 0
M  V30 11732 C 1128.73 2.65607 4.01256 0
M  V30 11733 C 1131.08 3.19853 4.11513 0
M  V30 11734 C 1128.41 3.97646 4.31387 0
M  V30 11735 C 1130.76 4.51467 4.43126 0
M  V30 11736 C 1129.42 4.90637 4.52583 0
M  V30 11737 H 1128.69 0.204581 0.712199 0
M  V30 11738 H 1131.34 1.1646 1.52018 0
M  V30 11739 H 1129.64 0.136011 3.91564 0
M  V30 11740 H 1131.34 0.522701 3.97579 0
M  V30 11741 H 1127.93 1.94765 3.81791 0
M  V30 11742 H 1132.11 2.90674 4.02271 0
M  V30 11743 H 1127.37 4.27685 4.36916 0
M  V30 11744 H 1131.54 5.23982 4.58711 0
M  V30 11745 H 1129.17 5.92982 4.75685 0
M  V30 11746 N 1130.75 -1.41857 0.686609 0
M  V30 11747 C 1131.99 -2.0097 0.213378 0
M  V30 11748 C 1132.32 -1.54618 -1.1882 0
M  V30 11749 O 1131.59 -0.772916 -1.80008 0
M  V30 11750 H 1130.17 -0.743134 0.0758968 0
M  V30 11751 H 1132.83 -1.73609 0.885763 0
M  V30 11752 H 1131.92 -3.11296 0.223826 0
M  V30 11753 N 1132.22 -0.430739 -1.51599 0
M  V30 11754 C 1133.15 0.374695 -2.30474 0
M  V30 11755 C 1134.14 1.02694 -1.35602 0
M  V30 11756 O 1135.32 1.03184 -1.6452 0
M  V30 11757 C 1132.45 1.47981 -3.14196 0
M  V30 11758 C 1131.4 0.951415 -4.17291 0
M  V30 11759 C 1130.73 2.15177 -4.89492 0
M  V30 11760 C 1132.03 -0.00957951 -5.22299 0
M  V30 11761 H 1133.72 -0.283508 -2.98055 0
M  V30 11762 H 1131.27 -0.13779 -1.43339 0
M  V30 11763 H 1133.22 2.05043 -3.68151 0
M  V30 11764 H 1131.95 2.16621 -2.44424 0
M  V30 11765 H 1130.61 0.403052 -3.64378 0
M  V30 11766 H 1130.25 2.82421 -4.1623 0
M  V30 11767 H 1129.95 1.80464 -5.59202 0
M  V30 11768 H 1131.48 2.72806 -5.46269 0
M  V30 11769 H 1132.89 0.470527 -5.71366 0
M  V30 11770 H 1131.29 -0.268959 -5.99497 0
M  V30 11771 H 1132.36 -0.948297 -4.75537 0
M  V30 11772 N 1133.7 1.56767 -0.161869 0
M  V30 11773 C 1134.93 2.01401 0.49523 0
M  V30 11774 C 1135.35 1.04133 1.56646 0
M  V30 11775 O 1134.71 0.0193747 1.8129 0
M  V30 11776 C 1134.76 3.44695 1.05913 0
M  V30 11777 O 1133.86 3.50475 2.1735 0
M  V30 11778 H 1133.2 0.65314 0.1196 0
M  V30 11779 H 1135.73 2.02903 -0.26298 0
M  V30 11780 H 1135.74 3.83805 1.3841 0
M  V30 11781 H 1134.42 4.14991 0.274749 0
M  V30 11782 H 1133 3.23218 1.85969 0
M  V30 11783 N 1135.18 -0.111886 1.57202 0
M  V30 11784 C 1136.6 -0.465629 1.52657 0
M  V30 11785 C 1136.8 -1.81463 0.875989 0
M  V30 11786 O 1135.85 -2.4825 0.461345 0
M  V30 11787 C 1137.17 -0.443571 2.9741 0
M  V30 11788 C 1138.71 -0.52662 3.08538 0
M  V30 11789 C 1139.19 -0.53488 4.54866 0
M  V30 11790 N 1140.68 -0.596117 4.59348 0
M  V30 11791 C 1141.41 -0.624073 5.69994 0
M  V30 11792 N 1140.91 -0.609245 6.90116 0
M  V30 11793 N 1142.7 -0.667619 5.58121 0
M  V30 11794 H 1134.85 0.771925 1.97876 0
M  V30 11795 H 1137.12 0.285534 0.903977 0
M  V30 11796 H 1136.82 0.480138 3.48407 0
M  V30 11797 H 1136.7 -1.26876 3.55221 0
M  V30 11798 H 1139.08 -1.44075 2.57539 0
M  V30 11799 H 1139.17 0.326396 2.53709 0
M  V30 11800 H 1138.81 0.375233 5.06512 0
M  V30 11801 H 1138.74 -1.40488 5.07514 0
M  V30 11802 H 1141.23 -0.613452 3.72888 0
M  V30 11803 H 1141.54 -0.633396 7.702 0
M  V30 11804 H 1139.89 -0.576557 6.92604 0
M  V30 11805 H 1143.08 -0.676616 4.63184 0
M  V30 11806 H 1143.25 -0.685938 6.44359 0
M  V30 11807 N 1136.66 -1.52894 -0.382264 0
M  V30 11808 C 1137.91 -1.68266 -1.12663 0
M  V30 11809 C 1138.23 -0.425974 -1.89778 0
M  V30 11810 O 1137.49 0.59178 -1.86538 0
M  V30 11811 C 1137.79 -2.87309 -2.12576 0
M  V30 11812 C 1137.45 -4.24484 -1.52067 0
M  V30 11813 C 1136.12 -4.6179 -1.35292 0
M  V30 11814 C 1138.47 -5.09858 -1.08138 0
M  V30 11815 C 1135.8 -5.82123 -0.731449 0
M  V30 11816 C 1138.15 -6.30822 -0.473986 0
M  V30 11817 C 1136.81 -6.66854 -0.293585 0
M  V30 11818 H 1136.08 -0.615728 -0.412262 0
M  V30 11819 H 1138.73 -1.8705 -0.410425 0
M  V30 11820 H 1137.03 -2.62968 -2.90439 0
M  V30 11821 H 1138.73 -2.96397 -2.70092 0
M  V30 11822 H 1135.32 -3.951 -1.66114 0
M  V30 11823 H 1139.5 -4.816 -1.19898 0
M  V30 11824 H 1134.76 -6.08643 -0.579938 0
M  V30 11825 H 1138.93 -6.96287 -0.125324 0
M  V30 11826 H 1136.56 -7.59962 0.190054 0
M  V30 11827 N 1138.14 0.641106 -1.43971 0
M  V30 11828 C 1139.07 1.76489 -1.52885 0
M  V30 11829 C 1140.05 1.65742 -0.38258 0
M  V30 11830 O 1141.23 1.84653 -0.601397 0
M  V30 11831 C 1138.36 3.14977 -1.4631 0
M  V30 11832 C 1137.32 3.40502 -2.59311 0
M  V30 11833 C 1136.64 4.78916 -2.37789 0
M  V30 11834 C 1137.94 3.34048 -4.01509 0
M  V30 11835 H 1139.64 1.69286 -2.46946 0
M  V30 11836 H 1137.18 0.813015 -1.18853 0
M  V30 11837 H 1139.14 3.9336 -1.51149 0
M  V30 11838 H 1137.86 3.2294 -0.487599 0
M  V30 11839 H 1136.52 2.64495 -2.53846 0
M  V30 11840 H 1136.17 4.8357 -1.38454 0
M  V30 11841 H 1135.87 4.96954 -3.13545 0
M  V30 11842 H 1137.39 5.59541 -2.4443 0
M  V30 11843 H 1138.81 4.0235 -4.08396 0
M  V30 11844 H 1137.2 3.63622 -4.77388 0
M  V30 11845 H 1138.27 2.32022 -4.25786 0
M  V30 11846 N 1139.62 1.30703 0.880598 0
M  V30 11847 C 1140.53 1.19389 2.01949 0
M  V30 11848 C 1141.54 0.112868 1.73634 0
M  V30 11849 O 1142.72 0.328643 1.98701 0
M  V30 11850 C 1139.78 0.891004 3.35055 0
M  V30 11851 C 1138.84 2.05784 3.76764 0
M  V30 11852 C 1138.08 1.76931 5.03519 0
M  V30 11853 O 1138.3 0.699326 5.66097 0
M  V30 11854 O 1137.23 2.623 5.4174 0
M  V30 11855 H 1141.06 2.15073 2.14423 0
M  V30 11856 H 1138.64 1.10339 1.00726 0
M  V30 11857 H 1140.53 0.737476 4.14897 0
M  V30 11858 H 1139.2 -0.0358909 3.2368 0
M  V30 11859 H 1138.11 2.26672 2.97608 0
M  V30 11860 H 1139.44 2.96661 3.9275 0
M  V30 11861 N 1141.09 -1.09351 1.1349 0
M  V30 11862 C 1142.37 -1.78121 0.808225 0
M  V30 11863 C 1142.75 -1.99154 -0.700072 0
M  V30 11864 O 1142.1 -1.59356 -1.63762 0
M  V30 11865 C 1142.31 -3.10368 1.59601 0
M  V30 11866 C 1143.66 -3.85063 1.78919 0
M  V30 11867 O 1144.68 -3.20122 1.56206 0
M  V30 11868 O 1143.54 -5.01648 2.16821 0
M  V30 11869 H 1140.63 -0.77253 0.295173 0
M  V30 11870 H 1143.18 -1.15901 1.23956 0
M  V30 11871 H 1141.95 -2.90549 2.62101 0
M  V30 11872 H 1141.57 -3.80312 1.15967 0
M  V30 11873 N 1142.57 -0.928524 -1.27343 0
M  V30 11874 C 1143.85 -0.487758 -1.89421 0
M  V30 11875 C 1144.23 1.03418 -1.84032 0
M  V30 11876 O 1143.58 1.8887 -1.2861 0
M  V30 11877 C 1143.79 -1.03478 -3.33307 0
M  V30 11878 C 1145.13 -1.09577 -4.10217 0
M  V30 11879 O 1146.16 -0.984463 -3.42326 0
M  V30 11880 O 1145.02 -1.2673 -5.31603 0
M  V30 11881 H 1142.11 -0.157018 -0.811957 0
M  V30 11882 H 1144.66 -1.02027 -1.35605 0
M  V30 11883 H 1143.43 -2.07861 -3.31526 0
M  V30 11884 H 1143.05 -0.483967 -3.94644 0
M  V30 11885 N 1144.05 1.41491 -0.694123 0
M  V30 11886 C 1145.28 2.05579 -0.233466 0
M  V30 11887 C 1145.69 1.5223 1.11675 0
M  V30 11888 O 1145.05 0.669937 1.69759 0
M  V30 11889 C 1145.1 3.61047 -0.180967 0
M  V30 11890 O 1144.82 4.12421 -1.47785 0
M  V30 11891 C 1146.32 4.42278 0.300853 0
M  V30 11892 H 1143.54 0.662097 -0.108943 0
M  V30 11893 H 1146.09 1.81288 -0.946299 0
M  V30 11894 H 1144.24 3.84381 0.482678 0
M  V30 11895 H 1144.66 5.06454 -1.364 0
M  V30 11896 H 1146.13 5.51256 0.286464 0
M  V30 11897 H 1146.61 4.18276 1.33948 0
M  V30 11898 H 1147.21 4.24004 -0.331741 0
M  V30 11899 N 1145.53 0.438773 1.51369 0
M  V30 11900 C 1146.75 -0.128221 2.07003 0
M  V30 11901 C 1147.18 -1.3557 1.30393 0
M  V30 11902 O 1146.54 -1.7804 0.342283 0
M  V30 11903 C 1146.58 -0.42761 3.58056 0
M  V30 11904 O 1145.69 -1.51382 3.83611 0
M  V30 11905 H 1145.03 -0.00123679 0.663999 0
M  V30 11906 H 1147.56 0.62052 1.94963 0
M  V30 11907 H 1147.57 -0.677645 4.02333 0
M  V30 11908 H 1146.24 0.469535 4.13241 0
M  V30 11909 H 1144.82 -1.25363 3.51196 0
M  V30 11910 N 1147.01 -1.56678 0.170181 0
M  V30 11911 C 1148.28 -1.88524 -0.521362 0
M  V30 11912 C 1148.66 -1.07989 -1.81388 0
M  V30 11913 O 1148.01 -0.17347 -2.27841 0
M  V30 11914 C 1148.22 -3.40527 -0.764367 0
M  V30 11915 C 1149.57 -4.10241 -1.09487 0
M  V30 11916 O 1150.59 -3.45837 -0.852945 0
M  V30 11917 O 1149.45 -5.24022 -1.55124 0
M  V30 11918 H 1146.55 -0.782161 -0.268614 0
M  V30 11919 H 1149.09 -1.68414 0.208531 0
M  V30 11920 H 1147.86 -3.91015 0.149416 0
M  V30 11921 H 1147.49 -3.66244 -1.54762 0
M  V30 11922 N 1148.48 0.103547 -1.57259 0
M  V30 11923 C 1149.89 0.659006 -1.74683 0
M  V30 11924 C 1150.25 1.79542 -0.791142 0
M  V30 11925 O 1149.37 2.16376 0.0323585 0
M  V30 11926 C 1149.97 1.20222 -3.16752 0
M  V30 11927 C 1148.52 1.70382 -3.35629 0
M  V30 11928 C 1147.67 0.609886 -2.7051 0
M  V30 11929 H 1150.62 -0.122474 -1.58227 0
M  V30 11930 H 1150.64 2.07169 -3.19157 0
M  V30 11931 H 1150.16 0.374901 -3.86285 0
M  V30 11932 H 1148.26 2.55542 -2.71162 0
M  V30 11933 H 1148.37 1.80263 -4.43894 0
M  V30 11934 H 1146.73 1.04728 -2.32173 0
M  V30 11935 H 1147.52 -0.206713 -3.42677 0
M  V30 11936 N 1149.96 1.53094 0.37415 0
M  V30 11937 C 1151.19 1.72758 1.13852 0
M  V30 11938 C 1151.6 0.452638 1.83294 0
M  V30 11939 O 1150.96 -0.573906 1.73241 0
M  V30 11940 C 1151.01 2.88724 2.17534 0
M  V30 11941 O 1150.73 4.11284 1.5092 0
M  V30 11942 C 1152.23 3.2019 3.06584 0
M  V30 11943 H 1149.45 0.578028 0.340771 0
M  V30 11944 H 1152 1.99805 0.435683 0
M  V30 11945 H 1150.15 2.64096 2.83429 0
M  V30 11946 H 1150.57 4.76162 2.19932 0
M  V30 11947 H 1152.04 4.04759 3.75332 0
M  V30 11948 H 1152.52 2.35193 3.70919 0
M  V30 11949 H 1153.12 3.46712 2.46315 0
M  V30 11950 N 1151.44 -0.633461 1.44309 0
M  V30 11951 C 1152.67 -1.41827 1.50229 0
M  V30 11952 C 1153.08 -1.88786 0.125082 0
M  V30 11953 O 1152.42 -1.61314 -0.878836 0
M  V30 11954 C 1152.48 -2.67372 2.40317 0
M  V30 11955 C 1152.15 -2.42224 3.87526 0
M  V30 11956 C 1153.14 -2.04199 4.7812 0
M  V30 11957 C 1150.83 -2.55936 4.32206 0
M  V30 11958 C 1152.82 -1.80211 6.11394 0
M  V30 11959 C 1150.51 -2.31563 5.65528 0
M  V30 11960 C 1151.51 -1.93758 6.5494 0
M  V30 11961 O 1151.2 -1.69654 7.85794 0
M  V30 11962 H 1150.93 -0.441478 0.51193 0
M  V30 11963 H 1153.48 -0.782118 1.89927 0
M  V30 11964 H 1151.71 -3.33616 1.95543 0
M  V30 11965 H 1153.4 -3.2937 2.37214 0
M  V30 11966 H 1154.17 -1.93164 4.44874 0
M  V30 11967 H 1150.05 -2.84333 3.62872 0
M  V30 11968 H 1153.59 -1.50628 6.81144 0
M  V30 11969 H 1149.49 -2.42206 5.98336 0
M  V30 11970 H 1150.25 -1.83919 7.97569 0
M  V30 11971 N 1152.92 -1.31168 -0.873655 0
M  V30 11972 C 1154.15 -1.23595 -1.65927 0
M  V30 11973 C 1154.56 0.199349 -1.87745 0
M  V30 11974 O 1153.92 1.13013 -1.43298 0
M  V30 11975 C 1153.97 -1.97268 -3.02932 0
M  V30 11976 O 1153.69 -3.35196 -2.82091 0
M  V30 11977 C 1155.19 -1.9649 -3.97374 0
M  V30 11978 H 1152.41 -0.427228 -0.517414 0
M  V30 11979 H 1154.96 -1.72983 -1.09074 0
M  V30 11980 H 1153.11 -1.51651 -3.56484 0
M  V30 11981 H 1153.52 -3.7266 -3.69087 0
M  V30 11982 H 1155 -2.52557 -4.90835 0
M  V30 11983 H 1155.48 -0.946525 -4.28879 0
M  V30 11984 H 1156.08 -2.4197 -3.49758 0
M  V30 11985 N 1154.4 1.08748 -1.14068 0
M  V30 11986 C 1155.62 1.85353 -0.930532 0
M  V30 11987 C 1156.05 1.80892 0.515717 0
M  V30 11988 O 1155.4 1.19146 1.36652 0
M  V30 11989 C 1155.45 3.30962 -1.43167 0
M  V30 11990 O 1154.56 4.0769 -0.621468 0
M  V30 11991 H 1153.9 0.574485 -0.332962 0
M  V30 11992 H 1156.43 1.37282 -1.51707 0
M  V30 11993 H 1156.44 3.81807 -1.43832 0
M  V30 11994 H 1155.11 3.33524 -2.48464 0
M  V30 11995 H 1153.69 3.66587 -0.683267 0
M  V30 11996 N 1155.87 0.935264 1.26849 0
M  V30 11997 C 1156.84 0.44485 2.24842 0
M  V30 11998 C 1157.84 -0.440781 1.54641 0
M  V30 11999 O 1159.03 -0.240793 1.72528 0
M  V30 12000 C 1156.16 -0.359566 3.38998 0
M  V30 12001 H 1157.35 1.31074 2.6974 0
M  V30 12002 H 1154.91 0.716665 1.38901 0
M  V30 12003 H 1155.64 -1.24396 2.99493 0
M  V30 12004 H 1155.43 0.275529 3.91131 0
M  V30 12005 H 1156.92 -0.692804 4.11813 0
M  V30 12006 N 1157.35 -1.41121 0.701616 0
M  V30 12007 C 1158.28 -2.33436 0.0545974 0
M  V30 12008 C 1159.26 -1.52144 -0.760662 0
M  V30 12009 O 1160.45 -1.80661 -0.712414 0
M  V30 12010 C 1157.58 -3.36015 -0.878117 0
M  V30 12011 C 1156.53 -4.27664 -0.169511 0
M  V30 12012 C 1155.86 -5.20666 -1.21699 0
M  V30 12013 C 1157.16 -5.13254 0.967859 0
M  V30 12014 H 1158.85 -2.87791 0.825637 0
M  V30 12015 H 1156.4 -1.38377 0.398484 0
M  V30 12016 H 1158.35 -3.99526 -1.34004 0
M  V30 12017 H 1157.08 -2.80024 -1.68089 0
M  V30 12018 H 1155.73 -3.65586 0.272441 0
M  V30 12019 H 1155.38 -4.60987 -2.01246 0
M  V30 12020 H 1155.08 -5.82822 -0.747836 0
M  V30 12021 H 1156.61 -5.87053 -1.6793 0
M  V30 12022 H 1158.02 -5.70298 0.585944 0
M  V30 12023 H 1156.42 -5.84381 1.3645 0
M  V30 12024 H 1157.49 -4.5006 1.80483 0
M  V30 12025 N 1158.83 -0.446794 -1.51134 0
M  V30 12026 C 1160.08 0.116263 -2.01765 0
M  V30 12027 C 1160.4 1.42382 -1.33238 0
M  V30 12028 O 1159.67 1.9018 -0.469915 0
M  V30 12029 H 1158.25 0.0459558 -0.745585 0
M  V30 12030 H 1160.91 -0.591664 -1.85702 0
M  V30 12031 H 1160.01 0.285358 -3.10793 0
M  V30 12032 N 1160.31 1.56586 -0.178487 0
M  V30 12033 C 1161.56 1.96709 0.4637 0
M  V30 12034 C 1161.88 1.06586 1.63292 0
M  V30 12035 O 1161.15 0.133683 1.95443 0
M  V30 12036 H 1159.73 0.726381 0.174299 0
M  V30 12037 H 1162.39 1.9314 -0.261345 0
M  V30 12038 H 1161.49 3.01164 0.818934 0
M  V30 12039 N 1161.79 -0.095206 1.57312 0
M  V30 12040 C 1162.73 -1.11551 2.02052 0
M  V30 12041 C 1163.7 -1.39808 0.896818 0
M  V30 12042 O 1164.89 -1.51273 1.1628 0
M  V30 12043 C 1162.03 -2.43056 2.44985 0
M  V30 12044 C 1161.14 -2.21531 3.70875 0
M  V30 12045 C 1160.28 -3.46434 4.02687 0
M  V30 12046 C 1159.32 -3.2017 5.21687 0
M  V30 12047 N 1158.45 -4.37339 5.49253 0
M  V30 12048 H 1163.29 -0.727 2.88996 0
M  V30 12049 H 1160.83 -0.347441 1.42938 0
M  V30 12050 H 1162.79 -3.19803 2.67921 0
M  V30 12051 H 1161.42 -2.79754 1.61051 0
M  V30 12052 H 1160.47 -1.35587 3.55416 0
M  V30 12053 H 1161.78 -1.98116 4.57768 0
M  V30 12054 H 1160.94 -4.31589 4.26399 0
M  V30 12055 H 1159.67 -3.72904 3.14315 0
M  V30 12056 H 1158.68 -2.33409 4.97796 0
M  V30 12057 H 1159.9 -2.95047 6.11657 0
M  V30 12058 H 1157.85 -4.63885 4.6384 0
M  V30 12059 H 1157.77 -4.17114 6.30517 0
M  V30 12060 H 1159.04 -5.23559 5.775 0
M  V30 12061 N 1163.26 -1.53291 -0.366026 0
M  V30 12062 C 1164.51 -1.68671 -1.10602 0
M  V30 12063 C 1164.83 -0.444793 -1.90476 0
M  V30 12064 O 1166.03 -0.479135 -2.67239 0
M  V30 12065 C 1164.49 -2.98174 -2.01545 0
M  V30 12066 C 1164.1 -4.29626 -1.26986 0
M  V30 12067 C 1165.84 -3.22921 -2.7554 0
M  V30 12068 C 1163.75 -5.50218 -2.16828 0
M  V30 12069 H 1162.68 -0.628456 -0.416604 0
M  V30 12070 H 1165.33 -1.79791 -0.367058 0
M  V30 12071 H 1163.71 -2.80855 -2.79171 0
M  V30 12072 H 1164.88 -4.57574 -0.544269 0
M  V30 12073 H 1163.2 -4.11318 -0.648558 0
M  V30 12074 H 1165.8 -4.10202 -3.42985 0
M  V30 12075 H 1166.14 -2.38964 -3.40884 0
M  V30 12076 H 1166.67 -3.40912 -2.04997 0
M  V30 12077 H 1163.41 -6.36651 -1.56063 0
M  V30 12078 H 1162.93 -5.26549 -2.87238 0
M  V30 12079 H 1164.61 -5.84991 -2.76396 0
M  V30 12080 N 1164.74 0.6258 -1.44643 0
M  V30 12081 C 1166.15 1.20751 -1.42394 0
M  V30 12082 C 1166.5 1.95685 -0.142047 0
M  V30 12083 O 1165.63 2.02715 0.757332 0
M  V30 12084 C 1166.22 2.1964 -2.57961 0
M  V30 12085 C 1164.78 2.73227 -2.5889 0
M  V30 12086 C 1163.93 1.48315 -2.34303 0
M  V30 12087 H 1166.88 0.416162 -1.53146 0
M  V30 12088 H 1166.9 3.02342 -2.31019 0
M  V30 12089 H 1166.41 1.65073 -3.51244 0
M  V30 12090 H 1164.52 3.31782 -1.69563 0
M  V30 12091 H 1164.63 3.18902 -3.57545 0
M  V30 12092 H 1162.99 1.76634 -1.83501 0
M  V30 12093 H 1163.78 0.956427 -3.29708 0
M  V30 12094 N 1166.22 1.31629 0.866686 0
M  V30 12095 C 1167.47 1.20861 1.61479 0
M  V30 12096 C 1167.78 -0.231208 1.94229 0
M  V30 12097 O 1168.99 -0.460618 2.67564 0
M  V30 12098 C 1167.44 2.11602 2.91123 0
M  V30 12099 C 1167.05 3.60598 2.65844 0
M  V30 12100 C 1168.8 2.09642 3.69121 0
M  V30 12101 C 1166.7 4.43337 3.91415 0
M  V30 12102 H 1165.63 0.448783 0.605896 0
M  V30 12103 H 1168.28 1.56507 0.958001 0
M  V30 12104 H 1166.67 1.68858 3.58194 0
M  V30 12105 H 1167.84 4.11609 2.07159 0
M  V30 12106 H 1166.16 3.64568 2.01194 0
M  V30 12107 H 1168.75 2.68701 4.62281 0
M  V30 12108 H 1169.1 1.08438 4.01929 0
M  V30 12109 H 1169.63 2.50603 3.08938 0
M  V30 12110 H 1166.37 5.45309 3.63756 0
M  V30 12111 H 1165.89 3.97083 4.49539 0
M  V30 12112 H 1167.57 4.5572 4.5927 0
M  V30 12113 N 1167.7 -1.08142 1.14644 0
M  V30 12114 C 1169.12 -1.32656 0.887388 0
M  V30 12115 C 1169.32 -1.95942 -0.470012 0
M  V30 12116 O 1168.37 -2.21417 -1.21371 0
M  V30 12117 C 1169.68 -2.22549 2.02219 0
M  V30 12118 C 1171.23 -2.36021 2.0558 0
M  V30 12119 C 1171.71 -3.29257 3.18361 0
M  V30 12120 N 1173.2 -3.36835 3.17957 0
M  V30 12121 C 1173.93 -4.09017 4.01862 0
M  V30 12122 N 1173.43 -4.83882 4.95812 0
M  V30 12123 N 1175.22 -4.04875 3.89913 0
M  V30 12124 H 1167.37 -0.654457 2.02066 0
M  V30 12125 H 1169.64 -0.350947 0.880648 0
M  V30 12126 H 1169.34 -1.83296 3.00159 0
M  V30 12127 H 1169.22 -3.23027 1.94765 0
M  V30 12128 H 1171.6 -2.74531 1.08245 0
M  V30 12129 H 1171.68 -1.35275 2.17105 0
M  V30 12130 H 1171.33 -2.91468 4.15944 0
M  V30 12131 H 1171.26 -4.29938 3.04074 0
M  V30 12132 H 1173.75 -2.83465 2.49912 0
M  V30 12133 H 1174.06 -5.3643 5.56294 0
M  V30 12134 H 1172.41 -4.82926 4.99808 0
M  V30 12135 H 1175.6 -3.45496 3.15833 0
M  V30 12136 H 1175.77 -4.60866 4.55529 0
M  V30 12137 N 1169.18 -0.941978 -1.26351 0
M  V30 12138 C 1170.42 -0.600372 -1.94338 0
M  V30 12139 C 1170.78 0.851343 -1.7254 0
M  V30 12140 O 1170.07 1.60116 -1.0523 0
M  V30 12141 C 1170.27 -0.879481 -3.4641 0
M  V30 12142 C 1170.09 -2.35678 -3.82996 0
M  V30 12143 C 1168.86 -3.01208 -4.05712 0
M  V30 12144 C 1171.06 -3.33531 -3.91486 0
M  V30 12145 N 1169.04 -4.38942 -4.29189 0
M  V30 12146 C 1170.42 -4.56525 -4.19506 0
M  V30 12147 C 1172.47 -3.28544 -3.74117 0
M  V30 12148 C 1171.17 -5.75153 -4.31962 0
M  V30 12149 C 1173.2 -4.46498 -3.87806 0
M  V30 12150 C 1172.56 -5.68275 -4.16225 0
M  V30 12151 H 1168.66 -0.270078 -0.733881 0
M  V30 12152 H 1171.24 -1.21155 -1.52413 0
M  V30 12153 H 1169.42 -0.297345 -3.8726 0
M  V30 12154 H 1171.15 -0.499062 -4.01611 0
M  V30 12155 H 1167.9 -2.51823 -4.01101 0
M  V30 12156 H 1168.33 -5.10236 -4.44959 0
M  V30 12157 H 1172.97 -2.35451 -3.51173 0
M  V30 12158 H 1170.69 -6.68699 -4.53727 0
M  V30 12159 H 1174.27 -4.44173 -3.75768 0
M  V30 12160 H 1173.15 -6.58024 -4.26584 0
M  V30 12161 N 1170.66 1.40747 -0.709091 0
M  V30 12162 C 1171.88 2.05319 -0.255258 0
M  V30 12163 C 1172.3 1.53406 1.10054 0
M  V30 12164 O 1171.66 0.687905 1.69039 0
M  V30 12165 C 1171.71 3.60835 -0.219251 0
M  V30 12166 O 1171.43 4.1083 -1.52151 0
M  V30 12167 C 1172.93 4.42572 0.253927 0
M  V30 12168 H 1170.15 0.660904 -0.115959 0
M  V30 12169 H 1172.69 1.80274 -0.965474 0
M  V30 12170 H 1170.85 3.84872 0.441882 0
M  V30 12171 H 1171.26 5.04979 -1.41764 0
M  V30 12172 H 1172.74 5.51529 0.22798 0
M  V30 12173 H 1173.21 4.19673 1.29504 0
M  V30 12174 H 1173.82 4.23629 -0.376694 0
M  V30 12175 N 1172.13 0.454803 1.50895 0
M  V30 12176 C 1173.1 -0.336293 2.26719 0
M  V30 12177 C 1174.1 -0.93464 1.30848 0
M  V30 12178 O 1175.29 -0.80636 1.54413 0
M  V30 12179 C 1172.42 -1.47744 3.07221 0
M  V30 12180 H 1173.61 0.328462 2.98096 0
M  V30 12181 H 1171.16 0.208419 1.54904 0
M  V30 12182 H 1171.9 -2.17773 2.40302 0
M  V30 12183 H 1171.68 -1.05438 3.77658 0
M  V30 12184 H 1173.17 -2.03592 3.6461 0
M  V30 12185 N 1173.61 -1.56489 0.186789 0
M  V30 12186 C 1175.02 -1.83809 -0.327265 0
M  V30 12187 C 1175.37 -1.10718 -1.61976 0
M  V30 12188 O 1174.5 -0.36525 -2.13295 0
M  V30 12189 C 1175.09 -3.33435 -0.600551 0
M  V30 12190 C 1173.65 -3.61195 -1.059 0
M  V30 12191 C 1172.8 -2.77108 -0.103131 0
M  V30 12192 H 1175.75 -1.53292 0.410747 0
M  V30 12193 H 1175.77 -3.51754 -1.45084 0
M  V30 12194 H 1175.28 -3.86605 0.340315 0
M  V30 12195 H 1173.38 -3.13451 -2.01443 0
M  V30 12196 H 1173.5 -4.69435 -0.957458 0
M  V30 12197 H 1171.86 -2.47448 -0.603449 0
M  V30 12198 H 1172.64 -3.33065 0.832031 0
M  V30 12199 N 1175.09 0.086862 -1.5736 0
M  V30 12200 C 1176 1.12297 -2.05977 0
M  V30 12201 C 1177.02 1.43347 -0.986284 0
M  V30 12202 O 1178.19 1.53825 -1.3 0
M  V30 12203 C 1175.26 2.42131 -2.4814 0
M  V30 12204 C 1174.32 2.18189 -3.69719 0
M  V30 12205 C 1173.55 3.41833 -4.09861 0
M  V30 12206 O 1173.77 4.50383 -3.50016 0
M  V30 12207 O 1172.71 3.30934 -5.02759 0
M  V30 12208 H 1176.53 0.740012 -2.94546 0
M  V30 12209 H 1174.12 0.29995 -1.46358 0
M  V30 12210 H 1176 3.18568 -2.75848 0
M  V30 12211 H 1174.68 2.79837 -1.62705 0
M  V30 12212 H 1173.58 1.39506 -3.47115 0
M  V30 12213 H 1174.92 1.85372 -4.55959 0
M  V30 12214 N 1176.57 1.53483 0.357892 0
M  V30 12215 C 1177.53 1.79782 1.42166 0
M  V30 12216 C 1178.53 0.668441 1.46248 0
M  V30 12217 O 1179.72 0.936677 1.46874 0
M  V30 12218 C 1176.85 1.92686 2.8122 0
M  V30 12219 H 1178.05 2.74794 1.20117 0
M  V30 12220 H 1175.6 1.44677 0.591468 0
M  V30 12221 H 1176.33 0.997669 3.08573 0
M  V30 12222 H 1176.12 2.74837 2.79655 0
M  V30 12223 H 1177.61 2.14599 3.58242 0
M  V30 12224 N 1178.05 -0.61812 1.44973 0
M  V30 12225 C 1179.29 -1.37343 1.47715 0
M  V30 12226 C 1179.61 -1.95239 0.118784 0
M  V30 12227 O 1180.81 -2.7149 0.0237981 0
M  V30 12228 C 1179.27 -2.48732 2.60116 0
M  V30 12229 C 1178.88 -1.97294 4.02218 0
M  V30 12230 C 1180.62 -3.25831 2.72093 0
M  V30 12231 C 1178.53 -3.06102 5.06019 0
M  V30 12232 H 1177.46 -0.516175 0.549617 0
M  V30 12233 H 1180.11 -0.663617 1.7108 0
M  V30 12234 H 1178.49 -3.2235 2.30014 0
M  V30 12235 H 1179.67 -1.30455 4.41948 0
M  V30 12236 H 1177.98 -1.32972 3.94598 0
M  V30 12237 H 1180.58 -4.06968 3.46815 0
M  V30 12238 H 1180.92 -3.76156 1.7836 0
M  V30 12239 H 1181.45 -2.59309 3.01668 0
M  V30 12240 H 1178.19 -2.60706 6.01426 0
M  V30 12241 H 1177.71 -3.71541 4.70869 0
M  V30 12242 H 1179.39 -3.70662 5.30301 0
M  V30 12243 N 1179.52 -1.32087 -0.859693 0
M  V30 12244 C 1180.46 -1.16426 -1.97428 0
M  V30 12245 C 1181.47 -0.100582 -1.62489 0
M  V30 12246 O 1182.66 -0.349063 -1.75054 0
M  V30 12247 C 1179.76 -0.758822 -3.30295 0
M  V30 12248 C 1178.93 -1.90971 -3.93508 0
M  V30 12249 C 1177.99 -1.48865 -5.04704 0
M  V30 12250 O 1177.02 -2.1999 -5.2497 0
M  V30 12251 N 1178.22 -0.38182 -5.79243 0
M  V30 12252 H 1180.98 -2.12433 -2.11406 0
M  V30 12253 H 1178.54 -1.24558 -1.03426 0
M  V30 12254 H 1180.54 -0.459643 -4.02081 0
M  V30 12255 H 1179.11 0.109944 -3.12407 0
M  V30 12256 H 1178.33 -2.37566 -3.14573 0
M  V30 12257 H 1179.61 -2.68032 -4.32477 0
M  V30 12258 H 1179.01 0.210268 -5.65309 0
M  V30 12259 H 1177.57 -0.142224 -6.51645 0
M  V30 12260 N 1181 1.07532 -1.15215 0
M  V30 12261 C 1182.23 1.8355 -0.94831 0
M  V30 12262 C 1182.64 1.82289 0.506701 0
M  V30 12263 O 1181.98 1.23142 1.36314 0
M  V30 12264 C 1182.04 3.31834 -1.38298 0
M  V30 12265 C 1181.71 3.56818 -2.85535 0
M  V30 12266 C 1182.71 3.50915 -3.83608 0
M  V30 12267 C 1180.39 3.84543 -3.23159 0
M  V30 12268 C 1182.38 3.72382 -5.17311 0
M  V30 12269 C 1180.07 4.05662 -4.57036 0
M  V30 12270 C 1181.07 3.99576 -5.53921 0
M  V30 12271 O 1180.76 4.20132 -6.85379 0
M  V30 12272 H 1180.49 0.586014 -0.336992 0
M  V30 12273 H 1183.04 1.36656 -1.53344 0
M  V30 12274 H 1181.27 3.79529 -0.741244 0
M  V30 12275 H 1182.96 3.89312 -1.14853 0
M  V30 12276 H 1183.73 3.295 -3.55886 0
M  V30 12277 H 1179.61 3.88395 -2.48335 0
M  V30 12278 H 1183.15 3.67547 -5.92921 0
M  V30 12279 H 1179.05 4.26563 -4.84473 0
M  V30 12280 H 1179.82 4.3749 -6.91769 0
M  V30 12281 N 1182.48 0.948665 1.2585 0
M  V30 12282 C 1183.9 0.652147 1.45668 0
M  V30 12283 C 1184.1 -0.792217 1.85273 0
M  V30 12284 O 1183.15 -1.56812 1.97905 0
M  V30 12285 C 1184.47 1.61998 2.53332 0
M  V30 12286 C 1186.01 1.6305 2.67178 0
M  V30 12287 C 1186.49 2.58582 3.78021 0
M  V30 12288 N 1187.98 2.56911 3.85423 0
M  V30 12289 C 1188.71 3.27511 4.70664 0
M  V30 12290 N 1188.21 4.07563 5.60236 0
M  V30 12291 N 1190 3.16427 4.64576 0
M  V30 12292 H 1182.15 1.88215 0.984325 0
M  V30 12293 H 1184.42 0.809251 0.493778 0
M  V30 12294 H 1184.12 2.65137 2.31075 0
M  V30 12295 H 1184 1.37784 3.51134 0
M  V30 12296 H 1186.38 0.606315 2.88804 0
M  V30 12297 H 1186.47 1.9132 1.69795 0
M  V30 12298 H 1186.11 3.61122 3.57146 0
M  V30 12299 H 1186.04 2.27598 4.74875 0
M  V30 12300 H 1188.53 1.9879 3.21389 0
M  V30 12301 H 1188.84 4.58367 6.22189 0
M  V30 12302 H 1187.19 4.11662 5.59964 0
M  V30 12303 H 1190.38 2.53364 3.93604 0
M  V30 12304 H 1190.55 3.71714 5.30785 0
M  V30 12305 N 1183.96 -1.40369 0.716545 0
M  V30 12306 C 1184.91 -2.3071 0.0645944 0
M  V30 12307 C 1185.88 -1.48239 -0.749294 0
M  V30 12308 O 1187.06 -1.76975 -0.713045 0
M  V30 12309 C 1184.2 -3.34456 -0.850478 0
M  V30 12310 C 1183.31 -4.31992 -0.0259594 0
M  V30 12311 C 1182.45 -5.22806 -0.940599 0
M  V30 12312 C 1181.49 -6.12001 -0.110228 0
M  V30 12313 N 1180.62 -6.9523 -0.979796 0
M  V30 12314 H 1185.46 -2.85896 0.840682 0
M  V30 12315 H 1183 -1.40789 0.426258 0
M  V30 12316 H 1184.96 -3.93177 -1.39528 0
M  V30 12317 H 1183.59 -2.8077 -1.59274 0
M  V30 12318 H 1182.64 -3.75045 0.636036 0
M  V30 12319 H 1183.95 -4.94971 0.616883 0
M  V30 12320 H 1183.11 -5.86463 -1.5539 0
M  V30 12321 H 1181.85 -4.60104 -1.61726 0
M  V30 12322 H 1180.85 -5.47373 0.516001 0
M  V30 12323 H 1182.08 -6.76763 0.562944 0
M  V30 12324 H 1180.02 -6.35115 -1.64209 0
M  V30 12325 H 1179.94 -7.54978 -0.393012 0
M  V30 12326 H 1181.21 -7.63335 -1.57924 0
M  V30 12327 N 1185.44 -0.462799 -1.50652 0
M  V30 12328 C 1186.68 0.0950445 -2.02277 0
M  V30 12329 C 1187.01 1.40465 -1.34536 0
M  V30 12330 O 1186.27 1.90283 -0.457279 0
M  V30 12331 C 1186.57 0.335294 -3.55824 0
M  V30 12332 C 1186.23 -0.891589 -4.41997 0
M  V30 12333 C 1184.89 -1.22799 -4.65268 0
M  V30 12334 C 1187.25 -1.70885 -4.9239 0
M  V30 12335 C 1184.57 -2.38186 -5.36175 0
M  V30 12336 C 1186.93 -2.85394 -5.64564 0
M  V30 12337 C 1185.59 -3.19458 -5.86091 0
M  V30 12338 H 1184.86 0.0347793 -0.740183 0
M  V30 12339 H 1187.51 -0.61519 -1.8135 0
M  V30 12340 H 1185.81 1.12769 -3.7522 0
M  V30 12341 H 1187.51 0.780752 -3.93326 0
M  V30 12342 H 1184.1 -0.619495 -4.24099 0
M  V30 12343 H 1188.28 -1.46215 -4.74273 0
M  V30 12344 H 1183.54 -2.64862 -5.51052 0
M  V30 12345 H 1187.71 -3.49073 -6.02595 0
M  V30 12346 H 1185.34 -4.08978 -6.40813 0
M  V30 12347 N 1186.91 1.56388 -0.195085 0
M  V30 12348 C 1188.14 2.01963 0.449289 0
M  V30 12349 C 1188.56 1.07522 1.55192 0
M  V30 12350 O 1187.91 0.0800915 1.82324 0
M  V30 12351 C 1187.97 3.47231 1.00561 0
M  V30 12352 O 1187.69 4.38068 -0.0530241 0
M  V30 12353 C 1189.19 4.08324 1.72587 0
M  V30 12354 H 1186.41 0.661452 0.112792 0
M  V30 12355 H 1188.95 2.02231 -0.303788 0
M  V30 12356 H 1187.11 3.47663 1.70907 0
M  V30 12357 H 1187.52 5.23256 0.361076 0
M  V30 12358 H 1188.99 5.11821 2.06744 0
M  V30 12359 H 1189.47 3.51782 2.62956 0
M  V30 12360 H 1190.08 4.11665 1.06826 0
M  V30 12361 N 1188.39 -0.0785156 1.57404 0
M  V30 12362 C 1189.62 -0.795871 1.91522 0
M  V30 12363 C 1190.04 -1.70665 0.790892 0
M  V30 12364 O 1189.4 -1.79474 -0.25666 0
M  V30 12365 C 1189.45 -1.57121 3.24569 0
M  V30 12366 O 1188.55 -2.6814 3.13328 0
M  V30 12367 H 1187.89 -0.217575 0.627341 0
M  V30 12368 H 1190.42 -0.0487724 2.04542 0
M  V30 12369 H 1190.43 -1.9519 3.5828 0
M  V30 12370 H 1189.11 -0.902909 4.05981 0
M  V30 12371 H 1187.69 -2.32978 2.91163 0
M  V30 12372 N 1189.87 -1.5367 -0.349747 0
M  V30 12373 C 1190.83 -1.80533 -1.41211 0
M  V30 12374 C 1191.83 -0.676188 -1.45892 0
M  V30 12375 O 1193.02 -0.944453 -1.46375 0
M  V30 12376 C 1190.16 -1.94175 -2.80195 0
M  V30 12377 H 1191.35 -2.75428 -1.18658 0
M  V30 12378 H 1188.9 -1.44988 -0.583787 0
M  V30 12379 H 1189.64 -1.01402 -3.08039 0
M  V30 12380 H 1189.42 -2.76316 -2.78194 0
M  V30 12381 H 1190.91 -2.16496 -3.57098 0
M  V30 12382 N 1191.35 0.610423 -1.45298 0
M  V30 12383 C 1192.57 1.40112 -1.52917 0
M  V30 12384 C 1193 1.87404 -0.161696 0
M  V30 12385 O 1192.36 1.59973 0.853135 0
M  V30 12386 C 1192.4 2.58359 -2.51561 0
M  V30 12387 O 1191.51 3.58895 -2.03146 0
M  V30 12388 H 1190.85 0.41841 -0.515586 0
M  V30 12389 H 1193.38 0.743159 -1.90626 0
M  V30 12390 H 1193.39 3.0564 -2.70275 0
M  V30 12391 H 1192.06 2.23286 -3.50879 0
M  V30 12392 H 1190.64 3.18282 -1.94296 0
M  V30 12393 N 1192.83 1.32541 0.852676 0
M  V30 12394 C 1194.1 1.1383 1.59067 0
M  V30 12395 C 1194.48 -0.300584 2.08949 0
M  V30 12396 O 1193.83 -1.29751 1.88088 0
M  V30 12397 C 1194.04 2.16758 2.73527 0
M  V30 12398 C 1195.39 2.50194 3.43057 0
M  V30 12399 O 1196.41 2.15319 2.83754 0
M  V30 12400 O 1195.27 3.09985 4.50079 0
M  V30 12401 H 1192.37 0.439379 0.700625 0
M  V30 12402 H 1194.91 1.44078 0.896632 0
M  V30 12403 H 1193.68 3.13469 2.34207 0
M  V30 12404 H 1193.31 1.87515 3.50605 0
M  V30 12405 N 1194.3 -1.0692 1.15784 0
M  V30 12406 C 1195.55 -1.79866 0.936815 0
M  V30 12407 C 1195.88 -1.867 -0.534477 0
M  V30 12408 O 1195.16 -1.35395 -1.39637 0
M  V30 12409 C 1195.44 -3.24691 1.55717 0
M  V30 12410 C 1195.29 -3.25975 3.09936 0
M  V30 12411 C 1196.61 -4.22076 1.24658 0
M  V30 12412 H 1193.73 -0.652971 0.341756 0
M  V30 12413 H 1196.37 -1.25085 1.43016 0
M  V30 12414 H 1194.52 -3.7147 1.13763 0
M  V30 12415 H 1196.2 -2.87405 3.60827 0
M  V30 12416 H 1194.44 -2.64808 3.43597 0
M  V30 12417 H 1195.11 -4.28114 3.48458 0
M  V30 12418 H 1197.59 -3.83709 1.60956 0
M  V30 12419 H 1196.46 -5.21691 1.70675 0
M  V30 12420 H 1196.72 -4.41794 0.164341 0
M  V30 12421 N 1195.78 -0.955326 -1.25345 0
M  V30 12422 C 1197.03 -0.62095 -1.9369 0
M  V30 12423 C 1197.38 0.832995 -1.73433 0
M  V30 12424 O 1196.68 1.58991 -1.06922 0
M  V30 12425 C 1196.87 -0.916173 -3.45458 0
M  V30 12426 C 1196.7 -2.39726 -3.80475 0
M  V30 12427 C 1195.47 -3.05494 -4.02494 0
M  V30 12428 C 1197.67 -3.37664 -3.87927 0
M  V30 12429 N 1195.65 -4.43469 -4.2451 0
M  V30 12430 C 1197.02 -4.60949 -4.1464 0
M  V30 12431 C 1199.08 -3.32493 -3.70611 0
M  V30 12432 C 1197.78 -5.79703 -4.25837 0
M  V30 12433 C 1199.8 -4.50586 -3.83048 0
M  V30 12434 C 1199.17 -5.72657 -4.10174 0
M  V30 12435 H 1195.27 -0.277847 -0.730976 0
M  V30 12436 H 1197.85 -1.22764 -1.51119 0
M  V30 12437 H 1196.02 -0.338402 -3.86923 0
M  V30 12438 H 1197.75 -0.54163 -4.01059 0
M  V30 12439 H 1194.51 -2.56063 -3.98408 0
M  V30 12440 H 1194.93 -5.14927 -4.39522 0
M  V30 12441 H 1199.57 -2.39163 -3.48656 0
M  V30 12442 H 1197.29 -6.73473 -4.46609 0
M  V30 12443 H 1200.88 -4.48133 -3.71036 0
M  V30 12444 H 1199.76 -6.62512 -4.19581 0
M  V30 12445 N 1197.26 1.39987 -0.723979 0
M  V30 12446 C 1198.49 2.0556 -0.275634 0
M  V30 12447 C 1198.91 1.54207 1.07711 0
M  V30 12448 O 1198.27 0.681041 1.68022 0
M  V30 12449 C 1198.32 3.59551 -0.27485 0
M  V30 12450 O 1197.42 4.05685 0.741182 0
M  V30 12451 H 1196.76 0.651634 -0.12755 0
M  V30 12452 H 1199.29 1.79229 -0.986814 0
M  V30 12453 H 1199.3 4.07837 -0.115425 0
M  V30 12454 H 1197.98 3.96291 -1.26198 0
M  V30 12455 H 1196.55 3.6884 0.548795 0
M  V30 12456 N 1198.74 0.470782 1.50404 0
M  V30 12457 C 1199.97 -0.0818945 2.06438 0
M  V30 12458 C 1200.38 -1.34085 1.33483 0
M  V30 12459 O 1199.72 -1.79346 0.397565 0
M  V30 12460 C 1199.78 -0.436252 3.56843 0
M  V30 12461 C 1199.45 0.720641 4.51282 0
M  V30 12462 C 1200.44 1.60258 4.94584 0
M  V30 12463 C 1198.13 0.910879 4.93972 0
M  V30 12464 C 1200.12 2.65916 5.79282 0
M  V30 12465 C 1197.81 1.97069 5.78452 0
M  V30 12466 C 1198.81 2.84319 6.21008 0
M  V30 12467 O 1198.5 3.88476 7.03805 0
M  V30 12468 H 1198.23 0.00361688 0.67599 0
M  V30 12469 H 1200.78 0.658488 1.94559 0
M  V30 12470 H 1199.01 -1.22982 3.66623 0
M  V30 12471 H 1200.7 -0.923976 3.95244 0
M  V30 12472 H 1201.47 1.46729 4.62272 0
M  V30 12473 H 1197.35 0.241225 4.60368 0
M  V30 12474 H 1200.89 3.3405 6.12419 0
M  V30 12475 H 1196.79 2.10605 6.10177 0
M  V30 12476 H 1197.55 3.8546 7.22054 0
M  V30 12477 N 1200.22 -1.56282 0.203376 0
M  V30 12478 C 1201.47 -1.97421 -0.432346 0
M  V30 12479 C 1201.79 -1.0917 -1.61576 0
M  V30 12480 O 1201.06 -0.164759 -1.95206 0
M  V30 12481 H 1199.64 -0.729062 -0.162721 0
M  V30 12482 H 1202.3 -1.927 0.292039 0
M  V30 12483 H 1201.39 -3.02429 -0.770918 0
M  V30 12484 N 1201.7 0.070167 -1.57444 0
M  V30 12485 C 1202.94 0.767842 -1.86513 0
M  V30 12486 C 1203.26 1.78659 -0.796257 0
M  V30 12487 O 1204.46 2.53395 -0.974845 0
M  V30 12488 C 1202.92 1.41654 -3.30851 0
M  V30 12489 C 1202.53 0.436273 -4.45871 0
M  V30 12490 C 1204.27 2.09649 -3.69117 0
M  V30 12491 C 1202.18 1.09098 -5.8125 0
M  V30 12492 H 1201.11 0.290519 -0.695784 0
M  V30 12493 H 1203.76 0.0211697 -1.83488 0
M  V30 12494 H 1202.14 2.21153 -3.28493 0
M  V30 12495 H 1203.32 -0.329022 -4.59624 0
M  V30 12496 H 1201.63 -0.139314 -4.16167 0
M  V30 12497 H 1204.23 2.59411 -4.67558 0
M  V30 12498 H 1204.57 2.89663 -2.99 0
M  V30 12499 H 1205.1 1.36979 -3.73472 0
M  V30 12500 H 1201.84 0.331128 -6.54663 0
M  V30 12501 H 1201.36 1.8271 -5.71294 0
M  V30 12502 H 1203.04 1.61034 -6.2664 0
M  V30 12503 N 1203.17 1.53854 0.341593 0
M  V30 12504 C 1204.42 1.71447 1.08322 0
M  V30 12505 C 1204.75 0.477289 1.88243 0
M  V30 12506 O 1204.03 -0.525695 1.87261 0
M  V30 12507 C 1204.31 2.97917 2.02281 0
M  V30 12508 C 1204.16 4.31847 1.25809 0
M  V30 12509 C 1205.48 3.20065 3.0207 0
M  V30 12510 H 1202.6 0.623847 0.392408 0
M  V30 12511 H 1205.24 1.86527 0.361594 0
M  V30 12512 H 1203.39 2.85191 2.63815 0
M  V30 12513 H 1205.07 4.56427 0.668737 0
M  V30 12514 H 1203.31 4.30169 0.560119 0
M  V30 12515 H 1203.98 5.16522 1.94704 0
M  V30 12516 H 1206.46 3.32135 2.50651 0
M  V30 12517 H 1205.33 4.09947 3.65013 0
M  V30 12518 H 1205.59 2.36452 3.73554 0
M  V30 12519 N 1204.65 -0.602709 1.4562 0
M  V30 12520 C 1205.58 -1.72705 1.49159 0
M  V30 12521 C 1206.56 -1.58843 0.347494 0
M  V30 12522 O 1207.75 -1.80337 0.548716 0
M  V30 12523 C 1204.87 -3.10579 1.35125 0
M  V30 12524 C 1203.92 -3.43016 2.53461 0
M  V30 12525 S 1204.75 -3.37311 4.1591 0
M  V30 12526 C 1205.91 -4.77757 4.0435 0
M  V30 12527 H 1206.14 -1.69441 2.44289 0
M  V30 12528 H 1203.67 -0.779776 1.33262 0
M  V30 12529 H 1205.63 -3.90127 1.27715 0
M  V30 12530 H 1204.29 -3.11352 0.414568 0
M  V30 12531 H 1203.49 -4.43415 2.39581 0
M  V30 12532 H 1203.09 -2.70993 2.57757 0
M  V30 12533 H 1205.38 -5.67677 3.69796 0
M  V30 12534 H 1206.32 -4.96694 5.04679 0
M  V30 12535 H 1206.73 -4.53667 3.35926 0
M  V30 12536 N 1206.13 -1.32992 -0.845635 0
M  V30 12537 C 1207.38 -1.25258 -1.60256 0
M  V30 12538 C 1207.73 0.181685 -1.9154 0
M  V30 12539 O 1207.02 1.12193 -1.55316 0
M  V30 12540 C 1207.22 -2.05454 -2.92444 0
M  V30 12541 C 1207.05 -3.56533 -2.7407 0
M  V30 12542 C 1205.82 -4.25857 -2.71981 0
M  V30 12543 C 1208.01 -4.51003 -2.47186 0
M  V30 12544 N 1206 -5.6293 -2.44913 0
M  V30 12545 C 1207.37 -5.75917 -2.29607 0
M  V30 12546 C 1209.42 -4.40162 -2.32727 0
M  V30 12547 C 1208.13 -6.91214 -1.99037 0
M  V30 12548 C 1210.15 -5.55267 -2.0355 0
M  V30 12549 C 1209.51 -6.79186 -1.86777 0
M  V30 12550 H 1205.61 -0.513536 -0.58975 0
M  V30 12551 H 1208.2 -1.67458 -0.993277 0
M  V30 12552 H 1206.37 -1.65585 -3.51335 0
M  V30 12553 H 1208.1 -1.89543 -3.57569 0
M  V30 12554 H 1204.85 -3.78064 -2.85245 0
M  V30 12555 H 1205.28 -6.3517 -2.34282 0
M  V30 12556 H 1209.92 -3.44998 -2.4441 0
M  V30 12557 H 1207.64 -7.86381 -1.86091 0
M  V30 12558 H 1211.22 -5.48811 -1.93127 0
M  V30 12559 H 1210.1 -7.66748 -1.64523 0
M  V30 12560 N 1207.61 1.06304 -1.1635 0
M  V30 12561 C 1208.52 2.17296 -0.884289 0
M  V30 12562 C 1209.53 1.73408 0.143414 0
M  V30 12563 O 1210.71 2.01373 -0.0331987 0
M  V30 12564 C 1207.77 3.44509 -0.389163 0
M  V30 12565 C 1206.84 4.02906 -1.48208 0
M  V30 12566 C 1206.07 5.24047 -1.01048 0
M  V30 12567 O 1206.29 5.70229 0.139821 0
M  V30 12568 O 1205.23 5.74394 -1.79876 0
M  V30 12569 H 1209.05 2.4369 -1.81243 0
M  V30 12570 H 1206.64 1.15841 -0.943459 0
M  V30 12571 H 1208.52 4.21229 -0.120018 0
M  V30 12572 H 1207.19 3.19642 0.510968 0
M  V30 12573 H 1206.1 3.27677 -1.80496 0
M  V30 12574 H 1207.43 4.32068 -2.35751 0
M  V30 12575 N 1209.09 0.96196 1.24836 0
M  V30 12576 C 1210.33 0.621634 1.93038 0
M  V30 12577 C 1210.66 -0.840257 1.75081 0
M  V30 12578 O 1209.94 -1.60381 1.10038 0
M  V30 12579 C 1210.22 0.990107 3.46221 0
M  V30 12580 C 1210.08 2.50827 3.73371 0
M  V30 12581 C 1211.39 0.520478 4.37011 0
M  V30 12582 H 1208.51 0.227312 0.701069 0
M  V30 12583 H 1211.16 1.19993 1.47315 0
M  V30 12584 H 1209.31 0.498008 3.85295 0
M  V30 12585 H 1210.98 3.07469 3.4389 0
M  V30 12586 H 1209.22 2.94277 3.18722 0
M  V30 12587 H 1209.89 2.71659 4.80526 0
M  V30 12588 H 1212.37 0.942703 4.05281 0
M  V30 12589 H 1211.24 0.806918 5.42937 0
M  V30 12590 H 1211.5 -0.579507 4.38285 0
M  V30 12591 N 1210.56 -1.39601 0.731392 0
M  V30 12592 C 1211.5 -2.28169 0.0378735 0
M  V30 12593 C 1212.47 -1.44195 -0.751434 0
M  V30 12594 O 1213.66 -1.7359 -0.734753 0
M  V30 12595 C 1210.79 -3.24999 -0.953589 0
M  V30 12596 C 1209.83 -4.25748 -0.253203 0
M  V30 12597 S 1210.66 -5.25496 1.03025 0
M  V30 12598 C 1211.82 -6.25886 0.0412927 0
M  V30 12599 H 1212.05 -2.8664 0.788973 0
M  V30 12600 H 1209.59 -1.45271 0.523044 0
M  V30 12601 H 1211.54 -3.81308 -1.52035 0
M  V30 12602 H 1210.21 -2.65554 -1.6775 0
M  V30 12603 H 1209.4 -4.93913 -1.00328 0
M  V30 12604 H 1209 -3.7322 0.241426 0
M  V30 12605 H 1211.29 -6.72757 -0.800305 0
M  V30 12606 H 1212.24 -7.0473 0.68999 0
M  V30 12607 H 1212.64 -5.63538 -0.329495 0
M  V30 12608 N 1212.04 -0.478751 -1.50152 0
M  V30 12609 C 1213.27 0.0732929 -2.0727 0
M  V30 12610 C 1213.69 1.32066 -1.33941 0
M  V30 12611 O 1213.05 1.7707 -0.389367 0
M  V30 12612 C 1213.1 0.332528 -3.59064 0
M  V30 12613 O 1212.2 1.41158 -3.8749 0
M  V30 12614 H 1211.54 -0.0163684 -0.663798 0
M  V30 12615 H 1214.07 -0.671993 -1.9325 0
M  V30 12616 H 1214.08 0.570735 -4.03988 0
M  V30 12617 H 1212.76 -0.578934 -4.11851 0
M  V30 12618 H 1211.34 1.16008 -3.54396 0
M  V30 12619 N 1213.52 1.56172 -0.211661 0
M  V30 12620 C 1214.75 2.02135 0.427222 0
M  V30 12621 C 1215.16 1.09084 1.54587 0
M  V30 12622 O 1214.5 0.090906 1.83475 0
M  V30 12623 C 1214.56 3.44459 1.029 0
M  V30 12624 C 1214.23 4.56976 0.0470243 0
M  V30 12625 C 1215.22 5.14466 -0.749724 0
M  V30 12626 C 1212.91 5.02253 -0.0688634 0
M  V30 12627 C 1214.9 6.15696 -1.64916 0
M  V30 12628 C 1212.59 6.03323 -0.971844 0
M  V30 12629 C 1213.59 6.5992 -1.76055 0
M  V30 12630 O 1213.28 7.59024 -2.64837 0
M  V30 12631 H 1213.01 0.667008 0.109894 0
M  V30 12632 H 1215.56 2.02851 -0.322595 0
M  V30 12633 H 1213.79 3.4078 1.82772 0
M  V30 12634 H 1215.48 3.74128 1.57425 0
M  V30 12635 H 1216.25 4.80342 -0.670588 0
M  V30 12636 H 1212.13 4.57886 0.534889 0
M  V30 12637 H 1215.67 6.59798 -2.26521 0
M  V30 12638 H 1211.57 6.36869 -1.05203 0
M  V30 12639 H 1212.34 7.76508 -2.58801 0
M  V30 12640 N 1215 -0.0618163 1.57479 0
M  V30 12641 C 1216.25 -0.757569 1.87364 0
M  V30 12642 C 1216.57 -1.77607 0.805025 0
M  V30 12643 O 1215.84 -1.95202 -0.165216 0
M  V30 12644 H 1214.42 -0.28278 0.691408 0
M  V30 12645 H 1217.08 -0.0355354 1.94868 0
M  V30 12646 H 1216.18 -1.26758 2.85199 0
M  V30 12647 N 1216.48 -1.54033 -0.333429 0
M  V30 12648 C 1217.39 -1.85737 -1.43314 0
M  V30 12649 C 1218.4 -0.748398 -1.57083 0
M  V30 12650 O 1219.58 -1.04171 -1.72367 0
M  V30 12651 C 1216.64 -2.06942 -2.78165 0
M  V30 12652 C 1215.7 -3.30774 -2.73655 0
M  V30 12653 C 1214.94 -3.50957 -4.02075 0
M  V30 12654 O 1215.16 -2.74774 -4.99855 0
M  V30 12655 O 1214.09 -4.44412 -4.05933 0
M  V30 12656 H 1217.92 -2.7923 -1.19434 0
M  V30 12657 H 1215.51 -1.39814 -0.526546 0
M  V30 12658 H 1217.39 -2.22276 -3.58011 0
M  V30 12659 H 1216.06 -1.16638 -3.01956 0
M  V30 12660 H 1214.97 -3.20835 -1.92395 0
M  V30 12661 H 1216.3 -4.21103 -2.54819 0
M  V30 12662 N 1217.95 0.594978 -1.45938 0
M  V30 12663 C 1219.37 0.917069 -1.30622 0
M  V30 12664 C 1219.57 1.99702 -0.268554 0
M  V30 12665 O 1218.63 2.50293 0.333146 0
M  V30 12666 C 1219.94 1.34604 -2.68891 0
M  V30 12667 C 1221.49 1.45957 -2.76886 0
M  V30 12668 C 1221.96 1.92225 -4.15708 0
M  V30 12669 N 1223.45 1.99439 -4.18065 0
M  V30 12670 C 1224.19 2.36488 -5.22361 0
M  V30 12671 N 1223.68 2.72416 -6.36994 0
M  V30 12672 N 1225.48 2.36936 -5.09723 0
M  V30 12673 H 1217.63 -0.118625 -2.12068 0
M  V30 12674 H 1219.89 0.00959453 -0.947951 0
M  V30 12675 H 1219.6 0.626605 -3.46073 0
M  V30 12676 H 1219.47 2.31006 -2.98188 0
M  V30 12677 H 1221.86 2.16989 -1.99999 0
M  V30 12678 H 1221.94 0.47838 -2.51287 0
M  V30 12679 H 1221.58 1.21775 -4.93085 0
M  V30 12680 H 1221.51 2.9128 -4.38707 0
M  V30 12681 H 1224 1.74212 -3.35349 0
M  V30 12682 H 1224.32 2.99604 -7.1236 0
M  V30 12683 H 1222.66 2.70083 -6.40375 0
M  V30 12684 H 1225.85 2.08282 -4.19209 0
M  V30 12685 H 1226.03 2.65483 -5.9112 0
M  V30 12686 N 1219.43 1.33438 0.838571 0
M  V30 12687 C 1220.84 1.22366 1.41009 0
M  V30 12688 C 1221.19 -0.157317 1.95568 0
M  V30 12689 O 1220.32 -1.05692 1.88834 0
M  V30 12690 C 1220.91 2.21542 2.56329 0
M  V30 12691 C 1219.47 2.14309 3.09433 0
M  V30 12692 C 1218.62 2.09012 1.82235 0
M  V30 12693 H 1221.57 1.45032 0.64431 0
M  V30 12694 H 1221.59 1.82332 3.33969 0
M  V30 12695 H 1221.1 3.22042 2.16589 0
M  V30 12696 H 1219.21 1.17113 3.53717 0
M  V30 12697 H 1219.32 3.04866 3.69586 0
M  V30 12698 H 1217.68 1.54492 2.02495 0
M  V30 12699 H 1218.47 3.11319 1.4469 0
M  V30 12700 N 1220.91 -1.05686 1.16912 0
M  V30 12701 C 1222.14 -1.82018 0.977392 0
M  V30 12702 C 1222.55 -1.83072 -0.477636 0
M  V30 12703 O 1221.89 -1.25296 -1.34338 0
M  V30 12704 C 1221.95 -3.29592 1.4356 0
M  V30 12705 C 1221.62 -3.5223 2.91175 0
M  V30 12706 C 1222.61 -3.44767 3.89142 0
M  V30 12707 C 1220.3 -3.79353 3.29236 0
M  V30 12708 C 1222.29 -3.64104 5.2317 0
M  V30 12709 C 1219.98 -3.98339 4.63432 0
M  V30 12710 C 1220.98 -3.90713 5.60207 0
M  V30 12711 O 1220.67 -4.09175 6.91976 0
M  V30 12712 H 1220.4 -0.580578 0.346273 0
M  V30 12713 H 1222.95 -1.34199 1.55498 0
M  V30 12714 H 1221.18 -3.78302 0.80153 0
M  V30 12715 H 1222.87 -3.87435 1.21032 0
M  V30 12716 H 1223.64 -3.23796 3.61083 0
M  V30 12717 H 1219.52 -3.84395 2.54482 0
M  V30 12718 H 1223.06 -3.58068 5.98693 0
M  V30 12719 H 1218.96 -4.18801 4.91198 0
M  V30 12720 H 1219.73 -4.26429 6.98642 0
M  V30 12721 N 1222.39 -0.968567 -1.24324 0
M  V30 12722 C 1223.63 -0.641458 -1.9302 0
M  V30 12723 C 1223.99 0.814553 -1.74307 0
M  V30 12724 O 1223.28 1.57848 -1.08603 0
M  V30 12725 C 1223.48 -0.952762 -3.44467 0
M  V30 12726 C 1223.31 -2.43748 -3.77911 0
M  V30 12727 C 1222.08 -3.09746 -3.99231 0
M  V30 12728 C 1224.27 -3.4176 -3.84324 0
M  V30 12729 N 1222.26 -4.47947 -4.19782 0
M  V30 12730 C 1223.63 -4.65321 -4.09728 0
M  V30 12731 C 1225.68 -3.36406 -3.67064 0
M  V30 12732 C 1224.38 -5.84186 -4.19665 0
M  V30 12733 C 1226.41 -4.54624 -3.78248 0
M  V30 12734 C 1225.77 -5.76976 -4.04077 0
M  V30 12735 H 1221.87 -0.285584 -0.727987 0
M  V30 12736 H 1224.46 -1.2436 -1.49808 0
M  V30 12737 H 1222.63 -0.379421 -3.86542 0
M  V30 12738 H 1224.36 -0.584137 -4.00462 0
M  V30 12739 H 1221.11 -2.60274 -3.95669 0
M  V30 12740 H 1221.54 -5.19559 -4.34036 0
M  V30 12741 H 1226.18 -2.42847 -3.461 0
M  V30 12742 H 1223.9 -6.78172 -4.3944 0
M  V30 12743 H 1227.48 -4.52043 -3.66262 0
M  V30 12744 H 1226.36 -6.66925 -4.1253 0
M  V30 12745 N 1223.87 1.39211 -0.738786 0
M  V30 12746 C 1225.14 1.9442 -0.214533 0
M  V30 12747 C 1225.52 1.67528 1.28443 0
M  V30 12748 O 1224.87 1.0056 2.05183 0
M  V30 12749 C 1225.08 3.44603 -0.552232 0
M  V30 12750 C 1226.43 4.21602 -0.503663 0
M  V30 12751 O 1227.45 3.52819 -0.489647 0
M  V30 12752 O 1226.31 5.44194 -0.50153 0
M  V30 12753 H 1223.41 0.826011 -0.0404247 0
M  V30 12754 H 1225.95 1.48689 -0.817902 0
M  V30 12755 H 1224.72 3.57626 -1.58806 0
M  V30 12756 H 1224.35 3.9752 0.0799096 0
M  V30 12757 N 1225.34 0.486708 1.49896 0
M  V30 12758 C 1226.28 -0.345627 2.25567 0
M  V30 12759 C 1227.26 -0.982794 1.29537 0
M  V30 12760 O 1228.44 -1.01569 1.58796 0
M  V30 12761 C 1225.57 -1.48555 3.04383 0
M  V30 12762 C 1224.61 -0.964196 4.15458 0
M  V30 12763 S 1225.45 0.133631 5.35333 0
M  V30 12764 C 1226.6 -1.00979 6.17701 0
M  V30 12765 H 1226.83 0.296677 2.95816 0
M  V30 12766 H 1224.37 0.271798 1.51989 0
M  V30 12767 H 1226.33 -2.13878 3.50381 0
M  V30 12768 H 1224.99 -2.09942 2.33631 0
M  V30 12769 H 1224.18 -1.81804 4.70067 0
M  V30 12770 H 1223.78 -0.388419 3.71978 0
M  V30 12771 H 1226.07 -1.91812 6.4978 0
M  V30 12772 H 1227.02 -0.502633 7.06314 0
M  V30 12773 H 1227.42 -1.27067 5.50013 0
M  V30 12774 N 1226.82 -1.56058 0.219941 0
M  V30 12775 C 1228.05 -2.02652 -0.417101 0
M  V30 12776 C 1228.47 -1.09977 -1.53461 0
M  V30 12777 O 1227.82 -0.109088 -1.82174 0
M  V30 12778 C 1227.87 -3.48787 -0.950244 0
M  V30 12779 O 1227.6 -4.37928 0.12271 0
M  V30 12780 C 1229.1 -4.11018 -1.66069 0
M  V30 12781 H 1226.32 -0.663163 -0.102254 0
M  V30 12782 H 1228.86 -2.01722 0.335923 0
M  V30 12783 H 1227.02 -3.50338 -1.65355 0
M  V30 12784 H 1227.43 -5.23764 -0.277785 0
M  V30 12785 H 1228.9 -5.15046 -1.98575 0
M  V30 12786 H 1229.38 -3.55921 -2.57326 0
M  V30 12787 H 1229.99 -4.13313 -1.00263 0
M  V30 12788 N 1228.3 0.053464 -1.57509 0
M  V30 12789 C 1229.25 1.08014 -2.05999 0
M  V30 12790 C 1230.24 1.38958 -0.968862 0
M  V30 12791 O 1231.45 1.3815 -1.15389 0
M  V30 12792 H 1227.82 0.36575 -0.657062 0
M  V30 12793 H 1229.8 0.645169 -2.91342 0
M  V30 12794 C 1228.54 2.38004 -2.53475 0
M  V30 12795 H 1227.87 2.15048 -3.37038 0
M  V30 12796 H 1229.31 3.08244 -2.91138 0
M  V30 12797 C 1227.77 3.05259 -1.42543 0
M  V30 12798 O 1228.3 3.94097 -0.777832 0
M  V30 12799 N 1226.5 2.66182 -1.16599 0
M  V30 12800 H 1226.05 1.94027 -1.69444 0
M  V30 12801 H 1226.01 3.11503 -0.42585 0
M  V30 12802 N 1229.78 1.54207 0.325255 0
M  V30 12803 C 1230.71 1.79812 1.42128 0
M  V30 12804 C 1231.72 0.68003 1.47917 0
M  V30 12805 O 1232.91 0.957107 1.50671 0
M  V30 12806 C 1230.01 1.89935 2.80674 0
M  V30 12807 C 1229.19 3.20078 2.98108 0
M  V30 12808 C 1228.25 3.20924 4.17006 0
M  V30 12809 O 1227.27 3.94571 4.10247 0
M  V30 12810 N 1228.47 2.44588 5.26457 0
M  V30 12811 H 1231.24 2.74396 1.20527 0
M  V30 12812 H 1228.8 1.53483 0.515233 0
M  V30 12813 H 1230.79 1.8793 3.58419 0
M  V30 12814 H 1229.36 1.02455 2.95333 0
M  V30 12815 H 1228.58 3.35057 2.07679 0
M  V30 12816 H 1229.87 4.06008 3.06651 0
M  V30 12817 H 1229.27 1.8434 5.34823 0
M  V30 12818 H 1227.82 2.48363 6.02627 0
M  V30 12819 N 1231.26 -0.58723 1.46251 0
M  V30 12820 C 1232.53 -1.34727 1.41802 0
M  V30 12821 C 1232.91 -2.10867 0.0991354 0
M  V30 12822 O 1232.26 -2.09194 -0.919242 0
M  V30 12823 C 1232.47 -2.27706 2.64482 0
M  V30 12824 C 1233.82 -2.89678 3.10438 0
M  V30 12825 O 1234.84 -2.38021 2.64999 0
M  V30 12826 O 1233.7 -3.83493 3.89352 0
M  V30 12827 H 1230.8 -0.605119 0.563702 0
M  V30 12828 H 1233.34 -0.608623 1.5841 0
M  V30 12829 H 1232.12 -1.70842 3.52035 0
M  V30 12830 H 1231.74 -3.08918 2.50311 0
M  V30 12831 N 1232.74 -1.33881 -0.831482 0
M  V30 12832 C 1233.98 -1.25942 -1.58955 0
M  V30 12833 C 1234.31 0.172542 -1.93432 0
M  V30 12834 O 1233.59 1.11577 -1.59314 0
M  V30 12835 C 1233.87 -2.14193 -2.89471 0
M  V30 12836 C 1233.73 -3.65883 -2.61628 0
M  V30 12837 C 1235.04 -2.02071 -3.90967 0
M  V30 12838 H 1232.16 -0.458841 -0.576744 0
M  V30 12839 H 1234.81 -1.64052 -0.958482 0
M  V30 12840 H 1232.96 -1.81821 -3.43327 0
M  V30 12841 H 1234.63 -4.08581 -2.14148 0
M  V30 12842 H 1232.87 -3.87397 -1.95208 0
M  V30 12843 H 1233.54 -4.22988 -3.54662 0
M  V30 12844 H 1236.02 -2.30476 -3.46439 0
M  V30 12845 H 1234.89 -2.66059 -4.80108 0
M  V30 12846 H 1235.15 -0.995121 -4.30755 0
M  V30 12847 N 1234.21 1.05064 -1.1747 0
M  V30 12848 C 1235.46 1.77481 -0.958301 0
M  V30 12849 C 1235.78 1.88725 0.51401 0
M  V30 12850 O 1236.98 2.57895 0.848657 0
M  V30 12851 C 1235.44 3.19048 -1.66543 0
M  V30 12852 C 1235.05 3.1593 -3.17636 0
M  V30 12853 C 1236.79 3.95912 -1.53146 0
M  V30 12854 C 1234.7 4.52293 -3.81032 0
M  V30 12855 H 1233.63 0.665247 -0.354913 0
M  V30 12856 H 1236.28 1.17751 -1.40737 0
M  V30 12857 H 1234.66 3.79113 -1.1441 0
M  V30 12858 H 1235.83 2.65375 -3.76713 0
M  V30 12859 H 1234.15 2.52564 -3.31059 0
M  V30 12860 H 1236.75 4.96737 -1.9788 0
M  V30 12861 H 1237.09 4.13498 -0.482203 0
M  V30 12862 H 1237.62 3.42399 -2.02504 0
M  V30 12863 H 1234.36 4.39913 -4.8596 0
M  V30 12864 H 1233.88 5.02991 -3.26741 0
M  V30 12865 H 1235.56 5.2123 -3.83312 0
M  V30 12866 N 1235.69 0.975146 1.23809 0
M  V30 12867 C 1236.64 0.503396 2.27087 0
M  V30 12868 C 1237.63 -0.43689 1.63669 0
M  V30 12869 O 1238.84 -0.31136 1.77287 0
M  V30 12870 H 1235.21 0.144346 0.738017 0
M  V30 12871 H 1237.19 1.38627 2.64244 0
M  V30 12872 C 1235.93 -0.183682 3.47214 0
M  V30 12873 H 1235.26 0.530753 3.96261 0
M  V30 12874 H 1236.7 -0.477479 4.21303 0
M  V30 12875 C 1235.16 -1.41317 3.05829 0
M  V30 12876 O 1235.69 -2.50975 3.13647 0
M  V30 12877 N 1233.89 -1.28191 2.60798 0
M  V30 12878 H 1233.44 -0.38967 2.54636 0
M  V30 12879 H 1233.4 -2.10565 2.33473 0
M  V30 12880 N 1237.17 -1.38817 0.746158 0
M  V30 12881 C 1238.13 -2.28876 0.121886 0
M  V30 12882 C 1239.13 -1.46838 -0.655379 0
M  V30 12883 O 1240.32 -1.67377 -0.482744 0
M  V30 12884 C 1237.45 -3.30487 -0.836118 0
M  V30 12885 H 1238.65 -2.85586 0.915453 0
M  V30 12886 H 1236.2 -1.47652 0.512691 0
M  V30 12887 H 1236.94 -2.78853 -1.65563 0
M  V30 12888 H 1236.72 -3.9109 -0.281271 0
M  V30 12889 H 1238.21 -3.97848 -1.26914 0
M  V30 12890 N 1238.65 -0.49465 -1.49636 0
M  V30 12891 C 1239.9 0.0539277 -2.01628 0
M  V30 12892 C 1240.21 1.38634 -1.37986 0
M  V30 12893 O 1241.42 2.02123 -1.81269 0
M  V30 12894 C 1239.87 0.146582 -3.59601 0
M  V30 12895 C 1239.48 -1.1788 -4.32213 0
M  V30 12896 C 1241.22 0.645862 -4.19558 0
M  V30 12897 C 1239.13 -1.04866 -5.82028 0
M  V30 12898 H 1238.06 0.0239278 -0.75362 0
M  V30 12899 H 1240.71 -0.633112 -1.72232 0
M  V30 12900 H 1239.09 0.897931 -3.85685 0
M  V30 12901 H 1240.27 -1.94295 -4.17835 0
M  V30 12902 H 1238.58 -1.61102 -3.83973 0
M  V30 12903 H 1241.18 0.76064 -5.29262 0
M  V30 12904 H 1241.52 1.64313 -3.82501 0
M  V30 12905 H 1242.06 -0.04877 -3.9777 0
M  V30 12906 H 1238.79 -2.02 -6.23599 0
M  V30 12907 H 1238.31 -0.325293 -5.98917 0
M  V30 12908 H 1239.99 -0.724799 -6.42927 0
M  V30 12909 N 1240.13 1.55939 -0.228214 0
M  V30 12910 C 1241.04 2.24213 0.690339 0
M  V30 12911 C 1242.05 1.25197 1.20838 0
M  V30 12912 O 1243.23 1.58026 1.24859 0
M  V30 12913 C 1240.29 2.91384 1.87873 0
M  V30 12914 C 1239.35 4.05761 1.40201 0
M  V30 12915 C 1238.59 4.6972 2.53376 0
M  V30 12916 O 1238.81 4.32687 3.71669 0
M  V30 12917 O 1237.74 5.58587 2.24198 0
M  V30 12918 H 1241.57 3.03383 0.138692 0
M  V30 12919 H 1239.15 1.494 0.00251504 0
M  V30 12920 H 1241.04 3.33758 2.57262 0
M  V30 12921 H 1239.71 2.15168 2.41835 0
M  V30 12922 H 1238.62 3.67943 0.675945 0
M  V30 12923 H 1239.95 4.83739 0.908691 0
M  V30 12924 N 1241.6 -0.0451101 1.57535 0
M  V30 12925 C 1242.54 -1.07792 2.02271 0
M  V30 12926 C 1243.55 -1.33423 0.932854 0
M  V30 12927 O 1244.74 -1.31193 1.2104 0
M  V30 12928 C 1241.84 -2.42314 2.36933 0
M  V30 12929 C 1241.01 -2.36266 3.68099 0
M  V30 12930 C 1240.07 -3.53108 3.9013 0
M  V30 12931 O 1239.1 -3.33327 4.61391 0
M  V30 12932 N 1240.3 -4.74415 3.3453 0
M  V30 12933 H 1243.06 -0.696744 2.91489 0
M  V30 12934 H 1240.62 -0.233336 1.6021 0
M  V30 12935 H 1242.62 -3.19171 2.48821 0
M  V30 12936 H 1241.19 -2.72335 1.53468 0
M  V30 12937 H 1240.41 -1.44615 3.66715 0
M  V30 12938 H 1241.69 -2.29351 4.54175 0
M  V30 12939 H 1241.09 -4.93388 2.76739 0
M  V30 12940 H 1239.65 -5.48692 3.51825 0
M  V30 12941 N 1243.08 -1.54377 -0.317073 0
M  V30 12942 C 1244.36 -1.63551 -1.07287 0
M  V30 12943 C 1244.74 -0.473499 -2.05721 0
M  V30 12944 O 1244.09 0.531545 -2.22232 0
M  V30 12945 C 1244.3 -3.00842 -1.76904 0
M  V30 12946 C 1245.65 -3.57111 -2.29689 0
M  V30 12947 O 1246.67 -3.0319 -1.86961 0
M  V30 12948 O 1245.53 -4.51486 -3.07932 0
M  V30 12949 H 1242.62 -0.662557 -0.494922 0
M  V30 12950 H 1245.17 -1.66723 -0.316444 0
M  V30 12951 H 1243.94 -3.76854 -1.05341 0
M  V30 12952 H 1243.56 -3.01377 -2.59341 0
M  V30 12953 N 1244.56 0.579466 -1.4656 0
M  V30 12954 C 1245.79 1.36153 -1.55389 0
M  V30 12955 C 1246.2 1.88192 -0.195062 0
M  V30 12956 O 1245.54 1.64464 0.81836 0
M  V30 12957 C 1245.6 2.58269 -2.50075 0
M  V30 12958 C 1245.27 2.27675 -3.96249 0
M  V30 12959 C 1246.26 1.86313 -4.85369 0
M  V30 12960 C 1243.95 2.39719 -4.41407 0
M  V30 12961 C 1245.94 1.57395 -6.17661 0
M  V30 12962 C 1243.63 2.10414 -5.73733 0
M  V30 12963 C 1244.63 1.69317 -6.6168 0
M  V30 12964 O 1244.32 1.40373 -7.9155 0
M  V30 12965 H 1244.05 0.422174 -0.527963 0
M  V30 12966 H 1246.6 0.711089 -1.92698 0
M  V30 12967 H 1244.83 3.26129 -2.0779 0
M  V30 12968 H 1246.52 3.20339 -2.49275 0
M  V30 12969 H 1247.29 1.7652 -4.51736 0
M  V30 12970 H 1243.17 2.70669 -3.73175 0
M  V30 12971 H 1246.71 1.25244 -6.86265 0
M  V30 12972 H 1242.61 2.19833 -6.06913 0
M  V30 12973 H 1243.38 1.54191 -8.03845 0
M  V30 12974 N 1246.04 1.3432 0.824371 0
M  V30 12975 C 1247.45 1.1397 1.11727 0
M  V30 12976 C 1247.65 -0.0597597 2.01411 0
M  V30 12977 O 1246.71 -0.735717 2.41544 0
M  V30 12978 C 1248.02 2.43423 1.76538 0
M  V30 12979 C 1249.57 2.49466 1.89039 0
M  V30 12980 C 1250.05 3.78917 2.57266 0
M  V30 12981 N 1251.54 3.8007 2.64767 0
M  V30 12982 C 1252.27 4.76953 3.18282 0
M  V30 12983 N 1251.77 5.84217 3.72373 0
M  V30 12984 N 1253.56 4.6441 3.1667 0
M  V30 12985 H 1245.71 2.11175 0.227802 0
M  V30 12986 H 1247.98 0.933774 0.163615 0
M  V30 12987 H 1247.68 3.31278 1.18102 0
M  V30 12988 H 1247.56 2.56655 2.7642 0
M  V30 12989 H 1249.94 1.62052 2.46623 0
M  V30 12990 H 1250.02 2.40163 0.880635 0
M  V30 12991 H 1249.67 4.6672 2.00336 0
M  V30 12992 H 1249.6 3.85502 3.58742 0
M  V30 12993 H 1252.09 3.02556 2.26425 0
M  V30 12994 H 1252.4 6.54159 4.11455 0
M  V30 12995 H 1250.75 5.87933 3.70621 0
M  V30 12996 H 1253.94 3.7976 2.73678 0
M  V30 12997 H 1254.11 5.40081 3.58073 0
M  V30 12998 N 1247.52 -1.0444 1.18026 0
M  V30 12999 C 1248.45 -2.14297 0.927314 0
M  V30 13000 C 1249.43 -1.69575 -0.13357 0
M  V30 13001 O 1250.61 -1.94191 0.0182439 0
M  V30 13002 C 1247.74 -3.44397 0.448134 0
M  V30 13003 C 1246.7 -4.02723 1.44907 0
M  V30 13004 C 1246.02 -5.28257 0.827555 0
M  V30 13005 C 1247.32 -4.39331 2.82463 0
M  V30 13006 H 1249.02 -2.35715 1.84605 0
M  V30 13007 H 1246.56 -1.13281 0.889012 0
M  V30 13008 H 1248.52 -4.20606 0.258554 0
M  V30 13009 H 1247.24 -3.22654 -0.506159 0
M  V30 13010 H 1245.9 -3.28591 1.62552 0
M  V30 13011 H 1245.55 -5.02822 -0.13381 0
M  V30 13012 H 1245.25 -5.68242 1.49581 0
M  V30 13013 H 1246.77 -6.07147 0.64842 0
M  V30 13014 H 1248.18 -5.06543 2.68491 0
M  V30 13015 H 1246.58 -4.90355 3.45936 0
M  V30 13016 H 1247.65 -3.4933 3.36299 0
M  V30 13017 N 1248.99 -0.981699 -1.2329 0
M  V30 13018 C 1250.41 -0.688087 -1.73558 0
M  V30 13019 C 1250.76 0.795633 -1.79344 0
M  V30 13020 O 1249.88 1.62227 -1.43218 0
M  V30 13021 C 1250.48 -1.24235 -3.152 0
M  V30 13022 C 1249.04 -0.998356 -3.62918 0
M  V30 13023 C 1248.18 -1.3693 -2.41134 0
M  V30 13024 H 1251.13 -1.15539 -1.08795 0
M  V30 13025 H 1251.15 -0.61541 -3.7549 0
M  V30 13026 H 1250.67 -2.32223 -3.10957 0
M  V30 13027 H 1248.77 0.0653847 -3.72543 0
M  V30 13028 H 1248.88 -1.65385 -4.49649 0
M  V30 13029 H 1247.24 -0.787773 -2.42211 0
M  V30 13030 H 1248.03 -2.45898 -2.39561 0
M  V30 13031 N 1250.47 1.3842 -0.753509 0
M  V30 13032 C 1251.88 1.82847 -0.377331 0
M  V30 13033 C 1252.23 1.62867 1.09401 0
M  V30 13034 O 1251.36 1.12981 1.84565 0
M  V30 13035 C 1251.95 3.31945 -0.678095 0
M  V30 13036 C 1250.51 3.7472 -0.355196 0
M  V30 13037 C 1249.66 2.61193 -0.931311 0
M  V30 13038 H 1252.61 1.2715 -0.949667 0
M  V30 13039 H 1252.63 3.80475 0.0437292 0
M  V30 13040 H 1252.14 3.46455 -1.74902 0
M  V30 13041 H 1250.25 3.65789 0.70915 0
M  V30 13042 H 1250.36 4.71487 -0.850693 0
M  V30 13043 H 1248.72 2.5219 -0.356695 0
M  V30 13044 H 1249.51 2.78503 -2.00727 0
M  V30 13045 N 1251.95 0.502579 1.49372 0
M  V30 13046 C 1253.36 0.055187 1.86618 0
M  V30 13047 C 1253.71 -1.35938 1.41476 0
M  V30 13048 O 1252.84 -2.01333 0.793338 0
M  V30 13049 C 1253.43 0.0933734 3.38671 0
M  V30 13050 C 1251.99 -0.298685 3.75213 0
M  V30 13051 C 1251.14 0.465216 2.7337 0
M  V30 13052 H 1254.09 0.715281 1.41667 0
M  V30 13053 H 1254.11 -0.701549 3.73977 0
M  V30 13054 H 1253.62 1.12303 3.71497 0
M  V30 13055 H 1251.72 -1.33151 3.47996 0
M  V30 13056 H 1251.84 0.0218637 4.79095 0
M  V30 13057 H 1250.2 -0.0851469 2.54558 0
M  V30 13058 H 1250.98 1.49498 3.09039 0
M  V30 13059 N 1253.43 -1.55816 0.23648 0
M  V30 13060 C 1254.36 -2.16945 -0.707826 0
M  V30 13061 C 1255.34 -1.11832 -1.18036 0
M  V30 13062 O 1256.52 -1.40166 -1.26039 0
M  V30 13063 C 1253.65 -2.76175 -1.96074 0
M  V30 13064 C 1252.7 -3.9425 -1.62695 0
M  V30 13065 S 1253.53 -5.30381 -0.738663 0
M  V30 13066 C 1254.69 -5.93059 -2.00081 0
M  V30 13067 H 1254.92 -2.96703 -0.188303 0
M  V30 13068 H 1252.45 -1.54386 0.0210284 0
M  V30 13069 H 1254.41 -3.10938 -2.68007 0
M  V30 13070 H 1253.07 -1.96382 -2.45138 0
M  V30 13071 H 1252.26 -4.34247 -2.55823 0
M  V30 13072 H 1251.87 -3.6071 -0.988129 0
M  V30 13073 H 1254.16 -6.09941 -2.94921 0
M  V30 13074 H 1255.1 -6.88739 -1.64449 0
M  V30 13075 H 1255.51 -5.2203 -2.14815 0
M  V30 13076 N 1254.91 0.036755 -1.57557 0
M  V30 13077 C 1256.18 0.764087 -1.80059 0
M  V30 13078 C 1256.56 1.93983 -0.83269 0
M  V30 13079 O 1255.91 2.28148 0.126815 0
M  V30 13080 C 1256.12 1.20433 -3.27562 0
M  V30 13081 C 1257.47 1.6234 -3.9234 0
M  V30 13082 O 1258.49 1.29911 -3.31665 0
M  V30 13083 O 1257.35 2.22504 -4.99154 0
M  V30 13084 H 1254.45 0.368866 -0.74018 0
M  V30 13085 H 1256.99 0.0141254 -1.69694 0
M  V30 13086 H 1255.76 0.364646 -3.89597 0
M  V30 13087 H 1255.39 2.01454 -3.42786 0
M  V30 13088 N 1256.39 1.54543 0.308881 0
M  V30 13089 C 1257.63 1.75182 1.05312 0
M  V30 13090 C 1257.99 0.522347 1.84758 0
M  V30 13091 O 1259.19 0.606334 2.61872 0
M  V30 13092 C 1257.46 3.0007 1.94147 0
M  V30 13093 S 1259.02 3.41676 2.75323 0
M  V30 13094 H 1255.84 0.615862 0.355296 0
M  V30 13095 H 1258.44 1.92739 0.327413 0
M  V30 13096 H 1257.14 3.87685 1.34643 0
M  V30 13097 H 1256.68 2.85078 2.71098 0
M  V30 13098 H 1258.69 2.98128 3.96654 0
M  V30 13099 N 1257.86 -0.571685 1.46866 0
M  V30 13100 C 1259.27 -1.15383 1.46778 0
M  V30 13101 C 1259.63 -1.95023 0.214576 0
M  V30 13102 O 1258.75 -2.05386 -0.681574 0
M  V30 13103 C 1259.35 -2.09915 2.65935 0
M  V30 13104 C 1257.9 -2.6343 2.68852 0
M  V30 13105 C 1257.05 -1.39517 2.39646 0
M  V30 13106 H 1260 -0.359036 1.54585 0
M  V30 13107 H 1260.02 -2.9356 2.42081 0
M  V30 13108 H 1259.54 -1.51923 3.57129 0
M  V30 13109 H 1257.64 -3.2526 1.8176 0
M  V30 13110 H 1257.75 -3.05412 3.69134 0
M  V30 13111 H 1256.11 -1.69702 1.8993 0
M  V30 13112 H 1256.9 -0.833399 3.33031 0
M  V30 13113 N 1259.34 -1.34755 -0.817236 0
M  V30 13114 C 1260.57 -1.30676 -1.61054 0
M  V30 13115 C 1260.99 0.115343 -1.87746 0
M  V30 13116 O 1260.35 1.07887 -1.45705 0
M  V30 13117 C 1260.4 -2.10881 -2.92509 0
M  V30 13118 O 1259.5 -1.48223 -3.84842 0
M  V30 13119 H 1258.84 -0.448531 -0.489608 0
M  V30 13120 H 1261.37 -1.77642 -1.01512 0
M  V30 13121 H 1261.38 -2.22446 -3.42026 0
M  V30 13122 H 1260.06 -3.14274 -2.72406 0
M  V30 13123 H 1258.63 -1.45434 -3.4337 0
M  V30 13124 N 1260.82 1.03812 -1.18578 0
M  V30 13125 C 1261.78 2.10049 -0.91718 0
M  V30 13126 C 1262.78 1.60498 0.0985122 0
M  V30 13127 O 1263.97 1.73674 -0.135213 0
M  V30 13128 C 1261.1 3.38813 -0.376599 0
M  V30 13129 H 1262.3 2.3531 -1.85927 0
M  V30 13130 H 1259.85 1.20277 -0.998156 0
M  V30 13131 H 1260.59 3.19216 0.571983 0
M  V30 13132 H 1260.37 3.76096 -1.10881 0
M  V30 13133 H 1261.86 4.17084 -0.207453 0
M  V30 13134 N 1262.3 0.988223 1.22768 0
M  V30 13135 C 1263.23 0.554478 2.26821 0
M  V30 13136 C 1264.21 -0.416293 1.64927 0
M  V30 13137 O 1265.39 -0.30795 1.91743 0
M  V30 13138 C 1262.52 -0.136266 3.47033 0
M  V30 13139 C 1261.48 0.752575 4.21332 0
M  V30 13140 C 1260.8 -0.0708236 5.34653 0
M  V30 13141 C 1262.1 2.04717 4.80508 0
M  V30 13142 H 1263.8 1.42423 2.63355 0
M  V30 13143 H 1261.34 0.686267 1.26595 0
M  V30 13144 H 1263.3 -0.451068 4.18979 0
M  V30 13145 H 1262.02 -1.04053 3.09581 0
M  V30 13146 H 1260.68 1.05095 3.51213 0
M  V30 13147 H 1260.33 -0.975859 4.93443 0
M  V30 13148 H 1260.03 0.520835 5.85287 0
M  V30 13149 H 1261.55 -0.379828 6.09417 0
M  V30 13150 H 1262.97 1.79663 5.44421 0
M  V30 13151 H 1261.36 2.58726 5.41462 0
M  V30 13152 H 1262.43 2.72896 4.00819 0
M  V30 13153 N 1263.78 -1.38018 0.760839 0
M  V30 13154 C 1264.73 -2.27717 0.113521 0
M  V30 13155 C 1265.71 -1.45562 -0.685613 0
M  V30 13156 O 1266.9 -1.68226 -0.550377 0
M  V30 13157 C 1264.03 -3.34478 -0.77325 0
M  V30 13158 C 1263.12 -4.24087 0.0331238 0
M  V30 13159 N 1263.51 -4.94283 1.07323 0
M  V30 13160 C 1261.81 -4.45584 -0.192565 0
M  V30 13161 C 1262.51 -5.60344 1.56172 0
M  V30 13162 N 1261.48 -5.36499 0.875768 0
M  V30 13163 H 1265.28 -2.79456 0.910021 0
M  V30 13164 H 1262.8 -1.51006 0.597561 0
M  V30 13165 H 1264.8 -3.97635 -1.25268 0
M  V30 13166 H 1263.46 -2.84296 -1.56862 0
M  V30 13167 H 1264.47 -4.97036 1.45517 0
M  V30 13168 H 1261.14 -4.06296 -0.960704 0
M  V30 13169 H 1262.53 -6.26477 2.42851 0
M  V30 13170 N 1265.25 -0.510493 -1.49103 0
M  V30 13171 C 1266.19 0.299697 -2.27232 0
M  V30 13172 C 1267.2 0.922102 -1.34168 0
M  V30 13173 O 1268.39 0.803836 -1.59376 0
M  V30 13174 C 1265.49 1.43778 -3.06889 0
M  V30 13175 C 1264.66 0.920927 -4.27595 0
M  V30 13176 C 1263.72 1.93777 -4.89221 0
M  V30 13177 O 1262.75 1.5025 -5.49011 0
M  V30 13178 N 1263.95 3.2688 -4.79718 0
M  V30 13179 H 1266.71 -0.37028 -2.97404 0
M  V30 13180 H 1264.27 -0.343617 -1.58212 0
M  V30 13181 H 1266.27 2.11577 -3.44988 0
M  V30 13182 H 1264.84 2.01175 -2.39264 0
M  V30 13183 H 1264.06 0.0675358 -3.94142 0
M  V30 13184 H 1265.34 0.554168 -5.05773 0
M  V30 13185 H 1264.74 3.64924 -4.32258 0
M  V30 13186 H 1263.3 3.90366 -5.21974 0
M  V30 13187 N 1266.73 1.55688 -0.24474 0
M  V30 13188 C 1267.66 2.24272 0.64995 0
M  V30 13189 C 1268.64 1.22226 1.183 0
M  V30 13190 O 1269.83 1.50873 1.22274 0
M  V30 13191 C 1266.96 2.94053 1.84798 0
M  V30 13192 C 1265.91 4.02769 1.44779 0
M  V30 13193 C 1265.24 4.59965 2.72647 0
M  V30 13194 C 1266.54 5.18601 0.62047 0
M  V30 13195 H 1268.23 2.99298 0.0780654 0
M  V30 13196 H 1265.78 1.43955 0.0361069 0
M  V30 13197 H 1267.73 3.40732 2.47951 0
M  V30 13198 H 1266.45 2.16511 2.44521 0
M  V30 13199 H 1265.11 3.56856 0.839609 0
M  V30 13200 H 1264.76 3.79126 3.30564 0
M  V30 13201 H 1264.46 5.33352 2.46596 0
M  V30 13202 H 1265.99 5.09376 3.36703 0
M  V30 13203 H 1267.4 5.61519 1.15625 0
M  V30 13204 H 1265.8 5.98364 0.456097 0
M  V30 13205 H 1266.87 4.83503 -0.367798 0
M  V30 13206 N 1268.21 -0.0283989 1.57574 0
M  V30 13207 C 1269.14 -1.06191 2.01987 0
M  V30 13208 C 1270.12 -1.35131 0.90434 0
M  V30 13209 O 1271.3 -1.47777 1.17023 0
M  V30 13210 C 1268.43 -2.39646 2.39348 0
M  V30 13211 C 1267.48 -2.26558 3.6135 0
M  V30 13212 S 1268.31 -1.61839 5.10459 0
M  V30 13213 C 1269.47 -2.96783 5.51063 0
M  V30 13214 H 1269.7 -0.683625 2.89333 0
M  V30 13215 H 1267.23 -0.238394 1.52548 0
M  V30 13216 H 1269.19 -3.16394 2.61544 0
M  V30 13217 H 1267.85 -2.74622 1.52452 0
M  V30 13218 H 1267.04 -3.25079 3.85149 0
M  V30 13219 H 1266.65 -1.57954 3.39008 0
M  V30 13220 H 1268.94 -3.93111 5.51788 0
M  V30 13221 H 1269.88 -2.77716 6.51367 0
M  V30 13222 H 1270.29 -2.99386 4.78569 0
M  V30 13223 N 1269.69 -1.54705 -0.300681 0
M  V30 13224 C 1270.62 -1.88679 -1.37559 0
M  V30 13225 C 1271.6 -0.74574 -1.52881 0
M  V30 13226 O 1272.78 -1.0015 -1.66384 0
M  V30 13227 C 1269.91 -2.13438 -2.73974 0
M  V30 13228 C 1268.87 -3.29284 -2.73415 0
M  V30 13229 C 1268.19 -3.39462 -4.13122 0
M  V30 13230 C 1269.49 -4.66382 -2.35128 0
M  V30 13231 H 1271.19 -2.78707 -1.09373 0
M  V30 13232 H 1268.73 -1.341 -0.524704 0
M  V30 13233 H 1270.69 -2.35791 -3.49257 0
M  V30 13234 H 1269.41 -1.20181 -3.03684 0
M  V30 13235 H 1268.07 -3.06855 -2.00588 0
M  V30 13236 H 1267.72 -2.43721 -4.4001 0
M  V30 13237 H 1267.42 -4.17334 -4.1365 0
M  V30 13238 H 1268.94 -3.64075 -4.90185 0
M  V30 13239 H 1270.36 -4.88463 -3.00128 0
M  V30 13240 H 1268.75 -5.4697 -2.46867 0
M  V30 13241 H 1269.82 -4.67078 -1.30256 0
M  V30 13242 N 1271.17 0.563888 -1.47167 0
M  V30 13243 C 1272.44 1.32454 -1.43928 0
M  V30 13244 C 1272.82 2.10683 -0.13267 0
M  V30 13245 O 1272.17 2.1063 0.885845 0
M  V30 13246 C 1272.38 2.2347 -2.68071 0
M  V30 13247 C 1273.73 2.84702 -3.15008 0
M  V30 13248 O 1274.75 2.33775 -2.68752 0
M  V30 13249 O 1273.61 3.77251 -3.95404 0
M  V30 13250 H 1270.71 0.596074 -0.573258 0
M  V30 13251 H 1273.25 0.583345 -1.59359 0
M  V30 13252 H 1272.02 1.6522 -3.54708 0
M  V30 13253 H 1271.65 3.04897 -2.55193 0
M  V30 13254 N 1272.64 1.35187 0.810078 0
M  V30 13255 C 1273.88 1.29626 1.58039 0
M  V30 13256 C 1274.25 -0.12865 1.91569 0
M  V30 13257 O 1275.45 -0.308587 2.67023 0
M  V30 13258 C 1273.72 2.17414 2.83665 0
M  V30 13259 S 1275.28 2.29334 3.741 0
M  V30 13260 H 1272.1 0.460722 0.541531 0
M  V30 13261 H 1274.7 1.7054 0.955839 0
M  V30 13262 H 1273.4 3.19927 2.57051 0
M  V30 13263 H 1272.93 1.77444 3.51108 0
M  V30 13264 H 1274.95 1.47559 4.73752 0
M  V30 13265 N 1274.12 -1.03182 1.19127 0
M  V30 13266 C 1275.37 -1.76917 1.00359 0
M  V30 13267 C 1275.72 -1.86794 -0.461075 0
M  V30 13268 O 1275.02 -1.37151 -1.33791 0
M  V30 13269 C 1275.21 -3.19452 1.60267 0
M  V30 13270 C 1275.04 -3.2347 3.12406 0
M  V30 13271 C 1273.81 -3.31587 3.81285 0
M  V30 13272 C 1276.01 -3.10754 4.09801 0
M  V30 13273 N 1273.99 -3.24948 5.20848 0
M  V30 13274 C 1275.36 -3.11715 5.35942 0
M  V30 13275 C 1277.42 -2.9486 4.01201 0
M  V30 13276 C 1276.12 -2.98413 6.54479 0
M  V30 13277 C 1278.14 -2.82907 5.19344 0
M  V30 13278 C 1277.51 -2.8452 6.44382 0
M  V30 13279 H 1273.61 -0.658788 0.421334 0
M  V30 13280 H 1276.19 -1.22849 1.51051 0
M  V30 13281 H 1274.36 -3.71847 1.1218 0
M  V30 13282 H 1276.09 -3.81533 1.34963 0
M  V30 13283 H 1272.85 -3.37686 3.32062 0
M  V30 13284 H 1273.27 -3.25043 5.93865 0
M  V30 13285 H 1277.91 -2.92437 3.05353 0
M  V30 13286 H 1275.63 -2.99587 7.50515 0
M  V30 13287 H 1279.22 -2.71649 5.14488 0
M  V30 13288 H 1278.1 -2.75369 7.34263 0
M  V30 13289 N 1275.6 -0.99472 -1.22242 0
M  V30 13290 C 1276.53 -0.504783 -2.23572 0
M  V30 13291 C 1277.55 0.401105 -1.57781 0
M  V30 13292 O 1278.73 0.202948 -1.77343 0
M  V30 13293 C 1275.83 0.287524 -3.37678 0
M  V30 13294 C 1275.01 -0.614941 -4.33056 0
M  V30 13295 C 1274.07 0.125974 -5.26049 0
M  V30 13296 O 1273.09 -0.489234 -5.67094 0
M  V30 13297 N 1274.29 1.40772 -5.63173 0
M  V30 13298 H 1277.06 -1.37612 -2.66238 0
M  V30 13299 H 1274.62 -0.86965 -1.3656 0
M  V30 13300 H 1276.61 0.791884 -3.96877 0
M  V30 13301 H 1275.18 1.05998 -2.9408 0
M  V30 13302 H 1274.4 -1.29994 -3.72149 0
M  V30 13303 H 1275.69 -1.22947 -4.93722 0
M  V30 13304 H 1275.09 1.92884 -5.31801 0
M  V30 13305 H 1273.65 1.85723 -6.2478 0
M  V30 13306 N 1277.08 1.37613 -0.768148 0
M  V30 13307 C 1278.03 2.30311 -0.150176 0
M  V30 13308 C 1279 1.50918 0.69376 0
M  V30 13309 O 1280.18 1.795 0.64687 0
M  V30 13310 C 1277.32 3.37382 0.72576 0
M  V30 13311 C 1276.43 4.31791 -0.13439 0
M  V30 13312 C 1275.57 5.25937 0.745915 0
M  V30 13313 C 1274.61 6.11988 -0.116988 0
M  V30 13314 N 1273.74 6.98387 0.721091 0
M  V30 13315 H 1278.58 2.82579 -0.946212 0
M  V30 13316 H 1276.12 1.3911 -0.478217 0
M  V30 13317 H 1278.08 3.98084 1.24839 0
M  V30 13318 H 1276.71 2.86488 1.48743 0
M  V30 13319 H 1275.76 3.72426 -0.774793 0
M  V30 13320 H 1277.07 4.9234 -0.800163 0
M  V30 13321 H 1276.23 5.91826 1.33516 0
M  V30 13322 H 1274.97 4.6579 1.44538 0
M  V30 13323 H 1273.97 5.45081 -0.7188 0
M  V30 13324 H 1275.2 6.74207 -0.813732 0
M  V30 13325 H 1273.14 6.40772 1.40524 0
M  V30 13326 H 1273.06 7.55916 0.112536 0
M  V30 13327 H 1274.33 7.6867 1.29485 0
M  V30 13328 N 1278.56 0.518393 1.4883 0
M  V30 13329 C 1279.83 -0.0837498 1.95421 0
M  V30 13330 C 1280.21 -1.52435 1.46037 0
M  V30 13331 O 1279.56 -2.18093 0.681736 0
M  V30 13332 C 1279.77 0.0215333 3.48993 0
M  V30 13333 C 1281.12 -0.143615 4.24357 0
M  V30 13334 O 1282.14 -0.0528223 3.56161 0
M  V30 13335 O 1281 -0.332231 5.45489 0
M  V30 13336 H 1278.1 -0.0857132 0.822546 0
M  V30 13337 H 1280.64 0.582169 1.59402 0
M  V30 13338 H 1279.41 1.02549 3.77623 0
M  V30 13339 H 1279.04 -0.683756 3.91677 0
M  V30 13340 N 1280.03 -1.55556 0.252993 0
M  V30 13341 C 1281.45 -1.59276 -0.101714 0
M  V30 13342 C 1281.65 -1.27018 -1.56424 0
M  V30 13343 O 1280.71 -1.02042 -2.30963 0
M  V30 13344 C 1282.02 -2.99634 0.252969 0
M  V30 13345 C 1283.57 -3.12375 0.197767 0
M  V30 13346 C 1284.04 -4.54963 0.52657 0
M  V30 13347 N 1285.53 -4.60734 0.477296 0
M  V30 13348 C 1286.27 -5.69052 0.704793 0
M  V30 13349 N 1285.76 -6.85607 0.99574 0
M  V30 13350 N 1287.56 -5.58501 0.635086 0
M  V30 13351 H 1279.71 -1.74793 1.2067 0
M  V30 13352 H 1281.97 -0.813971 0.485958 0
M  V30 13353 H 1281.68 -3.27998 1.26926 0
M  V30 13354 H 1281.55 -3.74888 -0.416984 0
M  V30 13355 H 1283.94 -2.83788 -0.809209 0
M  V30 13356 H 1284.02 -2.39382 0.901659 0
M  V30 13357 H 1283.66 -4.84271 1.53113 0
M  V30 13358 H 1283.59 -5.26224 -0.198869 0
M  V30 13359 H 1286.08 -3.76995 0.261398 0
M  V30 13360 H 1286.4 -7.64096 1.15659 0
M  V30 13361 H 1284.74 -6.87276 1.03328 0
M  V30 13362 H 1287.93 -4.6632 0.407789 0
M  V30 13363 H 1288.11 -6.42845 0.815777 0
M  V30 13364 N 1281.51 0.0200419 -1.57587 0
M  V30 13365 C 1282.46 1.0362 -2.08244 0
M  V30 13366 C 1283.45 1.36872 -0.998119 0
M  V30 13367 O 1284.66 1.35671 -1.18293 0
M  V30 13368 H 1281.04 0.351731 -0.664673 0
M  V30 13369 H 1283.01 0.583226 -2.92645 0
M  V30 13370 C 1281.76 2.32574 -2.58466 0
M  V30 13371 H 1281.08 2.0785 -3.41523 0
M  V30 13372 H 1282.52 3.02 -2.97611 0
M  V30 13373 C 1280.98 3.02167 -1.48986 0
M  V30 13374 O 1281.51 3.92359 -0.861251 0
M  V30 13375 N 1279.71 2.63649 -1.22219 0
M  V30 13376 H 1279.26 1.90389 -1.73521 0
M  V30 13377 H 1279.22 3.10529 -0.491828 0
M  V30 13378 N 1282.99 1.54862 0.292472 0
M  V30 13379 C 1283.94 1.82788 1.36281 0
M  V30 13380 C 1284.92 0.685534 1.45565 0
M  V30 13381 O 1286.12 0.946393 1.49574 0
M  V30 13382 C 1283.25 2.08616 2.72643 0
M  V30 13383 C 1282.33 3.29058 2.67548 0
M  V30 13384 N 1282.72 4.49419 2.32069 0
M  V30 13385 C 1281.02 3.31257 2.98639 0
M  V30 13386 C 1281.72 5.31461 2.36483 0
M  V30 13387 N 1280.7 4.69389 2.7418 0
M  V30 13388 H 1284.5 2.73405 1.07828 0
M  V30 13389 H 1282.01 1.54477 0.501074 0
M  V30 13390 H 1284.01 2.26772 3.49829 0
M  V30 13391 H 1282.67 1.19272 3.02001 0
M  V30 13392 H 1283.68 4.75868 2.04377 0
M  V30 13393 H 1280.36 2.52045 3.32836 0
M  V30 13394 H 1281.75 6.37651 2.11779 0
M  V30 13395 N 1284.47 -0.556076 1.47464 0
M  V30 13396 C 1285.88 -0.882115 1.33007 0
M  V30 13397 C 1286.08 -1.9892 0.321407 0
M  V30 13398 O 1285.14 -2.51088 -0.266668 0
M  V30 13399 C 1286.45 -1.27428 2.72365 0
M  V30 13400 C 1288 -1.38564 2.80658 0
M  V30 13401 C 1288.48 -1.81136 4.20659 0
M  V30 13402 N 1289.97 -1.88284 4.23206 0
M  V30 13403 C 1290.7 -2.22555 5.28447 0
M  V30 13404 N 1290.2 -2.55432 6.43993 0
M  V30 13405 N 1291.99 -2.23339 5.15826 0
M  V30 13406 H 1284.14 0.17481 2.11679 0
M  V30 13407 H 1286.41 0.0155421 0.947873 0
M  V30 13408 H 1286.11 -0.53463 3.47613 0
M  V30 13409 H 1285.99 -2.23019 3.04208 0
M  V30 13410 H 1288.37 -2.1161 2.05682 0
M  V30 13411 H 1288.45 -0.411588 2.52467 0
M  V30 13412 H 1288.1 -1.08659 4.96141 0
M  V30 13413 H 1288.03 -2.79546 4.46275 0
M  V30 13414 H 1290.52 -1.65259 3.3985 0
M  V30 13415 H 1290.83 -2.80612 7.20053 0
M  V30 13416 H 1289.18 -2.5301 6.47311 0
M  V30 13417 H 1292.37 -1.97094 4.24584 0
M  V30 13418 H 1292.54 -2.49717 5.97951 0
M  V30 13419 N 1285.95 -1.35615 -0.802897 0
M  V30 13420 C 1287.36 -1.26062 -1.37715 0
M  V30 13421 C 1287.71 0.105411 -1.95917 0
M  V30 13422 O 1286.83 1.00648 -1.91569 0
M  V30 13423 C 1287.43 -2.28261 -2.50365 0
M  V30 13424 C 1285.99 -2.22437 -3.03642 0
M  V30 13425 C 1285.14 -2.1377 -1.76629 0
M  V30 13426 H 1288.09 -1.46689 -0.605631 0
M  V30 13427 H 1288.11 -1.91122 -3.29017 0
M  V30 13428 H 1287.62 -3.27671 -2.07975 0
M  V30 13429 H 1285.72 -1.2645 -3.50487 0
M  V30 13430 H 1285.83 -3.14558 -3.61373 0
M  V30 13431 H 1284.2 -1.59806 -1.98328 0
M  V30 13432 H 1284.98 -3.15046 -1.36385 0
M  V30 13433 N 1287.43 1.02549 -1.19673 0
M  V30 13434 C 1288.37 2.109 -0.937536 0
M  V30 13435 C 1289.34 1.65599 0.128923 0
M  V30 13436 O 1290.53 1.90795 -0.0139366 0
M  V30 13437 C 1287.67 3.4166 -0.48602 0
M  V30 13438 C 1286.78 4.0049 -1.61963 0
M  V30 13439 C 1285.92 5.19273 -1.11931 0
M  V30 13440 C 1284.95 5.70166 -2.22659 0
M  V30 13441 N 1284.09 6.80221 -1.73909 0
M  V30 13442 H 1288.93 2.32408 -1.86523 0
M  V30 13443 H 1286.47 1.13982 -0.929869 0
M  V30 13444 H 1288.43 4.16693 -0.205614 0
M  V30 13445 H 1287.06 3.20253 0.404678 0
M  V30 13446 H 1286.11 3.22638 -2.01516 0
M  V30 13447 H 1287.42 4.34273 -2.45374 0
M  V30 13448 H 1286.57 6.01478 -0.794336 0
M  V30 13449 H 1285.31 4.87033 -0.254972 0
M  V30 13450 H 1284.32 4.86572 -2.55983 0
M  V30 13451 H 1285.54 6.04444 -3.09554 0
M  V30 13452 H 1283.49 6.49826 -0.897889 0
M  V30 13453 H 1283.41 7.13149 -2.50907 0
M  V30 13454 H 1284.67 7.66011 -1.44386 0
M  V30 13455 N 1288.9 1.00119 1.21713 0
M  V30 13456 C 1290.15 0.681723 1.9068 0
M  V30 13457 C 1290.48 -0.787121 1.77861 0
M  V30 13458 O 1289.73 -1.58573 1.14687 0
M  V30 13459 C 1290.03 1.04376 3.41819 0
M  V30 13460 C 1289.7 2.50624 3.74831 0
M  V30 13461 C 1288.36 2.90587 3.83552 0
M  V30 13462 C 1290.71 3.45377 3.90339 0
M  V30 13463 C 1288.04 4.24276 4.05225 0
M  V30 13464 C 1290.39 4.78734 4.13517 0
M  V30 13465 C 1289.06 5.18427 4.20464 0
M  V30 13466 H 1288.33 0.24946 0.697747 0
M  V30 13467 H 1290.97 1.25892 1.44304 0
M  V30 13468 H 1289.28 0.384756 3.89906 0
M  V30 13469 H 1290.98 0.774488 3.9345 0
M  V30 13470 H 1287.57 2.18651 3.68632 0
M  V30 13471 H 1291.75 3.15669 3.82971 0
M  V30 13472 H 1287.01 4.54605 4.08833 0
M  V30 13473 H 1291.18 5.52094 4.24459 0
M  V30 13474 H 1288.81 6.22034 4.3701 0
M  V30 13475 N 1290.38 -1.37203 0.775435 0
M  V30 13476 C 1291.63 -1.99207 0.340756 0
M  V30 13477 C 1291.95 -1.61861 -1.08747 0
M  V30 13478 O 1291.22 -0.88583 -1.74728 0
M  V30 13479 H 1289.8 -0.736803 0.123004 0
M  V30 13480 H 1292.46 -1.67625 0.994379 0
M  V30 13481 H 1291.56 -3.09243 0.421346 0
M  V30 13482 N 1291.86 -0.526279 -1.48553 0
M  V30 13483 C 1292.79 0.275579 -2.27537 0
M  V30 13484 C 1293.8 0.90782 -1.35139 0
M  V30 13485 O 1294.99 0.786887 -1.6022 0
M  V30 13486 C 1292.09 1.40515 -3.08397 0
M  V30 13487 C 1291.27 0.875523 -4.28548 0
M  V30 13488 C 1290.33 1.88577 -4.91249 0
M  V30 13489 O 1289.35 1.44419 -5.50574 0
M  V30 13490 N 1290.55 3.21774 -4.83158 0
M  V30 13491 H 1293.32 -0.401803 -2.96994 0
M  V30 13492 H 1290.88 -0.360378 -1.57838 0
M  V30 13493 H 1292.87 2.07907 -3.47213 0
M  V30 13494 H 1291.44 1.98626 -2.41384 0
M  V30 13495 H 1290.66 0.025728 -3.94192 0
M  V30 13496 H 1291.95 0.500493 -5.06332 0
M  V30 13497 H 1291.35 3.60319 -4.36104 0
M  V30 13498 H 1289.9 3.84808 -5.26085 0
M  V30 13499 N 1293.34 1.5542 -0.261239 0
M  V30 13500 C 1294.59 1.9846 0.360052 0
M  V30 13501 C 1294.9 1.15288 1.58013 0
M  V30 13502 O 1296.11 1.48408 2.27348 0
M  V30 13503 C 1294.56 3.53185 0.691964 0
M  V30 13504 C 1294.17 4.45116 -0.507521 0
M  V30 13505 C 1295.91 4.04848 1.27665 0
M  V30 13506 C 1293.82 5.91207 -0.150966 0
M  V30 13507 H 1292.75 0.741207 0.138303 0
M  V30 13508 H 1295.4 1.79859 -0.363712 0
M  V30 13509 H 1293.78 3.67535 1.47425 0
M  V30 13510 H 1294.96 4.42531 -1.28465 0
M  V30 13511 H 1293.27 4.04013 -1.0081 0
M  V30 13512 H 1295.87 5.11529 1.55699 0
M  V30 13513 H 1296.21 3.5305 2.20593 0
M  V30 13514 H 1296.75 3.93882 0.556955 0
M  V30 13515 H 1293.48 6.47072 -1.04776 0
M  V30 13516 H 1293 5.96894 0.589671 0
M  V30 13517 H 1294.68 6.4647 0.261772 0
M  V30 13518 N 1294.82 -0.0116844 1.57596 0
M  V30 13519 C 1296.06 -0.699994 1.90336 0
M  V30 13520 C 1296.39 -1.74067 0.861072 0
M  V30 13521 O 1295.67 -1.94119 -0.121712 0
M  V30 13522 C 1295.95 -1.35377 3.33684 0
M  V30 13523 C 1295.81 -0.325434 4.48621 0
M  V30 13524 C 1297.12 -2.28312 3.76247 0
M  V30 13525 H 1294.24 -0.253002 0.692213 0
M  V30 13526 H 1296.89 0.037211 1.89964 0
M  V30 13527 H 1295.04 -1.98212 3.34132 0
M  V30 13528 H 1296.71 0.302331 4.60308 0
M  V30 13529 H 1294.95 0.353527 4.32357 0
M  V30 13530 H 1295.62 -0.8217 5.4585 0
M  V30 13531 H 1298.1 -1.75505 3.77276 0
M  V30 13532 H 1296.97 -2.71028 4.77321 0
M  V30 13533 H 1297.23 -3.15727 3.09465 0
M  V30 13534 N 1296.29 -1.55015 -0.284256 0
M  V30 13535 C 1297.24 -1.87898 -1.37102 0
M  V30 13536 C 1298.24 -0.754231 -1.51683 0
M  V30 13537 O 1299.44 -0.93844 -1.53601 0
M  V30 13538 H 1295.82 -0.596208 -0.458301 0
M  V30 13539 H 1297.79 -2.78704 -1.06613 0
M  V30 13540 C 1296.54 -2.15764 -2.72656 0
M  V30 13541 H 1295.86 -3.01792 -2.62224 0
M  V30 13542 H 1297.3 -2.42701 -3.47667 0
M  V30 13543 C 1295.76 -0.961561 -3.22886 0
M  V30 13544 O 1296.29 -0.190489 -4.01248 0
M  V30 13545 N 1294.49 -0.762338 -2.80422 0
M  V30 13546 H 1294.04 -1.39104 -2.16813 0
M  V30 13547 H 1294 0.0363482 -3.14379 0
M  V30 13548 N 1297.77 0.548248 -1.47757 0
M  V30 13549 C 1299 1.3302 -1.58472 0
M  V30 13550 C 1299.41 1.87292 -0.238186 0
M  V30 13551 O 1298.77 1.65465 0.76991 0
M  V30 13552 C 1298.82 2.49386 -2.61704 0
M  V30 13553 O 1298.54 1.97355 -3.9113 0
M  V30 13554 C 1300.04 3.41471 -2.82688 0
M  V30 13555 H 1297.26 0.405172 -0.534861 0
M  V30 13556 H 1299.81 0.663251 -1.93446 0
M  V30 13557 H 1297.96 3.12001 -2.29639 0
M  V30 13558 H 1298.38 2.7339 -4.47614 0
M  V30 13559 H 1299.85 4.19516 -3.58762 0
M  V30 13560 H 1300.33 3.95573 -1.90837 0
M  V30 13561 H 1300.93 2.84664 -3.15985 0
M  V30 13562 N 1299.25 1.36039 0.795694 0
M  V30 13563 C 1300.18 1.32528 1.92246 0
M  V30 13564 C 1301.16 0.197805 1.68946 0
M  V30 13565 O 1302.35 0.394474 1.90151 0
M  V30 13566 C 1299.48 1.10748 3.29169 0
M  V30 13567 C 1298.43 2.20253 3.66978 0
M  V30 13568 C 1297.76 1.83624 5.02181 0
M  V30 13569 C 1299.06 3.62296 3.76216 0
M  V30 13570 H 1300.75 2.2681 1.95442 0
M  V30 13571 H 1298.3 1.09181 0.938908 0
M  V30 13572 H 1300.25 1.06929 4.07608 0
M  V30 13573 H 1298.97 0.129141 3.26345 0
M  V30 13574 H 1297.63 2.23187 2.90832 0
M  V30 13575 H 1297.28 0.843804 4.95872 0
M  V30 13576 H 1296.98 2.56935 5.28449 0
M  V30 13577 H 1298.5 1.81349 5.83048 0
M  V30 13578 H 1299.92 3.61623 4.44861 0
M  V30 13579 H 1298.31 4.34459 4.13963 0
M  V30 13580 H 1299.38 3.97657 2.77483 0
M  V30 13581 N 1300.73 -1.01913 1.20215 0
M  V30 13582 C 1302.01 -1.7262 0.919867 0
M  V30 13583 C 1302.39 -2.03203 -0.572001 0
M  V30 13584 O 1301.73 -1.69448 -1.53296 0
M  V30 13585 C 1301.94 -2.9959 1.79016 0
M  V30 13586 C 1303.29 -3.72905 2.03045 0
M  V30 13587 O 1304.32 -3.0954 1.76249 0
M  V30 13588 O 1303.17 -4.86844 2.48285 0
M  V30 13589 H 1300.27 -0.752194 0.343705 0
M  V30 13590 H 1302.81 -1.07783 1.31076 0
M  V30 13591 H 1301.59 -2.73292 2.80048 0
M  V30 13592 H 1301.21 -3.72168 1.39918 0
M  V30 13593 N 1302.21 -1.00763 -1.2118 0
M  V30 13594 C 1303.15 -0.570257 -2.23644 0
M  V30 13595 C 1304.12 0.405039 -1.61086 0
M  V30 13596 O 1305.31 0.306496 -1.88322 0
M  V30 13597 C 1302.45 0.094325 -3.44971 0
M  V30 13598 C 1301.56 -0.924463 -4.21993 0
M  V30 13599 C 1300.7 -0.231869 -5.30694 0
M  V30 13600 C 1299.74 -1.23803 -5.99449 0
M  V30 13601 N 1298.87 -0.572725 -6.9976 0
M  V30 13602 H 1303.71 -1.44869 -2.60417 0
M  V30 13603 H 1301.25 -0.725369 -1.27972 0
M  V30 13604 H 1303.21 0.496689 -4.14233 0
M  V30 13605 H 1301.84 0.936457 -3.08918 0
M  V30 13606 H 1300.89 -1.44505 -3.51884 0
M  V30 13607 H 1302.2 -1.69004 -4.69296 0
M  V30 13608 H 1301.36 0.226465 -6.06277 0
M  V30 13609 H 1300.09 0.566092 -4.84403 0
M  V30 13610 H 1299.1 -1.70684 -5.22635 0
M  V30 13611 H 1300.32 -2.03711 -6.47826 0
M  V30 13612 H 1298.27 0.205531 -6.55678 0
M  V30 13613 H 1298.19 -1.27651 -7.45145 0
M  V30 13614 H 1299.46 -0.137683 -7.79378 0
M  V30 13615 N 1303.68 1.3679 -0.7827 0
M  V30 13616 C 1304.62 2.27871 -0.122531 0
M  V30 13617 C 1305.6 1.46885 0.697399 0
M  V30 13618 O 1306.78 1.76198 0.669819 0
M  V30 13619 C 1303.91 3.28314 0.832311 0
M  V30 13620 C 1302.95 4.26394 0.0950152 0
M  V30 13621 S 1303.79 5.2131 -1.22457 0
M  V30 13622 C 1304.94 6.25302 -0.273558 0
M  V30 13623 H 1305.17 2.83514 -0.894814 0
M  V30 13624 H 1302.71 1.43229 -0.5766 0
M  V30 13625 H 1304.67 3.86688 1.37778 0
M  V30 13626 H 1303.33 2.71597 1.57779 0
M  V30 13627 H 1302.52 4.97297 0.819278 0
M  V30 13628 H 1302.12 3.72067 -0.379778 0
M  V30 13629 H 1304.41 6.75263 0.550064 0
M  V30 13630 H 1305.36 7.01684 -0.951071 0
M  V30 13631 H 1305.76 5.64372 0.120115 0
M  V30 13632 N 1305.16 0.53415 1.48272 0
M  V30 13633 C 1306.41 -0.000450626 2.017 0
M  V30 13634 C 1306.72 -1.34926 1.41613 0
M  V30 13635 O 1307.93 -1.97246 1.86564 0
M  V30 13636 C 1306.39 -0.0511883 3.59864 0
M  V30 13637 C 1305.99 1.29298 4.28936 0
M  V30 13638 C 1307.74 -0.534397 4.21123 0
M  V30 13639 C 1305.65 1.2026 5.79044 0
M  V30 13640 H 1304.58 -0.00393844 0.75399 0
M  V30 13641 H 1307.23 0.678554 1.70493 0
M  V30 13642 H 1305.61 -0.795358 3.8793 0
M  V30 13643 H 1306.78 2.05305 4.12537 0
M  V30 13644 H 1305.1 1.71226 3.79566 0
M  V30 13645 H 1307.69 -0.620048 5.31093 0
M  V30 13646 H 1308.04 -1.54114 3.86723 0
M  V30 13647 H 1308.57 0.154215 3.97501 0
M  V30 13648 H 1305.31 2.18463 6.18025 0
M  V30 13649 H 1304.83 0.483971 5.97844 0
M  V30 13650 H 1306.51 0.895005 6.4078 0
M  V30 13651 N 1306.64 -1.55279 0.269478 0
M  V30 13652 C 1308.06 -1.59374 -0.0848147 0
M  V30 13653 C 1308.26 -1.2867 -1.55068 0
M  V30 13654 O 1307.31 -1.04486 -2.29867 0
M  V30 13655 C 1308.63 -2.99349 0.284735 0
M  V30 13656 C 1310.17 -3.12147 0.230887 0
M  V30 13657 C 1310.65 -4.54379 0.574795 0
M  V30 13658 N 1312.14 -4.60202 0.526136 0
M  V30 13659 C 1312.87 -5.68273 0.765109 0
M  V30 13660 N 1312.37 -6.84512 1.0684 0
M  V30 13661 N 1314.16 -5.57796 0.694287 0
M  V30 13662 H 1306.31 -1.73503 1.22517 0
M  V30 13663 H 1308.58 -0.808771 0.494564 0
M  V30 13664 H 1308.28 -3.26633 1.30398 0
M  V30 13665 H 1308.16 -3.75309 -0.377199 0
M  V30 13666 H 1310.54 -2.84631 -0.779064 0
M  V30 13667 H 1310.63 -2.38412 0.926998 0
M  V30 13668 H 1310.27 -4.8262 1.58241 0
M  V30 13669 H 1310.2 -5.26406 -0.143044 0
M  V30 13670 H 1312.69 -3.76696 0.301368 0
M  V30 13671 H 1313 -7.62826 1.23757 0
M  V30 13672 H 1311.35 -6.86141 1.10612 0
M  V30 13673 H 1314.54 -4.65862 0.457226 0
M  V30 13674 H 1314.71 -6.41943 0.883913 0
M  V30 13675 N 1308.12 0.00332656 -1.576 0
M  V30 13676 C 1309.07 1.01406 -2.09331 0
M  V30 13677 C 1310.06 1.35806 -1.01258 0
M  V30 13678 O 1311.27 1.34409 -1.19726 0
M  V30 13679 H 1307.64 0.344661 -0.668366 0
M  V30 13680 H 1309.61 0.552154 -2.93247 0
M  V30 13681 C 1308.36 2.29819 -2.60918 0
M  V30 13682 H 1307.68 2.04216 -3.43709 0
M  V30 13683 H 1309.12 2.98826 -3.00797 0
M  V30 13684 C 1307.58 3.0057 -1.52182 0
M  V30 13685 O 1308.11 3.91423 -0.902817 0
M  V30 13686 N 1306.32 2.62338 -1.25009 0
M  V30 13687 H 1305.87 1.88538 -1.75531 0
M  V30 13688 H 1305.82 3.0999 -0.524736 0
M  V30 13689 N 1309.6 1.55164 0.276031 0
M  V30 13690 C 1311.01 1.66367 0.847293 0
M  V30 13691 C 1311.36 0.588692 1.8716 0
M  V30 13692 O 1310.48 -0.27035 2.14705 0
M  V30 13693 C 1311.08 3.01593 1.5436 0
M  V30 13694 C 1309.64 3.14833 2.06293 0
M  V30 13695 C 1308.78 2.62152 0.903959 0
M  V30 13696 H 1311.74 1.58613 0.0524478 0
M  V30 13697 H 1311.76 2.94412 2.41043 0
M  V30 13698 H 1311.27 3.7981 0.797849 0
M  V30 13699 H 1309.37 2.41384 2.83839 0
M  V30 13700 H 1309.48 4.21353 2.28032 0
M  V30 13701 H 1307.85 2.19233 1.29649 0
M  V30 13702 H 1308.63 3.4287 0.171765 0
M  V30 13703 N 1311.07 -0.540404 1.48045 0
M  V30 13704 C 1312.02 -1.66695 1.62221 0
M  V30 13705 C 1313.02 -1.6219 0.488943 0
M  V30 13706 O 1314.22 -1.67173 0.66732 0
M  V30 13707 H 1310.6 -0.551868 0.510828 0
M  V30 13708 H 1312.57 -1.51879 2.56856 0
M  V30 13709 C 1311.32 -3.05002 1.6694 0
M  V30 13710 H 1310.64 -3.09157 2.53499 0
M  V30 13711 H 1312.08 -3.8347 1.80904 0
M  V30 13712 C 1310.54 -3.34445 0.40598 0
M  V30 13713 O 1311.07 -3.98753 -0.485676 0
M  V30 13714 N 1309.28 -2.8924 0.280857 0
M  V30 13715 H 1308.82 -2.37085 1.00741 0
M  V30 13716 H 1308.78 -3.09309 -0.563493 0
M  V30 13717 N 1312.55 -1.36459 -0.788468 0
M  V30 13718 C 1313.78 -1.34063 -1.58246 0
M  V30 13719 C 1314.2 0.0754933 -1.87948 0
M  V30 13720 O 1313.56 1.04772 -1.47961 0
M  V30 13721 C 1313.61 -2.17038 -2.8797 0
M  V30 13722 O 1312.71 -1.56353 -3.81612 0
M  V30 13723 H 1312.05 -0.458816 -0.479983 0
M  V30 13724 H 1314.58 -1.79755 -0.977207 0
M  V30 13725 H 1314.59 -2.29651 -3.3723 0
M  V30 13726 H 1313.27 -3.19981 -2.65678 0
M  V30 13727 H 1311.85 -1.52685 -3.40208 0
M  V30 13728 N 1314.03 1.01274 -1.20754 0
M  V30 13729 C 1314.96 2.11763 -0.983805 0
M  V30 13730 C 1315.94 1.69869 0.0885635 0
M  V30 13731 O 1317.13 1.94075 -0.0697239 0
M  V30 13732 C 1314.26 3.43087 -0.539287 0
M  V30 13733 C 1313.21 3.9874 -1.55534 0
M  V30 13734 C 1312.54 5.25877 -0.967322 0
M  V30 13735 C 1313.84 4.31688 -2.94012 0
M  V30 13736 H 1315.53 2.30737 -1.90789 0
M  V30 13737 H 1313.08 1.10884 -0.918734 0
M  V30 13738 H 1315.03 4.19773 -0.369979 0
M  V30 13739 H 1313.75 3.23883 0.420435 0
M  V30 13740 H 1312.41 3.24166 -1.71207 0
M  V30 13741 H 1312.06 5.03 0.000448307 0
M  V30 13742 H 1311.76 5.64077 -1.64594 0
M  V30 13743 H 1313.28 6.05215 -0.809167 0
M  V30 13744 H 1314.7 4.99246 -2.81827 0
M  V30 13745 H 1313.1 4.81011 -3.58815 0
M  V30 13746 H 1314.17 3.4029 -3.45442 0
M  V30 13747 N 1315.51 1.01404 1.20644 0
M  V30 13748 C 1316.46 0.582109 2.23339 0
M  V30 13749 C 1317.43 -0.39649 1.61298 0
M  V30 13750 O 1318.61 -0.296504 1.88482 0
M  V30 13751 C 1315.75 -0.076029 3.45016 0
M  V30 13752 C 1314.86 0.946829 4.21496 0
M  V30 13753 C 1314 0.26001 5.30563 0
M  V30 13754 C 1313.04 1.2698 5.98784 0
M  V30 13755 N 1312.18 0.609827 6.99447 0
M  V30 13756 H 1317.02 1.46248 2.59645 0
M  V30 13757 H 1314.55 0.732145 1.27585 0
M  V30 13758 H 1316.51 -0.474714 4.1449 0
M  V30 13759 H 1315.14 -0.920062 3.0941 0
M  V30 13760 H 1314.19 1.4637 3.51113 0
M  V30 13761 H 1315.5 1.71491 4.68393 0
M  V30 13762 H 1314.66 -0.19431 6.06389 0
M  V30 13763 H 1313.4 -0.540395 4.84697 0
M  V30 13764 H 1312.4 1.73453 5.21722 0
M  V30 13765 H 1313.63 2.07144 6.46737 0
M  V30 13766 H 1311.57 -0.170756 6.55778 0
M  V30 13767 H 1311.49 1.31601 7.44458 0
M  V30 13768 H 1312.76 0.179014 7.79294 0
M  V30 13769 N 1316.99 -1.36373 0.789944 0
M  V30 13770 C 1317.95 -2.28372 0.194639 0
M  V30 13771 C 1318.95 -1.48849 -0.608332 0
M  V30 13772 O 1320.14 -1.68829 -0.42925 0
M  V30 13773 C 1317.27 -3.3298 -0.730553 0
M  V30 13774 H 1318.47 -2.82529 1.00585 0
M  V30 13775 H 1316.02 -1.45946 0.559406 0
M  V30 13776 H 1316.75 -2.8398 -1.56608 0
M  V30 13777 H 1316.54 -3.91787 -0.156706 0
M  V30 13778 H 1318.03 -4.01684 -1.14192 0
M  V30 13779 N 1318.47 -0.542005 -1.47987 0
M  V30 13780 C 1319.4 0.261671 -2.26695 0
M  V30 13781 C 1320.38 0.93404 -1.33096 0
M  V30 13782 O 1321.56 0.956051 -1.62456 0
M  V30 13783 C 1318.69 1.37155 -3.09687 0
M  V30 13784 C 1317.73 0.809337 -4.18751 0
M  V30 13785 S 1318.57 -0.332224 -5.34468 0
M  V30 13786 C 1319.72 0.779843 -6.21023 0
M  V30 13787 H 1319.96 -0.406263 -2.94511 0
M  V30 13788 H 1317.49 -0.32802 -1.50875 0
M  V30 13789 H 1319.45 2.00726 -3.58077 0
M  V30 13790 H 1318.11 2.01126 -2.41262 0
M  V30 13791 H 1317.3 1.64233 -4.76491 0
M  V30 13792 H 1316.9 0.250095 -3.73163 0
M  V30 13793 H 1319.19 1.67564 -6.56452 0
M  V30 13794 H 1320.14 0.240142 -7.07693 0
M  V30 13795 H 1320.55 1.06567 -5.5435 0
M  V30 13796 N 1319.94 1.55134 -0.277709 0
M  V30 13797 C 1320.91 2.21327 0.595569 0
M  V30 13798 C 1321.91 1.19193 1.07933 0
M  V30 13799 O 1323.1 1.44081 0.979093 0
M  V30 13800 C 1320.23 2.88127 1.82196 0
M  V30 13801 H 1321.42 2.99895 0.0175855 0
M  V30 13802 H 1318.97 1.56274 -0.0283453 0
M  V30 13803 H 1319.71 2.13578 2.44039 0
M  V30 13804 H 1319.49 3.62974 1.48297 0
M  V30 13805 H 1320.98 3.38691 2.44291 0
M  V30 13806 N 1321.42 0.00503138 1.57599 0
M  V30 13807 C 1322.83 -0.537106 1.78807 0
M  V30 13808 C 1323.18 -1.73666 0.912945 0
M  V30 13809 O 1322.31 -2.16085 0.116775 0
M  V30 13810 C 1322.9 -0.98116 3.24282 0
M  V30 13811 C 1321.46 -1.46857 3.46569 0
M  V30 13812 C 1320.61 -0.422088 2.74069 0
M  V30 13813 H 1323.56 0.231182 1.57007 0
M  V30 13814 H 1323.58 -1.8469 3.32671 0
M  V30 13815 H 1323.09 -0.107907 3.8795 0
M  V30 13816 H 1321.19 -2.36255 2.88122 0
M  V30 13817 H 1321.31 -1.49256 4.55258 0
M  V30 13818 H 1319.67 -0.884853 2.38836 0
M  V30 13819 H 1320.45 0.442285 3.40439 0
M  V30 13820 N 1322.9 -1.55308 -0.267798 0
M  V30 13821 C 1323.83 -1.91555 -1.33525 0
M  V30 13822 C 1324.81 -0.778001 -1.51265 0
M  V30 13823 O 1326 -1.03657 -1.64222 0
M  V30 13824 C 1323.13 -2.19201 -2.69385 0
M  V30 13825 C 1322.08 -3.3501 -2.66369 0
M  V30 13826 C 1321.41 -3.48148 -4.05829 0
M  V30 13827 C 1322.71 -4.71265 -2.25182 0
M  V30 13828 H 1324.4 -2.80965 -1.03437 0
M  V30 13829 H 1321.95 -1.35183 -0.496141 0
M  V30 13830 H 1323.9 -2.43146 -3.44177 0
M  V30 13831 H 1322.62 -1.26596 -3.01067 0
M  V30 13832 H 1321.28 -3.11041 -1.94034 0
M  V30 13833 H 1320.93 -2.53 -4.34741 0
M  V30 13834 H 1320.63 -4.26014 -4.04704 0
M  V30 13835 H 1322.15 -3.74391 -4.82352 0
M  V30 13836 H 1323.57 -4.94719 -2.89699 0
M  V30 13837 H 1321.96 -5.52084 -2.3521 0
M  V30 13838 H 1323.03 -4.69735 -1.20319 0
M  V30 13839 N 1324.38 0.532545 -1.4833 0
M  V30 13840 C 1325.6 1.31809 -1.60129 0
M  V30 13841 C 1326.03 1.86283 -0.260807 0
M  V30 13842 O 1325.39 1.6427 0.767137 0
M  V30 13843 C 1325.43 2.44661 -2.64903 0
M  V30 13844 O 1324.54 3.47622 -2.21885 0
M  V30 13845 H 1323.88 0.390492 -0.53704 0
M  V30 13846 H 1326.41 0.641068 -1.94297 0
M  V30 13847 H 1326.42 2.90883 -2.86096 0
M  V30 13848 H 1325.09 2.04373 -3.62222 0
M  V30 13849 H 1323.67 3.07536 -2.10894 0
M  V30 13850 N 1325.86 1.36875 0.78122 0
M  V30 13851 C 1327.08 1.349 1.57533 0
M  V30 13852 C 1327.51 -0.0655249 1.87986 0
M  V30 13853 O 1326.86 -1.03986 1.48515 0
M  V30 13854 C 1326.91 2.18562 2.86815 0
M  V30 13855 O 1326.02 1.58374 3.80777 0
M  V30 13856 H 1325.36 0.461355 0.477543 0
M  V30 13857 H 1327.89 1.80271 0.96766 0
M  V30 13858 H 1327.9 2.31436 3.36008 0
M  V30 13859 H 1326.57 3.21385 2.63978 0
M  V30 13860 H 1325.15 1.54487 3.39394 0
M  V30 13861 N 1327.33 -1.00632 1.21289 0
M  V30 13862 C 1328.58 -1.74044 1.02728 0
M  V30 13863 C 1328.9 -1.89963 -0.440351 0
M  V30 13864 O 1328.17 -1.44958 -1.31772 0
M  V30 13865 H 1326.75 -0.644813 0.377127 0
M  V30 13866 H 1329.41 -1.21272 1.52575 0
M  V30 13867 H 1328.51 -2.74011 1.49413 0
M  V30 13868 N 1328.81 -1.02043 -1.20104 0
M  V30 13869 C 1330.06 -0.707271 -1.88893 0
M  V30 13870 C 1330.37 0.766617 -1.79951 0
M  V30 13871 O 1331.58 1.19248 -2.4391 0
M  V30 13872 C 1330.04 -1.2147 -3.38782 0
M  V30 13873 C 1329.64 -2.71576 -3.56301 0
M  V30 13874 C 1331.39 -0.977146 -4.13101 0
M  V30 13875 C 1329.29 -3.15781 -5.00037 0
M  V30 13876 H 1328.22 -0.26086 -0.707438 0
M  V30 13877 H 1330.88 -1.23361 -1.35846 0
M  V30 13878 H 1329.26 -0.616315 -3.91175 0
M  V30 13879 H 1330.43 -3.36997 -3.14276 0
M  V30 13880 H 1328.75 -2.93517 -2.95359 0
M  V30 13881 H 1331.34 -1.28278 -5.19085 0
M  V30 13882 H 1331.69 0.0862909 -4.16211 0
M  V30 13883 H 1332.22 -1.5391 -3.6682 0
M  V30 13884 H 1328.96 -4.21417 -5.02084 0
M  V30 13885 H 1328.48 -2.55083 -5.42856 0
M  V30 13886 H 1330.16 -3.08637 -5.6864 0
M  V30 13887 N 1330.29 1.35952 -0.797165 0
M  V30 13888 C 1331.24 2.31831 -0.188958 0
M  V30 13889 C 1332.23 1.56181 0.656042 0
M  V30 13890 O 1333.44 1.71383 0.550259 0
M  V30 13891 H 1329.81 0.750807 -0.0423354 0
M  V30 13892 H 1331.78 2.80683 -1.0129 0
M  V30 13893 C 1330.53 3.41464 0.655547 0
M  V30 13894 H 1329.86 3.99797 0.0146854 0
M  V30 13895 H 1331.3 4.10853 1.04765 0
M  V30 13896 C 1329.76 2.83696 1.81709 0
M  V30 13897 O 1330.29 2.76484 2.91409 0
M  V30 13898 N 1328.49 2.40876 1.62564 0
M  V30 13899 H 1328.04 2.46941 0.733337 0
M  V30 13900 H 1328 2.02572 2.40441 0
M  V30 13901 N 1331.77 0.549846 1.47697 0
M  V30 13902 C 1332.7 -0.190364 2.32723 0
M  V30 13903 C 1333.68 -0.915933 1.43334 0
M  V30 13904 O 1334.86 -0.897838 1.72199 0
M  V30 13905 C 1331.99 -1.22545 3.24961 0
M  V30 13906 C 1330.95 -0.616805 4.23532 0
M  V30 13907 C 1330.27 -1.75599 5.05044 0
M  V30 13908 C 1331.57 0.424595 5.20571 0
M  V30 13909 H 1333.27 0.519461 2.94859 0
M  V30 13910 H 1330.81 0.251259 1.41791 0
M  V30 13911 H 1332.77 -1.75139 3.83281 0
M  V30 13912 H 1331.49 -1.96512 2.60865 0
M  V30 13913 H 1330.15 -0.112224 3.66428 0
M  V30 13914 H 1329.8 -2.48453 4.37356 0
M  V30 13915 H 1329.5 -1.35456 5.71774 0
M  V30 13916 H 1331.02 -2.28533 5.6622 0
M  V30 13917 H 1332.44 -0.0150025 5.73298 0
M  V30 13918 H 1330.83 0.7445 5.95464 0
M  V30 13919 H 1331.9 1.32318 4.66497 0
M  V30 13920 N 1333.25 -1.54984 0.285932 0
M  V30 13921 C 1334.66 -1.85519 -0.209707 0
M  V30 13922 C 1335.01 -1.20794 -1.54606 0
M  V30 13923 O 1334.13 -0.500159 -2.10541 0
M  V30 13924 C 1334.73 -3.36579 -0.387283 0
M  V30 13925 C 1333.29 -3.67199 -0.827148 0
M  V30 13926 C 1332.43 -2.77203 0.073308 0
M  V30 13927 H 1335.39 -1.5037 0.507404 0
M  V30 13928 H 1335.41 -3.60269 -1.2242 0
M  V30 13929 H 1334.92 -3.83658 0.585493 0
M  V30 13930 H 1333.02 -3.25627 -1.81101 0
M  V30 13931 H 1333.13 -4.74574 -0.656976 0
M  V30 13932 H 1331.5 -2.50785 -0.444859 0
M  V30 13933 H 1332.28 -3.27099 1.04216 0
M  V30 13934 N 1334.72 -0.0133892 -1.57594 0
M  V30 13935 C 1335.65 0.972341 -2.12292 0
M  V30 13936 C 1336.64 1.34971 -1.03522 0
M  V30 13937 O 1337.82 1.4311 -1.31275 0
M  V30 13938 C 1334.95 2.25988 -2.63717 0
M  V30 13939 C 1333.9 2.02373 -3.77133 0
M  V30 13940 C 1333.23 3.37256 -4.14925 0
M  V30 13941 C 1334.53 1.37553 -5.03861 0
M  V30 13942 H 1336.22 0.516869 -2.94905 0
M  V30 13943 H 1333.77 0.247176 -1.41863 0
M  V30 13944 H 1335.72 2.95313 -3.00613 0
M  V30 13945 H 1334.45 2.73672 -1.78244 0
M  V30 13946 H 1333.11 1.3547 -3.40651 0
M  V30 13947 H 1332.75 3.82669 -3.26456 0
M  V30 13948 H 1332.45 3.22267 -4.91343 0
M  V30 13949 H 1333.98 4.07875 -4.5439 0
M  V30 13950 H 1335.39 1.96855 -5.38443 0
M  V30 13951 H 1333.79 1.33011 -5.85174 0
M  V30 13952 H 1334.86 0.346429 -4.83661 0
M  V30 13953 N 1336.2 1.55448 0.259558 0
M  V30 13954 C 1337.13 1.9226 1.32508 0
M  V30 13955 C 1338.11 0.786012 1.5085 0
M  V30 13956 O 1339.3 1.04526 1.6367 0
M  V30 13957 C 1336.43 2.20627 2.68218 0
M  V30 13958 C 1335.38 3.36418 2.64589 0
M  V30 13959 C 1334.71 3.50295 4.03977 0
M  V30 13960 C 1336.01 4.72452 2.2268 0
M  V30 13961 H 1337.7 2.81509 1.01945 0
M  V30 13962 H 1335.25 1.35444 0.488965 0
M  V30 13963 H 1337.2 2.44968 3.42883 0
M  V30 13964 H 1335.93 1.28191 3.00391 0
M  V30 13965 H 1334.58 3.12065 1.92382 0
M  V30 13966 H 1334.23 2.55302 4.33394 0
M  V30 13967 H 1333.93 4.28155 4.02439 0
M  V30 13968 H 1335.46 3.76944 4.8036 0
M  V30 13969 H 1336.87 4.96249 2.87071 0
M  V30 13970 H 1335.27 5.53323 2.32279 0
M  V30 13971 H 1336.34 4.70367 1.17826 0
M  V30 13972 N 1337.68 -0.524672 1.4861 0
M  V30 13973 C 1338.96 -1.28592 1.47389 0
M  V30 13974 C 1339.34 -2.10257 0.188482 0
M  V30 13975 O 1338.69 -2.12905 -0.829689 0
M  V30 13976 C 1338.9 -2.16284 2.73902 0
M  V30 13977 C 1340.24 -2.7625 3.22445 0
M  V30 13978 O 1341.27 -2.26567 2.74856 0
M  V30 13979 O 1340.13 -3.66635 4.05267 0
M  V30 13980 H 1337.22 -0.580666 0.58886 0
M  V30 13981 H 1339.77 -0.540888 1.60849 0
M  V30 13982 H 1338.54 -1.55757 3.58964 0
M  V30 13983 H 1338.16 -2.98024 2.63188 0
M  V30 13984 N 1339.16 -1.37287 -0.77395 0
M  V30 13985 C 1340.57 -1.18039 -1.0742 0
M  V30 13986 C 1340.77 -0.0150339 -2.01494 0
M  V30 13987 O 1339.83 0.645562 -2.44108 0
M  V30 13988 C 1341.14 -2.49808 -1.67382 0
M  V30 13989 C 1342.69 -2.5631 -1.7965 0
M  V30 13990 C 1343.17 -3.88204 -2.43025 0
M  V30 13991 N 1344.66 -3.89634 -2.50478 0
M  V30 13992 C 1345.39 -4.88437 -3.00361 0
M  V30 13993 N 1344.89 -5.97635 -3.50434 0
M  V30 13994 N 1346.68 -4.75843 -2.99215 0
M  V30 13995 H 1338.83 -2.11875 -0.149269 0
M  V30 13996 H 1341.1 -0.939203 -0.128846 0
M  V30 13997 H 1340.8 -3.35433 -1.05726 0
M  V30 13998 H 1340.68 -2.66737 -2.66704 0
M  V30 13999 H 1343.06 -1.71094 -2.40439 0
M  V30 14000 H 1343.14 -2.43266 -0.790894 0
M  V30 14001 H 1342.79 -4.73834 -1.82876 0
M  V30 14002 H 1342.72 -3.98551 -3.44187 0
M  V30 14003 H 1345.21 -3.10751 -2.15039 0
M  V30 14004 H 1345.52 -6.6898 -3.86893 0
M  V30 14005 H 1343.87 -6.01283 -3.48545 0
M  V30 14006 H 1347.06 -3.89656 -2.59395 0
M  V30 14007 H 1347.23 -5.52999 -3.37781 0
M  V30 14008 N 1340.64 0.999871 -1.21821 0
M  V30 14009 C 1341.86 1.77405 -1.06467 0
M  V30 14010 C 1342.28 1.84828 0.385227 0
M  V30 14011 O 1341.64 1.31338 1.26714 0
M  V30 14012 C 1341.69 3.21062 -1.66137 0
M  V30 14013 O 1341.41 3.14054 -3.05454 0
M  V30 14014 C 1342.91 4.14958 -1.55963 0
M  V30 14015 H 1340.13 0.557368 -0.373607 0
M  V30 14016 H 1342.67 1.2575 -1.61267 0
M  V30 14017 H 1340.83 3.69808 -1.15416 0
M  V30 14018 H 1341.24 4.04346 -3.34073 0
M  V30 14019 H 1342.72 5.13536 -2.02448 0
M  V30 14020 H 1343.19 4.36171 -0.514949 0
M  V30 14021 H 1343.8 3.72105 -2.05956 0
M  V30 14022 N 1342.11 1.02678 1.19562 0
M  V30 14023 C 1343.36 0.717279 1.88515 0
M  V30 14024 C 1343.68 -0.757063 1.80355 0
M  V30 14025 O 1344.88 -1.17953 2.44539 0
M  V30 14026 C 1343.34 1.23265 3.38133 0
M  V30 14027 C 1342.95 2.73462 3.54856 0
M  V30 14028 C 1344.69 0.99904 4.12577 0
M  V30 14029 C 1342.6 3.18428 4.98355 0
M  V30 14030 H 1341.53 0.264608 0.706044 0
M  V30 14031 H 1344.18 1.2408 1.3519 0
M  V30 14032 H 1342.56 0.637052 3.90842 0
M  V30 14033 H 1343.73 3.38659 3.12485 0
M  V30 14034 H 1342.05 2.95079 2.93798 0
M  V30 14035 H 1344.65 1.3103 5.18397 0
M  V30 14036 H 1344.99 -0.064217 4.1625 0
M  V30 14037 H 1345.52 1.55853 3.65998 0
M  V30 14038 H 1342.26 4.24074 4.99842 0
M  V30 14039 H 1341.78 2.57958 5.41496 0
M  V30 14040 H 1343.46 3.11649 5.66996 0
M  V30 14041 N 1343.59 -1.35528 0.804364 0
M  V30 14042 C 1345 -1.81321 0.444933 0
M  V30 14043 C 1345.35 -1.66816 -1.03281 0
M  V30 14044 O 1344.48 -1.19753 -1.80245 0
M  V30 14045 C 1345.07 -3.29199 0.800827 0
M  V30 14046 C 1343.63 -3.73144 0.494026 0
M  V30 14047 C 1342.78 -2.57557 1.02761 0
M  V30 14048 H 1345.73 -1.23537 0.996203 0
M  V30 14049 H 1345.75 -3.80375 0.0975117 0
M  V30 14050 H 1345.26 -3.39725 1.8764 0
M  V30 14051 H 1343.37 -3.68169 -0.572901 0
M  V30 14052 H 1343.48 -4.68005 1.0251 0
M  V30 14053 H 1341.84 -2.50692 0.450048 0
M  V30 14054 H 1342.63 -2.70861 2.10925 0
M  V30 14055 N 1345.07 -0.557671 -1.47404 0
M  V30 14056 C 1346.35 0.031908 -1.95574 0
M  V30 14057 C 1346.73 1.48509 -1.50027 0
M  V30 14058 O 1346.08 2.16209 -0.73932 0
M  V30 14059 C 1346.29 -0.114055 -3.48814 0
M  V30 14060 C 1347.63 0.0310533 -4.24589 0
M  V30 14061 O 1348.66 -0.041626 -3.56176 0
M  V30 14062 O 1347.52 0.187487 -5.46178 0
M  V30 14063 H 1344.61 0.0638747 -0.82453 0
M  V30 14064 H 1347.16 -0.624227 -1.57802 0
M  V30 14065 H 1345.93 -1.12525 -3.74772 0
M  V30 14066 H 1345.55 0.57967 -3.93352 0
M  V30 14067 N 1346.55 1.54831 -0.294147 0
M  V30 14068 C 1347.78 2.04115 0.319474 0
M  V30 14069 C 1348.19 1.17125 1.48588 0
M  V30 14070 O 1347.53 0.188034 1.82735 0
M  V30 14071 C 1347.59 3.49429 0.84496 0
M  V30 14072 C 1347.26 4.56583 -0.195275 0
M  V30 14073 C 1348.25 5.09768 -1.02138 0
M  V30 14074 C 1345.94 5.01182 -0.335 0
M  V30 14075 C 1347.93 6.06088 -1.97321 0
M  V30 14076 C 1345.62 5.97323 -1.29029 0
M  V30 14077 C 1346.62 6.49659 -2.10788 0
M  V30 14078 O 1346.31 7.43918 -3.04698 0
M  V30 14079 H 1346.04 0.671895 0.074383 0
M  V30 14080 H 1348.59 2.00856 -0.429669 0
M  V30 14081 H 1346.82 3.4999 1.64451 0
M  V30 14082 H 1348.51 3.81947 1.37372 0
M  V30 14083 H 1349.28 4.76112 -0.924264 0
M  V30 14084 H 1345.16 4.60078 0.291422 0
M  V30 14085 H 1348.7 6.46863 -2.61177 0
M  V30 14086 H 1344.6 6.30397 -1.38815 0
M  V30 14087 H 1345.36 7.61698 -2.99598 0
M  V30 14088 N 1348.03 0.0217466 1.57585 0
M  V30 14089 C 1349.26 -0.668881 1.9579 0
M  V30 14090 C 1349.67 -1.66085 0.897849 0
M  V30 14091 O 1349.03 -1.82098 -0.121099 0
M  V30 14092 C 1349.08 -1.38174 3.34051 0
M  V30 14093 O 1348.8 -0.429527 4.35989 0
M  V30 14094 C 1350.3 -2.16487 3.86844 0
M  V30 14095 H 1347.52 -0.184919 0.645016 0
M  V30 14096 H 1350.06 0.0793241 2.04346 0
M  V30 14097 H 1348.22 -2.0814 3.26736 0
M  V30 14098 H 1348.63 -0.934887 5.16101 0
M  V30 14099 H 1350.11 -2.61829 4.85952 0
M  V30 14100 H 1350.58 -3.00082 3.20698 0
M  V30 14101 H 1351.19 -1.51493 3.97404 0
M  V30 14102 N 1349.51 -1.55583 -0.251311 0
M  V30 14103 C 1350.73 -1.81597 -1.00186 0
M  V30 14104 C 1351.16 -0.598216 -1.78334 0
M  V30 14105 O 1350.51 0.452667 -1.75558 0
M  V30 14106 C 1350.56 -3.05301 -1.91895 0
M  V30 14107 O 1349.67 -2.81907 -3.01002 0
M  V30 14108 H 1349.01 -0.599578 -0.285311 0
M  V30 14109 H 1351.54 -2.02762 -0.273638 0
M  V30 14110 H 1351.55 -3.34616 -2.33444 0
M  V30 14111 H 1350.22 -3.93574 -1.34433 0
M  V30 14112 H 1348.8 -2.63747 -2.63613 0
M  V30 14113 N 1350.98 0.516783 -1.48886 0
M  V30 14114 C 1352.23 1.27187 -1.57574 0
M  V30 14115 C 1352.56 1.92815 -0.255432 0
M  V30 14116 O 1351.81 1.80533 0.755403 0
M  V30 14117 C 1352.11 2.37296 -2.67256 0
M  V30 14118 C 1351.78 1.89232 -4.0927 0
M  V30 14119 C 1350.44 1.75842 -4.47921 0
M  V30 14120 C 1352.79 1.53073 -4.98215 0
M  V30 14121 C 1350.12 1.24648 -5.73306 0
M  V30 14122 C 1352.47 1.03337 -6.24103 0
M  V30 14123 C 1351.14 0.885744 -6.61597 0
M  V30 14124 H 1350.41 0.46541 -0.576606 0
M  V30 14125 H 1353.05 0.575223 -1.82657 0
M  V30 14126 H 1351.36 3.12685 -2.36084 0
M  V30 14127 H 1353.06 2.95393 -2.7119 0
M  V30 14128 H 1349.65 2.00608 -3.78754 0
M  V30 14129 H 1353.83 1.62272 -4.69022 0
M  V30 14130 H 1349.09 1.11917 -6.0107 0
M  V30 14131 H 1353.26 0.744338 -6.92411 0
M  V30 14132 H 1350.89 0.486866 -7.58639 0
M  V30 14133 N 1352.46 1.37696 0.766659 0
M  V30 14134 C 1353.41 1.33966 1.90147 0
M  V30 14135 C 1354.4 0.2276 1.67864 0
M  V30 14136 O 1355.61 0.395912 1.75592 0
M  V30 14137 H 1351.98 0.417611 0.625384 0
M  V30 14138 H 1353.96 2.29753 1.9041 0
M  V30 14139 C 1352.7 1.16859 3.27474 0
M  V30 14140 H 1352.03 2.01686 3.452 0
M  V30 14141 H 1353.47 1.18301 4.07162 0
M  V30 14142 C 1351.93 -0.125418 3.36666 0
M  V30 14143 O 1352.46 -1.10717 3.86141 0
M  V30 14144 N 1350.66 -0.17784 2.90055 0
M  V30 14145 H 1350.21 0.621737 2.49984 0
M  V30 14146 H 1350.17 -1.04325 2.96587 0
M  V30 14147 N 1353.94 -0.993397 1.22349 0
M  V30 14148 C 1355.17 -1.76838 1.07406 0
M  V30 14149 C 1355.58 -1.8503 -0.37542 0
M  V30 14150 O 1354.94 -1.32008 -1.26016 0
M  V30 14151 C 1354.99 -3.20177 1.67837 0
M  V30 14152 O 1354.71 -3.12429 3.07115 0
M  V30 14153 C 1356.21 -4.14125 1.58161 0
M  V30 14154 H 1353.43 -0.555379 0.376557 0
M  V30 14155 H 1355.98 -1.24893 1.61932 0
M  V30 14156 H 1354.13 -3.69191 1.17375 0
M  V30 14157 H 1354.55 -4.02568 3.36213 0
M  V30 14158 H 1356.02 -5.12455 2.05169 0
M  V30 14159 H 1356.5 -4.35892 0.538073 0
M  V30 14160 H 1357.1 -3.71008 2.07926 0
M  V30 14161 N 1355.42 -1.03311 -1.19015 0
M  V30 14162 C 1356.66 -0.733124 -1.89085 0
M  V30 14163 C 1357 0.73675 -1.79682 0
M  V30 14164 O 1356.27 1.53692 -1.19201 0
M  V30 14165 C 1356.55 -1.19028 -3.39859 0
M  V30 14166 C 1356.41 -2.72169 -3.58112 0
M  V30 14167 C 1357.73 -0.774383 -4.33234 0
M  V30 14168 H 1354.85 -0.2678 -0.686624 0
M  V30 14169 H 1357.49 -1.28378 -1.40068 0
M  V30 14170 H 1355.64 -0.721799 -3.81736 0
M  V30 14171 H 1357.31 -3.26996 -3.25379 0
M  V30 14172 H 1355.55 -3.12358 -3.01023 0
M  V30 14173 H 1356.22 -2.99213 -4.6387 0
M  V30 14174 H 1358.7 -1.17739 -3.99095 0
M  V30 14175 H 1357.58 -1.12209 -5.37308 0
M  V30 14176 H 1357.84 0.322989 -4.40919 0
M  V30 14177 N 1356.9 1.35099 -0.81154 0
M  V30 14178 C 1358.17 1.93009 -0.317289 0
M  V30 14179 C 1358.55 1.74101 1.19382 0
M  V30 14180 O 1357.9 1.11295 1.99564 0
M  V30 14181 C 1358.11 3.41191 -0.734123 0
M  V30 14182 C 1359.46 4.1834 -0.726437 0
M  V30 14183 O 1360.48 3.49727 -0.67598 0
M  V30 14184 O 1359.34 5.4077 -0.789291 0
M  V30 14185 H 1356.44 0.822707 -0.084153 0
M  V30 14186 H 1358.98 1.44145 -0.895569 0
M  V30 14187 H 1357.75 3.48705 -1.7754 0
M  V30 14188 H 1357.38 3.97384 -0.130919 0
M  V30 14189 N 1358.37 0.56548 1.47106 0
M  V30 14190 C 1359.28 -0.180488 2.33905 0
M  V30 14191 C 1360.3 -0.90355 1.48701 0
M  V30 14192 O 1361.48 -0.870595 1.81611 0
M  V30 14193 C 1358.54 -1.19212 3.2556 0
M  V30 14194 C 1357.6 -0.475589 4.26658 0
M  V30 14195 C 1356.83 -1.43902 5.13934 0
M  V30 14196 O 1357.06 -2.67443 5.03816 0
M  V30 14197 O 1355.99 -0.958998 5.94211 0
M  V30 14198 H 1359.82 0.531726 2.99009 0
M  V30 14199 H 1357.4 0.32602 1.45799 0
M  V30 14200 H 1359.28 -1.77586 3.82153 0
M  V30 14201 H 1357.96 -1.8861 2.63074 0
M  V30 14202 H 1356.87 0.149561 3.73801 0
M  V30 14203 H 1358.2 0.177103 4.91881 0
M  V30 14204 N 1359.85 -1.54672 0.302354 0
M  V30 14205 C 1361.1 -2.01178 -0.299842 0
M  V30 14206 C 1361.45 -1.18698 -1.51422 0
M  V30 14207 O 1360.75 -0.255677 -1.89886 0
M  V30 14208 C 1360.94 -3.5035 -0.70638 0
M  V30 14209 C 1360.77 -4.47268 0.467051 0
M  V30 14210 C 1359.54 -4.96107 0.959494 0
M  V30 14211 C 1361.74 -4.97272 1.31245 0
M  V30 14212 N 1359.72 -5.76881 2.09955 0
M  V30 14213 C 1361.09 -5.75761 2.29997 0
M  V30 14214 C 1363.15 -4.79455 1.34267 0
M  V30 14215 C 1361.85 -6.38332 3.31549 0
M  V30 14216 C 1363.87 -5.42845 2.34677 0
M  V30 14217 C 1363.24 -6.21168 3.32159 0
M  V30 14218 H 1359.34 -0.778477 -0.0741425 0
M  V30 14219 H 1361.92 -1.89834 0.432577 0
M  V30 14220 H 1360.09 -3.61982 -1.40797 0
M  V30 14221 H 1361.82 -3.83649 -1.28823 0
M  V30 14222 H 1358.58 -4.70577 0.534246 0
M  V30 14223 H 1359 -6.21953 2.67401 0
M  V30 14224 H 1363.64 -4.18482 0.602738 0
M  V30 14225 H 1361.36 -6.98438 4.0646 0
M  V30 14226 H 1364.95 -5.30987 2.37791 0
M  V30 14227 H 1363.83 -6.69349 4.08584 0
M  V30 14228 N 1361.33 -0.0301034 -1.57571 0
M  V30 14229 C 1362.26 0.94977 -2.13311 0
M  V30 14230 C 1363.24 1.33865 -1.04948 0
M  V30 14231 O 1364.43 1.4171 -1.32786 0
M  V30 14232 C 1361.56 2.23178 -2.66099 0
M  V30 14233 C 1360.51 1.98362 -3.79258 0
M  V30 14234 C 1359.84 3.32836 -4.18479 0
M  V30 14235 C 1361.14 1.32201 -5.05292 0
M  V30 14236 H 1362.83 0.485562 -2.95436 0
M  V30 14237 H 1360.38 0.232116 -1.42117 0
M  V30 14238 H 1362.33 2.92108 -3.03728 0
M  V30 14239 H 1361.05 2.71766 -1.81137 0
M  V30 14240 H 1359.71 1.31849 -3.42069 0
M  V30 14241 H 1359.36 3.79185 -3.30496 0
M  V30 14242 H 1359.06 3.17037 -4.94733 0
M  V30 14243 H 1360.58 4.03032 -4.58691 0
M  V30 14244 H 1362 1.91133 -5.40501 0
M  V30 14245 H 1360.4 1.26797 -5.86551 0
M  V30 14246 H 1361.47 0.29511 -4.84001 0
M  V30 14247 N 1362.81 1.55714 0.243056 0
M  V30 14248 C 1363.72 1.93777 1.32241 0
M  V30 14249 C 1364.73 0.838709 1.52452 0
M  V30 14250 O 1365.91 1.14044 1.66 0
M  V30 14251 C 1362.98 2.22808 2.65627 0
M  V30 14252 C 1362.04 3.46166 2.53904 0
M  V30 14253 C 1361.27 3.73802 3.8093 0
M  V30 14254 O 1361.49 3.0345 4.82985 0
M  V30 14255 O 1360.43 4.67323 3.79332 0
M  V30 14256 H 1364.25 2.85718 1.02951 0
M  V30 14257 H 1361.84 1.42646 0.444135 0
M  V30 14258 H 1363.72 2.4277 3.44442 0
M  V30 14259 H 1362.39 1.34045 2.94642 0
M  V30 14260 H 1361.3 3.31506 1.73362 0
M  V30 14261 H 1362.63 4.35244 2.29834 0
M  V30 14262 N 1364.29 -0.50888 1.49158 0
M  V30 14263 C 1365.25 -1.59354 1.64739 0
M  V30 14264 C 1366.25 -1.52175 0.519557 0
M  V30 14265 O 1367.44 -1.55468 0.785838 0
M  V30 14266 C 1364.57 -2.99002 1.63739 0
M  V30 14267 H 1365.76 -1.46871 2.61474 0
M  V30 14268 H 1363.32 -0.732532 1.38071 0
M  V30 14269 H 1364.05 -3.1697 0.685583 0
M  V30 14270 H 1363.84 -3.05622 2.45637 0
M  V30 14271 H 1365.33 -3.77822 1.77877 0
M  V30 14272 N 1365.76 -1.381 -0.759346 0
M  V30 14273 C 1367.01 -1.33311 -1.51364 0
M  V30 14274 C 1367.33 0.0761325 -1.95452 0
M  V30 14275 O 1368.53 0.246541 -2.70378 0
M  V30 14276 C 1366.99 -2.34067 -2.73387 0
M  V30 14277 C 1366.6 -3.80583 -2.36348 0
M  V30 14278 C 1368.34 -2.38311 -3.51295 0
M  V30 14279 C 1366.25 -4.73039 -3.54948 0
M  V30 14280 H 1365.18 -0.495512 -0.568317 0
M  V30 14281 H 1367.83 -1.63625 -0.830602 0
M  V30 14282 H 1366.21 -1.96788 -3.43643 0
M  V30 14283 H 1367.38 -4.26769 -1.73796 0
M  V30 14284 H 1365.7 -3.79403 -1.71587 0
M  V30 14285 H 1368.3 -3.04586 -4.39467 0
M  V30 14286 H 1368.64 -1.40034 -3.92041 0
M  V30 14287 H 1369.17 -2.74361 -2.88047 0
M  V30 14288 H 1365.91 -5.7249 -3.19273 0
M  V30 14289 H 1365.43 -4.3155 -4.16563 0
M  V30 14290 H 1367.11 -4.90775 -4.21603 0
M  V30 14291 N 1367.24 0.986894 -1.22875 0
M  V30 14292 C 1368.19 2.07811 -1.00416 0
M  V30 14293 C 1369.16 1.65925 0.0761734 0
M  V30 14294 O 1370.34 1.90654 -0.0746294 0
M  V30 14295 C 1367.48 3.39941 -0.594471 0
M  V30 14296 C 1366.6 3.95134 -1.74622 0
M  V30 14297 C 1365.73 5.1545 -1.28394 0
M  V30 14298 C 1364.77 5.62794 -2.40686 0
M  V30 14299 N 1363.91 6.74343 -1.95462 0
M  V30 14300 H 1368.75 2.26356 -1.93822 0
M  V30 14301 H 1366.29 1.10966 -0.965661 0
M  V30 14302 H 1368.24 4.15828 -0.338078 0
M  V30 14303 H 1366.87 3.21379 0.302587 0
M  V30 14304 H 1365.93 3.16064 -2.11679 0
M  V30 14305 H 1367.24 4.26247 -2.59066 0
M  V30 14306 H 1366.39 5.98646 -0.98529 0
M  V30 14307 H 1365.13 4.85975 -0.409789 0
M  V30 14308 H 1364.14 4.78182 -2.71333 0
M  V30 14309 H 1365.36 5.9429 -3.28627 0
M  V30 14310 H 1363.31 6.46641 -1.10417 0
M  V30 14311 H 1363.22 7.04806 -2.73469 0
M  V30 14312 H 1364.49 7.6103 -1.68683 0
M  V30 14313 N 1368.72 1.0394 1.18466 0
M  V30 14314 C 1369.65 0.573814 2.20868 0
M  V30 14315 C 1370.63 -0.390956 1.5783 0
M  V30 14316 O 1371.82 -0.305561 1.86007 0
M  V30 14317 C 1368.94 -0.161904 3.38313 0
M  V30 14318 C 1367.99 0.755924 4.19748 0
M  V30 14319 S 1368.82 2.23809 4.86487 0
M  V30 14320 C 1369.98 1.51318 6.07333 0
M  V30 14321 H 1370.21 1.44143 2.60019 0
M  V30 14322 H 1367.74 0.850252 1.2888 0
M  V30 14323 H 1369.7 -0.58022 4.06379 0
M  V30 14324 H 1368.36 -1.00539 2.97575 0
M  V30 14325 H 1367.56 0.187345 5.03652 0
M  V30 14326 H 1367.16 1.11303 3.57054 0
M  V30 14327 H 1369.45 0.805536 6.72694 0
M  V30 14328 H 1370.39 2.32922 6.68695 0
M  V30 14329 H 1370.8 1.00607 5.55462 0
M  V30 14330 N 1370.2 -1.34667 0.818693 0
M  V30 14331 C 1371.45 -1.98022 0.40396 0
M  V30 14332 C 1371.77 -1.65239 -1.03542 0
M  V30 14333 O 1371.04 -0.94097 -1.71821 0
M  V30 14334 H 1369.62 -0.732517 0.146382 0
M  V30 14335 H 1372.28 -1.64377 1.0472 0
M  V30 14336 H 1371.38 -3.07746 0.519516 0
M  V30 14337 N 1371.68 -0.573274 -1.46804 0
M  V30 14338 C 1372.61 0.20305 -2.28299 0
M  V30 14339 C 1373.62 0.864367 -1.37958 0
M  V30 14340 O 1374.81 0.735516 -1.62642 0
M  V30 14341 C 1371.91 1.30633 -3.12711 0
M  V30 14342 C 1371.08 0.738741 -4.31116 0
M  V30 14343 C 1370.14 1.72853 -4.96999 0
M  V30 14344 O 1369.17 1.2683 -5.5489 0
M  V30 14345 N 1370.37 3.06239 -4.93151 0
M  V30 14346 H 1373.14 -0.496086 -2.95566 0
M  V30 14347 H 1370.7 -0.410411 -1.56612 0
M  V30 14348 H 1372.69 1.96755 -3.53652 0
M  V30 14349 H 1371.26 1.90846 -2.47581 0
M  V30 14350 H 1370.48 -0.0996941 -3.94074 0
M  V30 14351 H 1371.77 0.339154 -5.07668 0
M  V30 14352 H 1371.16 3.46262 -4.47347 0
M  V30 14353 H 1369.72 3.67876 -5.38062 0
M  V30 14354 N 1373.15 1.5451 -0.310553 0
M  V30 14355 C 1374.38 2.04442 0.297807 0
M  V30 14356 C 1374.79 1.18695 1.47337 0
M  V30 14357 O 1374.14 0.207405 1.82525 0
M  V30 14358 C 1374.2 3.50306 0.807851 0
M  V30 14359 C 1373.86 4.5635 -0.24369 0
M  V30 14360 C 1374.86 5.08656 -1.07539 0
M  V30 14361 C 1372.54 5.00798 -0.388138 0
M  V30 14362 C 1374.54 6.03961 -2.03738 0
M  V30 14363 C 1372.22 5.95921 -1.35357 0
M  V30 14364 C 1373.22 6.47387 -2.17667 0
M  V30 14365 O 1372.91 7.40644 -3.12571 0
M  V30 14366 H 1372.64 0.672646 0.0672525 0
M  V30 14367 H 1375.2 2.00389 -0.450948 0
M  V30 14368 H 1373.43 3.51714 1.6073 0
M  V30 14369 H 1375.12 3.83383 1.33314 0
M  V30 14370 H 1375.88 4.75105 -0.97471 0
M  V30 14371 H 1371.76 4.60361 0.242608 0
M  V30 14372 H 1375.3 6.44057 -2.68023 0
M  V30 14373 H 1371.2 6.2889 -1.45493 0
M  V30 14374 H 1371.97 7.58477 -3.0766 0
M  V30 14375 N 1374.63 0.0384594 1.57553 0
M  V30 14376 C 1375.58 -0.940256 2.10779 0
M  V30 14377 C 1376.55 -1.31705 1.01208 0
M  V30 14378 O 1377.74 -1.40874 1.28683 0
M  V30 14379 C 1374.88 -2.21419 2.64703 0
M  V30 14380 C 1373.99 -1.89302 3.88315 0
M  V30 14381 C 1373.12 -3.1106 4.30599 0
M  V30 14382 C 1372.16 -2.74805 5.46945 0
M  V30 14383 N 1371.3 -3.89217 5.84341 0
M  V30 14384 H 1376.14 -0.479458 2.94118 0
M  V30 14385 H 1373.68 -0.22505 1.45368 0
M  V30 14386 H 1375.63 -2.95946 2.94061 0
M  V30 14387 H 1374.26 -2.65099 1.84181 0
M  V30 14388 H 1373.32 -1.04977 3.65628 0
M  V30 14389 H 1374.63 -1.58607 4.72912 0
M  V30 14390 H 1373.78 -3.93898 4.61442 0
M  V30 14391 H 1372.52 -3.44924 3.44788 0
M  V30 14392 H 1371.53 -1.9038 5.15786 0
M  V30 14393 H 1372.75 -2.42147 6.34462 0
M  V30 14394 H 1370.7 -4.22905 5.01485 0
M  V30 14395 H 1370.61 -3.62177 6.63599 0
M  V30 14396 H 1371.88 -4.72732 6.19794 0
M  V30 14397 N 1376.11 -1.55841 -0.234795 0
M  V30 14398 C 1377.02 -1.94476 -1.31211 0
M  V30 14399 C 1378.04 -0.846782 -1.52005 0
M  V30 14400 O 1379.21 -1.14922 -1.65393 0
M  V30 14401 C 1376.28 -2.24213 -2.64442 0
M  V30 14402 C 1375.34 -3.47508 -2.52065 0
M  V30 14403 C 1374.57 -3.75817 -3.78942 0
M  V30 14404 O 1374.8 -3.06007 -4.81369 0
M  V30 14405 O 1373.73 -4.69328 -3.76848 0
M  V30 14406 H 1377.56 -2.8626 -1.01434 0
M  V30 14407 H 1375.14 -1.42879 -0.436563 0
M  V30 14408 H 1377.02 -2.44594 -3.4315 0
M  V30 14409 H 1375.7 -1.35605 -2.93927 0
M  V30 14410 H 1374.6 -3.32421 -1.71602 0
M  V30 14411 H 1375.94 -4.36457 -2.27523 0
M  V30 14412 N 1377.59 0.500963 -1.49426 0
M  V30 14413 C 1378.81 1.28383 -1.62888 0
M  V30 14414 C 1379.24 1.85688 -0.300262 0
M  V30 14415 O 1378.6 1.6586 0.73212 0
M  V30 14416 C 1378.65 2.38987 -2.70033 0
M  V30 14417 O 1377.75 3.42837 -2.29208 0
M  V30 14418 H 1377.09 0.379012 -0.545202 0
M  V30 14419 H 1379.62 0.59971 -1.95613 0
M  V30 14420 H 1379.63 2.84749 -2.92202 0
M  V30 14421 H 1378.31 1.96643 -3.66475 0
M  V30 14422 H 1376.88 3.02993 -2.1737 0
M  V30 14423 N 1379.07 1.38501 0.752011 0
M  V30 14424 C 1380.31 1.34795 1.51118 0
M  V30 14425 C 1380.64 -0.0615084 1.94403 0
M  V30 14426 O 1379.9 -1.03892 1.65846 0
M  V30 14427 C 1380.2 2.25111 2.77596 0
M  V30 14428 C 1379.86 3.73052 2.53265 0
M  V30 14429 C 1378.52 4.13365 2.46339 0
M  V30 14430 C 1380.88 4.66692 2.32051 0
M  V30 14431 C 1378.2 5.45406 2.16216 0
M  V30 14432 C 1380.56 5.98992 2.03448 0
M  V30 14433 C 1379.22 6.38388 1.94979 0
M  V30 14434 H 1378.49 0.49325 0.552979 0
M  V30 14435 H 1381.14 1.70872 0.864588 0
M  V30 14436 H 1379.44 1.82096 3.46913 0
M  V30 14437 H 1381.14 2.19547 3.3556 0
M  V30 14438 H 1377.73 3.41091 2.59528 0
M  V30 14439 H 1381.91 4.36392 2.3638 0
M  V30 14440 H 1377.17 5.7487 2.08168 0
M  V30 14441 H 1381.34 6.71091 1.86037 0
M  V30 14442 H 1378.97 7.40625 1.71402 0
M  V30 14443 N 1380.55 -0.980364 1.23396 0
M  V30 14444 C 1381.51 -2.05433 1.01635 0
M  V30 14445 C 1382.51 -1.60785 -0.0218244 0
M  V30 14446 O 1383.7 -1.72832 0.217922 0
M  V30 14447 C 1380.83 -3.36631 0.537822 0
M  V30 14448 H 1382.02 -2.26172 1.96943 0
M  V30 14449 H 1379.58 -1.15378 1.05441 0
M  V30 14450 H 1380.31 -3.21581 -0.41903 0
M  V30 14451 H 1380.1 -3.70377 1.28698 0
M  V30 14452 H 1381.59 -4.1562 0.406213 0
M  V30 14453 N 1382.02 -1.04567 -1.17913 0
M  V30 14454 C 1382.97 -0.634939 -2.23766 0
M  V30 14455 C 1383.97 0.340723 -1.65938 0
M  V30 14456 O 1385.17 0.207467 -1.788 0
M  V30 14457 H 1381.55 -0.187129 -0.728345 0
M  V30 14458 H 1383.52 -1.53798 -2.55712 0
M  V30 14459 C 1382.27 -0.0190662 -3.47695 0
M  V30 14460 H 1381.59 -0.760881 -3.92493 0
M  V30 14461 H 1383.03 0.231035 -4.2337 0
M  V30 14462 C 1381.49 1.23246 -3.13548 0
M  V30 14463 O 1382.02 2.32262 -3.27746 0
M  V30 14464 N 1380.22 1.12768 -2.67828 0
M  V30 14465 H 1379.77 0.240547 -2.56474 0
M  V30 14466 H 1379.73 1.96594 -2.45353 0
M  V30 14467 N 1383.5 1.34231 -0.825823 0
M  V30 14468 C 1384.46 2.27776 -0.25512 0
M  V30 14469 C 1385.46 1.50409 0.568654 0
M  V30 14470 O 1386.65 1.69907 0.384337 0
M  V30 14471 C 1383.79 3.348 0.642013 0
M  V30 14472 H 1384.98 2.79763 -1.0804 0
M  V30 14473 H 1382.53 1.44412 -0.597904 0
M  V30 14474 H 1383.27 2.88032 1.49024 0
M  V30 14475 H 1383.05 3.92064 0.0527756 0
M  V30 14476 H 1384.54 4.0457 1.03502 0
M  V30 14477 N 1384.98 0.581051 1.46498 0
M  V30 14478 C 1386.23 0.0658652 2.01993 0
M  V30 14479 C 1386.55 -1.29807 1.45516 0
M  V30 14480 O 1385.82 -1.85177 0.639233 0
M  V30 14481 H 1384.4 0.0213584 0.746695 0
M  V30 14482 H 1387.06 0.756456 1.79621 0
M  V30 14483 H 1386.16 -0.00438128 3.121 0
M  V30 14484 N 1386.46 -1.54343 0.318742 0
M  V30 14485 C 1387.7 -2.0048 -0.285276 0
M  V30 14486 C 1388.03 -1.20698 -1.5252 0
M  V30 14487 O 1387.29 -0.275893 -1.93746 0
M  V30 14488 C 1387.59 -3.51079 -0.669181 0
M  V30 14489 C 1387.25 -4.48433 0.471017 0
M  V30 14490 C 1385.91 -4.74771 0.783985 0
M  V30 14491 C 1388.27 -5.06304 1.23715 0
M  V30 14492 C 1385.59 -5.56239 1.86589 0
M  V30 14493 C 1387.95 -5.88951 2.30911 0
M  V30 14494 C 1386.61 -6.13592 2.62794 0
M  V30 14495 H 1385.88 -0.73361 -0.10439 0
M  V30 14496 H 1388.53 -1.86341 0.441521 0
M  V30 14497 H 1386.83 -3.62921 -1.47633 0
M  V30 14498 H 1388.53 -3.84216 -1.148 0
M  V30 14499 H 1385.12 -4.2805 0.217004 0
M  V30 14500 H 1389.3 -4.85943 1.00862 0
M  V30 14501 H 1384.56 -5.73563 2.11744 0
M  V30 14502 H 1388.73 -6.32814 2.90722 0
M  V30 14503 H 1386.36 -6.76508 3.46757 0
M  V30 14504 N 1387.94 -0.0468143 -1.5753 0
M  V30 14505 C 1389.16 0.637648 -1.96829 0
M  V30 14506 C 1389.58 1.64635 -0.924158 0
M  V30 14507 O 1388.94 1.82267 0.0921139 0
M  V30 14508 C 1388.99 1.32842 -3.36207 0
M  V30 14509 O 1388.71 0.360111 -4.36617 0
M  V30 14510 C 1390.21 2.10305 -3.90239 0
M  V30 14511 H 1387.43 0.174634 -0.647876 0
M  V30 14512 H 1389.97 -0.111824 -2.04194 0
M  V30 14513 H 1388.13 2.02915 -3.30006 0
M  V30 14514 H 1388.54 0.852661 -5.17523 0
M  V30 14515 H 1390.02 2.54065 -4.90056 0
M  V30 14516 H 1390.49 2.94942 -3.25432 0
M  V30 14517 H 1391.1 1.45152 -3.99764 0
M  V30 14518 N 1389.41 1.55964 0.226527 0
M  V30 14519 C 1390.64 1.83168 0.972846 0
M  V30 14520 C 1391.06 0.626512 1.7736 0
M  V30 14521 O 1390.42 -0.42468 1.76256 0
M  V30 14522 C 1390.47 3.08315 1.87014 0
M  V30 14523 O 1389.57 2.8666 2.96479 0
M  V30 14524 H 1388.92 0.604041 0.275736 0
M  V30 14525 H 1391.45 2.03172 0.241345 0
M  V30 14526 H 1391.46 3.38288 2.28091 0
M  V30 14527 H 1390.13 3.95663 1.28154 0
M  V30 14528 H 1388.71 2.67907 2.59384 0
M  V30 14529 N 1390.89 -0.493031 1.4969 0
M  V30 14530 C 1392.14 -1.24664 1.59578 0
M  V30 14531 C 1392.47 -1.92385 0.286075 0
M  V30 14532 O 1391.72 -1.81712 -0.726586 0
M  V30 14533 C 1392.02 -2.33014 2.70997 0
M  V30 14534 C 1391.69 -1.82697 4.12229 0
M  V30 14535 C 1390.35 -1.68694 4.50662 0
M  V30 14536 C 1392.7 -1.45127 5.00587 0
M  V30 14537 C 1390.03 -1.15512 5.75216 0
M  V30 14538 C 1392.38 -0.933951 6.25668 0
M  V30 14539 C 1391.05 -0.780378 6.62923 0
M  V30 14540 H 1390.32 -0.456178 0.583937 0
M  V30 14541 H 1392.96 -0.546091 1.83549 0
M  V30 14542 H 1391.27 -3.08889 2.41029 0
M  V30 14543 H 1392.96 -2.91041 2.75855 0
M  V30 14544 H 1389.55 -1.94557 3.81897 0
M  V30 14545 H 1393.74 -1.5479 4.71544 0
M  V30 14546 H 1388.99 -1.0234 6.02774 0
M  V30 14547 H 1393.17 -0.634088 6.93507 0
M  V30 14548 H 1390.8 -0.366111 7.59318 0
M  V30 14549 N 1392.37 -1.38898 -0.744656 0
M  V30 14550 C 1393.65 -1.2611 -1.49518 0
M  V30 14551 C 1394.03 0.133592 -2.10677 0
M  V30 14552 O 1393.38 1.14394 -1.97804 0
M  V30 14553 C 1393.59 -2.37809 -2.55437 0
M  V30 14554 C 1394.93 -2.76664 -3.22091 0
M  V30 14555 O 1395.96 -2.37187 -2.65746 0
M  V30 14556 O 1394.82 -3.44771 -4.24023 0
M  V30 14557 H 1391.91 -0.493664 -0.663494 0
M  V30 14558 H 1394.46 -1.50748 -0.779304 0
M  V30 14559 H 1393.23 -3.31089 -2.08556 0
M  V30 14560 H 1392.85 -2.14783 -3.34595 0
M  V30 14561 N 1393.85 0.973806 -1.23914 0
M  V30 14562 C 1395.09 1.71852 -1.07678 0
M  V30 14563 C 1395.43 1.90357 0.384425 0
M  V30 14564 O 1394.7 1.46063 1.28436 0
M  V30 14565 C 1394.99 3.1129 -1.81026 0
M  V30 14566 C 1394.84 3.00315 -3.3486 0
M  V30 14567 C 1396.16 4.10835 -1.57805 0
M  V30 14568 H 1393.28 0.623749 -0.392564 0
M  V30 14569 H 1395.92 1.13325 -1.52504 0
M  V30 14570 H 1394.07 3.61255 -1.42922 0
M  V30 14571 H 1395.74 2.57823 -3.82524 0
M  V30 14572 H 1393.98 2.36667 -3.63553 0
M  V30 14573 H 1394.65 3.9907 -3.81376 0
M  V30 14574 H 1397.13 3.69705 -1.90939 0
M  V30 14575 H 1396.01 5.06478 -2.11591 0
M  V30 14576 H 1396.27 4.39091 -0.514894 0
M  V30 14577 N 1395.33 1.05191 1.17357 0
M  V30 14578 C 1396.57 0.763113 1.87895 0
M  V30 14579 C 1396.91 -0.708071 1.80831 0
M  V30 14580 O 1396.18 -1.51777 1.21631 0
M  V30 14581 C 1396.46 1.2442 3.37923 0
M  V30 14582 C 1396.32 2.77832 3.53737 0
M  V30 14583 C 1397.64 0.843209 4.31947 0
M  V30 14584 H 1394.75 0.27869 0.682276 0
M  V30 14585 H 1397.4 1.3059 1.38008 0
M  V30 14586 H 1395.55 0.782438 3.80539 0
M  V30 14587 H 1397.22 3.32131 3.20135 0
M  V30 14588 H 1395.46 3.17108 2.96015 0
M  V30 14589 H 1396.13 3.06555 4.59052 0
M  V30 14590 H 1398.61 1.24073 3.97171 0
M  V30 14591 H 1397.48 1.20743 5.35455 0
M  V30 14592 H 1397.75 -0.252802 4.41377 0
M  V30 14593 N 1396.8 -1.33791 0.83293 0
M  V30 14594 C 1398.03 -2.0272 0.438111 0
M  V30 14595 C 1398.45 -1.62279 -0.951163 0
M  V30 14596 O 1397.81 -0.812406 -1.62079 0
M  V30 14597 C 1397.86 -3.5623 0.559698 0
M  V30 14598 O 1396.96 -4.10292 -0.41646 0
M  V30 14599 H 1396.31 -0.639438 0.178928 0
M  V30 14600 H 1398.84 -1.70821 1.12612 0
M  V30 14601 H 1398.85 -4.0563 0.439148 0
M  V30 14602 H 1397.52 -3.8501 1.5729 0
M  V30 14603 H 1396.1 -3.72034 -0.25396 0
M  V30 14604 N 1398.28 -0.588812 -1.46187 0
M  V30 14605 C 1399.21 0.178825 -2.28501 0
M  V30 14606 C 1400.23 0.849686 -1.38867 0
M  V30 14607 O 1401.42 0.718224 -1.63413 0
M  V30 14608 C 1398.52 1.27309 -3.14079 0
M  V30 14609 C 1397.69 0.692974 -4.31876 0
M  V30 14610 C 1396.75 1.67572 -4.98805 0
M  V30 14611 O 1395.77 1.20937 -5.56204 0
M  V30 14612 N 1396.98 3.00992 -4.96371 0
M  V30 14613 H 1399.74 -0.527407 -2.95023 0
M  V30 14614 H 1397.3 -0.426998 -1.56168 0
M  V30 14615 H 1399.29 1.92993 -3.55719 0
M  V30 14616 H 1397.86 1.88209 -2.49592 0
M  V30 14617 H 1397.08 -0.141485 -3.93946 0
M  V30 14618 H 1398.37 0.28529 -5.08 0
M  V30 14619 H 1397.77 3.41498 -4.50994 0
M  V30 14620 H 1396.33 3.62149 -5.41933 0
M  V30 14621 N 1399.76 1.54172 -0.326923 0
M  V30 14622 C 1400.69 2.20703 0.580137 0
M  V30 14623 C 1401.67 1.18523 1.11315 0
M  V30 14624 O 1402.86 1.47276 1.17652 0
M  V30 14625 C 1399.98 2.87137 1.79638 0
M  V30 14626 C 1399.03 4.03064 1.39432 0
M  V30 14627 S 1399.86 5.33785 0.428179 0
M  V30 14628 C 1401.02 6.03715 1.65163 0
M  V30 14629 H 1401.25 2.97296 0.0149964 0
M  V30 14630 H 1398.78 1.54 -0.111004 0
M  V30 14631 H 1400.74 3.26035 2.49423 0
M  V30 14632 H 1399.4 2.1034 2.33272 0
M  V30 14633 H 1398.6 4.48424 2.3007 0
M  V30 14634 H 1398.2 3.65858 0.776144 0
M  V30 14635 H 1400.49 6.26098 2.58858 0
M  V30 14636 H 1401.43 6.97156 1.24014 0
M  V30 14637 H 1401.84 5.33666 1.84014 0
M  V30 14638 N 1401.24 0.0551678 1.57503 0
M  V30 14639 C 1402.17 -0.953348 2.07332 0
M  V30 14640 C 1403.15 -1.30148 0.974699 0
M  V30 14641 O 1404.33 -1.41366 1.24692 0
M  V30 14642 C 1401.46 -2.26622 2.51715 0
M  V30 14643 C 1400.51 -2.07085 3.72851 0
M  V30 14644 S 1401.34 -1.34553 5.1832 0
M  V30 14645 C 1402.5 -2.67155 5.6602 0
M  V30 14646 H 1402.73 -0.529294 2.9255 0
M  V30 14647 H 1400.26 -0.157196 1.53598 0
M  V30 14648 H 1402.22 -3.02085 2.77948 0
M  V30 14649 H 1400.88 -2.66155 1.66795 0
M  V30 14650 H 1400.07 -3.04206 4.01839 0
M  V30 14651 H 1399.68 -1.39761 3.46905 0
M  V30 14652 H 1401.97 -3.63309 5.7185 0
M  V30 14653 H 1402.91 -2.42798 6.65173 0
M  V30 14654 H 1403.32 -2.73597 4.93766 0
M  V30 14655 N 1402.72 -1.56081 -0.218252 0
M  V30 14656 C 1403.65 -1.87704 -1.29779 0
M  V30 14657 C 1404.63 -0.734747 -1.45053 0
M  V30 14658 O 1405.81 -0.98344 -1.60813 0
M  V30 14659 C 1402.94 -2.08695 -2.66766 0
M  V30 14660 C 1401.98 -3.31385 -2.68489 0
M  V30 14661 S 1402.82 -4.87212 -2.22227 0
M  V30 14662 C 1403.97 -5.11243 -3.61083 0
M  V30 14663 H 1404.21 -2.78975 -1.02762 0
M  V30 14664 H 1401.74 -1.48559 -0.420653 0
M  V30 14665 H 1403.7 -2.21472 -3.4563 0
M  V30 14666 H 1402.36 -1.18215 -2.91005 0
M  V30 14667 H 1401.55 -3.43127 -3.69161 0
M  V30 14668 H 1401.15 -3.17482 -1.9769 0
M  V30 14669 H 1403.45 -5.00344 -4.56796 0
M  V30 14670 H 1404.39 -6.13115 -3.54254 0
M  V30 14671 H 1404.8 -4.38964 -3.54924 0
M  V30 14672 N 1404.2 0.485086 -1.49949 0
M  V30 14673 C 1405.11 1.61089 -1.70551 0
M  V30 14674 C 1406.12 1.63752 -0.588333 0
M  V30 14675 O 1407.3 1.81879 -0.86498 0
M  V30 14676 C 1404.36 2.97382 -1.78227 0
M  V30 14677 C 1403.42 3.05219 -3.01894 0
M  V30 14678 C 1402.66 4.35011 -3.09195 0
M  V30 14679 O 1402.88 5.24722 -2.23658 0
M  V30 14680 O 1401.81 4.48151 -4.01802 0
M  V30 14681 H 1405.64 1.46633 -2.65956 0
M  V30 14682 H 1403.22 0.663091 -1.33879 0
M  V30 14683 H 1405.11 3.78356 -1.85538 0
M  V30 14684 H 1403.78 3.12066 -0.860043 0
M  V30 14685 H 1402.69 2.23373 -3.00092 0
M  V30 14686 H 1404.02 2.95467 -3.93649 0
M  V30 14687 N 1405.67 1.39291 0.737279 0
M  V30 14688 C 1406.95 1.26901 1.48847 0
M  V30 14689 C 1407.33 -0.122417 2.10745 0
M  V30 14690 O 1406.68 -1.13343 1.98408 0
M  V30 14691 C 1406.89 2.3916 2.54172 0
M  V30 14692 C 1408.24 2.78368 3.20619 0
M  V30 14693 O 1409.26 2.38593 2.64484 0
M  V30 14694 O 1408.12 3.47014 4.22189 0
M  V30 14695 H 1405.21 0.497176 0.660867 0
M  V30 14696 H 1407.76 1.51159 0.771299 0
M  V30 14697 H 1406.53 3.3219 2.06797 0
M  V30 14698 H 1406.15 2.16555 3.33451 0
M  V30 14699 N 1407.15 -0.967221 1.24429 0
M  V30 14700 C 1408.4 -1.70458 1.07829 0
M  V30 14701 C 1408.71 -1.91818 -0.38278 0
M  V30 14702 O 1409.92 -2.63129 -0.668982 0
M  V30 14703 C 1408.38 -3.06817 1.88125 0
M  V30 14704 C 1407.98 -2.93298 3.38645 0
M  V30 14705 C 1409.73 -3.84422 1.80056 0
M  V30 14706 C 1407.63 -4.2497 4.11284 0
M  V30 14707 H 1406.56 -0.639217 0.399897 0
M  V30 14708 H 1409.22 -1.07776 1.48515 0
M  V30 14709 H 1407.6 -3.70331 1.40254 0
M  V30 14710 H 1408.77 -2.38793 3.94099 0
M  V30 14711 H 1407.09 -2.29159 3.47671 0
M  V30 14712 H 1409.68 -4.81925 2.31629 0
M  V30 14713 H 1410.03 -4.09194 0.765908 0
M  V30 14714 H 1410.56 -3.27636 2.2561 0
M  V30 14715 H 1407.3 -4.05391 5.1511 0
M  V30 14716 H 1406.82 -4.79288 3.60615 0
M  V30 14717 H 1408.5 -4.93586 4.18308 0
M  V30 14718 N 1408.63 -1.05812 -1.16797 0
M  V30 14719 C 1409.56 -0.685778 -2.23202 0
M  V30 14720 C 1410.54 0.319428 -1.67074 0
M  V30 14721 O 1411.73 0.195635 -1.93212 0
M  V30 14722 C 1408.86 -0.0662958 -3.47237 0
M  V30 14723 C 1407.81 -0.996943 -4.16227 0
M  V30 14724 C 1407.14 -0.241015 -5.34157 0
M  V30 14725 C 1408.44 -2.32384 -4.67755 0
M  V30 14726 H 1410.13 -1.57535 -2.54604 0
M  V30 14727 H 1407.68 -0.758909 -1.22379 0
M  V30 14728 H 1409.63 0.206024 -4.20896 0
M  V30 14729 H 1408.35 0.858263 -3.15121 0
M  V30 14730 H 1407.01 -1.25393 -3.44488 0
M  V30 14731 H 1406.66 0.686508 -4.98293 0
M  V30 14732 H 1406.36 -0.861188 -5.81255 0
M  V30 14733 H 1407.88 0.0238739 -6.10595 0
M  V30 14734 H 1409.3 -2.11099 -5.3302 0
M  V30 14735 H 1407.69 -2.89855 -5.25456 0
M  V30 14736 H 1408.76 -2.958 -3.84227 0
M  V30 14737 N 1410.11 1.33347 -0.840014 0
M  V30 14738 C 1411.52 1.50615 -0.52795 0
M  V30 14739 C 1411.72 1.77993 0.944493 0
M  V30 14740 O 1410.78 1.84087 1.72824 0
M  V30 14741 C 1412.09 2.66001 -1.40228 0
M  V30 14742 C 1413.64 2.79886 -1.40117 0
M  V30 14743 C 1414.12 3.98335 -2.26038 0
M  V30 14744 N 1415.61 4.05572 -2.23753 0
M  V30 14745 C 1416.34 4.96422 -2.86972 0
M  V30 14746 N 1415.84 5.9238 -3.59247 0
M  V30 14747 N 1417.63 4.89428 -2.76436 0
M  V30 14748 H 1409.78 1.13839 -1.79317 0
M  V30 14749 H 1412.04 0.559772 -0.765088 0
M  V30 14750 H 1411.75 2.52453 -2.44868 0
M  V30 14751 H 1411.62 3.61434 -1.07914 0
M  V30 14752 H 1414.01 2.92865 -0.362487 0
M  V30 14753 H 1414.09 1.85211 -1.76439 0
M  V30 14754 H 1413.74 3.86115 -3.29966 0
M  V30 14755 H 1413.67 4.92257 -1.87057 0
M  V30 14756 H 1416.16 3.36899 -1.71195 0
M  V30 14757 H 1416.47 6.58367 -4.04688 0
M  V30 14758 H 1414.82 5.92451 -3.63354 0
M  V30 14759 H 1418.01 4.13428 -2.19534 0
M  V30 14760 H 1418.18 5.60032 -3.25989 0
M  V30 14761 N 1411.59 0.596556 1.45873 0
M  V30 14762 C 1412.83 0.0875879 2.02611 0
M  V30 14763 C 1413.16 -1.27438 1.46538 0
M  V30 14764 O 1412.44 -1.83815 0.635779 0
M  V30 14765 C 1412.72 0.0367394 3.60081 0
M  V30 14766 C 1412.58 1.42859 4.26511 0
M  V30 14767 C 1413.89 -0.656795 4.35171 0
M  V30 14768 H 1411.01 0.0333031 0.736247 0
M  V30 14769 H 1413.66 0.766413 1.73857 0
M  V30 14770 H 1411.81 -0.541345 3.8471 0
M  V30 14771 H 1413.48 2.0529 4.13102 0
M  V30 14772 H 1411.72 1.99243 3.85337 0
M  V30 14773 H 1412.39 1.34535 5.35354 0
M  V30 14774 H 1414.87 -0.165553 4.15771 0
M  V30 14775 H 1413.74 -0.661445 5.449 0
M  V30 14776 H 1414 -1.72079 4.07236 0
M  V30 14777 N 1413.06 -1.53996 0.335095 0
M  V30 14778 C 1414.31 -2.00375 -0.263475 0
M  V30 14779 C 1414.63 -1.22471 -1.51742 0
M  V30 14780 O 1413.9 -0.329604 -1.93107 0
M  V30 14781 H 1412.48 -0.740229 -0.100347 0
M  V30 14782 H 1415.14 -1.89531 0.454302 0
M  V30 14783 H 1414.24 -3.07874 -0.511834 0
M  V30 14784 N 1414.54 -0.0635198 -1.57472 0
M  V30 14785 C 1415.79 0.608384 -1.93459 0
M  V30 14786 C 1416.12 1.6976 -0.943141 0
M  V30 14787 O 1415.4 1.94478 0.0289567 0
M  V30 14788 C 1415.68 1.19302 -3.39763 0
M  V30 14789 C 1415.53 0.11102 -4.49663 0
M  V30 14790 C 1416.85 2.101 -3.86712 0
M  V30 14791 H 1413.97 0.219688 -0.703496 0
M  V30 14792 H 1416.61 -0.127803 -1.8957 0
M  V30 14793 H 1414.76 1.82044 -3.43209 0
M  V30 14794 H 1416.43 -0.521606 -4.58342 0
M  V30 14795 H 1414.68 -0.559408 -4.30178 0
M  V30 14796 H 1415.35 0.560332 -5.49149 0
M  V30 14797 H 1417.82 1.57305 -3.8522 0
M  V30 14798 H 1416.7 2.47945 -4.89708 0
M  V30 14799 H 1416.96 3.00603 -3.24177 0
M  V30 14800 N 1416.02 1.56195 0.209972 0
M  V30 14801 C 1417.25 1.8384 0.949228 0
M  V30 14802 C 1417.66 0.644141 1.77472 0
M  V30 14803 O 1417.02 -0.387276 1.78344 0
M  V30 14804 C 1417.07 3.10131 1.85745 0
M  V30 14805 O 1416.79 4.2495 1.06531 0
M  V30 14806 C 1418.29 3.50847 2.70963 0
M  V30 14807 H 1415.51 0.610856 0.277662 0
M  V30 14808 H 1418.06 2.03295 0.221708 0
M  V30 14809 H 1416.21 2.92618 2.53877 0
M  V30 14810 H 1416.63 4.96769 1.68287 0
M  V30 14811 H 1418.1 4.4222 3.30372 0
M  V30 14812 H 1418.58 2.73139 3.43936 0
M  V30 14813 H 1419.18 3.7084 2.08226 0
M  V30 14814 N 1417.5 -0.477127 1.50204 0
M  V30 14815 C 1418.43 -1.58405 1.71552 0
M  V30 14816 C 1419.41 -1.60463 0.564413 0
M  V30 14817 O 1420.59 -1.76826 0.802893 0
M  V30 14818 C 1417.72 -2.96765 1.8041 0
M  V30 14819 C 1416.68 -3.09573 2.95548 0
M  V30 14820 C 1416 -4.49522 2.89542 0
M  V30 14821 C 1417.3 -2.87356 4.36147 0
M  V30 14822 H 1419 -1.40792 2.64231 0
M  V30 14823 H 1416.54 -0.675886 1.27153 0
M  V30 14824 H 1418.5 -3.74125 1.9393 0
M  V30 14825 H 1417.22 -3.1552 0.843489 0
M  V30 14826 H 1415.88 -2.34645 2.81669 0
M  V30 14827 H 1415.53 -4.65186 1.91339 0
M  V30 14828 H 1415.23 -4.59028 3.66834 0
M  V30 14829 H 1416.75 -5.28909 3.05102 0
M  V30 14830 H 1418.17 -3.54469 4.50583 0
M  V30 14831 H 1416.56 -3.08313 5.14843 0
M  V30 14832 H 1417.63 -1.83264 4.48935 0
M  V30 14833 N 1418.98 -1.3968 -0.729882 0
M  V30 14834 C 1419.94 -1.38577 -1.82562 0
M  V30 14835 C 1420.94 -0.281994 -1.58308 0
M  V30 14836 O 1422.13 -0.540165 -1.65614 0
M  V30 14837 C 1419.26 -1.16343 -3.20433 0
M  V30 14838 H 1420.45 -2.36086 -1.84942 0
M  V30 14839 H 1418.01 -1.25319 -0.934063 0
M  V30 14840 H 1418.74 -0.195372 -3.23711 0
M  V30 14841 H 1418.53 -1.96282 -3.39435 0
M  V30 14842 H 1420.02 -1.18325 -4.00486 0
M  V30 14843 N 1420.45 0.960609 -1.2494 0
M  V30 14844 C 1421.7 1.70111 -1.09117 0
M  V30 14845 C 1422.02 1.91466 0.369544 0
M  V30 14846 O 1421.29 1.49749 1.26302 0
M  V30 14847 H 1419.87 0.630372 -0.400799 0
M  V30 14848 H 1422.54 1.15525 -1.56971 0
M  V30 14849 H 1421.63 2.68277 -1.5948 0
M  V30 14850 N 1421.93 1.0643 1.16234 0
M  V30 14851 C 1422.88 0.646274 2.18649 0
M  V30 14852 C 1423.87 -0.323768 1.57609 0
M  V30 14853 O 1425.06 -0.138991 1.76453 0
M  V30 14854 C 1422.19 0.0356797 3.43281 0
M  V30 14855 C 1421.27 1.0303 4.11395 0
M  V30 14856 N 1421.66 2.2064 4.55139 0
M  V30 14857 C 1419.96 0.861544 4.376 0
M  V30 14858 C 1420.66 2.83665 5.07848 0
M  V30 14859 N 1419.64 2.11384 5.00817 0
M  V30 14860 H 1423.44 1.54217 2.50189 0
M  V30 14861 H 1420.96 0.936176 1.32701 0
M  V30 14862 H 1422.95 -0.281637 4.15948 0
M  V30 14863 H 1421.61 -0.855453 3.13228 0
M  V30 14864 H 1422.62 2.58409 4.48826 0
M  V30 14865 H 1419.3 0.0225171 4.17494 0
M  V30 14866 H 1420.69 3.83473 5.51723 0
M  V30 14867 N 1423.41 -1.329 0.847073 0
M  V30 14868 C 1424.34 -2.27903 0.243522 0
M  V30 14869 C 1425.36 -1.52101 -0.58043 0
M  V30 14870 O 1426.54 -1.73818 -0.406158 0
M  V30 14871 C 1423.64 -3.32107 -0.675118 0
M  V30 14872 C 1422.82 -4.37258 0.111305 0
M  V30 14873 C 1421.88 -5.21085 -0.731933 0
M  V30 14874 O 1420.9 -5.68951 -0.168176 0
M  V30 14875 N 1422.1 -5.43175 -2.04794 0
M  V30 14876 H 1424.87 -2.80335 1.05983 0
M  V30 14877 H 1422.43 -1.4568 0.706322 0
M  V30 14878 H 1424.42 -3.85093 -1.2444 0
M  V30 14879 H 1422.99 -2.79891 -1.39212 0
M  V30 14880 H 1422.21 -3.8466 0.861991 0
M  V30 14881 H 1423.5 -5.04608 0.651756 0
M  V30 14882 H 1422.9 -5.06002 -2.5294 0
M  V30 14883 H 1421.46 -5.99186 -2.56552 0
M  V30 14884 N 1424.89 -0.604284 -1.45555 0
M  V30 14885 C 1425.84 0.116491 -2.30506 0
M  V30 14886 C 1426.81 0.863214 -1.41908 0
M  V30 14887 O 1427.99 0.849606 -1.7084 0
M  V30 14888 C 1425.13 1.11009 -3.26758 0
M  V30 14889 C 1424.24 0.36458 -4.30459 0
M  V30 14890 C 1423.38 1.34761 -5.13822 0
M  V30 14891 C 1422.42 0.589724 -6.09253 0
M  V30 14892 N 1421.55 1.52187 -6.85408 0
M  V30 14893 H 1426.39 -0.61394 -2.91607 0
M  V30 14894 H 1423.93 -0.314561 -1.43697 0
M  V30 14895 H 1425.89 1.69925 -3.81027 0
M  V30 14896 H 1424.52 1.80797 -2.67418 0
M  V30 14897 H 1423.57 -0.340026 -3.78877 0
M  V30 14898 H 1424.88 -0.226906 -4.98284 0
M  V30 14899 H 1424.04 2.00893 -5.72474 0
M  V30 14900 H 1422.78 1.97302 -4.46008 0
M  V30 14901 H 1421.78 -0.0852486 -5.49734 0
M  V30 14902 H 1423.01 -0.0306001 -6.79093 0
M  V30 14903 H 1420.95 2.13499 -6.20286 0
M  V30 14904 H 1420.87 0.983737 -7.49572 0
M  V30 14905 H 1422.14 2.17287 -7.48603 0
M  V30 14906 N 1426.37 1.53816 -0.343257 0
M  V30 14907 C 1427.31 2.25011 0.513664 0
M  V30 14908 C 1428.28 1.24827 1.09578 0
M  V30 14909 O 1429.47 1.53558 1.13245 0
M  V30 14910 C 1426.61 3.02616 1.65885 0
M  V30 14911 C 1425.72 4.17653 1.10406 0
M  V30 14912 C 1424.86 4.82746 2.21653 0
M  V30 14913 C 1423.9 5.89853 1.63524 0
M  V30 14914 N 1423.03 6.48726 2.68512 0
M  V30 14915 H 1427.87 2.97832 -0.099997 0
M  V30 14916 H 1425.41 1.46973 -0.0611206 0
M  V30 14917 H 1427.37 3.45868 2.33304 0
M  V30 14918 H 1426 2.32092 2.2435 0
M  V30 14919 H 1425.05 3.79045 0.320819 0
M  V30 14920 H 1426.36 4.94691 0.638887 0
M  V30 14921 H 1425.52 5.29068 2.96938 0
M  V30 14922 H 1424.25 4.05131 2.71515 0
M  V30 14923 H 1423.26 5.42914 0.86745 0
M  V30 14924 H 1424.48 6.69375 1.14515 0
M  V30 14925 H 1422.43 5.73975 3.17629 0
M  V30 14926 H 1422.35 7.21236 2.26616 0
M  V30 14927 H 1423.62 6.99701 3.43567 0
M  V30 14928 N 1427.84 0.0718701 1.57436 0
M  V30 14929 C 1429.09 -0.596799 1.92669 0
M  V30 14930 C 1429.41 -1.70765 0.953876 0
M  V30 14931 O 1430.61 -2.43589 1.19903 0
M  V30 14932 C 1429.07 -1.11291 3.42261 0
M  V30 14933 C 1428.68 -0.0330681 4.47988 0
M  V30 14934 C 1430.42 -1.75564 3.86494 0
M  V30 14935 C 1428.33 -0.56323 5.88712 0
M  V30 14936 H 1427.26 -0.226695 0.719114 0
M  V30 14937 H 1429.91 0.144117 1.82933 0
M  V30 14938 H 1428.29 -1.9068 3.4707 0
M  V30 14939 H 1429.46 0.741501 4.54795 0
M  V30 14940 H 1427.78 0.513438 4.13222 0
M  V30 14941 H 1430.38 -2.16261 4.89014 0
M  V30 14942 H 1430.72 -2.61566 3.23865 0
M  V30 14943 H 1431.25 -1.02798 3.84288 0
M  V30 14944 H 1427.99 0.259632 6.54986 0
M  V30 14945 H 1427.51 -1.30532 5.85424 0
M  V30 14946 H 1429.19 -1.03961 6.38593 0
M  V30 14947 N 1429.32 -1.56304 -0.201686 0
M  V30 14948 C 1430.25 -1.97046 -1.25281 0
M  V30 14949 C 1431.23 -0.841458 -1.47829 0
M  V30 14950 O 1432.42 -1.10529 -1.59678 0
M  V30 14951 C 1429.55 -2.30429 -2.59845 0
M  V30 14952 C 1428.5 -3.46006 -2.5192 0
M  V30 14953 C 1427.83 -3.65047 -3.90697 0
M  V30 14954 C 1429.13 -4.80391 -2.04992 0
M  V30 14955 H 1430.82 -2.85099 -0.914272 0
M  V30 14956 H 1428.37 -1.37166 -0.438359 0
M  V30 14957 H 1430.32 -2.57525 -3.33555 0
M  V30 14958 H 1429.05 -1.39251 -2.95426 0
M  V30 14959 H 1427.7 -3.18991 -1.80667 0
M  V30 14960 H 1427.35 -2.71211 -4.2362 0
M  V30 14961 H 1427.05 -4.42796 -3.86271 0
M  V30 14962 H 1428.58 -3.94512 -4.66039 0
M  V30 14963 H 1429.99 -5.06561 -2.68456 0
M  V30 14964 H 1428.39 -5.61563 -2.11582 0
M  V30 14965 H 1429.46 -4.74416 -1.00288 0
M  V30 14966 N 1430.8 0.469154 -1.50455 0
M  V30 14967 C 1431.75 1.58765 -1.6999 0
M  V30 14968 C 1432.74 1.59673 -0.56577 0
M  V30 14969 O 1433.95 1.63799 -0.74632 0
M  V30 14970 H 1430.32 0.526868 -0.536577 0
M  V30 14971 H 1432.29 1.39451 -2.6381 0
M  V30 14972 C 1431.04 2.9669 -1.81302 0
M  V30 14973 H 1430.37 2.96711 -2.67961 0
M  V30 14974 H 1431.81 3.74403 -1.98994 0
M  V30 14975 C 1430.27 3.32127 -0.565086 0
M  V30 14976 O 1430.8 4.00616 0.294873 0
M  V30 14977 N 1429 2.8757 -0.418537 0
M  V30 14978 H 1428.55 2.32008 -1.11938 0
M  V30 14979 H 1428.51 3.11645 0.415276 0
M  V30 14980 N 1432.28 1.40065 0.722464 0
M  V30 14981 C 1433.5 1.4146 1.5167 0
M  V30 14982 C 1433.93 0.0142653 1.88095 0
M  V30 14983 O 1433.29 -0.975934 1.52791 0
M  V30 14984 C 1433.33 2.30531 2.77287 0
M  V30 14985 O 1432.44 1.74382 3.73717 0
M  V30 14986 H 1431.78 0.481194 0.457546 0
M  V30 14987 H 1434.31 1.84213 0.890331 0
M  V30 14988 H 1434.32 2.45479 3.25889 0
M  V30 14989 H 1432.99 3.32292 2.50109 0
M  V30 14990 H 1431.57 1.68743 3.32536 0
M  V30 14991 N 1433.76 -0.95397 1.25448 0
M  V30 14992 C 1435.01 -1.69305 1.09631 0
M  V30 14993 C 1435.32 -1.92213 -0.362413 0
M  V30 14994 O 1436.53 -2.63824 -0.641036 0
M  V30 14995 C 1434.98 -3.04805 1.91369 0
M  V30 14996 C 1434.59 -2.8969 3.41737 0
M  V30 14997 C 1436.33 -3.82491 1.84123 0
M  V30 14998 C 1434.24 -4.20584 4.15768 0
M  V30 14999 H 1433.17 -0.63494 0.406654 0
M  V30 15000 H 1435.82 -1.06195 1.49649 0
M  V30 15001 H 1434.2 -3.68822 1.44174 0
M  V30 15002 H 1435.38 -2.346 3.9661 0
M  V30 15003 H 1433.69 -2.25458 3.50082 0
M  V30 15004 H 1436.29 -4.79442 2.36727 0
M  V30 15005 H 1436.63 -4.08358 0.809265 0
M  V30 15006 H 1437.17 -3.25224 2.29072 0
M  V30 15007 H 1433.9 -3.99905 5.19381 0
M  V30 15008 H 1433.42 -4.75436 3.65678 0
M  V30 15009 H 1435.1 -4.89122 4.2352 0
M  V30 15010 N 1435.24 -1.07045 -1.15668 0
M  V30 15011 C 1436.17 -0.645945 -2.1991 0
M  V30 15012 C 1437.18 0.29995 -1.60013 0
M  V30 15013 O 1438.37 0.0897537 -1.78274 0
M  V30 15014 C 1435.47 0.0721917 -3.38823 0
M  V30 15015 C 1434.64 -0.889103 -4.28268 0
M  V30 15016 C 1433.7 -0.208829 -5.25785 0
M  V30 15017 O 1432.73 -0.848894 -5.62834 0
M  V30 15018 N 1433.93 1.04671 -5.70985 0
M  V30 15019 H 1436.69 -1.54266 -2.56948 0
M  V30 15020 H 1434.26 -0.954736 -1.30753 0
M  V30 15021 H 1436.25 0.537882 -4.0111 0
M  V30 15022 H 1434.82 0.870805 -3.00226 0
M  V30 15023 H 1434.04 -1.53399 -3.63129 0
M  V30 15024 H 1435.33 -1.54097 -4.84904 0
M  V30 15025 H 1434.72 1.58673 -5.42991 0
M  V30 15026 H 1433.28 1.45613 -6.35327 0
M  V30 15027 N 1436.71 1.32449 -0.85411 0
M  V30 15028 C 1437.96 1.97563 -0.4579 0
M  V30 15029 C 1438.29 1.67435 0.983835 0
M  V30 15030 O 1437.57 0.962292 1.69027 0
M  V30 15031 C 1437.85 3.53292 -0.69688 0
M  V30 15032 C 1437.7 3.93053 -2.18699 0
M  V30 15033 C 1439.02 4.39834 -0.152917 0
M  V30 15034 H 1436.14 0.717634 -0.167842 0
M  V30 15035 H 1438.78 1.5684 -1.07243 0
M  V30 15036 H 1436.93 3.88111 -0.173807 0
M  V30 15037 H 1438.61 3.68416 -2.7761 0
M  V30 15038 H 1436.85 3.42232 -2.6657 0
M  V30 15039 H 1437.52 5.01576 -2.3049 0
M  V30 15040 H 1440 4.11748 -0.600216 0
M  V30 15041 H 1438.87 5.47785 -0.349703 0
M  V30 15042 H 1439.13 4.31898 0.944276 0
M  V30 15043 N 1438.19 0.611994 1.45232 0
M  V30 15044 C 1439.12 -0.153214 2.27685 0
M  V30 15045 C 1440.1 -0.869474 1.37401 0
M  V30 15046 O 1441.29 -0.877453 1.66832 0
M  V30 15047 C 1438.41 -1.22224 3.15878 0
M  V30 15048 C 1437.46 -0.608624 4.22135 0
M  V30 15049 S 1438.29 0.586848 5.32275 0
M  V30 15050 C 1439.45 -0.482657 6.24036 0
M  V30 15051 H 1439.68 0.546316 2.92237 0
M  V30 15052 H 1437.21 0.399631 1.49139 0
M  V30 15053 H 1439.17 -1.83413 3.67246 0
M  V30 15054 H 1437.83 -1.89386 2.50583 0
M  V30 15055 H 1437.03 -1.41312 4.83784 0
M  V30 15056 H 1436.63 -0.0717689 3.73931 0
M  V30 15057 H 1438.92 -1.36053 6.63699 0
M  V30 15058 H 1439.86 0.0977803 7.08032 0
M  V30 15059 H 1440.27 -0.799965 5.58803 0
M  V30 15060 N 1439.67 -1.53632 0.351409 0
M  V30 15061 C 1441.09 -1.596 -0.000214515 0
M  V30 15062 C 1441.29 -1.36709 -1.4803 0
M  V30 15063 O 1440.34 -1.16524 -2.24006 0
M  V30 15064 C 1441.65 -2.97419 0.443013 0
M  V30 15065 C 1443.2 -3.10485 0.396025 0
M  V30 15066 C 1443.68 -4.50693 0.814843 0
M  V30 15067 N 1445.17 -4.56766 0.76934 0
M  V30 15068 C 1445.9 -5.63418 1.06526 0
M  V30 15069 N 1445.4 -6.77887 1.42974 0
M  V30 15070 N 1447.19 -5.53331 0.988986 0
M  V30 15071 H 1439.34 -1.66765 1.31542 0
M  V30 15072 H 1441.61 -0.781418 0.53674 0
M  V30 15073 H 1441.31 -3.19262 1.47529 0
M  V30 15074 H 1441.19 -3.76781 -0.177725 0
M  V30 15075 H 1443.57 -2.8836 -0.627092 0
M  V30 15076 H 1443.65 -2.33163 1.05207 0
M  V30 15077 H 1443.3 -4.73554 1.83601 0
M  V30 15078 H 1443.23 -5.26424 0.136193 0
M  V30 15079 H 1445.72 -3.74569 0.500623 0
M  V30 15080 H 1446.03 -7.55194 1.64018 0
M  V30 15081 H 1444.38 -6.79314 1.46827 0
M  V30 15082 H 1447.57 -4.62783 0.703526 0
M  V30 15083 H 1447.74 -6.36355 1.22295 0
M  V30 15084 N 1441.15 -0.0802183 -1.57396 0
M  V30 15085 C 1442.11 0.869437 -2.12069 0
M  V30 15086 C 1443.11 1.22079 -1.04658 0
M  V30 15087 O 1444.3 1.15267 -1.3061 0
M  V30 15088 C 1441.43 2.17016 -2.62901 0
M  V30 15089 H 1442.63 0.394952 -2.97288 0
M  V30 15090 H 1440.18 0.168597 -1.55388 0
M  V30 15091 H 1440.91 2.68983 -1.8116 0
M  V30 15092 H 1440.7 1.92808 -3.4142 0
M  V30 15093 H 1442.19 2.84982 -3.05246 0
M  V30 15094 N 1442.63 1.56409 0.193394 0
M  V30 15095 C 1443.56 1.91211 1.26377 0
M  V30 15096 C 1444.57 0.802944 1.41622 0
M  V30 15097 O 1445.76 1.08136 1.42017 0
M  V30 15098 C 1442.86 2.13039 2.63567 0
M  V30 15099 C 1442.03 3.44192 2.69909 0
M  V30 15100 C 1441.09 3.55111 3.88307 0
M  V30 15101 O 1440.12 4.2792 3.75331 0
M  V30 15102 N 1441.32 2.88325 5.03834 0
M  V30 15103 H 1444.08 2.83624 0.968383 0
M  V30 15104 H 1441.65 1.57297 0.383302 0
M  V30 15105 H 1443.64 2.1763 3.41202 0
M  V30 15106 H 1442.21 1.27116 2.85588 0
M  V30 15107 H 1441.43 3.51452 1.78535 0
M  V30 15108 H 1442.72 4.30536 2.71139 0
M  V30 15109 H 1442.11 2.29003 5.17276 0
M  V30 15110 H 1440.67 2.98542 5.7941 0
M  V30 15111 N 1444.1 -0.461169 1.50702 0
M  V30 15112 C 1445.04 -1.57702 1.64941 0
M  V30 15113 C 1446.01 -1.54808 0.497312 0
M  V30 15114 O 1447.2 -1.74286 0.718104 0
M  V30 15115 C 1444.33 -2.96285 1.64112 0
M  V30 15116 C 1443.37 -3.17296 2.85001 0
M  V30 15117 S 1444.2 -2.96134 4.46167 0
M  V30 15118 C 1445.36 -4.37042 4.48046 0
M  V30 15119 H 1445.59 -1.45386 2.59327 0
M  V30 15120 H 1443.13 -0.649209 1.40088 0
M  V30 15121 H 1445.08 -3.76178 1.64318 0
M  V30 15122 H 1443.75 -3.05983 0.709442 0
M  V30 15123 H 1442.94 -4.18561 2.80754 0
M  V30 15124 H 1442.54 -2.45191 2.82413 0
M  V30 15125 H 1444.83 -5.29846 4.2222 0
M  V30 15126 H 1445.78 -4.4633 5.49723 0
M  V30 15127 H 1446.18 -4.19584 3.77637 0
M  V30 15128 N 1445.58 -1.40446 -0.715026 0
M  V30 15129 C 1446.53 -1.40931 -1.85044 0
M  V30 15130 C 1447.52 -0.289745 -1.66904 0
M  V30 15131 O 1448.73 -0.460809 -1.74002 0
M  V30 15132 H 1445.1 -0.440534 -0.609454 0
M  V30 15133 H 1447.08 -2.36662 -1.81752 0
M  V30 15134 C 1445.82 -1.28933 -3.22911 0
M  V30 15135 H 1445.15 -2.14359 -3.37476 0
M  V30 15136 H 1446.59 -1.33331 -4.02491 0
M  V30 15137 C 1445.05 0.000379936 -3.369 0
M  V30 15138 O 1445.58 0.963093 -3.89984 0
M  V30 15139 N 1443.78 0.0700649 -2.90516 0
M  V30 15140 H 1443.33 -0.714088 -2.47505 0
M  V30 15141 H 1443.29 0.932457 -3.00254 0
M  V30 15142 N 1447.06 0.947303 -1.25952 0
M  V30 15143 C 1447.99 2.0487 -1.02767 0
M  V30 15144 C 1449 1.62797 0.00985984 0
M  V30 15145 O 1450.19 1.77018 -0.229527 0
M  V30 15146 C 1447.29 3.34682 -0.533048 0
M  V30 15147 C 1446.47 4.05555 -1.63841 0
M  V30 15148 C 1445.53 5.13638 -1.1429 0
M  V30 15149 O 1444.55 5.38682 -1.83876 0
M  V30 15150 N 1445.75 5.80499 0.0119377 0
M  V30 15151 H 1448.52 2.25327 -1.97605 0
M  V30 15152 H 1446.08 1.11636 -1.17256 0
M  V30 15153 H 1448.07 4.04273 -0.185868 0
M  V30 15154 H 1446.64 3.10941 0.321585 0
M  V30 15155 H 1445.86 3.29962 -2.15683 0
M  V30 15156 H 1447.15 4.49661 -2.38081 0
M  V30 15157 H 1446.55 5.62581 0.593212 0
M  V30 15158 H 1445.1 6.51109 0.30009 0
M  V30 15159 N 1448.54 1.07657 1.15099 0
M  V30 15160 C 1449.79 0.796589 1.85303 0
M  V30 15161 C 1450.1 -0.679887 1.83404 0
M  V30 15162 O 1451.31 -1.07475 2.49322 0
M  V30 15163 C 1449.76 1.37495 3.326 0
M  V30 15164 C 1449.37 2.88267 3.42938 0
M  V30 15165 C 1451.11 1.17313 4.07968 0
M  V30 15166 C 1449.02 3.39278 4.84401 0
M  V30 15167 H 1447.95 0.294316 0.694186 0
M  V30 15168 H 1450.6 1.29702 1.29806 0
M  V30 15169 H 1448.98 0.802248 3.87789 0
M  V30 15170 H 1450.16 3.51608 2.9784 0
M  V30 15171 H 1448.47 3.07275 2.81018 0
M  V30 15172 H 1451.07 1.52899 5.12373 0
M  V30 15173 H 1451.41 0.112387 4.16148 0
M  V30 15174 H 1451.95 1.71236 3.59059 0
M  V30 15175 H 1448.69 4.44892 4.81406 0
M  V30 15176 H 1448.21 2.80692 5.30068 0
M  V30 15177 H 1449.88 3.35416 5.53267 0
M  V30 15178 N 1450.02 -1.31994 0.861122 0
M  V30 15179 C 1450.95 -2.27632 0.267681 0
M  V30 15180 C 1451.96 -1.52709 -0.564265 0
M  V30 15181 O 1453.15 -1.74239 -0.3877 0
M  V30 15182 C 1450.25 -3.32805 -0.639856 0
M  V30 15183 C 1449.42 -4.37116 0.157676 0
M  V30 15184 C 1448.48 -5.21832 -0.676624 0
M  V30 15185 O 1447.51 -5.69098 -0.107822 0
M  V30 15186 N 1448.71 -5.45317 -1.99022 0
M  V30 15187 H 1451.48 -2.79195 1.0895 0
M  V30 15188 H 1449.04 -1.44923 0.721733 0
M  V30 15189 H 1451.03 -3.86391 -1.20348 0
M  V30 15190 H 1449.6 -2.81351 -1.36236 0
M  V30 15191 H 1448.82 -3.83724 0.902741 0
M  V30 15192 H 1450.11 -5.03889 0.70524 0
M  V30 15193 H 1449.5 -5.08656 -2.47558 0
M  V30 15194 H 1448.06 -6.01874 -2.50182 0
M  V30 15195 N 1451.49 -0.619688 -1.44906 0
M  V30 15196 C 1452.72 -0.124598 -2.07025 0
M  V30 15197 C 1453.14 1.18698 -1.45919 0
M  V30 15198 O 1452.5 1.72552 -0.556366 0
M  V30 15199 C 1452.55 -0.0112238 -3.60598 0
M  V30 15200 O 1451.65 1.03582 -3.9918 0
M  V30 15201 H 1451 -0.0795631 -0.659216 0
M  V30 15202 H 1453.53 -0.853127 -1.85965 0
M  V30 15203 H 1453.54 0.183079 -4.07589 0
M  V30 15204 H 1452.21 -0.968849 -4.04458 0
M  V30 15205 H 1450.79 0.817008 -3.6384 0
M  V30 15206 N 1452.97 1.53444 -0.359552 0
M  V30 15207 C 1454.22 2.01464 0.232366 0
M  V30 15208 C 1454.55 1.24656 1.48911 0
M  V30 15209 O 1453.83 0.338574 1.9153 0
M  V30 15210 C 1454.11 3.56172 0.530403 0
M  V30 15211 C 1453.96 4.43678 -0.739556 0
M  V30 15212 C 1455.28 4.19412 1.33347 0
M  V30 15213 H 1452.4 0.732314 0.0829802 0
M  V30 15214 H 1455.04 1.83752 -0.483253 0
M  V30 15215 H 1453.19 3.71396 1.14004 0
M  V30 15216 H 1454.86 4.40263 -1.37719 0
M  V30 15217 H 1453.11 4.11892 -1.36117 0
M  V30 15218 H 1453.78 5.49856 -0.486062 0
M  V30 15219 H 1456.25 4.07984 0.817816 0
M  V30 15220 H 1455.13 5.277 1.51075 0
M  V30 15221 H 1455.39 3.7508 2.34024 0
M  V30 15222 N 1454.45 0.0885642 1.57351 0
M  V30 15223 C 1455.36 -0.887092 2.17182 0
M  V30 15224 C 1456.38 -1.31498 1.13949 0
M  V30 15225 O 1457.55 -1.38424 1.4629 0
M  V30 15226 C 1454.62 -2.13053 2.73513 0
M  V30 15227 C 1453.68 -1.75747 3.91678 0
M  V30 15228 C 1452.91 -2.94163 4.45313 0
M  V30 15229 O 1453.13 -4.08693 3.97903 0
M  V30 15230 O 1452.07 -2.73008 5.36424 0
M  V30 15231 H 1455.89 -0.408073 3.00946 0
M  V30 15232 H 1453.48 -0.135431 1.48785 0
M  V30 15233 H 1455.36 -2.85937 3.09545 0
M  V30 15234 H 1454.04 -2.6002 1.92798 0
M  V30 15235 H 1452.94 -1.00064 3.60469 0
M  V30 15236 H 1454.28 -1.33549 4.73736 0
M  V30 15237 N 1455.93 -1.56509 -0.185096 0
M  V30 15238 C 1457.18 -1.80848 -0.902139 0
M  V30 15239 C 1457.5 -0.663295 -1.83372 0
M  V30 15240 O 1456.77 0.317754 -1.93306 0
M  V30 15241 H 1455.35 -0.667108 -0.336119 0
M  V30 15242 H 1458.01 -1.93989 -0.188211 0
M  V30 15243 H 1457.11 -2.74383 -1.48729 0
M  V30 15244 N 1457.41 0.45317 -1.50944 0
M  V30 15245 C 1458.34 1.56678 -1.67287 0
M  V30 15246 C 1459.35 1.53089 -0.553853 0
M  V30 15247 O 1460.54 1.58152 -0.827653 0
M  V30 15248 C 1457.64 2.95585 -1.65779 0
M  V30 15249 C 1456.81 3.2385 -2.94007 0
M  V30 15250 C 1455.87 4.42401 -2.84899 0
M  V30 15251 O 1454.9 4.4183 -3.58853 0
M  V30 15252 N 1456.1 5.4508 -1.99671 0
M  V30 15253 H 1458.87 1.43069 -2.63347 0
M  V30 15254 H 1456.43 0.641875 -1.48632 0
M  V30 15255 H 1458.42 3.7289 -1.57275 0
M  V30 15256 H 1456.99 3.02872 -0.773791 0
M  V30 15257 H 1456.21 2.34991 -3.16501 0
M  V30 15258 H 1457.5 3.39554 -3.7892 0
M  V30 15259 H 1456.89 5.48374 -1.38933 0
M  V30 15260 H 1455.45 6.21298 -1.97057 0
M  V30 15261 N 1458.88 1.40823 0.707568 0
M  V30 15262 C 1460.3 1.35249 1.28704 0
M  V30 15263 C 1460.65 0.0298026 1.96177 0
M  V30 15264 O 1459.77 -0.872126 1.98048 0
M  V30 15265 C 1460.37 2.44965 2.34046 0
M  V30 15266 C 1458.93 2.42826 2.87598 0
M  V30 15267 C 1458.07 2.25429 1.61483 0
M  V30 15268 H 1461.02 1.50513 0.503141 0
M  V30 15269 H 1461.04 2.13334 3.1507 0
M  V30 15270 H 1460.56 3.41219 1.84908 0
M  V30 15271 H 1458.66 1.50294 3.40944 0
M  V30 15272 H 1458.77 3.38704 3.38845 0
M  V30 15273 H 1457.13 1.73089 1.86848 0
M  V30 15274 H 1457.92 3.23693 1.14359 0
M  V30 15275 N 1460.36 -0.94061 1.26453 0
M  V30 15276 C 1461.29 -2.05667 1.10559 0
M  V30 15277 C 1462.27 -1.70097 0.0106258 0
M  V30 15278 O 1463.46 -1.93338 0.182756 0
M  V30 15279 C 1460.59 -3.3936 0.7384 0
M  V30 15280 C 1459.54 -3.88993 1.78517 0
M  V30 15281 C 1458.87 -5.19343 1.27228 0
M  V30 15282 C 1460.17 -4.13812 3.1868 0
M  V30 15283 H 1461.86 -2.19221 2.03918 0
M  V30 15284 H 1459.41 -1.05339 0.98182 0
M  V30 15285 H 1461.36 -4.16902 0.61409 0
M  V30 15286 H 1460.09 -3.25783 -0.230887 0
M  V30 15287 H 1458.74 -3.13633 1.89816 0
M  V30 15288 H 1458.39 -5.02147 0.292816 0
M  V30 15289 H 1458.09 -5.53521 1.97201 0
M  V30 15290 H 1459.62 -5.99468 1.16065 0
M  V30 15291 H 1461.03 -4.81966 3.10455 0
M  V30 15292 H 1459.43 -4.59273 3.86249 0
M  V30 15293 H 1460.5 -3.19571 3.64695 0
M  V30 15294 N 1461.84 -1.08266 -1.14527 0
M  V30 15295 C 1462.8 -0.715117 -2.17758 0
M  V30 15296 C 1463.8 0.24935 -1.58855 0
M  V30 15297 O 1464.99 0.0290846 -1.74176 0
M  V30 15298 C 1462.13 -0.055575 -3.40855 0
M  V30 15299 H 1463.32 -1.62921 -2.51787 0
M  V30 15300 H 1460.87 -0.880346 -1.2915 0
M  V30 15301 H 1461.61 0.870312 -3.12404 0
M  V30 15302 H 1461.39 -0.749382 -3.84872 0
M  V30 15303 H 1462.88 0.186592 -4.17183 0
M  V30 15304 N 1463.32 1.31536 -0.86811 0
M  V30 15305 C 1464.74 1.49461 -0.559778 0
M  V30 15306 C 1464.94 1.79957 0.906525 0
M  V30 15307 O 1463.99 1.87711 1.68881 0
M  V30 15308 C 1465.3 2.62967 -1.45839 0
M  V30 15309 C 1466.85 2.76851 -1.46023 0
M  V30 15310 C 1467.33 3.93451 -2.34436 0
M  V30 15311 N 1468.82 4.00735 -2.32306 0
M  V30 15312 C 1469.55 4.90223 -2.97437 0
M  V30 15313 N 1469.05 5.84626 -3.71731 0
M  V30 15314 N 1470.84 4.83454 -2.86755 0
M  V30 15315 H 1462.99 1.1001 -1.81691 0
M  V30 15316 H 1465.26 0.543418 -0.776789 0
M  V30 15317 H 1464.96 2.47203 -2.50168 0
M  V30 15318 H 1464.84 3.59063 -1.15556 0
M  V30 15319 H 1467.22 2.9203 -0.424527 0
M  V30 15320 H 1467.3 1.81427 -1.80327 0
M  V30 15321 H 1466.95 3.79029 -3.38082 0
M  V30 15322 H 1466.88 4.88179 -1.97457 0
M  V30 15323 H 1469.37 3.33191 -1.78303 0
M  V30 15324 H 1469.68 6.49635 -4.18562 0
M  V30 15325 H 1468.03 5.84611 -3.75839 0
M  V30 15326 H 1471.22 4.08678 -2.28254 0
M  V30 15327 H 1471.39 5.52991 -3.37795 0
M  V30 15328 N 1464.8 0.627364 1.44575 0
M  V30 15329 C 1466.21 0.292662 1.56894 0
M  V30 15330 C 1466.41 -1.20429 1.61552 0
M  V30 15331 O 1465.47 -1.98819 1.55651 0
M  V30 15332 C 1466.78 0.981267 2.84239 0
M  V30 15333 C 1468.33 0.959053 2.97945 0
M  V30 15334 C 1468.81 1.62805 4.28087 0
M  V30 15335 N 1470.3 1.59446 4.34892 0
M  V30 15336 C 1471.03 2.08107 5.34302 0
M  V30 15337 N 1470.53 2.64942 6.40139 0
M  V30 15338 N 1472.32 1.98758 5.25787 0
M  V30 15339 H 1464.47 1.5991 1.39795 0
M  V30 15340 H 1466.73 0.671019 0.669655 0
M  V30 15341 H 1466.44 2.0361 2.86768 0
M  V30 15342 H 1466.31 0.516703 3.73644 0
M  V30 15343 H 1468.7 -0.0872902 2.94971 0
M  V30 15344 H 1468.78 1.46207 2.09898 0
M  V30 15345 H 1468.43 2.67382 4.31821 0
M  V30 15346 H 1468.36 1.09989 5.14985 0
M  V30 15347 H 1470.85 1.17947 3.59022 0
M  V30 15348 H 1471.16 2.99814 7.12272 0
M  V30 15349 H 1469.51 2.68991 6.40835 0
M  V30 15350 H 1472.7 1.54081 4.42014 0
M  V30 15351 H 1472.87 2.36992 6.03107 0
M  V30 15352 N 1466.28 -1.53251 0.367684 0
M  V30 15353 C 1467.69 -1.86369 -0.111073 0
M  V30 15354 C 1468.04 -1.2882 -1.47986 0
M  V30 15355 O 1467.16 -0.611058 -2.07593 0
M  V30 15356 C 1467.76 -3.38159 -0.208325 0
M  V30 15357 C 1466.32 -3.71067 -0.63134 0
M  V30 15358 C 1465.46 -2.76425 0.220144 0
M  V30 15359 H 1468.41 -1.47469 0.586398 0
M  V30 15360 H 1468.44 -3.66252 -1.03151 0
M  V30 15361 H 1467.95 -3.80015 0.788038 0
M  V30 15362 H 1466.05 -3.34769 -1.63586 0
M  V30 15363 H 1466.16 -4.77389 -0.404491 0
M  V30 15364 H 1464.53 -2.5279 -0.311298 0
M  V30 15365 H 1465.31 -3.21115 1.21409 0
M  V30 15366 N 1467.75 -0.0969077 -1.57302 0
M  V30 15367 C 1469.17 0.25974 -1.57472 0
M  V30 15368 C 1469.37 1.6829 -1.10818 0
M  V30 15369 O 1468.43 2.39972 -0.785466 0
M  V30 15370 C 1469.74 0.0465211 -3.00664 0
M  V30 15371 C 1471.29 0.114131 -3.12792 0
M  V30 15372 C 1471.76 -0.0711175 -4.57945 0
M  V30 15373 N 1473.25 -0.0163438 -4.63197 0
M  V30 15374 C 1473.99 -0.1349 -5.73241 0
M  V30 15375 N 1473.48 -0.308391 -6.92113 0
M  V30 15376 N 1475.28 -0.0760411 -5.62049 0
M  V30 15377 H 1467.43 -1.02673 -1.85935 0
M  V30 15378 H 1469.69 -0.402528 -0.858298 0
M  V30 15379 H 1469.4 -0.936496 -3.39002 0
M  V30 15380 H 1469.27 0.78805 -3.68876 0
M  V30 15381 H 1471.66 1.08765 -2.74325 0
M  V30 15382 H 1471.74 -0.658918 -2.47168 0
M  V30 15383 H 1471.38 -1.04152 -4.97106 0
M  V30 15384 H 1471.31 0.721647 -5.21632 0
M  V30 15385 H 1473.8 0.115134 -3.77725 0
M  V30 15386 H 1474.12 -0.390318 -7.71814 0
M  V30 15387 H 1472.46 -0.344082 -6.94148 0
M  V30 15388 H 1475.65 0.0583778 -4.68064 0
M  V30 15389 H 1475.83 -0.171884 -6.47772 0
M  V30 15390 N 1469.23 1.56605 0.176793 0
M  V30 15391 C 1470.19 1.95109 1.20271 0
M  V30 15392 C 1471.19 0.83414 1.37473 0
M  V30 15393 O 1472.38 1.10128 1.34972 0
M  V30 15394 C 1469.52 2.24112 2.56878 0
M  V30 15395 H 1470.71 2.86909 0.87312 0
M  V30 15396 H 1468.26 1.50578 0.419033 0
M  V30 15397 H 1469 1.35009 2.94861 0
M  V30 15398 H 1468.78 3.05523 2.45761 0
M  V30 15399 H 1470.27 2.54842 3.30825 0
M  V30 15400 N 1470.71 -0.445159 1.51182 0
M  V30 15401 C 1471.94 -1.21787 1.67259 0
M  V30 15402 C 1472.35 -1.85206 0.366641 0
M  V30 15403 O 1471.71 -1.70376 -0.654095 0
M  V30 15404 C 1471.76 -2.30765 2.78262 0
M  V30 15405 O 1471.48 -1.69942 4.03796 0
M  V30 15406 C 1472.98 -3.21186 3.05539 0
M  V30 15407 H 1470.2 -0.367364 0.561502 0
M  V30 15408 H 1472.75 -0.528415 1.97555 0
M  V30 15409 H 1470.9 -2.9544 2.50587 0
M  V30 15410 H 1471.32 -2.41905 4.65384 0
M  V30 15411 H 1472.79 -3.93805 3.8681 0
M  V30 15412 H 1473.27 -3.81487 2.17634 0
M  V30 15413 H 1473.87 -2.62221 3.34844 0
M  V30 15414 N 1472.19 -1.41197 -0.700089 0
M  V30 15415 C 1473.44 -1.40034 -1.45722 0
M  V30 15416 C 1473.76 -0.00876281 -1.94998 0
M  V30 15417 O 1473.03 0.948647 -1.71399 0
M  V30 15418 H 1471.61 -0.515433 -0.540683 0
M  V30 15419 H 1474.27 -1.76394 -0.828926 0
M  V30 15420 H 1473.36 -2.08477 -2.32258 0
M  V30 15421 N 1473.67 0.933891 -1.2695 0
M  V30 15422 C 1475.08 1.20873 -1.0422 0
M  V30 15423 C 1475.28 2.00205 0.228112 0
M  V30 15424 O 1474.34 2.34539 0.935284 0
M  V30 15425 C 1475.65 1.9629 -2.27795 0
M  V30 15426 C 1477.2 2.09254 -2.3277 0
M  V30 15427 C 1477.67 2.88075 -3.56057 0
M  V30 15428 N 1479.16 2.95646 -3.56578 0
M  V30 15429 C 1479.9 3.57082 -4.48642 0
M  V30 15430 N 1479.4 4.1996 -5.51004 0
M  V30 15431 N 1481.19 3.54425 -4.36279 0
M  V30 15432 H 1473.34 0.403735 -2.08528 0
M  V30 15433 H 1475.6 0.241189 -0.916805 0
M  V30 15434 H 1475.31 1.45412 -3.20231 0
M  V30 15435 H 1475.18 2.9693 -2.32621 0
M  V30 15436 H 1477.57 2.5932 -1.40844 0
M  V30 15437 H 1477.65 1.07854 -2.31951 0
M  V30 15438 H 1477.29 2.38693 -4.48317 0
M  V30 15439 H 1477.22 3.89746 -3.54126 0
M  V30 15440 H 1479.72 2.50951 -2.82545 0
M  V30 15441 H 1480.03 4.64758 -6.1743 0
M  V30 15442 H 1478.37 4.18525 -5.54853 0
M  V30 15443 H 1481.56 3.045 -3.55524 0
M  V30 15444 H 1481.74 4.02016 -5.0822 0
M  V30 15445 N 1475.14 1.08871 1.13951 0
M  V30 15446 C 1476.37 0.842913 1.88951 0
M  V30 15447 C 1476.79 -0.605348 1.78832 0
M  V30 15448 O 1476.14 -1.41631 1.15095 0
M  V30 15449 C 1476.19 1.26198 3.38757 0
M  V30 15450 O 1475.92 2.65344 3.48603 0
M  V30 15451 C 1477.42 1.04773 4.30741 0
M  V30 15452 H 1474.64 0.303651 0.598362 0
M  V30 15453 H 1477.18 1.44922 1.44284 0
M  V30 15454 H 1475.34 0.699682 3.81029 0
M  V30 15455 H 1475.75 2.82863 4.41688 0
M  V30 15456 H 1477.22 1.39029 5.34205 0
M  V30 15457 H 1477.7 -0.0149046 4.39197 0
M  V30 15458 H 1478.31 1.5957 3.9423 0
M  V30 15459 N 1476.62 -1.31073 0.875073 0
M  V30 15460 C 1477.57 -2.28389 0.332718 0
M  V30 15461 C 1478.54 -1.55954 -0.571639 0
M  V30 15462 O 1479.72 -1.84073 -0.502185 0
M  V30 15463 C 1476.86 -3.42083 -0.455364 0
M  V30 15464 C 1475.98 -4.29358 0.477088 0
M  V30 15465 C 1475.11 -5.30201 -0.325619 0
M  V30 15466 C 1474.15 -6.09123 0.602935 0
M  V30 15467 N 1473.29 -7.01909 -0.163836 0
M  V30 15468 H 1478.13 -2.74166 1.16777 0
M  V30 15469 H 1475.66 -1.3487 0.587248 0
M  V30 15470 H 1477.62 -4.06746 -0.928104 0
M  V30 15471 H 1476.25 -2.97402 -1.25507 0
M  V30 15472 H 1475.3 -3.65091 1.06829 0
M  V30 15473 H 1476.62 -4.84425 1.18887 0
M  V30 15474 H 1475.77 -6.00565 -0.860647 0
M  V30 15475 H 1474.51 -4.75802 -1.07067 0
M  V30 15476 H 1473.51 -5.37645 1.14968 0
M  V30 15477 H 1474.74 -6.65609 1.34692 0
M  V30 15478 H 1472.69 -6.49913 -0.891604 0
M  V30 15479 H 1472.6 -7.5442 0.48851 0
M  V30 15480 H 1473.87 -7.76529 -0.679929 0
M  V30 15481 N 1478.1 -0.635022 -1.4424 0
M  V30 15482 C 1479.52 -0.300978 -1.56736 0
M  V30 15483 C 1479.72 1.19571 -1.62188 0
M  V30 15484 O 1478.77 1.97991 -1.56703 0
M  V30 15485 C 1480.09 -0.996327 -2.83714 0
M  V30 15486 C 1481.63 -0.97484 -2.97432 0
M  V30 15487 C 1482.11 -1.65073 -4.27218 0
M  V30 15488 N 1483.6 -1.6175 -4.3404 0
M  V30 15489 C 1484.33 -2.10938 -5.33191 0
M  V30 15490 N 1483.83 -2.68333 -6.38725 0
M  V30 15491 N 1485.62 -2.01544 -5.24725 0
M  V30 15492 H 1477.77 -1.60649 -1.38945 0
M  V30 15493 H 1480.04 -0.674561 -0.666087 0
M  V30 15494 H 1479.74 -2.05128 -2.85684 0
M  V30 15495 H 1479.62 -0.536511 -3.73365 0
M  V30 15496 H 1482 0.071646 -2.95013 0
M  V30 15497 H 1482.09 -1.47318 -2.0912 0
M  V30 15498 H 1481.73 -2.69669 -4.30397 0
M  V30 15499 H 1481.66 -1.12719 -5.14395 0
M  V30 15500 H 1484.15 -1.1985 -3.58392 0
M  V30 15501 H 1484.46 -3.03588 -7.10672 0
M  V30 15502 H 1482.81 -2.72385 -6.39399 0
M  V30 15503 H 1486 -1.56423 -4.41191 0
M  V30 15504 H 1486.17 -2.40187 -6.01842 0
M  V30 15505 N 1479.58 1.53054 -0.375806 0
M  V30 15506 C 1480.82 2.03312 0.210617 0
M  V30 15507 C 1481.18 1.25671 1.45158 0
M  V30 15508 O 1482.38 1.65986 2.11428 0
M  V30 15509 C 1480.65 3.54089 0.485362 0
M  V30 15510 S 1482.21 4.262 1.044 0
M  V30 15511 H 1479.03 0.708419 0.0605214 0
M  V30 15512 H 1481.63 1.88429 -0.521037 0
M  V30 15513 H 1480.34 4.08192 -0.42513 0
M  V30 15514 H 1479.87 3.73153 1.24581 0
M  V30 15515 H 1481.88 4.38227 2.32747 0
M  V30 15516 N 1481.06 0.105248 1.57248 0
M  V30 15517 C 1481.99 -0.880221 2.11624 0
M  V30 15518 C 1483 -1.23924 1.05578 0
M  V30 15519 O 1484.19 -1.19059 1.32994 0
M  V30 15520 C 1481.29 -2.18628 2.5895 0
M  V30 15521 C 1480.46 -2.00105 3.88943 0
M  V30 15522 C 1479.52 -3.14315 4.2201 0
M  V30 15523 O 1478.55 -2.87832 4.91061 0
M  V30 15524 N 1479.75 -4.4037 3.78226 0
M  V30 15525 H 1482.52 -0.415742 2.96802 0
M  V30 15526 H 1480.08 -0.0795714 1.61704 0
M  V30 15527 H 1482.07 -2.94002 2.7811 0
M  V30 15528 H 1480.64 -2.56467 1.78727 0
M  V30 15529 H 1479.86 -1.09003 3.7883 0
M  V30 15530 H 1481.15 -1.85018 4.73968 0
M  V30 15531 H 1480.54 -4.64765 3.22506 0
M  V30 15532 H 1479.1 -5.1266 4.02521 0
M  V30 15533 N 1482.53 -1.56697 -0.168486 0
M  V30 15534 C 1483.95 -1.71808 -0.730674 0
M  V30 15535 C 1484.3 -0.716224 -1.8266 0
M  V30 15536 O 1483.42 0.121803 -2.16057 0
M  V30 15537 C 1484.02 -3.1151 -1.33217 0
M  V30 15538 C 1482.58 -3.28297 -1.84115 0
M  V30 15539 C 1481.72 -2.67757 -0.72122 0
M  V30 15540 H 1484.67 -1.58598 0.0569421 0
M  V30 15541 H 1484.69 -3.10318 -2.20189 0
M  V30 15542 H 1484.21 -3.84404 -0.53431 0
M  V30 15543 H 1482.31 -2.60364 -2.66536 0
M  V30 15544 H 1482.42 -4.3606 -1.98464 0
M  V30 15545 H 1480.78 -2.27644 -1.14239 0
M  V30 15546 H 1481.57 -3.43239 0.0648388 0
M  V30 15547 N 1484.01 0.437135 -1.51416 0
M  V30 15548 C 1485.43 0.773631 -1.39596 0
M  V30 15549 C 1485.63 1.95737 -0.478463 0
M  V30 15550 O 1484.68 2.52413 0.0662971 0
M  V30 15551 C 1486 1.05381 -2.8163 0
M  V30 15552 C 1487.55 1.15824 -2.90782 0
M  V30 15553 C 1488.02 1.47135 -4.33722 0
M  V30 15554 N 1489.51 1.54059 -4.3683 0
M  V30 15555 C 1490.25 1.79858 -5.44462 0
M  V30 15556 N 1489.74 2.03449 -6.62254 0
M  V30 15557 N 1491.54 1.81642 -5.31942 0
M  V30 15558 H 1483.69 -0.342468 -2.09621 0
M  V30 15559 H 1485.95 -0.0908158 -0.94364 0
M  V30 15560 H 1485.66 0.256708 -3.50762 0
M  V30 15561 H 1485.53 1.98139 -3.20968 0
M  V30 15562 H 1487.92 1.94597 -2.21847 0
M  V30 15563 H 1488 0.209663 -2.54939 0
M  V30 15564 H 1487.64 0.688897 -5.03206 0
M  V30 15565 H 1487.57 2.43199 -4.67078 0
M  V30 15566 H 1490.06 1.3773 -3.51907 0
M  V30 15567 H 1490.38 2.22506 -7.40075 0
M  V30 15568 H 1488.72 2.00771 -6.65369 0
M  V30 15569 H 1491.91 1.62731 -4.38903 0
M  V30 15570 H 1492.08 2.01411 -6.15904 0
M  V30 15571 N 1485.49 1.41566 0.692592 0
M  V30 15572 C 1486.77 1.31572 1.44735 0
M  V30 15573 C 1487.15 -0.0553081 2.11028 0
M  V30 15574 O 1486.5 -1.06974 2.01913 0
M  V30 15575 C 1486.71 2.47125 2.46435 0
M  V30 15576 C 1488.05 2.88427 3.11601 0
M  V30 15577 O 1489.08 2.46886 2.5676 0
M  V30 15578 O 1487.94 3.6027 4.10935 0
M  V30 15579 H 1485.03 0.517949 0.644715 0
M  V30 15580 H 1487.58 1.53536 0.722818 0
M  V30 15581 H 1486.35 3.38601 1.96124 0
M  V30 15582 H 1485.97 2.27054 3.26393 0
M  V30 15583 N 1486.97 -0.927146 1.27443 0
M  V30 15584 C 1488.21 -1.67738 1.13982 0
M  V30 15585 C 1488.55 -1.91653 -0.313511 0
M  V30 15586 O 1487.82 -1.50729 -1.22926 0
M  V30 15587 C 1488.11 -3.04357 1.92454 0
M  V30 15588 C 1487.96 -2.8768 3.45775 0
M  V30 15589 C 1489.28 -4.04696 1.72944 0
M  V30 15590 H 1486.4 -0.608749 0.415444 0
M  V30 15591 H 1489.04 -1.07587 1.56605 0
M  V30 15592 H 1487.19 -3.55702 1.56232 0
M  V30 15593 H 1488.86 -2.43449 3.9183 0
M  V30 15594 H 1487.1 -2.23011 3.72087 0
M  V30 15595 H 1487.77 -3.8464 3.95924 0
M  V30 15596 H 1490.25 -3.62364 2.04528 0
M  V30 15597 H 1489.13 -4.98276 2.30243 0
M  V30 15598 H 1489.39 -4.36878 0.677505 0
M  V30 15599 N 1488.45 -1.09474 -1.13372 0
M  V30 15600 C 1489.67 -0.852921 -1.88502 0
M  V30 15601 C 1490.09 0.595855 -1.79151 0
M  V30 15602 O 1489.45 1.41019 -1.15845 0
M  V30 15603 C 1489.5 -1.27993 -3.38083 0
M  V30 15604 O 1489.22 -2.67189 -3.47191 0
M  V30 15605 C 1490.72 -1.07056 -4.30179 0
M  V30 15606 H 1487.94 -0.30682 -0.596743 0
M  V30 15607 H 1490.48 -1.45685 -1.43513 0
M  V30 15608 H 1488.64 -0.719879 -3.80653 0
M  V30 15609 H 1489.05 -2.85202 -4.40182 0
M  V30 15610 H 1490.53 -1.4186 -5.3346 0
M  V30 15611 H 1491 -0.00838732 -4.39199 0
M  V30 15612 H 1491.61 -1.61659 -3.93378 0
M  V30 15613 N 1489.92 1.30607 -0.882012 0
M  V30 15614 C 1490.87 2.2821 -0.344826 0
M  V30 15615 C 1491.84 1.56254 0.563361 0
M  V30 15616 O 1493.03 1.84336 0.492416 0
M  V30 15617 C 1490.17 3.42319 0.437216 0
M  V30 15618 C 1489.28 4.29098 -0.499851 0
M  V30 15619 C 1488.41 5.30366 0.297497 0
M  V30 15620 C 1487.45 6.08795 -0.63523 0
M  V30 15621 N 1486.59 7.01986 0.12661 0
M  V30 15622 H 1491.43 2.73543 -1.18229 0
M  V30 15623 H 1488.97 1.34556 -0.594392 0
M  V30 15624 H 1490.93 4.07232 0.906521 0
M  V30 15625 H 1489.56 2.98063 1.23928 0
M  V30 15626 H 1488.61 3.6452 -1.08764 0
M  V30 15627 H 1489.92 4.83787 -1.21454 0
M  V30 15628 H 1489.07 6.01013 0.828786 0
M  V30 15629 H 1487.81 4.76364 1.04542 0
M  V30 15630 H 1486.82 5.37028 -1.17817 0
M  V30 15631 H 1488.04 6.64885 -1.3822 0
M  V30 15632 H 1485.99 6.50376 0.857125 0
M  V30 15633 H 1485.91 7.5415 -0.528512 0
M  V30 15634 H 1487.17 7.76879 0.638738 0
M  V30 15635 N 1491.4 0.642663 1.43901 0
M  V30 15636 C 1492.35 -0.0553351 2.30734 0
M  V30 15637 C 1493.32 -0.825286 1.44147 0
M  V30 15638 O 1494.5 -0.804012 1.73033 0
M  V30 15639 C 1491.64 -1.02306 3.29587 0
M  V30 15640 C 1490.76 -0.250323 4.31274 0
M  V30 15641 C 1489.89 -1.2109 5.17214 0
M  V30 15642 C 1488.93 -0.427984 6.10602 0
M  V30 15643 N 1488.07 -1.33961 6.89202 0
M  V30 15644 H 1492.91 0.691038 2.89877 0
M  V30 15645 H 1490.45 0.352549 1.42813 0
M  V30 15646 H 1492.4 -1.59763 3.85398 0
M  V30 15647 H 1491.03 -1.73643 2.72117 0
M  V30 15648 H 1490.09 0.440359 3.77843 0
M  V30 15649 H 1491.4 0.358937 4.97507 0
M  V30 15650 H 1490.55 -1.85644 5.776 0
M  V30 15651 H 1489.29 -1.85408 4.51082 0
M  V30 15652 H 1488.3 0.230971 5.49315 0
M  V30 15653 H 1489.52 0.210639 6.78773 0
M  V30 15654 H 1487.47 -1.96978 6.25728 0
M  V30 15655 H 1487.38 -0.784655 7.51917 0
M  V30 15656 H 1488.65 -1.97363 7.54101 0
M  V30 15657 N 1492.88 -1.52852 0.383918 0
M  V30 15658 C 1494.11 -2.05929 -0.200216 0
M  V30 15659 C 1494.52 -1.25606 -1.40956 0
M  V30 15660 O 1493.88 -0.301336 -1.79995 0
M  V30 15661 C 1493.93 -3.56887 -0.575655 0
M  V30 15662 O 1493.65 -4.34168 0.58564 0
M  V30 15663 C 1495.15 -4.2629 -1.21623 0
M  V30 15664 H 1492.37 -0.670261 -0.0314727 0
M  V30 15665 H 1494.92 -1.97032 0.547591 0
M  V30 15666 H 1493.07 -3.65875 -1.27336 0
M  V30 15667 H 1493.49 -5.23761 0.278267 0
M  V30 15668 H 1494.96 -5.33174 -1.42933 0
M  V30 15669 H 1495.44 -3.81163 -2.182 0
M  V30 15670 H 1496.04 -4.21605 -0.559435 0
M  V30 15671 N 1494.36 -0.113586 -1.5719 0
M  V30 15672 C 1495.6 0.548872 -1.96893 0
M  V30 15673 C 1495.96 1.64191 -0.99525 0
M  V30 15674 O 1497.16 2.36289 -1.28145 0
M  V30 15675 C 1495.44 1.07279 -3.40919 0
M  V30 15676 S 1496.99 1.74453 -4.02631 0
M  V30 15677 H 1493.81 0.178565 -0.688212 0
M  V30 15678 H 1496.41 -0.197382 -1.94501 0
M  V30 15679 H 1495.12 0.266019 -4.09537 0
M  V30 15680 H 1494.65 1.85444 -3.46949 0
M  V30 15681 H 1496.66 3.02998 -3.92946 0
M  V30 15682 N 1495.84 1.56784 0.160173 0
M  V30 15683 C 1496.79 1.98199 1.21737 0
M  V30 15684 C 1497.78 0.872381 1.4521 0
M  V30 15685 O 1498.99 1.05753 1.45658 0
M  V30 15686 H 1495.36 0.630742 0.409474 0
M  V30 15687 H 1497.33 2.86295 0.841289 0
M  V30 15688 C 1496.08 2.36748 2.54648 0
M  V30 15689 H 1495.4 3.21676 2.37413 0
M  V30 15690 H 1496.84 2.69561 3.27281 0
M  V30 15691 C 1495.3 1.2151 3.14224 0
M  V30 15692 O 1495.83 0.508739 3.98465 0
M  V30 15693 N 1494.04 0.982766 2.73478 0
M  V30 15694 H 1493.59 1.55893 2.05073 0
M  V30 15695 H 1493.54 0.213589 3.13674 0
M  V30 15696 N 1497.32 -0.429099 1.51646 0
M  V30 15697 C 1498.54 -1.20465 1.68828 0
M  V30 15698 C 1498.97 -1.84044 0.388514 0
M  V30 15699 O 1498.32 -1.69165 -0.652152 0
M  V30 15700 C 1498.37 -2.25831 2.81128 0
M  V30 15701 O 1497.48 -3.31511 2.45305 0
M  V30 15702 H 1496.82 -0.352568 0.562665 0
M  V30 15703 H 1499.35 -0.505698 1.98252 0
M  V30 15704 H 1499.36 -2.70484 3.05455 0
M  V30 15705 H 1498.03 -1.78934 3.7544 0
M  V30 15706 H 1496.61 -2.92277 2.31579 0
M  V30 15707 N 1498.79 -1.41931 -0.685074 0
M  V30 15708 C 1499.74 -1.44824 -1.82013 0
M  V30 15709 C 1500.74 -0.325083 -1.66252 0
M  V30 15710 O 1501.94 -0.497614 -1.72985 0
M  V30 15711 H 1498.32 -0.453362 -0.599972 0
M  V30 15712 H 1500.29 -2.40464 -1.76691 0
M  V30 15713 C 1499.04 -1.35753 -3.20104 0
M  V30 15714 H 1498.36 -2.21469 -3.32854 0
M  V30 15715 H 1499.8 -1.41838 -3.99572 0
M  V30 15716 C 1498.26 -0.0710816 -3.36825 0
M  V30 15717 O 1498.79 0.880155 -3.91939 0
M  V30 15718 N 1496.99 0.00842652 -2.90599 0
M  V30 15719 H 1496.54 -0.766427 -2.45934 0
M  V30 15720 H 1496.5 0.868559 -3.02165 0
M  V30 15721 N 1500.27 0.920374 -1.27933 0
M  V30 15722 C 1501.55 1.64765 -1.05413 0
M  V30 15723 C 1501.93 2.07106 0.408717 0
M  V30 15724 O 1501.28 1.81094 1.39346 0
M  V30 15725 C 1501.49 2.84417 -2.02257 0
M  V30 15726 C 1502.83 3.5559 -2.32036 0
M  V30 15727 O 1503.86 2.94555 -2.00289 0
M  V30 15728 O 1502.72 4.65574 -2.86187 0
M  V30 15729 H 1499.81 0.722503 -0.402391 0
M  V30 15730 H 1502.36 0.970263 -1.39226 0
M  V30 15731 H 1501.13 2.50174 -3.0088 0
M  V30 15732 H 1500.75 3.59872 -1.6905 0
M  V30 15733 N 1501.75 1.10074 1.1279 0
M  V30 15734 C 1503 0.839212 1.83852 0
M  V30 15735 C 1503.32 -0.637023 1.84301 0
M  V30 15736 O 1502.59 -1.46239 1.30349 0
M  V30 15737 H 1501.17 0.307468 0.680788 0
M  V30 15738 H 1503.83 1.39025 1.36595 0
M  V30 15739 H 1502.93 1.19872 2.88162 0
M  V30 15740 N 1503.23 -1.30138 0.888926 0
M  V30 15741 C 1504.17 -2.28023 0.356923 0
M  V30 15742 C 1505.14 -1.56551 -0.555066 0
M  V30 15743 O 1506.33 -1.84595 -0.482633 0
M  V30 15744 C 1503.47 -3.42546 -0.419056 0
M  V30 15745 C 1502.58 -4.28827 0.5226 0
M  V30 15746 C 1501.72 -5.30517 -0.269366 0
M  V30 15747 C 1500.76 -6.08449 0.667507 0
M  V30 15748 N 1499.89 -7.02043 -0.08938 0
M  V30 15749 H 1504.73 -2.72912 1.19678 0
M  V30 15750 H 1502.27 -1.34239 0.60152 0
M  V30 15751 H 1504.23 -4.07707 -0.884911 0
M  V30 15752 H 1502.86 -2.98716 -1.22346 0
M  V30 15753 H 1501.91 -3.63938 1.10695 0
M  V30 15754 H 1503.22 -4.83136 1.24018 0
M  V30 15755 H 1502.38 -6.01444 -0.796901 0
M  V30 15756 H 1501.12 -4.76911 -1.02014 0
M  V30 15757 H 1500.12 -5.36396 1.20664 0
M  V30 15758 H 1501.35 -6.64143 1.41744 0
M  V30 15759 H 1499.29 -6.50822 -0.822622 0
M  V30 15760 H 1499.21 -7.53859 0.568499 0
M  V30 15761 H 1500.48 -7.77206 -0.597529 0
M  V30 15762 N 1504.71 -0.650285 -1.43559 0
M  V30 15763 C 1505.65 0.043098 -2.3076 0
M  V30 15764 C 1506.62 0.81763 -1.44582 0
M  V30 15765 O 1507.81 0.794825 -1.73457 0
M  V30 15766 C 1504.95 1.00557 -3.30125 0
M  V30 15767 C 1504.06 0.227448 -4.31401 0
M  V30 15768 C 1503.2 1.18345 -5.17849 0
M  V30 15769 C 1502.23 0.395596 -6.1082 0
M  V30 15770 N 1501.37 1.30304 -6.89902 0
M  V30 15771 H 1506.21 -0.706402 -2.89506 0
M  V30 15772 H 1503.75 -0.360118 -1.42624 0
M  V30 15773 H 1505.71 1.57717 -3.8624 0
M  V30 15774 H 1504.34 1.72198 -2.73034 0
M  V30 15775 H 1503.39 -0.460391 -3.77604 0
M  V30 15776 H 1504.7 -0.385316 -4.9731 0
M  V30 15777 H 1503.85 1.82578 -5.78576 0
M  V30 15778 H 1502.59 1.83013 -4.52059 0
M  V30 15779 H 1501.6 -0.260099 -5.49184 0
M  V30 15780 H 1502.82 -0.246633 -6.78652 0
M  V30 15781 H 1500.77 1.93657 -6.26764 0
M  V30 15782 H 1500.69 0.744768 -7.52323 0
M  V30 15783 H 1501.95 1.93361 -7.55137 0
M  V30 15784 N 1506.18 1.52647 -0.392018 0
M  V30 15785 C 1507.13 2.26532 0.441819 0
M  V30 15786 C 1508.1 1.2825 1.05552 0
M  V30 15787 O 1509.29 1.57083 1.08303 0
M  V30 15788 C 1506.43 3.0774 1.56174 0
M  V30 15789 C 1505.54 4.20955 0.970632 0
M  V30 15790 C 1504.67 4.89553 2.06183 0
M  V30 15791 C 1503.71 5.94756 1.44676 0
M  V30 15792 N 1502.85 6.5694 2.47738 0
M  V30 15793 H 1507.69 2.97363 -0.194699 0
M  V30 15794 H 1505.23 1.46704 -0.107848 0
M  V30 15795 H 1507.18 3.53116 2.22183 0
M  V30 15796 H 1505.81 2.39112 2.16853 0
M  V30 15797 H 1504.87 3.79874 0.200067 0
M  V30 15798 H 1506.18 4.96474 0.481181 0
M  V30 15799 H 1505.33 5.38247 2.79956 0
M  V30 15800 H 1504.07 4.13564 2.58488 0
M  V30 15801 H 1503.08 5.45399 0.694288 0
M  V30 15802 H 1504.3 6.72679 0.931617 0
M  V30 15803 H 1502.25 5.8379 2.99208 0
M  V30 15804 H 1502.16 7.2808 2.03556 0
M  V30 15805 H 1503.43 7.10277 3.21133 0
M  V30 15806 N 1507.66 0.121921 1.57128 0
M  V30 15807 C 1508.91 -0.534313 1.94909 0
M  V30 15808 C 1509.23 -1.67029 1.0063 0
M  V30 15809 O 1508.5 -1.95798 0.0631366 0
M  V30 15810 H 1507.08 -0.200372 0.719625 0
M  V30 15811 H 1509.74 0.191546 1.93956 0
M  V30 15812 H 1508.84 -0.926974 2.98016 0
M  V30 15813 N 1509.14 -1.56867 -0.151857 0
M  V30 15814 C 1510.07 -1.93039 -1.21701 0
M  V30 15815 C 1511.05 -0.795607 -1.41806 0
M  V30 15816 O 1512.24 -1.05076 -1.56497 0
M  V30 15817 C 1509.36 -2.19822 -2.57674 0
M  V30 15818 C 1508.41 -3.42474 -2.54192 0
M  V30 15819 S 1509.24 -4.96199 -2.01363 0
M  V30 15820 C 1510.4 -5.26098 -3.39075 0
M  V30 15821 H 1510.63 -2.83083 -0.90837 0
M  V30 15822 H 1508.16 -1.5021 -0.357265 0
M  V30 15823 H 1510.12 -2.35932 -3.35926 0
M  V30 15824 H 1508.78 -1.30451 -2.8573 0
M  V30 15825 H 1507.98 -3.58476 -3.54276 0
M  V30 15826 H 1507.58 -3.25581 -1.84047 0
M  V30 15827 H 1509.87 -5.19268 -4.35163 0
M  V30 15828 H 1510.81 -6.27588 -3.27931 0
M  V30 15829 H 1511.22 -4.53623 -3.35986 0
M  V30 15830 N 1510.62 0.421051 -1.51871 0
M  V30 15831 C 1511.87 1.16677 -1.65018 0
M  V30 15832 C 1512.19 1.91329 -0.376596 0
M  V30 15833 O 1511.46 1.86221 0.608146 0
M  V30 15834 H 1510.04 0.433698 -0.608206 0
M  V30 15835 H 1512.7 0.48115 -1.88868 0
M  V30 15836 H 1511.8 1.88742 -2.48562 0
M  V30 15837 N 1512.1 1.42293 0.677538 0
M  V30 15838 C 1513.04 1.45556 1.79114 0
M  V30 15839 C 1514.01 0.307826 1.63223 0
M  V30 15840 O 1515.2 0.511504 1.83816 0
M  V30 15841 C 1512.34 1.36104 3.17127 0
M  V30 15842 C 1511.45 2.60891 3.44325 0
M  V30 15843 C 1510.59 2.43601 4.72051 0
M  V30 15844 C 1509.63 3.63775 4.92274 0
M  V30 15845 N 1508.76 3.45444 6.11239 0
M  V30 15846 H 1513.6 2.40723 1.7566 0
M  V30 15847 H 1511.14 1.19517 0.857565 0
M  V30 15848 H 1513.1 1.28622 3.96878 0
M  V30 15849 H 1511.73 0.445342 3.19713 0
M  V30 15850 H 1510.78 2.78751 2.58848 0
M  V30 15851 H 1512.09 3.50229 3.55163 0
M  V30 15852 H 1511.25 2.33689 5.59888 0
M  V30 15853 H 1509.98 1.51748 4.63491 0
M  V30 15854 H 1508.99 3.74122 4.0288 0
M  V30 15855 H 1510.21 4.56605 5.02681 0
M  V30 15856 H 1508.16 2.56306 6.03857 0
M  V30 15857 H 1508.08 4.28368 6.22926 0
M  V30 15858 H 1509.35 3.39339 7.01762 0
M  V30 15859 N 1513.57 -0.913576 1.28419 0
M  V30 15860 C 1514.52 -2.01603 1.12361 0
M  V30 15861 C 1515.49 -1.66087 0.0206953 0
M  V30 15862 O 1516.68 -1.89895 0.185659 0
M  V30 15863 C 1513.82 -3.35897 0.791655 0
M  V30 15864 C 1512.93 -3.84281 1.97363 0
M  V30 15865 C 1512.06 -5.07087 1.58228 0
M  V30 15866 C 1511.1 -5.47804 2.73089 0
M  V30 15867 N 1510.24 -6.618 2.34446 0
M  V30 15868 H 1515.08 -2.1467 2.0669 0
M  V30 15869 H 1512.62 -1.05147 1.02871 0
M  V30 15870 H 1514.58 -4.13149 0.579943 0
M  V30 15871 H 1513.21 -3.22596 -0.114699 0
M  V30 15872 H 1512.26 -3.03184 2.29746 0
M  V30 15873 H 1513.57 -4.10417 2.83477 0
M  V30 15874 H 1512.72 -5.91883 1.33264 0
M  V30 15875 H 1511.46 -4.82759 0.692429 0
M  V30 15876 H 1510.47 -4.61549 2.98751 0
M  V30 15877 H 1511.69 -5.74119 3.62717 0
M  V30 15878 H 1509.64 -6.39103 1.4793 0
M  V30 15879 H 1509.56 -6.87663 3.14096 0
M  V30 15880 H 1510.82 -7.49901 2.12766 0
M  V30 15881 N 1515.05 -1.1067 -1.12204 0
M  V30 15882 C 1516 -0.757745 -2.18007 0
M  V30 15883 C 1516.97 0.26706 -1.63939 0
M  V30 15884 O 1518.15 0.145789 -1.90242 0
M  V30 15885 C 1515.29 -0.198379 -3.44529 0
M  V30 15886 C 1514.41 -1.27878 -4.12639 0
M  V30 15887 C 1513.54 -0.6808 -5.26819 0
M  V30 15888 C 1512.58 -1.74161 -5.868 0
M  V30 15889 N 1511.72 -1.16372 -6.92389 0
M  V30 15890 H 1516.56 -1.66418 -2.47202 0
M  V30 15891 H 1514.1 -0.831216 -1.21364 0
M  V30 15892 H 1516.05 0.143838 -4.16952 0
M  V30 15893 H 1514.68 0.671279 -3.15743 0
M  V30 15894 H 1513.74 -1.73808 -3.38371 0
M  V30 15895 H 1515.05 -2.08169 -4.53285 0
M  V30 15896 H 1514.2 -0.288172 -6.06015 0
M  V30 15897 H 1512.94 0.153521 -4.87458 0
M  V30 15898 H 1511.95 -2.14364 -5.06289 0
M  V30 15899 H 1513.17 -2.57882 -6.28231 0
M  V30 15900 H 1511.12 -0.350899 -6.55061 0
M  V30 15901 H 1511.03 -1.90344 -7.31646 0
M  V30 15902 H 1512.3 -0.797715 -7.75407 0
M  V30 15903 N 1516.53 1.29665 -0.895815 0
M  V30 15904 C 1517.76 1.99862 -0.535043 0
M  V30 15905 C 1518.17 1.67077 0.879245 0
M  V30 15906 O 1517.53 0.913717 1.57979 0
M  V30 15907 C 1517.58 3.54396 -0.713132 0
M  V30 15908 O 1517.3 3.86018 -2.07175 0
M  V30 15909 C 1518.8 4.41862 -0.356792 0
M  V30 15910 H 1516.02 0.638693 -0.205699 0
M  V30 15911 H 1518.57 1.65293 -1.20409 0
M  V30 15912 H 1516.72 3.87292 -0.0913116 0
M  V30 15913 H 1517.14 4.80701 -2.09827 0
M  V30 15914 H 1518.61 5.49428 -0.532252 0
M  V30 15915 H 1519.09 4.3349 0.705914 0
M  V30 15916 H 1519.69 4.1443 -0.95539 0
M  V30 15917 N 1518.01 0.657889 1.43212 0
M  V30 15918 C 1519.29 0.102895 1.95329 0
M  V30 15919 C 1519.67 -1.37821 1.59901 0
M  V30 15920 O 1519.01 -2.10602 0.886505 0
M  V30 15921 C 1519.22 0.354075 3.47199 0
M  V30 15922 C 1520.57 0.261511 4.23794 0
M  V30 15923 O 1521.6 0.286889 3.55043 0
M  V30 15924 O 1520.45 0.189209 5.46172 0
M  V30 15925 H 1517.55 -0.00692284 0.826971 0
M  V30 15926 H 1520.09 0.73145 1.53127 0
M  V30 15927 H 1518.87 1.38075 3.6613 0
M  V30 15928 H 1518.49 -0.307321 3.96411 0
M  V30 15929 N 1519.49 -1.52437 0.400108 0
M  V30 15930 C 1520.9 -1.86563 -0.0715162 0
M  V30 15931 C 1521.25 -1.3193 -1.4522 0
M  V30 15932 O 1520.37 -0.654955 -2.06251 0
M  V30 15933 C 1520.97 -3.38525 -0.13655 0
M  V30 15934 C 1519.53 -3.72323 -0.55249 0
M  V30 15935 C 1518.67 -2.75896 0.278729 0
M  V30 15936 H 1521.63 -1.46192 0.617547 0
M  V30 15937 H 1521.65 -3.68357 -0.953588 0
M  V30 15938 H 1521.16 -3.78258 0.868468 0
M  V30 15939 H 1519.26 -3.38164 -1.56448 0
M  V30 15940 H 1519.37 -4.7814 -0.303139 0
M  V30 15941 H 1517.74 -2.53394 -0.257608 0
M  V30 15942 H 1518.52 -3.18467 1.28193 0
M  V30 15943 N 1520.96 -0.130252 -1.57061 0
M  V30 15944 C 1522.21 0.523969 -1.9519 0
M  V30 15945 C 1522.53 1.66493 -1.01514 0
M  V30 15946 O 1521.8 1.95762 -0.0735194 0
M  V30 15947 H 1520.38 0.196553 -0.720677 0
M  V30 15948 H 1523.05 -0.20183 -1.93852 0
M  V30 15949 H 1522.14 0.911156 -2.98504 0
M  V30 15950 N 1522.44 1.56945 0.143535 0
M  V30 15951 C 1523.86 1.51688 0.496291 0
M  V30 15952 C 1524.06 0.839251 1.83191 0
M  V30 15953 O 1523.12 0.411235 2.49129 0
M  V30 15954 C 1524.43 2.96456 0.503402 0
M  V30 15955 C 1525.98 3.07414 0.588676 0
M  V30 15956 C 1526.45 4.53696 0.626416 0
M  V30 15957 N 1527.94 4.58054 0.688543 0
M  V30 15958 C 1528.68 5.68621 0.738786 0
M  V30 15959 N 1528.17 6.88748 0.748163 0
M  V30 15960 N 1529.97 5.56663 0.779931 0
M  V30 15961 H 1522.12 1.99392 -0.731901 0
M  V30 15962 H 1524.38 0.909546 -0.267263 0
M  V30 15963 H 1524.09 3.49304 -0.409845 0
M  V30 15964 H 1523.96 3.52593 1.34008 0
M  V30 15965 H 1526.35 2.54584 1.49234 0
M  V30 15966 H 1526.43 2.54315 -0.275213 0
M  V30 15967 H 1526.07 5.07165 -0.273108 0
M  V30 15968 H 1526 5.04581 1.50684 0
M  V30 15969 H 1528.49 3.71576 0.688455 0
M  V30 15970 H 1528.81 7.68767 0.788444 0
M  V30 15971 H 1527.15 6.91302 0.715982 0
M  V30 15972 H 1530.34 4.61727 0.769799 0
M  V30 15973 H 1530.52 6.42847 0.815621 0
M  V30 15974 N 1523.92 -0.412991 1.52093 0
M  V30 15975 C 1525.17 -1.15801 1.65634 0
M  V30 15976 C 1525.49 -1.91127 0.386737 0
M  V30 15977 O 1524.76 -1.86541 -0.598262 0
M  V30 15978 H 1523.34 -0.430467 0.610498 0
M  V30 15979 H 1526 -0.471127 1.8912 0
M  V30 15980 H 1525.1 -1.87421 2.49559 0
M  V30 15981 N 1525.4 -1.4265 -0.669982 0
M  V30 15982 C 1526.82 -1.25682 -0.983682 0
M  V30 15983 C 1527.02 -0.164456 -2.00828 0
M  V30 15984 O 1526.07 0.462711 -2.48224 0
M  V30 15985 C 1527.38 -2.61536 -1.4839 0
M  V30 15986 C 1528.93 -2.6893 -1.60143 0
M  V30 15987 C 1529.41 -4.05162 -2.1356 0
M  V30 15988 N 1530.9 -4.07141 -2.20886 0
M  V30 15989 C 1531.63 -5.09371 -2.63303 0
M  V30 15990 N 1531.13 -6.21983 -3.05137 0
M  V30 15991 N 1532.92 -4.96727 -2.63094 0
M  V30 15992 H 1525.07 -2.12398 0.0083059 0
M  V30 15993 H 1527.34 -0.946173 -0.058823 0
M  V30 15994 H 1527.04 -3.42351 -0.805527 0
M  V30 15995 H 1526.92 -2.85786 -2.46183 0
M  V30 15996 H 1529.3 -1.88457 -2.27085 0
M  V30 15997 H 1529.38 -2.48463 -0.608266 0
M  V30 15998 H 1529.03 -4.86094 -1.47224 0
M  V30 15999 H 1528.96 -4.22984 -3.13676 0
M  V30 16000 H 1531.45 -3.25846 -1.91396 0
M  V30 16001 H 1531.76 -6.95835 -3.36204 0
M  V30 16002 H 1530.11 -6.25481 -3.02983 0
M  V30 16003 H 1533.3 -4.07824 -2.29777 0
M  V30 16004 H 1533.47 -5.76531 -2.95831 0
M  V30 16005 N 1526.88 0.906753 -1.28902 0
M  V30 16006 C 1527.79 2.04313 -1.15296 0
M  V30 16007 C 1528.8 1.73826 -0.0778619 0
M  V30 16008 O 1529.98 1.99322 -0.288543 0
M  V30 16009 C 1527.04 3.36782 -0.823317 0
M  V30 16010 C 1526.11 3.80834 -1.98152 0
M  V30 16011 C 1525.34 5.06981 -1.66751 0
M  V30 16012 O 1525.56 5.67391 -0.58513 0
M  V30 16013 O 1524.5 5.46915 -2.51332 0
M  V30 16014 H 1528.32 2.18713 -2.10709 0
M  V30 16015 H 1525.91 1.02928 -1.08287 0
M  V30 16016 H 1527.79 4.16298 -0.653735 0
M  V30 16017 H 1526.46 3.23542 0.101097 0
M  V30 16018 H 1525.37 3.02115 -2.2063 0
M  V30 16019 H 1526.7 3.98648 -2.88688 0
M  V30 16020 N 1528.36 1.11264 1.11616 0
M  V30 16021 C 1529.6 0.855139 1.82675 0
M  V30 16022 C 1529.92 -0.621194 1.85474 0
M  V30 16023 O 1531.12 -0.994886 2.52615 0
M  V30 16024 C 1529.58 1.48007 3.28058 0
M  V30 16025 C 1529.19 2.99031 3.33593 0
M  V30 16026 C 1530.93 1.30233 4.04029 0
M  V30 16027 C 1528.84 3.54517 4.73362 0
M  V30 16028 H 1527.77 0.316252 0.684471 0
M  V30 16029 H 1530.42 1.33766 1.25614 0
M  V30 16030 H 1528.8 0.925214 3.8504 0
M  V30 16031 H 1529.98 3.60905 2.86503 0
M  V30 16032 H 1528.29 3.16059 2.711 0
M  V30 16033 H 1530.89 1.69122 5.07249 0
M  V30 16034 H 1531.23 0.244724 4.1558 0
M  V30 16035 H 1531.76 1.82573 3.53429 0
M  V30 16036 H 1528.5 4.59982 4.67008 0
M  V30 16037 H 1528.02 2.97414 5.20869 0
M  V30 16038 H 1529.7 3.52848 5.42316 0
M  V30 16039 N 1529.83 -1.29188 0.902679 0
M  V30 16040 C 1530.77 -2.26665 0.339964 0
M  V30 16041 C 1531.78 -1.54426 -0.515396 0
M  V30 16042 O 1532.97 -1.75384 -0.332071 0
M  V30 16043 C 1530.07 -3.34672 -0.533653 0
M  V30 16044 C 1529.24 -4.36393 0.296661 0
M  V30 16045 C 1528.3 -5.2372 -0.510264 0
M  V30 16046 O 1527.33 -5.69153 0.0732871 0
M  V30 16047 N 1528.53 -5.51373 -1.81572 0
M  V30 16048 H 1531.29 -2.75588 1.17778 0
M  V30 16049 H 1528.85 -1.42553 0.767474 0
M  V30 16050 H 1530.85 -3.90025 -1.07995 0
M  V30 16051 H 1529.42 -2.85543 -1.27216 0
M  V30 16052 H 1528.64 -3.80658 1.02436 0
M  V30 16053 H 1529.92 -5.0139 0.865191 0
M  V30 16054 H 1529.32 -5.16275 -2.31251 0
M  V30 16055 H 1527.88 -6.09528 -2.30908 0
M  V30 16056 N 1531.31 -0.665475 -1.42861 0
M  V30 16057 C 1532.56 -0.183521 -2.01265 0
M  V30 16058 C 1532.88 1.21103 -1.52837 0
M  V30 16059 O 1532.15 1.81135 -0.746109 0
M  V30 16060 H 1530.73 -0.0648565 -0.744179 0
M  V30 16061 H 1533.39 -0.859893 -1.74905 0
M  V30 16062 H 1532.49 -0.177589 -3.11594 0
M  V30 16063 N 1532.79 1.52222 -0.408187 0
M  V30 16064 C 1534.04 2.00989 0.169252 0
M  V30 16065 C 1534.35 1.29824 1.46305 0
M  V30 16066 O 1535.56 1.69402 2.12168 0
M  V30 16067 C 1534.01 3.58173 0.352179 0
M  V30 16068 C 1533.62 4.38252 -0.929468 0
M  V30 16069 C 1535.37 4.15173 0.88496 0
M  V30 16070 C 1533.27 5.87077 -0.713781 0
M  V30 16071 H 1532.2 0.751015 0.0670261 0
M  V30 16072 H 1534.85 1.75574 -0.533487 0
M  V30 16073 H 1533.24 3.79913 1.11723 0
M  V30 16074 H 1534.41 4.28272 -1.70059 0
M  V30 16075 H 1532.72 3.92565 -1.38859 0
M  V30 16076 H 1535.32 5.2404 1.06235 0
M  V30 16077 H 1535.66 3.72468 1.85938 0
M  V30 16078 H 1536.2 3.97397 0.178995 0
M  V30 16079 H 1532.94 6.3414 -1.65974 0
M  V30 16080 H 1532.46 5.99797 0.0180631 0
M  V30 16081 H 1534.14 6.46022 -0.355596 0
M  V30 16082 N 1534.27 0.138579 1.5699 0
M  V30 16083 C 1535.51 -0.514627 1.95852 0
M  V30 16084 C 1535.84 -1.65424 1.02299 0
M  V30 16085 O 1535.1 -1.95635 0.0505654 0
M  V30 16086 C 1535.4 -1.06969 3.41017 0
M  V30 16087 C 1535.06 -0.049396 4.50873 0
M  V30 16088 C 1533.72 0.231103 4.80645 0
M  V30 16089 C 1536.08 0.644865 5.17195 0
M  V30 16090 C 1533.4 1.21181 5.74049 0
M  V30 16091 C 1535.76 1.61434 6.11655 0
M  V30 16092 C 1534.42 1.90262 6.3981 0
M  V30 16093 H 1533.69 -0.188315 0.716672 0
M  V30 16094 H 1536.34 0.223629 1.9019 0
M  V30 16095 H 1534.64 -1.88511 3.43469 0
M  V30 16096 H 1536.34 -1.58354 3.68409 0
M  V30 16097 H 1532.93 -0.278202 4.27696 0
M  V30 16098 H 1537.11 0.441346 4.94334 0
M  V30 16099 H 1532.37 1.4417 5.94159 0
M  V30 16100 H 1536.54 2.15786 6.62125 0
M  V30 16101 H 1534.17 2.66407 7.11991 0
M  V30 16102 N 1535.75 -1.57019 -0.13521 0
M  V30 16103 C 1536.99 -1.8399 -0.845818 0
M  V30 16104 C 1537.32 -0.721255 -1.80633 0
M  V30 16105 O 1536.58 0.288778 -1.93558 0
M  V30 16106 C 1536.87 -3.17358 -1.64373 0
M  V30 16107 C 1536.54 -4.43214 -0.828967 0
M  V30 16108 C 1535.2 -4.77391 -0.604226 0
M  V30 16109 C 1537.55 -5.20551 -0.259965 0
M  V30 16110 C 1534.88 -5.86359 0.200033 0
M  V30 16111 C 1537.23 -6.30364 0.531397 0
M  V30 16112 C 1535.9 -6.63083 0.766605 0
M  V30 16113 H 1535.17 -0.673266 -0.309507 0
M  V30 16114 H 1537.82 -1.9119 -0.108903 0
M  V30 16115 H 1536.12 -3.05661 -2.4511 0
M  V30 16116 H 1537.82 -3.35444 -2.19724 0
M  V30 16117 H 1534.41 -4.16427 -1.01421 0
M  V30 16118 H 1538.59 -4.94512 -0.420847 0
M  V30 16119 H 1533.85 -6.10144 0.391646 0
M  V30 16120 H 1538.02 -6.89479 0.979371 0
M  V30 16121 H 1535.65 -7.47354 1.39164 0
M  V30 16122 N 1537.22 0.404919 -1.52309 0
M  V30 16123 C 1538.17 1.49363 -1.75953 0
M  V30 16124 C 1539.14 1.54802 -0.60212 0
M  V30 16125 O 1540.33 1.71308 -0.840128 0
M  V30 16126 C 1537.47 2.86767 -1.91987 0
M  V30 16127 C 1536.58 2.90603 -3.19646 0
M  V30 16128 C 1535.71 4.19333 -3.26088 0
M  V30 16129 C 1534.75 4.17161 -4.47932 0
M  V30 16130 N 1533.89 5.37469 -4.51743 0
M  V30 16131 H 1538.73 1.28503 -2.6887 0
M  V30 16132 H 1536.27 0.623684 -1.33224 0
M  V30 16133 H 1538.23 3.66536 -1.99267 0
M  V30 16134 H 1536.86 3.06112 -1.02447 0
M  V30 16135 H 1535.91 2.033 -3.21517 0
M  V30 16136 H 1537.22 2.84864 -4.09456 0
M  V30 16137 H 1536.37 5.07497 -3.32463 0
M  V30 16138 H 1535.11 4.27774 -2.34224 0
M  V30 16139 H 1534.12 3.27386 -4.417 0
M  V30 16140 H 1535.34 4.10356 -5.41096 0
M  V30 16141 H 1533.29 5.46569 -3.62764 0
M  V30 16142 H 1533.21 5.3374 -5.35404 0
M  V30 16143 H 1534.47 6.27575 -4.62353 0
M  V30 16144 N 1538.7 1.43003 0.662408 0
M  V30 16145 C 1539.61 1.49876 1.80484 0
M  V30 16146 C 1540.63 0.386526 1.69653 0
M  V30 16147 O 1541.8 0.639289 1.90984 0
M  V30 16148 C 1538.87 1.41057 3.16708 0
M  V30 16149 C 1537.93 2.62875 3.39404 0
M  V30 16150 C 1537.16 2.54468 4.69129 0
M  V30 16151 O 1537.39 1.58735 5.47868 0
M  V30 16152 O 1536.32 3.44814 4.93343 0
M  V30 16153 H 1540.15 2.46327 1.77641 0
M  V30 16154 H 1537.73 1.24903 0.81973 0
M  V30 16155 H 1539.61 1.38547 3.97973 0
M  V30 16156 H 1538.29 0.477361 3.20161 0
M  V30 16157 H 1537.2 2.70958 2.57939 0
M  V30 16158 H 1538.53 3.55137 3.40791 0
M  V30 16159 N 1540.18 -0.899904 1.29381 0
M  V30 16160 C 1541.46 -1.63067 1.08021 0
M  V30 16161 C 1541.84 -2.0773 -0.375716 0
M  V30 16162 O 1541.19 -1.83288 -1.36447 0
M  V30 16163 C 1541.4 -2.81163 2.06757 0
M  V30 16164 C 1542.74 -3.51854 2.37664 0
M  V30 16165 O 1543.77 -2.91332 2.0495 0
M  V30 16166 O 1542.63 -4.60962 2.93558 0
M  V30 16167 H 1539.72 -0.71601 0.413835 0
M  V30 16168 H 1542.27 -0.947991 1.40752 0
M  V30 16169 H 1541.04 -2.45355 3.04822 0
M  V30 16170 H 1540.66 -3.57137 1.74754 0
M  V30 16171 N 1541.66 -1.11854 -1.11024 0
M  V30 16172 C 1542.88 -0.892999 -1.8719 0
M  V30 16173 C 1543.31 0.552058 -1.79816 0
M  V30 16174 O 1542.67 1.39025 -1.16369 0
M  V30 16175 C 1542.71 -1.3647 -3.33779 0
M  V30 16176 O 1541.82 -0.539202 -4.0886 0
M  V30 16177 H 1541.16 -0.321319 -0.581076 0
M  V30 16178 H 1543.69 -1.4891 -1.4031 0
M  V30 16179 H 1543.7 -1.3611 -3.84627 0
M  V30 16180 H 1542.37 -2.41694 -3.38462 0
M  V30 16181 H 1540.95 -0.60927 -3.67889 0
M  V30 16182 N 1543.14 1.28707 -0.909517 0
M  V30 16183 C 1544.09 2.25045 -0.365899 0
M  V30 16184 C 1545.07 1.5228 0.51959 0
M  V30 16185 O 1546.26 1.733 0.360004 0
M  V30 16186 C 1543.39 3.41 0.396725 0
M  V30 16187 C 1542.48 4.21092 -0.504243 0
M  V30 16188 N 1542.87 4.79293 -1.61592 0
M  V30 16189 C 1541.17 4.44964 -0.303843 0
M  V30 16190 C 1541.87 5.39516 -2.17481 0
M  V30 16191 N 1540.84 5.23442 -1.4666 0
M  V30 16192 H 1544.65 2.67611 -1.21497 0
M  V30 16193 H 1542.16 1.4343 -0.761686 0
M  V30 16194 H 1544.16 4.09094 0.80299 0
M  V30 16195 H 1542.82 2.99969 1.24294 0
M  V30 16196 H 1543.83 4.77785 -1.99856 0
M  V30 16197 H 1540.5 4.14456 0.503201 0
M  V30 16198 H 1541.89 5.95606 -3.10972 0
M  V30 16199 N 1544.61 0.673042 1.42506 0
M  V30 16200 C 1545.56 -0.00638067 2.30799 0
M  V30 16201 C 1546.53 -0.794524 1.45865 0
M  V30 16202 O 1547.72 -0.767129 1.74699 0
M  V30 16203 C 1544.86 -0.952923 3.31683 0
M  V30 16204 C 1543.97 -0.158787 4.31708 0
M  V30 16205 C 1543.1 -1.10092 5.19666 0
M  V30 16206 C 1542.14 -0.29837 6.11372 0
M  V30 16207 N 1541.28 -1.19312 6.91888 0
M  V30 16208 H 1546.12 0.75237 2.88346 0
M  V30 16209 H 1543.66 0.382763 1.42033 0
M  V30 16210 H 1545.62 -1.51552 3.887 0
M  V30 16211 H 1544.25 -1.67832 2.75739 0
M  V30 16212 H 1543.3 0.520406 3.76823 0
M  V30 16213 H 1544.61 0.464385 4.96634 0
M  V30 16214 H 1543.76 -1.7335 5.81407 0
M  V30 16215 H 1542.5 -1.75798 4.54914 0
M  V30 16216 H 1541.51 0.347437 5.48701 0
M  V30 16217 H 1542.73 0.354569 6.78174 0
M  V30 16218 H 1540.68 -1.83661 6.29765 0
M  V30 16219 H 1540.6 -0.624986 7.53412 0
M  V30 16220 H 1541.86 -1.81323 7.58118 0
M  V30 16221 N 1546.09 -1.52004 0.416254 0
M  V30 16222 C 1547 -2.30947 -0.412403 0
M  V30 16223 C 1548.02 -1.38969 -1.04707 0
M  V30 16224 O 1549.19 -1.72044 -1.04703 0
M  V30 16225 C 1546.26 -3.12078 -1.51024 0
M  V30 16226 C 1545.32 -4.19805 -0.897892 0
M  V30 16227 C 1544.55 -4.97059 -1.94341 0
M  V30 16228 O 1544.78 -4.74695 -3.16261 0
M  V30 16229 O 1543.71 -5.81715 -1.54567 0
M  V30 16230 H 1547.54 -3.02817 0.231473 0
M  V30 16231 H 1545.12 -1.4832 0.179283 0
M  V30 16232 H 1547 -3.6258 -2.14741 0
M  V30 16233 H 1545.68 -2.42995 -2.13858 0
M  V30 16234 H 1544.59 -3.73433 -0.223236 0
M  V30 16235 H 1545.92 -4.91201 -0.31336 0
M  V30 16236 N 1547.57 -0.146903 -1.56914 0
M  V30 16237 C 1548.8 0.514426 -2.00919 0
M  V30 16238 C 1549.22 1.57632 -1.02634 0
M  V30 16239 O 1548.58 1.813 -0.00207478 0
M  V30 16240 C 1548.63 1.09197 -3.43669 0
M  V30 16241 O 1547.73 2.20684 -3.48385 0
M  V30 16242 H 1547.07 0.125827 -0.651969 0
M  V30 16243 H 1549.6 -0.243607 -2.03145 0
M  V30 16244 H 1549.61 1.42066 -3.82467 0
M  V30 16245 H 1548.29 0.314336 -4.1471 0
M  V30 16246 H 1546.86 1.89045 -3.21429 0
M  V30 16247 N 1549.05 1.57088 0.126881 0
M  V30 16248 C 1550 2.00736 1.17506 0
M  V30 16249 C 1550.99 0.902986 1.43327 0
M  V30 16250 O 1552.2 1.08819 1.43382 0
M  V30 16251 H 1548.57 0.639285 0.396003 0
M  V30 16252 H 1550.54 2.88015 0.780373 0
M  V30 16253 C 1549.29 2.42096 2.49569 0
M  V30 16254 H 1548.61 3.26639 2.30536 0
M  V30 16255 H 1550.05 2.76442 3.2149 0
M  V30 16256 C 1548.51 1.28148 3.11576 0
M  V30 16257 O 1549.04 0.593145 3.97297 0
M  V30 16258 N 1547.25 1.04055 2.71332 0
M  V30 16259 H 1546.8 1.60208 2.0172 0
M  V30 16260 H 1546.75 0.280075 3.1315 0
M  V30 16261 N 1550.53 -0.396836 1.52522 0
M  V30 16262 C 1551.8 -1.15638 1.57757 0
M  V30 16263 C 1552.18 -2.07903 0.365998 0
M  V30 16264 O 1551.53 -2.1917 -0.646266 0
M  V30 16265 C 1551.74 -1.92292 2.91247 0
M  V30 16266 C 1553.09 -2.47929 3.44697 0
M  V30 16267 O 1554.11 -2.02458 2.93069 0
M  V30 16268 O 1552.97 -3.30969 4.34881 0
M  V30 16269 H 1550.07 -0.52867 0.635953 0
M  V30 16270 H 1552.61 -0.402622 1.64855 0
M  V30 16271 H 1551.38 -1.24775 3.70873 0
M  V30 16272 H 1551.01 -2.74646 2.87498 0
M  V30 16273 N 1552.01 -1.43353 -0.654814 0
M  V30 16274 C 1553.25 -1.46387 -1.42654 0
M  V30 16275 C 1553.61 -0.0850538 -1.91812 0
M  V30 16276 O 1554.81 0.00990964 -2.68798 0
M  V30 16277 C 1553.08 -2.47594 -2.57744 0
M  V30 16278 S 1554.64 -2.69491 -3.46295 0
M  V30 16279 H 1551.46 -0.518053 -0.486972 0
M  V30 16280 H 1554.06 -1.80107 -0.760382 0
M  V30 16281 H 1552.76 -3.46513 -2.19902 0
M  V30 16282 H 1552.3 -2.15367 -3.29212 0
M  V30 16283 H 1554.31 -1.99297 -4.54418 0
M  V30 16284 N 1553.48 0.89303 -1.29857 0
M  V30 16285 C 1554.71 1.6827 -1.21243 0
M  V30 16286 C 1555.13 1.86778 0.222621 0
M  V30 16287 O 1554.49 1.39291 1.1605 0
M  V30 16288 C 1554.54 3.041 -1.93792 0
M  V30 16289 O 1553.64 3.92696 -1.25951 0
M  V30 16290 H 1552.98 0.514479 -0.419771 0
M  V30 16291 H 1555.51 1.11513 -1.7154 0
M  V30 16292 H 1555.52 3.54198 -2.02504 0
M  V30 16293 H 1554.2 2.89948 -2.98166 0
M  V30 16294 H 1552.78 3.51132 -1.25541 0
M  V30 16295 N 1554.96 1.12442 1.10429 0
M  V30 16296 C 1556.2 0.889854 1.84013 0
M  V30 16297 C 1556.57 -0.573951 1.83221 0
M  V30 16298 O 1557.77 -0.925683 2.52358 0
M  V30 16299 C 1556.04 1.44893 3.26712 0
M  V30 16300 S 1557.6 1.35291 4.17423 0
M  V30 16301 H 1554.41 0.321004 0.634411 0
M  V30 16302 H 1557.02 1.43395 1.32884 0
M  V30 16303 H 1555.72 2.50788 3.24859 0
M  V30 16304 H 1555.25 0.902325 3.82912 0
M  V30 16305 H 1557.27 0.324412 4.95138 0
M  V30 16306 N 1556.44 -1.28223 0.91633 0
M  V30 16307 C 1557.69 -1.9448 0.549734 0
M  V30 16308 C 1558.01 -1.72465 -0.909999 0
M  V30 16309 O 1557.28 -1.06583 -1.64368 0
M  V30 16310 H 1555.86 -0.719641 0.200315 0
M  V30 16311 H 1558.52 -1.56156 1.16625 0
M  V30 16312 H 1557.62 -3.03044 0.746363 0
M  V30 16313 N 1557.92 -0.68059 -1.42147 0
M  V30 16314 C 1559.17 -0.204857 -2.01059 0
M  V30 16315 C 1559.49 1.19475 -1.54113 0
M  V30 16316 O 1558.76 1.80334 -0.765279 0
M  V30 16317 H 1557.34 -0.0727459 -0.743449 0
M  V30 16318 H 1560 -0.878396 -1.73983 0
M  V30 16319 H 1559.09 -0.210628 -3.11388 0
M  V30 16320 O 1559.43 1.51242 -0.566406 0
M  V30 16321 H 1560.13 1.93586 -0.0664938 0
M  V30 END ATOM
M  V30 BEGIN BOND
M  V30 END BOND
M  V30 END CTAB
M  END
$$$$
