drugbank_target|P51813 Cytoplasmic tyrosine-protein kinase BMX (DB12010; DB15035)
 OpenBabel12092121143D

  0  0  0     0  0            999 V3000
M  V30 BEGIN CTAB
M  V30 COUNTS 10893 11029 0 0 0
M  V30 BEGIN ATOM
M  V30 1 H -0.908 1.98254 -0.117106 0
M  V30 2 N 0 1.576 0 0
M  V30 3 C 0.933 2.03868 1.02534 0
M  V30 4 C 1.911 0.928543 1.3348 0
M  V30 5 O 3.095 1.19667 1.45644 0
M  V30 6 C 0.222 2.43627 2.35294 0
M  V30 7 C -0.732 3.65373 2.2001 0
M  V30 8 S 0.101 5.13292 1.52614 0
M  V30 9 C 1.257 5.56322 2.86805 0
M  V30 10 H 1.49 2.90518 0.631377 0
M  V30 11 H -0.977 1.52953 0.210867 0
M  V30 12 H 0.981 2.67203 3.11629 0
M  V30 13 H -0.358 1.57376 2.7183 0
M  V30 14 H -1.165 3.90944 3.18086 0
M  V30 15 H -1.563 3.418 1.51819 0
M  V30 16 H 0.729 5.58782 3.83104 0
M  V30 17 H 1.672 6.56266 2.65933 0
M  V30 18 H 2.08 4.83886 2.90714 0
M  V30 19 N 1.4781 -0.272755 1.55222 0
M  V30 20 C 2.7551 -1.02562 1.66555 0
M  V30 21 C 3.1351 -2.04282 0.532189 0
M  V30 22 O 2.4831 -2.23662 -0.467717 0
M  V30 23 C 2.6931 -1.6822 3.05782 0
M  V30 24 C 4.0411 -2.19373 3.63539 0
M  V30 25 O 5.0651 -1.78206 3.08417 0
M  V30 26 O 3.9241 -2.94883 4.60115 0
M  V30 27 H 1.0181 -0.475755 0.676451 0
M  V30 28 H 3.5641 -0.268593 1.67561 0
M  V30 29 H 2.3361 -0.945112 3.79715 0
M  V30 30 H 1.9591 -2.50609 3.08676 0
M  V30 31 N 2.9562 -1.48159 -0.537278 0
M  V30 32 C 4.1842 -1.59454 -1.31841 0
M  V30 33 C 4.5992 -0.252065 -1.8711 0
M  V30 34 O 3.9562 0.757621 -1.66031 0
M  V30 35 C 4.0072 -2.63546 -2.47439 0
M  V30 36 O 3.7282 -3.92583 -1.94449 0
M  V30 37 C 5.2292 -2.85212 -3.39366 0
M  V30 38 H 2.4492 -0.53785 -0.401196 0
M  V30 39 H 4.9932 -1.93932 -0.648891 0
M  V30 40 H 3.1482 -2.31946 -3.1029 0
M  V30 41 H 3.5622 -4.49629 -2.70063 0
M  V30 42 H 5.0362 -3.61863 -4.16844 0
M  V30 43 H 5.5132 -1.93765 -3.94147 0
M  V30 44 H 6.1192 -3.18086 -2.82314 0
M  V30 45 N 4.4343 0.785586 -1.36625 0
M  V30 46 C 5.3813 1.89838 -1.31264 0
M  V30 47 C 6.3513 1.65115 -0.180633 0
M  V30 48 O 7.5363 1.87222 -0.36777 0
M  V30 49 C 4.6763 3.26706 -1.11163 0
M  V30 50 C 3.7893 3.63476 -2.33472 0
M  V30 51 C 2.9243 4.89481 -2.06353 0
M  V30 52 C 1.9633 5.18941 -3.24602 0
M  V30 53 N 1.1003 6.36131 -2.97123 0
M  V30 54 H 5.9403 1.93756 -2.26413 0
M  V30 55 H 3.4773 0.947454 -1.12524 0
M  V30 56 H 5.4353 4.05639 -0.975337 0
M  V30 57 H 4.0653 3.222 -0.196674 0
M  V30 58 H 3.1173 2.79636 -2.57891 0
M  V30 59 H 4.4293 3.81193 -3.21704 0
M  V30 60 H 3.5833 5.76288 -1.89675 0
M  V30 61 H 2.3223 4.73841 -1.15437 0
M  V30 62 H 1.3273 4.30615 -3.41834 0
M  V30 63 H 2.5523 5.36498 -4.16349 0
M  V30 64 H 0.4983 6.21875 -2.08823 0
M  V30 65 H 0.4153 6.54198 -3.78894 0
M  V30 66 H 1.6833 7.2591 -2.84033 0
M  V30 67 N 5.9124 1.20967 1.01018 0
M  V30 68 C 7.1374 1.0503 1.78839 0
M  V30 69 C 7.5624 -0.395752 1.8389 0
M  V30 70 O 6.9204 -1.28529 1.27867 0
M  V30 71 C 6.9684 1.64602 3.2084 0
M  V30 72 O 6.0724 0.887988 4.02726 0
M  V30 73 H 5.4134 0.369987 0.551367 0
M  V30 74 H 7.9434 1.60399 1.27018 0
M  V30 75 H 7.9534 1.68607 3.71532 0
M  V30 76 H 6.6284 2.69841 3.16479 0
M  V30 77 H 5.2054 0.922648 3.61305 0
M  V30 78 N 7.3905 -1.2043 1.01659 0
M  V30 79 C 8.6395 -1.89118 0.701237 0
M  V30 80 C 8.9525 -1.79705 -0.772358 0
M  V30 81 O 10.1585 -2.43528 -1.20026 0
M  V30 82 C 8.6145 -3.39168 1.20388 0
M  V30 83 C 8.2225 -3.57166 2.70438 0
M  V30 84 C 9.9665 -4.1341 0.963953 0
M  V30 85 C 7.8735 -5.01042 3.14183 0
M  V30 86 H 6.8035 -0.708267 0.2586 0
M  V30 87 H 9.4545 -1.36239 1.22927 0
M  V30 88 H 7.8365 -3.91369 0.603824 0
M  V30 89 H 9.0105 -3.15351 3.35992 0
M  V30 90 H 7.3255 -2.96294 2.92572 0
M  V30 91 H 9.9225 -5.19491 1.26621 0
M  V30 92 H 10.2655 -4.16181 -0.099578 0
M  V30 93 H 10.7985 -3.67309 1.52738 0
M  V30 94 H 7.5375 -5.03426 4.19812 0
M  V30 95 H 7.0575 -5.43668 2.53348 0
M  V30 96 H 8.7365 -5.69623 3.0682 0
M  V30 97 N 8.8686 -0.792821 -1.36206 0
M  V30 98 C 9.7986 -0.207853 -2.32573 0
M  V30 99 C 10.7796 0.659055 -1.56813 0
M  V30 100 O 11.9646 0.592176 -1.84951 0
M  V30 101 C 9.0946 0.655449 -3.41059 0
M  V30 102 C 8.0486 -0.111842 -4.27854 0
M  V30 103 C 7.3746 0.872274 -5.27537 0
M  V30 104 C 8.6746 -1.30299 -5.05786 0
M  V30 105 H 10.3686 -1.01294 -2.81744 0
M  V30 106 H 7.9146 -0.48854 -1.3546 0
M  V30 107 H 9.8676 1.07464 -4.07467 0
M  V30 108 H 8.5916 1.49328 -2.90463 0
M  V30 109 H 7.2506 -0.512053 -3.63006 0
M  V30 110 H 6.8986 1.70523 -4.73214 0
M  V30 111 H 6.5986 0.363291 -5.86476 0
M  V30 112 H 8.1226 1.28996 -5.96818 0
M  V30 113 H 9.5366 -0.959379 -5.65216 0
M  V30 114 H 7.9336 -1.7455 -5.74154 0
M  V30 115 H 9.0036 -2.09663 -4.37229 0
M  V30 116 N 10.3467 1.47872 -0.545128 0
M  V30 117 C 11.2567 2.33633 0.212746 0
M  V30 118 C 12.2727 1.4744 0.923983 0
M  V30 119 O 13.4487 1.80393 0.895572 0
M  V30 120 C 10.5137 3.23884 1.23693 0
M  V30 121 C 9.5747 4.25961 0.534417 0
M  V30 122 C 8.8077 5.11899 1.5098 0
M  V30 123 O 9.0307 5.00077 2.7437 0
M  V30 124 O 7.9647 5.92831 1.0409 0
M  V30 125 H 11.7907 2.99714 -0.490416 0
M  V30 126 H 9.3757 1.46235 -0.305871 0
M  V30 127 H 11.2577 3.79666 1.82843 0
M  V30 128 H 9.9327 2.60446 1.92222 0
M  V30 129 H 8.8397 3.73972 -0.0979679 0
M  V30 130 H 10.1727 4.92079 -0.109213 0
M  V30 131 N 11.8248 0.280983 1.55075 0
M  V30 132 C 12.7348 -0.61388 2.26426 0
M  V30 133 C 13.7508 -1.16521 1.29224 0
M  V30 134 O 14.9268 -1.19426 1.62171 0
M  V30 135 C 11.9918 -1.7788 2.9759 0
M  V30 136 C 11.0528 -1.26355 4.10284 0
M  V30 137 C 10.2858 -2.37295 4.78045 0
M  V30 138 O 10.5088 -3.56777 4.45047 0
M  V30 139 O 9.4428 -2.05119 5.65871 0
M  V30 140 H 13.2688 -0.0356932 3.03679 0
M  V30 141 H 10.8538 0.0481686 1.49322 0
M  V30 142 H 12.7358 -2.45791 3.42293 0
M  V30 143 H 11.4108 -2.34397 2.23249 0
M  V30 144 H 10.3178 -0.550735 3.70024 0
M  V30 145 H 11.6508 -0.744065 4.86543 0
M  V30 146 N 13.3029 -1.57598 0.00835791 0
M  V30 147 C 14.2329 -2.1198 -0.979113 0
M  V30 148 C 15.2139 -1.03091 -1.35301 0
M  V30 149 O 16.3989 -1.30818 -1.43528 0
M  V30 150 C 13.5289 -2.62995 -2.26828 0
M  V30 151 C 12.4829 -3.76485 -2.03576 0
M  V30 152 C 11.8089 -4.13846 -3.38579 0
M  V30 153 C 13.1089 -5.0342 -1.39161 0
M  V30 154 H 14.8029 -2.94738 -0.526281 0
M  V30 155 H 12.3489 -1.41783 -0.251704 0
M  V30 156 H 14.3019 -2.99669 -2.96271 0
M  V30 157 H 13.0259 -1.7737 -2.7424 0
M  V30 158 H 11.6849 -3.40217 -1.36557 0
M  V30 159 H 11.3329 -3.25232 -3.83709 0
M  V30 160 H 11.0329 -4.90312 -3.23834 0
M  V30 161 H 12.5569 -4.53086 -4.09323 0
M  V30 162 H 13.9709 -5.37812 -1.98573 0
M  V30 163 H 12.3679 -5.84746 -1.34878 0
M  V30 164 H 13.4379 -4.83548 -0.361868 0
M  V30 165 N 14.781 0.264519 -1.55364 0
M  V30 166 C 15.711 1.33121 -1.91836 0
M  V30 167 C 16.692 1.51101 -0.781192 0
M  V30 168 O 17.877 1.64003 -1.04003 0
M  V30 169 C 15.007 2.68921 -2.19769 0
M  V30 170 C 13.961 2.65661 -3.35571 0
M  V30 171 C 13.287 4.05093 -3.49004 0
M  V30 172 C 14.587 2.24187 -4.71739 0
M  V30 173 H 16.281 1.02844 -2.81182 0
M  V30 174 H 13.827 0.493286 -1.35287 0
M  V30 175 H 15.78 3.43663 -2.43872 0
M  V30 176 H 14.504 3.00799 -1.27231 0
M  V30 177 H 13.163 1.93377 -3.1145 0
M  V30 178 H 12.811 4.34206 -2.53917 0
M  V30 179 H 12.511 4.03804 -4.26868 0
M  V30 180 H 14.035 4.81561 -3.75408 0
M  V30 181 H 15.449 2.88654 -4.9533 0
M  V30 182 H 13.846 2.34044 -5.52579 0
M  V30 183 H 14.916 1.19327 -4.69988 0
M  V30 184 N 16.2591 1.48442 0.529413 0
M  V30 185 C 17.1891 1.65902 1.64313 0
M  V30 186 C 18.1701 0.507897 1.6234 0
M  V30 187 O 19.3551 0.740503 1.79528 0
M  V30 188 C 16.4851 1.69911 3.02898 0
M  V30 189 C 15.4391 2.8453 3.19729 0
M  V30 190 C 14.7651 2.73629 4.59381 0
M  V30 191 C 16.0651 4.25821 3.02447 0
M  V30 192 H 17.7591 2.5914 1.49955 0
M  V30 193 H 15.3051 1.24709 0.719982 0
M  V30 194 H 17.2581 1.80715 3.80684 0
M  V30 195 H 15.9821 0.732524 3.18279 0
M  V30 196 H 14.6411 2.73283 2.44361 0
M  V30 197 H 14.2891 1.74938 4.71599 0
M  V30 198 H 13.9891 3.50541 4.71588 0
M  V30 199 H 15.5131 2.86401 5.39265 0
M  V30 200 H 16.9271 4.37898 3.70024 0
M  V30 201 H 15.3241 5.03735 3.26146 0
M  V30 202 H 16.3941 4.42244 1.98867 0
M  V30 203 N 17.7372 -0.778329 1.37039 0
M  V30 204 C 18.6842 -1.89139 1.32269 0
M  V30 205 C 19.6542 -1.65017 0.189387 0
M  V30 206 O 20.8392 -1.87024 0.377693 0
M  V30 207 C 17.9792 -3.26112 1.12894 0
M  V30 208 C 17.0922 -3.62233 2.35396 0
M  V30 209 C 16.2272 -4.8838 2.08946 0
M  V30 210 C 15.2662 -5.17212 3.2735 0
M  V30 211 N 14.4032 -6.34546 3.00492 0
M  V30 212 H 19.2432 -1.92552 2.27437 0
M  V30 213 H 16.7802 -0.941473 1.13025 0
M  V30 214 H 18.7382 -4.05116 0.996835 0
M  V30 215 H 17.3682 -3.22091 0.213758 0
M  V30 216 H 16.4202 -2.78265 2.5937 0
M  V30 217 H 17.7322 -3.79481 3.23721 0
M  V30 218 H 16.8862 -5.75274 1.92729 0
M  V30 219 H 15.6252 -4.73222 1.17949 0
M  V30 220 H 14.6302 -4.28796 3.44113 0
M  V30 221 H 15.8552 -5.34283 4.19188 0
M  V30 222 H 13.8012 -6.20759 2.12118 0
M  V30 223 H 13.7182 -6.52179 3.82358 0
M  V30 224 H 14.9862 -7.24394 2.87879 0
M  V30 225 N 19.2153 -1.21501 -1.00376 0
M  V30 226 C 20.6313 -0.972629 -1.26539 0
M  V30 227 C 20.8313 0.340257 -1.98606 0
M  V30 228 O 19.8873 1.06561 -2.28913 0
M  V30 229 C 21.2003 -2.16404 -2.08781 0
M  V30 230 C 22.7483 -2.20643 -2.22004 0
M  V30 231 C 23.2233 -3.39306 -3.07629 0
M  V30 232 N 24.7143 -3.39401 -3.15217 0
M  V30 233 C 25.4493 -4.27867 -3.81729 0
M  V30 234 N 24.9453 -5.26533 -4.5026 0
M  V30 235 N 26.7383 -4.15672 -3.78382 0
M  V30 236 H 18.8893 -2.05929 -0.520281 0
M  V30 237 H 21.1523 -0.901803 -0.292328 0
M  V30 238 H 20.8583 -3.11554 -1.63178 0
M  V30 239 H 20.7323 -2.15567 -3.09533 0
M  V30 240 H 23.1193 -1.26048 -2.66825 0
M  V30 241 H 23.2003 -2.25523 -1.20718 0
M  V30 242 H 22.8443 -4.34195 -2.63509 0
M  V30 243 H 22.7743 -3.31665 -4.09031 0
M  V30 244 H 25.2653 -2.67997 -2.66432 0
M  V30 245 H 25.5783 -5.90337 -4.98721 0
M  V30 246 H 23.9233 -5.30457 -4.49044 0
M  V30 247 H 27.1143 -3.3785 -3.23998 0
M  V30 248 H 27.2873 -4.84825 -4.2994 0
M  V30 249 N 20.6934 1.19889 -1.02296 0
M  V30 250 C 21.9184 1.9393 -0.735237 0
M  V30 251 C 22.3434 1.74639 0.698782 0
M  V30 252 O 21.7014 1.04481 1.48167 0
M  V30 253 C 21.7494 3.43916 -1.08417 0
M  V30 254 O 20.8534 4.11917 -0.199446 0
M  V30 255 H 20.1944 0.605645 -0.272196 0
M  V30 256 H 22.7244 1.52137 -1.36804 0
M  V30 257 H 22.7344 3.9456 -1.03856 0
M  V30 258 H 21.4094 3.5728 -2.12894 0
M  V30 259 H 19.9864 3.71666 -0.303136 0
M  V30 260 N 22.1715 0.800033 1.35784 0
M  V30 261 C 23.1035 0.163596 2.28615 0
M  V30 262 C 24.1165 -0.633317 1.49976 0
M  V30 263 O 25.3055 -0.466754 1.72289 0
M  V30 264 C 22.4055 -0.790958 3.29541 0
M  V30 265 C 21.5785 -0.0418255 4.3738 0
M  V30 266 C 20.6375 -0.91389 5.18203 0
M  V30 267 O 19.6635 -0.367234 5.68014 0
M  V30 268 N 20.8655 -2.23682 5.35674 0
M  V30 269 H 23.6305 0.96105 2.83873 0
M  V30 270 H 21.1915 0.654894 1.48063 0
M  V30 271 H 23.1835 -1.37844 3.80501 0
M  V30 272 H 21.7535 -1.48925 2.74846 0
M  V30 273 H 20.9735 0.726813 3.87442 0
M  V30 274 H 22.2615 0.474719 5.06581 0
M  V30 275 H 21.6595 -2.70497 4.96838 0
M  V30 276 H 20.2165 -2.77369 5.89839 0
M  V30 277 N 23.6496 -1.47581 0.552962 0
M  V30 278 C 24.5816 -2.27997 -0.234533 0
M  V30 279 C 25.5946 -1.36753 -0.883321 0
M  V30 280 O 26.7836 -1.61612 -0.757889 0
M  V30 281 C 23.8836 -3.10879 -1.34935 0
M  V30 282 C 23.0566 -4.30056 -0.798158 0
M  V30 283 C 22.1156 -4.94567 -1.79694 0
M  V30 284 O 21.1416 -5.53087 -1.34474 0
M  V30 285 N 22.3436 -4.88878 -3.13015 0
M  V30 286 H 25.1086 -2.96222 0.455255 0
M  V30 287 H 22.6696 -1.57163 0.388761 0
M  V30 288 H 24.6616 -3.50903 -2.01616 0
M  V30 289 H 23.2316 -2.44924 -1.94244 0
M  V30 290 H 22.4516 -3.94174 0.0453079 0
M  V30 291 H 23.7396 -5.07152 -0.409173 0
M  V30 292 H 23.1376 -4.42526 -3.52402 0
M  V30 293 H 21.6946 -5.32934 -3.75266 0
M  V30 294 N 25.1277 -0.289203 -1.54924 0
M  V30 295 C 26.0747 0.592115 -2.23075 0
M  V30 296 C 27.0447 1.13881 -1.20915 0
M  V30 297 O 28.2297 1.18551 -1.495 0
M  V30 298 C 25.3697 1.76376 -2.96623 0
M  V30 299 C 24.4827 1.24959 -4.13533 0
M  V30 300 C 23.6177 2.38416 -4.74691 0
M  V30 301 C 22.6567 1.84072 -5.83767 0
M  V30 302 N 21.7937 2.91057 -6.38929 0
M  V30 303 H 26.6337 0.00432038 -2.98 0
M  V30 304 H 24.1707 -0.00963529 -1.47097 0
M  V30 305 H 26.1287 2.45268 -3.3749 0
M  V30 306 H 24.7587 2.32337 -2.24097 0
M  V30 307 H 23.8107 0.453307 -3.77689 0
M  V30 308 H 25.1227 0.811662 -4.92152 0
M  V30 309 H 24.2767 3.15276 -5.18349 0
M  V30 310 H 23.0157 2.8553 -3.95378 0
M  V30 311 H 22.0207 1.05697 -5.39545 0
M  V30 312 H 23.2457 1.37877 -6.64956 0
M  V30 313 H 21.1917 3.37526 -5.62505 0
M  V30 314 H 21.1087 2.51724 -7.12861 0
M  V30 315 H 22.3767 3.6785 -6.87246 0
M  V30 316 N 26.6058 1.57591 -0.0167156 0
M  V30 317 C 27.5528 2.09462 0.969251 0
M  V30 318 C 28.5228 0.99381 1.33089 0
M  V30 319 O 29.7078 1.26726 1.42636 0
M  V30 320 C 26.8478 2.61622 2.25051 0
M  V30 321 C 25.9608 3.85666 1.94642 0
M  V30 322 C 25.0958 4.26266 3.16972 0
M  V30 323 C 24.1348 5.43101 2.82326 0
M  V30 324 N 23.2718 5.78915 3.97243 0
M  V30 325 H 28.1118 2.93428 0.519997 0
M  V30 326 H 25.6488 1.45044 0.245087 0
M  V30 327 H 27.6068 2.89949 2.99976 0
M  V30 328 H 26.2368 1.80505 2.67615 0
M  V30 329 H 25.2888 3.64145 1.10013 0
M  V30 330 H 26.6008 4.70678 1.65117 0
M  V30 331 H 25.7548 4.55963 4.00228 0
M  V30 332 H 24.4938 3.39996 3.49648 0
M  V30 333 H 23.4988 5.1311 1.97479 0
M  V30 334 H 24.7238 6.3106 2.50879 0
M  V30 335 H 22.6698 4.95602 4.29785 0
M  V30 336 H 22.5868 6.58539 3.71299 0
M  V30 337 H 23.8548 6.13212 4.81239 0
M  V30 338 N 28.0839 -0.256276 1.55502 0
M  V30 339 C 29.0309 -1.31714 1.89526 0
M  V30 340 C 30.0009 -1.4828 0.748479 0
M  V30 341 O 31.1859 -1.62416 1.00128 0
M  V30 342 C 28.3259 -2.66933 2.18725 0
M  V30 343 C 27.4389 -2.58452 3.4616 0
M  V30 344 C 26.5739 -3.85961 3.64976 0
M  V30 345 C 25.6129 -3.72059 4.86044 0
M  V30 346 N 24.7499 -4.9144 5.01429 0
M  V30 347 H 29.5899 -1.01998 2.80001 0
M  V30 348 H 27.1269 -0.492413 1.38613 0
M  V30 349 H 29.0849 -3.4563 2.33657 0
M  V30 350 H 27.7149 -2.94816 1.31466 0
M  V30 351 H 26.7669 -1.71374 3.3961 0
M  V30 352 H 28.0789 -2.44085 4.34999 0
M  V30 353 H 27.2329 -4.73101 3.79816 0
M  V30 354 H 25.9719 -4.03215 2.74353 0
M  V30 355 H 24.9769 -2.83302 4.7119 0
M  V30 356 H 26.2019 -3.56309 5.78118 0
M  V30 357 H 24.1479 -5.09072 4.13741 0
M  V30 358 H 24.0649 -4.79668 5.84341 0
M  V30 359 H 25.3329 -5.80104 5.20672 0
M  V30 360 N 29.562 -1.4872 -0.521534 0
M  V30 361 C 30.495 -1.58451 -1.64221 0
M  V30 362 C 31.473 -0.434513 -1.56687 0
M  V30 363 O 32.657 -0.647275 -1.77038 0
M  V30 364 C 29.784 -1.52037 -3.02659 0
M  V30 365 C 28.83 -2.71981 -3.28525 0
M  V30 366 S 29.663 -4.33869 -3.13876 0
M  V30 367 C 30.819 -4.30067 -4.54745 0
M  V30 368 H 31.052 -2.53256 -1.55719 0
M  V30 369 H 28.585 -1.37358 -0.705143 0
M  V30 370 H 30.543 -1.49023 -3.82495 0
M  V30 371 H 29.204 -0.585541 -3.08594 0
M  V30 372 H 28.397 -2.63656 -4.29536 0
M  V30 373 H 27.999 -2.72302 -2.56374 0
M  V30 374 H 30.291 -4.00521 -5.46433 0
M  V30 375 H 31.234 -5.31287 -4.68123 0
M  V30 376 H 31.642 -3.60419 -4.34463 0
M  V30 377 N 31.0401 0.771051 -1.3745 0
M  V30 378 C 32.2651 1.56529 -1.36065 0
M  V30 379 C 32.6901 1.88029 0.0515859 0
M  V30 380 O 32.0481 1.49282 1.02882 0
M  V30 381 C 32.0961 2.85187 -2.20683 0
M  V30 382 O 31.2001 3.79593 -1.61193 0
M  V30 383 H 30.5411 0.47411 -0.464883 0
M  V30 384 H 33.0711 0.954269 -1.80983 0
M  V30 385 H 33.0811 3.34283 -2.33921 0
M  V30 386 H 31.7561 2.61588 -3.23334 0
M  V30 387 H 30.3331 3.38239 -1.56999 0
M  V30 388 N 32.5182 1.22032 0.997298 0
M  V30 389 C 33.9292 1.0397 1.55071 0
M  V30 390 C 34.2802 -0.398192 1.92117 0
M  V30 391 O 33.4052 -1.28254 1.74298 0
M  V30 392 C 34.0002 1.88109 2.81781 0
M  V30 393 C 32.5592 1.74357 3.33581 0
M  V30 394 C 31.7062 1.84846 2.06706 0
M  V30 395 H 34.6572 1.35941 0.818883 0
M  V30 396 H 34.6782 1.39589 3.53971 0
M  V30 397 H 34.1902 2.92754 2.54787 0
M  V30 398 H 32.2912 0.72427 3.65493 0
M  V30 399 H 32.4042 2.56772 4.04481 0
M  V30 400 H 30.7682 1.28238 2.20062 0
M  V30 401 H 31.5512 2.91014 1.82114 0
M  V30 402 N 33.9963 -1.19345 1.0293 0
M  V30 403 C 34.9443 -2.24621 0.604001 0
M  V30 404 C 35.9383 -1.65452 -0.363587 0
M  V30 405 O 37.1443 -1.78497 -0.23212 0
M  V30 406 H 33.5193 -0.730858 0.177061 0
M  V30 407 H 35.4903 -2.5781 1.50255 0
M  V30 408 C 34.2393 -3.47688 -0.0289127 0
M  V30 409 H 33.5623 -3.93505 0.706651 0
M  V30 410 H 35.0023 -4.23011 -0.289432 0
M  V30 411 C 33.4613 -3.11817 -1.2756 0
M  V30 412 O 33.9913 -3.2451 -2.36762 0
M  V30 413 N 32.1973 -2.66246 -1.16453 0
M  V30 414 H 31.7443 -2.56118 -0.275914 0
M  V30 415 H 31.7023 -2.42617 -1.99961 0
M  V30 416 N 35.4744 -0.807222 -1.35358 0
M  V30 417 C 36.4224 -0.20614 -2.31685 0
M  V30 418 C 37.4164 0.644445 -1.56663 0
M  V30 419 O 38.6224 0.537538 -1.71786 0
M  V30 420 H 34.9974 -0.0479006 -0.750473 0
M  V30 421 H 36.9684 -1.03369 -2.79924 0
M  V30 422 C 35.7174 0.630212 -3.41941 0
M  V30 423 H 35.0404 -0.0149558 -3.99797 0
M  V30 424 H 36.4804 1.01716 -4.11619 0
M  V30 425 C 34.9394 1.79601 -2.85035 0
M  V30 426 O 35.4694 2.89351 -2.78637 0
M  V30 427 N 33.6754 1.60774 -2.42074 0
M  V30 428 H 33.2224 0.715009 -2.47478 0
M  V30 429 H 33.1804 2.38933 -2.04349 0
M  V30 430 N 36.9525 1.47285 -0.560781 0
M  V30 431 C 38.1825 2.06555 -0.0429638 0
M  V30 432 C 38.5905 1.41339 1.25777 0
M  V30 433 O 37.9335 0.505182 1.76617 0
M  V30 434 C 37.9955 3.58827 0.219887 0
M  V30 435 C 37.6595 4.46105 -0.991944 0
M  V30 436 C 38.6565 4.84 -1.89843 0
M  V30 437 C 36.3415 4.87567 -1.20762 0
M  V30 438 C 38.3355 5.6216 -3.00425 0
M  V30 439 C 36.0225 5.65491 -2.31653 0
M  V30 440 C 37.0205 6.02699 -3.21315 0
M  V30 441 O 36.7085 6.79052 -4.30283 0
M  V30 442 H 36.4405 0.674537 -0.0444468 0
M  V30 443 H 38.9945 1.90225 -0.774818 0
M  V30 444 H 37.2245 3.73383 1.00609 0
M  V30 445 H 38.9135 4.00103 0.683522 0
M  V30 446 H 39.6795 4.52564 -1.74387 0
M  V30 447 H 35.5585 4.5807 -0.518893 0
M  V30 448 H 39.1025 5.9112 -3.70436 0
M  V30 449 H 34.9995 5.9634 -2.47081 0
M  V30 450 H 35.7675 6.9745 -4.28376 0
M  V30 451 N 38.4306 0.297415 1.54768 0
M  V30 452 C 39.3776 -0.580276 2.23386 0
M  V30 453 C 40.3476 -1.13238 1.21517 0
M  V30 454 O 41.5326 -1.17757 1.50126 0
M  V30 455 C 38.6726 -1.74801 2.97555 0
M  V30 456 C 37.7856 -1.22764 4.1419 0
M  V30 457 C 36.9206 -2.35895 4.75949 0
M  V30 458 C 35.9596 -1.80974 5.84735 0
M  V30 459 N 35.0966 -2.87664 6.40464 0
M  V30 460 H 39.9366 0.0114833 2.97998 0
M  V30 461 H 37.4736 0.0174361 1.4709 0
M  V30 462 H 39.4316 -2.43475 3.38786 0
M  V30 463 H 38.0616 -2.31145 2.25326 0
M  V30 464 H 37.1136 -0.433271 3.77924 0
M  V30 465 H 38.4256 -0.785551 4.92575 0
M  V30 466 H 37.5796 -3.12523 5.20014 0
M  V30 467 H 36.3186 -2.83429 3.96887 0
M  V30 468 H 35.3236 -1.02834 5.40097 0
M  V30 469 H 36.5486 -1.34348 6.65678 0
M  V30 470 H 34.4946 -3.34538 5.64287 0
M  V30 471 H 34.4116 -2.4794 7.14186 0
M  V30 472 H 35.6796 -3.642 6.89187 0
M  V30 473 N 39.9087 -1.5758 0.0250728 0
M  V30 474 C 40.8187 -2.1343 -0.973905 0
M  V30 475 C 41.8347 -1.08556 -1.35984 0
M  V30 476 O 43.0107 -1.40592 -1.44207 0
M  V30 477 C 40.0757 -2.64703 -2.23904 0
M  V30 478 C 39.1367 -3.84276 -1.91391 0
M  V30 479 C 38.3697 -4.33095 -3.11873 0
M  V30 480 O 38.5927 -3.81107 -4.24398 0
M  V30 481 O 37.5267 -5.24984 -2.94406 0
M  V30 482 H 41.3527 -2.99057 -0.529036 0
M  V30 483 H 38.9377 -1.48118 -0.195288 0
M  V30 484 H 40.8197 -2.97769 -2.98181 0
M  V30 485 H 39.4947 -1.82161 -2.6758 0
M  V30 486 H 38.4017 -3.56143 -1.14511 0
M  V30 487 H 39.7347 -4.67968 -1.52534 0
M  V30 488 N 41.3868 0.248026 -1.55636 0
M  V30 489 C 42.8028 0.596483 -1.48035 0
M  V30 490 C 43.0028 1.88386 -0.715039 0
M  V30 491 O 42.0588 2.51319 -0.243944 0
M  V30 492 C 43.3718 0.700258 -2.92433 0
M  V30 493 C 44.9198 0.792659 -3.02797 0
M  V30 494 C 45.3948 0.928005 -4.485 0
M  V30 495 N 46.8858 0.992903 -4.52433 0
M  V30 496 C 47.6208 1.11687 -5.62418 0
M  V30 497 N 47.1168 1.20645 -6.82214 0
M  V30 498 N 48.9098 1.14994 -5.50212 0
M  V30 499 H 41.0608 -0.597109 -2.03834 0
M  V30 500 H 43.3238 -0.205925 -0.925364 0
M  V30 501 H 43.0298 -0.175658 -3.51261 0
M  V30 502 H 42.9038 1.57255 -3.42857 0
M  V30 503 H 45.2908 1.65903 -2.4405 0
M  V30 504 H 45.3718 -0.104762 -2.55585 0
M  V30 505 H 45.0158 0.0661971 -5.07857 0
M  V30 506 H 44.9458 1.84045 -4.93391 0
M  V30 507 H 47.4368 0.935064 -3.66149 0
M  V30 508 H 47.7498 1.30008 -7.61786 0
M  V30 509 H 46.0948 1.17605 -6.84977 0
M  V30 510 H 49.2858 1.07643 -4.55555 0
M  V30 511 H 49.4588 1.24311 -6.35965 0
M  V30 512 N 42.8649 1.48995 0.513639 0
M  V30 513 C 43.7949 1.67636 1.62544 0
M  V30 514 C 44.7759 0.525087 1.61793 0
M  V30 515 O 45.9609 0.759502 1.78732 0
M  V30 516 C 43.0909 1.73114 3.01079 0
M  V30 517 C 42.0449 2.87905 3.16693 0
M  V30 518 C 41.3709 2.78486 4.56453 0
M  V30 519 C 42.6709 4.29005 2.97913 0
M  V30 520 H 44.3649 2.60716 1.47198 0
M  V30 521 H 41.9109 1.25465 0.706714 0
M  V30 522 H 43.8639 1.84742 3.78746 0
M  V30 523 H 42.5879 0.766241 3.17484 0
M  V30 524 H 41.2469 2.75859 2.41448 0
M  V30 525 H 40.8949 1.7993 4.69717 0
M  V30 526 H 40.5949 3.55523 4.67843 0
M  V30 527 H 42.1189 2.92104 5.36197 0
M  V30 528 H 43.5329 4.41798 3.65359 0
M  V30 529 H 41.9299 5.07166 3.20785 0
M  V30 530 H 42.9999 4.44329 1.94165 0
M  V30 531 N 44.343 -0.763751 1.37857 0
M  V30 532 C 45.59 -1.52257 1.33506 0
M  V30 533 C 45.918 -1.94343 -0.078022 0
M  V30 534 O 45.173 -1.64958 -1.05297 0
M  V30 535 C 45.472 -2.79499 2.22745 0
M  V30 536 C 45.138 -2.56426 3.70886 0
M  V30 537 C 43.8 -2.49842 4.11257 0
M  V30 538 C 46.152 -2.36008 4.64704 0
M  V30 539 C 43.48 -2.20841 5.43549 0
M  V30 540 C 45.832 -2.0853 5.97242 0
M  V30 541 C 44.496 -2.00396 6.36709 0
M  V30 542 H 43.766 -0.557149 0.488534 0
M  V30 543 H 46.413 -0.879073 1.70131 0
M  V30 544 H 44.718 -3.48447 1.79142 0
M  V30 545 H 46.415 -3.37413 2.16688 0
M  V30 546 H 43.005 -2.62416 3.38874 0
M  V30 547 H 47.189 -2.40079 4.34368 0
M  V30 548 H 42.445 -2.13045 5.73081 0
M  V30 549 H 46.619 -1.91732 6.69486 0
M  V30 550 H 44.246 -1.77688 7.39142 0
M  V30 551 N 45.8211 -1.22559 -0.990812 0
M  V30 552 C 47.0671 -1.05297 -1.73322 0
M  V30 553 C 47.4001 0.410655 -1.89808 0
M  V30 554 O 46.6751 1.30439 -1.44277 0
M  V30 555 C 46.9581 -1.76713 -3.13759 0
M  V30 556 C 46.8111 -3.30684 -3.04907 0
M  V30 557 C 48.1301 -1.52121 -4.12974 0
M  V30 558 H 45.2491 -0.38392 -0.629106 0
M  V30 559 H 47.8911 -1.50926 -1.15418 0
M  V30 560 H 46.0411 -1.37924 -3.63193 0
M  V30 561 H 47.7131 -3.7893 -2.63077 0
M  V30 562 H 45.9561 -3.60253 -2.41661 0
M  V30 563 H 46.6271 -3.75833 -4.04294 0
M  V30 564 H 49.1031 -1.85819 -3.72304 0
M  V30 565 H 47.9791 -2.04582 -5.0935 0
M  V30 566 H 48.2401 -0.454257 -4.3976 0
M  V30 567 N 47.2992 1.18797 -1.03562 0
M  V30 568 C 48.2292 2.24472 -0.643019 0
M  V30 569 C 49.2102 1.66433 0.351283 0
M  V30 570 O 50.3952 1.92803 0.232505 0
M  V30 571 C 47.5252 3.473 4.24935e-05 0
M  V30 572 C 46.4792 4.18055 -0.917257 0
M  V30 573 C 45.8052 5.34519 -0.138941 0
M  V30 574 C 47.1052 4.72109 -2.23407 0
M  V30 575 H 48.7992 2.57566 -1.52643 0
M  V30 576 H 46.3452 1.23806 -0.735394 0
M  V30 577 H 48.2982 4.20426 0.286383 0
M  V30 578 H 47.0222 3.13424 0.918299 0
M  V30 579 H 45.6812 3.46821 -1.1879 0
M  V30 580 H 45.3292 4.96891 0.781562 0
M  V30 581 H 45.0292 5.82794 -0.750005 0
M  V30 582 H 46.5532 6.10438 0.1405 0
M  V30 583 H 47.9672 5.36955 -2.00879 0
M  V30 584 H 46.3642 5.30897 -2.79765 0
M  V30 585 H 47.4342 3.89807 -2.88407 0
M  V30 586 N 48.7773 0.814389 1.34928 0
M  V30 587 C 50.0053 0.411136 2.02774 0
M  V30 588 C 50.4203 -0.980316 1.61354 0
M  V30 589 O 49.7773 -1.63299 0.814847 0
M  V30 590 C 49.8283 0.493865 3.58111 0
M  V30 591 O 49.5493 1.83047 3.98027 0
M  V30 592 C 51.0503 0.0844174 4.4322 0
M  V30 593 H 48.2703 0.166037 0.650133 0
M  V30 594 H 50.8143 1.10018 1.72384 0
M  V30 595 H 48.9693 -0.147006 3.87121 0
M  V30 596 H 49.3833 1.79872 4.92693 0
M  V30 597 H 50.8573 0.193404 5.51661 0
M  V30 598 H 51.3343 -0.97113 4.28329 0
M  V30 599 H 51.9403 0.69875 4.19521 0
M  V30 600 N 50.2554 -1.46986 0.568584 0
M  V30 601 C 51.2024 -2.30153 -0.172707 0
M  V30 602 C 52.1724 -1.39759 -0.897586 0
M  V30 603 O 53.3574 -1.68716 -0.891044 0
M  V30 604 C 50.4974 -3.23952 -1.1895 0
M  V30 605 C 49.6104 -4.29441 -0.469517 0
M  V30 606 C 48.7454 -5.1038 -1.47259 0
M  V30 607 C 47.7844 -6.07632 -0.738225 0
M  V30 608 N 46.9214 -6.8149 -1.68868 0
M  V30 609 H 51.7614 -2.93019 0.542596 0
M  V30 610 H 49.2984 -1.44422 0.279401 0
M  V30 611 H 51.2564 -3.76767 -1.79173 0
M  V30 612 H 49.8864 -2.62926 -1.87269 0
M  V30 613 H 48.9384 -3.79594 0.247467 0
M  V30 614 H 50.2504 -4.98689 0.105241 0
M  V30 615 H 49.4044 -5.67402 -2.14803 0
M  V30 616 H 48.1434 -4.4106 -2.08128 0
M  V30 617 H 47.1484 -5.49778 -0.0489293 0
M  V30 618 H 48.3734 -6.78966 -0.135129 0
M  V30 619 H 46.3194 -6.14891 -2.28573 0
M  V30 620 H 46.2364 -7.46948 -1.16636 0
M  V30 621 H 47.5044 -7.43078 -2.3549 0
M  V30 622 N 51.7335 -0.305618 -1.54608 0
M  V30 623 C 52.9615 0.304775 -2.04643 0
M  V30 624 C 53.3765 1.47167 -1.18268 0
M  V30 625 O 52.7335 1.81296 -0.209328 0
M  V30 626 C 52.7845 0.756564 -3.53495 0
M  V30 627 O 52.5055 -0.36389 -4.36586 0
M  V30 628 C 54.0065 1.43163 -4.19546 0
M  V30 629 H 51.2265 0.0655481 -0.667791 0
M  V30 630 H 53.7705 -0.446592 -1.99564 0
M  V30 631 H 51.9255 1.45794 -3.58919 0
M  V30 632 H 52.3395 -0.0113121 -5.24499 0
M  V30 633 H 53.8135 1.69886 -5.25207 0
M  V30 634 H 54.2905 2.37318 -3.69563 0
M  V30 635 H 54.8965 0.773307 -4.18211 0
M  V30 636 N 53.2116 1.57565 -0.0334293 0
M  V30 637 C 54.1596 2.1164 0.96496 0
M  V30 638 C 55.1536 1.04398 1.33407 0
M  V30 639 O 56.3596 1.22828 1.3158 0
M  V30 640 H 52.7346 0.676222 0.32898 0
M  V30 641 H 54.7056 2.94455 0.483614 0
M  V30 642 C 53.4546 2.66207 2.23672 0
M  V30 643 H 52.7776 3.48378 1.96145 0
M  V30 644 H 54.2176 3.07685 2.9173 0
M  V30 645 C 52.6766 1.59151 2.96939 0
M  V30 646 O 53.2066 0.993858 3.89211 0
M  V30 647 N 51.4126 1.31093 2.59351 0
M  V30 648 H 50.9596 1.7988 1.84393 0
M  V30 649 H 50.9176 0.596889 3.08682 0
M  V30 650 N 54.6897 -0.239769 1.55765 0
M  V30 651 C 55.6197 -1.30052 1.9393 0
M  V30 652 C 56.6007 -1.49839 0.805132 0
M  V30 653 O 57.7857 -1.62328 1.06599 0
M  V30 654 C 54.9157 -2.65391 2.2402 0
M  V30 655 C 53.8697 -2.60289 3.39755 0
M  V30 656 C 53.1957 -3.99489 3.55405 0
M  V30 657 C 54.4957 -2.16654 4.75246 0
M  V30 658 H 56.1897 -0.983573 2.82783 0
M  V30 659 H 53.7357 -0.471701 1.36055 0
M  V30 660 H 55.6887 -3.3974 2.49308 0
M  V30 661 H 54.4127 -2.98736 1.32 0
M  V30 662 H 53.0717 -1.88398 3.14487 0
M  V30 663 H 52.7197 -4.30112 2.60793 0
M  V30 664 H 52.4197 -3.96962 4.33238 0
M  V30 665 H 53.9437 -4.75528 3.83022 0
M  V30 666 H 55.3577 -2.80737 4.99859 0
M  V30 667 H 53.7547 -2.25223 5.56232 0
M  V30 668 H 54.8247 -1.11835 4.71827 0
M  V30 669 N 56.1678 -1.49265 -0.50573 0
M  V30 670 C 57.3928 -1.62478 -1.28902 0
M  V30 671 C 57.8178 -0.294332 -1.85783 0
M  V30 672 O 57.1758 0.737412 -1.65626 0
M  V30 673 C 57.2238 -2.69268 -2.39848 0
M  V30 674 O 56.3278 -2.28113 -3.43567 0
M  V30 675 H 55.6688 -0.54399 -0.380751 0
M  V30 676 H 58.1988 -1.95421 -0.605952 0
M  V30 677 H 58.2088 -2.91291 -2.85681 0
M  V30 678 H 56.8838 -3.65846 -1.97812 0
M  V30 679 H 55.4608 -2.16401 -3.03685 0
M  V30 680 N 57.6459 0.756429 -1.3826 0
M  V30 681 C 58.8759 1.54341 -1.3734 0
M  V30 682 C 59.2839 1.89159 0.0393917 0
M  V30 683 O 58.6269 1.5307 1.01565 0
M  V30 684 C 58.6889 2.87238 -2.16182 0
M  V30 685 C 58.3529 2.74973 -3.65019 0
M  V30 686 C 59.3499 2.44962 -4.58574 0
M  V30 687 C 57.0349 2.92515 -4.08338 0
M  V30 688 C 59.0289 2.32642 -5.93428 0
M  V30 689 C 56.7159 2.79815 -5.43274 0
M  V30 690 C 57.7139 2.49921 -6.35632 0
M  V30 691 O 57.4019 2.37275 -7.68086 0
M  V30 692 H 57.1339 0.484281 -0.471643 0
M  V30 693 H 59.6879 0.944152 -1.82414 0
M  V30 694 H 57.9179 3.49342 -1.65822 0
M  V30 695 H 59.6069 3.48731 -2.07705 0
M  V30 696 H 60.3729 2.31081 -4.26412 0
M  V30 697 H 56.2519 3.14781 -3.368 0
M  V30 698 H 59.7959 2.0923 -6.65484 0
M  V30 699 H 55.6929 2.93269 -5.75034 0
M  V30 700 H 56.4609 2.52509 -7.78577 0
M  V30 701 N 59.124 1.23083 0.984299 0
M  V30 702 C 60.354 1.08556 1.75781 0
M  V30 703 C 60.762 -0.366171 1.85623 0
M  V30 704 O 60.105 -1.26524 1.33182 0
M  V30 705 C 60.167 1.63208 3.20318 0
M  V30 706 C 59.831 3.11922 3.33997 0
M  V30 707 C 60.828 4.09259 3.2063 0
M  V30 708 C 58.513 3.51552 3.58771 0
M  V30 709 C 60.507 5.4421 3.31835 0
M  V30 710 C 58.194 4.86649 3.69616 0
M  V30 711 C 59.192 5.82787 3.56157 0
M  V30 712 O 58.88 7.15431 3.66626 0
M  V30 713 H 58.612 0.380713 0.5586 0
M  V30 714 H 61.166 1.63321 1.2456 0
M  V30 715 H 59.396 1.0286 3.72769 0
M  V30 716 H 61.085 1.44216 3.79416 0
M  V30 717 H 61.851 3.79984 3.01392 0
M  V30 718 H 57.73 2.77239 3.6832 0
M  V30 719 H 61.274 6.1923 3.21247 0
M  V30 720 H 57.171 5.15601 3.88363 0
M  V30 721 H 57.939 7.23127 3.83445 0
M  V30 722 N 60.6021 -1.18246 1.0419 0
M  V30 723 C 61.5121 -2.25574 0.644476 0
M  V30 724 C 62.5281 -1.70845 -0.329826 0
M  V30 725 O 63.7041 -2.00554 -0.184443 0
M  V30 726 C 60.7691 -3.46697 0.014877 0
M  V30 727 C 59.8301 -4.16554 1.03834 0
M  V30 728 C 59.0631 -5.31894 0.438692 0
M  V30 729 O 59.2861 -5.65385 -0.754752 0
M  V30 730 O 58.2201 -5.90459 1.168 0
M  V30 731 H 62.0461 -2.61836 1.53869 0
M  V30 732 H 59.6311 -1.25352 0.812854 0
M  V30 733 H 61.5131 -4.20062 -0.335538 0
M  V30 734 H 60.1881 -3.12255 -0.853138 0
M  V30 735 H 59.0951 -3.45251 1.44057 0
M  V30 736 H 60.4281 -4.54998 1.87716 0
M  V30 737 N 62.0802 -0.821533 -1.34494 0
M  V30 738 C 63.3102 -0.421272 -2.02259 0
M  V30 739 C 63.7182 0.977047 -1.6202 0
M  V30 740 O 63.0612 1.64348 -0.820703 0
M  V30 741 C 63.1232 -0.44231 -3.56769 0
M  V30 742 C 62.7872 -1.79372 -4.20327 0
M  V30 743 C 63.7842 -2.75435 -4.40944 0
M  V30 744 C 61.4692 -2.08182 -4.57127 0
M  V30 745 C 63.4632 -3.98482 -4.97484 0
M  V30 746 C 61.1502 -3.31489 -5.13379 0
M  V30 747 C 62.1482 -4.26457 -5.33501 0
M  V30 748 O 61.8362 -5.47585 -5.88562 0
M  V30 749 H 61.5682 -0.167473 -0.654927 0
M  V30 750 H 64.1222 -1.11073 -1.72777 0
M  V30 751 H 62.3522 0.303836 -3.85505 0
M  V30 752 H 64.0412 -0.0622925 -4.05852 0
M  V30 753 H 64.8072 -2.54473 -4.12878 0
M  V30 754 H 60.6862 -1.35066 -4.4077 0
M  V30 755 H 64.2302 -4.72618 -5.13106 0
M  V30 756 H 60.1272 -3.52316 -5.40873 0
M  V30 757 H 60.8952 -5.49086 -6.06998 0
M  V30 758 N 63.5583 1.46682 -0.576371 0
M  V30 759 C 64.8353 1.95599 0.00703437 0
M  V30 760 C 65.2153 1.51904 1.46589 0
M  V30 761 O 64.5633 0.766755 2.15251 0
M  V30 762 C 64.7733 3.4864 -0.158404 0
M  V30 763 C 66.1213 4.24594 -0.0229439 0
M  V30 764 O 67.1453 3.56094 -0.0869173 0
M  V30 765 O 66.0043 5.46373 0.118015 0
M  V30 766 H 63.0983 0.825275 0.053384 0
M  V30 767 H 65.6443 1.56996 -0.644244 0
M  V30 768 H 64.4163 3.7331 -1.17282 0
M  V30 769 H 64.0393 3.94057 0.5296 0
M  V30 770 N 65.0364 0.313813 1.54444 0
M  V30 771 C 65.9834 -0.55655 2.23989 0
M  V30 772 C 66.9534 -1.11943 1.22711 0
M  V30 773 O 68.1384 -1.16158 1.51367 0
M  V30 774 C 65.2784 -1.71635 2.99392 0
M  V30 775 C 64.3914 -1.18364 4.15468 0
M  V30 776 C 63.5264 -2.30834 4.78424 0
M  V30 777 C 62.5654 -1.74762 5.86622 0
M  V30 778 N 61.7024 -2.80855 6.43479 0
M  V30 779 H 66.5424 0.0430893 2.97969 0
M  V30 780 H 64.0794 0.0330359 1.47063 0
M  V30 781 H 66.0374 -2.39868 3.41349 0
M  V30 782 H 64.6674 -2.28742 2.27765 0
M  V30 783 H 63.7194 -0.393163 3.78363 0
M  V30 784 H 65.0314 -0.733262 4.93381 0
M  V30 785 H 64.1854 -3.0699 5.23299 0
M  V30 786 H 62.9244 -2.79204 3.99871 0
M  V30 787 H 61.9294 -0.970995 5.41158 0
M  V30 788 H 63.1544 -1.2728 6.67066 0
M  V30 789 H 61.1004 -3.28535 5.67804 0
M  V30 790 H 61.0174 -2.40351 7.16776 0
M  V30 791 H 62.2854 -3.5687 6.93011 0
M  V30 792 N 66.5145 -1.57545 0.0417849 0
M  V30 793 C 67.4475 -2.06514 -0.970928 0
M  V30 794 C 68.4255 -0.963607 -1.30971 0
M  V30 795 O 69.6095 -1.23486 -1.4242 0
M  V30 796 C 66.7365 -2.4978 -2.28752 0
M  V30 797 C 65.7825 -3.71078 -2.10246 0
M  V30 798 S 66.6155 -5.17158 -1.38952 0
M  V30 799 C 67.7715 -5.6373 -2.71954 0
M  V30 800 H 68.0045 -2.9209 -0.554129 0
M  V30 801 H 65.5375 -1.53459 -0.17024 0
M  V30 802 H 67.4955 -2.75371 -3.04435 0
M  V30 803 H 66.1565 -1.64527 -2.67562 0
M  V30 804 H 65.3495 -3.9924 -3.07609 0
M  V30 805 H 64.9515 -3.45705 -1.42704 0
M  V30 806 H 67.2435 -5.68743 -3.68154 0
M  V30 807 H 68.1865 -6.63086 -2.4844 0
M  V30 808 H 68.5945 -4.91424 -2.77782 0
M  V30 809 N 67.9926 0.231505 -1.5589 0
M  V30 810 C 68.9396 1.28682 -1.91598 0
M  V30 811 C 69.9096 1.47071 -0.771974 0
M  V30 812 O 71.0946 1.60802 -1.027 0
M  V30 813 C 68.2346 2.6342 -2.22944 0
M  V30 814 C 67.3476 2.52912 -3.50228 0
M  V30 815 C 66.4826 3.80106 -3.7107 0
M  V30 816 C 65.5216 3.64279 -4.91902 0
M  V30 817 N 64.6586 4.834 -5.09184 0
M  V30 818 H 69.4986 0.975305 -2.81588 0
M  V30 819 H 67.0356 0.470299 -1.39379 0
M  V30 820 H 68.9936 3.41869 -2.39126 0
M  V30 821 H 67.6236 2.92687 -1.36139 0
M  V30 822 H 66.6756 1.6595 -3.42294 0
M  V30 823 H 67.9876 2.37133 -4.38827 0
M  V30 824 H 67.1416 4.66999 -3.87295 0
M  V30 825 H 65.8806 3.98799 -2.80733 0
M  V30 826 H 64.8856 2.7577 -4.75637 0
M  V30 827 H 66.1106 3.47067 -5.83714 0
M  V30 828 H 64.0566 5.02425 -4.21788 0
M  V30 829 H 63.9736 4.70311 -5.91898 0
M  V30 830 H 65.2416 5.71747 -5.29835 0
M  V30 831 N 69.4707 1.49531 0.497807 0
M  V30 832 C 70.8867 1.36365 0.829266 0
M  V30 833 C 71.0867 0.399184 1.97506 0
M  V30 834 O 70.1427 -0.167977 2.51941 0
M  V30 835 C 71.4557 2.77153 1.16647 0
M  V30 836 C 73.0037 2.85877 1.27449 0
M  V30 837 C 73.4787 4.2744 1.64497 0
M  V30 838 N 74.9697 4.30265 1.7154 0
M  V30 839 C 75.7047 5.3677 2.01656 0
M  V30 840 N 75.2007 6.53516 2.29976 0
M  V30 841 N 76.9937 5.24189 2.02934 0
M  V30 842 H 69.1447 2.10831 -0.257703 0
M  V30 843 H 71.4077 0.946534 -0.0527091 0
M  V30 844 H 71.1137 3.49442 0.397872 0
M  V30 845 H 70.9877 3.12722 2.10915 0
M  V30 846 H 73.3747 2.13824 2.0338 0
M  V30 847 H 73.4557 2.53887 0.312244 0
M  V30 848 H 73.0997 5.00021 0.891151 0
M  V30 849 H 73.0297 4.56896 2.61827 0
M  V30 850 H 75.5207 3.4607 1.51802 0
M  V30 851 H 75.8337 7.30506 2.52153 0
M  V30 852 H 74.1787 6.56737 2.27425 0
M  V30 853 H 77.3697 4.31988 1.80289 0
M  V30 854 H 77.5427 6.07286 2.26071 0
M  V30 855 N 70.9488 -0.749086 1.3866 0
M  V30 856 C 72.1968 -1.50535 1.34847 0
M  V30 857 C 72.5178 -1.94909 -0.0595016 0
M  V30 858 O 71.7878 -1.67973 -1.00806 0
M  V30 859 H 70.3678 -0.558395 0.49619 0
M  V30 860 H 73.0298 -0.890165 1.73384 0
M  V30 861 H 72.1258 -2.39413 2.00219 0
M  V30 862 N 72.4269 -1.23603 -0.977757 0
M  V30 863 C 73.6519 -1.09735 -1.75991 0
M  V30 864 C 74.0769 0.346858 -1.84874 0
M  V30 865 O 73.4349 1.25093 -1.3123 0
M  V30 866 C 73.4829 -1.73051 -3.16363 0
M  V30 867 O 72.5869 -0.994452 -4.0023 0
M  V30 868 H 71.9279 -0.384476 -0.541364 0
M  V30 869 H 74.4579 -1.6371 -1.2272 0
M  V30 870 H 74.4679 -1.78398 -3.66931 0
M  V30 871 H 73.1429 -2.78137 -3.09213 0
M  V30 872 H 71.7199 -1.01812 -3.58732 0
M  V30 873 N 73.905 1.17692 -1.04816 0
M  V30 874 C 75.321 1.39863 -0.768794 0
M  V30 875 C 75.521 1.91118 0.638451 0
M  V30 876 O 74.577 2.10036 1.40146 0
M  V30 877 C 75.89 2.39274 -1.82122 0
M  V30 878 C 77.438 2.52987 -1.843 0
M  V30 879 C 77.913 3.55669 -2.88555 0
M  V30 880 N 79.404 3.63183 -2.87493 0
M  V30 881 C 80.139 4.42381 -3.64811 0
M  V30 882 N 79.635 5.25125 -4.51903 0
M  V30 883 N 81.428 4.37217 -3.53267 0
M  V30 884 H 73.579 0.82752 -1.95617 0
M  V30 885 H 75.842 0.426123 -0.846831 0
M  V30 886 H 75.548 2.08678 -2.83102 0
M  V30 887 H 75.422 3.38725 -1.65967 0
M  V30 888 H 77.809 2.82896 -0.839869 0
M  V30 889 H 77.89 1.53623 -2.04532 0
M  V30 890 H 77.534 3.26499 -3.89051 0
M  V30 891 H 77.464 4.54728 -2.65575 0
M  V30 892 H 79.955 3.04103 -2.24343 0
M  V30 893 H 80.268 5.82728 -5.07591 0
M  V30 894 H 78.613 5.24519 -4.55966 0
M  V30 895 H 81.804 3.71626 -2.84625 0
M  V30 896 H 81.977 4.98696 -4.13771 0
M  V30 897 N 75.3831 0.828654 1.34056 0
M  V30 898 C 76.3301 0.252567 2.29414 0
M  V30 899 C 77.3001 -0.62588 1.53857 0
M  V30 900 O 78.4851 -0.566312 1.82202 0
M  V30 901 C 75.6251 -0.574831 3.40279 0
M  V30 902 C 74.7381 0.326499 4.30764 0
M  V30 903 C 73.8731 -0.511016 5.28736 0
M  V30 904 C 72.9121 0.389342 6.1086 0
M  V30 905 N 72.0491 -0.409439 7.00905 0
M  V30 906 H 76.8891 1.07108 2.78086 0
M  V30 907 H 74.4261 0.539677 1.36843 0
M  V30 908 H 76.3841 -1.06992 4.03248 0
M  V30 909 H 75.0141 -1.35841 2.92826 0
M  V30 910 H 74.0661 0.939837 3.68607 0
M  V30 911 H 75.3781 1.01857 4.88289 0
M  V30 912 H 74.5321 -1.07035 5.97184 0
M  V30 913 H 73.2711 -1.23657 4.71763 0
M  V30 914 H 72.2761 0.960769 5.4134 0
M  V30 915 H 73.5011 1.1131 6.69916 0
M  V30 916 H 71.4471 -1.11856 6.46393 0
M  V30 917 H 71.3641 0.224126 7.55668 0
M  V30 918 H 72.6321 -0.951336 7.73673 0
M  V30 919 N 76.8612 -1.46375 0.584142 0
M  V30 920 C 78.1092 -2.01978 0.0701287 0
M  V30 921 C 78.4302 -1.4579 -1.295 0
M  V30 922 O 77.7002 -0.64314 -1.85042 0
M  V30 923 H 76.2802 -0.746648 0.0229345 0
M  V30 924 H 78.9422 -1.79461 0.760245 0
M  V30 925 H 78.0382 -3.121 0.0022064 0
M  V30 926 N 78.3393 -0.321999 -1.54275 0
M  V30 927 C 79.5643 0.285791 -2.05422 0
M  V30 928 C 79.9893 1.45124 -1.19669 0
M  V30 929 O 79.3473 1.80132 -0.205441 0
M  V30 930 C 79.3953 0.69956 -3.53749 0
M  V30 931 O 78.4993 1.8021 -3.70942 0
M  V30 932 H 77.8403 0.0518962 -0.661969 0
M  V30 933 H 80.3703 -0.469954 -1.9913 0
M  V30 934 H 80.3803 0.982649 -3.9599 0
M  V30 935 H 79.0553 -0.152864 -4.15619 0
M  V30 936 H 77.6323 1.51794 -3.40607 0
M  V30 937 N 79.8174 1.5752 -0.0501392 0
M  V30 938 C 81.0664 1.91827 0.623328 0
M  V30 939 C 81.3794 0.930222 1.72065 0
M  V30 940 O 82.5854 1.1653 2.4522 0
M  V30 941 C 81.0414 3.40692 1.16003 0
M  V30 942 C 80.6494 4.479 0.0948811 0
M  V30 943 C 82.3934 3.84034 1.80881 0
M  V30 944 C 80.3004 5.87879 0.644411 0
M  V30 945 H 79.2304 0.715918 0.236596 0
M  V30 946 H 81.8814 1.83115 -0.118861 0
M  V30 947 H 80.2634 3.44405 1.9545 0
M  V30 948 H 81.4374 4.55775 -0.678675 0
M  V30 949 H 79.7524 4.13892 -0.45637 0
M  V30 950 H 82.3494 4.85984 2.22988 0
M  V30 951 H 82.6924 3.20225 2.6601 0
M  V30 952 H 83.2254 3.82833 1.0809 0
M  V30 953 H 79.9644 6.55282 -0.169229 0
M  V30 954 H 79.4844 5.83567 1.38598 0
M  V30 955 H 81.1634 6.37098 1.12763 0
M  V30 956 N 81.2955 -0.223234 1.56011 0
M  V30 957 C 82.2055 -1.29766 1.95443 0
M  V30 958 C 83.2215 -1.51373 0.858028 0
M  V30 959 O 84.3975 -1.64536 1.16146 0
M  V30 960 C 81.4625 -2.62772 2.26167 0
M  V30 961 C 80.5235 -2.49482 3.49367 0
M  V30 962 C 79.7565 -3.76145 3.78616 0
M  V30 963 O 79.9795 -4.79087 3.09568 0
M  V30 964 O 78.9135 -3.73358 4.72109 0
M  V30 965 H 82.7395 -0.99309 2.87004 0
M  V30 966 H 80.3245 -0.425958 1.43199 0
M  V30 967 H 82.2065 -3.41327 2.47131 0
M  V30 968 H 80.8815 -2.92913 1.37781 0
M  V30 969 H 79.7885 -1.69133 3.33684 0
M  V30 970 H 81.1215 -2.2428 4.38131 0
M  V30 971 N 82.7736 -1.49793 -0.48987 0
M  V30 972 C 84.0226 -1.59085 -1.23995 0
M  V30 973 C 84.3356 -0.287907 -1.9347 0
M  V30 974 O 85.5416 -0.259506 -2.70257 0
M  V30 975 C 83.9976 -2.80736 -2.252 0
M  V30 976 C 83.6056 -4.17833 -1.61614 0
M  V30 977 C 85.3496 -2.99364 -3.00967 0
M  V30 978 C 83.2566 -5.30693 -2.60996 0
M  V30 979 H 82.1866 -0.592372 -0.466488 0
M  V30 980 H 84.8376 -1.76197 -0.51252 0
M  V30 981 H 83.2196 -2.57142 -3.01154 0
M  V30 982 H 84.3936 -4.51608 -0.915774 0
M  V30 983 H 82.7086 -4.04656 -0.981977 0
M  V30 984 H 85.3056 -3.80851 -3.75308 0
M  V30 985 H 85.6486 -2.10356 -3.59244 0
M  V30 986 H 86.1816 -3.2305 -2.32128 0
M  V30 987 H 82.9206 -6.21796 -2.07485 0
M  V30 988 H 82.4406 -5.01359 -3.2924 0
M  V30 989 H 84.1196 -5.6049 -3.23202 0
M  V30 990 N 84.2517 0.741722 -1.39055 0
M  V30 991 C 85.1987 1.85566 -1.37237 0
M  V30 992 C 86.1687 1.64457 -0.233072 0
M  V30 993 O 87.3537 1.85957 -0.427147 0
M  V30 994 C 84.4937 3.23004 -1.215 0
M  V30 995 C 83.6067 3.55864 -2.44918 0
M  V30 996 C 82.7417 4.82669 -2.21821 0
M  V30 997 C 81.7807 5.08351 -3.40948 0
M  V30 998 N 80.9177 6.26356 -3.17211 0
M  V30 999 H 85.7577 1.86455 -2.32462 0
M  V30 1000 H 83.2947 0.911176 -1.15482 0
M  V30 1001 H 85.2527 4.02331 -1.10389 0
M  V30 1002 H 83.8827 3.21411 -0.29908 0
M  V30 1003 H 82.9347 2.7129 -2.66657 0
M  V30 1004 H 84.2467 3.70765 -3.33668 0
M  V30 1005 H 83.4007 5.69962 -2.07914 0
M  V30 1006 H 82.1397 4.69929 -1.30454 0
M  V30 1007 H 81.1447 4.19522 -3.55361 0
M  V30 1008 H 82.3697 5.22981 -4.33207 0
M  V30 1009 H 80.3157 6.14917 -2.28502 0
M  V30 1010 H 80.2327 6.41813 -3.99515 0
M  V30 1011 H 81.5007 7.16506 -3.06984 0
M  V30 1012 N 85.7298 1.2412 0.971189 0
M  V30 1013 C 86.6768 1.0305 2.06517 0
M  V30 1014 C 87.6468 -0.0550666 1.66009 0
M  V30 1015 O 88.8318 0.0988688 1.90544 0
M  V30 1016 C 85.9718 0.637653 3.39158 0
M  V30 1017 C 85.0848 1.79633 3.92882 0
M  V30 1018 C 84.2198 1.34939 5.13775 0
M  V30 1019 C 83.2588 2.47823 5.59687 0
M  V30 1020 N 82.3958 2.04022 6.71803 0
M  V30 1021 H 87.2358 1.96685 2.23873 0
M  V30 1022 H 84.7728 0.979694 1.09729 0
M  V30 1023 H 86.7308 0.390931 4.15364 0
M  V30 1024 H 85.3608 -0.261693 3.21737 0
M  V30 1025 H 84.4128 2.15681 3.13346 0
M  V30 1026 H 85.7248 2.64466 4.22918 0
M  V30 1027 H 84.8788 1.06134 5.97345 0
M  V30 1028 H 83.6178 0.471557 4.85415 0
M  V30 1029 H 82.6228 2.77392 4.74693 0
M  V30 1030 H 83.8478 3.36158 5.90063 0
M  V30 1031 H 81.7938 1.18632 6.45184 0
M  V30 1032 H 81.7108 2.82409 7.01271 0
M  V30 1033 H 82.9788 1.78347 7.58823 0
M  V30 1034 N 87.2079 -1.17134 1.05439 0
M  V30 1035 C 88.4569 -1.86791 0.761049 0
M  V30 1036 C 88.7699 -1.82072 -0.714795 0
M  V30 1037 O 89.9759 -2.47223 -1.12218 0
M  V30 1038 C 88.4319 -3.35166 1.31117 0
M  V30 1039 C 88.0399 -3.48381 2.81664 0
M  V30 1040 C 89.7839 -4.10134 1.09499 0
M  V30 1041 C 87.6909 -4.90793 3.29964 0
M  V30 1042 H 86.6209 -0.699681 0.281002 0
M  V30 1043 H 89.2719 -1.3226 1.27199 0
M  V30 1044 H 87.6539 -3.8925 0.72803 0
M  V30 1045 H 88.8279 -3.04502 3.45855 0
M  V30 1046 H 87.1429 -2.86836 3.01851 0
M  V30 1047 H 89.7399 -5.152 1.43084 0
M  V30 1048 H 90.0829 -4.16287 0.0328772 0
M  V30 1049 H 90.6159 -3.62264 1.64346 0
M  V30 1050 H 87.3549 -4.89816 4.35616 0
M  V30 1051 H 86.8749 -5.35333 2.70516 0
M  V30 1052 H 88.5539 -5.59573 3.24787 0
M  V30 1053 N 88.686 -0.835752 -1.33615 0
M  V30 1054 C 90.102 -0.523139 -1.50783 0
M  V30 1055 C 90.302 0.950171 -1.77691 0
M  V30 1056 O 89.358 1.73411 -1.83534 0
M  V30 1057 C 90.671 -1.39378 -2.66448 0
M  V30 1058 C 92.219 -1.39223 -2.80332 0
M  V30 1059 C 92.694 -2.24765 -3.99055 0
M  V30 1060 N 94.185 -2.22458 -4.06284 0
M  V30 1061 C 94.92 -2.85386 -4.97336 0
M  V30 1062 N 94.416 -3.57354 -5.93523 0
M  V30 1063 N 96.209 -2.74872 -4.90308 0
M  V30 1064 H 88.36 -1.78952 -1.14411 0
M  V30 1065 H 90.623 -0.763297 -0.562212 0
M  V30 1066 H 90.329 -2.44061 -2.53234 0
M  V30 1067 H 90.203 -1.0676 -3.61776 0
M  V30 1068 H 92.59 -0.353136 -2.92979 0
M  V30 1069 H 92.671 -1.75846 -1.85773 0
M  V30 1070 H 92.315 -3.28732 -3.87167 0
M  V30 1071 H 92.245 -1.85485 -4.92852 0
M  V30 1072 H 94.736 -1.70119 -3.37443 0
M  V30 1073 H 95.049 -4.02584 -6.59656 0
M  V30 1074 H 93.394 -3.61461 -5.93608 0
M  V30 1075 H 96.585 -2.18213 -4.14126 0
M  V30 1076 H 96.758 -3.24199 -5.61069 0
M  V30 1077 N 90.1641 1.46063 -0.591896 0
M  V30 1078 C 91.4041 2.04228 -0.0838014 0
M  V30 1079 C 91.7681 1.45231 1.25587 0
M  V30 1080 O 92.9691 1.94653 1.85375 0
M  V30 1081 C 91.2401 3.57389 -0.0286282 0
M  V30 1082 S 92.7991 4.3678 0.420557 0
M  V30 1083 H 89.6171 0.709762 -0.0419319 0
M  V30 1084 H 92.2191 1.78983 -0.786465 0
M  V30 1085 H 90.9231 3.97843 -1.00743 0
M  V30 1086 H 90.4541 3.87185 0.69652 0
M  V30 1087 H 92.4691 4.67131 1.67341 0
M  V30 1088 N 91.6422 0.330177 1.54103 0
M  V30 1089 C 92.8882 -0.270806 2.00984 0
M  V30 1090 C 93.2212 -1.51265 1.21789 0
M  V30 1091 O 92.4962 -1.92142 0.301927 0
M  V30 1092 C 92.7792 -0.598339 3.55094 0
M  V30 1093 C 92.6322 0.654674 4.4501 0
M  V30 1094 C 93.9512 -1.41334 4.16789 0
M  V30 1095 H 91.0702 -0.0969531 0.730595 0
M  V30 1096 H 93.7122 0.448066 1.84641 0
M  V30 1097 H 91.8622 -1.21078 3.69151 0
M  V30 1098 H 93.5342 1.29285 4.42813 0
M  V30 1099 H 91.7772 1.28224 4.14416 0
M  V30 1100 H 92.4482 0.380944 5.50684 0
M  V30 1101 H 94.9242 -0.895597 4.06347 0
M  V30 1102 H 93.8002 -1.61127 5.24718 0
M  V30 1103 H 94.0612 -2.41146 3.70541 0
M  V30 1104 N 93.1203 -1.57491 0.0584922 0
M  V30 1105 C 94.0303 -2.15448 -0.928414 0
M  V30 1106 C 95.0463 -1.11416 -1.3365 0
M  V30 1107 O 96.2223 -1.4362 -1.41193 0
M  V30 1108 C 93.2873 -2.69393 -2.18239 0
M  V30 1109 C 92.3483 -3.88249 -1.83196 0
M  V30 1110 C 91.5813 -4.39613 -3.02616 0
M  V30 1111 O 91.8043 -3.90023 -4.16219 0
M  V30 1112 O 90.7383 -5.31111 -2.83204 0
M  V30 1113 H 94.5643 -3.00112 -0.465483 0
M  V30 1114 H 92.1493 -1.48499 -0.163826 0
M  V30 1115 H 94.0313 -3.04026 -2.91798 0
M  V30 1116 H 92.7063 -1.87796 -2.63656 0
M  V30 1117 H 91.6133 -3.58492 -1.06931 0
M  V30 1118 H 92.9463 -4.71098 -1.42573 0
M  V30 1119 N 94.5984 0.214957 -1.56127 0
M  V30 1120 C 95.5454 1.26642 -1.92952 0
M  V30 1121 C 96.5154 1.46244 -0.78753 0
M  V30 1122 O 97.7004 1.59704 -1.04399 0
M  V30 1123 C 94.8404 2.6104 -2.25726 0
M  V30 1124 C 93.9534 2.49183 -3.52891 0
M  V30 1125 C 93.0884 3.76149 -3.7508 0
M  V30 1126 C 92.1274 3.59041 -4.95738 0
M  V30 1127 N 91.2644 4.77972 -5.14283 0
M  V30 1128 H 96.1044 0.945384 -2.82607 0
M  V30 1129 H 93.6414 0.455489 -1.3987 0
M  V30 1130 H 95.5994 3.39313 -2.42739 0
M  V30 1131 H 94.2294 2.91227 -1.39236 0
M  V30 1132 H 93.2814 1.6231 -3.44034 0
M  V30 1133 H 94.5934 2.32466 -4.41318 0
M  V30 1134 H 93.7474 4.62865 -3.92226 0
M  V30 1135 H 92.4864 3.95799 -2.84947 0
M  V30 1136 H 91.4914 2.7071 -4.78535 0
M  V30 1137 H 92.7164 3.40856 -5.87362 0
M  V30 1138 H 90.6624 4.97923 -4.27093 0
M  V30 1139 H 90.5794 4.64006 -5.96853 0
M  V30 1140 H 91.8474 5.66096 -5.35869 0
M  V30 1141 N 96.0765 1.50051 0.48192 0
M  V30 1142 C 97.3225 1.60736 1.2366 0
M  V30 1143 C 97.6555 0.301786 1.91841 0
M  V30 1144 O 96.9305 -0.696025 1.8162 0
M  V30 1145 C 97.2135 2.78009 2.28874 0
M  V30 1146 C 97.0665 4.18416 1.65069 0
M  V30 1147 C 98.3855 2.90867 3.30279 0
M  V30 1148 H 95.5045 0.585031 0.448228 0
M  V30 1149 H 98.1465 1.82402 0.531946 0
M  V30 1150 H 96.2965 2.59667 2.88973 0
M  V30 1151 H 97.9685 4.48322 1.0865 0
M  V30 1152 H 96.2115 4.23177 0.954148 0
M  V30 1153 H 96.8825 4.96381 2.41474 0
M  V30 1154 H 99.3585 3.07623 2.80191 0
M  V30 1155 H 98.2345 3.74566 4.01238 0
M  V30 1156 H 98.4955 2.01021 3.93755 0
M  V30 1157 N 97.5546 -0.734337 1.39446 0
M  V30 1158 C 98.5026 -1.86971 1.38364 0
M  V30 1159 C 99.4966 -1.67288 0.266687 0
M  V30 1160 O 100.703 -1.74621 0.436755 0
M  V30 1161 H 97.0776 -0.615474 0.432082 0
M  V30 1162 H 99.0486 -1.85 2.34132 0
M  V30 1163 C 97.7976 -3.2466 1.24465 0
M  V30 1164 H 97.1206 -3.40402 2.09682 0
M  V30 1165 H 98.5606 -4.04292 1.27764 0
M  V30 1166 C 97.0196 -3.36867 -0.0468674 0
M  V30 1167 O 97.5496 -3.88618 -1.01681 0
M  V30 1168 N 95.7556 -2.90391 -0.110145 0
M  V30 1169 H 95.3026 -2.48466 0.679868 0
M  V30 1170 H 95.2606 -2.98939 -0.973799 0
M  V30 1171 N 99.0327 -1.24633 -0.964593 0
M  V30 1172 C 99.9627 -1.06611 -2.07741 0
M  V30 1173 C 100.944 0.0218666 -1.70086 0
M  V30 1174 O 102.129 -0.145793 -1.93652 0
M  V30 1175 C 99.2587 -0.673444 -3.40708 0
M  V30 1176 C 98.2127 -1.71054 -3.92332 0
M  V30 1177 C 97.5387 -1.17285 -5.21678 0
M  V30 1178 C 98.8387 -3.10718 -4.19824 0
M  V30 1179 H 100.533 -1.99693 -2.23076 0
M  V30 1180 H 98.0787 -0.96152 -1.07195 0
M  V30 1181 H 100.032 -0.534345 -4.17998 0
M  V30 1182 H 98.7557 0.293073 -3.25282 0
M  V30 1183 H 97.4147 -1.83791 -3.17201 0
M  V30 1184 H 97.0627 -0.196847 -5.02615 0
M  V30 1185 H 96.7627 -1.86592 -5.57187 0
M  V30 1186 H 98.2867 -1.04593 -6.01575 0
M  V30 1187 H 99.7007 -3.01192 -4.87808 0
M  V30 1188 H 98.0977 -3.77406 -4.66567 0
M  V30 1189 H 99.1677 -3.58524 -3.26479 0
M  V30 1190 N 100.511 1.16574 -1.06058 0
M  V30 1191 C 101.421 2.2452 -0.680282 0
M  V30 1192 C 102.437 1.71348 0.302604 0
M  V30 1193 O 103.613 2.00822 0.152513 0
M  V30 1194 C 100.678 3.46629 -0.0700315 0
M  V30 1195 C 99.7388 4.14849 -1.10448 0
M  V30 1196 C 98.9718 5.31129 -0.523256 0
M  V30 1197 O 99.1948 5.66514 0.664709 0
M  V30 1198 O 98.1288 5.88526 -1.26179 0
M  V30 1199 H 101.955 2.59355 -1.58015 0
M  V30 1200 H 99.5398 1.24043 -0.832694 0
M  V30 1201 H 101.422 4.20543 0.268667 0
M  V30 1202 H 100.097 3.13573 0.803353 0
M  V30 1203 H 99.0038 3.42916 -1.49532 0
M  V30 1204 H 100.337 4.51954 -1.94931 0
M  V30 1205 N 101.989 0.842826 1.3317 0
M  V30 1206 C 102.899 0.281444 2.32906 0
M  V30 1207 C 103.915 -0.594587 1.63526 0
M  V30 1208 O 105.091 -0.49777 1.95152 0
M  V30 1209 C 102.156 -0.530929 3.42611 0
M  V30 1210 C 101.217 0.369843 4.27704 0
M  V30 1211 C 100.45 -0.403853 5.3217 0
M  V30 1212 O 100.673 -1.63513 5.46461 0
M  V30 1213 O 99.6069 0.224199 6.01482 0
M  V30 1214 H 103.433 1.10744 2.82789 0
M  V30 1215 H 101.018 0.60545 1.36582 0
M  V30 1216 H 102.9 -0.992437 4.09547 0
M  V30 1217 H 101.575 -1.33392 2.94938 0
M  V30 1218 H 100.482 0.879275 3.6362 0
M  V30 1219 H 101.815 1.13771 4.78871 0
M  V30 1220 N 103.467 -1.45747 0.599634 0
M  V30 1221 C 104.399 -2.28628 -0.161879 0
M  V30 1222 C 105.412 -1.39494 -0.839367 0
M  V30 1223 O 106.601 -1.63941 -0.706089 0
M  V30 1224 C 103.701 -3.15014 -1.24976 0
M  V30 1225 C 102.874 -4.32378 -0.660935 0
M  V30 1226 C 101.933 -5.00033 -1.63869 0
M  V30 1227 O 100.959 -5.57085 -1.1681 0
M  V30 1228 N 102.161 -4.98589 -2.97303 0
M  V30 1229 H 104.926 -2.94624 0.549265 0
M  V30 1230 H 102.487 -1.55847 0.438565 0
M  V30 1231 H 104.479 -3.5714 -1.9035 0
M  V30 1232 H 103.049 -2.5098 -1.86354 0
M  V30 1233 H 102.269 -3.9383 0.170688 0
M  V30 1234 H 103.557 -5.08197 -0.247619 0
M  V30 1235 H 102.955 -4.53514 -3.38145 0
M  V30 1236 H 101.512 -5.44603 -3.58121 0
M  V30 1237 N 104.945 -0.338344 -1.53925 0
M  V30 1238 C 106.173 0.261298 -2.05243 0
M  V30 1239 C 106.588 1.44625 -1.21363 0
M  V30 1240 O 105.945 1.80811 -0.247736 0
M  V30 1241 C 105.996 0.681412 -3.5502 0
M  V30 1242 O 105.717 -0.456414 -4.35716 0
M  V30 1243 C 107.218 1.34232 -4.22489 0
M  V30 1244 H 104.438 0.0513685 -0.669031 0
M  V30 1245 H 106.982 -0.488822 -1.98572 0
M  V30 1246 H 105.137 1.38148 -3.61931 0
M  V30 1247 H 105.551 -0.122564 -5.24357 0
M  V30 1248 H 107.025 1.58708 -5.28693 0
M  V30 1249 H 107.502 2.29426 -3.74514 0
M  V30 1250 H 108.108 0.684424 -4.19757 0
M  V30 1251 N 106.423 1.57458 -0.0668435 0
M  V30 1252 C 107.834 1.80776 0.466558 0
M  V30 1253 C 108.185 0.980361 1.69951 0
M  V30 1254 O 107.31 0.201441 2.1546 0
M  V30 1255 C 107.905 3.27881 0.85321 0
M  V30 1256 C 106.464 3.52062 1.3315 0
M  V30 1257 C 105.611 2.75513 0.314264 0
M  V30 1258 H 108.562 1.5598 -0.292588 0
M  V30 1259 H 108.583 3.39659 1.715 0
M  V30 1260 H 108.095 3.88075 -0.0443439 0
M  V30 1261 H 106.196 2.97167 2.24772 0
M  V30 1262 H 106.309 4.60762 1.31285 0
M  V30 1263 H 104.673 2.42123 0.790492 0
M  V30 1264 H 105.456 3.38442 -0.575477 0
M  V30 1265 N 107.901 -0.206675 1.56239 0
M  V30 1266 C 109.147 -0.930218 1.80208 0
M  V30 1267 C 109.48 -1.83387 0.638981 0
M  V30 1268 O 108.755 -1.91119 -0.361066 0
M  V30 1269 C 109.038 -1.75641 3.1436 0
M  V30 1270 C 108.891 -0.878257 4.41142 0
M  V30 1271 C 110.21 -2.73129 3.45092 0
M  V30 1272 H 107.329 -0.336742 0.655571 0
M  V30 1273 H 109.971 -0.198222 1.88963 0
M  V30 1274 H 108.121 -2.38048 3.07027 0
M  V30 1275 H 109.793 -0.269787 4.6051 0
M  V30 1276 H 108.036 -0.184385 4.33408 0
M  V30 1277 H 108.707 -1.49106 5.3148 0
M  V30 1278 H 111.183 -2.20856 3.52649 0
M  V30 1279 H 110.059 -3.28028 4.40101 0
M  V30 1280 H 110.32 -3.51606 2.68003 0
M  V30 1281 N 109.379 -1.50304 -0.473955 0
M  V30 1282 C 110.289 -1.7174 -1.5982 0
M  V30 1283 C 111.305 -0.600457 -1.63311 0
M  V30 1284 O 112.481 -0.878441 -1.81233 0
M  V30 1285 C 109.546 -1.80427 -2.96052 0
M  V30 1286 C 108.607 -3.04148 -3.02972 0
M  V30 1287 C 107.84 -3.12411 -4.32706 0
M  V30 1288 O 108.063 -2.27542 -5.23049 0
M  V30 1289 O 106.997 -4.05113 -4.45159 0
M  V30 1290 H 110.823 -2.67035 -1.44657 0
M  V30 1291 H 108.408 -1.34366 -0.653148 0
M  V30 1292 H 110.29 -1.88338 -3.7697 0
M  V30 1293 H 108.965 -0.883156 -3.11419 0
M  V30 1294 H 107.872 -3.0174 -2.21142 0
M  V30 1295 H 109.205 -3.95829 -2.92541 0
M  V30 1296 N 110.857 0.726932 -1.39834 0
M  V30 1297 C 112.273 1.03354 -1.21615 0
M  V30 1298 C 112.473 2.01327 -0.08338 0
M  V30 1299 O 111.529 2.46158 0.56238 0
M  V30 1300 C 112.842 1.58811 -2.55342 0
M  V30 1301 C 114.39 1.70851 -2.62257 0
M  V30 1302 C 114.865 2.29716 -3.96225 0
M  V30 1303 N 116.356 2.37116 -3.97907 0
M  V30 1304 C 117.091 2.83619 -4.98345 0
M  V30 1305 N 116.587 3.29958 -6.09179 0
M  V30 1306 N 118.38 2.82901 -4.8572 0
M  V30 1307 H 110.531 0.0773069 -2.12259 0
M  V30 1308 H 112.794 0.0969102 -0.943034 0
M  V30 1309 H 112.5 0.942855 -3.38826 0
M  V30 1310 H 112.374 2.57502 -2.75632 0
M  V30 1311 H 114.761 2.34497 -1.79152 0
M  V30 1312 H 114.842 0.707913 -2.45809 0
M  V30 1313 H 114.486 1.66696 -4.79765 0
M  V30 1314 H 114.416 3.30469 -4.09997 0
M  V30 1315 H 116.907 2.04374 -3.17868 0
M  V30 1316 H 117.22 3.63976 -6.8172 0
M  V30 1317 H 115.565 3.27946 -6.12761 0
M  V30 1318 H 118.756 2.46027 -3.98231 0
M  V30 1319 H 118.929 3.18827 -5.6414 0
M  V30 1320 N 112.336 1.25143 0.95797 0
M  V30 1321 C 113.268 1.01023 2.05735 0
M  V30 1322 C 114.281 -0.0236902 1.62783 0
M  V30 1323 O 115.47 0.21448 1.77207 0
M  V30 1324 C 112.57 0.504595 3.35122 0
M  V30 1325 C 111.743 1.6039 4.06932 0
M  V30 1326 C 110.802 1.09922 5.14591 0
M  V30 1327 O 109.828 1.79293 5.40225 0
M  V30 1328 N 111.03 -0.0612545 5.80468 0
M  V30 1329 H 113.795 1.95683 2.26998 0
M  V30 1330 H 111.356 1.16303 1.12629 0
M  V30 1331 H 113.348 0.151516 4.04416 0
M  V30 1332 H 111.918 -0.347989 3.10657 0
M  V30 1333 H 111.138 2.12872 3.31782 0
M  V30 1334 H 112.426 2.34252 4.51667 0
M  V30 1335 H 111.824 -0.640985 5.62057 0
M  V30 1336 H 110.381 -0.355395 6.5083 0
M  V30 1337 N 113.814 -1.1601 1.06675 0
M  V30 1338 C 115.044 -1.90251 0.805497 0
M  V30 1339 C 115.452 -1.77891 -0.64431 0
M  V30 1340 O 114.795 -1.12383 -1.45313 0
M  V30 1341 C 114.857 -3.41419 1.12576 0
M  V30 1342 C 114.521 -3.77564 2.57477 0
M  V30 1343 C 115.518 -3.79161 3.55715 0
M  V30 1344 C 113.203 -4.08079 2.92877 0
M  V30 1345 C 115.197 -4.10767 4.8739 0
M  V30 1346 C 112.884 -4.39351 4.24751 0
M  V30 1347 C 113.882 -4.40675 5.21818 0
M  V30 1348 O 113.57 -4.71202 6.51325 0
M  V30 1349 H 113.302 -0.610018 0.291297 0
M  V30 1350 H 115.856 -1.47958 1.4247 0
M  V30 1351 H 114.086 -3.84079 0.449503 0
M  V30 1352 H 115.775 -3.9694 0.84814 0
M  V30 1353 H 116.541 -3.55693 3.29708 0
M  V30 1354 H 112.42 -4.06211 2.17976 0
M  V30 1355 H 115.964 -4.11715 5.63148 0
M  V30 1356 H 111.861 -4.62285 4.50514 0
M  V30 1357 H 112.629 -4.88996 6.56373 0
M  V30 1358 N 115.292 -0.849877 -1.32721 0
M  V30 1359 C 116.703 -0.506188 -1.79707 0
M  V30 1360 C 117.054 0.975627 -1.70223 0
M  V30 1361 O 116.179 1.76078 -1.25799 0
M  V30 1362 C 116.774 -0.912044 -3.26293 0
M  V30 1363 C 115.333 -0.620326 -3.71253 0
M  V30 1364 C 114.48 -1.11439 -2.53922 0
M  V30 1365 H 117.431 -1.03754 -1.20087 0
M  V30 1366 H 117.452 -0.226493 -3.79825 0
M  V30 1367 H 116.964 -1.99057 -3.33164 0
M  V30 1368 H 115.065 0.447674 -3.69901 0
M  V30 1369 H 115.178 -1.18327 -4.64258 0
M  V30 1370 H 113.542 -0.534834 -2.49021 0
M  V30 1371 H 114.325 -2.19992 -2.6355 0
M  V30 1372 N 116.77 1.45427 -0.607355 0
M  V30 1373 C 118.017 2.02241 -0.102455 0
M  V30 1374 C 118.345 1.4758 1.26691 0
M  V30 1375 O 117.6 0.640468 1.84923 0
M  V30 1376 C 117.899 3.57398 -0.0129263 0
M  V30 1377 C 117.565 4.3121 -1.31792 0
M  V30 1378 C 116.227 4.51092 -1.67539 0
M  V30 1379 C 118.579 4.73401 -2.18039 0
M  V30 1380 C 115.907 5.10422 -2.89285 0
M  V30 1381 C 118.259 5.34078 -3.39034 0
M  V30 1382 C 116.923 5.52184 -3.75033 0
M  V30 1383 H 116.193 0.740051 -0.037491 0
M  V30 1384 H 118.84 1.74494 -0.788926 0
M  V30 1385 H 117.145 3.84421 0.756806 0
M  V30 1386 H 118.842 3.99061 0.393881 0
M  V30 1387 H 115.432 4.16047 -1.02968 0
M  V30 1388 H 119.616 4.57774 -1.91721 0
M  V30 1389 H 114.872 5.22629 -3.17283 0
M  V30 1390 H 119.046 5.65724 -4.06115 0
M  V30 1391 H 116.673 5.97925 -4.69457 0
M  V30 1392 N 118.248 0.346503 1.53744 0
M  V30 1393 C 119.18 -0.543316 2.22667 0
M  V30 1394 C 120.193 -1.06159 1.23427 0
M  V30 1395 O 121.382 -0.971235 1.49764 0
M  V30 1396 C 118.482 -1.76076 2.89569 0
M  V30 1397 C 117.655 -1.37727 4.15151 0
M  V30 1398 C 116.714 -2.45471 4.65436 0
M  V30 1399 O 115.74 -2.08655 5.29577 0
M  V30 1400 N 116.942 -3.7677 4.41616 0
M  V30 1401 H 119.707 0.0469703 2.99663 0
M  V30 1402 H 117.268 0.170766 1.60997 0
M  V30 1403 H 119.26 -2.47593 3.20125 0
M  V30 1404 H 117.83 -2.25835 2.16142 0
M  V30 1405 H 117.05 -0.492746 3.91108 0
M  V30 1406 H 118.338 -1.09708 4.96832 0
M  V30 1407 H 117.736 -4.09467 3.90325 0
M  V30 1408 H 116.293 -4.44448 4.7677 0
M  V30 1409 N 119.726 -1.57421 0.075193 0
M  V30 1410 C 120.975 -1.92794 -0.592731 0
M  V30 1411 C 121.288 -0.957478 -1.70563 0
M  V30 1412 O 122.494 -1.20417 -2.43335 0
M  V30 1413 C 120.95 -3.42495 -1.10569 0
M  V30 1414 C 120.558 -4.47994 -0.0236121 0
M  V30 1415 C 122.302 -3.86864 -1.74748 0
M  V30 1416 C 120.209 -5.88829 -0.550803 0
M  V30 1417 H 119.139 -0.719591 -0.225177 0
M  V30 1418 H 121.79 -1.82902 0.147978 0
M  V30 1419 H 120.172 -3.47471 -1.89947 0
M  V30 1420 H 121.346 -4.54637 0.751099 0
M  V30 1421 H 119.661 -4.13113 0.522159 0
M  V30 1422 H 122.258 -4.8947 -2.15229 0
M  V30 1423 H 122.601 -3.24417 -2.60882 0
M  V30 1424 H 123.134 -3.84504 -1.01986 0
M  V30 1425 H 119.873 -6.54929 0.273457 0
M  V30 1426 H 119.393 -5.85698 -1.29296 0
M  V30 1427 H 121.072 -6.38811 -1.02613 0
M  V30 1428 N 121.204 0.198386 -1.56346 0
M  V30 1429 C 122.45 0.920648 -1.80698 0
M  V30 1430 C 122.783 1.83045 -0.648697 0
M  V30 1431 O 122.058 1.91308 0.350925 0
M  V30 1432 C 122.341 1.73971 -3.15287 0
M  V30 1433 C 122.194 0.85485 -4.41602 0
M  V30 1434 C 123.513 2.71296 -3.46535 0
M  V30 1435 H 120.632 0.333261 -0.657348 0
M  V30 1436 H 123.274 0.188198 -1.89066 0
M  V30 1437 H 121.424 2.36416 -3.08285 0
M  V30 1438 H 123.096 0.245362 -4.60647 0
M  V30 1439 H 121.339 0.161398 -4.335 0
M  V30 1440 H 122.01 1.46286 -5.32264 0
M  V30 1441 H 124.486 2.18983 -3.53816 0
M  V30 1442 H 123.362 3.2569 -4.41834 0
M  V30 1443 H 123.623 3.5018 -2.69864 0
M  V30 1444 N 122.682 1.50554 0.465978 0
M  V30 1445 C 123.912 1.65323 1.23903 0
M  V30 1446 C 124.32 0.338051 1.86155 0
M  V30 1447 O 123.663 -0.690518 1.70228 0
M  V30 1448 C 123.725 2.69048 2.3844 0
M  V30 1449 C 123.389 4.12462 1.96784 0
M  V30 1450 C 124.386 4.98168 1.48745 0
M  V30 1451 C 122.071 4.58407 2.05349 0
M  V30 1452 C 124.065 6.27868 1.0982 0
M  V30 1453 C 121.752 5.88112 1.66035 0
M  V30 1454 C 122.75 6.72668 1.18349 0
M  V30 1455 O 122.438 7.99951 0.795825 0
M  V30 1456 H 122.17 0.558629 0.38067 0
M  V30 1457 H 124.724 1.97561 0.562022 0
M  V30 1458 H 122.954 2.32062 3.09328 0
M  V30 1459 H 124.643 2.72985 3.0039 0
M  V30 1460 H 125.409 4.63885 1.41546 0
M  V30 1461 H 121.288 3.92735 2.41414 0
M  V30 1462 H 124.832 6.93819 0.725293 0
M  V30 1463 H 120.729 6.21914 1.72895 0
M  V30 1464 H 121.497 8.13265 0.924222 0
M  V30 1465 N 124.16 -0.719506 1.40217 0
M  V30 1466 C 125.107 -1.83359 1.40172 0
M  V30 1467 C 126.077 -1.64065 0.259206 0
M  V30 1468 O 127.262 -1.85254 0.456677 0
M  V30 1469 C 124.402 -3.2103 1.26624 0
M  V30 1470 C 123.515 -3.51923 2.50548 0
M  V30 1471 C 122.65 -4.79079 2.29471 0
M  V30 1472 C 121.689 -5.02863 3.48992 0
M  V30 1473 N 120.826 -6.2123 3.27135 0
M  V30 1474 H 125.666 -1.82733 2.35399 0
M  V30 1475 H 123.203 -0.892688 1.16917 0
M  V30 1476 H 125.161 -4.00524 1.16776 0
M  V30 1477 H 123.791 -3.20895 0.350176 0
M  V30 1478 H 122.843 -2.67014 2.70939 0
M  V30 1479 H 124.155 -3.6541 3.39525 0
M  V30 1480 H 123.309 -5.66582 2.16955 0
M  V30 1481 H 122.048 -4.67794 1.37913 0
M  V30 1482 H 121.053 -4.13816 3.6199 0
M  V30 1483 H 122.278 -5.16023 4.41472 0
M  V30 1484 H 120.224 -6.11204 2.38256 0
M  V30 1485 H 120.141 -6.35375 4.09675 0
M  V30 1486 H 121.409 -7.11532 3.18344 0
M  V30 1487 N 125.638 -1.25649 -0.95132 0
M  V30 1488 C 126.915 -1.01361 -1.67288 0
M  V30 1489 C 127.295 0.459135 -2.06046 0
M  V30 1490 O 126.643 1.43723 -1.7764 0
M  V30 1491 C 126.853 -1.95256 -2.89268 0
M  V30 1492 C 128.201 -2.23289 -3.61147 0
M  V30 1493 O 129.225 -1.93041 -2.99355 0
M  V30 1494 O 128.084 -2.74741 -4.72419 0
M  V30 1495 H 125.178 -0.38464 -0.732107 0
M  V30 1496 H 127.724 -1.36817 -1.00395 0
M  V30 1497 H 126.496 -2.94685 -2.57442 0
M  V30 1498 H 126.119 -1.60218 -3.6389 0
M  V30 1499 N 127.117 1.15442 -1.07289 0
M  V30 1500 C 128.365 1.85845 -0.794096 0
M  V30 1501 C 128.686 1.82692 0.681809 0
M  V30 1502 O 127.956 1.26741 1.49377 0
M  V30 1503 H 126.536 0.688089 -0.290763 0
M  V30 1504 H 129.198 1.39947 -1.3565 0
M  V30 1505 H 128.294 2.91001 -1.12804 0
M  V30 1506 N 128.595 0.856903 1.32268 0
M  V30 1507 C 129.525 0.31858 2.31316 0
M  V30 1508 C 130.506 -0.583487 1.59779 0
M  V30 1509 O 131.691 -0.503259 1.87566 0
M  V30 1510 C 128.821 -0.491979 3.43798 0
M  V30 1511 C 127.775 0.315849 4.26833 0
M  V30 1512 C 127.101 -0.619586 5.31098 0
M  V30 1513 C 128.401 1.54282 4.98993 0
M  V30 1514 H 130.095 1.14621 2.76591 0
M  V30 1515 H 127.641 0.552613 1.32974 0
M  V30 1516 H 129.594 -0.879012 4.1213 0
M  V30 1517 H 128.318 -1.35299 2.97257 0
M  V30 1518 H 126.977 0.684664 3.6015 0
M  V30 1519 H 126.625 -1.47751 4.8081 0
M  V30 1520 H 126.325 -0.0830621 5.87541 0
M  V30 1521 H 127.849 -1.00375 6.02293 0
M  V30 1522 H 129.263 1.22796 5.59995 0
M  V30 1523 H 127.66 2.01745 5.65172 0
M  V30 1524 H 128.73 2.30285 4.26728 0
M  V30 1525 N 130.073 -1.45103 0.615059 0
M  V30 1526 C 131.003 -2.33339 -0.0865619 0
M  V30 1527 C 131.984 -1.4727 -0.851209 0
M  V30 1528 O 133.169 -1.76026 -0.820281 0
M  V30 1529 C 130.299 -3.30095 -1.07956 0
M  V30 1530 C 129.253 -4.25858 -0.427628 0
M  V30 1531 C 128.579 -5.12361 -1.5294 0
M  V30 1532 C 129.879 -5.18165 0.655944 0
M  V30 1533 H 131.573 -2.92254 0.650224 0
M  V30 1534 H 129.119 -1.40532 0.314138 0
M  V30 1535 H 131.072 -3.90698 -1.57901 0
M  V30 1536 H 129.796 -2.69355 -1.84703 0
M  V30 1537 H 128.455 -3.66564 0.0510292 0
M  V30 1538 H 128.103 -4.47984 -2.28734 0
M  V30 1539 H 127.803 -5.77238 -1.09865 0
M  V30 1540 H 129.327 -5.75833 -2.03098 0
M  V30 1541 H 130.741 -5.72796 0.240257 0
M  V30 1542 H 129.138 -5.91559 1.00888 0
M  V30 1543 H 130.208 -4.60144 1.52957 0
M  V30 1544 N 131.551 -0.354651 -1.53558 0
M  V30 1545 C 132.781 0.239167 -2.05211 0
M  V30 1546 C 133.189 1.43879 -1.22863 0
M  V30 1547 O 132.532 1.81857 -0.259565 0
M  V30 1548 C 132.594 0.707251 -3.52474 0
M  V30 1549 C 132.258 -0.374212 -4.55465 0
M  V30 1550 C 133.255 -1.22054 -5.0537 0
M  V30 1551 C 130.94 -0.531323 -4.99482 0
M  V30 1552 C 132.934 -2.20942 -5.97882 0
M  V30 1553 C 130.621 -1.52358 -5.91802 0
M  V30 1554 C 131.619 -2.36108 -6.40892 0
M  V30 1555 O 131.307 -3.33643 -7.31394 0
M  V30 1556 H 131.039 0.0479716 -0.674296 0
M  V30 1557 H 133.593 -0.508121 -1.99016 0
M  V30 1558 H 131.823 1.50596 -3.56171 0
M  V30 1559 H 133.512 1.22285 -3.87042 0
M  V30 1560 H 134.278 -1.1103 -4.7212 0
M  V30 1561 H 130.157 0.110738 -4.60867 0
M  V30 1562 H 133.701 -2.86348 -6.36121 0
M  V30 1563 H 129.598 -1.63434 -6.24467 0
M  V30 1564 H 130.366 -3.29244 -7.4936 0
M  V30 1565 N 133.029 1.57378 -0.0835403 0
M  V30 1566 C 134.275 1.94217 0.583733 0
M  V30 1567 C 134.608 0.964653 1.68547 0
M  V30 1568 O 133.883 -0.00422258 1.945 0
M  V30 1569 C 134.166 3.41253 1.14972 0
M  V30 1570 C 134.019 4.49768 0.0538277 0
M  V30 1571 C 135.338 3.89352 2.05166 0
M  V30 1572 H 132.457 0.706233 0.210724 0
M  V30 1573 H 135.099 1.89392 -0.1519 0
M  V30 1574 H 133.249 3.45496 1.77665 0
M  V30 1575 H 134.921 4.57641 -0.579851 0
M  V30 1576 H 133.164 4.29432 -0.614068 0
M  V30 1577 H 133.835 5.49817 0.490452 0
M  V30 1578 H 136.311 3.87189 1.52393 0
M  V30 1579 H 135.187 4.92822 2.41698 0
M  V30 1580 H 135.448 3.27973 2.96456 0
M  V30 1581 N 134.507 -0.190092 1.56449 0
M  V30 1582 C 135.737 -0.92443 1.84764 0
M  V30 1583 C 136.145 -1.77146 0.664529 0
M  V30 1584 O 135.488 -1.79812 -0.375957 0
M  V30 1585 C 135.55 -1.86651 3.07248 0
M  V30 1586 C 135.214 -1.20094 4.40938 0
M  V30 1587 C 136.211 -0.575445 5.16706 0
M  V30 1588 C 133.896 -1.2033 4.87674 0
M  V30 1589 C 135.89 0.0388111 6.37388 0
M  V30 1590 C 133.577 -0.585214 6.08291 0
M  V30 1591 C 134.575 0.0347578 6.82991 0
M  V30 1592 O 134.263 0.643147 8.01323 0
M  V30 1593 H 133.995 -0.274974 0.617548 0
M  V30 1594 H 136.549 -0.200788 2.04416 0
M  V30 1595 H 134.779 -2.62998 2.83494 0
M  V30 1596 H 136.468 -2.46907 3.22167 0
M  V30 1597 H 137.234 -0.565728 4.81689 0
M  V30 1598 H 133.113 -1.67526 4.29484 0
M  V30 1599 H 136.657 0.523329 6.95634 0
M  V30 1600 H 132.554 -0.592451 6.42775 0
M  V30 1601 H 133.322 0.540545 8.16713 0
M  V30 1602 N 135.985 -1.50799 -0.457987 0
M  V30 1603 C 136.948 -1.7005 -1.53674 0
M  V30 1604 C 137.948 -0.570881 -1.50325 0
M  V30 1605 O 139.138 -0.838126 -1.52712 0
M  V30 1606 C 136.27 -1.73788 -2.93276 0
M  V30 1607 H 137.463 -2.66306 -1.37917 0
M  V30 1608 H 135.016 -1.40477 -0.685271 0
M  V30 1609 H 135.751 -0.792717 -3.14462 0
M  V30 1610 H 135.536 -2.55864 -2.97113 0
M  V30 1611 H 137.026 -1.90591 -3.71571 0
M  V30 1612 N 137.463 0.71206 -1.40597 0
M  V30 1613 C 138.688 1.50617 -1.42581 0
M  V30 1614 C 139.113 1.88079 -0.0282102 0
M  V30 1615 O 138.471 1.53511 0.964579 0
M  V30 1616 C 138.519 2.7557 -2.3258 0
M  V30 1617 O 137.623 3.72414 -1.77148 0
M  V30 1618 H 136.964 0.453966 -0.484573 0
M  V30 1619 H 139.494 0.876649 -1.84868 0
M  V30 1620 H 139.504 3.2406 -2.47889 0
M  V30 1621 H 138.179 2.47639 -3.34138 0
M  V30 1622 H 136.756 3.31276 -1.71204 0
M  V30 1623 N 138.941 1.26152 0.944643 0
M  V30 1624 C 139.889 1.07215 2.06417 0
M  V30 1625 C 140.883 9.2007e-05 1.694 0
M  V30 1626 O 142.089 0.1565 1.79318 0
M  V30 1627 H 138.464 0.329837 0.675805 0
M  V30 1628 H 140.435 2.02099 2.19541 0
M  V30 1629 C 139.184 0.718197 3.40202 0
M  V30 1630 H 138.507 1.53497 3.69159 0
M  V30 1631 H 139.947 0.625459 4.19361 0
M  V30 1632 C 138.406 -0.576435 3.31932 0
M  V30 1633 O 138.936 -1.61574 3.67773 0
M  V30 1634 N 137.142 -0.565781 2.85039 0
M  V30 1635 H 136.689 0.280367 2.5607 0
M  V30 1636 H 136.647 -1.43213 2.79888 0
M  V30 1637 N 140.419 -1.14872 1.07899 0
M  V30 1638 C 141.329 -2.2341 0.715915 0
M  V30 1639 C 142.345 -1.71808 -0.275306 0
M  V30 1640 O 143.521 -2.01039 -0.120545 0
M  V30 1641 C 140.586 -3.46474 0.125168 0
M  V30 1642 C 139.647 -4.13039 1.17034 0
M  V30 1643 C 138.88 -5.30229 0.607688 0
M  V30 1644 O 139.103 -5.675 -0.574497 0
M  V30 1645 O 138.037 -5.86444 1.35526 0
M  V30 1646 H 141.863 -2.56808 1.62121 0
M  V30 1647 H 139.448 -1.22702 0.852322 0
M  V30 1648 H 141.33 -4.20917 -0.201729 0
M  V30 1649 H 140.005 -3.14811 -0.753364 0
M  V30 1650 H 138.912 -3.40493 1.54968 0
M  V30 1651 H 140.245 -4.48796 2.02097 0
M  V30 1652 N 141.898 -0.863906 -1.31812 0
M  V30 1653 C 142.808 -0.318461 -2.32428 0
M  V30 1654 C 143.824 0.568496 -1.64451 0
M  V30 1655 O 145 0.46666 -1.95919 0
M  V30 1656 C 142.065 0.476355 -3.43412 0
M  V30 1657 C 141.126 -0.43784 -4.27061 0
M  V30 1658 C 140.359 0.319138 -5.32745 0
M  V30 1659 O 140.582 1.54799 -5.48993 0
M  V30 1660 O 139.516 -0.319861 -6.01049 0
M  V30 1661 H 143.342 -1.15229 -2.80991 0
M  V30 1662 H 140.927 -0.627103 -1.35602 0
M  V30 1663 H 142.809 0.927156 -4.11074 0
M  V30 1664 H 141.484 1.28683 -2.97022 0
M  V30 1665 H 140.391 -0.937013 -3.62175 0
M  V30 1666 H 141.724 -1.21375 -4.77 0
M  V30 1667 N 143.376 1.44774 -0.622745 0
M  V30 1668 C 144.601 2.06999 -0.128968 0
M  V30 1669 C 145.026 1.4617 1.1839 0
M  V30 1670 O 144.384 0.560007 1.72434 0
M  V30 1671 C 144.432 3.60595 -0.0188351 0
M  V30 1672 O 143.536 3.99398 1.02739 0
M  V30 1673 H 142.877 0.659047 -0.0809544 0
M  V30 1674 H 145.407 1.85784 -0.85705 0
M  V30 1675 H 145.417 4.07627 0.174476 0
M  V30 1676 H 144.092 4.04252 -0.977384 0
M  V30 1677 H 142.669 3.64011 0.809326 0
M  V30 1678 N 144.854 0.36279 1.53368 0
M  V30 1679 C 146.27 0.0116182 1.59596 0
M  V30 1680 C 146.47 -1.47012 1.37803 0
M  V30 1681 O 145.526 -2.23136 1.18181 0
M  V30 1682 C 146.839 0.465052 2.97082 0
M  V30 1683 C 148.387 0.419033 3.10182 0
M  V30 1684 C 148.862 0.848235 4.50077 0
M  V30 1685 N 150.353 0.803183 4.56183 0
M  V30 1686 C 151.088 1.107 5.62613 0
M  V30 1687 N 150.584 1.47996 6.76808 0
M  V30 1688 N 152.377 1.02998 5.52583 0
M  V30 1689 H 144.528 1.32775 1.65785 0
M  V30 1690 H 146.791 0.542518 0.777417 0
M  V30 1691 H 146.497 1.49892 3.18159 0
M  V30 1692 H 146.371 -0.149786 3.76902 0
M  V30 1693 H 148.758 -0.605696 2.88817 0
M  V30 1694 H 148.839 1.06933 2.32377 0
M  V30 1695 H 148.483 1.87107 4.7218 0
M  V30 1696 H 148.413 0.175218 5.26308 0
M  V30 1697 H 150.904 0.52838 3.74188 0
M  V30 1698 H 151.217 1.69613 7.53957 0
M  V30 1699 H 149.562 1.51859 6.78206 0
M  V30 1700 H 152.753 0.737817 4.62249 0
M  V30 1701 H 152.926 1.2701 6.35431 0
M  V30 1702 N 146.332 -1.57332 0.0918853 0
M  V30 1703 C 147.557 -1.98995 -0.584442 0
M  V30 1704 C 147.982 -0.970528 -1.61128 0
M  V30 1705 O 147.34 0.0613904 -1.81196 0
M  V30 1706 C 147.388 -3.39636 -1.21161 0
M  V30 1707 O 146.492 -3.40447 -2.32744 0
M  V30 1708 H 145.833 -0.647165 -0.148572 0
M  V30 1709 H 148.363 -2.03873 0.172347 0
M  V30 1710 H 148.373 -3.7726 -1.55367 0
M  V30 1711 H 147.048 -4.13356 -0.459313 0
M  V30 1712 H 145.625 -3.14614 -2.0018 0
M  V30 1713 N 147.81 0.181792 -1.56548 0
M  V30 1714 C 148.742 1.24956 -1.92142 0
M  V30 1715 C 149.755 1.41022 -0.813422 0
M  V30 1716 O 150.944 1.41212 -1.09186 0
M  V30 1717 C 148.044 2.61981 -2.14987 0
M  V30 1718 C 147.217 2.6735 -3.46183 0
M  V30 1719 C 146.276 3.85664 -3.5798 0
M  V30 1720 O 145.302 3.72148 -4.30691 0
M  V30 1721 N 146.504 5.01683 -2.92053 0
M  V30 1722 H 149.269 0.947329 -2.84334 0
M  V30 1723 H 146.83 0.371629 -1.57577 0
M  V30 1724 H 148.822 3.3958 -2.20154 0
M  V30 1725 H 147.392 2.84637 -1.2923 0
M  V30 1726 H 146.612 1.75925 -3.52766 0
M  V30 1727 H 147.9 2.67939 -4.32534 0
M  V30 1728 H 147.298 5.15564 -2.32832 0
M  V30 1729 H 145.855 5.77181 -3.0283 0
M  V30 1730 N 149.288 1.51039 0.449983 0
M  V30 1731 C 150.534 1.64287 1.19923 0
M  V30 1732 C 150.889 0.348701 1.89214 0
M  V30 1733 O 150.182 -0.654751 1.80065 0
M  V30 1734 C 150.376 2.77556 2.25161 0
M  V30 1735 C 150.205 4.17862 1.66198 0
M  V30 1736 C 148.975 4.83976 1.45243 0
M  V30 1737 C 151.173 5.01388 1.14519 0
M  V30 1738 N 149.155 6.08433 0.817437 0
M  V30 1739 C 150.526 6.16743 0.634705 0
M  V30 1740 C 152.581 4.87008 1.03574 0
M  V30 1741 C 151.284 7.19295 0.0255452 0
M  V30 1742 C 153.31 5.89757 0.440489 0
M  V30 1743 C 152.672 7.04375 -0.0595112 0
M  V30 1744 H 148.771 0.655161 0.426952 0
M  V30 1745 H 151.355 1.88228 0.49781 0
M  V30 1746 H 149.526 2.553 2.92706 0
M  V30 1747 H 151.258 2.80049 2.92155 0
M  V30 1748 H 148.013 4.41627 1.71063 0
M  V30 1749 H 148.437 6.75017 0.517747 0
M  V30 1750 H 153.079 3.9866 1.4082 0
M  V30 1751 H 150.797 8.07302 -0.359071 0
M  V30 1752 H 154.383 5.80698 0.35788 0
M  V30 1753 H 153.263 7.82521 -0.512882 0
M  V30 1754 N 150.766 -0.704594 1.40972 0
M  V30 1755 C 151.696 -1.83124 1.44872 0
M  V30 1756 C 152.677 -1.67281 0.30838 0
M  V30 1757 O 153.862 -1.87149 0.518556 0
M  V30 1758 C 150.992 -3.21181 1.32136 0
M  V30 1759 C 149.946 -3.51714 2.43888 0
M  V30 1760 C 149.272 -4.89032 2.16222 0
M  V30 1761 C 150.572 -3.516 3.86232 0
M  V30 1762 H 152.266 -1.80117 2.39161 0
M  V30 1763 H 149.812 -0.865145 1.15114 0
M  V30 1764 H 151.765 -3.99702 1.33479 0
M  V30 1765 H 150.489 -3.24791 0.343279 0
M  V30 1766 H 149.148 -2.75539 2.41813 0
M  V30 1767 H 148.796 -4.89256 1.16778 0
M  V30 1768 H 148.496 -5.10426 2.911 0
M  V30 1769 H 150.02 -5.69873 2.19265 0
M  V30 1770 H 151.434 -4.2014 3.9007 0
M  V30 1771 H 149.831 -3.84523 4.60719 0
M  V30 1772 H 150.901 -2.50757 4.15029 0
M  V30 1773 N 152.244 -1.26651 -0.937939 0
M  V30 1774 C 153.191 -1.0849 -2.03712 0
M  V30 1775 C 154.161 0.011033 -1.66096 0
M  V30 1776 O 155.346 -0.149353 -1.90215 0
M  V30 1777 C 152.486 -0.72735 -3.37348 0
M  V30 1778 C 151.599 -1.89986 -3.87981 0
M  V30 1779 C 150.734 -1.48513 -5.10017 0
M  V30 1780 C 149.773 -2.62575 -5.5292 0
M  V30 1781 N 148.91 -2.21762 -6.66158 0
M  V30 1782 H 153.75 -2.02551 -2.18579 0
M  V30 1783 H 151.287 -1.00844 -1.07093 0
M  V30 1784 H 153.245 -0.50092 -4.14182 0
M  V30 1785 H 151.875 0.176298 -3.22318 0
M  V30 1786 H 150.927 -2.23913 -3.07518 0
M  V30 1787 H 152.239 -2.75586 -4.15757 0
M  V30 1788 H 151.393 -1.21934 -5.94321 0
M  V30 1789 H 150.132 -0.60009 -4.83994 0
M  V30 1790 H 149.137 -2.8988 -4.67172 0
M  V30 1791 H 150.362 -3.51685 -5.80943 0
M  V30 1792 H 148.308 -1.35696 -6.41812 0
M  V30 1793 H 148.225 -3.00903 -6.93537 0
M  V30 1794 H 149.493 -1.98403 -7.53828 0
M  V30 1795 N 153.722 1.14298 -1.08507 0
M  V30 1796 C 154.685 2.17607 -0.719711 0
M  V30 1797 C 155.685 1.58907 0.245997 0
M  V30 1798 O 156.875 1.74181 0.0254081 0
M  V30 1799 C 154.007 3.40842 -0.0627695 0
M  V30 1800 H 155.2 2.51443 -1.63452 0
M  V30 1801 H 152.753 1.28963 -0.88307 0
M  V30 1802 H 153.488 3.12587 0.863716 0
M  V30 1803 H 153.273 3.84713 -0.757504 0
M  V30 1804 H 154.763 4.17221 0.177786 0
M  V30 1805 N 155.201 0.870884 1.31352 0
M  V30 1806 C 156.131 0.343096 2.30966 0
M  V30 1807 C 157.112 -0.566507 1.60389 0
M  V30 1808 O 158.297 -0.483336 1.88089 0
M  V30 1809 C 155.427 -0.455487 3.443 0
M  V30 1810 C 154.381 0.361103 4.26474 0
M  V30 1811 C 153.707 -0.563221 5.31725 0
M  V30 1812 C 155.007 1.59566 4.97329 0
M  V30 1813 H 156.701 1.17548 2.75359 0
M  V30 1814 H 154.247 0.566686 1.32381 0
M  V30 1815 H 156.2 -0.83525 4.13039 0
M  V30 1816 H 154.924 -1.32139 2.98675 0
M  V30 1817 H 153.583 0.722825 3.59403 0
M  V30 1818 H 153.231 -1.42643 4.82351 0
M  V30 1819 H 152.931 -0.0207409 5.87596 0
M  V30 1820 H 154.455 -0.939808 6.03324 0
M  V30 1821 H 155.869 1.28728 5.58661 0
M  V30 1822 H 154.266 2.07728 5.63 0
M  V30 1823 H 155.336 2.34798 4.24262 0
M  V30 1824 N 156.679 -1.44442 0.630414 0
M  V30 1825 C 157.611 -2.2892 -0.113347 0
M  V30 1826 C 158.624 -1.41243 -0.80959 0
M  V30 1827 O 159.813 -1.65402 -0.671156 0
M  V30 1828 C 156.913 -3.17594 -1.18266 0
M  V30 1829 C 156.086 -4.33682 -0.569073 0
M  V30 1830 C 155.145 -5.03397 -1.53226 0
M  V30 1831 O 154.171 -5.59438 -1.04967 0
M  V30 1832 N 155.373 -5.04783 -2.86661 0
M  V30 1833 H 158.138 -2.93392 0.611636 0
M  V30 1834 H 155.699 -1.54881 0.471523 0
M  V30 1835 H 157.691 -3.61097 -1.82732 0
M  V30 1836 H 156.261 -2.54876 -1.80988 0
M  V30 1837 H 155.481 -3.9338 0.254187 0
M  V30 1838 H 156.769 -5.08608 -0.139767 0
M  V30 1839 H 156.167 -4.60584 -3.28449 0
M  V30 1840 H 154.724 -5.52077 -3.46489 0
M  V30 1841 N 158.157 -0.370918 -1.53173 0
M  V30 1842 C 159.104 0.473035 -2.259 0
M  V30 1843 C 160.074 1.07311 -1.26781 0
M  V30 1844 O 161.259 1.1046 -1.55574 0
M  V30 1845 C 158.399 1.60405 -3.05556 0
M  V30 1846 C 157.512 1.02863 -4.19575 0
M  V30 1847 C 156.647 2.12918 -4.86661 0
M  V30 1848 C 155.686 1.52869 -5.92704 0
M  V30 1849 N 154.823 2.56779 -6.53459 0
M  V30 1850 H 159.663 -0.153649 -2.97604 0
M  V30 1851 H 157.2 -0.0875946 -1.46839 0
M  V30 1852 H 159.158 2.27034 -3.50016 0
M  V30 1853 H 157.788 2.20131 -2.36097 0
M  V30 1854 H 156.84 0.252465 -3.79561 0
M  V30 1855 H 158.152 0.549642 -4.95762 0
M  V30 1856 H 157.306 2.87356 -5.34333 0
M  V30 1857 H 156.045 2.6417 -4.09958 0
M  V30 1858 H 155.05 0.769479 -5.44389 0
M  V30 1859 H 156.275 1.02435 -6.7133 0
M  V30 1860 H 154.221 3.07235 -5.79606 0
M  V30 1861 H 154.138 2.13583 -7.25202 0
M  V30 1862 H 155.406 3.30903 -7.05779 0
M  V30 1863 N 159.635 1.57281 -0.100228 0
M  V30 1864 C 160.545 2.17833 0.870965 0
M  V30 1865 C 161.561 1.14921 1.30649 0
M  V30 1866 O 162.737 1.47313 1.37335 0
M  V30 1867 C 159.802 2.75085 2.1102 0
M  V30 1868 C 158.863 3.9297 1.72838 0
M  V30 1869 C 158.096 4.47482 2.90854 0
M  V30 1870 O 158.319 4.00922 4.05731 0
M  V30 1871 O 157.253 5.38433 2.69023 0
M  V30 1872 H 161.079 3.0124 0.38575 0
M  V30 1873 H 158.664 1.48881 0.124397 0
M  V30 1874 H 160.546 3.11656 2.83634 0
M  V30 1875 H 159.221 1.94721 2.58584 0
M  V30 1876 H 158.128 3.61201 0.973883 0
M  V30 1877 H 159.461 4.74713 1.30033 0
M  V30 1878 N 161.113 -0.173488 1.56642 0
M  V30 1879 C 162.362 -0.888758 1.81063 0
M  V30 1880 C 162.675 -1.83506 0.67712 0
M  V30 1881 O 163.881 -2.59254 0.806206 0
M  V30 1882 C 162.337 -1.63091 3.20826 0
M  V30 1883 C 161.945 -0.728357 4.4204 0
M  V30 1884 C 163.689 -2.33454 3.54541 0
M  V30 1885 C 161.596 -1.47062 5.72823 0
M  V30 1886 H 160.526 -0.335618 0.675186 0
M  V30 1887 H 163.177 -0.141712 1.82952 0
M  V30 1888 H 161.559 -2.42263 3.13248 0
M  V30 1889 H 162.733 0.0262449 4.60793 0
M  V30 1890 H 161.048 -0.134492 4.16183 0
M  V30 1891 H 163.645 -2.89578 4.49498 0
M  V30 1892 H 163.988 -3.08687 2.79317 0
M  V30 1893 H 164.521 -1.61227 3.63663 0
M  V30 1894 H 161.26 -0.760658 6.51072 0
M  V30 1895 H 160.78 -2.1986 5.58052 0
M  V30 1896 H 162.459 -2.01868 6.14702 0
M  V30 1897 N 162.591 -1.51276 -0.441967 0
M  V30 1898 C 164.007 -1.39349 -0.778083 0
M  V30 1899 C 164.207 -0.472212 -1.95889 0
M  V30 1900 O 163.263 0.0743551 -2.5239 0
M  V30 1901 C 164.576 -2.81292 -1.0628 0
M  V30 1902 C 166.124 -2.9041 -1.16751 0
M  V30 1903 C 166.599 -4.33251 -1.48519 0
M  V30 1904 N 168.09 -4.36336 -1.55453 0
M  V30 1905 C 168.825 -5.43885 -1.81596 0
M  V30 1906 N 168.321 -6.61601 -2.05562 0
M  V30 1907 N 170.114 -5.3136 -1.8334 0
M  V30 1908 H 162.265 -2.09729 0.335774 0
M  V30 1909 H 164.528 -0.943925 0.0878028 0
M  V30 1910 H 164.234 -3.50678 -0.267905 0
M  V30 1911 H 164.108 -3.20334 -1.99163 0
M  V30 1912 H 166.495 -2.21225 -1.95304 0
M  V30 1913 H 166.576 -2.54871 -0.217801 0
M  V30 1914 H 166.22 -5.02984 -0.704958 0
M  V30 1915 H 166.15 -4.66299 -2.44689 0
M  V30 1916 H 168.641 -3.51466 -1.38853 0
M  V30 1917 H 168.954 -7.39361 -2.24867 0
M  V30 1918 H 167.299 -6.64725 -2.02894 0
M  V30 1919 H 170.49 -4.38382 -1.64132 0
M  V30 1920 H 170.663 -6.15258 -2.03377 0
M  V30 1921 N 164.069 0.697108 -1.41344 0
M  V30 1922 C 165.317 1.45426 -1.40341 0
M  V30 1923 C 165.638 1.94996 -0.0128787 0
M  V30 1924 O 164.908 1.71599 0.945027 0
M  V30 1925 H 163.488 0.539594 -0.516573 0
M  V30 1926 H 166.15 0.825201 -1.76569 0
M  V30 1927 H 165.246 2.31817 -2.08967 0
M  V30 1928 N 165.547 1.27147 0.931209 0
M  V30 1929 C 166.495 1.09398 2.05268 0
M  V30 1930 C 167.489 0.0180591 1.6939 0
M  V30 1931 O 168.695 0.17551 1.79142 0
M  V30 1932 H 165.07 0.336986 0.672268 0
M  V30 1933 H 167.041 2.04416 2.17386 0
M  V30 1934 C 165.79 0.75424 3.39421 0
M  V30 1935 H 165.113 1.57404 3.67511 0
M  V30 1936 H 166.553 0.669903 4.18674 0
M  V30 1937 C 165.012 -0.541197 3.32525 0
M  V30 1938 O 165.542 -1.57664 3.69466 0
M  V30 1939 N 163.748 -0.535517 2.85623 0
M  V30 1940 H 163.295 0.307511 2.55758 0
M  V30 1941 H 163.253 -1.40236 2.81392 0
M  V30 1942 N 167.025 -1.13721 1.09112 0
M  V30 1943 C 168.436 -1.6648 0.845068 0
M  V30 1944 C 168.787 -1.85911 -0.62701 0
M  V30 1945 O 167.912 -1.57556 -1.48341 0
M  V30 1946 C 168.507 -3.02413 1.52748 0
M  V30 1947 C 167.066 -3.52176 1.32849 0
M  V30 1948 C 166.213 -2.27492 1.58564 0
M  V30 1949 H 169.164 -0.976872 1.25072 0
M  V30 1950 H 169.185 -3.68223 0.958752 0
M  V30 1951 H 168.697 -2.88238 2.59885 0
M  V30 1952 H 166.798 -3.7156 0.278137 0
M  V30 1953 H 166.911 -4.32499 2.0611 0
M  V30 1954 H 165.275 -2.33923 1.00758 0
M  V30 1955 H 166.058 -2.15886 2.66924 0
M  V30 1956 N 168.503 -0.877838 -1.30888 0
M  V30 1957 C 169.453 -0.310872 -2.25871 0
M  V30 1958 C 170.437 0.556596 -1.50966 0
M  V30 1959 O 171.629 0.402187 -1.7237 0
M  V30 1960 C 168.758 0.479821 -3.3993 0
M  V30 1961 C 167.844 -0.401333 -4.22197 0
M  V30 1962 N 168.235 -1.49848 -4.83093 0
M  V30 1963 C 166.533 -0.195167 -4.45573 0
M  V30 1964 C 167.234 -2.0425 -5.44662 0
M  V30 1965 N 166.21 -1.33843 -5.26865 0
M  V30 1966 H 170.012 -1.1493 -2.70496 0
M  V30 1967 H 167.526 -0.726458 -1.45246 0
M  V30 1968 H 169.523 0.902582 -4.07012 0
M  V30 1969 H 168.183 1.31577 -2.96846 0
M  V30 1970 H 169.194 -1.88137 -4.82519 0
M  V30 1971 H 165.871 0.604192 -4.13105 0
M  V30 1972 H 167.261 -2.96345 -6.03017 0
M  V30 1973 N 169.982 1.44106 -0.638065 0
M  V30 1974 C 170.912 2.33448 0.0494287 0
M  V30 1975 C 171.893 1.48606 0.827672 0
M  V30 1976 O 173.078 1.77308 0.792173 0
M  V30 1977 C 170.208 3.31771 1.02691 0
M  V30 1978 C 169.162 4.26485 0.359823 0
M  V30 1979 C 168.488 5.14729 1.44769 0
M  V30 1980 C 169.788 5.17056 -0.738296 0
M  V30 1981 H 171.482 2.91183 -0.696636 0
M  V30 1982 H 169.028 1.40014 -0.336456 0
M  V30 1983 H 170.981 3.93161 1.51666 0
M  V30 1984 H 169.705 2.7226 1.80395 0
M  V30 1985 H 168.364 3.66437 -0.10934 0
M  V30 1986 H 168.012 4.51566 2.21578 0
M  V30 1987 H 167.712 5.78913 1.00668 0
M  V30 1988 H 169.236 5.78991 1.93911 0
M  V30 1989 H 170.65 5.72342 -0.331354 0
M  V30 1990 H 169.047 5.89879 -1.10286 0
M  V30 1991 H 170.117 4.57652 -1.60258 0
M  V30 1992 N 171.46 0.379036 1.52974 0
M  V30 1993 C 172.39 -0.452706 2.29069 0
M  V30 1994 C 173.371 -1.07237 1.32039 0
M  V30 1995 O 174.556 -1.08708 1.60923 0
M  V30 1996 C 171.686 -1.5856 3.08992 0
M  V30 1997 C 170.64 -1.0925 4.13822 0
M  V30 1998 C 169.966 -2.31668 4.81907 0
M  V30 1999 C 171.266 -0.167702 5.22031 0
M  V30 2000 H 172.96 0.182181 2.98845 0
M  V30 2001 H 170.506 0.0890592 1.43724 0
M  V30 2002 H 172.459 -2.1742 3.6098 0
M  V30 2003 H 171.183 -2.24792 2.36931 0
M  V30 2004 H 169.842 -0.526494 3.628 0
M  V30 2005 H 169.49 -2.96386 4.06404 0
M  V30 2006 H 169.19 -1.9934 5.52754 0
M  V30 2007 H 170.714 -2.91189 5.36695 0
M  V30 2008 H 172.128 -0.664186 5.6944 0
M  V30 2009 H 170.525 0.0653265 6.00064 0
M  V30 2010 H 171.595 0.786347 4.78482 0
M  V30 2011 N 172.938 -1.57226 0.108567 0
M  V30 2012 C 174.184 -1.95121 -0.552761 0
M  V30 2013 C 174.517 -0.991345 -1.66991 0
M  V30 2014 O 173.792 -0.0267211 -1.94482 0
M  V30 2015 C 174.075 -3.43039 -1.09528 0
M  V30 2016 C 173.928 -4.49797 0.0177332 0
M  V30 2017 C 175.247 -3.92567 -1.98945 0
M  V30 2018 H 172.366 -0.709496 -0.199461 0
M  V30 2019 H 175.008 -1.89126 0.182011 0
M  V30 2020 H 173.158 -3.48279 -1.72146 0
M  V30 2021 H 174.83 -4.56661 0.652584 0
M  V30 2022 H 173.073 -4.284 0.682309 0
M  V30 2023 H 173.744 -5.50528 -0.402919 0
M  V30 2024 H 176.22 -3.89565 -1.46214 0
M  V30 2025 H 175.096 -4.96605 -2.33827 0
M  V30 2026 H 175.357 -3.32648 -2.91201 0
M  V30 2027 N 174.416 0.165178 -1.56732 0
M  V30 2028 C 175.363 1.2044 -1.96883 0
M  V30 2029 C 176.333 1.43664 -0.833657 0
M  V30 2030 O 177.518 1.56302 -1.09427 0
M  V30 2031 C 174.658 2.53727 -2.33916 0
M  V30 2032 C 173.771 2.3783 -3.6064 0
M  V30 2033 C 172.906 3.64026 -3.86857 0
M  V30 2034 C 171.945 3.43088 -5.06909 0
M  V30 2035 N 171.082 4.61369 -5.29229 0
M  V30 2036 H 175.922 0.854996 -2.85471 0
M  V30 2037 H 173.459 0.41076 -1.41249 0
M  V30 2038 H 175.417 3.31419 -2.53411 0
M  V30 2039 H 174.047 2.8665 -1.48431 0
M  V30 2040 H 173.099 1.51282 -3.49024 0
M  V30 2041 H 174.411 2.18308 -4.4849 0
M  V30 2042 H 173.565 4.50152 -4.06753 0
M  V30 2043 H 172.304 3.86533 -2.97394 0
M  V30 2044 H 171.309 2.55349 -4.86906 0
M  V30 2045 H 172.534 3.21997 -5.97909 0
M  V30 2046 H 170.48 4.84084 -4.42718 0
M  V30 2047 H 170.397 4.44783 -6.11313 0
M  V30 2048 H 171.665 5.48761 -5.53608 0
M  V30 2049 N 175.894 1.51508 0.433938 0
M  V30 2050 C 177.124 1.67914 1.20369 0
M  V30 2051 C 177.532 0.377461 1.85397 0
M  V30 2052 O 176.875 -0.654255 1.71654 0
M  V30 2053 C 176.937 2.74045 2.32679 0
M  V30 2054 C 176.601 4.16543 1.87991 0
M  V30 2055 C 177.598 5.01211 1.38145 0
M  V30 2056 C 175.283 4.6266 1.95579 0
M  V30 2057 C 177.277 6.30056 0.964774 0
M  V30 2058 C 174.964 5.91501 1.53523 0
M  V30 2059 C 175.962 6.75027 1.04055 0
M  V30 2060 O 175.65 8.01459 0.625964 0
M  V30 2061 H 175.382 0.566578 0.368735 0
M  V30 2062 H 177.936 1.98709 0.51999 0
M  V30 2063 H 176.166 2.38572 3.04336 0
M  V30 2064 H 177.855 2.79295 2.94532 0
M  V30 2065 H 178.621 4.66783 1.31675 0
M  V30 2066 H 174.5 3.97767 2.33029 0
M  V30 2067 H 178.044 6.95202 0.57796 0
M  V30 2068 H 173.941 6.25442 1.59665 0
M  V30 2069 H 174.709 8.15043 0.751509 0
M  V30 2070 N 177.372 -0.689602 1.41712 0
M  V30 2071 C 178.322 -1.79571 1.40493 0
M  V30 2072 C 179.306 -1.58473 0.278409 0
M  V30 2073 O 180.498 -1.69204 0.519532 0
M  V30 2074 C 177.627 -3.17923 1.29536 0
M  V30 2075 C 176.713 -3.44695 2.47075 0
M  V30 2076 N 177.104 -3.42132 3.72531 0
M  V30 2077 C 175.402 -3.75269 2.41017 0
M  V30 2078 C 176.103 -3.67976 4.50521 0
M  V30 2079 N 175.079 -3.88014 3.80718 0
M  V30 2080 H 178.881 -1.75961 2.35404 0
M  V30 2081 H 176.395 -0.889839 1.35851 0
M  V30 2082 H 178.392 -3.97167 1.26745 0
M  V30 2083 H 177.052 -3.22741 0.356153 0
M  V30 2084 H 178.063 -3.22375 4.05333 0
M  V30 2085 H 174.74 -3.87421 1.55599 0
M  V30 2086 H 176.13 -3.7208 5.59469 0
M  V30 2087 N 178.85 -1.27639 -0.924453 0
M  V30 2088 C 180.075 -1.17101 -1.71179 0
M  V30 2089 C 180.5 0.268134 -1.86179 0
M  V30 2090 O 179.858 1.19415 -1.36418 0
M  V30 2091 C 179.906 -1.86313 -3.08739 0
M  V30 2092 O 179.01 -1.16331 -3.95652 0
M  V30 2093 H 178.351 -0.407091 -0.524569 0
M  V30 2094 H 180.881 -1.68767 -1.15666 0
M  V30 2095 H 180.891 -1.938 -3.59034 0
M  V30 2096 H 179.566 -2.91001 -2.97138 0
M  V30 2097 H 178.143 -1.16935 -3.54091 0
M  V30 2098 N 180.328 1.1314 -1.09713 0
M  V30 2099 C 181.576 1.84119 -0.833338 0
M  V30 2100 C 181.897 1.84097 0.642904 0
M  V30 2101 O 181.167 1.29881 1.46655 0
M  V30 2102 H 179.747 0.681766 -0.305293 0
M  V30 2103 H 182.409 1.37038 -1.38588 0
M  V30 2104 H 181.505 2.88543 -1.18951 0
M  V30 2105 N 181.806 0.884767 1.30421 0
M  V30 2106 C 183.053 0.503105 1.96151 0
M  V30 2107 C 183.381 -0.947676 1.69851 0
M  V30 2108 O 182.636 -1.68467 0.995861 0
M  V30 2109 C 182.935 0.724318 3.49983 0
M  V30 2110 C 182.601 2.15015 3.96332 0
M  V30 2111 C 181.263 2.54005 4.08699 0
M  V30 2112 C 183.615 3.07936 4.20505 0
M  V30 2113 C 180.943 3.85128 4.42599 0
M  V30 2114 C 183.295 4.3859 4.55874 0
M  V30 2115 C 181.959 4.77474 4.66449 0
M  V30 2116 H 181.229 0.184099 0.717766 0
M  V30 2117 H 183.876 1.12058 1.55291 0
M  V30 2118 H 182.181 0.0238086 3.91793 0
M  V30 2119 H 183.878 0.408617 3.98913 0
M  V30 2120 H 180.468 1.8375 3.87213 0
M  V30 2121 H 184.652 2.79033 4.10431 0
M  V30 2122 H 179.908 4.14996 4.48986 0
M  V30 2123 H 184.082 5.10629 4.7353 0
M  V30 2124 H 181.709 5.79115 4.92473 0
M  V30 2125 N 183.284 -1.43765 0.645699 0
M  V30 2126 C 184.531 -2.01898 0.15604 0
M  V30 2127 C 184.859 -1.50887 -1.22733 0
M  V30 2128 O 184.114 -0.689271 -1.8316 0
M  V30 2129 C 184.413 -3.57238 0.107679 0
M  V30 2130 C 184.079 -4.27564 1.43178 0
M  V30 2131 C 182.741 -4.46492 1.7944 0
M  V30 2132 C 185.093 -4.67454 2.30513 0
M  V30 2133 C 182.421 -5.02573 3.02716 0
M  V30 2134 C 184.773 -5.24901 3.53074 0
M  V30 2135 C 183.437 -5.42046 3.89541 0
M  V30 2136 H 182.707 -0.738797 0.057099 0
M  V30 2137 H 185.354 -1.72341 0.834912 0
M  V30 2138 H 183.659 -3.86293 -0.654618 0
M  V30 2139 H 185.356 -3.99965 -0.287938 0
M  V30 2140 H 181.946 -4.13171 1.13963 0
M  V30 2141 H 186.13 -4.5253 2.0379 0
M  V30 2142 H 181.386 -5.14033 3.31028 0
M  V30 2143 H 185.56 -5.54758 4.20971 0
M  V30 2144 H 183.187 -5.85268 4.85145 0
M  V30 2145 N 184.763 -0.387143 -1.52771 0
M  V30 2146 C 186.009 0.196025 -2.0185 0
M  V30 2147 C 186.342 1.46641 -1.27319 0
M  V30 2148 O 185.617 1.90889 -0.373032 0
M  V30 2149 C 185.9 0.466136 -3.5707 0
M  V30 2150 C 185.753 -0.819385 -4.42274 0
M  V30 2151 C 187.072 1.25768 -4.21747 0
M  V30 2152 H 184.191 0.0697708 -0.73369 0
M  V30 2153 H 186.833 -0.516286 -1.82851 0
M  V30 2154 H 184.983 1.07293 -3.7339 0
M  V30 2155 H 186.655 -1.4563 -4.37709 0
M  V30 2156 H 184.898 -1.43517 -4.09372 0
M  V30 2157 H 185.569 -0.585065 -5.48891 0
M  V30 2158 H 188.045 0.744167 -4.09391 0
M  V30 2159 H 186.921 1.41541 -5.30337 0
M  V30 2160 H 187.182 2.27228 -3.79236 0
M  V30 2161 N 186.241 1.57166 -0.116904 0
M  V30 2162 C 187.518 1.86645 0.585049 0
M  V30 2163 C 187.898 1.0177 1.84949 0
M  V30 2164 O 187.246 0.0960379 2.28298 0
M  V30 2165 C 187.456 3.37736 0.879507 0
M  V30 2166 C 188.804 4.06289 1.23348 0
M  V30 2167 O 189.828 3.42743 0.969836 0
M  V30 2168 O 188.687 5.18455 1.7282 0
M  V30 2169 H 185.781 0.772593 0.295007 0
M  V30 2170 H 188.327 1.69025 -0.151249 0
M  V30 2171 H 187.099 3.91296 -0.0166136 0
M  V30 2172 H 186.722 3.6078 1.67103 0
M  V30 2173 N 187.719 -0.156864 1.56817 0
M  V30 2174 C 188.967 -0.869404 1.82444 0
M  V30 2175 C 189.288 -1.82147 0.69623 0
M  V30 2176 O 188.558 -1.93847 -0.28287 0
M  V30 2177 H 187.138 -0.324043 0.673056 0
M  V30 2178 H 189.8 -0.153224 1.94297 0
M  V30 2179 H 188.896 -1.43761 2.77019 0
M  V30 2180 N 189.197 -1.51736 -0.425897 0
M  V30 2181 C 190.144 -1.73875 -1.51776 0
M  V30 2182 C 191.114 -0.580702 -1.55618 0
M  V30 2183 O 192.299 -0.81641 -1.72451 0
M  V30 2184 C 189.439 -1.88012 -2.89388 0
M  V30 2185 C 188.552 -3.15606 -2.94986 0
M  V30 2186 C 187.687 -3.20271 -4.23793 0
M  V30 2187 C 186.726 -4.42134 -4.23302 0
M  V30 2188 N 185.863 -4.44284 -5.43651 0
M  V30 2189 H 190.703 -2.67071 -1.32201 0
M  V30 2190 H 188.24 -1.32351 -0.642008 0
M  V30 2191 H 190.198 -1.9419 -3.69251 0
M  V30 2192 H 188.828 -0.98213 -3.07496 0
M  V30 2193 H 187.88 -3.18681 -2.07717 0
M  V30 2194 H 189.192 -4.05486 -2.90486 0
M  V30 2195 H 188.346 -3.25428 -5.12036 0
M  V30 2196 H 187.085 -2.28299 -4.30965 0
M  V30 2197 H 186.09 -4.3714 -3.3345 0
M  V30 2198 H 187.315 -5.35382 -4.17783 0
M  V30 2199 H 185.261 -3.55188 -5.51523 0
M  V30 2200 H 185.178 -5.27988 -5.41078 0
M  V30 2201 H 186.446 -4.53649 -6.33895 0
M  V30 2202 N 190.675 0.682077 -1.42076 0
M  V30 2203 C 191.922 1.44215 -1.42156 0
M  V30 2204 C 192.25 1.94468 -0.0354186 0
M  V30 2205 O 191.505 1.70816 0.955002 0
M  V30 2206 C 191.804 2.66036 -2.38662 0
M  V30 2207 C 191.47 2.34366 -3.85206 0
M  V30 2208 C 190.132 2.25439 -4.25124 0
M  V30 2209 C 192.484 2.08513 -4.77673 0
M  V30 2210 C 189.812 1.88775 -5.55501 0
M  V30 2211 C 192.164 1.73354 -6.08384 0
M  V30 2212 C 190.828 1.62933 -6.47309 0
M  V30 2213 H 190.098 0.527718 -0.520187 0
M  V30 2214 H 192.745 0.778387 -1.74967 0
M  V30 2215 H 191.05 3.3741 -1.99152 0
M  V30 2216 H 192.747 3.24205 -2.35991 0
M  V30 2217 H 189.337 2.42213 -3.53597 0
M  V30 2218 H 193.521 2.14346 -4.47626 0
M  V30 2219 H 188.777 1.7927 -5.84527 0
M  V30 2220 H 192.951 1.52373 -6.79526 0
M  V30 2221 H 190.578 1.34292 -7.48244 0
M  V30 2222 N 192.153 1.28127 0.917671 0
M  V30 2223 C 193.083 1.14248 2.03641 0
M  V30 2224 C 194.064 0.0412748 1.7005 0
M  V30 2225 O 195.249 0.217566 1.92977 0
M  V30 2226 C 192.379 0.799431 3.37974 0
M  V30 2227 C 191.333 1.85497 3.85713 0
M  V30 2228 C 190.659 1.36565 5.16966 0
M  V30 2229 C 191.959 3.26085 4.08002 0
M  V30 2230 H 193.653 2.07835 2.15511 0
M  V30 2231 H 191.199 1.00064 1.03553 0
M  V30 2232 H 193.152 0.689114 4.15727 0
M  V30 2233 H 191.876 -0.172145 3.26146 0
M  V30 2234 H 190.535 1.95437 3.10161 0
M  V30 2235 H 190.183 0.383253 5.01538 0
M  V30 2236 H 189.883 2.07143 5.49878 0
M  V30 2237 H 191.407 1.26848 5.97279 0
M  V30 2238 H 192.821 3.19089 4.76293 0
M  V30 2239 H 191.218 3.94462 4.52238 0
M  V30 2240 H 192.288 3.70394 3.12948 0
M  V30 2241 N 193.631 -1.12557 1.10312 0
M  V30 2242 C 194.871 -1.8568 0.854543 0
M  V30 2243 C 195.235 -1.82091 -0.608843 0
M  V30 2244 O 196.436 -2.50544 -0.973717 0
M  V30 2245 C 194.707 -3.2942 1.38626 0
M  V30 2246 S 196.266 -4.19931 1.27293 0
M  V30 2247 H 193.084 -0.640427 0.308827 0
M  V30 2248 H 195.686 -1.35599 1.40831 0
M  V30 2249 H 194.39 -3.2959 2.44537 0
M  V30 2250 H 193.921 -3.84566 0.82902 0
M  V30 2251 H 195.936 -4.95668 0.229776 0
M  V30 2252 N 195.109 -0.891671 -1.2995 0
M  V30 2253 C 196.349 -0.520296 -1.97667 0
M  V30 2254 C 196.713 0.914797 -1.68806 0
M  V30 2255 O 197.914 1.39263 -2.29911 0
M  V30 2256 C 196.185 -0.795222 -3.48441 0
M  V30 2257 S 197.744 -0.526953 -4.35624 0
M  V30 2258 H 194.562 -0.19333 -0.684211 0
M  V30 2259 H 197.164 -1.15238 -1.57926 0
M  V30 2260 H 195.868 -1.83805 -3.66938 0
M  V30 2261 H 195.399 -0.15095 -3.9311 0
M  V30 2262 H 197.414 0.631533 -4.92165 0
M  V30 2263 N 196.587 1.43421 -0.653314 0
M  V30 2264 C 197.519 2.29071 0.0769134 0
M  V30 2265 C 198.532 1.42513 0.787017 0
M  V30 2266 O 199.721 1.66449 0.644757 0
M  V30 2267 C 196.821 3.19436 1.13199 0
M  V30 2268 C 195.994 4.34533 0.500006 0
M  V30 2269 C 195.053 5.05771 1.45198 0
M  V30 2270 O 194.079 5.61037 0.960538 0
M  V30 2271 N 195.281 5.0928 2.78594 0
M  V30 2272 H 198.046 2.92382 -0.658235 0
M  V30 2273 H 195.607 1.54112 -0.496104 0
M  V30 2274 H 197.599 3.63958 1.76964 0
M  V30 2275 H 196.169 2.57724 1.7691 0
M  V30 2276 H 195.389 3.92925 -0.316738 0
M  V30 2277 H 196.677 5.08766 0.0588345 0
M  V30 2278 H 196.075 4.65751 3.2108 0
M  V30 2279 H 194.632 5.57519 3.37662 0
M  V30 2280 N 198.065 0.39524 1.52563 0
M  V30 2281 C 198.997 -0.472201 2.24283 0
M  V30 2282 C 200.01 -1.02178 1.26742 0
M  V30 2283 O 201.199 -0.923097 1.52778 0
M  V30 2284 C 198.299 -1.66775 2.95024 0
M  V30 2285 C 197.472 -1.2445 4.19322 0
M  V30 2286 C 196.531 -2.30539 4.7301 0
M  V30 2287 O 195.557 -1.91702 5.35947 0
M  V30 2288 N 196.759 -3.6253 4.53379 0
M  V30 2289 H 199.524 0.142282 2.99362 0
M  V30 2290 H 197.085 0.2219 1.60372 0
M  V30 2291 H 199.077 -2.37283 3.27839 0
M  V30 2292 H 197.647 -2.18845 2.23217 0
M  V30 2293 H 196.867 -0.368069 3.92478 0
M  V30 2294 H 198.155 -0.938457 5.0007 0
M  V30 2295 H 197.553 -3.96841 4.03154 0
M  V30 2296 H 196.11 -4.29055 4.90668 0
M  V30 2297 N 199.544 -1.57102 0.125237 0
M  V30 2298 C 200.769 -2.0019 -0.542101 0
M  V30 2299 C 201.194 -1.00449 -1.59034 0
M  V30 2300 O 200.552 0.0229423 -1.81285 0
M  V30 2301 C 200.6 -3.42129 -1.13929 0
M  V30 2302 O 199.704 -3.45307 -2.2547 0
M  V30 2303 H 199.045 -0.650171 -0.134812 0
M  V30 2304 H 201.575 -2.03461 0.215553 0
M  V30 2305 H 201.585 -3.80471 -1.4733 0
M  V30 2306 H 200.26 -4.14237 -0.371531 0
M  V30 2307 H 198.837 -3.1879 -1.93462 0
M  V30 2308 N 201.022 0.148545 -1.56898 0
M  V30 2309 C 202.262 0.86765 -1.85071 0
M  V30 2310 C 202.626 1.78417 -0.709317 0
M  V30 2311 O 203.827 2.54261 -0.872049 0
M  V30 2312 C 202.098 1.62306 -3.1842 0
M  V30 2313 S 203.657 2.3878 -3.68143 0
M  V30 2314 H 200.475 0.290174 -0.649092 0
M  V30 2315 H 203.077 0.127755 -1.95082 0
M  V30 2316 H 201.781 0.941192 -3.99462 0
M  V30 2317 H 201.312 2.4039 -3.1141 0
M  V30 2318 H 203.327 3.63942 -3.37285 0
M  V30 2319 N 202.5 1.5196 0.417844 0
M  V30 2320 C 203.447 1.74678 1.50852 0
M  V30 2321 C 204.417 0.588947 1.55308 0
M  V30 2322 O 205.602 0.825544 1.72016 0
M  V30 2323 C 202.742 1.89544 2.88387 0
M  V30 2324 C 201.855 3.17166 2.93309 0
M  V30 2325 C 200.99 3.22513 4.22088 0
M  V30 2326 C 200.029 4.44372 4.20951 0
M  V30 2327 N 199.166 4.47161 5.41287 0
M  V30 2328 H 204.006 2.67768 1.30783 0
M  V30 2329 H 201.543 1.32689 0.63498 0
M  V30 2330 H 203.501 1.96146 3.68216 0
M  V30 2331 H 202.131 0.998424 3.06971 0
M  V30 2332 H 201.183 3.19778 2.06024 0
M  V30 2333 H 202.495 4.07021 2.88332 0
M  V30 2334 H 201.649 3.28139 5.10303 0
M  V30 2335 H 200.388 2.30581 4.29748 0
M  V30 2336 H 199.393 4.38902 3.31127 0
M  V30 2337 H 200.618 5.3759 4.14938 0
M  V30 2338 H 198.564 3.58108 5.49632 0
M  V30 2339 H 198.481 5.3085 5.3827 0
M  V30 2340 H 199.749 4.57005 6.3148 0
M  V30 2341 N 203.978 -0.674533 1.42435 0
M  V30 2342 C 204.941 -1.76986 1.45632 0
M  V30 2343 C 205.941 -1.5708 0.343871 0
M  V30 2344 O 207.131 -1.63367 0.604709 0
M  V30 2345 C 204.263 -3.15623 1.28822 0
M  V30 2346 H 205.456 -1.75539 2.43158 0
M  V30 2347 H 203.009 -0.884189 1.28887 0
M  V30 2348 H 203.744 -3.22696 0.322193 0
M  V30 2349 H 203.529 -3.31475 2.09444 0
M  V30 2350 H 205.019 -3.95537 1.33942 0
M  V30 2351 N 205.456 -1.28612 -0.910864 0
M  V30 2352 C 206.419 -1.12803 -1.9952 0
M  V30 2353 C 207.419 -0.0668264 -1.60661 0
M  V30 2354 O 208.609 -0.312847 -1.71368 0
M  V30 2355 C 205.741 -0.72254 -3.33155 0
M  V30 2356 H 206.934 -2.09109 -2.14973 0
M  V30 2357 H 204.487 -1.11639 -1.09391 0
M  V30 2358 H 205.222 0.241152 -3.23402 0
M  V30 2359 H 205.007 -1.48916 -3.62721 0
M  V30 2360 H 206.497 -0.634666 -4.12749 0
M  V30 2361 N 206.934 1.1197 -1.10907 0
M  V30 2362 C 208.345 1.65114 -0.871446 0
M  V30 2363 C 208.696 1.86885 0.597353 0
M  V30 2364 O 207.821 1.59896 1.45816 0
M  V30 2365 C 208.416 2.99944 -1.5754 0
M  V30 2366 C 206.975 3.50018 -1.38435 0
M  V30 2367 C 206.122 2.24941 -1.62164 0
M  V30 2368 H 209.073 0.956851 -1.2661 0
M  V30 2369 H 209.094 3.66651 -1.01721 0
M  V30 2370 H 208.606 2.84067 -2.64438 0
M  V30 2371 H 206.707 3.71071 -0.337214 0
M  V30 2372 H 206.82 4.29165 -2.12965 0
M  V30 2373 H 205.184 2.3229 -1.04467 0
M  V30 2374 H 205.967 2.11612 -2.70324 0
M  V30 2375 N 208.412 0.89855 1.29475 0
M  V30 2376 C 209.66 0.522847 1.9522 0
M  V30 2377 C 209.981 -0.93371 1.71192 0
M  V30 2378 O 209.251 -1.65823 1.04305 0
M  V30 2379 H 207.831 0.190366 0.722336 0
M  V30 2380 H 210.493 1.14459 1.5775 0
M  V30 2381 H 209.589 0.704476 3.04045 0
M  V30 2382 N 209.89 -1.43072 0.660911 0
M  V30 2383 C 211.13 -2.03596 0.181146 0
M  V30 2384 C 211.494 -1.51057 -1.18515 0
M  V30 2385 O 212.695 -2.03275 -1.75877 0
M  V30 2386 C 210.966 -3.56845 0.19911 0
M  V30 2387 S 212.525 -4.38289 -0.211684 0
M  V30 2388 H 209.343 -0.706954 0.0757479 0
M  V30 2389 H 211.945 -1.75027 0.870965 0
M  V30 2390 H 210.649 -3.92583 1.1961 0
M  V30 2391 H 210.18 -3.90067 -0.510996 0
M  V30 2392 H 212.195 -4.74583 -1.44863 0
M  V30 2393 N 211.368 -0.403325 -1.52352 0
M  V30 2394 C 212.596 0.174012 -2.06167 0
M  V30 2395 C 213.011 1.39347 -1.27388 0
M  V30 2396 O 212.368 1.79597 -0.324201 0
M  V30 2397 C 212.419 0.530223 -3.5759 0
M  V30 2398 O 212.14 -0.640806 -4.33388 0
M  V30 2399 C 213.641 1.16192 -4.27802 0
M  V30 2400 H 210.861 0.0229464 -0.670608 0
M  V30 2401 H 213.405 -0.572604 -1.9632 0
M  V30 2402 H 211.56 1.22673 -3.67464 0
M  V30 2403 H 211.974 -0.344851 -5.23365 0
M  V30 2404 H 213.448 1.36141 -5.34948 0
M  V30 2405 H 213.925 2.13335 -3.83907 0
M  V30 2406 H 214.531 0.505775 -4.22282 0
M  V30 2407 N 212.846 1.57033 -0.133567 0
M  V30 2408 C 213.776 2.1909 0.807567 0
M  V30 2409 C 214.757 1.13517 1.26681 0
M  V30 2410 O 215.942 1.41809 1.32679 0
M  V30 2411 C 213.072 2.80188 2.05212 0
M  V30 2412 C 212.026 3.91471 1.73015 0
M  V30 2413 C 211.352 4.39443 3.04622 0
M  V30 2414 C 212.652 5.12886 0.987168 0
M  V30 2415 H 214.346 2.97988 0.290403 0
M  V30 2416 H 211.892 1.43335 0.138239 0
M  V30 2417 H 213.845 3.22264 2.71521 0
M  V30 2418 H 212.569 1.98601 2.59278 0
M  V30 2419 H 211.228 3.49993 1.0909 0
M  V30 2420 H 210.876 3.54695 3.56651 0
M  V30 2421 H 210.576 5.14495 2.83847 0
M  V30 2422 H 212.1 4.8418 3.72024 0
M  V30 2423 H 213.514 5.51891 1.55208 0
M  V30 2424 H 211.911 5.93615 0.87985 0
M  V30 2425 H 212.981 4.84894 -0.0235286 0
M  V30 2426 N 214.325 -0.140222 1.56975 0
M  V30 2427 C 215.571 -0.848084 1.84876 0
M  V30 2428 C 215.926 -1.78481 0.718481 0
M  V30 2429 O 215.219 -1.89497 -0.283093 0
M  V30 2430 C 215.413 -1.65386 3.16832 0
M  V30 2431 C 215.242 -0.79665 4.42587 0
M  V30 2432 C 214.012 -0.459648 5.03205 0
M  V30 2433 C 216.21 -0.12389 5.14151 0
M  V30 2434 N 214.192 0.410446 6.12526 0
M  V30 2435 C 215.563 0.606064 6.17031 0
M  V30 2436 C 217.618 -0.0452654 4.97879 0
M  V30 2437 C 216.321 1.40723 7.054 0
M  V30 2438 C 218.347 0.742658 5.86718 0
M  V30 2439 C 217.709 1.46087 6.89085 0
M  V30 2440 H 213.808 -0.287946 0.727056 0
M  V30 2441 H 216.392 -0.11304 1.94372 0
M  V30 2442 H 214.563 -2.36009 3.08471 0
M  V30 2443 H 216.295 -2.30541 3.32615 0
M  V30 2444 H 213.05 -0.797006 4.66846 0
M  V30 2445 H 213.474 0.836716 6.7181 0
M  V30 2446 H 218.116 -0.586184 4.18717 0
M  V30 2447 H 215.834 1.95938 7.83986 0
M  V30 2448 H 219.42 0.805574 5.76196 0
M  V30 2449 H 218.3 2.06077 7.56639 0
M  V30 2450 N 215.803 -1.52179 -0.40978 0
M  V30 2451 C 216.713 -1.78364 -1.52392 0
M  V30 2452 C 217.729 -0.669183 -1.60617 0
M  V30 2453 O 218.905 -0.954518 -1.77344 0
M  V30 2454 C 215.97 -1.92822 -2.88133 0
M  V30 2455 C 215.031 -3.16725 -2.898 0
M  V30 2456 C 214.264 -3.30483 -4.19067 0
M  V30 2457 O 214.487 -2.49522 -5.12928 0
M  V30 2458 O 213.421 -4.2363 -4.27576 0
M  V30 2459 H 217.247 -2.72931 -1.33201 0
M  V30 2460 H 214.832 -1.37016 -0.59557 0
M  V30 2461 H 216.714 -2.04157 -3.68643 0
M  V30 2462 H 215.389 -1.01444 -3.07393 0
M  V30 2463 H 214.296 -3.10848 -2.08146 0
M  V30 2464 H 215.629 -4.07881 -2.75489 0
M  V30 2465 N 217.281 0.66697 -1.42791 0
M  V30 2466 C 218.244 1.76211 -1.46568 0
M  V30 2467 C 219.244 1.56896 -0.352196 0
M  V30 2468 O 220.434 1.63044 -0.613364 0
M  V30 2469 C 217.566 3.14935 -1.30494 0
M  V30 2470 H 218.759 1.74247 -2.44086 0
M  V30 2471 H 216.312 0.877342 -1.29354 0
M  V30 2472 H 217.047 3.2252 -0.339301 0
M  V30 2473 H 216.832 3.30359 -2.11199 0
M  V30 2474 H 218.322 3.94821 -1.36038 0
M  V30 2475 N 218.759 1.29093 0.90403 0
M  V30 2476 C 219.989 1.19516 1.68522 0
M  V30 2477 C 220.397 -0.24738 1.87576 0
M  V30 2478 O 219.74 -1.17798 1.40959 0
M  V30 2479 C 219.802 1.83249 3.0929 0
M  V30 2480 C 219.466 3.32531 3.13484 0
M  V30 2481 C 220.463 4.28821 2.93953 0
M  V30 2482 C 218.148 3.73656 3.35688 0
M  V30 2483 C 220.142 5.64212 2.96553 0
M  V30 2484 C 217.829 5.0917 3.37919 0
M  V30 2485 C 218.827 6.04258 3.18373 0
M  V30 2486 O 218.515 7.37298 3.20385 0
M  V30 2487 H 218.247 0.415467 0.533257 0
M  V30 2488 H 220.801 1.70912 1.13922 0
M  V30 2489 H 219.031 1.26358 3.65473 0
M  V30 2490 H 220.72 1.68054 3.69476 0
M  V30 2491 H 221.486 3.98382 2.76616 0
M  V30 2492 H 217.365 3.00101 3.49943 0
M  V30 2493 H 220.909 6.38407 2.81216 0
M  V30 2494 H 216.806 5.39256 3.54787 0
M  V30 2495 H 217.574 7.46048 3.36681 0
M  V30 2496 N 220.237 -1.11381 1.11499 0
M  V30 2497 C 221.2 -2.15622 0.777153 0
M  V30 2498 C 222.2 -1.59504 -0.203779 0
M  V30 2499 O 223.39 -1.74188 0.020782 0
M  V30 2500 C 220.522 -3.40556 0.153116 0
M  V30 2501 H 221.715 -2.47021 1.70061 0
M  V30 2502 H 219.268 -1.26577 0.916952 0
M  V30 2503 H 220.003 -3.14767 -0.780536 0
M  V30 2504 H 219.788 -3.8257 0.859238 0
M  V30 2505 H 221.278 -4.17546 -0.0671044 0
M  V30 2506 N 221.715 -0.905404 -1.28997 0
M  V30 2507 C 222.663 -0.377431 -2.29517 0
M  V30 2508 C 223.657 0.526461 -1.61012 0
M  V30 2509 O 224.863 0.40863 -1.753 0
M  V30 2510 H 221.238 -0.103437 -0.744852 0
M  V30 2511 H 223.209 -1.23848 -2.71485 0
M  V30 2512 C 221.958 0.374833 -3.45674 0
M  V30 2513 H 221.281 -0.311474 -3.98585 0
M  V30 2514 H 222.721 0.70903 -4.1803 0
M  V30 2515 C 221.18 1.57963 -2.97572 0
M  V30 2516 O 221.71 2.67886 -2.99333 0
M  V30 2517 N 219.916 1.42375 -2.53333 0
M  V30 2518 H 219.463 0.529466 -2.521 0
M  V30 2519 H 219.421 2.23117 -2.21509 0
M  V30 2520 N 223.193 1.4272 -0.668489 0
M  V30 2521 C 224.123 2.335 -0.000100175 0
M  V30 2522 C 225.104 1.50328 0.795964 0
M  V30 2523 O 226.289 1.78949 0.754385 0
M  V30 2524 C 223.419 3.33874 0.956302 0
M  V30 2525 C 222.373 4.27152 0.269278 0
M  V30 2526 C 221.699 5.17684 1.33818 0
M  V30 2527 C 222.999 5.15373 -0.847805 0
M  V30 2528 H 224.693 2.89639 -0.758244 0
M  V30 2529 H 222.239 1.39269 -0.366079 0
M  V30 2530 H 224.192 3.9629 1.43292 0
M  V30 2531 H 222.916 2.76025 1.74579 0
M  V30 2532 H 221.575 3.66123 -0.187042 0
M  V30 2533 H 221.223 4.56165 2.1195 0
M  V30 2534 H 220.923 5.80918 0.883659 0
M  V30 2535 H 222.447 5.82974 1.81586 0
M  V30 2536 H 223.861 5.7151 -0.452681 0
M  V30 2537 H 222.258 5.87407 -1.22773 0
M  V30 2538 H 223.328 4.5415 -1.69929 0
M  V30 2539 N 224.671 0.411399 1.52136 0
M  V30 2540 C 225.621 -0.430376 2.23901 0
M  V30 2541 C 226.605 -1.0116 1.25121 0
M  V30 2542 O 227.797 -0.934044 1.50348 0
M  V30 2543 C 224.926 -1.54527 3.06556 0
M  V30 2544 C 224.012 -0.9747 4.12747 0
M  V30 2545 N 224.403 -0.130991 5.0563 0
M  V30 2546 C 222.701 -1.24497 4.28271 0
M  V30 2547 C 223.402 0.186689 5.814 0
M  V30 2548 N 222.378 -0.42304 5.41951 0
M  V30 2549 H 226.18 0.220509 2.93072 0
M  V30 2550 H 223.694 0.221952 1.60876 0
M  V30 2551 H 225.691 -2.16093 3.56524 0
M  V30 2552 H 224.351 -2.19875 2.38925 0
M  V30 2553 H 225.362 0.23349 5.17373 0
M  V30 2554 H 222.039 -1.89787 3.7187 0
M  V30 2555 H 223.429 0.871673 6.66222 0
M  V30 2556 N 226.149 -1.5696 0.141893 0
M  V30 2557 C 227.377 -2.00322 -0.517579 0
M  V30 2558 C 227.792 -1.02193 -1.58752 0
M  V30 2559 O 227.149 -0.0181619 -1.82491 0
M  V30 2560 C 227.2 -3.43618 -1.12289 0
M  V30 2561 O 226.921 -4.37995 -0.0956929 0
M  V30 2562 C 228.422 -4.02231 -1.86347 0
M  V30 2563 H 225.642 -0.657243 -0.135177 0
M  V30 2564 H 228.186 -2.03146 0.234973 0
M  V30 2565 H 226.341 -3.41662 -1.82609 0
M  V30 2566 H 226.755 -5.21729 -0.538469 0
M  V30 2567 H 228.229 -5.04509 -2.23997 0
M  V30 2568 H 228.706 -3.42655 -2.74744 0
M  V30 2569 H 229.312 -4.07802 -1.20737 0
M  V30 2570 N 227.627 0.131896 -1.57047 0
M  V30 2571 C 228.59 1.14638 -1.98471 0
M  V30 2572 C 229.59 1.35029 -0.873148 0
M  V30 2573 O 230.78 1.31764 -1.13946 0
M  V30 2574 C 227.912 2.50358 -2.31373 0
M  V30 2575 H 229.105 0.79064 -2.8929 0
M  V30 2576 H 226.658 0.375761 -1.51716 0
M  V30 2577 H 227.393 2.90876 -1.43393 0
M  V30 2578 H 227.178 2.36915 -3.12432 0
M  V30 2579 H 228.668 3.23395 -2.64207 0
M  V30 2580 N 229.106 1.52395 0.401703 0
M  V30 2581 C 230.352 1.67065 1.14966 0
M  V30 2582 C 230.685 0.403052 1.89971 0
M  V30 2583 O 229.96 -0.598774 1.85054 0
M  V30 2584 C 230.243 2.8975 2.13815 0
M  V30 2585 C 230.096 4.26578 1.42658 0
M  V30 2586 C 231.415 3.07965 3.14397 0
M  V30 2587 H 228.534 0.607968 0.416587 0
M  V30 2588 H 231.176 1.84965 0.434511 0
M  V30 2589 H 229.326 2.74619 2.74803 0
M  V30 2590 H 230.998 4.53451 0.847329 0
M  V30 2591 H 229.241 4.27639 0.72849 0
M  V30 2592 H 229.912 5.08483 2.14823 0
M  V30 2593 H 232.388 3.22043 2.63491 0
M  V30 2594 H 231.264 3.95308 3.80819 0
M  V30 2595 H 231.525 2.21611 3.82545 0
M  V30 2596 N 230.584 -0.659388 1.43143 0
M  V30 2597 C 231.532 -1.79374 1.4808 0
M  V30 2598 C 232.526 -1.65639 0.354988 0
M  V30 2599 O 233.732 -1.7206 0.528704 0
M  V30 2600 H 230.107 -0.591705 0.4641 0
M  V30 2601 H 232.078 -1.72329 2.43609 0
M  V30 2602 C 230.827 -3.17606 1.41499 0
M  V30 2603 H 230.15 -3.28809 2.27431 0
M  V30 2604 H 231.59 -3.96951 1.49015 0
M  V30 2605 C 230.049 -3.36642 0.131765 0
M  V30 2606 O 230.579 -3.93461 -0.809386 0
M  V30 2607 N 228.785 -2.90567 0.0439396 0
M  V30 2608 H 228.332 -2.44513 0.810619 0
M  V30 2609 H 228.29 -3.03681 -0.813969 0
M  V30 2610 N 232.062 -1.29571 -0.897171 0
M  V30 2611 C 232.972 -1.16808 -2.03453 0
M  V30 2612 C 233.988 -0.0907471 -1.73763 0
M  V30 2613 O 235.164 -0.303312 -1.99103 0
M  V30 2614 C 232.229 -0.848264 -3.36163 0
M  V30 2615 C 231.29 -2.0097 -3.79354 0
M  V30 2616 C 230.523 -1.70505 -5.05731 0
M  V30 2617 O 230.746 -0.62718 -5.66941 0
M  V30 2618 O 229.68 -2.5538 -5.45036 0
M  V30 2619 H 233.506 -2.12325 -2.17144 0
M  V30 2620 H 231.091 -1.09047 -1.02123 0
M  V30 2621 H 232.973 -0.684581 -4.15802 0
M  V30 2622 H 231.648 0.0771071 -3.23608 0
M  V30 2623 H 230.555 -2.22863 -3.00471 0
M  V30 2624 H 231.888 -2.91636 -3.96496 0
M  V30 2625 N 233.54 1.10788 -1.12088 0
M  V30 2626 C 234.45 2.20599 -0.798338 0
M  V30 2627 C 235.466 1.72712 0.21135 0
M  V30 2628 O 236.642 2.01348 0.0458477 0
M  V30 2629 C 233.707 3.45771 -0.253674 0
M  V30 2630 C 232.768 4.08411 -1.32283 0
M  V30 2631 C 232.001 5.27608 -0.80406 0
M  V30 2632 O 232.224 5.69241 0.363478 0
M  V30 2633 O 231.158 5.8101 -1.57198 0
M  V30 2634 H 234.984 2.50614 -1.7154 0
M  V30 2635 H 232.569 1.19454 -0.897275 0
M  V30 2636 H 234.451 4.21376 0.0453691 0
M  V30 2637 H 233.126 3.1739 0.636005 0
M  V30 2638 H 232.033 3.34507 -1.67499 0
M  V30 2639 H 233.366 4.40986 -2.18614 0
M  V30 2640 N 235.018 0.912232 1.28515 0
M  V30 2641 C 235.965 0.397954 2.27343 0
M  V30 2642 C 236.935 -0.526766 1.57526 0
M  V30 2643 O 238.12 -0.449292 1.85435 0
M  V30 2644 C 235.26 -0.357263 3.43246 0
M  V30 2645 C 234.373 0.599788 4.27816 0
M  V30 2646 C 233.508 -0.173725 5.30916 0
M  V30 2647 C 232.547 0.777039 6.07148 0
M  V30 2648 N 231.684 0.0371398 7.0209 0
M  V30 2649 H 236.524 1.24577 2.70711 0
M  V30 2650 H 234.061 0.625612 1.33133 0
M  V30 2651 H 236.019 -0.8113 4.09236 0
M  V30 2652 H 234.649 -1.16943 3.00872 0
M  V30 2653 H 233.701 1.17235 3.61884 0
M  V30 2654 H 235.013 1.32704 4.80823 0
M  V30 2655 H 234.167 -0.688394 6.02782 0
M  V30 2656 H 232.906 -0.934041 4.78672 0
M  V30 2657 H 231.911 1.3031 5.34134 0
M  V30 2658 H 233.136 1.53689 6.61481 0
M  V30 2659 H 231.082 -0.705213 6.52198 0
M  V30 2660 H 230.999 0.704249 7.52713 0
M  V30 2661 H 232.267 -0.457383 7.78157 0
M  V30 2662 N 236.496 -1.42363 0.676048 0
M  V30 2663 C 237.446 -2.27987 -0.0242903 0
M  V30 2664 C 238.43 -1.41153 -0.772319 0
M  V30 2665 O 239.622 -1.64592 -0.651025 0
M  V30 2666 C 236.751 -3.29195 -0.973953 0
M  V30 2667 C 235.837 -4.23512 -0.223202 0
M  V30 2668 N 236.228 -4.99865 0.772589 0
M  V30 2669 C 234.526 -4.43606 -0.461469 0
M  V30 2670 C 235.227 -5.68757 1.22027 0
M  V30 2671 N 234.203 -5.40811 0.549975 0
M  V30 2672 H 238.005 -2.84445 0.73949 0
M  V30 2673 H 235.519 -1.54341 0.50522 0
M  V30 2674 H 237.516 -3.89339 -1.49067 0
M  V30 2675 H 236.176 -2.74298 -1.73755 0
M  V30 2676 H 237.187 -5.04921 1.15217 0
M  V30 2677 H 233.864 -3.99749 -1.20446 0
M  V30 2678 H 235.254 -6.40007 2.0455 0
M  V30 2679 N 237.974 -0.419461 -1.51915 0
M  V30 2680 C 239.39 -0.0708431 -1.59443 0
M  V30 2681 C 239.59 1.41796 -1.43164 0
M  V30 2682 O 238.646 2.18596 -1.26381 0
M  V30 2683 C 239.959 -0.574991 -2.95151 0
M  V30 2684 C 241.507 -0.533867 -3.08413 0
M  V30 2685 C 241.982 -1.01469 -4.46618 0
M  V30 2686 N 243.473 -0.971939 -4.52888 0
M  V30 2687 C 244.208 -1.31505 -5.58116 0
M  V30 2688 N 243.704 -1.73014 -6.70849 0
M  V30 2689 N 245.497 -1.23436 -5.48379 0
M  V30 2690 H 237.648 -1.38836 -1.60743 0
M  V30 2691 H 239.911 -0.570998 -0.756747 0
M  V30 2692 H 239.617 -1.61597 -3.12377 0
M  V30 2693 H 239.491 0.00979777 -3.77199 0
M  V30 2694 H 241.878 0.498086 -2.90866 0
M  V30 2695 H 241.959 -1.15484 -2.28248 0
M  V30 2696 H 241.603 -2.04502 -4.6491 0
M  V30 2697 H 241.533 -0.370433 -5.25295 0
M  V30 2698 H 244.024 -0.666893 -3.71969 0
M  V30 2699 H 244.337 -1.97479 -7.47143 0
M  V30 2700 H 242.682 -1.76926 -6.72103 0
M  V30 2701 H 245.873 -0.908869 -4.59192 0
M  V30 2702 H 246.046 -1.50506 -6.30279 0
M  V30 2703 N 239.452 1.56882 -0.150215 0
M  V30 2704 C 240.698 1.96518 0.500834 0
M  V30 2705 C 241.031 1.03527 1.64304 0
M  V30 2706 O 240.306 0.0782751 1.94342 0
M  V30 2707 C 240.589 3.45822 1.00395 0
M  V30 2708 C 240.442 4.49591 -0.136983 0
M  V30 2709 C 241.761 3.97704 1.88467 0
M  V30 2710 H 238.88 0.714535 0.18058 0
M  V30 2711 H 241.522 1.88577 -0.232091 0
M  V30 2712 H 239.672 3.5272 1.62851 0
M  V30 2713 H 241.344 4.5477 -0.77343 0
M  V30 2714 H 239.587 4.26441 -0.795652 0
M  V30 2715 H 240.258 5.51402 0.256815 0
M  V30 2716 H 242.734 3.93304 1.35834 0
M  V30 2717 H 241.61 5.0263 2.20578 0
M  V30 2718 H 241.871 3.40252 2.82279 0
M  V30 2719 N 240.93 -0.123565 1.57115 0
M  V30 2720 C 242.341 -0.681198 1.73829 0
M  V30 2721 C 242.692 -1.80535 0.768214 0
M  V30 2722 O 241.817 -2.16317 -0.0599103 0
M  V30 2723 C 242.412 -1.24246 3.15196 0
M  V30 2724 C 240.971 -1.74643 3.33432 0
M  V30 2725 C 240.118 -0.644284 2.69711 0
M  V30 2726 H 243.069 0.102315 1.5837 0
M  V30 2727 H 243.09 -2.11216 3.16493 0
M  V30 2728 H 242.602 -0.424062 3.85776 0
M  V30 2729 H 240.703 -2.58974 2.67886 0
M  V30 2730 H 240.816 -1.85902 4.41562 0
M  V30 2731 H 239.18 -1.07676 2.3082 0
M  V30 2732 H 239.963 0.163058 3.42913 0
M  V30 2733 N 242.408 -1.52605 -0.393616 0
M  V30 2734 C 243.636 -1.71294 -1.16043 0
M  V30 2735 C 244.051 -0.429259 -1.83855 0
M  V30 2736 O 243.408 0.595921 -1.72496 0
M  V30 2737 C 243.459 -2.8593 -2.21193 0
M  V30 2738 O 243.18 -4.09329 -1.56146 0
M  V30 2739 C 244.681 -3.16259 -3.10636 0
M  V30 2740 H 241.901 -0.573641 -0.348104 0
M  V30 2741 H 244.445 -1.99234 -0.461092 0
M  V30 2742 H 242.6 -2.60465 -2.86769 0
M  V30 2743 H 243.014 -4.73323 -2.25978 0
M  V30 2744 H 244.488 -3.99946 -3.80456 0
M  V30 2745 H 244.965 -2.3045 -3.73884 0
M  V30 2746 H 245.571 -3.43547 -2.50711 0
M  V30 2747 N 243.887 0.651787 -1.4349 0
M  V30 2748 C 245.134 1.41167 -1.45183 0
M  V30 2749 C 245.462 1.94349 -0.0766601 0
M  V30 2750 O 244.717 1.72804 0.918555 0
M  V30 2751 C 245.016 2.60914 -2.44251 0
M  V30 2752 C 244.682 2.26142 -3.9009 0
M  V30 2753 C 243.344 2.16371 -4.2981 0
M  V30 2754 C 245.696 1.98334 -4.81989 0
M  V30 2755 C 243.024 1.7695 -5.5938 0
M  V30 2756 C 245.376 1.6041 -6.11924 0
M  V30 2757 C 244.04 1.49166 -6.5062 0
M  V30 2758 H 243.31 0.516566 -0.531263 0
M  V30 2759 H 245.957 0.741099 -1.76579 0
M  V30 2760 H 244.262 3.3311 -2.06265 0
M  V30 2761 H 245.959 3.19127 -2.42815 0
M  V30 2762 H 242.549 2.34658 -3.58655 0
M  V30 2763 H 246.733 2.04803 -4.52072 0
M  V30 2764 H 241.989 1.66831 -5.88198 0
M  V30 2765 H 246.163 1.37925 -6.82605 0
M  V30 2766 H 243.79 1.1839 -7.50925 0
M  V30 2767 N 245.365 1.30045 0.890287 0
M  V30 2768 C 246.776 1.16738 1.45702 0
M  V30 2769 C 247.127 -0.233939 1.948 0
M  V30 2770 O 246.252 -1.13021 1.84541 0
M  V30 2771 C 246.847 2.11313 2.64825 0
M  V30 2772 C 245.406 2.02001 3.17604 0
M  V30 2773 C 244.553 2.01699 1.90296 0
M  V30 2774 H 247.504 1.42392 0.700726 0
M  V30 2775 H 247.525 1.69086 3.40867 0
M  V30 2776 H 247.037 3.13294 2.2906 0
M  V30 2777 H 245.138 1.03142 3.5804 0
M  V30 2778 H 245.251 2.90128 3.81264 0
M  V30 2779 H 243.615 1.46427 2.08402 0
M  V30 2780 H 244.398 3.05402 1.56795 0
M  V30 2781 N 246.843 -1.10192 1.12674 0
M  V30 2782 C 248.12 -1.78717 0.794965 0
M  V30 2783 C 248.5 -1.98628 -0.714853 0
M  V30 2784 O 247.848 -1.58135 -1.64941 0
M  V30 2785 C 248.058 -3.11546 1.5729 0
M  V30 2786 C 249.406 -3.86382 1.76052 0
M  V30 2787 O 250.43 -3.21274 1.53823 0
M  V30 2788 O 249.289 -5.03246 2.13087 0
M  V30 2789 H 246.383 -0.774702 0.289423 0
M  V30 2790 H 248.929 -1.16819 1.23091 0
M  V30 2791 H 247.701 -2.92489 2.59935 0
M  V30 2792 H 247.324 -3.81164 1.13137 0
M  V30 2793 N 248.321 -0.919034 -1.28029 0
M  V30 2794 C 249.737 -0.617972 -1.4715 0
M  V30 2795 C 249.937 0.835242 -1.83374 0
M  V30 2796 O 248.993 1.61388 -1.94191 0
M  V30 2797 C 250.306 -1.56041 -2.57044 0
M  V30 2798 C 251.854 -1.56769 -2.7091 0
M  V30 2799 C 252.329 -2.49688 -3.83953 0
M  V30 2800 N 253.82 -2.47845 -3.91314 0
M  V30 2801 C 254.555 -3.16437 -4.78179 0
M  V30 2802 N 254.051 -3.94376 -5.69596 0
M  V30 2803 N 255.844 -3.05498 -4.71834 0
M  V30 2804 H 247.995 -1.85866 -1.02798 0
M  V30 2805 H 250.258 -0.797506 -0.512531 0
M  V30 2806 H 249.964 -2.59671 -2.372 0
M  V30 2807 H 249.838 -1.29551 -3.54255 0
M  V30 2808 H 252.225 -0.538745 -2.90141 0
M  V30 2809 H 252.306 -1.87305 -1.74214 0
M  V30 2810 H 251.95 -3.52688 -3.65477 0
M  V30 2811 H 251.88 -2.16453 -4.80058 0
M  V30 2812 H 254.371 -1.91234 -3.25941 0
M  V30 2813 H 254.684 -4.43721 -6.32718 0
M  V30 2814 H 253.029 -3.98481 -5.69419 0
M  V30 2815 H 256.22 -2.44108 -3.99411 0
M  V30 2816 H 256.393 -3.59225 -5.39316 0
M  V30 2817 N 249.799 1.42003 -0.683588 0
M  V30 2818 C 251.045 2.01712 -0.209825 0
M  V30 2819 C 251.378 1.53968 1.18353 0
M  V30 2820 O 250.653 0.745661 1.79639 0
M  V30 2821 C 250.936 3.59202 -0.254197 0
M  V30 2822 C 250.789 4.17102 -1.68363 0
M  V30 2823 C 252.108 4.38344 0.392709 0
M  V30 2824 H 249.227 0.732891 -0.0777189 0
M  V30 2825 H 251.869 1.68909 -0.87004 0
M  V30 2826 H 250.019 3.87278 0.307954 0
M  V30 2827 H 251.691 3.99946 -2.29871 0
M  V30 2828 H 249.934 3.72597 -2.22157 0
M  V30 2829 H 250.605 5.26249 -1.6663 0
M  V30 2830 H 253.081 4.16011 -0.0859162 0
M  V30 2831 H 251.957 5.47901 0.331063 0
M  V30 2832 H 252.218 4.16887 1.47164 0
M  V30 2833 N 251.277 0.427512 1.51691 0
M  V30 2834 C 252.207 -0.3796 2.30394 0
M  V30 2835 C 253.188 -1.02982 1.35384 0
M  V30 2836 O 254.373 -1.03534 1.643 0
M  V30 2837 C 251.503 -1.48649 3.1388 0
M  V30 2838 C 250.457 -0.960294 4.17088 0
M  V30 2839 C 249.783 -2.16219 4.89033 0
M  V30 2840 C 251.083 -0.00153679 5.223 0
M  V30 2841 H 252.777 0.277164 2.98114 0
M  V30 2842 H 250.323 0.134739 1.43368 0
M  V30 2843 H 252.276 -2.05826 3.67714 0
M  V30 2844 H 251 -2.1714 2.43962 0
M  V30 2845 H 249.659 -0.410806 3.64291 0
M  V30 2846 H 249.307 -2.83307 4.15628 0
M  V30 2847 H 249.007 -1.81654 5.58816 0
M  V30 2848 H 250.531 -2.73968 5.45687 0
M  V30 2849 H 251.945 -0.482687 5.71264 0
M  V30 2850 H 250.342 0.256199 5.99553 0
M  V30 2851 H 251.412 0.938174 4.75738 0
M  V30 2852 N 252.755 -1.56801 0.158532 0
M  V30 2853 C 253.702 -2.17337 -0.776729 0
M  V30 2854 C 254.672 -1.1096 -1.23601 0
M  V30 2855 O 255.857 -1.39054 -1.30647 0
M  V30 2856 C 252.997 -2.80822 -2.00582 0
M  V30 2857 C 252.11 -4.01624 -1.59129 0
M  V30 2858 C 251.245 -4.53072 -2.77306 0
M  V30 2859 C 250.284 -5.66314 -2.32282 0
M  V30 2860 N 249.421 -6.12329 -3.43508 0
M  V30 2861 H 254.261 -2.96918 -0.253701 0
M  V30 2862 H 251.798 -1.46661 -0.113504 0
M  V30 2863 H 253.756 -3.15779 -2.72652 0
M  V30 2864 H 252.386 -2.03866 -2.50277 0
M  V30 2865 H 251.438 -3.72571 -0.767806 0
M  V30 2866 H 252.75 -4.83633 -1.2207 0
M  V30 2867 H 251.904 -4.90145 -3.57551 0
M  V30 2868 H 250.643 -3.70095 -3.17617 0
M  V30 2869 H 249.648 -5.28806 -1.5048 0
M  V30 2870 H 250.873 -6.51085 -1.93043 0
M  V30 2871 H 248.819 -5.32284 -3.83418 0
M  V30 2872 H 248.736 -6.89293 -3.105 0
M  V30 2873 H 250.004 -6.5405 -4.24075 0
M  V30 2874 N 254.233 0.115231 -1.57178 0
M  V30 2875 C 255.482 0.820945 -1.84237 0
M  V30 2876 C 255.795 1.80866 -0.744761 0
M  V30 2877 O 257.001 2.56083 -0.901871 0
M  V30 2878 C 255.457 1.51072 -3.26658 0
M  V30 2879 C 255.065 0.563795 -4.44438 0
M  V30 2880 C 256.809 2.20134 -3.62962 0
M  V30 2881 C 254.716 1.25701 -5.77887 0
M  V30 2882 H 253.646 0.310328 -0.687177 0
M  V30 2883 H 256.297 0.0737134 -1.83352 0
M  V30 2884 H 254.679 2.30471 -3.22024 0
M  V30 2885 H 255.853 -0.197247 -4.60378 0
M  V30 2886 H 254.168 -0.0200638 -4.16395 0
M  V30 2887 H 256.765 2.72696 -4.59936 0
M  V30 2888 H 257.108 2.98107 -2.90582 0
M  V30 2889 H 257.641 1.47619 -3.69396 0
M  V30 2890 H 254.38 0.518493 -6.53446 0
M  V30 2891 H 253.9 1.98997 -5.65827 0
M  V30 2892 H 255.579 1.78915 -6.2177 0
M  V30 2893 N 255.711 1.52812 0.385517 0
M  V30 2894 C 257.122 1.5993 0.963293 0
M  V30 2895 C 257.473 0.454302 1.90868 0
M  V30 2896 O 256.598 -0.422132 2.12243 0
M  V30 2897 C 257.193 2.89871 1.75387 0
M  V30 2898 C 255.752 2.99389 2.28129 0
M  V30 2899 C 254.899 2.55071 1.08783 0
M  V30 2900 H 257.85 1.5784 0.164948 0
M  V30 2901 H 257.871 2.76553 2.61341 0
M  V30 2902 H 257.383 3.73186 1.06554 0
M  V30 2903 H 255.484 2.20619 3.00263 0
M  V30 2904 H 255.597 4.04096 2.57377 0
M  V30 2905 H 253.961 2.09473 1.4489 0
M  V30 2906 H 254.744 3.40785 0.414807 0
M  V30 2907 N 257.189 -0.644168 1.43834 0
M  V30 2908 C 258.605 -0.960875 1.27434 0
M  V30 2909 C 258.805 -2.00499 0.200618 0
M  V30 2910 O 257.861 -2.49018 -0.417906 0
M  V30 2911 C 259.174 -1.43653 2.64167 0
M  V30 2912 C 260.722 -1.55271 2.71772 0
M  V30 2913 C 261.197 -2.06224 4.08944 0
M  V30 2914 N 262.688 -2.13513 4.11055 0
M  V30 2915 C 263.423 -2.54081 5.14033 0
M  V30 2916 N 262.919 -2.9388 6.27381 0
M  V30 2917 N 264.712 -2.54101 5.01387 0
M  V30 2918 H 256.863 0.0465779 2.12349 0
M  V30 2919 H 259.126 -0.0417638 0.94708 0
M  V30 2920 H 258.832 -0.743706 3.43747 0
M  V30 2921 H 258.706 -2.40993 2.90176 0
M  V30 2922 H 261.093 -2.23653 1.92519 0
M  V30 2923 H 261.174 -0.563395 2.49519 0
M  V30 2924 H 260.818 -1.38441 4.88668 0
M  V30 2925 H 260.748 -3.06003 4.28567 0
M  V30 2926 H 263.239 -1.85493 3.29242 0
M  V30 2927 H 263.552 -3.2361 7.01781 0
M  V30 2928 H 261.897 -2.91663 6.30839 0
M  V30 2929 H 265.088 -2.22391 4.11898 0
M  V30 2930 H 265.261 -2.85394 5.81768 0
M  V30 2931 N 258.668 -1.30515 -0.883378 0
M  V30 2932 C 259.631 -1.1701 -1.97082 0
M  V30 2933 C 260.631 -0.10089 -1.60483 0
M  V30 2934 O 261.821 -0.349127 -1.70666 0
M  V30 2935 C 258.953 -0.793045 -3.31547 0
M  V30 2936 H 260.146 -2.13622 -2.10489 0
M  V30 2937 H 257.699 -1.13935 -1.06998 0
M  V30 2938 H 258.434 0.172499 -3.23841 0
M  V30 2939 H 258.219 -1.56576 -3.5948 0
M  V30 2940 H 259.709 -0.722073 -4.1131 0
M  V30 2941 N 260.146 1.09593 -1.13257 0
M  V30 2942 C 261.392 1.82003 -0.89458 0
M  V30 2943 C 261.725 1.85402 0.577906 0
M  V30 2944 O 261 1.32099 1.42759 0
M  V30 2945 C 261.283 3.28237 -1.48096 0
M  V30 2946 C 261.136 3.3312 -3.02244 0
M  V30 2947 C 262.455 4.24871 -1.14774 0
M  V30 2948 H 259.574 0.66077 -0.326424 0
M  V30 2949 H 262.216 1.28389 -1.40058 0
M  V30 2950 H 260.366 3.74024 -1.05062 0
M  V30 2951 H 262.038 2.95748 -3.54021 0
M  V30 2952 H 260.281 2.72756 -3.37323 0
M  V30 2953 H 260.952 4.3613 -3.38371 0
M  V30 2954 H 263.428 3.87361 -1.51957 0
M  V30 2955 H 262.304 5.25532 -1.58452 0
M  V30 2956 H 262.565 4.42058 -0.0611849 0
M  V30 2957 N 261.624 0.925811 1.2754 0
M  V30 2958 C 263.035 0.610102 1.7645 0
M  V30 2959 C 263.386 -0.874723 1.75622 0
M  V30 2960 O 262.511 -1.68444 1.35851 0
M  V30 2961 C 263.106 1.10073 3.20421 0
M  V30 2962 C 261.665 0.835723 3.67005 0
M  V30 2963 C 260.812 1.26054 2.46993 0
M  V30 2964 H 263.763 1.10579 1.13833 0
M  V30 2965 H 263.784 0.447557 3.77859 0
M  V30 2966 H 263.296 2.18143 3.20991 0
M  V30 2967 H 261.397 -0.231249 3.71882 0
M  V30 2968 H 261.51 1.45193 4.56569 0
M  V30 2969 H 259.874 0.679111 2.45479 0
M  V30 2970 H 260.657 2.34984 2.50275 0
M  V30 2971 N 263.102 -1.41638 0.69111 0
M  V30 2972 C 264.348 -2.01598 0.220519 0
M  V30 2973 C 264.681 -1.54594 -1.17535 0
M  V30 2974 O 263.956 -0.755177 -1.79241 0
M  V30 2975 C 264.239 -3.59062 0.273243 0
M  V30 2976 C 264.092 -4.16203 1.70573 0
M  V30 2977 C 265.411 -4.38546 -0.369457 0
M  V30 2978 H 262.53 -0.732468 0.0816045 0
M  V30 2979 H 265.172 -1.68445 0.878986 0
M  V30 2980 H 263.322 -3.87435 -0.287411 0
M  V30 2981 H 264.994 -3.98722 2.31989 0
M  V30 2982 H 263.237 -3.71414 2.2413 0
M  V30 2983 H 263.908 -5.25358 1.69419 0
M  V30 2984 H 266.384 -4.1596 0.107977 0
M  V30 2985 H 265.26 -5.48069 -0.302002 0
M  V30 2986 H 265.521 -4.17662 -1.44951 0
M  V30 2987 N 264.58 -0.43555 -1.51462 0
M  V30 2988 C 265.51 0.367376 -2.30592 0
M  V30 2989 C 266.491 1.02263 -1.35928 0
M  V30 2990 O 267.676 1.02661 -1.64847 0
M  V30 2991 C 264.806 1.46983 -3.14664 0
M  V30 2992 C 263.76 0.938161 -4.17591 0
M  V30 2993 C 263.086 2.13622 -4.90173 0
M  V30 2994 C 264.386 -0.0261621 -5.22293 0
M  V30 2995 H 266.08 -0.292969 -2.97963 0
M  V30 2996 H 263.626 -0.14234 -1.43295 0
M  V30 2997 H 265.579 2.03873 -3.688 0
M  V30 2998 H 264.303 2.15843 -2.4511 0
M  V30 2999 H 262.962 0.391481 -3.64504 0
M  V30 3000 H 262.61 2.81098 -4.17124 0
M  V30 3001 H 262.31 1.78688 -5.59772 0
M  V30 3002 H 263.834 2.7107 -5.47132 0
M  V30 3003 H 265.248 0.452384 -5.71512 0
M  V30 3004 H 263.645 -0.287992 -5.99409 0
M  V30 3005 H 264.715 -0.963391 -4.75233 0
M  V30 3006 N 266.058 1.56714 -0.166846 0
M  V30 3007 C 267.005 2.17746 0.765193 0
M  V30 3008 C 267.975 1.11614 1.23011 0
M  V30 3009 O 269.16 1.39745 1.29908 0
M  V30 3010 C 266.3 2.81882 1.9909 0
M  V30 3011 C 265.413 4.02462 1.56997 0
M  V30 3012 C 264.548 4.54537 2.749 0
M  V30 3013 C 263.587 5.67538 2.29275 0
M  V30 3014 N 262.724 6.14142 3.40255 0
M  V30 3015 H 267.564 2.97048 0.237952 0
M  V30 3016 H 265.101 1.4672 0.105725 0
M  V30 3017 H 267.059 3.17221 2.70974 0
M  V30 3018 H 265.689 2.05191 2.49192 0
M  V30 3019 H 264.741 3.72973 0.748037 0
M  V30 3020 H 266.053 4.84273 1.19503 0
M  V30 3021 H 265.207 4.92035 3.54946 0
M  V30 3022 H 263.946 3.71774 3.1565 0
M  V30 3023 H 262.951 5.29597 1.47674 0
M  V30 3024 H 264.176 6.52099 1.89588 0
M  V30 3025 H 262.122 5.3431 3.8059 0
M  V30 3026 H 262.039 6.9093 3.06841 0
M  V30 3027 H 263.307 6.56289 4.206 0
M  V30 3028 N 267.536 -0.106894 1.57237 0
M  V30 3029 C 268.469 -1.16125 1.96444 0
M  V30 3030 C 269.447 -1.3947 0.835871 0
M  V30 3031 O 270.631 -1.53425 1.09513 0
M  V30 3032 C 267.758 -2.51277 2.27107 0
M  V30 3033 C 266.804 -2.44285 3.4961 0
M  V30 3034 S 267.637 -1.87077 5.01759 0
M  V30 3035 C 268.793 -3.23877 5.35588 0
M  V30 3036 H 269.026 -0.826971 2.85567 0
M  V30 3037 H 266.559 -0.314124 1.51171 0
M  V30 3038 H 268.517 -3.29035 2.45451 0
M  V30 3039 H 267.178 -2.81879 1.38576 0
M  V30 3040 H 266.371 -3.4387 3.68469 0
M  V30 3041 H 265.973 -1.74652 3.30715 0
M  V30 3042 H 268.265 -4.20122 5.31511 0
M  V30 3043 H 269.208 -3.09833 6.36717 0
M  V30 3044 H 269.616 -3.22864 4.63054 0
M  V30 3045 N 269.014 -1.53014 -0.377408 0
M  V30 3046 C 270.291 -1.59215 -1.13622 0
M  V30 3047 C 270.671 -0.392407 -2.07421 0
M  V30 3048 O 270.019 0.618342 -2.19975 0
M  V30 3049 C 270.229 -2.93669 -1.88573 0
M  V30 3050 C 271.577 -3.47822 -2.43526 0
M  V30 3051 O 272.601 -2.9562 -1.98715 0
M  V30 3052 O 271.46 -4.39055 -3.25412 0
M  V30 3053 H 268.554 -0.642625 -0.52054 0
M  V30 3054 H 271.1 -1.65353 -0.381625 0
M  V30 3055 H 269.872 -3.7243 -1.20048 0
M  V30 3056 H 269.495 -2.90968 -2.70968 0
M  V30 3057 N 270.492 0.636531 -1.44174 0
M  V30 3058 C 271.455 1.73063 -1.50273 0
M  V30 3059 C 272.455 1.56113 -0.385397 0
M  V30 3060 O 273.645 1.61707 -0.64781 0
M  V30 3061 C 270.777 3.12096 -1.37145 0
M  V30 3062 H 271.97 1.69031 -2.47727 0
M  V30 3063 H 269.523 0.849706 -1.31186 0
M  V30 3064 H 270.258 3.21728 -0.407636 0
M  V30 3065 H 270.043 3.25805 -2.18159 0
M  V30 3066 H 271.533 3.91846 -1.44382 0
M  V30 3067 N 271.97 1.30982 0.876444 0
M  V30 3068 C 273.381 1.18277 1.44456 0
M  V30 3069 C 273.732 -0.213265 1.95037 0
M  V30 3070 O 272.857 -1.11057 1.85729 0
M  V30 3071 C 273.452 2.1411 2.62569 0
M  V30 3072 C 272.011 2.05358 3.15444 0
M  V30 3073 C 271.158 2.03706 1.88146 0
M  V30 3074 H 274.109 1.43127 0.685584 0
M  V30 3075 H 274.13 1.72692 3.39054 0
M  V30 3076 H 273.642 3.15706 2.25724 0
M  V30 3077 H 271.743 1.06934 3.56926 0
M  V30 3078 H 271.856 2.94156 3.78166 0
M  V30 3079 H 270.22 1.48629 2.06837 0
M  V30 3080 H 271.003 3.07047 1.53547 0
M  V30 3081 N 273.449 -1.08991 1.13837 0
M  V30 3082 C 274.674 -1.85551 0.926585 0
M  V30 3083 C 275.099 -1.80782 -0.519566 0
M  V30 3084 O 274.457 -1.18855 -1.36906 0
M  V30 3085 C 274.505 -3.31266 1.42462 0
M  V30 3086 O 273.609 -4.07822 0.612789 0
M  V30 3087 H 272.95 -0.575192 0.331738 0
M  V30 3088 H 275.48 -1.37604 1.51414 0
M  V30 3089 H 275.49 -3.82112 1.43019 0
M  V30 3090 H 274.165 -3.34052 2.47754 0
M  V30 3091 H 272.742 -3.66731 0.675463 0
M  V30 3092 N 274.927 -0.932562 -1.27047 0
M  V30 3093 C 276.152 -0.591474 -1.98787 0
M  V30 3094 C 276.577 0.824601 -1.69062 0
M  V30 3095 O 275.935 1.5541 -0.933677 0
M  V30 3096 C 275.983 -0.829808 -3.50922 0
M  V30 3097 O 275.087 0.102266 -4.12273 0
M  V30 3098 H 274.428 -0.227185 -0.623926 0
M  V30 3099 H 276.958 -1.25314 -1.61733 0
M  V30 3100 H 276.968 -0.747292 -4.01098 0
M  V30 3101 H 275.643 -1.86201 -3.7189 0
M  V30 3102 H 274.22 -0.0305761 -3.72887 0
M  V30 3103 N 276.405 1.4127 -0.698611 0
M  V30 3104 C 277.63 2.06024 -0.238512 0
M  V30 3105 C 278.055 1.5224 1.10475 0
M  V30 3106 O 277.413 0.650623 1.69223 0
M  V30 3107 C 277.461 3.59988 -0.209952 0
M  V30 3108 O 276.565 4.04282 0.814235 0
M  V30 3109 H 275.906 0.653829 -0.115775 0
M  V30 3110 H 278.436 1.8098 -0.954326 0
M  V30 3111 H 278.446 4.07979 -0.0418436 0
M  V30 3112 H 277.121 3.98503 -1.1903 0
M  V30 3113 H 275.698 3.6779 0.615234 0
M  V30 3114 N 277.883 0.443576 1.51229 0
M  V30 3115 C 279.111 -0.11929 2.06556 0
M  V30 3116 C 279.526 -1.35921 1.31038 0
M  V30 3117 O 278.883 -1.78675 0.371704 0
M  V30 3118 C 278.934 -0.435228 3.5887 0
M  V30 3119 O 278.655 0.755486 4.31537 0
M  V30 3120 C 280.156 -1.04808 4.30732 0
M  V30 3121 H 277.376 -0.0051584 0.67098 0
M  V30 3122 H 279.92 0.624453 1.94733 0
M  V30 3123 H 278.075 -1.12887 3.70588 0
M  V30 3124 H 278.489 0.483491 5.22267 0
M  V30 3125 H 279.963 -1.2191 5.3837 0
M  V30 3126 H 280.44 -2.03081 3.89429 0
M  V30 3127 H 281.046 -0.393637 4.23474 0
M  V30 3128 N 279.361 -1.56624 0.175154 0
M  V30 3129 C 280.589 -2.01374 -0.474971 0
M  V30 3130 C 281.004 -1.05537 -1.56548 0
M  V30 3131 O 280.361 -0.0568668 -1.82411 0
M  V30 3132 C 280.412 -3.45923 -1.04975 0
M  V30 3133 O 280.133 -4.381 -0.00276605 0
M  V30 3134 C 281.634 -4.06093 -1.77773 0
M  V30 3135 H 278.854 -0.659962 -0.121206 0
M  V30 3136 H 281.398 -2.02601 0.27801 0
M  V30 3137 H 279.553 -3.45458 -1.75321 0
M  V30 3138 H 279.967 -5.22753 -0.427681 0
M  V30 3139 H 281.441 -5.09147 -2.13245 0
M  V30 3140 H 281.918 -3.48405 -2.67414 0
M  V30 3141 H 282.524 -4.10272 -1.12059 0
M  V30 3142 N 280.839 0.0985539 -1.57292 0
M  V30 3143 C 281.769 1.12064 -2.04851 0
M  V30 3144 C 282.75 1.41981 -0.936767 0
M  V30 3145 O 283.935 1.52071 -1.20781 0
M  V30 3146 C 281.065 2.44144 -2.47004 0
M  V30 3147 C 280.019 2.28643 -3.6181 0
M  V30 3148 C 279.345 3.65869 -3.89929 0
M  V30 3149 C 280.645 1.72986 -4.92822 0
M  V30 3150 H 282.339 0.724979 -2.9049 0
M  V30 3151 H 279.885 0.34729 -1.39749 0
M  V30 3152 H 281.838 3.15914 -2.78884 0
M  V30 3153 H 280.562 2.85639 -1.5836 0
M  V30 3154 H 279.221 1.59318 -3.30172 0
M  V30 3155 H 278.869 4.04885 -2.98458 0
M  V30 3156 H 278.569 3.56344 -4.67218 0
M  V30 3157 H 280.093 4.39112 -4.2428 0
M  V30 3158 H 281.507 2.34593 -5.23105 0
M  V30 3159 H 279.904 1.74229 -5.74251 0
M  V30 3160 H 280.974 0.689007 -4.7998 0
M  V30 3161 N 282.317 1.53212 0.369288 0
M  V30 3162 C 283.28 1.7872 1.43498 0
M  V30 3163 C 284.28 0.657554 1.46741 0
M  V30 3164 O 285.47 0.925736 1.47566 0
M  V30 3165 C 282.602 1.90591 2.82645 0
M  V30 3166 H 283.795 2.73894 1.22156 0
M  V30 3167 H 281.348 1.44233 0.602203 0
M  V30 3168 H 282.083 0.974709 3.09306 0
M  V30 3169 H 281.868 2.72751 2.8169 0
M  V30 3170 H 283.358 2.11931 3.59826 0
M  V30 3171 N 283.795 -0.628877 1.44509 0
M  V30 3172 C 284.727 -1.754 1.47538 0
M  V30 3173 C 285.74 -1.58575 0.368506 0
M  V30 3174 O 286.929 -1.66847 0.634376 0
M  V30 3175 C 284.029 -3.1315 1.29577 0
M  V30 3176 C 283.202 -3.56413 2.53551 0
M  V30 3177 C 282.261 -4.7305 2.30457 0
M  V30 3178 O 281.287 -4.81247 3.03957 0
M  V30 3179 N 282.489 -5.64903 1.3366 0
M  V30 3180 H 285.254 -1.73272 2.44534 0
M  V30 3181 H 282.815 -0.813512 1.39977 0
M  V30 3182 H 284.807 -3.88902 1.11971 0
M  V30 3183 H 283.377 -3.09908 0.409371 0
M  V30 3184 H 282.597 -2.70847 2.86419 0
M  V30 3185 H 283.885 -3.82071 3.36005 0
M  V30 3186 H 283.283 -5.60975 0.729604 0
M  V30 3187 H 281.84 -6.40275 1.22032 0
M  V30 3188 N 285.273 -1.31445 -0.869486 0
M  V30 3189 C 286.503 -1.23942 -1.65294 0
M  V30 3190 C 286.911 0.197561 -1.88166 0
M  V30 3191 O 286.254 1.14019 -1.44033 0
M  V30 3192 C 286.316 -1.91385 -3.04322 0
M  V30 3193 C 285.98 -3.40726 -3.04557 0
M  V30 3194 C 286.977 -4.36464 -2.82481 0
M  V30 3195 C 284.662 -3.82425 -3.25663 0
M  V30 3196 C 286.656 -5.71876 -2.8149 0
M  V30 3197 C 284.343 -5.1795 -3.243 0
M  V30 3198 C 285.341 -6.12486 -3.02241 0
M  V30 3199 O 285.029 -7.45534 -3.00724 0
M  V30 3200 H 284.761 -0.429459 -0.522054 0
M  V30 3201 H 287.315 -1.73873 -1.0935 0
M  V30 3202 H 285.545 -1.36004 -3.61994 0
M  V30 3203 H 287.234 -1.77791 -3.64891 0
M  V30 3204 H 288 -4.05576 -2.65956 0
M  V30 3205 H 283.879 -3.09274 -3.41863 0
M  V30 3206 H 287.423 -6.45638 -2.64191 0
M  V30 3207 H 283.32 -5.48473 -3.40365 0
M  V30 3208 H 284.088 -7.54713 -3.16782 0
M  V30 3209 N 286.751 1.08385 -1.14413 0
M  V30 3210 C 288.028 1.77429 -0.823297 0
M  V30 3211 C 288.408 1.9974 0.683163 0
M  V30 3212 O 287.756 1.60739 1.62405 0
M  V30 3213 C 287.966 3.09004 -1.62227 0
M  V30 3214 C 289.314 3.83532 -1.82177 0
M  V30 3215 O 290.338 3.18786 -1.58915 0
M  V30 3216 O 289.197 4.99792 -2.21067 0
M  V30 3217 H 286.291 0.769999 -0.301712 0
M  V30 3218 H 288.837 1.14846 -1.24934 0
M  V30 3219 H 287.609 2.88316 -2.64555 0
M  V30 3220 H 287.232 3.79316 -1.19187 0
M  V30 3221 N 288.23 0.939286 1.26551 0
M  V30 3222 C 289.178 0.43815 2.28436 0
M  V30 3223 C 290.172 -0.483587 1.62351 0
M  V30 3224 O 291.378 -0.362009 1.76322 0
M  V30 3225 H 287.753 0.123149 0.741848 0
M  V30 3226 H 289.724 1.31002 2.68106 0
M  V30 3227 C 288.473 -0.283052 3.46546 0
M  V30 3228 H 287.796 0.417043 3.97619 0
M  V30 3229 H 289.236 -0.597948 4.19763 0
M  V30 3230 C 287.695 -1.50018 3.01656 0
M  V30 3231 O 288.225 -2.59855 3.0633 0
M  V30 3232 N 286.431 -1.35608 2.57019 0
M  V30 3233 H 285.978 -0.46244 2.53415 0
M  V30 3234 H 285.936 -2.17165 2.27347 0
M  V30 3235 N 289.708 -1.40897 0.706093 0
M  V30 3236 C 290.618 -2.3455 0.0482286 0
M  V30 3237 C 291.634 -1.56796 -0.754396 0
M  V30 3238 O 292.81 -1.89228 -0.689538 0
M  V30 3239 C 289.875 -3.35625 -0.869303 0
M  V30 3240 C 288.936 -4.29261 -0.0576994 0
M  V30 3241 C 288.169 -5.25508 -0.931531 0
M  V30 3242 O 288.392 -5.27472 -2.17092 0
M  V30 3243 O 287.326 -6.00727 -0.375587 0
M  V30 3244 H 291.152 -2.92407 0.820476 0
M  V30 3245 H 288.737 -1.4193 0.4665 0
M  V30 3246 H 290.619 -3.97635 -1.39514 0
M  V30 3247 H 289.294 -2.80196 -1.62086 0
M  V30 3248 H 288.201 -3.70566 0.512988 0
M  V30 3249 H 289.534 -4.87817 0.655426 0
M  V30 3250 N 291.186 -0.45159 -1.50991 0
M  V30 3251 C 292.411 0.110667 -2.07105 0
M  V30 3252 C 292.836 1.3446 -1.31538 0
M  V30 3253 O 292.194 1.77743 -0.357365 0
M  V30 3254 C 292.242 0.397238 -3.58405 0
M  V30 3255 O 291.346 1.48124 -3.84881 0
M  V30 3256 H 290.687 -0.00439271 -0.663985 0
M  V30 3257 H 293.217 -0.637026 -1.9443 0
M  V30 3258 H 293.227 0.64351 -4.02893 0
M  V30 3259 H 291.902 -0.504553 -4.12828 0
M  V30 3260 H 290.479 1.22381 -3.52246 0
M  V30 3261 N 292.664 1.56529 -0.183458 0
M  V30 3262 C 293.611 2.18546 0.742055 0
M  V30 3263 C 294.581 1.12912 1.2182 0
M  V30 3264 O 295.766 1.41115 1.28418 0
M  V30 3265 C 292.906 2.83977 1.96089 0
M  V30 3266 C 292.019 4.04105 1.52719 0
M  V30 3267 C 291.154 4.57427 2.70063 0
M  V30 3268 C 290.193 5.69938 2.23243 0
M  V30 3269 N 289.33 6.17717 3.33722 0
M  V30 3270 H 294.17 2.97284 0.206432 0
M  V30 3271 H 291.707 1.46823 0.0901571 0
M  V30 3272 H 293.665 3.20077 2.67594 0
M  V30 3273 H 292.295 2.07822 2.47002 0
M  V30 3274 H 291.347 3.73745 0.708436 0
M  V30 3275 H 292.659 4.85513 1.1436 0
M  V30 3276 H 291.813 4.95772 3.49708 0
M  V30 3277 H 290.552 3.75101 3.11689 0
M  V30 3278 H 289.557 5.31133 1.42048 0
M  V30 3279 H 290.782 6.54073 1.82661 0
M  V30 3280 H 288.728 5.38317 3.74902 0
M  V30 3281 H 288.645 6.94146 2.99495 0
M  V30 3282 H 289.913 6.60713 4.13616 0
M  V30 3283 N 294.142 -0.090211 1.57342 0
M  V30 3284 C 295.089 -1.10909 2.02405 0
M  V30 3285 C 296.059 -1.39523 0.901252 0
M  V30 3286 O 297.244 -1.50903 1.1676 0
M  V30 3287 C 294.384 -2.42277 2.45755 0
M  V30 3288 C 293.497 -2.20352 3.71576 0
M  V30 3289 C 292.632 -3.45154 4.03785 0
M  V30 3290 C 291.671 -3.18512 5.22701 0
M  V30 3291 N 290.808 -4.35593 5.50639 0
M  V30 3292 H 295.648 -0.71782 2.89225 0
M  V30 3293 H 293.185 -0.342901 1.43048 0
M  V30 3294 H 295.143 -3.18951 2.68935 0
M  V30 3295 H 293.773 -2.79242 1.61938 0
M  V30 3296 H 292.825 -1.34458 3.55844 0
M  V30 3297 H 294.137 -1.96661 4.58395 0
M  V30 3298 H 293.291 -4.30233 4.27767 0
M  V30 3299 H 292.03 -3.71904 3.15498 0
M  V30 3300 H 291.035 -2.31827 4.98534 0
M  V30 3301 H 292.26 -2.93103 6.12591 0
M  V30 3302 H 290.206 -4.6241 4.6531 0
M  V30 3303 H 290.123 -4.1511 6.31838 0
M  V30 3304 H 291.391 -5.21723 5.7916 0
M  V30 3305 N 295.62 -1.53406 -0.361157 0
M  V30 3306 C 296.568 -1.80832 -1.46296 0
M  V30 3307 C 297.562 -0.677699 -1.55253 0
M  V30 3308 O 298.768 -0.860723 -1.58087 0
M  V30 3309 H 295.143 -0.572627 -0.487445 0
M  V30 3310 H 297.114 -2.73045 -1.20371 0
M  V30 3311 C 295.863 -2.01907 -2.8307 0
M  V30 3312 H 295.186 -2.88349 -2.76938 0
M  V30 3313 H 296.626 -2.25072 -3.59331 0
M  V30 3314 C 295.085 -0.799449 -3.27277 0
M  V30 3315 O 295.615 0.00971761 -4.01699 0
M  V30 3316 N 293.821 -0.621637 -2.83873 0
M  V30 3317 H 293.368 -1.28126 -2.23476 0
M  V30 3318 H 293.326 0.19298 -3.13807 0
M  V30 3319 N 297.098 0.621204 -1.44841 0
M  V30 3320 C 298.328 1.40548 -1.51426 0
M  V30 3321 C 298.736 1.88673 -0.141083 0
M  V30 3322 O 298.079 1.62053 0.865128 0
M  V30 3323 C 298.141 2.65325 -2.42576 0
M  V30 3324 C 297.805 2.3893 -3.89566 0
M  V30 3325 C 298.802 2.00138 -4.79834 0
M  V30 3326 C 296.487 2.52263 -4.3436 0
M  V30 3327 C 298.481 1.75021 -6.129 0
M  V30 3328 C 296.168 2.2676 -5.67471 0
M  V30 3329 C 297.166 1.88199 -6.56559 0
M  V30 3330 O 296.854 1.62986 -7.87204 0
M  V30 3331 H 296.586 0.437122 -0.515655 0
M  V30 3332 H 299.14 0.765987 -1.90583 0
M  V30 3333 H 297.37 3.31947 -1.98364 0
M  V30 3334 H 299.059 3.27347 -2.39998 0
M  V30 3335 H 299.825 1.89386 -4.46495 0
M  V30 3336 H 295.704 2.81246 -3.65269 0
M  V30 3337 H 299.248 1.44848 -6.82396 0
M  V30 3338 H 295.145 2.37125 -6.00368 0
M  V30 3339 H 295.913 1.7715 -7.991 0
M  V30 3340 N 298.576 1.31904 0.862503 0
M  V30 3341 C 299.824 1.21776 1.61292 0
M  V30 3342 C 300.145 -0.222413 1.93727 0
M  V30 3343 O 299.415 -1.1451 1.58947 0
M  V30 3344 H 297.995 0.447717 0.597962 0
M  V30 3345 H 300.657 1.65326 1.03215 0
M  V30 3346 H 299.753 1.7948 2.5533 0
M  V30 3347 N 300.054 -1.07777 1.14986 0
M  V30 3348 C 301.279 -1.84558 0.946213 0
M  V30 3349 C 301.704 -1.81323 -0.500362 0
M  V30 3350 O 301.062 -1.20301 -1.35637 0
M  V30 3351 C 301.11 -3.29736 1.45968 0
M  V30 3352 O 300.214 -4.07149 0.65601 0
M  V30 3353 H 299.555 -0.571641 0.33782 0
M  V30 3354 H 302.085 -1.35991 1.52865 0
M  V30 3355 H 302.095 -3.80574 1.47063 0
M  V30 3356 H 300.77 -3.31406 2.51283 0
M  V30 3357 H 299.347 -3.65994 0.714322 0
M  V30 3358 N 301.532 -0.945985 -1.26051 0
M  V30 3359 C 302.464 -0.416662 -2.25381 0
M  V30 3360 C 303.477 0.462712 -1.56086 0
M  V30 3361 O 304.666 0.272383 -1.7641 0
M  V30 3362 C 301.766 0.419812 -3.3629 0
M  V30 3363 C 300.939 -0.444531 -4.35135 0
M  V30 3364 C 299.998 0.332305 -5.2515 0
M  V30 3365 O 299.024 -0.266324 -5.68577 0
M  V30 3366 N 300.226 1.62763 -5.57215 0
M  V30 3367 H 302.991 -1.27059 -2.71433 0
M  V30 3368 H 300.552 -0.815392 -1.39868 0
M  V30 3369 H 302.544 0.947013 -3.93464 0
M  V30 3370 H 301.114 1.17456 -2.89694 0
M  V30 3371 H 300.334 -1.15291 -3.76964 0
M  V30 3372 H 301.622 -1.03478 -4.98166 0
M  V30 3373 H 301.02 2.13603 -5.23823 0
M  V30 3374 H 299.577 2.10097 -6.17011 0
M  V30 3375 N 303.011 1.40521 -0.713556 0
M  V30 3376 C 304.422 1.83853 -0.324807 0
M  V30 3377 C 304.773 1.59667 1.14021 0
M  V30 3378 O 303.898 1.07649 1.87725 0
M  V30 3379 C 304.493 3.33751 -0.582746 0
M  V30 3380 C 303.052 3.75584 -0.247727 0
M  V30 3381 C 302.199 2.63753 -0.856121 0
M  V30 3382 H 305.15 1.29817 -0.91286 0
M  V30 3383 H 305.171 3.80194 0.152682 0
M  V30 3384 H 304.683 3.51322 -1.64908 0
M  V30 3385 H 302.784 3.63608 0.813624 0
M  V30 3386 H 302.897 4.7373 -0.715307 0
M  V30 3387 H 301.261 2.53108 -0.28432 0
M  V30 3388 H 302.044 2.84137 -1.92668 0
M  V30 3389 N 304.489 0.459591 1.5075 0
M  V30 3390 C 305.9 0.00171547 1.867 0
M  V30 3391 C 306.251 -1.39934 1.37525 0
M  V30 3392 O 305.376 -2.03523 0.735349 0
M  V30 3393 C 305.971 -0.00366298 3.388 0
M  V30 3394 C 304.53 -0.406026 3.74204 0
M  V30 3395 C 303.677 0.38673 2.7459 0
M  V30 3396 H 306.628 0.674413 1.43657 0
M  V30 3397 H 306.649 -0.808371 3.71814 0
M  V30 3398 H 306.161 1.01617 3.74561 0
M  V30 3399 H 304.262 -1.43063 3.4404 0
M  V30 3400 H 304.375 -0.115362 4.78961 0
M  V30 3401 H 302.739 -0.158019 2.54209 0
M  V30 3402 H 303.522 1.40585 3.13194 0
M  V30 3403 N 305.967 -1.56429 0.191757 0
M  V30 3404 C 307.192 -2.02309 -0.456706 0
M  V30 3405 C 307.617 -1.07103 -1.5463 0
M  V30 3406 O 306.975 -0.0539677 -1.8122 0
M  V30 3407 C 307.023 -3.46654 -0.993159 0
M  V30 3408 O 306.127 -3.54559 -2.10622 0
M  V30 3409 H 305.468 -0.655303 -0.107114 0
M  V30 3410 H 307.998 -2.02364 0.301653 0
M  V30 3411 H 308.008 -3.86377 -1.31061 0
M  V30 3412 H 306.683 -4.1544 -0.195504 0
M  V30 3413 H 305.26 -3.26708 -1.79767 0
M  V30 3414 N 307.445 0.0818655 -1.57387 0
M  V30 3415 C 308.67 0.799946 -1.91352 0
M  V30 3416 C 309.095 1.70833 -0.787258 0
M  V30 3417 O 308.453 1.79419 0.26048 0
M  V30 3418 C 308.501 1.57812 -3.24234 0
M  V30 3419 O 307.605 2.68806 -3.12757 0
M  V30 3420 H 306.946 0.21891 -0.626877 0
M  V30 3421 H 309.476 0.0531256 -2.04531 0
M  V30 3422 H 309.486 1.95952 -3.57864 0
M  V30 3423 H 308.161 0.911548 -4.05788 0
M  V30 3424 H 306.738 2.33597 -2.90666 0
M  V30 3425 N 308.923 1.53595 0.353017 0
M  V30 3426 C 310.148 1.7462 1.11904 0
M  V30 3427 C 310.573 0.479721 1.8188 0
M  V30 3428 O 309.931 -0.567066 1.72204 0
M  V30 3429 C 309.979 2.92029 2.11545 0
M  V30 3430 O 309.083 2.61516 3.18878 0
M  V30 3431 H 308.424 0.579531 0.324099 0
M  V30 3432 H 310.954 2.00525 0.406301 0
M  V30 3433 H 310.964 3.18551 2.5493 0
M  V30 3434 H 309.639 3.83888 1.60008 0
M  V30 3435 H 308.216 2.45852 2.80377 0
M  V30 3436 N 310.401 -0.613514 1.45168 0
M  V30 3437 C 311.629 -1.39946 1.5239 0
M  V30 3438 C 312.044 -1.88167 0.154531 0
M  V30 3439 O 311.401 -1.61872 -0.842843 0
M  V30 3440 C 311.452 -2.60795 2.50337 0
M  V30 3441 O 311.173 -2.1458 3.81952 0
M  V30 3442 C 312.674 -3.53723 2.67198 0
M  V30 3443 H 309.894 -0.428593 0.516284 0
M  V30 3444 H 312.438 -0.748753 1.903 0
M  V30 3445 H 310.593 -3.21919 2.15515 0
M  V30 3446 H 311.007 -2.93055 4.34993 0
M  V30 3447 H 312.481 -4.35079 3.39721 0
M  V30 3448 H 312.958 -4.0368 1.73029 0
M  V30 3449 H 313.564 -2.98456 3.02992 0
M  V30 3450 N 311.879 -1.3236 -0.855495 0
M  V30 3451 C 313.104 -1.2601 -1.64731 0
M  V30 3452 C 313.529 0.169068 -1.87339 0
M  V30 3453 O 312.887 1.12016 -1.42556 0
M  V30 3454 C 312.935 -2.02417 -2.98429 0
M  V30 3455 O 312.039 -1.3714 -3.8893 0
M  V30 3456 H 311.38 -0.434325 -0.502253 0
M  V30 3457 H 313.91 -1.74661 -1.06558 0
M  V30 3458 H 313.92 -2.12559 -3.48257 0
M  V30 3459 H 312.595 -3.06343 -2.81295 0
M  V30 3460 H 311.172 -1.3554 -3.47395 0
M  V30 3461 N 313.357 1.07166 -1.15556 0
M  V30 3462 C 314.287 2.16403 -0.877046 0
M  V30 3463 C 315.268 1.69217 0.173111 0
M  V30 3464 O 316.453 1.94181 0.027084 0
M  V30 3465 C 313.583 3.45349 -0.367632 0
M  V30 3466 C 312.537 4.05995 -1.35468 0
M  V30 3467 C 311.863 5.30045 -0.704038 0
M  V30 3468 C 313.163 4.45804 -2.72132 0
M  V30 3469 H 314.857 2.39959 -1.79053 0
M  V30 3470 H 312.403 1.15325 -0.862331 0
M  V30 3471 H 314.356 4.21095 -0.160317 0
M  V30 3472 H 313.08 3.21385 0.581326 0
M  V30 3473 H 311.739 3.32296 -1.54839 0
M  V30 3474 H 311.387 5.02373 0.251128 0
M  V30 3475 H 311.087 5.71579 -1.36277 0
M  V30 3476 H 312.611 6.08495 -0.50654 0
M  V30 3477 H 314.025 5.12671 -2.56595 0
M  V30 3478 H 312.422 4.98296 -3.34397 0
M  V30 3479 H 313.492 3.57083 -3.28054 0
M  V30 3480 N 314.835 0.952656 1.25548 0
M  V30 3481 C 315.798 0.475794 2.24207 0
M  V30 3482 C 316.798 -0.419428 1.55234 0
M  V30 3483 O 317.988 -0.216994 1.72843 0
M  V30 3484 C 315.12 -0.312814 3.39462 0
M  V30 3485 H 316.313 1.34779 2.67908 0
M  V30 3486 H 313.866 0.735739 1.37901 0
M  V30 3487 H 314.601 -1.20257 3.01179 0
M  V30 3488 H 314.386 0.329404 3.90714 0
M  V30 3489 H 315.876 -0.635986 4.12729 0
M  V30 3490 N 316.313 -1.40141 0.720998 0
M  V30 3491 C 317.245 -2.29177 0.0324669 0
M  V30 3492 C 318.258 -1.46105 -0.718126 0
M  V30 3493 O 319.447 -1.69335 -0.564608 0
M  V30 3494 C 316.547 -3.24473 -0.978292 0
M  V30 3495 C 315.72 -4.36423 -0.292115 0
M  V30 3496 C 314.779 -5.12122 -1.20901 0
M  V30 3497 O 313.805 -5.64981 -0.691766 0
M  V30 3498 N 315.007 -5.21992 -2.53978 0
M  V30 3499 H 317.772 -2.88909 0.796984 0
M  V30 3500 H 315.333 -1.51569 0.569068 0
M  V30 3501 H 317.325 -3.71987 -1.59398 0
M  V30 3502 H 315.895 -2.65871 -1.64413 0
M  V30 3503 H 315.115 -3.90967 0.503847 0
M  V30 3504 H 316.403 -5.08467 0.183971 0
M  V30 3505 H 315.801 -4.8054 -2.98493 0
M  V30 3506 H 314.358 -5.72995 -3.10677 0
M  V30 3507 N 317.792 -0.46758 -1.50504 0
M  V30 3508 C 319.022 0.086288 -2.0642 0
M  V30 3509 C 319.43 1.34369 -1.33197 0
M  V30 3510 O 318.773 1.79431 -0.393747 0
M  V30 3511 C 318.835 0.443846 -3.5675 0
M  V30 3512 C 318.499 -0.711035 -4.51435 0
M  V30 3513 C 319.496 -1.59205 -4.94924 0
M  V30 3514 C 317.181 -0.900363 -4.94165 0
M  V30 3515 C 319.175 -2.64683 -5.79846 0
M  V30 3516 C 316.862 -1.95837 -5.7887 0
M  V30 3517 C 317.86 -2.82997 -6.21612 0
M  V30 3518 O 317.548 -3.86977 -7.0463 0
M  V30 3519 H 317.28 -0.00217814 -0.675996 0
M  V30 3520 H 319.834 -0.654346 -1.94698 0
M  V30 3521 H 318.064 1.23762 -3.6636 0
M  V30 3522 H 319.753 0.932386 -3.95046 0
M  V30 3523 H 320.519 -1.45745 -4.62583 0
M  V30 3524 H 316.398 -0.231427 -4.60419 0
M  V30 3525 H 319.942 -3.32745 -6.13128 0
M  V30 3526 H 315.839 -2.09305 -6.10624 0
M  V30 3527 H 316.607 -3.83923 -7.22873 0
M  V30 3528 N 319.27 1.56325 -0.20005 0
M  V30 3529 C 320.547 1.89484 0.48529 0
M  V30 3530 C 320.927 1.1143 1.79294 0
M  V30 3531 O 320.275 0.216919 2.27468 0
M  V30 3532 C 320.485 3.41923 0.699243 0
M  V30 3533 C 321.833 4.12256 1.01638 0
M  V30 3534 O 322.857 3.47402 0.786792 0
M  V30 3535 O 321.716 5.26887 1.45095 0
M  V30 3536 H 318.81 0.787144 0.253639 0
M  V30 3537 H 321.356 1.67985 -0.240633 0
M  V30 3538 H 320.128 3.90658 -0.224008 0
M  V30 3539 H 319.751 3.69131 1.47744 0
M  V30 3540 N 320.748 -0.0735177 1.57428 0
M  V30 3541 C 321.973 -0.789787 1.91774 0
M  V30 3542 C 322.398 -1.70413 0.796306 0
M  V30 3543 O 321.756 -1.79555 -0.250961 0
M  V30 3544 C 321.804 -1.5609 3.25067 0
M  V30 3545 O 320.908 -2.67144 3.14178 0
M  V30 3546 H 320.249 -0.215582 0.628029 0
M  V30 3547 H 322.779 -0.0422781 2.04556 0
M  V30 3548 H 322.789 -1.94052 3.58898 0
M  V30 3549 H 321.464 -0.890015 4.06265 0
M  V30 3550 H 320.041 -2.32052 2.91901 0
M  V30 3551 N 322.226 -1.5378 -0.344866 0
M  V30 3552 C 323.174 -1.82373 -1.4437 0
M  V30 3553 C 324.168 -0.694128 -1.54526 0
M  V30 3554 O 325.374 -0.877442 -1.57165 0
M  V30 3555 H 321.749 -0.577765 -0.481344 0
M  V30 3556 H 323.72 -2.74306 -1.17468 0
M  V30 3557 C 322.469 -2.04898 -2.80913 0
M  V30 3558 H 321.792 -2.9127 -2.73865 0
M  V30 3559 H 323.232 -2.28871 -3.56923 0
M  V30 3560 C 321.691 -0.834116 -3.26411 0
M  V30 3561 O 322.221 -0.0328885 -4.01687 0
M  V30 3562 N 320.427 -0.65171 -2.83198 0
M  V30 3563 H 319.974 -1.30489 -2.22104 0
M  V30 3564 H 319.932 0.159686 -3.13994 0
M  V30 3565 N 323.704 0.605807 -1.45491 0
M  V30 3566 C 324.929 1.39625 -1.53361 0
M  V30 3567 C 325.354 1.87351 -0.167645 0
M  V30 3568 O 324.712 1.60243 0.848051 0
M  V30 3569 C 324.76 2.57559 -2.5238 0
M  V30 3570 O 323.864 3.58248 -2.04285 0
M  V30 3571 H 323.205 0.416771 -0.516912 0
M  V30 3572 H 325.735 0.737103 -1.90861 0
M  V30 3573 H 325.745 3.0478 -2.71244 0
M  V30 3574 H 324.42 2.22171 -3.51586 0
M  V30 3575 H 322.997 3.17664 -1.95305 0
M  V30 3576 N 325.182 1.32811 0.848464 0
M  V30 3577 C 326.129 1.22265 1.95755 0
M  V30 3578 C 327.099 0.103413 1.65778 0
M  V30 3579 O 328.284 0.280033 1.88734 0
M  V30 3580 C 325.424 0.958014 3.31536 0
M  V30 3581 C 324.537 2.16262 3.73971 0
M  V30 3582 C 323.672 1.83295 4.98575 0
M  V30 3583 C 322.711 3.00041 5.33518 0
M  V30 3584 N 321.848 2.67125 6.49299 0
M  V30 3585 H 326.688 2.17128 2.04107 0
M  V30 3586 H 324.225 1.07982 0.998913 0
M  V30 3587 H 326.183 0.785052 4.09747 0
M  V30 3588 H 324.813 0.046159 3.22767 0
M  V30 3589 H 323.865 2.44565 2.91362 0
M  V30 3590 H 325.177 3.03572 3.95785 0
M  V30 3591 H 324.331 1.62586 5.84509 0
M  V30 3592 H 323.07 0.932078 4.7871 0
M  V30 3593 H 322.075 3.21374 4.46093 0
M  V30 3594 H 323.3 3.90869 5.55336 0
M  V30 3595 H 321.246 1.79586 6.3094 0
M  V30 3596 H 321.163 3.47965 6.71161 0
M  V30 3597 H 322.431 2.49861 7.3837 0
M  V30 3598 N 326.66 -1.06551 1.16123 0
M  V30 3599 C 327.607 -2.13961 0.865414 0
M  V30 3600 C 328.577 -1.65066 -0.185055 0
M  V30 3601 O 329.762 -1.90732 -0.05083 0
M  V30 3602 C 326.902 -3.43113 0.369776 0
M  V30 3603 C 326.015 -4.05756 1.48276 0
M  V30 3604 C 325.15 -5.22773 0.942414 0
M  V30 3605 C 324.189 -5.77395 2.03179 0
M  V30 3606 N 323.326 -6.85731 1.50721 0
M  V30 3607 H 328.166 -2.38605 1.78527 0
M  V30 3608 H 325.703 -1.17072 0.890646 0
M  V30 3609 H 327.661 -4.17151 0.0640643 0
M  V30 3610 H 326.291 -3.18695 -0.513143 0
M  V30 3611 H 325.343 -3.29292 1.9045 0
M  V30 3612 H 326.655 -4.42351 2.30493 0
M  V30 3613 H 325.809 -6.03827 0.589729 0
M  V30 3614 H 324.548 -4.87618 0.0895191 0
M  V30 3615 H 323.553 -4.94981 2.3932 0
M  V30 3616 H 324.778 -6.14603 2.8886 0
M  V30 3617 H 322.724 -6.52499 0.676811 0
M  V30 3618 H 322.641 -7.21254 2.26557 0
M  V30 3619 H 323.909 -7.7047 1.18303 0
M  V30 3620 N 328.138 -0.959301 -1.25041 0
M  V30 3621 C 329.387 -0.612254 -1.92183 0
M  V30 3622 C 329.7 0.855347 -1.75907 0
M  V30 3623 O 330.906 1.31256 -2.37664 0
M  V30 3624 C 329.362 -1.04435 -3.44414 0
M  V30 3625 C 328.97 -2.53482 -3.69393 0
M  V30 3626 C 330.714 -0.770055 -4.17457 0
M  V30 3627 C 328.621 -2.90468 -5.15153 0
M  V30 3628 H 327.551 -0.225279 -0.719559 0
M  V30 3629 H 330.202 -1.16438 -1.41825 0
M  V30 3630 H 328.584 -0.4206 -3.9376 0
M  V30 3631 H 329.758 -3.20916 -3.30681 0
M  V30 3632 H 328.073 -2.78432 -3.0962 0
M  V30 3633 H 330.67 -1.02249 -5.24832 0
M  V30 3634 H 331.013 0.293611 -4.15263 0
M  V30 3635 H 331.546 -1.35437 -3.74034 0
M  V30 3636 H 328.285 -3.95871 -5.22462 0
M  V30 3637 H 327.805 -2.27711 -5.54894 0
M  V30 3638 H 329.484 -2.79914 -5.83315 0
M  V30 3639 N 329.616 1.39756 -0.72842 0
M  V30 3640 C 330.846 2.04651 -0.283117 0
M  V30 3641 C 331.254 1.5502 1.08469 0
M  V30 3642 O 330.597 0.707343 1.69536 0
M  V30 3643 C 330.659 3.58947 -0.199309 0
M  V30 3644 C 330.323 4.31525 -1.5045 0
M  V30 3645 C 331.32 4.5861 -2.44894 0
M  V30 3646 C 329.005 4.70195 -1.76698 0
M  V30 3647 C 330.999 5.23366 -3.63822 0
M  V30 3648 C 328.686 5.3468 -2.95906 0
M  V30 3649 C 329.684 5.61198 -3.89289 0
M  V30 3650 O 329.372 6.24347 -5.06404 0
M  V30 3651 H 329.104 0.664777 -0.122666 0
M  V30 3652 H 331.658 1.79913 -0.990987 0
M  V30 3653 H 329.888 3.82556 0.56461 0
M  V30 3654 H 331.577 4.0534 0.213125 0
M  V30 3655 H 332.343 4.29187 -2.25883 0
M  V30 3656 H 328.222 4.48916 -1.04859 0
M  V30 3657 H 331.766 5.4398 -4.36728 0
M  V30 3658 H 327.663 5.63524 -3.14819 0
M  V30 3659 H 328.431 6.42842 -5.06652 0
M  V30 3660 N 331.094 0.475555 1.50254 0
M  V30 3661 C 332.342 -0.077738 2.0195 0
M  V30 3662 C 332.663 -1.39813 1.35931 0
M  V30 3663 O 331.933 -1.89249 0.506123 0
M  V30 3664 H 330.513 -0.031719 0.746326 0
M  V30 3665 H 333.175 0.626995 1.84539 0
M  V30 3666 H 332.271 -0.225995 3.11281 0
M  V30 3667 N 332.573 -1.56217 0.208337 0
M  V30 3668 C 333.798 -2.02782 -0.435222 0
M  V30 3669 C 334.223 -1.08738 -1.53485 0
M  V30 3670 O 333.581 -0.0731855 -1.81152 0
M  V30 3671 C 333.629 -3.47687 -0.956335 0
M  V30 3672 O 332.733 -3.56773 -2.06849 0
M  V30 3673 H 332.074 -0.656403 -0.100158 0
M  V30 3674 H 334.604 -2.02033 0.3231 0
M  V30 3675 H 334.614 -3.87745 -1.26955 0
M  V30 3676 H 333.289 -4.15624 -0.15143 0
M  V30 3677 H 331.866 -3.28597 -1.76292 0
M  V30 3678 N 334.051 0.0651679 -1.57465 0
M  V30 3679 C 334.983 1.10359 -2.00882 0
M  V30 3680 C 335.996 1.346 -0.915788 0
M  V30 3681 O 337.185 1.32723 -1.1936 0
M  V30 3682 C 334.285 2.45312 -2.33828 0
M  V30 3683 C 333.458 2.40934 -3.65061 0
M  V30 3684 C 332.517 3.58047 -3.85602 0
M  V30 3685 O 331.543 3.39175 -4.57109 0
M  V30 3686 N 332.745 4.78637 -3.28462 0
M  V30 3687 H 335.51 0.733807 -2.90578 0
M  V30 3688 H 333.071 0.253719 -1.599 0
M  V30 3689 H 335.063 3.22314 -2.44737 0
M  V30 3690 H 333.633 2.74267 -1.49988 0
M  V30 3691 H 332.853 1.49273 -3.64844 0
M  V30 3692 H 334.141 2.35117 -4.51218 0
M  V30 3693 H 333.539 4.96872 -2.70433 0
M  V30 3694 H 332.096 5.53127 -3.44809 0
M  V30 3695 N 335.529 1.53961 0.336706 0
M  V30 3696 C 336.94 1.62914 0.911925 0
M  V30 3697 C 337.291 0.514795 1.89326 0
M  V30 3698 O 336.416 -0.354395 2.13478 0
M  V30 3699 C 337.011 2.95304 1.66076 0
M  V30 3700 C 335.57 3.06496 2.18489 0
M  V30 3701 C 334.717 2.58403 1.00613 0
M  V30 3702 H 337.668 1.58285 0.114649 0
M  V30 3703 H 337.689 2.84727 2.5241 0
M  V30 3704 H 337.201 3.76387 0.946276 0
M  V30 3705 H 335.302 2.3006 2.93092 0
M  V30 3706 H 335.415 4.1208 2.44391 0
M  V30 3707 H 333.779 2.13977 1.38152 0
M  V30 3708 H 334.562 3.41932 0.306179 0
M  V30 3709 N 337.007 -0.598083 1.45811 0
M  V30 3710 C 337.955 -1.72932 1.55555 0
M  V30 3711 C 338.949 -1.63984 0.424921 0
M  V30 3712 O 340.155 -1.69663 0.601205 0
M  V30 3713 H 336.53 -0.571489 0.488779 0
M  V30 3714 H 338.501 -1.61842 2.50699 0
M  V30 3715 C 337.25 -3.11318 1.54843 0
M  V30 3716 H 336.573 -3.18867 2.41172 0
M  V30 3717 H 338.013 -3.90274 1.65717 0
M  V30 3718 C 336.472 -3.3578 0.274427 0
M  V30 3719 O 337.002 -3.9654 -0.641778 0
M  V30 3720 N 335.208 -2.90119 0.167139 0
M  V30 3721 H 334.755 -2.40855 0.913596 0
M  V30 3722 H 334.713 -3.0686 -0.684435 0
M  V30 3723 N 338.485 -1.33259 -0.841409 0
M  V30 3724 C 339.732 -1.24572 -1.5965 0
M  V30 3725 C 340.06 0.189137 -1.93578 0
M  V30 3726 O 339.315 1.14566 -1.5866 0
M  V30 3727 C 339.614 -2.06381 -2.9179 0
M  V30 3728 C 339.28 -3.556 -2.77235 0
M  V30 3729 C 337.942 -3.96282 -2.72973 0
M  V30 3730 C 340.294 -4.50433 -2.62221 0
M  V30 3731 C 337.622 -5.30017 -2.51592 0
M  V30 3732 C 339.974 -5.84327 -2.42374 0
M  V30 3733 C 338.638 -6.24194 -2.36512 0
M  V30 3734 H 337.908 -0.455842 -0.5842 0
M  V30 3735 H 340.555 -1.6482 -0.975016 0
M  V30 3736 H 338.86 -1.58903 -3.5813 0
M  V30 3737 H 340.557 -1.97019 -3.49263 0
M  V30 3738 H 337.147 -3.23298 -2.81384 0
M  V30 3739 H 341.331 -4.19914 -2.64549 0
M  V30 3740 H 336.587 -5.59947 -2.45499 0
M  V30 3741 H 340.761 -6.57414 -2.29739 0
M  V30 3742 H 338.388 -7.27759 -2.19706 0
M  V30 3743 N 339.963 1.05934 -1.16686 0
M  V30 3744 C 340.911 2.15603 -0.872817 0
M  V30 3745 C 341.905 1.68647 0.159576 0
M  V30 3746 O 343.111 1.79995 0.0132125 0
M  V30 3747 H 339.486 0.703885 -0.264671 0
M  V30 3748 H 341.457 2.37613 -1.80507 0
M  V30 3749 C 340.206 3.45457 -0.394344 0
M  V30 3750 H 339.529 3.81984 -1.18019 0
M  V30 3751 H 340.969 4.2339 -0.227408 0
M  V30 3752 C 339.428 3.25021 0.88673 0
M  V30 3753 O 339.958 3.50906 1.95519 0
M  V30 3754 N 338.164 2.78437 0.831925 0
M  V30 3755 H 337.711 2.57572 -0.0377619 0
M  V30 3756 H 337.669 2.65144 1.68956 0
M  V30 3757 N 341.441 0.965919 1.2453 0
M  V30 3758 C 342.374 0.4393 2.23932 0
M  V30 3759 C 343.352 -0.485615 1.55179 0
M  V30 3760 O 344.536 -0.417402 1.83821 0
M  V30 3761 C 341.663 -0.366042 3.36716 0
M  V30 3762 C 340.709 0.5009 4.23548 0
M  V30 3763 S 341.542 1.94002 4.99123 0
M  V30 3764 C 342.698 1.14342 6.15367 0
M  V30 3765 H 342.931 1.28167 2.68254 0
M  V30 3766 H 340.464 0.770819 1.33782 0
M  V30 3767 H 342.422 -0.824724 4.0213 0
M  V30 3768 H 341.083 -1.18337 2.90956 0
M  V30 3769 H 340.276 -0.117341 5.03863 0
M  V30 3770 H 339.878 0.89524 3.63127 0
M  V30 3771 H 342.17 0.397572 6.76332 0
M  V30 3772 H 343.113 1.92089 6.81548 0
M  V30 3773 H 343.521 0.668579 5.60527 0
M  V30 3774 N 342.919 -1.39368 0.735821 0
M  V30 3775 C 343.851 -2.2913 0.0567723 0
M  V30 3776 C 344.864 -1.46859 -0.702589 0
M  V30 3777 O 346.053 -1.69925 -0.546616 0
M  V30 3778 C 343.153 -3.25492 -0.943823 0
M  V30 3779 C 342.326 -4.36709 -0.24581 0
M  V30 3780 C 341.385 -5.13376 -1.15463 0
M  V30 3781 O 340.411 -5.65683 -0.631803 0
M  V30 3782 N 341.613 -5.24656 -2.48427 0
M  V30 3783 H 344.378 -2.88047 0.827582 0
M  V30 3784 H 341.939 -1.50957 0.585112 0
M  V30 3785 H 343.931 -3.73657 -1.55443 0
M  V30 3786 H 342.501 -2.676 -1.61583 0
M  V30 3787 H 341.721 -3.9041 0.545286 0
M  V30 3788 H 343.009 -5.08244 0.237891 0
M  V30 3789 H 342.407 -4.83679 -2.93379 0
M  V30 3790 H 340.964 -5.76258 -3.04582 0
M  V30 3791 N 344.397 -0.483516 -1.5 0
M  V30 3792 C 345.627 0.0643896 -2.065 0
M  V30 3793 C 346.035 1.32949 -1.34615 0
M  V30 3794 O 345.378 1.79003 -0.412756 0
M  V30 3795 C 345.44 0.405983 -3.572 0
M  V30 3796 C 345.104 -0.758875 -4.50655 0
M  V30 3797 C 346.101 -1.64445 -4.93208 0
M  V30 3798 C 343.786 -0.952725 -4.93182 0
M  V30 3799 C 345.78 -2.70818 -5.77006 0
M  V30 3800 C 343.467 -2.01966 -5.76761 0
M  V30 3801 C 344.465 -2.89574 -6.18576 0
M  V30 3802 O 344.153 -3.94429 -7.00486 0
M  V30 3803 H 343.885 -0.00934786 -0.675935 0
M  V30 3804 H 346.439 -0.674959 -1.93993 0
M  V30 3805 H 344.669 1.19869 -3.67652 0
M  V30 3806 H 346.358 0.890433 -3.96013 0
M  V30 3807 H 347.124 -1.50643 -4.61012 0
M  V30 3808 H 343.003 -0.280247 -4.60147 0
M  V30 3809 H 346.547 -3.3923 -6.09565 0
M  V30 3810 H 342.444 -2.1577 -6.0837 0
M  V30 3811 H 343.212 -3.91568 -7.1876 0
M  V30 3812 N 345.875 1.56104 -0.216619 0
M  V30 3813 C 347.124 1.97348 0.416744 0
M  V30 3814 C 347.437 1.10715 1.6125 0
M  V30 3815 O 348.643 1.41836 2.31506 0
M  V30 3816 C 347.099 3.51059 0.792835 0
M  V30 3817 C 346.707 4.46387 -0.379828 0
M  V30 3818 C 348.451 4.01026 1.39208 0
M  V30 3819 C 346.358 5.91397 0.0184223 0
M  V30 3820 H 345.288 0.736942 0.159475 0
M  V30 3821 H 347.939 1.80827 -0.31205 0
M  V30 3822 H 346.321 3.63162 1.57891 0
M  V30 3823 H 347.495 4.46029 -1.15737 0
M  V30 3824 H 345.81 4.06734 -0.891979 0
M  V30 3825 H 348.407 5.0686 1.70286 0
M  V30 3826 H 348.75 3.46587 2.30614 0
M  V30 3827 H 349.283 3.92125 0.669537 0
M  V30 3828 H 346.022 6.49807 -0.862002 0
M  V30 3829 H 345.542 5.94961 0.760384 0
M  V30 3830 H 347.221 6.45455 0.446818 0
M  V30 3831 N 347.353 -0.0568162 1.57498 0
M  V30 3832 C 348.764 -0.606858 1.76562 0
M  V30 3833 C 349.115 -1.77114 0.844094 0
M  V30 3834 O 348.24 -2.16376 0.0318911 0
M  V30 3835 C 348.835 -1.10766 3.20182 0
M  V30 3836 C 347.394 -1.60344 3.40539 0
M  V30 3837 C 346.541 -0.529311 2.72201 0
M  V30 3838 H 349.492 0.169393 1.57793 0
M  V30 3839 H 349.513 -1.97602 3.25167 0
M  V30 3840 H 349.025 -0.26006 3.87228 0
M  V30 3841 H 347.126 -2.47379 2.78629 0
M  V30 3842 H 347.239 -1.67006 4.4905 0
M  V30 3843 H 345.603 -0.977893 2.35179 0
M  V30 3844 H 346.386 0.308352 3.41912 0
M  V30 3845 N 348.832 -1.54138 -0.328536 0
M  V30 3846 C 350.248 -1.44736 -0.672574 0
M  V30 3847 C 350.448 -0.616217 -1.91846 0
M  V30 3848 O 349.504 -0.113067 -2.52247 0
M  V30 3849 C 350.817 -2.884 -0.851217 0
M  V30 3850 C 352.365 -2.98271 -0.948877 0
M  V30 3851 C 352.84 -4.43074 -1.15973 0
M  V30 3852 N 354.331 -4.46665 -1.22658 0
M  V30 3853 C 355.066 -5.55857 -1.40751 0
M  V30 3854 N 354.562 -6.75026 -1.5592 0
M  V30 3855 N 356.355 -5.43495 -1.4342 0
M  V30 3856 H 348.506 -2.06661 0.490421 0
M  V30 3857 H 350.769 -0.934812 0.157579 0
M  V30 3858 H 350.475 -3.51699 -0.00704236 0
M  V30 3859 H 350.349 -3.34225 -1.74853 0
M  V30 3860 H 352.736 -2.35102 -1.78356 0
M  V30 3861 H 352.817 -2.55785 -0.0281435 0
M  V30 3862 H 352.461 -5.06827 -0.329915 0
M  V30 3863 H 352.391 -4.83165 -2.09426 0
M  V30 3864 H 354.882 -3.60797 -1.124 0
M  V30 3865 H 355.195 -7.54004 -1.69404 0
M  V30 3866 H 353.54 -6.77944 -1.53027 0
M  V30 3867 H 356.731 -4.49349 -1.31162 0
M  V30 3868 H 356.904 -6.28649 -1.57178 0
M  V30 3869 N 350.31 0.590341 -1.46126 0
M  V30 3870 C 351.22 1.72793 -1.58681 0
M  V30 3871 C 352.236 1.67516 -0.470566 0
M  V30 3872 O 353.412 1.87562 -0.733642 0
M  V30 3873 C 350.477 3.09287 -1.5666 0
M  V30 3874 C 349.538 3.25886 -2.79458 0
M  V30 3875 C 348.771 4.55869 -2.77524 0
M  V30 3876 O 348.994 5.3928 -1.85832 0
M  V30 3877 O 347.928 4.75552 -3.68964 0
M  V30 3878 H 351.754 1.65149 -2.54872 0
M  V30 3879 H 349.339 0.756486 -1.28832 0
M  V30 3880 H 351.221 3.90577 -1.58202 0
M  V30 3881 H 349.896 3.17385 -0.636271 0
M  V30 3882 H 348.803 2.44119 -2.83472 0
M  V30 3883 H 350.136 3.22675 -3.71674 0
M  V30 3884 N 351.788 1.33704 0.83433 0
M  V30 3885 C 353.065 1.16011 1.57483 0
M  V30 3886 C 353.445 -0.27176 2.09343 0
M  V30 3887 O 352.793 -1.27146 1.89858 0
M  V30 3888 C 353.003 2.20507 2.70514 0
M  V30 3889 C 354.351 2.54898 3.39577 0
M  V30 3890 O 355.375 2.19209 2.80759 0
M  V30 3891 O 354.234 3.16158 4.45765 0
M  V30 3892 H 351.328 0.448992 0.694503 0
M  V30 3893 H 353.874 1.453 0.876691 0
M  V30 3894 H 352.646 3.16667 2.29865 0
M  V30 3895 H 352.269 1.92329 3.47987 0
M  V30 3896 N 353.266 -1.05314 1.17247 0
M  V30 3897 C 354.513 -1.78293 0.960091 0
M  V30 3898 C 354.841 -1.87658 -0.51136 0
M  V30 3899 O 354.096 -1.3718 -1.39571 0
M  V30 3900 C 354.395 -3.2229 1.54479 0
M  V30 3901 C 354.061 -3.32987 3.04024 0
M  V30 3902 C 352.723 -3.35613 3.44844 0
M  V30 3903 C 355.075 -3.34102 4.00031 0
M  V30 3904 C 352.403 -3.36982 4.8027 0
M  V30 3905 C 354.755 -3.3701 5.35357 0
M  V30 3906 C 353.419 -3.37923 5.75642 0
M  V30 3907 H 352.689 -0.652422 0.351322 0
M  V30 3908 H 355.336 -1.23782 1.46117 0
M  V30 3909 H 353.641 -3.7972 0.965391 0
M  V30 3910 H 355.338 -3.77376 1.35603 0
M  V30 3911 H 351.928 -3.31655 2.71483 0
M  V30 3912 H 356.112 -3.31276 3.69554 0
M  V30 3913 H 351.368 -3.35999 5.10798 0
M  V30 3914 H 355.542 -3.36822 6.09528 0
M  V30 3915 H 353.169 -3.38738 6.80559 0
M  V30 3916 N 354.744 -0.972509 -1.24016 0
M  V30 3917 C 356.155 -0.67517 -1.74064 0
M  V30 3918 C 356.506 0.808939 -1.78747 0
M  V30 3919 O 355.631 1.63286 -1.42009 0
M  V30 3920 C 356.226 -1.21889 -3.16115 0
M  V30 3921 C 354.785 -0.971358 -3.6365 0
M  V30 3922 C 353.932 -1.35134 -2.42145 0
M  V30 3923 H 356.883 -1.14727 -1.09651 0
M  V30 3924 H 356.904 -0.587489 -3.75937 0
M  V30 3925 H 356.416 -2.29906 -3.12674 0
M  V30 3926 H 354.517 0.0930686 -3.72484 0
M  V30 3927 H 354.63 -1.62039 -4.50866 0
M  V30 3928 H 352.994 -0.769751 -2.4279 0
M  V30 3929 H 353.777 -2.4411 -2.41381 0
M  V30 3930 N 356.222 1.38976 -0.743202 0
M  V30 3931 C 357.499 1.94351 -0.220705 0
M  V30 3932 C 357.879 1.67935 1.2791 0
M  V30 3933 O 357.227 1.01211 2.04862 0
M  V30 3934 C 357.437 3.44426 -0.563171 0
M  V30 3935 C 358.785 4.2144 -0.517046 0
M  V30 3936 O 359.809 3.52661 -0.500846 0
M  V30 3937 O 358.668 5.44032 -0.518806 0
M  V30 3938 H 355.762 0.825879 -0.043047 0
M  V30 3939 H 358.308 1.48429 -0.822618 0
M  V30 3940 H 357.08 3.5712 -1.59941 0
M  V30 3941 H 356.703 3.97543 0.0672883 0
M  V30 3942 N 357.7 0.491464 1.49741 0
M  V30 3943 C 358.946 -0.0485431 2.03342 0
M  V30 3944 C 359.301 -1.35566 1.36527 0
M  V30 3945 O 358.594 -1.85262 0.488729 0
M  V30 3946 C 358.788 -0.267329 3.56399 0
M  V30 3947 C 358.617 1.01703 4.38049 0
M  V30 3948 C 357.387 1.56614 4.80417 0
M  V30 3949 C 359.585 1.91782 4.77204 0
M  V30 3950 N 357.567 2.7974 5.4646 0
M  V30 3951 C 358.938 2.99489 5.42868 0
M  V30 3952 C 360.993 1.92575 4.5915 0
M  V30 3953 C 359.696 4.08005 5.92389 0
M  V30 3954 C 361.722 3.0006 5.09626 0
M  V30 3955 C 361.084 4.06485 5.75282 0
M  V30 3956 H 357.183 0.0227779 0.781668 0
M  V30 3957 H 359.767 0.664204 1.8302 0
M  V30 3958 H 357.938 -0.949126 3.76625 0
M  V30 3959 H 359.67 -0.803492 3.96644 0
M  V30 3960 H 356.425 1.11256 4.60347 0
M  V30 3961 H 356.849 3.42323 5.84075 0
M  V30 3962 H 361.491 1.11605 4.07804 0
M  V30 3963 H 359.209 4.89779 6.42761 0
M  V30 3964 H 362.795 3.01681 4.97473 0
M  V30 3965 H 361.675 4.88287 6.13633 0
M  V30 3966 N 359.178 -1.55987 0.224894 0
M  V30 3967 C 360.424 -1.99433 -0.39973 0
M  V30 3968 C 360.779 -1.11004 -1.57149 0
M  V30 3969 O 360.072 -0.160725 -1.90925 0
M  V30 3970 C 360.266 -3.46394 -0.880106 0
M  V30 3971 C 360.095 -4.4904 0.243565 0
M  V30 3972 C 358.865 -5.00272 0.711056 0
M  V30 3973 C 361.063 -5.03195 1.06299 0
M  V30 3974 N 359.045 -5.86628 1.80944 0
M  V30 3975 C 360.416 -5.86508 2.01017 0
M  V30 3976 C 362.471 -4.8555 1.10205 0
M  V30 3977 C 361.174 -6.54062 2.99324 0
M  V30 3978 C 363.2 -5.53866 2.07332 0
M  V30 3979 C 362.562 -6.3695 3.00789 0
M  V30 3980 H 358.661 -0.773815 -0.112847 0
M  V30 3981 H 361.245 -1.91754 0.337432 0
M  V30 3982 H 359.416 -3.54515 -1.58662 0
M  V30 3983 H 361.148 -3.76752 -1.47783 0
M  V30 3984 H 357.903 -4.72655 0.29906 0
M  V30 3985 H 358.327 -6.34507 2.36073 0
M  V30 3986 H 362.969 -4.20966 0.39343 0
M  V30 3987 H 360.687 -7.17827 3.71147 0
M  V30 3988 H 364.273 -5.42178 2.11032 0
M  V30 3989 H 363.153 -6.8888 3.74718 0
M  V30 3990 N 360.656 0.0484629 -1.57525 0
M  V30 3991 C 361.588 1.08222 -2.02041 0
M  V30 3992 C 362.601 1.33621 -0.930012 0
M  V30 3993 O 363.79 1.3145 -1.20761 0
M  V30 3994 C 360.89 2.42818 -2.36416 0
M  V30 3995 C 360.063 2.37049 -3.67596 0
M  V30 3996 C 359.122 3.53937 -3.89378 0
M  V30 3997 O 358.148 3.34308 -4.60681 0
M  V30 3998 N 359.35 4.75126 -3.3352 0
M  V30 3999 H 362.115 0.702946 -2.9134 0
M  V30 4000 H 359.676 0.236745 -1.6016 0
M  V30 4001 H 361.668 3.197 -2.48141 0
M  V30 4002 H 360.238 2.72661 -1.52888 0
M  V30 4003 H 359.458 1.45395 -3.66407 0
M  V30 4004 H 360.746 2.30318 -4.53686 0
M  V30 4005 H 360.144 4.93976 -2.75688 0
M  V30 4006 H 358.701 5.49439 -3.50656 0
M  V30 4007 N 362.134 1.5431 0.320358 0
M  V30 4008 C 363.38 1.72924 1.05949 0
M  V30 4009 C 363.713 0.503185 1.87568 0
M  V30 4010 O 362.988 -0.499839 1.87968 0
M  V30 4011 C 363.271 3.00676 1.98156 0
M  V30 4012 C 363.124 4.3354 1.19845 0
M  V30 4013 C 364.443 3.24198 2.9763 0
M  V30 4014 H 361.562 0.629195 0.383774 0
M  V30 4015 H 364.204 1.87008 0.335854 0
M  V30 4016 H 362.354 2.888 2.59859 0
M  V30 4017 H 364.026 4.57305 0.605773 0
M  V30 4018 H 362.269 4.309 0.500784 0
M  V30 4019 H 362.94 5.19156 1.87567 0
M  V30 4020 H 365.416 3.35557 2.4605 0
M  V30 4021 H 364.292 4.14938 3.59329 0
M  V30 4022 H 364.553 2.41577 3.7026 0
M  V30 4023 N 363.613 -0.582584 1.46437 0
M  V30 4024 C 365.029 -0.905962 1.31394 0
M  V30 4025 C 365.229 -1.99468 0.285476 0
M  V30 4026 O 364.285 -2.50566 -0.311914 0
M  V30 4027 C 365.598 -1.3232 2.70022 0
M  V30 4028 C 367.146 -1.43604 2.78113 0
M  V30 4029 C 367.621 -1.88694 4.17323 0
M  V30 4030 N 369.112 -1.95887 4.19741 0
M  V30 4031 C 369.847 -2.32051 5.24347 0
M  V30 4032 N 369.343 -2.67006 6.39281 0
M  V30 4033 N 371.136 -2.32606 5.11713 0
M  V30 4034 H 363.287 0.1366 2.1196 0
M  V30 4035 H 365.55 -0.00155736 0.947999 0
M  V30 4036 H 365.256 -0.597242 3.46592 0
M  V30 4037 H 365.13 -2.28469 3.00136 0
M  V30 4038 H 367.517 -2.15286 2.01832 0
M  V30 4039 H 367.598 -0.457059 2.51684 0
M  V30 4040 H 367.242 -1.1759 4.941 0
M  V30 4041 H 367.172 -2.8755 4.4116 0
M  V30 4042 H 369.663 -1.71362 3.36814 0
M  V30 4043 H 369.976 -2.93554 7.14875 0
M  V30 4044 H 368.321 -2.64644 6.42642 0
M  V30 4045 H 371.512 -2.04721 4.2096 0
M  V30 4046 H 371.685 -2.60462 5.93349 0
M  V30 4047 N 365.091 -1.34144 -0.827227 0
M  V30 4048 C 366.038 -1.25364 -1.93785 0
M  V30 4049 C 367.008 -0.129774 -1.65592 0
M  V30 4050 O 368.193 -0.310024 -1.88264 0
M  V30 4051 C 365.333 -1.01064 -3.2997 0
M  V30 4052 C 364.446 -2.22185 -3.70484 0
M  V30 4053 C 363.581 -1.91203 -4.95595 0
M  V30 4054 C 362.62 -3.08491 -5.28677 0
M  V30 4055 N 361.757 -2.77421 -6.44967 0
M  V30 4056 H 366.597 -2.20347 -2.00627 0
M  V30 4057 H 364.134 -1.09558 -0.981608 0
M  V30 4058 H 366.092 -0.850139 -4.08446 0
M  V30 4059 H 364.722 -0.0975026 -3.22653 0
M  V30 4060 H 363.774 -2.4917 -2.87434 0
M  V30 4061 H 365.086 -3.0983 -3.90905 0
M  V30 4062 H 364.24 -1.71864 -5.81848 0
M  V30 4063 H 362.979 -1.00812 -4.77167 0
M  V30 4064 H 361.984 -3.28431 -4.40923 0
M  V30 4065 H 363.209 -3.99655 -5.49047 0
M  V30 4066 H 361.155 -1.89601 -6.28003 0
M  V30 4067 H 361.072 -3.58598 -6.6554 0
M  V30 4068 H 362.34 -2.61577 -7.34301 0
M  V30 4069 N 366.569 1.04691 -1.17803 0
M  V30 4070 C 367.499 2.14494 -0.92275 0
M  V30 4071 C 368.48 1.69546 0.137179 0
M  V30 4072 O 369.665 1.94195 -0.0141108 0
M  V30 4073 C 366.795 3.44491 -0.440803 0
M  V30 4074 C 365.749 4.03031 -1.4405 0
M  V30 4075 C 365.075 5.28432 -0.81631 0
M  V30 4076 C 366.375 4.39932 -2.81527 0
M  V30 4077 H 368.069 2.36107 -1.84103 0
M  V30 4078 H 365.615 1.1347 -0.886599 0
M  V30 4079 H 367.568 4.2066 -0.249602 0
M  V30 4080 H 366.292 3.22546 0.513025 0
M  V30 4081 H 364.951 3.28937 -1.61853 0
M  V30 4082 H 364.599 5.02792 0.144511 0
M  V30 4083 H 364.299 5.68559 -1.48371 0
M  V30 4084 H 365.823 6.07284 -0.635496 0
M  V30 4085 H 367.237 5.07113 -2.67412 0
M  V30 4086 H 365.634 4.9109 -3.44892 0
M  V30 4087 H 366.704 3.50045 -3.35554 0
M  V30 4088 N 368.047 0.979072 1.23499 0
M  V30 4089 C 368.994 0.517904 2.24914 0
M  V30 4090 C 369.964 -0.442525 1.60097 0
M  V30 4091 O 371.149 -0.350365 1.87556 0
M  V30 4092 C 368.289 -0.174813 3.44657 0
M  V30 4093 C 367.402 0.825721 4.24035 0
M  V30 4094 C 366.537 0.107946 5.3109 0
M  V30 4095 C 365.576 1.09778 6.02175 0
M  V30 4096 N 364.713 0.40925 7.00906 0
M  V30 4097 H 369.553 1.38751 2.63727 0
M  V30 4098 H 367.09 0.695303 1.2963 0
M  V30 4099 H 369.048 -0.593233 4.12961 0
M  V30 4100 H 367.678 -1.0083 3.06648 0
M  V30 4101 H 366.73 1.36253 3.55161 0
M  V30 4102 H 368.042 1.58005 4.73113 0
M  V30 4103 H 367.196 -0.367904 6.05583 0
M  V30 4104 H 365.935 -0.678994 4.8295 0
M  V30 4105 H 364.94 1.5844 5.26476 0
M  V30 4106 H 366.165 1.88536 6.52404 0
M  V30 4107 H 364.111 -0.358506 6.5502 0
M  V30 4108 H 364.028 1.10226 7.47921 0
M  V30 4109 H 365.296 -0.0442557 7.79487 0
M  V30 4110 N 369.525 -1.3858 0.750561 0
M  V30 4111 C 370.75 -2.04997 0.314812 0
M  V30 4112 C 371.175 -1.56235 -1.04749 0
M  V30 4113 O 370.533 -0.712981 -1.66692 0
M  V30 4114 C 370.581 -3.58961 0.343415 0
M  V30 4115 O 369.685 -4.07025 -0.663628 0
M  V30 4116 H 369.026 -0.649081 0.139962 0
M  V30 4117 H 371.556 -1.77313 1.02084 0
M  V30 4118 H 371.566 -4.07542 0.193233 0
M  V30 4119 H 370.241 -3.93811 1.33738 0
M  V30 4120 H 368.818 -3.6982 -0.478307 0
M  V30 4121 N 371.003 -0.499398 -1.49478 0
M  V30 4122 C 372.228 0.044722 -2.07352 0
M  V30 4123 C 372.653 1.30207 -1.35749 0
M  V30 4124 O 372.011 1.76516 -0.413732 0
M  V30 4125 C 372.059 0.283013 -3.59488 0
M  V30 4126 O 371.163 1.35804 -3.89398 0
M  V30 4127 H 370.504 -0.0255147 -0.66351 0
M  V30 4128 H 373.034 -0.698561 -1.92305 0
M  V30 4129 H 373.044 0.515007 -4.04737 0
M  V30 4130 H 371.719 -0.635636 -4.11014 0
M  V30 4131 H 370.296 1.11113 -3.55961 0
M  V30 4132 N 372.481 1.55866 -0.233164 0
M  V30 4133 C 373.706 2.03449 0.402906 0
M  V30 4134 C 374.131 1.11166 1.51736 0
M  V30 4135 O 373.489 0.101996 1.81013 0
M  V30 4136 C 373.537 3.49165 0.9009 0
M  V30 4137 O 372.641 3.60019 2.01147 0
M  V30 4138 H 371.982 0.657913 0.0897025 0
M  V30 4139 H 374.512 2.01493 -0.355201 0
M  V30 4140 H 374.522 3.89716 1.2077 0
M  V30 4141 H 373.197 4.15813 0.0852889 0
M  V30 4142 H 371.774 3.3136 1.71042 0
M  V30 4143 N 373.959 -0.0401083 1.57549 0
M  V30 4144 C 375.184 -0.748931 1.93406 0
M  V30 4145 C 375.609 -1.68686 0.832274 0
M  V30 4146 O 374.967 -1.80047 -0.212818 0
M  V30 4147 C 375.015 -1.4916 3.28304 0
M  V30 4148 O 374.119 -2.6042 3.19774 0
M  V30 4149 H 373.46 -0.202212 0.63246 0
M  V30 4150 H 375.99 0.00112086 2.046 0
M  V30 4151 H 376 -1.86395 3.62934 0
M  V30 4152 H 374.675 -0.80364 4.08062 0
M  V30 4153 H 373.252 -2.25808 2.96758 0
M  V30 4154 N 375.437 -1.54477 -0.31217 0
M  V30 4155 C 376.662 -1.77526 -1.07235 0
M  V30 4156 C 377.087 -0.527775 -1.80544 0
M  V30 4157 O 376.445 0.52121 -1.73646 0
M  V30 4158 C 376.493 -2.97535 -2.03728 0
M  V30 4159 O 375.597 -2.69878 -3.11833 0
M  V30 4160 H 374.938 -0.58792 -0.30862 0
M  V30 4161 H 377.468 -2.01532 -0.352993 0
M  V30 4162 H 377.478 -3.25198 -2.46395 0
M  V30 4163 H 376.153 -3.87996 -1.49774 0
M  V30 4164 H 374.73 -2.53199 -2.7376 0
M  V30 4165 N 376.915 0.57481 -1.46744 0
M  V30 4166 C 377.825 1.711 -1.60505 0
M  V30 4167 C 378.841 1.67008 -0.488307 0
M  V30 4168 O 380.017 1.86774 -0.753495 0
M  V30 4169 C 377.082 3.07608 -1.59932 0
M  V30 4170 C 376.143 3.22904 -2.82898 0
M  V30 4171 C 375.376 4.529 -2.82343 0
M  V30 4172 O 375.599 5.37278 -1.91542 0
M  V30 4173 O 374.533 4.71611 -3.73987 0
M  V30 4174 H 378.359 1.62436 -2.56609 0
M  V30 4175 H 375.944 0.742779 -1.29627 0
M  V30 4176 H 377.826 3.88877 -1.62336 0
M  V30 4177 H 376.501 3.16692 -0.669898 0
M  V30 4178 H 375.408 2.41099 -2.86046 0
M  V30 4179 H 376.741 3.18715 -3.75076 0
M  V30 4180 N 378.394 1.34581 0.820102 0
M  V30 4181 C 379.671 1.17675 1.56244 0
M  V30 4182 C 380.051 -0.249541 2.0962 0
M  V30 4183 O 379.399 -1.25125 1.91196 0
M  V30 4184 C 379.609 2.23364 2.6816 0
M  V30 4185 C 380.957 2.58485 3.36854 0
M  V30 4186 O 381.981 2.22175 2.78418 0
M  V30 4187 O 380.84 3.20868 4.42386 0
M  V30 4188 H 377.934 0.456333 0.689702 0
M  V30 4189 H 380.48 1.46222 0.861231 0
M  V30 4190 H 379.252 3.19087 2.26493 0
M  V30 4191 H 378.875 1.96009 3.45928 0
M  V30 4192 N 379.872 -1.04064 1.18357 0
M  V30 4193 C 381.118 -1.77528 0.980397 0
M  V30 4194 C 381.451 -1.87948 -0.48879 0
M  V30 4195 O 380.726 -1.3876 -1.36293 0
M  V30 4196 C 381.009 -3.20797 1.63588 0
M  V30 4197 C 380.862 -3.1832 3.17793 0
M  V30 4198 C 382.181 -4.18911 1.34914 0
M  V30 4199 H 379.3 -0.644443 0.357578 0
M  V30 4200 H 381.942 -1.2156 1.46024 0
M  V30 4201 H 380.092 -3.68586 1.22788 0
M  V30 4202 H 381.764 -2.78521 3.67728 0
M  V30 4203 H 380.007 -2.56351 3.49952 0
M  V30 4204 H 380.678 -4.19489 3.58794 0
M  V30 4205 H 383.154 -3.7967 1.70265 0
M  V30 4206 H 382.03 -5.17374 1.83346 0
M  V30 4207 H 382.291 -4.41262 0.272027 0
M  V30 4208 N 381.35 -0.985608 -1.22978 0
M  V30 4209 C 382.313 -0.535071 -2.22867 0
M  V30 4210 C 383.313 0.378123 -1.56291 0
M  V30 4211 O 384.503 0.171092 -1.73358 0
M  V30 4212 C 381.635 0.222702 -3.40172 0
M  V30 4213 H 382.828 -1.41835 -2.6424 0
M  V30 4214 H 380.381 -0.772042 -1.35901 0
M  V30 4215 H 381.116 1.12229 -3.04262 0
M  V30 4216 H 380.901 -0.43288 -3.89703 0
M  V30 4217 H 382.391 0.526335 -4.1427 0
M  V30 4218 N 382.828 1.3818 -0.7579 0
M  V30 4219 C 384.053 2.04827 -0.325679 0
M  V30 4220 C 384.478 1.56788 1.03919 0
M  V30 4221 O 383.836 0.721811 1.66312 0
M  V30 4222 C 383.884 3.58774 -0.362447 0
M  V30 4223 O 382.988 4.07372 0.642033 0
M  V30 4224 H 382.329 0.64833 -0.143402 0
M  V30 4225 H 384.859 1.7677 -1.03023 0
M  V30 4226 H 384.869 4.07434 -0.214844 0
M  V30 4227 H 383.544 3.93096 -1.35824 0
M  V30 4228 H 382.121 3.70068 0.458688 0
M  V30 4229 N 384.306 0.507319 1.49211 0
M  V30 4230 C 385.531 -0.033725 2.07373 0
M  V30 4231 C 385.956 -1.29485 1.36437 0
M  V30 4232 O 385.314 -1.76294 0.423087 0
M  V30 4233 C 385.362 -0.263945 3.59633 0
M  V30 4234 O 384.466 -1.33737 3.90113 0
M  V30 4235 H 383.807 0.0290331 0.663365 0
M  V30 4236 H 386.337 0.708749 1.91932 0
M  V30 4237 H 386.347 -0.493536 4.05004 0
M  V30 4238 H 385.022 0.657424 4.10671 0
M  V30 4239 H 383.599 -1.09224 3.56545 0
M  V30 4240 N 385.784 -1.5574 0.241426 0
M  V30 4241 C 386.732 -2.22538 -0.676718 0
M  V30 4242 C 387.726 -1.21117 -1.18436 0
M  V30 4243 O 388.932 -1.39144 -1.14188 0
M  V30 4244 H 385.307 -0.713776 -0.236701 0
M  V30 4245 H 387.278 -2.98264 -0.0901187 0
M  V30 4246 C 386.027 -2.93439 -1.86518 0
M  V30 4247 H 385.35 -3.7125 -1.4837 0
M  V30 4248 H 386.79 -3.43549 -2.48495 0
M  V30 4249 C 385.249 -1.97008 -2.73294 0
M  V30 4250 O 385.779 -1.49965 -3.72657 0
M  V30 4251 N 383.985 -1.64227 -2.39745 0
M  V30 4252 H 383.532 -2.02677 -1.58996 0
M  V30 4253 H 383.49 -0.999708 -2.98083 0
M  V30 4254 N 387.262 0.0317525 -1.57568 0
M  V30 4255 C 388.194 1.06073 -2.03178 0
M  V30 4256 C 389.207 1.32627 -0.944132 0
M  V30 4257 O 390.396 1.30162 -1.22148 0
M  V30 4258 C 387.496 2.40297 -2.38978 0
M  V30 4259 C 386.669 2.33137 -3.70089 0
M  V30 4260 C 385.728 3.49787 -3.9311 0
M  V30 4261 O 384.754 3.29403 -4.64201 0
M  V30 4262 N 385.956 4.71562 -3.38541 0
M  V30 4263 H 388.721 0.672006 -2.92069 0
M  V30 4264 H 386.282 0.219745 -1.60402 0
M  V30 4265 H 388.274 3.1705 -2.51518 0
M  V30 4266 H 386.844 2.71024 -1.55771 0
M  V30 4267 H 386.064 1.415 -3.67928 0
M  V30 4268 H 387.352 2.25493 -4.56104 0
M  V30 4269 H 386.75 4.91024 -2.80912 0
M  V30 4270 H 385.307 5.45689 -3.56464 0
M  V30 4271 N 388.74 1.54641 0.303973 0
M  V30 4272 C 389.687 1.85386 1.37479 0
M  V30 4273 C 390.657 0.702528 1.50512 0
M  V30 4274 O 391.842 0.950867 1.65418 0
M  V30 4275 C 388.982 2.10413 2.73533 0
M  V30 4276 C 388.095 3.38049 2.68974 0
M  V30 4277 C 387.23 3.52934 3.97002 0
M  V30 4278 C 386.269 4.74373 3.86829 0
M  V30 4279 N 385.406 4.8608 5.06627 0
M  V30 4280 H 390.246 2.76732 1.1056 0
M  V30 4281 H 387.783 1.37034 0.534805 0
M  V30 4282 H 389.741 2.22919 3.52652 0
M  V30 4283 H 388.371 1.22338 2.98719 0
M  V30 4284 H 387.423 3.3418 1.81736 0
M  V30 4285 H 388.735 4.27288 2.57346 0
M  V30 4286 H 387.889 3.65088 4.84557 0
M  V30 4287 H 386.628 2.61824 4.1146 0
M  V30 4288 H 385.633 4.62255 2.97658 0
M  V30 4289 H 386.858 5.66888 3.73918 0
M  V30 4290 H 384.804 3.97891 5.21554 0
M  V30 4291 H 384.721 5.69315 4.9741 0
M  V30 4292 H 385.989 5.02587 5.95841 0
M  V30 4293 N 390.218 -0.567019 1.47046 0
M  V30 4294 C 391.128 -1.70247 1.6141 0
M  V30 4295 C 392.144 -1.66746 0.497157 0
M  V30 4296 O 393.32 -1.86371 0.763389 0
M  V30 4297 C 390.385 -3.06756 1.61561 0
M  V30 4298 C 389.446 -3.21399 2.84607 0
M  V30 4299 C 388.679 -4.51396 2.84741 0
M  V30 4300 O 388.902 -5.36255 1.94388 0
M  V30 4301 O 387.836 -4.69621 3.76483 0
M  V30 4302 H 391.662 -1.61073 2.57467 0
M  V30 4303 H 389.247 -0.735894 1.30019 0
M  V30 4304 H 391.129 -3.8801 1.64396 0
M  V30 4305 H 389.804 -3.16333 0.686684 0
M  V30 4306 H 388.711 -2.39579 2.8732 0
M  V30 4307 H 390.044 -3.16721 3.76761 0
M  V30 4308 N 391.696 -1.35014 -0.812953 0
M  V30 4309 C 393.112 -1.14914 -1.10757 0
M  V30 4310 C 393.312 0.0426818 -2.01455 0
M  V30 4311 O 392.368 0.715212 -2.42159 0
M  V30 4312 C 393.681 -2.44911 -1.74468 0
M  V30 4313 C 395.229 -2.5106 -1.86917 0
M  V30 4314 C 395.704 -3.81085 -2.54044 0
M  V30 4315 N 397.195 -3.82301 -2.61535 0
M  V30 4316 C 397.93 -4.79634 -3.14227 0
M  V30 4317 N 397.426 -5.87353 -3.67407 0
M  V30 4318 N 399.219 -4.67078 -3.12721 0
M  V30 4319 H 391.37 -2.1136 -0.20989 0
M  V30 4320 H 393.633 -0.935128 -0.155692 0
M  V30 4321 H 393.339 -3.32267 -1.15289 0
M  V30 4322 H 393.213 -2.58989 -2.74234 0
M  V30 4323 H 395.6 -1.64137 -2.45241 0
M  V30 4324 H 395.681 -2.40901 -0.860242 0
M  V30 4325 H 395.325 -4.68402 -1.96372 0
M  V30 4326 H 395.255 -3.88529 -3.55461 0
M  V30 4327 H 397.746 -3.04465 -2.23851 0
M  V30 4328 H 398.059 -6.57624 -4.05894 0
M  V30 4329 H 396.404 -5.91054 -3.65623 0
M  V30 4330 H 399.595 -3.82067 -2.70449 0
M  V30 4331 H 399.768 -5.43098 -3.53481 0
M  V30 4332 N 393.175 1.03435 -1.18907 0
M  V30 4333 C 394.123 2.13703 -0.918353 0
M  V30 4334 C 395.117 1.68947 0.123767 0
M  V30 4335 O 396.323 1.79983 -0.0249701 0
M  V30 4336 H 392.698 0.698112 -0.279542 0
M  V30 4337 H 394.669 2.33731 -1.85506 0
M  V30 4338 C 393.418 3.44542 -0.467532 0
M  V30 4339 H 392.741 3.79394 -1.26095 0
M  V30 4340 H 394.181 4.22812 -0.317164 0
M  V30 4341 C 392.64 3.26829 0.817588 0
M  V30 4342 O 393.17 3.54975 1.88031 0
M  V30 4343 N 391.376 2.80139 0.772677 0
M  V30 4344 H 390.923 2.57434 -0.0923883 0
M  V30 4345 H 390.881 2.68668 1.63294 0
M  V30 4346 N 394.653 0.992116 1.22453 0
M  V30 4347 C 395.899 0.668523 1.91464 0
M  V30 4348 C 396.232 -0.797313 1.77078 0
M  V30 4349 O 395.507 -1.5765 1.13916 0
M  V30 4350 C 395.79 1.07424 3.43703 0
M  V30 4351 C 395.643 2.59857 3.67143 0
M  V30 4352 C 396.962 0.626891 4.35612 0
M  V30 4353 H 394.081 0.244341 0.695318 0
M  V30 4354 H 396.723 1.2355 1.44345 0
M  V30 4355 H 394.873 0.591816 3.83966 0
M  V30 4356 H 396.545 3.15764 3.3629 0
M  V30 4357 H 394.788 3.01961 3.11451 0
M  V30 4358 H 395.459 2.83296 4.73759 0
M  V30 4359 H 397.935 1.04125 4.02861 0
M  V30 4360 H 396.811 0.939076 5.40807 0
M  V30 4361 H 397.072 -0.472457 4.39568 0
M  V30 4362 N 396.131 -1.37776 0.765217 0
M  V30 4363 C 397.079 -2.32209 0.134798 0
M  V30 4364 C 398.073 -1.54607 -0.692315 0
M  V30 4365 O 399.279 -1.70052 -0.590109 0
M  V30 4366 H 395.654 -0.751591 0.0248005 0
M  V30 4367 H 397.625 -2.8297 0.947119 0
M  V30 4368 C 396.374 -3.39841 -0.735063 0
M  V30 4369 H 395.697 -3.99654 -0.107991 0
M  V30 4370 H 397.137 -4.08296 -1.14326 0
M  V30 4371 C 395.596 -2.79378 -1.88281 0
M  V30 4372 O 396.126 -2.69608 -2.97783 0
M  V30 4373 N 394.332 -2.37016 -1.68142 0
M  V30 4374 H 393.879 -2.45162 -0.790772 0
M  V30 4375 H 393.837 -1.96905 -2.45104 0
M  V30 4376 N 397.609 -0.515225 -1.4894 0
M  V30 4377 C 398.559 0.275113 -2.26334 0
M  V30 4378 C 399.543 0.923007 -1.31793 0
M  V30 4379 O 400.735 0.828254 -1.56426 0
M  V30 4380 C 397.864 1.33041 -3.16473 0
M  V30 4381 C 396.95 0.688051 -4.18481 0
M  V30 4382 N 397.341 -0.217638 -5.05332 0
M  V30 4383 C 395.639 0.94699 -4.3583 0
M  V30 4384 C 396.34 -0.58676 -5.78733 0
M  V30 4385 N 395.316 0.0486966 -5.43578 0
M  V30 4386 H 399.118 -0.421876 -2.90856 0
M  V30 4387 H 396.632 -0.332249 -1.58965 0
M  V30 4388 H 398.629 1.9102 -3.70563 0
M  V30 4389 H 397.289 2.02894 -2.53504 0
M  V30 4390 H 398.3 -0.589343 -5.14536 0
M  V30 4391 H 394.977 1.63719 -3.8406 0
M  V30 4392 H 396.367 -1.32855 -6.58634 0
M  V30 4393 N 399.087 1.5561 -0.249682 0
M  V30 4394 C 400.315 2.03411 0.378352 0
M  V30 4395 C 400.73 1.12886 1.51335 0
M  V30 4396 O 400.087 0.143833 1.81932 0
M  V30 4397 C 400.138 3.50537 0.88351 0
M  V30 4398 O 399.859 4.37614 -0.20626 0
M  V30 4399 C 401.36 4.14113 1.58195 0
M  V30 4400 H 398.58 0.664994 0.08958 0
M  V30 4401 H 401.124 2.01044 -0.374357 0
M  V30 4402 H 399.279 3.5343 1.58639 0
M  V30 4403 H 399.693 5.24199 0.177782 0
M  V30 4404 H 401.167 5.18741 1.8871 0
M  V30 4405 H 401.644 3.60767 2.50487 0
M  V30 4406 H 402.25 4.15151 0.923573 0
M  V30 4407 N 400.565 -0.0233959 1.57583 0
M  V30 4408 C 401.793 -0.724682 1.93794 0
M  V30 4409 C 402.208 -1.68588 0.849912 0
M  V30 4410 O 401.565 -1.81676 -0.173204 0
M  V30 4411 C 401.616 -1.47684 3.29957 0
M  V30 4412 O 401.337 -0.554222 4.3458 0
M  V30 4413 C 402.838 -2.27477 3.80485 0
M  V30 4414 H 400.058 -0.203317 0.639455 0
M  V30 4415 H 402.602 0.0207653 2.04489 0
M  V30 4416 H 400.757 -2.17412 3.20641 0
M  V30 4417 H 401.171 -1.08232 5.13212 0
M  V30 4418 H 402.645 -2.7564 4.78254 0
M  V30 4419 H 403.122 -3.09144 3.11972 0
M  V30 4420 H 403.728 -1.62813 3.92902 0
M  V30 4421 N 402.043 -1.548 -0.295768 0
M  V30 4422 C 403.268 -1.78653 -1.05346 0
M  V30 4423 C 403.693 -0.546894 -1.79974 0
M  V30 4424 O 403.051 0.502763 -1.7419 0
M  V30 4425 C 403.099 -2.99679 -2.00561 0
M  V30 4426 O 402.203 -2.7317 -3.08953 0
M  V30 4427 H 401.544 -0.59116 -0.302367 0
M  V30 4428 H 404.074 -2.01895 -0.331598 0
M  V30 4429 H 404.084 -3.27793 -2.42932 0
M  V30 4430 H 402.759 -3.89562 -1.4565 0
M  V30 4431 H 401.336 -2.56089 -2.71059 0
M  V30 4432 N 403.521 0.559213 -1.47345 0
M  V30 4433 C 404.468 1.66645 -1.59682 0
M  V30 4434 C 405.438 1.60168 -0.43994 0
M  V30 4435 O 406.623 1.79031 -0.659736 0
M  V30 4436 C 403.763 3.04969 -1.61518 0
M  V30 4437 C 402.876 3.21897 -2.88108 0
M  V30 4438 C 402.011 4.50608 -2.81294 0
M  V30 4439 C 401.05 4.60961 -4.02717 0
M  V30 4440 N 400.187 5.81024 -3.94151 0
M  V30 4441 H 405.027 1.55439 -2.54249 0
M  V30 4442 H 402.564 0.757219 -1.26113 0
M  V30 4443 H 404.522 3.85064 -1.60566 0
M  V30 4444 H 403.152 3.15015 -0.704645 0
M  V30 4445 H 402.204 2.35248 -2.98936 0
M  V30 4446 H 403.516 3.25412 -3.78032 0
M  V30 4447 H 402.67 5.3896 -2.7858 0
M  V30 4448 H 401.409 4.49568 -1.89049 0
M  V30 4449 H 400.414 3.71021 -4.05738 0
M  V30 4450 H 401.639 4.63761 -4.96087 0
M  V30 4451 H 399.585 5.80938 -3.04708 0
M  V30 4452 H 399.502 5.85909 -4.77752 0
M  V30 4453 H 400.77 6.71744 -3.9545 0
M  V30 4454 N 404.999 1.35443 0.805782 0
M  V30 4455 C 406.248 1.28097 1.55801 0
M  V30 4456 C 406.561 -0.142428 1.95081 0
M  V30 4457 O 407.767 -0.33817 2.69386 0
M  V30 4458 C 406.223 2.24653 2.81174 0
M  V30 4459 C 405.831 3.72342 2.49129 0
M  V30 4460 C 407.575 2.2625 3.59181 0
M  V30 4461 C 405.482 4.60719 3.70799 0
M  V30 4462 H 404.412 0.475937 0.584808 0
M  V30 4463 H 407.063 1.60712 0.885661 0
M  V30 4464 H 405.445 1.85011 3.50124 0
M  V30 4465 H 406.619 4.20624 1.88181 0
M  V30 4466 H 404.934 3.73361 1.84366 0
M  V30 4467 H 407.531 2.89495 4.49552 0
M  V30 4468 H 407.874 1.26647 3.96568 0
M  V30 4469 H 408.407 2.64426 2.97193 0
M  V30 4470 H 405.146 5.61324 3.3852 0
M  V30 4471 H 404.666 4.17163 4.3097 0
M  V30 4472 H 406.345 4.76182 4.38018 0
M  V30 4473 N 406.477 -1.02803 1.19454 0
M  V30 4474 C 407.702 -1.80378 1.02364 0
M  V30 4475 C 408.127 -1.83282 -0.423007 0
M  V30 4476 O 407.485 -1.25945 -1.30413 0
M  V30 4477 C 407.533 -3.23248 1.59821 0
M  V30 4478 O 406.637 -4.04 0.828105 0
M  V30 4479 H 405.978 -0.556799 0.361761 0
M  V30 4480 H 408.508 -1.29385 1.58495 0
M  V30 4481 H 408.518 -3.73994 1.63073 0
M  V30 4482 H 407.193 -3.2045 2.65113 0
M  V30 4483 H 405.77 -3.62635 0.86891 0
M  V30 4484 N 407.956 -0.998596 -1.21925 0
M  V30 4485 C 409.202 -0.688337 -1.91399 0
M  V30 4486 C 409.557 0.771805 -1.76241 0
M  V30 4487 O 408.85 1.55153 -1.1242 0
M  V30 4488 C 409.044 -1.03648 -3.42041 0
M  V30 4489 C 408.873 -2.52892 -3.71855 0
M  V30 4490 C 407.643 -3.19389 -3.91559 0
M  V30 4491 C 409.841 -3.5103 -3.75875 0
M  V30 4492 N 407.823 -4.5805 -4.08734 0
M  V30 4493 C 409.194 -4.75174 -3.98259 0
M  V30 4494 C 411.249 -3.45257 -3.58751 0
M  V30 4495 C 409.952 -5.94247 -4.05294 0
M  V30 4496 C 411.978 -4.63712 -3.67049 0
M  V30 4497 C 411.34 -5.86658 -3.89887 0
M  V30 4498 H 407.439 -0.303251 -0.720807 0
M  V30 4499 H 410.023 -1.27977 -1.46731 0
M  V30 4500 H 408.194 -0.473569 -3.85502 0
M  V30 4501 H 409.926 -0.681619 -3.98919 0
M  V30 4502 H 406.681 -2.69846 -3.89205 0
M  V30 4503 H 407.105 -5.29989 -4.21237 0
M  V30 4504 H 411.747 -2.51215 -3.40075 0
M  V30 4505 H 409.465 -6.88687 -4.22772 0
M  V30 4506 H 413.051 -4.6084 -3.5513 0
M  V30 4507 H 411.931 -6.76786 -3.96144 0
M  V30 4508 N 409.434 1.37368 -0.772513 0
M  V30 4509 C 410.344 2.34053 -0.160081 0
M  V30 4510 C 411.36 1.60216 0.678728 0
M  V30 4511 O 412.536 1.92303 0.59847 0
M  V30 4512 C 409.601 3.3939 0.708182 0
M  V30 4513 C 408.662 4.29048 -0.147172 0
M  V30 4514 C 407.895 5.29354 0.679744 0
M  V30 4515 O 408.118 5.3723 1.91678 0
M  V30 4516 O 407.052 6.01835 0.0885444 0
M  V30 4517 H 410.878 2.88159 -0.959053 0
M  V30 4518 H 408.463 1.39543 -0.533685 0
M  V30 4519 H 410.345 4.03839 1.20384 0
M  V30 4520 H 409.02 2.8761 1.48533 0
M  V30 4521 H 407.927 3.67697 -0.689205 0
M  V30 4522 H 409.26 4.84134 -0.887423 0
M  V30 4523 N 410.912 0.523116 1.48665 0
M  V30 4524 C 412.159 -0.0134763 2.02496 0
M  V30 4525 C 412.487 -1.3493 1.40086 0
M  V30 4526 O 411.742 -1.88286 0.533567 0
M  V30 4527 C 412.041 -0.191671 3.56886 0
M  V30 4528 C 411.707 1.06893 4.38046 0
M  V30 4529 C 410.369 1.41443 4.59943 0
M  V30 4530 C 412.721 1.90584 4.85106 0
M  V30 4531 C 410.049 2.59594 5.26144 0
M  V30 4532 C 412.401 3.07907 5.52609 0
M  V30 4533 C 411.065 3.42811 5.72745 0
M  V30 4534 H 410.335 -0.00493133 0.740984 0
M  V30 4535 H 412.982 0.687751 1.78724 0
M  V30 4536 H 411.287 -0.97561 3.79459 0
M  V30 4537 H 412.984 -0.621659 3.96152 0
M  V30 4538 H 409.574 0.789848 4.21259 0
M  V30 4539 H 413.758 1.65203 4.67997 0
M  V30 4540 H 409.014 2.86847 5.39934 0
M  V30 4541 H 413.188 3.73066 5.88043 0
M  V30 4542 H 410.815 4.34462 6.23816 0
M  V30 4543 N 412.39 -1.55475 0.257931 0
M  V30 4544 C 413.801 -1.8511 -0.243135 0
M  V30 4545 C 414.152 -1.17986 -1.5676 0
M  V30 4546 O 413.277 -0.462102 -2.11409 0
M  V30 4547 C 413.872 -3.35826 -0.447929 0
M  V30 4548 C 412.431 -3.65647 -0.893245 0
M  V30 4549 C 411.578 -2.7729 0.0232965 0
M  V30 4550 H 414.529 -1.51261 0.480199 0
M  V30 4551 H 414.55 -3.58002 -1.28898 0
M  V30 4552 H 414.062 -3.84652 0.516196 0
M  V30 4553 H 412.163 -3.22308 -1.86945 0
M  V30 4554 H 412.276 -4.73312 -0.742469 0
M  V30 4555 H 410.64 -2.49942 -0.490021 0
M  V30 4556 H 411.423 -3.28926 0.982994 0
M  V30 4557 N 413.868 0.0150385 -1.57593 0
M  V30 4558 C 414.778 1.02791 -2.10882 0
M  V30 4559 C 415.794 1.38702 -1.0506 0
M  V30 4560 O 416.97 1.47739 -1.36877 0
M  V30 4561 C 414.035 2.30568 -2.58919 0
M  V30 4562 C 413.096 2.01108 -3.79281 0
M  V30 4563 C 412.329 3.22794 -4.25018 0
M  V30 4564 O 412.552 4.33959 -3.70183 0
M  V30 4565 O 411.486 3.07672 -5.17322 0
M  V30 4566 H 415.312 0.604973 -2.97613 0
M  V30 4567 H 412.897 0.23292 -1.47573 0
M  V30 4568 H 414.779 3.05662 -2.90084 0
M  V30 4569 H 413.454 2.72129 -1.75293 0
M  V30 4570 H 412.361 1.23537 -3.53114 0
M  V30 4571 H 413.694 1.64394 -4.63935 0
M  V30 4572 N 415.346 1.54954 0.287554 0
M  V30 4573 C 416.571 1.79209 1.04397 0
M  V30 4574 C 416.996 0.556431 1.79682 0
M  V30 4575 O 416.354 -0.493518 1.74454 0
M  V30 4576 C 416.402 3.00739 1.98969 0
M  V30 4577 O 415.506 2.74805 3.075 0
M  V30 4578 H 414.847 0.592755 0.299227 0
M  V30 4579 H 417.377 2.02068 0.320886 0
M  V30 4580 H 417.387 3.29077 2.4119 0
M  V30 4581 H 416.062 3.90329 1.43582 0
M  V30 4582 H 414.639 2.57523 2.69697 0
M  V30 4583 N 416.824 -0.551391 1.4764 0
M  V30 4584 C 418.049 -1.33837 1.58437 0
M  V30 4585 C 418.474 -1.866 0.237063 0
M  V30 4586 O 417.832 -1.6328 -0.787994 0
M  V30 4587 C 417.88 -2.48014 2.61766 0
M  V30 4588 O 416.984 -3.50419 2.1744 0
M  V30 4589 H 416.325 -0.397299 0.532024 0
M  V30 4590 H 418.855 -0.665759 1.93465 0
M  V30 4591 H 418.865 -2.94503 2.82369 0
M  V30 4592 H 417.54 -2.08969 3.5959 0
M  V30 4593 H 416.117 -3.10196 2.06961 0
M  V30 4594 N 418.302 -1.35869 -0.798587 0
M  V30 4595 C 419.527 -1.32883 -1.59238 0
M  V30 4596 C 419.952 0.0894587 -1.87887 0
M  V30 4597 O 419.31 1.05869 -1.47178 0
M  V30 4598 C 419.358 -2.14892 -2.89575 0
M  V30 4599 O 418.462 -1.53512 -3.82763 0
M  V30 4600 H 417.803 -0.455236 -0.48338 0
M  V30 4601 H 420.333 -1.79024 -0.990539 0
M  V30 4602 H 420.343 -2.27139 -3.38928 0
M  V30 4603 H 419.018 -3.17998 -2.68049 0
M  V30 4604 H 417.595 -1.50153 -3.41334 0
M  V30 4605 N 419.78 1.02168 -1.19998 0
M  V30 4606 C 421.005 1.79833 -1.03319 0
M  V30 4607 C 421.43 1.83504 0.413281 0
M  V30 4608 O 420.788 1.26635 1.29743 0
M  V30 4609 C 420.836 3.22396 -1.61533 0
M  V30 4610 O 419.94 4.03555 -0.849519 0
M  V30 4611 H 419.281 0.554872 -0.364709 0
M  V30 4612 H 421.811 1.28542 -1.59179 0
M  V30 4613 H 421.821 3.73124 -1.65054 0
M  V30 4614 H 420.496 3.19039 -2.66809 0
M  V30 4615 H 419.073 3.62169 -0.888129 0
M  V30 4616 N 421.258 1.00505 1.21394 0
M  V30 4617 C 422.168 0.574806 2.27449 0
M  V30 4618 C 423.184 -0.382206 1.6975 0
M  V30 4619 O 424.36 -0.246027 1.99892 0
M  V30 4620 C 421.425 -0.0917414 3.46579 0
M  V30 4621 C 420.486 0.909758 4.1955 0
M  V30 4622 C 419.719 0.274924 5.32991 0
M  V30 4623 O 419.942 -0.928254 5.62796 0
M  V30 4624 O 418.876 0.985877 5.93771 0
M  V30 4625 H 422.702 1.45744 2.66444 0
M  V30 4626 H 420.287 0.773923 1.27792 0
M  V30 4627 H 422.169 -0.464551 4.18832 0
M  V30 4628 H 420.844 -0.948755 3.09484 0
M  V30 4629 H 419.751 1.33372 3.49518 0
M  V30 4630 H 421.084 1.73636 4.60555 0
M  V30 4631 N 422.737 -1.36956 0.779787 0
M  V30 4632 C 423.647 -2.33965 0.172491 0
M  V30 4633 C 424.663 -1.60574 -0.670222 0
M  V30 4634 O 425.839 -1.92617 -0.588263 0
M  V30 4635 C 422.904 -3.39761 -0.690173 0
M  V30 4636 C 421.965 -4.28964 0.169924 0
M  V30 4637 C 421.198 -5.29707 -0.651662 0
M  V30 4638 O 421.421 -5.38238 -1.88827 0
M  V30 4639 O 420.355 -6.01873 -0.0566264 0
M  V30 4640 H 424.181 -2.87647 0.974321 0
M  V30 4641 H 421.766 -1.39258 0.541078 0
M  V30 4642 H 423.648 -4.04471 -1.1824 0
M  V30 4643 H 422.323 -2.88394 -1.47006 0
M  V30 4644 H 421.23 -3.67326 0.708696 0
M  V30 4645 H 422.563 -4.83656 0.913085 0
M  V30 4646 N 424.215 -0.530993 -1.48385 0
M  V30 4647 C 425.125 0.23503 -2.3342 0
M  V30 4648 C 426.141 0.93801 -1.46552 0
M  V30 4649 O 427.317 0.912745 -1.7953 0
M  V30 4650 C 424.382 1.26778 -3.22689 0
M  V30 4651 C 423.443 0.575038 -4.25431 0
M  V30 4652 C 422.676 1.55858 -5.10435 0
M  V30 4653 O 422.899 2.79129 -4.97437 0
M  V30 4654 O 421.833 1.09742 -5.91811 0
M  V30 4655 H 425.659 -0.461794 -3.00169 0
M  V30 4656 H 423.244 -0.291903 -1.46521 0
M  V30 4657 H 425.126 1.86457 -3.77904 0
M  V30 4658 H 423.801 1.94699 -2.586 0
M  V30 4659 H 422.708 -0.0622782 -3.74048 0
M  V30 4660 H 424.041 -0.062253 -4.92161 0
M  V30 4661 N 425.693 1.55336 -0.266172 0
M  V30 4662 C 426.603 2.2583 0.635458 0
M  V30 4663 C 427.619 1.28106 1.17749 0
M  V30 4664 O 428.795 1.61024 1.20968 0
M  V30 4665 C 425.86 2.95879 1.80712 0
M  V30 4666 C 424.921 4.09059 1.30265 0
M  V30 4667 C 424.154 4.75759 2.41846 0
M  V30 4668 O 424.377 4.41622 3.61007 0
M  V30 4669 O 423.311 5.63888 2.1051 0
M  V30 4670 H 427.137 3.03631 0.0646693 0
M  V30 4671 H 424.722 1.49361 -0.0339177 0
M  V30 4672 H 426.604 3.39932 2.49047 0
M  V30 4673 H 425.279 2.21002 2.36516 0
M  V30 4674 H 424.186 3.69482 0.586019 0
M  V30 4675 H 425.519 4.85811 0.790458 0
M  V30 4676 N 427.171 -0.0066808 1.57599 0
M  V30 4677 C 428.119 -1.01851 2.09115 0
M  V30 4678 C 429.113 -1.36021 1.00969 0
M  V30 4679 O 430.319 -1.34663 1.19439 0
M  V30 4680 H 426.694 -0.346083 0.667631 0
M  V30 4681 H 428.665 -0.558394 2.93129 0
M  V30 4682 C 427.414 -2.30374 2.60429 0
M  V30 4683 H 426.737 -2.04947 3.43273 0
M  V30 4684 H 428.177 -2.99466 3.00161 0
M  V30 4685 C 426.636 -3.00893 1.51542 0
M  V30 4686 O 427.166 -3.91614 0.894484 0
M  V30 4687 N 425.372 -2.62603 1.2445 0
M  V30 4688 H 424.919 -1.88911 1.75129 0
M  V30 4689 H 424.877 -3.10101 0.518137 0
M  V30 4690 N 428.649 -1.55105 -0.279332 0
M  V30 4691 C 429.579 -1.90557 -1.34945 0
M  V30 4692 C 430.56 -0.766738 -1.51839 0
M  V30 4693 O 431.745 -1.02434 -1.64988 0
M  V30 4694 C 428.875 -2.17193 -2.71006 0
M  V30 4695 C 427.829 -3.33021 -2.68851 0
M  V30 4696 C 427.155 -3.45123 -4.08405 0
M  V30 4697 C 428.455 -4.69578 -2.28678 0
M  V30 4698 H 430.149 -2.80188 -1.05522 0
M  V30 4699 H 427.695 -1.34811 -0.506173 0
M  V30 4700 H 429.648 -2.40581 -3.45975 0
M  V30 4701 H 428.372 -1.24355 -3.01999 0
M  V30 4702 H 427.031 -3.0959 -1.9634 0
M  V30 4703 H 426.679 -2.49762 -4.3661 0
M  V30 4704 H 426.379 -4.22995 -4.07859 0
M  V30 4705 H 427.903 -3.70796 -4.85121 0
M  V30 4706 H 429.317 -4.92553 -2.93368 0
M  V30 4707 H 427.714 -5.5032 -2.39306 0
M  V30 4708 H 428.784 -4.68828 -1.23807 0
M  V30 4709 N 430.127 0.543554 -1.4793 0
M  V30 4710 C 431.404 1.30458 -1.4574 0
M  V30 4711 C 431.784 2.1048 -0.161692 0
M  V30 4712 O 431.132 2.11831 0.856734 0
M  V30 4713 C 431.342 2.19754 -2.71126 0
M  V30 4714 C 432.69 2.80334 -3.18901 0
M  V30 4715 O 433.714 2.30049 -2.71948 0
M  V30 4716 O 432.573 3.71766 -4.00565 0
M  V30 4717 H 429.667 0.588117 -0.581418 0
M  V30 4718 H 432.213 0.561328 -1.60147 0
M  V30 4719 H 430.985 1.60316 -3.56952 0
M  V30 4720 H 430.608 3.01351 -2.59371 0
M  V30 4721 N 431.605 1.3629 0.791371 0
M  V30 4722 C 432.882 1.20962 1.53712 0
M  V30 4723 C 433.262 -0.205021 2.10102 0
M  V30 4724 O 432.61 -1.21042 1.93807 0
M  V30 4725 C 432.82 2.29002 2.63361 0
M  V30 4726 C 434.168 2.65572 3.31295 0
M  V30 4727 O 435.192 2.2803 2.73643 0
M  V30 4728 O 434.051 3.3018 4.35481 0
M  V30 4729 H 431.145 0.47086 0.679867 0
M  V30 4730 H 433.691 1.48016 0.830021 0
M  V30 4731 H 432.463 3.2382 2.19674 0
M  V30 4732 H 432.086 2.03303 3.41692 0
M  V30 4733 N 433.083 -1.0153 1.20538 0
M  V30 4734 C 434.313 -1.78487 1.04048 0
M  V30 4735 C 434.721 -1.84631 -0.413292 0
M  V30 4736 O 434.064 -1.29919 -1.29872 0
M  V30 4737 C 434.126 -3.24367 1.55003 0
M  V30 4738 C 433.79 -3.41827 3.0332 0
M  V30 4739 C 434.787 -3.30941 4.00966 0
M  V30 4740 C 432.472 -3.67602 3.42307 0
M  V30 4741 C 434.466 -3.45577 5.35589 0
M  V30 4742 C 432.153 -3.81881 4.77085 0
M  V30 4743 C 433.151 -3.70874 5.73534 0
M  V30 4744 O 432.839 -3.84714 7.05868 0
M  V30 4745 H 432.571 -0.568108 0.366373 0
M  V30 4746 H 435.125 -1.28677 1.60098 0
M  V30 4747 H 433.355 -3.75266 0.933397 0
M  V30 4748 H 435.044 -3.82963 1.34514 0
M  V30 4749 H 435.81 -3.10964 3.72191 0
M  V30 4750 H 431.689 -3.75256 2.67776 0
M  V30 4751 H 435.233 -3.36902 6.10854 0
M  V30 4752 H 431.13 -4.01359 5.0555 0
M  V30 4753 H 431.898 -4.01724 7.13134 0
M  V30 4754 N 434.561 -1.01147 -1.20859 0
M  V30 4755 C 435.838 -0.613136 -1.85742 0
M  V30 4756 C 436.218 0.909004 -1.90526 0
M  V30 4757 O 435.566 1.79862 -1.40932 0
M  V30 4758 C 435.776 -1.255 -3.25654 0
M  V30 4759 C 437.124 -1.3672 -4.01986 0
M  V30 4760 O 438.148 -1.21082 -3.34989 0
M  V30 4761 O 437.007 -1.6194 -5.21956 0
M  V30 4762 H 434.101 -0.210878 -0.799662 0
M  V30 4763 H 436.647 -1.10853 -1.2849 0
M  V30 4764 H 435.419 -2.29532 -3.16908 0
M  V30 4765 H 435.042 -0.746369 -3.90532 0
M  V30 4766 N 436.039 1.36541 -0.78704 0
M  V30 4767 C 437.285 2.00044 -0.367938 0
M  V30 4768 C 437.64 1.61345 1.04812 0
M  V30 4769 O 436.933 0.856936 1.71368 0
M  V30 4770 C 437.127 3.54343 -0.466485 0
M  V30 4771 C 436.956 4.08029 -1.89058 0
M  V30 4772 C 435.726 4.38284 -2.51466 0
M  V30 4773 C 437.924 4.27954 -2.85236 0
M  V30 4774 N 435.906 4.77778 -3.85488 0
M  V30 4775 C 437.277 4.70227 -4.04088 0
M  V30 4776 C 439.332 4.10119 -2.82324 0
M  V30 4777 C 438.035 4.96532 -5.20432 0
M  V30 4778 C 440.061 4.37569 -3.97854 0
M  V30 4779 C 439.423 4.80095 -5.15449 0
M  V30 4780 H 435.522 0.760525 -0.182004 0
M  V30 4781 H 438.106 1.65589 -1.02413 0
M  V30 4782 H 436.277 3.88072 0.159606 0
M  V30 4783 H 438.009 4.04693 -0.0238577 0
M  V30 4784 H 434.764 4.27905 -2.02965 0
M  V30 4785 H 435.188 5.01813 -4.54437 0
M  V30 4786 H 439.83 3.76399 -1.92571 0
M  V30 4787 H 437.548 5.29134 -6.10773 0
M  V30 4788 H 441.134 4.25341 -3.96958 0
M  V30 4789 H 440.014 5.00925 -6.0336 0
M  V30 4790 N 437.518 0.538854 1.48102 0
M  V30 4791 C 438.765 0.0080018 2.02498 0
M  V30 4792 C 439.093 -1.33437 1.41509 0
M  V30 4793 O 438.348 -1.87709 0.553507 0
M  V30 4794 C 438.647 -0.153808 3.57069 0
M  V30 4795 C 438.313 1.11533 4.36888 0
M  V30 4796 C 436.975 1.46314 4.58417 0
M  V30 4797 C 439.327 1.95718 4.83057 0
M  V30 4798 C 436.655 2.6516 5.23361 0
M  V30 4799 C 439.007 3.13751 5.49312 0
M  V30 4800 C 437.671 3.48866 5.69077 0
M  V30 4801 H 436.941 0.00292807 0.740994 0
M  V30 4802 H 439.588 0.706668 1.77984 0
M  V30 4803 H 437.893 -0.935309 3.80472 0
M  V30 4804 H 439.59 -0.579607 3.96789 0
M  V30 4805 H 436.18 0.834484 4.20398 0
M  V30 4806 H 440.364 1.70158 4.66219 0
M  V30 4807 H 435.62 2.92558 5.36861 0
M  V30 4808 H 439.794 3.79282 5.84053 0
M  V30 4809 H 437.421 4.41054 6.19173 0
M  V30 4810 N 438.996 -1.55193 0.274407 0
M  V30 4811 C 439.959 -2.212 -0.600279 0
M  V30 4812 C 440.959 -1.18963 -1.08187 0
M  V30 4813 O 442.149 -1.43873 -0.982158 0
M  V30 4814 C 439.281 -2.87739 -1.82809 0
M  V30 4815 H 440.474 -2.9989 -0.0239682 0
M  V30 4816 H 438.027 -1.5628 0.0250192 0
M  V30 4817 H 438.762 -2.13058 -2.44493 0
M  V30 4818 H 438.547 -3.62658 -1.49069 0
M  V30 4819 H 440.037 -3.38171 -2.45011 0
M  V30 4820 N 440.474 -0.00167713 -1.576 0
M  V30 4821 C 441.722 0.681471 -1.90264 0
M  V30 4822 C 442.043 1.7422 -0.875924 0
M  V30 4823 O 441.313 1.95709 0.0864412 0
M  V30 4824 H 439.893 0.254696 -0.702239 0
M  V30 4825 H 442.555 -0.0429996 -1.94853 0
M  V30 4826 H 441.651 1.15166 -2.90075 0
M  V30 4827 N 441.952 1.55251 0.271103 0
M  V30 4828 C 442.9 1.89054 1.35504 0
M  V30 4829 C 443.894 0.767064 1.51038 0
M  V30 4830 O 445.1 0.951429 1.528 0
M  V30 4831 H 441.475 0.600072 0.45323 0
M  V30 4832 H 443.446 2.79598 1.04247 0
M  V30 4833 C 442.195 2.18068 2.70817 0
M  V30 4834 H 441.518 3.04005 2.59656 0
M  V30 4835 H 442.958 2.4564 3.45597 0
M  V30 4836 C 441.417 0.988901 3.2206 0
M  V30 4837 O 441.947 0.224501 4.01072 0
M  V30 4838 N 440.153 0.786085 2.79766 0
M  V30 4839 H 439.7 1.40937 2.15626 0
M  V30 4840 H 439.658 -0.00969349 3.14399 0
M  V30 4841 N 443.43 -0.535701 1.48216 0
M  V30 4842 C 444.679 -1.28828 1.55197 0
M  V30 4843 C 444.992 -1.94263 0.228278 0
M  V30 4844 O 446.198 -2.70927 0.176278 0
M  V30 4845 C 444.654 -2.33727 2.73678 0
M  V30 4846 C 444.262 -1.74386 4.12666 0
M  V30 4847 C 446.006 -3.1003 2.89968 0
M  V30 4848 C 443.913 -2.77192 5.22416 0
M  V30 4849 H 442.843 -0.484484 0.577747 0
M  V30 4850 H 445.494 -0.56646 1.74538 0
M  V30 4851 H 443.876 -3.08919 2.4776 0
M  V30 4852 H 445.05 -1.05421 4.48579 0
M  V30 4853 H 443.365 -1.10595 4.01445 0
M  V30 4854 H 445.962 -3.86842 3.6913 0
M  V30 4855 H 446.305 -3.65542 1.9921 0
M  V30 4856 H 446.838 -2.41952 3.15759 0
M  V30 4857 H 443.577 -2.26507 6.15122 0
M  V30 4858 H 443.097 -3.44502 4.90998 0
M  V30 4859 H 444.776 -3.40285 5.50286 0
M  V30 4860 N 444.908 -1.36708 -0.784132 0
M  V30 4861 C 446.133 -1.34565 -1.5782 0
M  V30 4862 C 446.558 0.0695257 -1.87971 0
M  V30 4863 O 445.916 1.04302 -1.48293 0
M  V30 4864 C 445.964 -2.17952 -2.87279 0
M  V30 4865 O 445.068 -1.57563 -3.81114 0
M  V30 4866 H 444.409 -0.460337 -0.478524 0
M  V30 4867 H 446.939 -1.80064 -0.971495 0
M  V30 4868 H 446.949 -2.30721 -3.365 0
M  V30 4869 H 445.624 -3.20823 -2.64661 0
M  V30 4870 H 444.201 -1.53764 -3.39722 0
M  V30 4871 N 446.386 1.0089 -1.21074 0
M  V30 4872 C 447.802 1.2695 -0.967257 0
M  V30 4873 C 448.002 1.9846 0.348673 0
M  V30 4874 O 447.058 2.28459 1.0753 0
M  V30 4875 C 448.371 2.09697 -2.15517 0
M  V30 4876 C 449.919 2.22937 -2.197 0
M  V30 4877 C 450.394 3.09064 -3.37999 0
M  V30 4878 N 451.885 3.16653 -3.38061 0
M  V30 4879 C 452.62 3.8354 -4.26245 0
M  V30 4880 N 452.116 4.52488 -5.2462 0
M  V30 4881 N 453.909 3.80141 -4.14064 0
M  V30 4882 H 446.06 0.529005 -2.05707 0
M  V30 4883 H 448.323 0.296148 -0.900556 0
M  V30 4884 H 448.029 1.64497 -3.10859 0
M  V30 4885 H 447.903 3.10444 -2.14253 0
M  V30 4886 H 450.29 2.67357 -1.24916 0
M  V30 4887 H 450.371 1.21673 -2.2501 0
M  V30 4888 H 450.015 2.65347 -4.33074 0
M  V30 4889 H 449.945 4.10433 -3.29928 0
M  V30 4890 H 452.436 2.67566 -2.66865 0
M  V30 4891 H 452.749 5.01219 -5.88217 0
M  V30 4892 H 451.094 4.51288 -5.28549 0
M  V30 4893 H 454.285 3.25427 -3.36474 0
M  V30 4894 H 454.458 4.31992 -4.82998 0
M  V30 4895 N 447.864 1.01787 1.20321 0
M  V30 4896 C 449.089 0.727009 1.9424 0
M  V30 4897 C 449.514 -0.706179 1.74341 0
M  V30 4898 O 448.872 -1.48609 1.03852 0
M  V30 4899 C 448.92 1.06958 3.44372 0
M  V30 4900 O 448.024 0.181983 4.11998 0
M  V30 4901 H 447.365 0.269626 0.606793 0
M  V30 4902 H 449.895 1.36158 1.52716 0
M  V30 4903 H 449.905 1.02182 3.94997 0
M  V30 4904 H 448.58 2.11378 3.58179 0
M  V30 4905 H 447.157 0.287378 3.71791 0
M  V30 4906 N 449.342 -1.36122 0.79427 0
M  V30 4907 C 450.274 -2.28683 0.153903 0
M  V30 4908 C 451.287 -1.49707 -0.639669 0
M  V30 4909 O 452.476 -1.7209 -0.474054 0
M  V30 4910 C 449.576 -3.29202 -0.804921 0
M  V30 4911 C 448.749 -4.37358 -0.060366 0
M  V30 4912 C 447.808 -5.17811 -0.935849 0
M  V30 4913 O 446.834 -5.67853 -0.391309 0
M  V30 4914 N 448.036 -5.34721 -2.25951 0
M  V30 4915 H 450.801 -2.84278 0.949008 0
M  V30 4916 H 448.362 -1.4834 0.648611 0
M  V30 4917 H 450.354 -3.79914 -1.39455 0
M  V30 4918 H 448.924 -2.74212 -1.50088 0
M  V30 4919 H 448.144 -3.87746 0.710382 0
M  V30 4920 H 449.432 -5.06777 0.45324 0
M  V30 4921 H 448.83 -4.95687 -2.72601 0
M  V30 4922 H 447.387 -5.88657 -2.79867 0
M  V30 4923 N 450.82 -0.546701 -1.47814 0
M  V30 4924 C 452.045 -0.021268 -2.07389 0
M  V30 4925 C 452.47 1.25822 -1.39822 0
M  V30 4926 O 451.828 1.75111 -0.46968 0
M  V30 4927 C 451.876 0.168502 -3.60206 0
M  V30 4928 O 450.98 1.23347 -3.93522 0
M  V30 4929 H 450.321 -0.0466108 -0.662362 0
M  V30 4930 H 452.851 -0.759387 -1.89985 0
M  V30 4931 H 452.861 0.385982 -4.0617 0
M  V30 4932 H 451.536 -0.766075 -4.08784 0
M  V30 4933 H 450.113 0.997319 -3.59316 0
M  V30 4934 N 452.299 1.55045 -0.282633 0
M  V30 4935 C 453.209 2.26491 0.61147 0
M  V30 4936 C 454.225 1.29348 1.16384 0
M  V30 4937 O 455.401 1.62298 1.19253 0
M  V30 4938 C 452.466 2.97779 1.77563 0
M  V30 4939 C 451.527 4.10418 1.25919 0
M  V30 4940 C 450.76 4.78297 2.36786 0
M  V30 4941 O 450.983 4.45426 3.56303 0
M  V30 4942 O 449.917 5.66089 2.04517 0
M  V30 4943 H 453.743 3.03683 0.0324615 0
M  V30 4944 H 451.328 1.49317 -0.0497576 0
M  V30 4945 H 453.21 3.42554 2.45427 0
M  V30 4946 H 451.885 2.23498 2.34159 0
M  V30 4947 H 450.792 3.70082 0.546797 0
M  V30 4948 H 452.125 4.86622 0.738887 0
M  V30 4949 N 453.777 0.010035 1.57597 0
M  V30 4950 C 454.709 -1.00649 2.05918 0
M  V30 4951 C 455.722 -1.30077 0.978964 0
M  V30 4952 O 456.911 -1.26878 1.25556 0
M  V30 4953 C 454.011 -2.33876 2.45265 0
M  V30 4954 C 453.184 -2.23242 3.7614 0
M  V30 4955 C 452.243 -3.39242 4.02245 0
M  V30 4956 O 451.269 -3.1698 4.72771 0
M  V30 4957 N 452.471 -4.6242 3.50924 0
M  V30 4958 H 455.236 -0.594333 2.93748 0
M  V30 4959 H 452.797 -0.17714 1.60928 0
M  V30 4960 H 454.789 -3.1027 2.59836 0
M  V30 4961 H 453.359 -2.66799 1.62902 0
M  V30 4962 H 452.579 -1.31696 3.71551 0
M  V30 4963 H 453.867 -2.13321 4.61922 0
M  V30 4964 H 453.265 -4.83404 2.93832 0
M  V30 4965 H 451.822 -5.36046 3.70807 0
M  V30 4966 N 455.255 -1.55392 -0.262866 0
M  V30 4967 C 456.185 -1.91978 -1.32917 0
M  V30 4968 C 457.166 -0.7828 -1.51017 0
M  V30 4969 O 458.351 -1.04178 -1.63892 0
M  V30 4970 C 455.481 -2.20055 -2.68687 0
M  V30 4971 C 454.435 -3.35854 -2.65304 0
M  V30 4972 C 453.761 -3.49435 -4.04721 0
M  V30 4973 C 455.061 -4.71977 -2.23685 0
M  V30 4974 H 456.755 -2.81292 -1.02544 0
M  V30 4975 H 454.301 -1.3534 -0.491846 0
M  V30 4976 H 456.254 -2.44237 -3.43404 0
M  V30 4977 H 454.978 -1.27551 -3.00663 0
M  V30 4978 H 453.637 -3.11655 -1.93045 0
M  V30 4979 H 453.285 -2.54379 -4.33936 0
M  V30 4980 H 452.985 -4.27297 -4.0335 0
M  V30 4981 H 454.509 -3.7592 -4.81161 0
M  V30 4982 H 455.923 -4.95637 -2.88127 0
M  V30 4983 H 454.32 -5.52828 -2.33456 0
M  V30 4984 H 455.39 -4.70115 -1.18827 0
M  V30 4985 N 456.733 0.527833 -1.48498 0
M  V30 4986 C 457.663 1.64136 -1.66077 0
M  V30 4987 C 458.644 1.62286 -0.509625 0
M  V30 4988 O 459.829 1.79449 -0.742413 0
M  V30 4989 C 456.959 3.02717 -1.70234 0
M  V30 4990 C 455.913 3.19426 -2.8487 0
M  V30 4991 C 455.239 4.5909 -2.74118 0
M  V30 4992 C 456.539 3.01993 -4.26142 0
M  V30 4993 H 458.233 1.4968 -2.593 0
M  V30 4994 H 455.779 0.718654 -1.24785 0
M  V30 4995 H 457.732 3.80491 -1.8112 0
M  V30 4996 H 456.456 3.18201 -0.735911 0
M  V30 4997 H 455.115 2.4407 -2.73542 0
M  V30 4998 H 454.763 4.71413 -1.7544 0
M  V30 4999 H 454.463 4.71214 -3.51042 0
M  V30 5000 H 455.987 5.3896 -2.86974 0
M  V30 5001 H 457.401 3.69558 -4.38292 0
M  V30 5002 H 455.798 3.2561 -5.04082 0
M  V30 5003 H 456.868 1.98396 -4.42456 0
M  V30 5004 N 458.211 1.37122 0.776871 0
M  V30 5005 C 459.627 1.1781 1.07671 0
M  V30 5006 C 459.827 0.0107454 2.01497 0
M  V30 5007 O 458.883 -0.650756 2.4397 0
M  V30 5008 C 460.196 2.49451 1.67913 0
M  V30 5009 C 461.744 2.55927 1.80195 0
M  V30 5010 C 462.219 3.87686 2.43851 0
M  V30 5011 N 463.71 3.891 2.51307 0
M  V30 5012 C 464.445 4.87797 3.014 0
M  V30 5013 N 463.941 5.96888 3.51705 0
M  V30 5014 N 465.734 4.75205 3.00227 0
M  V30 5015 H 457.885 2.11843 0.153778 0
M  V30 5016 H 460.148 0.938927 0.130844 0
M  V30 5017 H 459.854 3.35207 1.06439 0
M  V30 5018 H 459.728 2.66169 2.67271 0
M  V30 5019 H 462.115 1.70582 2.40803 0
M  V30 5020 H 462.196 2.43097 0.796069 0
M  V30 5021 H 461.84 4.73444 1.83884 0
M  V30 5022 H 461.77 3.97817 3.45035 0
M  V30 5023 H 464.261 3.10293 2.157 0
M  V30 5024 H 464.574 6.68155 3.88316 0
M  V30 5025 H 462.919 6.0054 3.49824 0
M  V30 5026 H 466.11 3.89103 2.60224 0
M  V30 5027 H 466.283 5.52279 3.38957 0
M  V30 5028 N 459.689 -1.00246 1.21608 0
M  V30 5029 C 460.621 -2.09244 0.935401 0
M  V30 5030 C 461.634 -1.62592 -0.0823594 0
M  V30 5031 O 462.823 -1.77865 0.150456 0
M  V30 5032 C 459.923 -3.36724 0.383453 0
M  V30 5033 C 459.096 -4.1245 1.45615 0
M  V30 5034 C 458.155 -5.18219 0.912991 0
M  V30 5035 O 457.181 -5.46337 1.59701 0
M  V30 5036 N 458.383 -5.7987 -0.270478 0
M  V30 5037 H 461.148 -2.33905 1.87373 0
M  V30 5038 H 458.709 -1.16748 1.12167 0
M  V30 5039 H 460.701 -4.047 0.00562157 0
M  V30 5040 H 459.271 -3.09201 -0.459758 0
M  V30 5041 H 458.491 -3.39241 2.00772 0
M  V30 5042 H 459.779 -4.59819 2.17817 0
M  V30 5043 H 459.177 -5.59381 -0.843195 0
M  V30 5044 H 457.734 -6.49126 -0.589794 0
M  V30 5045 N 461.167 -1.02423 -1.1978 0
M  V30 5046 C 462.114 -0.601023 -2.22837 0
M  V30 5047 C 463.084 0.382801 -1.61629 0
M  V30 5048 O 464.269 0.280514 -1.88727 0
M  V30 5049 C 461.409 0.0467755 -3.45068 0
M  V30 5050 C 460.522 -0.98253 -4.20678 0
M  V30 5051 C 459.657 -0.304982 -5.30324 0
M  V30 5052 C 458.696 -1.32052 -5.97686 0
M  V30 5053 N 457.833 -0.669105 -6.98904 0
M  V30 5054 H 462.673 -1.48444 -2.58396 0
M  V30 5055 H 460.21 -0.742936 -1.2696 0
M  V30 5056 H 462.168 0.439556 -4.14878 0
M  V30 5057 H 460.798 0.893796 -3.10179 0
M  V30 5058 H 459.85 -1.49341 -3.49859 0
M  V30 5059 H 461.162 -1.75455 -4.66923 0
M  V30 5060 H 460.316 0.142893 -6.06532 0
M  V30 5061 H 459.055 0.499283 -4.85138 0
M  V30 5062 H 458.06 -1.7787 -5.20233 0
M  V30 5063 H 459.285 -2.1262 -6.44957 0
M  V30 5064 H 457.231 0.115152 -6.55899 0
M  V30 5065 H 457.148 -1.37908 -7.43315 0
M  V30 5066 H 458.416 -0.245076 -7.79115 0
M  V30 5067 N 462.645 1.35699 -0.801477 0
M  V30 5068 C 463.893 1.9852 -0.37871 0
M  V30 5069 C 464.214 1.63907 1.05638 0
M  V30 5070 O 463.484 0.919013 1.73006 0
M  V30 5071 H 462.064 0.734322 -0.137042 0
M  V30 5072 H 464.726 1.65697 -1.02619 0
M  V30 5073 H 463.822 3.08382 -0.480284 0
M  V30 5074 N 464.123 0.554532 1.47522 0
M  V30 5075 C 465.07 -0.19466 2.29978 0
M  V30 5076 C 466.04 -0.910882 1.38896 0
M  V30 5077 O 467.225 -0.907102 1.67858 0
M  V30 5078 C 464.365 -1.22035 3.22802 0
M  V30 5079 C 463.478 -0.510474 4.28973 0
M  V30 5080 C 462.613 -1.52123 5.08952 0
M  V30 5081 C 461.652 -0.796173 6.069 0
M  V30 5082 N 460.789 -1.75363 6.79847 0
M  V30 5083 H 465.629 0.51461 2.93523 0
M  V30 5084 H 463.166 0.265607 1.44682 0
M  V30 5085 H 465.124 -1.8276 3.7504 0
M  V30 5086 H 463.754 -1.89769 2.61127 0
M  V30 5087 H 462.806 0.211234 3.79813 0
M  V30 5088 H 464.118 0.0576503 4.98767 0
M  V30 5089 H 463.272 -2.20207 5.65326 0
M  V30 5090 H 462.011 -2.12327 4.39054 0
M  V30 5091 H 461.016 -0.101388 5.49707 0
M  V30 5092 H 462.241 -0.199911 6.78806 0
M  V30 5093 H 460.187 -2.3443 6.12682 0
M  V30 5094 H 460.104 -1.23759 7.45801 0
M  V30 5095 H 461.372 -2.4257 7.40797 0
M  V30 5096 N 465.601 -1.54893 0.290851 0
M  V30 5097 C 466.511 -2.26812 -0.59945 0
M  V30 5098 C 467.527 -1.29963 -1.15696 0
M  V30 5099 O 468.703 -1.62928 -1.18391 0
M  V30 5100 C 465.768 -2.98716 -1.75982 0
M  V30 5101 C 464.829 -4.1108 -1.2374 0
M  V30 5102 C 464.062 -4.79546 -2.34246 0
M  V30 5103 O 464.285 -4.47309 -3.53936 0
M  V30 5104 O 463.219 -5.67165 -2.01512 0
M  V30 5105 H 467.045 -3.03696 -0.0163561 0
M  V30 5106 H 464.63 -1.49289 0.0576755 0
M  V30 5107 H 466.512 -3.43851 -2.43607 0
M  V30 5108 H 465.187 -2.24737 -2.3297 0
M  V30 5109 H 464.094 -3.70367 -0.527163 0
M  V30 5110 H 465.427 -4.87007 -0.71307 0
M  V30 5111 N 467.08 -0.0183926 -1.57589 0
M  V30 5112 C 468.328 0.661253 -1.90976 0
M  V30 5113 C 468.649 1.73281 -0.894353 0
M  V30 5114 O 467.919 1.9579 0.0656788 0
M  V30 5115 H 466.499 0.247233 -0.704901 0
M  V30 5116 H 469.161 -0.0636639 -1.94796 0
M  V30 5117 H 468.257 1.12083 -2.9128 0
M  V30 5118 N 468.558 1.5553 0.254621 0
M  V30 5119 C 469.521 1.88872 1.29846 0
M  V30 5120 C 470.521 0.764591 1.41459 0
M  V30 5121 O 471.711 1.03265 1.40293 0
M  V30 5122 C 468.843 2.11032 2.67728 0
M  V30 5123 H 470.036 2.82201 1.01502 0
M  V30 5124 H 467.589 1.48303 0.493556 0
M  V30 5125 H 468.324 1.20146 3.01223 0
M  V30 5126 H 468.109 2.92895 2.60682 0
M  V30 5127 H 469.599 2.38038 3.43115 0
M  V30 5128 N 470.036 -0.519951 1.48776 0
M  V30 5129 C 471.283 -1.27522 1.57303 0
M  V30 5130 C 471.611 -1.92869 0.251328 0
M  V30 5131 O 470.866 -1.80372 -0.759243 0
M  V30 5132 C 471.165 -2.37864 2.6675 0
M  V30 5133 C 470.831 -1.90103 4.08867 0
M  V30 5134 C 469.493 -1.76795 4.47546 0
M  V30 5135 C 471.845 -1.54133 4.97888 0
M  V30 5136 C 469.173 -1.25868 5.73039 0
M  V30 5137 C 471.525 -1.04665 6.23881 0
M  V30 5138 C 470.189 -0.899823 6.61407 0
M  V30 5139 H 469.459 -0.466636 0.575614 0
M  V30 5140 H 472.106 -0.579109 1.82534 0
M  V30 5141 H 470.411 -3.13186 2.35418 0
M  V30 5142 H 472.108 -2.95969 2.70561 0
M  V30 5143 H 468.698 -2.01414 3.78326 0
M  V30 5144 H 472.882 -1.6327 4.68675 0
M  V30 5145 H 468.138 -1.13196 6.0083 0
M  V30 5146 H 472.312 -0.759074 6.92251 0
M  V30 5147 H 469.939 -0.503011 7.58534 0
M  V30 5148 N 471.514 -1.37532 -0.769588 0
M  V30 5149 C 472.447 -1.27839 -1.8903 0
M  V30 5150 C 473.425 -0.158504 -1.61826 0
M  V30 5151 O 474.609 -0.333086 -1.85534 0
M  V30 5152 C 471.736 -0.977072 -3.24301 0
M  V30 5153 C 470.782 -2.11414 -3.70414 0
M  V30 5154 S 471.615 -3.73409 -3.83831 0
M  V30 5155 C 472.771 -3.45432 -5.21946 0
M  V30 5156 H 473.004 -2.22694 -1.96963 0
M  V30 5157 H 470.537 -1.2318 -0.930914 0
M  V30 5158 H 472.495 -0.810049 -4.02428 0
M  V30 5159 H 471.156 -0.0459701 -3.14066 0
M  V30 5160 H 470.349 -1.85837 -4.68488 0
M  V30 5161 H 469.951 -2.24141 -2.99394 0
M  V30 5162 H 472.243 -3.00554 -6.07185 0
M  V30 5163 H 473.186 -4.42841 -5.52537 0
M  V30 5164 H 473.594 -2.80311 -4.89986 0
M  V30 5165 N 472.992 0.995999 -1.22138 0
M  V30 5166 C 474.238 1.73767 -1.04561 0
M  V30 5167 C 474.571 1.89633 0.418698 0
M  V30 5168 O 473.846 1.43723 1.3105 0
M  V30 5169 C 474.129 3.14505 -1.75382 0
M  V30 5170 C 473.982 3.06306 -3.29388 0
M  V30 5171 C 475.301 4.13615 -1.50369 0
M  V30 5172 H 472.42 0.630728 -0.38125 0
M  V30 5173 H 475.062 1.16057 -1.50435 0
M  V30 5174 H 473.212 3.63775 -1.36383 0
M  V30 5175 H 474.884 2.64681 -3.77812 0
M  V30 5176 H 473.127 2.43186 -3.59226 0
M  V30 5177 H 473.798 4.05884 -3.74116 0
M  V30 5178 H 476.274 3.73089 -1.84239 0
M  V30 5179 H 475.15 5.10212 -2.02421 0
M  V30 5180 H 475.411 4.39949 -0.435611 0
M  V30 5181 N 474.47 1.03057 1.19235 0
M  V30 5182 C 475.886 0.747947 1.40989 0
M  V30 5183 C 476.086 -0.666752 1.90149 0
M  V30 5184 O 475.142 -1.43249 2.07933 0
M  V30 5185 C 476.455 1.7855 2.41951 0
M  V30 5186 C 478.003 1.80524 2.55695 0
M  V30 5187 C 478.478 2.83243 3.59913 0
M  V30 5188 N 479.969 2.8207 3.67411 0
M  V30 5189 C 480.704 3.58204 4.47747 0
M  V30 5190 N 480.2 4.44057 5.31775 0
M  V30 5191 N 481.993 3.46738 4.42413 0
M  V30 5192 H 474.144 1.94367 0.856468 0
M  V30 5193 H 476.407 0.840412 0.438647 0
M  V30 5194 H 476.113 2.79973 2.12857 0
M  V30 5195 H 475.987 1.6092 3.41152 0
M  V30 5196 H 478.374 0.79778 2.84112 0
M  V30 5197 H 478.455 2.02229 1.56643 0
M  V30 5198 H 478.099 3.84161 3.32239 0
M  V30 5199 H 478.029 2.58795 4.5862 0
M  V30 5200 H 480.52 2.19803 3.074 0
M  V30 5201 H 480.833 4.98884 5.90199 0
M  V30 5202 H 479.178 4.48129 5.3123 0
M  V30 5203 H 482.369 2.79077 3.75811 0
M  V30 5204 H 482.542 4.06322 5.04783 0
M  V30 5205 N 475.948 -1.35272 0.808662 0
M  V30 5206 C 476.896 -2.31663 0.208606 0
M  V30 5207 C 477.89 -1.56731 -0.642778 0
M  V30 5208 O 479.096 -1.71843 -0.53571 0
M  V30 5209 H 475.471 -0.750421 0.0486993 0
M  V30 5210 H 477.442 -2.79814 1.03666 0
M  V30 5211 C 476.191 -3.42008 -0.626573 0
M  V30 5212 H 475.514 -3.99795 0.0192103 0
M  V30 5213 H 476.954 -4.11727 -1.01278 0
M  V30 5214 C 475.413 -2.85226 -1.79298 0
M  V30 5215 O 475.943 -2.78945 -2.89055 0
M  V30 5216 N 474.149 -2.42245 -1.60516 0
M  V30 5217 H 473.696 -2.47554 -0.712375 0
M  V30 5218 H 473.654 -2.04603 -2.38715 0
M  V30 5219 N 477.426 -0.562348 -1.47226 0
M  V30 5220 C 478.651 -0.0432632 -2.07355 0
M  V30 5221 C 479.076 1.24332 -1.41149 0
M  V30 5222 O 478.434 1.74603 -0.488226 0
M  V30 5223 C 478.482 0.130288 -3.60365 0
M  V30 5224 O 477.586 1.19166 -3.94808 0
M  V30 5225 H 476.927 -0.0536334 -0.66183 0
M  V30 5226 H 479.457 -0.779495 -1.89169 0
M  V30 5227 H 479.467 0.342881 -4.06557 0
M  V30 5228 H 478.142 -0.809389 -4.07948 0
M  V30 5229 H 476.719 0.959153 -3.60354 0
M  V30 5230 N 478.904 1.54736 -0.299062 0
M  V30 5231 C 480.129 2.04975 0.316254 0
M  V30 5232 C 480.554 1.17501 1.46885 0
M  V30 5233 O 479.912 0.178678 1.80417 0
M  V30 5234 C 479.96 3.52672 0.751997 0
M  V30 5235 O 479.064 3.68226 1.85697 0
M  V30 5236 H 478.405 0.661126 0.0617175 0
M  V30 5237 H 480.935 1.99805 -0.440341 0
M  V30 5238 H 480.945 3.94488 1.04133 0
M  V30 5239 H 479.62 4.158 -0.0911482 0
M  V30 5240 H 478.197 3.38316 1.56834 0
M  V30 5241 N 480.382 0.0267497 1.57577 0
M  V30 5242 C 481.314 -0.984594 2.06974 0
M  V30 5243 C 482.327 -1.29032 0.992705 0
M  V30 5244 O 483.516 -1.25539 1.26895 0
M  V30 5245 C 480.616 -2.31262 2.47732 0
M  V30 5246 C 479.789 -2.1924 3.78487 0
M  V30 5247 C 478.848 -3.34956 4.05821 0
M  V30 5248 O 477.874 -3.11948 4.76106 0
M  V30 5249 N 479.076 -4.58672 3.55809 0
M  V30 5250 H 481.841 -0.563143 2.94362 0
M  V30 5251 H 479.402 -0.160061 1.61107 0
M  V30 5252 H 481.394 -3.07496 2.63112 0
M  V30 5253 H 479.964 -2.65056 1.65723 0
M  V30 5254 H 479.184 -1.27747 3.72927 0
M  V30 5255 H 480.472 -2.08409 4.64158 0
M  V30 5256 H 479.87 -4.8026 2.98942 0
M  V30 5257 H 478.427 -5.32083 3.76472 0
M  V30 5258 N 481.861 -1.55662 -0.24637 0
M  V30 5259 C 483.107 -1.77782 -0.975779 0
M  V30 5260 C 483.44 -0.592103 -1.84953 0
M  V30 5261 O 482.715 0.409588 -1.90138 0
M  V30 5262 C 482.998 -3.09788 -1.83584 0
M  V30 5263 C 482.851 -4.38764 -0.990241 0
M  V30 5264 C 484.17 -3.38029 -2.81823 0
M  V30 5265 H 481.289 -0.646789 -0.353317 0
M  V30 5266 H 483.931 -1.88398 -0.246248 0
M  V30 5267 H 482.081 -3.00869 -2.45784 0
M  V30 5268 H 483.753 -4.59675 -0.386897 0
M  V30 5269 H 481.996 -4.32798 -0.294626 0
M  V30 5270 H 482.667 -5.27514 -1.62584 0
M  V30 5271 H 485.143 -3.46915 -2.2976 0
M  V30 5272 H 484.019 -4.3161 -3.39122 0
M  V30 5273 H 484.28 -2.58968 -3.58313 0
M  V30 5274 N 483.339 0.512053 -1.4905 0
M  V30 5275 C 484.587 1.26436 -1.57665 0
M  V30 5276 C 484.908 1.93255 -0.260293 0
M  V30 5277 O 484.178 1.82206 0.719564 0
M  V30 5278 H 482.758 0.469658 -0.580888 0
M  V30 5279 H 485.42 0.594398 -1.85615 0
M  V30 5280 H 484.516 2.03417 -2.36702 0
M  V30 5281 N 484.817 1.37938 0.762283 0
M  V30 5282 C 485.75 1.2884 1.88349 0
M  V30 5283 C 486.728 0.167084 1.61739 0
M  V30 5284 O 487.912 0.34292 1.85355 0
M  V30 5285 C 485.039 0.994257 3.23778 0
M  V30 5286 C 484.085 2.13376 3.69287 0
M  V30 5287 S 484.918 3.75439 3.81845 0
M  V30 5288 C 486.074 3.48195 5.20107 0
M  V30 5289 H 486.307 2.23736 1.95779 0
M  V30 5290 H 483.84 1.23672 0.924368 0
M  V30 5291 H 485.798 0.83138 4.01993 0
M  V30 5292 H 484.459 0.0626251 3.14038 0
M  V30 5293 H 483.652 1.88319 4.67495 0
M  V30 5294 H 483.254 2.25726 2.98201 0
M  V30 5295 H 485.546 3.0377 6.05583 0
M  V30 5296 H 486.489 4.45765 5.50181 0
M  V30 5297 H 486.897 2.82905 4.88493 0
M  V30 5298 N 486.295 -0.989507 1.22664 0
M  V30 5299 C 487.525 -1.7624 1.0781 0
M  V30 5300 C 487.933 -1.85466 -0.374036 0
M  V30 5301 O 487.276 -1.32645 -1.27087 0
M  V30 5302 C 487.338 -3.21007 1.61849 0
M  V30 5303 C 487.002 -3.35316 3.10503 0
M  V30 5304 C 487.999 -3.22362 4.07896 0
M  V30 5305 C 485.684 -3.60258 3.50028 0
M  V30 5306 C 487.678 -3.34139 5.42798 0
M  V30 5307 C 485.365 -3.71676 4.85078 0
M  V30 5308 C 486.363 -3.58625 5.81272 0
M  V30 5309 O 486.051 -3.69655 7.1387 0
M  V30 5310 H 485.783 -0.560209 0.378341 0
M  V30 5311 H 488.337 -1.25252 1.62792 0
M  V30 5312 H 486.567 -3.73202 1.01279 0
M  V30 5313 H 488.256 -3.80024 1.42606 0
M  V30 5314 H 489.022 -3.03 3.78703 0
M  V30 5315 H 484.901 -3.69492 2.75675 0
M  V30 5316 H 488.445 -3.23869 6.17863 0
M  V30 5317 H 484.342 -3.90545 5.1395 0
M  V30 5318 H 485.11 -3.86507 7.21495 0
M  V30 5319 N 487.773 -1.03688 -1.18687 0
M  V30 5320 C 489.001 -0.757918 -1.92518 0
M  V30 5321 C 489.416 0.684398 -1.75959 0
M  V30 5322 O 488.773 1.46617 -1.08673 0
M  V30 5323 C 488.824 -1.10985 -3.44042 0
M  V30 5324 O 488.545 -2.49554 -3.60076 0
M  V30 5325 C 490.046 -0.854844 -4.3498 0
M  V30 5326 H 487.266 -0.276699 -0.611293 0
M  V30 5327 H 489.81 -1.38352 -1.50595 0
M  V30 5328 H 487.965 -0.529279 -3.83767 0
M  V30 5329 H 488.379 -2.6291 -4.53849 0
M  V30 5330 H 489.853 -1.15098 -5.39867 0
M  V30 5331 H 490.33 0.210507 -4.38695 0
M  V30 5332 H 490.936 -1.41853 -4.00946 0
M  V30 5333 N 489.251 1.34841 -0.815825 0
M  V30 5334 C 490.497 1.98793 -0.401129 0
M  V30 5335 C 490.83 1.64548 1.03139 0
M  V30 5336 O 490.105 0.913487 1.71714 0
M  V30 5337 C 490.388 3.55143 -0.595409 0
M  V30 5338 C 490.241 3.99155 -2.07352 0
M  V30 5339 C 491.56 4.40092 -0.0268823 0
M  V30 5340 H 488.679 0.722146 -0.14722 0
M  V30 5341 H 491.321 1.59847 -1.02707 0
M  V30 5342 H 489.471 3.8845 -0.0625779 0
M  V30 5343 H 491.143 3.76216 -2.66945 0
M  V30 5344 H 489.386 3.49726 -2.56659 0
M  V30 5345 H 490.057 5.07971 -2.1603 0
M  V30 5346 H 492.533 4.13298 -0.482042 0
M  V30 5347 H 491.409 5.48562 -0.19267 0
M  V30 5348 H 491.67 4.29016 1.06759 0
M  V30 5349 N 490.729 0.570148 1.46925 0
M  V30 5350 C 491.954 0.0542592 2.07329 0
M  V30 5351 C 492.379 -1.23582 1.41806 0
M  V30 5352 O 491.737 -1.74341 0.497479 0
M  V30 5353 C 491.785 -0.111175 3.60429 0
M  V30 5354 O 490.889 -1.17071 3.95434 0
M  V30 5355 H 490.23 0.0571425 0.661537 0
M  V30 5356 H 492.76 0.789516 1.88753 0
M  V30 5357 H 492.77 -0.321315 4.06733 0
M  V30 5358 H 491.445 0.831012 4.07513 0
M  V30 5359 H 490.022 -0.940029 3.60857 0
M  V30 5360 N 492.207 -1.54576 0.307264 0
M  V30 5361 C 493.137 -2.26708 -0.55907 0
M  V30 5362 C 494.118 -1.26893 -1.1328 0
M  V30 5363 O 495.303 -1.55677 -1.16097 0
M  V30 5364 C 492.433 -3.01259 -1.72801 0
M  V30 5365 C 491.387 -4.08275 -1.28435 0
M  V30 5366 C 490.713 -4.70575 -2.53895 0
M  V30 5367 C 492.013 -5.2068 -0.411038 0
M  V30 5368 H 493.707 -2.9937 0.042576 0
M  V30 5369 H 491.253 -1.43983 0.0219173 0
M  V30 5370 H 493.206 -3.50444 -2.34023 0
M  V30 5371 H 491.93 -2.26187 -2.356 0
M  V30 5372 H 490.589 -3.59949 -0.695161 0
M  V30 5373 H 490.237 -3.92136 -3.15021 0
M  V30 5374 H 489.937 -5.42854 -2.24908 0
M  V30 5375 H 491.461 -5.22527 -3.15908 0
M  V30 5376 H 492.875 -5.65721 -0.929097 0
M  V30 5377 H 491.272 -5.99716 -0.214664 0
M  V30 5378 H 492.342 -4.81629 0.562287 0
M  V30 5379 N 493.685 -0.035106 -1.57561 0
M  V30 5380 C 494.932 0.642229 -1.92046 0
M  V30 5381 C 495.26 1.7179 -0.91206 0
M  V30 5382 O 494.515 1.95544 0.0781153 0
M  V30 5383 C 494.814 1.29149 -3.3325 0
M  V30 5384 C 494.48 0.345604 -4.49574 0
M  V30 5385 C 493.142 0.0852775 -4.81124 0
M  V30 5386 C 495.494 -0.303569 -5.20315 0
M  V30 5387 C 492.822 -0.831927 -5.80772 0
M  V30 5388 C 495.174 -1.20886 -6.20942 0
M  V30 5389 C 493.838 -1.47802 -6.50931 0
M  V30 5390 H 493.108 0.235008 -0.702746 0
M  V30 5391 H 495.755 -0.0981529 -1.91248 0
M  V30 5392 H 494.06 2.10676 -3.30337 0
M  V30 5393 H 495.757 1.82223 -3.57205 0
M  V30 5394 H 492.347 0.558683 -4.24943 0
M  V30 5395 H 496.531 -0.115515 -4.96166 0
M  V30 5396 H 491.787 -1.0481 -6.02349 0
M  V30 5397 H 495.961 -1.71804 -6.74875 0
M  V30 5398 H 493.588 -2.19039 -7.2796 0
M  V30 5399 N 495.163 1.55791 0.238111 0
M  V30 5400 C 496.388 1.8244 0.986432 0
M  V30 5401 C 496.813 0.613314 1.7782 0
M  V30 5402 O 496.171 -0.437767 1.75935 0
M  V30 5403 C 496.219 3.06917 1.893 0
M  V30 5404 O 495.323 2.84449 2.98601 0
M  V30 5405 H 494.664 0.601975 0.280218 0
M  V30 5406 H 497.194 2.02987 0.256437 0
M  V30 5407 H 497.204 3.36583 2.30598 0
M  V30 5408 H 495.879 3.947 1.31091 0
M  V30 5409 H 494.456 2.65972 2.61368 0
M  V30 5410 N 496.642 -0.504142 1.49319 0
M  V30 5411 C 497.589 -1.60603 1.65756 0
M  V30 5412 C 498.559 -1.58425 0.499082 0
M  V30 5413 O 499.744 -1.76459 0.725728 0
M  V30 5414 C 496.884 -2.98764 1.72726 0
M  V30 5415 C 495.997 -3.10982 2.99857 0
M  V30 5416 C 495.132 -4.39857 2.97824 0
M  V30 5417 C 494.171 -4.45697 4.19548 0
M  V30 5418 N 493.308 -5.65995 4.15444 0
M  V30 5419 H 498.148 -1.45895 2.59843 0
M  V30 5420 H 495.685 -0.709891 1.28837 0
M  V30 5421 H 497.643 -3.78839 1.74747 0
M  V30 5422 H 496.273 -3.12183 0.821075 0
M  V30 5423 H 495.325 -2.23991 3.07461 0
M  V30 5424 H 496.637 -3.11157 3.89849 0
M  V30 5425 H 495.791 -5.2825 2.98391 0
M  V30 5426 H 494.53 -4.42242 2.05604 0
M  V30 5427 H 493.535 -3.55707 4.19229 0
M  V30 5428 H 494.76 -4.4503 5.12957 0
M  V30 5429 H 492.706 -5.69229 3.26059 0
M  V30 5430 H 492.623 -5.67773 4.99169 0
M  V30 5431 H 493.891 -6.56604 4.20109 0
M  V30 5432 N 498.12 -1.38341 -0.754957 0
M  V30 5433 C 499.083 -1.35262 -1.85032 0
M  V30 5434 C 500.083 -0.253393 -1.58791 0
M  V30 5435 O 501.273 -0.510205 -1.66561 0
M  V30 5436 C 498.405 -1.10544 -3.22479 0
M  V30 5437 H 499.598 -2.32712 -1.8917 0
M  V30 5438 H 497.151 -1.23614 -0.956515 0
M  V30 5439 H 497.886 -0.136952 -3.24011 0
M  V30 5440 H 497.671 -1.90127 -3.4292 0
M  V30 5441 H 499.161 -1.11082 -4.02555 0
M  V30 5442 N 499.598 0.982988 -1.23187 0
M  V30 5443 C 500.844 1.72648 -1.06398 0
M  V30 5444 C 501.177 1.90066 0.398561 0
M  V30 5445 O 500.452 1.45105 1.29518 0
M  V30 5446 C 500.735 3.12627 -1.78707 0
M  V30 5447 C 500.588 3.02795 -3.32618 0
M  V30 5448 C 501.907 4.11997 -1.54747 0
M  V30 5449 H 499.026 0.626649 -0.387918 0
M  V30 5450 H 501.668 1.14455 -1.51658 0
M  V30 5451 H 499.818 3.62308 -1.40234 0
M  V30 5452 H 501.49 2.60659 -3.80598 0
M  V30 5453 H 499.733 2.39362 -3.61785 0
M  V30 5454 H 500.404 4.01893 -3.78399 0
M  V30 5455 H 502.88 3.71114 -1.88186 0
M  V30 5456 H 501.756 5.08037 -2.07821 0
M  V30 5457 H 502.017 4.39462 -0.482249 0
M  V30 5458 N 501.076 1.04316 1.18135 0
M  V30 5459 C 502.024 0.630175 2.23901 0
M  V30 5460 C 503.018 -0.344254 1.65865 0
M  V30 5461 O 504.224 -0.211273 1.78756 0
M  V30 5462 H 500.599 0.185578 0.728742 0
M  V30 5463 H 502.57 1.53253 2.56039 0
M  V30 5464 C 501.319 0.011666 3.47698 0
M  V30 5465 H 500.642 0.752526 3.92654 0
M  V30 5466 H 502.082 -0.240046 4.2332 0
M  V30 5467 C 500.541 -1.23913 3.13285 0
M  V30 5468 O 501.071 -2.32959 3.27251 0
M  V30 5469 N 499.277 -1.13338 2.67587 0
M  V30 5470 H 498.824 -0.246006 2.56423 0
M  V30 5471 H 498.782 -1.97116 2.44934 0
M  V30 5472 N 502.554 -1.34406 0.822964 0
M  V30 5473 C 503.831 -1.92733 0.333641 0
M  V30 5474 C 504.211 -1.75107 -1.17901 0
M  V30 5475 O 503.559 -1.12983 -1.98613 0
M  V30 5476 C 503.769 -3.40557 0.763023 0
M  V30 5477 C 505.117 -4.17709 0.761879 0
M  V30 5478 O 506.141 -3.49141 0.705606 0
M  V30 5479 O 505 -5.40082 0.835109 0
M  V30 5480 H 502.094 -0.821964 0.0911249 0
M  V30 5481 H 504.64 -1.4338 0.907757 0
M  V30 5482 H 503.412 -3.47187 1.8049 0
M  V30 5483 H 503.035 -3.97259 0.164605 0
M  V30 5484 N 504.032 -0.577932 -1.46621 0
M  V30 5485 C 504.979 0.158048 -2.30258 0
M  V30 5486 C 505.949 0.888669 -1.40328 0
M  V30 5487 O 507.134 0.880283 -1.6928 0
M  V30 5488 C 504.274 1.16884 -3.24703 0
M  V30 5489 C 503.387 0.442163 -4.29731 0
M  V30 5490 C 502.522 1.44007 -5.11308 0
M  V30 5491 C 501.561 0.69952 -6.0809 0
M  V30 5492 N 500.698 1.64525 -6.82551 0
M  V30 5493 H 505.538 -0.561242 -2.92667 0
M  V30 5494 H 503.075 -0.288591 -1.44241 0
M  V30 5495 H 505.033 1.7677 -3.779 0
M  V30 5496 H 503.663 1.85591 -2.64113 0
M  V30 5497 H 502.715 -0.271632 -3.79429 0
M  V30 5498 H 504.027 -0.136992 -4.98612 0
M  V30 5499 H 503.181 2.11186 -5.68758 0
M  V30 5500 H 501.92 2.05315 -4.42377 0
M  V30 5501 H 500.925 0.0139217 -5.49798 0
M  V30 5502 H 502.15 0.091894 -6.79038 0
M  V30 5503 H 500.096 2.24653 -6.16334 0
M  V30 5504 H 500.013 1.11878 -7.47676 0
M  V30 5505 H 501.281 2.30754 -7.44562 0
M  V30 5506 N 505.51 1.54411 -0.315457 0
M  V30 5507 C 506.457 2.24048 0.554166 0
M  V30 5508 C 507.427 1.2283 1.11812 0
M  V30 5509 O 508.612 1.51491 1.15997 0
M  V30 5510 C 505.752 2.99574 1.71316 0
M  V30 5511 C 504.865 4.15594 1.17922 0
M  V30 5512 C 504 4.78669 2.30324 0
M  V30 5513 C 503.039 5.86807 1.74137 0
M  V30 5514 N 502.176 6.43777 2.8017 0
M  V30 5515 H 507.016 2.97964 -0.0462602 0
M  V30 5516 H 504.553 1.47059 -0.0346009 0
M  V30 5517 H 506.511 3.41604 2.39505 0
M  V30 5518 H 505.141 2.28008 2.285 0
M  V30 5519 H 504.193 3.78404 0.389136 0
M  V30 5520 H 505.505 4.93459 0.728012 0
M  V30 5521 H 504.659 5.23626 3.06433 0
M  V30 5522 H 503.398 4.00168 2.78778 0
M  V30 5523 H 502.403 5.41261 0.965236 0
M  V30 5524 H 503.628 6.67201 1.2657 0
M  V30 5525 H 501.574 5.68153 3.2793 0
M  V30 5526 H 501.491 7.17031 2.39588 0
M  V30 5527 H 502.759 6.9339 3.56132 0
M  V30 5528 N 506.988 0.0434614 1.5754 0
M  V30 5529 C 508.236 -0.630786 1.92004 0
M  V30 5530 C 508.557 -1.71836 0.921807 0
M  V30 5531 O 507.827 -1.9587 -0.034522 0
M  V30 5532 H 506.407 -0.235988 0.708745 0
M  V30 5533 H 509.069 0.0946462 1.9467 0
M  V30 5534 H 508.165 -1.07434 2.93026 0
M  V30 5535 N 508.466 -1.55915 -0.229846 0
M  V30 5536 C 509.694 -1.82617 -0.972562 0
M  V30 5537 C 510.109 -0.621488 -1.78278 0
M  V30 5538 O 509.466 0.409956 -1.77836 0
M  V30 5539 C 509.517 -3.0774 -1.89679 0
M  V30 5540 O 509.238 -4.23559 -1.11934 0
M  V30 5541 C 510.739 -3.47368 -2.75409 0
M  V30 5542 H 507.959 -0.60727 -0.285419 0
M  V30 5543 H 510.503 -2.02996 -0.247579 0
M  V30 5544 H 508.658 -2.89361 -2.57583 0
M  V30 5545 H 509.072 -4.94586 -1.74599 0
M  V30 5546 H 510.546 -4.37977 -3.35977 0
M  V30 5547 H 511.023 -2.68737 -3.47386 0
M  V30 5548 H 511.629 -3.68158 -2.12931 0
M  V30 5549 N 509.944 0.496216 -1.49584 0
M  V30 5550 C 511.19 1.25189 -1.59548 0
M  V30 5551 C 511.523 1.9212 -0.283466 0
M  V30 5552 O 510.798 1.80947 0.713324 0
M  V30 5553 C 511.081 2.31516 -2.75812 0
M  V30 5554 C 510.934 1.69054 -4.16822 0
M  V30 5555 C 512.253 3.3304 -2.87702 0
M  V30 5556 H 509.372 0.45379 -0.580727 0
M  V30 5557 H 512.014 0.549327 -1.81886 0
M  V30 5558 H 510.164 2.91438 -2.56897 0
M  V30 5559 H 511.836 1.12923 -4.47265 0
M  V30 5560 H 510.079 0.994485 -4.22247 0
M  V30 5561 H 510.75 2.462 -4.94054 0
M  V30 5562 H 513.226 2.83114 -3.04936 0
M  V30 5563 H 512.102 4.04794 -3.7072 0
M  V30 5564 H 512.363 3.95655 -1.97255 0
M  V30 5565 N 511.423 1.38739 0.74761 0
M  V30 5566 C 512.37 1.36449 1.86146 0
M  V30 5567 C 513.34 0.226098 1.64554 0
M  V30 5568 O 514.525 0.41926 1.86137 0
M  V30 5569 C 511.665 1.2013 3.23516 0
M  V30 5570 C 510.778 2.43407 3.56899 0
M  V30 5571 C 509.913 2.19773 4.83605 0
M  V30 5572 C 508.952 3.3879 5.09792 0
M  V30 5573 N 508.089 3.14553 6.27695 0
M  V30 5574 H 512.929 2.3167 1.87438 0
M  V30 5575 H 510.466 1.15094 0.916063 0
M  V30 5576 H 512.424 1.08683 4.02795 0
M  V30 5577 H 511.054 0.285453 3.21535 0
M  V30 5578 H 510.106 2.65504 2.72418 0
M  V30 5579 H 511.418 3.32094 3.72176 0
M  V30 5580 H 510.572 2.05496 5.70838 0
M  V30 5581 H 509.311 1.28461 4.70478 0
M  V30 5582 H 508.316 3.53579 4.21025 0
M  V30 5583 H 509.541 4.30986 5.24812 0
M  V30 5584 H 507.487 2.25893 6.1588 0
M  V30 5585 H 507.404 3.96791 6.435 0
M  V30 5586 H 508.672 3.03943 7.17801 0
M  V30 5587 N 512.901 -0.976442 1.23707 0
M  V30 5588 C 513.851 -2.0544 0.988851 0
M  V30 5589 C 514.835 -1.60762 -0.0665901 0
M  V30 5590 O 516.027 -1.76396 0.14604 0
M  V30 5591 C 513.156 -3.38258 0.586223 0
M  V30 5592 C 512.242 -3.89523 1.67728 0
M  V30 5593 N 512.633 -4.13823 2.90834 0
M  V30 5594 C 510.931 -4.18097 1.55277 0
M  V30 5595 C 511.632 -4.55731 3.61502 0
M  V30 5596 N 510.608 -4.60394 2.8903 0
M  V30 5597 H 514.41 -2.22191 1.92376 0
M  V30 5598 H 511.924 -1.15954 1.13704 0
M  V30 5599 H 513.921 -4.15075 0.389658 0
M  V30 5600 H 512.581 -3.22898 -0.341594 0
M  V30 5601 H 513.592 -4.01529 3.271 0
M  V30 5602 H 510.269 -4.11719 0.692351 0
M  V30 5603 H 511.659 -4.83018 4.67059 0
M  V30 5604 N 514.379 -1.04941 -1.1758 0
M  V30 5605 C 515.609 -0.777166 -1.91425 0
M  V30 5606 C 516.017 0.670647 -1.76915 0
M  V30 5607 O 515.36 1.46965 -1.10213 0
M  V30 5608 C 515.422 -1.07495 -3.43052 0
M  V30 5609 C 515.086 -2.51844 -3.81345 0
M  V30 5610 C 516.083 -3.50047 -3.844 0
M  V30 5611 C 513.768 -2.86787 -4.12382 0
M  V30 5612 C 515.762 -4.81239 -4.17957 0
M  V30 5613 C 513.449 -4.18182 -4.45608 0
M  V30 5614 C 514.447 -5.15219 -4.48373 0
M  V30 5615 O 514.135 -6.44258 -4.80819 0
M  V30 5616 H 513.867 -0.282209 -0.614275 0
M  V30 5617 H 516.421 -1.40258 -1.50056 0
M  V30 5618 H 514.651 -0.392437 -3.84704 0
M  V30 5619 H 516.34 -0.78912 -3.98155 0
M  V30 5620 H 517.106 -3.24391 -3.60548 0
M  V30 5621 H 512.985 -2.11922 -4.09402 0
M  V30 5622 H 516.529 -5.56974 -4.2003 0
M  V30 5623 H 512.426 -4.43602 -4.68922 0
M  V30 5624 H 513.194 -6.49041 -4.98686 0
M  V30 5625 N 515.857 1.33968 -0.830081 0
M  V30 5626 C 516.807 2.26845 -0.229242 0
M  V30 5627 C 517.791 1.48862 0.610659 0
M  V30 5628 O 518.983 1.70808 0.464067 0
M  V30 5629 C 516.112 3.3798 0.602057 0
M  V30 5630 C 515.198 4.23369 -0.248866 0
M  V30 5631 N 515.589 4.88182 -1.32334 0
M  V30 5632 C 513.887 4.45987 -0.0344077 0
M  V30 5633 C 514.588 5.51671 -1.84482 0
M  V30 5634 N 513.564 5.31348 -1.14762 0
M  V30 5635 H 517.366 2.74464 -1.05104 0
M  V30 5636 H 514.88 1.4777 -0.673623 0
M  V30 5637 H 516.877 4.03494 1.04873 0
M  V30 5638 H 515.537 2.9191 1.42193 0
M  V30 5639 H 516.548 4.88988 -1.70619 0
M  V30 5640 H 513.225 4.10658 0.752727 0
M  V30 5641 H 514.615 6.13308 -2.74413 0
M  V30 5642 N 517.335 0.585699 1.46312 0
M  V30 5643 C 518.581 0.0725284 2.0267 0
M  V30 5644 C 518.914 -1.28523 1.45586 0
M  V30 5645 O 518.189 -1.84283 0.622101 0
M  V30 5646 C 518.472 0.0099788 3.60099 0
M  V30 5647 C 518.325 1.39685 4.27561 0
M  V30 5648 C 519.644 -0.689117 4.34671 0
M  V30 5649 H 516.763 0.0278307 0.736474 0
M  V30 5650 H 519.405 0.753472 1.74421 0
M  V30 5651 H 517.555 -0.56992 3.84297 0
M  V30 5652 H 519.227 2.02215 4.14617 0
M  V30 5653 H 517.47 1.96374 3.86807 0
M  V30 5654 H 518.141 1.30553 5.36339 0
M  V30 5655 H 520.617 -0.196446 4.15636 0
M  V30 5656 H 519.493 -0.701921 5.44393 0
M  V30 5657 H 519.754 -1.75101 4.05946 0
M  V30 5658 N 518.813 -1.54241 0.323641 0
M  V30 5659 C 519.763 -2.21071 -0.557833 0
M  V30 5660 C 520.747 -1.19126 -1.08157 0
M  V30 5661 O 521.939 -1.44755 -1.01857 0
M  V30 5662 C 519.068 -2.97208 -1.71821 0
M  V30 5663 C 518.154 -4.06491 -1.20936 0
M  V30 5664 N 518.545 -5.04052 -0.420202 0
M  V30 5665 C 516.843 -4.20443 -1.48808 0
M  V30 5666 C 517.544 -5.81516 -0.146413 0
M  V30 5667 N 516.52 -5.38641 -0.732562 0
M  V30 5668 H 520.322 -2.93853 0.0523921 0
M  V30 5669 H 517.836 -1.61883 0.129502 0
M  V30 5670 H 519.833 -3.4357 -2.36146 0
M  V30 5671 H 518.493 -2.25947 -2.33191 0
M  V30 5672 H 519.504 -5.17862 -0.0630401 0
M  V30 5673 H 516.181 -3.60396 -2.10762 0
M  V30 5674 H 517.571 -6.70119 0.488895 0
M  V30 5675 N 520.291 -0.0518155 -1.57515 0
M  V30 5676 C 521.519 0.631395 -1.9703 0
M  V30 5677 C 521.934 1.64341 -0.92938 0
M  V30 5678 O 521.291 1.82296 0.0863266 0
M  V30 5679 C 521.342 1.31774 -3.36627 0
M  V30 5680 O 521.063 0.346247 -4.3673 0
M  V30 5681 C 522.564 2.09065 -3.90905 0
M  V30 5682 H 519.784 0.172576 -0.648428 0
M  V30 5683 H 522.328 -0.118306 -2.04158 0
M  V30 5684 H 520.483 2.01867 -3.30649 0
M  V30 5685 H 520.897 0.836226 -5.17791 0
M  V30 5686 H 522.371 2.52508 -4.9086 0
M  V30 5687 H 522.848 2.93908 -3.26366 0
M  V30 5688 H 523.454 1.43882 -4.00223 0
M  V30 5689 N 521.769 1.56035 0.221574 0
M  V30 5690 C 522.717 1.93269 1.29421 0
M  V30 5691 C 523.711 0.814727 1.48521 0
M  V30 5692 O 524.917 0.999559 1.49696 0
M  V30 5693 H 521.292 0.614188 0.43391 0
M  V30 5694 H 523.263 2.82773 0.952987 0
M  V30 5695 C 522.012 2.26573 2.63742 0
M  V30 5696 H 521.335 3.12112 2.49853 0
M  V30 5697 H 522.775 2.5651 3.37607 0
M  V30 5698 C 521.234 1.09086 3.1875 0
M  V30 5699 O 521.764 0.351985 4.00155 0
M  V30 5700 N 519.97 0.874693 2.77124 0
M  V30 5701 H 519.517 1.47726 2.11033 0
M  V30 5702 H 519.475 0.0903349 3.1427 0
M  V30 5703 N 523.247 -0.488276 1.49845 0
M  V30 5704 C 524.21 -1.57069 1.66919 0
M  V30 5705 C 525.21 -1.51445 0.540479 0
M  V30 5706 O 526.4 -1.5437 0.807188 0
M  V30 5707 C 523.532 -2.96718 1.67844 0
M  V30 5708 H 524.725 -1.43254 2.63474 0
M  V30 5709 H 522.278 -0.713435 1.39068 0
M  V30 5710 H 523.013 -3.15996 0.7292 0
M  V30 5711 H 522.798 -3.02208 2.49826 0
M  V30 5712 H 524.288 -3.75335 1.83066 0
M  V30 5713 N 524.725 -1.39134 -0.740242 0
M  V30 5714 C 525.635 -1.39697 -1.88473 0
M  V30 5715 C 526.651 -0.292403 -1.71526 0
M  V30 5716 O 527.827 -0.533021 -1.94219 0
M  V30 5717 C 524.892 -1.23382 -3.24003 0
M  V30 5718 C 523.953 -2.43763 -3.53381 0
M  V30 5719 C 523.186 -2.28216 -4.82445 0
M  V30 5720 O 523.409 -1.28288 -5.55786 0
M  V30 5721 O 522.343 -3.1709 -5.11603 0
M  V30 5722 H 526.169 -2.36159 -1.90952 0
M  V30 5723 H 523.754 -1.20194 -0.887346 0
M  V30 5724 H 525.636 -1.16395 -4.05006 0
M  V30 5725 H 524.311 -0.300121 -3.22306 0
M  V30 5726 H 523.218 -2.56325 -2.72485 0
M  V30 5727 H 524.551 -3.35808 -3.59852 0
M  V30 5728 N 526.204 0.969867 -1.24223 0
M  V30 5729 C 527.152 2.08535 -1.03034 0
M  V30 5730 C 528.146 1.69366 0.0340379 0
M  V30 5731 O 529.352 1.79597 -0.12034 0
M  V30 5732 H 525.727 0.682313 -0.316154 0
M  V30 5733 H 527.698 2.23569 -1.97635 0
M  V30 5734 C 526.447 3.4158 -0.649509 0
M  V30 5735 H 525.77 3.72177 -1.46028 0
M  V30 5736 H 527.21 4.20536 -0.540841 0
M  V30 5737 C 525.669 3.30703 0.643194 0
M  V30 5738 O 526.199 3.64443 1.68951 0
M  V30 5739 N 524.405 2.83841 0.623095 0
M  V30 5740 H 523.952 2.56583 -0.228719 0
M  V30 5741 H 523.91 2.76946 1.48823 0
M  V30 5742 N 527.682 1.05563 1.17022 0
M  V30 5743 C 528.629 0.659893 2.21165 0
M  V30 5744 C 529.599 -0.339813 1.62587 0
M  V30 5745 O 530.784 -0.230378 1.89404 0
M  V30 5746 C 527.924 0.0447297 3.45071 0
M  V30 5747 C 527.037 1.09372 4.17926 0
M  V30 5748 C 526.172 0.445481 5.29329 0
M  V30 5749 C 525.211 1.47852 5.93975 0
M  V30 5750 N 524.348 0.854172 6.96885 0
M  V30 5751 H 529.188 1.55243 2.54369 0
M  V30 5752 H 526.725 0.776336 1.24946 0
M  V30 5753 H 528.683 -0.329404 4.15898 0
M  V30 5754 H 527.313 -0.811244 3.1244 0
M  V30 5755 H 526.365 1.58564 3.45777 0
M  V30 5756 H 527.677 1.87773 4.62107 0
M  V30 5757 H 526.831 0.0179688 6.06697 0
M  V30 5758 H 525.57 -0.370481 4.86291 0
M  V30 5759 H 524.575 1.91601 5.15334 0
M  V30 5760 H 525.8 2.29645 6.39093 0
M  V30 5761 H 523.746 0.0587882 6.55974 0
M  V30 5762 H 523.663 1.57567 7.39397 0
M  V30 5763 H 524.931 0.451559 7.78191 0
M  V30 5764 N 529.16 -1.33526 0.837174 0
M  V30 5765 C 530.09 -2.31764 0.284206 0
M  V30 5766 C 531.071 -1.58896 -0.607142 0
M  V30 5767 O 532.256 -1.86798 -0.531047 0
M  V30 5768 C 529.386 -3.43029 -0.542962 0
M  V30 5769 C 528.34 -4.27255 0.252451 0
M  V30 5770 C 527.666 -5.3012 -0.69836 0
M  V30 5771 C 528.966 -5.01229 1.46858 0
M  V30 5772 H 530.66 -2.78262 1.10502 0
M  V30 5773 H 528.206 -1.3378 0.532812 0
M  V30 5774 H 530.159 -4.1078 -0.940096 0
M  V30 5775 H 528.883 -2.95216 -1.39697 0
M  V30 5776 H 527.542 -3.61127 0.631124 0
M  V30 5777 H 527.19 -4.78564 -1.54872 0
M  V30 5778 H 526.89 -5.87353 -0.170274 0
M  V30 5779 H 528.414 -6.00737 -1.09305 0
M  V30 5780 H 529.828 -5.61756 1.14469 0
M  V30 5781 H 528.225 -5.68104 1.93333 0
M  V30 5782 H 529.295 -4.301 2.23924 0
M  V30 5783 N 530.638 -0.59345 -1.46 0
M  V30 5784 C 531.868 -0.0889642 -2.06408 0
M  V30 5785 C 532.276 1.22597 -1.44106 0
M  V30 5786 O 531.619 1.75448 -0.544398 0
M  V30 5787 C 531.681 0.139902 -3.59228 0
M  V30 5788 C 531.345 -1.09107 -4.43784 0
M  V30 5789 C 532.342 -2.00577 -4.79651 0
M  V30 5790 C 530.027 -1.31593 -4.84756 0
M  V30 5791 C 532.021 -3.12873 -5.55328 0
M  V30 5792 C 529.708 -2.44192 -5.60191 0
M  V30 5793 C 530.706 -3.34661 -5.95392 0
M  V30 5794 O 530.394 -4.45302 -6.69299 0
M  V30 5795 H 530.126 -0.0594613 -0.67338 0
M  V30 5796 H 532.68 -0.817 -1.88452 0
M  V30 5797 H 530.91 0.922672 -3.75531 0
M  V30 5798 H 532.599 0.594228 -4.01527 0
M  V30 5799 H 533.365 -1.84425 -4.48567 0
M  V30 5800 H 529.244 -0.620801 -4.56801 0
M  V30 5801 H 532.788 -3.83511 -5.82722 0
M  V30 5802 H 528.685 -2.60303 -5.90688 0
M  V30 5803 H 529.453 -4.43805 -6.87735 0
M  V30 5804 N 532.116 1.54067 -0.331816 0
M  V30 5805 C 533.046 2.27569 0.522932 0
M  V30 5806 C 534.027 1.28679 1.11247 0
M  V30 5807 O 535.212 1.57504 1.13605 0
M  V30 5808 C 532.342 3.0397 1.67987 0
M  V30 5809 C 531.296 4.10267 1.21924 0
M  V30 5810 C 530.622 4.74555 2.46377 0
M  V30 5811 C 531.922 5.21268 0.32815 0
M  V30 5812 H 533.616 2.99264 -0.0901977 0
M  V30 5813 H 531.162 1.4393 -0.044821 0
M  V30 5814 H 533.115 3.54123 2.28418 0
M  V30 5815 H 531.839 2.29906 2.31971 0
M  V30 5816 H 530.498 3.61009 0.637809 0
M  V30 5817 H 530.146 3.97098 3.08743 0
M  V30 5818 H 529.846 5.46363 2.16243 0
M  V30 5819 H 531.37 5.27487 3.07555 0
M  V30 5820 H 532.784 5.67128 0.838978 0
M  V30 5821 H 531.181 5.99982 0.119228 0
M  V30 5822 H 532.251 4.80673 -0.638839 0
M  V30 5823 N 533.594 0.0601682 1.57485 0
M  V30 5824 C 534.557 -0.896373 2.10945 0
M  V30 5825 C 535.557 -1.23402 1.03095 0
M  V30 5826 O 536.747 -1.16921 1.29132 0
M  V30 5827 C 533.879 -2.20346 2.60116 0
M  V30 5828 H 535.072 -0.432778 2.96761 0
M  V30 5829 H 532.625 -0.188372 1.55161 0
M  V30 5830 H 533.36 -2.71268 1.7772 0
M  V30 5831 H 533.145 -1.9714 3.38937 0
M  V30 5832 H 534.635 -2.88846 3.01592 0
M  V30 5833 N 535.072 -1.5615 -0.213296 0
M  V30 5834 C 535.982 -1.96265 -1.28519 0
M  V30 5835 C 536.998 -0.86765 -1.50824 0
M  V30 5836 O 538.174 -1.17191 -1.63793 0
M  V30 5837 C 535.239 -2.27836 -2.61327 0
M  V30 5838 C 534.3 -3.50949 -2.47252 0
M  V30 5839 C 533.533 -3.81004 -3.73727 0
M  V30 5840 O 533.756 -3.12612 -4.77106 0
M  V30 5841 O 532.69 -4.74477 -3.70344 0
M  V30 5842 H 536.516 -2.87631 -0.974795 0
M  V30 5843 H 534.101 -1.43467 -0.416832 0
M  V30 5844 H 535.983 -2.49299 -3.39747 0
M  V30 5845 H 534.658 -1.39643 -2.9203 0
M  V30 5846 H 533.565 -3.34754 -1.67004 0
M  V30 5847 H 534.898 -4.39551 -2.21486 0
M  V30 5848 N 536.55 0.480323 -1.50102 0
M  V30 5849 C 537.498 1.60024 -1.68805 0
M  V30 5850 C 538.492 1.60089 -0.553888 0
M  V30 5851 O 539.698 1.64349 -0.734127 0
M  V30 5852 H 536.073 0.530841 -0.532646 0
M  V30 5853 H 538.044 1.41408 -2.62767 0
M  V30 5854 C 536.793 2.98029 -1.79092 0
M  V30 5855 H 536.116 2.98694 -2.65748 0
M  V30 5856 H 537.556 3.75871 -1.96206 0
M  V30 5857 C 536.015 3.32538 -0.540388 0
M  V30 5858 O 536.545 4.00386 0.324637 0
M  V30 5859 N 534.751 2.87873 -0.397154 0
M  V30 5860 H 534.298 2.32834 -1.1021 0
M  V30 5861 H 534.256 3.11328 0.438425 0
M  V30 5862 N 538.028 1.39524 0.732853 0
M  V30 5863 C 539.258 1.3994 1.51988 0
M  V30 5864 C 539.666 -0.00727973 1.89199 0
M  V30 5865 O 539.009 -0.989521 1.54771 0
M  V30 5866 C 539.071 2.21026 2.83527 0
M  V30 5867 C 538.735 3.69633 2.68738 0
M  V30 5868 C 539.732 4.62665 2.37143 0
M  V30 5869 C 537.417 4.13244 2.85542 0
M  V30 5870 C 539.411 5.97291 2.22536 0
M  V30 5871 C 537.098 5.47945 2.70554 0
M  V30 5872 C 538.096 6.39783 2.39097 0
M  V30 5873 O 537.784 7.72002 2.24204 0
M  V30 5874 H 537.516 0.479795 0.476206 0
M  V30 5875 H 540.07 1.8399 0.913054 0
M  V30 5876 H 538.3 1.71728 3.46477 0
M  V30 5877 H 539.989 2.13594 3.45156 0
M  V30 5878 H 540.755 4.30272 2.2381 0
M  V30 5879 H 536.634 3.42094 3.09019 0
M  V30 5880 H 540.178 6.68939 1.97905 0
M  V30 5881 H 536.075 5.79928 2.83466 0
M  V30 5882 H 536.843 7.8275 2.39258 0
M  V30 5883 N 539.506 -0.963266 1.24736 0
M  V30 5884 C 540.746 -1.72172 1.10165 0
M  V30 5885 C 541.11 -1.88731 -0.352784 0
M  V30 5886 O 542.311 -2.61549 -0.620107 0
M  V30 5887 C 540.582 -3.0724 1.82589 0
M  V30 5888 S 542.141 -3.98449 1.83803 0
M  V30 5889 H 538.959 -0.591901 0.393922 0
M  V30 5890 H 541.561 -1.14955 1.58132 0
M  V30 5891 H 540.265 -2.92851 2.87518 0
M  V30 5892 H 539.796 -3.69521 1.34973 0
M  V30 5893 H 541.811 -4.87805 0.908883 0
M  V30 5894 N 540.985 -1.06182 -1.16461 0
M  V30 5895 C 542.232 -0.777863 -1.86964 0
M  V30 5896 C 542.56 0.695602 -1.81636 0
M  V30 5897 O 541.815 1.52532 -1.22607 0
M  V30 5898 C 542.114 -1.21633 -3.36066 0
M  V30 5899 C 541.78 -2.69371 -3.61594 0
M  V30 5900 C 540.442 -3.09727 -3.6827 0
M  V30 5901 C 542.794 -3.64791 -3.7226 0
M  V30 5902 C 540.122 -4.44345 -3.83112 0
M  V30 5903 C 542.474 -4.99155 -3.88623 0
M  V30 5904 C 541.138 -5.39149 -3.93541 0
M  V30 5905 H 540.408 -0.28464 -0.68415 0
M  V30 5906 H 543.055 -1.33071 -1.37711 0
M  V30 5907 H 541.36 -0.582651 -3.87443 0
M  V30 5908 H 543.057 -0.973682 -3.88999 0
M  V30 5909 H 539.647 -2.37124 -3.57029 0
M  V30 5910 H 543.831 -3.34746 -3.66413 0
M  V30 5911 H 539.087 -4.74819 -3.85172 0
M  V30 5912 H 543.261 -5.72976 -3.95817 0
M  V30 5913 H 540.888 -6.43464 -4.04794 0
M  V30 5914 N 542.463 1.3308 -0.844243 0
M  V30 5915 C 543.74 1.92178 -0.364261 0
M  V30 5916 C 544.12 1.76961 1.15101 0
M  V30 5917 O 543.468 1.16128 1.9679 0
M  V30 5918 C 543.678 3.393 -0.817106 0
M  V30 5919 C 545.026 4.16444 -0.828236 0
M  V30 5920 O 546.05 3.47975 -0.761062 0
M  V30 5921 O 544.909 5.38685 -0.920926 0
M  V30 5922 H 542.003 0.820411 -0.10419 0
M  V30 5923 H 544.549 1.41918 -0.930453 0
M  V30 5924 H 543.321 3.44272 -1.85991 0
M  V30 5925 H 542.944 3.96947 -0.227785 0
M  V30 5926 N 543.941 0.601185 1.45683 0
M  V30 5927 C 545.166 0.0982245 2.07167 0
M  V30 5928 C 545.591 -1.20546 1.44396 0
M  V30 5929 O 544.949 -1.73247 0.534347 0
M  V30 5930 C 544.997 -0.0346976 3.60583 0
M  V30 5931 O 544.101 -1.08657 3.97828 0
M  V30 5932 H 543.442 0.0711618 0.660176 0
M  V30 5933 H 545.972 0.829376 1.87036 0
M  V30 5934 H 545.982 -0.234969 4.07323 0
M  V30 5935 H 544.657 0.917265 4.05659 0
M  V30 5936 H 543.234 -0.863275 3.6277 0
M  V30 5937 N 545.419 -1.53889 0.339982 0
M  V30 5938 C 546.668 -2.00035 -0.258604 0
M  V30 5939 C 546.981 -1.23179 -1.51942 0
M  V30 5940 O 548.187 -1.59784 -2.19503 0
M  V30 5941 C 546.643 -3.56249 -0.511359 0
M  V30 5942 C 546.251 -4.41957 0.733349 0
M  V30 5943 C 547.995 -4.1082 -1.069 0
M  V30 5944 C 545.902 -5.89673 0.451591 0
M  V30 5945 H 544.832 -0.747284 -0.10041 0
M  V30 5946 H 547.483 -1.77776 0.454758 0
M  V30 5947 H 545.865 -3.7456 -1.28533 0
M  V30 5948 H 547.039 -4.35421 1.50815 0
M  V30 5949 H 545.354 -3.9836 1.21237 0
M  V30 5950 H 547.951 -5.18789 -1.2947 0
M  V30 5951 H 548.294 -3.63817 -2.02343 0
M  V30 5952 H 548.827 -3.96205 -0.355817 0
M  V30 5953 H 545.566 -6.40903 1.37565 0
M  V30 5954 H 545.086 -5.99122 -0.285193 0
M  V30 5955 H 546.765 -6.46965 0.0675067 0
M  V30 5956 N 546.897 -0.0685191 -1.57451 0
M  V30 5957 C 548.308 0.464634 -1.80826 0
M  V30 5958 C 548.659 1.69847 -0.982169 0
M  V30 5959 O 547.784 2.15439 -0.203734 0
M  V30 5960 C 548.379 0.849721 -3.27971 0
M  V30 5961 C 546.938 1.32776 -3.52204 0
M  V30 5962 C 546.085 0.311332 -2.75547 0
M  V30 5963 H 549.036 -0.294248 -1.55948 0
M  V30 5964 H 549.057 1.71138 -3.39841 0
M  V30 5965 H 548.569 -0.0484736 -3.8807 0
M  V30 5966 H 546.67 2.24456 -2.97406 0
M  V30 5967 H 546.783 1.30794 -4.60901 0
M  V30 5968 H 545.147 0.787915 -2.42206 0
M  V30 5969 H 545.93 -0.579078 -3.38381 0
M  V30 5970 N 548.375 1.56261 0.205012 0
M  V30 5971 C 549.322 1.93754 1.25411 0
M  V30 5972 C 550.292 0.796826 1.45739 0
M  V30 5973 O 551.477 1.05414 1.59036 0
M  V30 5974 C 548.617 2.27383 2.59598 0
M  V30 5975 C 547.73 3.5447 2.46931 0
M  V30 5976 C 546.865 3.77468 3.73753 0
M  V30 5977 C 545.904 4.98014 3.55877 0
M  V30 5978 N 545.041 5.17316 4.74688 0
M  V30 5979 H 549.881 2.83203 0.92737 0
M  V30 5980 H 547.418 1.40158 0.446574 0
M  V30 5981 H 549.376 2.44895 3.37761 0
M  V30 5982 H 548.006 1.41088 2.90335 0
M  V30 5983 H 547.058 3.45061 1.60116 0
M  V30 5984 H 548.37 4.42789 2.29651 0
M  V30 5985 H 547.524 3.95165 4.60358 0
M  V30 5986 H 546.263 2.87461 3.93976 0
M  V30 5987 H 545.268 4.80249 2.67657 0
M  V30 5988 H 546.493 5.8952 3.37109 0
M  V30 5989 H 544.439 4.30255 4.95194 0
M  V30 5990 H 544.356 5.99796 4.60197 0
M  V30 5991 H 545.624 5.39463 5.62672 0
M  V30 5992 N 549.853 -0.472356 1.50355 0
M  V30 5993 C 550.783 -1.57859 1.72055 0
M  V30 5994 C 551.764 -1.60283 0.569505 0
M  V30 5995 O 552.949 -1.7657 0.808503 0
M  V30 5996 C 550.079 -2.96191 1.81351 0
M  V30 5997 C 549.033 -3.08633 2.96529 0
M  V30 5998 C 548.359 -4.486 2.90968 0
M  V30 5999 C 549.659 -2.85969 4.37057 0
M  V30 6000 H 551.353 -1.39953 2.64676 0
M  V30 6001 H 548.899 -0.671846 1.27367 0
M  V30 6002 H 550.852 -3.73507 1.95117 0
M  V30 6003 H 549.576 -3.15251 0.853502 0
M  V30 6004 H 548.235 -2.33749 2.82413 0
M  V30 6005 H 547.883 -4.64577 1.92815 0
M  V30 6006 H 547.583 -4.57861 3.68289 0
M  V30 6007 H 549.107 -5.27938 3.0678 0
M  V30 6008 H 550.521 -3.53036 4.51706 0
M  V30 6009 H 548.918 -3.06677 5.15819 0
M  V30 6010 H 549.988 -1.81838 4.49514 0
M  V30 6011 N 551.331 -1.39911 -0.725443 0
M  V30 6012 C 552.58 -1.36963 -1.48068 0
M  V30 6013 C 552.893 0.0284478 -1.95579 0
M  V30 6014 O 554.099 0.180535 -2.70899 0
M  V30 6015 C 552.555 -2.40664 -2.67598 0
M  V30 6016 C 552.163 -3.86234 -2.26997 0
M  V30 6017 C 553.907 -2.46807 -3.45379 0
M  V30 6018 C 551.814 -4.81554 -3.43307 0
M  V30 6019 H 550.744 -0.509223 -0.556065 0
M  V30 6020 H 553.395 -1.65602 -0.790454 0
M  V30 6021 H 551.777 -2.05109 -3.38742 0
M  V30 6022 H 552.951 -4.3088 -1.63337 0
M  V30 6023 H 551.266 -3.83475 -1.62284 0
M  V30 6024 H 553.863 -3.15213 -4.31909 0
M  V30 6025 H 554.206 -1.49552 -3.8851 0
M  V30 6026 H 554.739 -2.81303 -2.81271 0
M  V30 6027 H 551.478 -5.80106 -3.05217 0
M  V30 6028 H 550.998 -4.4158 -4.05915 0
M  V30 6029 H 552.677 -5.0091 -4.0951 0
M  V30 6030 N 552.809 0.956637 -1.25245 0
M  V30 6031 C 553.759 2.03841 -1.02141 0
M  V30 6032 C 554.743 1.60848 0.0410058 0
M  V30 6033 O 555.935 1.76142 -0.174084 0
M  V30 6034 C 553.064 3.37282 -0.639963 0
M  V30 6035 C 552.15 3.86805 -1.73903 0
M  V30 6036 N 552.541 4.09143 -2.97381 0
M  V30 6037 C 550.839 4.15574 -1.61909 0
M  V30 6038 C 551.54 4.49923 -3.68707 0
M  V30 6039 N 550.516 4.55737 -2.96318 0
M  V30 6040 H 554.318 2.19102 -1.95886 0
M  V30 6041 H 551.832 1.1413 -1.15534 0
M  V30 6042 H 553.829 4.14403 -0.455643 0
M  V30 6043 H 552.489 3.23401 0.29018 0
M  V30 6044 H 553.5 3.96275 -3.33447 0
M  V30 6045 H 550.177 4.10566 -0.757764 0
M  V30 6046 H 551.567 4.75526 -4.74684 0
M  V30 6047 N 554.287 1.06798 1.15896 0
M  V30 6048 C 555.517 0.807522 1.90165 0
M  V30 6049 C 555.925 -0.642417 1.7796 0
M  V30 6050 O 555.268 -1.45193 1.12537 0
M  V30 6051 C 555.33 1.12939 3.41299 0
M  V30 6052 C 554.994 2.57879 3.7729 0
M  V30 6053 C 555.991 3.56118 3.78782 0
M  V30 6054 C 553.676 2.93311 4.07767 0
M  V30 6055 C 555.67 4.87827 4.10248 0
M  V30 6056 C 553.357 4.25219 4.38899 0
M  V30 6057 C 554.355 5.22287 4.4012 0
M  V30 6058 O 554.043 6.51826 4.70508 0
M  V30 6059 H 553.775 0.291946 0.609708 0
M  V30 6060 H 556.329 1.42627 1.47806 0
M  V30 6061 H 554.559 0.45359 3.84031 0
M  V30 6062 H 556.248 0.852363 3.9685 0
M  V30 6063 H 557.014 3.30086 3.55342 0
M  V30 6064 H 552.893 2.18409 4.05979 0
M  V30 6065 H 556.437 5.63586 4.11116 0
M  V30 6066 H 552.334 4.51006 4.61805 0
M  V30 6067 H 553.102 6.56893 4.88298 0
M  V30 6068 N 555.766 -1.3263 0.851289 0
M  V30 6069 C 556.716 -2.26451 0.265302 0
M  V30 6070 C 557.7 -1.49814 -0.586899 0
M  V30 6071 O 558.892 -1.71525 -0.436834 0
M  V30 6072 C 556.021 -3.38895 -0.548212 0
M  V30 6073 C 555.107 -4.2292 0.316189 0
M  V30 6074 N 555.498 -4.86014 1.40084 0
M  V30 6075 C 553.796 -4.45876 0.105356 0
M  V30 6076 C 554.497 -5.48667 1.93235 0
M  V30 6077 N 553.473 -5.29455 1.232 0
M  V30 6078 H 557.275 -2.72757 1.09457 0
M  V30 6079 H 554.789 -1.4668 0.697047 0
M  V30 6080 H 556.786 -4.05111 -0.984402 0
M  V30 6081 H 555.446 -2.94135 -1.37531 0
M  V30 6082 H 556.457 -4.86212 1.78377 0
M  V30 6083 H 553.134 -4.11804 -0.687299 0
M  V30 6084 H 554.524 -6.08865 2.84135 0
M  V30 6085 N 557.244 -0.608902 -1.45362 0
M  V30 6086 C 558.176 0.147318 -2.28726 0
M  V30 6087 C 559.189 0.830468 -1.40025 0
M  V30 6088 O 560.378 0.695636 -1.64387 0
M  V30 6089 C 557.478 1.22968 -3.15804 0
M  V30 6090 C 556.651 0.633391 -4.3279 0
M  V30 6091 C 555.71 1.60682 -5.01067 0
M  V30 6092 O 554.736 1.13261 -5.57818 0
M  V30 6093 N 555.938 2.94123 -5.00472 0
M  V30 6094 H 558.703 -0.568014 -2.94268 0
M  V30 6095 H 556.264 -0.448479 -1.55564 0
M  V30 6096 H 558.256 1.88072 -3.58345 0
M  V30 6097 H 556.826 1.84752 -2.52162 0
M  V30 6098 H 556.046 -0.195762 -3.93714 0
M  V30 6099 H 557.334 0.215255 -5.08344 0
M  V30 6100 H 556.732 3.3525 -4.55657 0
M  V30 6101 H 555.289 3.54646 -5.46872 0
M  V30 6102 N 558.722 1.53707 -0.348139 0
M  V30 6103 C 559.672 2.2193 0.522592 0
M  V30 6104 C 560.656 1.20831 1.06248 0
M  V30 6105 O 561.848 1.46357 0.995415 0
M  V30 6106 C 558.977 2.99904 1.6707 0
M  V30 6107 C 558.063 4.08364 1.14454 0
M  V30 6108 N 558.454 5.04656 0.339958 0
M  V30 6109 C 556.752 4.22757 1.421 0
M  V30 6110 C 557.453 5.81675 0.0538806 0
M  V30 6111 N 556.429 5.39739 0.646776 0
M  V30 6112 H 560.231 2.93733 -0.099135 0
M  V30 6113 H 557.745 1.61656 -0.15524 0
M  V30 6114 H 559.742 3.47284 2.30651 0
M  V30 6115 H 558.402 2.29629 2.29566 0
M  V30 6116 H 559.413 5.17896 -0.0193552 0
M  V30 6117 H 556.09 3.63704 2.05002 0
M  V30 6118 H 557.48 6.69256 -0.595443 0
M  V30 6119 N 560.2 0.0768682 1.57412 0
M  V30 6120 C 561.148 -0.906229 2.1422 0
M  V30 6121 C 562.142 -1.30477 1.08037 0
M  V30 6122 O 563.348 -1.28143 1.2641 0
M  V30 6123 H 559.723 -0.310207 0.685037 0
M  V30 6124 H 561.694 -0.402228 2.95677 0
M  V30 6125 C 560.443 -2.16245 2.72274 0
M  V30 6126 H 559.766 -1.86463 3.53655 0
M  V30 6127 H 561.206 -2.83134 3.15613 0
M  V30 6128 C 559.665 -2.92437 1.67279 0
M  V30 6129 O 560.195 -3.86322 1.10081 0
M  V30 6130 N 558.401 -2.55637 1.38195 0
M  V30 6131 H 557.948 -1.79363 1.84897 0
M  V30 6132 H 557.906 -3.06919 0.681787 0
M  V30 6133 N 561.678 -1.56367 -0.196722 0
M  V30 6134 C 562.903 -1.84991 -0.937714 0
M  V30 6135 C 563.328 -0.660244 -1.76132 0
M  V30 6136 O 562.686 0.390967 -1.77034 0
M  V30 6137 C 562.734 -3.11828 -1.81096 0
M  V30 6138 O 561.838 -2.92266 -2.90955 0
M  V30 6139 H 561.179 -0.609193 -0.264159 0
M  V30 6140 H 563.709 -2.03595 -0.202529 0
M  V30 6141 H 563.719 -3.42579 -2.21594 0
M  V30 6142 H 562.394 -3.98037 -1.2058 0
M  V30 6143 H 560.971 -2.72809 -2.54224 0
M  V30 6144 N 563.156 0.464375 -1.50603 0
M  V30 6145 C 564.119 1.54393 -1.69397 0
M  V30 6146 C 565.119 1.50566 -0.564504 0
M  V30 6147 O 566.309 1.53066 -0.831645 0
M  V30 6148 C 563.441 2.9401 -1.72543 0
M  V30 6149 H 564.634 1.39044 -2.65719 0
M  V30 6150 H 562.187 0.69122 -1.40185 0
M  V30 6151 H 562.922 3.14795 -0.77938 0
M  V30 6152 H 562.707 2.98195 -2.54602 0
M  V30 6153 H 564.197 3.72375 -1.89015 0
M  V30 6154 N 564.634 1.40294 0.718013 0
M  V30 6155 C 565.882 1.38167 1.47494 0
M  V30 6156 C 566.203 -0.01607 1.94993 0
M  V30 6157 O 565.473 -0.970396 1.70177 0
M  V30 6158 H 564.053 0.508505 0.547203 0
M  V30 6159 H 566.715 1.75324 0.851322 0
M  V30 6160 H 565.811 2.05503 2.34894 0
M  V30 6161 N 566.112 -0.949982 1.2575 0
M  V30 6162 C 567.045 -2.047 1.00862 0
M  V30 6163 C 568.023 -1.62475 -0.0636982 0
M  V30 6164 O 569.207 -1.88343 0.0769153 0
M  V30 6165 C 566.334 -3.34597 0.525613 0
M  V30 6166 C 565.38 -3.95788 1.58916 0
M  V30 6167 S 566.213 -4.31175 3.17567 0
M  V30 6168 C 567.369 -5.64183 2.71013 0
M  V30 6169 H 567.602 -2.25497 1.93749 0
M  V30 6170 H 565.135 -1.09022 1.09332 0
M  V30 6171 H 567.093 -4.09716 0.25359 0
M  V30 6172 H 565.754 -3.11758 -0.382828 0
M  V30 6173 H 564.947 -4.89457 1.20201 0
M  V30 6174 H 564.549 -3.27168 1.81211 0
M  V30 6175 H 566.841 -6.42504 2.14928 0
M  V30 6176 H 567.784 -6.07774 3.6334 0
M  V30 6177 H 568.192 -5.2364 2.1086 0
M  V30 6178 N 567.59 -1.07411 -1.15328 0
M  V30 6179 C 568.839 -0.792643 -1.85473 0
M  V30 6180 C 569.152 0.683789 -1.83259 0
M  V30 6181 O 570.358 1.08005 -2.49093 0
M  V30 6182 C 568.814 -1.36787 -3.32892 0
M  V30 6183 C 568.422 -2.87536 -3.43551 0
M  V30 6184 C 570.166 -1.16444 -4.08217 0
M  V30 6185 C 568.073 -3.38247 -4.85122 0
M  V30 6186 H 567.003 -0.292838 -0.694811 0
M  V30 6187 H 569.654 -1.29426 -1.30082 0
M  V30 6188 H 568.036 -0.793993 -3.87958 0
M  V30 6189 H 569.21 -3.50973 -2.98588 0
M  V30 6190 H 567.525 -3.06676 -2.81672 0
M  V30 6191 H 570.122 -1.51808 -5.12697 0
M  V30 6192 H 570.465 -0.10353 -4.16171 0
M  V30 6193 H 570.998 -1.70472 -3.59422 0
M  V30 6194 H 567.737 -4.43866 -4.82351 0
M  V30 6195 H 567.257 -2.79564 -5.30664 0
M  V30 6196 H 568.936 -3.34238 -5.5398 0
M  V30 6197 N 569.068 1.32177 -0.85831 0
M  V30 6198 C 570.296 2.01313 -0.477582 0
M  V30 6199 C 570.711 1.6449 0.926736 0
M  V30 6200 O 570.068 0.868096 1.60531 0
M  V30 6201 C 570.119 3.56293 -0.611337 0
M  V30 6202 O 569.84 3.91794 -1.96034 0
M  V30 6203 C 571.341 4.42702 -0.230093 0
M  V30 6204 H 568.561 0.644323 -0.187322 0
M  V30 6205 H 571.105 1.68674 -1.15626 0
M  V30 6206 H 569.26 3.87395 0.0196494 0
M  V30 6207 H 569.674 4.86513 -1.95973 0
M  V30 6208 H 571.148 5.50727 -0.374674 0
M  V30 6209 H 571.625 4.3129 0.829779 0
M  V30 6210 H 572.231 4.16997 -0.836302 0
M  V30 6211 N 570.547 0.616602 1.45037 0
M  V30 6212 C 571.963 0.280994 1.57107 0
M  V30 6213 C 572.163 -1.21627 1.60653 0
M  V30 6214 O 571.219 -1.9997 1.54169 0
M  V30 6215 C 572.532 0.960116 2.8496 0
M  V30 6216 C 574.08 0.936884 2.98649 0
M  V30 6217 C 574.555 1.59619 4.29285 0
M  V30 6218 N 576.046 1.5621 4.36065 0
M  V30 6219 C 576.781 2.04131 5.35834 0
M  V30 6220 N 576.277 2.60177 6.4209 0
M  V30 6221 N 578.07 1.94845 5.27249 0
M  V30 6222 H 570.221 1.58867 1.40979 0
M  V30 6223 H 572.484 0.666024 0.674623 0
M  V30 6224 H 572.19 2.01473 2.88273 0
M  V30 6225 H 572.064 0.488921 3.74018 0
M  V30 6226 H 574.451 -0.109209 2.94898 0
M  V30 6227 H 574.532 1.44643 2.10979 0
M  V30 6228 H 574.176 2.64166 4.33796 0
M  V30 6229 H 574.106 1.06159 5.15789 0
M  V30 6230 H 576.597 1.15276 3.59889 0
M  V30 6231 H 576.91 2.94513 7.1448 0
M  V30 6232 H 575.255 2.64221 6.42816 0
M  V30 6233 H 578.446 1.50792 4.43147 0
M  V30 6234 H 578.619 2.32504 6.04852 0
M  V30 6235 N 572.025 -1.5352 0.356285 0
M  V30 6236 C 572.955 -2.28372 -0.486661 0
M  V30 6237 C 573.936 -1.30432 -1.09185 0
M  V30 6238 O 575.121 -1.59291 -1.11085 0
M  V30 6239 C 572.251 -3.06604 -1.63129 0
M  V30 6240 C 571.205 -4.12154 -1.15381 0
M  V30 6241 C 570.531 -4.78415 -2.38796 0
M  V30 6242 C 571.831 -5.21724 -0.245179 0
M  V30 6243 H 573.525 -2.99083 0.137797 0
M  V30 6244 H 571.071 -1.43841 0.0677134 0
M  V30 6245 H 573.024 -3.57712 -2.22755 0
M  V30 6246 H 571.748 -2.33568 -2.28284 0
M  V30 6247 H 570.407 -3.61978 -0.580294 0
M  V30 6248 H 570.055 -4.01959 -3.02387 0
M  V30 6249 H 569.755 -5.49734 -2.07524 0
M  V30 6250 H 571.279 -5.32313 -2.99125 0
M  V30 6251 H 572.693 -5.68391 -0.748646 0
M  V30 6252 H 571.09 -6.00095 -0.0237608 0
M  V30 6253 H 572.16 -4.79596 0.715229 0
M  V30 6254 N 573.503 -0.0852151 -1.57369 0
M  V30 6255 C 574.919 0.271436 -1.57275 0
M  V30 6256 C 575.119 1.69109 -1.09565 0
M  V30 6257 O 574.175 2.40549 -0.767611 0
M  V30 6258 C 575.488 0.0688638 -3.00621 0
M  V30 6259 C 577.036 0.137373 -3.12698 0
M  V30 6260 C 577.511 -0.0370832 -4.57985 0
M  V30 6261 N 579.002 0.0180794 -4.63196 0
M  V30 6262 C 579.737 -0.0922953 -5.73326 0
M  V30 6263 N 579.233 -0.256948 -6.92323 0
M  V30 6264 N 581.026 -0.0342702 -5.6209 0
M  V30 6265 H 573.177 -1.01288 -1.86693 0
M  V30 6266 H 575.44 -0.396138 -0.861266 0
M  V30 6267 H 575.146 -0.911277 -3.39689 0
M  V30 6268 H 575.02 0.815442 -3.6828 0
M  V30 6269 H 577.407 1.10801 -2.73509 0
M  V30 6270 H 577.488 -0.640532 -2.47651 0
M  V30 6271 H 577.132 -1.00455 -4.97867 0
M  V30 6272 H 577.062 0.760392 -5.21081 0
M  V30 6273 H 579.553 0.143202 -3.77629 0
M  V30 6274 H 579.866 -0.332949 -7.72082 0
M  V30 6275 H 578.211 -0.292487 -6.94384 0
M  V30 6276 H 581.402 0.0931605 -4.68007 0
M  V30 6277 H 581.575 -0.12374 -6.47882 0
M  V30 6278 N 574.981 1.5647 0.188427 0
M  V30 6279 C 575.931 1.91479 1.23774 0
M  V30 6280 C 576.915 0.78119 1.40664 0
M  V30 6281 O 578.107 1.04414 1.42922 0
M  V30 6282 C 575.236 2.26354 2.58106 0
M  V30 6283 C 574.322 3.46186 2.44981 0
M  V30 6284 N 574.713 4.63911 2.01546 0
M  V30 6285 C 573.011 3.50456 2.75856 0
M  V30 6286 C 573.712 5.46064 2.00472 0
M  V30 6287 N 572.688 4.86648 2.42229 0
M  V30 6288 H 576.49 2.79994 0.893339 0
M  V30 6289 H 574.004 1.57477 0.39682 0
M  V30 6290 H 576.001 2.49622 3.33908 0
M  V30 6291 H 574.661 1.39168 2.93364 0
M  V30 6292 H 575.672 4.88451 1.7215 0
M  V30 6293 H 572.349 2.73704 3.15265 0
M  V30 6294 H 573.739 6.50368 1.68734 0
M  V30 6295 N 576.459 -0.456382 1.50847 0
M  V30 6296 C 577.87 -1.03685 1.55262 0
M  V30 6297 C 578.221 -1.92779 0.364771 0
M  V30 6298 O 577.346 -2.10043 -0.52068 0
M  V30 6299 C 577.941 -1.88718 2.81374 0
M  V30 6300 C 576.5 -2.41847 2.88422 0
M  V30 6301 C 575.647 -1.20564 2.49719 0
M  V30 6302 H 578.598 -0.238399 1.56899 0
M  V30 6303 H 578.619 -2.73957 2.6406 0
M  V30 6304 H 578.131 -1.23847 3.67809 0
M  V30 6305 H 576.232 -3.10228 2.06372 0
M  V30 6306 H 576.345 -2.75947 3.9165 0
M  V30 6307 H 574.709 -1.54504 2.02486 0
M  V30 6308 H 575.492 -0.573326 3.38479 0
M  V30 6309 N 577.937 -1.40673 -0.710563 0
M  V30 6310 C 579.183 -1.39428 -1.47267 0
M  V30 6311 C 579.516 0.00182129 -1.942 0
M  V30 6312 O 578.791 0.971387 -1.68506 0
M  V30 6313 C 579.074 -2.38812 -2.6952 0
M  V30 6314 C 578.927 -3.87467 -2.28449 0
M  V30 6315 C 580.246 -2.3566 -3.71689 0
M  V30 6316 H 577.365 -0.507768 -0.534173 0
M  V30 6317 H 580.007 -1.71843 -0.810547 0
M  V30 6318 H 578.157 -2.113 -3.26013 0
M  V30 6319 H 579.829 -4.25825 -1.77399 0
M  V30 6320 H 578.072 -4.03058 -1.60395 0
M  V30 6321 H 578.743 -4.5253 -3.16103 0
M  V30 6322 H 581.219 -2.6004 -3.24836 0
M  V30 6323 H 580.095 -3.07237 -4.54859 0
M  V30 6324 H 580.356 -1.36996 -4.20339 0
M  V30 6325 N 579.415 0.9433 -1.26252 0
M  V30 6326 C 580.64 1.72898 -1.14547 0
M  V30 6327 C 581.065 1.85761 0.295743 0
M  V30 6328 O 580.423 1.3463 1.21427 0
M  V30 6329 C 580.471 3.11471 -1.8171 0
M  V30 6330 O 579.575 3.97336 -1.10445 0
M  V30 6331 H 578.916 0.530555 -0.399259 0
M  V30 6332 H 581.446 1.18159 -1.67032 0
M  V30 6333 H 581.456 3.61872 -1.88449 0
M  V30 6334 H 580.131 3.01425 -2.86558 0
M  V30 6335 H 578.708 3.55788 -1.11666 0
M  V30 6336 N 580.893 1.08022 1.14757 0
M  V30 6337 C 582.121 0.828847 1.89572 0
M  V30 6338 C 582.536 -0.618621 1.78377 0
M  V30 6339 O 581.893 -1.42482 1.1404 0
M  V30 6340 C 581.944 1.23677 3.39685 0
M  V30 6341 O 581.665 2.62746 3.50566 0
M  V30 6342 C 583.166 1.01569 4.31507 0
M  V30 6343 H 580.386 0.299196 0.600602 0
M  V30 6344 H 582.93 1.43846 1.45357 0
M  V30 6345 H 581.085 0.671347 3.81539 0
M  V30 6346 H 581.499 2.79573 4.43778 0
M  V30 6347 H 582.973 1.35055 5.35223 0
M  V30 6348 H 583.45 -0.0475433 4.39174 0
M  V30 6349 H 584.056 1.56636 3.95405 0
M  V30 6350 N 582.371 -1.3172 0.865308 0
M  V30 6351 C 583.318 -2.2863 0.315736 0
M  V30 6352 C 584.288 -1.55524 -0.583213 0
M  V30 6353 O 585.473 -1.83694 -0.51585 0
M  V30 6354 C 582.613 -3.41735 -0.480773 0
M  V30 6355 C 581.726 -4.297 0.445167 0
M  V30 6356 C 580.861 -5.29944 -0.365012 0
M  V30 6357 C 579.9 -6.09554 0.557651 0
M  V30 6358 N 579.037 -7.01768 -0.215994 0
M  V30 6359 H 583.877 -2.75026 1.14736 0
M  V30 6360 H 581.414 -1.35302 0.577209 0
M  V30 6361 H 583.372 -4.06045 -0.958306 0
M  V30 6362 H 582.002 -2.96461 -1.27714 0
M  V30 6363 H 581.054 -3.65875 1.04113 0
M  V30 6364 H 582.366 -4.85295 1.15284 0
M  V30 6365 H 581.52 -5.99908 -0.905255 0
M  V30 6366 H 580.259 -4.74994 -1.106 0
M  V30 6367 H 579.264 -5.38485 1.10969 0
M  V30 6368 H 580.489 -6.66591 1.29742 0
M  V30 6369 H 578.435 -6.49232 -0.939878 0
M  V30 6370 H 578.352 -7.54762 0.432431 0
M  V30 6371 H 579.62 -7.76002 -0.737618 0
M  V30 6372 N 583.85 -0.624285 -1.44708 0
M  V30 6373 C 584.812 0.0749638 -2.29077 0
M  V30 6374 C 585.812 0.778965 -1.40673 0
M  V30 6375 O 587.003 0.624591 -1.62618 0
M  V30 6376 C 584.135 1.11663 -3.22094 0
M  V30 6377 H 585.327 -0.667013 -2.92388 0
M  V30 6378 H 582.88 -0.384098 -1.51507 0
M  V30 6379 H 583.615 1.88881 -2.63618 0
M  V30 6380 H 583.401 0.61583 -3.87234 0
M  V30 6381 H 584.891 1.60585 -3.8549 0
M  V30 6382 N 585.328 1.53329 -0.364422 0
M  V30 6383 C 586.276 2.27212 0.497737 0
M  V30 6384 C 587.27 1.30146 1.08437 0
M  V30 6385 O 588.476 1.47778 1.0277 0
M  V30 6386 H 584.851 0.730329 0.179232 0
M  V30 6387 H 586.822 2.98037 -0.147182 0
M  V30 6388 C 585.571 3.07333 1.6261 0
M  V30 6389 H 584.894 3.81866 1.184 0
M  V30 6390 H 586.334 3.62209 2.20409 0
M  V30 6391 C 584.793 2.18102 2.56775 0
M  V30 6392 O 585.323 1.79104 3.59562 0
M  V30 6393 N 583.529 1.82759 2.25937 0
M  V30 6394 H 583.076 2.14671 1.42387 0
M  V30 6395 H 583.034 1.23342 2.89196 0
M  V30 6396 N 586.806 0.0935595 1.57322 0
M  V30 6397 C 587.753 -0.865935 2.1394 0
M  V30 6398 C 588.723 -1.28083 1.05754 0
M  V30 6399 O 589.908 -1.36285 1.33533 0
M  V30 6400 C 587.048 -2.12023 2.72287 0
M  V30 6401 C 586.161 -1.756 3.94701 0
M  V30 6402 C 585.296 -2.95804 4.41218 0
M  V30 6403 C 584.335 -2.555 5.56225 0
M  V30 6404 N 583.472 -3.68534 5.97601 0
M  V30 6405 H 588.312 -0.376261 2.95615 0
M  V30 6406 H 585.849 -0.174052 1.46067 0
M  V30 6407 H 587.807 -2.85477 3.04235 0
M  V30 6408 H 586.437 -2.58492 1.93343 0
M  V30 6409 H 585.489 -0.921208 3.69077 0
M  V30 6410 H 586.801 -1.41964 4.78171 0
M  V30 6411 H 585.955 -3.77513 4.74941 0
M  V30 6412 H 584.694 -3.32649 3.56645 0
M  V30 6413 H 583.699 -1.72218 5.22131 0
M  V30 6414 H 584.924 -2.19801 6.42545 0
M  V30 6415 H 582.87 -4.051 5.15974 0
M  V30 6416 H 582.787 -3.38737 6.75865 0
M  V30 6417 H 584.055 -4.50757 6.35955 0
M  V30 6418 N 588.284 -1.56567 -0.180126 0
M  V30 6419 C 589.53 -1.81761 -0.899497 0
M  V30 6420 C 589.863 -0.670015 -1.82276 0
M  V30 6421 O 589.138 0.328575 -1.91705 0
M  V30 6422 C 589.421 -3.17296 -1.7028 0
M  V30 6423 C 589.274 -4.4257 -0.803255 0
M  V30 6424 C 590.593 -3.49678 -2.67233 0
M  V30 6425 H 587.712 -0.661192 -0.325567 0
M  V30 6426 H 590.354 -1.89272 -0.16612 0
M  V30 6427 H 588.504 -3.11023 -2.32802 0
M  V30 6428 H 590.176 -4.60902 -0.191585 0
M  V30 6429 H 588.419 -4.33658 -0.110796 0
M  V30 6430 H 589.09 -5.33935 -1.40064 0
M  V30 6431 H 591.566 -3.56347 -2.14839 0
M  V30 6432 H 590.442 -4.45605 -3.20511 0
M  V30 6433 H 590.703 -2.73932 -3.47007 0
M  V30 6434 N 589.762 0.448376 -1.51087 0
M  V30 6435 C 591.173 1.0286 -1.5581 0
M  V30 6436 C 591.524 1.92583 -0.374989 0
M  V30 6437 O 590.649 2.10316 0.509533 0
M  V30 6438 C 591.244 1.87223 -2.8237 0
M  V30 6439 C 589.803 2.40314 -2.897 0
M  V30 6440 C 588.95 1.19238 -2.50355 0
M  V30 6441 H 591.901 0.230075 -1.57023 0
M  V30 6442 H 591.922 2.72553 -2.6551 0
M  V30 6443 H 591.434 1.21894 -3.68461 0
M  V30 6444 H 589.535 3.09129 -2.08014 0
M  V30 6445 H 589.648 2.73866 -3.93108 0
M  V30 6446 H 588.012 1.53428 -2.03303 0
M  V30 6447 H 588.795 0.555367 -3.38778 0
M  V30 6448 N 591.24 1.41047 0.703093 0
M  V30 6449 C 592.517 1.30493 1.45708 0
M  V30 6450 C 592.897 -0.0709892 2.10981 0
M  V30 6451 O 592.245 -1.08471 2.01113 0
M  V30 6452 C 592.455 2.45287 2.48265 0
M  V30 6453 C 593.803 2.86104 3.13735 0
M  V30 6454 O 594.827 2.44971 2.58587 0
M  V30 6455 O 593.686 3.57206 4.13601 0
M  V30 6456 H 590.78 0.513144 0.648546 0
M  V30 6457 H 593.326 1.52995 0.734208 0
M  V30 6458 H 592.098 3.37135 1.98635 0
M  V30 6459 H 591.721 2.24622 3.28071 0
M  V30 6460 N 592.718 -0.936591 1.26751 0
M  V30 6461 C 593.943 -1.72288 1.15462 0
M  V30 6462 C 594.368 -1.85915 -0.285887 0
M  V30 6463 O 593.726 -1.35272 -1.20711 0
M  V30 6464 C 593.774 -3.10503 1.83359 0
M  V30 6465 O 592.878 -3.96745 1.1255 0
M  V30 6466 H 592.219 -0.52843 0.402067 0
M  V30 6467 H 594.749 -1.17271 1.67656 0
M  V30 6468 H 594.759 -3.60867 1.90365 0
M  V30 6469 H 593.434 -2.99901 2.88153 0
M  V30 6470 H 592.011 -3.55191 1.13551 0
M  V30 6471 N 594.196 -1.08629 -1.14182 0
M  V30 6472 C 595.442 -0.818556 -1.85546 0
M  V30 6473 C 595.775 0.654076 -1.82854 0
M  V30 6474 O 595.05 1.48099 -1.26083 0
M  V30 6475 C 595.333 -1.34397 -3.3408 0
M  V30 6476 C 595.186 -2.8821 -3.45333 0
M  V30 6477 C 596.505 -0.971069 -4.29253 0
M  V30 6478 H 593.624 -0.298821 -0.673702 0
M  V30 6479 H 596.266 -1.34629 -1.34071 0
M  V30 6480 H 594.416 -0.895064 -3.78049 0
M  V30 6481 H 596.088 -3.41488 -3.10134 0
M  V30 6482 H 594.331 -3.25756 -2.86471 0
M  V30 6483 H 595.002 -3.20047 -4.49749 0
M  V30 6484 H 597.478 -1.35809 -3.93313 0
M  V30 6485 H 596.354 -1.36586 -5.31635 0
M  V30 6486 H 596.615 0.121659 -4.41933 0
M  V30 6487 N 595.674 1.31259 -0.872281 0
M  V30 6488 C 596.899 2.0133 -0.498099 0
M  V30 6489 C 597.324 1.65031 0.902568 0
M  V30 6490 O 596.682 0.860164 1.59596 0
M  V30 6491 C 596.73 3.54411 -0.665205 0
M  V30 6492 O 595.834 4.11347 0.294473 0
M  V30 6493 H 595.175 0.633844 -0.197832 0
M  V30 6494 H 597.705 1.67402 -1.17633 0
M  V30 6495 H 597.715 4.04147 -0.559373 0
M  V30 6496 H 596.39 3.80171 -1.68651 0
M  V30 6497 H 594.967 3.72624 0.143403 0
M  V30 6498 N 597.152 0.631951 1.44375 0
M  V30 6499 C 598.082 -0.0593243 2.33425 0
M  V30 6500 C 599.063 -0.833964 1.48253 0
M  V30 6501 O 600.248 -0.799682 1.76971 0
M  V30 6502 C 597.378 -1.04096 3.31333 0
M  V30 6503 C 596.332 -0.377899 4.26328 0
M  V30 6504 C 595.658 -1.4695 5.14111 0
M  V30 6505 C 596.958 0.716371 5.17364 0
M  V30 6506 H 598.652 0.684287 2.91475 0
M  V30 6507 H 596.198 0.330518 1.40156 0
M  V30 6508 H 598.151 -1.53331 3.92514 0
M  V30 6509 H 596.875 -1.81547 2.71493 0
M  V30 6510 H 595.534 0.0938054 3.6648 0
M  V30 6511 H 595.182 -2.2349 4.50623 0
M  V30 6512 H 594.882 -1.03121 5.78481 0
M  V30 6513 H 596.406 -1.96363 5.78164 0
M  V30 6514 H 597.82 0.307089 5.72477 0
M  V30 6515 H 596.217 1.07784 5.90341 0
M  V30 6516 H 597.287 1.58316 4.58327 0
M  V30 6517 N 598.631 -1.53133 0.372548 0
M  V30 6518 C 599.879 -2.00958 -0.214534 0
M  V30 6519 C 600.2 -1.26135 -1.48711 0
M  V30 6520 O 599.47 -0.376597 -1.92246 0
M  V30 6521 H 598.05 -0.742456 -0.0822664 0
M  V30 6522 H 600.712 -1.88367 0.500385 0
M  V30 6523 H 599.808 -3.09031 -0.436605 0
M  V30 6524 N 600.109 -0.101901 -1.5727 0
M  V30 6525 C 601.057 0.872034 -2.15635 0
M  V30 6526 C 602.051 1.28742 -1.10099 0
M  V30 6527 O 603.257 1.26116 -1.28432 0
M  V30 6528 H 599.632 0.299269 -0.689886 0
M  V30 6529 H 601.603 0.355137 -2.96279 0
M  V30 6530 C 600.352 2.11886 -2.7568 0
M  V30 6531 H 599.675 1.80813 -3.56576 0
M  V30 6532 H 601.115 2.78077 -3.20077 0
M  V30 6533 C 599.574 2.89739 -1.7191 0
M  V30 6534 O 600.104 3.84522 -1.16213 0
M  V30 6535 N 598.31 2.53407 -1.42245 0
M  V30 6536 H 597.857 1.76398 -1.87727 0
M  V30 6537 H 597.815 3.05795 -0.730529 0
M  V30 6538 N 601.587 1.56661 0.17182 0
M  V30 6539 C 602.835 1.81606 0.886774 0
M  V30 6540 C 603.156 0.678818 1.82803 0
M  V30 6541 O 602.426 -0.301354 1.93568 0
M  V30 6542 H 601.006 0.669934 0.330451 0
M  V30 6543 H 603.668 1.94142 0.171757 0
M  V30 6544 H 602.764 2.75634 1.46398 0
M  V30 6545 N 603.065 -0.440357 1.51323 0
M  V30 6546 C 604.314 -1.18697 1.63076 0
M  V30 6547 C 604.627 -1.92418 0.35136 0
M  V30 6548 O 605.833 -2.69258 0.348221 0
M  V30 6549 C 604.289 -2.15849 2.87988 0
M  V30 6550 C 603.897 -1.47789 4.22921 0
M  V30 6551 C 605.641 -2.90962 3.09098 0
M  V30 6552 C 603.548 -2.43407 5.38987 0
M  V30 6553 H 602.478 -0.44676 0.607389 0
M  V30 6554 H 605.129 -0.454313 1.77787 0
M  V30 6555 H 603.511 -2.92537 2.66905 0
M  V30 6556 H 604.685 -0.7668 4.54375 0
M  V30 6557 H 603 -0.848404 4.07665 0
M  V30 6558 H 605.597 -3.62584 3.92985 0
M  V30 6559 H 605.94 -3.52133 2.22053 0
M  V30 6560 H 606.473 -2.21381 3.30507 0
M  V30 6561 H 603.212 -1.86929 6.28282 0
M  V30 6562 H 602.732 -3.12579 5.11913 0
M  V30 6563 H 604.411 -3.046 5.70813 0
M  V30 6564 N 604.543 -1.41418 -0.695603 0
M  V30 6565 C 605.789 -1.41983 -1.45645 0
M  V30 6566 C 606.144 -0.0282216 -1.92379 0
M  V30 6567 O 605.437 0.945916 -1.66622 0
M  V30 6568 C 605.631 -2.36112 -2.68302 0
M  V30 6569 C 605.46 -3.84288 -2.33566 0
M  V30 6570 C 604.23 -4.52971 -2.23932 0
M  V30 6571 C 606.428 -4.75264 -1.96543 0
M  V30 6572 N 604.41 -5.86276 -1.82081 0
M  V30 6573 C 605.781 -5.97517 -1.6545 0
M  V30 6574 C 607.836 -4.62911 -1.83352 0
M  V30 6575 C 606.539 -7.08793 -1.22492 0
M  V30 6576 C 608.565 -5.74149 -1.41799 0
M  V30 6577 C 607.927 -6.95501 -1.11617 0
M  V30 6578 H 604.026 -0.574771 -0.530247 0
M  V30 6579 H 606.61 -1.77289 -0.804788 0
M  V30 6580 H 604.781 -2.02902 -3.31188 0
M  V30 6581 H 606.513 -2.27397 -3.34773 0
M  V30 6582 H 603.268 -4.06909 -2.42327 0
M  V30 6583 H 603.692 -6.56926 -1.63638 0
M  V30 6584 H 608.334 -3.69588 -2.05341 0
M  V30 6585 H 606.052 -8.01982 -0.992482 0
M  V30 6586 H 609.638 -5.66595 -1.32143 0
M  V30 6587 H 608.518 -7.80114 -0.799493 0
M  V30 6588 N 606.021 0.929856 -1.27246 0
M  V30 6589 C 606.931 2.0636 -1.11592 0
M  V30 6590 C 607.947 1.73938 -0.046496 0
M  V30 6591 O 609.123 1.9981 -0.252544 0
M  V30 6592 C 606.188 3.38213 -0.762437 0
M  V30 6593 C 605.249 3.84346 -1.9125 0
M  V30 6594 C 604.482 5.09906 -1.57579 0
M  V30 6595 O 604.705 5.68354 -0.482694 0
M  V30 6596 O 603.639 5.51359 -2.41426 0
M  V30 6597 H 607.465 2.22478 -2.0673 0
M  V30 6598 H 605.05 1.04865 -1.06413 0
M  V30 6599 H 606.932 4.1741 -0.57854 0
M  V30 6600 H 605.607 3.23307 0.159439 0
M  V30 6601 H 604.514 3.06045 -2.15144 0
M  V30 6602 H 605.847 4.0379 -2.81451 0
M  V30 6603 N 607.499 1.09233 1.13605 0
M  V30 6604 C 608.429 0.751738 2.21068 0
M  V30 6605 C 609.41 -0.269688 1.67948 0
M  V30 6606 O 610.595 -0.13819 1.93708 0
M  V30 6607 C 607.725 0.16935 3.46887 0
M  V30 6608 C 606.679 1.12007 4.13084 0
M  V30 6609 C 606.005 0.399483 5.33206 0
M  V30 6610 C 607.305 2.46168 4.6065 0
M  V30 6611 H 608.999 1.65024 2.49815 0
M  V30 6612 H 606.545 0.794905 1.20072 0
M  V30 6613 H 608.498 -0.0809824 4.21322 0
M  V30 6614 H 607.222 -0.764335 3.1753 0
M  V30 6615 H 605.881 1.35564 3.40614 0
M  V30 6616 H 605.529 -0.538277 5.00112 0
M  V30 6617 H 605.229 1.03337 5.78442 0
M  V30 6618 H 606.753 0.157403 6.10397 0
M  V30 6619 H 608.167 2.26829 5.26518 0
M  V30 6620 H 606.564 3.05326 5.1662 0
M  V30 6621 H 607.634 3.07076 3.75276 0
M  V30 6622 N 608.977 -1.30795 0.87923 0
M  V30 6623 C 609.924 -2.28282 0.339968 0
M  V30 6624 C 610.894 -1.56134 -0.566685 0
M  V30 6625 O 612.079 -1.84231 -0.496338 0
M  V30 6626 C 609.219 -3.42225 -0.444501 0
M  V30 6627 C 608.332 -4.29204 0.490717 0
M  V30 6628 C 607.467 -5.30302 -0.308784 0
M  V30 6629 C 606.506 -6.08929 0.622272 0
M  V30 6630 N 605.643 -7.01957 -0.14155 0
M  V30 6631 H 610.483 -2.73794 1.17647 0
M  V30 6632 H 608.02 -1.34682 0.591527 0
M  V30 6633 H 609.978 -4.07038 -0.915186 0
M  V30 6634 H 608.608 -2.97799 -1.24562 0
M  V30 6635 H 607.66 -3.6475 1.07988 0
M  V30 6636 H 608.972 -4.84045 1.20425 0
M  V30 6637 H 608.126 -6.00835 -0.841575 0
M  V30 6638 H 606.865 -4.7614 -1.05556 0
M  V30 6639 H 605.87 -5.37278 1.16674 0
M  V30 6640 H 607.095 -6.65178 1.36804 0
M  V30 6641 H 605.041 -6.50192 -0.870966 0
M  V30 6642 H 604.958 -7.54261 0.51246 0
M  V30 6643 H 606.226 -7.76741 -0.655271 0
M  V30 6644 N 610.455 -0.639598 -1.44038 0
M  V30 6645 C 611.871 -0.305953 -1.5664 0
M  V30 6646 C 612.071 1.19055 -1.62567 0
M  V30 6647 O 611.127 1.97492 -1.57331 0
M  V30 6648 C 612.44 -1.00533 -2.83397 0
M  V30 6649 C 613.988 -0.984278 -2.97121 0
M  V30 6650 C 614.463 -1.66428 -4.26691 0
M  V30 6651 N 615.954 -1.63127 -4.33525 0
M  V30 6652 C 616.689 -2.12629 -5.32519 0
M  V30 6653 N 616.185 -2.70359 -6.3787 0
M  V30 6654 N 617.978 -2.03208 -5.24083 0
M  V30 6655 H 610.129 -1.6109 -1.38434 0
M  V30 6656 H 612.392 -0.676672 -0.663942 0
M  V30 6657 H 612.098 -2.06034 -2.85032 0
M  V30 6658 H 611.972 -0.548362 -3.73193 0
M  V30 6659 H 614.359 0.0622792 -2.95034 0
M  V30 6660 H 614.44 -1.47981 -2.08651 0
M  V30 6661 H 614.084 -2.71034 -4.29538 0
M  V30 6662 H 614.014 -1.14351 -5.14034 0
M  V30 6663 H 616.505 -1.20987 -3.58009 0
M  V30 6664 H 616.818 -3.05842 -7.09704 0
M  V30 6665 H 615.163 -2.74414 -6.38531 0
M  V30 6666 H 618.354 -1.57823 -4.40692 0
M  V30 6667 H 618.527 -2.42097 -6.01077 0
M  V30 6668 N 611.933 1.52934 -0.380664 0
M  V30 6669 C 612.843 2.29921 0.466192 0
M  V30 6670 C 613.859 1.36488 1.07922 0
M  V30 6671 O 615.035 1.69553 1.0869 0
M  V30 6672 C 612.1 3.08468 1.58266 0
M  V30 6673 C 611.161 4.17595 0.995627 0
M  V30 6674 C 610.394 4.92387 2.05889 0
M  V30 6675 O 610.617 4.67184 3.27254 0
M  V30 6676 O 609.551 5.77949 1.68102 0
M  V30 6677 H 613.377 3.03274 -0.160735 0
M  V30 6678 H 610.962 1.48698 -0.144617 0
M  V30 6679 H 612.844 3.57469 2.23145 0
M  V30 6680 H 611.519 2.37937 2.19471 0
M  V30 6681 H 610.426 3.72811 0.310332 0
M  V30 6682 H 611.759 4.90336 0.427918 0
M  V30 6683 N 613.412 0.11024 1.57214 0
M  V30 6684 C 614.322 -0.857077 2.18383 0
M  V30 6685 C 615.338 -1.29915 1.1575 0
M  V30 6686 O 616.514 -1.36394 1.48184 0
M  V30 6687 C 613.579 -2.09264 2.76423 0
M  V30 6688 C 612.64 -1.70333 3.94063 0
M  V30 6689 C 611.873 -2.87999 4.49324 0
M  V30 6690 O 612.096 -4.0317 4.03497 0
M  V30 6691 O 611.03 -2.6559 5.40135 0
M  V30 6692 H 614.856 -0.366561 3.0148 0
M  V30 6693 H 612.441 -0.114914 1.48957 0
M  V30 6694 H 614.323 -2.81644 3.13456 0
M  V30 6695 H 612.998 -2.57339 1.96363 0
M  V30 6696 H 611.905 -0.950864 3.61814 0
M  V30 6697 H 613.238 -1.27007 4.75531 0
M  V30 6698 N 614.89 -1.56749 -0.16351 0
M  V30 6699 C 616.139 -1.81626 -0.877211 0
M  V30 6700 C 616.452 -0.688791 -1.83071 0
M  V30 6701 O 617.658 -0.822697 -2.58735 0
M  V30 6702 C 616.114 -3.21858 -1.61045 0
M  V30 6703 C 615.722 -4.42494 -0.700195 0
M  V30 6704 C 617.466 -3.56021 -2.31192 0
M  V30 6705 C 615.373 -5.73748 -1.43412 0
M  V30 6706 H 614.303 -0.67731 -0.331312 0
M  V30 6707 H 616.954 -1.83039 -0.13006 0
M  V30 6708 H 615.336 -3.14784 -2.40264 0
M  V30 6709 H 616.51 -4.60766 0.0555849 0
M  V30 6710 H 614.825 -4.1626 -0.10799 0
M  V30 6711 H 617.422 -4.51333 -2.8671 0
M  V30 6712 H 617.765 -2.81277 -3.06902 0
M  V30 6713 H 618.298 -3.64682 -1.58909 0
M  V30 6714 H 615.037 -6.51543 -0.719186 0
M  V30 6715 H 614.557 -5.5944 -2.16302 0
M  V30 6716 H 616.236 -6.15975 -1.9795 0
M  V30 6717 N 616.368 0.432326 -1.51554 0
M  V30 6718 C 617.596 1.20364 -1.68286 0
M  V30 6719 C 618.011 1.84888 -0.38233 0
M  V30 6720 O 617.368 1.70924 0.639627 0
M  V30 6721 C 617.419 2.28398 -2.80208 0
M  V30 6722 O 617.14 1.66512 -4.05223 0
M  V30 6723 C 618.641 3.18584 -3.08251 0
M  V30 6724 H 615.861 0.36259 -0.564596 0
M  V30 6725 H 618.405 0.511647 -1.97996 0
M  V30 6726 H 616.56 2.93305 -2.53083 0
M  V30 6727 H 616.974 2.37951 -4.67418 0
M  V30 6728 H 618.448 3.90511 -3.90135 0
M  V30 6729 H 618.925 3.79628 -2.2086 0
M  V30 6730 H 619.531 2.59372 -3.37055 0
M  V30 6731 N 617.846 1.41785 0.688094 0
M  V30 6732 C 618.776 1.47 1.8142 0
M  V30 6733 C 619.757 0.327881 1.6691 0
M  V30 6734 O 620.942 0.540362 1.86531 0
M  V30 6735 C 618.072 1.35876 3.19617 0
M  V30 6736 C 617.026 2.47976 3.48844 0
M  V30 6737 C 616.352 2.21915 4.86475 0
M  V30 6738 C 617.652 3.90309 3.47068 0
M  V30 6739 H 619.346 2.41247 1.77314 0
M  V30 6740 H 616.892 1.16116 0.851651 0
M  V30 6741 H 618.845 1.38134 3.98117 0
M  V30 6742 H 617.569 0.38116 3.24368 0
M  V30 6743 H 616.228 2.45013 2.72698 0
M  V30 6744 H 615.876 1.2248 4.8786 0
M  V30 6745 H 615.576 2.97037 5.06994 0
M  V30 6746 H 617.1 2.25901 5.67275 0
M  V30 6747 H 618.514 3.94947 4.1556 0
M  V30 6748 H 616.911 4.65175 3.7912 0
M  V30 6749 H 617.981 4.17927 2.45896 0
M  V30 6750 N 619.324 -0.923095 1.27737 0
M  V30 6751 C 620.254 -2.04124 1.13383 0
M  V30 6752 C 621.235 -1.70066 0.0340658 0
M  V30 6753 O 622.42 -1.93068 0.209383 0
M  V30 6754 C 619.55 -3.3831 0.785097 0
M  V30 6755 C 618.504 -3.86496 1.8386 0
M  V30 6756 C 617.83 -5.1754 1.34373 0
M  V30 6757 C 619.13 -4.09381 3.24353 0
M  V30 6758 H 620.824 -2.1639 2.06919 0
M  V30 6759 H 618.37 -1.03976 0.996243 0
M  V30 6760 H 620.323 -4.16016 0.671485 0
M  V30 6761 H 619.047 -3.2607 -0.185969 0
M  V30 6762 H 617.706 -3.10987 1.9412 0
M  V30 6763 H 617.354 -5.01696 0.361989 0
M  V30 6764 H 617.054 -5.50751 2.04811 0
M  V30 6765 H 618.578 -5.97811 1.24315 0
M  V30 6766 H 619.992 -4.77641 3.17067 0
M  V30 6767 H 618.389 -4.53906 3.92542 0
M  V30 6768 H 619.459 -3.14515 3.69064 0
M  V30 6769 N 620.802 -1.09834 -1.13024 0
M  V30 6770 C 621.749 -0.741522 -2.18564 0
M  V30 6771 C 622.719 0.279236 -1.63736 0
M  V30 6772 O 623.904 0.159923 -1.90129 0
M  V30 6773 C 621.044 -0.17277 -3.44667 0
M  V30 6774 C 620.157 -1.24808 -4.13578 0
M  V30 6775 C 619.292 -0.641631 -5.27311 0
M  V30 6776 C 618.331 -1.69795 -5.88078 0
M  V30 6777 N 617.468 -1.11223 -6.93234 0
M  V30 6778 H 622.308 -1.64576 -2.48432 0
M  V30 6779 H 619.845 -0.822174 -1.21978 0
M  V30 6780 H 621.803 0.17482 -4.16834 0
M  V30 6781 H 620.433 0.694725 -3.15235 0
M  V30 6782 H 619.485 -1.71288 -3.39653 0
M  V30 6783 H 620.797 -2.04795 -4.54819 0
M  V30 6784 H 619.951 -0.243128 -6.06213 0
M  V30 6785 H 618.69 0.189742 -4.87331 0
M  V30 6786 H 617.695 -2.10595 -5.07868 0
M  V30 6787 H 618.92 -2.53206 -6.3013 0
M  V30 6788 H 616.866 -0.302208 -6.55304 0
M  V30 6789 H 616.783 -1.84901 -7.3304 0
M  V30 6790 H 618.051 -0.740068 -7.75979 0
M  V30 6791 N 622.28 1.30327 -0.886154 0
M  V30 6792 C 623.19 2.31854 -0.357866 0
M  V30 6793 C 624.206 1.65392 0.540502 0
M  V30 6794 O 625.382 1.96683 0.433339 0
M  V30 6795 C 622.447 3.44171 0.417999 0
M  V30 6796 C 621.508 4.26257 -0.510263 0
M  V30 6797 C 620.741 5.3321 0.228669 0
M  V30 6798 O 620.964 5.51542 1.45458 0
M  V30 6799 O 619.898 6.0042 -0.421832 0
M  V30 6800 H 623.724 2.78995 -1.19982 0
M  V30 6801 H 621.309 1.34518 -0.650028 0
M  V30 6802 H 623.191 4.12588 0.857251 0
M  V30 6803 H 621.866 2.99164 1.23623 0
M  V30 6804 H 620.773 3.60533 -0.99835 0
M  V30 6805 H 622.106 4.74871 -1.29454 0
M  V30 6806 N 623.758 0.647228 1.43697 0
M  V30 6807 C 624.688 -0.0345631 2.33474 0
M  V30 6808 C 625.669 -0.818193 1.4913 0
M  V30 6809 O 626.854 -0.780867 1.77809 0
M  V30 6810 C 623.984 -1.00576 3.32418 0
M  V30 6811 C 622.938 -0.33266 4.26705 0
M  V30 6812 C 622.264 -1.41489 5.1564 0
M  V30 6813 C 623.564 0.771204 5.16575 0
M  V30 6814 H 625.258 0.715163 2.90733 0
M  V30 6815 H 622.804 0.345364 1.39797 0
M  V30 6816 H 624.757 -1.49159 3.94119 0
M  V30 6817 H 623.481 -1.78657 2.73403 0
M  V30 6818 H 622.14 0.13267 3.6636 0
M  V30 6819 H 621.788 -2.18698 4.52968 0
M  V30 6820 H 621.488 -0.969799 5.79542 0
M  V30 6821 H 623.012 -1.9022 5.80214 0
M  V30 6822 H 624.426 0.36779 5.72119 0
M  V30 6823 H 622.823 1.1404 5.89165 0
M  V30 6824 H 623.893 1.63169 4.56622 0
M  V30 6825 N 625.236 -1.5273 0.388769 0
M  V30 6826 C 626.484 -2.01174 -0.193208 0
M  V30 6827 C 626.805 -1.27705 -1.47365 0
M  V30 6828 O 626.075 -0.396966 -1.91836 0
M  V30 6829 H 624.655 -0.743287 -0.0743871 0
M  V30 6830 H 627.317 -1.87826 0.520336 0
M  V30 6831 H 626.413 -3.09477 -0.403803 0
M  V30 6832 N 626.714 -0.118576 -1.57153 0
M  V30 6833 C 627.939 0.550582 -1.99958 0
M  V30 6834 C 628.364 1.59458 -0.997736 0
M  V30 6835 O 627.722 1.81274 0.0306269 0
M  V30 6836 C 627.77 1.15379 -3.41643 0
M  V30 6837 O 626.874 2.26932 -3.44348 0
M  V30 6838 H 626.215 0.137567 -0.649593 0
M  V30 6839 H 628.745 -0.206926 -2.03551 0
M  V30 6840 H 628.755 1.48942 -3.79843 0
M  V30 6841 H 627.43 0.389087 -4.14076 0
M  V30 6842 H 626.007 1.94812 -3.17967 0
M  V30 6843 N 628.193 1.56834 0.155195 0
M  V30 6844 C 629.441 1.82536 0.867462 0
M  V30 6845 C 629.762 0.698168 1.82073 0
M  V30 6846 O 629.032 -0.280807 1.93877 0
M  V30 6847 H 627.612 0.673401 0.323327 0
M  V30 6848 H 630.274 1.94313 0.151156 0
M  V30 6849 H 629.37 2.77171 1.43466 0
M  V30 6850 N 629.671 -0.424282 1.51781 0
M  V30 6851 C 630.603 -1.53457 1.70246 0
M  V30 6852 C 631.616 -1.52004 0.582967 0
M  V30 6853 O 632.805 -1.56544 0.857683 0
M  V30 6854 C 629.905 -2.92368 1.71389 0
M  V30 6855 C 629.078 -3.1818 3.00133 0
M  V30 6856 C 628.137 -4.36884 2.9329 0
M  V30 6857 O 627.163 -4.34901 3.67219 0
M  V30 6858 N 628.365 -5.4117 2.10036 0
M  V30 6859 H 631.13 -1.38017 2.66029 0
M  V30 6860 H 628.691 -0.613394 1.4983 0
M  V30 6861 H 630.683 -3.6982 1.64362 0
M  V30 6862 H 629.253 -3.0134 0.831449 0
M  V30 6863 H 628.473 -2.28908 3.20928 0
M  V30 6864 H 629.761 -3.32261 3.85331 0
M  V30 6865 H 629.159 -5.45623 1.49373 0
M  V30 6866 H 627.716 -6.17425 2.08878 0
M  V30 6867 N 631.149 -1.42148 -0.680565 0
M  V30 6868 C 632.396 -1.4231 -1.44063 0
M  V30 6869 C 632.724 -0.037488 -1.94464 0
M  V30 6870 O 631.979 0.953184 -1.70918 0
M  V30 6871 C 632.278 -2.38945 -2.65782 0
M  V30 6872 C 631.944 -3.85455 -2.33956 0
M  V30 6873 C 630.606 -4.25364 -2.24987 0
M  V30 6874 C 632.958 -4.77895 -2.08004 0
M  V30 6875 C 630.286 -5.55701 -1.88184 0
M  V30 6876 C 632.638 -6.08568 -1.72706 0
M  V30 6877 C 631.302 -6.47482 -1.62244 0
M  V30 6878 H 630.572 -0.520748 -0.527164 0
M  V30 6879 H 633.219 -1.7505 -0.776524 0
M  V30 6880 H 631.524 -1.99511 -3.37198 0
M  V30 6881 H 633.221 -2.36336 -3.23954 0
M  V30 6882 H 629.811 -3.53855 -2.41836 0
M  V30 6883 H 633.995 -4.47854 -2.1387 0
M  V30 6884 H 629.251 -5.84718 -1.78648 0
M  V30 6885 H 633.425 -6.79688 -1.5165 0
M  V30 6886 H 631.052 -7.48387 -1.33496 0
M  V30 6887 N 632.627 0.916307 -1.28225 0
M  V30 6888 C 633.875 1.6619 -1.15002 0
M  V30 6889 C 634.196 1.92642 0.302329 0
M  V30 6890 O 633.466 1.54076 1.20985 0
M  V30 6891 H 632.046 0.615964 -0.422608 0
M  V30 6892 H 634.708 1.09963 -1.60917 0
M  V30 6893 H 633.804 2.62533 -1.68769 0
M  V30 6894 N 634.105 1.10431 1.1244 0
M  V30 6895 C 635.351 0.847972 1.84221 0
M  V30 6896 C 635.684 -0.624903 1.83871 0
M  V30 6897 O 634.959 -1.46074 1.28423 0
M  V30 6898 C 635.242 1.39695 3.319 0
M  V30 6899 C 635.095 2.93668 3.40704 0
M  V30 6900 C 636.414 1.03924 4.27654 0
M  V30 6901 H 633.533 0.309502 0.668863 0
M  V30 6902 H 636.175 1.36745 1.31912 0
M  V30 6903 H 634.325 0.955095 3.76577 0
M  V30 6904 H 635.997 3.46379 3.04662 0
M  V30 6905 H 634.24 3.30272 2.81252 0
M  V30 6906 H 634.911 3.27162 4.446 0
M  V30 6907 H 637.387 1.42049 3.91102 0
M  V30 6908 H 636.263 1.45027 5.29394 0
M  V30 6909 H 636.524 -0.051336 4.4207 0
M  V30 6910 N 635.583 -1.29855 0.893053 0
M  V30 6911 C 636.829 -1.96116 0.516349 0
M  V30 6912 C 637.162 -1.70281 -0.933695 0
M  V30 6913 O 636.437 -1.01205 -1.66096 0
M  V30 6914 C 636.72 -3.51068 0.801455 0
M  V30 6915 C 636.573 -3.86387 2.30272 0
M  V30 6916 C 637.892 -4.39186 0.283423 0
M  V30 6917 H 635.011 -0.712335 0.189072 0
M  V30 6918 H 637.653 -1.53587 1.11852 0
M  V30 6919 H 635.803 -3.87424 0.288949 0
M  V30 6920 H 637.475 -3.60012 2.88425 0
M  V30 6921 H 635.718 -3.34167 2.76613 0
M  V30 6922 H 636.389 -4.94512 2.45279 0
M  V30 6923 H 638.865 -4.09785 0.722187 0
M  V30 6924 H 637.741 -5.46505 0.512169 0
M  V30 6925 H 638.002 -4.34511 -0.815643 0
M  V30 6926 N 637.061 -0.65484 -1.43351 0
M  V30 6927 C 637.993 0.0744757 -2.29079 0
M  V30 6928 C 639.006 0.7855 -1.42596 0
M  V30 6929 O 640.195 0.642986 -1.66517 0
M  V30 6930 C 637.295 1.12859 -3.19556 0
M  V30 6931 C 636.468 0.495381 -4.34586 0
M  V30 6932 C 635.527 1.44659 -5.05925 0
M  V30 6933 O 634.553 0.954567 -5.61139 0
M  V30 6934 N 635.755 2.78051 -5.09576 0
M  V30 6935 H 638.52 -0.661346 -2.92312 0
M  V30 6936 H 636.081 -0.497744 -1.54059 0
M  V30 6937 H 638.073 1.76577 -3.64147 0
M  V30 6938 H 636.643 1.76636 -2.57912 0
M  V30 6939 H 635.863 -0.32092 -3.92892 0
M  V30 6940 H 637.151 0.0534203 -5.08772 0
M  V30 6941 H 636.549 3.20584 -4.66093 0
M  V30 6942 H 635.106 3.37068 -5.57878 0
M  V30 6943 N 638.539 1.52521 -0.396863 0
M  V30 6944 C 639.469 2.29582 0.425941 0
M  V30 6945 C 640.45 1.33281 1.05689 0
M  V30 6946 O 641.635 1.62181 1.06823 0
M  V30 6947 C 638.765 3.10821 1.54943 0
M  V30 6948 C 637.719 4.15069 1.04413 0
M  V30 6949 C 637.045 4.84578 2.26028 0
M  V30 6950 C 638.345 5.22191 0.106767 0
M  V30 6951 H 640.039 2.98612 -0.217045 0
M  V30 6952 H 637.585 1.43611 -0.105826 0
M  V30 6953 H 639.538 3.63492 2.13193 0
M  V30 6954 H 638.262 2.39538 2.22011 0
M  V30 6955 H 636.921 3.63389 0.484118 0
M  V30 6956 H 636.569 4.09835 2.91623 0
M  V30 6957 H 636.269 5.55043 1.92876 0
M  V30 6958 H 637.793 5.40056 2.84906 0
M  V30 6959 H 639.207 5.70176 0.597685 0
M  V30 6960 H 637.604 5.99947 -0.135352 0
M  V30 6961 H 638.674 4.77531 -0.842134 0
M  V30 6962 N 640.017 0.126909 1.57088 0
M  V30 6963 C 641.265 -0.528123 1.95078 0
M  V30 6964 C 641.586 -1.66708 1.0116 0
M  V30 6965 O 640.856 -1.95777 0.0693527 0
M  V30 6966 H 639.436 -0.198087 0.720257 0
M  V30 6967 H 642.098 0.197703 1.93895 0
M  V30 6968 H 641.194 -0.917507 2.98309 0
M  V30 6969 N 641.495 -1.56914 -0.146875 0
M  V30 6970 C 642.442 -1.98275 -1.18134 0
M  V30 6971 C 643.412 -0.850367 -1.42681 0
M  V30 6972 O 644.597 -1.11244 -1.55014 0
M  V30 6973 C 641.737 -2.36861 -2.5098 0
M  V30 6974 C 640.85 -3.63391 -2.33605 0
M  V30 6975 C 639.985 -3.91079 -3.59486 0
M  V30 6976 C 639.024 -5.10879 -3.37149 0
M  V30 6977 N 638.161 -5.34577 -4.55161 0
M  V30 6978 H 643.001 -2.8645 -0.821622 0
M  V30 6979 H 640.538 -1.41718 -0.394248 0
M  V30 6980 H 642.496 -2.57262 -3.28439 0
M  V30 6981 H 641.126 -1.51766 -2.84898 0
M  V30 6982 H 640.178 -3.50766 -1.47199 0
M  V30 6983 H 641.49 -4.51007 -2.13059 0
M  V30 6984 H 640.644 -4.11979 -4.45374 0
M  V30 6985 H 639.383 -3.01885 -3.83036 0
M  V30 6986 H 638.388 -4.89853 -2.49649 0
M  V30 6987 H 639.613 -6.01626 -3.14997 0
M  V30 6988 H 637.559 -4.48337 -4.78884 0
M  V30 6989 H 637.476 -6.16463 -4.37618 0
M  V30 6990 H 638.744 -5.59975 -5.42263 0
M  V30 6991 N 642.974 0.416227 -1.52004 0
M  V30 6992 C 644.22 1.16233 -1.66917 0
M  V30 6993 C 644.575 1.8839 -0.390763 0
M  V30 6994 O 643.868 1.81479 0.614478 0
M  V30 6995 C 644.062 2.18923 -2.82502 0
M  V30 6996 C 643.891 1.56849 -4.2146 0
M  V30 6997 C 642.661 1.34426 -4.87091 0
M  V30 6998 C 644.859 1.03322 -5.03815 0
M  V30 6999 N 642.841 0.681703 -6.10103 0
M  V30 7000 C 644.212 0.497165 -6.18003 0
M  V30 7001 C 646.267 0.926997 -4.89194 0
M  V30 7002 C 644.97 -0.134687 -7.19174 0
M  V30 7003 C 646.996 0.309009 -5.90592 0
M  V30 7004 C 646.358 -0.216399 -7.04068 0
M  V30 7005 H 642.457 0.412252 -0.664509 0
M  V30 7006 H 645.041 0.455758 -1.89291 0
M  V30 7007 H 643.212 2.86946 -2.61756 0
M  V30 7008 H 644.944 2.85844 -2.86488 0
M  V30 7009 H 641.699 1.61183 -4.45328 0
M  V30 7010 H 642.123 0.367256 -6.76003 0
M  V30 7011 H 646.765 1.31904 -4.01698 0
M  V30 7012 H 644.483 -0.538811 -8.06302 0
M  V30 7013 H 648.069 0.228438 -5.81351 0
M  V30 7014 H 646.949 -0.687064 -7.81184 0
M  V30 7015 N 644.452 1.42507 0.673017 0
M  V30 7016 C 645.399 1.46124 1.78651 0
M  V30 7017 C 646.369 0.313007 1.63124 0
M  V30 7018 O 647.554 0.517337 1.83653 0
M  V30 7019 C 644.694 1.3711 3.16694 0
M  V30 7020 C 643.807 2.61983 3.43495 0
M  V30 7021 C 642.942 2.45098 4.71275 0
M  V30 7022 C 641.981 3.65336 4.91117 0
M  V30 7023 N 641.118 3.47383 6.10139 0
M  V30 7024 H 645.958 2.4128 1.74895 0
M  V30 7025 H 643.495 1.19788 0.853766 0
M  V30 7026 H 645.453 1.29881 3.96468 0
M  V30 7027 H 644.083 0.45549 3.1957 0
M  V30 7028 H 643.135 2.79571 2.57961 0
M  V30 7029 H 644.447 3.51355 3.5405 0
M  V30 7030 H 643.601 2.35466 5.59143 0
M  V30 7031 H 642.34 1.53219 4.63007 0
M  V30 7032 H 641.345 3.754 4.0169 0
M  V30 7033 H 642.57 4.58199 5.01229 0
M  V30 7034 H 640.516 2.58222 6.0304 0
M  V30 7035 H 640.433 4.30344 6.21563 0
M  V30 7036 H 641.701 3.41565 7.00681 0
M  V30 7037 N 645.93 -0.909495 1.28709 0
M  V30 7038 C 647.178 -1.65577 1.15882 0
M  V30 7039 C 647.499 -1.928 -0.292108 0
M  V30 7040 O 646.769 -1.54716 -1.20166 0
M  V30 7041 H 645.349 -0.613714 0.425869 0
M  V30 7042 H 648.011 -1.09108 1.61498 0
M  V30 7043 H 647.107 -2.61634 1.70159 0
M  V30 7044 N 647.408 -1.11026 -1.11852 0
M  V30 7045 C 648.34 -0.72249 -2.17515 0
M  V30 7046 C 649.353 0.243782 -1.60964 0
M  V30 7047 O 650.542 0.0273252 -1.78479 0
M  V30 7048 C 647.642 -0.0463979 -3.38868 0
M  V30 7049 C 646.815 -1.0384 -4.24895 0
M  V30 7050 C 645.874 -0.392659 -5.24733 0
M  V30 7051 O 644.9 -1.0453 -5.5952 0
M  V30 7052 N 646.102 0.846296 -5.74298 0
M  V30 7053 H 648.867 -1.63161 -2.51393 0
M  V30 7054 H 646.428 -0.999899 -1.27333 0
M  V30 7055 H 648.42 0.397215 -4.02746 0
M  V30 7056 H 646.99 0.765231 -3.03089 0
M  V30 7057 H 646.21 -1.6601 -3.57539 0
M  V30 7058 H 647.498 -1.70968 -4.79215 0
M  V30 7059 H 646.896 1.39578 -5.4821 0
M  V30 7060 H 645.453 1.23296 -6.40032 0
M  V30 7061 N 648.886 1.2938 -0.899927 0
M  V30 7062 C 650.116 1.99402 -0.540601 0
M  V30 7063 C 650.524 1.67534 0.87914 0
M  V30 7064 O 649.867 0.916821 1.59186 0
M  V30 7065 C 649.929 3.53514 -0.653326 0
M  V30 7066 C 649.593 4.08937 -2.04009 0
M  V30 7067 C 650.59 4.23815 -3.01126 0
M  V30 7068 C 648.275 4.43962 -2.34953 0
M  V30 7069 C 650.269 4.72951 -4.27313 0
M  V30 7070 C 647.956 4.92795 -3.61382 0
M  V30 7071 C 648.954 5.07244 -4.57376 0
M  V30 7072 O 648.642 5.55017 -5.8156 0
M  V30 7073 H 648.374 0.64383 -0.206057 0
M  V30 7074 H 650.928 1.65878 -1.21134 0
M  V30 7075 H 649.158 3.86628 0.0744449 0
M  V30 7076 H 650.847 4.04767 -0.303118 0
M  V30 7077 H 651.613 3.97043 -2.78535 0
M  V30 7078 H 647.492 4.31974 -1.60994 0
M  V30 7079 H 651.036 4.84144 -5.02245 0
M  V30 7080 H 646.933 5.19004 -3.83804 0
M  V30 7081 H 647.701 5.73331 -5.84153 0
M  V30 7082 N 650.364 0.662433 1.43002 0
M  V30 7083 C 651.641 0.109096 1.95296 0
M  V30 7084 C 652.021 -1.37313 1.60338 0
M  V30 7085 O 651.369 -2.1032 0.893187 0
M  V30 7086 C 651.579 0.365096 3.47085 0
M  V30 7087 C 652.927 0.274964 4.23709 0
M  V30 7088 O 653.951 0.29816 3.5495 0
M  V30 7089 O 652.81 0.206549 5.4611 0
M  V30 7090 H 649.904 -0.00429724 0.826989 0
M  V30 7091 H 652.45 0.736308 1.52894 0
M  V30 7092 H 651.222 1.39237 3.65689 0
M  V30 7093 H 650.845 -0.294733 3.96506 0
M  V30 7094 N 651.842 -1.52309 0.404946 0
M  V30 7095 C 653.088 -2.02065 -0.172455 0
M  V30 7096 C 653.421 -1.29022 -1.45145 0
M  V30 7097 O 652.696 -0.395284 -1.90441 0
M  V30 7098 C 652.979 -3.5759 -0.424433 0
M  V30 7099 C 652.832 -4.41287 0.870945 0
M  V30 7100 C 654.151 -4.23186 -1.20837 0
M  V30 7101 H 651.27 -0.734454 -0.0612035 0
M  V30 7102 H 653.912 -1.82236 0.53759 0
M  V30 7103 H 652.062 -3.74617 -1.02929 0
M  V30 7104 H 653.734 -4.3598 1.50729 0
M  V30 7105 H 651.977 -4.07669 1.48284 0
M  V30 7106 H 652.648 -5.48171 0.649083 0
M  V30 7107 H 655.124 -4.10232 -0.696338 0
M  V30 7108 H 654 -5.31953 -1.35343 0
M  V30 7109 H 654.261 -3.81862 -2.22786 0
M  V30 7110 N 653.32 -0.135238 -1.57019 0
M  V30 7111 C 654.283 0.794707 -2.14981 0
M  V30 7112 C 655.283 1.18342 -1.08866 0
M  V30 7113 O 656.473 1.10627 -1.34563 0
M  V30 7114 C 653.605 2.07685 -2.70333 0
M  V30 7115 H 654.798 0.290696 -2.98488 0
M  V30 7116 H 652.351 0.114128 -1.55883 0
M  V30 7117 H 653.086 2.6248 -1.9046 0
M  V30 7118 H 652.871 1.80745 -3.47957 0
M  V30 7119 H 654.361 2.74127 -3.1503 0
M  V30 7120 N 654.798 1.5699 0.138552 0
M  V30 7121 C 656.044 1.84081 0.85099 0
M  V30 7122 C 656.377 0.718107 1.80435 0
M  V30 7123 O 655.652 -0.277633 1.92508 0
M  V30 7124 C 655.935 3.21699 1.61808 0
M  V30 7125 C 655.788 4.44544 0.685633 0
M  V30 7126 C 657.107 3.5664 2.57868 0
M  V30 7127 H 654.226 0.669592 0.307922 0
M  V30 7128 H 656.868 1.89646 0.11588 0
M  V30 7129 H 655.018 3.17086 2.24474 0
M  V30 7130 H 656.69 4.61248 0.0693179 0
M  V30 7131 H 654.933 4.338 -0.00421993 0
M  V30 7132 H 655.604 5.3746 1.25858 0
M  V30 7133 H 658.08 3.61918 2.05316 0
M  V30 7134 H 656.956 4.53946 3.08584 0
M  V30 7135 H 657.217 2.83036 3.39622 0
M  V30 7136 N 656.276 -0.40816 1.52223 0
M  V30 7137 C 657.223 -1.49737 1.75635 0
M  V30 7138 C 658.193 -1.5493 0.598824 0
M  V30 7139 O 659.378 -1.71487 0.83648 0
M  V30 7140 C 656.518 -2.87174 1.91376 0
M  V30 7141 C 655.631 -2.91283 3.19027 0
M  V30 7142 C 654.766 -4.20026 3.25195 0
M  V30 7143 C 653.805 -4.18113 4.47044 0
M  V30 7144 N 652.942 -5.38429 4.50598 0
M  V30 7145 H 657.782 -1.29075 2.68596 0
M  V30 7146 H 655.319 -0.626518 1.33091 0
M  V30 7147 H 657.277 -3.66959 1.98486 0
M  V30 7148 H 655.907 -3.06329 1.01795 0
M  V30 7149 H 654.959 -2.03984 3.21084 0
M  V30 7150 H 656.271 -2.85734 4.08849 0
M  V30 7151 H 655.425 -5.08204 3.31382 0
M  V30 7152 H 654.164 -4.28271 2.33313 0
M  V30 7153 H 653.169 -3.28325 4.41002 0
M  V30 7154 H 654.394 -4.11507 5.40221 0
M  V30 7155 H 652.34 -5.4734 3.616 0
M  V30 7156 H 652.257 -5.34879 5.34266 0
M  V30 7157 H 653.525 -6.28557 4.61016 0
M  V30 7158 N 657.755 -1.42862 -0.66545 0
M  V30 7159 C 658.688 -1.41509 -1.79026 0
M  V30 7160 C 659.666 -0.278106 -1.60204 0
M  V30 7161 O 660.85 -0.469792 -1.82552 0
M  V30 7162 C 657.977 -1.21494 -3.1616 0
M  V30 7163 C 657.023 -2.38308 -3.53711 0
M  V30 7164 S 657.856 -4.00852 -3.55075 0
M  V30 7165 C 659.012 -3.83197 -4.94885 0
M  V30 7166 H 659.245 -2.36691 -1.79902 0
M  V30 7167 H 656.778 -1.29746 -0.836977 0
M  V30 7168 H 658.736 -1.10633 -3.95311 0
M  V30 7169 H 657.397 -0.27881 -3.1286 0
M  V30 7170 H 656.59 -2.20076 -4.53412 0
M  V30 7171 H 656.192 -2.45732 -2.81943 0
M  V30 7172 H 658.484 -3.44765 -5.83218 0
M  V30 7173 H 659.427 -4.82607 -5.18166 0
M  V30 7174 H 659.835 -3.15884 -4.67843 0
M  V30 7175 N 659.233 0.902656 -1.29189 0
M  V30 7176 C 660.482 1.6475 -1.16362 0
M  V30 7177 C 660.795 1.93517 0.284682 0
M  V30 7178 O 662.001 2.66192 0.534229 0
M  V30 7179 C 660.457 2.96848 -2.03493 0
M  V30 7180 C 660.065 2.75687 -3.5313 0
M  V30 7181 C 661.809 3.74762 -1.99383 0
M  V30 7182 C 659.716 4.03492 -4.32375 0
M  V30 7183 H 658.646 0.618041 -0.431904 0
M  V30 7184 H 661.297 1.0008 -1.53806 0
M  V30 7185 H 659.679 3.62715 -1.58916 0
M  V30 7186 H 660.853 2.18431 -4.05739 0
M  V30 7187 H 659.168 2.11171 -3.58881 0
M  V30 7188 H 661.765 4.69515 -2.5585 0
M  V30 7189 H 662.108 4.04767 -0.973123 0
M  V30 7190 H 662.641 3.15732 -2.41988 0
M  V30 7191 H 659.38 3.78656 -5.3507 0
M  V30 7192 H 658.9 4.60318 -3.84535 0
M  V30 7193 H 660.579 4.71662 -4.42881 0
M  V30 7194 N 660.711 1.11618 1.11262 0
M  V30 7195 C 661.658 0.7762 2.17356 0
M  V30 7196 C 662.628 -0.253152 1.6416 0
M  V30 7197 O 663.813 -0.129655 1.90359 0
M  V30 7198 C 660.953 0.227581 3.44349 0
M  V30 7199 C 660.066 1.31372 4.1154 0
M  V30 7200 C 659.201 0.72544 5.26223 0
M  V30 7201 C 658.24 1.7913 5.85302 0
M  V30 7202 N 657.377 1.22237 6.91377 0
M  V30 7203 H 662.217 1.68508 2.45783 0
M  V30 7204 H 659.754 0.841475 1.20655 0
M  V30 7205 H 661.712 -0.108483 4.17059 0
M  V30 7206 H 660.342 -0.644486 3.16301 0
M  V30 7207 H 659.394 1.7667 3.36885 0
M  V30 7208 H 660.706 2.12005 4.51504 0
M  V30 7209 H 659.86 0.339541 6.05749 0
M  V30 7210 H 658.599 -0.112188 4.87571 0
M  V30 7211 H 657.604 2.18648 5.04453 0
M  V30 7212 H 658.829 2.63199 6.26022 0
M  V30 7213 H 656.775 0.406423 6.5474 0
M  V30 7214 H 656.692 1.9654 7.30006 0
M  V30 7215 H 657.96 0.863426 7.74703 0
M  V30 7216 N 662.189 -1.289 0.906776 0
M  V30 7217 C 663.099 -2.31256 0.394707 0
M  V30 7218 C 664.115 -1.66231 -0.514121 0
M  V30 7219 O 665.291 -1.97347 -0.401994 0
M  V30 7220 C 662.356 -3.44792 -0.363191 0
M  V30 7221 C 661.417 -4.25391 0.578012 0
M  V30 7222 C 660.65 -5.33506 -0.143811 0
M  V30 7223 O 660.873 -5.53786 -1.36665 0
M  V30 7224 O 659.807 -5.99673 0.5173 0
M  V30 7225 H 663.633 -2.77051 1.24405 0
M  V30 7226 H 661.218 -1.33466 0.671346 0
M  V30 7227 H 663.1 -4.139 -0.791503 0
M  V30 7228 H 661.775 -3.01093 -1.18848 0
M  V30 7229 H 660.682 -3.58899 1.05558 0
M  V30 7230 H 662.015 -4.72752 1.36992 0
M  V30 7231 N 663.667 -0.670007 -1.42649 0
M  V30 7232 C 664.915 -0.18991 -2.01206 0
M  V30 7233 C 665.236 1.20617 -1.53221 0
M  V30 7234 O 664.506 1.80898 -0.751856 0
M  V30 7235 H 663.086 -0.0672189 -0.743969 0
M  V30 7236 H 665.748 -0.865442 -1.74631 0
M  V30 7237 H 664.844 -0.187481 -3.11536 0
M  V30 7238 N 665.145 1.52092 -0.413018 0
M  V30 7239 C 666.37 2.06756 0.163338 0
M  V30 7240 C 666.795 1.28073 1.37764 0
M  V30 7241 O 666.153 0.312015 1.78595 0
M  V30 7242 C 666.201 3.57278 0.488322 0
M  V30 7243 O 665.305 3.80986 1.57871 0
M  V30 7244 H 664.646 0.663882 0.0125068 0
M  V30 7245 H 667.176 1.95988 -0.587339 0
M  V30 7246 H 667.186 4.01125 0.745836 0
M  V30 7247 H 665.861 4.13978 -0.399327 0
M  V30 7248 H 664.438 3.49017 1.31306 0
M  V30 7249 N 666.623 0.143563 1.56945 0
M  V30 7250 C 667.556 -0.835367 2.1236 0
M  V30 7251 C 668.534 -1.24466 1.04627 0
M  V30 7252 O 669.718 -1.34138 1.32436 0
M  V30 7253 C 666.845 -2.12123 2.64048 0
M  V30 7254 C 665.891 -1.85812 3.83896 0
M  V30 7255 S 666.724 -1.05222 5.25061 0
M  V30 7256 C 667.88 -2.34935 5.80135 0
M  V30 7257 H 668.113 -0.364109 2.95062 0
M  V30 7258 H 665.646 -0.0706601 1.54238 0
M  V30 7259 H 667.604 -2.85993 2.94479 0
M  V30 7260 H 666.265 -2.56364 1.81483 0
M  V30 7261 H 665.458 -2.81151 4.18294 0
M  V30 7262 H 665.06 -1.20052 3.54208 0
M  V30 7263 H 667.352 -3.3061 5.91357 0
M  V30 7264 H 668.295 -2.05046 6.77762 0
M  V30 7265 H 668.703 -2.45426 5.08356 0
M  V30 7266 N 668.101 -1.57061 -0.130224 0
M  V30 7267 C 669.326 -1.88802 -0.858409 0
M  V30 7268 C 669.751 -0.734353 -1.73173 0
M  V30 7269 O 669.109 0.315529 -1.78533 0
M  V30 7270 C 669.157 -3.19228 -1.67708 0
M  V30 7271 O 668.261 -3.04343 -2.78297 0
M  V30 7272 H 667.602 -0.619849 -0.238083 0
M  V30 7273 H 670.132 -2.04271 -0.115995 0
M  V30 7274 H 670.142 -3.51669 -2.06864 0
M  V30 7275 H 668.817 -4.02793 -1.0359 0
M  V30 7276 H 667.394 -2.83346 -2.42425 0
M  V30 7277 N 669.579 0.400081 -1.52437 0
M  V30 7278 C 670.489 1.51253 -1.79331 0
M  V30 7279 C 671.505 1.60188 -0.679396 0
M  V30 7280 O 672.681 1.76733 -0.965791 0
M  V30 7281 C 669.746 2.869 -1.94652 0
M  V30 7282 C 668.807 2.87777 -3.18564 0
M  V30 7283 C 668.04 4.16954 -3.33145 0
M  V30 7284 O 668.263 5.11329 -2.52783 0
M  V30 7285 O 667.197 4.2487 -4.26343 0
M  V30 7286 H 671.023 1.31461 -2.73773 0
M  V30 7287 H 668.608 0.586834 -1.37392 0
M  V30 7288 H 670.49 3.67336 -2.065 0
M  V30 7289 H 669.165 3.06741 -1.034 0
M  V30 7290 H 668.072 2.06162 -3.12167 0
M  V30 7291 H 669.405 2.72886 -4.09627 0
M  V30 7292 N 671.057 1.43213 0.657864 0
M  V30 7293 C 672.334 1.35063 1.41483 0
M  V30 7294 C 672.714 -0.0038314 2.111 0
M  V30 7295 O 672.062 -1.02018 2.04462 0
M  V30 7296 C 672.272 2.53061 2.40335 0
M  V30 7297 C 673.62 2.9594 3.04474 0
M  V30 7298 O 674.644 2.53074 2.50663 0
M  V30 7299 O 673.503 3.70184 4.02027 0
M  V30 7300 H 670.597 0.533517 0.631893 0
M  V30 7301 H 673.143 1.55253 0.685162 0
M  V30 7302 H 671.915 3.43283 1.87809 0
M  V30 7303 H 671.538 2.34945 3.20759 0
M  V30 7304 N 672.536 -0.895792 1.29666 0
M  V30 7305 C 673.446 -2.03329 1.17024 0
M  V30 7306 C 674.462 -1.73753 0.0925962 0
M  V30 7307 O 675.638 -1.99071 0.305431 0
M  V30 7308 C 672.703 -3.36072 0.851841 0
M  V30 7309 C 671.764 -3.7914 2.01373 0
M  V30 7310 C 670.997 -5.05549 1.71043 0
M  V30 7311 O 671.22 -5.66874 0.633213 0
M  V30 7312 O 670.154 -5.44764 2.5596 0
M  V30 7313 H 673.98 -2.16918 2.12556 0
M  V30 7314 H 671.565 -1.02007 1.09156 0
M  V30 7315 H 673.447 -4.15729 0.689006 0
M  V30 7316 H 672.122 -3.23616 -0.0736634 0
M  V30 7317 H 671.029 -3.00233 2.23183 0
M  V30 7318 H 672.362 -3.96186 2.92058 0
M  V30 7319 N 674.014 -1.12206 -1.10668 0
M  V30 7320 C 675.261 -0.875875 -1.82578 0
M  V30 7321 C 675.589 0.598342 -1.85068 0
M  V30 7322 O 674.844 1.45818 -1.3052 0
M  V30 7323 C 675.143 -1.39276 -3.29146 0
M  V30 7324 C 674.809 -2.8816 -3.46806 0
M  V30 7325 C 673.471 -3.28813 -3.51334 0
M  V30 7326 C 675.823 -3.8401 -3.52399 0
M  V30 7327 C 673.151 -4.64028 -3.59019 0
M  V30 7328 C 675.503 -5.19053 -3.61617 0
M  V30 7329 C 674.167 -5.59252 -3.64408 0
M  V30 7330 H 673.437 -0.320505 -0.6681 0
M  V30 7331 H 676.084 -1.40184 -1.30464 0
M  V30 7332 H 674.389 -0.787207 -3.8381 0
M  V30 7333 H 676.086 -1.17851 -3.83291 0
M  V30 7334 H 672.676 -2.55716 -3.43958 0
M  V30 7335 H 676.86 -3.53698 -3.48154 0
M  V30 7336 H 672.116 -4.94568 -3.59461 0
M  V30 7337 H 676.29 -5.93152 -3.64889 0
M  V30 7338 H 673.917 -6.64017 -3.70116 0
M  V30 7339 N 675.492 1.28418 -0.913599 0
M  V30 7340 C 676.739 1.94981 -0.546674 0
M  V30 7341 C 677.067 1.7192 0.909606 0
M  V30 7342 O 676.322 1.03314 1.66207 0
M  V30 7343 C 676.621 3.48283 -0.802099 0
M  V30 7344 C 676.287 3.91444 -2.2379 0
M  V30 7345 C 674.949 4.02939 -2.63046 0
M  V30 7346 C 677.301 4.13542 -3.17227 0
M  V30 7347 C 674.629 4.3391 -3.94891 0
M  V30 7348 C 676.981 4.45992 -4.48636 0
M  V30 7349 C 675.645 4.55698 -4.87746 0
M  V30 7350 H 674.915 0.713487 -0.200042 0
M  V30 7351 H 677.562 1.52756 -1.15489 0
M  V30 7352 H 675.867 3.91643 -0.111076 0
M  V30 7353 H 677.564 3.97903 -0.497375 0
M  V30 7354 H 674.154 3.83024 -1.9233 0
M  V30 7355 H 678.338 4.04114 -2.88107 0
M  V30 7356 H 673.594 4.39631 -4.24894 0
M  V30 7357 H 677.768 4.62038 -5.21051 0
M  V30 7358 H 675.395 4.79451 -5.89942 0
M  V30 7359 N 676.97 0.677563 1.42291 0
M  V30 7360 C 677.902 -0.0380218 2.29168 0
M  V30 7361 C 678.915 -0.762714 1.43828 0
M  V30 7362 O 680.104 -0.616413 1.67519 0
M  V30 7363 C 677.204 -1.07761 3.21311 0
M  V30 7364 C 676.377 -0.42618 4.35319 0
M  V30 7365 C 675.436 -1.36592 5.08162 0
M  V30 7366 O 674.462 -0.865174 5.62586 0
M  V30 7367 N 675.664 -2.69909 5.13935 0
M  V30 7368 H 678.429 0.707766 2.91223 0
M  V30 7369 H 675.99 0.52219 1.53247 0
M  V30 7370 H 677.982 -1.70761 3.6691 0
M  V30 7371 H 676.552 -1.72511 2.60689 0
M  V30 7372 H 675.772 0.383385 3.92331 0
M  V30 7373 H 677.06 0.0275277 5.08793 0
M  V30 7374 H 676.458 -3.13129 4.71134 0
M  V30 7375 H 675.015 -3.2815 5.6317 0
M  V30 7376 N 678.448 -1.51871 0.421078 0
M  V30 7377 C 679.358 -2.31077 -0.405069 0
M  V30 7378 C 680.374 -1.39301 -1.04265 0
M  V30 7379 O 681.55 -1.72376 -1.04157 0
M  V30 7380 C 678.615 -3.12556 -1.50032 0
M  V30 7381 C 677.676 -4.20088 -0.884559 0
M  V30 7382 C 676.909 -4.97673 -1.92762 0
M  V30 7383 O 677.132 -4.75696 -3.14753 0
M  V30 7384 O 676.066 -5.82203 -1.52719 0
M  V30 7385 H 679.892 -3.02742 0.241086 0
M  V30 7386 H 677.477 -1.48263 0.183991 0
M  V30 7387 H 679.359 -3.6326 -2.13589 0
M  V30 7388 H 678.034 -2.43672 -2.13086 0
M  V30 7389 H 676.941 -3.73502 -0.211379 0
M  V30 7390 H 678.274 -4.91298 -0.297763 0
M  V30 7391 N 679.926 -0.151884 -1.56866 0
M  V30 7392 C 680.889 0.771861 -2.15812 0
M  V30 7393 C 681.889 1.17181 -1.10115 0
M  V30 7394 O 683.079 1.09194 -1.35729 0
M  V30 7395 C 680.211 2.04806 -2.7252 0
M  V30 7396 H 681.404 0.259021 -2.98779 0
M  V30 7397 H 678.957 0.097588 -1.55995 0
M  V30 7398 H 679.692 2.60445 -1.93233 0
M  V30 7399 H 679.477 1.77044 -3.49854 0
M  V30 7400 H 680.967 2.70771 -3.1792 0
M  V30 7401 N 681.404 1.57128 0.121893 0
M  V30 7402 C 682.336 1.96773 1.17529 0
M  V30 7403 C 683.349 0.866668 1.37814 0
M  V30 7404 O 684.538 1.14497 1.3694 0
M  V30 7405 C 681.638 2.24832 2.53582 0
M  V30 7406 C 680.811 3.56138 2.53939 0
M  V30 7407 C 679.87 3.72443 3.71716 0
M  V30 7408 O 678.896 4.44584 3.55434 0
M  V30 7409 N 680.098 3.10993 4.90167 0
M  V30 7410 H 682.863 2.87743 0.838086 0
M  V30 7411 H 680.424 1.58881 0.311199 0
M  V30 7412 H 682.416 2.32958 3.30927 0
M  V30 7413 H 680.986 1.40002 2.79496 0
M  V30 7414 H 680.206 3.59226 1.62329 0
M  V30 7415 H 681.494 4.42448 2.51231 0
M  V30 7416 H 680.892 2.52345 5.06299 0
M  V30 7417 H 679.449 3.24644 5.65198 0
M  V30 7418 N 682.882 -0.391992 1.52647 0
M  V30 7419 C 684.11 -1.1586 1.71418 0
M  V30 7420 C 684.525 -1.8381 0.431216 0
M  V30 7421 O 683.882 -1.7256 -0.594085 0
M  V30 7422 C 683.933 -2.20888 2.86165 0
M  V30 7423 O 683.654 -1.5571 4.09495 0
M  V30 7424 C 685.155 -3.103 3.1659 0
M  V30 7425 H 682.375 -0.347494 0.574011 0
M  V30 7426 H 684.919 -0.458972 1.99283 0
M  V30 7427 H 683.074 -2.86492 2.6077 0
M  V30 7428 H 683.488 -2.25474 4.73563 0
M  V30 7429 H 684.962 -3.8003 4.00351 0
M  V30 7430 H 685.439 -3.73639 2.30848 0
M  V30 7431 H 686.045 -2.50345 3.43813 0
M  V30 7432 N 684.36 -1.4356 -0.65026 0
M  V30 7433 C 685.293 -1.434 -1.77515 0
M  V30 7434 C 686.271 -0.295082 -1.599 0
M  V30 7435 O 687.455 -0.489128 -1.82043 0
M  V30 7436 C 684.582 -1.2484 -3.14853 0
M  V30 7437 C 683.628 -2.42046 -3.51163 0
M  V30 7438 S 684.461 -4.04595 -3.50803 0
M  V30 7439 C 685.617 -3.88424 -4.90793 0
M  V30 7440 H 685.85 -2.38586 -1.77381 0
M  V30 7441 H 683.383 -1.30627 -0.823169 0
M  V30 7442 H 685.341 -1.14819 -3.94115 0
M  V30 7443 H 684.002 -0.311977 -3.12547 0
M  V30 7444 H 683.195 -2.24873 -4.51052 0
M  V30 7445 H 682.797 -2.48708 -2.79321 0
M  V30 7446 H 685.089 -3.50932 -5.79528 0
M  V30 7447 H 686.032 -4.88076 -5.13018 0
M  V30 7448 H 686.44 -3.20829 -4.64467 0
M  V30 7449 N 685.838 0.888903 -1.30139 0
M  V30 7450 C 686.771 1.99655 -1.10514 0
M  V30 7451 C 687.749 1.62594 -0.0138934 0
M  V30 7452 O 688.933 1.87762 -0.166689 0
M  V30 7453 C 686.06 3.31708 -0.684655 0
M  V30 7454 C 685.106 3.87755 -1.77619 0
M  V30 7455 S 685.939 4.15532 -3.37777 0
M  V30 7456 C 687.095 5.5061 -2.97622 0
M  V30 7457 H 687.328 2.15996 -2.04287 0
M  V30 7458 H 684.861 1.03682 -1.14409 0
M  V30 7459 H 686.819 4.08039 -0.448782 0
M  V30 7460 H 685.48 3.1323 0.233648 0
M  V30 7461 H 684.673 4.83164 -1.43417 0
M  V30 7462 H 684.275 3.18149 -1.96614 0
M  V30 7463 H 686.567 6.31518 -2.45338 0
M  V30 7464 H 687.51 5.89747 -3.91924 0
M  V30 7465 H 687.918 5.12983 -2.35603 0
M  V30 7466 N 687.317 1.12792 1.10072 0
M  V30 7467 C 688.264 0.79921 2.16521 0
M  V30 7468 C 689.234 -0.235726 1.64419 0
M  V30 7469 O 690.419 -0.109457 1.90486 0
M  V30 7470 C 687.559 0.264091 3.44088 0
M  V30 7471 C 686.672 1.35729 4.10124 0
M  V30 7472 C 685.807 0.781212 5.25424 0
M  V30 7473 C 684.846 1.85327 5.8337 0
M  V30 7474 N 683.983 1.29564 6.90042 0
M  V30 7475 H 688.823 1.71105 2.43981 0
M  V30 7476 H 686.36 0.854225 1.19756 0
M  V30 7477 H 688.318 -0.0642423 4.17151 0
M  V30 7478 H 686.948 -0.610901 3.16967 0
M  V30 7479 H 686 1.80234 3.34993 0
M  V30 7480 H 687.312 2.16782 4.4923 0
M  V30 7481 H 686.466 0.403769 6.05355 0
M  V30 7482 H 685.205 -0.0604686 4.87663 0
M  V30 7483 H 684.21 2.23986 5.02106 0
M  V30 7484 H 685.435 2.69824 6.23195 0
M  V30 7485 H 683.381 0.475844 6.54272 0
M  V30 7486 H 683.298 2.04271 7.2788 0
M  V30 7487 H 684.566 0.945545 7.73744 0
M  V30 7488 N 688.795 -1.27931 0.920396 0
M  V30 7489 C 689.725 -2.29487 0.431024 0
M  V30 7490 C 690.706 -1.62435 -0.504861 0
M  V30 7491 O 691.891 -1.89797 -0.411176 0
M  V30 7492 C 689.021 -3.45788 -0.323709 0
M  V30 7493 C 687.975 -4.24784 0.523658 0
M  V30 7494 C 687.301 -5.33488 -0.359809 0
M  V30 7495 C 688.601 -4.90874 1.78437 0
M  V30 7496 H 690.295 -2.70671 1.27975 0
M  V30 7497 H 687.841 -1.30121 0.616813 0
M  V30 7498 H 689.794 -4.15927 -0.676952 0
M  V30 7499 H 688.518 -3.03502 -1.2064 0
M  V30 7500 H 687.177 -3.56382 0.85951 0
M  V30 7501 H 686.825 -4.87445 -1.24124 0
M  V30 7502 H 686.525 -5.87247 0.203605 0
M  V30 7503 H 688.049 -6.06472 -0.708787 0
M  V30 7504 H 689.463 -5.53339 1.49963 0
M  V30 7505 H 687.86 -5.54659 2.29071 0
M  V30 7506 H 688.93 -4.14988 2.50824 0
M  V30 7507 N 690.273 -0.685099 -1.4193 0
M  V30 7508 C 691.498 -0.218842 -2.06242 0
M  V30 7509 C 691.923 1.11923 -1.51178 0
M  V30 7510 O 691.281 1.69837 -0.634446 0
M  V30 7511 C 691.329 -0.175592 -3.60172 0
M  V30 7512 O 690.433 0.852776 -4.03487 0
M  V30 7513 H 689.774 -0.109531 -0.654904 0
M  V30 7514 H 692.304 -0.937013 -1.81882 0
M  V30 7515 H 692.314 -0.00291151 -4.08 0
M  V30 7516 H 690.989 -1.15222 -3.99621 0
M  V30 7517 H 689.566 0.650301 -3.67186 0
M  V30 7518 N 691.751 1.51645 -0.429126 0
M  V30 7519 C 692.701 2.24388 0.404217 0
M  V30 7520 C 693.685 1.26294 0.996933 0
M  V30 7521 O 694.877 1.51428 0.916434 0
M  V30 7522 C 692.006 3.08338 1.50938 0
M  V30 7523 C 691.092 4.13857 0.926464 0
M  V30 7524 N 691.483 5.05749 0.0719732 0
M  V30 7525 C 689.781 4.29695 1.19491 0
M  V30 7526 C 690.482 5.81143 -0.254528 0
M  V30 7527 N 689.458 5.42408 0.359763 0
M  V30 7528 H 693.26 2.92794 -0.254697 0
M  V30 7529 H 690.774 1.60606 -0.240712 0
M  V30 7530 H 692.771 3.59022 2.11918 0
M  V30 7531 H 691.431 2.41475 2.17072 0
M  V30 7532 H 692.442 5.17066 -0.293854 0
M  V30 7533 H 689.119 3.74059 1.85434 0
M  V30 7534 H 690.509 6.65159 -0.949365 0
M  V30 7535 N 693.229 0.160201 1.56784 0
M  V30 7536 C 694.64 -0.358417 1.83227 0
M  V30 7537 C 694.991 -1.63831 1.07952 0
M  V30 7538 O 694.116 -2.13885 0.328995 0
M  V30 7539 C 694.711 -0.657058 3.32368 0
M  V30 7540 C 693.27 -1.12015 3.59346 0
M  V30 7541 C 692.417 -0.15015 2.76893 0
M  V30 7542 H 695.368 0.384669 1.53967 0
M  V30 7543 H 695.389 -1.51033 3.49241 0
M  V30 7544 H 694.901 0.274647 3.87127 0
M  V30 7545 H 693.002 -2.06734 3.09987 0
M  V30 7546 H 693.115 -1.037 4.67743 0
M  V30 7547 H 691.479 -0.645361 2.46388 0
M  V30 7548 H 692.262 0.775379 3.34429 0
M  V30 7549 N 694.707 -1.5719 -0.113559 0
M  V30 7550 C 695.654 -2.00736 -1.13901 0
M  V30 7551 C 696.624 -0.88044 -1.40846 0
M  V30 7552 O 697.809 -1.14507 -1.5262 0
M  V30 7553 C 694.949 -2.42132 -2.45899 0
M  V30 7554 C 694.062 -3.68264 -2.25844 0
M  V30 7555 C 693.197 -3.98617 -3.5111 0
M  V30 7556 C 692.236 -5.17915 -3.26236 0
M  V30 7557 N 691.373 -5.44111 -4.4372 0
M  V30 7558 H 696.213 -2.88128 -0.760677 0
M  V30 7559 H 693.75 -1.42523 -0.364099 0
M  V30 7560 H 695.708 -2.6417 -3.22908 0
M  V30 7561 H 694.338 -1.57775 -2.81615 0
M  V30 7562 H 693.39 -3.53809 -1.39726 0
M  V30 7563 H 694.702 -4.55425 -2.03444 0
M  V30 7564 H 693.856 -4.21333 -4.36536 0
M  V30 7565 H 692.595 -3.09942 -3.76546 0
M  V30 7566 H 691.6 -4.95038 -2.39202 0
M  V30 7567 H 692.825 -6.08172 -3.02165 0
M  V30 7568 H 690.771 -4.58394 -4.69266 0
M  V30 7569 H 690.688 -6.25606 -4.24444 0
M  V30 7570 H 691.956 -5.71351 -5.30263 0
M  V30 7571 N 696.185 0.383891 -1.52853 0
M  V30 7572 C 697.115 1.47559 -1.80965 0
M  V30 7573 C 698.096 1.5669 -0.661986 0
M  V30 7574 O 699.281 1.71556 -0.910072 0
M  V30 7575 C 696.411 2.85114 -1.98312 0
M  V30 7576 C 695.365 2.9082 -3.14019 0
M  V30 7577 C 694.691 4.30873 -3.16627 0
M  V30 7578 C 695.991 2.60001 -4.52986 0
M  V30 7579 H 697.685 1.24283 -2.72386 0
M  V30 7580 H 695.231 0.596445 -1.31067 0
M  V30 7581 H 697.184 3.61496 -2.16561 0
M  V30 7582 H 695.908 3.09738 -1.03585 0
M  V30 7583 H 694.567 2.16886 -2.9556 0
M  V30 7584 H 694.215 4.52545 -2.19573 0
M  V30 7585 H 693.915 4.3561 -3.94357 0
M  V30 7586 H 695.439 5.09154 -3.37038 0
M  V30 7587 H 696.853 3.261 -4.71521 0
M  V30 7588 H 695.25 2.76081 -5.32822 0
M  V30 7589 H 696.32 1.5532 -4.59351 0
M  V30 7590 N 697.663 1.43903 0.642637 0
M  V30 7591 C 698.909 1.46296 1.40447 0
M  V30 7592 C 699.242 0.0908361 1.93987 0
M  V30 7593 O 698.517 -0.889884 1.72949 0
M  V30 7594 C 698.8 2.51399 2.57819 0
M  V30 7595 C 698.653 3.97926 2.09702 0
M  V30 7596 C 699.972 2.53125 3.60022 0
M  V30 7597 H 697.091 0.532676 0.509338 0
M  V30 7598 H 699.733 1.75515 0.727635 0
M  V30 7599 H 697.883 2.26614 3.1556 0
M  V30 7600 H 699.555 4.33804 1.5688 0
M  V30 7601 H 697.798 4.10252 1.40982 0
M  V30 7602 H 698.469 4.67096 2.94152 0
M  V30 7603 H 700.945 2.75242 3.12059 0
M  V30 7604 H 699.821 3.28589 4.39682 0
M  V30 7605 H 700.082 1.56895 4.13324 0
M  V30 7606 N 699.141 -0.881989 1.30609 0
M  V30 7607 C 700.088 -1.98803 1.17244 0
M  V30 7608 C 701.058 -1.65987 0.0611905 0
M  V30 7609 O 702.243 -1.89385 0.231911 0
M  V30 7610 C 699.383 -3.33867 0.87333 0
M  V30 7611 C 698.496 -3.79354 2.06675 0
M  V30 7612 C 697.631 -5.03078 1.70547 0
M  V30 7613 C 696.67 -5.40981 2.86366 0
M  V30 7614 N 695.807 -6.55886 2.50514 0
M  V30 7615 H 700.647 -2.09566 2.11863 0
M  V30 7616 H 698.184 -1.02607 1.05405 0
M  V30 7617 H 700.142 -4.11612 0.680519 0
M  V30 7618 H 698.772 -3.2278 -0.0359983 0
M  V30 7619 H 697.824 -2.97492 2.37071 0
M  V30 7620 H 699.136 -4.03382 2.93401 0
M  V30 7621 H 698.29 -5.88457 1.47658 0
M  V30 7622 H 697.029 -4.80927 0.809947 0
M  V30 7623 H 696.034 -4.54127 3.09917 0
M  V30 7624 H 697.259 -5.65104 3.76609 0
M  V30 7625 H 695.205 -6.35306 1.63471 0
M  V30 7626 H 695.122 -6.79799 3.30771 0
M  V30 7627 H 696.39 -7.44489 2.30989 0
M  V30 7628 N 700.619 -1.13374 -1.09472 0
M  V30 7629 C 701.866 -0.89519 -1.81639 0
M  V30 7630 C 702.194 0.57868 -1.85692 0
M  V30 7631 O 701.449 1.44426 -1.32059 0
M  V30 7632 C 701.748 -1.42759 -3.2765 0
M  V30 7633 C 701.414 -2.91822 -3.43731 0
M  V30 7634 C 700.076 -3.32521 -3.47827 0
M  V30 7635 C 702.428 -3.87727 -3.48307 0
M  V30 7636 C 699.756 -4.6781 -3.54078 0
M  V30 7637 C 702.108 -5.22859 -3.56091 0
M  V30 7638 C 700.772 -5.63086 -3.58456 0
M  V30 7639 H 700.042 -0.327573 -0.664663 0
M  V30 7640 H 702.689 -1.4156 -1.28969 0
M  V30 7641 H 700.994 -0.827871 -3.82954 0
M  V30 7642 H 702.691 -1.2191 -3.8202 0
M  V30 7643 H 699.281 -2.5935 -3.41226 0
M  V30 7644 H 703.465 -3.57371 -3.44383 0
M  V30 7645 H 698.721 -4.98353 -3.54195 0
M  V30 7646 H 702.895 -5.96989 -3.58577 0
M  V30 7647 H 700.522 -6.67905 -3.63052 0
M  V30 7648 N 702.098 1.27442 -0.927168 0
M  V30 7649 C 703.328 1.9821 -0.582775 0
M  V30 7650 C 703.736 1.69361 0.843406 0
M  V30 7651 O 703.079 0.950381 1.57205 0
M  V30 7652 C 703.141 3.52048 -0.728165 0
M  V30 7653 C 702.805 4.04518 -2.12637 0
M  V30 7654 C 703.802 4.17332 -3.10048 0
M  V30 7655 C 701.487 4.38879 -2.44317 0
M  V30 7656 C 703.481 4.6378 -4.37249 0
M  V30 7657 C 701.168 4.85018 -3.71753 0
M  V30 7658 C 702.166 4.97428 -4.68033 0
M  V30 7659 O 701.854 5.42556 -5.93202 0
M  V30 7660 H 701.586 0.639314 -0.219667 0
M  V30 7661 H 704.14 1.63272 -1.24626 0
M  V30 7662 H 702.37 3.86699 -0.00758143 0
M  V30 7663 H 704.059 4.04033 -0.388906 0
M  V30 7664 H 704.825 3.91046 -2.86894 0
M  V30 7665 H 700.704 4.28462 -1.70121 0
M  V30 7666 H 704.248 4.73382 -5.12402 0
M  V30 7667 H 700.145 5.10746 -3.94726 0
M  V30 7668 H 700.913 5.60811 -5.96182 0
M  V30 7669 N 703.576 0.692616 1.41565 0
M  V30 7670 C 704.824 0.221896 2.00878 0
M  V30 7671 C 705.145 -1.18164 1.5512 0
M  V30 7672 O 704.415 -1.79679 0.78054 0
M  V30 7673 H 702.995 0.0790463 0.742806 0
M  V30 7674 H 705.657 0.893115 1.73232 0
M  V30 7675 H 704.753 0.23702 3.11199 0
M  V30 7676 N 705.054 -1.51416 0.437162 0
M  V30 7677 C 706.3 -2.02386 -0.129555 0
M  V30 7678 C 706.633 -1.32071 -1.42376 0
M  V30 7679 O 705.908 -0.43559 -1.8956 0
M  V30 7680 C 706.191 -3.5841 -0.348487 0
M  V30 7681 C 706.044 -4.39341 0.964352 0
M  V30 7682 C 707.363 -4.25654 -1.11834 0
M  V30 7683 H 704.482 -0.735587 -0.0456109 0
M  V30 7684 H 707.124 -1.81055 0.576124 0
M  V30 7685 H 705.274 -3.76716 -0.949592 0
M  V30 7686 H 706.946 -4.32685 1.59942 0
M  V30 7687 H 705.189 -4.04432 1.56898 0
M  V30 7688 H 705.86 -5.4667 0.765212 0
M  V30 7689 H 708.336 -4.11617 -0.609165 0
M  V30 7690 H 707.212 -5.34704 -1.24029 0
M  V30 7691 H 707.473 -3.86502 -2.14636 0
M  V30 7692 N 706.532 -0.168513 -1.56696 0
M  V30 7693 C 707.772 0.479648 -1.98693 0
M  V30 7694 C 708.136 1.60609 -1.05209 0
M  V30 7695 O 709.337 2.3166 -1.36334 0
M  V30 7696 C 707.608 0.952852 -3.44464 0
M  V30 7697 S 709.167 1.60259 -4.08488 0
M  V30 7698 H 705.985 0.154377 -0.694038 0
M  V30 7699 H 708.587 -0.265312 -1.93691 0
M  V30 7700 H 707.291 0.12257 -4.10217 0
M  V30 7701 H 706.822 1.73192 -3.53225 0
M  V30 7702 H 708.837 2.89065 -4.03307 0
M  V30 7703 N 708.01 1.57248 0.105221 0
M  V30 7704 C 709.235 1.90143 0.828264 0
M  V30 7705 C 709.66 0.761811 1.71983 0
M  V30 7706 O 709.018 -0.287086 1.79013 0
M  V30 7707 C 709.066 3.21856 1.62608 0
M  V30 7708 O 708.17 3.08732 2.7342 0
M  V30 7709 H 707.511 0.623558 0.228192 0
M  V30 7710 H 710.041 2.0443 0.0834826 0
M  V30 7711 H 710.051 3.54916 2.01243 0
M  V30 7712 H 708.726 4.0439 0.971687 0
M  V30 7713 H 707.303 2.87167 2.37886 0
M  V30 7714 N 709.488 -0.375779 1.53054 0
M  V30 7715 C 710.435 -1.45978 1.78771 0
M  V30 7716 C 711.405 -1.53625 0.631552 0
M  V30 7717 O 712.59 -1.69674 0.872667 0
M  V30 7718 C 709.73 -2.8305 1.97425 0
M  V30 7719 C 708.843 -2.84451 3.25134 0
M  V30 7720 C 707.978 -4.13034 3.34031 0
M  V30 7721 C 707.017 -4.08536 4.55812 0
M  V30 7722 N 706.154 -5.2875 4.61918 0
M  V30 7723 H 710.994 -1.23349 2.71273 0
M  V30 7724 H 708.531 -0.598147 1.3439 0
M  V30 7725 H 710.489 -3.62666 2.06225 0
M  V30 7726 H 709.119 -3.04101 1.0827 0
M  V30 7727 H 708.171 -1.97127 3.25338 0
M  V30 7728 H 709.483 -2.76998 4.14818 0
M  V30 7729 H 708.637 -5.0106 3.42087 0
M  V30 7730 H 707.376 -4.23226 2.42345 0
M  V30 7731 H 706.381 -3.18897 4.47867 0
M  V30 7732 H 707.606 -3.99955 5.48828 0
M  V30 7733 H 705.552 -5.39547 3.73129 0
M  V30 7734 H 705.469 -5.23426 5.45492 0
M  V30 7735 H 706.737 -6.18637 4.74245 0
M  V30 7736 N 710.966 -1.44241 -0.634997 0
M  V30 7737 C 711.876 -1.53293 -1.77591 0
M  V30 7738 C 712.892 -0.418831 -1.68884 0
M  V30 7739 O 714.068 -0.675619 -1.8973 0
M  V30 7740 C 711.133 -1.47075 -3.13958 0
M  V30 7741 C 710.194 -2.69304 -3.34326 0
M  V30 7742 C 709.427 -2.63374 -4.64187 0
M  V30 7743 O 709.65 -1.69161 -5.44739 0
M  V30 7744 O 708.584 -3.54166 -4.86673 0
M  V30 7745 H 712.41 -2.49673 -1.72908 0
M  V30 7746 H 709.995 -1.26445 -0.795745 0
M  V30 7747 H 711.877 -1.46117 -3.95257 0
M  V30 7748 H 710.552 -0.538373 -3.19192 0
M  V30 7749 H 709.459 -2.75831 -2.52721 0
M  V30 7750 H 710.792 -3.61576 -3.33951 0
M  V30 7751 N 712.444 0.87505 -1.31075 0
M  V30 7752 C 713.674 1.65818 -1.2324 0
M  V30 7753 C 714.082 1.8808 0.205536 0
M  V30 7754 O 713.425 1.43548 1.14628 0
M  V30 7755 C 713.487 3.05131 -1.90093 0
M  V30 7756 C 713.151 3.05999 -3.39432 0
M  V30 7757 C 714.148 2.84328 -4.35263 0
M  V30 7758 C 711.833 3.27281 -3.81041 0
M  V30 7759 C 713.827 2.83912 -5.70678 0
M  V30 7760 C 711.514 3.26493 -5.16571 0
M  V30 7761 C 712.512 3.04834 -6.112 0
M  V30 7762 O 712.2 3.03882 -7.44252 0
M  V30 7763 H 711.932 0.52387 -0.427242 0
M  V30 7764 H 714.486 1.10086 -1.73408 0
M  V30 7765 H 712.716 3.62568 -1.34468 0
M  V30 7766 H 714.405 3.65641 -1.76242 0
M  V30 7767 H 715.171 2.67673 -4.04445 0
M  V30 7768 H 711.05 3.43171 -3.07822 0
M  V30 7769 H 714.594 2.66925 -6.44513 0
M  V30 7770 H 710.491 3.42687 -5.47025 0
M  V30 7771 H 711.259 3.19979 -7.53363 0
M  V30 7772 N 713.922 1.13953 1.08869 0
M  V30 7773 C 715.333 0.916649 1.62648 0
M  V30 7774 C 715.684 -0.545589 1.88462 0
M  V30 7775 O 714.809 -1.41351 1.63856 0
M  V30 7776 C 715.404 1.65751 2.95486 0
M  V30 7777 C 713.963 1.48034 3.46068 0
M  V30 7778 C 713.11 1.68305 2.20383 0
M  V30 7779 H 716.061 1.292 0.921572 0
M  V30 7780 H 716.082 1.11794 3.63707 0
M  V30 7781 H 715.594 2.72171 2.76667 0
M  V30 7782 H 713.695 0.439416 3.7 0
M  V30 7783 H 713.808 2.24719 4.23129 0
M  V30 7784 H 712.172 1.10833 2.29321 0
M  V30 7785 H 712.955 2.76057 2.04077 0
M  V30 7786 N 715.4 -1.26948 0.933913 0
M  V30 7787 C 716.649 -1.93378 0.573409 0
M  V30 7788 C 716.962 -1.74148 -0.890614 0
M  V30 7789 O 718.168 -2.34971 -1.36017 0
M  V30 7790 C 716.624 -3.46449 0.974747 0
M  V30 7791 C 716.232 -3.74425 2.45988 0
M  V30 7792 C 717.976 -4.18924 0.685791 0
M  V30 7793 C 715.883 -5.209 2.8003 0
M  V30 7794 H 714.813 -0.723952 0.210736 0
M  V30 7795 H 717.464 -1.44143 1.13557 0
M  V30 7796 H 715.846 -3.94528 0.341181 0
M  V30 7797 H 717.02 -3.37079 3.14188 0
M  V30 7798 H 715.335 -3.15167 2.72138 0
M  V30 7799 H 717.932 -5.26786 0.916546 0
M  V30 7800 H 718.275 -4.14587 -0.377217 0
M  V30 7801 H 718.808 -3.76687 1.27874 0
M  V30 7802 H 715.547 -5.30332 3.85264 0
M  V30 7803 H 715.067 -5.59369 2.16485 0
M  V30 7804 H 716.746 -5.88837 2.68105 0
M  V30 7805 N 716.879 -0.700114 -1.41195 0
M  V30 7806 C 718.109 -0.241828 -2.0518 0
M  V30 7807 C 718.517 1.1157 -1.52803 0
M  V30 7808 O 717.86 1.70926 -0.673042 0
M  V30 7809 C 717.922 -0.12695 -3.59276 0
M  V30 7810 C 717.586 -1.41725 -4.34469 0
M  V30 7811 C 718.583 -2.35604 -4.63451 0
M  V30 7812 C 716.268 -1.67189 -4.73659 0
M  V30 7813 C 718.262 -3.53204 -5.3059 0
M  V30 7814 C 715.949 -2.85073 -5.40534 0
M  V30 7815 C 716.947 -3.77904 -5.68927 0
M  V30 7816 O 716.635 -4.93723 -6.34424 0
M  V30 7817 H 716.367 -0.109247 -0.667114 0
M  V30 7818 H 718.921 -0.954538 -1.81873 0
M  V30 7819 H 717.151 0.641571 -3.81341 0
M  V30 7820 H 718.84 0.294748 -4.04828 0
M  V30 7821 H 719.606 -2.1719 -4.33651 0
M  V30 7822 H 715.485 -0.957935 -4.50937 0
M  V30 7823 H 719.029 -4.25679 -5.52669 0
M  V30 7824 H 714.926 -3.03402 -5.69752 0
M  V30 7825 H 715.694 -4.93597 -6.5292 0
M  V30 7826 N 718.357 1.51182 -0.445186 0
M  V30 7827 C 719.606 2.01342 0.120189 0
M  V30 7828 C 719.919 1.33353 1.43095 0
M  V30 7829 O 721.125 1.74525 2.07974 0
M  V30 7830 C 719.581 3.58925 0.264732 0
M  V30 7831 C 719.189 4.35855 -1.03606 0
M  V30 7832 C 720.933 4.17208 0.783455 0
M  V30 7833 C 718.84 5.85162 -0.856731 0
M  V30 7834 H 717.77 0.752426 0.0486922 0
M  V30 7835 H 720.421 1.74221 -0.576143 0
M  V30 7836 H 718.803 3.82525 1.02425 0
M  V30 7837 H 719.977 4.23997 -1.80452 0
M  V30 7838 H 718.292 3.89062 -1.48391 0
M  V30 7839 H 720.889 5.26475 0.934239 0
M  V30 7840 H 721.232 3.76892 1.768 0
M  V30 7841 H 721.765 3.97715 0.0820346 0
M  V30 7842 H 718.504 6.29904 -1.81388 0
M  V30 7843 H 718.024 5.99663 -0.128206 0
M  V30 7844 H 719.703 6.44963 -0.513027 0
M  V30 7845 N 719.835 0.176821 1.56605 0
M  V30 7846 C 721.081 -0.467406 1.9734 0
M  V30 7847 C 721.414 -1.62523 1.06301 0
M  V30 7848 O 720.689 -1.94182 0.11125 0
M  V30 7849 C 720.972 -0.945106 3.47476 0
M  V30 7850 C 720.825 0.213273 4.49294 0
M  V30 7851 C 722.144 -1.8169 4.00845 0
M  V30 7852 H 719.263 -0.168426 0.717497 0
M  V30 7853 H 721.905 0.264065 1.88156 0
M  V30 7854 H 720.055 -1.56841 3.55434 0
M  V30 7855 H 721.727 0.850508 4.53392 0
M  V30 7856 H 719.97 0.867918 4.25029 0
M  V30 7857 H 720.641 -0.163187 5.51759 0
M  V30 7858 H 723.117 -1.29139 3.95553 0
M  V30 7859 H 721.993 -2.12015 5.06301 0
M  V30 7860 H 722.254 -2.76463 3.44994 0
M  V30 7861 N 721.313 -1.57302 -0.09688 0
M  V30 7862 C 722.541 -1.90202 -0.814295 0
M  V30 7863 C 722.956 -0.770344 -1.72369 0
M  V30 7864 O 722.313 0.257764 -1.8067 0
M  V30 7865 C 722.364 -3.22708 -1.62916 0
M  V30 7866 O 722.085 -4.31522 -0.756343 0
M  V30 7867 C 723.586 -3.69459 -2.44979 0
M  V30 7868 H 720.806 -0.629275 -0.232925 0
M  V30 7869 H 723.35 -2.04364 -0.0746482 0
M  V30 7870 H 721.505 -3.1015 -2.32133 0
M  V30 7871 H 721.919 -5.07604 -1.32054 0
M  V30 7872 H 723.393 -4.64875 -2.9765 0
M  V30 7873 H 723.87 -2.97211 -3.23361 0
M  V30 7874 H 724.476 -3.84879 -1.80964 0
M  V30 7875 N 722.791 0.367657 -1.53252 0
M  V30 7876 C 723.701 1.47415 -1.82499 0
M  V30 7877 C 724.717 1.58711 -0.713222 0
M  V30 7878 O 725.893 1.74644 -1.00306 0
M  V30 7879 C 722.958 2.82706 -2.00694 0
M  V30 7880 C 722.019 2.80955 -3.24596 0
M  V30 7881 C 721.252 4.09793 -3.41914 0
M  V30 7882 O 721.475 5.05852 -2.63572 0
M  V30 7883 O 720.409 4.15731 -4.3526 0
M  V30 7884 H 724.235 1.25624 -2.765 0
M  V30 7885 H 721.82 0.557559 -1.38606 0
M  V30 7886 H 723.702 3.62873 -2.14246 0
M  V30 7887 H 722.377 3.04479 -1.09883 0
M  V30 7888 H 721.284 1.99494 -3.16469 0
M  V30 7889 H 722.617 2.64136 -4.15323 0
M  V30 7890 N 724.269 1.44576 0.627338 0
M  V30 7891 C 725.499 1.50829 1.41189 0
M  V30 7892 C 725.907 0.133083 1.88731 0
M  V30 7893 O 725.25 -0.87199 1.61685 0
M  V30 7894 C 725.312 2.41449 2.66351 0
M  V30 7895 C 724.976 3.88549 2.40579 0
M  V30 7896 C 725.973 4.78981 2.0217 0
M  V30 7897 C 723.658 4.33287 2.54102 0
M  V30 7898 C 725.652 6.12153 1.77618 0
M  V30 7899 C 723.339 5.66505 2.29163 0
M  V30 7900 C 724.337 6.55756 1.9098 0
M  V30 7901 O 724.025 7.86506 1.66321 0
M  V30 7902 H 723.757 0.513797 0.439304 0
M  V30 7903 H 726.311 1.90256 0.774059 0
M  V30 7904 H 724.541 1.96955 3.32784 0
M  V30 7905 H 726.23 2.38608 3.28361 0
M  V30 7906 H 726.996 4.45689 1.91277 0
M  V30 7907 H 722.875 3.64074 2.82792 0
M  V30 7908 H 726.419 6.81776 1.47739 0
M  V30 7909 H 722.316 5.99358 2.39668 0
M  V30 7910 H 723.084 7.98341 1.80536 0
M  V30 7911 N 725.747 -0.868086 1.31537 0
M  V30 7912 C 726.996 -1.61607 1.20689 0
M  V30 7913 C 727.309 -1.94204 -0.233275 0
M  V30 7914 O 728.515 -2.67515 -0.463465 0
M  V30 7915 C 726.971 -2.91348 2.11292 0
M  V30 7916 C 726.579 -2.66227 3.60315 0
M  V30 7917 C 728.323 -3.69344 2.09249 0
M  V30 7918 C 726.23 -3.91887 4.42921 0
M  V30 7919 H 725.16 -0.606373 0.448138 0
M  V30 7920 H 727.811 -0.959666 1.56405 0
M  V30 7921 H 726.193 -3.58374 1.68477 0
M  V30 7922 H 727.367 -2.07597 4.11388 0
M  V30 7923 H 725.682 -2.01582 3.64354 0
M  V30 7924 H 728.279 -4.62567 2.68209 0
M  V30 7925 H 728.622 -4.02044 1.0801 0
M  V30 7926 H 729.155 -3.09205 2.50274 0
M  V30 7927 H 725.894 -3.64336 5.44922 0
M  V30 7928 H 725.414 -4.49961 3.96605 0
M  V30 7929 H 727.093 -4.59754 4.55231 0
M  V30 7930 N 727.225 -1.14528 -1.08264 0
M  V30 7931 C 728.45 -0.938381 -1.84957 0
M  V30 7932 C 728.875 0.508044 -1.81109 0
M  V30 7933 O 728.233 1.36146 -1.19724 0
M  V30 7934 C 728.281 -1.44568 -3.30352 0
M  V30 7935 O 727.385 -0.638745 -4.07423 0
M  V30 7936 H 726.726 -0.335394 -0.573068 0
M  V30 7937 H 729.256 -1.52287 -1.36637 0
M  V30 7938 H 729.266 -1.45449 -3.81194 0
M  V30 7939 H 727.941 -2.49876 -3.32468 0
M  V30 7940 H 726.518 -0.698801 -3.66294 0
M  V30 7941 N 728.703 1.26451 -0.940633 0
M  V30 7942 C 729.651 2.28389 -0.440581 0
M  V30 7943 C 730.645 1.62402 0.481859 0
M  V30 7944 O 731.851 1.76361 0.360132 0
M  V30 7945 H 728.226 0.741716 -0.123938 0
M  V30 7946 H 730.197 2.67967 -1.31288 0
M  V30 7947 C 728.946 3.46576 0.279364 0
M  V30 7948 H 728.269 3.97574 -0.421274 0
M  V30 7949 H 729.709 4.19826 0.59348 0
M  V30 7950 C 728.168 3.01815 1.49697 0
M  V30 7951 O 728.698 3.06607 2.59529 0
M  V30 7952 N 726.904 2.57163 1.35334 0
M  V30 7953 H 726.451 2.53464 0.459743 0
M  V30 7954 H 726.409 2.27578 2.16923 0
M  V30 7955 N 730.181 0.707592 1.40822 0
M  V30 7956 C 731.429 0.243189 2.00632 0
M  V30 7957 C 731.75 -1.16512 1.56365 0
M  V30 7958 O 731.02 -1.78841 0.799553 0
M  V30 7959 H 729.6 0.0869203 0.741926 0
M  V30 7960 H 732.262 0.911438 1.72275 0
M  V30 7961 H 731.358 0.270014 3.1093 0
M  V30 7962 N 731.66 -1.50943 0.453197 0
M  V30 7963 C 732.9 -2.0412 -0.106894 0
M  V30 7964 C 733.264 -1.32895 -1.38575 0
M  V30 7965 O 734.465 -1.76529 -2.02709 0
M  V30 7966 C 732.736 -3.561 -0.304565 0
M  V30 7967 S 734.295 -4.3096 -0.825784 0
M  V30 7968 H 731.113 -0.710581 -0.0243969 0
M  V30 7969 H 733.715 -1.85534 0.616239 0
M  V30 7970 H 732.419 -4.055 0.632277 0
M  V30 7971 H 731.95 -3.79009 -1.05433 0
M  V30 7972 H 733.965 -4.49503 -2.10147 0
M  V30 7973 N 733.138 -0.185124 -1.56509 0
M  V30 7974 C 734.068 0.735098 -2.21627 0
M  V30 7975 C 735.049 1.2288 -1.1762 0
M  V30 7976 O 736.234 1.27945 -1.46095 0
M  V30 7977 C 733.364 1.95889 -2.86783 0
M  V30 7978 C 732.318 1.6005 -3.96948 0
M  V30 7979 C 731.644 2.90009 -4.4922 0
M  V30 7980 C 732.944 0.818008 -5.15855 0
M  V30 7981 H 734.638 0.192274 -2.98782 0
M  V30 7982 H 732.184 0.0910393 -1.43712 0
M  V30 7983 H 734.137 2.60779 -3.31017 0
M  V30 7984 H 732.861 2.52608 -2.07018 0
M  V30 7985 H 731.52 0.975237 -3.5339 0
M  V30 7986 H 731.168 3.44797 -3.6623 0
M  V30 7987 H 730.868 2.66778 -5.23549 0
M  V30 7988 H 732.392 3.55904 -4.9615 0
M  V30 7989 H 733.806 1.36979 -5.56695 0
M  V30 7990 H 732.203 0.684207 -5.96187 0
M  V30 7991 H 733.273 -0.182939 -4.84555 0
M  V30 7992 N 734.616 1.57351 0.0885366 0
M  V30 7993 C 735.546 2.05561 1.10757 0
M  V30 7994 C 736.527 0.945789 1.41382 0
M  V30 7995 O 737.712 1.21747 1.51299 0
M  V30 7996 C 734.842 2.48554 2.42566 0
M  V30 7997 C 733.796 3.63259 2.26334 0
M  V30 7998 C 733.122 3.9225 3.63378 0
M  V30 7999 C 734.422 4.93913 1.69844 0
M  V30 8000 H 736.116 2.90946 0.706468 0
M  V30 8001 H 733.662 1.39968 0.338385 0
M  V30 8002 H 735.615 2.8089 3.14132 0
M  V30 8003 H 734.339 1.60176 2.84625 0
M  V30 8004 H 732.998 3.31179 1.57213 0
M  V30 8005 H 732.646 3.0103 4.02976 0
M  V30 8006 H 732.346 4.69478 3.53362 0
M  V30 8007 H 733.87 4.27067 4.36401 0
M  V30 8008 H 735.284 5.24588 2.31258 0
M  V30 8009 H 733.681 5.75349 1.70569 0
M  V30 8010 H 734.751 4.80409 0.65843 0
M  V30 8011 N 736.094 -0.359525 1.53444 0
M  V30 8012 C 737.042 -1.46104 1.80987 0
M  V30 8013 C 738.036 -1.55181 0.679351 0
M  V30 8014 O 739.242 -1.57995 0.862405 0
M  V30 8015 H 735.617 -0.486835 0.573145 0
M  V30 8016 H 737.588 -1.2008 2.73173 0
M  V30 8017 C 736.337 -2.82855 2.02208 0
M  V30 8018 H 735.66 -2.76631 2.88644 0
M  V30 8019 H 737.1 -3.59091 2.25455 0
M  V30 8020 C 735.559 -3.27192 0.802931 0
M  V30 8021 O 736.089 -4.017 -0.00544286 0
M  V30 8022 N 734.295 -2.83807 0.624657 0
M  V30 8023 H 733.842 -2.23339 1.28364 0
M  V30 8024 H 733.8 -3.13828 -0.189641 0
M  V30 8025 N 737.572 -1.44907 -0.619662 0
M  V30 8026 C 738.802 -1.51575 -1.40387 0
M  V30 8027 C 739.21 -0.14309 -1.88658 0
M  V30 8028 O 738.553 0.863403 -1.62145 0
M  V30 8029 C 738.615 -2.42858 -2.65067 0
M  V30 8030 C 738.279 -3.8982 -2.38515 0
M  V30 8031 C 739.276 -4.80047 -1.99627 0
M  V30 8032 C 736.961 -4.34628 -2.51801 0
M  V30 8033 C 738.955 -6.13086 -1.74369 0
M  V30 8034 C 736.642 -5.67712 -2.26156 0
M  V30 8035 C 737.64 -6.56759 -1.875 0
M  V30 8036 O 737.328 -7.87377 -1.62148 0
M  V30 8037 H 737.06 -0.51612 -0.436573 0
M  V30 8038 H 739.614 -1.90664 -0.763959 0
M  V30 8039 H 737.844 -1.98717 -3.31735 0
M  V30 8040 H 739.533 -2.40346 -3.27091 0
M  V30 8041 H 740.299 -4.46697 -1.8891 0
M  V30 8042 H 736.178 -3.65568 -2.80857 0
M  V30 8043 H 739.722 -6.8255 -1.44122 0
M  V30 8044 H 735.619 -6.0062 -2.36486 0
M  V30 8045 H 736.387 -7.99288 -1.763 0
M  V30 8046 N 739.05 0.861098 -1.31996 0
M  V30 8047 C 739.98 1.98482 -1.22993 0
M  V30 8048 C 740.961 1.6971 -0.115168 0
M  V30 8049 O 742.146 1.91849 -0.30126 0
M  V30 8050 C 739.276 3.34179 -0.945615 0
M  V30 8051 C 738.23 3.77284 -2.02091 0
M  V30 8052 C 737.556 5.1054 -1.58912 0
M  V30 8053 C 738.856 3.93439 -3.43515 0
M  V30 8054 H 740.55 2.06271 -2.17008 0
M  V30 8055 H 738.096 0.991043 -1.04472 0
M  V30 8056 H 740.049 4.12338 -0.869206 0
M  V30 8057 H 738.773 3.26586 0.0301849 0
M  V30 8058 H 737.432 3.01371 -2.08737 0
M  V30 8059 H 737.08 4.99397 -0.600942 0
M  V30 8060 H 736.78 5.40352 -2.30854 0
M  V30 8061 H 738.304 5.91199 -1.52696 0
M  V30 8062 H 739.718 4.6197 -3.39495 0
M  V30 8063 H 738.115 4.34661 -4.13751 0
M  V30 8064 H 739.185 2.96548 -3.8365 0
M  V30 8065 N 740.528 1.15101 1.07655 0
M  V30 8066 C 741.944 0.893004 1.32279 0
M  V30 8067 C 742.144 -0.461701 1.96139 0
M  V30 8068 O 741.2 -1.20431 2.21929 0
M  V30 8069 C 742.513 2.03161 2.21689 0
M  V30 8070 C 744.061 2.06579 2.35147 0
M  V30 8071 C 744.536 3.19754 3.27905 0
M  V30 8072 N 746.027 3.19382 3.35484 0
M  V30 8073 C 746.762 4.03592 4.07309 0
M  V30 8074 N 746.258 4.97859 4.81776 0
M  V30 8075 N 748.051 3.91626 4.03219 0
M  V30 8076 H 740.202 2.02341 0.645886 0
M  V30 8077 H 742.465 0.882127 0.347211 0
M  V30 8078 H 742.171 3.00934 1.82021 0
M  V30 8079 H 742.045 1.96132 3.22199 0
M  V30 8080 H 744.432 1.09408 2.74069 0
M  V30 8081 H 744.513 2.17676 1.34353 0
M  V30 8082 H 744.157 4.17175 2.89702 0
M  V30 8083 H 744.087 3.05893 4.28645 0
M  V30 8084 H 746.578 2.51112 2.82403 0
M  V30 8085 H 746.891 5.58563 5.34067 0
M  V30 8086 H 745.236 5.0185 4.80803 0
M  V30 8087 H 748.427 3.17295 3.44154 0
M  V30 8088 H 748.6 4.57479 4.5893 0
M  V30 8089 N 742.006 -1.2595 0.947325 0
M  V30 8090 C 743.231 -1.98083 0.614633 0
M  V30 8091 C 743.656 -1.70013 -0.804815 0
M  V30 8092 O 743.014 -0.95175 -1.54309 0
M  V30 8093 C 743.062 -3.4993 0.870706 0
M  V30 8094 O 742.166 -4.12364 -0.0541451 0
M  V30 8095 H 741.507 -0.621232 0.234451 0
M  V30 8096 H 744.037 -1.60259 1.27193 0
M  V30 8097 H 744.047 -4.00198 0.794051 0
M  V30 8098 H 742.722 -3.69691 1.90529 0
M  V30 8099 H 741.299 -3.72826 0.0740917 0
M  V30 8100 N 743.484 -0.715051 -1.40445 0
M  V30 8101 C 744.434 -0.038591 -2.27967 0
M  V30 8102 C 745.418 0.733099 -1.43229 0
M  V30 8103 O 746.61 0.605388 -1.66325 0
M  V30 8104 C 743.739 0.882801 -3.31755 0
M  V30 8105 C 742.825 0.106325 -4.23967 0
M  V30 8106 N 743.216 -0.910143 -4.97544 0
M  V30 8107 C 741.514 0.33896 -4.4471 0
M  V30 8108 C 742.215 -1.37665 -5.65175 0
M  V30 8109 N 741.191 -0.698905 -5.39088 0
M  V30 8110 H 744.993 -0.81765 -2.82297 0
M  V30 8111 H 742.507 -0.547591 -1.5289 0
M  V30 8112 H 744.504 1.38273 -3.93302 0
M  V30 8113 H 743.164 1.66124 -2.78985 0
M  V30 8114 H 744.175 -1.29097 -5.01552 0
M  V30 8115 H 740.852 1.09377 -4.02918 0
M  V30 8116 H 742.242 -2.22122 -6.34123 0
M  V30 8117 N 744.962 1.50701 -0.461195 0
M  V30 8118 C 746.21 2.01867 0.0970051 0
M  V30 8119 C 746.531 1.34591 1.41104 0
M  V30 8120 O 745.801 0.488041 1.89723 0
M  V30 8121 H 744.381 0.74599 0.0388392 0
M  V30 8122 H 747.043 1.85129 -0.609357 0
M  V30 8123 H 746.139 3.11051 0.255688 0
M  V30 8124 N 746.441 0.193421 1.56409 0
M  V30 8125 C 747.388 -0.728124 2.19014 0
M  V30 8126 C 748.358 -1.21098 1.13686 0
M  V30 8127 O 749.543 -1.27517 1.4193 0
M  V30 8128 C 746.683 -1.94277 2.8522 0
M  V30 8129 C 745.796 -1.50143 4.05069 0
M  V30 8130 C 744.931 -2.67145 4.59137 0
M  V30 8131 C 743.97 -2.19609 5.71348 0
M  V30 8132 N 743.107 -3.29782 6.19829 0
M  V30 8133 H 747.947 -0.187499 2.9741 0
M  V30 8134 H 745.484 -0.0808064 1.46878 0
M  V30 8135 H 747.442 -2.65551 3.21774 0
M  V30 8136 H 746.072 -2.45673 2.09391 0
M  V30 8137 H 745.124 -0.684624 3.74189 0
M  V30 8138 H 746.436 -1.11266 4.86232 0
M  V30 8139 H 745.59 -3.46544 4.97988 0
M  V30 8140 H 744.329 -3.09295 3.77078 0
M  V30 8141 H 743.334 -1.38664 5.32027 0
M  V30 8142 H 744.559 -1.78492 6.55223 0
M  V30 8143 H 742.505 -3.71466 5.40693 0
M  V30 8144 H 742.422 -2.95069 6.96039 0
M  V30 8145 H 743.69 -4.094 6.63334 0
M  V30 8146 N 747.919 -1.57396 -0.0801906 0
M  V30 8147 C 749.167 -1.86467 -0.779384 0
M  V30 8148 C 749.488 -0.784243 -1.78535 0
M  V30 8149 O 748.758 0.187986 -1.94996 0
M  V30 8150 H 747.338 -0.68806 -0.29083 0
M  V30 8151 H 750 -1.94813 -0.0582749 0
M  V30 8152 H 749.096 -2.83701 -1.30078 0
M  V30 8153 N 749.397 0.351382 -1.53633 0
M  V30 8154 C 750.327 1.43688 -1.84055 0
M  V30 8155 C 751.308 1.55251 -0.695073 0
M  V30 8156 O 752.493 1.69587 -0.946257 0
M  V30 8157 C 749.623 2.80843 -2.04315 0
M  V30 8158 C 748.577 2.84094 -3.20117 0
M  V30 8159 C 747.903 4.2406 -3.25696 0
M  V30 8160 C 749.203 2.50334 -4.58399 0
M  V30 8161 H 750.897 1.18478 -2.74961 0
M  V30 8162 H 748.443 0.568509 -1.32303 0
M  V30 8163 H 750.396 3.56821 -2.2418 0
M  V30 8164 H 749.12 3.07471 -1.10132 0
M  V30 8165 H 747.779 2.10568 -3.00094 0
M  V30 8166 H 747.427 4.47785 -2.29123 0
M  V30 8167 H 747.127 4.27147 -4.03509 0
M  V30 8168 H 748.651 5.0189 -3.47762 0
M  V30 8169 H 750.065 3.16025 -4.78332 0
M  V30 8170 H 748.462 2.64717 -5.38558 0
M  V30 8171 H 749.532 1.45542 -4.62543 0
M  V30 8172 N 750.875 1.45233 0.611969 0
M  V30 8173 C 751.785 1.56098 1.7513 0
M  V30 8174 C 752.801 0.445646 1.68196 0
M  V30 8175 O 753.977 0.705718 1.88631 0
M  V30 8176 C 751.042 1.52052 3.11579 0
M  V30 8177 C 750.103 2.74589 3.29999 0
M  V30 8178 C 749.336 2.70726 4.59938 0
M  V30 8179 O 749.559 1.77806 5.41979 0
M  V30 8180 O 748.493 3.61864 4.80976 0
M  V30 8181 H 752.319 2.52392 1.68914 0
M  V30 8182 H 749.904 1.27695 0.775528 0
M  V30 8183 H 751.786 1.52387 3.92882 0
M  V30 8184 H 750.461 0.589085 3.18295 0
M  V30 8185 H 749.368 2.79817 2.48301 0
M  V30 8186 H 750.701 3.66843 3.28157 0
M  V30 8187 N 752.353 -0.854086 1.3245 0
M  V30 8188 C 753.764 -1.42427 1.20712 0
M  V30 8189 C 754.115 -1.95371 -0.18013 0
M  V30 8190 O 753.24 -1.87587 -1.07889 0
M  V30 8191 C 753.835 -2.58897 2.18536 0
M  V30 8192 C 752.394 -3.11913 2.10683 0
M  V30 8193 C 751.541 -1.84661 2.06871 0
M  V30 8194 H 754.492 -0.661192 1.4427 0
M  V30 8195 H 754.513 -3.36074 1.78422 0
M  V30 8196 H 754.025 -2.20333 3.19492 0
M  V30 8197 H 752.126 -3.55059 1.12977 0
M  V30 8198 H 752.239 -3.73119 3.00532 0
M  V30 8199 H 750.603 -2.04285 1.52118 0
M  V30 8200 H 751.386 -1.48314 3.09609 0
M  V30 8201 N 753.831 -1.1567 -1.07043 0
M  V30 8202 C 755.056 -0.957946 -1.83952 0
M  V30 8203 C 755.481 0.488807 -1.81638 0
M  V30 8204 O 754.839 1.34869 -1.21162 0
M  V30 8205 C 754.887 -1.48064 -3.288 0
M  V30 8206 O 753.991 -0.681921 -4.06723 0
M  V30 8207 H 753.332 -0.341453 -0.569479 0
M  V30 8208 H 755.862 -1.53728 -1.35015 0
M  V30 8209 H 755.872 -1.49484 -3.7963 0
M  V30 8210 H 754.547 -2.53388 -3.29799 0
M  V30 8211 H 753.124 -0.737612 -3.65532 0
M  V30 8212 N 755.309 1.25446 -0.953992 0
M  V30 8213 C 756.241 2.25111 -0.431004 0
M  V30 8214 C 757.254 1.56377 0.452764 0
M  V30 8215 O 758.443 1.76579 0.261144 0
M  V30 8216 C 755.543 3.3655 0.39839 0
M  V30 8217 C 754.716 4.34843 -0.472229 0
M  V30 8218 C 753.775 5.25351 0.29886 0
M  V30 8219 O 752.801 5.68396 -0.302522 0
M  V30 8220 N 754.003 5.5824 1.59211 0
M  V30 8221 H 756.768 2.70619 -1.28785 0
M  V30 8222 H 754.329 1.39346 -0.824281 0
M  V30 8223 H 756.321 3.94059 0.921941 0
M  V30 8224 H 754.891 2.90436 1.15609 0
M  V30 8225 H 754.111 3.76222 -1.17689 0
M  V30 8226 H 755.399 4.97497 -1.06648 0
M  V30 8227 H 754.797 5.25172 2.10264 0
M  V30 8228 H 753.354 6.18336 2.06164 0
M  V30 8229 N 756.787 0.722489 1.40064 0
M  V30 8230 C 757.717 0.0892452 2.33329 0
M  V30 8231 C 758.698 -0.737992 1.53257 0
M  V30 8232 O 759.883 -0.685516 1.81698 0
M  V30 8233 C 757.013 -0.828139 3.37282 0
M  V30 8234 C 755.967 -0.106005 4.27869 0
M  V30 8235 C 755.293 -1.13957 5.22415 0
M  V30 8236 C 756.593 1.04395 5.11761 0
M  V30 8237 H 758.287 0.868269 2.86534 0
M  V30 8238 H 755.833 0.418982 1.3777 0
M  V30 8239 H 757.786 -1.28058 4.01471 0
M  V30 8240 H 756.51 -1.63914 2.82489 0
M  V30 8241 H 755.169 0.326683 3.65142 0
M  V30 8242 H 754.817 -1.9438 4.63924 0
M  V30 8243 H 754.517 -0.661233 5.83868 0
M  V30 8244 H 756.041 -1.59197 5.89482 0
M  V30 8245 H 757.455 0.670541 5.69365 0
M  V30 8246 H 755.852 1.4511 5.82291 0
M  V30 8247 H 756.922 1.87144 4.47331 0
M  V30 8248 N 758.265 -1.50454 0.469181 0
M  V30 8249 C 759.195 -2.31353 -0.31592 0
M  V30 8250 C 760.176 -1.38172 -0.992094 0
M  V30 8251 O 761.361 -1.67093 -0.989633 0
M  V30 8252 C 758.491 -3.1786 -1.39937 0
M  V30 8253 C 757.445 -4.19578 -0.844909 0
M  V30 8254 C 756.771 -4.9481 -2.0265 0
M  V30 8255 C 758.071 -5.22106 0.142499 0
M  V30 8256 H 759.765 -2.97237 0.359269 0
M  V30 8257 H 757.311 -1.42942 0.174224 0
M  V30 8258 H 759.264 -3.7325 -1.95607 0
M  V30 8259 H 757.988 -2.49858 -2.1033 0
M  V30 8260 H 756.647 -3.65285 -0.310189 0
M  V30 8261 H 756.295 -4.23282 -2.71737 0
M  V30 8262 H 755.995 -5.63613 -1.66174 0
M  V30 8263 H 757.519 -5.53035 -2.58815 0
M  V30 8264 H 758.933 -5.72378 -0.324966 0
M  V30 8265 H 757.33 -5.98618 0.421441 0
M  V30 8266 H 758.4 -4.7297 1.06901 0
M  V30 8267 N 759.743 -0.201713 -1.56304 0
M  V30 8268 C 760.653 0.728296 -2.23009 0
M  V30 8269 C 761.669 1.22945 -1.23128 0
M  V30 8270 O 762.845 1.27523 -1.55884 0
M  V30 8271 C 759.91 1.92792 -2.88153 0
M  V30 8272 C 758.971 1.47068 -4.03323 0
M  V30 8273 C 758.204 2.61312 -4.65351 0
M  V30 8274 O 758.427 3.7896 -4.26317 0
M  V30 8275 O 757.361 2.33646 -5.54701 0
M  V30 8276 H 761.187 0.190166 -3.03104 0
M  V30 8277 H 758.772 0.0278725 -1.49374 0
M  V30 8278 H 760.654 2.6289 -3.29343 0
M  V30 8279 H 759.329 2.45452 -2.11033 0
M  V30 8280 H 758.236 0.738299 -3.66742 0
M  V30 8281 H 759.569 0.990666 -4.82127 0
M  V30 8282 N 761.222 1.57436 0.0718424 0
M  V30 8283 C 762.155 1.98982 1.11721 0
M  V30 8284 C 763.133 0.866731 1.37574 0
M  V30 8285 O 764.317 1.12903 1.50948 0
M  V30 8286 C 761.444 2.32648 2.46155 0
M  V30 8287 C 760.49 3.54964 2.36437 0
M  V30 8288 S 761.323 5.05802 1.75854 0
M  V30 8289 C 762.479 5.42669 3.11867 0
M  V30 8290 H 762.712 2.87338 0.763154 0
M  V30 8291 H 760.245 1.51833 0.280372 0
M  V30 8292 H 762.203 2.52719 3.23486 0
M  V30 8293 H 760.864 1.44821 2.78722 0
M  V30 8294 H 760.057 3.76038 3.35577 0
M  V30 8295 H 759.659 3.34524 1.67242 0
M  V30 8296 H 761.951 5.40737 4.08178 0
M  V30 8297 H 762.894 6.43461 2.95573 0
M  V30 8298 H 763.302 4.70131 3.1247 0
M  V30 8299 N 762.7 -0.34323 1.53817 0
M  V30 8300 C 763.94 -1.09188 1.72793 0
M  V30 8301 C 764.304 -1.85876 0.481062 0
M  V30 8302 O 765.505 -2.63158 0.547851 0
M  V30 8303 C 763.776 -2.00783 2.9567 0
M  V30 8304 S 765.335 -2.82866 3.35459 0
M  V30 8305 H 762.153 -0.368926 0.607795 0
M  V30 8306 H 764.755 -0.370265 1.91962 0
M  V30 8307 H 763.459 -1.43245 3.84589 0
M  V30 8308 H 762.99 -2.77381 2.78968 0
M  V30 8309 H 765.005 -4.03196 2.89218 0
M  V30 8310 N 764.178 -1.45556 -0.604258 0
M  V30 8311 C 765.408 -1.53056 -1.38771 0
M  V30 8312 C 765.816 -0.163092 -1.88496 0
M  V30 8313 O 765.159 0.846157 -1.63052 0
M  V30 8314 C 765.221 -2.45656 -2.62476 0
M  V30 8315 C 764.885 -3.92328 -2.34367 0
M  V30 8316 C 765.882 -4.82137 -1.94525 0
M  V30 8317 C 763.567 -4.37275 -2.47177 0
M  V30 8318 C 765.561 -6.14901 -1.67856 0
M  V30 8319 C 763.248 -5.70079 -2.20122 0
M  V30 8320 C 764.246 -6.58711 -1.80524 0
M  V30 8321 O 763.934 -7.89053 -1.53788 0
M  V30 8322 H 763.666 -0.520721 -0.431075 0
M  V30 8323 H 766.22 -1.91464 -0.743693 0
M  V30 8324 H 764.45 -2.02225 -3.29609 0
M  V30 8325 H 766.139 -2.43802 -3.24523 0
M  V30 8326 H 766.905 -4.48675 -1.84162 0
M  V30 8327 H 762.784 -3.68527 -2.76964 0
M  V30 8328 H 766.328 -6.8404 -1.36874 0
M  V30 8329 H 762.225 -6.03095 -2.30102 0
M  V30 8330 H 762.993 -8.01113 -1.67812 0
M  V30 8331 N 765.656 0.84705 -1.32902 0
M  V30 8332 C 766.933 1.58583 -1.14503 0
M  V30 8333 C 767.313 2.09075 0.291724 0
M  V30 8334 O 766.661 1.88636 1.28952 0
M  V30 8335 C 766.871 2.72605 -2.17916 0
M  V30 8336 C 768.219 3.41993 -2.51646 0
M  V30 8337 O 769.243 2.82838 -2.1652 0
M  V30 8338 O 768.102 4.48761 -3.1189 0
M  V30 8339 H 765.196 0.698756 -0.442345 0
M  V30 8340 H 767.742 0.890516 -1.44457 0
M  V30 8341 H 766.514 2.32876 -3.14459 0
M  V30 8342 H 766.137 3.49807 -1.89 0
M  V30 8343 N 767.134 1.16236 1.06428 0
M  V30 8344 C 768.38 0.944431 1.79467 0
M  V30 8345 C 768.713 -0.526558 1.86925 0
M  V30 8346 O 767.988 -1.39061 1.35986 0
M  V30 8347 C 768.271 1.57092 3.24028 0
M  V30 8348 C 768.124 3.11315 3.24658 0
M  V30 8349 C 769.443 1.26447 4.21544 0
M  V30 8350 H 766.562 0.344521 0.651517 0
M  V30 8351 H 769.204 1.43545 1.24478 0
M  V30 8352 H 767.354 1.15337 3.70985 0
M  V30 8353 H 769.026 3.62042 2.85873 0
M  V30 8354 H 767.269 3.44716 2.6335 0
M  V30 8355 H 767.94 3.50269 4.26633 0
M  V30 8356 H 770.416 1.62581 3.83023 0
M  V30 8357 H 769.292 1.72885 5.20963 0
M  V30 8358 H 769.553 0.183068 4.41721 0
M  V30 8359 N 768.612 -1.24939 0.960631 0
M  V30 8360 C 769.852 -1.94565 0.626414 0
M  V30 8361 C 770.216 -1.73505 -0.822184 0
M  V30 8362 O 771.417 -2.37105 -1.26628 0
M  V30 8363 C 769.688 -3.43631 0.982462 0
M  V30 8364 S 771.247 -4.32138 0.761726 0
M  V30 8365 H 768.065 -0.672757 0.230043 0
M  V30 8366 H 770.667 -1.51464 1.23608 0
M  V30 8367 H 769.371 -3.56463 2.03377 0
M  V30 8368 H 768.902 -3.91719 0.363286 0
M  V30 8369 H 770.917 -4.94859 -0.364493 0
M  V30 8370 N 770.09 -0.729906 -1.39679 0
M  V30 8371 C 771 -0.0880322 -2.34435 0
M  V30 8372 C 772.016 0.727674 -1.58053 0
M  V30 8373 O 773.192 0.657321 -1.90371 0
M  V30 8374 C 770.257 0.812211 -3.37052 0
M  V30 8375 C 769.318 -0.0151681 -4.29297 0
M  V30 8376 C 768.551 0.842202 -5.27013 0
M  V30 8377 O 768.774 2.08108 -5.31081 0
M  V30 8378 O 767.708 0.27357 -6.01278 0
M  V30 8379 H 771.534 -0.869989 -2.90972 0
M  V30 8380 H 769.119 -0.490522 -1.41118 0
M  V30 8381 H 771.001 1.32745 -3.99946 0
M  V30 8382 H 769.676 1.57307 -2.82907 0
M  V30 8383 H 768.583 -0.575811 -3.69642 0
M  V30 8384 H 769.916 -0.738129 -4.86634 0
M  V30 8385 N 771.568 1.50203 -0.477153 0
M  V30 8386 C 772.816 2.01959 0.0755889 0
M  V30 8387 C 773.137 1.3608 1.39668 0
M  V30 8388 O 772.407 0.508136 1.89195 0
M  V30 8389 H 770.987 0.74636 0.0309248 0
M  V30 8390 H 773.649 1.84473 -0.628959 0
M  V30 8391 H 772.745 3.11305 0.222683 0
M  V30 8392 N 773.046 0.209999 1.56195 0
M  V30 8393 C 773.979 -0.744546 2.15712 0
M  V30 8394 C 774.957 -1.19917 1.09812 0
M  V30 8395 O 776.141 -1.284 1.38006 0
M  V30 8396 C 773.268 -2.00733 2.72807 0
M  V30 8397 C 772.314 -1.69363 3.91431 0
M  V30 8398 S 773.147 -0.828579 5.29051 0
M  V30 8399 C 774.303 -2.10118 5.89577 0
M  V30 8400 H 774.536 -0.238636 2.96341 0
M  V30 8401 H 772.069 -0.00517877 1.54399 0
M  V30 8402 H 774.027 -2.73246 3.06344 0
M  V30 8403 H 772.688 -2.48436 1.92193 0
M  V30 8404 H 771.881 -2.63157 4.29842 0
M  V30 8405 H 771.483 -1.04921 3.58981 0
M  V30 8406 H 773.775 -3.05231 6.04847 0
M  V30 8407 H 774.718 -1.76116 6.85849 0
M  V30 8408 H 775.126 -2.23644 5.18308 0
M  V30 8409 N 774.524 -1.57472 -0.0634922 0
M  V30 8410 C 775.487 -2.03268 -1.059 0
M  V30 8411 C 776.487 -0.931028 -1.31105 0
M  V30 8412 O 777.677 -1.19567 -1.26686 0
M  V30 8413 C 774.809 -2.42039 -2.40062 0
M  V30 8414 H 776.002 -2.92454 -0.664119 0
M  V30 8415 H 773.555 -1.53206 -0.309444 0
M  V30 8416 H 774.29 -1.55904 -2.84367 0
M  V30 8417 H 774.075 -3.22437 -2.23108 0
M  V30 8418 H 775.565 -2.78017 -3.11603 0
M  V30 8419 N 776.003 0.335068 -1.53997 0
M  V30 8420 C 777.25 1.07435 -1.71651 0
M  V30 8421 C 777.578 1.88378 -0.48413 0
M  V30 8422 O 776.833 1.8827 0.534139 0
M  V30 8423 C 777.132 2.0364 -2.9371 0
M  V30 8424 C 776.798 1.38942 -4.28959 0
M  V30 8425 C 775.46 1.21027 -4.65732 0
M  V30 8426 C 777.812 0.924083 -5.12943 0
M  V30 8427 C 775.14 0.552097 -5.84097 0
M  V30 8428 C 777.492 0.27978 -6.31981 0
M  V30 8429 C 776.156 0.0883843 -6.67441 0
M  V30 8430 H 775.426 0.393133 -0.628114 0
M  V30 8431 H 778.073 0.352712 -1.88224 0
M  V30 8432 H 776.378 2.82215 -2.71775 0
M  V30 8433 H 778.075 2.6085 -3.04562 0
M  V30 8434 H 774.665 1.53885 -4.00022 0
M  V30 8435 H 778.849 1.05032 -4.85059 0
M  V30 8436 H 774.105 0.392502 -6.10139 0
M  V30 8437 H 778.279 -0.0888479 -6.96343 0
M  V30 8438 H 775.906 -0.423657 -7.59019 0
M  V30 8439 N 777.481 1.45874 0.596531 0
M  V30 8440 C 778.411 1.5824 1.71705 0
M  V30 8441 C 779.392 0.433366 1.64487 0
M  V30 8442 O 780.577 0.657895 1.82717 0
M  V30 8443 C 777.707 1.55927 3.10329 0
M  V30 8444 C 776.661 2.69659 3.32367 0
M  V30 8445 C 775.987 2.52403 4.71377 0
M  V30 8446 C 777.287 4.11591 3.21544 0
M  V30 8447 H 778.981 2.52035 1.61613 0
M  V30 8448 H 776.527 1.21297 0.776082 0
M  V30 8449 H 778.48 1.63173 3.88526 0
M  V30 8450 H 777.204 0.586674 3.21288 0
M  V30 8451 H 775.863 2.61859 2.56564 0
M  V30 8452 H 775.511 1.53258 4.79083 0
M  V30 8453 H 775.211 3.28679 4.87077 0
M  V30 8454 H 776.735 2.6152 5.5176 0
M  V30 8455 H 778.149 4.20576 3.89601 0
M  V30 8456 H 776.546 4.88344 3.4877 0
M  V30 8457 H 777.616 4.32719 2.1882 0
M  V30 8458 N 778.959 -0.83999 1.33349 0
M  V30 8459 C 779.869 -1.98182 1.25543 0
M  V30 8460 C 780.885 -1.73204 0.166208 0
M  V30 8461 O 782.061 -1.97596 0.389589 0
M  V30 8462 C 779.126 -3.32157 0.993614 0
M  V30 8463 C 778.187 -3.70258 2.17273 0
M  V30 8464 C 777.42 -4.9784 1.92331 0
M  V30 8465 O 777.643 -5.63679 0.873074 0
M  V30 8466 O 776.577 -5.33418 2.78835 0
M  V30 8467 H 780.403 -2.07708 2.21565 0
M  V30 8468 H 777.988 -0.972852 1.13384 0
M  V30 8469 H 779.87 -4.12433 0.864711 0
M  V30 8470 H 778.545 -3.23637 0.0636596 0
M  V30 8471 H 777.452 -2.90497 2.35716 0
M  V30 8472 H 778.785 -3.83442 3.08598 0
M  V30 8473 N 780.437 -1.16799 -1.0581 0
M  V30 8474 C 781.662 -0.977402 -1.82925 0
M  V30 8475 C 782.087 0.469514 -1.82146 0
M  V30 8476 O 781.445 1.33576 -1.22585 0
M  V30 8477 C 781.493 -1.51543 -3.27211 0
M  V30 8478 O 780.597 -0.725021 -4.05977 0
M  V30 8479 H 779.938 -0.347474 -0.565825 0
M  V30 8480 H 782.468 -1.55151 -1.33376 0
M  V30 8481 H 782.478 -1.53502 -3.78023 0
M  V30 8482 H 781.153 -2.56872 -3.27093 0
M  V30 8483 H 779.73 -0.77634 -3.64729 0
M  V30 8484 N 781.915 1.24427 -0.967243 0
M  V30 8485 C 782.865 2.23143 -0.468106 0
M  V30 8486 C 783.849 1.5449 0.449633 0
M  V30 8487 O 785.041 1.74761 0.28063 0
M  V30 8488 C 782.17 3.42454 0.240867 0
M  V30 8489 C 781.256 4.18355 -0.695674 0
M  V30 8490 N 781.647 4.71428 -1.83273 0
M  V30 8491 C 779.945 4.43116 -0.506365 0
M  V30 8492 C 780.646 5.29041 -2.41849 0
M  V30 8493 N 779.622 5.16213 -1.70369 0
M  V30 8494 H 783.424 2.61795 -1.3357 0
M  V30 8495 H 780.938 1.39809 -0.826277 0
M  V30 8496 H 782.935 4.12329 0.615668 0
M  V30 8497 H 781.595 3.05323 1.10491 0
M  V30 8498 H 782.606 4.68177 -2.21428 0
M  V30 8499 H 779.283 4.16319 0.313747 0
M  V30 8500 H 780.673 5.80811 -3.37799 0
M  V30 8501 N 783.393 0.737304 1.3929 0
M  V30 8502 C 784.325 0.0592106 2.29124 0
M  V30 8503 C 785.338 -0.701026 1.46934 0
M  V30 8504 O 786.527 -0.544808 1.69983 0
M  V30 8505 C 783.627 -0.940358 3.25592 0
M  V30 8506 C 782.8 -0.241163 4.36735 0
M  V30 8507 C 781.859 -1.14916 5.13498 0
M  V30 8508 O 780.885 -0.625783 5.6575 0
M  V30 8509 N 782.087 -2.47869 5.2492 0
M  V30 8510 H 784.852 0.830647 2.87959 0
M  V30 8511 H 782.413 0.586718 1.50895 0
M  V30 8512 H 784.405 -1.55046 3.73822 0
M  V30 8513 H 782.975 -1.61299 2.67771 0
M  V30 8514 H 782.195 0.549441 3.90352 0
M  V30 8515 H 783.483 0.243299 5.08218 0
M  V30 8516 H 782.881 -2.92864 4.83991 0
M  V30 8517 H 781.438 -3.03969 5.76581 0
M  V30 8518 N 784.871 -1.49948 0.485112 0
M  V30 8519 C 786.118 -2.02396 -0.0650059 0
M  V30 8520 C 786.446 -1.36606 -1.38452 0
M  V30 8521 O 785.701 -0.485476 -1.89583 0
M  V30 8522 C 786 -3.56282 -0.282434 0
M  V30 8523 C 785.666 -4.40625 0.957106 0
M  V30 8524 C 784.328 -4.63393 1.29692 0
M  V30 8525 C 786.68 -4.89799 1.78176 0
M  V30 8526 C 784.008 -5.3258 2.4612 0
M  V30 8527 C 786.36 -5.60266 2.93743 0
M  V30 8528 C 785.024 -5.81284 3.28124 0
M  V30 8529 H 784.294 -0.740618 -0.0237873 0
M  V30 8530 H 786.941 -1.80416 0.642044 0
M  V30 8531 H 785.246 -3.76853 -1.07186 0
M  V30 8532 H 786.943 -3.94442 -0.722276 0
M  V30 8533 H 783.533 -4.23133 0.682384 0
M  V30 8534 H 787.717 -4.7205 1.53239 0
M  V30 8535 H 782.973 -5.47059 2.73014 0
M  V30 8536 H 787.147 -5.97347 3.5798 0
M  V30 8537 H 784.774 -6.34671 4.18446 0
M  V30 8538 N 786.349 -0.21828 -1.56081 0
M  V30 8539 C 787.598 0.414644 -1.97392 0
M  V30 8540 C 787.911 1.61132 -1.10887 0
M  V30 8541 O 789.117 2.31355 -1.42082 0
M  V30 8542 C 787.573 0.789099 -3.51143 0
M  V30 8543 C 787.181 -0.384578 -4.46346 0
M  V30 8544 C 788.925 1.38781 -4.01173 0
M  V30 8545 C 786.832 0.0121288 -5.91399 0
M  V30 8546 H 785.762 0.158691 -0.737111 0
M  V30 8547 H 788.413 -0.313974 -1.80794 0
M  V30 8548 H 786.795 1.57505 -3.6333 0
M  V30 8549 H 787.969 -1.16212 -4.45905 0
M  V30 8550 H 786.284 -0.896306 -4.06639 0
M  V30 8551 H 788.881 1.69746 -5.07041 0
M  V30 8552 H 789.224 2.30245 -3.46833 0
M  V30 8553 H 789.757 0.665364 -3.92196 0
M  V30 8554 H 786.496 -0.868917 -6.49715 0
M  V30 8555 H 786.016 0.754053 -5.95041 0
M  V30 8556 H 787.695 0.439949 -6.45502 0
M  V30 8557 N 787.827 1.57504 0.0551401 0
M  V30 8558 C 788.777 2.0128 1.071 0
M  V30 8559 C 789.761 0.897592 1.33537 0
M  V30 8560 O 790.953 1.16151 1.33558 0
M  V30 8561 C 788.082 2.47414 2.37994 0
M  V30 8562 C 787.168 3.65703 2.14761 0
M  V30 8563 N 787.559 4.79323 1.61504 0
M  V30 8564 C 785.857 3.72574 2.45162 0
M  V30 8565 C 786.558 5.61089 1.53472 0
M  V30 8566 N 785.534 5.05426 2.00114 0
M  V30 8567 H 789.336 2.86558 0.652829 0
M  V30 8568 H 786.85 1.60274 0.26193 0
M  V30 8569 H 788.847 2.77023 3.11551 0
M  V30 8570 H 787.507 1.6353 2.80514 0
M  V30 8571 H 788.518 5.01284 1.30134 0
M  V30 8572 H 785.195 2.99439 2.90934 0
M  V30 8573 H 786.585 6.62328 1.13008 0
M  V30 8574 N 789.305 -0.326896 1.54172 0
M  V30 8575 C 790.721 -0.671034 1.44808 0
M  V30 8576 C 790.921 -1.91781 0.618258 0
M  V30 8577 O 789.977 -2.52235 0.115751 0
M  V30 8578 C 791.29 -0.848147 2.88491 0
M  V30 8579 C 792.838 -0.945702 2.98371 0
M  V30 8580 C 793.313 -1.15501 4.43197 0
M  V30 8581 N 794.804 -1.22183 4.46795 0
M  V30 8582 C 795.539 -1.4016 5.56006 0
M  V30 8583 N 795.035 -1.55202 6.75192 0
M  V30 8584 N 796.828 -1.42841 5.43648 0
M  V30 8585 H 788.979 0.49262 2.06608 0
M  V30 8586 H 791.242 0.158574 0.934643 0
M  V30 8587 H 790.948 -0.00329969 3.517 0
M  V30 8588 H 790.822 -1.74497 3.34411 0
M  V30 8589 H 793.209 -1.78106 2.35292 0
M  V30 8590 H 793.29 -0.0254215 2.55787 0
M  V30 8591 H 792.934 -0.324521 5.06862 0
M  V30 8592 H 792.864 -2.08911 4.83388 0
M  V30 8593 H 795.355 -1.12016 3.60917 0
M  V30 8594 H 795.668 -1.68601 7.54184 0
M  V30 8595 H 794.013 -1.52306 6.78106 0
M  V30 8596 H 797.204 -1.30683 4.49488 0
M  V30 8597 H 797.377 -1.56509 6.28816 0
M  V30 8598 N 790.784 -1.46188 -0.588786 0
M  V30 8599 C 792.061 -1.41659 -1.34878 0
M  V30 8600 C 792.441 -0.0968913 -2.10878 0
M  V30 8601 O 791.789 0.921468 -2.09096 0
M  V30 8602 C 791.999 -2.6424 -2.27988 0
M  V30 8603 C 793.347 -3.1013 -2.90008 0
M  V30 8604 O 794.371 -2.64745 -2.38303 0
M  V30 8605 O 793.23 -3.88944 -3.83908 0
M  V30 8606 H 790.324 -0.563058 -0.605718 0
M  V30 8607 H 792.87 -1.58346 -0.610309 0
M  V30 8608 H 791.642 -3.51853 -1.71217 0
M  V30 8609 H 791.265 -2.49982 -3.09184 0
M  V30 8610 N 792.262 0.832906 -1.33792 0
M  V30 8611 C 793.192 1.95828 -1.27176 0
M  V30 8612 C 794.173 1.69427 -0.15114 0
M  V30 8613 O 795.358 1.91167 -0.341886 0
M  V30 8614 C 792.488 3.32098 -1.01629 0
M  V30 8615 C 791.442 3.72912 -2.10049 0
M  V30 8616 C 790.768 5.07054 -1.69706 0
M  V30 8617 C 792.068 3.86064 -3.51783 0
M  V30 8618 H 793.762 2.01622 -2.21334 0
M  V30 8619 H 791.308 0.96866 -1.0655 0
M  V30 8620 H 793.261 4.10402 -0.956474 0
M  V30 8621 H 791.985 3.26577 -0.0390956 0
M  V30 8622 H 790.644 2.96876 -2.15082 0
M  V30 8623 H 790.292 4.9801 -0.706737 0
M  V30 8624 H 789.992 5.35333 -2.42264 0
M  V30 8625 H 791.516 5.87827 -1.65202 0
M  V30 8626 H 792.93 4.54665 -3.49218 0
M  V30 8627 H 791.327 4.25787 -4.22878 0
M  V30 8628 H 792.397 2.88344 -3.89854 0
M  V30 8629 N 793.74 1.17359 1.05189 0
M  V30 8630 C 794.703 0.892604 2.11105 0
M  V30 8631 C 795.703 -0.117236 1.60372 0
M  V30 8632 O 796.893 0.114936 1.7382 0
M  V30 8633 C 794.025 0.337032 3.3923 0
M  V30 8634 H 795.218 1.83169 2.37464 0
M  V30 8635 H 792.771 0.984051 1.21434 0
M  V30 8636 H 793.506 -0.609198 3.18527 0
M  V30 8637 H 793.291 1.06484 3.77364 0
M  V30 8638 H 794.781 0.158763 4.17298 0
M  V30 8639 N 795.218 -1.23913 0.973828 0
M  V30 8640 C 796.181 -2.23367 0.51378 0
M  V30 8641 C 797.181 -1.55923 -0.39302 0
M  V30 8642 O 798.371 -1.73187 -0.187626 0
M  V30 8643 C 795.503 -3.39944 -0.255152 0
M  V30 8644 H 796.696 -2.65581 1.39307 0
M  V30 8645 H 794.249 -1.36632 0.759039 0
M  V30 8646 H 794.984 -3.03177 -1.15127 0
M  V30 8647 H 794.769 -3.90098 0.395673 0
M  V30 8648 H 796.259 -4.13749 -0.565842 0
M  V30 8649 N 796.696 -0.74468 -1.38897 0
M  V30 8650 C 798.112 -0.421302 -1.53939 0
M  V30 8651 C 798.312 1.06668 -1.70951 0
M  V30 8652 O 797.368 1.85278 -1.71547 0
M  V30 8653 C 798.681 -1.21278 -2.75159 0
M  V30 8654 C 800.229 -1.20196 -2.89001 0
M  V30 8655 C 800.704 -1.97621 -4.13171 0
M  V30 8656 N 802.195 -1.94836 -4.2023 0
M  V30 8657 C 802.93 -2.51545 -5.15279 0
M  V30 8658 N 802.426 -3.1693 -6.16058 0
M  V30 8659 N 804.219 -2.41524 -5.07565 0
M  V30 8660 H 796.37 -1.70914 -1.26103 0
M  V30 8661 H 798.633 -0.724058 -0.611919 0
M  V30 8662 H 798.339 -2.26609 -2.68963 0
M  V30 8663 H 798.213 -0.823677 -3.68097 0
M  V30 8664 H 800.6 -0.156742 -2.94683 0
M  V30 8665 H 800.681 -1.63051 -1.97099 0
M  V30 8666 H 800.325 -3.02149 -4.0825 0
M  V30 8667 H 800.255 -1.52166 -5.04136 0
M  V30 8668 H 802.746 -1.4721 -3.48048 0
M  V30 8669 H 803.059 -3.57644 -6.85062 0
M  V30 8670 H 801.404 -3.21023 -6.16417 0
M  V30 8671 H 804.595 -1.90077 -4.27771 0
M  V30 8672 H 804.768 -2.86016 -5.81462 0
M  V30 8673 N 798.174 1.49689 -0.493057 0
M  V30 8674 C 799.122 2.30613 0.303383 0
M  V30 8675 C 800.116 1.38867 0.970165 0
M  V30 8676 O 801.322 1.55956 0.898761 0
M  V30 8677 H 797.697 0.742891 0.116691 0
M  V30 8678 H 799.668 2.95717 -0.39924 0
M  V30 8679 C 798.417 3.20008 1.35978 0
M  V30 8680 H 797.74 3.90526 0.856103 0
M  V30 8681 H 799.18 3.79586 1.88919 0
M  V30 8682 C 797.639 2.39079 2.37367 0
M  V30 8683 O 798.169 2.08933 3.43089 0
M  V30 8684 N 796.375 2.0125 2.09635 0
M  V30 8685 H 795.922 2.25966 1.23682 0
M  V30 8686 H 795.88 1.47408 2.77702 0
M  V30 8687 N 799.652 0.226554 1.55963 0
M  V30 8688 C 800.892 -0.405574 2.00336 0
M  V30 8689 C 801.256 -1.56593 1.11097 0
M  V30 8690 O 802.457 -2.26441 1.44838 0
M  V30 8691 C 800.728 -0.82435 3.47763 0
M  V30 8692 S 802.287 -1.44988 4.14154 0
M  V30 8693 H 799.105 -0.128512 0.699289 0
M  V30 8694 H 801.707 0.337017 1.92573 0
M  V30 8695 H 800.411 0.0297636 4.10389 0
M  V30 8696 H 799.942 -1.59963 3.5941 0
M  V30 8697 H 801.957 -2.73897 4.13757 0
M  V30 8698 N 801.13 -1.57531 -0.0467866 0
M  V30 8699 C 802.06 -2.08425 -1.05268 0
M  V30 8700 C 803.041 -0.982941 -1.38825 0
M  V30 8701 O 804.226 -1.25716 -1.48018 0
M  V30 8702 C 801.356 -2.54897 -2.35891 0
M  V30 8703 C 800.31 -3.69132 -2.16623 0
M  V30 8704 C 799.636 -4.01747 -3.52851 0
M  V30 8705 C 800.936 -4.98243 -1.56689 0
M  V30 8706 H 802.63 -2.92716 -0.62908 0
M  V30 8707 H 800.176 -1.40816 -0.301156 0
M  V30 8708 H 802.129 -2.8912 -3.06574 0
M  V30 8709 H 800.853 -1.67666 -2.80278 0
M  V30 8710 H 799.512 -3.35231 -1.48377 0
M  V30 8711 H 799.16 -3.11608 -3.94853 0
M  V30 8712 H 798.86 -4.78681 -3.4079 0
M  V30 8713 H 800.384 -4.38487 -4.24925 0
M  V30 8714 H 801.798 -5.30535 -2.17268 0
M  V30 8715 H 800.195 -5.79669 -1.55255 0
M  V30 8716 H 801.265 -4.81986 -0.530827 0
M  V30 8717 N 802.608 0.318715 -1.54344 0
M  V30 8718 C 803.854 1.05765 -1.73037 0
M  V30 8719 C 804.187 1.87514 -0.505181 0
M  V30 8720 O 803.462 1.88021 0.497838 0
M  V30 8721 C 803.745 1.97836 -3.00887 0
M  V30 8722 C 803.598 1.19384 -4.33668 0
M  V30 8723 C 804.917 2.97285 -3.24514 0
M  V30 8724 H 802.036 0.383104 -0.629603 0
M  V30 8725 H 804.678 0.333864 -1.87044 0
M  V30 8726 H 802.828 2.59552 -2.89076 0
M  V30 8727 H 804.5 0.600906 -4.57369 0
M  V30 8728 H 802.743 0.496198 -4.30953 0
M  V30 8729 H 803.414 1.87014 -5.19355 0
M  V30 8730 H 805.89 2.45693 -3.35819 0
M  V30 8731 H 804.766 3.58887 -4.15321 0
M  V30 8732 H 805.027 3.70003 -2.41971 0
M  V30 8733 N 804.086 1.46499 0.581025 0
M  V30 8734 C 805.363 1.42372 1.34125 0
M  V30 8735 C 805.743 0.108073 2.10823 0
M  V30 8736 O 805.091 -0.910366 2.09582 0
M  V30 8737 C 805.301 2.65445 2.26583 0
M  V30 8738 C 806.649 3.11664 2.88359 0
M  V30 8739 O 807.673 2.66006 2.36896 0
M  V30 8740 O 806.532 3.90974 3.81839 0
M  V30 8741 H 803.626 0.566262 0.602724 0
M  V30 8742 H 806.172 1.58667 0.601903 0
M  V30 8743 H 804.944 3.52756 1.69348 0
M  V30 8744 H 804.567 2.51618 3.07854 0
M  V30 8745 N 805.565 -0.825799 1.34232 0
M  V30 8746 C 806.981 -1.11848 1.13851 0
M  V30 8747 C 807.181 -2.01405 -0.0619031 0
M  V30 8748 O 806.237 -2.41465 -0.738287 0
M  V30 8749 C 807.55 -1.76797 2.43235 0
M  V30 8750 C 809.098 -1.89304 2.49265 0
M  V30 8751 C 809.573 -2.57669 3.78643 0
M  V30 8752 N 811.064 -2.65171 3.79788 0
M  V30 8753 C 811.799 -3.1879 4.76614 0
M  V30 8754 N 811.295 -3.72995 5.83821 0
M  V30 8755 N 813.088 -3.17164 4.64073 0
M  V30 8756 H 805.239 -0.230049 2.11151 0
M  V30 8757 H 807.502 -0.164609 0.9336 0
M  V30 8758 H 807.208 -1.18455 3.31152 0
M  V30 8759 H 807.082 -2.76693 2.56361 0
M  V30 8760 H 809.469 -2.46796 1.6179 0
M  V30 8761 H 809.55 -0.883191 2.4007 0
M  V30 8762 H 809.194 -2.00833 4.66507 0
M  V30 8763 H 809.124 -3.59152 3.8512 0
M  V30 8764 H 811.615 -2.26746 3.02315 0
M  V30 8765 H 811.928 -4.12151 6.53721 0
M  V30 8766 H 810.273 -3.71246 5.87538 0
M  V30 8767 H 813.464 -2.74082 3.79469 0
M  V30 8768 H 813.637 -3.58647 5.397 0
M  V30 8769 N 807.043 -1.17915 -1.04565 0
M  V30 8770 C 808.32 -0.881187 -1.74627 0
M  V30 8771 C 808.7 0.617123 -2.01878 0
M  V30 8772 O 808.048 1.57032 -1.65991 0
M  V30 8773 C 808.258 -1.72299 -3.03503 0
M  V30 8774 C 809.606 -1.94688 -3.77335 0
M  V30 8775 O 810.63 -1.6931 -3.13389 0
M  V30 8776 O 809.489 -2.37379 -4.92253 0
M  V30 8777 H 806.583 -0.326864 -0.759664 0
M  V30 8778 H 809.129 -1.28642 -1.10676 0
M  V30 8779 H 807.901 -2.73891 -2.79462 0
M  V30 8780 H 807.524 -1.31593 -3.75192 0
M  V30 8781 N 808.521 1.23394 -0.980386 0
M  V30 8782 C 809.451 2.2717 -0.540024 0
M  V30 8783 C 810.432 1.64659 0.426787 0
M  V30 8784 O 811.617 1.91543 0.320153 0
M  V30 8785 C 808.747 3.46939 0.15836 0
M  V30 8786 C 807.701 4.21802 -0.725732 0
M  V30 8787 C 807.027 5.34597 0.104866 0
M  V30 8788 C 808.327 4.81802 -2.01654 0
M  V30 8789 H 810.021 2.64257 -1.40743 0
M  V30 8790 H 807.567 1.2703 -0.678193 0
M  V30 8791 H 809.52 4.18683 0.477737 0
M  V30 8792 H 808.244 3.08912 1.06022 0
M  V30 8793 H 806.903 3.51875 -1.02857 0
M  V30 8794 H 806.551 4.92812 1.00726 0
M  V30 8795 H 806.251 5.85607 -0.483557 0
M  V30 8796 H 807.775 6.09163 0.418624 0
M  V30 8797 H 809.189 5.45554 -1.76193 0
M  V30 8798 H 807.586 5.43098 -2.55273 0
M  V30 8799 H 808.656 4.02549 -2.70338 0
M  V30 8800 N 809.999 0.752036 1.385 0
M  V30 8801 C 811.239 0.312408 2.01998 0
M  V30 8802 C 811.603 -1.085 1.58404 0
M  V30 8803 O 812.804 -1.62365 2.14222 0
M  V30 8804 C 811.075 0.429423 3.54811 0
M  V30 8805 S 812.634 0.0721487 4.38741 0
M  V30 8806 H 809.452 0.1213 0.700576 0
M  V30 8807 H 812.054 0.982312 1.69029 0
M  V30 8808 H 810.758 1.44743 3.84028 0
M  V30 8809 H 810.289 -0.257716 3.92555 0
M  V30 8810 H 812.304 -1.13875 4.82957 0
M  V30 8811 N 811.477 -1.49425 0.500989 0
M  V30 8812 C 812.723 -2.02753 -0.0436 0
M  V30 8813 C 813.056 -1.37991 -1.36646 0
M  V30 8814 O 812.331 -0.515597 -1.87542 0
M  V30 8815 C 812.614 -3.59565 -0.19616 0
M  V30 8816 C 812.467 -4.34855 1.14982 0
M  V30 8817 C 813.786 -4.30014 -0.936795 0
M  V30 8818 H 810.905 -0.73686 -0.0143711 0
M  V30 8819 H 813.547 -1.78448 0.652397 0
M  V30 8820 H 811.697 -3.80405 -0.788959 0
M  V30 8821 H 813.369 -4.25512 1.7815 0
M  V30 8822 H 811.612 -3.97414 1.73911 0
M  V30 8823 H 812.283 -5.42933 0.996385 0
M  V30 8824 H 814.759 -4.1383 -0.434036 0
M  V30 8825 H 813.635 -5.39483 -1.01238 0
M  V30 8826 H 813.896 -3.95257 -1.9805 0
M  V30 8827 N 812.955 -0.234822 -1.55841 0
M  V30 8828 C 813.902 0.6698 -2.20867 0
M  V30 8829 C 814.872 1.18042 -1.16856 0
M  V30 8830 O 816.057 1.23709 -1.45261 0
M  V30 8831 C 813.197 1.86646 -2.90271 0
M  V30 8832 C 812.31 1.39351 -4.08908 0
M  V30 8833 C 811.445 2.54878 -4.66059 0
M  V30 8834 C 810.484 2.04384 -5.76969 0
M  V30 8835 N 809.621 3.13233 -6.28355 0
M  V30 8836 H 814.461 0.10858 -2.97802 0
M  V30 8837 H 811.998 0.041836 -1.4704 0
M  V30 8838 H 813.956 2.56926 -3.28702 0
M  V30 8839 H 812.586 2.40035 -2.15831 0
M  V30 8840 H 811.638 0.585173 -3.75872 0
M  V30 8841 H 812.95 0.983356 -4.89011 0
M  V30 8842 H 812.104 3.33219 -5.07001 0
M  V30 8843 H 810.843 2.99188 -3.85146 0
M  V30 8844 H 809.848 1.24509 -5.35516 0
M  V30 8845 H 811.073 1.61057 -6.59725 0
M  V30 8846 H 809.019 3.57 -5.50352 0
M  V30 8847 H 808.936 2.76511 -7.03618 0
M  V30 8848 H 810.204 3.91669 -6.73955 0
M  V30 8849 N 814.433 1.57553 0.0384317 0
M  V30 8850 C 815.679 1.89121 0.732199 0
M  V30 8851 C 816.012 0.831404 1.75503 0
M  V30 8852 O 815.287 -0.154642 1.93884 0
M  V30 8853 C 815.57 3.31338 1.41021 0
M  V30 8854 C 815.423 4.48004 0.401532 0
M  V30 8855 C 816.742 3.72318 2.34665 0
M  V30 8856 H 813.861 0.687819 0.264715 0
M  V30 8857 H 816.503 1.89999 -0.00496279 0
M  V30 8858 H 814.653 3.3072 2.03854 0
M  V30 8859 H 816.325 4.60755 -0.224159 0
M  V30 8860 H 814.568 4.32895 -0.280092 0
M  V30 8861 H 815.239 5.44377 0.91423 0
M  V30 8862 H 817.715 3.74243 1.81883 0
M  V30 8863 H 816.591 4.72652 2.7909 0
M  V30 8864 H 816.852 3.04062 3.20934 0
M  V30 8865 N 815.911 -0.310526 1.54511 0
M  V30 8866 C 817.136 -1.07046 1.7764 0
M  V30 8867 C 817.561 -1.80488 0.529696 0
M  V30 8868 O 816.919 -1.73702 -0.519361 0
M  V30 8869 C 816.967 -2.03411 2.97752 0
M  V30 8870 O 816.071 -3.11545 2.7021 0
M  V30 8871 H 815.412 -0.307994 0.588248 0
M  V30 8872 H 817.942 -0.350848 2.01569 0
M  V30 8873 H 817.952 -2.46048 3.2546 0
M  V30 8874 H 816.627 -1.49361 3.88155 0
M  V30 8875 H 815.204 -2.7349 2.53491 0
M  V30 8876 N 817.389 -1.46805 -0.573248 0
M  V30 8877 C 818.666 -1.43082 -1.33368 0
M  V30 8878 C 819.046 -0.119252 -2.10763 0
M  V30 8879 O 818.394 0.899239 -2.10062 0
M  V30 8880 C 818.604 -2.66643 -2.25172 0
M  V30 8881 C 819.952 -3.13188 -2.86702 0
M  V30 8882 O 820.976 -2.67258 -2.35482 0
M  V30 8883 O 819.835 -3.92994 -3.79761 0
M  V30 8884 H 816.929 -0.569451 -0.599712 0
M  V30 8885 H 819.475 -1.58984 -0.59348 0
M  V30 8886 H 818.247 -3.53649 -1.67475 0
M  V30 8887 H 817.87 -2.53247 -3.06516 0
M  V30 8888 N 818.867 0.818669 -1.34668 0
M  V30 8889 C 820.114 1.57512 -1.27264 0
M  V30 8890 C 820.442 1.93871 0.156254 0
M  V30 8891 O 819.697 1.60582 1.11857 0
M  V30 8892 C 819.996 2.88245 -2.11304 0
M  V30 8893 C 819.662 2.71159 -3.60255 0
M  V30 8894 C 818.324 2.66207 -4.00858 0
M  V30 8895 C 820.676 2.54538 -4.54819 0
M  V30 8896 C 818.004 2.4256 -5.34211 0
M  V30 8897 C 820.356 2.32421 -5.88356 0
M  V30 8898 C 819.02 2.25884 -6.28118 0
M  V30 8899 H 818.29 0.576378 -0.465692 0
M  V30 8900 H 820.937 0.9469 -1.66451 0
M  V30 8901 H 819.242 3.55381 -1.64958 0
M  V30 8902 H 820.939 3.45869 -2.02919 0
M  V30 8903 H 817.529 2.75856 -3.28027 0
M  V30 8904 H 821.713 2.57384 -4.24343 0
M  V30 8905 H 816.969 2.35959 -5.64033 0
M  V30 8906 H 821.143 2.18548 -6.61218 0
M  V30 8907 H 818.77 2.07322 -7.31383 0
M  V30 8908 N 820.346 1.18468 1.03938 0
M  V30 8909 C 821.594 0.978895 1.76811 0
M  V30 8910 C 821.915 -0.49257 1.88676 0
M  V30 8911 O 821.185 -1.3572 1.41269 0
M  V30 8912 H 819.765 0.359201 0.654968 0
M  V30 8913 H 822.427 1.49173 1.25433 0
M  V30 8914 H 821.523 1.418 2.78027 0
M  V30 8915 N 821.824 -1.22873 0.986916 0
M  V30 8916 C 822.757 -2.23154 0.477245 0
M  V30 8917 C 823.735 -1.55981 -0.459206 0
M  V30 8918 O 824.919 -1.84503 -0.386141 0
M  V30 8919 C 822.046 -3.37289 -0.308838 0
M  V30 8920 C 821.092 -4.22637 0.572717 0
M  V30 8921 S 821.925 -4.95758 2.02446 0
M  V30 8922 C 823.081 -6.13338 1.2477 0
M  V30 8923 H 823.314 -2.6604 1.32702 0
M  V30 8924 H 820.847 -1.32455 0.793415 0
M  V30 8925 H 822.805 -4.03472 -0.756351 0
M  V30 8926 H 821.466 -2.92922 -1.13381 0
M  V30 8927 H 820.659 -5.0399 -0.0318024 0
M  V30 8928 H 820.261 -3.61555 0.956746 0
M  V30 8929 H 822.553 -6.7556 0.51231 0
M  V30 8930 H 823.496 -6.78189 2.03629 0
M  V30 8931 H 823.904 -5.59311 0.763622 0
M  V30 8932 N 823.302 -0.75937 -1.38099 0
M  V30 8933 C 824.53 -0.329111 -2.04266 0
M  V30 8934 C 824.945 1.04453 -1.57274 0
M  V30 8935 O 824.302 1.66449 -0.748397 0
M  V30 8936 C 824.353 -0.349192 -3.5981 0
M  V30 8937 O 824.074 -1.66863 -4.05078 0
M  V30 8938 C 825.575 0.0942106 -4.432 0
M  V30 8939 H 822.795 -0.13971 -0.656294 0
M  V30 8940 H 825.339 -1.02984 -1.76677 0
M  V30 8941 H 823.494 0.302846 -3.86214 0
M  V30 8942 H 823.908 -1.59877 -4.9954 0
M  V30 8943 H 825.382 0.0290004 -5.51992 0
M  V30 8944 H 825.859 1.1429 -4.24069 0
M  V30 8945 H 826.465 -0.529171 -4.21995 0
M  V30 8946 N 824.78 1.49157 -0.508906 0
M  V30 8947 C 826.196 1.58741 -0.165372 0
M  V30 8948 C 826.396 1.5133 1.33047 0
M  V30 8949 O 825.452 1.39135 2.10707 0
M  V30 8950 C 826.765 2.91217 -0.749194 0
M  V30 8951 C 828.313 3.047 -0.716015 0
M  V30 8952 C 828.788 4.39807 -1.27804 0
M  V30 8953 N 830.279 4.46319 -1.23908 0
M  V30 8954 C 831.014 5.49325 -1.64406 0
M  V30 8955 N 830.51 6.59395 -2.12534 0
M  V30 8956 N 832.303 5.40084 -1.55773 0
M  V30 8957 H 824.454 1.52217 -1.48134 0
M  V30 8958 H 826.717 0.721514 -0.614915 0
M  V30 8959 H 826.423 3.02233 -1.79856 0
M  V30 8960 H 826.297 3.76592 -0.214144 0
M  V30 8961 H 828.684 2.9331 0.324535 0
M  V30 8962 H 828.765 2.2099 -1.2883 0
M  V30 8963 H 828.409 4.5195 -2.31741 0
M  V30 8964 H 828.339 5.2217 -0.681623 0
M  V30 8965 H 830.83 3.67354 -0.886537 0
M  V30 8966 H 831.143 7.34102 -2.41485 0
M  V30 8967 H 829.488 6.60414 -2.16513 0
M  V30 8968 H 832.679 4.52986 -1.17987 0
M  V30 8969 H 832.852 6.20233 -1.87657 0
M  V30 8970 N 826.258 0.243083 1.55714 0
M  V30 8971 C 827.488 -0.38641 2.02954 0
M  V30 8972 C 827.896 -1.52358 1.12177 0
M  V30 8973 O 827.239 -1.83255 0.127853 0
M  V30 8974 C 827.301 -0.959388 3.46462 0
M  V30 8975 C 826.965 0.0450546 4.56978 0
M  V30 8976 C 827.962 0.853224 5.12851 0
M  V30 8977 C 825.647 0.170041 5.02012 0
M  V30 8978 C 827.641 1.77288 6.12248 0
M  V30 8979 C 825.328 1.0932 6.01242 0
M  V30 8980 C 826.326 1.89315 6.56238 0
M  V30 8981 O 826.014 2.80075 7.53534 0
M  V30 8982 H 825.746 -0.0964333 0.669086 0
M  V30 8983 H 828.3 0.363399 2.0216 0
M  V30 8984 H 826.53 -1.75869 3.44394 0
M  V30 8985 H 828.219 -1.49856 3.77224 0
M  V30 8986 H 828.985 0.767229 4.78893 0
M  V30 8987 H 824.864 -0.442528 4.58871 0
M  V30 8988 H 828.408 2.39768 6.55101 0
M  V30 8989 H 824.305 1.18013 6.3462 0
M  V30 8990 H 825.073 2.74393 7.71136 0
M  V30 8991 N 827.736 -1.57571 -0.0300757 0
M  V30 8992 C 828.982 -1.89506 -0.722159 0
M  V30 8993 C 829.315 -0.840699 -1.7506 0
M  V30 8994 O 828.59 0.144358 -1.93964 0
M  V30 8995 C 828.873 -3.32081 -1.39262 0
M  V30 8996 C 828.726 -4.48211 -0.377768 0
M  V30 8997 C 830.045 -3.73557 -2.32687 0
M  V30 8998 H 827.164 -0.689213 -0.261064 0
M  V30 8999 H 829.806 -1.89994 0.0150388 0
M  V30 9000 H 827.956 -3.31796 -2.02098 0
M  V30 9001 H 829.628 -4.6063 0.248591 0
M  V30 9002 H 827.871 -4.3274 0.303045 0
M  V30 9003 H 828.542 -5.44854 -0.885347 0
M  V30 9004 H 831.018 -3.75202 -1.79896 0
M  V30 9005 H 829.894 -4.74125 -2.7658 0
M  V30 9006 H 830.155 -3.05759 -3.19317 0
M  V30 9007 N 829.214 0.302327 -1.54673 0
M  V30 9008 C 830.144 1.37759 -1.88533 0
M  V30 9009 C 831.125 1.52961 -0.744113 0
M  V30 9010 O 832.31 1.6649 -0.999731 0
M  V30 9011 C 829.44 2.74201 -2.13146 0
M  V30 9012 C 828.394 2.73765 -3.28993 0
M  V30 9013 C 827.72 4.13483 -3.39022 0
M  V30 9014 C 829.02 2.35624 -4.66132 0
M  V30 9015 H 830.714 1.0967 -2.78591 0
M  V30 9016 H 828.26 0.52613 -1.34044 0
M  V30 9017 H 830.213 3.49508 -2.35419 0
M  V30 9018 H 828.937 3.03812 -1.19858 0
M  V30 9019 H 827.596 2.00914 -3.06642 0
M  V30 9020 H 827.244 4.40269 -2.43253 0
M  V30 9021 H 826.944 4.14093 -4.16894 0
M  V30 9022 H 828.468 4.90572 -3.63553 0
M  V30 9023 H 829.882 3.00647 -4.88143 0
M  V30 9024 H 828.279 2.47449 -5.46707 0
M  V30 9025 H 829.349 1.30753 -4.66939 0
M  V30 9026 N 830.692 1.47107 0.565454 0
M  V30 9027 C 831.969 1.43787 1.32607 0
M  V30 9028 C 832.349 0.130428 2.10697 0
M  V30 9029 O 831.697 -0.888086 2.10536 0
M  V30 9030 C 831.907 2.67833 2.23755 0
M  V30 9031 C 833.255 3.14704 2.85037 0
M  V30 9032 O 834.279 2.68503 2.34061 0
M  V30 9033 O 833.138 3.95002 3.77671 0
M  V30 9034 H 830.232 0.572623 0.596684 0
M  V30 9035 H 832.778 1.59296 0.58504 0
M  V30 9036 H 831.55 3.54532 1.65597 0
M  V30 9037 H 831.173 2.54869 3.05168 0
M  V30 9038 N 832.17 -0.811516 1.35101 0
M  V30 9039 C 833.447 -1.55491 1.18667 0
M  V30 9040 C 833.827 -2.09775 -0.236189 0
M  V30 9041 O 833.175 -1.91989 -1.23905 0
M  V30 9042 C 833.385 -2.66732 2.25067 0
M  V30 9043 C 834.733 -3.35201 2.60625 0
M  V30 9044 O 835.757 -2.76998 2.23943 0
M  V30 9045 O 834.616 -4.40334 3.23679 0
M  V30 9046 H 831.71 -0.686783 0.460716 0
M  V30 9047 H 834.256 -0.851903 1.46768 0
M  V30 9048 H 833.028 -2.24457 3.20523 0
M  V30 9049 H 832.651 -3.44673 1.98208 0
M  V30 9050 N 833.648 -1.19017 -1.03309 0
M  V30 9051 C 834.58 -0.881847 -2.11556 0
M  V30 9052 C 835.593 0.123711 -1.62329 0
M  V30 9053 O 836.782 -0.105141 -1.7819 0
M  V30 9054 C 833.882 -0.297634 -3.37591 0
M  V30 9055 C 833.055 -1.35072 -4.16022 0
M  V30 9056 C 832.114 -0.780812 -5.20375 0
M  V30 9057 O 831.14 -1.45745 -5.50224 0
M  V30 9058 N 832.342 0.417964 -5.78993 0
M  V30 9059 H 835.107 -1.81359 -2.38598 0
M  V30 9060 H 832.668 -1.0916 -1.19565 0
M  V30 9061 H 834.66 0.097374 -4.04583 0
M  V30 9062 H 833.23 0.538299 -3.0793 0
M  V30 9063 H 832.45 -1.92074 -3.4424 0
M  V30 9064 H 833.738 -2.06044 -4.65213 0
M  V30 9065 H 833.136 0.985281 -5.57054 0
M  V30 9066 H 831.693 0.754802 -6.47415 0
M  V30 9067 N 835.127 1.22348 -0.993418 0
M  V30 9068 C 836.357 1.94842 -0.687023 0
M  V30 9069 C 836.765 1.73594 0.752445 0
M  V30 9070 O 836.108 1.03238 1.51946 0
M  V30 9071 C 836.17 3.47694 -0.913754 0
M  V30 9072 C 835.834 3.92678 -2.33781 0
M  V30 9073 C 836.831 4.0031 -3.31734 0
M  V30 9074 C 834.516 4.25311 -2.67237 0
M  V30 9075 C 836.51 4.39951 -4.61218 0
M  V30 9076 C 834.197 4.64631 -3.9694 0
M  V30 9077 C 835.195 4.71919 -4.93742 0
M  V30 9078 O 834.883 5.10349 -6.21127 0
M  V30 9079 H 834.615 0.626771 -0.253247 0
M  V30 9080 H 837.169 1.56436 -1.33105 0
M  V30 9081 H 835.399 3.86115 -0.212552 0
M  V30 9082 H 837.088 4.01403 -0.602528 0
M  V30 9083 H 837.854 3.75288 -3.07219 0
M  V30 9084 H 833.733 4.18842 -1.92594 0
M  V30 9085 H 837.277 4.45555 -5.36774 0
M  V30 9086 H 833.174 4.89104 -4.21245 0
M  V30 9087 H 833.942 5.2842 -6.25072 0
M  V30 9088 N 836.605 0.766683 1.37694 0
M  V30 9089 C 837.851 0.329201 2.0011 0
M  V30 9090 C 838.184 -1.09004 1.60723 0
M  V30 9091 O 837.459 -1.74895 0.850989 0
M  V30 9092 C 837.742 0.466989 3.57059 0
M  V30 9093 C 837.595 1.92828 4.06371 0
M  V30 9094 C 838.914 -0.131792 4.39903 0
M  V30 9095 H 836.033 0.12109 0.726984 0
M  V30 9096 H 838.675 0.968779 1.63446 0
M  V30 9097 H 836.825 -0.0775023 3.88423 0
M  V30 9098 H 838.497 2.53208 3.85595 0
M  V30 9099 H 836.74 2.43884 3.58752 0
M  V30 9100 H 837.411 1.97577 5.15429 0
M  V30 9101 H 839.887 0.332731 4.14768 0
M  V30 9102 H 838.763 -0.005217 5.489 0
M  V30 9103 H 839.024 -1.22156 4.24889 0
M  V30 9104 N 838.083 -1.48885 0.516809 0
M  V30 9105 C 839.308 -2.0739 -0.0205201 0
M  V30 9106 C 839.733 -1.37259 -1.28614 0
M  V30 9107 O 839.091 -0.434304 -1.76021 0
M  V30 9108 C 839.139 -3.59793 -0.24104 0
M  V30 9109 O 838.243 -3.90957 -1.31251 0
M  V30 9110 H 837.584 -0.663167 0.0332564 0
M  V30 9111 H 840.114 -1.91477 0.720956 0
M  V30 9112 H 840.124 -4.0531 -0.467737 0
M  V30 9113 H 838.799 -4.10244 0.68356 0
M  V30 9114 H 837.376 -3.57234 -1.06951 0
M  V30 9115 N 839.561 -0.251338 -1.55583 0
M  V30 9116 C 840.786 0.379136 -2.03905 0
M  V30 9117 C 841.211 1.50428 -1.12929 0
M  V30 9118 O 840.569 1.80882 -0.123114 0
M  V30 9119 C 840.617 0.86009 -3.50193 0
M  V30 9120 O 839.721 1.96932 -3.62342 0
M  V30 9121 H 839.062 0.0820183 -0.658915 0
M  V30 9122 H 841.592 -0.378692 -2.01065 0
M  V30 9123 H 841.602 1.16214 -3.91099 0
M  V30 9124 H 840.277 0.0367559 -4.15884 0
M  V30 9125 H 838.854 1.67163 -3.33333 0
M  V30 9126 N 841.039 1.57585 0.0217189 0
M  V30 9127 C 842.285 1.89887 0.712099 0
M  V30 9128 C 842.618 0.849971 1.74611 0
M  V30 9129 O 841.893 -0.13407 1.94037 0
M  V30 9130 C 842.176 3.32815 1.37499 0
M  V30 9131 C 842.029 4.48405 0.353993 0
M  V30 9132 C 843.348 3.74786 2.30703 0
M  V30 9133 H 840.467 0.690588 0.257405 0
M  V30 9134 H 843.109 1.89983 -0.0251145 0
M  V30 9135 H 841.259 3.32863 2.00335 0
M  V30 9136 H 842.931 4.60491 -0.273015 0
M  V30 9137 H 841.174 4.32573 -0.32599 0
M  V30 9138 H 841.845 5.45316 0.85644 0
M  V30 9139 H 844.321 3.76151 1.77904 0
M  V30 9140 H 843.197 4.75585 2.74061 0
M  V30 9141 H 843.458 3.07449 3.17691 0
M  V30 9142 N 842.517 -0.29412 1.54831 0
M  V30 9143 C 843.765 -1.02643 1.74094 0
M  V30 9144 C 844.086 -1.87563 0.533402 0
M  V30 9145 O 843.356 -1.9061 -0.452192 0
M  V30 9146 H 841.936 -0.381959 0.641963 0
M  V30 9147 H 844.598 -0.323444 1.92197 0
M  V30 9148 H 843.694 -1.67558 2.63307 0
M  V30 9149 N 843.995 -1.47404 -0.557645 0
M  V30 9150 C 845.223 -1.57622 -1.34026 0
M  V30 9151 C 845.638 -0.226256 -1.87439 0
M  V30 9152 O 844.995 0.78043 -1.64971 0
M  V30 9153 C 845.046 -2.60111 -2.51047 0
M  V30 9154 O 844.767 -3.89866 -1.99841 0
M  V30 9155 C 846.268 -2.80508 -3.43264 0
M  V30 9156 H 843.488 -0.532271 -0.40857 0
M  V30 9157 H 846.032 -1.93019 -0.675555 0
M  V30 9158 H 844.187 -2.27648 -3.13457 0
M  V30 9159 H 844.601 -4.45864 -2.76234 0
M  V30 9160 H 846.075 -3.56084 -4.21792 0
M  V30 9161 H 846.552 -1.88314 -3.9678 0
M  V30 9162 H 847.158 -3.14166 -2.86671 0
M  V30 9163 N 845.473 0.80434 -1.35529 0
M  V30 9164 C 846.42 1.91629 -1.28635 0
M  V30 9165 C 847.39 1.65348 -0.157862 0
M  V30 9166 O 848.575 1.87711 -0.341934 0
M  V30 9167 C 845.715 3.28207 -1.0665 0
M  V30 9168 C 844.828 3.66659 -2.28441 0
M  V30 9169 C 843.963 4.92279 -1.99588 0
M  V30 9170 C 843.002 5.23365 -3.1742 0
M  V30 9171 N 842.139 6.40165 -2.88328 0
M  V30 9172 H 846.979 1.96858 -2.23721 0
M  V30 9173 H 844.516 0.962871 -1.11208 0
M  V30 9174 H 846.474 4.06945 -0.919343 0
M  V30 9175 H 845.104 3.22441 -0.152253 0
M  V30 9176 H 844.156 2.83164 -2.54013 0
M  V30 9177 H 845.468 3.8559 -3.1642 0
M  V30 9178 H 844.622 5.78847 -1.81715 0
M  V30 9179 H 843.361 4.75387 -1.08896 0
M  V30 9180 H 842.366 4.35285 -3.35867 0
M  V30 9181 H 843.591 5.42185 -4.08916 0
M  V30 9182 H 841.537 6.24694 -2.00233 0
M  V30 9183 H 841.454 6.59357 -3.69843 0
M  V30 9184 H 842.722 7.29755 -2.74002 0
M  V30 9185 N 846.951 1.19563 1.02676 0
M  V30 9186 C 848.198 0.999568 1.7611 0
M  V30 9187 C 848.526 -0.469432 1.8875 0
M  V30 9188 O 847.781 -1.36481 1.40255 0
M  V30 9189 C 848.08 1.61619 3.18769 0
M  V30 9190 C 847.746 3.11366 3.26132 0
M  V30 9191 C 846.408 3.52234 3.27848 0
M  V30 9192 C 848.76 4.07374 3.25109 0
M  V30 9193 C 846.088 4.87658 3.26201 0
M  V30 9194 C 848.44 5.42731 3.25002 0
M  V30 9195 C 847.104 5.83027 3.25017 0
M  V30 9196 H 846.374 0.365768 0.644434 0
M  V30 9197 H 849.021 1.48838 1.20497 0
M  V30 9198 H 847.326 1.04974 3.77476 0
M  V30 9199 H 849.023 1.43975 3.74262 0
M  V30 9200 H 845.613 2.78804 3.25525 0
M  V30 9201 H 849.797 3.76842 3.22961 0
M  V30 9202 H 845.053 5.18156 3.24537 0
M  V30 9203 H 849.227 6.16879 3.23161 0
M  V30 9204 H 846.854 6.87936 3.23494 0
M  V30 9205 N 848.429 -1.21819 0.999893 0
M  V30 9206 C 849.84 -1.72517 0.713775 0
M  V30 9207 C 850.191 -1.80505 -0.768922 0
M  V30 9208 O 849.316 -1.45611 -1.60083 0
M  V30 9209 C 849.911 -3.13321 1.28901 0
M  V30 9210 C 848.47 -3.61396 1.05212 0
M  V30 9211 C 847.617 -2.39074 1.40494 0
M  V30 9212 H 850.568 -1.07068 1.17141 0
M  V30 9213 H 850.589 -3.74535 0.671084 0
M  V30 9214 H 850.101 -3.07475 2.36814 0
M  V30 9215 H 848.202 -3.72599 -0.0100732 0
M  V30 9216 H 848.315 -4.47145 1.72042 0
M  V30 9217 H 846.679 -2.41015 0.823642 0
M  V30 9218 H 847.462 -2.35884 2.49427 0
M  V30 9219 N 849.908 -0.773975 -1.37286 0
M  V30 9220 C 851.154 -0.339809 -1.99933 0
M  V30 9221 C 851.487 1.0815 -1.61299 0
M  V30 9222 O 850.762 1.74442 -0.860252 0
M  V30 9223 C 851.045 -0.485919 -3.56806 0
M  V30 9224 C 850.898 -1.9498 -4.05343 0
M  V30 9225 C 852.217 0.108461 -4.39966 0
M  V30 9226 H 849.336 -0.124944 -0.726332 0
M  V30 9227 H 851.978 -0.977433 -1.6293 0
M  V30 9228 H 850.128 0.0569023 -3.88458 0
M  V30 9229 H 851.8 -2.5525 -3.84246 0
M  V30 9230 H 850.043 -2.45784 -3.57453 0
M  V30 9231 H 850.714 -2.00308 -5.14374 0
M  V30 9232 H 853.19 -0.354722 -4.14585 0
M  V30 9233 H 852.066 -0.0238926 -5.48895 0
M  V30 9234 H 852.327 1.19901 -4.25531 0
M  V30 9235 N 851.386 1.48609 -0.524698 0
M  V30 9236 C 852.333 2.29539 0.240956 0
M  V30 9237 C 853.303 1.37033 0.938681 0
M  V30 9238 O 854.488 1.65996 0.940737 0
M  V30 9239 C 851.628 3.20278 1.28514 0
M  V30 9240 C 850.741 4.27858 0.596798 0
M  V30 9241 C 849.876 5.05784 1.62346 0
M  V30 9242 C 848.915 6.05173 0.918287 0
M  V30 9243 N 848.052 6.76176 1.89025 0
M  V30 9244 H 852.892 2.945 -0.455368 0
M  V30 9245 H 850.429 1.45188 -0.236403 0
M  V30 9246 H 852.387 3.71281 1.90279 0
M  V30 9247 H 851.017 2.57251 1.94992 0
M  V30 9248 H 850.069 3.80162 -0.134668 0
M  V30 9249 H 851.381 4.98782 0.0428506 0
M  V30 9250 H 850.535 5.60775 2.31553 0
M  V30 9251 H 849.274 4.34687 2.2113 0
M  V30 9252 H 848.279 5.49391 0.21212 0
M  V30 9253 H 849.504 6.78265 0.336633 0
M  V30 9254 H 847.45 6.07834 2.46726 0
M  V30 9255 H 847.367 7.43157 1.3876 0
M  V30 9256 H 848.635 7.35759 2.57446 0
M  V30 9257 N 852.864 0.259585 1.55447 0
M  V30 9258 C 854.11 -0.355207 2.00274 0
M  V30 9259 C 854.465 -1.54637 1.14477 0
M  V30 9260 O 853.758 -1.90519 0.203215 0
M  V30 9261 C 853.952 -0.802727 3.48269 0
M  V30 9262 C 853.781 0.34353 4.48386 0
M  V30 9263 C 852.551 0.822317 4.98564 0
M  V30 9264 C 854.749 1.17482 5.00702 0
M  V30 9265 N 852.731 1.93966 5.82452 0
M  V30 9266 C 854.102 2.14032 5.81885 0
M  V30 9267 C 856.157 1.20994 4.82975 0
M  V30 9268 C 854.86 3.1382 6.47232 0
M  V30 9269 C 856.886 2.19618 5.4911 0
M  V30 9270 C 856.248 3.14903 6.30092 0
M  V30 9271 H 852.347 -0.0955824 0.776137 0
M  V30 9272 H 854.931 0.380062 1.90954 0
M  V30 9273 H 853.102 -1.50726 3.57961 0
M  V30 9274 H 854.834 -1.39354 3.79951 0
M  V30 9275 H 851.589 0.404272 4.71871 0
M  V30 9276 H 852.013 2.50148 6.29091 0
M  V30 9277 H 856.655 0.487104 4.19985 0
M  V30 9278 H 854.373 3.87045 7.09381 0
M  V30 9279 H 857.959 2.23057 5.37342 0
M  V30 9280 H 856.839 3.8997 6.80362 0
M  V30 9281 N 854.342 -1.57594 -0.0133615 0
M  V30 9282 C 855.567 -1.94649 -0.715996 0
M  V30 9283 C 855.992 -0.860786 -1.67249 0
M  V30 9284 O 855.35 0.182228 -1.80382 0
M  V30 9285 C 855.398 -3.30789 -1.43566 0
M  V30 9286 O 854.502 -3.24148 -2.54955 0
M  V30 9287 H 853.843 -0.635801 -0.191449 0
M  V30 9288 H 856.373 -2.04569 0.0358478 0
M  V30 9289 H 856.383 -3.66045 -1.80208 0
M  V30 9290 H 855.058 -4.09367 -0.734263 0
M  V30 9291 H 853.635 -3.00548 -2.20739 0
M  V30 9292 N 855.82 0.285905 -1.54985 0
M  V30 9293 C 856.783 1.33625 -1.86218 0
M  V30 9294 C 857.783 1.42971 -0.735936 0
M  V30 9295 O 858.973 1.42345 -1.00417 0
M  V30 9296 C 856.105 2.71926 -2.05595 0
M  V30 9297 H 857.298 1.07167 -2.80099 0
M  V30 9298 H 854.851 0.523335 -1.47278 0
M  V30 9299 H 855.586 3.03583 -1.14053 0
M  V30 9300 H 855.371 2.6653 -2.87583 0
M  V30 9301 H 856.861 3.47841 -2.31077 0
M  V30 9302 N 857.298 1.47698 0.54982 0
M  V30 9303 C 858.709 1.48474 1.13191 0
M  V30 9304 C 859.06 0.243504 1.94683 0
M  V30 9305 O 858.185 -0.651009 2.06375 0
M  V30 9306 C 858.78 2.69022 2.05944 0
M  V30 9307 C 857.339 2.72733 2.5941 0
M  V30 9308 C 856.486 2.41691 1.35944 0
M  V30 9309 H 859.437 1.55101 0.336048 0
M  V30 9310 H 859.458 2.46412 2.89934 0
M  V30 9311 H 858.97 3.59345 1.46605 0
M  V30 9312 H 857.071 1.86568 3.22526 0
M  V30 9313 H 857.184 3.73628 2.99899 0
M  V30 9314 H 855.548 1.92428 1.66864 0
M  V30 9315 H 856.331 3.34231 0.783869 0
M  V30 9316 N 858.776 -0.797141 1.35954 0
M  V30 9317 C 859.686 -1.94088 1.31784 0
M  V30 9318 C 860.702 -1.72588 0.221227 0
M  V30 9319 O 861.878 -1.96256 0.452255 0
M  V30 9320 C 858.943 -3.28828 1.09878 0
M  V30 9321 C 858.004 -3.63158 2.28942 0
M  V30 9322 C 857.237 -4.91469 2.08072 0
M  V30 9323 O 857.46 -5.60616 1.05196 0
M  V30 9324 O 856.394 -5.24277 2.95664 0
M  V30 9325 H 860.22 -2.00554 2.28061 0
M  V30 9326 H 857.805 -0.936288 1.16422 0
M  V30 9327 H 859.687 -4.09473 0.995485 0
M  V30 9328 H 858.362 -3.23271 0.16659 0
M  V30 9329 H 857.269 -2.82851 2.44839 0
M  V30 9330 H 858.602 -3.7343 3.20641 0
M  V30 9331 N 860.254 -1.20106 -1.0204 0
M  V30 9332 C 861.5 -1.01039 -1.75838 0
M  V30 9333 C 861.833 0.456819 -1.88751 0
M  V30 9334 O 861.108 1.33919 -1.41053 0
M  V30 9335 C 861.391 -1.69009 -3.17975 0
M  V30 9336 C 861.244 -3.2315 -3.1288 0
M  V30 9337 C 862.563 -1.42005 -4.16561 0
M  V30 9338 H 859.682 -0.368465 -0.638281 0
M  V30 9339 H 862.324 -1.48066 -1.19064 0
M  V30 9340 H 860.474 -1.29026 -3.66449 0
M  V30 9341 H 862.146 -3.72402 -2.72239 0
M  V30 9342 H 860.389 -3.54253 -2.50374 0
M  V30 9343 H 861.06 -3.65862 -4.13339 0
M  V30 9344 H 863.536 -1.76685 -3.76725 0
M  V30 9345 H 862.412 -1.92101 -5.14187 0
M  V30 9346 H 862.673 -0.346884 -4.40737 0
M  V30 9347 N 861.732 1.21287 -1.00634 0
M  V30 9348 C 862.979 1.90389 -0.6898 0
M  V30 9349 C 863.307 1.78193 0.779574 0
M  V30 9350 O 862.562 1.15358 1.58085 0
M  V30 9351 C 862.861 3.41374 -1.05824 0
M  V30 9352 C 862.527 3.73766 -2.5221 0
M  V30 9353 C 861.189 3.82317 -2.92211 0
M  V30 9354 C 863.541 3.88871 -3.47028 0
M  V30 9355 C 860.869 4.03423 -4.2599 0
M  V30 9356 C 863.221 4.11484 -4.80483 0
M  V30 9357 C 861.885 4.18263 -5.20204 0
M  V30 9358 H 861.155 0.696683 -0.252416 0
M  V30 9359 H 863.802 1.43769 -1.26502 0
M  V30 9360 H 862.107 3.8974 -0.401281 0
M  V30 9361 H 863.804 3.93118 -0.79116 0
M  V30 9362 H 860.394 3.67702 -2.20212 0
M  V30 9363 H 864.578 3.8163 -3.17289 0
M  V30 9364 H 859.834 4.06902 -4.56334 0
M  V30 9365 H 864.008 4.22115 -5.53888 0
M  V30 9366 H 861.635 4.34369 -6.23881 0
M  V30 9367 N 863.21 0.781244 1.36873 0
M  V30 9368 C 864.16 0.147313 2.27524 0
M  V30 9369 C 865.144 -0.663928 1.46563 0
M  V30 9370 O 866.336 -0.525343 1.69024 0
M  V30 9371 C 863.465 -0.723511 3.35589 0
M  V30 9372 C 862.551 0.0960763 4.23991 0
M  V30 9373 N 862.942 1.14649 4.92635 0
M  V30 9374 C 861.24 -0.126397 4.45821 0
M  V30 9375 C 861.941 1.64474 5.57964 0
M  V30 9376 N 860.917 0.955316 5.3514 0
M  V30 9377 H 864.719 0.951406 2.78075 0
M  V30 9378 H 862.233 0.619913 1.50103 0
M  V30 9379 H 864.23 -1.19351 3.99451 0
M  V30 9380 H 862.89 -1.52624 2.86594 0
M  V30 9381 H 863.901 1.5288 4.94821 0
M  V30 9382 H 860.578 -0.900284 4.07678 0
M  V30 9383 H 861.968 2.52124 6.22803 0
M  V30 9384 N 864.689 -1.48329 0.532571 0
M  V30 9385 C 865.919 -2.066 0.00353785 0
M  V30 9386 C 866.327 -1.38913 -1.28451 0
M  V30 9387 O 865.67 -0.471385 -1.77549 0
M  V30 9388 C 865.732 -3.58342 -0.288324 0
M  V30 9389 C 865.396 -4.47917 0.906631 0
M  V30 9390 C 866.393 -4.87534 1.80572 0
M  V30 9391 C 864.078 -4.89783 1.11436 0
M  V30 9392 C 866.072 -5.6779 2.89642 0
M  V30 9393 C 863.759 -5.69809 2.20819 0
M  V30 9394 C 864.757 -6.08721 3.09755 0
M  V30 9395 O 864.445 -6.8714 4.17246 0
M  V30 9396 H 864.177 -0.675263 0.0315661 0
M  V30 9397 H 866.731 -1.91669 0.738375 0
M  V30 9398 H 864.961 -3.71395 -1.07717 0
M  V30 9399 H 866.65 -3.98726 -0.759752 0
M  V30 9400 H 867.416 -4.5581 1.65719 0
M  V30 9401 H 863.295 -4.58977 0.431382 0
M  V30 9402 H 866.839 -5.98082 3.59087 0
M  V30 9403 H 862.736 -6.00947 2.35655 0
M  V30 9404 H 863.504 -7.05498 4.14988 0
M  V30 9405 N 866.167 -0.267825 -1.55308 0
M  V30 9406 C 867.414 0.351036 -1.99434 0
M  V30 9407 C 867.742 1.56406 -1.15618 0
M  V30 9408 O 866.997 1.94548 -0.212045 0
M  V30 9409 C 867.296 0.784247 -3.48689 0
M  V30 9410 C 866.962 -0.323328 -4.49739 0
M  V30 9411 C 865.624 -0.627467 -4.77091 0
M  V30 9412 C 867.976 -1.07002 -5.10098 0
M  V30 9413 C 865.304 -1.682 -5.62073 0
M  V30 9414 C 867.656 -2.11422 -5.96224 0
M  V30 9415 C 866.32 -2.42479 -6.21901 0
M  V30 9416 H 865.59 0.128453 -0.729781 0
M  V30 9417 H 868.237 -0.380018 -1.87692 0
M  V30 9418 H 866.542 1.59485 -3.57871 0
M  V30 9419 H 868.239 1.2737 -3.80234 0
M  V30 9420 H 864.829 -0.0761528 -4.28532 0
M  V30 9421 H 869.013 -0.848302 -4.88996 0
M  V30 9422 H 864.269 -1.92772 -5.80215 0
M  V30 9423 H 868.443 -2.69759 -6.4203 0
M  V30 9424 H 866.07 -3.24328 -6.87543 0
M  V30 9425 N 867.645 1.57599 0.00500368 0
M  V30 9426 C 868.592 2.08106 0.998025 0
M  V30 9427 C 869.562 0.975374 1.34446 0
M  V30 9428 O 870.747 1.24749 1.44369 0
M  V30 9429 C 867.887 2.58496 2.28635 0
M  V30 9430 C 867 3.82947 1.99939 0
M  V30 9431 C 866.135 4.21857 3.22816 0
M  V30 9432 C 865.174 5.39159 2.89783 0
M  V30 9433 N 864.311 5.73386 4.05183 0
M  V30 9434 H 869.151 2.92684 0.560385 0
M  V30 9435 H 866.688 1.44692 0.265053 0
M  V30 9436 H 868.646 2.85787 3.03943 0
M  V30 9437 H 867.276 1.768 2.70077 0
M  V30 9438 H 866.328 3.62594 1.1502 0
M  V30 9439 H 867.64 4.68358 1.71588 0
M  V30 9440 H 866.794 4.50404 4.06474 0
M  V30 9441 H 865.533 3.35145 3.54301 0
M  V30 9442 H 864.538 5.1034 2.04532 0
M  V30 9443 H 865.763 6.27543 2.59551 0
M  V30 9444 H 863.709 4.89632 4.36574 0
M  V30 9445 H 863.626 6.53359 3.80339 0
M  V30 9446 H 864.894 6.06522 4.89644 0
M  V30 9447 N 869.123 -0.277682 1.55134 0
M  V30 9448 C 870.353 -1.02677 1.79279 0
M  V30 9449 C 870.761 -1.80599 0.563962 0
M  V30 9450 O 870.104 -1.77416 -0.476378 0
M  V30 9451 C 870.166 -2.03617 2.96277 0
M  V30 9452 C 869.83 -1.44676 4.33495 0
M  V30 9453 C 870.827 -0.864811 5.12657 0
M  V30 9454 C 868.512 -1.47537 4.80144 0
M  V30 9455 C 870.506 -0.319322 6.366 0
M  V30 9456 C 868.193 -0.926016 6.04043 0
M  V30 9457 C 869.191 -0.348988 6.82108 0
M  V30 9458 O 868.879 0.191964 8.03671 0
M  V30 9459 H 868.611 -0.309232 0.601125 0
M  V30 9460 H 871.165 -0.315308 2.02965 0
M  V30 9461 H 869.395 -2.78509 2.68272 0
M  V30 9462 H 871.084 -2.64616 3.07788 0
M  V30 9463 H 871.85 -0.835438 4.7775 0
M  V30 9464 H 867.729 -1.91389 4.19394 0
M  V30 9465 H 871.273 0.131709 6.97476 0
M  V30 9466 H 867.17 -0.952613 6.38432 0
M  V30 9467 H 867.938 0.0808779 8.1846 0
M  V30 9468 N 870.601 -1.47988 -0.541979 0
M  V30 9469 C 871.826 -1.59286 -1.32826 0
M  V30 9470 C 872.251 -0.24894 -1.86445 0
M  V30 9471 O 871.609 0.777581 -1.63778 0
M  V30 9472 C 871.657 -2.6334 -2.46343 0
M  V30 9473 O 870.761 -2.19667 -3.49028 0
M  V30 9474 H 870.102 -0.534543 -0.393903 0
M  V30 9475 H 872.632 -1.93885 -0.653427 0
M  V30 9476 H 872.642 -2.84238 -2.92699 0
M  V30 9477 H 871.317 -3.60913 -2.06675 0
M  V30 9478 H 869.894 -2.08932 -3.08872 0
M  V30 9479 N 872.079 0.78992 -1.36375 0
M  V30 9480 C 873.304 1.58389 -1.33895 0
M  V30 9481 C 873.729 1.8794 0.0774934 0
M  V30 9482 O 873.087 1.4785 1.0493 0
M  V30 9483 C 873.135 2.88201 -2.16732 0
M  V30 9484 O 872.239 3.81778 -1.55946 0
M  V30 9485 H 871.58 0.480471 -0.458305 0
M  V30 9486 H 874.11 0.979119 -1.79651 0
M  V30 9487 H 874.12 3.37475 -2.29292 0
M  V30 9488 H 872.795 2.66019 -3.19698 0
M  V30 9489 H 871.372 3.40371 -1.52323 0
M  V30 9490 N 873.557 1.20646 1.01402 0
M  V30 9491 C 874.504 0.957618 2.09996 0
M  V30 9492 C 875.474 -0.113115 1.65714 0
M  V30 9493 O 876.659 0.032142 1.90773 0
M  V30 9494 C 873.799 0.5186 3.41181 0
M  V30 9495 C 872.912 1.65777 3.98926 0
M  V30 9496 C 872.047 1.16881 5.18182 0
M  V30 9497 C 871.086 2.2809 5.68015 0
M  V30 9498 N 870.223 1.80392 6.7853 0
M  V30 9499 H 875.063 1.88732 2.30617 0
M  V30 9500 H 872.6 0.940703 1.13089 0
M  V30 9501 H 874.558 0.245367 4.16478 0
M  V30 9502 H 873.188 -0.3741 3.20625 0
M  V30 9503 H 872.24 2.04586 3.207 0
M  V30 9504 H 873.552 2.49507 4.31912 0
M  V30 9505 H 872.706 0.851694 6.00692 0
M  V30 9506 H 871.445 0.301434 4.86768 0
M  V30 9507 H 870.45 2.60614 4.84108 0
M  V30 9508 H 871.675 3.15308 6.01463 0
M  V30 9509 H 869.621 0.959856 6.4894 0
M  V30 9510 H 869.538 2.57701 7.10722 0
M  V30 9511 H 870.806 1.51688 7.64598 0
M  V30 9512 N 875.035 -1.20752 1.01276 0
M  V30 9513 C 876.26 -1.94547 0.718769 0
M  V30 9514 C 876.685 -1.7404 -0.713563 0
M  V30 9515 O 876.043 -1.03221 -1.49047 0
M  V30 9516 C 876.091 -3.44823 1.05497 0
M  V30 9517 O 875.195 -4.12072 0.164516 0
M  V30 9518 H 874.536 -0.607931 0.267051 0
M  V30 9519 H 877.066 -1.53292 1.35509 0
M  V30 9520 H 877.076 -3.95427 1.00507 0
M  V30 9521 H 875.751 -3.59072 2.09858 0
M  V30 9522 H 874.328 -3.71909 0.271615 0
M  V30 9523 N 876.513 -0.788492 -1.36457 0
M  V30 9524 C 877.79 -0.284484 -1.9352 0
M  V30 9525 C 878.17 1.2232 -1.7205 0
M  V30 9526 O 877.518 2.01424 -1.07892 0
M  V30 9527 C 877.728 -0.676106 -3.42388 0
M  V30 9528 C 879.076 -0.655327 -4.19512 0
M  V30 9529 O 880.1 -0.616523 -3.50824 0
M  V30 9530 O 878.959 -0.697391 -5.42032 0
M  V30 9531 H 876.053 -0.0701769 -0.824017 0
M  V30 9532 H 878.599 -0.870974 -1.45644 0
M  V30 9533 H 877.371 -1.71596 -3.51668 0
M  V30 9534 H 876.994 -0.0634517 -3.97549 0
M  V30 9535 N 877.991 1.48044 -0.54043 0
M  V30 9536 C 879.237 2.02797 -0.0101718 0
M  V30 9537 C 879.57 1.41565 1.32939 0
M  V30 9538 O 878.845 0.565139 1.86109 0
M  V30 9539 C 879.128 3.59959 0.100758 0
M  V30 9540 C 878.981 4.31654 -1.26471 0
M  V30 9541 C 880.3 4.32347 0.822455 0
M  V30 9542 H 877.419 0.736982 -0.00517052 0
M  V30 9543 H 880.061 1.76656 -0.69948 0
M  V30 9544 H 878.211 3.82363 0.687824 0
M  V30 9545 H 879.883 4.20639 -1.89369 0
M  V30 9546 H 878.126 3.92663 -1.84386 0
M  V30 9547 H 878.797 5.401 -1.13998 0
M  V30 9548 H 881.273 4.14835 0.324164 0
M  V30 9549 H 880.149 5.41978 0.868993 0
M  V30 9550 H 880.41 4.00369 1.87501 0
M  V30 9551 N 879.47 0.276058 1.55163 0
M  V30 9552 C 880.716 -0.333945 2.0064 0
M  V30 9553 C 881.071 -1.53414 1.16111 0
M  V30 9554 O 880.364 -1.90293 0.22341 0
M  V30 9555 C 880.558 -0.765744 3.491 0
M  V30 9556 C 880.387 0.391068 4.47996 0
M  V30 9557 C 879.157 0.875151 4.97664 0
M  V30 9558 C 881.355 1.22786 4.99428 0
M  V30 9559 N 879.337 2.00133 5.80362 0
M  V30 9560 C 880.708 2.20192 5.79582 0
M  V30 9561 C 882.763 1.26109 4.81665 0
M  V30 9562 C 881.466 3.20667 6.43868 0
M  V30 9563 C 883.492 2.2543 5.4675 0
M  V30 9564 C 882.854 3.21568 6.26716 0
M  V30 9565 H 878.953 -0.087345 0.777107 0
M  V30 9566 H 881.537 0.400294 1.90541 0
M  V30 9567 H 879.708 -1.46921 3.5954 0
M  V30 9568 H 881.44 -1.35316 3.81407 0
M  V30 9569 H 878.195 0.454297 4.71416 0
M  V30 9570 H 878.619 2.56806 6.26402 0
M  V30 9571 H 883.261 0.531622 4.19444 0
M  V30 9572 H 880.979 3.94547 7.05236 0
M  V30 9573 H 884.565 2.28744 5.34946 0
M  V30 9574 H 883.445 3.97164 6.76188 0
M  V30 9575 N 880.948 -1.576 0.00335426 0
M  V30 9576 C 881.911 -2.07576 -0.971838 0
M  V30 9577 C 882.911 -0.985796 -1.27038 0
M  V30 9578 O 884.101 -1.24833 -1.21501 0
M  V30 9579 C 881.233 -2.52003 -2.29581 0
M  V30 9580 H 882.426 -2.95008 -0.539481 0
M  V30 9581 H 879.979 -1.54381 -0.244186 0
M  V30 9582 H 880.714 -1.67825 -2.77498 0
M  V30 9583 H 880.499 -3.31609 -2.09231 0
M  V30 9584 H 881.989 -2.90983 -2.99531 0
M  V30 9585 N 882.426 0.269451 -1.5528 0
M  V30 9586 C 883.673 1.00058 -1.76053 0
M  V30 9587 C 884.001 1.86156 -0.563592 0
M  V30 9588 O 883.256 1.90366 0.453806 0
M  V30 9589 C 883.555 1.91 -3.02082 0
M  V30 9590 C 883.221 1.20623 -4.34466 0
M  V30 9591 C 881.883 1.01165 -4.70446 0
M  V30 9592 C 884.235 0.705695 -5.164 0
M  V30 9593 C 881.563 0.303865 -5.85913 0
M  V30 9594 C 883.915 0.0114838 -6.32599 0
M  V30 9595 C 882.579 -0.19478 -6.67216 0
M  V30 9596 H 881.849 0.366138 -0.644223 0
M  V30 9597 H 884.496 0.272563 -1.8955 0
M  V30 9598 H 882.801 2.70435 -2.835 0
M  V30 9599 H 884.498 2.47698 -3.15352 0
M  V30 9600 H 881.088 1.36781 -4.06188 0
M  V30 9601 H 885.272 0.84364 -4.89077 0
M  V30 9602 H 880.528 0.133368 -6.11255 0
M  V30 9603 H 884.702 -0.384111 -6.9534 0
M  V30 9604 H 882.329 -0.745201 -7.56539 0
M  V30 9605 N 883.904 1.48273 0.534124 0
M  V30 9606 C 885.152 1.55771 1.28762 0
M  V30 9607 C 885.473 0.231575 1.9362 0
M  V30 9608 O 884.743 -0.746533 1.81118 0
M  V30 9609 H 883.323 0.573851 0.47823 0
M  V30 9610 H 885.985 1.84712 0.621888 0
M  V30 9611 H 885.081 2.33657 2.06908 0
M  V30 9612 N 885.382 -0.782676 1.36792 0
M  V30 9613 C 886.631 -1.53605 1.30723 0
M  V30 9614 C 886.944 -1.95294 -0.109296 0
M  V30 9615 O 888.15 -2.69921 -0.292398 0
M  V30 9616 C 886.606 -2.77321 2.29393 0
M  V30 9617 C 886.214 -2.42774 3.76517 0
M  V30 9618 C 887.958 -3.55289 2.32314 0
M  V30 9619 C 885.865 -3.62926 4.66947 0
M  V30 9620 H 884.795 -0.576646 0.485794 0
M  V30 9621 H 887.446 -0.858255 1.62192 0
M  V30 9622 H 885.828 -3.46934 1.90927 0
M  V30 9623 H 887.002 -1.81014 4.23758 0
M  V30 9624 H 885.317 -1.78002 3.76436 0
M  V30 9625 H 887.914 -4.44573 2.97083 0
M  V30 9626 H 888.257 -3.94361 1.3336 0
M  V30 9627 H 888.79 -2.92662 2.69432 0
M  V30 9628 H 885.529 -3.28944 5.66989 0
M  V30 9629 H 885.049 -4.23828 4.24418 0
M  V30 9630 H 886.728 -4.29873 4.83548 0
M  V30 9631 N 886.86 -1.21182 -1.00761 0
M  V30 9632 C 887.79 -0.992773 -2.11344 0
M  V30 9633 C 888.771 0.0813618 -1.69905 0
M  V30 9634 O 889.956 -0.0779503 -1.94043 0
M  V30 9635 C 887.086 -0.553826 -3.42856 0
M  V30 9636 C 886.04 -1.57223 -3.98077 0
M  V30 9637 C 885.366 -0.989605 -5.25463 0
M  V30 9638 C 886.666 -2.95839 -4.30438 0
M  V30 9639 H 888.36 -1.91766 -2.29927 0
M  V30 9640 H 885.906 -0.923426 -1.10494 0
M  V30 9641 H 887.859 -0.387771 -4.19612 0
M  V30 9642 H 886.583 0.406702 -3.24058 0
M  V30 9643 H 885.242 -1.7258 -3.23437 0
M  V30 9644 H 884.89 -0.0208743 -5.02996 0
M  V30 9645 H 884.59 -1.66984 -5.63374 0
M  V30 9646 H 886.114 -0.834815 -6.04866 0
M  V30 9647 H 887.528 -2.8394 -4.98047 0
M  V30 9648 H 885.925 -3.60851 -4.79486 0
M  V30 9649 H 886.995 -3.46882 -3.38823 0
M  V30 9650 N 888.338 1.20213 -1.01915 0
M  V30 9651 C 889.271 2.2181 -0.536243 0
M  V30 9652 C 890.249 1.57144 0.417689 0
M  V30 9653 O 891.433 1.85461 0.337088 0
M  V30 9654 C 888.56 3.37989 0.219303 0
M  V30 9655 C 887.606 4.2097 -0.684571 0
M  V30 9656 S 888.439 4.90216 -2.15519 0
M  V30 9657 C 889.595 6.09814 -1.40988 0
M  V30 9658 H 889.828 2.62429 -1.39709 0
M  V30 9659 H 887.361 1.30305 -0.828254 0
M  V30 9660 H 889.319 4.05335 0.649112 0
M  V30 9661 H 887.98 2.95825 1.05575 0
M  V30 9662 H 887.173 5.03897 -0.101833 0
M  V30 9663 H 886.775 3.58892 -1.05227 0
M  V30 9664 H 889.067 6.73964 -0.691243 0
M  V30 9665 H 890.01 6.72552 -2.21539 0
M  V30 9666 H 890.418 5.5709 -0.911645 0
M  V30 9667 N 889.816 0.795718 1.36037 0
M  V30 9668 C 891.062 0.380668 1.99806 0
M  V30 9669 C 891.417 -1.03783 1.62009 0
M  V30 9670 O 890.71 -1.70819 0.867831 0
M  V30 9671 C 890.904 0.489038 3.54038 0
M  V30 9672 C 890.733 1.91652 4.06817 0
M  V30 9673 C 889.503 2.54252 4.36674 0
M  V30 9674 C 891.701 2.87956 4.26129 0
M  V30 9675 N 889.683 3.88523 4.75314 0
M  V30 9676 C 891.054 4.07074 4.67644 0
M  V30 9677 C 893.109 2.8493 4.08313 0
M  V30 9678 C 891.812 5.23583 4.93208 0
M  V30 9679 C 893.838 4.00632 4.35027 0
M  V30 9680 C 893.2 5.18496 4.76804 0
M  V30 9681 H 889.299 0.186842 0.759351 0
M  V30 9682 H 891.883 1.03465 1.64933 0
M  V30 9683 H 890.054 -0.134893 3.88166 0
M  V30 9684 H 891.786 0.0496256 4.0467 0
M  V30 9685 H 888.541 2.05685 4.26604 0
M  V30 9686 H 888.965 4.57623 4.98909 0
M  V30 9687 H 893.607 1.94964 3.75165 0
M  V30 9688 H 891.325 6.14129 5.25234 0
M  V30 9689 H 894.911 3.99659 4.22805 0
M  V30 9690 H 893.791 6.06538 4.97073 0
M  V30 9691 N 891.294 -1.47756 0.548274 0
M  V30 9692 C 892.204 -2.33678 -0.207773 0
M  V30 9693 C 893.22 -1.47636 -0.920843 0
M  V30 9694 O 894.396 -1.80583 -0.89173 0
M  V30 9695 C 891.461 -3.24147 -1.23003 0
M  V30 9696 C 890.522 -4.26073 -0.52535 0
M  V30 9697 C 889.755 -5.12219 -1.4989 0
M  V30 9698 O 889.978 -5.0066 -2.73305 0
M  V30 9699 O 888.912 -5.93051 -1.02828 0
M  V30 9700 H 892.738 -2.99609 0.496794 0
M  V30 9701 H 890.323 -1.4617 0.308982 0
M  V30 9702 H 892.205 -3.80055 -1.82034 0
M  V30 9703 H 890.88 -2.60855 -1.91668 0
M  V30 9704 H 889.787 -3.7395 0.105927 0
M  V30 9705 H 891.12 -4.92054 0.119686 0
M  V30 9706 N 892.772 -0.284283 -1.55015 0
M  V30 9707 C 894.018 0.330352 -2.00091 0
M  V30 9708 C 894.351 1.54814 -1.17244 0
M  V30 9709 O 893.626 1.92954 -0.244753 0
M  V30 9710 C 893.909 0.703492 -3.53161 0
M  V30 9711 C 893.762 -0.522275 -4.46758 0
M  V30 9712 C 895.081 1.53645 -4.12409 0
M  V30 9713 H 892.2 0.118599 -0.727395 0
M  V30 9714 H 894.842 -0.393054 -1.8589 0
M  V30 9715 H 892.992 1.31983 -3.65394 0
M  V30 9716 H 894.664 -1.16082 -4.46456 0
M  V30 9717 H 892.907 -1.15865 -4.1804 0
M  V30 9718 H 893.578 -0.217295 -5.51572 0
M  V30 9719 H 896.054 1.01583 -4.0351 0
M  V30 9720 H 894.93 1.76633 -5.19704 0
M  V30 9721 H 895.191 2.5204 -3.63219 0
M  V30 9722 N 894.251 1.57596 -0.0117121 0
M  V30 9723 C 895.498 1.91071 0.670667 0
M  V30 9724 C 895.826 0.886457 1.73125 0
M  V30 9725 O 895.081 -0.107135 1.95407 0
M  V30 9726 C 895.38 3.31296 1.34082 0
M  V30 9727 C 895.046 4.49011 0.412305 0
M  V30 9728 C 893.708 4.80945 0.156691 0
M  V30 9729 C 896.06 5.20709 -0.226294 0
M  V30 9730 C 893.388 5.81943 -0.745619 0
M  V30 9731 C 895.74 6.22668 -1.11655 0
M  V30 9732 C 894.404 6.53053 -1.38123 0
M  V30 9733 H 893.674 0.69918 0.245415 0
M  V30 9734 H 896.321 1.91373 -0.0697511 0
M  V30 9735 H 894.626 3.27174 2.15557 0
M  V30 9736 H 896.323 3.54461 1.87506 0
M  V30 9737 H 892.913 4.24067 0.621705 0
M  V30 9738 H 897.097 4.96282 -0.0418456 0
M  V30 9739 H 892.353 6.03839 -0.958566 0
M  V30 9740 H 896.527 6.77351 -1.61767 0
M  V30 9741 H 894.154 7.31132 -2.08208 0
M  V30 9742 N 895.729 -0.261212 1.5542 0
M  V30 9743 C 896.954 -1.01341 1.80955 0
M  V30 9744 C 897.379 -1.78711 0.586849 0
M  V30 9745 O 896.737 -1.75266 -0.463837 0
M  V30 9746 C 896.785 -1.93835 3.04073 0
M  V30 9747 O 895.889 -3.02791 2.79985 0
M  V30 9748 H 895.23 -0.289123 0.597749 0
M  V30 9749 H 897.76 -0.286543 2.02584 0
M  V30 9750 H 897.77 -2.3557 3.33123 0
M  V30 9751 H 896.445 -1.36936 3.9271 0
M  V30 9752 H 895.022 -2.65287 2.62063 0
M  V30 9753 N 897.207 -1.48554 -0.526253 0
M  V30 9754 C 898.137 -1.66252 -1.63959 0
M  V30 9755 C 899.118 -0.511351 -1.62232 0
M  V30 9756 O 900.303 -0.744322 -1.7937 0
M  V30 9757 C 897.433 -1.70556 -3.02536 0
M  V30 9758 C 896.387 -2.8521 -3.19123 0
M  V30 9759 C 895.713 -2.74606 -4.58798 0
M  V30 9760 C 897.013 -4.26463 -3.0154 0
M  V30 9761 H 898.707 -2.59459 -1.49404 0
M  V30 9762 H 896.253 -1.24862 -0.717326 0
M  V30 9763 H 898.206 -1.81524 -3.80298 0
M  V30 9764 H 896.93 -0.739297 -3.18123 0
M  V30 9765 H 895.589 -2.73802 -2.43779 0
M  V30 9766 H 895.237 -1.75941 -4.71226 0
M  V30 9767 H 894.937 -3.51544 -4.70841 0
M  V30 9768 H 896.461 -2.87548 -5.38655 0
M  V30 9769 H 897.875 -4.38685 -3.69091 0
M  V30 9770 H 896.272 -5.04428 -3.25073 0
M  V30 9771 H 897.342 -4.42667 -1.97925 0
M  V30 9772 N 898.685 0.775411 -1.37205 0
M  V30 9773 C 899.933 1.53081 -1.3195 0
M  V30 9774 C 900.254 1.9476 0.0966864 0
M  V30 9775 O 899.524 1.66019 1.03993 0
M  V30 9776 H 898.104 0.567762 -0.485444 0
M  V30 9777 H 900.766 0.92309 -1.71654 0
M  V30 9778 H 899.862 2.4319 -1.95614 0
M  V30 9779 N 900.163 1.21714 1.00117 0
M  V30 9780 C 901.11 0.979837 2.08968 0
M  V30 9781 C 902.08 -0.0955324 1.65825 0
M  V30 9782 O 903.265 0.0523742 1.90728 0
M  V30 9783 C 900.405 0.554758 3.40612 0
M  V30 9784 C 899.518 1.69999 3.97145 0
M  V30 9785 C 898.653 1.2237 5.16913 0
M  V30 9786 C 897.692 2.34101 5.65564 0
M  V30 9787 N 896.829 1.87579 6.76579 0
M  V30 9788 H 901.669 1.91167 2.28602 0
M  V30 9789 H 899.206 0.952645 1.12085 0
M  V30 9790 H 901.164 0.289526 4.16194 0
M  V30 9791 H 899.794 -0.340073 3.21004 0
M  V30 9792 H 898.846 2.07976 3.18512 0
M  V30 9793 H 900.158 2.54074 4.29241 0
M  V30 9794 H 899.312 0.915358 5.99755 0
M  V30 9795 H 898.051 0.353045 4.8642 0
M  V30 9796 H 897.056 2.65734 4.81316 0
M  V30 9797 H 898.281 3.21669 5.98085 0
M  V30 9798 H 896.227 1.02863 6.47885 0
M  V30 9799 H 896.144 2.65225 7.07949 0
M  V30 9800 H 897.412 1.5979 7.62947 0
M  V30 9801 N 901.641 -1.19671 1.02551 0
M  V30 9802 C 902.573 -2.22215 0.561517 0
M  V30 9803 C 903.586 -1.58751 -0.360821 0
M  V30 9804 O 904.775 -1.77802 -0.157749 0
M  V30 9805 C 901.875 -3.383 -0.201494 0
M  V30 9806 C 901.048 -4.3135 0.724952 0
M  V30 9807 C 900.107 -5.26199 0.00794334 0
M  V30 9808 O 899.133 -5.65665 0.633398 0
M  V30 9809 N 900.335 -5.66573 -1.26394 0
M  V30 9810 H 903.1 -2.6265 1.44343 0
M  V30 9811 H 900.661 -1.34303 0.904122 0
M  V30 9812 H 902.653 -3.98764 -0.690625 0
M  V30 9813 H 901.223 -2.96683 -0.98479 0
M  V30 9814 H 900.443 -3.6872 1.39423 0
M  V30 9815 H 901.731 -4.90433 1.35472 0
M  V30 9816 H 901.129 -5.36538 -1.79287 0
M  V30 9817 H 899.686 -6.29304 -1.69763 0
M  V30 9818 N 903.119 -0.802921 -1.35613 0
M  V30 9819 C 904.53 -0.443004 -1.81368 0
M  V30 9820 C 904.881 1.03459 -1.66706 0
M  V30 9821 O 904.006 1.80372 -1.19561 0
M  V30 9822 C 904.601 -0.797324 -3.29284 0
M  V30 9823 C 903.16 -0.490055 -3.73196 0
M  V30 9824 C 902.307 -1.02487 -2.57666 0
M  V30 9825 H 905.258 -0.994888 -1.23643 0
M  V30 9826 H 905.279 -0.0934638 -3.80385 0
M  V30 9827 H 904.791 -1.87278 -3.39924 0
M  V30 9828 H 902.892 0.576818 -3.68108 0
M  V30 9829 H 903.005 -1.02012 -4.68114 0
M  V30 9830 H 901.369 -0.44738 -2.5074 0
M  V30 9831 H 902.152 -2.10636 -2.71085 0
M  V30 9832 N 904.597 1.47463 -0.556102 0
M  V30 9833 C 905.827 2.06568 -0.0364056 0
M  V30 9834 C 906.235 1.40939 1.26225 0
M  V30 9835 O 905.578 0.499572 1.76777 0
M  V30 9836 C 905.64 3.58755 0.231278 0
M  V30 9837 C 905.304 4.46417 -0.977776 0
M  V30 9838 C 906.301 4.846 -1.88305 0
M  V30 9839 C 903.986 4.87948 -1.19214 0
M  V30 9840 C 905.98 5.63111 -2.98639 0
M  V30 9841 C 903.667 5.66224 -2.29857 0
M  V30 9842 C 904.665 6.03716 -3.194 0
M  V30 9843 O 904.353 6.80415 -4.28125 0
M  V30 9844 H 904.085 0.674675 -0.042305 0
M  V30 9845 H 906.639 1.9047 -0.768775 0
M  V30 9846 H 904.869 3.73061 1.01794 0
M  V30 9847 H 906.558 3.99884 0.696221 0
M  V30 9848 H 907.324 4.53115 -1.72949 0
M  V30 9849 H 903.203 4.58233 -0.504347 0
M  V30 9850 H 906.747 5.92293 -3.68557 0
M  V30 9851 H 902.644 5.97121 -2.45186 0
M  V30 9852 H 903.412 6.98807 -4.26159 0
M  V30 9853 N 906.075 0.2925 1.54862 0
M  V30 9854 C 907.352 -0.371946 1.92031 0
M  V30 9855 C 907.732 -1.72363 1.21878 0
M  V30 9856 O 907.08 -2.25779 0.351573 0
M  V30 9857 C 907.29 -0.495027 3.45471 0
M  V30 9858 C 908.638 -0.769855 4.17562 0
M  V30 9859 O 909.662 -0.579168 3.5146 0
M  V30 9860 O 908.521 -1.13561 5.34571 0
M  V30 9861 H 905.615 -0.206463 0.800813 0
M  V30 9862 H 908.161 0.339933 1.6626 0
M  V30 9863 H 906.933 0.455528 3.88639 0
M  V30 9864 H 906.556 -1.2557 3.7725 0
M  V30 9865 N 907.553 -1.57587 0.0200696 0
M  V30 9866 C 908.483 -2.12702 -0.963333 0
M  V30 9867 C 909.464 -1.04094 -1.34531 0
M  V30 9868 O 910.649 -1.31881 -1.42552 0
M  V30 9869 C 907.779 -2.64673 -2.24868 0
M  V30 9870 C 906.733 -3.77987 -2.00772 0
M  V30 9871 C 906.059 -4.16351 -3.35494 0
M  V30 9872 C 907.359 -5.0444 -1.35416 0
M  V30 9873 H 909.053 -2.95121 -0.504363 0
M  V30 9874 H 906.599 -1.41966 -0.24116 0
M  V30 9875 H 908.552 -3.01862 -2.94036 0
M  V30 9876 H 907.276 -1.79403 -2.72914 0
M  V30 9877 H 905.935 -3.41223 -1.34025 0
M  V30 9878 H 905.583 -3.28075 -3.81282 0
M  V30 9879 H 905.283 -4.92705 -3.20181 0
M  V30 9880 H 906.807 -4.56115 -4.05945 0
M  V30 9881 H 908.221 -5.39273 -1.94571 0
M  V30 9882 H 906.618 -5.85732 -1.30529 0
M  V30 9883 H 907.688 -4.83803 -0.325923 0
M  V30 9884 N 909.032 0.252966 -1.55557 0
M  V30 9885 C 910.262 0.998115 -1.8089 0
M  V30 9886 C 910.67 1.79679 -0.592623 0
M  V30 9887 O 910.013 1.78151 0.448093 0
M  V30 9888 C 910.075 1.98878 -2.99479 0
M  V30 9889 C 909.739 1.37761 -4.35742 0
M  V30 9890 C 910.736 0.783142 -5.13968 0
M  V30 9891 C 908.421 1.39879 -4.8243 0
M  V30 9892 C 910.415 0.218004 -6.37027 0
M  V30 9893 C 908.102 0.829801 -6.0544 0
M  V30 9894 C 909.1 0.240426 -6.82577 0
M  V30 9895 O 908.788 -0.319797 -8.03264 0
M  V30 9896 H 908.52 0.29963 -0.605969 0
M  V30 9897 H 911.074 0.282978 -2.03441 0
M  V30 9898 H 909.304 2.74206 -2.72669 0
M  V30 9899 H 910.993 2.59686 -3.11959 0
M  V30 9900 H 911.759 0.759326 -4.79019 0
M  V30 9901 H 907.638 1.84692 -4.22386 0
M  V30 9902 H 911.182 -0.242654 -6.97178 0
M  V30 9903 H 907.079 0.850924 -6.39867 0
M  V30 9904 H 907.847 -0.211078 -8.18228 0
M  V30 9905 N 910.51 1.48831 0.518367 0
M  V30 9906 C 911.787 1.47933 1.27966 0
M  V30 9907 C 912.167 0.197393 2.10175 0
M  V30 9908 O 911.515 -0.820656 2.13255 0
M  V30 9909 C 911.725 2.74816 2.15121 0
M  V30 9910 C 913.073 3.23613 2.74881 0
M  V30 9911 O 914.097 2.75814 2.254 0
M  V30 9912 O 912.956 4.06818 3.64913 0
M  V30 9913 H 910.05 0.591316 0.578164 0
M  V30 9914 H 912.596 1.61077 0.534065 0
M  V30 9915 H 911.368 3.59621 1.54234 0
M  V30 9916 H 910.991 2.64449 2.96905 0
M  V30 9917 N 911.988 -0.768124 1.37614 0
M  V30 9918 C 912.936 -1.9029 1.33763 0
M  V30 9919 C 913.93 -1.67888 0.225814 0
M  V30 9920 O 915.136 -1.75634 0.394043 0
M  V30 9921 H 911.511 -0.625828 0.416945 0
M  V30 9922 H 913.482 -1.90654 2.29551 0
M  V30 9923 C 912.231 -3.27598 1.16511 0
M  V30 9924 H 911.554 -3.45414 2.01318 0
M  V30 9925 H 912.994 -4.07288 1.17867 0
M  V30 9926 C 911.453 -3.36653 -0.129001 0
M  V30 9927 O 911.983 -3.86023 -1.11128 0
M  V30 9928 N 910.189 -2.90036 -0.180926 0
M  V30 9929 H 909.736 -2.5005 0.619076 0
M  V30 9930 H 909.694 -2.96475 -1.04641 0
M  V30 9931 N 913.466 -1.22244 -0.994698 0
M  V30 9932 C 914.691 -1.07299 -1.77487 0
M  V30 9933 C 915.116 0.372302 -1.84379 0
M  V30 9934 O 914.474 1.2689 -1.29494 0
M  V30 9935 C 914.522 -1.68675 -3.18718 0
M  V30 9936 O 913.626 -0.939202 -4.01563 0
M  V30 9937 H 912.967 -0.376979 -0.546611 0
M  V30 9938 H 915.497 -1.62003 -1.24965 0
M  V30 9939 H 915.507 -1.73324 -3.69354 0
M  V30 9940 H 914.182 -2.73849 -3.13017 0
M  V30 9941 H 912.759 -0.968583 -3.60101 0
M  V30 9942 N 914.944 1.19125 -1.03184 0
M  V30 9943 C 915.876 2.21914 -0.573294 0
M  V30 9944 C 916.889 1.5894 0.352397 0
M  V30 9945 O 918.078 1.77883 0.148318 0
M  V30 9946 C 915.178 3.38403 0.18355 0
M  V30 9947 C 914.351 4.3096 -0.747817 0
M  V30 9948 C 913.41 5.26188 -0.0358489 0
M  V30 9949 O 912.436 5.65321 -0.663388 0
M  V30 9950 N 913.638 5.67235 1.23387 0
M  V30 9951 H 916.403 2.61881 -1.45734 0
M  V30 9952 H 913.964 1.33821 -0.911231 0
M  V30 9953 H 915.956 3.99124 0.669468 0
M  V30 9954 H 914.526 2.97201 0.969043 0
M  V30 9955 H 913.746 3.67976 -1.41377 0
M  V30 9956 H 915.034 4.89708 -1.38071 0
M  V30 9957 H 914.432 5.37481 1.76439 0
M  V30 9958 H 912.989 6.30196 1.66423 0
M  V30 9959 N 916.422 0.810101 1.35185 0
M  V30 9960 C 917.668 0.392698 1.98962 0
M  V30 9961 C 918.001 -1.03835 1.64109 0
M  V30 9962 O 917.276 -1.721 0.9062 0
M  V30 9963 C 917.559 0.580349 3.55393 0
M  V30 9964 C 917.412 2.05658 4.00031 0
M  V30 9965 C 918.731 0.00822618 4.40099 0
M  V30 9966 H 915.85 0.144157 0.722764 0
M  V30 9967 H 918.492 1.02029 1.60281 0
M  V30 9968 H 916.642 0.0461106 3.88473 0
M  V30 9969 H 918.314 2.65348 3.77344 0
M  V30 9970 H 916.557 2.55174 3.50811 0
M  V30 9971 H 917.228 2.13875 5.08883 0
M  V30 9972 H 919.704 0.464517 4.13499 0
M  V30 9973 H 918.58 0.169414 5.48638 0
M  V30 9974 H 918.841 -1.08576 4.2856 0
M  V30 9975 N 917.9 -1.47166 0.563914 0
M  V30 9976 C 919.146 -2.02756 0.0424338 0
M  V30 9977 C 919.479 -1.43662 -1.3067 0
M  V30 9978 O 918.754 -0.594676 -1.85186 0
M  V30 9979 C 919.037 -3.60074 -0.0434793 0
M  V30 9980 C 918.89 -4.29587 1.33323 0
M  V30 9981 C 920.209 -4.336 -0.753568 0
M  V30 9982 H 917.328 -0.736806 0.0168946 0
M  V30 9983 H 919.97 -1.75521 0.727496 0
M  V30 9984 H 918.12 -3.83409 -0.626906 0
M  V30 9985 H 919.792 -4.17573 1.96037 0
M  V30 9986 H 918.035 -3.8968 1.9061 0
M  V30 9987 H 918.706 -5.38218 1.22576 0
M  V30 9988 H 921.182 -4.15299 -0.258126 0
M  V30 9989 H 920.058 -5.43291 -0.782659 0
M  V30 9990 H 920.319 -4.03302 -1.81108 0
M  V30 9991 N 919.378 -0.300708 -1.54705 0
M  V30 9992 C 920.308 0.568675 -2.26469 0
M  V30 9993 C 921.289 1.13817 -1.26411 0
M  V30 9994 O 922.474 1.16756 -1.55183 0
M  V30 9995 C 919.604 1.74077 -3.00524 0
M  V30 9996 C 918.558 1.30165 -4.07727 0
M  V30 9997 C 917.884 2.55888 -4.69495 0
M  V30 9998 C 919.184 0.433106 -5.20501 0
M  V30 9999 H 920.878 -0.0298851 -2.99385 0
M  V30 10000 H 918.424 -0.0158135 -1.43991 0
M  V30 10001 H 920.377 2.35506 -3.49449 0
M  V30 10002 H 919.101 2.36556 -2.25186 0
M  V30 10003 H 917.76 0.710414 -3.59651 0
M  V30 10004 H 917.408 3.16681 -3.90797 0
M  V30 10005 H 917.108 2.27207 -5.41895 0
M  V30 10006 H 918.632 3.18121 -5.21183 0
M  V30 10007 H 920.046 0.95307 -5.65322 0
M  V30 10008 H 918.443 0.240085 -5.9962 0
M  V30 10009 H 919.513 -0.541866 -4.81863 0
M  V30 10010 N 920.856 1.57574 -0.0284266 0
M  V30 10011 C 921.803 2.10176 0.953658 0
M  V30 10012 C 922.773 1.00367 1.32347 0
M  V30 10013 O 923.958 1.27783 1.4169 0
M  V30 10014 C 921.098 2.63287 2.231 0
M  V30 10015 C 920.211 3.87102 1.91771 0
M  V30 10016 C 919.346 4.28609 3.13795 0
M  V30 10017 C 918.385 5.45184 2.78282 0
M  V30 10018 N 917.522 5.81851 3.92929 0
M  V30 10019 H 922.362 2.93806 0.498176 0
M  V30 10020 H 919.899 1.45222 0.234302 0
M  V30 10021 H 921.857 2.9217 2.97813 0
M  V30 10022 H 920.487 1.82489 2.66266 0
M  V30 10023 H 919.539 3.64952 1.07303 0
M  V30 10024 H 920.851 4.71892 1.61615 0
M  V30 10025 H 920.005 4.58925 3.96829 0
M  V30 10026 H 918.744 3.42585 3.47112 0
M  V30 10027 H 917.749 5.14563 1.93661 0
M  V30 10028 H 918.974 6.32907 2.46182 0
M  V30 10029 H 916.92 4.98782 4.2609 0
M  V30 10030 H 916.837 6.6128 3.66395 0
M  V30 10031 H 918.105 6.16772 4.76669 0
M  V30 10032 N 922.334 -0.244713 1.55689 0
M  V30 10033 C 923.58 -0.973886 1.77886 0
M  V30 10034 C 923.913 -1.8489 0.594071 0
M  V30 10035 O 923.188 -1.90182 -0.407564 0
M  V30 10036 C 923.471 -1.83255 3.09983 0
M  V30 10037 C 923.324 -0.985571 4.3887 0
M  V30 10038 C 924.643 -2.81464 3.38329 0
M  V30 10039 H 921.762 -0.352629 0.647165 0
M  V30 10040 H 924.404 -0.244243 1.88424 0
M  V30 10041 H 922.554 -2.45464 3.01131 0
M  V30 10042 H 924.226 -0.382005 4.59716 0
M  V30 10043 H 922.469 -0.29002 4.32829 0
M  V30 10044 H 923.14 -1.62022 5.27686 0
M  V30 10045 H 925.616 -2.2939 3.47159 0
M  V30 10046 H 924.492 -3.38663 4.31971 0
M  V30 10047 H 924.753 -3.58037 2.59349 0
M  V30 10048 N 923.813 -1.49104 -0.510467 0
M  V30 10049 C 925.038 -1.62068 -1.29417 0
M  V30 10050 C 925.463 -0.288432 -1.85875 0
M  V30 10051 O 924.821 0.742667 -1.65391 0
M  V30 10052 C 924.869 -2.68506 -2.40701 0
M  V30 10053 O 923.973 -2.27021 -3.4429 0
M  V30 10054 H 923.314 -0.542778 -0.382476 0
M  V30 10055 H 925.844 -1.95228 -0.612154 0
M  V30 10056 H 925.854 -2.90383 -2.86604 0
M  V30 10057 H 924.529 -3.65216 -1.98973 0
M  V30 10058 H 923.106 -2.15436 -3.04371 0
M  V30 10059 N 925.291 0.760815 -1.38019 0
M  V30 10060 C 926.223 1.88387 -1.30549 0
M  V30 10061 C 927.236 1.61319 -0.219119 0
M  V30 10062 O 928.425 1.72033 -0.476122 0
M  V30 10063 C 925.525 3.23863 -0.998291 0
M  V30 10064 C 924.698 3.78492 -2.19232 0
M  V30 10065 C 923.757 4.92468 -1.85368 0
M  V30 10066 O 922.783 5.0748 -2.57785 0
M  V30 10067 N 923.985 5.74901 -0.804319 0
M  V30 10068 H 926.75 1.95308 -2.27322 0
M  V30 10069 H 924.311 0.940423 -1.31786 0
M  V30 10070 H 926.303 3.97644 -0.7524 0
M  V30 10071 H 924.873 3.12374 -0.11877 0
M  V30 10072 H 924.093 2.96361 -2.5993 0
M  V30 10073 H 925.381 4.11722 -2.98935 0
M  V30 10074 H 924.779 5.65333 -0.203628 0
M  V30 10075 H 923.336 6.48861 -0.618301 0
M  V30 10076 N 926.769 1.22769 0.988202 0
M  V30 10077 C 928.017 1.05301 1.725 0
M  V30 10078 C 928.338 -0.412103 1.90596 0
M  V30 10079 O 927.608 -1.29606 1.46898 0
M  V30 10080 H 926.188 0.386658 0.639144 0
M  V30 10081 H 928.85 1.54359 1.18993 0
M  V30 10082 H 927.946 1.53465 2.71763 0
M  V30 10083 N 928.247 -1.18576 1.03814 0
M  V30 10084 C 929.197 -2.20034 0.597409 0
M  V30 10085 C 930.181 -1.56849 -0.358796 0
M  V30 10086 O 931.373 -1.761 -0.178262 0
M  V30 10087 C 928.502 -3.43276 -0.0407965 0
M  V30 10088 C 927.588 -4.13588 0.938404 0
M  V30 10089 N 927.979 -4.59941 2.10447 0
M  V30 10090 C 926.277 -4.3941 0.763853 0
M  V30 10091 C 926.978 -5.1404 2.72282 0
M  V30 10092 N 925.954 -5.05401 2.00176 0
M  V30 10093 H 929.756 -2.53562 1.48606 0
M  V30 10094 H 927.27 -1.34753 0.906384 0
M  V30 10095 H 929.267 -4.15217 -0.374222 0
M  V30 10096 H 927.927 -3.11245 -0.925014 0
M  V30 10097 H 928.938 -4.54471 2.48347 0
M  V30 10098 H 925.615 -4.1744 -0.0704869 0
M  V30 10099 H 927.005 -5.60128 3.71088 0
M  V30 10100 N 929.725 -0.817259 -1.34754 0
M  V30 10101 C 931.141 -0.502309 -1.51489 0
M  V30 10102 C 931.341 0.974568 -1.76364 0
M  V30 10103 O 930.397 1.75924 -1.81127 0
M  V30 10104 C 931.71 -1.35693 -2.68343 0
M  V30 10105 C 933.258 -1.35347 -2.82224 0
M  V30 10106 C 933.733 -2.19244 -4.02114 0
M  V30 10107 N 935.224 -2.16837 -4.09311 0
M  V30 10108 C 935.959 -2.78505 -5.01221 0
M  V30 10109 N 935.455 -3.4914 -5.98392 0
M  V30 10110 N 937.248 -2.68089 -4.94049 0
M  V30 10111 H 929.399 -1.77359 -1.16866 0
M  V30 10112 H 931.662 -0.755476 -0.572678 0
M  V30 10113 H 931.368 -2.40548 -2.56573 0
M  V30 10114 H 931.242 -1.01764 -3.63213 0
M  V30 10115 H 933.629 -0.312727 -2.93438 0
M  V30 10116 H 933.71 -1.7327 -1.88179 0
M  V30 10117 H 933.354 -3.23365 -3.9166 0
M  V30 10118 H 933.284 -1.78675 -4.95361 0
M  V30 10119 H 935.775 -1.65452 -3.39756 0
M  V30 10120 H 936.088 -3.93455 -6.65141 0
M  V30 10121 H 934.433 -3.53246 -5.98533 0
M  V30 10122 H 937.624 -2.12485 -4.17094 0
M  V30 10123 H 937.797 -3.16436 -5.65484 0
M  V30 10124 N 931.203 1.46865 -0.571711 0
M  V30 10125 C 932.133 2.3298 0.155795 0
M  V30 10126 C 933.114 1.44678 0.894553 0
M  V30 10127 O 934.299 1.73513 0.872176 0
M  V30 10128 C 931.429 3.26745 1.17708 0
M  V30 10129 C 930.383 4.24401 0.553863 0
M  V30 10130 C 929.709 5.07595 1.68083 0
M  V30 10131 C 931.009 5.19884 -0.501827 0
M  V30 10132 H 932.703 2.94056 -0.563176 0
M  V30 10133 H 930.249 1.41402 -0.27228 0
M  V30 10134 H 932.202 3.85838 1.6943 0
M  V30 10135 H 930.926 2.63753 1.92618 0
M  V30 10136 H 929.585 3.66554 0.057815 0
M  V30 10137 H 929.233 4.40996 2.41933 0
M  V30 10138 H 928.933 5.73722 1.26953 0
M  V30 10139 H 930.457 5.6955 2.20103 0
M  V30 10140 H 931.871 5.73257 -0.0701057 0
M  V30 10141 H 930.268 5.94293 -0.832815 0
M  V30 10142 H 931.338 4.64482 -1.39229 0
M  V30 10143 N 932.681 0.308908 1.54543 0
M  V30 10144 C 933.911 -0.299983 2.04411 0
M  V30 10145 C 934.319 -1.47463 1.18538 0
M  V30 10146 O 933.662 -1.82547 0.205463 0
M  V30 10147 C 933.724 -0.811579 3.50219 0
M  V30 10148 C 933.388 0.238834 4.56375 0
M  V30 10149 C 934.385 1.06997 5.08771 0
M  V30 10150 C 932.07 0.382808 5.00839 0
M  V30 10151 C 934.064 2.03096 6.04178 0
M  V30 10152 C 931.751 1.34723 5.96065 0
M  V30 10153 C 932.749 2.16978 6.47618 0
M  V30 10154 O 932.437 3.11783 7.40977 0
M  V30 10155 H 932.169 -0.0679682 0.672574 0
M  V30 10156 H 934.723 0.448815 2.00437 0
M  V30 10157 H 932.953 -1.61104 3.51543 0
M  V30 10158 H 934.642 -1.33721 3.83241 0
M  V30 10159 H 935.408 0.969654 4.75208 0
M  V30 10160 H 931.287 -0.247507 4.60335 0
M  V30 10161 H 934.831 2.67338 6.44342 0
M  V30 10162 H 930.728 1.44824 6.29044 0
M  V30 10163 H 931.496 3.06853 7.58804 0
M  V30 10164 N 934.159 -1.57557 0.0367827 0
M  V30 10165 C 935.575 -1.56366 -0.31967 0
M  V30 10166 C 935.775 -1.04313 -1.72398 0
M  V30 10167 O 934.831 -0.693278 -2.42796 0
M  V30 10168 C 936.144 -3.00267 -0.161274 0
M  V30 10169 C 937.692 -3.12128 -0.233464 0
M  V30 10170 C 938.167 -4.57882 -0.103767 0
M  V30 10171 N 939.658 -4.62922 -0.160506 0
M  V30 10172 C 940.393 -5.73338 -0.0840493 0
M  V30 10173 N 939.889 -6.92786 0.043933 0
M  V30 10174 N 941.682 -5.61929 -0.138592 0
M  V30 10175 H 933.833 -1.8972 0.954996 0
M  V30 10176 H 936.096 -0.87304 0.369467 0
M  V30 10177 H 935.802 -3.42331 0.80639 0
M  V30 10178 H 935.676 -3.65599 -0.928304 0
M  V30 10179 H 938.063 -2.69972 -1.19159 0
M  V30 10180 H 938.144 -2.49503 0.564075 0
M  V30 10181 H 937.788 -5.0072 0.850973 0
M  V30 10182 H 937.718 -5.18496 -0.920268 0
M  V30 10183 H 940.209 -3.7701 -0.259257 0
M  V30 10184 H 940.522 -7.72741 0.095372 0
M  V30 10185 H 938.867 -6.94955 0.0788211 0
M  V30 10186 H 942.058 -4.67499 -0.237031 0
M  V30 10187 H 942.231 -6.47956 -0.075546 0
M  V30 10188 N 935.637 0.236453 -1.55816 0
M  V30 10189 C 937.048 0.80468 -1.68469 0
M  V30 10190 C 937.399 1.85601 -0.636133 0
M  V30 10191 O 936.524 2.15323 0.215622 0
M  V30 10192 C 937.119 1.46634 -3.05424 0
M  V30 10193 C 935.678 1.98214 -3.19981 0
M  V30 10194 C 934.825 0.83695 -2.64368 0
M  V30 10195 H 937.776 0.0120647 -1.58695 0
M  V30 10196 H 937.797 2.33472 -3.00451 0
M  V30 10197 H 937.309 0.700931 -3.81718 0
M  V30 10198 H 935.41 2.77604 -2.4853 0
M  V30 10199 H 935.523 2.17235 -4.2702 0
M  V30 10200 H 933.887 1.24028 -2.22462 0
M  V30 10201 H 934.67 0.084451 -3.43196 0
M  V30 10202 N 937.115 1.49373 0.502552 0
M  V30 10203 C 938.065 1.62321 1.60112 0
M  V30 10204 C 939.049 0.47895 1.53606 0
M  V30 10205 O 940.241 0.731824 1.61162 0
M  V30 10206 C 937.37 1.69162 2.98729 0
M  V30 10207 C 936.456 2.89161 3.10237 0
M  V30 10208 N 936.847 4.13256 2.91638 0
M  V30 10209 C 935.145 2.87065 3.41335 0
M  V30 10210 C 935.846 4.93913 3.07287 0
M  V30 10211 N 934.822 4.27249 3.36094 0
M  V30 10212 H 938.624 2.55989 1.44384 0
M  V30 10213 H 936.138 1.46123 0.708644 0
M  V30 10214 H 938.135 1.76536 3.77678 0
M  V30 10215 H 936.795 0.766301 3.15528 0
M  V30 10216 H 937.806 4.4326 2.67844 0
M  V30 10217 H 934.483 2.03905 3.6432 0
M  V30 10218 H 935.873 6.02491 2.97413 0
M  V30 10219 N 938.594 -0.753485 1.38421 0
M  V30 10220 C 939.524 -1.8808 1.38377 0
M  V30 10221 C 940.505 -1.68258 0.249664 0
M  V30 10222 O 941.69 -1.88848 0.45276 0
M  V30 10223 C 938.82 -3.25608 1.20818 0
M  V30 10224 C 937.774 -3.60032 2.31433 0
M  V30 10225 C 937.1 -4.96297 1.9898 0
M  V30 10226 C 938.4 -3.64898 3.73694 0
M  V30 10227 H 940.094 -1.88375 2.32713 0
M  V30 10228 H 937.64 -0.90489 1.12017 0
M  V30 10229 H 939.593 -4.04127 1.19412 0
M  V30 10230 H 938.317 -3.25793 0.229433 0
M  V30 10231 H 936.976 -2.83831 2.32025 0
M  V30 10232 H 936.624 -4.93043 0.995889 0
M  V30 10233 H 936.324 -5.20298 2.73063 0
M  V30 10234 H 937.848 -5.77196 1.99193 0
M  V30 10235 H 939.262 -4.33531 3.75132 0
M  V30 10236 H 937.659 -4.00407 4.46983 0
M  V30 10237 H 938.729 -2.65124 4.06002 0
M  V30 10238 N 940.072 -1.23292 -0.981677 0
M  V30 10239 C 941.035 -1.01417 -2.05542 0
M  V30 10240 C 942.035 0.0235354 -1.60783 0
M  V30 10241 O 943.225 -0.216082 -1.72855 0
M  V30 10242 C 940.357 -0.534239 -3.36688 0
M  V30 10243 H 941.55 -1.96702 -2.26381 0
M  V30 10244 H 939.103 -1.05318 -1.1549 0
M  V30 10245 H 939.838 0.422452 -3.21537 0
M  V30 10246 H 939.623 -1.28304 -3.70514 0
M  V30 10247 H 941.113 -0.40179 -4.15663 0
M  V30 10248 N 941.55 1.18024 -1.04442 0
M  V30 10249 C 942.775 1.92573 -0.770097 0
M  V30 10250 C 943.2 1.75871 0.667169 0
M  V30 10251 O 942.558 1.07136 1.46258 0
M  V30 10252 C 942.606 3.41904 -1.14602 0
M  V30 10253 O 941.71 4.11491 -0.273712 0
M  V30 10254 H 941.051 0.600636 -0.283076 0
M  V30 10255 H 943.581 1.49645 -1.39526 0
M  V30 10256 H 943.591 3.92623 -1.10956 0
M  V30 10257 H 942.266 3.53382 -2.19304 0
M  V30 10258 H 940.843 3.71059 -0.370124 0
M  V30 10259 N 943.028 0.824394 1.34319 0
M  V30 10260 C 944.305 0.335692 1.92698 0
M  V30 10261 C 944.685 -1.17715 1.75232 0
M  V30 10262 O 944.033 -1.98493 1.13194 0
M  V30 10263 C 944.243 0.766647 3.40475 0
M  V30 10264 C 945.591 0.766323 4.17627 0
M  V30 10265 O 946.615 0.709321 3.49066 0
M  V30 10266 O 945.474 0.840856 5.39992 0
M  V30 10267 H 942.568 0.0919996 0.821867 0
M  V30 10268 H 945.114 0.909282 1.43283 0
M  V30 10269 H 943.886 1.80859 3.46995 0
M  V30 10270 H 943.509 0.168833 3.97241 0
M  V30 10271 N 944.506 -1.46559 0.579492 0
M  V30 10272 C 945.734 -2.06784 0.0693648 0
M  V30 10273 C 946.149 -1.42875 -1.23419 0
M  V30 10274 O 945.506 -0.532919 -1.74546 0
M  V30 10275 C 945.557 -3.61343 -0.106511 0
M  V30 10276 O 945.278 -4.22861 1.14545 0
M  V30 10277 C 946.779 -4.38489 -0.651359 0
M  V30 10278 H 943.999 -0.66866 0.0559848 0
M  V30 10279 H 946.543 -1.88235 0.799245 0
M  V30 10280 H 944.698 -3.7933 -0.786601 0
M  V30 10281 H 945.112 -5.15691 0.95723 0
M  V30 10282 H 946.586 -5.47237 -0.723615 0
M  V30 10283 H 947.063 -4.06309 -1.66763 0
M  V30 10284 H 947.669 -4.253 -0.0062433 0
M  V30 10285 N 945.984 -0.3171 -1.54377 0
M  V30 10286 C 947.233 0.288271 -1.99629 0
M  V30 10287 C 947.546 1.53754 -1.2091 0
M  V30 10288 O 948.752 2.2185 -1.56508 0
M  V30 10289 C 947.208 0.564188 -3.5545 0
M  V30 10290 C 946.816 -0.667659 -4.42997 0
M  V30 10291 C 948.56 1.12987 -4.09187 0
M  V30 10292 C 946.467 -0.364003 -5.90279 0
M  V30 10293 H 945.397 0.111492 -0.745711 0
M  V30 10294 H 948.048 -0.428317 -1.78431 0
M  V30 10295 H 946.43 1.34079 -3.72611 0
M  V30 10296 H 947.604 -1.44335 -4.37612 0
M  V30 10297 H 945.919 -1.1531 -4.00116 0
M  V30 10298 H 948.516 1.37157 -5.1681 0
M  V30 10299 H 948.859 2.07722 -3.60773 0
M  V30 10300 H 949.392 0.414595 -3.95634 0
M  V30 10301 H 946.131 -1.28035 -6.42874 0
M  V30 10302 H 945.651 0.374102 -5.98632 0
M  V30 10303 H 947.33 0.0285433 -6.46994 0
M  V30 10304 N 947.462 1.57535 -0.0451378 0
M  V30 10305 C 948.692 1.96476 0.638814 0
M  V30 10306 C 949.1 0.921056 1.65267 0
M  V30 10307 O 948.443 -0.103843 1.83406 0
M  V30 10308 C 948.505 3.31629 1.38788 0
M  V30 10309 C 948.169 4.5391 0.530545 0
M  V30 10310 C 949.166 5.19512 -0.200864 0
M  V30 10311 C 946.851 5.00159 0.463242 0
M  V30 10312 C 948.845 6.29695 -0.988078 0
M  V30 10313 C 946.532 6.10221 -0.327665 0
M  V30 10314 C 947.53 6.74849 -1.05202 0
M  V30 10315 O 947.218 7.82795 -1.82993 0
M  V30 10316 H 946.95 0.651625 0.17989 0
M  V30 10317 H 949.504 2.05126 -0.106031 0
M  V30 10318 H 947.734 3.19516 2.17822 0
M  V30 10319 H 949.423 3.5536 1.96148 0
M  V30 10320 H 950.189 4.84742 -0.158299 0
M  V30 10321 H 946.068 4.49651 1.01663 0
M  V30 10322 H 949.612 6.80072 -1.55397 0
M  V30 10323 H 945.509 6.44428 -0.37189 0
M  V30 10324 H 946.277 7.99542 -1.7514 0
M  V30 10325 N 948.94 -0.228186 1.55939 0
M  V30 10326 C 949.872 -1.30605 1.88348 0
M  V30 10327 C 950.885 -1.43375 0.771198 0
M  V30 10328 O 952.074 -1.44391 1.04945 0
M  V30 10329 C 949.174 -2.68248 2.07115 0
M  V30 10330 C 948.347 -2.77509 3.38094 0
M  V30 10331 C 947.406 -3.96121 3.46373 0
M  V30 10332 O 946.432 -3.8477 4.19453 0
M  V30 10333 N 947.634 -5.10132 2.77031 0
M  V30 10334 H 950.399 -1.03132 2.81396 0
M  V30 10335 H 947.96 -0.418245 1.56404 0
M  V30 10336 H 949.952 -3.45966 2.09976 0
M  V30 10337 H 948.522 -2.88348 1.20723 0
M  V30 10338 H 947.742 -1.8632 3.47388 0
M  V30 10339 H 949.03 -2.80662 4.2439 0
M  V30 10340 H 948.428 -5.22249 2.17424 0
M  V30 10341 H 946.985 -5.85916 2.85561 0
M  V30 10342 N 950.418 -1.49637 -0.494624 0
M  V30 10343 C 951.667 -1.58691 -1.24499 0
M  V30 10344 C 951.98 -0.281763 -1.9356 0
M  V30 10345 O 953.186 -0.250925 -2.70338 0
M  V30 10346 C 951.642 -2.8002 -2.26091 0
M  V30 10347 C 951.25 -4.17318 -1.6294 0
M  V30 10348 C 952.994 -2.98407 -3.01916 0
M  V30 10349 C 950.901 -5.29862 -2.62679 0
M  V30 10350 H 949.831 -0.590888 -0.468367 0
M  V30 10351 H 952.482 -1.76034 -0.518112 0
M  V30 10352 H 950.864 -2.56185 -3.01969 0
M  V30 10353 H 952.038 -4.51315 -0.930108 0
M  V30 10354 H 950.353 -4.04342 -0.994819 0
M  V30 10355 H 952.95 -3.79658 -3.76516 0
M  V30 10356 H 953.293 -2.09214 -3.5991 0
M  V30 10357 H 953.826 -3.22312 -2.33152 0
M  V30 10358 H 950.565 -6.21134 -2.09458 0
M  V30 10359 H 950.085 -5.00311 -3.3083 0
M  V30 10360 H 951.764 -5.59461 -3.2498 0
M  V30 10361 N 951.896 0.746133 -1.38819 0
M  V30 10362 C 952.829 1.86833 -1.31029 0
M  V30 10363 C 953.807 1.61533 -0.185948 0
M  V30 10364 O 954.991 1.84942 -0.364529 0
M  V30 10365 C 952.118 3.22596 -1.03198 0
M  V30 10366 C 951.164 3.66772 -2.17671 0
M  V30 10367 S 951.997 3.77438 -3.7987 0
M  V30 10368 C 953.153 5.16008 -3.54241 0
M  V30 10369 H 953.386 1.93155 -2.26005 0
M  V30 10370 H 950.919 0.909872 -1.24742 0
M  V30 10371 H 952.877 4.00995 -0.878237 0
M  V30 10372 H 951.538 3.13943 -0.0992704 0
M  V30 10373 H 950.731 4.65266 -1.93762 0
M  V30 10374 H 950.333 2.95547 -2.2919 0
M  V30 10375 H 952.625 6.01996 -3.10816 0
M  V30 10376 H 953.568 5.44941 -4.52156 0
M  V30 10377 H 953.976 4.85158 -2.88587 0
M  V30 10378 N 953.375 1.23811 0.975125 0
M  V30 10379 C 954.605 1.0986 1.7497 0
M  V30 10380 C 955.013 -0.352366 1.8589 0
M  V30 10381 O 954.356 -1.2553 1.34119 0
M  V30 10382 C 954.418 1.65584 3.19096 0
M  V30 10383 C 954.082 3.14395 3.3167 0
M  V30 10384 C 955.079 4.1163 3.17579 0
M  V30 10385 C 952.764 3.54208 3.56149 0
M  V30 10386 C 954.758 5.46661 3.27781 0
M  V30 10387 C 952.445 4.89382 3.65989 0
M  V30 10388 C 953.443 5.85418 3.51817 0
M  V30 10389 O 953.131 7.18135 3.61299 0
M  V30 10390 H 952.863 0.384854 0.555755 0
M  V30 10391 H 955.417 1.64242 1.23343 0
M  V30 10392 H 953.647 1.05627 3.71994 0
M  V30 10393 H 955.336 1.47032 3.78334 0
M  V30 10394 H 956.102 3.82214 2.98559 0
M  V30 10395 H 951.981 2.79968 3.66249 0
M  V30 10396 H 955.525 6.21601 3.16636 0
M  V30 10397 H 951.422 5.18473 3.84521 0
M  V30 10398 H 952.19 7.25956 3.78061 0
M  V30 10399 N 954.853 -1.17469 1.05066 0
M  V30 10400 C 956.078 -1.92162 0.780298 0
M  V30 10401 C 956.503 -1.76222 -0.657832 0
M  V30 10402 O 955.861 -1.0791 -1.45688 0
M  V30 10403 C 955.909 -3.41292 1.16414 0
M  V30 10404 O 955.013 -4.1134 0.295531 0
M  V30 10405 H 954.354 -0.599127 0.286257 0
M  V30 10406 H 956.884 -1.48903 1.40318 0
M  V30 10407 H 956.894 -3.92029 1.13036 0
M  V30 10408 H 955.569 -3.52214 2.21175 0
M  V30 10409 H 954.146 -3.70857 0.389797 0
M  V30 10410 N 956.331 -0.831506 -1.3388 0
M  V30 10411 C 957.571 -0.429648 -1.99833 0
M  V30 10412 C 957.935 0.990796 -1.6446 0
M  V30 10413 O 959.136 1.49599 -2.23324 0
M  V30 10414 C 957.407 -0.635558 -3.51704 0
M  V30 10415 S 958.966 -0.327824 -4.37574 0
M  V30 10416 H 955.784 -0.161939 -0.692313 0
M  V30 10417 H 958.386 -1.07919 -1.63015 0
M  V30 10418 H 957.09 -1.66887 -3.74936 0
M  V30 10419 H 956.621 0.0284073 -3.9339 0
M  V30 10420 H 958.636 0.855231 -4.88774 0
M  V30 10421 N 957.809 1.4625 -0.587256 0
M  V30 10422 C 959.055 2.0323 -0.0830359 0
M  V30 10423 C 959.41 1.45007 1.26455 0
M  V30 10424 O 958.703 0.607494 1.81714 0
M  V30 10425 C 958.897 3.57382 0.036328 0
M  V30 10426 C 958.726 4.30556 -1.29814 0
M  V30 10427 C 957.496 4.69285 -1.87349 0
M  V30 10428 C 959.694 4.63806 -2.22236 0
M  V30 10429 N 957.676 5.27229 -3.14488 0
M  V30 10430 C 959.047 5.22368 -3.33964 0
M  V30 10431 C 961.102 4.45738 -2.2186 0
M  V30 10432 C 959.805 5.64769 -4.45454 0
M  V30 10433 C 961.831 4.89158 -3.32383 0
M  V30 10434 C 961.193 5.47795 -4.42832 0
M  V30 10435 H 957.292 0.77856 -0.0732716 0
M  V30 10436 H 959.876 1.78343 -0.781152 0
M  V30 10437 H 958.047 3.81973 0.703621 0
M  V30 10438 H 959.779 4.01009 0.545347 0
M  V30 10439 H 956.534 4.5219 -1.40789 0
M  V30 10440 H 956.958 5.60719 -3.79372 0
M  V30 10441 H 961.6 3.99735 -1.37739 0
M  V30 10442 H 959.318 6.09748 -5.30314 0
M  V30 10443 H 962.904 4.76926 -3.33216 0
M  V30 10444 H 961.784 5.80778 -5.26941 0
M  V30 10445 N 959.287 0.325282 1.54207 0
M  V30 10446 C 960.237 -0.55548 2.2113 0
M  V30 10447 C 961.221 -1.0803 1.19241 0
M  V30 10448 O 962.413 -1.01703 1.44864 0
M  V30 10449 C 959.542 -1.71504 2.97391 0
M  V30 10450 C 958.628 -1.20503 4.0662 0
M  V30 10451 N 959.019 -0.414838 5.04096 0
M  V30 10452 C 957.317 -1.4836 4.20601 0
M  V30 10453 C 958.018 -0.140225 5.81531 0
M  V30 10454 N 956.994 -0.72683 5.38719 0
M  V30 10455 H 960.796 0.0555192 2.93848 0
M  V30 10456 H 958.31 0.131225 1.61869 0
M  V30 10457 H 960.307 -2.35781 3.43821 0
M  V30 10458 H 958.967 -2.3295 2.26195 0
M  V30 10459 H 959.978 -0.0575291 5.17868 0
M  V30 10460 H 956.655 -2.10378 3.60621 0
M  V30 10461 H 958.045 0.496026 6.70067 0
M  V30 10462 N 960.765 -1.57509 0.0534917 0
M  V30 10463 C 961.675 -2.15152 -0.935249 0
M  V30 10464 C 962.691 -1.10991 -1.34003 0
M  V30 10465 O 963.867 -1.43171 -1.41648 0
M  V30 10466 C 960.932 -2.68699 -2.19093 0
M  V30 10467 C 959.993 -3.87666 -1.84428 0
M  V30 10468 C 959.226 -4.3865 -3.0401 0
M  V30 10469 O 959.449 -3.887 -4.17455 0
M  V30 10470 O 958.383 -5.30209 -2.84889 0
M  V30 10471 H 962.209 -2.99962 -0.475009 0
M  V30 10472 H 959.794 -1.48446 -0.16854 0
M  V30 10473 H 961.676 -3.03098 -2.92762 0
M  V30 10474 H 960.351 -1.86958 -2.6425 0
M  V30 10475 H 959.258 -3.58151 -1.08068 0
M  V30 10476 H 960.591 -4.70643 -1.44068 0
M  V30 10477 N 962.243 0.219913 -1.56058 0
M  V30 10478 C 963.173 1.27572 -1.9557 0
M  V30 10479 C 964.154 1.48801 -0.824148 0
M  V30 10480 O 965.339 1.60957 -1.08658 0
M  V30 10481 C 962.469 2.62517 -2.27381 0
M  V30 10482 C 961.423 2.55941 -3.43042 0
M  V30 10483 C 960.749 3.94931 -3.60463 0
M  V30 10484 C 962.049 2.10584 -4.77966 0
M  V30 10485 H 963.743 0.947482 -2.84013 0
M  V30 10486 H 961.289 0.454337 -1.36645 0
M  V30 10487 H 963.242 3.36538 -2.53615 0
M  V30 10488 H 961.966 2.97031 -1.35794 0
M  V30 10489 H 960.625 1.84377 -3.1686 0
M  V30 10490 H 960.273 4.26756 -2.66249 0
M  V30 10491 H 959.973 3.91413 -4.38258 0
M  V30 10492 H 961.497 4.70611 -3.89046 0
M  V30 10493 H 962.911 2.74349 -5.03394 0
M  V30 10494 H 961.308 2.18122 -5.59055 0
M  V30 10495 H 962.378 1.05818 -4.73213 0
M  V30 10496 N 963.721 1.49897 0.486681 0
M  V30 10497 C 965.132 1.53142 1.06792 0
M  V30 10498 C 965.483 0.325856 1.93475 0
M  V30 10499 O 964.608 -0.562893 2.08951 0
M  V30 10500 C 965.203 2.77514 1.94348 0
M  V30 10501 C 963.762 2.83491 2.47609 0
M  V30 10502 C 962.909 2.47239 1.2557 0
M  V30 10503 H 965.86 1.56387 0.269962 0
M  V30 10504 H 965.881 2.58487 2.79221 0
M  V30 10505 H 965.393 3.65239 1.31232 0
M  V30 10506 H 963.494 2.0008 3.14323 0
M  V30 10507 H 963.607 3.86011 2.83782 0
M  V30 10508 H 961.971 1.99332 1.58552 0
M  V30 10509 H 962.754 3.37255 0.641404 0
M  V30 10510 N 965.199 -0.738761 1.39212 0
M  V30 10511 C 966.109 -1.88324 1.39897 0
M  V30 10512 C 967.125 -1.71494 0.294229 0
M  V30 10513 O 968.301 -1.94162 0.535087 0
M  V30 10514 C 965.366 -3.23871 1.23726 0
M  V30 10515 C 964.427 -3.53121 2.44139 0
M  V30 10516 C 963.66 -4.82202 2.2873 0
M  V30 10517 O 963.883 -5.55649 1.28879 0
M  V30 10518 O 962.817 -5.11265 3.17634 0
M  V30 10519 H 966.643 -1.90701 2.36362 0
M  V30 10520 H 964.228 -0.886067 1.20288 0
M  V30 10521 H 966.11 -4.04882 1.16826 0
M  V30 10522 H 964.785 -3.22274 0.303551 0
M  V30 10523 H 963.692 -2.72212 2.56615 0
M  V30 10524 H 965.025 -3.59495 3.36191 0
M  V30 10525 N 966.677 -1.24326 -0.968545 0
M  V30 10526 C 967.624 -1.0349 -2.06297 0
M  V30 10527 C 968.594 0.0515333 -1.6602 0
M  V30 10528 O 969.779 -0.102924 -1.90522 0
M  V30 10529 C 966.919 -0.64487 -3.39021 0
M  V30 10530 C 966.032 -1.80469 -3.92498 0
M  V30 10531 C 965.167 -1.36032 -5.13487 0
M  V30 10532 C 964.206 -2.49014 -5.59159 0
M  V30 10533 N 963.343 -2.05451 -6.71367 0
M  V30 10534 H 968.183 -1.97161 -2.23454 0
M  V30 10535 H 965.72 -0.982028 -1.0952 0
M  V30 10536 H 967.678 -0.399771 -4.1528 0
M  V30 10537 H 966.308 0.254845 -3.21792 0
M  V30 10538 H 965.36 -2.16348 -3.12886 0
M  V30 10539 H 966.672 -2.65365 -4.22354 0
M  V30 10540 H 965.826 -1.07405 -5.97117 0
M  V30 10541 H 964.565 -0.481887 -4.85313 0
M  V30 10542 H 963.57 -2.78402 -4.74102 0
M  V30 10543 H 964.795 -3.37413 -5.89346 0
M  V30 10544 H 962.741 -1.20004 -6.4493 0
M  V30 10545 H 962.658 -2.83901 -7.00668 0
M  V30 10546 H 963.926 -1.79962 -7.58442 0
M  V30 10547 N 968.156 1.1691 -1.05688 0
M  V30 10548 C 969.572 1.39288 -0.779167 0
M  V30 10549 C 969.772 1.91587 0.624231 0
M  V30 10550 O 968.828 2.11072 1.38582 0
M  V30 10551 C 970.141 2.37914 -1.83895 0
M  V30 10552 C 971.689 2.51611 -1.86175 0
M  V30 10553 C 972.164 3.53514 -2.9119 0
M  V30 10554 N 973.655 3.61036 -2.90184 0
M  V30 10555 C 974.39 4.39657 -3.68088 0
M  V30 10556 N 973.886 5.21752 -4.55793 0
M  V30 10557 N 975.679 4.3458 -3.56507 0
M  V30 10558 H 967.83 0.81296 -1.96226 0
M  V30 10559 H 970.093 0.419818 -0.849975 0
M  V30 10560 H 969.799 2.06568 -2.84645 0
M  V30 10561 H 969.673 3.37483 -1.68479 0
M  V30 10562 H 972.06 2.82264 -0.86087 0
M  V30 10563 H 972.141 1.52099 -2.05668 0
M  V30 10564 H 971.785 3.23599 -3.91467 0
M  V30 10565 H 971.715 4.52742 -2.68947 0
M  V30 10566 H 974.206 3.02428 -2.26596 0
M  V30 10567 H 974.519 5.78939 -5.11907 0
M  V30 10568 H 972.864 5.21116 -4.59851 0
M  V30 10569 H 976.055 3.69501 -2.87379 0
M  V30 10570 H 976.228 4.95607 -4.17466 0
M  V30 10571 N 969.634 0.838594 1.33437 0
M  V30 10572 C 971.045 0.490934 1.8013 0
M  V30 10573 C 971.396 -0.990024 1.6939 0
M  V30 10574 O 970.521 -1.77139 1.24302 0
M  V30 10575 C 971.116 0.884347 3.27055 0
M  V30 10576 C 969.675 0.588829 3.71766 0
M  V30 10577 C 968.822 1.09282 2.54858 0
M  V30 10578 H 971.773 1.02732 1.20962 0
M  V30 10579 H 971.794 0.194283 3.80004 0
M  V30 10580 H 971.306 1.96225 3.34839 0
M  V30 10581 H 969.407 -0.479018 3.69508 0
M  V30 10582 H 969.52 1.14387 4.65245 0
M  V30 10583 H 967.884 0.513702 2.49466 0
M  V30 10584 H 968.667 2.1775 2.65405 0
M  V30 10585 N 971.112 -1.45937 0.595003 0
M  V30 10586 C 972.34 -2.06698 0.091293 0
M  V30 10587 C 972.755 -1.44176 -1.21897 0
M  V30 10588 O 972.112 -0.551402 -1.73971 0
M  V30 10589 C 972.163 -3.61436 -0.0681801 0
M  V30 10590 O 971.884 -4.21622 1.19023 0
M  V30 10591 C 973.385 -4.39155 -0.604814 0
M  V30 10592 H 970.605 -0.668029 0.0630737 0
M  V30 10593 H 973.149 -1.87376 0.819165 0
M  V30 10594 H 971.304 -3.80143 -0.746324 0
M  V30 10595 H 971.718 -5.14647 1.01187 0
M  V30 10596 H 973.192 -5.47973 -0.665532 0
M  V30 10597 H 973.669 -4.08055 -1.62444 0
M  V30 10598 H 974.275 -4.25282 0.0388658 0
M  V30 10599 N 972.59 -0.333456 -1.54032 0
M  V30 10600 C 973.837 0.266133 -2.00744 0
M  V30 10601 C 974.165 1.51361 -1.22148 0
M  V30 10602 O 973.42 1.93473 -0.294368 0
M  V30 10603 C 973.719 0.63565 -3.51702 0
M  V30 10604 C 973.385 -0.513786 -4.47963 0
M  V30 10605 C 972.047 -0.829253 -4.74001 0
M  V30 10606 C 974.399 -1.2854 -5.05101 0
M  V30 10607 C 971.727 -1.91888 -5.54433 0
M  V30 10608 C 974.079 -2.3652 -5.86721 0
M  V30 10609 C 972.743 -2.68637 -6.11057 0
M  V30 10610 H 972.013 0.097385 -0.734573 0
M  V30 10611 H 974.66 -0.459282 -1.85911 0
M  V30 10612 H 972.965 1.44163 -3.64313 0
M  V30 10613 H 974.662 1.11129 -3.85294 0
M  V30 10614 H 971.252 -0.25784 -4.27824 0
M  V30 10615 H 975.436 -1.05494 -4.84958 0
M  V30 10616 H 970.692 -2.17208 -5.71516 0
M  V30 10617 H 974.866 -2.96747 -6.30011 0
M  V30 10618 H 972.493 -3.53197 -6.73169 0
M  V30 10619 N 974.068 1.57479 -0.061844 0
M  V30 10620 C 975 2.09116 0.938245 0
M  V30 10621 C 976.013 1.0212 1.26788 0
M  V30 10622 O 977.202 1.2966 1.22681 0
M  V30 10623 C 974.302 2.52822 2.25686 0
M  V30 10624 C 973.475 3.83277 2.10755 0
M  V30 10625 C 972.534 4.13182 3.25833 0
M  V30 10626 O 971.56 4.82937 3.01265 0
M  V30 10627 N 972.762 3.65938 4.50633 0
M  V30 10628 H 975.527 2.95543 0.497433 0
M  V30 10629 H 973.088 1.61423 0.124134 0
M  V30 10630 H 975.08 2.69896 3.01559 0
M  V30 10631 H 973.65 1.71586 2.61299 0
M  V30 10632 H 972.87 3.7568 1.19409 0
M  V30 10633 H 974.158 4.68686 1.98018 0
M  V30 10634 H 973.556 3.09566 4.73482 0
M  V30 10635 H 972.113 3.8823 5.23565 0
M  V30 10636 N 975.546 -0.211634 1.56173 0
M  V30 10637 C 976.478 -1.286 1.89723 0
M  V30 10638 C 977.491 -1.42549 0.786361 0
M  V30 10639 O 978.68 -1.4327 1.06471 0
M  V30 10640 C 975.78 -2.66036 2.09948 0
M  V30 10641 C 974.953 -2.73908 3.41018 0
M  V30 10642 C 974.012 -3.92425 3.50555 0
M  V30 10643 O 973.038 -3.803 4.2351 0
M  V30 10644 N 974.24 -5.07165 2.82426 0
M  V30 10645 H 977.005 -1.00142 2.82474 0
M  V30 10646 H 974.566 -0.401633 1.56839 0
M  V30 10647 H 976.558 -3.43719 2.13634 0
M  V30 10648 H 975.128 -2.87052 1.23774 0
M  V30 10649 H 974.348 -1.82625 3.49345 0
M  V30 10650 H 975.636 -2.76145 4.27342 0
M  V30 10651 H 975.034 -5.19913 2.2295 0
M  V30 10652 H 973.591 -5.82855 2.9176 0
M  V30 10653 N 977.024 -1.50153 -0.478725 0
M  V30 10654 C 977.954 -1.71384 -1.58587 0
M  V30 10655 C 978.935 -0.562705 -1.60523 0
M  V30 10656 O 980.12 -0.80101 -1.76911 0
M  V30 10657 C 977.25 -1.80094 -2.96957 0
M  V30 10658 C 976.204 -2.95218 -3.09888 0
M  V30 10659 C 975.53 -2.89063 -4.49829 0
M  V30 10660 C 976.83 -4.35841 -2.8782 0
M  V30 10661 H 978.524 -2.64081 -1.41073 0
M  V30 10662 H 976.07 -1.27081 -0.677239 0
M  V30 10663 H 978.023 -1.93531 -3.74331 0
M  V30 10664 H 976.747 -0.840131 -3.1561 0
M  V30 10665 H 975.406 -2.81419 -2.34944 0
M  V30 10666 H 975.054 -1.90844 -4.6539 0
M  V30 10667 H 974.754 -3.66345 -4.59418 0
M  V30 10668 H 976.278 -3.04539 -5.29234 0
M  V30 10669 H 977.692 -4.50205 -3.54948 0
M  V30 10670 H 976.089 -5.14515 -3.0886 0
M  V30 10671 H 977.159 -4.48739 -1.83742 0
M  V30 10672 N 978.502 0.731368 -1.39602 0
M  V30 10673 C 979.432 1.85855 -1.41351 0
M  V30 10674 C 980.413 1.67839 -0.2764 0
M  V30 10675 O 981.598 1.88104 -0.482747 0
M  V30 10676 C 978.728 3.23644 -1.25983 0
M  V30 10677 C 977.682 3.56304 -2.37132 0
M  V30 10678 C 977.008 4.93069 -2.0685 0
M  V30 10679 C 978.308 3.58906 -3.79452 0
M  V30 10680 H 980.002 1.84648 -2.3568 0
M  V30 10681 H 977.548 0.886955 -1.13442 0
M  V30 10682 H 979.501 4.02176 -1.25826 0
M  V30 10683 H 978.225 3.25387 -0.281234 0
M  V30 10684 H 976.884 2.80104 -2.36511 0
M  V30 10685 H 976.532 4.91396 -1.0742 0
M  V30 10686 H 976.232 5.15888 -2.81306 0
M  V30 10687 H 977.756 5.73953 -2.0835 0
M  V30 10688 H 979.17 4.27508 -3.81982 0
M  V30 10689 H 977.567 3.93246 -4.53297 0
M  V30 10690 H 978.637 2.58631 -4.10168 0
M  V30 10691 N 979.98 1.24838 0.961938 0
M  V30 10692 C 981.205 1.11967 1.7458 0
M  V30 10693 C 981.63 -0.323287 1.85301 0
M  V30 10694 O 980.988 -1.23412 1.32812 0
M  V30 10695 C 981.036 1.77066 3.14134 0
M  V30 10696 O 980.14 1.04534 3.98932 0
M  V30 10697 H 979.481 0.391338 0.536424 0
M  V30 10698 H 982.011 1.65259 1.20626 0
M  V30 10699 H 982.021 1.83056 3.64629 0
M  V30 10700 H 980.696 2.82052 3.05646 0
M  V30 10701 H 979.273 1.06372 3.57407 0
M  V30 10702 N 981.458 -1.16348 1.06306 0
M  V30 10703 C 982.683 -1.91323 0.800636 0
M  V30 10704 C 983.108 -1.7691 -0.639105 0
M  V30 10705 O 982.466 -1.0945 -1.44535 0
M  V30 10706 C 982.514 -3.40038 1.20027 0
M  V30 10707 O 981.618 -4.11003 0.339142 0
M  V30 10708 H 980.959 -0.596057 0.292595 0
M  V30 10709 H 983.489 -1.47406 1.41889 0
M  V30 10710 H 983.499 -3.90808 1.17188 0
M  V30 10711 H 982.174 -3.49848 2.24898 0
M  V30 10712 H 980.751 -3.70423 0.42911 0
M  V30 10713 N 982.937 -0.845659 -1.3299 0
M  V30 10714 C 984.186 -0.440928 -1.96822 0
M  V30 10715 C 984.499 1.00668 -1.67706 0
M  V30 10716 O 985.705 1.51641 -2.25205 0
M  V30 10717 C 984.161 -0.73752 -3.52262 0
M  V30 10718 C 983.769 -2.20026 -3.90247 0
M  V30 10719 C 985.513 -0.400072 -4.22611 0
M  V30 10720 C 983.42 -2.44054 -5.38694 0
M  V30 10721 H 982.35 -0.161148 -0.736578 0
M  V30 10722 H 985.001 -1.03519 -1.51513 0
M  V30 10723 H 983.383 -0.0728025 -3.95933 0
M  V30 10724 H 984.557 -2.90602 -3.57613 0
M  V30 10725 H 982.872 -2.50135 -3.32899 0
M  V30 10726 H 985.469 -0.557136 -5.3179 0
M  V30 10727 H 985.812 0.657547 -4.11074 0
M  V30 10728 H 986.345 -1.0203 -3.84493 0
M  V30 10729 H 983.084 -3.48407 -5.55241 0
M  V30 10730 H 982.604 -1.78047 -5.72765 0
M  V30 10731 H 984.283 -2.27549 -6.05665 0
M  V30 10732 N 984.415 1.45619 -0.602734 0
M  V30 10733 C 985.325 2.34288 0.120902 0
M  V30 10734 C 986.341 1.50952 0.865414 0
M  V30 10735 O 987.517 1.83768 0.824094 0
M  V30 10736 C 984.582 3.28489 1.10888 0
M  V30 10737 C 983.643 4.2773 0.366853 0
M  V30 10738 C 982.876 5.17429 1.30776 0
M  V30 10739 O 983.099 5.10459 2.54535 0
M  V30 10740 O 982.033 5.96459 0.807464 0
M  V30 10741 H 985.859 2.97559 -0.60765 0
M  V30 10742 H 983.444 1.44922 -0.363019 0
M  V30 10743 H 985.326 3.86549 1.67803 0
M  V30 10744 H 984.001 2.67789 1.81854 0
M  V30 10745 H 982.908 3.73299 -0.244643 0
M  V30 10746 H 984.241 4.91271 -0.302226 0
M  V30 10747 N 985.893 0.34162 1.53853 0
M  V30 10748 C 987.304 -0.14269 1.86154 0
M  V30 10749 C 987.655 -1.50151 1.2629 0
M  V30 10750 O 986.78 -2.08601 0.575735 0
M  V30 10751 C 987.375 -0.265691 3.37757 0
M  V30 10752 C 985.934 -0.694231 3.69942 0
M  V30 10753 C 985.081 0.173195 2.76759 0
M  V30 10754 H 988.032 0.561284 1.48443 0
M  V30 10755 H 988.053 -1.09352 3.64448 0
M  V30 10756 H 987.565 0.723424 3.81298 0
M  V30 10757 H 985.666 -1.69244 3.31945 0
M  V30 10758 H 985.779 -0.485461 4.76634 0
M  V30 10759 H 984.143 -0.35416 2.52226 0
M  V30 10760 H 984.926 1.15941 3.23129 0
M  V30 10761 N 987.371 -1.57444 0.0701946 0
M  V30 10762 C 988.301 -2.15659 -0.895176 0
M  V30 10763 C 989.282 -1.08321 -1.31151 0
M  V30 10764 O 990.467 -1.36349 -1.38284 0
M  V30 10765 C 987.597 -2.71693 -2.16334 0
M  V30 10766 C 986.551 -3.84183 -1.88645 0
M  V30 10767 C 985.877 -4.26814 -3.22078 0
M  V30 10768 C 987.177 -5.08493 -1.19299 0
M  V30 10769 H 988.871 -2.96576 -0.410217 0
M  V30 10770 H 986.417 -1.42662 -0.195872 0
M  V30 10771 H 988.37 -3.11064 -2.84284 0
M  V30 10772 H 987.094 -1.87994 -2.67069 0
M  V30 10773 H 985.753 -3.45314 -1.23101 0
M  V30 10774 H 985.401 -3.40039 -3.70651 0
M  V30 10775 H 985.101 -5.02642 -3.04344 0
M  V30 10776 H 986.625 -4.68799 -3.91228 0
M  V30 10777 H 988.039 -5.4519 -1.77316 0
M  V30 10778 H 986.436 -5.89588 -1.11828 0
M  V30 10779 H 987.506 -4.84595 -0.171839 0
M  V30 10780 N 988.849 0.203349 -1.56283 0
M  V30 10781 C 990.265 0.55384 -1.49682 0
M  V30 10782 C 990.465 1.86261 -0.768701 0
M  V30 10783 O 989.521 2.50517 -0.315824 0
M  V30 10784 C 990.834 0.616216 -2.94318 0
M  V30 10785 C 992.382 0.705611 -3.04943 0
M  V30 10786 C 992.857 0.79917 -4.50974 0
M  V30 10787 N 994.348 0.862916 -4.55091 0
M  V30 10788 C 995.083 0.955334 -5.65386 0
M  V30 10789 N 994.579 1.01057 -6.8539 0
M  V30 10790 N 996.372 0.991884 -5.53279 0
M  V30 10791 H 988.523 -0.655244 -2.0204 0
M  V30 10792 H 990.786 -0.232344 -0.919087 0
M  V30 10793 H 990.492 -0.27619 -3.50614 0
M  V30 10794 H 990.366 1.47371 -3.4722 0
M  V30 10795 H 992.753 1.58845 -2.48701 0
M  V30 10796 H 992.834 -0.177921 -2.5518 0
M  V30 10797 H 992.478 -0.0792841 -5.07838 0
M  V30 10798 H 992.408 1.69838 -4.9846 0
M  V30 10799 H 994.899 0.829812 -3.68677 0
M  V30 10800 H 995.212 1.08137 -7.65197 0
M  V30 10801 H 993.557 0.979384 -6.88065 0
M  V30 10802 H 996.748 0.945514 -4.58451 0
M  V30 10803 H 996.921 1.06045 -6.39264 0
M  V30 10804 N 990.327 1.50405 0.470755 0
M  V30 10805 C 991.237 1.7208 1.59454 0
M  V30 10806 C 992.253 0.603932 1.63183 0
M  V30 10807 O 993.429 0.882296 1.81046 0
M  V30 10808 C 990.494 1.81057 2.95667 0
M  V30 10809 C 989.555 3.04792 3.02324 0
M  V30 10810 C 988.788 3.13332 4.3204 0
M  V30 10811 O 989.011 2.28655 5.22564 0
M  V30 10812 O 987.945 4.0606 4.44296 0
M  V30 10813 H 991.771 2.67343 1.44089 0
M  V30 10814 H 989.356 1.34505 0.650286 0
M  V30 10815 H 991.238 1.8914 3.76569 0
M  V30 10816 H 989.913 0.889782 3.11231 0
M  V30 10817 H 988.82 3.0221 2.205 0
M  V30 10818 H 990.153 3.96451 2.91698 0
M  V30 10819 N 991.805 -0.723954 1.39988 0
M  V30 10820 C 992.752 -1.83803 1.39589 0
M  V30 10821 C 993.722 -1.64146 0.253996 0
M  V30 10822 O 994.907 -1.85398 0.450793 0
M  V30 10823 C 992.047 -3.21431 1.25604 0
M  V30 10824 C 991.16 -3.52717 2.49429 0
M  V30 10825 C 990.295 -4.79805 2.27949 0
M  V30 10826 C 989.334 -5.03968 3.47394 0
M  V30 10827 N 988.471 -6.22266 3.25161 0
M  V30 10828 H 993.311 -1.83479 2.34818 0
M  V30 10829 H 990.848 -0.896396 1.16633 0
M  V30 10830 H 992.806 -4.00892 1.15504 0
M  V30 10831 H 991.436 -3.21005 0.339986 0
M  V30 10832 H 990.488 -2.67872 2.7009 0
M  V30 10833 H 991.8 -3.66486 3.38363 0
M  V30 10834 H 990.954 -5.67268 2.15155 0
M  V30 10835 H 989.693 -4.68229 1.36428 0
M  V30 10836 H 988.698 -4.14963 3.60674 0
M  V30 10837 H 989.923 -5.17422 4.39831 0
M  V30 10838 H 987.869 -6.11957 2.36314 0
M  V30 10839 H 987.786 -6.36673 4.07656 0
M  V30 10840 H 989.054 -7.12539 3.16083 0
M  V30 10841 N 993.283 -1.25346 -0.955304 0
M  V30 10842 C 994.56 -1.00829 -1.67609 0
M  V30 10843 C 994.94 0.465675 -2.059 0
M  V30 10844 O 994.288 1.44287 -1.77182 0
M  V30 10845 C 994.498 -1.94337 -2.89886 0
M  V30 10846 C 995.846 -2.22142 -3.61854 0
M  V30 10847 O 996.87 -1.9209 -2.99967 0
M  V30 10848 O 995.729 -2.73239 -4.73289 0
M  V30 10849 H 992.823 -0.382314 -0.733325 0
M  V30 10850 H 995.369 -1.36498 -1.00829 0
M  V30 10851 H 994.141 -2.93867 -2.58376 0
M  V30 10852 H 993.764 -1.59062 -3.64397 0
M  V30 10853 N 994.761 1.15782 -1.06922 0
M  V30 10854 C 995.708 2.2038 -0.685659 0
M  V30 10855 C 996.678 1.62972 0.320816 0
M  V30 10856 O 997.863 1.8966 0.208258 0
M  V30 10857 C 995.003 3.44995 -0.084998 0
M  V30 10858 C 994.116 4.16621 -1.14242 0
M  V30 10859 C 993.251 5.28773 -0.507226 0
M  V30 10860 C 992.29 5.92209 -1.54774 0
M  V30 10861 N 991.427 6.9584 -0.935443 0
M  V30 10862 H 996.267 2.5254 -1.58201 0
M  V30 10863 H 993.804 1.24031 -0.790864 0
M  V30 10864 H 995.762 4.16254 0.280845 0
M  V30 10865 H 994.392 3.13365 0.774725 0
M  V30 10866 H 993.444 3.43903 -1.62589 0
M  V30 10867 H 994.756 4.59884 -1.93154 0
M  V30 10868 H 993.91 6.06635 -0.0887719 0
M  V30 10869 H 992.649 4.8669 0.313704 0
M  V30 10870 H 991.654 5.13063 -1.97602 0
M  V30 10871 H 992.879 6.3637 -2.37088 0
M  V30 10872 H 990.825 6.5586 -0.135339 0
M  V30 10873 H 990.742 7.37508 -1.66186 0
M  V30 10874 H 992.01 7.77611 -0.542346 0
M  V30 10875 N 996.239 0.8527 1.3254 0
M  V30 10876 C 997.189 0.267711 2.26423 0
M  V30 10877 C 998.173 -0.585305 1.49877 0
M  V30 10878 O 999.365 -0.435008 1.71571 0
M  V30 10879 C 996.494 -0.544605 3.38953 0
M  V30 10880 C 995.58 0.32069 4.22886 0
M  V30 10881 N 995.971 1.40601 4.85865 0
M  V30 10882 C 994.269 0.110101 4.45864 0
M  V30 10883 C 994.97 1.93819 5.48461 0
M  V30 10884 N 993.946 1.23764 5.29324 0
M  V30 10885 H 997.748 1.09747 2.7264 0
M  V30 10886 H 995.262 0.698607 1.46606 0
M  V30 10887 H 997.259 -0.98009 4.05216 0
M  V30 10888 H 995.919 -1.37218 2.94281 0
M  V30 10889 H 996.93 1.78894 4.86022 0
M  V30 10890 H 993.607 -0.682917 4.11877 0
M  V30 10891 H 994.997 2.84783 6.08562 0
M  V30 10892 O 997.756 -1.42989 0.750761 0
M  V30 10893 H 998.447 -1.91242 0.307615 0
M  V30 END ATOM
M  V30 BEGIN BOND
M  V30 END BOND
M  V30 END CTAB
M  END
$$$$
