drugbank_target|P09622 Dihydrolipoyl dehydrogenase, mitochondrial (DB00157; DB03147)
 OpenBabel12092119383D

  0  0  0     0  0            999 V3000
M  V30 BEGIN CTAB
M  V30 COUNTS 7661 7724 0 0 0
M  V30 BEGIN ATOM
M  V30 1 H -0.908 1.98254 -0.117106 0
M  V30 2 N 0 1.576 0 0
M  V30 3 C 0.933 2.03868 1.02534 0
M  V30 4 C 1.911 0.928543 1.3348 0
M  V30 5 O 3.095 1.19667 1.45644 0
M  V30 6 C 0.222 2.43627 2.35294 0
M  V30 7 C -0.732 3.65373 2.2001 0
M  V30 8 S 0.101 5.13292 1.52614 0
M  V30 9 C 1.257 5.56322 2.86805 0
M  V30 10 H 1.49 2.90518 0.631377 0
M  V30 11 H -0.977 1.52953 0.210867 0
M  V30 12 H 0.981 2.67203 3.11629 0
M  V30 13 H -0.358 1.57376 2.7183 0
M  V30 14 H -1.165 3.90944 3.18086 0
M  V30 15 H -1.563 3.418 1.51819 0
M  V30 16 H 0.729 5.58782 3.83104 0
M  V30 17 H 1.672 6.56266 2.65933 0
M  V30 18 H 2.08 4.83886 2.90714 0
M  V30 19 N 1.4781 -0.272755 1.55222 0
M  V30 20 C 2.4101 -1.35946 1.8453 0
M  V30 21 C 3.4231 -1.45525 0.729818 0
M  V30 22 O 4.6121 -1.47337 1.00767 0
M  V30 23 C 1.7121 -2.74069 1.99347 0
M  V30 24 C 0.8851 -2.87079 3.30007 0
M  V30 25 C -0.0559 -4.05879 3.34886 0
M  V30 26 O -1.0299 -3.96626 4.08261 0
M  V30 27 N 0.1721 -5.17857 2.62307 0
M  V30 28 H 2.9371 -1.11149 2.78327 0
M  V30 29 H 0.4981 -0.462869 1.55142 0
M  V30 30 H 2.4901 -3.51838 1.99981 0
M  V30 31 H 1.0601 -2.91688 1.12415 0
M  V30 32 H 0.2801 -1.96193 3.41909 0
M  V30 33 H 1.5681 -2.92701 4.16177 0
M  V30 34 H 0.9661 -5.28261 2.02377 0
M  V30 35 H -0.4769 -5.93855 2.68663 0
M  V30 36 N 2.9562 -1.48159 -0.537278 0
M  V30 37 C 4.1812 -1.59707 -1.32319 0
M  V30 38 C 4.6062 -0.254859 -1.86365 0
M  V30 39 O 3.9642 0.772378 -1.64024 0
M  V30 40 C 4.0122 -2.6412 -2.45505 0
M  V30 41 O 3.1162 -2.20774 -3.48328 0
M  V30 42 H 2.4572 -0.535791 -0.392204 0
M  V30 43 H 4.9872 -1.94092 -0.647268 0
M  V30 44 H 4.9972 -2.85166 -2.91795 0
M  V30 45 H 3.6722 -3.61567 -2.05528 0
M  V30 46 H 2.2492 -2.09911 -3.08207 0
M  V30 47 N 4.4343 0.785586 -1.36625 0
M  V30 48 C 5.6803 1.5452 -1.32269 0
M  V30 49 C 6.0353 1.92159 0.0962266 0
M  V30 50 O 5.3283 1.60158 1.05167 0
M  V30 51 C 5.5223 2.83007 -2.1827 0
M  V30 52 C 5.3513 2.57925 -3.68382 0
M  V30 53 C 4.1213 2.52752 -4.37544 0
M  V30 54 C 6.3193 2.26861 -4.61561 0
M  V30 55 N 4.3013 2.19608 -5.73276 0
M  V30 56 C 5.6723 2.03738 -5.85569 0
M  V30 57 C 7.7273 2.129 -4.50087 0
M  V30 58 C 6.4303 1.68065 -6.9939 0
M  V30 59 C 8.4563 1.78626 -5.63779 0
M  V30 60 C 7.8183 1.56353 -6.86828 0
M  V30 61 H 3.9173 0.566301 -0.539283 0
M  V30 62 H 6.5013 0.917736 -1.71714 0
M  V30 63 H 4.6723 3.43614 -1.81063 0
M  V30 64 H 6.4043 3.48775 -2.05275 0
M  V30 65 H 3.1593 2.6813 -3.90389 0
M  V30 66 H 3.5833 2.05771 -6.44971 0
M  V30 67 H 8.2253 2.28808 -3.55537 0
M  V30 68 H 5.9433 1.50895 -7.93887 0
M  V30 69 H 9.5293 1.68502 -5.56865 0
M  V30 70 H 8.4093 1.30223 -7.73312 0
M  V30 71 N 5.9124 1.20967 1.01018 0
M  V30 72 C 7.1374 1.0503 1.78839 0
M  V30 73 C 7.5624 -0.395752 1.8389 0
M  V30 74 O 6.9204 -1.28529 1.27867 0
M  V30 75 C 6.9684 1.64602 3.2084 0
M  V30 76 O 6.0724 0.887988 4.02726 0
M  V30 77 H 5.4134 0.369987 0.551367 0
M  V30 78 H 7.9434 1.60399 1.27018 0
M  V30 79 H 7.9534 1.68607 3.71532 0
M  V30 80 H 6.6284 2.69841 3.16479 0
M  V30 81 H 5.2054 0.922648 3.61305 0
M  V30 82 N 7.3905 -1.2043 1.01659 0
M  V30 83 C 8.8065 -1.41852 0.731442 0
M  V30 84 C 9.0065 -1.89358 -0.688898 0
M  V30 85 O 8.0625 -2.06247 -1.45666 0
M  V30 86 C 9.3755 -2.44019 1.75714 0
M  V30 87 C 10.9235 -2.57785 1.77527 0
M  V30 88 C 11.3985 -3.63194 2.79023 0
M  V30 89 N 12.8895 -3.70678 2.77763 0
M  V30 90 C 13.6245 -4.51897 3.52954 0
M  V30 91 N 13.1205 -5.36921 4.37821 0
M  V30 92 N 14.9135 -4.4643 3.41551 0
M  V30 93 H 7.0645 -0.879093 1.93354 0
M  V30 94 H 9.3275 -0.448425 0.835236 0
M  V30 95 H 9.0335 -2.1611 2.77469 0
M  V30 96 H 8.9075 -3.43007 1.56927 0
M  V30 97 H 11.2945 -2.85023 0.764569 0
M  V30 98 H 11.3755 -1.58992 2.00387 0
M  V30 99 H 11.0195 -3.36699 3.80258 0
M  V30 100 H 10.9495 -4.61609 2.53425 0
M  V30 101 H 13.4405 -3.09944 2.16201 0
M  V30 102 H 13.7535 -5.95981 4.91962 0
M  V30 103 H 12.0985 -5.36424 4.41899 0
M  V30 104 H 15.2895 -3.79042 2.74672 0
M  V30 105 H 15.4625 -5.09491 4.00404 0
M  V30 106 N 8.8686 -0.792821 -1.36206 0
M  V30 107 C 10.1146 -0.36733 -1.99446 0
M  V30 108 C 10.4476 1.05917 -1.62774 0
M  V30 109 O 9.7226 1.7324 -0.88421 0
M  V30 110 C 10.0056 -0.535044 -3.56103 0
M  V30 111 C 9.8586 -2.00548 -4.02617 0
M  V30 112 C 11.1776 0.0478191 -4.40074 0
M  V30 113 H 8.2966 -0.134941 -0.724541 0
M  V30 114 H 10.9386 -0.999794 -1.61568 0
M  V30 115 H 9.0886 0.00336329 -3.885 0
M  V30 116 H 10.7606 -2.60521 -3.80692 0
M  V30 117 H 9.0036 -2.50686 -3.54032 0
M  V30 118 H 9.6746 -2.07377 -5.11565 0
M  V30 119 H 12.1506 -0.411822 -4.14057 0
M  V30 120 H 11.0266 -0.0995336 -5.4881 0
M  V30 121 H 11.2876 1.14025 -4.27142 0
M  V30 122 N 10.3467 1.47872 -0.545128 0
M  V30 123 C 11.5767 2.06589 -0.0210534 0
M  V30 124 C 11.9847 1.39997 1.27269 0
M  V30 125 O 11.3277 0.486421 1.77143 0
M  V30 126 C 11.3897 3.58574 0.257933 0
M  V30 127 C 11.0537 4.47132 -0.944573 0
M  V30 128 C 12.0507 4.85986 -1.84699 0
M  V30 129 C 9.7357 4.88821 -1.15584 0
M  V30 130 C 11.7297 5.65314 -2.94446 0
M  V30 131 C 9.4167 5.67916 -2.25642 0
M  V30 132 C 10.4147 6.06073 -3.14905 0
M  V30 133 O 10.1027 6.83578 -4.23057 0
M  V30 134 H 9.8347 0.674971 -0.0372899 0
M  V30 135 H 12.3887 1.91037 -0.754599 0
M  V30 136 H 10.6187 3.72295 1.04564 0
M  V30 137 H 12.3077 3.99356 0.72592 0
M  V30 138 H 13.0737 4.54388 -1.69577 0
M  V30 139 H 8.9527 4.58595 -0.470279 0
M  V30 140 H 12.4967 5.95016 -3.64145 0
M  V30 141 H 8.3937 5.98927 -2.40742 0
M  V30 142 H 9.1617 7.01954 -4.20954 0
M  V30 143 N 11.8248 0.280983 1.55075 0
M  V30 144 C 13.0648 -0.335234 2.01632 0
M  V30 145 C 13.4288 -1.5261 1.16508 0
M  V30 146 O 14.6298 -2.21235 1.52672 0
M  V30 147 C 12.9008 -0.702172 3.50434 0
M  V30 148 S 14.4598 -1.30409 4.18974 0
M  V30 149 H 11.2778 -0.103967 0.703358 0
M  V30 150 H 13.8798 0.404187 1.91276 0
M  V30 151 H 12.5838 0.17333 4.10034 0
M  V30 152 H 12.1148 -1.4729 3.64786 0
M  V30 153 H 14.1298 -2.59253 4.23087 0
M  V30 154 N 13.3029 -1.57598 0.00835791 0
M  V30 155 C 14.5279 -1.95617 -0.689103 0
M  V30 156 C 14.9529 -0.883753 -1.66046 0
M  V30 157 O 14.3109 0.157352 -1.80616 0
M  V30 158 C 14.3589 -3.32736 -1.38994 0
M  V30 159 O 13.4629 -3.27631 -2.50463 0
M  V30 160 H 12.8039 -0.638379 -0.182668 0
M  V30 161 H 15.3339 -2.045 0.064036 0
M  V30 162 H 15.3439 -3.68494 -1.75147 0
M  V30 163 H 14.0189 -4.1034 -0.677778 0
M  V30 164 H 12.5959 -3.03561 -2.16576 0
M  V30 165 N 14.781 0.264519 -1.55364 0
M  V30 166 C 15.711 1.33121 -1.91836 0
M  V30 167 C 16.692 1.51101 -0.781192 0
M  V30 168 O 17.877 1.64003 -1.04003 0
M  V30 169 C 15.007 2.68921 -2.19769 0
M  V30 170 C 13.961 2.65661 -3.35571 0
M  V30 171 C 13.287 4.05093 -3.49004 0
M  V30 172 C 14.587 2.24187 -4.71739 0
M  V30 173 H 16.281 1.02844 -2.81182 0
M  V30 174 H 13.827 0.493286 -1.35287 0
M  V30 175 H 15.78 3.43663 -2.43872 0
M  V30 176 H 14.504 3.00799 -1.27231 0
M  V30 177 H 13.163 1.93377 -3.1145 0
M  V30 178 H 12.811 4.34206 -2.53917 0
M  V30 179 H 12.511 4.03804 -4.26868 0
M  V30 180 H 14.035 4.81561 -3.75408 0
M  V30 181 H 15.449 2.88654 -4.9533 0
M  V30 182 H 13.846 2.34044 -5.52579 0
M  V30 183 H 14.916 1.19327 -4.69988 0
M  V30 184 N 16.2591 1.48442 0.529413 0
M  V30 185 C 17.2221 1.62524 1.61612 0
M  V30 186 C 18.2221 0.498509 1.52877 0
M  V30 187 O 19.4121 0.76431 1.56537 0
M  V30 188 C 16.5441 1.59597 3.01233 0
M  V30 189 H 17.7371 2.59423 1.50465 0
M  V30 190 H 15.2901 1.37047 0.751514 0
M  V30 191 H 16.0251 0.641781 3.17886 0
M  V30 192 H 15.8101 2.41397 3.08982 0
M  V30 193 H 17.3001 1.72646 3.80241 0
M  V30 194 N 17.7372 -0.778329 1.37039 0
M  V30 195 C 18.6842 -1.89139 1.32269 0
M  V30 196 C 19.6542 -1.65017 0.189387 0
M  V30 197 O 20.8392 -1.87024 0.377693 0
M  V30 198 C 17.9792 -3.26112 1.12894 0
M  V30 199 C 17.0922 -3.62233 2.35396 0
M  V30 200 C 16.2272 -4.8838 2.08946 0
M  V30 201 C 15.2662 -5.17212 3.2735 0
M  V30 202 N 14.4032 -6.34546 3.00492 0
M  V30 203 H 19.2432 -1.92552 2.27437 0
M  V30 204 H 16.7802 -0.941473 1.13025 0
M  V30 205 H 18.7382 -4.05116 0.996835 0
M  V30 206 H 17.3682 -3.22091 0.213758 0
M  V30 207 H 16.4202 -2.78265 2.5937 0
M  V30 208 H 17.7322 -3.79481 3.23721 0
M  V30 209 H 16.8862 -5.75274 1.92729 0
M  V30 210 H 15.6252 -4.73222 1.17949 0
M  V30 211 H 14.6302 -4.28796 3.44113 0
M  V30 212 H 15.8552 -5.34283 4.19188 0
M  V30 213 H 13.8012 -6.20759 2.12118 0
M  V30 214 H 13.7182 -6.52179 3.82358 0
M  V30 215 H 14.9862 -7.24394 2.87879 0
M  V30 216 N 19.2153 -1.21501 -1.00376 0
M  V30 217 C 20.6313 -0.972629 -1.26539 0
M  V30 218 C 20.8313 0.340257 -1.98606 0
M  V30 219 O 19.8873 1.06561 -2.28913 0
M  V30 220 C 21.2003 -2.16404 -2.08781 0
M  V30 221 C 22.7483 -2.20643 -2.22004 0
M  V30 222 C 23.2233 -3.39306 -3.07629 0
M  V30 223 N 24.7143 -3.39401 -3.15217 0
M  V30 224 C 25.4493 -4.27867 -3.81729 0
M  V30 225 N 24.9453 -5.26533 -4.5026 0
M  V30 226 N 26.7383 -4.15672 -3.78382 0
M  V30 227 H 18.8893 -2.05929 -0.520281 0
M  V30 228 H 21.1523 -0.901803 -0.292328 0
M  V30 229 H 20.8583 -3.11554 -1.63178 0
M  V30 230 H 20.7323 -2.15567 -3.09533 0
M  V30 231 H 23.1193 -1.26048 -2.66825 0
M  V30 232 H 23.2003 -2.25523 -1.20718 0
M  V30 233 H 22.8443 -4.34195 -2.63509 0
M  V30 234 H 22.7743 -3.31665 -4.09031 0
M  V30 235 H 25.2653 -2.67997 -2.66432 0
M  V30 236 H 25.5783 -5.90337 -4.98721 0
M  V30 237 H 23.9233 -5.30457 -4.49044 0
M  V30 238 H 27.1143 -3.3785 -3.23998 0
M  V30 239 H 27.2873 -4.84825 -4.2994 0
M  V30 240 N 20.6934 1.19889 -1.02296 0
M  V30 241 C 21.9414 1.89046 -0.714558 0
M  V30 242 C 22.2624 1.79636 0.758681 0
M  V30 243 O 21.5324 1.20292 1.54618 0
M  V30 244 H 20.1124 0.699802 -0.261317 0
M  V30 245 H 22.7744 1.45574 -1.29592 0
M  V30 246 H 21.8704 2.95524 -1.0036 0
M  V30 247 N 22.1715 0.800033 1.35784 0
M  V30 248 C 23.1215 0.178654 2.27299 0
M  V30 249 C 24.1055 -0.643667 1.47464 0
M  V30 250 O 25.2975 -0.502 1.69732 0
M  V30 251 C 22.4265 -0.677194 3.36555 0
M  V30 252 C 21.5125 0.154497 4.23818 0
M  V30 253 N 21.9035 1.21427 4.91008 0
M  V30 254 C 20.2015 -0.0649462 4.45953 0
M  V30 255 C 20.9025 1.72147 5.55644 0
M  V30 256 N 19.8785 1.02897 5.33773 0
M  V30 257 H 23.6805 0.989637 2.76737 0
M  V30 258 H 21.1945 0.64054 1.49234 0
M  V30 259 H 23.1915 -1.13835 4.01058 0
M  V30 260 H 21.8515 -1.4866 2.8867 0
M  V30 261 H 22.8625 1.59684 4.92668 0
M  V30 262 H 19.5395 -0.844016 4.0888 0
M  V30 263 H 20.9295 2.60683 6.19269 0
M  V30 264 N 23.6496 -1.47581 0.552962 0
M  V30 265 C 24.8966 -2.02482 0.0273243 0
M  V30 266 C 25.2246 -1.42776 -1.32081 0
M  V30 267 O 24.4796 -0.571393 -1.87173 0
M  V30 268 C 24.7786 -3.57199 -0.119728 0
M  V30 269 C 24.4446 -4.35804 1.15697 0
M  V30 270 C 23.1066 -4.57 1.50681 0
M  V30 271 C 25.4586 -4.81167 2.00319 0
M  V30 272 C 22.7866 -5.20807 2.70142 0
M  V30 273 C 25.1386 -5.46293 3.18978 0
M  V30 274 C 23.8026 -5.65722 3.54281 0
M  V30 275 H 23.0726 -0.740933 0.00999866 0
M  V30 276 H 25.7196 -1.77302 0.72362 0
M  V30 277 H 24.0246 -3.81348 -0.89896 0
M  V30 278 H 25.7216 -3.97324 -0.541718 0
M  V30 279 H 22.3116 -4.19582 0.874561 0
M  V30 280 H 26.4956 -4.64574 1.74599 0
M  V30 281 H 21.7516 -5.34045 2.97668 0
M  V30 282 H 25.9256 -5.80407 3.84838 0
M  V30 283 H 23.5526 -6.14936 4.46942 0
M  V30 284 N 25.1277 -0.289203 -1.54924 0
M  V30 285 C 26.0757 0.607966 -2.24514 0
M  V30 286 C 27.0697 1.14655 -1.24702 0
M  V30 287 O 28.2757 1.09856 -1.4259 0
M  V30 288 H 24.6507 0.21464 -0.720718 0
M  V30 289 H 26.6217 -0.00164182 -2.984 0
M  V30 290 C 25.3707 1.77406 -2.99036 0
M  V30 291 H 24.6937 1.36884 -3.75637 0
M  V30 292 H 26.1337 2.37814 -3.51028 0
M  V30 293 C 24.5927 2.67107 -2.05318 0
M  V30 294 O 25.1227 3.6787 -1.61353 0
M  V30 295 N 23.3287 2.34582 -1.71521 0
M  V30 296 H 22.8757 1.52688 -2.07471 0
M  V30 297 H 22.8337 2.94867 -1.0909 0
M  V30 298 N 26.6058 1.57591 -0.0167156 0
M  V30 299 C 28.0218 1.55946 0.339557 0
M  V30 300 C 28.2218 1.02109 1.73713 0
M  V30 301 O 27.2778 0.662303 2.43659 0
M  V30 302 C 28.5908 3.00037 0.199499 0
M  V30 303 C 30.1388 3.11805 0.273193 0
M  V30 304 C 30.6138 4.57713 0.162068 0
M  V30 305 N 32.1048 4.6268 0.219444 0
M  V30 306 C 32.8398 5.73185 0.157054 0
M  V30 307 N 32.3358 6.92786 0.0442936 0
M  V30 308 N 34.1288 5.61707 0.21014 0
M  V30 309 H 26.2798 1.90921 -0.930758 0
M  V30 310 H 28.5428 0.877674 -0.358319 0
M  V30 311 H 28.2488 3.4333 -0.76273 0
M  V30 312 H 28.1228 3.64387 0.974786 0
M  V30 313 H 30.5098 2.68433 1.22587 0
M  V30 314 H 30.5908 2.50201 -0.532256 0
M  V30 315 H 30.2348 5.01763 -0.78714 0
M  V30 316 H 30.1648 5.17283 0.986222 0
M  V30 317 H 32.6558 3.76649 0.307246 0
M  V30 318 H 32.9688 7.728 0.00304069 0
M  V30 319 H 31.3138 6.94999 0.00968457 0
M  V30 320 H 34.5048 4.6716 0.296546 0
M  V30 321 H 34.6778 6.47807 0.158054 0
M  V30 322 N 28.0839 -0.256276 1.55502 0
M  V30 323 C 29.3329 -0.983486 1.76098 0
M  V30 324 C 29.6459 -1.86837 0.578896 0
M  V30 325 O 30.8519 -2.63163 0.667648 0
M  V30 326 C 29.3079 -1.79868 3.1173 0
M  V30 327 C 28.9159 -0.961648 4.37557 0
M  V30 328 C 30.6599 -2.51919 3.41668 0
M  V30 329 C 28.5669 -1.77219 5.64223 0
M  V30 330 H 27.4969 -0.370936 0.656447 0
M  V30 331 H 30.1479 -0.238492 1.81944 0
M  V30 332 H 28.5299 -2.58527 2.99966 0
M  V30 333 H 29.7039 -0.218048 4.60284 0
M  V30 334 H 28.0189 -0.354913 4.14885 0
M  V30 335 H 30.6159 -3.12998 4.33516 0
M  V30 336 H 30.9589 -3.23059 2.62562 0
M  V30 337 H 31.4919 -1.80278 3.54605 0
M  V30 338 H 28.2309 -1.10471 6.46124 0
M  V30 339 H 27.7509 -2.49132 5.45613 0
M  V30 340 H 29.4299 -2.34169 6.03137 0
M  V30 341 N 29.562 -1.4872 -0.521534 0
M  V30 342 C 30.787 -1.61101 -1.30618 0
M  V30 343 C 31.212 -0.274611 -1.86085 0
M  V30 344 O 30.57 0.754937 -1.64834 0
M  V30 345 C 30.618 -2.66709 -2.4269 0
M  V30 346 O 29.722 -2.24456 -3.45967 0
M  V30 347 H 29.063 -0.539921 -0.386499 0
M  V30 348 H 31.593 -1.94767 -0.626645 0
M  V30 349 H 31.603 -2.88245 -2.88754 0
M  V30 350 H 30.278 -3.63727 -2.01682 0
M  V30 351 H 28.855 -2.13168 -3.05964 0
M  V30 352 N 31.0401 0.771051 -1.3745 0
M  V30 353 C 31.9901 1.87456 -1.29785 0
M  V30 354 C 32.9741 1.59827 -0.185541 0
M  V30 355 O 34.1661 1.71945 -0.419997 0
M  V30 356 C 31.2951 3.24935 -1.1078 0
M  V30 357 C 30.3811 3.58514 -2.26558 0
M  V30 358 N 30.7721 3.6327 -3.5195 0
M  V30 359 C 29.0701 3.88683 -2.18727 0
M  V30 360 C 29.7711 3.93616 -4.283 0
M  V30 361 N 28.7471 4.09551 -3.57448 0
M  V30 362 H 32.5491 1.89386 -2.24745 0
M  V30 363 H 30.0631 0.967531 -1.30432 0
M  V30 364 H 32.0601 4.03881 -1.03374 0
M  V30 365 H 30.7201 3.24268 -0.16738 0
M  V30 366 H 31.7311 3.45458 -3.85848 0
M  V30 367 H 28.4081 3.95834 -1.32746 0
M  V30 368 H 29.7981 4.04066 -5.36824 0
M  V30 369 N 32.5182 1.22032 0.997298 0
M  V30 370 C 33.7662 1.04016 1.73278 0
M  V30 371 C 34.0872 -0.426255 1.90284 0
M  V30 372 O 33.3572 -1.30694 1.45931 0
M  V30 373 H 31.9372 0.381897 0.642 0
M  V30 374 H 34.5992 1.5347 1.20137 0
M  V30 375 H 33.6952 1.51441 2.72896 0
M  V30 376 N 33.9963 -1.19345 1.0293 0
M  V30 377 C 34.9263 -2.2481 0.631105 0
M  V30 378 C 35.9073 -1.66245 -0.360104 0
M  V30 379 O 37.0923 -1.92677 -0.242726 0
M  V30 380 C 34.2223 -3.47295 -0.0184607 0
M  V30 381 C 33.1763 -4.18536 0.895073 0
M  V30 382 C 32.5023 -5.34586 0.110592 0
M  V30 383 C 33.8023 -4.73287 2.209 0
M  V30 384 H 35.4963 -2.58372 1.51275 0
M  V30 385 H 33.0423 -1.24194 0.728818 0
M  V30 386 H 34.9953 -4.20268 -0.308675 0
M  V30 387 H 33.7193 -3.12933 -0.934907 0
M  V30 388 H 32.3783 -3.47446 1.16949 0
M  V30 389 H 32.0263 -4.96469 -0.807902 0
M  V30 390 H 31.7263 -5.83183 0.719087 0
M  V30 391 H 33.2503 -6.10355 -0.172871 0
M  V30 392 H 34.6643 -5.38013 1.98028 0
M  V30 393 H 33.0613 -5.32373 2.76946 0
M  V30 394 H 34.1313 -3.91331 2.86336 0
M  V30 395 N 35.4744 -0.807222 -1.35358 0
M  V30 396 C 36.4064 -0.175717 -2.28525 0
M  V30 397 C 37.4194 0.625354 -1.5031 0
M  V30 398 O 38.6084 0.457611 -1.72535 0
M  V30 399 C 35.7084 0.773471 -3.29956 0
M  V30 400 C 34.8814 0.0186296 -4.37396 0
M  V30 401 C 33.9404 0.886395 -5.18681 0
M  V30 402 O 32.9664 0.337106 -5.68201 0
M  V30 403 N 34.1684 2.20839 -5.36852 0
M  V30 404 H 36.9334 -0.976091 -2.83359 0
M  V30 405 H 34.4944 -0.662737 -1.47714 0
M  V30 406 H 36.4864 1.35824 -3.81227 0
M  V30 407 H 35.0564 1.47465 -2.75632 0
M  V30 408 H 34.2764 -0.747349 -3.87051 0
M  V30 409 H 35.5644 -0.501577 -5.06322 0
M  V30 410 H 34.9624 2.67858 -4.98265 0
M  V30 411 H 33.5194 2.74237 -5.91301 0
M  V30 412 N 36.9525 1.47285 -0.560781 0
M  V30 413 C 38.2005 2.02064 -0.0379868 0
M  V30 414 C 38.5215 1.43711 1.31803 0
M  V30 415 O 37.7915 0.61362 1.86042 0
M  V30 416 H 36.3715 0.746918 -0.0110531 0
M  V30 417 H 39.0335 1.80648 -0.731598 0
M  V30 418 H 38.1295 3.12064 0.0474463 0
M  V30 419 N 38.4306 0.297415 1.54768 0
M  V30 420 C 39.3606 -0.573494 2.26348 0
M  V30 421 C 40.3416 -1.14085 1.26169 0
M  V30 422 O 41.5266 -1.17086 1.54934 0
M  V30 423 C 38.6566 -1.74716 3.00153 0
M  V30 424 C 37.6106 -1.31032 4.07449 0
M  V30 425 C 36.9366 -2.56887 4.68949 0
M  V30 426 C 38.2366 -0.444183 5.20408 0
M  V30 427 H 39.9306 0.0235131 2.99391 0
M  V30 428 H 37.4766 0.0127488 1.43994 0
M  V30 429 H 39.4296 -2.3625 3.48947 0
M  V30 430 H 38.1536 -2.37035 2.24682 0
M  V30 431 H 36.8126 -0.718066 3.59499 0
M  V30 432 H 36.4606 -3.17512 3.90122 0
M  V30 433 H 36.1606 -2.2836 5.41411 0
M  V30 434 H 37.6846 -3.19229 5.20505 0
M  V30 435 H 39.0986 -0.9651 5.65118 0
M  V30 436 H 37.4956 -0.252846 5.99567 0
M  V30 437 H 38.5656 0.531609 4.81977 0
M  V30 438 N 39.9087 -1.5758 0.0250728 0
M  V30 439 C 41.1337 -1.96337 -0.668317 0
M  V30 440 C 41.5587 -0.901314 -1.651 0
M  V30 441 O 40.9167 0.138187 -1.80773 0
M  V30 442 C 40.9647 -3.34191 -1.35457 0
M  V30 443 O 40.0687 -3.30269 -2.46974 0
M  V30 444 H 39.4097 -0.640281 -0.175887 0
M  V30 445 H 41.9397 -2.0442 0.0857224 0
M  V30 446 H 41.9497 -3.70331 -1.71228 0
M  V30 447 H 40.6247 -4.11036 -0.634218 0
M  V30 448 H 39.2017 -3.05841 -2.13344 0
M  V30 449 N 41.3868 0.248026 -1.55636 0
M  V30 450 C 42.3498 1.29044 -1.89421 0
M  V30 451 C 43.3498 1.41134 -0.770581 0
M  V30 452 O 44.5398 1.39854 -1.03858 0
M  V30 453 C 41.6718 2.66831 -2.12165 0
M  V30 454 H 42.8648 1.00305 -2.82629 0
M  V30 455 H 40.4178 0.487265 -1.48511 0
M  V30 456 H 41.1528 3.00711 -1.21422 0
M  V30 457 H 40.9378 2.59438 -2.93997 0
M  V30 458 H 42.4278 3.42103 -2.3949 0
M  V30 459 N 42.8649 1.48995 0.513639 0
M  V30 460 C 44.1109 1.58076 1.27042 0
M  V30 461 C 44.4439 0.261026 1.92438 0
M  V30 462 O 43.7189 -0.734393 1.80103 0
M  V30 463 C 44.0019 2.73091 2.34719 0
M  V30 464 C 43.8549 4.14821 1.73907 0
M  V30 465 C 45.1739 2.83796 3.36375 0
M  V30 466 H 42.2929 0.575391 0.460536 0
M  V30 467 H 44.9349 1.81232 0.570516 0
M  V30 468 H 43.0849 2.53479 2.94416 0
M  V30 469 H 44.7569 4.45917 1.18135 0
M  V30 470 H 42.9999 4.21058 1.0437 0
M  V30 471 H 43.6709 4.91147 2.51949 0
M  V30 472 H 46.1469 3.01611 2.86653 0
M  V30 473 H 45.0229 3.65971 4.09093 0
M  V30 474 H 45.2839 1.92624 3.9793 0
M  V30 475 N 44.343 -0.763751 1.37857 0
M  V30 476 C 45.754 -1.3405 1.29952 0
M  V30 477 C 46.105 -1.96138 -0.0492898 0
M  V30 478 O 45.23 -1.94372 -0.951239 0
M  V30 479 C 45.825 -2.43729 2.35333 0
M  V30 480 C 44.384 -2.97151 2.31037 0
M  V30 481 C 43.531 -1.70438 2.18738 0
M  V30 482 H 46.482 -0.563396 1.48363 0
M  V30 483 H 46.503 -3.23412 2.00462 0
M  V30 484 H 46.015 -1.9851 3.33489 0
M  V30 485 H 44.116 -3.46724 1.3643 0
M  V30 486 H 44.229 -3.52221 3.24772 0
M  V30 487 H 42.593 -1.93673 1.65418 0
M  V30 488 H 43.376 -1.27312 3.18821 0
M  V30 489 N 45.8211 -1.22559 -0.990812 0
M  V30 490 C 46.7511 -1.0218 -2.09956 0
M  V30 491 C 47.7321 0.0579394 -1.70001 0
M  V30 492 O 48.9171 -0.104684 -1.93918 0
M  V30 493 C 46.0471 -0.601023 -3.4206 0
M  V30 494 C 45.0011 -1.62694 -3.95872 0
M  V30 495 C 44.3271 -1.06193 -5.24049 0
M  V30 496 C 45.6271 -3.01743 -4.2632 0
M  V30 497 H 47.3211 -1.94916 -2.27262 0
M  V30 498 H 44.8671 -0.938566 -1.09211 0
M  V30 499 H 46.8201 -0.445561 -4.19038 0
M  V30 500 H 45.5441 0.362005 -3.24588 0
M  V30 501 H 44.2031 -1.77021 -3.21028 0
M  V30 502 H 43.8511 -0.0901903 -5.02919 0
M  V30 503 H 43.5511 -1.74732 -5.61019 0
M  V30 504 H 45.0751 -0.918092 -6.03658 0
M  V30 505 H 46.4891 -2.90777 -4.94087 0
M  V30 506 H 44.8861 -3.67425 -4.74467 0
M  V30 507 H 45.9561 -3.51518 -3.34011 0
M  V30 508 N 47.2992 1.18797 -1.03562 0
M  V30 509 C 48.7152 1.40671 -0.753917 0
M  V30 510 C 48.9152 1.9043 0.658686 0
M  V30 511 O 47.9712 2.08538 1.42366 0
M  V30 512 C 49.2842 2.41192 -1.79574 0
M  V30 513 C 50.8322 2.54928 -1.81606 0
M  V30 514 C 51.3072 3.58709 -2.84766 0
M  V30 515 N 52.7982 3.66212 -2.83625 0
M  V30 516 C 53.5332 4.46225 -3.60098 0
M  V30 517 N 53.0292 5.29888 -4.46308 0
M  V30 518 N 54.8222 4.40939 -3.4861 0
M  V30 519 H 46.9732 0.848221 -1.94728 0
M  V30 520 H 49.2362 0.435081 -0.842264 0
M  V30 521 H 48.9422 2.11669 -2.80872 0
M  V30 522 H 48.8162 3.40467 -1.62365 0
M  V30 523 H 51.2032 2.83771 -0.809817 0
M  V30 524 H 51.2842 1.55784 -2.02891 0
M  V30 525 H 50.9282 3.30607 -3.85566 0
M  V30 526 H 50.8582 4.57519 -2.60737 0
M  V30 527 H 53.3492 3.06466 -2.21105 0
M  V30 528 H 53.6622 5.88078 -5.01382 0
M  V30 529 H 52.0072 5.29326 -4.50377 0
M  V30 530 H 55.1982 3.74624 -2.80668 0
M  V30 531 H 55.3712 5.03056 -4.08459 0
M  V30 532 N 48.7773 0.814389 1.34928 0
M  V30 533 C 50.0053 0.411136 2.02774 0
M  V30 534 C 50.4203 -0.980316 1.61354 0
M  V30 535 O 49.7773 -1.63299 0.814847 0
M  V30 536 C 49.8283 0.493865 3.58111 0
M  V30 537 O 49.5493 1.83047 3.98027 0
M  V30 538 C 51.0503 0.0844174 4.4322 0
M  V30 539 H 48.2703 0.166037 0.650133 0
M  V30 540 H 50.8143 1.10018 1.72384 0
M  V30 541 H 48.9693 -0.147006 3.87121 0
M  V30 542 H 49.3833 1.79872 4.92693 0
M  V30 543 H 50.8573 0.193404 5.51661 0
M  V30 544 H 51.3343 -0.97113 4.28329 0
M  V30 545 H 51.9403 0.69875 4.19521 0
M  V30 546 N 50.2554 -1.46986 0.568584 0
M  V30 547 C 51.4854 -2.0653 0.0539173 0
M  V30 548 C 51.8934 -1.42004 -1.25026 0
M  V30 549 O 51.2364 -0.514541 -1.76347 0
M  V30 550 C 51.2984 -3.58938 -0.200854 0
M  V30 551 C 50.9624 -4.45572 1.01559 0
M  V30 552 C 51.9594 -4.82986 1.92407 0
M  V30 553 C 49.6444 -4.8692 1.23346 0
M  V30 554 C 51.6384 -5.60559 3.03402 0
M  V30 555 C 49.3254 -5.64255 2.34649 0
M  V30 556 C 50.3234 -6.00986 3.24507 0
M  V30 557 O 50.0114 -6.76761 4.33878 0
M  V30 558 H 49.7434 -0.674292 0.0480234 0
M  V30 559 H 52.2974 -1.89812 0.784896 0
M  V30 560 H 50.5274 -3.73911 -0.986279 0
M  V30 561 H 52.2164 -4.0046 -0.662294 0
M  V30 562 H 52.9824 -4.51633 1.76785 0
M  V30 563 H 48.8614 -4.57789 0.543178 0
M  V30 564 H 52.4054 -5.89147 3.73565 0
M  V30 565 H 48.3024 -5.95021 2.5024 0
M  V30 566 H 49.0704 -6.95168 4.32068 0
M  V30 567 N 51.7335 -0.305618 -1.54608 0
M  V30 568 C 52.6965 0.555591 -2.22364 0
M  V30 569 C 53.6965 1.05768 -1.21119 0
M  V30 570 O 54.8865 0.952972 -1.45822 0
M  V30 571 C 52.0185 1.76974 -2.91364 0
M  V30 572 H 53.2115 -0.0364572 -2.99878 0
M  V30 573 H 50.7645 -0.0565007 -1.56198 0
M  V30 574 H 51.4995 2.40151 -2.17941 0
M  V30 575 H 51.2845 1.41732 -3.65588 0
M  V30 576 H 52.7745 2.38148 -3.43038 0
M  V30 577 N 53.2116 1.57565 -0.0334293 0
M  V30 578 C 54.4886 1.83282 0.683163 0
M  V30 579 C 54.8686 0.91823 1.90084 0
M  V30 580 O 54.2166 -0.025113 2.28486 0
M  V30 581 C 54.4266 3.32599 1.0573 0
M  V30 582 C 55.7746 3.99179 1.44711 0
M  V30 583 O 56.7986 3.3712 1.15015 0
M  V30 584 O 55.6576 5.08565 2.0006 0
M  V30 585 H 52.7516 0.755869 0.335546 0
M  V30 586 H 55.2976 1.69589 -0.0614402 0
M  V30 587 H 54.0696 3.90834 0.190828 0
M  V30 588 H 53.6926 3.51415 1.85993 0
M  V30 589 N 54.6897 -0.239769 1.55765 0
M  V30 590 C 55.6217 -1.32001 1.87372 0
M  V30 591 C 56.6347 -1.43944 0.760522 0
M  V30 592 O 57.8237 -1.45167 1.0387 0
M  V30 593 C 54.9237 -2.69779 2.05115 0
M  V30 594 C 54.0967 -2.80014 3.36022 0
M  V30 595 C 53.1557 -3.98684 3.4342 0
M  V30 596 O 52.1817 -3.87877 4.16582 0
M  V30 597 N 53.3837 -5.12176 2.73232 0
M  V30 598 H 56.1487 -1.0522 2.80622 0
M  V30 599 H 53.7097 -0.429857 1.56089 0
M  V30 600 H 55.7017 -3.47517 2.07399 0
M  V30 601 H 54.2717 -2.89237 1.18577 0
M  V30 602 H 53.4917 -1.88896 3.45994 0
M  V30 603 H 54.7797 -2.83808 4.22292 0
M  V30 604 H 54.1777 -5.2385 2.13536 0
M  V30 605 H 52.7347 -5.88022 2.81199 0
M  V30 606 N 56.1678 -1.49265 -0.50573 0
M  V30 607 C 57.5788 -1.51769 -1.08734 0
M  V30 608 C 57.9298 -0.301192 -1.93874 0
M  V30 609 O 57.0548 0.589456 -2.08217 0
M  V30 610 C 57.6498 -2.75017 -1.97867 0
M  V30 611 C 56.2088 -2.80314 -2.51199 0
M  V30 612 C 55.3558 -2.4562 -1.28709 0
M  V30 613 H 58.3068 -1.56031 -0.289855 0
M  V30 614 H 58.3278 -2.5491 -2.82491 0
M  V30 615 H 57.8398 -3.63539 -1.35873 0
M  V30 616 H 55.9408 -1.96061 -3.16845 0
M  V30 617 H 56.0538 -3.82366 -2.88675 0
M  V30 618 H 54.4178 -1.97297 -1.61078 0
M  V30 619 H 55.2008 -3.36411 -0.6843 0
M  V30 620 N 57.6459 0.756429 -1.3826 0
M  V30 621 C 58.8949 1.51082 -1.3363 0
M  V30 622 C 59.2079 1.95467 0.0720068 0
M  V30 623 O 60.4139 2.7043 0.240834 0
M  V30 624 C 58.8699 2.72893 -2.34644 0
M  V30 625 C 58.4779 2.35544 -3.81081 0
M  V30 626 C 60.2219 3.50791 -2.39052 0
M  V30 627 C 58.1289 3.53948 -4.73787 0
M  V30 628 H 57.0589 0.56727 -0.49671 0
M  V30 629 H 59.7099 0.827147 -1.638 0
M  V30 630 H 58.0919 3.43227 -1.97513 0
M  V30 631 H 59.2659 1.72894 -4.27135 0
M  V30 632 H 57.5809 1.70786 -3.79764 0
M  V30 633 H 60.1779 4.38823 -3.05513 0
M  V30 634 H 60.5209 3.91745 -1.40861 0
M  V30 635 H 61.0539 2.87467 -2.74968 0
M  V30 636 H 57.7929 3.18064 -5.73163 0
M  V30 637 H 57.3129 4.15651 -4.32428 0
M  V30 638 H 58.9919 4.20566 -4.91663 0
M  V30 639 N 59.124 1.23083 0.984299 0
M  V30 640 C 60.401 0.9689 1.69917 0
M  V30 641 C 60.781 -0.513604 2.04757 0
M  V30 642 O 60.129 -1.48383 1.73767 0
M  V30 643 C 60.339 1.87518 2.94343 0
M  V30 644 C 61.687 2.13636 3.6694 0
M  V30 645 O 62.711 1.85036 3.04368 0
M  V30 646 O 61.57 2.62119 4.79537 0
M  V30 647 H 58.664 0.365095 0.742048 0
M  V30 648 H 61.21 1.34107 1.03987 0
M  V30 649 H 59.982 2.87756 2.65164 0
M  V30 650 H 59.605 1.50514 3.6801 0
M  V30 651 N 60.6021 -1.18246 1.0419 0
M  V30 652 C 61.5651 -2.20128 0.638452 0
M  V30 653 C 62.5651 -1.57885 -0.304805 0
M  V30 654 O 63.7551 -1.73967 -0.0900369 0
M  V30 655 C 60.8871 -3.4084 -0.0637751 0
M  V30 656 H 62.0801 -2.57336 1.54007 0
M  V30 657 H 59.6331 -1.32152 0.834598 0
M  V30 658 H 60.3681 -3.09166 -0.979136 0
M  V30 659 H 60.1531 -3.8726 0.614198 0
M  V30 660 H 61.6431 -4.16274 -0.332512 0
M  V30 661 N 62.0802 -0.821533 -1.34494 0
M  V30 662 C 63.3572 -0.33159 -1.92769 0
M  V30 663 C 63.7372 1.18088 -1.74981 0
M  V30 664 O 63.0852 1.98733 -1.12772 0
M  V30 665 C 63.2952 -0.759398 -3.40638 0
M  V30 666 C 64.6432 -0.757433 -4.1779 0
M  V30 667 O 65.6672 -0.70189 -3.49216 0
M  V30 668 O 64.5262 -0.829361 -5.4017 0
M  V30 669 H 61.6202 -0.0902502 -0.822061 0
M  V30 670 H 64.1662 -0.906231 -1.43477 0
M  V30 671 H 62.9382 -1.8012 -3.47379 0
M  V30 672 H 62.5612 -0.160378 -3.97276 0
M  V30 673 N 63.5583 1.46682 -0.576371 0
M  V30 674 C 64.8043 2.02712 -0.0596221 0
M  V30 675 C 65.1373 1.44765 1.29448 0
M  V30 676 O 64.4123 0.610355 1.84675 0
M  V30 677 C 64.6953 3.60098 0.0129503 0
M  V30 678 C 64.5483 4.28441 -1.3696 0
M  V30 679 C 65.8673 4.34224 0.71678 0
M  V30 680 H 62.9863 0.736637 -0.0231407 0
M  V30 681 H 65.6283 1.74898 -0.742351 0
M  V30 682 H 63.7783 3.83926 0.594378 0
M  V30 683 H 65.4503 4.15896 -1.9957 0
M  V30 684 H 63.6933 3.8805 -1.93907 0
M  V30 685 H 64.3643 5.3716 -1.27135 0
M  V30 686 H 66.8403 4.15503 0.222908 0
M  V30 687 H 65.7163 5.43936 0.73657 0
M  V30 688 H 65.9773 4.04823 1.77682 0
M  V30 689 N 65.0364 0.313813 1.54444 0
M  V30 690 C 66.2644 -0.293918 2.04802 0
M  V30 691 C 66.6794 -1.46537 1.19047 0
M  V30 692 O 66.0364 -1.81182 0.218939 0
M  V30 693 C 66.0874 -0.737806 3.53891 0
M  V30 694 O 65.8084 0.387038 4.36387 0
M  V30 695 C 67.3094 -1.40936 4.203 0
M  V30 696 H 64.5294 -0.0620057 0.668129 0
M  V30 697 H 67.0734 0.457169 1.99324 0
M  V30 698 H 65.2284 -1.43889 3.59687 0
M  V30 699 H 65.6424 0.0391274 5.24485 0
M  V30 700 H 67.1164 -1.67099 5.26101 0
M  V30 701 H 67.5934 -2.35355 3.70816 0
M  V30 702 H 68.1994 -0.751117 4.18615 0
M  V30 703 N 66.5145 -1.57545 0.0417849 0
M  V30 704 C 67.7605 -1.92601 -0.635021 0
M  V30 705 C 68.0935 -0.919627 -1.71045 0
M  V30 706 O 67.3685 0.0557892 -1.9442 0
M  V30 707 C 67.6515 -3.38085 -1.23979 0
M  V30 708 C 67.5045 -4.49467 -0.173057 0
M  V30 709 C 68.8235 -3.83776 -2.15416 0
M  V30 710 H 65.9425 -0.700397 -0.229374 0
M  V30 711 H 68.5845 -1.89728 0.101633 0
M  V30 712 H 66.7345 -3.40664 -1.86762 0
M  V30 713 H 68.4065 -4.59018 0.458312 0
M  V30 714 H 66.6495 -4.30909 0.499996 0
M  V30 715 H 67.3205 -5.48323 -0.636054 0
M  V30 716 H 69.7965 -3.83013 -1.62605 0
M  V30 717 H 68.6725 -4.8624 -2.54679 0
M  V30 718 H 68.9335 -3.19998 -3.05047 0
M  V30 719 N 67.9926 0.231505 -1.5589 0
M  V30 720 C 69.2416 0.955346 -1.7764 0
M  V30 721 C 69.5546 1.85893 -0.608546 0
M  V30 722 O 70.7606 2.62067 -0.70943 0
M  V30 723 C 69.2166 1.74886 -3.14552 0
M  V30 724 C 68.8246 0.891915 -4.39032 0
M  V30 725 C 70.5686 2.46452 -3.45633 0
M  V30 726 C 68.4756 1.68221 -5.66971 0
M  V30 727 H 67.4056 0.360446 -0.662265 0
M  V30 728 H 70.0566 0.209516 -1.823 0
M  V30 729 H 68.4386 2.53723 -3.04041 0
M  V30 730 H 69.6126 0.144793 -4.60572 0
M  V30 731 H 67.9276 0.288863 -4.15397 0
M  V30 732 H 70.5246 3.06061 -4.38441 0
M  V30 733 H 70.8676 3.18841 -2.67668 0
M  V30 734 H 71.4006 1.74613 -3.57428 0
M  V30 735 H 68.1396 1.00178 -6.478 0
M  V30 736 H 67.6596 2.4042 -5.49507 0
M  V30 737 H 69.3386 2.24544 -6.06786 0
M  V30 738 N 69.4707 1.49531 0.497807 0
M  V30 739 C 70.7187 1.58865 1.24926 0
M  V30 740 C 71.0397 0.278721 1.92998 0
M  V30 741 O 70.3097 -0.702144 1.82885 0
M  V30 742 H 68.8897 0.585343 0.464094 0
M  V30 743 H 71.5517 1.86174 0.57666 0
M  V30 744 H 70.6477 2.38633 2.01149 0
M  V30 745 N 70.9488 -0.749086 1.3866 0
M  V30 746 C 72.1738 -1.54344 1.38538 0
M  V30 747 C 72.5988 -1.88088 -0.0216655 0
M  V30 748 O 71.9568 -1.50899 -1.00494 0
M  V30 749 C 72.0048 -2.8164 2.25192 0
M  V30 750 O 71.1088 -3.7698 1.67212 0
M  V30 751 H 70.4498 -0.466654 0.472367 0
M  V30 752 H 72.9798 -0.925355 1.82478 0
M  V30 753 H 72.9898 -3.30519 2.3921 0
M  V30 754 H 71.6648 -2.56411 3.27454 0
M  V30 755 H 70.2418 -3.35699 1.6236 0
M  V30 756 N 72.4269 -1.23603 -0.977757 0
M  V30 757 C 73.6749 -1.06759 -1.71601 0
M  V30 758 C 73.9959 0.395929 -1.90938 0
M  V30 759 O 73.2659 1.28356 -1.47992 0
M  V30 760 H 71.8459 -0.392062 -0.635843 0
M  V30 761 H 74.5079 -1.55362 -1.1768 0
M  V30 762 H 73.6039 -1.55763 -2.70452 0
M  V30 763 N 73.905 1.17692 -1.04816 0
M  V30 764 C 75.316 1.69501 -0.782698 0
M  V30 765 C 75.667 1.83456 0.695577 0
M  V30 766 O 74.792 1.51942 1.54086 0
M  V30 767 C 75.387 3.07874 -1.41419 0
M  V30 768 C 73.946 3.56864 -1.19686 0
M  V30 769 C 73.093 2.3322 -1.50012 0
M  V30 770 H 76.044 1.02262 -1.2136 0
M  V30 771 H 76.065 3.71528 -0.821428 0
M  V30 772 H 75.577 2.97685 -2.49009 0
M  V30 773 H 73.678 3.72337 -0.140043 0
M  V30 774 H 73.791 4.39851 -1.89916 0
M  V30 775 H 72.155 2.37501 -0.920071 0
M  V30 776 H 72.938 2.25644 -2.58727 0
M  V30 777 N 75.3831 0.828654 1.34056 0
M  V30 778 C 76.6311 0.41863 1.97717 0
M  V30 779 C 76.9521 -1.02314 1.66002 0
M  V30 780 O 76.2221 -1.71119 0.953683 0
M  V30 781 H 74.8021 0.151809 0.731412 0
M  V30 782 H 77.4641 1.05936 1.63596 0
M  V30 783 H 76.5601 0.542318 3.07352 0
M  V30 784 N 76.8612 -1.46375 0.584142 0
M  V30 785 C 78.1092 -2.01978 0.0701287 0
M  V30 786 C 78.4302 -1.4579 -1.295 0
M  V30 787 O 77.7002 -0.64314 -1.85042 0
M  V30 788 H 76.2802 -0.746648 0.0229345 0
M  V30 789 H 78.9422 -1.79461 0.760245 0
M  V30 790 H 78.0382 -3.121 0.0022064 0
M  V30 791 N 78.3393 -0.321999 -1.54275 0
M  V30 792 C 79.5693 0.282642 -2.04658 0
M  V30 793 C 79.9773 1.46453 -1.19784 0
M  V30 794 O 79.3203 1.82367 -0.220932 0
M  V30 795 C 79.3823 0.781857 -3.50895 0
M  V30 796 C 79.0463 -0.277517 -4.56157 0
M  V30 797 C 80.0433 -1.11307 -5.07845 0
M  V30 798 C 77.7283 -0.425256 -5.00497 0
M  V30 799 C 79.7223 -2.08211 -6.02434 0
M  V30 800 C 77.4093 -1.39771 -5.94901 0
M  V30 801 C 78.4073 -2.2246 -6.45756 0
M  V30 802 O 78.0953 -3.18054 -7.38307 0
M  V30 803 H 77.8273 0.0622636 -0.673126 0
M  V30 804 H 80.3813 -0.465792 -2.00049 0
M  V30 805 H 78.6113 1.58118 -3.52896 0
M  V30 806 H 80.3003 1.30467 -3.84361 0
M  V30 807 H 81.0663 -1.00991 -4.74369 0
M  V30 808 H 76.9453 0.20847 -4.60528 0
M  V30 809 H 80.4893 -2.72791 -6.42052 0
M  V30 810 H 76.3863 -1.50152 -6.27794 0
M  V30 811 H 77.1543 -3.13275 -7.56175 0
M  V30 812 N 79.8174 1.5752 -0.0501392 0
M  V30 813 C 81.0634 1.92936 0.624798 0
M  V30 814 C 81.3964 0.928685 1.70555 0
M  V30 815 O 80.6714 -0.0454779 1.94447 0
M  V30 816 C 80.9544 3.38737 1.22185 0
M  V30 817 C 80.8074 4.49552 0.149218 0
M  V30 818 C 82.1264 3.84913 2.13378 0
M  V30 819 H 79.2454 0.701604 0.225657 0
M  V30 820 H 81.8874 1.89671 -0.111693 0
M  V30 821 H 80.0374 3.4165 1.84953 0
M  V30 822 H 81.7094 4.58768 -0.482648 0
M  V30 823 H 79.9524 4.30638 -0.522841 0
M  V30 824 H 80.6234 5.48653 0.606966 0
M  V30 825 H 83.0994 3.8387 1.60572 0
M  V30 826 H 81.9754 4.87584 2.52097 0
M  V30 827 H 82.2364 3.21611 3.03346 0
M  V30 828 N 81.2955 -0.223234 1.56011 0
M  V30 829 C 82.2585 -1.26014 1.9145 0
M  V30 830 C 83.2585 -1.3989 0.792937 0
M  V30 831 O 84.4485 -1.38184 1.0607 0
M  V30 832 C 81.5805 -2.63422 2.16383 0
M  V30 833 H 82.7735 -0.95796 2.84189 0
M  V30 834 H 80.3265 -0.463576 1.49267 0
M  V30 835 H 81.0615 -2.98741 1.2619 0
M  V30 836 H 80.8465 -2.54728 2.98088 0
M  V30 837 H 82.3365 -3.38249 2.44903 0
M  V30 838 N 82.7736 -1.49793 -0.48987 0
M  V30 839 C 83.7366 -1.66752 -1.57246 0
M  V30 840 C 84.7366 -0.538867 -1.51502 0
M  V30 841 O 85.9266 -0.805545 -1.54456 0
M  V30 842 C 83.0586 -1.67528 -2.96896 0
M  V30 843 H 84.2516 -2.63321 -1.43534 0
M  V30 844 H 81.8046 -1.38992 -0.714914 0
M  V30 845 H 82.5396 -0.725837 -3.16073 0
M  V30 846 H 82.3246 -2.49504 -3.02473 0
M  V30 847 H 83.8146 -1.82667 -3.7553 0
M  V30 848 N 84.2517 0.741722 -1.39055 0
M  V30 849 C 85.5007 1.49656 -1.35225 0
M  V30 850 C 85.8137 1.95533 0.0512708 0
M  V30 851 O 87.0197 2.7067 0.212138 0
M  V30 852 C 85.4757 2.70389 -2.37525 0
M  V30 853 C 85.0837 2.31489 -3.83558 0
M  V30 854 C 86.8277 3.48236 -2.42759 0
M  V30 855 C 84.7347 3.48903 -4.77515 0
M  V30 856 H 83.6647 0.56197 -0.502699 0
M  V30 857 H 86.3157 0.809727 -1.64668 0
M  V30 858 H 84.6977 3.41113 -2.01142 0
M  V30 859 H 85.8717 1.68354 -4.28945 0
M  V30 860 H 84.1867 1.66749 -3.81554 0
M  V30 861 H 86.7837 4.35558 -3.1015 0
M  V30 862 H 87.1267 3.90229 -1.45008 0
M  V30 863 H 87.6597 2.84535 -2.78002 0
M  V30 864 H 84.3987 3.11966 -5.76504 0
M  V30 865 H 83.9187 4.11041 -4.36813 0
M  V30 866 H 85.5977 4.15328 -4.96096 0
M  V30 867 N 85.7298 1.2412 0.971189 0
M  V30 868 C 86.6768 1.0305 2.06517 0
M  V30 869 C 87.6468 -0.0550666 1.66009 0
M  V30 870 O 88.8318 0.0988688 1.90544 0
M  V30 871 C 85.9718 0.637653 3.39158 0
M  V30 872 C 85.0848 1.79633 3.92882 0
M  V30 873 C 84.2198 1.34939 5.13775 0
M  V30 874 C 83.2588 2.47823 5.59687 0
M  V30 875 N 82.3958 2.04022 6.71803 0
M  V30 876 H 87.2358 1.96685 2.23873 0
M  V30 877 H 84.7728 0.979694 1.09729 0
M  V30 878 H 86.7308 0.390931 4.15364 0
M  V30 879 H 85.3608 -0.261693 3.21737 0
M  V30 880 H 84.4128 2.15681 3.13346 0
M  V30 881 H 85.7248 2.64466 4.22918 0
M  V30 882 H 84.8788 1.06134 5.97345 0
M  V30 883 H 83.6178 0.471557 4.85415 0
M  V30 884 H 82.6228 2.77392 4.74693 0
M  V30 885 H 83.8478 3.36158 5.90063 0
M  V30 886 H 81.7938 1.18632 6.45184 0
M  V30 887 H 81.7108 2.82409 7.01271 0
M  V30 888 H 82.9788 1.78347 7.58823 0
M  V30 889 N 87.2079 -1.17134 1.05439 0
M  V30 890 C 88.1709 -2.19439 0.661764 0
M  V30 891 C 89.1709 -1.58199 -0.288042 0
M  V30 892 O 90.3609 -1.74053 -0.0715803 0
M  V30 893 C 87.4929 -3.40889 -0.0276209 0
M  V30 894 H 88.6859 -2.55688 1.56728 0
M  V30 895 H 86.2389 -1.31259 0.848567 0
M  V30 896 H 86.9739 -3.10187 -0.94629 0
M  V30 897 H 86.7589 -3.86586 0.655238 0
M  V30 898 H 88.2489 -4.16603 -0.288342 0
M  V30 899 N 88.686 -0.835752 -1.33615 0
M  V30 900 C 89.649 -0.272 -2.2758 0
M  V30 901 C 90.649 0.557487 -1.50827 0
M  V30 902 O 91.839 0.37173 -1.70188 0
M  V30 903 C 88.971 0.617173 -3.35267 0
M  V30 904 H 90.164 -1.10111 -2.78954 0
M  V30 905 H 87.717 -0.608594 -1.43965 0
M  V30 906 H 88.452 1.46884 -2.89129 0
M  V30 907 H 88.237 0.0237066 -3.92093 0
M  V30 908 H 89.727 1.005 -4.05326 0
M  V30 909 N 90.1641 1.46063 -0.591896 0
M  V30 910 C 91.0961 2.28539 0.174001 0
M  V30 911 C 92.1091 1.39047 0.846753 0
M  V30 912 O 93.2981 1.63564 0.714774 0
M  V30 913 C 90.3981 3.14347 1.26645 0
M  V30 914 C 89.5711 4.32021 0.683856 0
M  V30 915 C 88.6301 4.99157 1.66518 0
M  V30 916 O 87.6561 5.56458 1.19763 0
M  V30 917 N 88.8581 4.97005 2.99943 0
M  V30 918 H 91.6231 2.94911 -0.533633 0
M  V30 919 H 89.1841 1.56077 -0.430294 0
M  V30 920 H 91.1761 3.56125 1.92242 0
M  V30 921 H 89.7461 2.49988 1.87682 0
M  V30 922 H 88.9661 3.93915 -0.1498 0
M  V30 923 H 90.2541 5.08059 0.274567 0
M  V30 924 H 89.6521 4.51714 3.40545 0
M  V30 925 H 88.2091 5.42696 3.61004 0
M  V30 926 N 91.6422 0.330177 1.54103 0
M  V30 927 C 92.5722 -0.525353 2.27513 0
M  V30 928 C 93.5532 -1.11383 1.2856 0
M  V30 929 O 94.7382 -1.13773 1.57383 0
M  V30 930 C 91.8682 -1.6831 3.03791 0
M  V30 931 C 90.8222 -1.2236 4.10137 0
M  V30 932 C 90.1482 -2.46882 4.74293 0
M  V30 933 C 91.4482 -0.333697 5.21233 0
M  V30 934 H 93.1422 0.087013 2.99274 0
M  V30 935 H 90.6882 0.0432893 1.43935 0
M  V30 936 H 92.6412 -2.28795 3.5388 0
M  V30 937 H 91.3652 -2.32216 2.29659 0
M  V30 938 H 90.0242 -0.64165 3.60941 0
M  V30 939 H 89.6722 -3.09165 3.96769 0
M  V30 940 H 89.3722 -2.16825 5.46133 0
M  V30 941 H 90.8962 -3.08117 5.27159 0
M  V30 942 H 92.3102 -0.845013 5.67038 0
M  V30 943 H 90.7072 -0.125612 5.99969 0
M  V30 944 H 91.7772 0.633724 4.80741 0
M  V30 945 N 93.1203 -1.57491 0.0584922 0
M  V30 946 C 94.3683 -1.92597 -0.612436 0
M  V30 947 C 94.6893 -0.938162 -1.70949 0
M  V30 948 O 93.9593 0.0158301 -1.95894 0
M  V30 949 H 92.5393 -0.710964 -0.229214 0
M  V30 950 H 95.2013 -1.94571 0.113218 0
M  V30 951 H 94.2973 -2.94038 -1.04633 0
M  V30 952 N 94.5984 0.214957 -1.56127 0
M  V30 953 C 95.8454 0.938372 -1.79446 0
M  V30 954 C 96.1734 1.8407 -0.628378 0
M  V30 955 O 95.4284 1.91837 0.386925 0
M  V30 956 C 95.7274 1.80314 -3.0858 0
M  V30 957 C 95.3934 1.05349 -4.3842 0
M  V30 958 C 94.0554 0.846435 -4.73697 0
M  V30 959 C 96.4074 0.524588 -5.18553 0
M  V30 960 C 93.7354 0.098683 -5.86617 0
M  V30 961 C 96.0874 -0.209853 -6.32252 0
M  V30 962 C 94.7514 -0.428102 -6.66126 0
M  V30 963 H 94.0214 0.343375 -0.656639 0
M  V30 964 H 96.6684 0.206077 -1.90388 0
M  V30 965 H 94.9734 2.6035 -2.92789 0
M  V30 966 H 96.6704 2.36513 -3.23825 0
M  V30 967 H 93.2604 1.22486 -4.10725 0
M  V30 968 H 97.4444 0.672008 -4.91729 0
M  V30 969 H 92.7004 -0.0805753 -6.11347 0
M  V30 970 H 96.8744 -0.627157 -6.9357 0
M  V30 971 H 94.5014 -1.00944 -7.53468 0
M  V30 972 N 96.0765 1.50051 0.48192 0
M  V30 973 C 97.0235 1.68122 1.58125 0
M  V30 974 C 97.9935 0.522545 1.57666 0
M  V30 975 O 99.1785 0.751844 1.75362 0
M  V30 976 C 96.3185 1.77142 2.96167 0
M  V30 977 C 95.4315 3.0444 3.06497 0
M  V30 978 C 94.5665 3.04321 4.35387 0
M  V30 979 C 93.6055 4.26118 4.3942 0
M  V30 980 N 92.7425 4.238 5.59766 0
M  V30 981 H 97.5825 2.6198 1.42022 0
M  V30 982 H 95.1195 1.29877 0.690687 0
M  V30 983 H 97.0775 1.80352 3.76203 0
M  V30 984 H 95.7075 0.867329 3.1093 0
M  V30 985 H 94.7595 3.10752 2.19402 0
M  V30 986 H 96.0715 3.94426 3.05336 0
M  V30 987 H 95.2255 3.062 5.23762 0
M  V30 988 H 93.9645 2.12147 4.39141 0
M  V30 989 H 92.9695 4.24463 3.49444 0
M  V30 990 H 94.1945 5.19507 4.37366 0
M  V30 991 H 92.1405 3.34474 5.64326 0
M  V30 992 H 92.0575 5.07542 5.60301 0
M  V30 993 H 93.3255 4.2981 6.50295 0
M  V30 994 N 97.5546 -0.734337 1.39446 0
M  V30 995 C 98.7826 -1.52358 1.39981 0
M  V30 996 C 99.1976 -1.88799 -0.0054975 0
M  V30 997 O 98.5546 -1.54146 -0.976998 0
M  V30 998 C 98.6056 -2.81072 2.27333 0
M  V30 999 O 98.3266 -2.46178 3.62392 0
M  V30 1000 C 99.8276 -3.75096 2.36259 0
M  V30 1001 H 97.0476 -0.470806 0.478103 0
M  V30 1002 H 99.5916 -0.907339 1.83269 0
M  V30 1003 H 97.7466 -3.39026 1.87457 0
M  V30 1004 H 98.1606 -3.28866 4.08592 0
M  V30 1005 H 99.6346 -4.62305 3.01626 0
M  V30 1006 H 100.112 -4.16892 1.38194 0
M  V30 1007 H 100.718 -3.23061 2.76608 0
M  V30 1008 N 99.0327 -1.24633 -0.964593 0
M  V30 1009 C 100.279 -1.08949 -1.71049 0
M  V30 1010 C 100.612 0.370302 -1.90637 0
M  V30 1011 O 99.8867 1.27349 -1.47011 0
M  V30 1012 C 100.17 -1.83329 -3.0994 0
M  V30 1013 C 100.023 -3.37077 -2.97824 0
M  V30 1014 C 101.342 -1.60846 -4.09654 0
M  V30 1015 H 98.4607 -0.397178 -0.620821 0
M  V30 1016 H 101.103 -1.5334 -1.12191 0
M  V30 1017 H 99.2527 -1.45597 -3.60186 0
M  V30 1018 H 100.925 -3.84425 -2.5498 0
M  V30 1019 H 99.1677 -3.65298 -2.33965 0
M  V30 1020 H 99.8387 -3.84324 -3.96231 0
M  V30 1021 H 102.315 -1.93674 -3.68279 0
M  V30 1022 H 101.191 -2.1534 -5.04896 0
M  V30 1023 H 101.452 -0.547434 -4.38698 0
M  V30 1024 N 100.511 1.16574 -1.06058 0
M  V30 1025 C 101.751 1.88723 -0.78504 0
M  V30 1026 C 102.115 1.79706 0.676006 0
M  V30 1027 O 103.316 2.46757 1.06603 0
M  V30 1028 C 101.587 3.34338 -1.26304 0
M  V30 1029 S 103.146 4.24366 -1.1162 0
M  V30 1030 H 99.9638 0.651448 -0.284846 0
M  V30 1031 H 102.566 1.40732 -1.35701 0
M  V30 1032 H 101.27 3.38439 -2.32136 0
M  V30 1033 H 100.801 3.87378 -0.685719 0
M  V30 1034 H 102.816 4.96179 -0.0456539 0
M  V30 1035 N 101.989 0.842826 1.3317 0
M  V30 1036 C 103.238 0.436738 1.96915 0
M  V30 1037 C 103.551 -1.01025 1.67491 0
M  V30 1038 O 104.757 -1.5212 2.24881 0
M  V30 1039 C 103.213 0.730021 3.52418 0
M  V30 1040 C 102.821 2.19195 3.90714 0
M  V30 1041 C 104.565 0.391076 4.22695 0
M  V30 1042 C 102.472 2.42907 5.39212 0
M  V30 1043 H 101.402 0.15958 0.736919 0
M  V30 1044 H 104.053 1.03196 1.51733 0
M  V30 1045 H 102.435 0.0643755 3.95948 0
M  V30 1046 H 103.609 2.8984 3.58231 0
M  V30 1047 H 101.924 2.49425 3.33431 0
M  V30 1048 H 104.521 0.545817 5.31907 0
M  V30 1049 H 104.864 -0.666294 4.10933 0
M  V30 1050 H 105.397 1.01212 3.84709 0
M  V30 1051 H 102.136 3.47224 5.55982 0
M  V30 1052 H 101.656 1.76827 5.73142 0
M  V30 1053 H 103.335 2.2626 6.06148 0
M  V30 1054 N 103.467 -1.45747 0.599634 0
M  V30 1055 C 104.377 -2.34262 -0.125888 0
M  V30 1056 C 105.393 -1.50768 -0.868625 0
M  V30 1057 O 106.569 -1.83592 -0.828003 0
M  V30 1058 C 103.634 -3.28252 -1.11587 0
M  V30 1059 C 102.695 -4.27651 -0.375956 0
M  V30 1060 C 101.928 -5.1715 -1.31877 0
M  V30 1061 O 102.151 -5.09916 -2.55621 0
M  V30 1062 O 101.085 -5.96286 -0.820157 0
M  V30 1063 H 104.911 -2.97688 0.601315 0
M  V30 1064 H 102.496 -1.44999 0.359934 0
M  V30 1065 H 104.378 -3.86191 -1.68626 0
M  V30 1066 H 103.053 -2.67401 -1.82424 0
M  V30 1067 H 101.96 -3.7335 0.236698 0
M  V30 1068 H 103.293 -4.91334 0.29177 0
M  V30 1069 N 104.945 -0.338344 -1.53925 0
M  V30 1070 C 105.892 0.520845 -2.24846 0
M  V30 1071 C 106.862 1.09976 -1.24477 0
M  V30 1072 O 108.047 1.13735 -1.53196 0
M  V30 1073 C 105.187 1.6685 -3.02084 0
M  V30 1074 C 104.3 1.11739 -4.17299 0
M  V30 1075 C 103.435 2.23193 -4.82036 0
M  V30 1076 C 102.474 1.65407 -5.89328 0
M  V30 1077 N 101.611 2.70582 -6.47866 0
M  V30 1078 H 106.451 -0.0904881 -2.97863 0
M  V30 1079 H 103.988 -0.0564282 -1.46992 0
M  V30 1080 H 105.946 2.34407 -3.45122 0
M  V30 1081 H 104.576 2.2509 -2.31375 0
M  V30 1082 H 103.628 0.332919 -3.7894 0
M  V30 1083 H 104.94 0.654677 -4.94485 0
M  V30 1084 H 104.094 2.98626 -5.28117 0
M  V30 1085 H 102.833 2.72807 -4.04262 0
M  V30 1086 H 101.838 0.884779 -5.42634 0
M  V30 1087 H 103.063 1.16652 -6.69006 0
M  V30 1088 H 101.009 3.1946 -5.72959 0
M  V30 1089 H 100.926 2.28917 -7.20509 0
M  V30 1090 H 102.194 3.45799 -6.98601 0
M  V30 1091 N 106.423 1.57458 -0.0668435 0
M  V30 1092 C 107.371 2.13639 0.919851 0
M  V30 1093 C 108.365 1.07204 1.31163 0
M  V30 1094 O 109.571 1.25591 1.28945 0
M  V30 1095 H 105.946 0.683048 0.314562 0
M  V30 1096 H 107.917 2.95415 0.421047 0
M  V30 1097 C 106.666 2.70892 2.17975 0
M  V30 1098 H 105.989 3.5246 1.88711 0
M  V30 1099 H 107.429 3.13803 2.85138 0
M  V30 1100 C 105.888 1.65414 2.93496 0
M  V30 1101 O 106.418 1.07619 3.87015 0
M  V30 1102 N 104.624 1.36564 2.56512 0
M  V30 1103 H 104.171 1.83751 1.80536 0
M  V30 1104 H 104.129 0.66223 3.07347 0
M  V30 1105 N 107.901 -0.206675 1.56239 0
M  V30 1106 C 108.811 -1.27686 1.96808 0
M  V30 1107 C 109.827 -1.50455 0.874035 0
M  V30 1108 O 111.003 -1.63295 1.17884 0
M  V30 1109 C 108.068 -2.60358 2.28942 0
M  V30 1110 C 107.129 -2.45762 3.51994 0
M  V30 1111 C 106.362 -3.72108 3.82585 0
M  V30 1112 O 106.585 -4.75776 3.14631 0
M  V30 1113 O 105.519 -3.6833 4.76043 0
M  V30 1114 H 109.345 -0.962593 2.88041 0
M  V30 1115 H 106.93 -0.410746 1.43643 0
M  V30 1116 H 108.812 -3.38687 2.50737 0
M  V30 1117 H 107.487 -2.91435 1.4088 0
M  V30 1118 H 106.394 -1.65584 3.35459 0
M  V30 1119 H 107.727 -2.19621 4.40486 0
M  V30 1120 N 109.379 -1.50304 -0.473955 0
M  V30 1121 C 110.607 -1.64902 -1.24959 0
M  V30 1122 C 111.022 -0.331198 -1.85872 0
M  V30 1123 O 110.379 0.68652 -1.69095 0
M  V30 1124 C 110.43 -2.73803 -2.36038 0
M  V30 1125 O 110.151 -4.00477 -1.77624 0
M  V30 1126 C 111.652 -2.99349 -3.26964 0
M  V30 1127 H 108.872 -0.554383 -0.378022 0
M  V30 1128 H 111.416 -1.9651 -0.566054 0
M  V30 1129 H 109.571 -2.44898 -3.00173 0
M  V30 1130 H 109.985 -4.60678 -2.5075 0
M  V30 1131 H 111.459 -3.79217 -4.01121 0
M  V30 1132 H 111.936 -2.10307 -3.85574 0
M  V30 1133 H 112.542 -3.29774 -2.68569 0
M  V30 1134 N 110.857 0.726932 -1.39834 0
M  V30 1135 C 111.787 1.85405 -1.41941 0
M  V30 1136 C 112.768 1.67751 -0.281728 0
M  V30 1137 O 113.953 1.8795 -0.488717 0
M  V30 1138 C 111.083 3.23243 -1.2701 0
M  V30 1139 C 110.037 3.55549 -2.38262 0
M  V30 1140 C 109.363 4.9241 -2.08415 0
M  V30 1141 C 110.663 3.577 -3.80589 0
M  V30 1142 H 112.357 1.83899 -2.36266 0
M  V30 1143 H 109.903 0.883349 -1.13723 0
M  V30 1144 H 111.856 4.01775 -1.27103 0
M  V30 1145 H 110.58 3.25296 -0.291564 0
M  V30 1146 H 109.239 2.79351 -2.37399 0
M  V30 1147 H 108.887 4.91052 -1.0898 0
M  V30 1148 H 108.587 5.14992 -2.82943 0
M  V30 1149 H 110.111 5.73289 -2.10171 0
M  V30 1150 H 111.525 4.26293 -3.83337 0
M  V30 1151 H 109.922 3.91804 -4.54543 0
M  V30 1152 H 110.992 2.57328 -4.10987 0
M  V30 1153 N 112.336 1.25143 0.95797 0
M  V30 1154 C 113.584 1.09476 1.69881 0
M  V30 1155 C 113.905 -0.365502 1.91544 0
M  V30 1156 O 113.175 -1.25985 1.50015 0
M  V30 1157 H 111.755 0.402128 0.629525 0
M  V30 1158 H 114.417 1.57214 1.15194 0
M  V30 1159 H 113.513 1.60046 2.6794 0
M  V30 1160 N 113.814 -1.1601 1.06675 0
M  V30 1161 C 115.062 -1.86264 0.784229 0
M  V30 1162 C 115.383 -1.82328 -0.691488 0
M  V30 1163 O 114.653 -1.25947 -1.50047 0
M  V30 1164 H 113.233 -0.689621 0.28711 0
M  V30 1165 H 115.895 -1.40664 1.34906 0
M  V30 1166 H 114.991 -2.91595 1.11259 0
M  V30 1167 N 115.292 -0.849877 -1.32721 0
M  V30 1168 C 116.52 -0.464754 -2.01613 0
M  V30 1169 C 116.935 0.937191 -1.63897 0
M  V30 1170 O 116.292 1.61081 -0.857856 0
M  V30 1171 C 116.343 -0.588638 -3.56675 0
M  V30 1172 O 116.064 -1.93535 -3.93034 0
M  V30 1173 C 117.565 -0.2019 -4.4284 0
M  V30 1174 H 114.785 -0.183215 -0.645502 0
M  V30 1175 H 117.329 -1.1455 -1.69407 0
M  V30 1176 H 115.484 0.0443159 -3.87375 0
M  V30 1177 H 115.898 -1.92871 -4.87751 0
M  V30 1178 H 117.372 -0.339599 -5.50954 0
M  V30 1179 H 117.849 0.857224 -4.30753 0
M  V30 1180 H 118.455 -0.809733 -4.17521 0
M  V30 1181 N 116.77 1.45427 -0.607355 0
M  V30 1182 C 118.01 2.04128 -0.105458 0
M  V30 1183 C 118.374 1.46555 1.24039 0
M  V30 1184 O 119.575 1.96608 1.833 0
M  V30 1185 C 117.846 3.57338 -0.0665324 0
M  V30 1186 S 119.405 4.37201 0.374207 0
M  V30 1187 H 116.223 0.709278 -0.0494575 0
M  V30 1188 H 118.825 1.78139 -0.805404 0
M  V30 1189 H 117.529 3.96752 -1.04957 0
M  V30 1190 H 117.06 3.87902 0.655415 0
M  V30 1191 H 119.075 4.6888 1.62377 0
M  V30 1192 N 118.248 0.346503 1.53744 0
M  V30 1193 C 119.178 -0.501193 2.28058 0
M  V30 1194 C 120.159 -1.10014 1.29734 0
M  V30 1195 O 121.344 -1.12097 1.58581 0
M  V30 1196 C 118.474 -1.65078 3.05559 0
M  V30 1197 C 117.428 -1.18003 4.11411 0
M  V30 1198 C 116.754 -2.41837 4.76884 0
M  V30 1199 C 118.054 -0.278394 5.21558 0
M  V30 1200 H 119.748 0.11875 2.99164 0
M  V30 1201 H 117.294 0.0585531 1.43881 0
M  V30 1202 H 119.247 -2.25028 3.56287 0
M  V30 1203 H 117.971 -2.29767 2.32109 0
M  V30 1204 H 116.63 -0.603331 3.61601 0
M  V30 1205 H 116.278 -3.0494 4.00026 0
M  V30 1206 H 115.978 -2.1102 5.48402 0
M  V30 1207 H 117.502 -3.02508 5.30397 0
M  V30 1208 H 118.916 -0.784823 5.67903 0
M  V30 1209 H 117.313 -0.0619707 6.00068 0
M  V30 1210 H 118.383 0.684677 4.80042 0
M  V30 1211 N 119.726 -1.57421 0.075193 0
M  V30 1212 C 120.674 -2.14124 -0.908508 0
M  V30 1213 C 121.668 -1.07898 -1.30592 0
M  V30 1214 O 122.874 -1.26273 -1.28277 0
M  V30 1215 H 119.249 -0.684707 -0.310935 0
M  V30 1216 H 121.22 -2.95634 -0.405374 0
M  V30 1217 C 119.969 -2.72044 -2.16535 0
M  V30 1218 H 119.292 -3.53456 -1.86839 0
M  V30 1219 H 120.732 -3.15311 -2.83469 0
M  V30 1220 C 119.191 -1.66968 -2.92615 0
M  V30 1221 O 119.721 -1.0967 -3.86439 0
M  V30 1222 N 117.927 -1.37923 -2.55784 0
M  V30 1223 H 117.474 -1.84706 -1.79559 0
M  V30 1224 H 117.432 -0.67852 -3.06991 0
M  V30 1225 N 121.204 0.198386 -1.56346 0
M  V30 1226 C 122.45 0.920648 -1.80698 0
M  V30 1227 C 122.783 1.83045 -0.648697 0
M  V30 1228 O 122.058 1.91308 0.350925 0
M  V30 1229 C 122.341 1.73971 -3.15287 0
M  V30 1230 C 122.194 0.85485 -4.41602 0
M  V30 1231 C 123.513 2.71296 -3.46535 0
M  V30 1232 H 120.632 0.333261 -0.657348 0
M  V30 1233 H 123.274 0.188198 -1.89066 0
M  V30 1234 H 121.424 2.36416 -3.08285 0
M  V30 1235 H 123.096 0.245362 -4.60647 0
M  V30 1236 H 121.339 0.161398 -4.335 0
M  V30 1237 H 122.01 1.46286 -5.32264 0
M  V30 1238 H 124.486 2.18983 -3.53816 0
M  V30 1239 H 123.362 3.2569 -4.41834 0
M  V30 1240 H 123.623 3.5018 -2.69864 0
M  V30 1241 N 122.682 1.50554 0.465978 0
M  V30 1242 C 123.93 1.61479 1.21528 0
M  V30 1243 C 124.251 0.319596 1.92363 0
M  V30 1244 O 123.521 -0.663194 1.84333 0
M  V30 1245 H 122.101 0.595055 0.451573 0
M  V30 1246 H 124.763 1.87355 0.53704 0
M  V30 1247 H 123.859 2.42846 1.96042 0
M  V30 1248 N 124.16 -0.719506 1.40217 0
M  V30 1249 C 125.4 -1.49181 1.39729 0
M  V30 1250 C 125.764 -1.92 -0.00250614 0
M  V30 1251 O 126.965 -2.68473 -0.132479 0
M  V30 1252 C 125.236 -2.68767 2.35582 0
M  V30 1253 S 126.795 -3.58224 2.53418 0
M  V30 1254 H 123.613 -0.510091 0.495307 0
M  V30 1255 H 126.215 -0.841724 1.76452 0
M  V30 1256 H 124.919 -2.35475 3.36124 0
M  V30 1257 H 124.45 -3.38691 2.0013 0
M  V30 1258 H 126.465 -4.63033 1.78367 0
M  V30 1259 N 125.638 -1.25649 -0.95132 0
M  V30 1260 C 126.887 -1.09988 -1.69073 0
M  V30 1261 C 127.2 0.358355 -1.92289 0
M  V30 1262 O 128.406 0.635466 -2.63958 0
M  V30 1263 C 126.862 -1.92012 -3.044 0
M  V30 1264 C 126.47 -3.42347 -2.88968 0
M  V30 1265 C 128.214 -1.8493 -3.82101 0
M  V30 1266 C 126.121 -4.16655 -4.19705 0
M  V30 1267 H 125.051 -0.407993 -0.63408 0
M  V30 1268 H 127.702 -1.49873 -1.05879 0
M  V30 1269 H 126.084 -1.44952 -3.68517 0
M  V30 1270 H 127.258 -3.97104 -2.33762 0
M  V30 1271 H 125.573 -3.50557 -2.24719 0
M  V30 1272 H 128.17 -2.37739 -4.78941 0
M  V30 1273 H 128.513 -0.817883 -4.08187 0
M  V30 1274 H 129.046 -2.29758 -3.2474 0
M  V30 1275 H 125.785 -5.20224 -3.98807 0
M  V30 1276 H 125.305 -3.66681 -4.74663 0
M  V30 1277 H 126.984 -4.24551 -4.88227 0
M  V30 1278 N 127.117 1.15442 -1.07289 0
M  V30 1279 C 128.528 1.67803 -0.818475 0
M  V30 1280 C 128.879 1.8489 0.656507 0
M  V30 1281 O 128.004 1.55176 1.50829 0
M  V30 1282 C 128.599 3.04805 -1.47917 0
M  V30 1283 C 127.158 3.54245 -1.27229 0
M  V30 1284 C 126.305 2.29986 -1.54925 0
M  V30 1285 H 129.256 0.996646 -1.23502 0
M  V30 1286 H 129.277 3.69702 -0.90005 0
M  V30 1287 H 128.789 2.92336 -2.55267 0
M  V30 1288 H 126.89 3.71956 -0.21899 0
M  V30 1289 H 127.003 4.35723 -1.99203 0
M  V30 1290 H 125.367 2.35496 -0.970242 0
M  V30 1291 H 126.15 2.20105 -2.63455 0
M  V30 1292 N 128.595 0.856903 1.32268 0
M  V30 1293 C 129.82 0.474569 2.01897 0
M  V30 1294 C 130.245 -0.921766 1.63967 0
M  V30 1295 O 129.603 -1.60589 0.84148 0
M  V30 1296 C 129.651 0.623799 3.55164 0
M  V30 1297 O 128.755 -0.342459 4.10976 0
M  V30 1298 H 128.096 0.190422 0.63611 0
M  V30 1299 H 130.626 1.15672 1.68764 0
M  V30 1300 H 130.636 0.512169 4.04773 0
M  V30 1301 H 129.311 1.64202 3.82113 0
M  V30 1302 H 127.888 -0.18688 3.72431 0
M  V30 1303 N 130.073 -1.45103 0.615059 0
M  V30 1304 C 131.02 -2.30586 -0.0993978 0
M  V30 1305 C 131.99 -1.42544 -0.852669 0
M  V30 1306 O 133.175 -1.71465 -0.836917 0
M  V30 1307 C 130.315 -3.27572 -1.08583 0
M  V30 1308 C 129.428 -4.30717 -0.332656 0
M  V30 1309 C 128.563 -5.14807 -1.30947 0
M  V30 1310 C 127.602 -6.09673 -0.544538 0
M  V30 1311 N 126.739 -6.86517 -1.47101 0
M  V30 1312 H 131.579 -2.91144 0.635542 0
M  V30 1313 H 129.116 -1.4346 0.325206 0
M  V30 1314 H 131.074 -3.82276 -1.67095 0
M  V30 1315 H 129.704 -2.68751 -1.78809 0
M  V30 1316 H 128.756 -3.78615 0.368107 0
M  V30 1317 H 130.068 -4.98102 0.263842 0
M  V30 1318 H 129.222 -5.73948 -1.96643 0
M  V30 1319 H 127.961 -4.47458 -1.9399 0
M  V30 1320 H 126.966 -5.49656 0.126003 0
M  V30 1321 H 128.191 -6.79052 0.080947 0
M  V30 1322 H 126.137 -6.21851 -2.08895 0
M  V30 1323 H 126.054 -7.50281 -0.928137 0
M  V30 1324 H 127.322 -7.50194 -2.11731 0
M  V30 1325 N 131.551 -0.354651 -1.53558 0
M  V30 1326 C 132.514 0.484566 -2.24019 0
M  V30 1327 C 133.514 1.01861 -1.24422 0
M  V30 1328 O 134.704 0.906097 -1.4878 0
M  V30 1329 C 131.836 1.67615 -2.96847 0
M  V30 1330 H 133.029 -0.131843 -2.9961 0
M  V30 1331 H 130.582 -0.106165 -1.55939 0
M  V30 1332 H 131.317 2.33095 -2.25471 0
M  V30 1333 H 131.102 1.30029 -3.69912 0
M  V30 1334 H 132.592 2.27114 -3.50441 0
M  V30 1335 N 133.029 1.57378 -0.0835403 0
M  V30 1336 C 133.959 2.1641 0.87686 0
M  V30 1337 C 134.94 1.09429 1.30228 0
M  V30 1338 O 136.125 1.37516 1.37124 0
M  V30 1339 C 133.255 2.73517 2.14022 0
M  V30 1340 C 132.209 3.85769 1.85381 0
M  V30 1341 C 131.535 4.29529 3.18448 0
M  V30 1342 C 132.835 5.09486 1.14984 0
M  V30 1343 H 134.529 2.96914 0.385059 0
M  V30 1344 H 132.075 1.42823 0.18377 0
M  V30 1345 H 134.028 3.13463 2.81636 0
M  V30 1346 H 132.752 1.90252 2.65465 0
M  V30 1347 H 131.411 3.46345 1.20169 0
M  V30 1348 H 131.059 3.43169 3.67755 0
M  V30 1349 H 130.759 5.05204 3.00071 0
M  V30 1350 H 132.283 4.72099 3.8724 0
M  V30 1351 H 133.697 5.46674 1.72687 0
M  V30 1352 H 132.094 5.90515 1.06826 0
M  V30 1353 H 133.164 4.84724 0.130749 0
M  V30 1354 N 134.507 -0.190092 1.56449 0
M  V30 1355 C 135.437 -1.23816 1.97969 0
M  V30 1356 C 136.418 -1.47201 0.852395 0
M  V30 1357 O 137.603 -1.58854 1.1171 0
M  V30 1358 C 134.733 -2.5813 2.3235 0
M  V30 1359 C 133.687 -2.49348 3.47864 0
M  V30 1360 C 133.013 -3.8798 3.67934 0
M  V30 1361 C 134.313 -2.01424 4.81898 0
M  V30 1362 H 136.007 -0.89311 2.85769 0
M  V30 1363 H 133.553 -0.428177 1.37487 0
M  V30 1364 H 135.506 -3.31637 2.59991 0
M  V30 1365 H 134.23 -2.94386 1.41438 0
M  V30 1366 H 132.889 -1.78297 3.20321 0
M  V30 1367 H 132.537 -4.21597 2.74344 0
M  V30 1368 H 132.237 -3.82978 4.45648 0
M  V30 1369 H 133.761 -4.63101 3.97957 0
M  V30 1370 H 135.175 -2.64693 5.08538 0
M  V30 1371 H 133.572 -2.07413 5.63116 0
M  V30 1372 H 134.642 -0.967677 4.75146 0
M  V30 1373 N 135.985 -1.50799 -0.457987 0
M  V30 1374 C 136.933 -1.71162 -1.575 0
M  V30 1375 C 137.927 -0.577592 -1.59249 0
M  V30 1376 O 139.133 -0.758443 -1.63241 0
M  V30 1377 H 135.508 -0.540468 -0.522875 0
M  V30 1378 H 137.479 -2.64837 -1.37492 0
M  V30 1379 C 136.228 -1.83496 -2.95338 0
M  V30 1380 H 135.551 -2.70153 -2.94716 0
M  V30 1381 H 136.991 -2.01765 -3.72917 0
M  V30 1382 C 135.45 -0.589694 -3.31699 0
M  V30 1383 O 135.98 0.265163 -4.00824 0
M  V30 1384 N 134.186 -0.439845 -2.87252 0
M  V30 1385 H 133.733 -1.13655 -2.31172 0
M  V30 1386 H 133.691 0.392159 -3.11945 0
M  V30 1387 N 137.463 0.71206 -1.40597 0
M  V30 1388 C 138.411 1.84746 -1.41321 0
M  V30 1389 C 139.405 1.66842 -0.293268 0
M  V30 1390 O 140.611 1.73904 -0.464481 0
M  V30 1391 H 136.986 0.608522 -0.441819 0
M  V30 1392 H 138.957 1.81252 -2.37045 0
M  V30 1393 C 137.706 3.22638 -1.29614 0
M  V30 1394 H 137.029 3.37023 -2.15071 0
M  V30 1395 H 138.469 4.02209 -1.3418 0
M  V30 1396 C 136.928 3.36899 -0.00673121 0
M  V30 1397 O 137.458 3.90186 0.954859 0
M  V30 1398 N 135.664 2.9053 0.0639327 0
M  V30 1399 H 135.211 2.47353 -0.719311 0
M  V30 1400 H 135.169 3.0045 0.926118 0
M  V30 1401 N 138.941 1.26152 0.944643 0
M  V30 1402 C 140.166 1.14363 1.7302 0
M  V30 1403 C 140.591 -0.29772 1.85729 0
M  V30 1404 O 139.949 -1.2157 1.34501 0
M  V30 1405 C 139.997 1.81378 3.11664 0
M  V30 1406 O 139.101 1.10022 3.97453 0
M  V30 1407 H 138.442 0.398694 0.53098 0
M  V30 1408 H 140.972 1.66906 1.18337 0
M  V30 1409 H 140.982 1.88064 3.62072 0
M  V30 1410 H 139.657 2.86237 3.0173 0
M  V30 1411 H 138.234 1.11287 3.55907 0
M  V30 1412 N 140.419 -1.14872 1.07899 0
M  V30 1413 C 141.369 -2.17809 0.674027 0
M  V30 1414 C 142.353 -1.58008 -0.303699 0
M  V30 1415 O 143.545 -1.76616 -0.11654 0
M  V30 1416 C 140.674 -3.43208 0.0793318 0
M  V30 1417 C 139.76 -4.10051 1.08253 0
M  V30 1418 N 140.151 -4.52296 2.2641 0
M  V30 1419 C 138.449 -4.36469 0.917124 0
M  V30 1420 C 139.15 -5.04199 2.901 0
M  V30 1421 N 138.126 -4.98088 2.17736 0
M  V30 1422 H 141.928 -2.48207 1.57386 0
M  V30 1423 H 139.442 -1.315 0.952976 0
M  V30 1424 H 141.439 -4.16272 -0.228719 0
M  V30 1425 H 140.099 -3.14291 -0.815551 0
M  V30 1426 H 141.11 -4.45504 2.64096 0
M  V30 1427 H 137.787 -4.17432 0.0756078 0
M  V30 1428 H 139.177 -5.46802 3.90458 0
M  V30 1429 N 141.898 -0.863906 -1.31812 0
M  V30 1430 C 143.128 -0.485406 -2.00817 0
M  V30 1431 C 143.536 0.925007 -1.65046 0
M  V30 1432 O 142.879 1.61653 -0.872574 0
M  V30 1433 C 142.941 -0.555589 -3.55181 0
M  V30 1434 C 142.605 -1.92654 -4.14407 0
M  V30 1435 C 143.602 -2.89324 -4.31958 0
M  V30 1436 C 141.287 -2.2262 -4.50273 0
M  V30 1437 C 143.281 -4.14108 -4.84555 0
M  V30 1438 C 140.968 -3.47654 -5.02573 0
M  V30 1439 C 141.966 -4.43214 -5.19664 0
M  V30 1440 O 141.654 -5.66033 -5.70843 0
M  V30 1441 H 141.386 -0.188224 -0.649267 0
M  V30 1442 H 143.94 -1.16514 -1.69156 0
M  V30 1443 H 142.17 0.181037 -3.86276 0
M  V30 1444 H 143.859 -0.19138 -4.05449 0
M  V30 1445 H 144.625 -2.6748 -4.04573 0
M  V30 1446 H 140.504 -1.4902 -4.3625 0
M  V30 1447 H 144.048 -4.88703 -4.9781 0
M  V30 1448 H 139.945 -3.69345 -5.29391 0
M  V30 1449 H 140.713 -5.6812 -5.89222 0
M  V30 1450 N 143.376 1.44774 -0.622745 0
M  V30 1451 C 144.606 2.06187 -0.130532 0
M  V30 1452 C 145.014 1.46547 1.19669 0
M  V30 1453 O 144.357 0.579636 1.74316 0
M  V30 1454 C 144.419 3.59437 0.0674983 0
M  V30 1455 C 144.083 4.41496 -1.18026 0
M  V30 1456 C 145.08 4.75512 -2.102 0
M  V30 1457 C 142.765 4.82007 -1.41333 0
M  V30 1458 C 144.759 5.48912 -3.23998 0
M  V30 1459 C 142.446 5.55157 -2.55429 0
M  V30 1460 C 143.444 5.88528 -3.46589 0
M  V30 1461 O 143.132 6.60191 -4.58697 0
M  V30 1462 H 142.864 0.672045 -0.0730162 0
M  V30 1463 H 145.418 1.86768 -0.854802 0
M  V30 1464 H 143.648 3.77314 0.846825 0
M  V30 1465 H 145.337 4.02642 0.513209 0
M  V30 1466 H 146.103 4.4476 -1.93425 0
M  V30 1467 H 141.982 4.55457 -0.712709 0
M  V30 1468 H 145.526 5.74877 -3.95174 0
M  V30 1469 H 141.423 5.85324 -2.72151 0
M  V30 1470 H 142.191 6.78654 -4.57571 0
M  V30 1471 N 144.854 0.36279 1.53368 0
M  V30 1472 C 145.804 -0.501391 2.22419 0
M  V30 1473 C 146.788 -1.0509 1.2184 0
M  V30 1474 O 147.98 -0.981404 1.47301 0
M  V30 1475 C 145.109 -1.64201 3.01484 0
M  V30 1476 C 144.195 -1.10552 4.09438 0
M  V30 1477 N 144.586 -0.291788 5.04958 0
M  V30 1478 C 142.884 -1.3806 4.24094 0
M  V30 1479 C 143.585 0.00162655 5.817 0
M  V30 1480 N 142.561 -0.595244 5.40331 0
M  V30 1481 H 146.363 0.127159 2.93625 0
M  V30 1482 H 143.877 0.170658 1.61501 0
M  V30 1483 H 145.874 -2.27326 3.49469 0
M  V30 1484 H 144.534 -2.27365 2.31809 0
M  V30 1485 H 145.545 0.0687731 5.17854 0
M  V30 1486 H 142.222 -2.01522 3.65644 0
M  V30 1487 H 143.612 0.659278 6.68658 0
M  V30 1488 N 146.332 -1.57332 0.0918853 0
M  V30 1489 C 147.265 -2.09499 -0.904735 0
M  V30 1490 C 148.243 -1.00479 -1.27839 0
M  V30 1491 O 149.427 -1.27954 -1.38419 0
M  V30 1492 C 146.554 -2.56931 -2.2069 0
M  V30 1493 C 145.6 -3.77579 -1.98334 0
M  V30 1494 S 146.433 -5.21317 -1.22428 0
M  V30 1495 C 147.589 -5.72097 -2.53882 0
M  V30 1496 H 147.822 -2.93705 -0.460922 0
M  V30 1497 H 145.355 -1.53923 -0.121332 0
M  V30 1498 H 147.313 -2.84917 -2.95521 0
M  V30 1499 H 145.974 -1.72956 -2.62192 0
M  V30 1500 H 145.167 -4.08824 -2.94752 0
M  V30 1501 H 144.769 -3.5007 -1.31633 0
M  V30 1502 H 147.061 -5.80168 -3.49874 0
M  V30 1503 H 148.004 -6.70654 -2.27219 0
M  V30 1504 H 148.412 -5.00012 -2.62007 0
M  V30 1505 N 147.81 0.181792 -1.56548 0
M  V30 1506 C 148.773 1.20894 -1.94724 0
M  V30 1507 C 149.773 1.37738 -0.829747 0
M  V30 1508 O 150.963 1.35323 -1.09697 0
M  V30 1509 C 148.095 2.57593 -2.23291 0
M  V30 1510 H 149.288 0.882275 -2.86629 0
M  V30 1511 H 146.841 0.423838 -1.50444 0
M  V30 1512 H 147.576 2.95291 -1.34067 0
M  V30 1513 H 147.361 2.46735 -3.04736 0
M  V30 1514 H 148.851 3.31637 -2.53785 0
M  V30 1515 N 149.288 1.51039 0.449983 0
M  V30 1516 C 150.238 1.67824 1.54335 0
M  V30 1517 C 151.222 0.5324 1.51836 0
M  V30 1518 O 152.414 0.787762 1.58503 0
M  V30 1519 C 149.543 1.7951 2.92628 0
M  V30 1520 C 148.629 2.99838 2.9993 0
M  V30 1521 N 149.02 4.23207 2.77001 0
M  V30 1522 C 147.318 2.98832 3.31082 0
M  V30 1523 C 148.019 5.04361 2.89818 0
M  V30 1524 N 146.995 4.38746 3.2094 0
M  V30 1525 H 150.797 2.60884 1.35339 0
M  V30 1526 H 148.311 1.48513 0.657085 0
M  V30 1527 H 150.308 1.89642 3.7127 0
M  V30 1528 H 148.968 0.876227 3.12654 0
M  V30 1529 H 149.979 4.5236 2.52172 0
M  V30 1530 H 146.656 2.16527 3.56963 0
M  V30 1531 H 148.046 6.12528 2.76151 0
M  V30 1532 N 150.766 -0.704594 1.40972 0
M  V30 1533 C 152.014 -1.46169 1.39568 0
M  V30 1534 C 152.335 -1.95 0.00253745 0
M  V30 1535 O 151.605 -1.71095 -0.954114 0
M  V30 1536 H 150.185 -0.542326 0.513704 0
M  V30 1537 H 152.847 -0.834553 1.76128 0
M  V30 1538 H 151.943 -2.32922 2.07735 0
M  V30 1539 N 152.244 -1.26651 -0.937939 0
M  V30 1540 C 153.191 -1.0849 -2.03712 0
M  V30 1541 C 154.161 0.011033 -1.66096 0
M  V30 1542 O 155.346 -0.149353 -1.90215 0
M  V30 1543 C 152.486 -0.72735 -3.37348 0
M  V30 1544 C 151.599 -1.89986 -3.87981 0
M  V30 1545 C 150.734 -1.48513 -5.10017 0
M  V30 1546 C 149.773 -2.62575 -5.5292 0
M  V30 1547 N 148.91 -2.21762 -6.66158 0
M  V30 1548 H 153.75 -2.02551 -2.18579 0
M  V30 1549 H 151.287 -1.00844 -1.07093 0
M  V30 1550 H 153.245 -0.50092 -4.14182 0
M  V30 1551 H 151.875 0.176298 -3.22318 0
M  V30 1552 H 150.927 -2.23913 -3.07518 0
M  V30 1553 H 152.239 -2.75586 -4.15757 0
M  V30 1554 H 151.393 -1.21934 -5.94321 0
M  V30 1555 H 150.132 -0.60009 -4.83994 0
M  V30 1556 H 149.137 -2.8988 -4.67172 0
M  V30 1557 H 150.362 -3.51685 -5.80943 0
M  V30 1558 H 148.308 -1.35696 -6.41812 0
M  V30 1559 H 148.225 -3.00903 -6.93537 0
M  V30 1560 H 149.493 -1.98403 -7.53828 0
M  V30 1561 N 153.722 1.14298 -1.08507 0
M  V30 1562 C 154.999 1.81544 -0.728088 0
M  V30 1563 C 155.379 1.95838 0.78808 0
M  V30 1564 O 154.727 1.51904 1.70697 0
M  V30 1565 C 154.937 3.17169 -1.45619 0
M  V30 1566 C 156.285 3.9265 -1.61591 0
M  V30 1567 O 157.309 3.26762 -1.41793 0
M  V30 1568 O 156.168 5.10807 -1.94263 0
M  V30 1569 H 153.262 0.78491 -0.260471 0
M  V30 1570 H 155.808 1.21307 -1.18671 0
M  V30 1571 H 154.58 3.01934 -2.489 0
M  V30 1572 H 154.203 3.851 -0.989124 0
M  V30 1573 N 155.201 0.870884 1.31352 0
M  V30 1574 C 156.448 0.482273 1.96673 0
M  V30 1575 C 156.776 -0.965638 1.68836 0
M  V30 1576 O 156.031 -1.69514 0.977937 0
M  V30 1577 C 156.33 0.687157 3.50732 0
M  V30 1578 C 155.996 2.108 3.9859 0
M  V30 1579 C 154.658 2.49656 4.1137 0
M  V30 1580 C 157.01 3.03459 4.23748 0
M  V30 1581 C 154.338 3.80412 4.46659 0
M  V30 1582 C 156.69 4.3373 4.60501 0
M  V30 1583 C 155.354 4.725 4.71487 0
M  V30 1584 H 154.624 0.176476 0.719679 0
M  V30 1585 H 157.271 1.10405 1.56471 0
M  V30 1586 H 155.576 -0.0177476 3.91796 0
M  V30 1587 H 157.273 0.366284 3.99324 0
M  V30 1588 H 153.863 1.79633 3.8914 0
M  V30 1589 H 158.047 2.74665 4.13368 0
M  V30 1590 H 153.303 4.1021 4.53362 0
M  V30 1591 H 157.477 5.05578 4.78919 0
M  V30 1592 H 155.104 5.73859 4.98588 0
M  V30 1593 N 156.679 -1.44442 0.630414 0
M  V30 1594 C 157.642 -2.29107 -0.0652523 0
M  V30 1595 C 158.642 -1.41002 -0.772995 0
M  V30 1596 O 159.832 -1.62881 -0.617692 0
M  V30 1597 C 156.964 -3.22564 -1.10296 0
M  V30 1598 H 158.157 -2.92103 0.679401 0
M  V30 1599 H 155.71 -1.51343 0.390517 0
M  V30 1600 H 156.445 -2.64416 -1.87762 0
M  V30 1601 H 156.23 -3.87491 -0.59941 0
M  V30 1602 H 157.72 -3.86167 -1.5895 0
M  V30 1603 N 158.157 -0.370918 -1.53173 0
M  V30 1604 C 159.382 0.220293 -2.06227 0
M  V30 1605 C 159.807 1.41243 -1.24225 0
M  V30 1606 O 159.165 1.79387 -0.262645 0
M  V30 1607 C 159.213 0.586663 -3.55796 0
M  V30 1608 O 158.317 1.68317 -3.76488 0
M  V30 1609 H 157.658 0.0308099 -0.663285 0
M  V30 1610 H 160.188 -0.533068 -1.97534 0
M  V30 1611 H 160.198 0.85617 -3.98916 0
M  V30 1612 H 158.873 -0.285013 -4.14922 0
M  V30 1613 H 157.45 1.40881 -3.45264 0
M  V30 1614 N 159.635 1.57281 -0.100228 0
M  V30 1615 C 161.051 1.57527 0.256416 0
M  V30 1616 C 161.251 1.11173 1.68056 0
M  V30 1617 O 160.307 0.79053 2.39806 0
M  V30 1618 C 161.62 3.00673 0.0401747 0
M  V30 1619 C 163.168 3.12815 0.107528 0
M  V30 1620 C 163.643 4.57929 -0.0807834 0
M  V30 1621 N 165.134 4.63193 -0.0261207 0
M  V30 1622 C 165.869 5.73212 -0.146999 0
M  V30 1623 N 165.365 6.92047 -0.322999 0
M  V30 1624 N 167.158 5.62031 -0.0879044 0
M  V30 1625 H 159.309 1.85718 -1.03065 0
M  V30 1626 H 161.572 0.857446 -0.404339 0
M  V30 1627 H 161.278 3.38804 -0.943649 0
M  V30 1628 H 161.152 3.69042 0.780262 0
M  V30 1629 H 163.539 2.74554 1.08186 0
M  V30 1630 H 163.62 2.47028 -0.664134 0
M  V30 1631 H 163.264 4.96886 -1.05201 0
M  V30 1632 H 163.194 5.21783 0.710635 0
M  V30 1633 H 165.685 3.77748 0.107161 0
M  V30 1634 H 165.998 7.7173 -0.406608 0
M  V30 1635 H 164.343 6.94074 -0.358733 0
M  V30 1636 H 167.534 4.68075 0.048498 0
M  V30 1637 H 167.707 6.47734 -0.185557 0
M  V30 1638 N 161.113 -0.173488 1.56642 0
M  V30 1639 C 162.361 -0.888706 1.81512 0
M  V30 1640 C 162.682 -1.82875 0.676872 0
M  V30 1641 O 161.952 -1.93536 -0.303414 0
M  V30 1642 H 160.532 -0.331164 0.669582 0
M  V30 1643 H 163.194 -0.173823 1.94123 0
M  V30 1644 H 162.29 -1.46691 2.75478 0
M  V30 1645 N 162.591 -1.51276 -0.441967 0
M  V30 1646 C 163.84 -1.6295 -1.18871 0
M  V30 1647 C 164.153 -0.349312 -1.92456 0
M  V30 1648 O 165.359 -0.345355 -2.69295 0
M  V30 1649 C 163.815 -2.87759 -2.16155 0
M  V30 1650 C 163.423 -4.22764 -1.48239 0
M  V30 1651 C 165.167 -3.08788 -2.91291 0
M  V30 1652 C 163.074 -5.38728 -2.4398 0
M  V30 1653 H 162.004 -0.606913 -0.447406 0
M  V30 1654 H 164.655 -1.77739 -0.456205 0
M  V30 1655 H 163.037 -2.66593 -2.92821 0
M  V30 1656 H 164.211 -4.54293 -0.771635 0
M  V30 1657 H 162.526 -4.07575 -0.852741 0
M  V30 1658 H 165.123 -3.92599 -3.63002 0
M  V30 1659 H 165.466 -2.21679 -3.5237 0
M  V30 1660 H 165.999 -3.30272 -2.21733 0
M  V30 1661 H 162.738 -6.28082 -1.87598 0
M  V30 1662 H 162.258 -5.1158 -3.13123 0
M  V30 1663 H 163.937 -5.70489 -3.05207 0
M  V30 1664 N 164.069 0.697108 -1.41344 0
M  V30 1665 C 164.979 1.84088 -1.45427 0
M  V30 1666 C 165.995 1.70545 -0.34501 0
M  V30 1667 O 167.171 1.92488 -0.592492 0
M  V30 1668 C 164.236 3.20056 -1.33286 0
M  V30 1669 C 163.297 3.45718 -2.54514 0
M  V30 1670 C 162.53 4.75199 -2.42944 0
M  V30 1671 O 162.753 5.51579 -1.45318 0
M  V30 1672 O 161.687 5.0161 -3.32672 0
M  V30 1673 H 165.513 1.836 -2.41919 0
M  V30 1674 H 163.098 0.849966 -1.22866 0
M  V30 1675 H 164.98 4.01236 -1.28794 0
M  V30 1676 H 163.655 3.2123 -0.39909 0
M  V30 1677 H 162.562 2.64474 -2.64583 0
M  V30 1678 H 163.895 3.49356 -3.46715 0
M  V30 1679 N 165.547 1.27147 0.931209 0
M  V30 1680 C 166.48 1.0389 2.0318 0
M  V30 1681 C 167.458 -0.0395716 1.62552 0
M  V30 1682 O 168.642 0.104867 1.88208 0
M  V30 1683 C 165.769 0.575227 3.3378 0
M  V30 1684 C 164.815 1.64774 3.93385 0
M  V30 1685 S 165.648 3.23933 4.26413 0
M  V30 1686 C 166.804 2.79358 5.60098 0
M  V30 1687 H 167.037 1.97075 2.22596 0
M  V30 1688 H 164.57 1.10938 1.07387 0
M  V30 1689 H 166.528 0.314385 4.09294 0
M  V30 1690 H 165.189 -0.336505 3.12292 0
M  V30 1691 H 164.382 1.27454 4.87618 0
M  V30 1692 H 163.984 1.86048 3.24441 0
M  V30 1693 H 166.276 2.24443 6.39243 0
M  V30 1694 H 167.219 3.72322 6.02314 0
M  V30 1695 H 167.627 2.1861 5.20452 0
M  V30 1696 N 167.025 -1.13721 1.09112 0
M  V30 1697 C 168.25 -1.89314 0.847053 0
M  V30 1698 C 168.675 -1.78416 -0.595774 0
M  V30 1699 O 168.033 -1.12942 -1.41823 0
M  V30 1700 C 168.081 -3.3701 1.28284 0
M  V30 1701 O 167.185 -4.10054 0.439267 0
M  V30 1702 H 166.526 -0.588745 0.307044 0
M  V30 1703 H 169.056 -1.43902 1.45442 0
M  V30 1704 H 169.066 -3.87834 1.26683 0
M  V30 1705 H 167.741 -3.4426 2.33363 0
M  V30 1706 H 166.318 -3.69266 0.519312 0
M  V30 1707 N 168.503 -0.877838 -1.30888 0
M  V30 1708 C 169.413 -0.343096 -2.32078 0
M  V30 1709 C 170.429 0.551022 -1.65045 0
M  V30 1710 O 171.605 0.445854 -1.96403 0
M  V30 1711 C 168.67 0.439905 -3.43898 0
M  V30 1712 C 167.731 -0.483111 -4.26573 0
M  V30 1713 C 166.964 0.262616 -5.33053 0
M  V30 1714 O 167.187 1.48967 -5.50604 0
M  V30 1715 O 166.121 -0.383593 -6.00676 0
M  V30 1716 H 169.947 -1.18203 -2.79753 0
M  V30 1717 H 167.532 -0.64145 -1.34929 0
M  V30 1718 H 169.414 0.883504 -4.12034 0
M  V30 1719 H 168.089 1.25526 -2.98371 0
M  V30 1720 H 166.996 -0.975374 -3.61161 0
M  V30 1721 H 168.329 -1.26427 -4.75686 0
M  V30 1722 N 169.982 1.44106 -0.638065 0
M  V30 1723 C 171.228 2.02277 -0.145546 0
M  V30 1724 C 171.561 1.50125 1.23191 0
M  V30 1725 O 170.836 0.688133 1.8192 0
M  V30 1726 C 171.119 3.59829 -0.139791 0
M  V30 1727 C 170.972 4.22247 -1.55008 0
M  V30 1728 C 172.291 4.36873 0.531966 0
M  V30 1729 H 169.41 0.734992 -0.0543632 0
M  V30 1730 H 172.052 1.71592 -0.815863 0
M  V30 1731 H 170.202 3.86102 0.431007 0
M  V30 1732 H 171.874 4.07057 -2.1703 0
M  V30 1733 H 170.117 3.79476 -2.10191 0
M  V30 1734 H 170.788 5.31284 -1.49804 0
M  V30 1735 H 173.264 4.16074 0.0464781 0
M  V30 1736 H 172.14 5.4657 0.505206 0
M  V30 1737 H 172.401 4.11995 1.60352 0
M  V30 1738 N 171.46 0.379036 1.52974 0
M  V30 1739 C 172.876 0.0285448 1.59574 0
M  V30 1740 C 173.076 -1.45542 1.39355 0
M  V30 1741 O 172.132 -2.2187 1.20541 0
M  V30 1742 C 173.445 0.496535 2.96572 0
M  V30 1743 C 174.993 0.451909 3.0972 0
M  V30 1744 C 175.468 0.895924 4.49152 0
M  V30 1745 N 176.959 0.851522 4.55306 0
M  V30 1746 C 177.694 1.16661 5.61407 0
M  V30 1747 N 177.19 1.55166 6.752 0
M  V30 1748 N 178.983 1.08853 5.51459 0
M  V30 1749 H 171.134 1.34525 1.64367 0
M  V30 1750 H 173.397 0.550733 0.771619 0
M  V30 1751 H 173.103 1.53258 3.16552 0
M  V30 1752 H 172.977 -0.109802 3.7704 0
M  V30 1753 H 175.364 -0.575029 2.89443 0
M  V30 1754 H 175.445 1.09392 2.3123 0
M  V30 1755 H 175.089 1.92104 4.70168 0
M  V30 1756 H 175.019 0.23103 5.26093 0
M  V30 1757 H 177.51 0.568038 3.73606 0
M  V30 1758 H 177.823 1.776 7.52116 0
M  V30 1759 H 176.168 1.59044 6.76557 0
M  V30 1760 H 179.359 0.786803 4.6144 0
M  V30 1761 H 179.532 1.33742 6.34048 0
M  V30 1762 N 172.938 -1.57226 0.108567 0
M  V30 1763 C 173.868 -2.17778 -0.84232 0
M  V30 1764 C 174.849 -1.11487 -1.2847 0
M  V30 1765 O 176.034 -1.39681 -1.34918 0
M  V30 1766 C 173.164 -2.76888 -2.09644 0
M  V30 1767 C 172.118 -3.88669 -1.79221 0
M  V30 1768 C 171.444 -4.34541 -3.11574 0
M  V30 1769 C 172.744 -5.11251 -1.06864 0
M  V30 1770 H 174.438 -2.97489 -0.337774 0
M  V30 1771 H 171.984 -1.43097 -0.161025 0
M  V30 1772 H 173.937 -3.17904 -2.76614 0
M  V30 1773 H 172.661 -1.94451 -2.62405 0
M  V30 1774 H 171.32 -3.48213 -1.14644 0
M  V30 1775 H 170.968 -3.48977 -3.62249 0
M  V30 1776 H 170.668 -5.09914 -2.91996 0
M  V30 1777 H 172.192 -4.782 -3.7968 0
M  V30 1778 H 173.606 -5.49352 -1.63968 0
M  V30 1779 H 172.003 -5.9214 -0.974178 0
M  V30 1780 H 173.073 -4.8487 -0.0536168 0
M  V30 1781 N 174.416 0.165178 -1.56732 0
M  V30 1782 C 175.364 1.22369 -1.97809 0
M  V30 1783 C 176.358 1.45488 -0.867741 0
M  V30 1784 O 177.564 1.45995 -1.05288 0
M  V30 1785 H 173.939 0.411486 -0.629431 0
M  V30 1786 H 175.91 0.850425 -2.86025 0
M  V30 1787 C 174.659 2.55403 -2.35934 0
M  V30 1788 H 173.982 2.38438 -3.20916 0
M  V30 1789 H 175.422 3.2814 -2.68514 0
M  V30 1790 C 173.881 3.14611 -1.20506 0
M  V30 1791 O 174.411 3.98626 -0.496016 0
M  V30 1792 N 172.617 2.7379 -0.97403 0
M  V30 1793 H 172.164 2.0557 -1.55238 0
M  V30 1794 H 172.122 3.1374 -0.203573 0
M  V30 1795 N 175.894 1.51508 0.433938 0
M  V30 1796 C 176.824 1.76016 1.53429 0
M  V30 1797 C 177.805 0.610112 1.58782 0
M  V30 1798 O 178.99 0.853177 1.74455 0
M  V30 1799 C 176.12 1.88831 2.9148 0
M  V30 1800 C 175.074 3.04288 3.00987 0
M  V30 1801 C 174.4 3.0229 4.4105 0
M  V30 1802 C 175.7 4.44193 2.74754 0
M  V30 1803 H 177.394 2.68152 1.33171 0
M  V30 1804 H 174.94 1.29035 0.639214 0
M  V30 1805 H 176.893 2.04559 3.6842 0
M  V30 1806 H 175.617 0.933455 3.12976 0
M  V30 1807 H 174.276 2.8827 2.26486 0
M  V30 1808 H 173.924 2.04576 4.59519 0
M  V30 1809 H 173.624 3.79822 4.4834 0
M  V30 1810 H 175.148 3.20116 5.1996 0
M  V30 1811 H 176.562 4.60544 3.41426 0
M  V30 1812 H 174.959 5.23457 2.9345 0
M  V30 1813 H 176.029 4.53996 1.70339 0
M  V30 1814 N 177.372 -0.689602 1.41712 0
M  V30 1815 C 178.649 -1.44457 1.31877 0
M  V30 1816 C 179.029 -2.11039 -0.0508537 0
M  V30 1817 O 178.377 -2.02138 -1.06547 0
M  V30 1818 C 178.587 -2.45913 2.47645 0
M  V30 1819 C 179.935 -3.10991 2.89084 0
M  V30 1820 O 180.959 -2.56238 2.47428 0
M  V30 1821 O 179.818 -4.10174 3.61137 0
M  V30 1822 H 176.912 -0.64362 0.519309 0
M  V30 1823 H 179.458 -0.719576 1.53689 0
M  V30 1824 H 178.23 -1.95409 3.39015 0
M  V30 1825 H 177.853 -3.25913 2.27742 0
M  V30 1826 N 178.85 -1.27639 -0.924453 0
M  V30 1827 C 179.797 -1.10644 -2.0255 0
M  V30 1828 C 180.767 -0.00658438 -1.66099 0
M  V30 1829 O 181.952 -0.16952 -1.90045 0
M  V30 1830 C 179.092 -0.76309 -3.36557 0
M  V30 1831 C 178.205 -1.94091 -3.85944 0
M  V30 1832 C 177.34 -1.53914 -5.08413 0
M  V30 1833 C 176.379 -2.68425 -5.50104 0
M  V30 1834 N 175.516 -2.28815 -6.63768 0
M  V30 1835 H 180.356 -2.04858 -2.16419 0
M  V30 1836 H 177.893 -1.01974 -1.06017 0
M  V30 1837 H 179.851 -0.544822 -4.13627 0
M  V30 1838 H 178.481 0.142102 -3.22487 0
M  V30 1839 H 177.533 -2.27162 -3.05125 0
M  V30 1840 H 178.845 -2.7998 -4.12811 0
M  V30 1841 H 177.999 -1.28231 -5.92994 0
M  V30 1842 H 176.738 -0.651391 -4.8333 0
M  V30 1843 H 175.743 -2.94819 -4.64071 0
M  V30 1844 H 176.968 -3.57826 -5.7718 0
M  V30 1845 H 174.914 -1.42495 -6.40337 0
M  V30 1846 H 174.831 -3.08242 -6.90306 0
M  V30 1847 H 176.099 -2.06387 -7.51681 0
M  V30 1848 N 180.328 1.1314 -1.09713 0
M  V30 1849 C 181.261 2.17735 -0.683137 0
M  V30 1850 C 182.239 1.59582 0.311841 0
M  V30 1851 O 183.423 1.87298 0.212514 0
M  V30 1852 C 180.55 3.38699 -0.00684324 0
M  V30 1853 C 179.596 4.1546 -0.964102 0
M  V30 1854 S 180.429 4.74733 -2.47767 0
M  V30 1855 C 181.585 5.9904 -1.81387 0
M  V30 1856 H 181.818 2.52515 -1.56918 0
M  V30 1857 H 179.351 1.24484 -0.913404 0
M  V30 1858 H 181.309 4.08765 0.377044 0
M  V30 1859 H 179.97 3.02214 0.85589 0
M  V30 1860 H 179.163 5.02093 -0.43803 0
M  V30 1861 H 178.765 3.51066 -1.28953 0
M  V30 1862 H 181.057 6.67846 -1.13967 0
M  V30 1863 H 182 6.56261 -2.65947 0
M  V30 1864 H 182.408 5.4976 -1.28155 0
M  V30 1865 N 181.806 0.884767 1.30421 0
M  V30 1866 C 182.739 0.295999 2.26272 0
M  V30 1867 C 183.717 -0.58332 1.51777 0
M  V30 1868 O 184.901 -0.53346 1.80794 0
M  V30 1869 C 182.028 -0.57944 3.33707 0
M  V30 1870 C 181.074 0.230525 4.25877 0
M  V30 1871 S 181.907 1.61867 5.1045 0
M  V30 1872 C 183.063 0.749756 6.21393 0
M  V30 1873 H 183.296 1.10848 2.75862 0
M  V30 1874 H 180.829 0.684178 1.38414 0
M  V30 1875 H 182.787 -1.07879 3.96071 0
M  V30 1876 H 181.448 -1.36601 2.82841 0
M  V30 1877 H 180.641 -0.437542 5.02097 0
M  V30 1878 H 180.243 0.662493 3.68086 0
M  V30 1879 H 182.535 -0.0333547 6.77492 0
M  V30 1880 H 183.478 1.48356 6.92384 0
M  V30 1881 H 183.886 0.310751 5.63644 0
M  V30 1882 N 183.284 -1.43765 0.645699 0
M  V30 1883 C 184.194 -2.34544 -0.0512957 0
M  V30 1884 C 185.21 -1.53455 -0.82022 0
M  V30 1885 O 186.386 -1.86133 -0.769176 0
M  V30 1886 C 183.451 -3.31636 -1.01087 0
M  V30 1887 C 182.512 -4.2863 -0.239712 0
M  V30 1888 C 181.745 -5.21084 -1.15358 0
M  V30 1889 O 181.968 -5.1779 -2.39269 0
M  V30 1890 O 180.902 -5.98593 -0.630038 0
M  V30 1891 H 184.728 -2.95624 0.695718 0
M  V30 1892 H 182.313 -1.43781 0.405882 0
M  V30 1893 H 184.195 -3.9136 -1.56254 0
M  V30 1894 H 182.87 -2.73069 -1.73824 0
M  V30 1895 H 181.777 -3.72408 0.355356 0
M  V30 1896 H 183.11 -4.90157 0.447936 0
M  V30 1897 N 184.763 -0.387143 -1.52771 0
M  V30 1898 C 185.695 0.484089 -2.2403 0
M  V30 1899 C 186.708 1.02849 -1.26198 0
M  V30 1900 O 187.897 0.931186 -1.52286 0
M  V30 1901 C 184.997 1.68337 -2.94136 0
M  V30 1902 C 184.17 1.26672 -4.18656 0
M  V30 1903 C 183.229 2.33045 -4.7178 0
M  V30 1904 O 182.255 1.94541 -5.34923 0
M  V30 1905 N 183.457 3.64929 -4.5145 0
M  V30 1906 H 186.222 -0.126404 -2.99433 0
M  V30 1907 H 183.783 -0.213392 -1.60488 0
M  V30 1908 H 185.775 2.39019 -3.26577 0
M  V30 1909 H 184.345 2.20025 -2.22053 0
M  V30 1910 H 183.565 0.388878 -3.92277 0
M  V30 1911 H 184.853 0.964964 -4.99566 0
M  V30 1912 H 184.251 3.98974 -4.01044 0
M  V30 1913 H 182.808 4.31651 -4.88386 0
M  V30 1914 N 186.241 1.57166 -0.116904 0
M  V30 1915 C 187.188 2.15202 0.83408 0
M  V30 1916 C 188.158 1.07644 1.26499 0
M  V30 1917 O 189.343 1.35541 1.34288 0
M  V30 1918 C 186.483 2.75405 2.07957 0
M  V30 1919 C 185.596 3.97264 1.69721 0
M  V30 1920 C 184.731 4.45561 2.89221 0
M  V30 1921 C 183.77 5.59956 2.47215 0
M  V30 1922 N 182.907 6.03006 3.59622 0
M  V30 1923 H 187.747 2.96141 0.332335 0
M  V30 1924 H 185.284 1.46309 0.152349 0
M  V30 1925 H 187.242 3.08439 2.80929 0
M  V30 1926 H 185.872 1.97159 2.55594 0
M  V30 1927 H 184.924 3.70404 0.866316 0
M  V30 1928 H 186.236 4.80226 1.34849 0
M  V30 1929 H 185.39 4.80493 3.7042 0
M  V30 1930 H 184.129 3.61544 3.27318 0
M  V30 1931 H 183.134 5.2463 1.64448 0
M  V30 1932 H 184.359 6.45738 2.10238 0
M  V30 1933 H 182.305 5.21931 3.97396 0
M  V30 1934 H 182.222 6.80819 3.28667 0
M  V30 1935 H 183.49 6.42576 4.41267 0
M  V30 1936 N 187.719 -0.156864 1.56817 0
M  V30 1937 C 188.944 -0.890331 1.87318 0
M  V30 1938 C 189.369 -1.74394 0.704855 0
M  V30 1939 O 188.727 -1.77972 -0.345786 0
M  V30 1940 C 188.775 -1.73102 3.16336 0
M  V30 1941 O 187.879 -2.83422 2.99576 0
M  V30 1942 H 187.22 -0.24857 0.615718 0
M  V30 1943 H 189.75 -0.150649 2.04045 0
M  V30 1944 H 189.76 -2.12803 3.48107 0
M  V30 1945 H 188.435 -1.10412 4.00976 0
M  V30 1946 H 187.012 -2.47199 2.7919 0
M  V30 1947 N 189.197 -1.51736 -0.425897 0
M  V30 1948 C 190.425 -1.68794 -1.1965 0
M  V30 1949 C 190.84 -0.390164 -1.84725 0
M  V30 1950 O 190.197 0.632376 -1.71194 0
M  V30 1951 C 190.248 -2.81174 -2.27208 0
M  V30 1952 O 189.969 -4.05925 -1.64793 0
M  V30 1953 C 191.47 -3.09599 -3.17275 0
M  V30 1954 H 188.69 -0.566128 -0.360194 0
M  V30 1955 H 191.234 -1.98211 -0.503249 0
M  V30 1956 H 189.389 -2.54324 -2.9223 0
M  V30 1957 H 189.803 -4.68423 -2.35967 0
M  V30 1958 H 191.277 -3.91786 -3.88854 0
M  V30 1959 H 191.754 -2.22468 -3.78688 0
M  V30 1960 H 192.36 -3.38151 -2.57941 0
M  V30 1961 N 190.675 0.682077 -1.42076 0
M  V30 1962 C 191.638 1.77756 -1.44691 0
M  V30 1963 C 192.638 1.5726 -0.335535 0
M  V30 1964 O 193.828 1.63686 -0.596037 0
M  V30 1965 C 190.96 3.16301 -1.27146 0
M  V30 1966 H 192.153 1.76826 -2.42224 0
M  V30 1967 H 189.706 0.891012 -1.28416 0
M  V30 1968 H 190.441 3.22862 -0.305075 0
M  V30 1969 H 190.226 3.32581 -2.07683 0
M  V30 1970 H 191.716 3.96241 -1.31843 0
M  V30 1971 N 192.153 1.28127 0.917671 0
M  V30 1972 C 193.399 1.15223 1.66888 0
M  V30 1973 C 193.732 -0.299293 1.9188 0
M  V30 1974 O 193.007 -1.21805 1.51637 0
M  V30 1975 C 193.29 1.94706 3.02922 0
M  V30 1976 C 193.143 3.47898 2.85109 0
M  V30 1977 C 194.462 1.75939 4.03402 0
M  V30 1978 H 191.581 0.419946 0.605652 0
M  V30 1979 H 194.223 1.57398 1.06423 0
M  V30 1980 H 192.373 1.58864 3.54534 0
M  V30 1981 H 194.045 3.93624 2.40537 0
M  V30 1982 H 192.288 3.7373 2.20246 0
M  V30 1983 H 192.959 3.98765 3.81694 0
M  V30 1984 H 195.435 2.07209 3.60837 0
M  V30 1985 H 194.311 2.33931 4.96556 0
M  V30 1986 H 194.572 0.709877 4.36364 0
M  V30 1987 N 193.631 -1.12557 1.10312 0
M  V30 1988 C 194.578 -2.18247 0.750781 0
M  V30 1989 C 195.548 -1.63853 -0.272293 0
M  V30 1990 O 196.733 -1.90195 -0.151862 0
M  V30 1991 C 193.873 -3.44591 0.187379 0
M  V30 1992 C 192.986 -4.13046 1.2656 0
M  V30 1993 C 192.121 -5.27034 0.663978 0
M  V30 1994 C 191.16 -5.87353 1.72287 0
M  V30 1995 N 190.297 -6.92757 1.1416 0
M  V30 1996 H 195.137 -2.47732 1.65628 0
M  V30 1997 H 192.674 -1.21629 0.827337 0
M  V30 1998 H 194.632 -4.16904 -0.157148 0
M  V30 1999 H 193.262 -3.15527 -0.681355 0
M  V30 2000 H 192.314 -3.38924 1.72727 0
M  V30 2001 H 193.626 -4.53947 2.06721 0
M  V30 2002 H 192.78 -6.06104 0.268824 0
M  V30 2003 H 191.519 -4.87407 -0.169082 0
M  V30 2004 H 190.524 -5.06971 2.12746 0
M  V30 2005 H 191.749 -6.29051 2.55875 0
M  V30 2006 H 189.695 -6.5517 0.329984 0
M  V30 2007 H 189.612 -7.3225 1.88007 0
M  V30 2008 H 190.88 -7.75658 0.772956 0
M  V30 2009 N 195.109 -0.891671 -1.2995 0
M  V30 2010 C 196.072 -0.36828 -2.26222 0
M  V30 2011 C 197.072 0.493014 -1.53056 0
M  V30 2012 O 198.262 0.299213 -1.71611 0
M  V30 2013 C 195.394 0.47442 -3.37583 0
M  V30 2014 H 196.587 -1.21844 -2.74033 0
M  V30 2015 H 194.14 -0.669107 -1.41254 0
M  V30 2016 H 194.875 1.34489 -2.95099 0
M  V30 2017 H 194.66 -0.142615 -3.91841 0
M  V30 2018 H 196.15 0.83218 -4.09224 0
M  V30 2019 N 196.587 1.43421 -0.653314 0
M  V30 2020 C 197.517 2.33487 0.0246656 0
M  V30 2021 C 198.498 1.49475 0.811863 0
M  V30 2022 O 199.683 1.78139 0.773322 0
M  V30 2023 C 196.813 3.32841 0.99166 0
M  V30 2024 C 195.767 4.26842 0.314568 0
M  V30 2025 C 195.093 5.16236 1.39302 0
M  V30 2026 C 196.393 5.16243 -0.793095 0
M  V30 2027 H 198.087 2.90427 -0.727481 0
M  V30 2028 H 195.633 1.39649 -0.351287 0
M  V30 2029 H 197.586 3.94747 1.47487 0
M  V30 2030 H 196.31 2.74158 1.77497 0
M  V30 2031 H 194.969 3.663 -0.148199 0
M  V30 2032 H 194.617 4.53891 2.16776 0
M  V30 2033 H 194.317 5.79948 0.945223 0
M  V30 2034 H 195.841 5.81015 1.87759 0
M  V30 2035 H 197.255 5.71958 -0.392039 0
M  V30 2036 H 195.652 5.88676 -1.16536 0
M  V30 2037 H 196.722 4.55927 -1.65103 0
M  V30 2038 N 198.065 0.39524 1.52563 0
M  V30 2039 C 199.293 -0.184943 2.06072 0
M  V30 2040 C 199.708 -1.40021 1.26647 0
M  V30 2041 O 199.065 -1.79767 0.314672 0
M  V30 2042 C 199.116 -0.549179 3.57304 0
M  V30 2043 O 198.837 0.617813 4.33722 0
M  V30 2044 C 200.338 -1.18459 4.2718 0
M  V30 2045 H 197.558 -0.0265025 0.670476 0
M  V30 2046 H 200.102 0.562184 1.96621 0
M  V30 2047 H 198.257 -1.2462 3.66809 0
M  V30 2048 H 198.671 0.317091 5.23541 0
M  V30 2049 H 200.145 -1.38976 5.34219 0
M  V30 2050 H 200.622 -2.15368 3.82771 0
M  V30 2051 H 201.228 -0.528163 4.22008 0
M  V30 2052 N 199.544 -1.57102 0.125237 0
M  V30 2053 C 200.792 -1.95021 -0.530198 0
M  V30 2054 C 201.113 -1.00982 -1.66816 0
M  V30 2055 O 200.383 -0.0672693 -1.95784 0
M  V30 2056 H 198.963 -0.720046 -0.198853 0
M  V30 2057 H 201.625 -1.93916 0.19564 0
M  V30 2058 H 200.721 -2.98211 -0.920681 0
M  V30 2059 N 201.022 0.148545 -1.56898 0
M  V30 2060 C 202.27 0.859717 -1.82902 0
M  V30 2061 C 202.591 1.81775 -0.70588 0
M  V30 2062 O 201.861 1.93994 0.272586 0
M  V30 2063 H 200.441 0.320469 -0.674766 0
M  V30 2064 H 203.103 0.142918 -1.94375 0
M  V30 2065 H 202.199 1.4229 -2.77777 0
M  V30 2066 N 202.5 1.5196 0.417844 0
M  V30 2067 C 203.749 1.6482 1.16264 0
M  V30 2068 C 204.062 0.379886 1.91876 0
M  V30 2069 O 205.268 0.388154 2.68711 0
M  V30 2070 C 203.724 2.91161 2.1155 0
M  V30 2071 C 203.332 4.25068 1.41495 0
M  V30 2072 C 205.076 3.13383 2.86341 0
M  V30 2073 C 202.983 5.42541 2.35379 0
M  V30 2074 H 201.913 0.613954 0.437694 0
M  V30 2075 H 204.564 1.78442 0.427871 0
M  V30 2076 H 202.946 2.71218 2.88543 0
M  V30 2077 H 204.12 4.55463 0.699263 0
M  V30 2078 H 202.435 4.0888 0.787792 0
M  V30 2079 H 205.032 3.98324 3.5671 0
M  V30 2080 H 205.375 2.27256 3.48798 0
M  V30 2081 H 205.908 3.33757 2.1645 0
M  V30 2082 H 202.647 6.30987 1.77582 0
M  V30 2083 H 202.167 5.16497 3.04945 0
M  V30 2084 H 203.846 5.75272 2.96093 0
M  V30 2085 N 203.978 -0.674533 1.42435 0
M  V30 2086 C 204.941 -1.76986 1.45632 0
M  V30 2087 C 205.941 -1.5708 0.343871 0
M  V30 2088 O 207.131 -1.63367 0.604709 0
M  V30 2089 C 204.263 -3.15623 1.28822 0
M  V30 2090 H 205.456 -1.75539 2.43158 0
M  V30 2091 H 203.009 -0.884189 1.28887 0
M  V30 2092 H 203.744 -3.22696 0.322193 0
M  V30 2093 H 203.529 -3.31475 2.09444 0
M  V30 2094 H 205.019 -3.95537 1.33942 0
M  V30 2095 N 205.456 -1.28612 -0.910864 0
M  V30 2096 C 206.406 -1.09423 -2.00026 0
M  V30 2097 C 207.39 -0.0170079 -1.60891 0
M  V30 2098 O 208.582 -0.237472 -1.754 0
M  V30 2099 C 205.711 -0.76114 -3.34756 0
M  V30 2100 C 204.797 -1.87735 -3.80285 0
M  V30 2101 N 205.188 -3.11938 -3.98156 0
M  V30 2102 C 203.486 -1.76786 -4.09467 0
M  V30 2103 C 204.187 -3.84687 -4.36338 0
M  V30 2104 N 203.163 -3.12555 -4.44759 0
M  V30 2105 H 206.965 -2.03658 -2.11898 0
M  V30 2106 H 204.479 -1.19573 -1.09891 0
M  V30 2107 H 206.476 -0.604743 -4.12491 0
M  V30 2108 H 205.136 0.173403 -3.24237 0
M  V30 2109 H 206.147 -3.47516 -3.83996 0
M  V30 2110 H 202.824 -0.905284 -4.07567 0
M  V30 2111 H 204.214 -4.91518 -4.58104 0
M  V30 2112 N 206.934 1.1197 -1.10907 0
M  V30 2113 C 207.864 2.19928 -0.784473 0
M  V30 2114 C 208.845 1.6833 0.244726 0
M  V30 2115 O 210.03 1.93892 0.109418 0
M  V30 2116 C 207.16 3.46597 -0.220827 0
M  V30 2117 C 206.114 4.11376 -1.18127 0
M  V30 2118 C 205.44 5.32554 -0.478594 0
M  V30 2119 C 206.74 4.56945 -2.52979 0
M  V30 2120 H 208.434 2.47337 -1.68715 0
M  V30 2121 H 205.98 1.18879 -0.812642 0
M  V30 2122 H 207.933 4.21396 0.0184278 0
M  V30 2123 H 206.657 3.1863 0.717113 0
M  V30 2124 H 205.316 3.38564 -1.40606 0
M  V30 2125 H 204.964 5.00856 0.463976 0
M  V30 2126 H 204.664 5.76844 -1.11912 0
M  V30 2127 H 206.188 6.10096 -0.248 0
M  V30 2128 H 207.602 5.23093 -2.3462 0
M  V30 2129 H 205.999 5.1203 -3.12962 0
M  V30 2130 H 207.069 3.70676 -3.12614 0
M  V30 2131 N 208.412 0.89855 1.29475 0
M  V30 2132 C 209.659 0.523882 1.95606 0
M  V30 2133 C 209.987 -0.929608 1.70847 0
M  V30 2134 O 209.242 -1.67401 1.01367 0
M  V30 2135 C 209.541 0.761398 3.49195 0
M  V30 2136 C 209.207 2.19207 3.94029 0
M  V30 2137 C 207.869 2.58326 4.05982 0
M  V30 2138 C 210.221 3.12379 4.17216 0
M  V30 2139 C 207.549 3.898 4.38489 0
M  V30 2140 C 209.901 4.43401 4.51197 0
M  V30 2141 C 208.565 4.82394 4.61359 0
M  V30 2142 H 207.835 0.191702 0.715773 0
M  V30 2143 H 210.482 1.13699 1.54094 0
M  V30 2144 H 208.787 0.0653622 3.91745 0
M  V30 2145 H 210.484 0.450904 3.98457 0
M  V30 2146 H 207.074 1.87846 3.85242 0
M  V30 2147 H 211.258 2.83371 4.07449 0
M  V30 2148 H 206.514 4.19734 4.44559 0
M  V30 2149 H 210.688 5.15623 4.68087 0
M  V30 2150 H 208.315 5.84306 4.86303 0
M  V30 2151 N 209.89 -1.43072 0.660911 0
M  V30 2152 C 210.837 -2.30785 -0.0259884 0
M  V30 2153 C 211.807 -1.45184 -0.806888 0
M  V30 2154 O 212.992 -1.74041 -0.781943 0
M  V30 2155 C 210.132 -3.30861 -0.981067 0
M  V30 2156 C 209.245 -4.31558 -0.195458 0
M  V30 2157 C 208.38 -5.18712 -1.14503 0
M  V30 2158 C 207.419 -6.11097 -0.350299 0
M  V30 2159 N 206.556 -6.90849 -1.25186 0
M  V30 2160 H 211.396 -2.88975 0.727846 0
M  V30 2161 H 208.933 -1.42353 0.370682 0
M  V30 2162 H 210.891 -3.87399 -1.54849 0
M  V30 2163 H 209.521 -2.74304 -1.70169 0
M  V30 2164 H 208.573 -3.77252 0.488374 0
M  V30 2165 H 209.885 -4.9701 0.422176 0
M  V30 2166 H 209.039 -5.79914 -1.78284 0
M  V30 2167 H 207.778 -4.53404 -1.79656 0
M  V30 2168 H 206.783 -5.48976 0.300808 0
M  V30 2169 H 208.008 -6.7845 0.296941 0
M  V30 2170 H 205.954 -6.28182 -1.89005 0
M  V30 2171 H 205.871 -7.52854 -0.688971 0
M  V30 2172 H 207.139 -7.5655 -1.87757 0
M  V30 2173 N 211.368 -0.403325 -1.52352 0
M  V30 2174 C 212.3 0.4603 -2.2453 0
M  V30 2175 C 213.313 1.01505 -1.27282 0
M  V30 2176 O 214.502 0.914982 -1.53266 0
M  V30 2177 C 211.602 1.65208 -2.95905 0
M  V30 2178 C 210.775 1.22224 -4.19976 0
M  V30 2179 C 209.834 2.28028 -4.74226 0
M  V30 2180 O 208.86 1.88857 -5.36956 0
M  V30 2181 N 210.062 3.6012 -4.55295 0
M  V30 2182 H 212.827 -0.158156 -2.99282 0
M  V30 2183 H 210.388 -0.230402 -1.60252 0
M  V30 2184 H 212.38 2.35541 -3.29093 0
M  V30 2185 H 210.95 2.17658 -2.24374 0
M  V30 2186 H 210.17 0.34725 -3.92668 0
M  V30 2187 H 211.458 0.911924 -5.00561 0
M  V30 2188 H 210.856 3.94698 -4.05253 0
M  V30 2189 H 209.413 4.26447 -4.92936 0
M  V30 2190 N 212.846 1.57033 -0.133567 0
M  V30 2191 C 213.794 2.17348 0.828412 0
M  V30 2192 C 214.788 1.12671 1.26498 0
M  V30 2193 O 215.994 1.30947 1.23502 0
M  V30 2194 H 212.369 0.695775 0.285309 0
M  V30 2195 H 214.34 2.96935 0.295372 0
M  V30 2196 C 213.089 2.79893 2.06289 0
M  V30 2197 H 212.412 3.60147 1.73592 0
M  V30 2198 H 213.852 3.25615 2.71572 0
M  V30 2199 C 212.311 1.77713 2.86216 0
M  V30 2200 O 212.841 1.23937 3.82103 0
M  V30 2201 N 211.047 1.47321 2.50489 0
M  V30 2202 H 210.594 1.91243 1.7258 0
M  V30 2203 H 210.552 0.79199 3.04261 0
M  V30 2204 N 214.325 -0.140222 1.56975 0
M  V30 2205 C 215.272 -1.17292 1.98774 0
M  V30 2206 C 216.242 -1.4232 0.856408 0
M  V30 2207 O 217.427 -1.54541 1.119 0
M  V30 2208 C 214.567 -2.49973 2.37923 0
M  V30 2209 C 213.68 -2.32062 3.64378 0
M  V30 2210 C 212.815 -3.57825 3.926 0
M  V30 2211 C 211.854 -3.3498 5.12303 0
M  V30 2212 N 210.991 -4.52891 5.36502 0
M  V30 2213 H 215.831 -0.809472 2.86795 0
M  V30 2214 H 213.368 -0.388237 1.41884 0
M  V30 2215 H 215.326 -3.27346 2.58652 0
M  V30 2216 H 213.956 -2.84252 1.52972 0
M  V30 2217 H 213.008 -1.45711 3.51387 0
M  V30 2218 H 214.32 -2.11145 4.51906 0
M  V30 2219 H 213.474 -4.43624 4.13863 0
M  V30 2220 H 212.213 -3.81753 3.03506 0
M  V30 2221 H 211.218 -2.4757 4.90906 0
M  V30 2222 H 212.443 -3.12444 6.02956 0
M  V30 2223 H 210.389 -4.76979 4.50363 0
M  V30 2224 H 210.306 -4.35001 6.18312 0
M  V30 2225 H 211.574 -5.39884 5.62268 0
M  V30 2226 N 215.803 -1.52179 -0.40978 0
M  V30 2227 C 217.049 -1.66453 -1.15851 0
M  V30 2228 C 217.382 -0.392972 -1.90182 0
M  V30 2229 O 216.657 0.608579 -1.84734 0
M  V30 2230 C 216.94 -2.88612 -2.15349 0
M  V30 2231 C 216.793 -4.25815 -1.44918 0
M  V30 2232 C 218.112 -3.06294 -3.16026 0
M  V30 2233 H 215.231 -0.60575 -0.419805 0
M  V30 2234 H 217.873 -1.84732 -0.444314 0
M  V30 2235 H 216.023 -2.73158 -2.76255 0
M  V30 2236 H 217.695 -4.52995 -0.871365 0
M  V30 2237 H 215.938 -4.27247 -0.751159 0
M  V30 2238 H 216.609 -5.07337 -2.17516 0
M  V30 2239 H 219.085 -3.20641 -2.65195 0
M  V30 2240 H 217.961 -3.93283 -3.8291 0
M  V30 2241 H 218.222 -2.19579 -3.83715 0
M  V30 2242 N 217.281 0.66697 -1.42791 0
M  V30 2243 C 218.527 1.4291 -1.43891 0
M  V30 2244 C 218.86 1.94114 -0.0578972 0
M  V30 2245 O 218.135 1.71414 0.91911 0
M  V30 2246 C 218.418 2.62049 -2.46987 0
M  V30 2247 C 218.271 2.16426 -3.94309 0
M  V30 2248 C 219.59 3.64266 -2.46978 0
M  V30 2249 H 216.709 0.518306 -0.523954 0
M  V30 2250 H 219.351 0.757321 -1.74255 0
M  V30 2251 H 217.501 3.19361 -2.21225 0
M  V30 2252 H 219.173 1.64221 -4.31079 0
M  V30 2253 H 217.416 1.47925 -4.078 0
M  V30 2254 H 218.087 3.02038 -4.62036 0
M  V30 2255 H 220.563 3.16686 -2.69906 0
M  V30 2256 H 219.439 4.45196 -3.21079 0
M  V30 2257 H 219.7 4.15927 -1.49857 0
M  V30 2258 N 218.759 1.29093 0.90403 0
M  V30 2259 C 219.709 1.10482 1.99443 0
M  V30 2260 C 220.693 0.0255401 1.6088 0
M  V30 2261 O 221.885 0.24677 1.75271 0
M  V30 2262 C 219.014 0.778882 3.34348 0
M  V30 2263 C 218.1 1.89749 3.79284 0
M  V30 2264 N 218.491 3.14045 3.96497 0
M  V30 2265 C 216.789 1.78955 4.08523 0
M  V30 2266 C 217.49 3.86996 4.34292 0
M  V30 2267 N 216.466 3.14909 4.43095 0
M  V30 2268 H 220.268 2.04778 2.10815 0
M  V30 2269 H 217.782 1.20155 1.09255 0
M  V30 2270 H 219.779 0.62661 4.12164 0
M  V30 2271 H 218.439 -0.156205 3.24324 0
M  V30 2272 H 219.45 3.49548 3.82148 0
M  V30 2273 H 216.127 0.926886 4.07081 0
M  V30 2274 H 217.517 4.93941 4.55491 0
M  V30 2275 N 220.237 -1.11381 1.11499 0
M  V30 2276 C 221.483 -1.83403 0.865512 0
M  V30 2277 C 221.816 -1.84459 -0.607329 0
M  V30 2278 O 221.091 -1.29811 -1.44842 0
M  V30 2279 C 221.374 -3.30552 1.42855 0
M  V30 2280 C 221.227 -3.37886 2.96906 0
M  V30 2281 C 222.546 -4.26643 1.08 0
M  V30 2282 H 219.665 -0.665879 0.31587 0
M  V30 2283 H 222.307 -1.30601 1.37998 0
M  V30 2284 H 220.457 -3.75648 0.990985 0
M  V30 2285 H 222.129 -3.01343 3.49271 0
M  V30 2286 H 220.372 -2.78088 3.32941 0
M  V30 2287 H 221.043 -4.41458 3.31389 0
M  V30 2288 H 223.519 -3.89729 1.45775 0
M  V30 2289 H 222.395 -5.27986 1.50072 0
M  V30 2290 H 222.656 -4.42099 -0.00915037 0
M  V30 2291 N 221.715 -0.905404 -1.28997 0
M  V30 2292 C 222.663 -0.377431 -2.29517 0
M  V30 2293 C 223.657 0.526461 -1.61012 0
M  V30 2294 O 224.863 0.40863 -1.753 0
M  V30 2295 H 221.238 -0.103437 -0.744852 0
M  V30 2296 H 223.209 -1.23848 -2.71485 0
M  V30 2297 C 221.958 0.374833 -3.45674 0
M  V30 2298 H 221.281 -0.311474 -3.98585 0
M  V30 2299 H 222.721 0.70903 -4.1803 0
M  V30 2300 C 221.18 1.57963 -2.97572 0
M  V30 2301 O 221.71 2.67886 -2.99333 0
M  V30 2302 N 219.916 1.42375 -2.53333 0
M  V30 2303 H 219.463 0.529466 -2.521 0
M  V30 2304 H 219.421 2.23117 -2.21509 0
M  V30 2305 N 223.193 1.4272 -0.668489 0
M  V30 2306 C 224.441 2.01226 -0.187769 0
M  V30 2307 C 224.762 1.53092 1.2078 0
M  V30 2308 O 224.032 0.74993 1.80977 0
M  V30 2309 H 222.612 0.744041 -0.0664272 0
M  V30 2310 H 225.274 1.74723 -0.863583 0
M  V30 2311 H 224.37 3.11556 -0.184166 0
M  V30 2312 N 224.671 0.411399 1.52136 0
M  V30 2313 C 225.901 -0.16284 2.05957 0
M  V30 2314 C 226.309 -1.3922 1.28119 0
M  V30 2315 O 225.652 -1.80768 0.326881 0
M  V30 2316 C 225.714 -0.575946 3.54856 0
M  V30 2317 C 225.378 0.542998 4.53763 0
M  V30 2318 C 226.375 1.40726 5.00492 0
M  V30 2319 C 224.06 0.716337 4.97166 0
M  V30 2320 C 226.054 2.4298 5.8927 0
M  V30 2321 C 223.741 1.74218 5.8574 0
M  V30 2322 C 224.739 2.59731 6.31687 0
M  V30 2323 O 224.427 3.60558 7.18507 0
M  V30 2324 H 224.159 -0.0229125 0.675612 0
M  V30 2325 H 226.713 0.581634 1.96993 0
M  V30 2326 H 224.943 -1.37274 3.61515 0
M  V30 2327 H 226.632 -1.07836 3.91313 0
M  V30 2328 H 227.398 1.28476 4.67674 0
M  V30 2329 H 223.277 0.0603857 4.6096 0
M  V30 2330 H 226.821 3.0976 6.25055 0
M  V30 2331 H 222.718 1.86498 6.17971 0
M  V30 2332 H 223.486 3.56829 7.36624 0
M  V30 2333 N 226.149 -1.5696 0.141893 0
M  V30 2334 C 227.397 -1.95573 -0.509484 0
M  V30 2335 C 227.718 -1.02746 -1.65736 0
M  V30 2336 O 226.988 -0.0880311 -1.95702 0
M  V30 2337 H 225.568 -0.722115 -0.191205 0
M  V30 2338 H 228.23 -1.93697 0.216196 0
M  V30 2339 H 227.326 -2.99171 -0.889 0
M  V30 2340 N 227.627 0.131896 -1.57047 0
M  V30 2341 C 228.574 1.16236 -1.99393 0
M  V30 2342 C 229.544 1.41863 -0.863943 0
M  V30 2343 O 230.729 1.53946 -1.12718 0
M  V30 2344 C 227.869 2.48708 -2.39245 0
M  V30 2345 C 226.982 2.30127 -3.65603 0
M  V30 2346 C 226.117 3.55738 -3.94492 0
M  V30 2347 C 225.156 3.32259 -5.14073 0
M  V30 2348 N 224.293 4.50039 -5.38896 0
M  V30 2349 H 229.133 0.794251 -2.87221 0
M  V30 2350 H 226.67 0.380707 -1.42088 0
M  V30 2351 H 228.628 3.25969 -2.60384 0
M  V30 2352 H 227.258 2.83437 -1.54478 0
M  V30 2353 H 226.31 1.43845 -3.52154 0
M  V30 2354 H 227.622 2.08746 -4.5302 0
M  V30 2355 H 226.776 4.41423 -4.1621 0
M  V30 2356 H 225.515 3.80138 -3.05526 0
M  V30 2357 H 224.52 2.44963 -4.92212 0
M  V30 2358 H 225.745 3.09242 -6.04604 0
M  V30 2359 H 223.691 4.74584 -4.52886 0
M  V30 2360 H 223.608 4.31716 -6.2061 0
M  V30 2361 H 224.876 5.36895 -5.65123 0
M  V30 2362 N 229.106 1.52395 0.401703 0
M  V30 2363 C 230.355 1.66044 1.14509 0
M  V30 2364 C 230.668 0.400216 1.91462 0
M  V30 2365 O 231.874 0.416632 2.68284 0
M  V30 2366 C 230.33 2.93388 2.0845 0
M  V30 2367 C 229.938 4.26545 1.36978 0
M  V30 2368 C 231.682 3.16402 2.83001 0
M  V30 2369 C 229.589 5.45007 2.29611 0
M  V30 2370 H 228.519 0.618562 0.431158 0
M  V30 2371 H 231.17 1.78886 0.40892 0
M  V30 2372 H 229.552 2.74263 2.8565 0
M  V30 2373 H 230.726 4.56179 0.650916 0
M  V30 2374 H 229.041 4.09692 0.74438 0
M  V30 2375 H 231.638 4.02085 3.52465 0
M  V30 2376 H 231.981 2.30943 3.46368 0
M  V30 2377 H 232.514 3.36034 2.12898 0
M  V30 2378 H 229.253 6.32835 1.70879 0
M  V30 2379 H 228.773 5.19702 2.9945 0
M  V30 2380 H 230.452 5.7838 2.89974 0
M  V30 2381 N 230.584 -0.659388 1.43143 0
M  V30 2382 C 231.812 -1.44723 1.47861 0
M  V30 2383 C 232.227 -1.88563 0.0945886 0
M  V30 2384 O 231.584 -1.59108 -0.893915 0
M  V30 2385 C 231.635 -2.68627 2.41913 0
M  V30 2386 O 231.356 -2.26623 3.74932 0
M  V30 2387 C 232.857 -3.62045 2.55809 0
M  V30 2388 H 230.077 -0.444801 0.502387 0
M  V30 2389 H 232.621 -0.808916 1.87821 0
M  V30 2390 H 230.776 -3.28613 2.05164 0
M  V30 2391 H 231.19 -3.06745 4.2545 0
M  V30 2392 H 232.664 -4.45666 3.25708 0
M  V30 2393 H 233.141 -4.08981 1.60099 0
M  V30 2394 H 233.747 -3.07944 2.93344 0
M  V30 2395 N 232.062 -1.29571 -0.897171 0
M  V30 2396 C 233.31 -1.17456 -1.64464 0
M  V30 2397 C 233.631 0.273698 -1.9307 0
M  V30 2398 O 232.901 1.18684 -1.55855 0
M  V30 2399 H 231.481 -0.431706 -0.609622 0
M  V30 2400 H 234.143 -1.62531 -1.07562 0
M  V30 2401 H 233.239 -1.72648 -2.59998 0
M  V30 2402 N 233.54 1.10788 -1.12088 0
M  V30 2403 C 234.487 2.17025 -0.785407 0
M  V30 2404 C 235.457 1.64265 0.246191 0
M  V30 2405 O 236.642 1.90412 0.121584 0
M  V30 2406 C 233.782 3.44249 -0.242177 0
M  V30 2407 C 232.895 4.1098 -1.33115 0
M  V30 2408 C 232.03 5.25911 -0.747741 0
M  V30 2409 C 231.069 5.84538 -1.81609 0
M  V30 2410 N 230.206 6.90853 -1.25167 0
M  V30 2411 H 235.046 2.45066 -1.69548 0
M  V30 2412 H 232.583 1.20297 -0.846582 0
M  V30 2413 H 234.541 4.17101 0.0908026 0
M  V30 2414 H 233.171 3.16571 0.631072 0
M  V30 2415 H 232.223 3.36133 -1.78097 0
M  V30 2416 H 233.535 4.50601 -2.13917 0
M  V30 2417 H 232.689 6.056 -0.365216 0
M  V30 2418 H 231.428 4.87614 0.0915188 0
M  V30 2419 H 230.433 5.03522 -2.20785 0
M  V30 2420 H 231.658 6.249 -2.6585 0
M  V30 2421 H 229.604 6.54562 -0.434174 0
M  V30 2422 H 229.521 7.29166 -1.99633 0
M  V30 2423 H 230.789 7.7433 -0.896259 0
M  V30 2424 N 235.018 0.912232 1.28515 0
M  V30 2425 C 235.966 0.389597 2.29314 0
M  V30 2426 C 236.96 -0.517915 1.61289 0
M  V30 2427 O 238.166 -0.399328 1.75515 0
M  V30 2428 H 234.541 0.107386 0.744293 0
M  V30 2429 H 236.512 1.25286 2.70825 0
M  V30 2430 C 235.261 -0.356496 3.45868 0
M  V30 2431 H 234.584 0.332608 3.98414 0
M  V30 2432 H 236.024 -0.686851 4.184 0
M  V30 2433 C 234.483 -1.56383 2.98406 0
M  V30 2434 O 235.013 -2.66294 3.00749 0
M  V30 2435 N 233.219 -1.41029 2.54085 0
M  V30 2436 H 232.766 -0.516089 2.52377 0
M  V30 2437 H 232.724 -2.21939 2.22689 0
M  V30 2438 N 236.496 -1.42363 0.676048 0
M  V30 2439 C 237.428 -2.29164 -0.0404605 0
M  V30 2440 C 238.441 -1.43747 -0.764245 0
M  V30 2441 O 239.63 -1.67453 -0.618195 0
M  V30 2442 C 236.73 -3.21196 -1.08103 0
M  V30 2443 C 235.903 -4.35273 -0.430812 0
M  V30 2444 C 234.962 -5.08017 -1.37133 0
M  V30 2445 O 233.988 -5.62494 -0.87116 0
M  V30 2446 N 235.19 -5.13647 -2.70456 0
M  V30 2447 H 237.955 -2.91298 0.704667 0
M  V30 2448 H 235.516 -1.53303 0.520559 0
M  V30 2449 H 237.508 -3.66728 -1.71152 0
M  V30 2450 H 236.078 -2.60505 -1.72788 0
M  V30 2451 H 235.298 -3.92372 0.379209 0
M  V30 2452 H 236.586 -5.08795 0.0221132 0
M  V30 2453 H 235.984 -4.708 -3.1363 0
M  V30 2454 H 234.541 -5.62821 -3.28749 0
M  V30 2455 N 237.974 -0.419461 -1.51915 0
M  V30 2456 C 239.22 0.153166 -2.02221 0
M  V30 2457 C 239.553 1.43907 -1.30401 0
M  V30 2458 O 238.828 1.90055 -0.413438 0
M  V30 2459 C 239.111 0.390291 -3.57979 0
M  V30 2460 C 238.964 -0.913014 -4.40436 0
M  V30 2461 C 240.283 1.16794 -4.2432 0
M  V30 2462 H 237.402 0.0541924 -0.735005 0
M  V30 2463 H 240.044 -0.554955 -1.81715 0
M  V30 2464 H 238.194 0.993491 -3.75582 0
M  V30 2465 H 239.866 -1.54882 -4.34522 0
M  V30 2466 H 238.109 -1.52168 -4.06236 0
M  V30 2467 H 238.78 -0.701361 -5.47526 0
M  V30 2468 H 241.256 0.657161 -4.10878 0
M  V30 2469 H 240.132 1.3026 -5.3322 0
M  V30 2470 H 240.393 2.19132 -3.83971 0
M  V30 2471 N 239.452 1.56882 -0.150215 0
M  V30 2472 C 240.68 2.00593 0.506948 0
M  V30 2473 C 241.095 1.03033 1.58208 0
M  V30 2474 O 240.452 0.0278396 1.82479 0
M  V30 2475 C 240.503 3.44209 1.10465 0
M  V30 2476 O 240.224 4.3804 0.0724636 0
M  V30 2477 C 241.725 4.03214 1.84211 0
M  V30 2478 H 238.945 0.65795 0.13169 0
M  V30 2479 H 241.489 2.03018 -0.245743 0
M  V30 2480 H 239.644 3.42625 1.80795 0
M  V30 2481 H 240.058 5.22007 0.510793 0
M  V30 2482 H 241.532 5.0569 2.21318 0
M  V30 2483 H 242.009 3.44107 2.72923 0
M  V30 2484 H 242.615 4.08437 1.18572 0
M  V30 2485 N 240.93 -0.123565 1.57115 0
M  V30 2486 C 241.893 -1.13583 1.99076 0
M  V30 2487 C 242.893 -1.34564 0.880296 0
M  V30 2488 O 244.083 -1.31158 1.14644 0
M  V30 2489 C 241.215 -2.49128 2.32698 0
M  V30 2490 H 242.408 -0.775287 2.89706 0
M  V30 2491 H 239.961 -0.36771 1.51913 0
M  V30 2492 H 240.696 -2.90111 1.44934 0
M  V30 2493 H 240.481 -2.35255 3.13684 0
M  V30 2494 H 241.971 -3.2199 2.65918 0
M  V30 2495 N 242.408 -1.52605 -0.393616 0
M  V30 2496 C 243.636 -1.71294 -1.16043 0
M  V30 2497 C 244.051 -0.429259 -1.83855 0
M  V30 2498 O 243.408 0.595921 -1.72496 0
M  V30 2499 C 243.459 -2.8593 -2.21193 0
M  V30 2500 O 243.18 -4.09329 -1.56146 0
M  V30 2501 C 244.681 -3.16259 -3.10636 0
M  V30 2502 H 241.901 -0.573641 -0.348104 0
M  V30 2503 H 244.445 -1.99234 -0.461092 0
M  V30 2504 H 242.6 -2.60465 -2.86769 0
M  V30 2505 H 243.014 -4.73323 -2.25978 0
M  V30 2506 H 244.488 -3.99946 -3.80456 0
M  V30 2507 H 244.965 -2.3045 -3.73884 0
M  V30 2508 H 245.571 -3.43547 -2.50711 0
M  V30 2509 N 243.887 0.651787 -1.4349 0
M  V30 2510 C 244.834 1.76462 -1.4876 0
M  V30 2511 C 245.804 1.62641 -0.337189 0
M  V30 2512 O 246.989 1.82864 -0.544544 0
M  V30 2513 C 244.129 3.14623 -1.41796 0
M  V30 2514 C 243.242 3.39568 -2.67053 0
M  V30 2515 C 242.377 4.67585 -2.52068 0
M  V30 2516 C 241.416 4.85639 -3.72587 0
M  V30 2517 N 240.553 6.04915 -3.56402 0
M  V30 2518 H 245.393 1.71293 -2.43849 0
M  V30 2519 H 242.93 0.835889 -1.21043 0
M  V30 2520 H 244.888 3.94496 -1.35753 0
M  V30 2521 H 243.518 3.18859 -0.50288 0
M  V30 2522 H 242.57 2.53783 -2.8337 0
M  V30 2523 H 243.882 3.48795 -3.56572 0
M  V30 2524 H 243.036 5.55586 -2.4374 0
M  V30 2525 H 241.775 4.60681 -1.60075 0
M  V30 2526 H 240.78 3.96073 -3.81321 0
M  V30 2527 H 242.005 4.94372 -4.65589 0
M  V30 2528 H 239.951 5.9914 -2.67146 0
M  V30 2529 H 239.868 6.15106 -4.39524 0
M  V30 2530 H 241.136 6.95533 -3.51929 0
M  V30 2531 N 245.365 1.30045 0.890287 0
M  V30 2532 C 246.328 1.15963 1.977 0
M  V30 2533 C 247.328 0.0923777 1.60534 0
M  V30 2534 O 248.518 0.340071 1.70848 0
M  V30 2535 C 245.65 0.775451 3.31963 0
M  V30 2536 H 246.843 2.12502 2.11619 0
M  V30 2537 H 244.396 1.13366 1.07601 0
M  V30 2538 H 245.131 -0.189671 3.23745 0
M  V30 2539 H 244.916 1.54668 3.60306 0
M  V30 2540 H 246.406 0.700251 4.11687 0
M  V30 2541 N 246.843 -1.10192 1.12674 0
M  V30 2542 C 248.12 -1.78717 0.794965 0
M  V30 2543 C 248.5 -1.98628 -0.714853 0
M  V30 2544 O 247.848 -1.58135 -1.64941 0
M  V30 2545 C 248.058 -3.11546 1.5729 0
M  V30 2546 C 249.406 -3.86382 1.76052 0
M  V30 2547 O 250.43 -3.21274 1.53823 0
M  V30 2548 O 249.289 -5.03246 2.13087 0
M  V30 2549 H 246.383 -0.774702 0.289423 0
M  V30 2550 H 248.929 -1.16819 1.23091 0
M  V30 2551 H 247.701 -2.92489 2.59935 0
M  V30 2552 H 247.324 -3.81164 1.13137 0
M  V30 2553 N 248.321 -0.919034 -1.28029 0
M  V30 2554 C 249.569 -0.553838 -1.94363 0
M  V30 2555 C 249.89 0.906357 -1.72656 0
M  V30 2556 O 249.16 1.64143 -1.0693 0
M  V30 2557 H 247.74 -0.201834 -0.719216 0
M  V30 2558 H 250.402 -1.16954 -1.55909 0
M  V30 2559 H 249.498 -0.752758 -3.02886 0
M  V30 2560 N 249.799 1.42003 -0.683588 0
M  V30 2561 C 251.047 2.01015 -0.209101 0
M  V30 2562 C 251.368 1.54365 1.19149 0
M  V30 2563 O 250.638 0.769083 1.80172 0
M  V30 2564 H 249.218 0.743294 -0.074315 0
M  V30 2565 H 251.88 1.73798 -0.882066 0
M  V30 2566 H 250.976 3.11343 -0.2172 0
M  V30 2567 N 251.277 0.427512 1.51691 0
M  V30 2568 C 252.505 -0.141191 2.06418 0
M  V30 2569 C 252.92 -1.37303 1.29589 0
M  V30 2570 O 252.277 -1.79059 0.352732 0
M  V30 2571 C 252.328 -0.473266 3.58389 0
M  V30 2572 O 252.049 0.709673 4.32314 0
M  V30 2573 C 253.55 -1.09371 4.29596 0
M  V30 2574 H 250.77 -0.0122747 0.670888 0
M  V30 2575 H 253.314 0.603764 1.95384 0
M  V30 2576 H 251.469 -1.16812 3.69369 0
M  V30 2577 H 251.883 0.42807 5.2275 0
M  V30 2578 H 253.357 -1.27613 5.37046 0
M  V30 2579 H 253.834 -2.072 3.87253 0
M  V30 2580 H 254.44 -0.43853 4.23033 0
M  V30 2581 N 252.755 -1.56801 0.158532 0
M  V30 2582 C 253.687 -2.14488 -0.807923 0
M  V30 2583 C 254.7 -1.09721 -1.20271 0
M  V30 2584 O 255.889 -1.36956 -1.14478 0
M  V30 2585 C 252.989 -2.66217 -2.09718 0
M  V30 2586 C 252.162 -3.95507 -1.86796 0
M  V30 2587 C 251.221 -4.3243 -2.99818 0
M  V30 2588 O 250.247 -5.00543 -2.71008 0
M  V30 2589 N 251.449 -3.92947 -4.27285 0
M  V30 2590 H 254.214 -2.98042 -0.314816 0
M  V30 2591 H 251.775 -1.61881 -0.0246692 0
M  V30 2592 H 253.767 -2.87924 -2.84398 0
M  V30 2593 H 252.337 -1.87324 -2.50257 0
M  V30 2594 H 251.557 -3.82309 -0.96089 0
M  V30 2595 H 252.845 -4.79972 -1.68833 0
M  V30 2596 H 252.243 -3.38087 -4.53557 0
M  V30 2597 H 250.8 -4.19681 -4.9871 0
M  V30 2598 N 254.233 0.115231 -1.57178 0
M  V30 2599 C 255.479 0.82357 -1.85325 0
M  V30 2600 C 255.812 1.79349 -0.744814 0
M  V30 2601 O 255.087 1.92899 0.249024 0
M  V30 2602 C 255.37 1.57014 -3.24066 0
M  V30 2603 C 255.223 0.619565 -4.45513 0
M  V30 2604 C 256.542 2.52545 -3.60429 0
M  V30 2605 H 253.661 0.297948 -0.674089 0
M  V30 2606 H 256.303 0.0877138 -1.89797 0
M  V30 2607 H 254.453 2.19742 -3.20383 0
M  V30 2608 H 256.125 0.000837639 -4.613 0
M  V30 2609 H 254.368 -0.0686174 -4.33746 0
M  V30 2610 H 255.039 1.17866 -5.3927 0
M  V30 2611 H 257.515 1.9992 -3.64926 0
M  V30 2612 H 256.391 3.01811 -4.58477 0
M  V30 2613 H 256.652 3.35383 -2.88047 0
M  V30 2614 N 255.711 1.52812 0.385517 0
M  V30 2615 C 256.96 1.67249 1.12741 0
M  V30 2616 C 257.273 0.4205 1.91027 0
M  V30 2617 O 258.479 0.445064 2.67827 0
M  V30 2618 C 256.935 2.95583 2.05326 0
M  V30 2619 C 256.543 4.27974 1.32447 0
M  V30 2620 C 258.287 3.19386 2.7963 0
M  V30 2621 C 256.194 5.47412 2.23818 0
M  V30 2622 H 255.124 0.6231 0.424573 0
M  V30 2623 H 257.775 1.79309 0.389924 0
M  V30 2624 H 256.157 2.77277 2.82725 0
M  V30 2625 H 257.331 4.56844 0.602495 0
M  V30 2626 H 255.646 4.10459 0.700885 0
M  V30 2627 H 258.243 4.05801 3.48181 0
M  V30 2628 H 258.586 2.34604 3.43899 0
M  V30 2629 H 259.119 3.38274 2.09322 0
M  V30 2630 H 255.858 6.34612 1.64157 0
M  V30 2631 H 255.378 5.22849 2.93921 0
M  V30 2632 H 257.057 5.81423 2.83824 0
M  V30 2633 N 257.189 -0.644168 1.43834 0
M  V30 2634 C 258.466 -1.40188 1.36406 0
M  V30 2635 C 258.846 -2.11094 0.0163124 0
M  V30 2636 O 258.194 -2.05426 -1.00062 0
M  V30 2637 C 258.404 -2.3791 2.55343 0
M  V30 2638 C 259.752 -3.01637 2.98832 0
M  V30 2639 O 260.776 -2.48237 2.55455 0
M  V30 2640 O 259.635 -3.98477 3.74003 0
M  V30 2641 H 256.729 -0.626773 0.539523 0
M  V30 2642 H 259.275 -0.670317 1.559 0
M  V30 2643 H 258.047 -1.84525 3.4506 0
M  V30 2644 H 257.67 -3.18503 2.37995 0
M  V30 2645 N 258.668 -1.30515 -0.883378 0
M  V30 2646 C 259.896 -1.22359 -1.66841 0
M  V30 2647 C 260.311 0.213296 -1.87591 0
M  V30 2648 O 259.668 1.14075 -1.42454 0
M  V30 2649 C 259.719 -1.95011 -3.04389 0
M  V30 2650 O 259.44 -3.3309 -2.84575 0
M  V30 2651 C 260.941 -1.93532 -3.98824 0
M  V30 2652 H 258.161 -0.423371 -0.520575 0
M  V30 2653 H 260.705 -1.72167 -1.10357 0
M  V30 2654 H 258.86 -1.48997 -3.57601 0
M  V30 2655 H 259.274 -3.69907 -3.71846 0
M  V30 2656 H 260.748 -2.48902 -4.92699 0
M  V30 2657 H 261.225 -0.914627 -4.29571 0
M  V30 2658 H 261.831 -2.39364 -3.51547 0
M  V30 2659 N 260.146 1.09593 -1.13257 0
M  V30 2660 C 261.093 2.1618 -0.808381 0
M  V30 2661 C 262.063 1.64517 0.228754 0
M  V30 2662 O 263.248 1.9053 0.101381 0
M  V30 2663 C 260.388 3.43973 -0.278675 0
M  V30 2664 C 259.501 4.09545 -1.37466 0
M  V30 2665 C 258.636 5.25088 -0.803479 0
M  V30 2666 C 257.675 5.82579 -1.87799 0
M  V30 2667 N 256.812 6.89486 -1.32488 0
M  V30 2668 H 261.652 2.43254 -1.72138 0
M  V30 2669 H 259.189 1.19392 -0.859294 0
M  V30 2670 H 261.147 4.17174 0.0465583 0
M  V30 2671 H 259.777 3.17223 0.597459 0
M  V30 2672 H 258.829 3.34226 -1.81652 0
M  V30 2673 H 260.141 4.48307 -2.18684 0
M  V30 2674 H 259.295 6.05178 -0.429427 0
M  V30 2675 H 258.034 4.87684 0.0397956 0
M  V30 2676 H 257.039 5.01152 -2.26113 0
M  V30 2677 H 258.264 6.22045 -2.72463 0
M  V30 2678 H 256.21 6.54064 -0.503575 0
M  V30 2679 H 256.127 7.27007 -2.07355 0
M  V30 2680 H 257.395 7.73336 -0.978336 0
M  V30 2681 N 261.624 0.925811 1.2754 0
M  V30 2682 C 262.572 0.413897 2.28888 0
M  V30 2683 C 263.566 -0.500779 1.61829 0
M  V30 2684 O 264.772 -0.38069 1.75928 0
M  V30 2685 H 261.147 0.115274 0.743112 0
M  V30 2686 H 263.118 1.28151 2.69481 0
M  V30 2687 C 261.867 -0.319792 3.46226 0
M  V30 2688 H 261.19 0.374846 3.98039 0
M  V30 2689 H 262.63 -0.642435 4.19105 0
M  V30 2690 C 261.089 -1.53209 3.00048 0
M  V30 2691 O 261.619 -2.6309 3.03557 0
M  V30 2692 N 259.825 -1.38326 2.55566 0
M  V30 2693 H 259.372 -0.489292 2.5291 0
M  V30 2694 H 259.33 -2.19564 2.25031 0
M  V30 2695 N 263.102 -1.41638 0.69111 0
M  V30 2696 C 264.351 -2.00526 0.217318 0
M  V30 2697 C 264.664 -1.55353 -1.18848 0
M  V30 2698 O 265.87 -2.06769 -1.75951 0
M  V30 2699 C 264.326 -3.58313 0.337639 0
M  V30 2700 C 263.934 -4.12469 1.74852 0
M  V30 2701 C 265.678 -4.24431 -0.0766066 0
M  V30 2702 C 263.585 -5.62675 1.82074 0
M  V30 2703 H 262.515 -0.750008 0.0774893 0
M  V30 2704 H 265.166 -1.6217 0.858661 0
M  V30 2705 H 263.548 -3.9425 -0.371879 0
M  V30 2706 H 264.722 -3.8796 2.48644 0
M  V30 2707 H 263.037 -3.58861 2.11205 0
M  V30 2708 H 265.634 -5.34683 -0.0430284 0
M  V30 2709 H 265.977 -4.01101 -1.1146 0
M  V30 2710 H 266.51 -3.93512 0.582476 0
M  V30 2711 H 263.249 -5.90826 2.83911 0
M  V30 2712 H 262.769 -5.89124 1.12661 0
M  V30 2713 H 264.448 -6.27371 1.58159 0
M  V30 2714 N 264.58 -0.43555 -1.51462 0
M  V30 2715 C 265.51 0.367376 -2.30592 0
M  V30 2716 C 266.491 1.02263 -1.35928 0
M  V30 2717 O 267.676 1.02661 -1.64847 0
M  V30 2718 C 264.806 1.46983 -3.14664 0
M  V30 2719 C 263.76 0.938161 -4.17591 0
M  V30 2720 C 263.086 2.13622 -4.90173 0
M  V30 2721 C 264.386 -0.0261621 -5.22293 0
M  V30 2722 H 266.08 -0.292969 -2.97963 0
M  V30 2723 H 263.626 -0.14234 -1.43295 0
M  V30 2724 H 265.579 2.03873 -3.688 0
M  V30 2725 H 264.303 2.15843 -2.4511 0
M  V30 2726 H 262.962 0.391481 -3.64504 0
M  V30 2727 H 262.61 2.81098 -4.17124 0
M  V30 2728 H 262.31 1.78688 -5.59772 0
M  V30 2729 H 263.834 2.7107 -5.47132 0
M  V30 2730 H 265.248 0.452384 -5.71512 0
M  V30 2731 H 263.645 -0.287992 -5.99409 0
M  V30 2732 H 264.715 -0.963391 -4.75233 0
M  V30 2733 N 266.058 1.56714 -0.166846 0
M  V30 2734 C 267.307 1.95922 0.479318 0
M  V30 2735 C 267.62 1.05529 1.6469 0
M  V30 2736 O 268.826 1.34399 2.35901 0
M  V30 2737 C 267.282 3.48359 0.90412 0
M  V30 2738 C 266.89 4.47369 -0.237621 0
M  V30 2739 C 268.634 3.96394 1.51896 0
M  V30 2740 C 266.541 5.91039 0.206561 0
M  V30 2741 H 265.471 0.731495 0.18284 0
M  V30 2742 H 268.122 1.81728 -0.254363 0
M  V30 2743 H 266.504 3.57955 1.69365 0
M  V30 2744 H 267.678 4.49485 -1.01489 0
M  V30 2745 H 265.993 4.09366 -0.762128 0
M  V30 2746 H 268.59 5.01186 1.86325 0
M  V30 2747 H 268.933 3.39075 2.41524 0
M  V30 2748 H 269.466 3.89796 0.79395 0
M  V30 2749 H 266.205 6.52221 -0.654834 0
M  V30 2750 H 265.725 5.9224 0.949282 0
M  V30 2751 H 267.404 6.43707 0.651939 0
M  V30 2752 N 267.536 -0.106894 1.57237 0
M  V30 2753 C 268.499 -1.11466 2.0027 0
M  V30 2754 C 269.499 -1.33623 0.894519 0
M  V30 2755 O 270.689 -1.29935 1.16028 0
M  V30 2756 C 267.821 -2.46646 2.35327 0
M  V30 2757 H 269.014 -0.744516 2.90512 0
M  V30 2758 H 266.567 -0.351576 1.52295 0
M  V30 2759 H 267.302 -2.88558 1.48003 0
M  V30 2760 H 267.087 -2.31915 3.16161 0
M  V30 2761 H 268.577 -3.19151 2.69318 0
M  V30 2762 N 269.014 -1.53014 -0.377408 0
M  V30 2763 C 270.242 -1.72515 -1.14219 0
M  V30 2764 C 270.657 -0.448735 -1.8339 0
M  V30 2765 O 270.014 0.577592 -1.73119 0
M  V30 2766 C 270.065 -2.8826 -2.18148 0
M  V30 2767 O 269.786 -4.10962 -1.51795 0
M  V30 2768 C 271.287 -3.19536 -3.07264 0
M  V30 2769 H 268.507 -0.577301 -0.342001 0
M  V30 2770 H 271.051 -1.99712 -0.439935 0
M  V30 2771 H 269.206 -2.63492 -2.83991 0
M  V30 2772 H 269.62 -4.75693 -2.20945 0
M  V30 2773 H 271.094 -4.03959 -3.76193 0
M  V30 2774 H 271.571 -2.34403 -3.71419 0
M  V30 2775 H 272.177 -3.46186 -2.47053 0
M  V30 2776 N 270.492 0.636531 -1.44174 0
M  V30 2777 C 271.74 1.39343 -1.46383 0
M  V30 2778 C 272.061 1.94766 -0.0955715 0
M  V30 2779 O 271.331 1.75452 0.871395 0
M  V30 2780 H 269.911 0.517199 -0.538994 0
M  V30 2781 H 272.573 0.74957 -1.7991 0
M  V30 2782 H 271.669 2.22746 -2.18611 0
M  V30 2783 N 271.97 1.30982 0.876444 0
M  V30 2784 C 273.195 1.23373 1.66715 0
M  V30 2785 C 273.62 -0.19885 1.87046 0
M  V30 2786 O 272.978 -1.1427 1.40756 0
M  V30 2787 C 273.026 1.97644 3.01611 0
M  V30 2788 O 272.13 1.30935 3.91062 0
M  V30 2789 H 271.471 0.426279 0.509099 0
M  V30 2790 H 274.001 1.72944 1.09323 0
M  V30 2791 H 274.011 2.06992 3.51594 0
M  V30 2792 H 272.686 3.01829 2.86133 0
M  V30 2793 H 271.263 1.29996 3.49507 0
M  V30 2794 N 273.449 -1.08991 1.13837 0
M  V30 2795 C 274.359 -2.19301 0.833333 0
M  V30 2796 C 275.375 -1.73026 -0.183847 0
M  V30 2797 O 276.551 -2.01395 -0.0138092 0
M  V30 2798 C 273.616 -3.45323 0.308651 0
M  V30 2799 C 272.677 -4.06255 1.38764 0
M  V30 2800 C 271.91 -5.26262 0.887896 0
M  V30 2801 O 272.133 -5.69747 -0.27287 0
M  V30 2802 O 271.067 -5.78435 1.66421 0
M  V30 2803 H 274.893 -2.47854 1.75506 0
M  V30 2804 H 272.478 -1.18012 0.916166 0
M  V30 2805 H 274.36 -4.21394 0.0216739 0
M  V30 2806 H 273.035 -3.18362 -0.585431 0
M  V30 2807 H 271.942 -3.318 1.72799 0
M  V30 2808 H 273.275 -4.37452 2.25602 0
M  V30 2809 N 274.927 -0.932562 -1.27047 0
M  V30 2810 C 276.173 -0.576412 -1.94436 0
M  V30 2811 C 276.506 0.880891 -1.73072 0
M  V30 2812 O 275.781 1.62905 -1.06264 0
M  V30 2813 C 276.064 -0.909031 -3.48437 0
M  V30 2814 C 275.917 -2.42044 -3.79123 0
M  V30 2815 C 277.236 -0.418341 -4.38107 0
M  V30 2816 H 274.355 -0.210888 -0.706184 0
M  V30 2817 H 276.997 -1.16522 -1.50075 0
M  V30 2818 H 275.147 -0.407947 -3.86352 0
M  V30 2819 H 276.819 -2.99359 -3.50973 0
M  V30 2820 H 275.062 -2.86758 -3.25503 0
M  V30 2821 H 275.733 -2.6037 -4.86736 0
M  V30 2822 H 278.209 -0.847856 -4.0737 0
M  V30 2823 H 277.085 -0.679981 -5.44672 0
M  V30 2824 H 277.346 0.681642 -4.36814 0
M  V30 2825 N 276.405 1.4127 -0.698611 0
M  V30 2826 C 277.633 2.05503 -0.239992 0
M  V30 2827 C 278.048 1.52584 1.11191 0
M  V30 2828 O 277.405 0.675323 1.69545 0
M  V30 2829 C 277.456 3.60987 -0.192429 0
M  V30 2830 O 277.177 4.1195 -1.49094 0
M  V30 2831 C 278.678 4.42371 0.28681 0
M  V30 2832 H 275.898 0.661748 -0.111045 0
M  V30 2833 H 278.442 1.80987 -0.95205 0
M  V30 2834 H 276.597 3.84533 0.470472 0
M  V30 2835 H 277.011 5.06018 -1.38007 0
M  V30 2836 H 278.485 5.51344 0.26896 0
M  V30 2837 H 278.962 4.18699 1.32619 0
M  V30 2838 H 279.568 4.23897 -0.345201 0
M  V30 2839 N 277.883 0.443576 1.51229 0
M  V30 2840 C 279.294 -0.0180867 1.86691 0
M  V30 2841 C 279.645 -1.41384 1.36033 0
M  V30 2842 O 278.77 -2.04291 0.713722 0
M  V30 2843 C 279.365 -0.039597 3.38777 0
M  V30 2844 C 277.924 -0.445692 3.73752 0
M  V30 2845 C 277.071 0.357584 2.74985 0
M  V30 2846 H 280.022 0.659138 1.44364 0
M  V30 2847 H 280.043 -0.847761 3.70936 0
M  V30 2848 H 279.555 0.976382 3.75617 0
M  V30 2849 H 277.656 -1.46704 3.42503 0
M  V30 2850 H 277.769 -0.166155 4.78812 0
M  V30 2851 H 276.133 -0.184973 2.54027 0
M  V30 2852 H 276.916 1.37256 3.14668 0
M  V30 2853 N 279.361 -1.56624 0.175154 0
M  V30 2854 C 280.608 -1.96999 -0.468811 0
M  V30 2855 C 280.936 -1.06129 -1.62994 0
M  V30 2856 O 280.191 -0.0961771 -1.95464 0
M  V30 2857 C 280.49 -3.43419 -0.989864 0
M  V30 2858 C 280.156 -4.50866 0.0557687 0
M  V30 2859 C 278.818 -4.79975 0.343134 0
M  V30 2860 C 281.17 -5.15551 0.765308 0
M  V30 2861 C 278.498 -5.71066 1.34536 0
M  V30 2862 C 280.85 -6.07724 1.75654 0
M  V30 2863 C 279.514 -6.35199 2.05132 0
M  V30 2864 H 278.784 -0.720869 -0.17155 0
M  V30 2865 H 281.431 -1.89616 0.267924 0
M  V30 2866 H 279.736 -3.47772 -1.80449 0
M  V30 2867 H 281.433 -3.72002 -1.49719 0
M  V30 2868 H 278.023 -4.28229 -0.178381 0
M  V30 2869 H 282.207 -4.9317 0.556513 0
M  V30 2870 H 277.463 -5.90635 1.57988 0
M  V30 2871 H 281.637 -6.56912 2.31169 0
M  V30 2872 H 279.264 -7.05584 2.8294 0
M  V30 2873 N 280.839 0.0985539 -1.57292 0
M  V30 2874 C 282.25 0.653457 -1.74891 0
M  V30 2875 C 282.601 1.7929 -0.796838 0
M  V30 2876 O 281.726 2.16385 0.0254886 0
M  V30 2877 C 282.321 1.19216 -3.17133 0
M  V30 2878 C 280.88 1.69316 -3.36168 0
M  V30 2879 C 280.027 0.601294 -2.70702 0
M  V30 2880 H 282.978 -0.127497 -1.58187 0
M  V30 2881 H 282.999 2.06154 -3.19814 0
M  V30 2882 H 282.511 0.362635 -3.86402 0
M  V30 2883 H 280.612 2.5468 -2.71972 0
M  V30 2884 H 280.725 1.78853 -4.44464 0
M  V30 2885 H 279.089 1.0399 -2.32504 0
M  V30 2886 H 279.872 -0.217592 -3.4261 0
M  V30 2887 N 282.317 1.53212 0.369288 0
M  V30 2888 C 283.565 1.68881 1.11012 0
M  V30 2889 C 283.886 0.441285 1.89941 0
M  V30 2890 O 283.156 -0.544623 1.88177 0
M  V30 2891 H 281.736 0.622569 0.412816 0
M  V30 2892 H 284.398 1.90391 0.416802 0
M  V30 2893 H 283.494 2.54822 1.80201 0
M  V30 2894 N 283.795 -0.628877 1.44509 0
M  V30 2895 C 285.044 -1.38437 1.4669 0
M  V30 2896 C 285.357 -1.95322 0.104272 0
M  V30 2897 O 286.563 -2.715 0.00362163 0
M  V30 2898 C 285.019 -2.50659 2.5826 0
M  V30 2899 C 284.627 -2.00277 4.0074 0
M  V30 2900 C 286.371 -3.27844 2.69664 0
M  V30 2901 C 284.278 -3.09854 5.0373 0
M  V30 2902 H 283.208 -0.520245 0.545766 0
M  V30 2903 H 285.859 -0.676313 1.70582 0
M  V30 2904 H 284.241 -3.2405 2.27612 0
M  V30 2905 H 285.415 -1.33736 4.40966 0
M  V30 2906 H 283.73 -1.35901 3.93599 0
M  V30 2907 H 286.327 -4.09534 3.43781 0
M  V30 2908 H 286.67 -3.77471 1.75559 0
M  V30 2909 H 287.203 -2.61543 2.99733 0
M  V30 2910 H 283.942 -2.65168 5.99472 0
M  V30 2911 H 283.462 -3.7503 4.68095 0
M  V30 2912 H 285.141 -3.74592 5.27532 0
M  V30 2913 N 285.273 -1.31445 -0.869486 0
M  V30 2914 C 286.501 -1.24122 -1.65534 0
M  V30 2915 C 286.916 0.193387 -1.87807 0
M  V30 2916 O 286.273 1.12557 -1.43656 0
M  V30 2917 C 286.324 -1.98229 -3.02304 0
M  V30 2918 O 286.045 -3.3609 -2.81026 0
M  V30 2919 C 287.546 -1.97751 -3.96749 0
M  V30 2920 H 284.766 -0.428868 -0.516055 0
M  V30 2921 H 287.31 -1.73328 -1.08525 0
M  V30 2922 H 285.465 -1.52782 -3.56001 0
M  V30 2923 H 285.879 -3.7383 -3.67902 0
M  V30 2924 H 287.353 -2.54114 -4.90031 0
M  V30 2925 H 287.83 -0.960137 -4.28577 0
M  V30 2926 H 288.436 -2.43079 -3.48988 0
M  V30 2927 N 286.751 1.08385 -1.14413 0
M  V30 2928 C 288 1.80153 -0.907076 0
M  V30 2929 C 288.313 1.87176 0.567851 0
M  V30 2930 O 289.519 2.55359 0.922172 0
M  V30 2931 C 287.975 3.23687 -1.57336 0
M  V30 2932 C 287.583 3.24897 -3.08457 0
M  V30 2933 C 289.327 4.00136 -1.41744 0
M  V30 2934 C 287.234 4.6302 -3.67921 0
M  V30 2935 H 286.164 0.675139 -0.335714 0
M  V30 2936 H 288.815 1.21733 -1.37307 0
M  V30 2937 H 287.197 3.82234 -1.03505 0
M  V30 2938 H 288.371 2.76055 -3.68958 0
M  V30 2939 H 286.686 2.61943 -3.2369 0
M  V30 2940 H 289.283 5.02201 -1.83572 0
M  V30 2941 H 289.626 4.14709 -0.363576 0
M  V30 2942 H 290.159 3.48058 -1.92614 0
M  V30 2943 H 286.898 4.5365 -4.73161 0
M  V30 2944 H 286.418 5.12143 -3.12201 0
M  V30 2945 H 288.097 5.31994 -3.68227 0
M  V30 2946 N 288.23 0.939286 1.26551 0
M  V30 2947 C 289.507 0.5038 1.89001 0
M  V30 2948 C 289.887 -1.01854 1.84903 0
M  V30 2949 O 289.235 -1.87773 1.30206 0
M  V30 2950 C 289.445 1.063 3.32417 0
M  V30 2951 C 290.793 1.13051 4.09273 0
M  V30 2952 O 291.817 1.01345 3.41479 0
M  V30 2953 O 290.676 1.31233 5.30509 0
M  V30 2954 H 287.77 0.163897 0.810597 0
M  V30 2955 H 290.316 1.03173 1.34735 0
M  V30 2956 H 289.088 2.10665 3.29752 0
M  V30 2957 H 288.711 0.517408 3.94219 0
M  V30 2958 N 289.708 -1.40897 0.706093 0
M  V30 2959 C 290.618 -2.3455 0.0482286 0
M  V30 2960 C 291.634 -1.56796 -0.754396 0
M  V30 2961 O 292.81 -1.89228 -0.689538 0
M  V30 2962 C 289.875 -3.35625 -0.869303 0
M  V30 2963 C 288.936 -4.29261 -0.0576994 0
M  V30 2964 C 288.169 -5.25508 -0.931531 0
M  V30 2965 O 288.392 -5.27472 -2.17092 0
M  V30 2966 O 287.326 -6.00727 -0.375587 0
M  V30 2967 H 291.152 -2.92407 0.820476 0
M  V30 2968 H 288.737 -1.4193 0.4665 0
M  V30 2969 H 290.619 -3.97635 -1.39514 0
M  V30 2970 H 289.294 -2.80196 -1.62086 0
M  V30 2971 H 288.201 -3.70566 0.512988 0
M  V30 2972 H 289.534 -4.87817 0.655426 0
M  V30 2973 N 291.186 -0.45159 -1.50991 0
M  V30 2974 C 292.463 0.170707 -1.94854 0
M  V30 2975 C 292.843 1.58788 -1.39103 0
M  V30 2976 O 292.191 2.20913 -0.583921 0
M  V30 2977 C 292.401 0.133929 -3.48743 0
M  V30 2978 C 293.749 0.33248 -4.23296 0
M  V30 2979 O 294.773 0.211403 -3.55572 0
M  V30 2980 O 293.632 0.57486 -5.43468 0
M  V30 2981 H 290.726 0.122264 -0.817912 0
M  V30 2982 H 293.272 -0.510594 -1.61836 0
M  V30 2983 H 292.044 -0.856283 -3.81816 0
M  V30 2984 H 291.667 0.857529 -3.88242 0
M  V30 2985 N 292.664 1.56529 -0.183458 0
M  V30 2986 C 293.892 2.01623 0.464285 0
M  V30 2987 C 294.307 1.06366 1.55986 0
M  V30 2988 O 293.664 0.0665398 1.82379 0
M  V30 2989 C 293.715 3.46475 1.03139 0
M  V30 2990 O 293.436 4.38095 -0.0204675 0
M  V30 2991 C 294.937 4.0703 1.75617 0
M  V30 2992 H 292.157 0.660596 0.117704 0
M  V30 2993 H 294.701 2.02451 -0.288751 0
M  V30 2994 H 292.856 3.46383 1.73486 0
M  V30 2995 H 293.27 5.22973 0.399952 0
M  V30 2996 H 294.744 5.10271 2.10542 0
M  V30 2997 H 295.221 3.49819 2.65563 0
M  V30 2998 H 295.827 4.1086 1.09882 0
M  V30 2999 N 294.142 -0.090211 1.57342 0
M  V30 3000 C 295.391 -0.791531 1.8552 0
M  V30 3001 C 295.704 -1.79659 0.773441 0
M  V30 3002 O 296.91 -2.54616 0.942497 0
M  V30 3003 C 295.366 -1.45856 3.2902 0
M  V30 3004 C 294.974 -0.493017 4.45279 0
M  V30 3005 C 296.718 -2.14332 3.66418 0
M  V30 3006 C 294.625 -1.16491 5.79814 0
M  V30 3007 H 293.555 -0.299356 0.692027 0
M  V30 3008 H 296.206 -0.0445343 1.83446 0
M  V30 3009 H 294.588 -2.25318 3.2565 0
M  V30 3010 H 295.762 0.270464 4.60006 0
M  V30 3011 H 294.077 0.0863061 4.16311 0
M  V30 3012 H 296.674 -2.65344 4.64216 0
M  V30 3013 H 297.017 -2.93447 2.95287 0
M  V30 3014 H 297.55 -1.41724 3.71698 0
M  V30 3015 H 294.289 -0.41447 6.54188 0
M  V30 3016 H 293.809 -1.8997 5.68921 0
M  V30 3017 H 295.488 -1.69001 6.24538 0
M  V30 3018 N 295.62 -1.53406 -0.361157 0
M  V30 3019 C 296.866 -1.70054 -1.10496 0
M  V30 3020 C 297.199 -0.453278 -1.88836 0
M  V30 3021 O 296.474 0.5495 -1.86576 0
M  V30 3022 C 296.757 -2.95317 -2.06058 0
M  V30 3023 C 296.61 -4.3021 -1.31298 0
M  V30 3024 C 297.929 -3.16193 -3.06121 0
M  V30 3025 H 295.048 -0.618799 -0.400321 0
M  V30 3026 H 297.69 -1.86052 -0.385318 0
M  V30 3027 H 295.84 -2.81809 -2.67425 0
M  V30 3028 H 297.512 -4.55538 -0.726807 0
M  V30 3029 H 295.755 -4.29421 -0.614853 0
M  V30 3030 H 296.426 -5.14 -2.01265 0
M  V30 3031 H 298.902 -3.28916 -2.5486 0
M  V30 3032 H 297.778 -4.05266 -3.70204 0
M  V30 3033 H 298.039 -2.31676 -3.76535 0
M  V30 3034 N 297.098 0.621204 -1.44841 0
M  V30 3035 C 298.323 1.41244 -1.51871 0
M  V30 3036 C 298.748 1.87519 -0.147764 0
M  V30 3037 O 298.106 1.59334 0.865 0
M  V30 3038 C 298.154 2.60221 -2.49634 0
M  V30 3039 O 297.258 3.60395 -2.00473 0
M  V30 3040 H 296.599 0.42223 -0.512463 0
M  V30 3041 H 299.129 0.757305 -1.90069 0
M  V30 3042 H 299.139 3.0764 -2.67996 0
M  V30 3043 H 297.814 2.25887 -3.4921 0
M  V30 3044 H 296.391 3.19717 -1.91925 0
M  V30 3045 N 298.576 1.31904 0.862503 0
M  V30 3046 C 299.801 1.25135 1.65397 0
M  V30 3047 C 300.226 -0.179 1.87246 0
M  V30 3048 O 299.584 -1.1277 1.4196 0
M  V30 3049 C 299.632 2.00832 2.99498 0
M  V30 3050 O 298.736 1.35075 3.89652 0
M  V30 3051 H 298.077 0.431655 0.504549 0
M  V30 3052 H 300.607 1.74094 1.07483 0
M  V30 3053 H 300.617 2.10709 3.49379 0
M  V30 3054 H 299.292 3.04847 2.82916 0
M  V30 3055 H 297.869 1.33696 3.48109 0
M  V30 3056 N 300.054 -1.07777 1.14986 0
M  V30 3057 C 301.282 -1.84018 0.945773 0
M  V30 3058 C 301.697 -1.81897 -0.505863 0
M  V30 3059 O 301.054 -1.22726 -1.35072 0
M  V30 3060 C 301.105 -3.31287 1.44677 0
M  V30 3061 O 300.826 -3.33449 2.84154 0
M  V30 3062 C 302.327 -4.24311 1.28355 0
M  V30 3063 H 299.547 -0.580716 0.336169 0
M  V30 3064 H 302.091 -1.36077 1.52654 0
M  V30 3065 H 300.246 -3.76594 0.908625 0
M  V30 3066 H 300.66 -4.25427 3.06777 0
M  V30 3067 H 302.134 -5.2573 1.68261 0
M  V30 3068 H 302.611 -4.38612 0.227184 0
M  V30 3069 H 303.217 -3.84836 1.81056 0
M  V30 3070 N 301.532 -0.945985 -1.26051 0
M  V30 3071 C 302.78 -0.594941 -1.93145 0
M  V30 3072 C 303.101 0.86953 -1.7454 0
M  V30 3073 O 302.371 1.61838 -1.10387 0
M  V30 3074 H 300.951 -0.217044 -0.714773 0
M  V30 3075 H 303.613 -1.20235 -1.53393 0
M  V30 3076 H 302.709 -0.816835 -3.01221 0
M  V30 3077 N 303.011 1.40521 -0.713556 0
M  V30 3078 C 303.974 2.29098 -0.0684347 0
M  V30 3079 C 304.974 1.45268 0.689472 0
M  V30 3080 O 306.164 1.66205 0.521677 0
M  V30 3081 C 303.296 3.28446 0.913024 0
M  V30 3082 H 304.489 2.87645 -0.84855 0
M  V30 3083 H 302.042 1.48809 -0.47809 0
M  V30 3084 H 302.777 2.74913 1.72027 0
M  V30 3085 H 302.562 3.90327 0.372472 0
M  V30 3086 H 304.052 3.94777 1.36165 0
M  V30 3087 N 304.489 0.459591 1.5075 0
M  V30 3088 C 305.419 -0.330644 2.31147 0
M  V30 3089 C 306.4 -1.00087 1.37538 0
M  V30 3090 O 307.585 -1.00025 1.66459 0
M  V30 3091 C 304.715 -1.41958 3.16962 0
M  V30 3092 C 303.669 -0.871608 4.19031 0
M  V30 3093 C 302.995 -2.05797 4.9351 0
M  V30 3094 C 304.295 0.109251 5.22186 0
M  V30 3095 H 305.989 0.340336 2.97459 0
M  V30 3096 H 303.535 0.165119 1.4305 0
M  V30 3097 H 305.488 -1.9798 3.71997 0
M  V30 3098 H 304.212 -2.11917 2.48513 0
M  V30 3099 H 302.871 -0.333442 3.6508 0
M  V30 3100 H 302.519 -2.74427 4.21544 0
M  V30 3101 H 302.219 -1.6976 5.62544 0
M  V30 3102 H 303.743 -2.62331 5.51375 0
M  V30 3103 H 305.157 -0.361405 5.7216 0
M  V30 3104 H 303.554 0.383316 5.98875 0
M  V30 3105 H 304.624 1.03887 4.73641 0
M  V30 3106 N 305.967 -1.56429 0.191757 0
M  V30 3107 C 307.192 -2.02309 -0.456706 0
M  V30 3108 C 307.617 -1.07103 -1.5463 0
M  V30 3109 O 306.975 -0.0539677 -1.8122 0
M  V30 3110 C 307.023 -3.46654 -0.993159 0
M  V30 3111 O 306.127 -3.54559 -2.10622 0
M  V30 3112 H 305.468 -0.655303 -0.107114 0
M  V30 3113 H 307.998 -2.02364 0.301653 0
M  V30 3114 H 308.008 -3.86377 -1.31061 0
M  V30 3115 H 306.683 -4.1544 -0.195504 0
M  V30 3116 H 305.26 -3.26708 -1.79767 0
M  V30 3117 N 307.445 0.0818655 -1.57387 0
M  V30 3118 C 308.375 1.09885 -2.06028 0
M  V30 3119 C 309.356 1.4098 -0.951774 0
M  V30 3120 O 310.541 1.50781 -1.22387 0
M  V30 3121 C 307.671 2.4151 -2.4958 0
M  V30 3122 C 306.625 2.24792 -3.64215 0
M  V30 3123 C 305.951 3.61712 -3.93787 0
M  V30 3124 C 307.251 1.67749 -4.94629 0
M  V30 3125 H 308.945 0.694128 -2.91243 0
M  V30 3126 H 306.491 0.332448 -1.4011 0
M  V30 3127 H 308.444 3.12939 -2.82219 0
M  V30 3128 H 307.168 2.83943 -1.61381 0
M  V30 3129 H 305.827 1.55807 -3.31843 0
M  V30 3130 H 305.475 4.01697 -3.02735 0
M  V30 3131 H 305.175 3.51368 -4.70971 0
M  V30 3132 H 306.699 4.34587 -4.28913 0
M  V30 3133 H 308.113 2.29032 -5.25564 0
M  V30 3134 H 306.51 1.68128 -5.76067 0
M  V30 3135 H 307.58 0.638059 -4.80684 0
M  V30 3136 N 308.923 1.53595 0.353017 0
M  V30 3137 C 309.87 1.80919 1.43308 0
M  V30 3138 C 310.84 0.654288 1.5267 0
M  V30 3139 O 312.025 0.897759 1.6836 0
M  V30 3140 C 309.165 2.01605 2.80089 0
M  V30 3141 C 308.278 3.29321 2.79593 0
M  V30 3142 C 307.413 3.40125 4.0803 0
M  V30 3143 C 306.452 4.61826 4.01725 0
M  V30 3144 N 305.589 4.69716 5.21834 0
M  V30 3145 H 310.429 2.73074 1.19308 0
M  V30 3146 H 307.966 1.35263 0.578131 0
M  V30 3147 H 309.924 2.11586 3.59565 0
M  V30 3148 H 308.554 1.12772 3.0246 0
M  V30 3149 H 307.606 3.28229 1.92276 0
M  V30 3150 H 308.918 4.18884 2.70809 0
M  V30 3151 H 308.072 3.49488 4.95927 0
M  V30 3152 H 306.811 2.48601 4.19582 0
M  V30 3153 H 305.816 4.52552 3.12213 0
M  V30 3154 H 307.041 5.54705 3.91764 0
M  V30 3155 H 304.987 3.81097 5.33948 0
M  V30 3156 H 304.904 5.53202 5.1527 0
M  V30 3157 H 306.172 4.83376 6.11529 0
M  V30 3158 N 310.401 -0.613514 1.45168 0
M  V30 3159 C 311.348 -1.72456 1.53387 0
M  V30 3160 C 312.318 -1.6169 0.380191 0
M  V30 3161 O 313.503 -1.81356 0.592836 0
M  V30 3162 C 310.643 -3.10753 1.50088 0
M  V30 3163 C 309.756 -3.32368 2.75963 0
M  V30 3164 C 308.891 -4.60737 2.64376 0
M  V30 3165 C 307.93 -4.7559 3.85332 0
M  V30 3166 N 307.067 -5.95253 3.72315 0
M  V30 3167 H 311.907 -1.64768 2.48305 0
M  V30 3168 H 309.444 -0.803503 1.23216 0
M  V30 3169 H 311.402 -3.90758 1.46164 0
M  V30 3170 H 310.032 -3.17413 0.587243 0
M  V30 3171 H 309.084 -2.4618 2.89999 0
M  V30 3172 H 310.396 -3.39218 3.65695 0
M  V30 3173 H 309.55 -5.48928 2.58385 0
M  V30 3174 H 308.289 -4.56275 1.72233 0
M  V30 3175 H 307.294 -3.85824 3.91688 0
M  V30 3176 H 308.519 -4.81854 4.78533 0
M  V30 3177 H 306.465 -5.91847 2.82937 0
M  V30 3178 H 306.382 -6.03236 4.55677 0
M  V30 3179 H 307.65 -6.85958 3.70246 0
M  V30 3180 N 311.879 -1.3236 -0.855495 0
M  V30 3181 C 313.125 -1.23054 -1.612 0
M  V30 3182 C 313.458 0.207404 -1.93089 0
M  V30 3183 O 312.733 1.14432 -1.57275 0
M  V30 3184 C 313.016 -2.08937 -2.93287 0
M  V30 3185 C 312.869 -3.61105 -2.68185 0
M  V30 3186 C 314.188 -1.94986 -3.94549 0
M  V30 3187 H 311.307 -0.448364 -0.584926 0
M  V30 3188 H 313.949 -1.62297 -0.987917 0
M  V30 3189 H 312.099 -1.75599 -3.46551 0
M  V30 3190 H 313.771 -4.04652 -2.21483 0
M  V30 3191 H 312.014 -3.83813 -2.02164 0
M  V30 3192 H 312.685 -4.16522 -3.62234 0
M  V30 3193 H 315.161 -2.24189 -3.5054 0
M  V30 3194 H 314.037 -2.57356 -4.84829 0
M  V30 3195 H 314.298 -0.917263 -4.3248 0
M  V30 3196 N 313.357 1.07166 -1.15556 0
M  V30 3197 C 314.768 1.6127 -0.940693 0
M  V30 3198 C 315.119 1.89251 0.517551 0
M  V30 3199 O 314.244 1.65937 1.38903 0
M  V30 3200 C 314.839 2.92993 -1.7012 0
M  V30 3201 C 313.398 3.43832 -1.53156 0
M  V30 3202 C 312.545 2.1786 -1.71558 0
M  V30 3203 H 315.496 0.90229 -1.30554 0
M  V30 3204 H 315.517 3.62007 -1.17181 0
M  V30 3205 H 315.029 2.72596 -2.76248 0
M  V30 3206 H 313.13 3.69307 -0.494294 0
M  V30 3207 H 313.243 4.19747 -2.30975 0
M  V30 3208 H 311.607 2.2765 -1.14225 0
M  V30 3209 H 312.39 1.99956 -2.79056 0
M  V30 3210 N 314.835 0.952656 1.25548 0
M  V30 3211 C 315.745 0.47782 2.29682 0
M  V30 3212 C 316.761 -0.453859 1.67977 0
M  V30 3213 O 317.937 -0.330587 1.98668 0
M  V30 3214 C 315.002 -0.238655 3.45878 0
M  V30 3215 C 314.063 0.730994 4.23031 0
M  V30 3216 C 313.296 0.0486165 5.33678 0
M  V30 3217 O 313.519 -1.16612 5.58353 0
M  V30 3218 O 312.453 0.733152 5.97418 0
M  V30 3219 H 316.279 1.34312 2.72386 0
M  V30 3220 H 313.864 0.719026 1.30959 0
M  V30 3221 H 315.746 -0.641774 4.16484 0
M  V30 3222 H 314.421 -1.07916 3.05181 0
M  V30 3223 H 313.328 1.18428 3.5486 0
M  V30 3224 H 314.661 1.53946 4.67506 0
M  V30 3225 N 316.313 -1.40141 0.720998 0
M  V30 3226 C 317.26 -2.30688 0.071919 0
M  V30 3227 C 318.23 -1.48476 -0.744584 0
M  V30 3228 O 319.415 -1.77201 -0.707423 0
M  V30 3229 C 316.555 -3.34724 -0.839855 0
M  V30 3230 C 315.668 -4.31998 -0.0122438 0
M  V30 3231 C 314.803 -5.23102 -0.923995 0
M  V30 3232 C 313.842 -6.12033 -0.0907969 0
M  V30 3233 N 312.979 -6.95537 -0.957718 0
M  V30 3234 H 317.819 -2.85628 0.849755 0
M  V30 3235 H 315.356 -1.40653 0.430726 0
M  V30 3236 H 317.314 -3.93618 -1.38279 0
M  V30 3237 H 315.944 -2.81274 -1.58381 0
M  V30 3238 H 314.996 -3.74841 0.64794 0
M  V30 3239 H 316.308 -4.94772 0.632595 0
M  V30 3240 H 315.462 -5.86953 -1.53527 0
M  V30 3241 H 314.201 -4.60615 -1.60264 0
M  V30 3242 H 313.206 -5.47207 0.533377 0
M  V30 3243 H 314.431 -6.76581 0.584428 0
M  V30 3244 H 312.377 -6.35633 -1.62192 0
M  V30 3245 H 312.294 -7.55099 -0.36904 0
M  V30 3246 H 313.562 -7.63832 -1.555 0
M  V30 3247 N 317.792 -0.46758 -1.50504 0
M  V30 3248 C 318.725 0.374324 -2.25109 0
M  V30 3249 C 319.703 0.99921 -1.28275 0
M  V30 3250 O 320.887 1.03583 -1.57489 0
M  V30 3251 C 318.014 1.52419 -3.02467 0
M  V30 3252 C 317.06 1.01702 -4.14197 0
M  V30 3253 S 317.893 -0.0654477 -5.3546 0
M  V30 3254 C 319.049 1.08837 -6.16365 0
M  V30 3255 H 319.282 -0.258983 -2.9617 0
M  V30 3256 H 316.815 -0.252421 -1.52323 0
M  V30 3257 H 318.773 2.18322 -3.47628 0
M  V30 3258 H 317.434 2.129 -2.30938 0
M  V30 3259 H 316.627 1.87776 -4.67714 0
M  V30 3260 H 316.229 0.435757 -3.71453 0
M  V30 3261 H 318.521 2.00071 -6.47285 0
M  V30 3262 H 319.464 0.592538 -7.05616 0
M  V30 3263 H 319.872 1.34061 -5.4835 0
M  V30 3264 N 319.27 1.56325 -0.20005 0
M  V30 3265 C 320.516 1.98012 0.438059 0
M  V30 3266 C 320.849 1.08702 1.60927 0
M  V30 3267 O 320.124 0.140064 1.93995 0
M  V30 3268 C 320.407 3.48841 0.893419 0
M  V30 3269 C 320.26 4.48928 -0.279947 0
M  V30 3270 C 321.579 4.03498 1.75719 0
M  V30 3271 H 318.698 0.719918 0.157757 0
M  V30 3272 H 321.34 1.87743 -0.291968 0
M  V30 3273 H 319.49 3.57723 1.51547 0
M  V30 3274 H 321.162 4.52079 -0.91772 0
M  V30 3275 H 319.405 4.23694 -0.930919 0
M  V30 3276 H 320.076 5.5194 0.0812601 0
M  V30 3277 H 322.552 3.97427 1.23253 0
M  V30 3278 H 321.428 5.09393 2.04476 0
M  V30 3279 H 321.689 3.4906 2.71311 0
M  V30 3280 N 320.748 -0.0735177 1.57428 0
M  V30 3281 C 321.994 -0.774145 1.87443 0
M  V30 3282 C 322.327 -1.77311 0.792103 0
M  V30 3283 O 321.602 -1.93492 -0.197793 0
M  V30 3284 C 321.885 -1.48367 3.28115 0
M  V30 3285 C 321.738 -0.501227 4.46999 0
M  V30 3286 C 323.057 -2.429 3.66998 0
M  V30 3287 H 320.176 -0.279971 0.681752 0
M  V30 3288 H 322.818 -0.0373616 1.89963 0
M  V30 3289 H 320.968 -2.11171 3.26097 0
M  V30 3290 H 322.64 0.121468 4.6114 0
M  V30 3291 H 320.883 0.183593 4.33411 0
M  V30 3292 H 321.554 -1.03526 5.42205 0
M  V30 3293 H 324.03 -1.90175 3.70098 0
M  V30 3294 H 322.906 -2.89549 4.66318 0
M  V30 3295 H 323.167 -3.27628 2.96837 0
M  V30 3296 N 322.226 -1.5378 -0.344866 0
M  V30 3297 C 323.475 -1.7018 -1.08267 0
M  V30 3298 C 323.788 -0.471 -1.89845 0
M  V30 3299 O 324.994 -0.515917 -2.66553 0
M  V30 3300 C 323.45 -3.00923 -1.97417 0
M  V30 3301 C 323.058 -4.31335 -1.21053 0
M  V30 3302 C 324.802 -3.26688 -2.71063 0
M  V30 3303 C 322.709 -5.53153 -2.09225 0
M  V30 3304 H 321.639 -0.634138 -0.407903 0
M  V30 3305 H 324.29 -1.8028 -0.342246 0
M  V30 3306 H 322.672 -2.84676 -2.75274 0
M  V30 3307 H 323.846 -4.58281 -0.481159 0
M  V30 3308 H 322.161 -4.12173 -0.591813 0
M  V30 3309 H 324.758 -4.1489 -3.37299 0
M  V30 3310 H 325.101 -2.43639 -3.37558 0
M  V30 3311 H 325.634 -3.43705 -2.0028 0
M  V30 3312 H 322.373 -6.38741 -1.47274 0
M  V30 3313 H 321.893 -5.30458 -2.79955 0
M  V30 3314 H 323.572 -5.88744 -2.68308 0
M  V30 3315 N 323.704 0.605807 -1.45491 0
M  V30 3316 C 324.952 1.36207 -1.49305 0
M  V30 3317 C 325.273 1.94519 -0.136863 0
M  V30 3318 O 324.543 1.77261 0.833983 0
M  V30 3319 H 323.123 0.50565 -0.549843 0
M  V30 3320 H 325.785 0.711239 -1.81459 0
M  V30 3321 H 324.881 2.18058 -2.23287 0
M  V30 3322 N 325.182 1.32811 0.848464 0
M  V30 3323 C 326.145 1.22194 1.9391 0
M  V30 3324 C 327.145 0.143404 1.60159 0
M  V30 3325 O 328.335 0.394253 1.6968 0
M  V30 3326 C 325.467 0.88067 3.29328 0
M  V30 3327 H 326.66 2.19127 2.04752 0
M  V30 3328 H 324.213 1.16731 1.0394 0
M  V30 3329 H 324.948 -0.0865776 3.24184 0
M  V30 3330 H 324.733 1.66052 3.55203 0
M  V30 3331 H 326.223 0.830871 4.09251 0
M  V30 3332 N 326.66 -1.06551 1.16123 0
M  V30 3333 C 327.908 -1.78947 0.939267 0
M  V30 3334 C 328.229 -1.87532 -0.534476 0
M  V30 3335 O 327.499 -1.38211 -1.38833 0
M  V30 3336 H 326.079 -0.662807 0.344523 0
M  V30 3337 H 328.741 -1.28725 1.46342 0
M  V30 3338 H 327.837 -2.81117 1.35572 0
M  V30 3339 N 328.138 -0.959301 -1.25041 0
M  V30 3340 C 329.384 -0.617525 -1.9317 0
M  V30 3341 C 329.717 0.843981 -1.74902 0
M  V30 3342 O 328.992 1.60615 -1.09696 0
M  V30 3343 C 329.275 -0.982736 -3.46431 0
M  V30 3344 C 329.128 -2.50032 -3.73904 0
M  V30 3345 C 330.447 -0.511176 -4.37121 0
M  V30 3346 H 327.566 -0.22582 -0.701552 0
M  V30 3347 H 330.208 -1.19679 -1.4757 0
M  V30 3348 H 328.358 -0.489806 -3.854 0
M  V30 3349 H 330.03 -3.06737 -3.44544 0
M  V30 3350 H 328.273 -2.93598 -3.19348 0
M  V30 3351 H 328.944 -2.70635 -4.81103 0
M  V30 3352 H 331.42 -0.934075 -4.0548 0
M  V30 3353 H 330.296 -0.795361 -5.43107 0
M  V30 3354 H 330.557 0.588834 -4.38161 0
M  V30 3355 N 329.616 1.39756 -0.72842 0
M  V30 3356 C 330.865 1.99879 -0.270407 0
M  V30 3357 C 331.178 1.58449 1.14688 0
M  V30 3358 O 332.384 2.11362 1.70407 0
M  V30 3359 C 330.84 3.57292 -0.43252 0
M  V30 3360 C 330.448 4.07688 -1.85727 0
M  V30 3361 C 332.192 4.24485 -0.0359507 0
M  V30 3362 C 330.099 5.5765 -1.96928 0
M  V30 3363 H 329.029 0.747689 -0.0973472 0
M  V30 3364 H 331.68 1.59837 -0.901355 0
M  V30 3365 H 330.062 3.95097 0.267219 0
M  V30 3366 H 331.236 3.81231 -2.58843 0
M  V30 3367 H 329.551 3.53135 -2.20646 0
M  V30 3368 H 332.148 5.34609 -0.0987484 0
M  V30 3369 H 332.491 4.03915 1.00787 0
M  V30 3370 H 333.024 3.9183 -0.686604 0
M  V30 3371 H 329.763 5.8309 -2.99476 0
M  V30 3372 H 329.283 5.8593 -1.28241 0
M  V30 3373 H 330.962 6.22957 -1.74737 0
M  V30 3374 N 331.094 0.475555 1.50254 0
M  V30 3375 C 332.342 -0.077738 2.0195 0
M  V30 3376 C 332.663 -1.39813 1.35931 0
M  V30 3377 O 331.933 -1.89249 0.506123 0
M  V30 3378 H 330.513 -0.031719 0.746326 0
M  V30 3379 H 333.175 0.626995 1.84539 0
M  V30 3380 H 332.271 -0.225995 3.11281 0
M  V30 3381 N 332.573 -1.56217 0.208337 0
M  V30 3382 C 333.819 -1.98242 -0.427552 0
M  V30 3383 C 334.152 -1.09554 -1.60348 0
M  V30 3384 O 333.427 -0.15035 -1.93918 0
M  V30 3385 C 333.71 -3.4931 -0.874907 0
M  V30 3386 C 333.563 -4.48773 0.303751 0
M  V30 3387 C 334.882 -4.04424 -1.73577 0
M  V30 3388 H 332.001 -0.720744 -0.153936 0
M  V30 3389 H 334.643 -1.87586 0.30192 0
M  V30 3390 H 332.793 -3.58522 -1.49648 0
M  V30 3391 H 334.465 -4.51586 0.941682 0
M  V30 3392 H 332.708 -4.23194 0.953375 0
M  V30 3393 H 333.379 -5.51976 -0.0519883 0
M  V30 3394 H 335.855 -3.98075 -1.21143 0
M  V30 3395 H 334.731 -5.1047 -2.01771 0
M  V30 3396 H 334.992 -3.50494 -2.69456 0
M  V30 3397 N 334.051 0.0651679 -1.57465 0
M  V30 3398 C 334.961 1.09448 -2.07505 0
M  V30 3399 C 335.977 1.41974 -1.00595 0
M  V30 3400 O 337.153 1.52018 -1.32107 0
M  V30 3401 C 334.218 2.38689 -2.51453 0
M  V30 3402 C 333.279 2.13073 -3.72691 0
M  V30 3403 C 332.512 3.36152 -4.14533 0
M  V30 3404 O 332.735 4.45517 -3.56189 0
M  V30 3405 O 331.669 3.23974 -5.07272 0
M  V30 3406 H 335.495 0.69935 -2.95538 0
M  V30 3407 H 333.08 0.279752 -1.46757 0
M  V30 3408 H 334.962 3.14736 -2.80212 0
M  V30 3409 H 333.637 2.77568 -1.66546 0
M  V30 3410 H 332.544 1.34709 -3.49005 0
M  V30 3411 H 333.877 1.79071 -4.5847 0
M  V30 3412 N 335.529 1.53961 0.336706 0
M  V30 3413 C 336.459 1.85417 1.41925 0
M  V30 3414 C 337.44 0.709856 1.5458 0
M  V30 3415 O 338.625 0.962396 1.68676 0
M  V30 3416 C 335.755 2.06985 2.78881 0
M  V30 3417 C 334.709 3.22813 2.81026 0
M  V30 3418 C 334.035 3.29727 4.20932 0
M  V30 3419 C 335.335 4.60767 2.45949 0
M  V30 3420 H 337.029 2.76079 1.15848 0
M  V30 3421 H 334.575 1.32839 0.555859 0
M  V30 3422 H 336.528 2.27575 3.54665 0
M  V30 3423 H 335.252 1.13061 3.06406 0
M  V30 3424 H 333.911 3.0209 2.07695 0
M  V30 3425 H 333.559 2.33385 4.45579 0
M  V30 3426 H 333.259 4.07566 4.23277 0
M  V30 3427 H 334.783 3.52536 4.98549 0
M  V30 3428 H 336.197 4.81325 3.11446 0
M  V30 3429 H 334.594 5.4106 2.59566 0
M  V30 3430 H 335.664 4.6391 1.41122 0
M  V30 3431 N 337.007 -0.598083 1.45811 0
M  V30 3432 C 338.255 -1.35413 1.50026 0
M  V30 3433 C 338.576 -1.94444 0.147177 0
M  V30 3434 O 337.846 -1.77701 -0.824571 0
M  V30 3435 H 336.426 -0.502727 0.552517 0
M  V30 3436 H 339.088 -0.701606 1.81834 0
M  V30 3437 H 338.184 -2.16871 2.2444 0
M  V30 3438 N 338.485 -1.33259 -0.841409 0
M  V30 3439 C 339.71 -1.2775 -1.63385 0
M  V30 3440 C 340.135 0.149188 -1.87507 0
M  V30 3441 O 339.493 1.10498 -1.43736 0
M  V30 3442 C 339.541 -2.05571 -2.96265 0
M  V30 3443 O 338.645 -1.41257 -3.87453 0
M  V30 3444 H 337.986 -0.439627 -0.497618 0
M  V30 3445 H 340.516 -1.75782 -1.04699 0
M  V30 3446 H 340.526 -2.16241 -3.45982 0
M  V30 3447 H 339.201 -3.09309 -2.7803 0
M  V30 3448 H 337.778 -1.39217 -3.45938 0
M  V30 3449 N 339.963 1.05934 -1.16686 0
M  V30 3450 C 341.209 1.79065 -0.95203 0
M  V30 3451 C 341.542 1.87147 0.518629 0
M  V30 3452 O 340.817 1.36574 1.38484 0
M  V30 3453 C 341.1 3.23359 -1.58464 0
M  V30 3454 C 340.953 3.23336 -3.12689 0
M  V30 3455 C 342.272 4.21004 -1.28232 0
M  V30 3456 H 339.391 0.65005 -0.34728 0
M  V30 3457 H 342.033 1.23868 -1.44072 0
M  V30 3458 H 340.183 3.70493 -1.16908 0
M  V30 3459 H 341.855 2.84336 -3.6325 0
M  V30 3460 H 340.098 2.61886 -3.4583 0
M  V30 3461 H 340.769 4.25144 -3.52075 0
M  V30 3462 H 343.245 3.8233 -1.64203 0
M  V30 3463 H 342.121 5.20225 -1.75092 0
M  V30 3464 H 342.382 4.41639 -0.201791 0
M  V30 3465 N 341.441 0.965919 1.2453 0
M  V30 3466 C 342.687 0.637349 1.93156 0
M  V30 3467 C 343.042 -0.818261 1.74133 0
M  V30 3468 O 342.335 -1.58079 1.08266 0
M  V30 3469 C 342.529 0.945428 3.44669 0
M  V30 3470 C 342.358 2.42944 3.78429 0
M  V30 3471 C 341.128 3.08895 3.9989 0
M  V30 3472 C 343.326 3.40941 3.8505 0
M  V30 3473 N 341.308 4.47052 4.20735 0
M  V30 3474 C 342.679 4.64448 4.10717 0
M  V30 3475 C 344.734 3.35624 3.67779 0
M  V30 3476 C 343.437 5.83292 4.20907 0
M  V30 3477 C 345.463 4.53818 3.79214 0
M  V30 3478 C 344.825 5.76114 4.05304 0
M  V30 3479 H 340.924 0.284034 0.728594 0
M  V30 3480 H 343.508 1.24041 1.50073 0
M  V30 3481 H 341.679 0.371193 3.86622 0
M  V30 3482 H 343.411 0.575613 4.00586 0
M  V30 3483 H 340.166 2.59432 3.96222 0
M  V30 3484 H 340.59 5.18634 4.35141 0
M  V30 3485 H 345.232 2.4211 3.46616 0
M  V30 3486 H 342.95 6.77236 4.40883 0
M  V30 3487 H 346.536 4.51263 3.67224 0
M  V30 3488 H 345.416 6.66045 4.13949 0
M  V30 3489 N 342.919 -1.39368 0.735821 0
M  V30 3490 C 343.851 -2.2913 0.0567723 0
M  V30 3491 C 344.864 -1.46859 -0.702589 0
M  V30 3492 O 346.053 -1.69925 -0.546616 0
M  V30 3493 C 343.153 -3.25492 -0.943823 0
M  V30 3494 C 342.326 -4.36709 -0.24581 0
M  V30 3495 C 341.385 -5.13376 -1.15463 0
M  V30 3496 O 340.411 -5.65683 -0.631803 0
M  V30 3497 N 341.613 -5.24656 -2.48427 0
M  V30 3498 H 344.378 -2.88047 0.827582 0
M  V30 3499 H 341.939 -1.50957 0.585112 0
M  V30 3500 H 343.931 -3.73657 -1.55443 0
M  V30 3501 H 342.501 -2.676 -1.61583 0
M  V30 3502 H 341.721 -3.9041 0.545286 0
M  V30 3503 H 343.009 -5.08244 0.237891 0
M  V30 3504 H 342.407 -4.83679 -2.93379 0
M  V30 3505 H 340.964 -5.76258 -3.04582 0
M  V30 3506 N 344.397 -0.483516 -1.5 0
M  V30 3507 C 345.813 -0.138404 -1.58999 0
M  V30 3508 C 346.013 1.35597 -1.4905 0
M  V30 3509 O 345.069 2.13039 -1.35539 0
M  V30 3510 C 346.382 -0.699658 -2.92447 0
M  V30 3511 C 347.93 -0.664195 -3.05872 0
M  V30 3512 C 348.405 -1.20321 -4.41913 0
M  V30 3513 N 349.896 -1.16315 -4.48358 0
M  V30 3514 C 350.631 -1.55058 -5.52037 0
M  V30 3515 N 350.127 -2.01311 -6.62907 0
M  V30 3516 N 351.92 -1.46584 -5.42651 0
M  V30 3517 H 344.071 -1.45529 -1.5471 0
M  V30 3518 H 346.334 -0.60258 -0.731848 0
M  V30 3519 H 346.04 -1.747 -3.05242 0
M  V30 3520 H 345.914 -0.150194 -3.76901 0
M  V30 3521 H 348.301 0.374272 -2.92717 0
M  V30 3522 H 348.382 -1.25061 -2.23144 0
M  V30 3523 H 348.026 -2.24037 -4.55818 0
M  V30 3524 H 347.956 -0.592896 -5.23252 0
M  V30 3525 H 350.447 -0.824058 -3.68806 0
M  V30 3526 H 350.76 -2.2899 -7.38095 0
M  V30 3527 H 349.105 -2.05273 -6.63994 0
M  V30 3528 H 352.296 -1.10281 -4.54924 0
M  V30 3529 H 352.469 -1.77103 -6.23329 0
M  V30 3530 N 345.875 1.56104 -0.216619 0
M  V30 3531 C 346.805 2.23063 0.690296 0
M  V30 3532 C 347.786 1.20072 1.20485 0
M  V30 3533 O 348.971 1.48643 1.24976 0
M  V30 3534 C 346.101 2.90672 1.90072 0
M  V30 3535 C 345.055 4.00092 1.5202 0
M  V30 3536 C 344.381 4.54972 2.80899 0
M  V30 3537 C 345.681 5.17398 0.71391 0
M  V30 3538 H 347.375 2.99109 0.132038 0
M  V30 3539 H 344.921 1.43866 0.0620664 0
M  V30 3540 H 346.874 3.36204 2.54057 0
M  V30 3541 H 345.598 2.12066 2.48386 0
M  V30 3542 H 344.257 3.55283 0.903839 0
M  V30 3543 H 343.905 3.73102 3.37348 0
M  V30 3544 H 343.605 5.28817 2.56176 0
M  V30 3545 H 345.129 5.0322 3.45836 0
M  V30 3546 H 346.543 5.59342 1.25735 0
M  V30 3547 H 344.94 5.97444 0.563951 0
M  V30 3548 H 346.01 4.84088 -0.280527 0
M  V30 3549 N 347.353 -0.0568162 1.57498 0
M  V30 3550 C 348.601 -0.751617 1.87604 0
M  V30 3551 C 348.922 -1.77351 0.81066 0
M  V30 3552 O 348.192 -1.95254 -0.159018 0
M  V30 3553 H 346.772 -0.280583 0.692302 0
M  V30 3554 H 349.434 -0.0293483 1.94878 0
M  V30 3555 H 348.53 -1.25852 2.856 0
M  V30 3556 N 348.832 -1.54138 -0.328536 0
M  V30 3557 C 349.795 -1.82462 -1.38709 0
M  V30 3558 C 350.795 -0.696229 -1.44946 0
M  V30 3559 O 351.985 -0.964535 -1.4506 0
M  V30 3560 C 349.117 -1.98018 -2.77492 0
M  V30 3561 H 350.31 -2.77037 -1.14851 0
M  V30 3562 H 347.863 -1.45779 -0.563751 0
M  V30 3563 H 348.598 -1.05637 -3.06613 0
M  V30 3564 H 348.383 -2.80124 -2.74359 0
M  V30 3565 H 349.873 -2.21396 -3.54081 0
M  V30 3566 N 350.31 0.590341 -1.46126 0
M  V30 3567 C 351.587 1.35029 -1.41515 0
M  V30 3568 C 351.967 2.10888 -0.0946472 0
M  V30 3569 O 351.315 2.08998 0.923693 0
M  V30 3570 C 351.525 2.28269 -2.63997 0
M  V30 3571 C 352.873 2.90338 -3.09821 0
M  V30 3572 O 353.897 2.38585 -2.64492 0
M  V30 3573 O 352.756 3.84321 -3.88535 0
M  V30 3574 H 349.85 0.606317 -0.562413 0
M  V30 3575 H 352.396 0.611994 -1.58281 0
M  V30 3576 H 351.168 1.71591 -3.51671 0
M  V30 3577 H 350.791 3.0945 -2.49652 0
M  V30 3578 N 351.788 1.33704 0.83433 0
M  V30 3579 C 353.034 1.25603 1.59222 0
M  V30 3580 C 353.367 -0.176659 1.93395 0
M  V30 3581 O 352.642 -1.11915 1.59076 0
M  V30 3582 C 352.925 2.13576 2.89926 0
M  V30 3583 C 352.778 3.65326 2.62406 0
M  V30 3584 C 354.097 2.01238 3.91397 0
M  V30 3585 H 351.216 0.457613 0.577719 0
M  V30 3586 H 353.858 1.63848 0.961972 0
M  V30 3587 H 352.008 1.8109 3.43713 0
M  V30 3588 H 353.68 4.08124 2.15017 0
M  V30 3589 H 351.923 3.8698 1.96033 0
M  V30 3590 H 352.594 4.22232 3.55562 0
M  V30 3591 H 355.07 2.29738 3.46929 0
M  V30 3592 H 353.946 2.65036 4.80673 0
M  V30 3593 H 354.207 0.985951 4.30966 0
M  V30 3594 N 353.266 -1.05314 1.17247 0
M  V30 3595 C 354.494 -1.81971 0.984593 0
M  V30 3596 C 354.909 -1.82929 -0.467166 0
M  V30 3597 O 354.266 -1.25564 -1.32438 0
M  V30 3598 C 354.317 -3.28143 1.51672 0
M  V30 3599 O 354.038 -3.27347 2.91163 0
M  V30 3600 C 355.539 -4.21493 1.37326 0
M  V30 3601 H 352.759 -0.573455 0.348411 0
M  V30 3602 H 355.303 -1.32808 1.55506 0
M  V30 3603 H 353.458 -3.74582 0.988302 0
M  V30 3604 H 353.872 -4.18824 3.15732 0
M  V30 3605 H 355.346 -5.22043 1.79375 0
M  V30 3606 H 355.823 -4.38031 0.320169 0
M  V30 3607 H 356.429 -3.80909 1.89178 0
M  V30 3608 N 354.744 -0.972509 -1.24016 0
M  V30 3609 C 355.707 -0.511403 -2.23422 0
M  V30 3610 C 356.707 0.394679 -1.55881 0
M  V30 3611 O 357.897 0.189469 -1.73167 0
M  V30 3612 C 355.029 0.258769 -3.39916 0
M  V30 3613 H 356.222 -1.39024 -2.6573 0
M  V30 3614 H 353.775 -0.757585 -1.36713 0
M  V30 3615 H 354.51 1.1545 -3.03054 0
M  V30 3616 H 354.295 -0.391522 -3.9014 0
M  V30 3617 H 355.785 0.570244 -4.13688 0
M  V30 3618 N 356.222 1.38976 -0.743202 0
M  V30 3619 C 357.468 2.0064 -0.295189 0
M  V30 3620 C 357.801 1.5885 1.11716 0
M  V30 3621 O 357.076 0.821181 1.76315 0
M  V30 3622 C 357.359 3.578 -0.406318 0
M  V30 3623 C 357.212 4.09586 -1.85903 0
M  V30 3624 C 358.531 4.39616 0.206439 0
M  V30 3625 H 355.65 0.728935 -0.108733 0
M  V30 3626 H 358.292 1.65067 -0.940897 0
M  V30 3627 H 356.442 3.88235 0.143419 0
M  V30 3628 H 358.114 3.89837 -2.46627 0
M  V30 3629 H 356.357 3.6284 -2.3776 0
M  V30 3630 H 357.028 5.18708 -1.888 0
M  V30 3631 H 359.504 4.15273 -0.262283 0
M  V30 3632 H 358.38 5.48812 0.0983819 0
M  V30 3633 H 358.641 4.22754 1.2935 0
M  V30 3634 N 357.7 0.491464 1.49741 0
M  V30 3635 C 358.61 -0.296835 2.32715 0
M  V30 3636 C 359.626 -0.976536 1.44013 0
M  V30 3637 O 360.802 -0.960023 1.77047 0
M  V30 3638 C 357.867 -1.35288 3.19215 0
M  V30 3639 C 356.928 -0.687632 4.23757 0
M  V30 3640 C 356.161 -1.69336 5.06123 0
M  V30 3641 O 356.384 -2.92219 4.89861 0
M  V30 3642 O 355.318 -1.25394 5.88693 0
M  V30 3643 H 359.144 0.382048 3.01287 0
M  V30 3644 H 356.729 0.252953 1.47243 0
M  V30 3645 H 358.611 -1.96411 3.72828 0
M  V30 3646 H 357.286 -2.01487 2.53347 0
M  V30 3647 H 356.193 -0.0369159 3.74082 0
M  V30 3648 H 357.526 -0.0682566 4.92153 0
M  V30 3649 N 359.178 -1.55987 0.224894 0
M  V30 3650 C 360.425 -1.9839 -0.4059 0
M  V30 3651 C 360.753 -1.11261 -1.59535 0
M  V30 3652 O 360.008 -0.158314 -1.95059 0
M  V30 3653 C 360.307 -3.46394 -0.880106 0
M  V30 3654 C 359.973 -4.5046 0.19918 0
M  V30 3655 C 358.635 -4.7864 0.495661 0
M  V30 3656 C 360.987 -5.12855 0.928939 0
M  V30 3657 C 358.315 -5.66497 1.52636 0
M  V30 3658 C 360.667 -6.01828 1.949 0
M  V30 3659 C 359.331 -6.28351 2.25236 0
M  V30 3660 H 358.601 -0.725961 -0.148529 0
M  V30 3661 H 361.248 -1.88668 0.328113 0
M  V30 3662 H 359.553 -3.53337 -1.69294 0
M  V30 3663 H 361.25 -3.76577 -1.37808 0
M  V30 3664 H 357.84 -4.28579 -0.0420526 0
M  V30 3665 H 362.024 -4.9115 0.713129 0
M  V30 3666 H 357.28 -5.8531 1.76698 0
M  V30 3667 H 361.454 -6.49225 2.51951 0
M  V30 3668 H 359.081 -6.96226 3.05244 0
M  V30 3669 N 360.656 0.0484629 -1.57525 0
M  V30 3670 C 361.586 1.0549 -2.08313 0
M  V30 3671 C 362.567 1.38929 -0.981463 0
M  V30 3672 O 363.752 1.48151 -1.25558 0
M  V30 3673 C 360.882 2.36162 -2.54646 0
M  V30 3674 C 359.836 2.17016 -3.68901 0
M  V30 3675 C 359.162 3.53278 -4.01371 0
M  V30 3676 C 360.462 1.57219 -4.98076 0
M  V30 3677 H 362.156 0.632195 -2.92649 0
M  V30 3678 H 359.702 0.302654 -1.40784 0
M  V30 3679 H 361.655 3.06882 -2.88793 0
M  V30 3680 H 360.379 2.80456 -1.67368 0
M  V30 3681 H 359.038 1.48733 -3.35073 0
M  V30 3682 H 358.686 3.95185 -3.11188 0
M  V30 3683 H 358.386 3.41299 -4.78318 0
M  V30 3684 H 359.91 4.25391 -4.38035 0
M  V30 3685 H 361.324 2.17832 -5.30304 0
M  V30 3686 H 359.721 1.55871 -5.79503 0
M  V30 3687 H 360.791 0.535956 -4.81929 0
M  V30 3688 N 362.134 1.5431 0.320358 0
M  V30 3689 C 363.382 1.72327 1.05583 0
M  V30 3690 C 363.703 0.50149 1.88441 0
M  V30 3691 O 362.973 -0.48448 1.89815 0
M  V30 3692 H 361.553 0.635387 0.3928 0
M  V30 3693 H 364.215 1.91621 0.356019 0
M  V30 3694 H 363.311 2.60426 1.72003 0
M  V30 3695 N 363.613 -0.582584 1.46437 0
M  V30 3696 C 364.563 -1.68654 1.53426 0
M  V30 3697 C 365.547 -1.55971 0.395194 0
M  V30 3698 O 366.739 -1.64884 0.643612 0
M  V30 3699 C 363.868 -3.07439 1.52762 0
M  V30 3700 C 362.954 -3.25418 2.71963 0
M  V30 3701 N 363.345 -3.13556 3.96883 0
M  V30 3702 C 361.643 -3.56357 2.68189 0
M  V30 3703 C 362.344 -3.33543 4.76575 0
M  V30 3704 N 361.32 -3.58704 4.08451 0
M  V30 3705 H 365.122 -1.58014 2.47808 0
M  V30 3706 H 362.636 -0.786617 1.42078 0
M  V30 3707 H 364.633 -3.86671 1.55857 0
M  V30 3708 H 363.293 -3.1921 0.594573 0
M  V30 3709 H 364.304 -2.9142 4.28129 0
M  V30 3710 H 360.981 -3.74812 1.83908 0
M  V30 3711 H 362.371 -3.29555 5.85528 0
M  V30 3712 N 365.091 -1.34144 -0.827227 0
M  V30 3713 C 366.337 -1.26446 -1.58554 0
M  V30 3714 C 366.67 0.1664 -1.93486 0
M  V30 3715 O 365.945 1.1107 -1.59667 0
M  V30 3716 C 366.228 -2.15111 -2.8879 0
M  V30 3717 C 366.081 -3.66712 -2.60465 0
M  V30 3718 C 367.4 -2.03311 -3.90324 0
M  V30 3719 H 364.519 -0.46067 -0.575284 0
M  V30 3720 H 367.161 -1.64356 -0.953269 0
M  V30 3721 H 365.311 -1.8291 -3.42748 0
M  V30 3722 H 366.983 -4.09259 -2.1285 0
M  V30 3723 H 365.226 -3.88014 -1.93978 0
M  V30 3724 H 365.897 -4.24112 -3.53317 0
M  V30 3725 H 368.373 -2.31574 -3.45706 0
M  V30 3726 H 367.249 -2.67582 -4.79261 0
M  V30 3727 H 367.51 -1.00879 -4.30437 0
M  V30 3728 N 366.569 1.04691 -1.17803 0
M  V30 3729 C 367.817 1.7743 -0.967617 0
M  V30 3730 C 368.138 1.88359 0.504574 0
M  V30 3731 O 367.408 1.40402 1.36617 0
M  V30 3732 H 365.988 0.657242 -0.355024 0
M  V30 3733 H 368.65 1.2638 -1.48371 0
M  V30 3734 H 367.746 2.78924 -1.40027 0
M  V30 3735 N 368.047 0.979072 1.23499 0
M  V30 3736 C 369.295 0.645941 1.91499 0
M  V30 3737 C 369.616 -0.822948 1.76784 0
M  V30 3738 O 368.886 -1.58854 1.14639 0
M  V30 3739 H 367.466 0.235919 0.708767 0
M  V30 3740 H 370.128 1.2426 1.50152 0
M  V30 3741 H 369.224 0.896411 2.9895 0
M  V30 3742 N 369.525 -1.3858 0.750561 0
M  V30 3743 C 370.771 -2.00481 0.305825 0
M  V30 3744 C 371.104 -1.5944 -1.10872 0
M  V30 3745 O 370.379 -0.83052 -1.75877 0
M  V30 3746 C 370.662 -3.5758 0.425287 0
M  V30 3747 C 370.515 -4.08594 1.88072 0
M  V30 3748 C 371.834 -4.39719 -0.183122 0
M  V30 3749 H 368.953 -0.728348 0.112598 0
M  V30 3750 H 371.595 -1.64566 0.949638 0
M  V30 3751 H 369.745 -3.88306 -0.122828 0
M  V30 3752 H 371.417 -3.88523 2.48691 0
M  V30 3753 H 369.66 -3.61574 2.39681 0
M  V30 3754 H 370.331 -5.177 1.91548 0
M  V30 3755 H 372.807 -4.15128 0.284303 0
M  V30 3756 H 371.683 -5.48856 -0.0692757 0
M  V30 3757 H 371.944 -4.23434 -1.27106 0
M  V30 3758 N 371.003 -0.499398 -1.49478 0
M  V30 3759 C 372.251 0.0455996 -2.02049 0
M  V30 3760 C 372.572 1.37633 -1.38138 0
M  V30 3761 O 371.842 1.8842 -0.536166 0
M  V30 3762 H 370.422 0.0198416 -0.746736 0
M  V30 3763 H 373.084 -0.656274 -1.83519 0
M  V30 3764 H 372.18 0.176445 -3.11601 0
M  V30 3765 N 372.481 1.55866 -0.233164 0
M  V30 3766 C 373.73 1.97779 0.39579 0
M  V30 3767 C 374.043 1.12419 1.60066 0
M  V30 3768 O 375.249 1.44283 2.29988 0
M  V30 3769 C 373.705 3.5188 0.755556 0
M  V30 3770 C 373.313 4.45959 -0.427152 0
M  V30 3771 C 375.057 4.02479 1.34946 0
M  V30 3772 C 372.964 5.91383 -0.0443043 0
M  V30 3773 H 371.894 0.738592 0.15165 0
M  V30 3774 H 374.545 1.80486 -0.331212 0
M  V30 3775 H 372.927 3.64816 1.5403 0
M  V30 3776 H 374.101 4.44776 -1.20462 0
M  V30 3777 H 372.416 4.05765 -0.935068 0
M  V30 3778 H 375.013 5.08637 1.649 0
M  V30 3779 H 375.356 3.49014 2.26925 0
M  V30 3780 H 375.889 3.92813 0.62791 0
M  V30 3781 H 372.628 6.48857 -0.930874 0
M  V30 3782 H 372.148 5.95734 0.697238 0
M  V30 3783 H 373.827 6.45893 0.378334 0
M  V30 3784 N 373.959 -0.0401083 1.57549 0
M  V30 3785 C 375.236 -0.767917 1.79896 0
M  V30 3786 C 375.616 -1.9416 0.82856 0
M  V30 3787 O 374.964 -2.2812 -0.131671 0
M  V30 3788 C 375.174 -1.2113 3.27305 0
M  V30 3789 C 376.522 -1.63175 3.91994 0
M  V30 3790 O 377.546 -1.30616 3.31388 0
M  V30 3791 O 376.405 -2.23565 4.98679 0
M  V30 3792 H 373.499 -0.370441 0.739393 0
M  V30 3793 H 376.045 -0.017737 1.69691 0
M  V30 3794 H 374.817 -0.372937 3.89519 0
M  V30 3795 H 374.44 -2.02183 3.42356 0
M  V30 3796 N 375.437 -1.54477 -0.31217 0
M  V30 3797 C 376.37 -1.79519 -1.40884 0
M  V30 3798 C 377.348 -0.645753 -1.49227 0
M  V30 3799 O 378.532 -0.884468 -1.66461 0
M  V30 3800 C 375.659 -1.92194 -2.78889 0
M  V30 3801 C 374.705 -3.14555 -2.88023 0
M  V30 3802 S 375.538 -4.72893 -2.51262 0
M  V30 3803 C 376.694 -4.8849 -3.91317 0
M  V30 3804 H 376.927 -2.72256 -1.19432 0
M  V30 3805 H 374.46 -1.45746 -0.509654 0
M  V30 3806 H 376.418 -2.00182 -3.58382 0
M  V30 3807 H 375.079 -1.00414 -2.97617 0
M  V30 3808 H 374.272 -3.20193 -3.89221 0
M  V30 3809 H 373.874 -3.04955 -2.16514 0
M  V30 3810 H 376.166 -4.71826 -4.86196 0
M  V30 3811 H 377.109 -5.90588 -3.90656 0
M  V30 3812 H 377.517 -4.16715 -3.80801 0
M  V30 3813 N 376.915 0.57481 -1.46744 0
M  V30 3814 C 377.825 1.711 -1.60505 0
M  V30 3815 C 378.841 1.67008 -0.488307 0
M  V30 3816 O 380.017 1.86774 -0.753495 0
M  V30 3817 C 377.082 3.07608 -1.59932 0
M  V30 3818 C 376.143 3.22904 -2.82898 0
M  V30 3819 C 375.376 4.529 -2.82343 0
M  V30 3820 O 375.599 5.37278 -1.91542 0
M  V30 3821 O 374.533 4.71611 -3.73987 0
M  V30 3822 H 378.359 1.62436 -2.56609 0
M  V30 3823 H 375.944 0.742779 -1.29627 0
M  V30 3824 H 377.826 3.88877 -1.62336 0
M  V30 3825 H 376.501 3.16692 -0.669898 0
M  V30 3826 H 375.408 2.41099 -2.86046 0
M  V30 3827 H 376.741 3.18715 -3.75076 0
M  V30 3828 N 378.394 1.34581 0.820102 0
M  V30 3829 C 379.643 1.26437 1.57151 0
M  V30 3830 C 379.956 -0.163111 1.94919 0
M  V30 3831 O 381.162 -0.366722 2.69012 0
M  V30 3832 C 379.618 2.21658 2.83541 0
M  V30 3833 C 379.226 3.69679 2.53065 0
M  V30 3834 C 380.97 2.22428 3.61561 0
M  V30 3835 C 378.877 4.56761 3.75664 0
M  V30 3836 H 377.807 0.469707 0.589823 0
M  V30 3837 H 380.458 1.59763 0.902656 0
M  V30 3838 H 378.84 1.81287 3.52067 0
M  V30 3839 H 380.014 4.18605 1.92631 0
M  V30 3840 H 378.329 3.71384 1.88316 0
M  V30 3841 H 380.926 2.8471 4.52597 0
M  V30 3842 H 381.269 1.22434 3.97889 0
M  V30 3843 H 381.802 2.61259 2.99981 0
M  V30 3844 H 378.541 5.57702 3.44454 0
M  V30 3845 H 378.061 4.12568 4.35371 0
M  V30 3846 H 379.74 4.71509 4.43044 0
M  V30 3847 N 379.872 -1.04064 1.18357 0
M  V30 3848 C 381.097 -1.81454 1.00445 0
M  V30 3849 C 381.522 -1.82823 -0.442423 0
M  V30 3850 O 380.88 -1.24555 -1.31741 0
M  V30 3851 C 380.928 -3.24925 1.56384 0
M  V30 3852 O 380.032 -4.04856 0.785209 0
M  V30 3853 H 379.373 -0.560604 0.355835 0
M  V30 3854 H 381.903 -1.31059 1.57114 0
M  V30 3855 H 381.913 -3.75702 1.59097 0
M  V30 3856 H 380.588 -3.23244 2.61699 0
M  V30 3857 H 379.165 -3.63537 0.830399 0
M  V30 3858 N 381.35 -0.985608 -1.22978 0
M  V30 3859 C 382.297 -0.529825 -2.24636 0
M  V30 3860 C 383.267 0.434028 -1.60329 0
M  V30 3861 O 384.452 0.340414 -1.87739 0
M  V30 3862 C 381.592 0.156533 -3.44745 0
M  V30 3863 C 380.705 -0.848197 -4.23591 0
M  V30 3864 C 379.84 -0.136109 -5.31026 0
M  V30 3865 C 378.879 -1.1297 -6.01585 0
M  V30 3866 N 378.016 -0.446415 -7.00679 0
M  V30 3867 H 382.856 -1.40148 -2.62988 0
M  V30 3868 H 380.393 -0.702168 -1.29259 0
M  V30 3869 H 382.351 0.571324 -4.1327 0
M  V30 3870 H 380.981 0.992025 -3.07179 0
M  V30 3871 H 380.033 -1.38135 -3.54433 0
M  V30 3872 H 381.345 -1.60512 -4.72268 0
M  V30 3873 H 380.499 0.335784 -6.0577 0
M  V30 3874 H 379.238 0.653373 -4.83304 0
M  V30 3875 H 378.243 -1.6123 -5.25628 0
M  V30 3876 H 379.468 -1.91993 -6.51395 0
M  V30 3877 H 377.414 0.323763 -6.55201 0
M  V30 3878 H 377.331 -1.1419 -7.47326 0
M  V30 3879 H 378.599 0.00291697 -7.795 0
M  V30 3880 N 382.828 1.3818 -0.7579 0
M  V30 3881 C 383.776 2.32277 -0.122482 0
M  V30 3882 C 384.77 1.54238 0.700505 0
M  V30 3883 O 385.976 1.69737 0.599119 0
M  V30 3884 H 382.351 0.751712 -0.0208143 0
M  V30 3885 H 384.322 2.83469 -0.932099 0
M  V30 3886 C 383.071 3.39447 0.753076 0
M  V30 3887 H 382.394 3.99591 0.129184 0
M  V30 3888 H 383.834 4.07684 1.16489 0
M  V30 3889 C 382.293 2.78375 1.8976 0
M  V30 3890 O 382.823 2.68025 2.99208 0
M  V30 3891 N 381.029 2.36121 1.69397 0
M  V30 3892 H 380.576 2.4474 0.803762 0
M  V30 3893 H 380.534 1.95602 2.46145 0
M  V30 3894 N 384.306 0.507319 1.49211 0
M  V30 3895 C 385.553 -0.0349529 2.0247 0
M  V30 3896 C 385.881 -1.36409 1.38647 0
M  V30 3897 O 385.136 -1.88841 0.513566 0
M  V30 3898 C 385.435 -0.229513 3.56662 0
M  V30 3899 C 385.101 1.02241 4.39156 0
M  V30 3900 C 383.763 1.36557 4.61417 0
M  V30 3901 C 386.115 1.85428 4.871 0
M  V30 3902 C 383.443 2.53999 5.28868 0
M  V30 3903 C 385.795 3.02028 5.55843 0
M  V30 3904 C 384.459 3.36717 5.76349 0
M  V30 3905 H 383.729 -0.0127902 0.74089 0
M  V30 3906 H 386.376 0.668756 1.79443 0
M  V30 3907 H 384.681 -1.0158 3.78403 0
M  V30 3908 H 386.378 -0.663641 3.9547 0
M  V30 3909 H 382.968 0.745124 4.22073 0
M  V30 3910 H 387.152 1.6023 4.69723 0
M  V30 3911 H 382.408 2.81105 5.42946 0
M  V30 3912 H 386.582 3.66808 5.91967 0
M  V30 3913 H 384.209 4.27821 6.28389 0
M  V30 3914 N 385.784 -1.5574 0.241426 0
M  V30 3915 C 386.716 -2.18469 -0.693091 0
M  V30 3916 C 387.729 -1.15942 -1.14286 0
M  V30 3917 O 388.918 -1.42832 -1.07058 0
M  V30 3918 C 386.018 -2.7696 -1.95311 0
M  V30 3919 C 385.191 -4.04853 -1.65568 0
M  V30 3920 C 384.25 -4.47715 -2.76474 0
M  V30 3921 O 383.276 -5.14205 -2.44094 0
M  V30 3922 N 384.478 -4.15044 -4.05855 0
M  V30 3923 H 387.243 -2.99292 -0.156388 0
M  V30 3924 H 384.804 -1.61784 0.0611752 0
M  V30 3925 H 386.796 -3.02594 -2.68736 0
M  V30 3926 H 385.366 -2.00326 -2.39975 0
M  V30 3927 H 384.586 -3.86865 -0.756886 0
M  V30 3928 H 385.874 -4.88246 -1.43153 0
M  V30 3929 H 385.272 -3.61654 -4.34998 0
M  V30 3930 H 383.829 -4.45526 -4.75762 0
M  V30 3931 N 387.262 0.0317525 -1.57568 0
M  V30 3932 C 388.678 0.38735 -1.54828 0
M  V30 3933 C 388.878 1.7677 -0.967187 0
M  V30 3934 O 387.934 2.45581 -0.587063 0
M  V30 3935 C 389.247 0.291667 -2.99282 0
M  V30 3936 C 390.795 0.368946 -3.10818 0
M  V30 3937 C 391.27 0.302741 -4.56998 0
M  V30 3938 N 392.761 0.361617 -4.61786 0
M  V30 3939 C 393.496 0.333238 -5.72431 0
M  V30 3940 N 392.992 0.257308 -6.92322 0
M  V30 3941 N 394.785 0.382769 -5.60795 0
M  V30 3942 H 386.936 -0.871609 -1.93692 0
M  V30 3943 H 389.199 -0.331161 -0.888277 0
M  V30 3944 H 388.905 -0.656794 -3.45513 0
M  V30 3945 H 388.779 1.08638 -3.61217 0
M  V30 3946 H 391.166 1.30784 -2.64536 0
M  V30 3947 H 391.247 -0.455066 -2.5172 0
M  V30 3948 H 390.891 -0.632473 -5.03947 0
M  V30 3949 H 390.821 1.14482 -5.14005 0
M  V30 3950 H 393.312 0.422923 -3.75526 0
M  V30 3951 H 393.625 0.24068 -7.72425 0
M  V30 3952 H 391.97 0.223396 -6.94641 0
M  V30 3953 H 395.161 0.44006 -4.66027 0
M  V30 3954 H 395.334 0.357184 -6.47015 0
M  V30 3955 N 388.74 1.54641 0.303973 0
M  V30 3956 C 389.989 1.7299 1.03717 0
M  V30 3957 C 390.302 0.521168 1.88529 0
M  V30 3958 O 391.508 0.586408 2.65092 0
M  V30 3959 C 389.964 3.06051 1.89369 0
M  V30 3960 C 389.572 4.34393 1.09574 0
M  V30 3961 C 391.316 3.3376 2.62306 0
M  V30 3962 C 389.223 5.58506 1.94486 0
M  V30 3963 H 388.153 0.64473 0.390947 0
M  V30 3964 H 390.804 1.81124 0.294328 0
M  V30 3965 H 389.186 2.91874 2.67629 0
M  V30 3966 H 390.36 4.59396 0.359485 0
M  V30 3967 H 388.675 4.13597 0.482324 0
M  V30 3968 H 391.272 4.23687 3.26181 0
M  V30 3969 H 391.615 2.52503 3.3098 0
M  V30 3970 H 392.148 3.48894 1.91097 0
M  V30 3971 H 388.887 6.42422 1.30287 0
M  V30 3972 H 388.407 5.37694 2.65792 0
M  V30 3973 H 390.086 5.95651 2.52605 0
M  V30 3974 N 390.218 -0.567019 1.47046 0
M  V30 3975 C 391.148 -1.68482 1.61667 0
M  V30 3976 C 392.129 -1.6358 0.466418 0
M  V30 3977 O 393.314 -1.81354 0.694574 0
M  V30 3978 C 390.444 -3.07124 1.62148 0
M  V30 3979 C 389.398 -3.26867 2.76301 0
M  V30 3980 C 388.724 -4.66196 2.61849 0
M  V30 3981 C 390.024 -3.13186 4.17986 0
M  V30 3982 H 391.718 -1.56502 2.5524 0
M  V30 3983 H 389.264 -0.751486 1.22836 0
M  V30 3984 H 391.217 -3.8516 1.70968 0
M  V30 3985 H 389.941 -3.2004 0.651287 0
M  V30 3986 H 388.6 -2.51237 2.66975 0
M  V30 3987 H 388.248 -4.75898 1.62879 0
M  V30 3988 H 387.948 -4.80356 3.38425 0
M  V30 3989 H 389.472 -5.46379 2.72584 0
M  V30 3990 H 390.886 -3.81049 4.2834 0
M  V30 3991 H 389.283 -3.3886 4.95272 0
M  V30 3992 H 390.353 -2.10057 4.3704 0
M  V30 3993 N 391.696 -1.35014 -0.812953 0
M  V30 3994 C 392.628 -1.23262 -1.93233 0
M  V30 3995 C 393.641 -0.157371 -1.62038 0
M  V30 3996 O 394.83 -0.410096 -1.73725 0
M  V30 3997 C 391.93 -0.87392 -3.27438 0
M  V30 3998 C 391.103 -2.04622 -3.86586 0
M  V30 3999 C 390.162 -1.66432 -4.99186 0
M  V30 4000 O 389.188 -2.38222 -5.16951 0
M  V30 4001 N 390.39 -0.584248 -5.77552 0
M  V30 4002 H 393.155 -2.19699 -2.03844 0
M  V30 4003 H 390.716 -1.281 -0.99005 0
M  V30 4004 H 392.708 -0.600039 -4.00227 0
M  V30 4005 H 391.278 0.00057392 -3.126 0
M  V30 4006 H 390.498 -2.48427 -3.06068 0
M  V30 4007 H 391.786 -2.82999 -4.22835 0
M  V30 4008 H 391.184 0.0123526 -5.65699 0
M  V30 4009 H 389.741 -0.37013 -6.50748 0
M  V30 4010 N 393.175 1.03435 -1.18907 0
M  V30 4011 C 394.122 2.11591 -0.921837 0
M  V30 4012 C 395.092 1.65499 0.141226 0
M  V30 4013 O 396.277 1.908 0.000242829 0
M  V30 4014 C 393.417 3.42012 -0.460616 0
M  V30 4015 C 392.53 4.01682 -1.58982 0
M  V30 4016 C 391.665 5.20091 -1.08069 0
M  V30 4017 C 390.704 5.71805 -2.18416 0
M  V30 4018 N 389.841 6.81494 -1.68849 0
M  V30 4019 H 394.681 2.33787 -1.8479 0
M  V30 4020 H 392.218 1.1467 -0.921373 0
M  V30 4021 H 394.176 4.16834 -0.174642 0
M  V30 4022 H 392.806 3.19944 0.428467 0
M  V30 4023 H 391.858 3.24127 -1.99113 0
M  V30 4024 H 393.17 4.36084 -2.4214 0
M  V30 4025 H 392.324 6.02051 -0.749615 0
M  V30 4026 H 391.063 4.87209 -0.218771 0
M  V30 4027 H 390.068 4.88461 -2.5236 0
M  V30 4028 H 391.293 6.06728 -3.05054 0
M  V30 4029 H 389.239 6.50475 -0.849572 0
M  V30 4030 H 389.156 7.14994 -2.45601 0
M  V30 4031 H 390.424 7.67063 -1.38689 0
M  V30 4032 N 394.653 0.992116 1.22453 0
M  V30 4033 C 395.585 0.500024 2.23679 0
M  V30 4034 C 396.598 -0.404463 1.57696 0
M  V30 4035 O 397.787 -0.206722 1.77299 0
M  V30 4036 C 394.887 -0.294711 3.37616 0
M  V30 4037 C 394.06 0.605723 4.33186 0
M  V30 4038 C 393.119 -0.13717 5.26021 0
M  V30 4039 O 392.145 0.477164 5.67196 0
M  V30 4040 N 393.347 -1.4197 5.62872 0
M  V30 4041 H 396.112 1.37045 2.66531 0
M  V30 4042 H 393.673 0.866741 1.36745 0
M  V30 4043 H 395.665 -0.800329 3.96707 0
M  V30 4044 H 394.235 -1.06623 2.93854 0
M  V30 4045 H 393.455 1.29202 3.72425 0
M  V30 4046 H 394.743 1.21896 4.93983 0
M  V30 4047 H 394.141 -1.94015 5.31389 0
M  V30 4048 H 392.698 -1.87052 6.24383 0
M  V30 4049 N 396.131 -1.37776 0.765217 0
M  V30 4050 C 397.379 -1.99454 0.325943 0
M  V30 4051 C 397.7 -1.61049 -1.09947 0
M  V30 4052 O 396.97 -0.872821 -1.75381 0
M  V30 4053 H 395.55 -0.737697 0.117525 0
M  V30 4054 H 398.212 -1.68359 0.981895 0
M  V30 4055 H 397.308 -3.09547 0.398353 0
M  V30 4056 N 397.609 -0.515225 -1.4894 0
M  V30 4057 C 398.856 0.024215 -2.02486 0
M  V30 4058 C 399.184 1.35671 -1.39368 0
M  V30 4059 O 398.439 1.88566 -0.523574 0
M  V30 4060 C 398.738 0.210595 -3.56779 0
M  V30 4061 C 398.404 -1.04569 -4.38607 0
M  V30 4062 C 397.066 -1.39002 -4.60686 0
M  V30 4063 C 399.418 -1.88008 -4.86109 0
M  V30 4064 C 396.746 -2.568 -5.27514 0
M  V30 4065 C 399.098 -3.04972 -5.54234 0
M  V30 4066 C 397.762 -3.39768 -5.74555 0
M  V30 4067 H 397.032 0.00886088 -0.740947 0
M  V30 4068 H 399.679 -0.678263 -1.79086 0
M  V30 4069 H 397.984 0.99572 -3.78936 0
M  V30 4070 H 399.681 0.642659 -3.95817 0
M  V30 4071 H 396.271 -0.767497 -4.21672 0
M  V30 4072 H 400.455 -1.62719 -4.68867 0
M  V30 4073 H 395.711 -2.8398 -5.41447 0
M  V30 4074 H 399.885 -3.69943 -5.90013 0
M  V30 4075 H 397.512 -4.31148 -6.26112 0
M  V30 4076 N 399.087 1.5561 -0.249682 0
M  V30 4077 C 400.034 2.21496 0.648694 0
M  V30 4078 C 401.004 1.17977 1.16921 0
M  V30 4079 O 402.189 1.46434 1.22318 0
M  V30 4080 C 399.329 2.92039 1.83868 0
M  V30 4081 C 398.442 4.10219 1.35442 0
M  V30 4082 C 397.577 4.6847 2.50419 0
M  V30 4083 C 396.616 5.78893 1.98869 0
M  V30 4084 N 395.753 6.31315 3.07223 0
M  V30 4085 H 400.593 2.97892 0.0801582 0
M  V30 4086 H 398.13 1.47074 0.0278031 0
M  V30 4087 H 400.088 3.31138 2.53778 0
M  V30 4088 H 398.718 2.18111 2.37965 0
M  V30 4089 H 397.77 3.76413 0.54928 0
M  V30 4090 H 399.082 4.89927 0.936649 0
M  V30 4091 H 398.236 5.10158 3.28366 0
M  V30 4092 H 396.975 3.87984 2.95499 0
M  V30 4093 H 395.98 5.3668 1.19393 0
M  V30 4094 H 397.205 6.61232 1.54755 0
M  V30 4095 H 395.151 5.53733 3.51732 0
M  V30 4096 H 395.068 7.06224 2.69784 0
M  V30 4097 H 396.336 6.77662 3.8522 0
M  V30 4098 N 400.565 -0.0233959 1.57583 0
M  V30 4099 C 401.812 -0.713063 1.8953 0
M  V30 4100 C 402.14 -1.75056 0.847673 0
M  V30 4101 O 401.395 -1.95119 -0.150636 0
M  V30 4102 C 401.694 -1.41428 3.28227 0
M  V30 4103 C 401.36 -0.512222 4.47981 0
M  V30 4104 C 400.022 -0.263785 4.80476 0
M  V30 4105 C 402.374 0.110248 5.21083 0
M  V30 4106 C 399.702 0.615804 5.83459 0
M  V30 4107 C 402.054 0.977573 6.25001 0
M  V30 4108 C 400.718 1.23542 6.55968 0
M  V30 4109 H 399.988 -0.260928 0.69354 0
M  V30 4110 H 402.635 0.0271047 1.91481 0
M  V30 4111 H 400.94 -2.22791 3.22291 0
M  V30 4112 H 402.637 -1.95355 3.50196 0
M  V30 4113 H 399.227 -0.716013 4.22577 0
M  V30 4114 H 403.411 -0.0687137 4.96252 0
M  V30 4115 H 398.667 0.82382 6.05824 0
M  V30 4116 H 402.841 1.46638 6.80786 0
M  V30 4117 H 400.468 1.91871 7.35588 0
M  V30 4118 N 402.043 -1.548 -0.295768 0
M  V30 4119 C 402.99 -1.86113 -1.36494 0
M  V30 4120 C 403.96 -0.7105 -1.50137 0
M  V30 4121 O 405.145 -0.959626 -1.64912 0
M  V30 4122 C 402.285 -2.11861 -2.72413 0
M  V30 4123 C 401.398 -3.39471 -2.67177 0
M  V30 4124 C 400.533 -3.55035 -3.95125 0
M  V30 4125 C 399.572 -4.76418 -3.84308 0
M  V30 4126 N 398.709 -4.8876 -5.04042 0
M  V30 4127 H 403.549 -2.77314 -1.09091 0
M  V30 4128 H 401.086 -1.37315 -0.52753 0
M  V30 4129 H 403.044 -2.24786 -3.51464 0
M  V30 4130 H 401.674 -1.2392 -2.98066 0
M  V30 4131 H 400.726 -3.35139 -1.79962 0
M  V30 4132 H 402.038 -4.28646 -2.55076 0
M  V30 4133 H 401.192 -3.67653 -4.82614 0
M  V30 4134 H 399.931 -2.64002 -4.10066 0
M  V30 4135 H 398.936 -4.63827 -2.95202 0
M  V30 4136 H 400.161 -5.68863 -3.70906 0
M  V30 4137 H 398.107 -4.00652 -5.19436 0
M  V30 4138 H 398.024 -5.71945 -4.94384 0
M  V30 4139 H 399.292 -5.0574 -5.93167 0
M  V30 4140 N 403.521 0.559213 -1.47345 0
M  V30 4141 C 404.451 1.67622 -1.62558 0
M  V30 4142 C 405.432 1.63331 -0.475087 0
M  V30 4143 O 406.617 1.80983 -0.704182 0
M  V30 4144 C 403.747 3.0626 -1.63774 0
M  V30 4145 C 402.701 3.25397 -2.7803 0
M  V30 4146 C 402.027 4.64801 -2.64318 0
M  V30 4147 C 403.327 3.10965 -4.19641 0
M  V30 4148 H 405.021 1.55146 -2.56067 0
M  V30 4149 H 402.567 0.744961 -1.23233 0
M  V30 4150 H 404.52 3.84247 -1.73008 0
M  V30 4151 H 403.244 3.1969 -0.66825 0
M  V30 4152 H 401.903 2.49817 -2.68304 0
M  V30 4153 H 401.551 4.75028 -1.65401 0
M  V30 4154 H 401.251 4.78555 -3.40968 0
M  V30 4155 H 402.775 5.44926 -2.75478 0
M  V30 4156 H 404.189 3.78772 -4.30354 0
M  V30 4157 H 402.586 3.36229 -4.97062 0
M  V30 4158 H 403.656 2.07736 -4.38148 0
M  V30 4159 N 404.999 1.35443 0.805782 0
M  V30 4160 C 405.947 1.28465 1.93906 0
M  V30 4161 C 406.941 0.17943 1.68447 0
M  V30 4162 O 408.147 0.345459 1.76654 0
M  V30 4163 H 404.522 0.399528 0.637088 0
M  V30 4164 H 406.493 2.24206 1.96912 0
M  V30 4165 C 405.242 1.07432 3.30687 0
M  V30 4166 H 404.565 1.91716 3.50835 0
M  V30 4167 H 406.005 1.06591 4.10383 0
M  V30 4168 C 404.464 -0.22179 3.36169 0
M  V30 4169 O 404.994 -1.21731 3.82811 0
M  V30 4170 N 403.2 -0.260841 2.89427 0
M  V30 4171 H 402.747 0.549884 2.51663 0
M  V30 4172 H 402.705 -1.12777 2.93477 0
M  V30 4173 N 406.477 -1.02803 1.19454 0
M  V30 4174 C 407.705 -1.79841 1.02297 0
M  V30 4175 C 408.12 -1.83879 -0.428259 0
M  V30 4176 O 407.477 -1.28345 -1.29745 0
M  V30 4177 C 407.528 -3.24852 1.58598 0
M  V30 4178 O 407.249 -3.21097 2.98041 0
M  V30 4179 C 408.75 -4.18485 1.46236 0
M  V30 4180 H 405.97 -0.565936 0.360496 0
M  V30 4181 H 408.514 -1.2948 1.58288 0
M  V30 4182 H 406.669 -3.72401 1.06753 0
M  V30 4183 H 407.083 -4.12033 3.24545 0
M  V30 4184 H 408.557 -5.18121 1.90407 0
M  V30 4185 H 409.034 -4.37254 0.41301 0
M  V30 4186 H 409.64 -3.76811 1.97215 0
M  V30 4187 N 407.956 -0.998596 -1.21925 0
M  V30 4188 C 408.903 -0.553621 -2.24062 0
M  V30 4189 C 409.873 0.416999 -1.6078 0
M  V30 4190 O 411.058 0.320482 -1.88089 0
M  V30 4191 C 408.198 0.119959 -3.44891 0
M  V30 4192 C 407.311 -0.893077 -4.22668 0
M  V30 4193 C 406.446 -0.192424 -5.30851 0
M  V30 4194 C 405.485 -1.19344 -6.00353 0
M  V30 4195 N 404.622 -0.520707 -7.00166 0
M  V30 4196 H 409.462 -1.4293 -2.61486 0
M  V30 4197 H 406.999 -0.715838 -1.28507 0
M  V30 4198 H 408.957 0.527459 -4.13852 0
M  V30 4199 H 407.587 0.959389 -3.08214 0
M  V30 4200 H 406.639 -1.41886 -3.52948 0
M  V30 4201 H 407.951 -1.65512 -4.70539 0
M  V30 4202 H 407.105 0.271515 -6.06092 0
M  V30 4203 H 405.844 0.602075 -4.83969 0
M  V30 4204 H 404.849 -1.66795 -5.23889 0
M  V30 4205 H 406.074 -1.98891 -6.49322 0
M  V30 4206 H 404.02 0.254252 -6.55507 0
M  V30 4207 H 403.937 -1.2211 -7.46073 0
M  V30 4208 H 405.205 -0.0797596 -7.79459 0
M  V30 4209 N 409.434 1.37368 -0.772513 0
M  V30 4210 C 410.68 1.99969 -0.337681 0
M  V30 4211 C 411.013 1.61184 1.08321 0
M  V30 4212 O 410.288 0.858395 1.74533 0
M  V30 4213 C 410.571 3.56858 -0.482121 0
M  V30 4214 C 410.424 4.0555 -1.94549 0
M  V30 4215 C 411.743 4.39955 0.113143 0
M  V30 4216 H 408.862 0.726464 -0.124171 0
M  V30 4217 H 411.504 1.63034 -0.975699 0
M  V30 4218 H 409.654 3.88452 0.0610361 0
M  V30 4219 H 411.326 3.84518 -2.54841 0
M  V30 4220 H 409.569 3.57715 -2.45403 0
M  V30 4221 H 410.24 5.14587 -1.9976 0
M  V30 4222 H 412.716 4.14623 -0.35031 0
M  V30 4223 H 411.592 5.48897 -0.0180514 0
M  V30 4224 H 411.853 4.25403 1.20354 0
M  V30 4225 N 410.912 0.523116 1.48665 0
M  V30 4226 C 412.14 -0.0096312 2.06898 0
M  V30 4227 C 412.555 -1.28784 1.38059 0
M  V30 4228 O 411.912 -1.76453 0.465893 0
M  V30 4229 C 411.963 -0.244386 3.60673 0
M  V30 4230 O 411.684 0.983172 4.26925 0
M  V30 4231 C 413.185 -0.818289 4.35682 0
M  V30 4232 H 410.405 0.0304161 0.67031 0
M  V30 4233 H 412.949 0.726799 1.91149 0
M  V30 4234 H 411.104 -0.930847 3.76051 0
M  V30 4235 H 411.518 0.759653 5.1897 0
M  V30 4236 H 412.992 -0.93201 5.44075 0
M  V30 4237 H 413.469 -1.82153 3.99646 0
M  V30 4238 H 414.075 -0.168609 4.24966 0
M  V30 4239 N 412.39 -1.55475 0.257931 0
M  V30 4240 C 413.638 -1.98813 -0.363009 0
M  V30 4241 C 413.959 -1.14757 -1.57657 0
M  V30 4242 O 413.229 -0.232956 -1.9451 0
M  V30 4243 H 411.809 -0.734308 -0.137113 0
M  V30 4244 H 414.471 -1.9156 0.359281 0
M  V30 4245 H 413.567 -3.04941 -0.664634 0
M  V30 4246 N 413.868 0.0150385 -1.57593 0
M  V30 4247 C 414.831 0.995996 -2.06428 0
M  V30 4248 C 415.831 1.2818 -0.970903 0
M  V30 4249 O 417.021 1.22949 -1.23406 0
M  V30 4250 C 414.153 2.32506 -2.49307 0
M  V30 4251 H 415.346 0.573873 -2.94358 0
M  V30 4252 H 412.899 0.262186 -1.54085 0
M  V30 4253 H 413.634 2.79438 -1.64575 0
M  V30 4254 H 413.419 2.13087 -3.29145 0
M  V30 4255 H 414.909 3.02906 -2.87468 0
M  V30 4256 N 415.346 1.54954 0.287554 0
M  V30 4257 C 416.574 1.78881 1.03967 0
M  V30 4258 C 416.989 0.554894 1.80462 0
M  V30 4259 O 416.346 -0.475676 1.76192 0
M  V30 4260 C 416.397 3.00488 2.0097 0
M  V30 4261 O 416.118 4.19113 1.27577 0
M  V30 4262 C 417.619 3.36907 2.88112 0
M  V30 4263 H 414.839 0.596259 0.307761 0
M  V30 4264 H 417.383 2.01937 0.322749 0
M  V30 4265 H 415.538 2.79601 2.68145 0
M  V30 4266 H 415.952 4.87765 1.92835 0
M  V30 4267 H 417.426 4.25205 3.52001 0
M  V30 4268 H 417.903 2.55659 3.57121 0
M  V30 4269 H 418.509 3.60001 2.26449 0
M  V30 4270 N 416.824 -0.551391 1.4764 0
M  V30 4271 C 417.771 -1.65796 1.60563 0
M  V30 4272 C 418.741 -1.59932 0.448428 0
M  V30 4273 O 419.926 -1.78679 0.669222 0
M  V30 4274 C 417.066 -3.04108 1.63133 0
M  V30 4275 C 416.179 -3.20365 2.89811 0
M  V30 4276 C 415.314 -4.49109 2.8368 0
M  V30 4277 C 414.353 -4.58819 4.05156 0
M  V30 4278 N 413.49 -5.78926 3.97227 0
M  V30 4279 H 418.33 -1.54088 2.5507 0
M  V30 4280 H 415.867 -0.75052 1.26513 0
M  V30 4281 H 417.825 -3.84207 1.62606 0
M  V30 4282 H 416.455 -3.14637 0.721341 0
M  V30 4283 H 415.507 -2.33659 3.00179 0
M  V30 4284 H 416.819 -3.23402 3.79753 0
M  V30 4285 H 415.973 -5.37475 2.81434 0
M  V30 4286 H 414.712 -4.4856 1.91431 0
M  V30 4287 H 413.717 -3.68864 4.077 0
M  V30 4288 H 414.942 -4.61124 4.98539 0
M  V30 4289 H 412.888 -5.79314 3.07785 0
M  V30 4290 H 412.805 -5.83367 4.80853 0
M  V30 4291 H 414.073 -6.69637 3.99007 0
M  V30 4292 N 418.302 -1.35869 -0.798587 0
M  V30 4293 C 419.249 -1.29446 -1.91082 0
M  V30 4294 C 420.219 -0.16487 -1.6528 0
M  V30 4295 O 421.404 -0.349888 -1.87564 0
M  V30 4296 C 418.544 -1.0804 -3.27752 0
M  V30 4297 C 417.657 -2.29993 -3.65687 0
M  V30 4298 C 416.792 -2.01673 -4.91428 0
M  V30 4299 C 415.831 -3.19636 -5.22015 0
M  V30 4300 N 414.968 -2.91039 -6.38937 0
M  V30 4301 H 419.808 -2.24553 -1.95907 0
M  V30 4302 H 417.345 -1.11615 -0.958148 0
M  V30 4303 H 419.303 -0.936586 -4.06551 0
M  V30 4304 H 417.933 -0.16592 -3.22373 0
M  V30 4305 H 416.985 -2.55211 -2.82085 0
M  V30 4306 H 418.297 -3.18052 -3.84245 0
M  V30 4307 H 417.451 -1.84168 -5.78072 0
M  V30 4308 H 416.19 -1.10911 -4.74921 0
M  V30 4309 H 415.195 -3.37709 -4.33858 0
M  V30 4310 H 416.42 -4.11211 -5.40447 0
M  V30 4311 H 414.366 -2.0288 -6.2384 0
M  V30 4312 H 414.283 -3.72635 -6.57784 0
M  V30 4313 H 415.551 -2.77093 -7.28587 0
M  V30 4314 N 419.78 1.02168 -1.19998 0
M  V30 4315 C 421.005 1.79833 -1.03319 0
M  V30 4316 C 421.43 1.83504 0.413281 0
M  V30 4317 O 420.788 1.26635 1.29743 0
M  V30 4318 C 420.836 3.22396 -1.61533 0
M  V30 4319 O 419.94 4.03555 -0.849519 0
M  V30 4320 H 419.281 0.554872 -0.364709 0
M  V30 4321 H 421.811 1.28542 -1.59179 0
M  V30 4322 H 421.821 3.73124 -1.65054 0
M  V30 4323 H 420.496 3.19039 -2.66809 0
M  V30 4324 H 419.073 3.62169 -0.888129 0
M  V30 4325 N 421.258 1.00505 1.21394 0
M  V30 4326 C 422.535 0.603277 1.86064 0
M  V30 4327 C 422.915 -0.919095 1.90042 0
M  V30 4328 O 422.263 -1.80607 1.39977 0
M  V30 4329 C 422.473 1.23772 3.26315 0
M  V30 4330 C 423.821 1.34586 4.02705 0
M  V30 4331 O 424.845 1.19304 3.35626 0
M  V30 4332 O 423.704 1.59169 5.22807 0
M  V30 4333 H 420.798 0.206634 0.800769 0
M  V30 4334 H 423.344 1.1017 1.29076 0
M  V30 4335 H 422.116 2.27848 3.18121 0
M  V30 4336 H 421.739 0.725648 3.90922 0
M  V30 4337 N 422.737 -1.36956 0.779787 0
M  V30 4338 C 423.985 -1.99097 0.347079 0
M  V30 4339 C 424.306 -1.62206 -1.08232 0
M  V30 4340 O 423.576 -0.891373 -1.74446 0
M  V30 4341 H 422.156 -0.736409 0.125342 0
M  V30 4342 H 424.818 -1.67308 0.999696 0
M  V30 4343 H 423.914 -3.09107 0.431162 0
M  V30 4344 N 424.215 -0.530993 -1.48385 0
M  V30 4345 C 425.162 0.231223 -2.29639 0
M  V30 4346 C 426.132 0.932864 -1.37429 0
M  V30 4347 O 427.317 0.933692 -1.66394 0
M  V30 4348 C 424.457 1.27155 -3.2082 0
M  V30 4349 C 423.57 0.578655 -4.28107 0
M  V30 4350 C 422.705 1.602 -5.06467 0
M  V30 4351 C 421.744 0.892625 -6.05556 0
M  V30 4352 N 420.881 1.86157 -6.76971 0
M  V30 4353 H 425.721 -0.467848 -2.94305 0
M  V30 4354 H 423.258 -0.242556 -1.45086 0
M  V30 4355 H 425.216 1.88703 -3.72085 0
M  V30 4356 H 423.846 1.939 -2.58075 0
M  V30 4357 H 422.898 -0.150782 -3.80101 0
M  V30 4358 H 424.21 0.0217065 -4.98795 0
M  V30 4359 H 423.364 2.29173 -5.61751 0
M  V30 4360 H 422.103 2.19285 -4.35621 0
M  V30 4361 H 421.108 0.188829 -5.49476 0
M  V30 4362 H 422.333 0.307878 -6.78402 0
M  V30 4363 H 420.279 2.44147 -6.08875 0
M  V30 4364 H 420.196 1.35608 -7.43738 0
M  V30 4365 H 421.464 2.54325 -7.36844 0
M  V30 4366 N 425.693 1.55336 -0.266172 0
M  V30 4367 C 426.942 1.98574 0.353749 0
M  V30 4368 C 427.255 1.15789 1.57646 0
M  V30 4369 O 428.461 1.49129 2.26876 0
M  V30 4370 C 426.917 3.53403 0.680747 0
M  V30 4371 C 426.525 4.44953 -0.52165 0
M  V30 4372 C 428.269 4.05251 1.26379 0
M  V30 4373 C 426.176 5.91156 -0.169736 0
M  V30 4374 H 425.106 0.741643 0.135949 0
M  V30 4375 H 427.757 1.79743 -0.369421 0
M  V30 4376 H 426.139 3.68001 1.46257 0
M  V30 4377 H 427.313 4.42121 -1.29869 0
M  V30 4378 H 425.628 4.03691 -1.02093 0
M  V30 4379 H 428.225 5.12021 1.54074 0
M  V30 4380 H 428.568 3.53749 2.19471 0
M  V30 4381 H 429.101 3.94057 0.544447 0
M  V30 4382 H 425.84 6.46736 -1.0683 0
M  V30 4383 H 425.36 5.97079 0.570717 0
M  V30 4384 H 427.039 6.4655 0.241245 0
M  V30 4385 N 427.171 -0.0066808 1.57599 0
M  V30 4386 C 428.448 -0.729586 1.81484 0
M  V30 4387 C 428.828 -1.92359 0.869558 0
M  V30 4388 O 428.176 -2.28348 -0.0832533 0
M  V30 4389 C 428.386 -1.1416 3.29801 0
M  V30 4390 C 429.734 -1.54823 3.95367 0
M  V30 4391 O 430.758 -1.23558 3.34084 0
M  V30 4392 O 429.617 -2.12937 5.03309 0
M  V30 4393 H 426.711 -0.354674 0.747085 0
M  V30 4394 H 429.257 0.0182609 1.6969 0
M  V30 4395 H 428.029 -0.290231 3.90222 0
M  V30 4396 H 427.652 -1.94876 3.46568 0
M  V30 4397 N 428.649 -1.55105 -0.279332 0
M  V30 4398 C 429.895 -1.75672 -1.01327 0
M  V30 4399 C 430.228 -0.552739 -1.86168 0
M  V30 4400 O 429.503 0.449827 -1.89227 0
M  V30 4401 C 429.786 -3.05825 -1.90114 0
M  V30 4402 C 429.639 -4.36565 -1.08309 0
M  V30 4403 C 430.958 -3.31975 -2.8893 0
M  V30 4404 H 428.077 -0.639149 -0.366957 0
M  V30 4405 H 430.719 -1.87833 -0.286154 0
M  V30 4406 H 428.869 -2.95588 -2.52111 0
M  V30 4407 H 430.541 -4.58751 -0.484314 0
M  V30 4408 H 428.784 -4.32076 -0.386362 0
M  V30 4409 H 429.455 -5.23946 -1.73737 0
M  V30 4410 H 431.931 -3.41963 -2.37067 0
M  V30 4411 H 430.807 -4.2432 -3.48201 0
M  V30 4412 H 431.068 -2.51309 -3.63725 0
M  V30 4413 N 430.127 0.543554 -1.4793 0
M  V30 4414 C 431.352 1.32995 -1.59145 0
M  V30 4415 C 431.777 1.86472 -0.246956 0
M  V30 4416 O 431.135 1.63696 0.779324 0
M  V30 4417 C 431.183 2.46623 -2.63077 0
M  V30 4418 O 430.287 3.49261 -2.19295 0
M  V30 4419 H 429.628 0.394472 -0.534124 0
M  V30 4420 H 432.158 0.655489 -1.93816 0
M  V30 4421 H 432.168 2.93001 -2.83926 0
M  V30 4422 H 430.843 2.07059 -3.60693 0
M  V30 4423 H 429.42 3.09094 -2.08603 0
M  V30 4424 N 431.605 1.3629 0.791371 0
M  V30 4425 C 432.854 1.29742 1.54434 0
M  V30 4426 C 433.167 -0.121729 1.95221 0
M  V30 4427 O 434.373 -0.309579 2.69729 0
M  V30 4428 C 432.829 2.27623 2.78776 0
M  V30 4429 C 432.437 3.74963 2.45166 0
M  V30 4430 C 434.181 2.30047 3.56761 0
M  V30 4431 C 432.088 4.64626 3.65891 0
M  V30 4432 H 431.018 0.482113 0.579727 0
M  V30 4433 H 433.669 1.61642 0.868565 0
M  V30 4434 H 432.051 1.88714 3.48142 0
M  V30 4435 H 433.225 4.22596 1.83709 0
M  V30 4436 H 431.54 3.75295 1.80396 0
M  V30 4437 H 434.137 2.94247 4.46456 0
M  V30 4438 H 434.48 1.30846 3.95203 0
M  V30 4439 H 435.013 2.67563 2.94372 0
M  V30 4440 H 431.752 5.64883 3.32547 0
M  V30 4441 H 431.272 4.2171 4.26521 0
M  V30 4442 H 432.951 4.80801 4.32943 0
M  V30 4443 N 433.083 -1.0153 1.20538 0
M  V30 4444 C 433.993 -2.13557 0.971113 0
M  V30 4445 C 435.009 -1.73845 -0.0734366 0
M  V30 4446 O 436.185 -2.01075 0.114299 0
M  V30 4447 C 433.25 -3.42661 0.527639 0
M  V30 4448 C 432.311 -3.96608 1.64319 0
M  V30 4449 C 431.544 -5.1955 1.22078 0
M  V30 4450 O 431.767 -5.70329 0.0900198 0
M  V30 4451 O 430.701 -5.66681 2.02871 0
M  V30 4452 H 434.527 -2.3619 1.90913 0
M  V30 4453 H 432.112 -1.11946 0.989362 0
M  V30 4454 H 433.994 -4.20404 0.289621 0
M  V30 4455 H 432.669 -3.21441 -0.381779 0
M  V30 4456 H 431.576 -3.20139 1.93551 0
M  V30 4457 H 432.909 -4.22219 2.52966 0
M  V30 4458 N 434.561 -1.01147 -1.20859 0
M  V30 4459 C 435.524 -0.582224 -2.21682 0
M  V30 4460 C 436.524 0.344887 -1.57058 0
M  V30 4461 O 437.714 0.134281 -1.73682 0
M  V30 4462 C 434.846 0.150496 -3.40568 0
M  V30 4463 H 436.039 -1.47408 -2.61172 0
M  V30 4464 H 433.592 -0.800695 -1.34233 0
M  V30 4465 H 434.327 1.0575 -3.06574 0
M  V30 4466 H 434.112 -0.515444 -3.88697 0
M  V30 4467 H 435.602 0.438344 -4.15293 0
M  V30 4468 N 436.039 1.36541 -0.78704 0
M  V30 4469 C 437.002 2.28413 -0.189778 0
M  V30 4470 C 438.002 1.48719 0.611499 0
M  V30 4471 O 439.192 1.68737 0.432842 0
M  V30 4472 C 436.324 3.32824 0.737638 0
M  V30 4473 H 437.517 2.82743 -0.999831 0
M  V30 4474 H 435.07 1.46065 -0.556298 0
M  V30 4475 H 435.805 2.83646 1.57212 0
M  V30 4476 H 435.59 3.91752 0.165044 0
M  V30 4477 H 437.08 4.0144 1.15047 0
M  V30 4478 N 437.518 0.538854 1.48102 0
M  V30 4479 C 438.743 0.0102694 2.07397 0
M  V30 4480 C 439.168 -1.26562 1.39153 0
M  V30 4481 O 438.526 -1.75357 0.460387 0
M  V30 4482 C 438.574 -0.187602 3.60112 0
M  V30 4483 O 437.678 -1.25432 3.92862 0
M  V30 4484 H 437.019 0.0430975 0.6626 0
M  V30 4485 H 439.549 0.749301 1.90385 0
M  V30 4486 H 439.559 -0.407517 4.0596 0
M  V30 4487 H 438.234 0.744386 4.09184 0
M  V30 4488 H 436.811 -1.01636 3.58782 0
M  V30 4489 N 438.996 -1.55193 0.274407 0
M  V30 4490 C 440.244 -1.99187 -0.341902 0
M  V30 4491 C 440.565 -1.16422 -1.56431 0
M  V30 4492 O 439.835 -0.253573 -1.94252 0
M  V30 4493 H 438.415 -0.735721 -0.129317 0
M  V30 4494 H 441.077 -1.91168 0.379578 0
M  V30 4495 H 440.173 -3.05629 -0.632253 0
M  V30 4496 N 440.474 -0.00167713 -1.576 0
M  V30 4497 C 441.722 0.681471 -1.90264 0
M  V30 4498 C 442.043 1.7422 -0.875924 0
M  V30 4499 O 441.313 1.95709 0.0864412 0
M  V30 4500 H 439.893 0.254696 -0.702239 0
M  V30 4501 H 442.555 -0.0429996 -1.94853 0
M  V30 4502 H 441.651 1.15166 -2.90075 0
M  V30 4503 N 441.952 1.55251 0.271103 0
M  V30 4504 C 442.899 1.88261 1.33516 0
M  V30 4505 C 443.869 0.734296 1.48988 0
M  V30 4506 O 445.054 0.985741 1.63364 0
M  V30 4507 C 442.194 2.16168 2.69008 0
M  V30 4508 C 441.307 3.43678 2.61743 0
M  V30 4509 C 440.442 3.61276 3.89427 0
M  V30 4510 C 439.481 4.82472 3.7668 0
M  V30 4511 N 438.618 4.96717 4.96202 0
M  V30 4512 H 443.458 2.79015 1.04665 0
M  V30 4513 H 440.995 1.38137 0.505618 0
M  V30 4514 H 442.953 2.30349 3.47844 0
M  V30 4515 H 441.583 1.28646 2.96057 0
M  V30 4516 H 440.635 3.37959 1.74607 0
M  V30 4517 H 441.947 4.3265 2.48224 0
M  V30 4518 H 441.101 3.75284 4.76704 0
M  V30 4519 H 439.84 2.70492 4.05814 0
M  V30 4520 H 438.845 4.68465 2.87786 0
M  V30 4521 H 440.07 5.74692 3.61809 0
M  V30 4522 H 438.016 4.08865 5.12997 0
M  V30 4523 H 437.933 5.79738 4.85222 0
M  V30 4524 H 439.201 5.15113 5.85046 0
M  V30 4525 N 443.43 -0.535701 1.48216 0
M  V30 4526 C 444.393 -1.623 1.61838 0
M  V30 4527 C 445.393 -1.53087 0.492024 0
M  V30 4528 O 446.583 -1.5686 0.757668 0
M  V30 4529 C 443.715 -3.01907 1.58319 0
M  V30 4530 H 444.908 -1.51564 2.58783 0
M  V30 4531 H 442.461 -0.757317 1.36727 0
M  V30 4532 H 443.196 -3.18155 0.628299 0
M  V30 4533 H 442.981 -3.10003 2.40085 0
M  V30 4534 H 444.471 -3.80969 1.71033 0
M  V30 4535 N 444.908 -1.36708 -0.784132 0
M  V30 4536 C 445.818 -1.3363 -1.92822 0
M  V30 4537 C 446.834 -0.237686 -1.72369 0
M  V30 4538 O 448.01 -0.470962 -1.95816 0
M  V30 4539 C 445.075 -1.13011 -3.27764 0
M  V30 4540 C 444.136 -2.32397 -3.60957 0
M  V30 4541 C 443.369 -2.12752 -4.89461 0
M  V30 4542 O 443.592 -1.10541 -5.59586 0
M  V30 4543 O 442.526 -3.00653 -5.21432 0
M  V30 4544 H 446.352 -2.29964 -1.98369 0
M  V30 4545 H 443.937 -1.1731 -0.925136 0
M  V30 4546 H 445.819 -1.03451 -4.08504 0
M  V30 4547 H 444.494 -0.19743 -3.23097 0
M  V30 4548 H 443.401 -2.47527 -2.80502 0
M  V30 4549 H 444.734 -3.2419 -3.70354 0
M  V30 4550 N 446.386 1.0089 -1.21074 0
M  V30 4551 C 447.632 1.74866 -1.02712 0
M  V30 4552 C 447.965 1.89178 0.438787 0
M  V30 4553 O 447.24 1.42325 1.32567 0
M  V30 4554 C 447.523 3.16347 -1.72036 0
M  V30 4555 C 447.376 3.09782 -3.26121 0
M  V30 4556 C 448.695 4.15187 -1.45973 0
M  V30 4557 H 445.814 0.634736 -0.374539 0
M  V30 4558 H 448.456 1.17646 -1.49196 0
M  V30 4559 H 446.606 3.65201 -1.32517 0
M  V30 4560 H 448.278 2.68673 -3.74983 0
M  V30 4561 H 446.521 2.46982 -3.56626 0
M  V30 4562 H 447.192 4.09829 -3.6979 0
M  V30 4563 H 449.668 3.75022 -1.80272 0
M  V30 4564 H 448.544 5.12331 -1.96999 0
M  V30 4565 H 448.805 4.40386 -0.388924 0
M  V30 4566 N 447.864 1.01787 1.20321 0
M  V30 4567 C 449.113 0.703249 1.89043 0
M  V30 4568 C 449.426 -0.770445 1.79787 0
M  V30 4569 O 450.632 -1.19767 2.43656 0
M  V30 4570 C 449.088 1.20749 3.3904 0
M  V30 4571 C 448.696 2.70817 3.56878 0
M  V30 4572 C 450.44 0.968352 4.13308 0
M  V30 4573 C 448.347 3.14716 5.00708 0
M  V30 4574 H 447.277 0.259354 0.707991 0
M  V30 4575 H 449.928 1.23072 1.36108 0
M  V30 4576 H 448.31 0.607989 3.91305 0
M  V30 4577 H 449.484 3.36327 3.14993 0
M  V30 4578 H 447.799 2.92888 2.95983 0
M  V30 4579 H 450.396 1.27173 5.19356 0
M  V30 4580 H 450.739 -0.095149 4.16191 0
M  V30 4581 H 451.272 1.53129 3.67146 0
M  V30 4582 H 448.011 4.20347 5.02979 0
M  V30 4583 H 447.531 2.53927 5.43398 0
M  V30 4584 H 449.21 3.07426 5.69296 0
M  V30 4585 N 449.342 -1.36122 0.79427 0
M  V30 4586 C 450.57 -2.03362 0.380989 0
M  V30 4587 C 450.985 -1.59881 -1.00416 0
M  V30 4588 O 450.342 -0.790515 -1.6449 0
M  V30 4589 C 450.393 -3.58804 0.440649 0
M  V30 4590 O 450.114 -4.007 1.77118 0
M  V30 4591 C 451.615 -4.43296 0.0186117 0
M  V30 4592 H 448.835 -0.652526 0.156367 0
M  V30 4593 H 451.379 -1.73998 1.07447 0
M  V30 4594 H 449.534 -3.8686 -0.204458 0
M  V30 4595 H 449.948 -4.95309 1.72538 0
M  V30 4596 H 451.422 -5.51887 0.111488 0
M  V30 4597 H 451.899 -4.2684 -1.03461 0
M  V30 4598 H 452.505 -4.20512 0.636395 0
M  V30 4599 N 450.82 -0.546701 -1.47814 0
M  V30 4600 C 452.06 -0.0209604 -2.04389 0
M  V30 4601 C 452.424 1.29993 -1.413 0
M  V30 4602 O 453.625 1.91273 -1.8886 0
M  V30 4603 C 451.896 0.0812844 -3.57308 0
M  V30 4604 S 453.455 0.55467 -4.3528 0
M  V30 4605 H 450.273 -0.0200865 -0.710716 0
M  V30 4606 H 452.875 -0.731055 -1.81317 0
M  V30 4607 H 451.579 -0.884616 -4.00753 0
M  V30 4608 H 451.11 0.815253 -3.8486 0
M  V30 4609 H 453.125 1.81627 -4.61764 0
M  V30 4610 N 452.299 1.55045 -0.282633 0
M  V30 4611 C 453.576 1.9179 0.384166 0
M  V30 4612 C 453.956 1.20778 1.73136 0
M  V30 4613 O 453.304 0.33719 2.25998 0
M  V30 4614 C 453.514 3.45149 0.517014 0
M  V30 4615 C 454.862 4.17064 0.796427 0
M  V30 4616 O 455.886 3.51084 0.601535 0
M  V30 4617 O 454.745 5.33837 1.16962 0
M  V30 4618 H 451.839 0.799483 0.211558 0
M  V30 4619 H 454.385 1.66474 -0.32934 0
M  V30 4620 H 453.157 3.88922 -0.430772 0
M  V30 4621 H 452.78 3.76443 1.2797 0
M  V30 4622 N 453.777 0.010035 1.57597 0
M  V30 4623 C 455.023 -0.673697 1.91283 0
M  V30 4624 C 455.356 -1.72863 0.884979 0
M  V30 4625 O 454.631 -1.94268 -0.0949487 0
M  V30 4626 C 454.914 -1.30766 3.35518 0
M  V30 4627 C 454.767 -0.263578 4.49027 0
M  V30 4628 C 456.086 -2.23105 3.79358 0
M  V30 4629 H 453.205 -0.243439 0.695634 0
M  V30 4630 H 455.847 0.0633864 1.89894 0
M  V30 4631 H 453.997 -1.93588 3.36832 0
M  V30 4632 H 455.669 0.365738 4.59848 0
M  V30 4633 H 453.912 0.413077 4.31829 0
M  V30 4634 H 454.583 -0.746398 5.4693 0
M  V30 4635 H 457.059 -1.70289 3.79659 0
M  V30 4636 H 455.935 -2.64424 4.81011 0
M  V30 4637 H 456.196 -3.11433 3.13787 0
M  V30 4638 N 455.255 -1.55392 -0.262866 0
M  V30 4639 C 456.185 -1.91978 -1.32917 0
M  V30 4640 C 457.166 -0.7828 -1.51017 0
M  V30 4641 O 458.351 -1.04178 -1.63892 0
M  V30 4642 C 455.481 -2.20055 -2.68687 0
M  V30 4643 C 454.435 -3.35854 -2.65304 0
M  V30 4644 C 453.761 -3.49435 -4.04721 0
M  V30 4645 C 455.061 -4.71977 -2.23685 0
M  V30 4646 H 456.755 -2.81292 -1.02544 0
M  V30 4647 H 454.301 -1.3534 -0.491846 0
M  V30 4648 H 456.254 -2.44237 -3.43404 0
M  V30 4649 H 454.978 -1.27551 -3.00663 0
M  V30 4650 H 453.637 -3.11655 -1.93045 0
M  V30 4651 H 453.285 -2.54379 -4.33936 0
M  V30 4652 H 452.985 -4.27297 -4.0335 0
M  V30 4653 H 454.509 -3.7592 -4.81161 0
M  V30 4654 H 455.923 -4.95637 -2.88127 0
M  V30 4655 H 454.32 -5.52828 -2.33456 0
M  V30 4656 H 455.39 -4.70115 -1.18827 0
M  V30 4657 N 456.733 0.527833 -1.48498 0
M  V30 4658 C 457.663 1.64136 -1.66077 0
M  V30 4659 C 458.644 1.62286 -0.509625 0
M  V30 4660 O 459.829 1.79449 -0.742413 0
M  V30 4661 C 456.959 3.02717 -1.70234 0
M  V30 4662 C 455.913 3.19426 -2.8487 0
M  V30 4663 C 455.239 4.5909 -2.74118 0
M  V30 4664 C 456.539 3.01993 -4.26142 0
M  V30 4665 H 458.233 1.4968 -2.593 0
M  V30 4666 H 455.779 0.718654 -1.24785 0
M  V30 4667 H 457.732 3.80491 -1.8112 0
M  V30 4668 H 456.456 3.18201 -0.735911 0
M  V30 4669 H 455.115 2.4407 -2.73542 0
M  V30 4670 H 454.763 4.71413 -1.7544 0
M  V30 4671 H 454.463 4.71214 -3.51042 0
M  V30 4672 H 455.987 5.3896 -2.86974 0
M  V30 4673 H 457.401 3.69558 -4.38292 0
M  V30 4674 H 455.798 3.2561 -5.04082 0
M  V30 4675 H 456.868 1.98396 -4.42456 0
M  V30 4676 N 458.211 1.37122 0.776871 0
M  V30 4677 C 459.457 1.32243 1.53752 0
M  V30 4678 C 459.79 -0.0944745 1.9397 0
M  V30 4679 O 459.065 -1.05068 1.6368 0
M  V30 4680 C 459.348 2.25681 2.80607 0
M  V30 4681 C 459.201 3.76127 2.46676 0
M  V30 4682 C 460.52 2.17657 3.82509 0
M  V30 4683 H 457.639 0.481704 0.557791 0
M  V30 4684 H 460.281 1.6778 0.891612 0
M  V30 4685 H 458.431 1.95505 3.35723 0
M  V30 4686 H 460.103 4.16877 1.97513 0
M  V30 4687 H 458.346 3.94946 1.79443 0
M  V30 4688 H 459.017 4.36933 3.37333 0
M  V30 4689 H 461.493 2.44245 3.36873 0
M  V30 4690 H 460.369 2.85185 4.69 0
M  V30 4691 H 460.63 1.16785 4.26396 0
M  V30 4692 N 459.689 -1.00246 1.21608 0
M  V30 4693 C 460.929 -1.75589 1.04631 0
M  V30 4694 C 461.293 -1.87513 -0.412648 0
M  V30 4695 O 462.494 -2.59444 -0.703003 0
M  V30 4696 C 460.765 -3.12893 1.72722 0
M  V30 4697 S 462.324 -4.04095 1.71034 0
M  V30 4698 H 459.142 -0.604133 0.374892 0
M  V30 4699 H 461.744 -1.19927 1.54395 0
M  V30 4700 H 460.448 -3.0185 2.78055 0
M  V30 4701 H 459.979 -3.73628 1.23149 0
M  V30 4702 H 461.994 -4.9045 0.753231 0
M  V30 4703 N 461.167 -1.02423 -1.1978 0
M  V30 4704 C 462.416 -0.713265 -1.88667 0
M  V30 4705 C 462.729 0.7609 -1.80193 0
M  V30 4706 O 463.935 1.18473 -2.44288 0
M  V30 4707 C 462.391 -1.22545 -3.38394 0
M  V30 4708 C 461.999 -2.72706 -3.55437 0
M  V30 4709 C 463.743 -0.990257 -4.12788 0
M  V30 4710 C 461.65 -3.17367 -4.99031 0
M  V30 4711 H 460.58 -0.263105 -0.706606 0
M  V30 4712 H 463.231 -1.23792 -1.35454 0
M  V30 4713 H 461.613 -0.628732 -3.90977 0
M  V30 4714 H 462.787 -3.37993 -3.13205 0
M  V30 4715 H 461.102 -2.94453 -2.94425 0
M  V30 4716 H 463.699 -1.29926 -5.18675 0
M  V30 4717 H 464.042 0.0730761 -4.16236 0
M  V30 4718 H 464.575 -1.55074 -3.66329 0
M  V30 4719 H 461.314 -4.23009 -5.00743 0
M  V30 4720 H 460.834 -2.56805 -5.42044 0
M  V30 4721 H 462.513 -3.10441 -5.67658 0
M  V30 4722 N 462.645 1.35699 -0.801477 0
M  V30 4723 C 463.893 1.9852 -0.37871 0
M  V30 4724 C 464.214 1.63907 1.05638 0
M  V30 4725 O 463.484 0.919013 1.73006 0
M  V30 4726 H 462.064 0.734322 -0.137042 0
M  V30 4727 H 464.726 1.65697 -1.02619 0
M  V30 4728 H 463.822 3.08382 -0.480284 0
M  V30 4729 N 464.123 0.554532 1.47522 0
M  V30 4730 C 465.539 0.214107 1.58157 0
M  V30 4731 C 465.739 -1.28331 1.55349 0
M  V30 4732 O 464.795 -2.06329 1.45549 0
M  V30 4733 C 466.108 0.838391 2.88776 0
M  V30 4734 C 467.656 0.809374 3.02354 0
M  V30 4735 C 468.131 1.41268 4.35669 0
M  V30 4736 N 469.622 1.37574 4.42298 0
M  V30 4737 C 470.357 1.8122 5.4401 0
M  V30 4738 N 469.853 2.3271 6.52547 0
M  V30 4739 N 471.646 1.72307 5.35039 0
M  V30 4740 H 463.797 1.52744 1.4759 0
M  V30 4741 H 466.06 0.636812 0.702264 0
M  V30 4742 H 465.766 1.89065 2.96559 0
M  V30 4743 H 465.64 0.329847 3.75755 0
M  V30 4744 H 468.027 -0.234187 2.94169 0
M  V30 4745 H 468.108 1.35565 2.16924 0
M  V30 4746 H 467.752 2.45529 4.4461 0
M  V30 4747 H 467.682 0.841871 5.19827 0
M  V30 4748 H 470.173 0.999081 3.64454 0
M  V30 4749 H 470.486 2.63944 7.26329 0
M  V30 4750 H 468.831 2.36719 6.53444 0
M  V30 4751 H 472.022 1.3186 4.49144 0
M  V30 4752 H 472.195 2.06641 6.14169 0
M  V30 4753 N 465.601 -1.54893 0.290851 0
M  V30 4754 C 467.017 -1.59476 -0.0628432 0
M  V30 4755 C 467.217 -1.30795 -1.5328 0
M  V30 4756 O 466.273 -1.07644 -2.28406 0
M  V30 4757 C 467.586 -2.98928 0.325962 0
M  V30 4758 C 469.134 -3.11799 0.273882 0
M  V30 4759 C 469.609 -4.53544 0.637359 0
M  V30 4760 N 471.1 -4.59433 0.589507 0
M  V30 4761 C 471.835 -5.67164 0.84335 0
M  V30 4762 N 471.331 -6.82975 1.16263 0
M  V30 4763 N 473.124 -5.56786 0.771091 0
M  V30 4764 H 465.275 -1.71798 1.24896 0
M  V30 4765 H 467.538 -0.801879 0.505663 0
M  V30 4766 H 467.244 -3.24805 1.34887 0
M  V30 4767 H 467.118 -3.75793 -0.325441 0
M  V30 4768 H 469.505 -2.85677 -0.739765 0
M  V30 4769 H 469.586 -2.37112 0.959766 0
M  V30 4770 H 469.23 -4.80394 1.64877 0
M  V30 4771 H 469.16 -5.26553 -0.0704866 0
M  V30 4772 H 471.651 -3.76245 0.353252 0
M  V30 4773 H 471.964 -7.61048 1.34257 0
M  V30 4774 H 470.309 -6.84552 1.20057 0
M  V30 4775 H 473.5 -4.65187 0.521383 0
M  V30 4776 H 473.673 -6.40664 0.972295 0
M  V30 4777 N 467.08 -0.0183926 -1.57589 0
M  V30 4778 C 468.491 0.521927 -1.79256 0
M  V30 4779 C 468.842 1.72885 -0.927636 0
M  V30 4780 O 467.967 2.15978 -0.135091 0
M  V30 4781 C 468.562 0.953632 -3.25102 0
M  V30 4782 C 467.121 1.43913 -3.47801 0
M  V30 4783 C 466.268 0.398837 -2.74417 0
M  V30 4784 H 469.219 -0.244485 -1.56805 0
M  V30 4785 H 469.24 1.81863 -3.34224 0
M  V30 4786 H 468.752 0.0750123 -3.88028 0
M  V30 4787 H 466.853 2.33804 -2.90115 0
M  V30 4788 H 466.966 1.45391 -4.56507 0
M  V30 4789 H 465.33 0.864572 -2.39577 0
M  V30 4790 H 466.113 -0.471132 -3.40052 0
M  V30 4791 N 468.558 1.5553 0.254621 0
M  V30 4792 C 469.805 1.77 0.983736 0
M  V30 4793 C 470.133 0.58133 1.85609 0
M  V30 4794 O 469.388 -0.435621 1.9079 0
M  V30 4795 C 469.687 3.03891 1.88109 0
M  V30 4796 C 469.353 4.35597 1.16472 0
M  V30 4797 C 468.015 4.7139 0.966714 0
M  V30 4798 C 470.367 5.1705 0.656387 0
M  V30 4799 C 467.695 5.86176 0.247942 0
M  V30 4800 C 470.047 6.32581 -0.0488807 0
M  V30 4801 C 468.711 6.67 -0.258438 0
M  V30 4802 H 467.981 0.647688 0.359974 0
M  V30 4803 H 470.628 1.89802 0.254463 0
M  V30 4804 H 468.933 2.86068 2.67717 0
M  V30 4805 H 470.63 3.17701 2.44677 0
M  V30 4806 H 467.22 4.07475 1.32899 0
M  V30 4807 H 471.404 4.8986 0.796933 0
M  V30 4808 H 466.66 6.11354 0.075035 0
M  V30 4809 H 470.834 6.94942 -0.450444 0
M  V30 4810 H 468.461 7.55793 -0.817358 0
M  V30 4811 N 470.036 -0.519951 1.48776 0
M  V30 4812 C 471.264 -1.29971 1.60982 0
M  V30 4813 C 471.679 -1.86803 0.273885 0
M  V30 4814 O 471.036 -1.66904 -0.738193 0
M  V30 4815 C 471.087 -2.44346 2.66415 0
M  V30 4816 O 470.808 -1.89855 3.94825 0
M  V30 4817 C 472.309 -3.36014 2.89153 0
M  V30 4818 H 469.529 -0.394891 0.542496 0
M  V30 4819 H 472.073 -0.626214 1.94676 0
M  V30 4820 H 470.228 -3.07562 2.35552 0
M  V30 4821 H 470.642 -2.64798 4.5275 0
M  V30 4822 H 472.116 -4.12593 3.66703 0
M  V30 4823 H 472.593 -3.91859 1.98351 0
M  V30 4824 H 473.199 -2.78582 3.21359 0
M  V30 4825 N 471.514 -1.37532 -0.769588 0
M  V30 4826 C 472.461 -1.3347 -1.88293 0
M  V30 4827 C 473.431 -0.199891 -1.64893 0
M  V30 4828 O 474.616 -0.389594 -1.8678 0
M  V30 4829 C 471.756 -1.14968 -3.25387 0
M  V30 4830 C 470.869 -2.37698 -3.60727 0
M  V30 4831 C 470.004 -2.12051 -4.8704 0
M  V30 4832 C 469.043 -3.30636 -5.15117 0
M  V30 4833 N 468.18 -3.04527 -6.3262 0
M  V30 4834 H 473.02 -2.28658 -1.911 0
M  V30 4835 H 470.557 -1.13622 -0.934257 0
M  V30 4836 H 472.515 -1.02261 -4.04473 0
M  V30 4837 H 471.145 -0.234263 -3.21949 0
M  V30 4838 H 470.197 -2.61137 -2.76608 0
M  V30 4839 H 471.509 -3.26131 -3.77413 0
M  V30 4840 H 470.663 -1.96388 -5.74035 0
M  V30 4841 H 469.402 -1.20959 -4.72462 0
M  V30 4842 H 468.407 -3.46836 -4.26597 0
M  V30 4843 H 469.632 -4.22582 -5.31603 0
M  V30 4844 H 467.578 -2.16067 -6.19396 0
M  V30 4845 H 467.495 -3.86503 -6.49732 0
M  V30 4846 H 468.763 -2.92485 -7.22546 0
M  V30 4847 N 472.992 0.995999 -1.22138 0
M  V30 4848 C 473.94 2.10673 -0.985876 0
M  V30 4849 C 474.934 1.69255 0.0699553 0
M  V30 4850 O 476.14 1.79812 -0.0822176 0
M  V30 4851 H 472.515 0.688865 -0.30161 0
M  V30 4852 H 474.486 2.27711 -1.92848 0
M  V30 4853 C 473.235 3.42881 -0.576909 0
M  V30 4854 H 472.558 3.75191 -1.38101 0
M  V30 4855 H 473.998 4.21589 -0.451518 0
M  V30 4856 C 472.457 3.29265 0.713196 0
M  V30 4857 O 472.987 3.60777 1.76643 0
M  V30 4858 N 471.193 2.82456 0.683162 0
M  V30 4859 H 470.74 2.5701 -0.174242 0
M  V30 4860 H 470.698 2.73727 1.54663 0
M  V30 4861 N 474.47 1.03057 1.19235 0
M  V30 4862 C 475.4 0.633497 2.24742 0
M  V30 4863 C 476.381 -0.358335 1.66283 0
M  V30 4864 O 477.566 -0.240676 1.92703 0
M  V30 4865 C 474.696 -0.0147648 3.47297 0
M  V30 4866 C 473.65 0.899527 4.18441 0
M  V30 4867 C 472.976 0.116281 5.34574 0
M  V30 4868 C 474.276 2.21404 4.73051 0
M  V30 4869 H 475.97 1.5155 2.58211 0
M  V30 4870 H 473.516 0.73014 1.24117 0
M  V30 4871 H 475.469 -0.304202 4.20301 0
M  V30 4872 H 474.193 -0.931577 3.13032 0
M  V30 4873 H 472.852 1.17319 3.47321 0
M  V30 4874 H 472.5 -0.802619 4.96555 0
M  V30 4875 H 472.2 0.725293 5.83107 0
M  V30 4876 H 473.724 -0.166376 6.10373 0
M  V30 4877 H 475.138 1.98601 5.37802 0
M  V30 4878 H 473.535 2.77512 5.32078 0
M  V30 4879 H 474.605 2.86752 3.91026 0
M  V30 4880 N 475.948 -1.35272 0.808662 0
M  V30 4881 C 477.196 -1.98316 0.389233 0
M  V30 4882 C 477.517 -1.64465 -1.04767 0
M  V30 4883 O 476.787 -0.928175 -1.72516 0
M  V30 4884 H 475.367 -0.733585 0.140935 0
M  V30 4885 H 478.029 -1.6515 1.03496 0
M  V30 4886 H 477.125 -3.08123 0.496631 0
M  V30 4887 N 477.426 -0.562348 -1.47226 0
M  V30 4888 C 478.356 0.170627 -2.32876 0
M  V30 4889 C 479.337 0.903748 -1.44106 0
M  V30 4890 O 480.522 0.883206 -1.72954 0
M  V30 4891 C 477.652 1.19786 -3.25989 0
M  V30 4892 C 476.606 0.580875 -4.2404 0
M  V30 4893 C 475.932 1.71311 -5.06514 0
M  V30 4894 C 477.232 -0.468714 -5.20193 0
M  V30 4895 H 478.926 -0.544441 -2.94408 0
M  V30 4896 H 476.472 -0.263271 -1.41573 0
M  V30 4897 H 478.425 1.71884 -3.84752 0
M  V30 4898 H 477.149 1.94294 -2.62521 0
M  V30 4899 H 475.808 0.0811538 -3.6651 0
M  V30 4900 H 475.456 2.44736 -4.39447 0
M  V30 4901 H 475.156 1.30604 -5.72902 0
M  V30 4902 H 476.68 2.23725 -5.68137 0
M  V30 4903 H 478.094 -0.0336028 -5.7329 0
M  V30 4904 H 476.491 -0.794957 -5.94811 0
M  V30 4905 H 477.561 -1.36269 -4.65359 0
M  V30 4906 N 478.904 1.54736 -0.299062 0
M  V30 4907 C 479.814 2.27127 0.587413 0
M  V30 4908 C 480.83 1.30575 1.15005 0
M  V30 4909 O 482.006 1.63554 1.17525 0
M  V30 4910 C 479.071 2.99645 1.74395 0
M  V30 4911 C 478.132 4.11731 1.21559 0
M  V30 4912 C 477.365 4.80781 2.317 0
M  V30 4913 O 477.588 4.4918 3.51558 0
M  V30 4914 O 476.522 5.68226 1.98501 0
M  V30 4915 H 480.348 3.037 0.000250109 0
M  V30 4916 H 477.933 1.49256 -0.0655919 0
M  V30 4917 H 479.815 3.45138 2.4178 0
M  V30 4918 H 478.49 2.25969 2.31775 0
M  V30 4919 H 477.397 3.70641 0.507514 0
M  V30 4920 H 478.73 4.87379 0.687233 0
M  V30 4921 N 480.382 0.0267497 1.57577 0
M  V30 4922 C 481.292 -0.971633 2.13533 0
M  V30 4923 C 482.308 -1.35868 1.08701 0
M  V30 4924 O 483.484 -1.44058 1.40746 0
M  V30 4925 C 480.549 -2.23622 2.64941 0
M  V30 4926 C 479.61 -1.90982 3.8448 0
M  V30 4927 C 478.843 -3.11411 4.33427 0
M  V30 4928 O 479.066 -4.23992 3.81558 0
M  V30 4929 O 478 -2.93848 5.25297 0
M  V30 4930 H 481.826 -0.525853 2.99113 0
M  V30 4931 H 479.411 -0.193712 1.48139 0
M  V30 4932 H 481.293 -2.97864 2.98086 0
M  V30 4933 H 479.968 -2.67386 1.82446 0
M  V30 4934 H 478.875 -1.14132 3.56265 0
M  V30 4935 H 480.208 -1.52036 4.6813 0
M  V30 4936 N 481.861 -1.55662 -0.24637 0
M  V30 4937 C 482.791 -1.93377 -1.30873 0
M  V30 4938 C 483.772 -0.798773 -1.50179 0
M  V30 4939 O 484.957 -1.0591 -1.62778 0
M  V30 4940 C 482.087 -2.22893 -2.66338 0
M  V30 4941 C 481.041 -3.38649 -2.61727 0
M  V30 4942 C 480.367 -3.53708 -4.00992 0
M  V30 4943 C 481.667 -4.74323 -2.18666 0
M  V30 4944 H 483.361 -2.82363 -0.995552 0
M  V30 4945 H 480.907 -1.35854 -0.477464 0
M  V30 4946 H 482.86 -2.47866 -3.40794 0
M  V30 4947 H 481.584 -1.30733 -2.99293 0
M  V30 4948 H 480.243 -3.13685 -1.89729 0
M  V30 4949 H 479.891 -2.58967 -4.31214 0
M  V30 4950 H 479.591 -4.31551 -3.98795 0
M  V30 4951 H 481.115 -3.81003 -4.77147 0
M  V30 4952 H 482.529 -4.98665 -2.82854 0
M  V30 4953 H 480.926 -5.55273 -2.27579 0
M  V30 4954 H 481.996 -4.71349 -1.13834 0
M  V30 4955 N 483.339 0.512053 -1.4905 0
M  V30 4956 C 484.587 1.26436 -1.57665 0
M  V30 4957 C 484.908 1.93255 -0.260293 0
M  V30 4958 O 484.178 1.82206 0.719564 0
M  V30 4959 H 482.758 0.469658 -0.580888 0
M  V30 4960 H 485.42 0.594398 -1.85615 0
M  V30 4961 H 484.516 2.03417 -2.36702 0
M  V30 4962 N 484.817 1.37938 0.762283 0
M  V30 4963 C 486.066 1.32989 1.51647 0
M  V30 4964 C 486.379 -0.0802922 1.95435 0
M  V30 4965 O 487.585 -0.252295 2.70325 0
M  V30 4966 C 486.041 2.33485 2.73885 0
M  V30 4967 C 485.649 3.80079 2.37157 0
M  V30 4968 C 487.393 2.37563 3.51801 0
M  V30 4969 C 485.3 4.72283 3.55954 0
M  V30 4970 H 484.23 0.494301 0.56937 0
M  V30 4971 H 486.881 1.63448 0.834083 0
M  V30 4972 H 485.263 1.96056 3.44061 0
M  V30 4973 H 486.437 4.26398 1.74704 0
M  V30 4974 H 484.752 3.79037 1.72395 0
M  V30 4975 H 487.349 3.0365 4.40114 0
M  V30 4976 H 487.692 1.39199 3.92338 0
M  V30 4977 H 488.225 2.73747 2.8863 0
M  V30 4978 H 484.964 5.7181 3.2049 0
M  V30 4979 H 484.484 4.30663 4.1748 0
M  V30 4980 H 486.163 4.89876 4.22647 0
M  V30 4981 N 486.295 -0.989507 1.22664 0
M  V30 4982 C 487.205 -2.11449 1.01619 0
M  V30 4983 C 488.221 -1.73962 -0.036545 0
M  V30 4984 O 489.397 -2.00788 0.156924 0
M  V30 4985 C 486.462 -3.41465 0.600204 0
M  V30 4986 C 485.523 -3.93033 1.72695 0
M  V30 4987 C 484.756 -5.16844 1.33071 0
M  V30 4988 O 484.979 -5.7001 0.210975 0
M  V30 4989 O 483.913 -5.6225 2.14845 0
M  V30 4990 H 487.739 -2.32088 1.9588 0
M  V30 4991 H 485.324 -1.09823 1.01289 0
M  V30 4992 H 487.206 -4.19695 0.37873 0
M  V30 4993 H 485.881 -3.22178 -0.313511 0
M  V30 4994 H 484.788 -3.15961 2.00298 0
M  V30 4995 H 486.121 -4.16758 2.61865 0
M  V30 4996 N 487.773 -1.03688 -1.18687 0
M  V30 4997 C 488.703 -0.645407 -2.24403 0
M  V30 4998 C 489.684 0.349511 -1.66471 0
M  V30 4999 O 490.869 0.230453 -1.92828 0
M  V30 5000 C 487.999 -0.00365337 -3.473 0
M  V30 5001 C 486.953 -0.921705 -4.17958 0
M  V30 5002 C 486.279 -0.144629 -5.34504 0
M  V30 5003 C 487.579 -2.23909 -4.71871 0
M  V30 5004 H 489.273 -1.52917 -2.57404 0
M  V30 5005 H 486.819 -0.736711 -1.23728 0
M  V30 5006 H 488.772 0.281908 -4.20456 0
M  V30 5007 H 487.496 0.914963 -3.13522 0
M  V30 5008 H 486.155 -1.19159 -3.46694 0
M  V30 5009 H 485.803 0.776274 -4.96974 0
M  V30 5010 H 485.503 -0.756206 -5.82714 0
M  V30 5011 H 487.027 0.134004 -6.10453 0
M  V30 5012 H 488.441 -2.0145 -5.36741 0
M  V30 5013 H 486.838 -2.8033 -5.30599 0
M  V30 5014 H 487.908 -2.88822 -3.895 0
M  V30 5015 N 489.251 1.34841 -0.815825 0
M  V30 5016 C 490.528 1.92908 -0.323416 0
M  V30 5017 C 490.908 1.74479 1.18828 0
M  V30 5018 O 490.256 1.11928 1.99209 0
M  V30 5019 C 490.466 3.40957 -0.744952 0
M  V30 5020 C 491.814 4.18107 -0.739716 0
M  V30 5021 O 492.838 3.49511 -0.68708 0
M  V30 5022 O 491.697 5.40517 -0.806456 0
M  V30 5023 H 488.791 0.822436 -0.0867646 0
M  V30 5024 H 491.337 1.4386 -0.90014 0
M  V30 5025 H 490.109 3.4814 -1.78646 0
M  V30 5026 H 489.732 3.97341 -0.143535 0
M  V30 5027 N 490.729 0.570148 1.46925 0
M  V30 5028 C 492.14 0.1402 1.86173 0
M  V30 5029 C 492.491 -1.29347 1.47526 0
M  V30 5030 O 491.616 -1.97508 0.884292 0
M  V30 5031 C 492.211 0.247661 3.37894 0
M  V30 5032 C 490.77 -0.127332 3.76185 0
M  V30 5033 C 489.917 0.589349 2.70965 0
M  V30 5034 H 492.868 0.779117 1.38259 0
M  V30 5035 H 492.889 -0.530341 3.76786 0
M  V30 5036 H 492.401 1.29121 3.65991 0
M  V30 5037 H 490.502 -1.17149 3.53704 0
M  V30 5038 H 490.615 0.240238 4.78497 0
M  V30 5039 H 488.979 0.0309824 2.54681 0
M  V30 5040 H 489.762 1.6343 3.01903 0
M  V30 5041 N 492.207 -1.54576 0.307264 0
M  V30 5042 C 493.623 -1.59534 -0.0459251 0
M  V30 5043 C 493.823 -1.32414 -1.51884 0
M  V30 5044 O 492.879 -1.1006 -2.27251 0
M  V30 5045 C 494.192 -2.98566 0.357649 0
M  V30 5046 C 495.74 -3.11491 0.306937 0
M  V30 5047 C 496.215 -4.52842 0.685427 0
M  V30 5048 N 497.706 -4.58782 0.638203 0
M  V30 5049 C 498.441 -5.66238 0.903458 0
M  V30 5050 N 497.937 -6.81703 1.23501 0
M  V30 5051 N 499.73 -5.55937 0.830102 0
M  V30 5052 H 491.881 -1.70464 1.26712 0
M  V30 5053 H 494.144 -0.79647 0.514139 0
M  V30 5054 H 493.85 -3.23356 1.38325 0
M  V30 5055 H 493.724 -3.76117 -0.285565 0
M  V30 5056 H 496.111 -2.86446 -0.709424 0
M  V30 5057 H 496.192 -2.36081 0.984861 0
M  V30 5058 H 495.836 -4.78618 1.69963 0
M  V30 5059 H 495.766 -5.26598 -0.0146346 0
M  V30 5060 H 498.257 -3.75849 0.393138 0
M  V30 5061 H 498.57 -7.59582 1.42322 0
M  V30 5062 H 496.915 -6.8324 1.27311 0
M  V30 5063 H 500.106 -4.64608 0.570693 0
M  V30 5064 H 500.279 -6.39597 1.04019 0
M  V30 5065 N 493.685 -0.035106 -1.57561 0
M  V30 5066 C 494.933 0.64096 -1.91667 0
M  V30 5067 C 495.254 1.72323 -0.912681 0
M  V30 5068 O 494.524 1.95849 0.0449089 0
M  V30 5069 H 493.104 0.239743 -0.707483 0
M  V30 5070 H 495.766 -0.084321 -1.94718 0
M  V30 5071 H 494.862 1.08987 -2.92452 0
M  V30 5072 N 495.163 1.55791 0.238111 0
M  V30 5073 C 496.579 1.48411 0.587045 0
M  V30 5074 C 496.779 0.72702 1.87927 0
M  V30 5075 O 495.835 0.259942 2.51158 0
M  V30 5076 C 497.148 2.92873 0.681623 0
M  V30 5077 C 498.696 3.03295 0.773363 0
M  V30 5078 C 499.171 4.49082 0.899428 0
M  V30 5079 N 500.662 4.53056 0.964075 0
M  V30 5080 C 501.397 5.63117 1.08104 0
M  V30 5081 N 500.893 6.82969 1.16299 0
M  V30 5082 N 502.686 5.50933 1.11488 0
M  V30 5083 H 494.837 2.0345 -0.610076 0
M  V30 5084 H 497.1 0.924034 -0.211813 0
M  V30 5085 H 496.806 3.51142 -0.19802 0
M  V30 5086 H 496.68 3.43851 1.55069 0
M  V30 5087 H 499.067 2.45101 1.64346 0
M  V30 5088 H 499.148 2.55513 -0.121034 0
M  V30 5089 H 498.792 5.07889 0.0338586 0
M  V30 5090 H 498.722 4.94553 1.809 0
M  V30 5091 H 501.213 3.66737 0.91173 0
M  V30 5092 H 501.526 7.62598 1.25155 0
M  V30 5093 H 499.871 6.85712 1.13241 0
M  V30 5094 H 503.062 4.56231 1.0474 0
M  V30 5095 H 503.235 6.36743 1.20259 0
M  V30 5096 N 496.642 -0.504142 1.49319 0
M  V30 5097 C 497.891 -1.25507 1.57895 0
M  V30 5098 C 498.204 -1.93735 0.269433 0
M  V30 5099 O 499.41 -2.70492 0.233706 0
M  V30 5100 C 497.866 -2.27869 2.78574 0
M  V30 5101 C 497.474 -1.65594 4.16272 0
M  V30 5102 C 499.218 -3.0381 2.96479 0
M  V30 5103 C 497.125 -2.66048 5.28178 0
M  V30 5104 H 496.055 -0.47212 0.587894 0
M  V30 5105 H 498.706 -0.52931 1.757 0
M  V30 5106 H 497.088 -3.03594 2.54257 0
M  V30 5107 H 498.262 -0.958826 4.50714 0
M  V30 5108 H 496.577 -1.02055 4.037 0
M  V30 5109 H 499.174 -3.78925 3.77253 0
M  V30 5110 H 499.517 -3.61235 2.06918 0
M  V30 5111 H 500.05 -2.352 3.20821 0
M  V30 5112 H 496.789 -2.13408 6.19788 0
M  V30 5113 H 496.309 -3.34009 4.98195 0
M  V30 5114 H 497.988 -3.28536 5.57381 0
M  V30 5115 N 498.12 -1.38341 -0.754957 0
M  V30 5116 C 499.531 -1.30803 -1.3322 0
M  V30 5117 C 499.882 0.0368 -1.96165 0
M  V30 5118 O 499.007 0.938844 -1.94974 0
M  V30 5119 C 499.602 -2.3688 -2.42225 0
M  V30 5120 C 498.161 -2.32925 -2.95674 0
M  V30 5121 C 497.308 -2.19819 -1.69042 0
M  V30 5122 H 500.259 -1.48719 -0.553937 0
M  V30 5123 H 500.28 -2.02517 -3.22129 0
M  V30 5124 H 499.792 -3.34747 -1.96383 0
M  V30 5125 H 497.893 -1.38635 -3.45848 0
M  V30 5126 H 498.006 -3.27008 -3.50146 0
M  V30 5127 H 496.37 -1.66648 -1.92615 0
M  V30 5128 H 497.153 -3.19625 -1.25279 0
M  V30 5129 N 499.598 0.982988 -1.23187 0
M  V30 5130 C 500.844 1.72648 -1.06398 0
M  V30 5131 C 501.177 1.90066 0.398561 0
M  V30 5132 O 500.452 1.45105 1.29518 0
M  V30 5133 C 500.735 3.12627 -1.78707 0
M  V30 5134 C 500.588 3.02795 -3.32618 0
M  V30 5135 C 501.907 4.11997 -1.54747 0
M  V30 5136 H 499.026 0.626649 -0.387918 0
M  V30 5137 H 501.668 1.14455 -1.51658 0
M  V30 5138 H 499.818 3.62308 -1.40234 0
M  V30 5139 H 501.49 2.60659 -3.80598 0
M  V30 5140 H 499.733 2.39362 -3.61785 0
M  V30 5141 H 500.404 4.01893 -3.78399 0
M  V30 5142 H 502.88 3.71114 -1.88186 0
M  V30 5143 H 501.756 5.08037 -2.07821 0
M  V30 5144 H 502.017 4.39462 -0.482249 0
M  V30 5145 N 501.076 1.04316 1.18135 0
M  V30 5146 C 502.024 0.630175 2.23901 0
M  V30 5147 C 503.018 -0.344254 1.65865 0
M  V30 5148 O 504.224 -0.211273 1.78756 0
M  V30 5149 H 500.599 0.185578 0.728742 0
M  V30 5150 H 502.57 1.53253 2.56039 0
M  V30 5151 C 501.319 0.011666 3.47698 0
M  V30 5152 H 500.642 0.752526 3.92654 0
M  V30 5153 H 502.082 -0.240046 4.2332 0
M  V30 5154 C 500.541 -1.23913 3.13285 0
M  V30 5155 O 501.071 -2.32959 3.27251 0
M  V30 5156 N 499.277 -1.13338 2.67587 0
M  V30 5157 H 498.824 -0.246006 2.56423 0
M  V30 5158 H 498.782 -1.97116 2.44934 0
M  V30 5159 N 502.554 -1.34406 0.822964 0
M  V30 5160 C 503.782 -2.02508 0.424039 0
M  V30 5161 C 504.197 -1.61975 -0.970022 0
M  V30 5162 O 503.554 -0.825228 -1.62777 0
M  V30 5163 C 503.605 -3.57789 0.516657 0
M  V30 5164 O 503.326 -3.96853 1.85577 0
M  V30 5165 C 504.827 -4.43157 0.112637 0
M  V30 5166 H 502.047 -0.649063 0.170173 0
M  V30 5167 H 504.591 -1.7168 1.11113 0
M  V30 5168 H 502.746 -3.87207 -0.122353 0
M  V30 5169 H 503.16 -4.91538 1.83005 0
M  V30 5170 H 504.634 -5.51527 0.228526 0
M  V30 5171 H 505.111 -4.28939 -0.943837 0
M  V30 5172 H 505.717 -4.19067 0.725449 0
M  V30 5173 N 504.032 -0.577932 -1.46621 0
M  V30 5174 C 505.448 -0.239242 -1.57797 0
M  V30 5175 C 505.648 1.25843 -1.57371 0
M  V30 5176 O 504.704 2.03988 -1.48813 0
M  V30 5177 C 506.017 -0.884227 -2.87405 0
M  V30 5178 C 507.565 -0.857373 -3.01028 0
M  V30 5179 C 508.04 -1.48181 -4.33366 0
M  V30 5180 N 509.531 -1.44593 -4.40053 0
M  V30 5181 C 510.266 -1.89852 -5.41058 0
M  V30 5182 N 509.762 -2.43062 -6.48762 0
M  V30 5183 N 511.555 -1.80797 -5.3223 0
M  V30 5184 H 503.706 -1.55073 -1.45142 0
M  V30 5185 H 505.969 -0.647903 -0.692044 0
M  V30 5186 H 505.675 -1.93759 -2.93514 0
M  V30 5187 H 505.549 -0.389585 -3.75183 0
M  V30 5188 H 507.936 0.187357 -2.94505 0
M  V30 5189 H 508.017 -1.38999 -2.14739 0
M  V30 5190 H 507.661 -2.52572 -4.40647 0
M  V30 5191 H 507.591 -0.924464 -5.18422 0
M  V30 5192 H 510.082 -1.05694 -3.62819 0
M  V30 5193 H 510.395 -2.75466 -7.22038 0
M  V30 5194 H 508.74 -2.47085 -6.49595 0
M  V30 5195 H 511.931 -1.38989 -4.46989 0
M  V30 5196 H 512.104 -2.16385 -6.10804 0
M  V30 5197 N 505.51 1.54411 -0.315457 0
M  V30 5198 C 506.757 2.00419 0.289543 0
M  V30 5199 C 507.085 1.20373 1.52776 0
M  V30 5200 O 506.34 0.271769 1.93804 0
M  V30 5201 C 506.639 3.50936 0.676652 0
M  V30 5202 C 506.305 4.48532 -0.461472 0
M  V30 5203 C 504.967 4.74936 -0.773879 0
M  V30 5204 C 507.319 5.06567 -1.22637 0
M  V30 5205 C 504.647 5.56634 -1.85405 0
M  V30 5206 C 506.999 5.89441 -2.29657 0
M  V30 5207 C 505.663 6.1415 -2.61488 0
M  V30 5208 H 504.933 0.733386 0.105951 0
M  V30 5209 H 507.58 1.86434 -0.437554 0
M  V30 5210 H 505.885 3.62606 1.48405 0
M  V30 5211 H 507.582 3.83971 1.15618 0
M  V30 5212 H 504.172 4.28096 -0.207893 0
M  V30 5213 H 508.356 4.86157 -0.998271 0
M  V30 5214 H 503.612 5.74012 -2.10523 0
M  V30 5215 H 507.786 6.33432 -2.89374 0
M  V30 5216 H 505.413 6.77245 -3.45317 0
M  V30 5217 N 506.988 0.0434614 1.5754 0
M  V30 5218 C 507.92 -0.962586 2.08007 0
M  V30 5219 C 508.933 -1.27972 1.00634 0
M  V30 5220 O 510.122 -1.24186 1.28219 0
M  V30 5221 C 507.222 -2.28621 2.50171 0
M  V30 5222 C 506.395 -2.15214 3.80791 0
M  V30 5223 C 505.454 -3.30633 4.09351 0
M  V30 5224 O 504.48 -3.0688 4.79388 0
M  V30 5225 N 505.682 -4.54873 3.60654 0
M  V30 5226 H 508.447 -0.531891 2.94942 0
M  V30 5227 H 506.008 -0.142965 1.61268 0
M  V30 5228 H 508 -3.04689 2.66359 0
M  V30 5229 H 506.57 -2.63283 1.68525 0
M  V30 5230 H 505.79 -1.23785 3.74261 0
M  V30 5231 H 507.078 -2.03475 4.66343 0
M  V30 5232 H 506.476 -4.77063 3.04019 0
M  V30 5233 H 505.033 -5.2806 3.82094 0
M  V30 5234 N 508.466 -1.55915 -0.229846 0
M  V30 5235 C 509.694 -1.82617 -0.972562 0
M  V30 5236 C 510.109 -0.621488 -1.78278 0
M  V30 5237 O 509.466 0.409956 -1.77836 0
M  V30 5238 C 509.517 -3.0774 -1.89679 0
M  V30 5239 O 509.238 -4.23559 -1.11934 0
M  V30 5240 C 510.739 -3.47368 -2.75409 0
M  V30 5241 H 507.959 -0.60727 -0.285419 0
M  V30 5242 H 510.503 -2.02996 -0.247579 0
M  V30 5243 H 508.658 -2.89361 -2.57583 0
M  V30 5244 H 509.072 -4.94586 -1.74599 0
M  V30 5245 H 510.546 -4.37977 -3.35977 0
M  V30 5246 H 511.023 -2.68737 -3.47386 0
M  V30 5247 H 511.629 -3.68158 -2.12931 0
M  V30 5248 N 509.944 0.496216 -1.49584 0
M  V30 5249 C 510.891 1.59722 -1.66606 0
M  V30 5250 C 511.861 1.58158 -0.507477 0
M  V30 5251 O 513.046 1.76072 -0.735076 0
M  V30 5252 C 510.186 2.97844 -1.74308 0
M  V30 5253 C 509.299 3.09388 -3.01502 0
M  V30 5254 C 508.434 4.38271 -3.00153 0
M  V30 5255 C 507.473 4.43466 -4.21906 0
M  V30 5256 N 506.61 5.63784 -4.1844 0
M  V30 5257 H 511.45 1.44515 -2.60613 0
M  V30 5258 H 508.987 0.703048 -1.29212 0
M  V30 5259 H 510.945 3.77907 -1.76754 0
M  V30 5260 H 509.575 3.11743 -0.837619 0
M  V30 5261 H 508.627 2.22357 -3.08645 0
M  V30 5262 H 509.939 3.09085 -3.91494 0
M  V30 5263 H 509.093 5.2666 -3.01188 0
M  V30 5264 H 507.832 4.41146 -2.07947 0
M  V30 5265 H 506.837 3.53478 -4.21109 0
M  V30 5266 H 508.062 4.42303 -5.1531 0
M  V30 5267 H 506.008 5.67491 -3.29074 0
M  V30 5268 H 505.925 5.65118 -5.02173 0
M  V30 5269 H 507.193 6.54367 -4.23585 0
M  V30 5270 N 511.423 1.38739 0.74761 0
M  V30 5271 C 512.672 1.3459 1.50228 0
M  V30 5272 C 512.985 -0.0595592 1.95509 0
M  V30 5273 O 514.191 -0.22361 2.70578 0
M  V30 5274 C 512.647 2.36377 2.71393 0
M  V30 5275 C 512.255 3.82573 2.33113 0
M  V30 5276 C 513.999 2.41281 3.49262 0
M  V30 5277 C 511.906 4.76032 3.50924 0
M  V30 5278 H 510.836 0.500312 0.564096 0
M  V30 5279 H 513.487 1.64324 0.8167 0
M  V30 5280 H 511.869 1.99694 3.41962 0
M  V30 5281 H 513.043 4.28227 1.70171 0
M  V30 5282 H 511.358 3.80844 1.68365 0
M  V30 5283 H 513.955 3.08301 4.36869 0
M  V30 5284 H 514.298 1.43353 3.9084 0
M  V30 5285 H 514.831 2.76793 2.85711 0
M  V30 5286 H 511.57 5.75177 3.14408 0
M  V30 5287 H 511.09 4.35066 4.12889 0
M  V30 5288 H 512.769 4.94331 4.17427 0
M  V30 5289 N 512.901 -0.976442 1.23707 0
M  V30 5290 C 514.312 -1.53284 1.06587 0
M  V30 5291 C 514.663 -1.92765 -0.365526 0
M  V30 5292 O 513.788 -1.7645 -1.25277 0
M  V30 5293 C 514.383 -2.78548 1.92864 0
M  V30 5294 C 512.942 -3.30574 1.79994 0
M  V30 5295 C 512.089 -2.03538 1.88328 0
M  V30 5296 H 515.04 -0.795692 1.37311 0
M  V30 5297 H 515.061 -3.5155 1.45577 0
M  V30 5298 H 514.573 -2.49782 2.97037 0
M  V30 5299 H 512.674 -3.64211 0.786202 0
M  V30 5300 H 512.787 -4.00065 2.636 0
M  V30 5301 H 511.151 -2.17853 1.31954 0
M  V30 5302 H 511.934 -1.77149 2.94063 0
M  V30 5303 N 514.379 -1.04941 -1.1758 0
M  V30 5304 C 515.327 -0.64204 -2.23563 0
M  V30 5305 C 516.321 0.335453 -1.66045 0
M  V30 5306 O 517.527 0.20179 -1.78865 0
M  V30 5307 H 513.902 -0.18944 -0.727748 0
M  V30 5308 H 515.873 -1.54609 -2.55223 0
M  V30 5309 C 514.622 -0.0301051 -3.47687 0
M  V30 5310 H 513.945 -0.773339 -3.92249 0
M  V30 5311 H 515.385 0.217592 -4.23441 0
M  V30 5312 C 513.844 1.2225 -3.13937 0
M  V30 5313 O 514.374 2.3122 -3.28482 0
M  V30 5314 N 512.58 1.11917 -2.68185 0
M  V30 5315 H 512.127 0.232403 -2.5655 0
M  V30 5316 H 512.085 1.95814 -2.45976 0
M  V30 5317 N 515.857 1.33968 -0.830081 0
M  V30 5318 C 517.106 1.97323 -0.417928 0
M  V30 5319 C 517.419 1.6652 1.02618 0
M  V30 5320 O 518.625 2.2342 1.54259 0
M  V30 5321 C 517.081 3.53099 -0.696359 0
M  V30 5322 C 516.689 3.92788 -2.15457 0
M  V30 5323 C 518.433 4.23049 -0.350724 0
M  V30 5324 C 516.34 5.41506 -2.37751 0
M  V30 5325 H 515.27 0.738409 -0.152541 0
M  V30 5326 H 517.921 1.52711 -1.01744 0
M  V30 5327 H 516.303 3.95991 -0.0265904 0
M  V30 5328 H 517.477 3.6098 -2.86408 0
M  V30 5329 H 515.792 3.35795 -2.46232 0
M  V30 5330 H 518.389 5.32403 -0.495036 0
M  V30 5331 H 518.732 4.10279 0.705476 0
M  V30 5332 H 519.265 3.85657 -0.975362 0
M  V30 5333 H 516.004 5.5927 -3.41903 0
M  V30 5334 H 515.524 5.74804 -1.7135 0
M  V30 5335 H 517.203 6.0828 -2.20465 0
M  V30 5336 N 517.335 0.585699 1.46312 0
M  V30 5337 C 518.565 0.0780166 2.06453 0
M  V30 5338 C 518.973 -1.2336 1.43454 0
M  V30 5339 O 518.316 -1.75734 0.535086 0
M  V30 5340 C 518.378 -0.158951 3.59148 0
M  V30 5341 C 518.042 1.06752 4.44357 0
M  V30 5342 C 519.039 1.98031 4.80708 0
M  V30 5343 C 516.724 1.2902 4.85447 0
M  V30 5344 C 518.718 3.09924 5.5698 0
M  V30 5345 C 516.405 2.41218 5.61478 0
M  V30 5346 C 517.403 3.31499 5.97158 0
M  V30 5347 O 517.091 4.41747 6.71651 0
M  V30 5348 H 516.823 0.0558894 0.673686 0
M  V30 5349 H 519.377 0.806994 1.88883 0
M  V30 5350 H 517.607 -0.942575 3.75037 0
M  V30 5351 H 519.296 -0.615513 4.01206 0
M  V30 5352 H 520.062 1.82043 4.49539 0
M  V30 5353 H 515.941 0.596567 4.57124 0
M  V30 5354 H 519.485 3.80415 5.84748 0
M  V30 5355 H 515.382 2.57167 5.9206 0
M  V30 5356 H 516.15 4.40152 6.90079 0
M  V30 5357 N 518.813 -1.54241 0.323641 0
M  V30 5358 C 519.776 -2.22997 -0.529602 0
M  V30 5359 C 520.776 -1.22345 -1.04347 0
M  V30 5360 O 521.966 -1.46924 -0.935889 0
M  V30 5361 C 519.098 -2.93409 -1.73562 0
M  V30 5362 H 520.291 -2.99815 0.0714518 0
M  V30 5363 H 517.844 -1.56121 0.0747258 0
M  V30 5364 H 518.579 -2.20729 -2.37591 0
M  V30 5365 H 518.364 -3.67217 -1.37456 0
M  V30 5366 H 519.854 -3.45794 -2.34128 0
M  V30 5367 N 520.291 -0.0518155 -1.57515 0
M  V30 5368 C 521.54 0.621286 -1.91893 0
M  V30 5369 C 521.853 1.71966 -0.932052 0
M  V30 5370 O 523.059 2.45096 -1.16791 0
M  V30 5371 C 521.515 1.15641 -3.40816 0
M  V30 5372 C 521.123 0.0901146 -4.47909 0
M  V30 5373 C 522.867 1.80472 -3.84227 0
M  V30 5374 C 520.774 0.638154 -5.87947 0
M  V30 5375 H 519.704 0.235835 -0.716169 0
M  V30 5376 H 522.355 -0.120809 -1.83102 0
M  V30 5377 H 520.737 1.95084 -3.44613 0
M  V30 5378 H 521.911 -0.683525 -4.55702 0
M  V30 5379 H 520.226 -0.460774 -4.13843 0
M  V30 5380 H 522.823 2.22471 -4.86221 0
M  V30 5381 H 523.166 2.65669 -3.20508 0
M  V30 5382 H 523.699 1.07683 -3.82948 0
M  V30 5383 H 520.438 -0.176202 -6.55263 0
M  V30 5384 H 519.958 1.37976 -5.83714 0
M  V30 5385 H 521.637 1.12085 -6.37217 0
M  V30 5386 N 521.769 1.56035 0.221574 0
M  V30 5387 C 523.017 1.78693 0.944102 0
M  V30 5388 C 523.338 0.620317 1.8487 0
M  V30 5389 O 522.608 -0.362784 1.92512 0
M  V30 5390 H 521.188 0.659082 0.351597 0
M  V30 5391 H 523.85 1.93497 0.233435 0
M  V30 5392 H 522.946 2.70837 1.55093 0
M  V30 5393 N 523.247 -0.488276 1.49845 0
M  V30 5394 C 524.524 -1.24959 1.50481 0
M  V30 5395 C 524.904 -2.09735 0.239698 0
M  V30 5396 O 524.252 -2.14865 -0.777524 0
M  V30 5397 C 524.462 -2.0954 2.79095 0
M  V30 5398 C 525.81 -2.68305 3.29086 0
M  V30 5399 O 526.834 -2.19797 2.80299 0
M  V30 5400 O 525.693 -3.56643 4.14087 0
M  V30 5401 H 522.787 -0.566133 0.602845 0
M  V30 5402 H 525.333 -0.501504 1.6212 0
M  V30 5403 H 524.105 -1.46958 3.62656 0
M  V30 5404 H 523.728 -2.91517 2.70377 0
M  V30 5405 N 524.725 -1.39134 -0.740242 0
M  V30 5406 C 525.971 -1.36273 -1.50192 0
M  V30 5407 C 526.304 0.0430136 -1.94152 0
M  V30 5408 O 525.579 1.00691 -1.66408 0
M  V30 5409 C 525.862 -2.33041 -2.74525 0
M  V30 5410 C 525.715 -3.82535 -2.36617 0
M  V30 5411 C 527.034 -2.27723 -3.76604 0
M  V30 5412 H 524.153 -0.496323 -0.544823 0
M  V30 5413 H 526.795 -1.70085 -0.846815 0
M  V30 5414 H 524.945 -2.04337 -3.30422 0
M  V30 5415 H 526.617 -4.21967 -1.86391 0
M  V30 5416 H 524.86 -3.99565 -1.68909 0
M  V30 5417 H 525.531 -4.45723 -3.2563 0
M  V30 5418 H 528.007 -2.53091 -3.30279 0
M  V30 5419 H 526.883 -2.97519 -4.61274 0
M  V30 5420 H 527.144 -1.28049 -4.2315 0
M  V30 5421 N 526.204 0.969867 -1.24223 0
M  V30 5422 C 527.45 1.7151 -1.08223 0
M  V30 5423 C 527.783 1.90478 0.37838 0
M  V30 5424 O 527.058 1.4647 1.27971 0
M  V30 5425 C 527.341 3.10714 -1.82013 0
M  V30 5426 C 527.194 2.9925 -3.35811 0
M  V30 5427 C 528.513 4.10332 -1.59108 0
M  V30 5428 H 525.632 0.622499 -0.394543 0
M  V30 5429 H 528.274 1.1284 -1.52863 0
M  V30 5430 H 526.424 3.608 -1.44068 0
M  V30 5431 H 528.096 2.56608 -3.83341 0
M  V30 5432 H 526.339 2.35512 -3.64303 0
M  V30 5433 H 527.01 3.97857 -3.82641 0
M  V30 5434 H 529.486 3.69097 -1.92111 0
M  V30 5435 H 528.362 5.05804 -2.13198 0
M  V30 5436 H 528.623 4.38926 -0.528832 0
M  V30 5437 N 527.682 1.05563 1.17022 0
M  V30 5438 C 528.645 0.664098 2.19368 0
M  V30 5439 C 529.645 -0.286358 1.5823 0
M  V30 5440 O 530.835 -0.069728 1.7406 0
M  V30 5441 C 527.967 -0.0239932 3.40892 0
M  V30 5442 H 529.16 1.57 2.55521 0
M  V30 5443 H 526.713 0.849964 1.31169 0
M  V30 5444 H 527.448 -0.942988 3.10287 0
M  V30 5445 H 527.233 0.659351 3.86516 0
M  V30 5446 H 528.723 -0.283909 4.16634 0
M  V30 5447 N 529.16 -1.33526 0.837174 0
M  V30 5448 C 530.408 -1.97446 0.431211 0
M  V30 5449 C 530.729 -1.6665 -1.01255 0
M  V30 5450 O 529.999 -0.964559 -1.70508 0
M  V30 5451 H 528.579 -0.73043 0.156463 0
M  V30 5452 H 531.241 -1.62918 1.06976 0
M  V30 5453 H 530.337 -3.07001 0.561877 0
M  V30 5454 N 530.638 -0.59345 -1.46 0
M  V30 5455 C 532.049 -0.169801 -1.85926 0
M  V30 5456 C 532.4 1.26984 -1.49565 0
M  V30 5457 O 531.525 1.96076 -0.915602 0
M  V30 5458 C 532.12 -0.301385 -3.37457 0
M  V30 5459 C 530.679 0.0674684 -3.7634 0
M  V30 5460 C 529.826 -0.632383 -2.69993 0
M  V30 5461 H 532.777 -0.801014 -1.37002 0
M  V30 5462 H 532.798 0.470331 -3.77582 0
M  V30 5463 H 532.31 -1.34927 -3.63891 0
M  V30 5464 H 530.411 1.11507 -3.55523 0
M  V30 5465 H 530.524 -0.316332 -4.78055 0
M  V30 5466 H 528.888 -0.0714961 -2.546 0
M  V30 5467 H 529.671 -1.68212 -2.99265 0
M  V30 5468 N 532.116 1.54067 -0.331816 0
M  V30 5469 C 533.049 2.20886 0.573127 0
M  V30 5470 C 534.027 1.18876 1.10938 0
M  V30 5471 O 535.211 1.47649 1.17184 0
M  V30 5472 C 532.338 2.87706 1.78726 0
M  V30 5473 C 531.384 4.03505 1.38152 0
M  V30 5474 S 532.217 5.33919 0.41123 0
M  V30 5475 C 533.373 6.04236 1.63246 0
M  V30 5476 H 533.606 2.97299 0.00555737 0
M  V30 5477 H 531.139 1.53964 -0.115893 0
M  V30 5478 H 533.097 3.26825 2.48386 0
M  V30 5479 H 531.758 2.1108 2.32603 0
M  V30 5480 H 530.951 4.49152 2.28645 0
M  V30 5481 H 530.553 3.66102 0.764524 0
M  V30 5482 H 532.845 6.26917 2.56869 0
M  V30 5483 H 533.788 6.97546 1.218 0
M  V30 5484 H 534.196 5.34247 1.82318 0
M  V30 5485 N 533.594 0.0601682 1.57485 0
M  V30 5486 C 534.524 -0.90889 2.15085 0
M  V30 5487 C 535.505 -1.31838 1.07484 0
M  V30 5488 O 536.69 -1.3915 1.35466 0
M  V30 5489 C 533.82 -2.18059 2.7031 0
M  V30 5490 C 532.774 -1.91088 3.82974 0
M  V30 5491 C 532.1 -3.24789 4.24754 0
M  V30 5492 C 533.4 -1.22535 5.07723 0
M  V30 5493 H 535.094 -0.429093 2.96309 0
M  V30 5494 H 532.64 -0.204952 1.42534 0
M  V30 5495 H 534.593 -2.86258 3.09248 0
M  V30 5496 H 533.317 -2.6826 1.8629 0
M  V30 5497 H 531.976 -1.25297 3.44523 0
M  V30 5498 H 531.624 -3.72809 3.37672 0
M  V30 5499 H 531.324 -3.07538 5.00694 0
M  V30 5500 H 532.848 -3.94205 4.66299 0
M  V30 5501 H 534.262 -1.80783 5.4405 0
M  V30 5502 H 532.659 -1.1558 5.88864 0
M  V30 5503 H 533.729 -0.202692 4.84476 0
M  V30 5504 N 535.072 -1.5615 -0.213296 0
M  V30 5505 C 536.035 -1.92249 -1.24792 0
M  V30 5506 C 537.035 -0.801828 -1.39382 0
M  V30 5507 O 538.225 -1.06948 -1.37506 0
M  V30 5508 C 535.357 -2.18056 -2.62039 0
M  V30 5509 H 536.55 -2.84793 -0.939845 0
M  V30 5510 H 534.103 -1.49559 -0.454062 0
M  V30 5511 H 534.838 -1.2809 -2.97932 0
M  V30 5512 H 534.623 -2.99703 -2.52825 0
M  V30 5513 H 536.113 -2.47051 -3.36683 0
M  V30 5514 N 536.55 0.480323 -1.50102 0
M  V30 5515 C 537.5 1.57685 -1.6468 0
M  V30 5516 C 538.484 1.52878 -0.5017 0
M  V30 5517 O 539.676 1.60058 -0.755668 0
M  V30 5518 C 536.805 2.96185 -1.73578 0
M  V30 5519 C 535.891 3.0591 -2.93734 0
M  V30 5520 N 536.282 2.85471 -4.1754 0
M  V30 5521 C 534.58 3.37036 -2.92101 0
M  V30 5522 C 535.281 2.99921 -4.9842 0
M  V30 5523 N 534.257 3.29715 -4.32191 0
M  V30 5524 H 538.059 1.40568 -2.58104 0
M  V30 5525 H 535.573 0.686874 -1.47159 0
M  V30 5526 H 537.57 3.75015 -1.82124 0
M  V30 5527 H 536.23 3.14356 -0.813057 0
M  V30 5528 H 537.241 2.61235 -4.47188 0
M  V30 5529 H 533.918 3.61253 -2.09291 0
M  V30 5530 H 535.308 2.88436 -6.06839 0
M  V30 5531 N 538.028 1.39524 0.732853 0
M  V30 5532 C 538.975 1.38416 1.84688 0
M  V30 5533 C 539.945 0.243539 1.64305 0
M  V30 5534 O 541.13 0.438979 1.85681 0
M  V30 5535 C 538.27 1.23555 3.22224 0
M  V30 5536 C 537.383 2.47179 3.54298 0
M  V30 5537 C 536.518 2.2489 4.81246 0
M  V30 5538 C 535.557 3.44178 5.0617 0
M  V30 5539 N 534.694 3.21192 6.24323 0
M  V30 5540 H 539.534 2.33645 1.84971 0
M  V30 5541 H 537.071 1.16059 0.903804 0
M  V30 5542 H 539.029 1.12949 4.0162 0
M  V30 5543 H 537.659 0.31954 3.21215 0
M  V30 5544 H 536.711 2.68379 2.69587 0
M  V30 5545 H 538.023 3.36022 3.68633 0
M  V30 5546 H 537.177 2.11538 5.68627 0
M  V30 5547 H 535.916 1.33443 4.69089 0
M  V30 5548 H 534.921 3.58025 4.17251 0
M  V30 5549 H 536.146 4.36528 5.20212 0
M  V30 5550 H 534.092 2.32413 6.1345 0
M  V30 5551 H 534.009 4.03594 6.39256 0
M  V30 5552 H 535.277 3.1154 7.14537 0
M  V30 5553 N 539.506 -0.963266 1.24736 0
M  V30 5554 C 540.469 -2.04013 1.04457 0
M  V30 5555 C 541.469 -1.608 0.000335555 0
M  V30 5556 O 542.659 -1.72515 0.241719 0
M  V30 5557 C 539.791 -3.35858 0.584162 0
M  V30 5558 H 540.984 -2.23436 2.00041 0
M  V30 5559 H 538.537 -1.13914 1.07021 0
M  V30 5560 H 539.272 -3.22128 -0.374673 0
M  V30 5561 H 539.057 -3.68568 1.3379 0
M  V30 5562 H 540.547 -4.1502 0.463451 0
M  V30 5563 N 540.985 -1.06182 -1.16461 0
M  V30 5564 C 541.895 -0.682671 -2.24448 0
M  V30 5565 C 542.911 0.30078 -1.71381 0
M  V30 5566 O 544.087 0.150376 -2.00838 0
M  V30 5567 C 541.152 -0.0737202 -3.46622 0
M  V30 5568 C 540.213 -1.10889 -4.14731 0
M  V30 5569 C 539.446 -0.528908 -5.31073 0
M  V30 5570 O 539.669 0.65868 -5.66584 0
M  V30 5571 O 538.603 -1.26805 -5.88391 0
M  V30 5572 H 542.429 -1.58291 -2.59187 0
M  V30 5573 H 540.014 -0.834013 -1.23954 0
M  V30 5574 H 541.896 0.264192 -4.20571 0
M  V30 5575 H 540.571 0.800015 -3.13658 0
M  V30 5576 H 539.478 -1.49896 -3.42756 0
M  V30 5577 H 540.811 -1.95412 -4.51747 0
M  V30 5578 N 542.463 1.3308 -0.844243 0
M  V30 5579 C 543.74 1.92178 -0.364261 0
M  V30 5580 C 544.12 1.76961 1.15101 0
M  V30 5581 O 543.468 1.16128 1.9679 0
M  V30 5582 C 543.678 3.393 -0.817106 0
M  V30 5583 C 545.026 4.16444 -0.828236 0
M  V30 5584 O 546.05 3.47975 -0.761062 0
M  V30 5585 O 544.909 5.38685 -0.920926 0
M  V30 5586 H 542.003 0.820411 -0.10419 0
M  V30 5587 H 544.549 1.41918 -0.930453 0
M  V30 5588 H 543.321 3.44272 -1.85991 0
M  V30 5589 H 542.944 3.96947 -0.227785 0
M  V30 5590 N 543.941 0.601185 1.45683 0
M  V30 5591 C 544.851 -0.123395 2.34275 0
M  V30 5592 C 545.867 -0.86702 1.5086 0
M  V30 5593 O 547.043 -0.826049 1.8368 0
M  V30 5594 C 544.108 -1.11237 3.2837 0
M  V30 5595 C 543.169 -0.371405 4.2769 0
M  V30 5596 C 542.402 -1.31327 5.1729 0
M  V30 5597 O 542.625 -2.55078 5.10188 0
M  V30 5598 O 541.559 -0.813811 5.96373 0
M  V30 5599 H 545.385 0.604483 2.97623 0
M  V30 5600 H 542.97 0.361477 1.44961 0
M  V30 5601 H 544.852 -1.68214 3.8637 0
M  V30 5602 H 543.527 -1.82139 2.67595 0
M  V30 5603 H 542.434 0.24067 3.73325 0
M  V30 5604 H 543.767 0.296998 4.91303 0
M  V30 5605 N 545.419 -1.53889 0.339982 0
M  V30 5606 C 546.667 -2.00458 -0.257112 0
M  V30 5607 C 546.988 -1.22953 -1.51353 0
M  V30 5608 O 546.258 -0.335734 -1.93002 0
M  V30 5609 H 544.838 -0.740544 -0.0979965 0
M  V30 5610 H 547.5 -1.89386 0.460317 0
M  V30 5611 H 546.596 -3.08035 -0.502057 0
M  V30 5612 N 546.897 -0.0685191 -1.57451 0
M  V30 5613 C 548.146 0.600898 -1.92541 0
M  V30 5614 C 548.459 1.70967 -0.950239 0
M  V30 5615 O 549.665 2.43844 -1.19384 0
M  V30 5616 C 548.121 1.12019 -3.42023 0
M  V30 5617 C 547.729 0.0426028 -4.4798 0
M  V30 5618 C 549.473 1.76386 -3.86119 0
M  V30 5619 C 547.38 0.575759 -5.88591 0
M  V30 5620 H 546.31 0.228225 -0.71863 0
M  V30 5621 H 548.961 -0.140223 -1.82963 0
M  V30 5622 H 547.343 1.91418 -3.46663 0
M  V30 5623 H 548.517 -0.73182 -4.54952 0
M  V30 5624 H 546.832 -0.504642 -4.13331 0
M  V30 5625 H 549.429 2.17302 -4.88553 0
M  V30 5626 H 549.772 2.62255 -3.23308 0
M  V30 5627 H 550.305 1.03615 -3.84069 0
M  V30 5628 H 547.044 -0.245691 -6.55039 0
M  V30 5629 H 546.564 1.31778 -5.85145 0
M  V30 5630 H 548.243 1.0532 -6.3837 0
M  V30 5631 N 548.375 1.56261 0.205012 0
M  V30 5632 C 549.624 1.79236 0.925058 0
M  V30 5633 C 549.937 0.640011 1.84833 0
M  V30 5634 O 551.143 0.753809 2.60826 0
M  V30 5635 C 549.599 3.17475 1.69522 0
M  V30 5636 C 549.207 4.40482 0.817269 0
M  V30 5637 C 550.951 3.49766 2.4055 0
M  V30 5638 C 548.858 5.69744 1.58573 0
M  V30 5639 H 547.788 0.668287 0.349153 0
M  V30 5640 H 550.439 1.82629 0.178544 0
M  V30 5641 H 548.821 3.08304 2.48526 0
M  V30 5642 H 549.995 4.60752 0.0665988 0
M  V30 5643 H 548.31 4.15827 0.218316 0
M  V30 5644 H 550.907 4.43573 2.98575 0
M  V30 5645 H 551.25 2.73041 3.14252 0
M  V30 5646 H 551.783 3.60341 1.68522 0
M  V30 5647 H 548.522 6.49407 0.891679 0
M  V30 5648 H 548.042 5.53509 2.31059 0
M  V30 5649 H 549.721 6.1051 2.14212 0
M  V30 5650 N 549.853 -0.472356 1.50355 0
M  V30 5651 C 551.093 -1.23439 1.62918 0
M  V30 5652 C 551.457 -1.89284 0.321801 0
M  V30 5653 O 552.658 -2.66854 0.322852 0
M  V30 5654 C 550.929 -2.25119 2.7759 0
M  V30 5655 S 552.488 -3.10278 3.10279 0
M  V30 5656 H 549.306 -0.41911 0.574341 0
M  V30 5657 H 551.908 -0.531621 1.88133 0
M  V30 5658 H 550.612 -1.75324 3.71066 0
M  V30 5659 H 550.143 -3.00026 2.54457 0
M  V30 5660 H 552.158 -4.26257 2.54007 0
M  V30 5661 N 551.331 -1.39911 -0.725443 0
M  V30 5662 C 552.577 -1.37858 -1.48738 0
M  V30 5663 C 552.91 0.0224187 -1.94187 0
M  V30 5664 O 552.185 0.989204 -1.67466 0
M  V30 5665 C 552.468 -2.3594 -2.72038 0
M  V30 5666 C 552.321 -3.85023 -2.32546 0
M  V30 5667 C 553.64 -2.31704 -3.74167 0
M  V30 5668 H 550.759 -0.502074 -0.539528 0
M  V30 5669 H 553.401 -1.70974 -0.828728 0
M  V30 5670 H 551.551 -2.0783 -3.28236 0
M  V30 5671 H 553.223 -4.2392 -1.81905 0
M  V30 5672 H 551.466 -4.01334 -1.64661 0
M  V30 5673 H 552.137 -4.49152 -3.20884 0
M  V30 5674 H 554.613 -2.5658 -3.27576 0
M  V30 5675 H 553.489 -3.02395 -4.58092 0
M  V30 5676 H 553.75 -1.3253 -4.21768 0
M  V30 5677 N 552.809 0.956637 -1.25245 0
M  V30 5678 C 553.719 2.0868 -1.0719 0
M  V30 5679 C 554.735 1.73997 -0.00959074 0
M  V30 5680 O 555.911 2.00301 -0.210104 0
M  V30 5681 C 552.976 3.39754 -0.690526 0
M  V30 5682 C 552.037 3.88316 -1.83055 0
M  V30 5683 C 551.27 5.13134 -1.46728 0
M  V30 5684 O 551.493 5.6925 -0.362029 0
M  V30 5685 O 550.427 5.56356 -2.29677 0
M  V30 5686 H 554.253 2.26813 -2.01965 0
M  V30 5687 H 551.838 1.07098 -1.04165 0
M  V30 5688 H 553.72 4.18543 -0.489871 0
M  V30 5689 H 552.395 3.22896 0.227981 0
M  V30 5690 H 551.302 3.1054 -2.08604 0
M  V30 5691 H 552.635 4.09669 -2.72822 0
M  V30 5692 N 554.287 1.06798 1.15896 0
M  V30 5693 C 555.535 0.786211 1.8618 0
M  V30 5694 C 555.856 -0.689547 1.82401 0
M  V30 5695 O 555.126 -1.49913 1.26107 0
M  V30 5696 H 553.706 0.287843 0.689315 0
M  V30 5697 H 556.368 1.35055 1.40521 0
M  V30 5698 H 555.464 1.1157 2.91477 0
M  V30 5699 N 555.766 -1.3263 0.851289 0
M  V30 5700 C 556.699 -2.26952 0.238318 0
M  V30 5701 C 557.677 -1.50243 -0.621757 0
M  V30 5702 O 558.861 -1.79378 -0.579298 0
M  V30 5703 C 555.988 -3.32124 -0.664178 0
M  V30 5704 C 555.034 -4.26325 0.122067 0
M  V30 5705 S 555.867 -5.14404 1.48824 0
M  V30 5706 C 557.023 -6.231 0.591372 0
M  V30 5707 H 557.256 -2.78594 1.03791 0
M  V30 5708 H 554.789 -1.4011 0.648731 0
M  V30 5709 H 556.747 -3.93197 -1.17924 0
M  V30 5710 H 555.408 -2.79273 -1.43755 0
M  V30 5711 H 554.601 -5.00821 -0.565181 0
M  V30 5712 H 554.203 -3.69652 0.568602 0
M  V30 5713 H 556.495 -6.77187 -0.205762 0
M  V30 5714 H 557.438 -6.95936 1.30687 0
M  V30 5715 H 557.846 -5.64252 0.167206 0
M  V30 5716 N 557.244 -0.608902 -1.45362 0
M  V30 5717 C 558.207 0.0992563 -2.28985 0
M  V30 5718 C 559.207 0.793841 -1.39838 0
M  V30 5719 O 560.397 0.641804 -1.61946 0
M  V30 5720 C 557.529 1.15073 -3.20891 0
M  V30 5721 H 558.722 -0.635964 -2.93079 0
M  V30 5722 H 556.275 -0.368007 -1.51906 0
M  V30 5723 H 557.01 1.91667 -2.616 0
M  V30 5724 H 556.795 0.656867 -3.86559 0
M  V30 5725 H 558.285 1.64665 -3.83765 0
M  V30 5726 N 558.722 1.53707 -0.348139 0
M  V30 5727 C 559.97 2.00591 0.246478 0
M  V30 5728 C 560.291 1.23753 1.50699 0
M  V30 5729 O 559.561 0.345964 1.92821 0
M  V30 5730 H 558.141 0.741053 0.0940679 0
M  V30 5731 H 560.803 1.89139 -0.470354 0
M  V30 5732 H 559.899 3.08297 0.485714 0
M  V30 5733 N 560.2 0.0768682 1.57412 0
M  V30 5734 C 561.448 -0.589918 1.93299 0
M  V30 5735 C 561.769 -1.69842 0.958049 0
M  V30 5736 O 561.039 -1.95899 0.00703261 0
M  V30 5737 H 559.619 -0.220901 0.713591 0
M  V30 5738 H 562.281 0.135917 1.94425 0
M  V30 5739 H 561.377 -1.01195 2.95239 0
M  V30 5740 N 561.678 -1.56367 -0.196722 0
M  V30 5741 C 562.641 -1.93561 -1.22746 0
M  V30 5742 C 563.641 -0.816566 -1.38524 0
M  V30 5743 O 564.831 -1.084 -1.36363 0
M  V30 5744 C 561.963 -2.20823 -2.59712 0
M  V30 5745 H 563.156 -2.85774 -0.909586 0
M  V30 5746 H 560.709 -1.50032 -0.438174 0
M  V30 5747 H 561.444 -1.31243 -2.96557 0
M  V30 5748 H 561.229 -3.02368 -2.49632 0
M  V30 5749 H 562.719 -2.50608 -3.34044 0
M  V30 5750 N 563.156 0.464375 -1.50603 0
M  V30 5751 C 564.402 1.21776 -1.62168 0
M  V30 5752 C 564.735 1.91476 -0.324154 0
M  V30 5753 O 564.01 1.8242 0.674782 0
M  V30 5754 C 564.293 2.25614 -2.80661 0
M  V30 5755 C 564.146 1.60175 -4.20314 0
M  V30 5756 C 565.465 3.26862 -2.94702 0
M  V30 5757 H 562.584 0.44137 -0.590222 0
M  V30 5758 H 565.226 0.510623 -1.8301 0
M  V30 5759 H 563.376 2.85923 -2.63021 0
M  V30 5760 H 565.048 1.03411 -4.4956 0
M  V30 5761 H 563.291 0.904697 -4.24261 0
M  V30 5762 H 563.962 2.35665 -4.99165 0
M  V30 5763 H 566.438 2.76582 -3.10872 0
M  V30 5764 H 565.314 3.96839 -3.79223 0
M  V30 5765 H 565.575 3.91382 -2.05603 0
M  V30 5766 N 564.634 1.40294 0.718013 0
M  V30 5767 C 565.584 1.36847 1.82365 0
M  V30 5768 C 566.568 0.246424 1.59002 0
M  V30 5769 O 567.76 0.485336 1.70216 0
M  V30 5770 C 564.889 1.23105 3.20469 0
M  V30 5771 C 563.975 2.4008 3.49603 0
M  V30 5772 N 564.366 3.65562 3.49568 0
M  V30 5773 C 562.664 2.33407 3.80049 0
M  V30 5774 C 563.365 4.43015 3.76978 0
M  V30 5775 N 562.341 3.72823 3.95606 0
M  V30 5776 H 566.143 2.31811 1.80668 0
M  V30 5777 H 563.657 1.34031 0.91703 0
M  V30 5778 H 565.654 1.18718 3.9964 0
M  V30 5779 H 564.314 0.291056 3.23393 0
M  V30 5780 H 565.325 3.98756 3.30476 0
M  V30 5781 H 562.002 1.47762 3.90478 0
M  V30 5782 H 563.392 5.51859 3.83276 0
M  V30 5783 N 566.112 -0.949982 1.2575 0
M  V30 5784 C 567.361 -1.68956 1.10168 0
M  V30 5785 C 567.674 -1.92327 -0.356309 0
M  V30 5786 O 568.88 -2.64026 -0.632657 0
M  V30 5787 C 567.336 -3.04196 1.92336 0
M  V30 5788 C 566.944 -2.88603 3.42655 0
M  V30 5789 C 568.688 -3.81904 1.85336 0
M  V30 5790 C 566.595 -4.19262 4.17101 0
M  V30 5791 H 565.525 -0.633645 0.408668 0
M  V30 5792 H 568.176 -1.05719 1.49986 0
M  V30 5793 H 566.558 -3.68363 1.45344 0
M  V30 5794 H 567.732 -2.3334 3.97353 0
M  V30 5795 H 566.047 -2.24345 3.50796 0
M  V30 5796 H 568.644 -4.78688 2.38248 0
M  V30 5797 H 568.987 -4.08099 0.822226 0
M  V30 5798 H 569.52 -3.24495 2.30104 0
M  V30 5799 H 566.259 -3.98254 5.20648 0
M  V30 5800 H 565.779 -4.74273 3.67186 0
M  V30 5801 H 567.458 -4.87775 4.25071 0
M  V30 5802 N 567.59 -1.07411 -1.15328 0
M  V30 5803 C 568.867 -0.710732 -1.82231 0
M  V30 5804 C 569.247 0.806732 -1.95077 0
M  V30 5805 O 568.595 1.72139 -1.50268 0
M  V30 5806 C 568.805 -1.42586 -3.18544 0
M  V30 5807 C 570.153 -1.57836 -3.94174 0
M  V30 5808 O 571.177 -1.38669 -3.281 0
M  V30 5809 O 570.036 -1.8938 -5.12638 0
M  V30 5810 H 567.13 -0.25297 -0.78736 0
M  V30 5811 H 569.676 -1.17508 -1.22434 0
M  V30 5812 H 568.448 -2.46008 -3.04296 0
M  V30 5813 H 568.071 -0.952332 -3.86026 0
M  V30 5814 N 569.068 1.32177 -0.85831 0
M  V30 5815 C 570.298 2.01021 -0.476889 0
M  V30 5816 C 570.706 1.64653 0.931995 0
M  V30 5817 O 570.049 0.865713 1.62022 0
M  V30 5818 C 570.111 3.55413 -0.540528 0
M  V30 5819 C 569.775 4.1522 -1.90895 0
M  V30 5820 C 570.772 4.3318 -2.87491 0
M  V30 5821 C 568.457 4.51212 -2.20709 0
M  V30 5822 C 570.451 4.86306 -4.1205 0
M  V30 5823 C 568.138 5.04042 -3.45521 0
M  V30 5824 C 569.136 5.21538 -4.41007 0
M  V30 5825 O 568.824 5.73238 -5.63608 0
M  V30 5826 H 568.556 0.650059 -0.18547 0
M  V30 5827 H 571.11 1.69648 -1.15796 0
M  V30 5828 H 569.34 3.86196 0.19741 0
M  V30 5829 H 571.029 4.05526 -0.174191 0
M  V30 5830 H 571.795 4.05704 -2.65762 0
M  V30 5831 H 567.674 4.36878 -1.4717 0
M  V30 5832 H 571.218 4.99877 -4.86589 0
M  V30 5833 H 567.115 5.30952 -3.67098 0
M  V30 5834 H 567.883 5.91625 -5.65617 0
M  V30 5835 N 570.547 0.616602 1.45037 0
M  V30 5836 C 571.495 -0.109318 2.32343 0
M  V30 5837 C 572.489 -0.850543 1.465 0
M  V30 5838 O 573.695 -0.765088 1.62931 0
M  V30 5839 H 570.07 -0.0541091 0.750051 0
M  V30 5840 H 572.041 0.645326 2.91338 0
M  V30 5841 C 570.79 -1.0872 3.30266 0
M  V30 5842 H 570.113 -0.526267 3.96321 0
M  V30 5843 H 571.553 -1.56489 3.94065 0
M  V30 5844 C 570.012 -2.16525 2.58105 0
M  V30 5845 O 570.542 -3.244 2.36913 0
M  V30 5846 N 568.748 -1.92057 2.18088 0
M  V30 5847 H 568.295 -1.04337 2.35524 0
M  V30 5848 H 568.253 -2.64391 1.70131 0
M  V30 5849 N 572.025 -1.5352 0.356285 0
M  V30 5850 C 573.265 -2.03027 -0.23649 0
M  V30 5851 C 573.629 -1.23813 -1.46746 0
M  V30 5852 O 574.83 -1.63281 -2.13525 0
M  V30 5853 C 573.101 -3.53442 -0.530415 0
M  V30 5854 S 574.66 -4.24836 -1.09819 0
M  V30 5855 H 571.478 -0.707591 -0.0695378 0
M  V30 5856 H 574.08 -1.89077 0.496999 0
M  V30 5857 H 572.784 -4.087 0.373114 0
M  V30 5858 H 572.315 -3.71536 -1.29323 0
M  V30 5859 H 574.33 -4.35228 -2.38309 0
M  V30 5860 N 573.503 -0.0852151 -1.57369 0
M  V30 5861 C 574.749 0.581666 -1.94279 0
M  V30 5862 C 575.082 1.68444 -0.966446 0
M  V30 5863 O 574.357 1.945 0.00215277 0
M  V30 5864 C 574.64 1.14609 -3.41375 0
M  V30 5865 C 574.493 0.0490414 -4.49773 0
M  V30 5866 C 575.812 2.04751 -3.8957 0
M  V30 5867 H 572.931 0.209972 -0.706456 0
M  V30 5868 H 575.573 -0.153915 -1.89376 0
M  V30 5869 H 573.723 1.77297 -3.45685 0
M  V30 5870 H 575.395 -0.584721 -4.57579 0
M  V30 5871 H 573.638 -0.618638 -4.29366 0
M  V30 5872 H 574.309 0.484601 -5.49869 0
M  V30 5873 H 576.785 1.51981 -3.87351 0
M  V30 5874 H 575.661 2.41173 -4.93079 0
M  V30 5875 H 575.922 2.96107 -3.28288 0
M  V30 5876 N 574.981 1.5647 0.188427 0
M  V30 5877 C 576.392 1.70864 0.752494 0
M  V30 5878 C 576.743 0.692905 1.83557 0
M  V30 5879 O 575.868 -0.149307 2.15884 0
M  V30 5880 C 576.463 3.09789 1.37173 0
M  V30 5881 C 575.022 3.25925 1.88281 0
M  V30 5882 C 574.169 2.66817 0.755259 0
M  V30 5883 H 577.12 1.58657 -0.0367408 0
M  V30 5884 H 577.141 3.07489 2.24122 0
M  V30 5885 H 576.653 3.83693 0.583219 0
M  V30 5886 H 574.754 2.56948 2.6983 0
M  V30 5887 H 574.867 4.33498 2.04001 0
M  V30 5888 H 573.231 2.2617 1.17128 0
M  V30 5889 H 574.014 3.43294 -0.0211237 0
M  V30 5890 N 576.459 -0.456382 1.50847 0
M  V30 5891 C 577.684 -1.2349 1.66628 0
M  V30 5892 C 578.109 -1.84715 0.355254 0
M  V30 5893 O 577.467 -1.67961 -0.682559 0
M  V30 5894 C 577.515 -2.30865 2.77009 0
M  V30 5895 O 576.619 -3.35882 2.39285 0
M  V30 5896 H 575.96 -0.36266 0.556214 0
M  V30 5897 H 578.49 -0.541374 1.97308 0
M  V30 5898 H 578.5 -2.75949 3.00526 0
M  V30 5899 H 577.175 -1.85677 3.72152 0
M  V30 5900 H 575.752 -2.96406 2.26269 0
M  V30 5901 N 577.937 -1.40673 -0.710563 0
M  V30 5902 C 579.183 -1.39428 -1.47267 0
M  V30 5903 C 579.516 0.00182129 -1.942 0
M  V30 5904 O 578.791 0.971387 -1.68506 0
M  V30 5905 C 579.074 -2.38812 -2.6952 0
M  V30 5906 C 578.927 -3.87467 -2.28449 0
M  V30 5907 C 580.246 -2.3566 -3.71689 0
M  V30 5908 H 577.365 -0.507768 -0.534173 0
M  V30 5909 H 580.007 -1.71843 -0.810547 0
M  V30 5910 H 578.157 -2.113 -3.26013 0
M  V30 5911 H 579.829 -4.25825 -1.77399 0
M  V30 5912 H 578.072 -4.03058 -1.60395 0
M  V30 5913 H 578.743 -4.5253 -3.16103 0
M  V30 5914 H 581.219 -2.6004 -3.24836 0
M  V30 5915 H 580.095 -3.07237 -4.54859 0
M  V30 5916 H 580.356 -1.36996 -4.20339 0
M  V30 5917 N 579.415 0.9433 -1.26252 0
M  V30 5918 C 580.664 1.68369 -1.11062 0
M  V30 5919 C 580.977 1.92514 0.346104 0
M  V30 5920 O 582.183 2.64358 0.618646 0
M  V30 5921 C 580.639 3.03171 -1.93946 0
M  V30 5922 C 580.247 2.86782 -3.4418 0
M  V30 5923 C 581.991 3.80916 -1.87359 0
M  V30 5924 C 579.898 4.17044 -4.19319 0
M  V30 5925 H 578.828 0.631469 -0.412023 0
M  V30 5926 H 581.479 1.04922 -1.50544 0
M  V30 5927 H 579.861 3.67587 -1.47296 0
M  V30 5928 H 581.035 2.31229 -3.98585 0
M  V30 5929 H 579.35 2.22482 -3.51981 0
M  V30 5930 H 581.947 4.77417 -2.40784 0
M  V30 5931 H 582.29 4.07658 -0.843857 0
M  V30 5932 H 582.823 3.2327 -2.31821 0
M  V30 5933 H 579.562 3.95487 -5.22753 0
M  V30 5934 H 579.082 4.72319 -3.69696 0
M  V30 5935 H 580.761 4.85513 -4.27651 0
M  V30 5936 N 580.893 1.08022 1.14757 0
M  V30 5937 C 582.123 0.827646 1.89298 0
M  V30 5938 C 582.531 -0.623506 1.78631 0
M  V30 5939 O 581.874 -1.43991 1.14071 0
M  V30 5940 C 581.936 1.16553 3.40082 0
M  V30 5941 C 581.6 2.61866 3.74533 0
M  V30 5942 C 582.597 3.60116 3.74984 0
M  V30 5943 C 580.282 2.97619 4.04633 0
M  V30 5944 C 582.276 4.92151 4.05051 0
M  V30 5945 C 579.963 4.2985 4.34364 0
M  V30 5946 C 580.961 5.26926 4.34555 0
M  V30 5947 O 580.649 6.5678 4.63568 0
M  V30 5948 H 580.381 0.298396 0.606577 0
M  V30 5949 H 582.935 1.44187 1.46285 0
M  V30 5950 H 581.165 0.494296 3.83528 0
M  V30 5951 H 582.854 0.894407 3.95923 0
M  V30 5952 H 583.62 3.33837 3.51821 0
M  V30 5953 H 579.499 2.22702 4.03639 0
M  V30 5954 H 583.043 5.67915 4.05115 0
M  V30 5955 H 578.94 4.55879 4.56995 0
M  V30 5956 H 579.708 6.62035 4.81303 0
M  V30 5957 N 582.371 -1.3172 0.865308 0
M  V30 5958 C 583.599 -2.01057 0.488251 0
M  V30 5959 C 584.014 -1.64979 -0.918 0
M  V30 5960 O 583.371 -0.876597 -1.60069 0
M  V30 5961 C 583.422 -3.55964 0.630224 0
M  V30 5962 O 583.143 -3.90749 1.98109 0
M  V30 5963 C 584.644 -4.42574 0.253567 0
M  V30 5964 H 581.864 -0.64332 0.190736 0
M  V30 5965 H 584.408 -1.68058 1.16519 0
M  V30 5966 H 582.563 -3.874 0.000895422 0
M  V30 5967 H 582.977 -4.85467 1.9855 0
M  V30 5968 H 584.451 -5.50521 0.403875 0
M  V30 5969 H 584.928 -4.31724 -0.806895 0
M  V30 5970 H 585.534 -4.16547 0.858404 0
M  V30 5971 N 583.85 -0.624285 -1.44708 0
M  V30 5972 C 584.8 0.106466 -2.27751 0
M  V30 5973 C 585.784 0.822703 -1.38277 0
M  V30 5974 O 586.976 0.709939 -1.62138 0
M  V30 5975 C 584.105 1.092 -3.25469 0
M  V30 5976 C 583.191 0.375737 -4.22432 0
M  V30 5977 N 583.582 -0.591881 -5.02325 0
M  V30 5978 C 581.88 0.621093 -4.41654 0
M  V30 5979 C 582.581 -1.01443 -5.72786 0
M  V30 5980 N 581.557 -0.354651 -5.42442 0
M  V30 5981 H 585.359 -0.636464 -2.86926 0
M  V30 5982 H 582.873 -0.44925 -1.56062 0
M  V30 5983 H 584.87 1.63006 -3.83712 0
M  V30 5984 H 583.529 1.8353 -2.67856 0
M  V30 5985 H 584.541 -0.969389 -5.08747 0
M  V30 5986 H 581.218 1.34779 -3.95147 0
M  V30 5987 H 582.608 -1.81345 -6.46965 0
M  V30 5988 N 585.328 1.53329 -0.364422 0
M  V30 5989 C 586.739 1.86345 0.115039 0
M  V30 5990 C 587.09 1.28505 1.4826 0
M  V30 5991 O 586.215 0.606639 2.07723 0
M  V30 5992 C 586.81 3.38114 0.215522 0
M  V30 5993 C 585.369 3.70932 0.639237 0
M  V30 5994 C 584.516 2.76471 -0.214261 0
M  V30 5995 H 587.467 1.47593 -0.583258 0
M  V30 5996 H 587.488 3.66031 1.0393 0
M  V30 5997 H 587 3.80182 -0.779948 0
M  V30 5998 H 585.101 3.3442 1.64298 0
M  V30 5999 H 585.214 4.77302 0.41465 0
M  V30 6000 H 583.578 2.52724 0.316678 0
M  V30 6001 H 584.361 3.21373 -1.20725 0
M  V30 6002 N 586.806 0.0935595 1.57322 0
M  V30 6003 C 587.716 -0.880192 2.17462 0
M  V30 6004 C 588.732 -1.31135 1.14366 0
M  V30 6005 O 589.908 -1.37958 1.46729 0
M  V30 6006 C 586.973 -2.12184 2.74188 0
M  V30 6007 C 586.034 -1.74503 3.92234 0
M  V30 6008 C 585.267 -2.92748 4.46245 0
M  V30 6009 O 585.49 -4.07427 3.99198 0
M  V30 6010 O 584.424 -2.71303 5.37288 0
M  V30 6011 H 588.25 -0.398516 3.01074 0
M  V30 6012 H 585.835 -0.130707 1.48827 0
M  V30 6013 H 587.717 -2.84953 3.10451 0
M  V30 6014 H 586.392 -2.59407 1.93623 0
M  V30 6015 H 585.299 -0.989186 3.60785 0
M  V30 6016 H 586.632 -1.32044 4.74157 0
M  V30 6017 N 588.284 -1.56567 -0.180126 0
M  V30 6018 C 589.53 -1.81761 -0.899497 0
M  V30 6019 C 589.863 -0.670015 -1.82276 0
M  V30 6020 O 589.138 0.328575 -1.91705 0
M  V30 6021 C 589.421 -3.17296 -1.7028 0
M  V30 6022 C 589.274 -4.4257 -0.803255 0
M  V30 6023 C 590.593 -3.49678 -2.67233 0
M  V30 6024 H 587.712 -0.661192 -0.325567 0
M  V30 6025 H 590.354 -1.89272 -0.16612 0
M  V30 6026 H 588.504 -3.11023 -2.32802 0
M  V30 6027 H 590.176 -4.60902 -0.191585 0
M  V30 6028 H 588.419 -4.33658 -0.110796 0
M  V30 6029 H 589.09 -5.33935 -1.40064 0
M  V30 6030 H 591.566 -3.56347 -2.14839 0
M  V30 6031 H 590.442 -4.45605 -3.20511 0
M  V30 6032 H 590.703 -2.73932 -3.47007 0
M  V30 6033 N 589.762 0.448376 -1.51087 0
M  V30 6034 C 590.725 1.52588 -1.71025 0
M  V30 6035 C 591.725 1.49958 -0.580442 0
M  V30 6036 O 592.915 1.52176 -0.847833 0
M  V30 6037 C 590.047 2.92163 -1.75652 0
M  V30 6038 H 591.24 1.36218 -2.67179 0
M  V30 6039 H 588.793 0.676313 -1.4091 0
M  V30 6040 H 589.528 3.13951 -0.812724 0
M  V30 6041 H 589.313 2.95478 -2.57751 0
M  V30 6042 H 590.803 3.70349 -1.92953 0
M  V30 6043 N 591.24 1.41047 0.703093 0
M  V30 6044 C 592.486 1.41209 1.46396 0
M  V30 6045 C 592.841 0.0180188 1.92392 0
M  V30 6046 O 592.134 -0.954739 1.66118 0
M  V30 6047 C 592.328 2.34686 2.6955 0
M  V30 6048 C 592.157 3.83044 2.35601 0
M  V30 6049 C 590.927 4.51777 2.26331 0
M  V30 6050 C 593.125 4.74215 1.9906 0
M  V30 6051 N 591.107 5.85302 1.85188 0
M  V30 6052 C 592.478 5.96631 1.68616 0
M  V30 6053 C 594.533 4.61932 1.85805 0
M  V30 6054 C 593.236 7.08134 1.26249 0
M  V30 6055 C 595.262 5.73389 1.44842 0
M  V30 6056 C 594.624 6.94899 1.15304 0
M  V30 6057 H 590.723 0.571951 0.533288 0
M  V30 6058 H 593.307 1.76859 0.814179 0
M  V30 6059 H 591.478 2.01143 3.32259 0
M  V30 6060 H 593.21 2.25618 3.35974 0
M  V30 6061 H 589.965 4.05618 2.44482 0
M  V30 6062 H 590.389 6.56049 1.67119 0
M  V30 6063 H 595.031 3.68494 2.07298 0
M  V30 6064 H 592.749 8.01445 1.035 0
M  V30 6065 H 596.335 5.65886 1.35146 0
M  V30 6066 H 595.215 7.79679 0.840854 0
M  V30 6067 N 592.718 -0.936591 1.26751 0
M  V30 6068 C 593.964 -1.6858 1.12733 0
M  V30 6069 C 594.297 -1.91414 -0.327745 0
M  V30 6070 O 593.572 -1.49812 -1.24043 0
M  V30 6071 C 593.855 -3.05779 1.90187 0
M  V30 6072 C 593.708 -2.90242 3.43627 0
M  V30 6073 C 595.027 -4.0597 1.69931 0
M  V30 6074 H 592.146 -0.61182 0.410908 0
M  V30 6075 H 594.788 -1.08747 1.55801 0
M  V30 6076 H 592.938 -3.56853 1.53584 0
M  V30 6077 H 594.61 -2.46354 3.9001 0
M  V30 6078 H 592.853 -2.2577 3.70419 0
M  V30 6079 H 593.524 -3.87572 3.93055 0
M  V30 6080 H 596 -3.63874 2.0183 0
M  V30 6081 H 594.876 -4.99974 2.26534 0
M  V30 6082 H 595.137 -4.37369 0.64502 0
M  V30 6083 N 594.196 -1.08629 -1.14182 0
M  V30 6084 C 595.444 -0.815731 -1.84906 0
M  V30 6085 C 595.765 0.660441 -1.83475 0
M  V30 6086 O 595.035 1.47888 -1.28476 0
M  V30 6087 H 593.615 -0.298773 -0.684648 0
M  V30 6088 H 596.277 -1.37274 -1.38354 0
M  V30 6089 H 595.373 -1.16193 -2.89665 0
M  V30 6090 N 595.674 1.31259 -0.872281 0
M  V30 6091 C 596.621 2.28459 -0.327857 0
M  V30 6092 C 597.591 1.55831 0.574957 0
M  V30 6093 O 598.776 1.83965 0.506101 0
M  V30 6094 C 595.916 3.41985 0.462644 0
M  V30 6095 C 595.029 4.29458 -0.467949 0
M  V30 6096 C 594.164 5.30131 0.336903 0
M  V30 6097 C 593.203 6.0925 -0.58997 0
M  V30 6098 N 592.34 7.01872 0.178775 0
M  V30 6099 H 597.18 2.74414 -1.16193 0
M  V30 6100 H 594.717 1.34994 -0.584376 0
M  V30 6101 H 596.675 4.06547 0.936759 0
M  V30 6102 H 595.305 2.97134 1.2614 0
M  V30 6103 H 594.357 3.65318 -1.06052 0
M  V30 6104 H 595.669 4.84677 -1.17856 0
M  V30 6105 H 594.823 6.0038 0.873427 0
M  V30 6106 H 593.562 4.75573 1.08079 0
M  V30 6107 H 592.567 5.37889 -1.13823 0
M  V30 6108 H 593.792 6.65894 -1.33275 0
M  V30 6109 H 591.738 6.49721 0.905435 0
M  V30 6110 H 591.655 7.54522 -0.472452 0
M  V30 6111 H 592.923 7.76382 0.696454 0
M  V30 6112 N 597.152 0.631951 1.44375 0
M  V30 6113 C 598.377 0.142146 2.06912 0
M  V30 6114 C 598.802 -1.17456 1.4692 0
M  V30 6115 O 598.16 -1.72074 0.570975 0
M  V30 6116 C 598.208 0.0417952 3.60576 0
M  V30 6117 O 597.312 -1.00194 4.00044 0
M  V30 6118 H 596.653 0.0851491 0.658518 0
M  V30 6119 H 599.183 0.868863 1.85235 0
M  V30 6120 H 599.193 -0.148517 4.0773 0
M  V30 6121 H 597.868 1.0031 4.03622 0
M  V30 6122 H 596.445 -0.786131 3.64519 0
M  V30 6123 N 598.631 -1.53133 0.372548 0
M  V30 6124 C 599.541 -2.29671 -0.478379 0
M  V30 6125 C 600.557 -1.35913 -1.08644 0
M  V30 6126 O 601.733 -1.68975 -1.09588 0
M  V30 6127 C 598.798 -3.07625 -1.599 0
M  V30 6128 C 597.859 -4.17061 -1.01776 0
M  V30 6129 C 597.092 -4.91289 -2.08497 0
M  V30 6130 O 597.315 -4.65442 -3.29727 0
M  V30 6131 O 596.249 -5.7705 -1.71164 0
M  V30 6132 H 600.075 -3.03355 0.144649 0
M  V30 6133 H 597.66 -1.48773 0.136729 0
M  V30 6134 H 599.542 -3.56281 -2.25038 0
M  V30 6135 H 598.217 -2.3677 -2.2073 0
M  V30 6136 H 597.124 -3.72641 -0.330098 0
M  V30 6137 H 598.457 -4.90102 -0.453915 0
M  V30 6138 N 600.109 -0.101901 -1.5727 0
M  V30 6139 C 601.019 0.868647 -2.17926 0
M  V30 6140 C 602.035 1.30527 -1.1506 0
M  V30 6141 O 603.211 1.37178 -1.47459 0
M  V30 6142 C 600.276 2.10727 -2.75309 0
M  V30 6143 C 599.337 1.7242 -3.93154 0
M  V30 6144 C 598.57 2.90377 -4.47791 0
M  V30 6145 O 598.793 4.05305 -4.01353 0
M  V30 6146 O 597.727 2.6845 -5.38719 0
M  V30 6147 H 601.553 0.382544 -3.01281 0
M  V30 6148 H 599.138 0.122812 -1.48894 0
M  V30 6149 H 601.02 2.83303 -3.11958 0
M  V30 6150 H 599.695 2.58376 -1.94996 0
M  V30 6151 H 598.602 0.970039 -3.61305 0
M  V30 6152 H 599.935 1.29528 -4.74851 0
M  V30 6153 N 601.587 1.56661 0.17182 0
M  V30 6154 C 602.519 1.92934 1.2373 0
M  V30 6155 C 603.532 0.822385 1.40502 0
M  V30 6156 O 604.721 1.10083 1.40514 0
M  V30 6157 C 601.821 2.16651 2.60607 0
M  V30 6158 C 600.994 3.47878 2.6514 0
M  V30 6159 C 600.053 3.60429 3.83377 0
M  V30 6160 O 599.079 4.33051 3.69398 0
M  V30 6161 N 600.281 2.95241 4.99813 0
M  V30 6162 H 603.046 2.84931 0.929205 0
M  V30 6163 H 600.607 1.5781 0.361588 0
M  V30 6164 H 602.599 2.22312 3.38171 0
M  V30 6165 H 601.169 1.3104 2.83809 0
M  V30 6166 H 600.389 3.53879 1.73675 0
M  V30 6167 H 601.677 4.34232 2.6518 0
M  V30 6168 H 601.075 2.3611 5.14071 0
M  V30 6169 H 599.632 3.06499 5.75241 0
M  V30 6170 N 603.065 -0.440357 1.51323 0
M  V30 6171 C 603.995 -1.54174 1.75364 0
M  V30 6172 C 604.976 -1.59039 0.603375 0
M  V30 6173 O 606.161 -1.74815 0.845774 0
M  V30 6174 C 603.291 -2.92277 1.87593 0
M  V30 6175 C 602.245 -3.02274 3.03009 0
M  V30 6176 C 601.571 -4.42327 3.00418 0
M  V30 6177 C 602.871 -2.76634 4.43024 0
M  V30 6178 H 604.565 -1.34307 2.67585 0
M  V30 6179 H 602.111 -0.644678 1.28763 0
M  V30 6180 H 604.064 -3.69284 2.02995 0
M  V30 6181 H 602.788 -3.13369 0.920179 0
M  V30 6182 H 601.447 -2.27706 2.87307 0
M  V30 6183 H 601.095 -4.60382 2.02626 0
M  V30 6184 H 600.795 -4.49946 3.77918 0
M  V30 6185 H 602.319 -5.21312 3.17909 0
M  V30 6186 H 603.733 -3.43376 4.59093 0
M  V30 6187 H 602.13 -2.95666 5.22208 0
M  V30 6188 H 603.2 -1.72262 4.5327 0
M  V30 6189 N 604.543 -1.41418 -0.695603 0
M  V30 6190 C 605.49 -1.43264 -1.80954 0
M  V30 6191 C 606.46 -0.287016 -1.63601 0
M  V30 6192 O 607.645 -0.488054 -1.84452 0
M  V30 6193 C 604.785 -1.32054 -3.18835 0
M  V30 6194 C 603.898 -2.56485 -3.4762 0
M  V30 6195 C 603.033 -2.3757 -4.75115 0
M  V30 6196 C 602.072 -3.57477 -4.96867 0
M  V30 6197 N 601.209 -3.37632 -6.15588 0
M  V30 6198 H 606.049 -2.38467 -1.78711 0
M  V30 6199 H 603.586 -1.18415 -0.872715 0
M  V30 6200 H 605.544 -1.23558 -3.98484 0
M  V30 6201 H 604.174 -0.404592 -3.20254 0
M  V30 6202 H 603.226 -2.75432 -2.62376 0
M  V30 6203 H 604.538 -3.45678 -3.59594 0
M  V30 6204 H 603.692 -2.2654 -5.62818 0
M  V30 6205 H 602.431 -1.45834 -4.65386 0
M  V30 6206 H 601.436 -3.68961 -4.07612 0
M  V30 6207 H 602.661 -4.50167 -5.08455 0
M  V30 6208 H 600.607 -2.48596 -6.07072 0
M  V30 6209 H 600.524 -4.20401 -6.2833 0
M  V30 6210 H 601.792 -3.30375 -7.06026 0
M  V30 6211 N 606.021 0.929856 -1.27246 0
M  V30 6212 C 606.931 2.0636 -1.11592 0
M  V30 6213 C 607.947 1.73938 -0.046496 0
M  V30 6214 O 609.123 1.9981 -0.252544 0
M  V30 6215 C 606.188 3.38213 -0.762437 0
M  V30 6216 C 605.249 3.84346 -1.9125 0
M  V30 6217 C 604.482 5.09906 -1.57579 0
M  V30 6218 O 604.705 5.68354 -0.482694 0
M  V30 6219 O 603.639 5.51359 -2.41426 0
M  V30 6220 H 607.465 2.22478 -2.0673 0
M  V30 6221 H 605.05 1.04865 -1.06413 0
M  V30 6222 H 606.932 4.1741 -0.57854 0
M  V30 6223 H 605.607 3.23307 0.159439 0
M  V30 6224 H 604.514 3.06045 -2.15144 0
M  V30 6225 H 605.847 4.0379 -2.81451 0
M  V30 6226 N 607.499 1.09233 1.13605 0
M  V30 6227 C 608.409 0.741939 2.22559 0
M  V30 6228 C 609.425 -0.255236 1.72118 0
M  V30 6229 O 610.601 -0.0970747 2.01166 0
M  V30 6230 C 607.666 0.165595 3.46304 0
M  V30 6231 C 606.727 1.21846 4.11645 0
M  V30 6232 C 605.96 0.669526 5.29484 0
M  V30 6233 O 606.183 -0.508228 5.68131 0
M  V30 6234 O 605.117 1.42361 5.84822 0
M  V30 6235 H 608.943 1.65107 2.54899 0
M  V30 6236 H 606.528 0.866584 1.21699 0
M  V30 6237 H 608.41 -0.152592 4.21124 0
M  V30 6238 H 607.085 -0.716573 3.15669 0
M  V30 6239 H 605.992 1.58931 3.38662 0
M  V30 6240 H 607.325 2.07321 4.46407 0
M  V30 6241 N 608.977 -1.30795 0.87923 0
M  V30 6242 C 610.225 -1.95974 0.493809 0
M  V30 6243 C 610.546 -1.69787 -0.959021 0
M  V30 6244 O 609.816 -1.01832 -1.67353 0
M  V30 6245 H 608.396 -0.725083 0.179622 0
M  V30 6246 H 611.058 -1.59432 1.12105 0
M  V30 6247 H 610.154 -3.05058 0.659263 0
M  V30 6248 N 610.455 -0.639598 -1.44038 0
M  V30 6249 C 611.704 -0.144885 -2.01179 0
M  V30 6250 C 612.017 1.24372 -1.50967 0
M  V30 6251 O 613.223 1.83291 -2.00292 0
M  V30 6252 C 611.679 -0.208244 -3.59297 0
M  V30 6253 C 611.287 -1.59869 -4.18504 0
M  V30 6254 C 613.031 0.229568 -4.23879 0
M  V30 6255 C 610.938 -1.61671 -5.68873 0
M  V30 6256 H 609.868 -0.0504005 -0.752314 0
M  V30 6257 H 612.519 -0.799639 -1.65161 0
M  V30 6258 H 610.901 0.513767 -3.92653 0
M  V30 6259 H 612.075 -2.34496 -3.96671 0
M  V30 6260 H 610.39 -1.98131 -3.66242 0
M  V30 6261 H 612.987 0.235758 -5.3418 0
M  V30 6262 H 613.33 1.25848 -3.96822 0
M  V30 6263 H 613.863 -0.440233 -3.95357 0
M  V30 6264 H 610.602 -2.62427 -6.00677 0
M  V30 6265 H 610.122 -0.913489 -5.92803 0
M  V30 6266 H 611.801 -1.35439 -6.32665 0
M  V30 6267 N 611.933 1.52934 -0.380664 0
M  V30 6268 C 612.843 2.29921 0.466192 0
M  V30 6269 C 613.859 1.36488 1.07922 0
M  V30 6270 O 615.035 1.69553 1.0869 0
M  V30 6271 C 612.1 3.08468 1.58266 0
M  V30 6272 C 611.161 4.17595 0.995627 0
M  V30 6273 C 610.394 4.92387 2.05889 0
M  V30 6274 O 610.617 4.67184 3.27254 0
M  V30 6275 O 609.551 5.77949 1.68102 0
M  V30 6276 H 613.377 3.03274 -0.160735 0
M  V30 6277 H 610.962 1.48698 -0.144617 0
M  V30 6278 H 612.844 3.57469 2.23145 0
M  V30 6279 H 611.519 2.37937 2.19471 0
M  V30 6280 H 610.426 3.72811 0.310332 0
M  V30 6281 H 611.759 4.90336 0.427918 0
M  V30 6282 N 613.412 0.11024 1.57214 0
M  V30 6283 C 614.642 -0.557025 1.98949 0
M  V30 6284 C 615.05 -1.61317 0.988606 0
M  V30 6285 O 614.393 -1.83679 -0.0279159 0
M  V30 6286 C 614.455 -1.24956 3.37085 0
M  V30 6287 C 614.119 -0.342398 4.55716 0
M  V30 6288 C 615.116 0.415511 5.18237 0
M  V30 6289 C 612.801 -0.256029 5.01647 0
M  V30 6290 C 614.795 1.24761 6.25071 0
M  V30 6291 C 612.482 0.579713 6.08344 0
M  V30 6292 C 613.48 1.33017 6.69922 0
M  V30 6293 O 613.168 2.15205 7.74559 0
M  V30 6294 H 612.9 -0.152792 0.658506 0
M  V30 6295 H 615.454 0.19076 2.04512 0
M  V30 6296 H 613.684 -2.04424 3.2825 0
M  V30 6297 H 615.373 -1.81286 3.63167 0
M  V30 6298 H 616.139 0.358605 4.83672 0
M  V30 6299 H 612.018 -0.829831 4.5347 0
M  V30 6300 H 615.562 1.83386 6.73064 0
M  V30 6301 H 611.459 0.638044 6.42339 0
M  V30 6302 H 612.227 2.08052 7.91617 0
M  V30 6303 N 614.89 -1.56749 -0.16351 0
M  V30 6304 C 615.837 -1.97011 -1.2023 0
M  V30 6305 C 616.807 -0.835186 -1.43575 0
M  V30 6306 O 617.992 -1.09594 -1.56185 0
M  V30 6307 C 615.132 -2.34186 -2.53478 0
M  V30 6308 C 614.245 -3.60893 -2.37446 0
M  V30 6309 C 613.38 -3.87245 -3.63614 0
M  V30 6310 C 612.419 -5.07274 -3.42548 0
M  V30 6311 N 611.556 -5.29719 -4.60806 0
M  V30 6312 H 616.396 -2.85562 -0.851958 0
M  V30 6313 H 613.933 -1.41292 -0.409257 0
M  V30 6314 H 615.891 -2.53764 -3.31149 0
M  V30 6315 H 614.521 -1.48736 -2.86492 0
M  V30 6316 H 613.573 -3.49185 -1.50911 0
M  V30 6317 H 614.885 -4.48722 -2.1783 0
M  V30 6318 H 614.039 -4.07232 -4.49719 0
M  V30 6319 H 612.778 -2.97806 -3.86216 0
M  V30 6320 H 611.783 -4.87177 -2.5483 0
M  V30 6321 H 613.008 -5.98251 -3.2136 0
M  V30 6322 H 610.954 -4.43233 -4.83612 0
M  V30 6323 H 610.871 -6.11786 -4.44132 0
M  V30 6324 H 612.139 -5.54192 -5.48171 0
M  V30 6325 N 616.368 0.432326 -1.51554 0
M  V30 6326 C 617.614 1.18309 -1.64714 0
M  V30 6327 C 617.947 1.90745 -0.364696 0
M  V30 6328 O 617.222 1.8381 0.635936 0
M  V30 6329 C 617.505 2.1961 -2.85383 0
M  V30 6330 C 617.358 1.51223 -4.23617 0
M  V30 6331 C 618.677 3.20538 -3.01569 0
M  V30 6332 H 615.796 0.428751 -0.599451 0
M  V30 6333 H 618.438 0.471689 -1.84052 0
M  V30 6334 H 616.588 2.8028 -2.69027 0
M  V30 6335 H 618.26 0.938516 -4.51652 0
M  V30 6336 H 616.503 0.814501 -4.26085 0
M  V30 6337 H 617.174 2.25024 -5.04052 0
M  V30 6338 H 619.65 2.69926 -3.16669 0
M  V30 6339 H 618.526 3.88706 -3.87555 0
M  V30 6340 H 618.787 3.86933 -2.13859 0
M  V30 6341 N 617.846 1.41785 0.688094 0
M  V30 6342 C 619.094 1.41264 1.4453 0
M  V30 6343 C 619.415 0.0252946 1.94984 0
M  V30 6344 O 618.685 -0.934081 1.72197 0
M  V30 6345 H 617.265 0.519998 0.536294 0
M  V30 6346 H 619.927 1.7709 0.813941 0
M  V30 6347 H 619.023 2.10439 2.30482 0
M  V30 6348 N 619.324 -0.923095 1.27737 0
M  V30 6349 C 620.271 -2.02432 1.1086 0
M  V30 6350 C 621.241 -1.66098 0.00835195 0
M  V30 6351 O 622.426 -1.90027 0.171542 0
M  V30 6352 C 619.566 -3.36476 0.766671 0
M  V30 6353 C 618.679 -3.85737 1.94501 0
M  V30 6354 C 617.814 -5.08249 1.54455 0
M  V30 6355 C 616.853 -5.49818 2.6901 0
M  V30 6356 N 615.99 -6.63524 2.29521 0
M  V30 6357 H 620.83 -2.16201 2.05089 0
M  V30 6358 H 618.367 -1.05909 1.02087 0
M  V30 6359 H 620.325 -4.13569 0.549223 0
M  V30 6360 H 618.955 -3.22502 -0.13867 0
M  V30 6361 H 618.007 -3.04883 2.27487 0
M  V30 6362 H 619.319 -4.12513 2.80419 0
M  V30 6363 H 618.473 -5.92857 1.28862 0
M  V30 6364 H 617.212 -4.83261 0.656534 0
M  V30 6365 H 616.217 -4.63757 2.95313 0
M  V30 6366 H 617.442 -5.76799 3.5844 0
M  V30 6367 H 615.388 -6.40185 1.43177 0
M  V30 6368 H 615.305 -6.89978 3.08977 0
M  V30 6369 H 616.573 -7.51461 2.07187 0
M  V30 6370 N 620.802 -1.09834 -1.13024 0
M  V30 6371 C 622.049 -0.83695 -1.84395 0
M  V30 6372 C 622.377 0.637463 -1.83757 0
M  V30 6373 O 621.632 1.48554 -1.27398 0
M  V30 6374 C 621.931 -1.32263 -3.32026 0
M  V30 6375 C 621.597 -2.80739 -3.52841 0
M  V30 6376 C 620.259 -3.21286 -3.5823 0
M  V30 6377 C 622.611 -3.76449 -3.60466 0
M  V30 6378 C 619.939 -4.56308 -3.68781 0
M  V30 6379 C 622.291 -5.11266 -3.72546 0
M  V30 6380 C 620.955 -5.51397 -3.76189 0
M  V30 6381 H 620.225 -0.306262 -0.674748 0
M  V30 6382 H 622.872 -1.37385 -1.33408 0
M  V30 6383 H 621.177 -0.705618 -3.85394 0
M  V30 6384 H 622.874 -1.09695 -3.85705 0
M  V30 6385 H 619.464 -2.48363 -3.49305 0
M  V30 6386 H 623.648 -3.46234 -3.55578 0
M  V30 6387 H 618.904 -4.86832 -3.69871 0
M  V30 6388 H 623.078 -5.85279 -3.77388 0
M  V30 6389 H 620.705 -6.56017 -3.84117 0
M  V30 6390 N 622.28 1.30327 -0.886154 0
M  V30 6391 C 623.691 1.78243 -0.555554 0
M  V30 6392 C 624.042 1.72849 0.928314 0
M  V30 6393 O 623.167 1.30607 1.72542 0
M  V30 6394 C 623.762 3.23654 -1.00168 0
M  V30 6395 C 622.321 3.69401 -0.722471 0
M  V30 6396 C 621.468 2.50753 -1.18399 0
M  V30 6397 H 624.419 1.1718 -1.07026 0
M  V30 6398 H 624.44 3.79056 -0.331152 0
M  V30 6399 H 623.952 3.27548 -2.08169 0
M  V30 6400 H 622.053 3.70995 0.345496 0
M  V30 6401 H 622.166 4.60818 -1.31085 0
M  V30 6402 H 620.53 2.47452 -0.603303 0
M  V30 6403 H 621.313 2.57383 -2.27176 0
M  V30 6404 N 623.758 0.647228 1.43697 0
M  V30 6405 C 625.005 0.158188 2.01881 0
M  V30 6406 C 625.333 -1.22573 1.51017 0
M  V30 6407 O 624.588 -1.83086 0.69122 0
M  V30 6408 C 624.887 0.111481 3.57226 0
M  V30 6409 C 624.553 1.43633 4.27411 0
M  V30 6410 C 623.215 1.79915 4.463 0
M  V30 6411 C 625.567 2.31011 4.67208 0
M  V30 6412 C 622.895 3.03251 5.02251 0
M  V30 6413 C 625.247 3.53633 5.24525 0
M  V30 6414 C 623.911 3.90118 5.41631 0
M  V30 6415 H 623.181 0.0578851 0.738736 0
M  V30 6416 H 625.828 0.836746 1.72252 0
M  V30 6417 H 624.133 -0.650507 3.86362 0
M  V30 6418 H 625.83 -0.283682 3.99995 0
M  V30 6419 H 622.42 1.14403 4.1305 0
M  V30 6420 H 626.604 2.04272 4.52313 0
M  V30 6421 H 621.86 3.31575 5.13681 0
M  V30 6422 H 626.034 4.21561 5.5431 0
M  V30 6423 H 623.661 4.85768 5.84751 0
M  V30 6424 N 625.236 -1.5273 0.388769 0
M  V30 6425 C 626.199 -2.25043 -0.434544 0
M  V30 6426 C 627.199 -1.26661 -0.990644 0
M  V30 6427 O 628.389 -1.50762 -0.872731 0
M  V30 6428 C 625.521 -3.00507 -1.60961 0
M  V30 6429 H 626.714 -2.99242 0.198549 0
M  V30 6430 H 624.267 -1.55664 0.140875 0
M  V30 6431 H 625.002 -2.30607 -2.28015 0
M  V30 6432 H 624.787 -3.72716 -1.21757 0
M  V30 6433 H 626.277 -3.55413 -2.19251 0
M  V30 6434 N 626.714 -0.118576 -1.57153 0
M  V30 6435 C 627.677 0.817464 -2.14127 0
M  V30 6436 C 628.677 1.1949 -1.07604 0
M  V30 6437 O 629.867 1.12048 -1.33382 0
M  V30 6438 C 626.999 2.10541 -2.68115 0
M  V30 6439 H 628.192 0.322339 -2.98163 0
M  V30 6440 H 625.745 0.130655 -1.55753 0
M  V30 6441 H 626.48 2.64485 -1.87665 0
M  V30 6442 H 626.265 1.84425 -3.4602 0
M  V30 6443 H 627.755 2.77453 -3.12105 0
M  V30 6444 N 628.193 1.56834 0.155195 0
M  V30 6445 C 629.141 1.98584 1.21107 0
M  V30 6446 C 630.135 0.876987 1.44932 0
M  V30 6447 O 631.341 1.06215 1.45322 0
M  V30 6448 H 627.716 0.632039 0.407469 0
M  V30 6449 H 629.687 2.86561 0.832195 0
M  V30 6450 C 628.436 2.37555 2.53895 0
M  V30 6451 H 627.759 3.22428 2.3639 0
M  V30 6452 H 629.199 2.70598 3.26424 0
M  V30 6453 C 627.658 1.22507 3.13837 0
M  V30 6454 O 628.188 0.521388 3.98302 0
M  V30 6455 N 626.394 0.991444 2.73164 0
M  V30 6456 H 625.941 1.56544 2.04577 0
M  V30 6457 H 625.899 0.223546 3.13604 0
M  V30 6458 N 629.671 -0.424282 1.51781 0
M  V30 6459 C 630.896 -1.19928 1.6921 0
M  V30 6460 C 631.321 -1.8392 0.394355 0
M  V30 6461 O 630.679 -1.69371 -0.646778 0
M  V30 6462 C 630.727 -2.24937 2.81843 0
M  V30 6463 O 629.831 -3.3073 2.46356 0
M  V30 6464 H 629.172 -0.35078 0.563781 0
M  V30 6465 H 631.702 -0.499401 1.98412 0
M  V30 6466 H 631.712 -2.69512 3.06312 0
M  V30 6467 H 630.387 -1.77742 3.76006 0
M  V30 6468 H 628.964 -2.9154 2.32505 0
M  V30 6469 N 631.149 -1.42148 -0.680565 0
M  V30 6470 C 632.565 -1.24947 -0.992995 0
M  V30 6471 C 632.765 -0.149527 -2.00944 0
M  V30 6472 O 631.821 0.481145 -2.47873 0
M  V30 6473 C 633.134 -2.60426 -1.5033 0
M  V30 6474 C 634.682 -2.67733 -1.62137 0
M  V30 6475 C 635.157 -4.03564 -2.16565 0
M  V30 6476 N 636.648 -4.05488 -2.23905 0
M  V30 6477 C 637.383 -5.07401 -2.67081 0
M  V30 6478 N 636.879 -6.19698 -3.09751 0
M  V30 6479 N 638.672 -4.94758 -2.66778 0
M  V30 6480 H 630.823 -2.12399 -0.0074788 0
M  V30 6481 H 633.086 -0.94571 -0.0658529 0
M  V30 6482 H 632.792 -3.41743 -0.830947 0
M  V30 6483 H 632.666 -2.83949 -2.483 0
M  V30 6484 H 635.053 -1.86765 -2.2848 0
M  V30 6485 H 635.134 -2.48004 -0.626713 0
M  V30 6486 H 634.778 -4.84987 -1.50833 0
M  V30 6487 H 634.708 -4.20641 -3.1681 0
M  V30 6488 H 637.199 -3.24415 -1.93812 0
M  V30 6489 H 637.512 -6.93318 -3.41365 0
M  V30 6490 H 635.857 -6.23212 -3.07623 0
M  V30 6491 H 639.048 -4.06105 -2.32801 0
M  V30 6492 H 639.221 -5.74317 -3.00107 0
M  V30 6493 N 632.627 0.916307 -1.28225 0
M  V30 6494 C 633.59 1.99996 -1.11957 0
M  V30 6495 C 634.59 1.60688 -0.0600152 0
M  V30 6496 O 635.78 1.71499 -0.30558 0
M  V30 6497 C 632.912 3.33458 -0.708411 0
M  V30 6498 H 634.105 2.15858 -2.08196 0
M  V30 6499 H 631.658 1.09863 -1.11175 0
M  V30 6500 H 632.393 3.23297 0.254859 0
M  V30 6501 H 632.178 3.63349 -1.47377 0
M  V30 6502 H 633.668 4.13014 -0.617164 0
M  V30 6503 N 634.105 1.10431 1.1244 0
M  V30 6504 C 635.052 0.753103 2.18167 0
M  V30 6505 C 636.022 -0.270549 1.63882 0
M  V30 6506 O 637.207 -0.149837 1.90211 0
M  V30 6507 C 634.347 0.191046 3.44571 0
M  V30 6508 C 633.46 1.26999 4.12911 0
M  V30 6509 C 632.595 0.669586 5.26963 0
M  V30 6510 C 631.634 1.72912 5.87169 0
M  V30 6511 N 630.771 1.14898 6.92635 0
M  V30 6512 H 635.611 1.65892 2.47556 0
M  V30 6513 H 633.148 0.828631 1.21541 0
M  V30 6514 H 635.106 -0.152712 4.1692 0
M  V30 6515 H 633.736 -0.677997 3.15599 0
M  V30 6516 H 632.788 1.73087 3.3874 0
M  V30 6517 H 634.1 2.07204 4.53727 0
M  V30 6518 H 633.254 0.275274 6.06075 0
M  V30 6519 H 631.993 -0.163895 4.87425 0
M  V30 6520 H 630.998 2.13286 5.06744 0
M  V30 6521 H 632.223 2.56544 6.28778 0
M  V30 6522 H 630.169 0.336956 6.55134 0
M  V30 6523 H 630.086 1.88786 7.32049 0
M  V30 6524 H 631.354 0.78121 7.75576 0
M  V30 6525 N 635.583 -1.29855 0.893053 0
M  V30 6526 C 636.811 -1.99976 0.530788 0
M  V30 6527 C 637.226 -1.66889 -0.882799 0
M  V30 6528 O 636.583 -0.910352 -1.58173 0
M  V30 6529 C 636.634 -3.54547 0.705587 0
M  V30 6530 O 636.355 -3.86458 2.06353 0
M  V30 6531 C 637.856 -4.41937 0.347387 0
M  V30 6532 H 635.076 -0.639129 0.204339 0
M  V30 6533 H 637.62 -1.65549 1.20057 0
M  V30 6534 H 635.775 -3.87311 0.0830685 0
M  V30 6535 H 636.189 -4.81146 2.08803 0
M  V30 6536 H 637.663 -5.4954 0.520557 0
M  V30 6537 H 638.14 -4.33339 -0.715139 0
M  V30 6538 H 638.746 -4.14633 0.946567 0
M  V30 6539 N 637.061 -0.65484 -1.43351 0
M  V30 6540 C 638.009 0.0476784 -2.32551 0
M  V30 6541 C 639.003 0.811403 -1.48703 0
M  V30 6542 O 640.209 0.721621 -1.64902 0
M  V30 6543 H 636.584 0.0342038 -0.751222 0
M  V30 6544 H 638.555 -0.722342 -2.89525 0
M  V30 6545 C 637.304 0.999251 -3.33032 0
M  V30 6546 H 636.627 0.421005 -3.97577 0
M  V30 6547 H 638.067 1.45986 -3.98076 0
M  V30 6548 C 636.526 2.09606 -2.63756 0
M  V30 6549 O 637.056 3.18004 -2.4543 0
M  V30 6550 N 635.262 1.86207 -2.23103 0
M  V30 6551 H 634.809 0.980555 -2.38208 0
M  V30 6552 H 634.767 2.59787 -1.77081 0
M  V30 6553 N 638.539 1.52521 -0.396863 0
M  V30 6554 C 639.502 2.2527 0.422604 0
M  V30 6555 C 640.502 1.27184 0.983913 0
M  V30 6556 O 641.692 1.51222 0.864723 0
M  V30 6557 C 638.824 3.01356 1.59365 0
M  V30 6558 H 640.017 2.99133 -0.214416 0
M  V30 6559 H 637.57 1.55587 -0.149128 0
M  V30 6560 H 638.305 2.31813 2.26789 0
M  V30 6561 H 638.09 3.73357 1.19779 0
M  V30 6562 H 639.58 3.56571 2.17363 0
M  V30 6563 N 640.017 0.126909 1.57088 0
M  V30 6564 C 641.294 -0.573152 1.87014 0
M  V30 6565 C 641.674 -1.84297 1.02945 0
M  V30 6566 O 641.022 -2.28232 0.110573 0
M  V30 6567 C 641.232 -0.857984 3.38289 0
M  V30 6568 C 642.58 -1.20759 4.07066 0
M  V30 6569 O 643.604 -0.947992 3.43353 0
M  V30 6570 O 642.463 -1.69516 5.19545 0
M  V30 6571 H 639.557 -0.290082 0.774456 0
M  V30 6572 H 642.103 0.162008 1.68925 0
M  V30 6573 H 640.875 0.0415286 3.91278 0
M  V30 6574 H 640.498 -1.64803 3.61837 0
M  V30 6575 N 641.495 -1.56914 -0.146875 0
M  V30 6576 C 642.723 -1.87515 -0.874394 0
M  V30 6577 C 643.138 -0.715116 -1.74733 0
M  V30 6578 O 642.495 0.315113 -1.79759 0
M  V30 6579 C 642.546 -3.17362 -1.731 0
M  V30 6580 O 642.267 -4.28897 -0.893245 0
M  V30 6581 C 643.768 -3.61479 -2.56609 0
M  V30 6582 H 640.988 -0.621546 -0.252827 0
M  V30 6583 H 643.532 -2.04023 -0.139627 0
M  V30 6584 H 641.687 -3.02608 -2.41883 0
M  V30 6585 H 642.101 -5.03146 -1.48137 0
M  V30 6586 H 643.575 -4.5517 -3.12289 0
M  V30 6587 H 644.052 -2.86773 -3.32653 0
M  V30 6588 H 644.658 -3.78927 -1.93117 0
M  V30 6589 N 642.974 0.416227 -1.52004 0
M  V30 6590 C 644.251 1.17637 -1.56272 0
M  V30 6591 C 644.631 2.08352 -0.339493 0
M  V30 6592 O 643.979 2.1833 0.674124 0
M  V30 6593 C 644.189 1.95986 -2.88774 0
M  V30 6594 C 645.537 2.52299 -3.41512 0
M  V30 6595 O 646.561 2.06174 -2.90467 0
M  V30 6596 O 645.42 3.3648 -4.30631 0
M  V30 6597 H 642.514 0.536726 -0.629169 0
M  V30 6598 H 645.06 0.423583 -1.64329 0
M  V30 6599 H 643.832 1.29487 -3.69254 0
M  V30 6600 H 643.455 2.78285 -2.83978 0
M  V30 6601 N 644.452 1.42507 0.673017 0
M  V30 6602 C 645.7 1.42789 1.43023 0
M  V30 6603 C 646.021 0.0459738 1.94946 0
M  V30 6604 O 645.291 -0.915765 1.73178 0
M  V30 6605 H 643.871 0.525657 0.530748 0
M  V30 6606 H 646.533 1.77944 0.795113 0
M  V30 6607 H 645.629 2.12872 2.28237 0
M  V30 6608 N 645.93 -0.909495 1.28709 0
M  V30 6609 C 646.863 -2.01388 1.07323 0
M  V30 6610 C 647.841 -1.62596 -0.0119757 0
M  V30 6611 O 649.025 -1.88003 0.136796 0
M  V30 6612 C 646.152 -3.32755 0.631797 0
M  V30 6613 C 645.198 -3.90532 1.71428 0
M  V30 6614 S 646.031 -4.20853 3.31124 0
M  V30 6615 C 647.187 -5.55276 2.88825 0
M  V30 6616 H 647.42 -2.19219 2.00824 0
M  V30 6617 H 644.953 -1.05489 1.12745 0
M  V30 6618 H 646.911 -4.08702 0.38381 0
M  V30 6619 H 645.572 -3.12818 -0.283451 0
M  V30 6620 H 644.765 -4.85385 1.35712 0
M  V30 6621 H 644.367 -3.21237 1.91528 0
M  V30 6622 H 646.659 -6.35341 2.3526 0
M  V30 6623 H 647.602 -5.95907 3.82492 0
M  V30 6624 H 648.01 -5.16666 2.27412 0
M  V30 6625 N 647.408 -1.11026 -1.11852 0
M  V30 6626 C 648.654 -0.857729 -1.83768 0
M  V30 6627 C 648.987 0.615143 -1.842 0
M  V30 6628 O 648.262 1.45391 -1.29196 0
M  V30 6629 C 648.545 -1.41453 -3.31154 0
M  V30 6630 C 648.398 -2.95471 -3.39142 0
M  V30 6631 C 649.717 -1.0619 -4.27097 0
M  V30 6632 H 646.836 -0.313044 -0.667212 0
M  V30 6633 H 649.478 -1.37443 -1.31185 0
M  V30 6634 H 647.628 -0.975052 -3.76065 0
M  V30 6635 H 649.3 -3.4799 -3.02821 0
M  V30 6636 H 647.543 -3.31759 -2.79497 0
M  V30 6637 H 648.214 -3.29515 -4.42859 0
M  V30 6638 H 650.69 -1.44122 -3.90344 0
M  V30 6639 H 649.566 -1.47832 -5.28618 0
M  V30 6640 H 649.827 0.0278912 -4.42091 0
M  V30 6641 N 648.886 1.2938 -0.899927 0
M  V30 6642 C 649.833 2.27713 -0.376243 0
M  V30 6643 C 650.803 1.57016 0.541774 0
M  V30 6644 O 651.988 1.84997 0.466966 0
M  V30 6645 C 649.128 3.42889 0.39 0
M  V30 6646 C 648.241 4.28369 -0.558938 0
M  V30 6647 C 647.376 5.30726 0.224379 0
M  V30 6648 C 646.415 6.07862 -0.719068 0
M  V30 6649 N 645.552 7.02094 0.0298569 0
M  V30 6650 H 650.392 2.71888 -1.21988 0
M  V30 6651 H 647.929 1.33724 -0.612879 0
M  V30 6652 H 649.887 4.08443 0.850314 0
M  V30 6653 H 648.517 2.99743 1.19809 0
M  V30 6654 H 647.569 3.62986 -1.13777 0
M  V30 6655 H 648.881 4.82068 -1.2811 0
M  V30 6656 H 648.035 6.02098 0.745881 0
M  V30 6657 H 646.774 4.77759 0.979674 0
M  V30 6658 H 645.779 5.35353 -1.25207 0
M  V30 6659 H 647.004 6.62917 -1.4737 0
M  V30 6660 H 644.95 6.51496 0.767415 0
M  V30 6661 H 644.867 7.5335 -0.632391 0
M  V30 6662 H 646.135 7.77685 0.531615 0
M  V30 6663 N 650.364 0.662433 1.43002 0
M  V30 6664 C 651.613 0.176873 2.00923 0
M  V30 6665 C 651.926 -1.21954 1.52927 0
M  V30 6666 O 653.132 -1.80081 2.03182 0
M  V30 6667 C 651.588 0.265379 3.5892 0
M  V30 6668 C 651.196 1.66507 4.15908 0
M  V30 6669 C 652.94 -0.162103 4.2419 0
M  V30 6670 C 650.847 1.707 5.66229 0
M  V30 6671 H 649.777 0.0623627 0.751417 0
M  V30 6672 H 652.428 0.825813 1.63868 0
M  V30 6673 H 650.81 -0.451235 3.93421 0
M  V30 6674 H 651.984 2.40777 3.92891 0
M  V30 6675 H 650.299 2.03932 3.63044 0
M  V30 6676 H 652.896 -0.150745 5.34487 0
M  V30 6677 H 653.239 -1.19519 3.98774 0
M  V30 6678 H 653.772 0.503075 3.94606 0
M  V30 6679 H 650.511 2.7195 5.96426 0
M  V30 6680 H 650.031 1.00768 5.91275 0
M  V30 6681 H 651.71 1.45487 6.3043 0
M  V30 6682 N 651.842 -1.52309 0.404946 0
M  V30 6683 C 652.772 -2.29805 -0.41376 0
M  V30 6684 C 653.753 -1.3384 -1.0498 0
M  V30 6685 O 654.938 -1.62745 -1.05961 0
M  V30 6686 C 652.068 -3.11639 -1.53292 0
M  V30 6687 C 651.022 -4.15616 -1.02211 0
M  V30 6688 C 650.348 -4.8577 -2.23455 0
M  V30 6689 C 651.648 -5.2224 -0.0790725 0
M  V30 6690 H 653.342 -2.98493 0.232878 0
M  V30 6691 H 650.888 -1.43552 0.113441 0
M  V30 6692 H 652.841 -3.64618 -2.11262 0
M  V30 6693 H 651.565 -2.40712 -2.20738 0
M  V30 6694 H 650.224 -3.63641 -0.46484 0
M  V30 6695 H 649.872 -4.11376 -2.89445 0
M  V30 6696 H 649.572 -5.56058 -1.89929 0
M  V30 6697 H 651.096 -5.4156 -2.82038 0
M  V30 6698 H 652.51 -5.70485 -0.567438 0
M  V30 6699 H 650.907 -5.99867 0.167167 0
M  V30 6700 H 651.977 -4.77078 0.867447 0
M  V30 6701 N 653.32 -0.135238 -1.57019 0
M  V30 6702 C 654.568 0.51777 -1.95355 0
M  V30 6703 C 654.889 1.6617 -1.02042 0
M  V30 6704 O 654.159 1.95738 -0.0797343 0
M  V30 6705 H 652.739 0.194264 -0.721298 0
M  V30 6706 H 655.401 -0.207983 -1.93787 0
M  V30 6707 H 654.497 0.901675 -2.98791 0
M  V30 6708 N 654.798 1.5699 0.138552 0
M  V30 6709 C 655.73 1.95515 1.1961 0
M  V30 6710 C 656.743 0.852002 1.38726 0
M  V30 6711 O 657.932 1.13038 1.38147 0
M  V30 6712 C 655.032 2.2213 2.55952 0
M  V30 6713 C 654.205 3.53424 2.57702 0
M  V30 6714 C 653.264 3.6848 3.75645 0
M  V30 6715 O 652.29 4.4079 3.60129 0
M  V30 6716 N 653.492 3.05777 4.93438 0
M  V30 6717 H 656.257 2.86838 0.868557 0
M  V30 6718 H 653.818 1.58542 0.328033 0
M  V30 6719 H 655.81 2.29435 3.33379 0
M  V30 6720 H 654.38 1.3703 2.80965 0
M  V30 6721 H 653.6 3.57484 1.6613 0
M  V30 6722 H 654.888 4.39759 2.55909 0
M  V30 6723 H 654.286 2.46961 5.08947 0
M  V30 6724 H 652.843 3.18631 5.6861 0
M  V30 6725 N 656.276 -0.40816 1.52223 0
M  V30 6726 C 657.223 -1.49737 1.75635 0
M  V30 6727 C 658.193 -1.5493 0.598824 0
M  V30 6728 O 659.378 -1.71487 0.83648 0
M  V30 6729 C 656.518 -2.87174 1.91376 0
M  V30 6730 C 655.631 -2.91283 3.19027 0
M  V30 6731 C 654.766 -4.20026 3.25195 0
M  V30 6732 C 653.805 -4.18113 4.47044 0
M  V30 6733 N 652.942 -5.38429 4.50598 0
M  V30 6734 H 657.782 -1.29075 2.68596 0
M  V30 6735 H 655.319 -0.626518 1.33091 0
M  V30 6736 H 657.277 -3.66959 1.98486 0
M  V30 6737 H 655.907 -3.06329 1.01795 0
M  V30 6738 H 654.959 -2.03984 3.21084 0
M  V30 6739 H 656.271 -2.85734 4.08849 0
M  V30 6740 H 655.425 -5.08204 3.31382 0
M  V30 6741 H 654.164 -4.28271 2.33313 0
M  V30 6742 H 653.169 -3.28325 4.41002 0
M  V30 6743 H 654.394 -4.11507 5.40221 0
M  V30 6744 H 652.34 -5.4734 3.616 0
M  V30 6745 H 652.257 -5.34879 5.34266 0
M  V30 6746 H 653.525 -6.28557 4.61016 0
M  V30 6747 N 657.755 -1.42862 -0.66545 0
M  V30 6748 C 658.98 -1.47456 -1.45848 0
M  V30 6749 C 659.405 -0.0900312 -1.87884 0
M  V30 6750 O 658.763 0.913587 -1.56599 0
M  V30 6751 C 658.811 -2.41514 -2.67774 0
M  V30 6752 O 657.915 -1.89296 -3.66389 0
M  V30 6753 H 657.256 -0.499236 -0.437789 0
M  V30 6754 H 659.786 -1.8765 -0.815394 0
M  V30 6755 H 659.796 -2.58409 -3.15735 0
M  V30 6756 H 658.471 -3.42099 -2.36519 0
M  V30 6757 H 657.048 -1.82003 -3.25468 0
M  V30 6758 N 659.233 0.902656 -1.29189 0
M  V30 6759 C 660.461 1.68639 -1.19869 0
M  V30 6760 C 660.876 1.87254 0.241121 0
M  V30 6761 O 660.233 1.40745 1.16177 0
M  V30 6762 C 660.284 3.07251 -1.90471 0
M  V30 6763 O 660.005 2.89488 -3.28829 0
M  V30 6764 C 661.506 4.01653 -1.8759 0
M  V30 6765 H 658.726 0.526802 -0.415596 0
M  V30 6766 H 661.27 1.12901 -1.7051 0
M  V30 6767 H 659.425 3.59774 -1.43672 0
M  V30 6768 H 659.839 3.77296 -3.64346 0
M  V30 6769 H 661.313 4.96339 -2.4156 0
M  V30 6770 H 661.79 4.30881 -0.850756 0
M  V30 6771 H 662.396 3.55061 -2.34119 0
M  V30 6772 N 660.711 1.11618 1.11262 0
M  V30 6773 C 661.988 0.777876 1.79467 0
M  V30 6774 C 662.368 -0.733774 1.97937 0
M  V30 6775 O 661.716 -1.66443 1.56554 0
M  V30 6776 C 661.926 1.5431 3.13032 0
M  V30 6777 C 663.274 1.72357 3.88044 0
M  V30 6778 O 664.298 1.5075 3.22727 0
M  V30 6779 O 663.157 2.08276 5.05256 0
M  V30 6780 H 660.251 0.282018 0.777428 0
M  V30 6781 H 662.797 1.21971 1.17988 0
M  V30 6782 H 661.569 2.57132 2.94956 0
M  V30 6783 H 661.192 1.09495 3.82226 0
M  V30 6784 N 662.189 -1.289 0.906776 0
M  V30 6785 C 663.605 -1.47733 0.603902 0
M  V30 6786 C 663.805 -1.82568 -0.852702 0
M  V30 6787 O 662.861 -1.92642 -1.63234 0
M  V30 6788 C 664.174 -2.58522 1.53581 0
M  V30 6789 C 665.722 -2.72394 1.54177 0
M  V30 6790 C 666.197 -3.86318 2.46013 0
M  V30 6791 N 667.688 -3.93661 2.441 0
M  V30 6792 C 668.423 -4.81177 3.11859 0
M  V30 6793 N 667.919 -5.73333 3.88923 0
M  V30 6794 N 669.712 -4.74728 3.00981 0
M  V30 6795 H 661.863 -1.04567 1.84877 0
M  V30 6796 H 664.126 -0.520118 0.792579 0
M  V30 6797 H 663.832 -2.39667 2.57396 0
M  V30 6798 H 663.706 -3.55475 1.26165 0
M  V30 6799 H 666.093 -2.90641 0.511034 0
M  V30 6800 H 666.174 -1.75993 1.85634 0
M  V30 6801 H 665.818 -3.68826 3.49185 0
M  V30 6802 H 665.748 -4.82102 2.11862 0
M  V30 6803 H 668.239 -3.27751 1.88115 0
M  V30 6804 H 668.552 -6.36923 4.37663 0
M  V30 6805 H 666.897 -5.73196 3.93029 0
M  V30 6806 H 670.088 -4.01722 2.40286 0
M  V30 6807 H 670.261 -5.42719 3.54062 0
M  V30 6808 N 663.667 -0.670007 -1.42649 0
M  V30 6809 C 664.913 -0.190568 -2.01903 0
M  V30 6810 C 665.246 1.19817 -1.52832 0
M  V30 6811 O 664.521 1.80342 -0.728485 0
M  V30 6812 C 664.804 -0.21991 -3.59428 0
M  V30 6813 C 664.657 -1.64376 -4.18689 0
M  V30 6814 C 665.976 0.434519 -4.3795 0
M  V30 6815 H 663.095 -0.0707219 -0.733599 0
M  V30 6816 H 665.737 -0.853883 -1.69732 0
M  V30 6817 H 663.887 0.344894 -3.86966 0
M  V30 6818 H 665.559 -2.26044 -4.02122 0
M  V30 6819 H 663.802 -2.18591 -3.747 0
M  V30 6820 H 664.473 -1.61601 -5.27815 0
M  V30 6821 H 666.949 -0.0462156 -4.16074 0
M  V30 6822 H 665.825 0.38333 -5.4756 0
M  V30 6823 H 666.086 1.51135 -4.15464 0
M  V30 6824 N 665.145 1.52092 -0.413018 0
M  V30 6825 C 666.075 2.30021 0.401567 0
M  V30 6826 C 667.056 1.34395 1.04269 0
M  V30 6827 O 668.241 1.63304 1.05097 0
M  V30 6828 C 665.371 3.12447 1.51638 0
M  V30 6829 C 664.325 4.16153 1.00005 0
M  V30 6830 C 663.651 4.86948 2.20875 0
M  V30 6831 C 664.951 5.22275 0.0513757 0
M  V30 6832 H 666.645 2.98365 -0.248704 0
M  V30 6833 H 664.191 1.4349 -0.121052 0
M  V30 6834 H 666.144 3.65733 2.09326 0
M  V30 6835 H 664.868 2.41879 2.19458 0
M  V30 6836 H 663.527 3.63882 0.445549 0
M  V30 6837 H 663.175 4.12905 2.8726 0
M  V30 6838 H 662.875 5.57057 1.86978 0
M  V30 6839 H 664.399 5.43048 2.79162 0
M  V30 6840 H 665.813 5.70778 0.537176 0
M  V30 6841 H 664.21 5.9977 -0.198977 0
M  V30 6842 H 665.28 4.76611 -0.892736 0
M  V30 6843 N 666.623 0.143563 1.56945 0
M  V30 6844 C 667.871 -0.507402 1.95627 0
M  V30 6845 C 668.192 -1.65626 1.02922 0
M  V30 6846 O 667.462 -1.95693 0.0901136 0
M  V30 6847 H 666.042 -0.190436 0.722318 0
M  V30 6848 H 668.704 0.218257 1.93674 0
M  V30 6849 H 667.8 -0.885816 2.99265 0
M  V30 6850 N 668.101 -1.57061 -0.130224 0
M  V30 6851 C 669.064 -1.98593 -1.14426 0
M  V30 6852 C 670.064 -0.874584 -1.34936 0
M  V30 6853 O 671.254 -1.14086 -1.31643 0
M  V30 6854 C 668.386 -2.31639 -2.50112 0
M  V30 6855 H 669.579 -2.89374 -0.787561 0
M  V30 6856 H 667.132 -1.51756 -0.374146 0
M  V30 6857 H 667.867 -1.43703 -2.90723 0
M  V30 6858 H 667.652 -3.12684 -2.36583 0
M  V30 6859 H 669.142 -2.64551 -3.23114 0
M  V30 6860 N 669.579 0.400081 -1.52437 0
M  V30 6861 C 670.529 1.48734 -1.72807 0
M  V30 6862 C 671.513 1.50004 -0.582032 0
M  V30 6863 O 672.705 1.55828 -0.839449 0
M  V30 6864 C 669.834 2.86568 -1.89034 0
M  V30 6865 C 668.92 2.8991 -3.09537 0
M  V30 6866 N 669.311 2.62937 -4.32086 0
M  V30 6867 C 667.609 3.21078 -3.09556 0
M  V30 6868 C 668.31 2.73079 -5.13617 0
M  V30 6869 N 667.286 3.06342 -4.49061 0
M  V30 6870 H 671.088 1.26689 -2.65193 0
M  V30 6871 H 668.602 0.607902 -1.50593 0
M  V30 6872 H 670.599 3.64834 -2.01746 0
M  V30 6873 H 669.259 3.09604 -0.978547 0
M  V30 6874 H 670.27 2.37163 -4.60406 0
M  V30 6875 H 666.947 3.49651 -2.28146 0
M  V30 6876 H 668.337 2.55863 -6.21276 0
M  V30 6877 N 671.057 1.43213 0.657864 0
M  V30 6878 C 672.306 1.43871 1.41365 0
M  V30 6879 C 672.619 0.064898 1.95492 0
M  V30 6880 O 673.825 -0.0510796 2.71452 0
M  V30 6881 C 672.281 2.53158 2.55811 0
M  V30 6882 C 671.889 3.96624 2.08311 0
M  V30 6883 C 673.633 2.63004 3.3321 0
M  V30 6884 C 671.54 4.97385 3.1994 0
M  V30 6885 H 670.47 0.535174 0.531136 0
M  V30 6886 H 673.121 1.69185 0.710543 0
M  V30 6887 H 671.503 2.21037 3.2857 0
M  V30 6888 H 672.677 4.38182 1.42593 0
M  V30 6889 H 670.992 3.90781 1.43804 0
M  V30 6890 H 673.589 3.3546 4.16378 0
M  V30 6891 H 673.932 1.67918 3.80932 0
M  V30 6892 H 674.465 2.94403 2.67529 0
M  V30 6893 H 671.204 5.94007 2.77192 0
M  V30 6894 H 670.724 4.60444 3.84385 0
M  V30 6895 H 672.403 5.19877 3.85145 0
M  V30 6896 N 672.536 -0.895792 1.29666 0
M  V30 6897 C 673.466 -2.01673 1.17688 0
M  V30 6898 C 674.447 -1.69955 0.0701317 0
M  V30 6899 O 675.632 -1.9258 0.250289 0
M  V30 6900 C 672.762 -3.36568 0.856681 0
M  V30 6901 C 671.716 -3.82509 1.92017 0
M  V30 6902 C 671.042 -5.14574 1.4532 0
M  V30 6903 C 672.342 -4.02409 3.32963 0
M  V30 6904 H 674.036 -2.11953 2.11463 0
M  V30 6905 H 671.582 -1.01839 1.01807 0
M  V30 6906 H 673.535 -4.14498 0.759577 0
M  V30 6907 H 672.259 -3.26391 -0.116763 0
M  V30 6908 H 670.918 -3.068 2.00673 0
M  V30 6909 H 670.566 -5.00815 0.468325 0
M  V30 6910 H 670.266 -5.46283 2.16447 0
M  V30 6911 H 671.79 -5.9504 1.36968 0
M  V30 6912 H 673.204 -4.70808 3.27127 0
M  V30 6913 H 671.601 -4.45478 4.02082 0
M  V30 6914 H 672.671 -3.06616 3.75652 0
M  V30 6915 N 674.014 -1.12206 -1.10668 0
M  V30 6916 C 675.262 -0.874144 -1.82217 0
M  V30 6917 C 675.583 0.601736 -1.85484 0
M  V30 6918 O 674.853 1.43725 -1.33116 0
M  V30 6919 H 673.433 -0.320404 -0.674797 0
M  V30 6920 H 676.095 -1.41606 -1.33917 0
M  V30 6921 H 675.191 -1.25349 -2.85822 0
M  V30 6922 N 675.492 1.28418 -0.913599 0
M  V30 6923 C 676.903 1.77024 -0.593237 0
M  V30 6924 C 677.254 1.74779 0.891441 0
M  V30 6925 O 676.379 1.34237 1.69733 0
M  V30 6926 C 676.974 3.21456 -1.07011 0
M  V30 6927 C 675.533 3.67786 -0.800664 0
M  V30 6928 C 674.68 2.48185 -1.23691 0
M  V30 6929 H 677.631 1.14883 -1.09487 0
M  V30 6930 H 677.652 3.78269 -0.411481 0
M  V30 6931 H 677.164 3.23058 -2.1507 0
M  V30 6932 H 675.265 3.71644 0.266725 0
M  V30 6933 H 675.378 4.57934 -1.4083 0
M  V30 6934 H 673.742 2.46116 -0.655655 0
M  V30 6935 H 674.525 2.52506 -2.32585 0
M  V30 6936 N 676.97 0.677563 1.42291 0
M  V30 6937 C 678.218 0.200578 2.01102 0
M  V30 6938 C 678.539 -1.19803 1.53858 0
M  V30 6939 O 677.809 -1.80496 0.761439 0
M  V30 6940 H 676.389 0.0711634 0.743603 0
M  V30 6941 H 679.051 0.874691 1.7417 0
M  V30 6942 H 678.147 0.204 3.11433 0
M  V30 6943 N 678.448 -1.51871 0.421078 0
M  V30 6944 C 679.411 -2.25914 -0.386712 0
M  V30 6945 C 680.411 -1.28733 -0.963555 0
M  V30 6946 O 681.601 -1.52579 -0.840556 0
M  V30 6947 C 678.733 -3.03853 -1.54551 0
M  V30 6948 H 679.926 -2.98754 0.261978 0
M  V30 6949 H 677.479 -1.5533 0.173862 0
M  V30 6950 H 678.214 -2.35392 -2.23072 0
M  V30 6951 H 677.999 -3.75215 -1.13824 0
M  V30 6952 H 679.489 -3.59984 -2.11663 0
M  V30 6953 N 679.926 -0.151884 -1.56866 0
M  V30 6954 C 681.174 0.497021 -1.95893 0
M  V30 6955 C 681.495 1.65078 -1.03799 0
M  V30 6956 O 680.765 1.95642 -0.10049 0
M  V30 6957 H 679.345 0.186603 -0.723318 0
M  V30 6958 H 682.007 -0.228525 -1.93556 0
M  V30 6959 H 681.103 0.869933 -2.99731 0
M  V30 6960 N 681.404 1.57128 0.121893 0
M  V30 6961 C 682.314 2.03425 1.16857 0
M  V30 6962 C 683.33 0.954108 1.45509 0
M  V30 6963 O 684.506 1.26541 1.56682 0
M  V30 6964 C 681.571 2.42685 2.47599 0
M  V30 6965 C 680.632 3.64767 2.2637 0
M  V30 6966 C 679.865 4.02145 3.50878 0
M  V30 6967 O 680.088 3.39897 4.58068 0
M  V30 6968 O 679.022 4.95262 3.42051 0
M  V30 6969 H 682.848 2.92825 0.80544 0
M  V30 6970 H 680.433 1.45654 0.332477 0
M  V30 6971 H 682.315 2.68684 3.24634 0
M  V30 6972 H 680.99 1.56432 2.83392 0
M  V30 6973 H 679.897 3.43922 1.47203 0
M  V30 6974 H 681.23 4.51716 1.95482 0
M  V30 6975 N 682.882 -0.391992 1.52647 0
M  V30 6976 C 683.815 -1.50019 1.71958 0
M  V30 6977 C 684.793 -1.5238 0.567365 0
M  V30 6978 O 685.977 -1.70831 0.796806 0
M  V30 6979 C 683.104 -2.88496 1.77447 0
M  V30 6980 C 682.15 -3.03974 2.99169 0
M  V30 6981 S 682.983 -2.75487 4.59203 0
M  V30 6982 C 684.139 -4.16163 4.67503 0
M  V30 6983 H 684.372 -1.33413 2.65685 0
M  V30 6984 H 681.905 -0.584674 1.42902 0
M  V30 6985 H 683.863 -3.68296 1.81296 0
M  V30 6986 H 682.524 -3.02431 0.848188 0
M  V30 6987 H 681.717 -4.05328 2.99542 0
M  V30 6988 H 681.319 -2.32062 2.93297 0
M  V30 6989 H 683.611 -5.10048 4.45934 0
M  V30 6990 H 684.554 -4.20806 5.69498 0
M  V30 6991 H 684.962 -4.01933 3.96371 0
M  V30 6992 N 684.36 -1.4356 -0.65026 0
M  V30 6993 C 685.606 -1.45549 -1.41221 0
M  V30 6994 C 685.939 -0.0805472 -1.94033 0
M  V30 6995 O 685.214 0.899043 -1.72475 0
M  V30 6996 C 685.497 -2.50028 -2.59148 0
M  V30 6997 C 685.35 -3.96808 -2.1181 0
M  V30 6998 C 686.669 -2.51212 -3.61359 0
M  V30 6999 H 683.788 -0.529967 -0.512156 0
M  V30 7000 H 686.43 -1.75127 -0.736933 0
M  V30 7001 H 684.58 -2.24937 -3.16758 0
M  V30 7002 H 686.252 -4.32966 -1.59178 0
M  V30 7003 H 684.495 -4.09498 -1.43156 0
M  V30 7004 H 685.166 -4.6553 -2.96625 0
M  V30 7005 H 687.642 -2.73583 -3.13515 0
M  V30 7006 H 686.518 -3.26252 -4.41419 0
M  V30 7007 H 686.779 -1.54701 -4.1415 0
M  V30 7008 N 685.838 0.888903 -1.30139 0
M  V30 7009 C 686.786 2.0156 -1.16088 0
M  V30 7010 C 687.78 1.69239 -0.0737413 0
M  V30 7011 O 688.986 1.78468 -0.234313 0
M  V30 7012 H 685.361 0.660825 -0.358907 0
M  V30 7013 H 687.332 2.10547 -2.11453 0
M  V30 7014 C 686.081 3.36758 -0.865426 0
M  V30 7015 H 685.404 3.62137 -1.69402 0
M  V30 7016 H 686.844 4.16246 -0.807192 0
M  V30 7017 C 685.303 3.34124 0.431577 0
M  V30 7018 O 685.833 3.7445 1.45431 0
M  V30 7019 N 684.039 2.87229 0.441321 0
M  V30 7020 H 683.586 2.54609 -0.391433 0
M  V30 7021 H 683.544 2.8585 1.30909 0
M  V30 7022 N 687.317 1.12792 1.10072 0
M  V30 7023 C 688.227 0.812369 2.20086 0
M  V30 7024 C 689.243 -0.200349 1.72843 0
M  V30 7025 O 690.419 -0.0330262 2.01373 0
M  V30 7026 C 687.484 0.275685 3.45602 0
M  V30 7027 C 686.545 1.34881 4.07561 0
M  V30 7028 C 685.778 0.837639 5.27086 0
M  V30 7029 O 686.001 -0.327224 5.69461 0
M  V30 7030 O 684.935 1.60894 5.79997 0
M  V30 7031 H 688.761 1.73133 2.49517 0
M  V30 7032 H 686.346 0.904863 1.18881 0
M  V30 7033 H 688.228 -0.0185375 4.21396 0
M  V30 7034 H 686.903 -0.615783 3.17789 0
M  V30 7035 H 685.81 1.69625 3.33434 0
M  V30 7036 H 687.143 2.21418 4.39585 0
M  V30 7037 N 688.795 -1.27931 0.920396 0
M  V30 7038 C 689.758 -2.25345 0.41858 0
M  V30 7039 C 690.758 -1.54116 -0.458798 0
M  V30 7040 O 691.948 -1.72235 -0.260912 0
M  V30 7041 C 689.08 -3.38556 -0.399104 0
M  V30 7042 H 690.273 -2.71251 1.27918 0
M  V30 7043 H 687.826 -1.39728 0.700406 0
M  V30 7044 H 688.561 -2.98021 -1.27882 0
M  V30 7045 H 688.346 -3.91426 0.229863 0
M  V30 7046 H 689.836 -4.10976 -0.740817 0
M  V30 7047 N 690.273 -0.685099 -1.4193 0
M  V30 7048 C 691.236 -0.0222632 -2.29189 0
M  V30 7049 C 692.236 0.7186 -1.4385 0
M  V30 7050 O 693.426 0.555058 -1.6512 0
M  V30 7051 C 690.558 0.979013 -3.2654 0
M  V30 7052 H 691.751 -0.790424 -2.89296 0
M  V30 7053 H 689.304 -0.448012 -1.49742 0
M  V30 7054 H 690.039 1.77531 -2.71392 0
M  V30 7055 H 689.824 0.451037 -3.89497 0
M  V30 7056 H 691.314 1.44091 -3.91954 0
M  V30 7057 N 691.751 1.51645 -0.429126 0
M  V30 7058 C 692.681 2.30434 0.377148 0
M  V30 7059 C 693.662 1.35493 1.02838 0
M  V30 7060 O 694.847 1.6441 1.03359 0
M  V30 7061 C 691.977 3.14038 1.48315 0
M  V30 7062 C 690.931 4.1719 0.955855 0
M  V30 7063 C 690.257 4.89263 2.15698 0
M  V30 7064 C 691.557 5.223 -0.00402136 0
M  V30 7065 H 693.251 2.98085 -0.280336 0
M  V30 7066 H 690.797 1.43354 -0.136265 0
M  V30 7067 H 692.75 3.67933 2.05435 0
M  V30 7068 H 691.474 2.44193 2.16881 0
M  V30 7069 H 690.133 3.64335 0.406929 0
M  V30 7070 H 689.781 4.15929 2.82864 0
M  V30 7071 H 689.481 5.59009 1.81059 0
M  V30 7072 H 691.005 5.45978 2.73387 0
M  V30 7073 H 692.419 5.71315 0.476607 0
M  V30 7074 H 690.816 5.99525 -0.26258 0
M  V30 7075 H 691.886 4.75638 -0.943236 0
M  V30 7076 N 693.229 0.160201 1.56784 0
M  V30 7077 C 694.192 -0.760405 2.16219 0
M  V30 7078 C 695.192 -1.16595 1.10735 0
M  V30 7079 O 696.382 -1.08472 1.36306 0
M  V30 7080 C 693.514 -2.03358 2.73603 0
M  V30 7081 H 694.707 -0.243173 2.98912 0
M  V30 7082 H 692.26 -0.0893139 1.56045 0
M  V30 7083 H 692.995 -2.59416 1.94612 0
M  V30 7084 H 692.78 -1.75186 3.50788 0
M  V30 7085 H 694.27 -2.69081 3.19351 0
M  V30 7086 N 694.707 -1.5719 -0.113559 0
M  V30 7087 C 695.637 -2.03772 -1.14013 0
M  V30 7088 C 696.618 -0.923176 -1.42869 0
M  V30 7089 O 697.803 -1.19325 -1.53216 0
M  V30 7090 C 694.933 -2.44663 -2.4649 0
M  V30 7091 C 693.887 -3.59612 -2.32085 0
M  V30 7092 C 693.213 -3.8642 -3.69573 0
M  V30 7093 C 694.513 -4.91149 -1.7768 0
M  V30 7094 H 696.207 -2.89785 -0.752665 0
M  V30 7095 H 693.753 -1.39412 -0.360609 0
M  V30 7096 H 695.706 -2.75857 -3.18561 0
M  V30 7097 H 694.43 -1.55628 -2.87137 0
M  V30 7098 H 693.089 -3.28636 -1.62461 0
M  V30 7099 H 692.737 -2.94581 -4.07715 0
M  V30 7100 H 692.437 -4.63797 -3.60786 0
M  V30 7101 H 693.961 -4.2007 -4.4314 0
M  V30 7102 H 695.375 -5.20843 -2.39574 0
M  V30 7103 H 693.772 -5.72562 -1.79701 0
M  V30 7104 H 694.842 -4.79301 -0.734776 0
M  V30 7105 N 696.185 0.383891 -1.52853 0
M  V30 7106 C 697.095 1.49343 -1.80925 0
M  V30 7107 C 698.111 1.59458 -0.696348 0
M  V30 7108 O 699.287 1.75698 -0.984481 0
M  V30 7109 C 696.352 2.84819 -1.97684 0
M  V30 7110 C 695.413 2.84382 -3.21598 0
M  V30 7111 C 694.646 4.13397 -3.37548 0
M  V30 7112 O 694.869 5.08619 -2.58192 0
M  V30 7113 O 693.803 4.20325 -4.30826 0
M  V30 7114 H 697.629 1.2855 -2.75152 0
M  V30 7115 H 695.214 0.572229 -1.38007 0
M  V30 7116 H 697.096 3.65125 -2.10385 0
M  V30 7117 H 695.771 3.05627 -1.06647 0
M  V30 7118 H 694.678 2.0284 -3.14336 0
M  V30 7119 H 696.011 2.68526 -4.12498 0
M  V30 7120 N 697.663 1.43903 0.642637 0
M  V30 7121 C 698.893 1.49323 1.4278 0
M  V30 7122 C 699.301 0.113058 1.88862 0
M  V30 7123 O 698.644 -0.889089 1.60751 0
M  V30 7124 C 698.706 2.3861 2.68897 0
M  V30 7125 C 698.37 3.85976 2.44687 0
M  V30 7126 C 699.367 4.7681 2.07239 0
M  V30 7127 C 697.052 4.30567 2.58683 0
M  V30 7128 C 699.046 6.10234 1.841 0
M  V30 7129 C 696.733 5.64042 2.35159 0
M  V30 7130 C 697.731 6.53693 1.97925 0
M  V30 7131 O 697.419 7.84698 1.74654 0
M  V30 7132 H 697.151 0.509109 0.444729 0
M  V30 7133 H 699.705 1.89425 0.794195 0
M  V30 7134 H 697.935 1.93415 3.34855 0
M  V30 7135 H 699.624 2.35112 3.30873 0
M  V30 7136 H 700.39 4.43635 1.95993 0
M  V30 7137 H 696.269 3.61054 2.86637 0
M  V30 7138 H 699.813 6.80171 1.54962 0
M  V30 7139 H 695.71 5.96782 2.46011 0
M  V30 7140 H 696.478 7.96382 1.88993 0
M  V30 7141 N 699.141 -0.881989 1.30609 0
M  V30 7142 C 700.389 -1.63082 1.19368 0
M  V30 7143 C 700.71 -1.93376 -0.251147 0
M  V30 7144 O 699.98 -1.5723 -1.16857 0
M  V30 7145 H 698.56 -0.604542 0.438791 0
M  V30 7146 H 701.222 -1.05658 1.63776 0
M  V30 7147 H 700.318 -2.57966 1.7567 0
M  V30 7148 N 700.619 -1.13374 -1.09472 0
M  V30 7149 C 701.582 -0.813639 -2.14272 0
M  V30 7150 C 702.582 0.176677 -1.59826 0
M  V30 7151 O 703.772 -0.0503441 -1.74127 0
M  V30 7152 C 700.904 -0.210897 -3.40247 0
M  V30 7153 H 702.097 -1.74229 -2.44099 0
M  V30 7154 H 699.65 -0.938304 -1.25002 0
M  V30 7155 H 700.385 0.726998 -3.16046 0
M  V30 7156 H 700.17 -0.924048 -3.81056 0
M  V30 7157 H 701.66 -0.00377603 -4.176 0
M  V30 7158 N 702.098 1.27442 -0.927168 0
M  V30 7159 C 703.323 1.99036 -0.583042 0
M  V30 7160 C 703.748 1.68711 0.83176 0
M  V30 7161 O 703.106 0.927081 1.55804 0
M  V30 7162 C 703.154 3.51271 -0.814925 0
M  V30 7163 O 702.258 4.12226 0.119742 0
M  V30 7164 H 701.599 0.624883 -0.224538 0
M  V30 7165 H 704.129 1.62263 -1.24628 0
M  V30 7166 H 704.139 4.01411 -0.730282 0
M  V30 7167 H 702.814 3.72676 -1.84623 0
M  V30 7168 H 701.391 3.72897 -0.0147688 0
M  V30 7169 N 703.576 0.692616 1.41565 0
M  V30 7170 C 704.816 0.226453 2.03142 0
M  V30 7171 C 705.18 -1.1512 1.5366 0
M  V30 7172 O 706.381 -1.71305 2.07143 0
M  V30 7173 C 704.652 0.27855 3.56313 0
M  V30 7174 S 706.211 -0.114001 4.38652 0
M  V30 7175 H 703.029 0.0914767 0.705091 0
M  V30 7176 H 705.631 0.909737 1.73043 0
M  V30 7177 H 704.335 1.28325 3.89821 0
M  V30 7178 H 703.866 -0.423981 3.91109 0
M  V30 7179 H 705.881 -1.34256 4.77692 0
M  V30 7180 N 705.054 -1.51416 0.437162 0
M  V30 7181 C 705.964 -2.31493 -0.380537 0
M  V30 7182 C 706.98 -1.40399 -1.02782 0
M  V30 7183 O 708.156 -1.73471 -1.02323 0
M  V30 7184 C 705.221 -3.1413 -1.46709 0
M  V30 7185 C 704.282 -4.21003 -0.839953 0
M  V30 7186 C 703.515 -4.9969 -1.87473 0
M  V30 7187 O 703.738 -4.79008 -3.09689 0
M  V30 7188 O 702.672 -5.8379 -1.46536 0
M  V30 7189 H 706.498 -3.02469 0.273183 0
M  V30 7190 H 704.083 -1.48059 0.199706 0
M  V30 7191 H 705.965 -3.65505 -2.09724 0
M  V30 7192 H 704.64 -2.45919 -2.10489 0
M  V30 7193 H 703.547 -3.73706 -0.171752 0
M  V30 7194 H 704.88 -4.91587 -0.245638 0
M  V30 7195 N 706.532 -0.168513 -1.56696 0
M  V30 7196 C 707.809 0.523367 -1.88468 0
M  V30 7197 C 708.189 1.81503 -1.07796 0
M  V30 7198 O 707.537 2.27859 -0.171045 0
M  V30 7199 C 707.747 0.767991 -3.40445 0
M  V30 7200 C 709.095 1.09924 -4.10124 0
M  V30 7201 O 710.119 0.856625 -3.45746 0
M  V30 7202 O 708.978 1.55681 -5.23856 0
M  V30 7203 H 706.072 0.269447 -0.781874 0
M  V30 7204 H 708.618 -0.206739 -1.68436 0
M  V30 7205 H 707.39 -0.145254 -3.9103 0
M  V30 7206 H 707.013 1.55151 -3.66079 0
M  V30 7207 N 708.01 1.57248 0.105221 0
M  V30 7208 C 709.259 1.84756 0.809198 0
M  V30 7209 C 709.572 0.756262 1.80389 0
M  V30 7210 O 710.778 0.918158 2.55504 0
M  V30 7211 C 709.234 3.27613 1.48989 0
M  V30 7212 C 708.842 4.44788 0.535484 0
M  V30 7213 C 710.586 3.64356 2.17819 0
M  V30 7214 C 708.493 5.78676 1.22019 0
M  V30 7215 H 707.423 0.689139 0.305946 0
M  V30 7216 H 710.074 1.83395 0.0620371 0
M  V30 7217 H 708.456 3.23485 2.28415 0
M  V30 7218 H 709.63 4.60243 -0.226557 0
M  V30 7219 H 707.945 4.16374 -0.0465769 0
M  V30 7220 H 710.542 4.61663 2.69761 0
M  V30 7221 H 710.885 2.92474 2.96251 0
M  V30 7222 H 711.418 3.70328 1.45264 0
M  V30 7223 H 708.157 6.53763 0.476875 0
M  V30 7224 H 707.677 5.67083 1.9539 0
M  V30 7225 H 709.356 6.22897 1.74952 0
M  V30 7226 N 709.488 -0.375779 1.53054 0
M  V30 7227 C 710.451 -1.44254 1.7811 0
M  V30 7228 C 711.451 -1.47018 0.651328 0
M  V30 7229 O 712.641 -1.47957 0.919472 0
M  V30 7230 C 709.773 -2.8345 1.89391 0
M  V30 7231 H 710.966 -1.23316 2.73374 0
M  V30 7232 H 708.519 -0.608312 1.43977 0
M  V30 7233 H 709.254 -3.09716 0.961589 0
M  V30 7234 H 709.039 -2.82844 2.71555 0
M  V30 7235 H 710.529 -3.60722 2.10404 0
M  V30 7236 N 710.966 -1.44241 -0.634997 0
M  V30 7237 C 712.382 -1.28043 -0.952742 0
M  V30 7238 C 712.582 -0.21338 -2.00367 0
M  V30 7239 O 711.638 0.402042 -2.49279 0
M  V30 7240 C 712.951 -2.65076 -1.41968 0
M  V30 7241 C 714.499 -2.72755 -1.53537 0
M  V30 7242 C 714.974 -4.10249 -2.03616 0
M  V30 7243 N 716.465 -4.12406 -2.10892 0
M  V30 7244 C 717.2 -5.15641 -2.50803 0
M  V30 7245 N 716.696 -6.29239 -2.89879 0
M  V30 7246 N 718.489 -5.02995 -2.50903 0
M  V30 7247 H 710.64 -2.12315 0.060098 0
M  V30 7248 H 712.903 -0.947326 -0.0357325 0
M  V30 7249 H 712.609 -3.44213 -0.721804 0
M  V30 7250 H 712.483 -2.91704 -2.39141 0
M  V30 7251 H 714.87 -1.93939 -2.22422 0
M  V30 7252 H 714.951 -2.49872 -0.547496 0
M  V30 7253 H 714.595 -4.8954 -1.35327 0
M  V30 7254 H 714.525 -4.30507 -3.03268 0
M  V30 7255 H 717.016 -3.30417 -1.83393 0
M  V30 7256 H 717.329 -7.03827 -3.19135 0
M  V30 7257 H 715.674 -6.32683 -2.8764 0
M  V30 7258 H 718.865 -4.13306 -2.19763 0
M  V30 7259 H 719.038 -5.83574 -2.81683 0
M  V30 7260 N 712.444 0.87505 -1.31075 0
M  V30 7261 C 713.69 1.63009 -1.20647 0
M  V30 7262 C 714.023 1.9276 0.236045 0
M  V30 7263 O 713.298 1.55559 1.16754 0
M  V30 7264 C 713.581 2.96357 -2.0456 0
M  V30 7265 C 713.434 2.73516 -3.57084 0
M  V30 7266 C 714.753 3.974 -1.89107 0
M  V30 7267 H 711.872 0.591518 -0.439631 0
M  V30 7268 H 714.514 1.0119 -1.60812 0
M  V30 7269 H 712.664 3.49119 -1.70435 0
M  V30 7270 H 714.336 2.27465 -4.01319 0
M  V30 7271 H 712.579 2.0784 -3.80769 0
M  V30 7272 H 713.25 3.68377 -4.11099 0
M  V30 7273 H 715.726 3.5383 -2.18961 0
M  V30 7274 H 714.602 4.88596 -2.5013 0
M  V30 7275 H 714.863 4.33794 -0.85296 0
M  V30 7276 N 713.922 1.13953 1.08869 0
M  V30 7277 C 715.162 0.915128 1.8277 0
M  V30 7278 C 715.526 -0.548647 1.83994 0
M  V30 7279 O 716.727 -0.890817 2.5361 0
M  V30 7280 C 714.998 1.49382 3.24684 0
M  V30 7281 S 716.557 1.4103 4.15519 0
M  V30 7282 H 713.375 0.329716 0.629927 0
M  V30 7283 H 715.977 1.45213 1.30895 0
M  V30 7284 H 714.681 2.55241 3.21372 0
M  V30 7285 H 714.212 0.955008 3.81632 0
M  V30 7286 H 716.227 0.392617 4.94644 0
M  V30 7287 N 715.4 -1.26948 0.933913 0
M  V30 7288 C 716.35 -2.24306 0.408779 0
M  V30 7289 C 717.334 -1.53243 -0.490435 0
M  V30 7290 O 718.526 -1.73956 -0.326866 0
M  V30 7291 C 715.655 -3.41695 -0.331578 0
M  V30 7292 C 714.741 -4.20053 0.58451 0
M  V30 7293 N 715.132 -4.76122 1.70709 0
M  V30 7294 C 713.43 -4.44303 0.388703 0
M  V30 7295 C 714.131 -5.35267 2.27737 0
M  V30 7296 N 713.107 -5.20548 1.56622 0
M  V30 7297 H 716.909 -2.65244 1.26582 0
M  V30 7298 H 714.423 -1.4195 0.788919 0
M  V30 7299 H 716.42 -4.10552 -0.724774 0
M  V30 7300 H 715.08 -3.02286 -1.18547 0
M  V30 7301 H 716.091 -4.73884 2.08937 0
M  V30 7302 H 712.768 -4.15341 -0.424016 0
M  V30 7303 H 714.158 -5.89563 3.22282 0
M  V30 7304 N 716.879 -0.700114 -1.41195 0
M  V30 7305 C 717.842 -0.0465706 -2.29153 0
M  V30 7306 C 718.842 0.703302 -1.44604 0
M  V30 7307 O 720.032 0.537513 -1.657 0
M  V30 7308 C 717.164 0.944324 -3.2756 0
M  V30 7309 H 718.357 -0.821064 -2.88442 0
M  V30 7310 H 715.91 -0.463869 -1.49258 0
M  V30 7311 H 716.645 1.74642 -2.73259 0
M  V30 7312 H 716.43 0.409701 -3.89954 0
M  V30 7313 H 717.92 1.39925 -3.9346 0
M  V30 7314 N 718.357 1.51182 -0.445186 0
M  V30 7315 C 719.307 2.24804 0.380394 0
M  V30 7316 C 720.291 1.27344 0.983482 0
M  V30 7317 O 721.483 1.52392 0.900322 0
M  V30 7318 C 718.612 3.09922 1.4766 0
M  V30 7319 C 717.698 4.14816 0.882517 0
M  V30 7320 N 718.089 5.05797 0.0183278 0
M  V30 7321 C 716.387 4.30938 1.14927 0
M  V30 7322 C 717.088 5.8084 -0.316152 0
M  V30 7323 N 716.064 5.42759 0.302214 0
M  V30 7324 H 719.866 2.92508 -0.285737 0
M  V30 7325 H 717.38 1.60342 -0.257733 0
M  V30 7326 H 719.377 3.61249 2.08098 0
M  V30 7327 H 718.037 2.43763 2.14498 0
M  V30 7328 H 719.048 5.16725 -0.348679 0
M  V30 7329 H 715.725 3.76005 1.81457 0
M  V30 7330 H 717.115 6.64115 -1.01986 0
M  V30 7331 N 719.835 0.176821 1.56605 0
M  V30 7332 C 721.246 -0.338963 1.83597 0
M  V30 7333 C 721.597 -1.62677 1.09684 0
M  V30 7334 O 720.722 -2.13524 0.351661 0
M  V30 7335 C 721.317 -0.62177 3.33046 0
M  V30 7336 C 719.876 -1.08198 3.60514 0
M  V30 7337 C 719.023 -0.120774 2.77037 0
M  V30 7338 H 721.974 0.400978 1.53551 0
M  V30 7339 H 721.995 -1.47321 3.50823 0
M  V30 7340 H 721.507 0.315692 3.86814 0
M  V30 7341 H 719.608 -2.03435 3.12162 0
M  V30 7342 H 719.721 -0.987329 4.68816 0
M  V30 7343 H 718.085 -0.619192 2.47059 0
M  V30 7344 H 718.868 0.810806 3.33588 0
M  V30 7345 N 721.313 -1.57302 -0.09688 0
M  V30 7346 C 722.541 -1.90202 -0.814295 0
M  V30 7347 C 722.956 -0.770344 -1.72369 0
M  V30 7348 O 722.313 0.257764 -1.8067 0
M  V30 7349 C 722.364 -3.22708 -1.62916 0
M  V30 7350 O 722.085 -4.31522 -0.756343 0
M  V30 7351 C 723.586 -3.69459 -2.44979 0
M  V30 7352 H 720.806 -0.629275 -0.232925 0
M  V30 7353 H 723.35 -2.04364 -0.0746482 0
M  V30 7354 H 721.505 -3.1015 -2.32133 0
M  V30 7355 H 721.919 -5.07604 -1.32054 0
M  V30 7356 H 723.393 -4.64875 -2.9765 0
M  V30 7357 H 723.87 -2.97211 -3.23361 0
M  V30 7358 H 724.476 -3.84879 -1.80964 0
M  V30 7359 N 722.791 0.367657 -1.53252 0
M  V30 7360 C 723.721 1.45632 -1.8252 0
M  V30 7361 C 724.702 1.55979 -0.678568 0
M  V30 7362 O 725.887 1.70581 -0.928217 0
M  V30 7363 C 723.017 2.82994 -2.01325 0
M  V30 7364 C 721.971 2.87473 -3.17086 0
M  V30 7365 C 721.297 4.2749 -3.21179 0
M  V30 7366 C 722.597 2.55182 -4.55719 0
M  V30 7367 H 724.291 1.21387 -2.73689 0
M  V30 7368 H 721.837 0.58251 -1.31692 0
M  V30 7369 H 723.79 3.59179 -2.20383 0
M  V30 7370 H 722.514 3.08622 -1.06864 0
M  V30 7371 H 721.173 2.13739 -2.97844 0
M  V30 7372 H 720.821 4.5019 -2.24361 0
M  V30 7373 H 720.521 4.31403 -3.98955 0
M  V30 7374 H 722.045 5.0555 -3.42419 0
M  V30 7375 H 723.459 3.21081 -4.74953 0
M  V30 7376 H 721.856 2.70414 -5.3572 0
M  V30 7377 H 722.926 1.5044 -4.60973 0
M  V30 7378 N 724.269 1.44576 0.627338 0
M  V30 7379 C 725.494 1.51271 1.41887 0
M  V30 7380 C 725.919 0.139814 1.8758 0
M  V30 7381 O 725.277 -0.871746 1.58966 0
M  V30 7382 C 725.325 2.48529 2.61277 0
M  V30 7383 O 724.429 1.98944 3.61241 0
M  V30 7384 H 723.77 0.510668 0.424399 0
M  V30 7385 H 726.3 1.89746 0.765356 0
M  V30 7386 H 726.31 2.66689 3.08773 0
M  V30 7387 H 724.985 3.48249 2.27366 0
M  V30 7388 H 723.562 1.90568 3.20528 0
M  V30 7389 N 725.747 -0.868086 1.31537 0
M  V30 7390 C 726.657 -2.00801 1.21311 0
M  V30 7391 C 727.673 -1.73518 0.129431 0
M  V30 7392 O 728.849 -1.98378 0.347588 0
M  V30 7393 C 725.914 -3.3419 0.922935 0
M  V30 7394 C 724.975 -3.74783 2.0937 0
M  V30 7395 C 724.208 -5.01807 1.81728 0
M  V30 7396 O 724.431 -5.65404 0.753313 0
M  V30 7397 O 723.365 -5.39213 2.67457 0
M  V30 7398 H 727.191 -2.12361 2.17109 0
M  V30 7399 H 724.776 -0.996684 1.11295 0
M  V30 7400 H 726.658 -4.14174 0.777033 0
M  V30 7401 H 725.333 -3.237 -0.00500301 0
M  V30 7402 H 724.24 -2.95432 2.29501 0
M  V30 7403 H 725.573 -3.89902 3.00396 0
M  V30 7404 N 727.225 -1.14528 -1.08264 0
M  V30 7405 C 728.188 -0.83632 -2.13397 0
M  V30 7406 C 729.188 0.159715 -1.60005 0
M  V30 7407 O 730.378 -0.0688098 -1.74064 0
M  V30 7408 C 727.51 -0.246973 -3.40004 0
M  V30 7409 H 728.703 -1.76808 -2.42237 0
M  V30 7410 H 726.256 -0.951509 -1.24 0
M  V30 7411 H 726.991 0.693436 -3.168 0
M  V30 7412 H 726.776 -0.964412 -3.80055 0
M  V30 7413 H 728.266 -0.0480679 -4.17572 0
M  V30 7414 N 728.703 1.26451 -0.940633 0
M  V30 7415 C 729.95 1.93778 -0.587909 0
M  V30 7416 C 730.278 1.73811 0.872935 0
M  V30 7417 O 729.533 1.06816 1.63978 0
M  V30 7418 C 729.832 3.46503 -0.875794 0
M  V30 7419 C 729.498 3.86609 -2.32043 0
M  V30 7420 C 728.16 3.97269 -2.71534 0
M  V30 7421 C 730.512 4.0672 -3.25927 0
M  V30 7422 C 727.84 4.25436 -4.04006 0
M  V30 7423 C 730.192 4.36375 -4.57995 0
M  V30 7424 C 728.856 4.45249 -4.97302 0
M  V30 7425 H 728.126 0.709084 -0.215131 0
M  V30 7426 H 730.773 1.50272 -1.18704 0
M  V30 7427 H 729.078 3.91319 -0.194124 0
M  V30 7428 H 730.775 3.96759 -0.581665 0
M  V30 7429 H 727.365 3.78858 -2.00411 0
M  V30 7430 H 731.549 3.97912 -2.96614 0
M  V30 7431 H 726.805 4.30519 -4.34124 0
M  V30 7432 H 730.979 4.50882 -5.30734 0
M  V30 7433 H 728.606 4.66829 -5.99979 0
M  V30 7434 N 730.181 0.707592 1.40822 0
M  V30 7435 C 731.597 0.38034 1.55002 0
M  V30 7436 C 731.797 -1.11163 1.68062 0
M  V30 7437 O 730.853 -1.89761 1.66574 0
M  V30 7438 C 732.166 1.1394 2.78277 0
M  V30 7439 C 733.714 1.12492 2.92087 0
M  V30 7440 C 734.189 1.86597 4.18265 0
M  V30 7441 N 735.68 1.83626 4.25248 0
M  V30 7442 C 736.415 2.37794 5.21768 0
M  V30 7443 N 735.911 3.00485 6.24244 0
M  V30 7444 N 737.704 2.27982 5.13791 0
M  V30 7445 H 729.855 1.67511 1.3059 0
M  V30 7446 H 732.118 0.707579 0.630901 0
M  V30 7447 H 731.824 2.19398 2.74877 0
M  V30 7448 H 731.698 0.725793 3.70151 0
M  V30 7449 H 734.085 0.0785564 2.94995 0
M  V30 7450 H 734.166 1.57768 2.01353 0
M  V30 7451 H 733.81 2.91219 4.16118 0
M  V30 7452 H 733.74 1.38746 5.07993 0
M  V30 7453 H 736.231 1.3793 3.51829 0
M  V30 7454 H 736.544 3.39355 6.94304 0
M  V30 7455 H 734.889 3.04567 6.24711 0
M  V30 7456 H 738.08 1.78669 4.3266 0
M  V30 7457 H 738.253 2.70499 5.88841 0
M  V30 7458 N 731.66 -1.50943 0.453197 0
M  V30 7459 C 732.57 -2.31884 -0.355963 0
M  V30 7460 C 733.586 -1.41481 -1.01287 0
M  V30 7461 O 734.762 -1.74546 -1.00477 0
M  V30 7462 C 731.827 -3.15668 -1.43369 0
M  V30 7463 C 730.888 -4.2187 -0.795253 0
M  V30 7464 C 730.121 -5.0165 -1.82162 0
M  V30 7465 O 730.344 -4.82266 -3.04592 0
M  V30 7466 O 729.278 -5.85311 -1.40336 0
M  V30 7467 H 733.104 -3.02162 0.305248 0
M  V30 7468 H 730.689 -1.47839 0.215398 0
M  V30 7469 H 732.571 -3.67709 -2.05836 0
M  V30 7470 H 731.246 -2.48137 -2.07869 0
M  V30 7471 H 730.153 -3.73867 -0.132106 0
M  V30 7472 H 731.486 -4.9182 -0.193484 0
M  V30 7473 N 733.138 -0.185124 -1.56509 0
M  V30 7474 C 734.101 0.72591 -2.17401 0
M  V30 7475 C 735.101 1.14819 -1.12575 0
M  V30 7476 O 736.291 1.0629 -1.38015 0
M  V30 7477 C 733.423 1.98979 -2.76803 0
M  V30 7478 H 734.616 0.195588 -2.99262 0
M  V30 7479 H 732.169 0.0644772 -1.56167 0
M  V30 7480 H 732.904 2.56287 -1.98714 0
M  V30 7481 H 732.689 1.69583 -3.53531 0
M  V30 7482 H 734.179 2.63966 -3.23592 0
M  V30 7483 N 734.616 1.57351 0.0885366 0
M  V30 7484 C 735.564 2.03542 1.12576 0
M  V30 7485 C 736.558 0.937668 1.41082 0
M  V30 7486 O 737.764 1.12283 1.40686 0
M  V30 7487 H 734.139 0.648752 0.380296 0
M  V30 7488 H 736.11 2.89833 0.709906 0
M  V30 7489 C 734.859 2.4811 2.43591 0
M  V30 7490 H 734.182 3.32164 2.22502 0
M  V30 7491 H 735.622 2.842 3.14653 0
M  V30 7492 C 734.081 1.35708 3.08359 0
M  V30 7493 O 734.611 0.689852 3.95732 0
M  V30 7494 N 732.817 1.10641 2.68713 0
M  V30 7495 H 732.364 1.6508 1.97753 0
M  V30 7496 H 732.322 0.356355 3.12374 0
M  V30 7497 N 736.094 -0.359525 1.53444 0
M  V30 7498 C 737.024 -1.44662 1.8329 0
M  V30 7499 C 738.005 -1.55617 0.68683 0
M  V30 7500 O 739.19 -1.70086 0.93725 0
M  V30 7501 C 736.32 -2.81923 2.02822 0
M  V30 7502 C 735.274 -2.85787 3.18606 0
M  V30 7503 C 734.6 -4.25781 3.23442 0
M  V30 7504 C 735.9 -2.52762 4.57065 0
M  V30 7505 H 737.594 -1.19934 2.74329 0
M  V30 7506 H 735.14 -0.575517 1.31999 0
M  V30 7507 H 737.093 -3.58005 2.22285 0
M  V30 7508 H 735.817 -3.08051 1.085 0
M  V30 7509 H 734.476 -2.12157 2.98973 0
M  V30 7510 H 734.124 -4.48994 2.26745 0
M  V30 7511 H 733.824 -4.29281 4.01238 0
M  V30 7512 H 735.348 -5.03727 3.45096 0
M  V30 7513 H 736.762 -3.18557 4.76649 0
M  V30 7514 H 735.159 -2.67569 5.37147 0
M  V30 7515 H 736.229 -1.47993 4.61764 0
M  V30 7516 N 737.572 -1.44907 -0.619662 0
M  V30 7517 C 738.535 -1.52282 -1.71297 0
M  V30 7518 C 739.535 -0.40359 -1.55653 0
M  V30 7519 O 740.725 -0.666638 -1.6094 0
M  V30 7520 C 737.857 -1.40778 -3.10474 0
M  V30 7521 H 739.05 -2.49683 -1.66128 0
M  V30 7522 H 736.603 -1.32168 -0.834339 0
M  V30 7523 H 737.338 -0.445156 -3.2123 0
M  V30 7524 H 737.123 -2.21947 -3.23237 0
M  V30 7525 H 738.613 -1.48946 -3.90135 0
M  V30 7526 N 739.05 0.861098 -1.31996 0
M  V30 7527 C 740.013 1.95068 -1.20338 0
M  V30 7528 C 741.013 1.60289 -0.128114 0
M  V30 7529 O 742.203 1.70048 -0.378044 0
M  V30 7530 C 739.335 3.30153 -0.849205 0
M  V30 7531 H 740.528 2.06833 -2.17164 0
M  V30 7532 H 738.081 1.05049 -1.15734 0
M  V30 7533 H 738.816 3.24087 0.117508 0
M  V30 7534 H 738.601 3.56771 -1.62655 0
M  V30 7535 H 740.091 4.10025 -0.791782 0
M  V30 7536 N 740.528 1.15101 1.07655 0
M  V30 7537 C 741.753 0.948177 1.84457 0
M  V30 7538 C 742.178 -0.498432 1.81376 0
M  V30 7539 O 741.536 -1.35509 1.20445 0
M  V30 7540 C 741.584 1.46318 3.29581 0
M  V30 7541 O 740.688 0.660342 4.07079 0
M  V30 7542 H 740.029 0.338428 0.571281 0
M  V30 7543 H 742.559 1.5301 1.35828 0
M  V30 7544 H 742.569 1.47468 3.80417 0
M  V30 7545 H 741.244 2.51635 3.31138 0
M  V30 7546 H 739.821 0.718216 3.65918 0
M  V30 7547 N 742.006 -1.2595 0.947325 0
M  V30 7548 C 743.253 -1.93463 0.598178 0
M  V30 7549 C 743.581 -1.74271 -0.863705 0
M  V30 7550 O 742.836 -1.07684 -1.63409 0
M  V30 7551 C 743.135 -3.46034 0.894158 0
M  V30 7552 C 742.801 -3.85373 2.3409 0
M  V30 7553 C 741.463 -3.95823 2.73637 0
M  V30 7554 C 743.815 -4.04986 3.2808 0
M  V30 7555 C 741.143 -4.23288 4.06257 0
M  V30 7556 C 743.495 -4.3394 4.60303 0
M  V30 7557 C 742.159 -4.42606 4.99656 0
M  V30 7558 H 741.429 -0.707933 0.218889 0
M  V30 7559 H 744.076 -1.4964 1.19499 0
M  V30 7560 H 742.381 -3.9121 0.214874 0
M  V30 7561 H 744.078 -3.96445 0.602698 0
M  V30 7562 H 740.668 -3.7779 2.02417 0
M  V30 7563 H 744.852 -3.96333 2.9872 0
M  V30 7564 H 740.108 -4.28211 4.36401 0
M  V30 7565 H 744.282 -4.48061 5.33118 0
M  V30 7566 H 741.909 -4.63641 6.02446 0
M  V30 7567 N 743.484 -0.715051 -1.40445 0
M  V30 7568 C 744.732 -0.253826 -2.005 0
M  V30 7569 C 745.053 1.15681 -1.5698 0
M  V30 7570 O 744.323 1.78414 -0.809027 0
M  V30 7571 H 742.903 -0.0908537 -0.741454 0
M  V30 7572 H 745.565 -0.920561 -1.7179 0
M  V30 7573 H 744.661 -0.286499 -3.10782 0
M  V30 7574 N 744.962 1.50701 -0.461195 0
M  V30 7575 C 745.909 2.2831 0.338094 0
M  V30 7576 C 746.879 1.32928 0.995957 0
M  V30 7577 O 748.064 1.61857 1.0103 0
M  V30 7578 C 745.204 3.14539 1.41983 0
M  V30 7579 C 744.317 4.24942 0.77773 0
M  V30 7580 C 743.452 4.98443 1.83652 0
M  V30 7581 C 742.491 6.00733 1.17413 0
M  V30 7582 N 741.628 6.6755 2.17533 0
M  V30 7583 H 746.468 2.96167 -0.330051 0
M  V30 7584 H 744.005 1.4606 -0.174611 0
M  V30 7585 H 745.963 3.62877 2.05855 0
M  V30 7586 H 744.593 2.48749 2.05727 0
M  V30 7587 H 743.645 3.80391 0.0266924 0
M  V30 7588 H 744.957 4.98151 0.254362 0
M  V30 7589 H 744.111 5.50449 2.55129 0
M  V30 7590 H 742.85 4.24917 2.39367 0
M  V30 7591 H 741.855 5.47997 0.444944 0
M  V30 7592 H 743.08 6.76227 0.624006 0
M  V30 7593 H 741.026 5.96823 2.72284 0
M  V30 7594 H 740.943 7.36603 1.70154 0
M  V30 7595 H 742.211 7.24178 2.88421 0
M  V30 7596 N 746.441 0.193421 1.56409 0
M  V30 7597 C 747.666 -0.454552 2.02358 0
M  V30 7598 C 748.091 -1.54516 1.07268 0
M  V30 7599 O 747.449 -1.81214 0.0558962 0
M  V30 7600 C 747.497 -0.989469 3.46759 0
M  V30 7601 O 746.601 -2.10244 3.54783 0
M  V30 7602 H 745.942 -0.106417 0.655417 0
M  V30 7603 H 748.472 0.303807 2.02332 0
M  V30 7604 H 748.482 -1.30649 3.86516 0
M  V30 7605 H 747.157 -0.191083 4.15461 0
M  V30 7606 H 745.734 -1.79419 3.26899 0
M  V30 7607 N 747.919 -1.57396 -0.0801906 0
M  V30 7608 C 749.168 -1.8602 -0.779702 0
M  V30 7609 C 749.481 -0.784864 -1.79163 0
M  V30 7610 O 750.687 -0.958691 -2.54011 0
M  V30 7611 C 749.143 -3.29942 -1.43758 0
M  V30 7612 C 748.751 -4.45584 -0.464654 0
M  V30 7613 C 750.495 -3.67775 -2.11995 0
M  V30 7614 C 748.402 -5.80544 -1.12797 0
M  V30 7615 H 747.332 -0.69392 -0.294943 0
M  V30 7616 H 749.983 -1.83471 -0.0328527 0
M  V30 7617 H 748.365 -3.27078 -2.2324 0
M  V30 7618 H 749.539 -4.59824 0.299749 0
M  V30 7619 H 747.854 -4.16247 0.112813 0
M  V30 7620 H 750.451 -4.65896 -2.62383 0
M  V30 7621 H 750.794 -2.9715 -2.91561 0
M  V30 7622 H 751.327 -3.72593 -1.39354 0
M  V30 7623 H 748.066 -6.54439 -0.372807 0
M  V30 7624 H 747.586 -5.70119 -1.86344 0
M  V30 7625 H 749.265 -6.25602 -1.6502 0
M  V30 7626 N 749.397 0.351382 -1.53633 0
M  V30 7627 C 750.345 1.45142 -1.8176 0
M  V30 7628 C 751.339 1.54819 -0.687571 0
M  V30 7629 O 752.545 1.57536 -0.870772 0
M  V30 7630 H 748.92 0.483789 -0.575719 0
M  V30 7631 H 750.891 1.1863 -2.73806 0
M  V30 7632 C 749.64 2.81779 -2.03706 0
M  V30 7633 H 748.963 2.75097 -2.90107 0
M  V30 7634 H 750.403 3.5789 -2.27356 0
M  V30 7635 C 748.862 3.26762 -0.820271 0
M  V30 7636 O 749.392 4.01697 -0.0158603 0
M  V30 7637 N 747.598 2.83472 -0.639699 0
M  V30 7638 H 747.145 2.22655 -1.29547 0
M  V30 7639 H 747.103 3.13924 0.172995 0
M  V30 7640 N 750.875 1.45233 0.611969 0
M  V30 7641 C 752.122 1.49021 1.37109 0
M  V30 7642 C 752.45 0.130227 1.94064 0
M  V30 7643 O 751.705 -0.870551 1.75271 0
M  V30 7644 C 752.004 2.51353 2.54079 0
M  V30 7645 C 751.67 3.96178 2.15299 0
M  V30 7646 C 750.332 4.35614 2.04436 0
M  V30 7647 C 752.684 4.87275 1.84966 0
M  V30 7648 C 750.012 5.64047 1.61456 0
M  V30 7649 C 752.364 6.16115 1.43474 0
M  V30 7650 C 751.028 6.54486 1.31167 0
M  V30 7651 H 750.298 0.545307 0.501719 0
M  V30 7652 H 752.945 1.78555 0.692122 0
M  V30 7653 H 751.25 2.15372 3.27295 0
M  V30 7654 H 752.947 2.51523 3.12309 0
M  V30 7655 H 749.537 3.6499 2.24678 0
M  V30 7656 H 753.721 4.57548 1.92258 0
M  V30 7657 H 748.977 5.92575 1.50547 0
M  V30 7658 H 753.151 6.86149 1.19048 0
M  V30 7659 H 750.778 7.53904 0.97637 0
M  V30 7660 O 752.392 -0.755776 1.42724 0
M  V30 7661 H 753.083 -1.40427 1.33416 0
M  V30 END ATOM
M  V30 BEGIN BOND
M  V30 END BOND
M  V30 END CTAB
M  END
$$$$
