drugbank_target|Q8ZKF6 Acetyl-coenzyme A synthetase (DB01992; DB03230)
 OpenBabel12092120023D

  0  0  0     0  0            999 V3000
M  V30 BEGIN CTAB
M  V30 COUNTS 10061 10195 0 0 0
M  V30 BEGIN ATOM
M  V30 1 H -0.908 1.98254 -0.117106 0
M  V30 2 N 0 1.576 0 0
M  V30 3 C 0.933 2.03868 1.02534 0
M  V30 4 C 1.911 0.928543 1.3348 0
M  V30 5 O 3.095 1.19667 1.45644 0
M  V30 6 C 0.222 2.43627 2.35294 0
M  V30 7 C -0.732 3.65373 2.2001 0
M  V30 8 S 0.101 5.13292 1.52614 0
M  V30 9 C 1.257 5.56322 2.86805 0
M  V30 10 H 1.49 2.90518 0.631377 0
M  V30 11 H -0.977 1.52953 0.210867 0
M  V30 12 H 0.981 2.67203 3.11629 0
M  V30 13 H -0.358 1.57376 2.7183 0
M  V30 14 H -1.165 3.90944 3.18086 0
M  V30 15 H -1.563 3.418 1.51819 0
M  V30 16 H 0.729 5.58782 3.83104 0
M  V30 17 H 1.672 6.56266 2.65933 0
M  V30 18 H 2.08 4.83886 2.90714 0
M  V30 19 N 1.4781 -0.272755 1.55222 0
M  V30 20 C 2.7031 -1.02683 1.80197 0
M  V30 21 C 3.1281 -1.79142 0.573551 0
M  V30 22 O 2.4861 -1.74917 -0.476849 0
M  V30 23 C 2.5341 -1.9609 3.02624 0
M  V30 24 O 1.6381 -3.04863 2.77727 0
M  V30 25 H 0.9791 -0.293557 0.595584 0
M  V30 26 H 3.5091 -0.30159 2.02365 0
M  V30 27 H 3.5191 -2.38039 3.31363 0
M  V30 28 H 2.1941 -1.39851 3.91682 0
M  V30 29 H 0.7711 -2.67228 2.60084 0
M  V30 30 N 2.9562 -1.48159 -0.537278 0
M  V30 31 C 3.8882 -1.58218 -1.65831 0
M  V30 32 C 4.9012 -0.466948 -1.5596 0
M  V30 33 O 6.0902 -0.73747 -1.62553 0
M  V30 34 C 3.1902 -1.48906 -3.04434 0
M  V30 35 C 2.3632 -2.75343 -3.3986 0
M  V30 36 C 1.4222 -2.59588 -4.57712 0
M  V30 37 O 0.4482 -3.33457 -4.61297 0
M  V30 38 N 1.6502 -1.68724 -5.55439 0
M  V30 39 H 4.4152 -2.54891 -1.57641 0
M  V30 40 H 1.9762 -1.4479 -0.724386 0
M  V30 41 H 3.9682 -1.36072 -3.81139 0
M  V30 42 H 2.5382 -0.602368 -3.06741 0
M  V30 43 H 1.7582 -3.02795 -2.52406 0
M  V30 44 H 3.0462 -3.5924 -3.60311 0
M  V30 45 H 2.4442 -1.07898 -5.55315 0
M  V30 46 H 1.0012 -1.61832 -6.3139 0
M  V30 47 N 4.4343 0.785586 -1.36625 0
M  V30 48 C 5.6623 1.57448 -1.3423 0
M  V30 49 C 6.0773 1.88649 0.0755653 0
M  V30 50 O 5.4343 1.50414 1.03354 0
M  V30 51 C 5.4853 2.89316 -2.16745 0
M  V30 52 O 5.2063 2.59459 -3.53005 0
M  V30 53 C 6.7073 3.83606 -2.22174 0
M  V30 54 H 3.9273 0.488226 -0.4603 0
M  V30 55 H 6.4713 0.974733 -1.79775 0
M  V30 56 H 4.6263 3.4575 -1.74745 0
M  V30 57 H 5.0403 3.43804 -3.96105 0
M  V30 58 H 6.5143 4.73181 -2.8426 0
M  V30 59 H 6.9913 4.21734 -1.22627 0
M  V30 60 H 7.5973 3.33104 -2.64427 0
M  V30 61 N 5.9124 1.20967 1.01018 0
M  V30 62 C 6.8624 0.93182 2.08089 0
M  V30 63 C 7.8464 -0.110898 1.60517 0
M  V30 64 O 9.0384 0.0973392 1.76732 0
M  V30 65 C 6.1674 0.492719 3.39746 0
M  V30 66 C 5.2534 1.56922 3.94 0
M  V30 67 N 5.6444 2.79312 4.21686 0
M  V30 68 C 3.9424 1.43688 4.2222 0
M  V30 69 C 4.6434 3.48797 4.65527 0
M  V30 70 N 3.6194 2.76224 4.68189 0
M  V30 71 H 7.4214 1.86175 2.27412 0
M  V30 72 H 4.9354 1.10463 1.19045 0
M  V30 73 H 6.9324 0.275044 4.15992 0
M  V30 74 H 5.5924 -0.430509 3.21833 0
M  V30 75 H 6.6034 3.15903 4.10397 0
M  V30 76 H 3.2804 0.578548 4.13472 0
M  V30 77 H 4.6704 4.53561 4.95714 0
M  V30 78 N 7.3905 -1.2043 1.01659 0
M  V30 79 C 8.3375 -2.23215 0.586822 0
M  V30 80 C 9.3075 -1.61382 -0.393085 0
M  V30 81 O 10.4925 -1.88544 -0.292525 0
M  V30 82 C 7.6325 -3.45032 -0.0687464 0
M  V30 83 C 6.7455 -4.21296 0.955724 0
M  V30 84 C 5.8805 -5.30507 0.271208 0
M  V30 85 C 4.9195 -5.98515 1.28244 0
M  V30 86 N 4.0565 -6.99316 0.62459 0
M  V30 87 H 8.8965 -2.59336 1.46796 0
M  V30 88 H 6.4335 -1.27431 0.734836 0
M  V30 89 H 8.3915 -4.1459 -0.465965 0
M  V30 90 H 7.0215 -3.09604 -0.913529 0
M  V30 91 H 6.0735 -3.50803 1.4711 0
M  V30 92 H 7.3855 -4.6803 1.72479 0
M  V30 93 H 6.5395 -6.06428 -0.18151 0
M  V30 94 H 5.2785 -4.8481 -0.530163 0
M  V30 95 H 4.2835 -5.21355 1.74554 0
M  V30 96 H 5.5085 -6.46298 2.08509 0
M  V30 97 H 3.4545 -6.55812 -0.156914 0
M  V30 98 H 3.3715 -7.44178 1.33172 0
M  V30 99 H 4.6395 -7.79255 0.195462 0
M  V30 100 N 8.8686 -0.792821 -1.36206 0
M  V30 101 C 9.8186 -0.166598 -2.27391 0
M  V30 102 C 10.8026 0.651479 -1.47121 0
M  V30 103 O 11.9946 0.510994 -1.69463 0
M  V30 104 C 9.1236 0.695033 -3.36191 0
M  V30 105 C 8.2096 -0.132019 -4.23894 0
M  V30 106 N 8.6006 -1.18822 -4.91645 0
M  V30 107 C 6.8986 0.0885952 -4.45912 0
M  V30 108 C 7.5996 -1.69198 -5.56549 0
M  V30 109 N 6.5756 -1.00065 -5.34311 0
M  V30 110 H 10.3776 -0.974947 -2.77258 0
M  V30 111 H 7.8916 -0.632616 -1.49572 0
M  V30 112 H 9.8886 1.1596 -4.00448 0
M  V30 113 H 8.5486 1.50189 -2.87877 0
M  V30 114 H 9.5596 -1.57069 -4.93507 0
M  V30 115 H 6.2366 0.865688 -4.08426 0
M  V30 116 H 7.6266 -2.57395 -6.20643 0
M  V30 117 N 10.3467 1.47872 -0.545128 0
M  V30 118 C 11.3097 2.28337 0.198717 0
M  V30 119 C 12.3097 1.36255 0.853888 0
M  V30 120 O 13.4997 1.59003 0.711606 0
M  V30 121 C 10.6317 3.15585 1.28915 0
M  V30 122 H 11.8247 2.95567 -0.507941 0
M  V30 123 H 9.3777 1.53362 -0.301616 0
M  V30 124 H 10.1127 2.53019 2.02859 0
M  V30 125 H 9.8977 3.83337 0.824309 0
M  V30 126 H 11.3877 3.76243 1.81194 0
M  V30 127 N 11.8248 0.280983 1.55075 0
M  V30 128 C 13.0738 -0.334784 1.98902 0
M  V30 129 C 13.3868 -1.56534 1.17288 0
M  V30 130 O 14.5928 -2.25443 1.51287 0
M  V30 131 C 13.0488 -0.646994 3.54037 0
M  V30 132 C 12.6568 0.564085 4.44435 0
M  V30 133 C 14.4008 -1.22506 4.06439 0
M  V30 134 C 12.3078 0.226137 5.90967 0
M  V30 135 H 11.2378 -0.128866 0.742906 0
M  V30 136 H 13.8888 0.386556 1.79382 0
M  V30 137 H 12.2708 -1.42739 3.6938 0
M  V30 138 H 13.4448 1.34082 4.40861 0
M  V30 139 H 11.7598 1.0594 4.02698 0
M  V30 140 H 14.3568 -1.49182 5.13468 0
M  V30 141 H 14.6998 -2.16085 3.55827 0
M  V30 142 H 15.2328 -0.50682 3.94558 0
M  V30 143 H 11.9718 1.12996 6.45687 0
M  V30 144 H 11.4918 -0.513717 5.97596 0
M  V30 145 H 13.1708 -0.179539 6.46751 0
M  V30 146 N 13.3029 -1.57598 0.00835791 0
M  V30 147 C 14.7139 -1.7892 -0.53333 0
M  V30 148 C 15.0649 -0.916609 -1.73473 0
M  V30 149 O 14.1899 -0.121336 -2.1606 0
M  V30 150 C 14.7849 -3.24488 -0.974313 0
M  V30 151 C 13.3439 -3.46878 -1.46125 0
M  V30 152 C 12.4909 -2.74157 -0.416302 0
M  V30 153 H 15.4419 -1.56958 0.234495 0
M  V30 154 H 15.4629 -3.3306 -1.83988 0
M  V30 155 H 14.9749 -3.87972 -0.099718 0
M  V30 156 H 13.0759 -2.8862 -2.35646 0
M  V30 157 H 13.1889 -4.55572 -1.48295 0
M  V30 158 H 11.5529 -2.39022 -0.87981 0
M  V30 159 H 12.3359 -3.40345 0.44947 0
M  V30 160 N 14.781 0.264519 -1.55364 0
M  V30 161 C 15.744 1.31046 -1.88042 0
M  V30 162 C 16.744 1.41943 -0.755569 0
M  V30 163 O 17.934 1.40947 -1.02369 0
M  V30 164 C 15.066 2.69067 -2.09323 0
M  V30 165 H 16.259 1.03297 -2.81549 0
M  V30 166 H 13.812 0.502989 -1.47986 0
M  V30 167 H 14.547 3.01982 -1.18226 0
M  V30 168 H 14.332 2.62542 -2.91229 0
M  V30 169 H 15.822 3.44623 -2.35848 0
M  V30 170 N 16.2591 1.48442 0.529413 0
M  V30 171 C 17.2071 1.63452 1.65487 0
M  V30 172 C 18.2011 0.500955 1.61823 0
M  V30 173 O 19.4071 0.679695 1.66674 0
M  V30 174 H 15.7821 0.514905 0.548066 0
M  V30 175 H 17.7531 2.57975 1.49971 0
M  V30 176 C 16.5021 1.69196 3.03756 0
M  V30 177 H 15.8251 2.55784 3.07269 0
M  V30 178 H 17.2651 1.83743 3.82119 0
M  V30 179 C 15.7241 0.430765 3.34135 0
M  V30 180 O 16.2541 -0.4561 3.99102 0
M  V30 181 N 14.4601 0.302293 2.89023 0
M  V30 182 H 14.0071 1.02496 2.36331 0
M  V30 183 H 13.9651 -0.540546 3.09718 0
M  V30 184 N 17.7372 -0.778329 1.37039 0
M  V30 185 C 18.9862 -1.53189 1.3121 0
M  V30 186 C 19.2992 -1.95328 -0.103095 0
M  V30 187 O 20.5052 -2.70012 -0.283826 0
M  V30 188 C 18.9612 -2.76591 2.30272 0
M  V30 189 C 18.5692 -2.41577 3.77286 0
M  V30 190 C 20.3132 -3.5455 2.33441 0
M  V30 191 C 18.2202 -3.61441 4.68096 0
M  V30 192 H 17.1502 -0.5751 0.487622 0
M  V30 193 H 19.8012 -0.853101 1.62464 0
M  V30 194 H 18.1832 -3.46326 1.92027 0
M  V30 195 H 19.3572 -1.79668 4.2433 0
M  V30 196 H 17.6722 -1.76806 3.76999 0
M  V30 197 H 20.2692 -4.43628 2.98493 0
M  V30 198 H 20.6122 -3.93936 1.34611 0
M  V30 199 H 21.1452 -2.91805 2.7036 0
M  V30 200 H 17.8842 -3.27142 5.6803 0
M  V30 201 H 17.4042 -4.22478 4.25761 0
M  V30 202 H 19.0832 -4.28335 4.8491 0
M  V30 203 N 19.2153 -1.21501 -1.00376 0
M  V30 204 C 20.1783 -0.976927 -2.07337 0
M  V30 205 C 21.1783 0.0525322 -1.60714 0
M  V30 206 O 22.3683 -0.184869 -1.73216 0
M  V30 207 C 19.5003 -0.473423 -3.37597 0
M  V30 208 H 20.6933 -1.92587 -2.29892 0
M  V30 209 H 18.2463 -1.03217 -1.17371 0
M  V30 210 H 18.9813 0.480379 -3.20722 0
M  V30 211 H 18.7663 -1.216 -3.72768 0
M  V30 212 H 20.2563 -0.32675 -4.1632 0
M  V30 213 N 20.6934 1.19889 -1.02296 0
M  V30 214 C 21.9704 1.85148 -0.630832 0
M  V30 215 C 22.3504 1.91385 0.890782 0
M  V30 216 O 21.6984 1.42642 1.78509 0
M  V30 217 C 21.9084 3.24442 -1.28602 0
M  V30 218 C 23.2564 4.00663 -1.4055 0
M  V30 219 O 24.2804 3.33818 -1.24273 0
M  V30 220 O 23.1394 5.20387 -1.66913 0
M  V30 221 H 20.2334 0.797613 -0.218499 0
M  V30 222 H 22.7794 1.27427 -1.12074 0
M  V30 223 H 21.5514 3.14704 -2.32545 0
M  V30 224 H 21.1744 3.89802 -0.7836 0
M  V30 225 N 22.1715 0.800033 1.35784 0
M  V30 226 C 23.5875 0.482977 1.52117 0
M  V30 227 C 23.7875 -0.996948 1.75109 0
M  V30 228 O 22.8435 -1.78216 1.78872 0
M  V30 229 C 24.1565 1.32264 2.70049 0
M  V30 230 C 25.7045 1.31742 2.83924 0
M  V30 231 C 26.1795 2.14106 4.04874 0
M  V30 232 N 27.6705 2.11607 4.12039 0
M  V30 233 C 28.4055 2.72099 5.04727 0
M  V30 234 N 27.9015 3.41492 6.02789 0
M  V30 235 N 29.6945 2.61776 4.97423 0
M  V30 236 H 21.8455 1.75856 1.19115 0
M  V30 237 H 24.1085 0.748122 0.582252 0
M  V30 238 H 23.8145 2.37261 2.59616 0
M  V30 239 H 23.6885 0.971303 3.6448 0
M  V30 240 H 26.0755 0.275333 2.93813 0
M  V30 241 H 26.1565 1.70859 1.9037 0
M  V30 242 H 25.8005 3.18351 3.95746 0
M  V30 243 H 25.7305 1.72353 4.97596 0
M  V30 244 H 28.2215 1.61112 3.41835 0
M  V30 245 H 28.5345 3.84953 6.70098 0
M  V30 246 H 26.8795 3.45596 6.02983 0
M  V30 247 H 30.0705 2.07157 4.19766 0
M  V30 248 H 30.2435 3.0921 5.69468 0
M  V30 249 N 23.6496 -1.47581 0.552962 0
M  V30 250 C 24.8896 -2.04379 0.0296245 0
M  V30 251 C 25.2536 -1.4185 -1.29393 0
M  V30 252 O 26.4546 -1.89669 -1.90471 0
M  V30 253 C 24.7256 -3.57339 -0.0661371 0
M  V30 254 S 26.2846 -4.35511 -0.536213 0
M  V30 255 H 23.1026 -0.710625 0.0230991 0
M  V30 256 H 25.7046 -1.81005 0.738734 0
M  V30 257 H 24.4086 -4.00374 0.901596 0
M  V30 258 H 23.9396 -3.85202 -0.798931 0
M  V30 259 H 25.9546 -4.6253 -1.79668 0
M  V30 260 N 25.1277 -0.289203 -1.54924 0
M  V30 261 C 26.0577 0.58549 -2.2604 0
M  V30 262 C 27.0387 1.14753 -1.25562 0
M  V30 263 O 28.2237 1.17906 -1.54311 0
M  V30 264 C 25.3537 1.76305 -2.99222 0
M  V30 265 C 24.3077 1.33191 -4.06748 0
M  V30 266 C 23.6337 2.5937 -4.6758 0
M  V30 267 C 24.9337 0.471775 -5.20165 0
M  V30 268 H 26.6277 -0.00763532 -2.99399 0
M  V30 269 H 24.1737 -0.00511229 -1.43999 0
M  V30 270 H 26.1267 2.38097 -3.47689 0
M  V30 271 H 24.8507 2.38223 -2.23422 0
M  V30 272 H 23.5097 0.737121 -3.59113 0
M  V30 273 H 23.1577 3.19576 -3.88433 0
M  V30 274 H 22.8577 2.31228 -5.40192 0
M  V30 275 H 24.3817 3.21985 -5.18804 0
M  V30 276 H 25.7957 0.995056 -5.64599 0
M  V30 277 H 24.1927 0.284639 -5.99425 0
M  V30 278 H 25.2627 -0.506041 -4.82252 0
M  V30 279 N 26.6058 1.57591 -0.0167156 0
M  V30 280 C 27.8548 1.90461 0.663877 0
M  V30 281 C 28.1678 0.893515 1.73999 0
M  V30 282 O 29.3738 1.11302 2.47637 0
M  V30 283 C 27.8298 3.38155 1.23204 0
M  V30 284 C 27.4378 4.47597 0.189866 0
M  V30 285 C 29.1818 3.80111 1.88986 0
M  V30 286 C 27.0888 5.86379 0.768964 0
M  V30 287 H 26.0188 0.710738 0.251729 0
M  V30 288 H 28.6698 1.83326 -0.0799926 0
M  V30 289 H 27.0518 3.40182 2.02712 0
M  V30 290 H 28.2258 4.57112 -0.581846 0
M  V30 291 H 26.5408 4.14766 -0.368475 0
M  V30 292 H 29.1378 4.81145 2.33247 0
M  V30 293 H 29.4808 3.14511 2.72743 0
M  V30 294 H 30.0138 3.80454 1.16187 0
M  V30 295 H 26.7528 6.55493 -0.0301957 0
M  V30 296 H 26.2728 5.80496 1.50945 0
M  V30 297 H 27.9518 6.34563 1.26251 0
M  V30 298 N 28.0839 -0.256276 1.55502 0
M  V30 299 C 29.0319 -1.33694 1.90338 0
M  V30 300 C 30.0259 -1.50299 0.781441 0
M  V30 301 O 31.2319 -1.51885 0.965966 0
M  V30 302 H 27.6069 -0.447483 0.60437 0
M  V30 303 H 29.5779 -1.01574 2.8058 0
M  V30 304 C 28.3269 -2.68724 2.20642 0
M  V30 305 H 27.6499 -2.56743 3.06469 0
M  V30 306 H 29.0899 -3.43237 2.48926 0
M  V30 307 C 27.5489 -3.21101 1.01959 0
M  V30 308 O 28.0789 -4.0084 0.262762 0
M  V30 309 N 26.2849 -2.79003 0.812746 0
M  V30 310 H 25.8319 -2.14271 1.42989 0
M  V30 311 H 25.7899 -3.14393 0.0203076 0
M  V30 312 N 29.562 -1.4872 -0.521534 0
M  V30 313 C 30.973 -1.50607 -1.10337 0
M  V30 314 C 31.324 -0.280612 -1.94183 0
M  V30 315 O 30.449 0.611507 -2.0758 0
M  V30 316 C 31.044 -2.72903 -2.00772 0
M  V30 317 C 29.603 -2.77634 -2.54158 0
M  V30 318 C 28.75 -2.44241 -1.31307 0
M  V30 319 H 31.701 -1.55714 -0.306388 0
M  V30 320 H 31.722 -2.519 -2.85178 0
M  V30 321 H 31.234 -3.62077 -1.39721 0
M  V30 322 H 29.335 -1.92689 -3.18907 0
M  V30 323 H 29.448 -3.79283 -2.92714 0
M  V30 324 H 27.812 -1.95577 -1.63161 0
M  V30 325 H 28.595 -3.35666 -0.719943 0
M  V30 326 N 31.0401 0.771051 -1.3745 0
M  V30 327 C 31.9501 1.91538 -1.35464 0
M  V30 328 C 32.9661 1.72134 -0.254123 0
M  V30 329 O 34.1421 1.95358 -0.489626 0
M  V30 330 C 31.2071 3.26671 -1.16134 0
M  V30 331 C 30.2681 3.58723 -2.35831 0
M  V30 332 C 29.5011 4.87409 -2.17413 0
M  V30 333 O 29.7241 5.58506 -1.15876 0
M  V30 334 O 28.6581 5.18539 -3.05615 0
M  V30 335 H 32.4841 1.96165 -2.31847 0
M  V30 336 H 30.0691 0.9139 -1.18187 0
M  V30 337 H 31.9511 4.07499 -1.07345 0
M  V30 338 H 30.6261 3.22894 -0.228251 0
M  V30 339 H 29.5331 2.78127 -2.50192 0
M  V30 340 H 30.8661 3.67243 -3.27709 0
M  V30 341 N 32.5182 1.22032 0.997298 0
M  V30 342 C 33.4502 0.944263 2.08845 0
M  V30 343 C 34.4632 -0.0754663 1.62625 0
M  V30 344 O 35.6522 0.157994 1.77799 0
M  V30 345 C 32.7522 0.397723 3.36558 0
M  V30 346 C 31.9252 1.47362 4.11829 0
M  V30 347 C 30.9842 0.934951 5.17827 0
M  V30 348 O 30.0102 1.62016 5.45655 0
M  V30 349 N 31.2122 -0.245895 5.79979 0
M  V30 350 H 33.9772 1.88363 2.33109 0
M  V30 351 H 31.5382 1.12661 1.16272 0
M  V30 352 H 33.5302 0.0227771 4.04694 0
M  V30 353 H 32.1002 -0.446646 3.09393 0
M  V30 354 H 31.3202 2.02208 3.38386 0
M  V30 355 H 32.6082 2.19764 4.58891 0
M  V30 356 H 32.0062 -0.819475 5.59733 0
M  V30 357 H 30.5632 -0.562272 6.4937 0
M  V30 358 N 33.9963 -1.19345 1.0293 0
M  V30 359 C 35.2263 -1.92717 0.744563 0
M  V30 360 C 35.6343 -1.75751 -0.700579 0
M  V30 361 O 34.9773 -1.07703 -1.48815 0
M  V30 362 C 35.0393 -3.44828 1.01657 0
M  V30 363 C 34.7033 -3.85564 2.45335 0
M  V30 364 C 35.7003 -3.90286 3.43472 0
M  V30 365 C 33.3853 -4.1719 2.79746 0
M  V30 366 C 35.3793 -4.26065 4.74075 0
M  V30 367 C 33.0663 -4.52642 4.10559 0
M  V30 368 C 34.0643 -4.57054 5.07534 0
M  V30 369 O 33.7523 -4.91685 6.36004 0
M  V30 370 H 33.4843 -0.618977 0.271742 0
M  V30 371 H 36.0383 -1.52415 1.37691 0
M  V30 372 H 34.2683 -3.85314 0.327084 0
M  V30 373 H 35.9573 -3.99437 0.721427 0
M  V30 374 H 36.7233 -3.66002 3.18225 0
M  V30 375 H 32.6023 -4.1294 2.04943 0
M  V30 376 H 36.1463 -4.29423 5.49765 0
M  V30 377 H 32.0433 -4.76383 4.35579 0
M  V30 378 H 32.8113 -5.09631 6.40483 0
M  V30 379 N 35.4744 -0.807222 -1.35358 0
M  V30 380 C 36.3844 -0.219594 -2.3357 0
M  V30 381 C 37.4004 0.637734 -1.61892 0
M  V30 382 O 38.5764 0.549336 -1.93763 0
M  V30 383 C 35.6414 0.62158 -3.41083 0
M  V30 384 C 34.7024 -0.256315 -4.28534 0
M  V30 385 C 33.9354 0.544807 -5.30912 0
M  V30 386 O 34.1584 1.77944 -5.41934 0
M  V30 387 O 33.0924 -0.0646478 -6.01865 0
M  V30 388 H 36.9184 -1.03208 -2.85625 0
M  V30 389 H 34.5034 -0.569025 -1.38139 0
M  V30 390 H 36.3854 1.10067 -4.06772 0
M  V30 391 H 35.0604 1.41165 -2.91297 0
M  V30 392 H 33.9674 -0.782559 -3.65823 0
M  V30 393 H 35.3004 -1.01034 -4.81719 0
M  V30 394 N 36.9525 1.47285 -0.560781 0
M  V30 395 C 38.1805 2.06855 -0.0430262 0
M  V30 396 C 38.5955 1.41291 1.25229 0
M  V30 397 O 37.9525 0.510648 1.7521 0
M  V30 398 C 38.0035 3.61178 0.152518 0
M  V30 399 O 37.7245 4.24285 -1.0915 0
M  V30 400 C 39.2255 4.37624 0.707145 0
M  V30 401 H 36.4455 0.669319 -0.0474652 0
M  V30 402 H 38.9895 1.89237 -0.77521 0
M  V30 403 H 37.1445 3.78298 0.834843 0
M  V30 404 H 37.5585 5.16868 -0.891482 0
M  V30 405 H 39.0325 5.46271 0.793244 0
M  V30 406 H 39.5095 4.04152 1.71923 0
M  V30 407 H 40.1155 4.25257 0.0604027 0
M  V30 408 N 38.4306 0.297415 1.54768 0
M  V30 409 C 39.3776 -0.580276 2.23386 0
M  V30 410 C 40.3476 -1.13238 1.21517 0
M  V30 411 O 41.5326 -1.17757 1.50126 0
M  V30 412 C 38.6726 -1.74801 2.97555 0
M  V30 413 C 37.7856 -1.22764 4.1419 0
M  V30 414 C 36.9206 -2.35895 4.75949 0
M  V30 415 C 35.9596 -1.80974 5.84735 0
M  V30 416 N 35.0966 -2.87664 6.40464 0
M  V30 417 H 39.9366 0.0114833 2.97998 0
M  V30 418 H 37.4736 0.0174361 1.4709 0
M  V30 419 H 39.4316 -2.43475 3.38786 0
M  V30 420 H 38.0616 -2.31145 2.25326 0
M  V30 421 H 37.1136 -0.433271 3.77924 0
M  V30 422 H 38.4256 -0.785551 4.92575 0
M  V30 423 H 37.5796 -3.12523 5.20014 0
M  V30 424 H 36.3186 -2.83429 3.96887 0
M  V30 425 H 35.3236 -1.02834 5.40097 0
M  V30 426 H 36.5486 -1.34348 6.65678 0
M  V30 427 H 34.4946 -3.34538 5.64287 0
M  V30 428 H 34.4116 -2.4794 7.14186 0
M  V30 429 H 35.6796 -3.642 6.89187 0
M  V30 430 N 39.9087 -1.5758 0.0250728 0
M  V30 431 C 41.1387 -1.95646 -0.663783 0
M  V30 432 C 41.5467 -0.899935 -1.66427 0
M  V30 433 O 40.8897 0.127191 -1.83259 0
M  V30 434 C 40.9517 -3.29835 -1.43 0
M  V30 435 C 40.6157 -4.53197 -0.588305 0
M  V30 436 C 41.6127 -5.19726 0.13469 0
M  V30 437 C 39.2977 -4.99529 -0.526897 0
M  V30 438 C 41.2917 -6.30902 0.90781 0
M  V30 439 C 38.9787 -6.10589 0.24993 0
M  V30 440 C 39.9767 -6.76134 0.965994 0
M  V30 441 O 39.6647 -7.85062 1.7301 0
M  V30 442 H 39.3967 -0.649282 -0.188174 0
M  V30 443 H 41.9507 -2.05245 0.0799006 0
M  V30 444 H 40.1807 -3.16716 -2.21873 0
M  V30 445 H 41.8697 -3.52833 -2.00658 0
M  V30 446 H 42.6357 -4.84904 0.0965562 0
M  V30 447 H 38.5147 -4.48319 -1.07381 0
M  V30 448 H 42.0587 -6.81995 1.46724 0
M  V30 449 H 37.9557 -6.44849 0.289795 0
M  V30 450 H 38.7237 -8.01708 1.64944 0
M  V30 451 N 41.3868 0.248026 -1.55636 0
M  V30 452 C 42.3338 1.30707 -1.90222 0
M  V30 453 C 43.3038 1.47881 -0.756332 0
M  V30 454 O 44.4888 1.61883 -1.00988 0
M  V30 455 C 41.6288 2.65769 -2.20138 0
M  V30 456 C 40.7418 2.56612 -3.47526 0
M  V30 457 C 39.8768 3.8402 -3.67017 0
M  V30 458 C 38.9158 3.69476 -4.8801 0
M  V30 459 N 38.0528 4.88774 -5.04029 0
M  V30 460 H 42.8928 1.00512 -2.80538 0
M  V30 461 H 40.4298 0.485055 -1.38873 0
M  V30 462 H 42.3878 3.44386 -2.35487 0
M  V30 463 H 41.0178 2.94115 -1.33027 0
M  V30 464 H 40.0698 1.69571 -3.40514 0
M  V30 465 H 41.3818 2.41774 -4.36287 0
M  V30 466 H 40.5358 4.7108 -3.8232 0
M  V30 467 H 39.2748 4.01754 -2.76487 0
M  V30 468 H 38.2798 2.80799 -4.72686 0
M  V30 469 H 39.5048 3.53238 -5.8 0
M  V30 470 H 37.4508 5.0687 -4.16435 0
M  V30 471 H 37.3678 4.76562 -5.86877 0
M  V30 472 H 38.6358 5.77335 -5.23741 0
M  V30 473 N 42.8649 1.48995 0.513639 0
M  V30 474 C 43.7969 1.60836 1.63293 0
M  V30 475 C 44.8099 0.491701 1.55197 0
M  V30 476 O 45.9989 0.763238 1.6136 0
M  V30 477 C 43.0989 1.53731 3.02027 0
M  V30 478 C 42.2719 2.80715 3.35437 0
M  V30 479 C 41.3309 2.66837 4.53525 0
M  V30 480 O 40.3569 3.40753 4.55934 0
M  V30 481 N 41.5589 1.77539 5.52684 0
M  V30 482 H 44.3239 2.57366 1.53566 0
M  V30 483 H 41.8849 1.45925 0.701259 0
M  V30 484 H 43.8769 1.42118 3.78926 0
M  V30 485 H 42.4469 0.651092 3.05744 0
M  V30 486 H 41.6669 3.06772 2.47557 0
M  V30 487 H 42.9549 3.64927 3.54551 0
M  V30 488 H 42.3529 1.16719 5.53528 0
M  V30 489 H 40.9099 1.71856 6.28736 0
M  V30 490 N 44.343 -0.763751 1.37857 0
M  V30 491 C 45.568 -1.55805 1.36893 0
M  V30 492 C 45.993 -1.88054 -0.0416135 0
M  V30 493 O 45.351 -1.49825 -1.02089 0
M  V30 494 C 45.399 -2.84012 2.22192 0
M  V30 495 O 44.503 -3.78732 1.63204 0
M  V30 496 H 43.844 -0.471638 0.46739 0
M  V30 497 H 46.374 -0.944657 1.81487 0
M  V30 498 H 46.384 -3.33037 2.35691 0
M  V30 499 H 45.059 -2.59869 3.24716 0
M  V30 500 H 43.636 -3.37402 1.58791 0
M  V30 501 N 45.8211 -1.22559 -0.990812 0
M  V30 502 C 47.0701 -1.04553 -1.72486 0
M  V30 503 C 47.3831 0.419349 -1.91052 0
M  V30 504 O 48.5891 0.719121 -2.61803 0
M  V30 505 C 47.0451 -1.82231 -3.10355 0
M  V30 506 C 46.6531 -3.32981 -2.99713 0
M  V30 507 C 48.3971 -1.7268 -3.87791 0
M  V30 508 C 46.3041 -4.03091 -4.32748 0
M  V30 509 H 45.2341 -0.387614 -0.646739 0
M  V30 510 H 47.8851 -1.46429 -1.10593 0
M  V30 511 H 46.2671 -1.33155 -3.72942 0
M  V30 512 H 47.4411 -3.89466 -2.46278 0
M  V30 513 H 45.7561 -3.43231 -2.35758 0
M  V30 514 H 48.3531 -2.22381 -4.86262 0
M  V30 515 H 48.6961 -0.687607 -4.10582 0
M  V30 516 H 49.2291 -2.1931 -3.31885 0
M  V30 517 H 45.9681 -5.07273 -4.15156 0
M  V30 518 H 45.4881 -3.51394 -4.86089 0
M  V30 519 H 47.1671 -4.08804 -5.01486 0
M  V30 520 N 47.2992 1.18797 -1.03562 0
M  V30 521 C 48.2472 2.24297 -0.615905 0
M  V30 522 C 49.2412 1.65643 0.354808 0
M  V30 523 O 50.4472 1.78618 0.22265 0
M  V30 524 H 46.8222 0.729909 -0.180934 0
M  V30 525 H 48.7932 2.5701 -1.5162 0
M  V30 526 C 47.5422 3.47698 0.0104735 0
M  V30 527 H 46.8652 3.93125 -0.727509 0
M  V30 528 H 48.3052 4.23159 0.266995 0
M  V30 529 C 46.7642 3.12489 1.25905 0
M  V30 530 O 47.2942 3.25761 2.35038 0
M  V30 531 N 45.5002 2.6686 1.15039 0
M  V30 532 H 45.0472 2.56261 0.262328 0
M  V30 533 H 45.0052 2.43674 1.98672 0
M  V30 534 N 48.7773 0.814389 1.34928 0
M  V30 535 C 50.0543 0.321363 1.92942 0
M  V30 536 C 50.4343 -1.19014 1.74353 0
M  V30 537 O 49.7823 -1.99328 1.11716 0
M  V30 538 C 49.9923 0.741323 3.41036 0
M  V30 539 C 51.3403 0.735266 4.18185 0
M  V30 540 O 52.3643 0.68336 3.49584 0
M  V30 541 O 51.2233 0.800703 5.40602 0
M  V30 542 H 48.3173 0.0858893 0.822528 0
M  V30 543 H 50.8633 0.898609 1.43955 0
M  V30 544 H 49.6353 1.78276 3.4833 0
M  V30 545 H 49.2583 0.139307 3.97356 0
M  V30 546 N 50.2554 -1.46986 0.568584 0
M  V30 547 C 51.6664 -1.86188 0.138219 0
M  V30 548 C 52.0174 -1.47388 -1.29504 0
M  V30 549 O 51.1424 -0.88219 -1.97602 0
M  V30 550 C 51.7374 -3.3792 0.244065 0
M  V30 551 C 50.2964 -3.76171 -0.131335 0
M  V30 552 C 49.4434 -2.71027 0.586465 0
M  V30 553 H 52.3944 -1.38342 0.777645 0
M  V30 554 H 52.4154 -3.76729 -0.534351 0
M  V30 555 H 51.9274 -3.66128 1.28731 0
M  V30 556 H 50.0284 -3.5358 -1.17526 0
M  V30 557 H 50.1414 -4.78523 0.235146 0
M  V30 558 H 48.5054 -2.54684 0.0282722 0
M  V30 559 H 49.2884 -3.02077 1.63109 0
M  V30 560 N 51.7335 -0.305618 -1.54608 0
M  V30 561 C 53.0105 0.355652 -1.92339 0
M  V30 562 C 53.3905 1.71324 -1.23335 0
M  V30 563 O 52.7385 2.25473 -0.370702 0
M  V30 564 C 52.9485 0.46572 -3.45879 0
M  V30 565 C 54.2965 0.734426 -4.182 0
M  V30 566 O 55.3205 0.54935 -3.51938 0
M  V30 567 O 54.1795 1.09024 -5.35515 0
M  V30 568 H 51.2735 0.199666 -0.802535 0
M  V30 569 H 53.8195 -0.354017 -1.65966 0
M  V30 570 H 52.5915 -0.488461 -3.88239 0
M  V30 571 H 52.2145 1.22367 -3.78301 0
M  V30 572 N 53.2116 1.57565 -0.0334293 0
M  V30 573 C 54.4396 1.9628 0.654347 0
M  V30 574 C 54.8546 0.910138 1.65414 0
M  V30 575 O 54.2116 -0.107595 1.82183 0
M  V30 576 C 54.2626 3.35067 1.35693 0
M  V30 577 O 53.9836 4.36296 0.397191 0
M  V30 578 C 55.4846 3.88439 2.13613 0
M  V30 579 H 52.7046 0.646369 0.180132 0
M  V30 580 H 55.2486 2.04282 -0.0944721 0
M  V30 581 H 53.4036 3.2827 2.05712 0
M  V30 582 H 53.8176 5.1678 0.896597 0
M  V30 583 H 55.2916 4.8788 2.58219 0
M  V30 584 H 55.7686 3.22914 2.97696 0
M  V30 585 H 56.3746 3.98516 1.48543 0
M  V30 586 N 54.6897 -0.239769 1.55765 0
M  V30 587 C 55.9367 -0.966801 1.7793 0
M  V30 588 C 56.2647 -1.85046 0.599015 0
M  V30 589 O 55.5197 -1.91197 -0.417395 0
M  V30 590 C 55.8187 -1.852 3.05672 0
M  V30 591 C 55.4847 -1.1231 4.36689 0
M  V30 592 C 54.1467 -0.921689 4.72291 0
M  V30 593 C 56.4987 -0.607019 5.17653 0
M  V30 594 C 53.8267 -0.191996 5.86386 0
M  V30 595 C 56.1787 0.109241 6.32506 0
M  V30 596 C 54.8427 0.322073 6.66723 0
M  V30 597 H 54.1127 -0.353778 0.651093 0
M  V30 598 H 56.7597 -0.23634 1.90036 0
M  V30 599 H 55.0647 -2.64975 2.8861 0
M  V30 600 H 56.7617 -2.41635 3.20021 0
M  V30 601 H 53.3517 -1.29004 4.08725 0
M  V30 602 H 57.5357 -0.750153 4.90598 0
M  V30 603 H 52.7917 -0.0166949 6.11398 0
M  V30 604 H 56.9657 0.516737 6.9448 0
M  V30 605 H 54.5927 0.88944 7.54979 0
M  V30 606 N 56.1678 -1.49265 -0.50573 0
M  V30 607 C 57.4138 -1.59723 -1.25937 0
M  V30 608 C 57.7688 -0.278236 -1.90378 0
M  V30 609 O 57.0618 0.72113 -1.77511 0
M  V30 610 C 57.2558 -2.69008 -2.35308 0
M  V30 611 C 57.0848 -4.11405 -1.81592 0
M  V30 612 C 55.8548 -4.78252 -1.63105 0
M  V30 613 C 58.0528 -4.96792 -1.33048 0
M  V30 614 N 56.0348 -6.0498 -1.04269 0
M  V30 615 C 57.4058 -6.13962 -0.863168 0
M  V30 616 C 59.4608 -4.82828 -1.21577 0
M  V30 617 C 58.1638 -7.18705 -0.292489 0
M  V30 618 C 60.1898 -5.87716 -0.65907 0
M  V30 619 C 59.5518 -7.0411 -0.201954 0
M  V30 620 H 55.6508 -0.638864 -0.450973 0
M  V30 621 H 58.2348 -1.86251 -0.567326 0
M  V30 622 H 56.4058 -2.4426 -3.01979 0
M  V30 623 H 58.1378 -2.69013 -3.02348 0
M  V30 624 H 54.8928 -4.34974 -1.87336 0
M  V30 625 H 55.3168 -6.72631 -0.767919 0
M  V30 626 H 59.9588 -3.93159 -1.55518 0
M  V30 627 H 57.6768 -8.08078 0.0591987 0
M  V30 628 H 61.2628 -5.7897 -0.573156 0
M  V30 629 H 60.1428 -7.83885 0.222101 0
M  V30 630 N 57.6459 0.756429 -1.3826 0
M  V30 631 C 58.8939 1.51248 -1.34047 0
M  V30 632 C 59.2149 1.94875 0.0698372 0
M  V30 633 O 58.4849 1.67436 1.01696 0
M  V30 634 H 57.0649 0.561018 -0.493222 0
M  V30 635 H 59.7269 0.899347 -1.7291 0
M  V30 636 H 58.8229 2.40472 -1.98947 0
M  V30 637 N 59.124 1.23083 0.984299 0
M  V30 638 C 60.034 1.02515 2.11016 0
M  V30 639 C 61.05 -0.0291702 1.73976 0
M  V30 640 O 62.226 0.165434 2.00719 0
M  V30 641 C 59.291 0.614673 3.41208 0
M  V30 642 C 58.352 1.74359 3.92297 0
M  V30 643 C 57.585 1.35261 5.16275 0
M  V30 644 O 57.808 0.235136 5.69915 0
M  V30 645 O 56.742 2.17227 5.61334 0
M  V30 646 H 60.568 1.96862 2.31255 0
M  V30 647 H 58.153 1.01753 1.09392 0
M  V30 648 H 60.035 0.396518 4.1953 0
M  V30 649 H 58.71 -0.299851 3.22308 0
M  V30 650 H 57.617 2.01635 3.1511 0
M  V30 651 H 58.95 2.63629 4.15645 0
M  V30 652 N 60.6021 -1.18246 1.0419 0
M  V30 653 C 61.5341 -2.2142 0.592088 0
M  V30 654 C 62.5471 -1.59233 -0.338909 0
M  V30 655 O 63.7361 -1.78002 -0.133231 0
M  V30 656 C 60.8361 -3.38546 -0.154854 0
M  V30 657 C 60.0091 -4.3031 0.784328 0
M  V30 658 C 59.0681 -5.26138 0.0804583 0
M  V30 659 O 58.0941 -5.64738 0.711292 0
M  V30 660 N 59.2961 -5.68261 -1.18574 0
M  V30 661 H 62.0611 -2.60636 1.47949 0
M  V30 662 H 59.6221 -1.33044 0.922544 0
M  V30 663 H 61.6141 -3.99678 -0.635606 0
M  V30 664 H 60.1841 -2.98012 -0.943811 0
M  V30 665 H 59.4041 -3.66764 1.44491 0
M  V30 666 H 60.6921 -4.8852 1.42218 0
M  V30 667 H 60.0901 -5.38957 -1.71876 0
M  V30 668 H 58.6471 -6.31584 -1.61074 0
M  V30 669 N 62.0802 -0.821533 -1.34494 0
M  V30 670 C 63.3282 -0.408139 -1.97936 0
M  V30 671 C 63.6492 1.03193 -1.65457 0
M  V30 672 O 62.9192 1.71622 -0.944595 0
M  V30 673 H 61.4992 -0.147928 -0.732206 0
M  V30 674 H 64.1612 -1.05067 -1.64155 0
M  V30 675 H 63.2572 -0.52601 -3.07635 0
M  V30 676 N 63.5583 1.46682 -0.576371 0
M  V30 677 C 64.5053 2.30241 0.160499 0
M  V30 678 C 65.4753 1.40233 0.890162 0
M  V30 679 O 66.6603 1.69186 0.882084 0
M  V30 680 C 63.8003 3.24578 1.1723 0
M  V30 681 C 62.9133 4.29684 0.446736 0
M  V30 682 C 62.0483 5.11154 1.44551 0
M  V30 683 C 61.0873 6.08015 0.70599 0
M  V30 684 N 60.2243 6.82376 1.65251 0
M  V30 685 H 65.0643 2.92727 -0.558127 0
M  V30 686 H 62.6013 1.44272 -0.287056 0
M  V30 687 H 64.5593 3.77711 1.77172 0
M  V30 688 H 63.1893 2.63916 1.85872 0
M  V30 689 H 62.2413 3.79458 -0.267594 0
M  V30 690 H 63.5533 4.98626 -0.131686 0
M  V30 691 H 62.7073 5.68533 2.11791 0
M  V30 692 H 61.4463 4.42158 2.05786 0
M  V30 693 H 60.4513 5.49796 0.0197725 0
M  V30 694 H 61.6763 6.79028 0.09912 0
M  V30 695 H 59.6223 6.16094 2.25308 0
M  V30 696 H 59.5393 7.47556 1.12673 0
M  V30 697 H 60.8073 7.44316 2.31546 0
M  V30 698 N 65.0364 0.313813 1.54444 0
M  V30 699 C 66.2854 -0.292519 1.99568 0
M  V30 700 C 66.5984 -1.54011 1.20582 0
M  V30 701 O 67.8044 -2.22183 1.56035 0
M  V30 702 C 66.2604 -0.571752 3.55329 0
M  V30 703 C 65.8684 0.658229 4.43138 0
M  V30 704 C 67.6124 -1.13857 4.08946 0
M  V30 705 C 65.5194 0.351439 5.90355 0
M  V30 706 H 64.4494 -0.113079 0.745472 0
M  V30 707 H 67.1004 0.424518 1.78522 0
M  V30 708 H 65.4824 -1.34872 3.72325 0
M  V30 709 H 66.6564 1.43403 4.37918 0
M  V30 710 H 64.9714 1.14458 4.0036 0
M  V30 711 H 67.5684 -1.38257 5.16516 0
M  V30 712 H 67.9114 -2.08489 3.6033 0
M  V30 713 H 68.4444 -0.423015 3.95544 0
M  V30 714 H 65.1834 1.26667 6.43145 0
M  V30 715 H 64.7034 -0.386842 5.98551 0
M  V30 716 H 66.3824 -0.0423134 6.46986 0
M  V30 717 N 66.5145 -1.57545 0.0417849 0
M  V30 718 C 67.4445 -2.14009 -0.933929 0
M  V30 719 C 68.4255 -1.05938 -1.33083 0
M  V30 720 O 69.6105 -1.33833 -1.40721 0
M  V30 721 C 66.7405 -2.67747 -2.21199 0
M  V30 722 C 65.6945 -3.80718 -1.95544 0
M  V30 723 C 65.0205 -4.20935 -3.29724 0
M  V30 724 C 66.3205 -5.06258 -1.28452 0
M  V30 725 H 68.0145 -2.95788 -0.463645 0
M  V30 726 H 65.5605 -1.42285 -0.221573 0
M  V30 727 H 67.5135 -3.05886 -2.89848 0
M  V30 728 H 66.2375 -1.83147 -2.70416 0
M  V30 729 H 64.8965 -3.43037 -1.2931 0
M  V30 730 H 64.5445 -3.33298 -3.76724 0
M  V30 731 H 64.2445 -4.9707 -3.13361 0
M  V30 732 H 65.7685 -4.61666 -3.9962 0
M  V30 733 H 67.1825 -5.41903 -1.8712 0
M  V30 734 H 65.5795 -5.87475 -1.22445 0
M  V30 735 H 66.6495 -4.84207 -0.259219 0
M  V30 736 N 67.9926 0.231505 -1.5589 0
M  V30 737 C 69.2696 0.981096 -1.69215 0
M  V30 738 C 69.6496 2.02799 -0.586164 0
M  V30 739 O 68.9976 2.24823 0.408253 0
M  V30 740 C 69.2076 1.60054 -3.10135 0
M  V30 741 C 70.5556 2.09658 -3.69227 0
M  V30 742 O 71.5796 1.69967 -3.13033 0
M  V30 743 O 70.4386 2.8258 -4.67772 0
M  V30 744 H 67.5326 0.457653 -0.688827 0
M  V30 745 H 70.0786 0.224073 -1.68214 0
M  V30 746 H 68.8506 0.844105 -3.82087 0
M  V30 747 H 68.4736 2.42336 -3.15212 0
M  V30 748 N 69.4707 1.49531 0.497807 0
M  V30 749 C 70.7167 1.60388 1.25089 0
M  V30 750 C 71.0717 0.288328 1.90227 0
M  V30 751 O 70.3647 -0.711706 1.77891 0
M  V30 752 C 70.5587 2.70252 2.33878 0
M  V30 753 C 70.3877 4.12363 1.79408 0
M  V30 754 C 69.1577 4.7911 1.60566 0
M  V30 755 C 71.3557 4.97491 1.30412 0
M  V30 756 N 69.3377 6.05525 1.01059 0
M  V30 757 C 70.7087 6.14411 0.830595 0
M  V30 758 C 72.7637 4.83466 1.19015 0
M  V30 759 C 71.4667 7.1885 0.254371 0
M  V30 760 C 73.4927 5.88057 0.627892 0
M  V30 761 C 72.8547 7.04208 0.16461 0
M  V30 762 H 68.9537 0.641246 0.447579 0
M  V30 763 H 71.5377 1.86549 0.557441 0
M  V30 764 H 69.7087 2.45858 3.0068 0
M  V30 765 H 71.4407 2.70613 3.00917 0
M  V30 766 H 68.1957 4.35961 1.85026 0
M  V30 767 H 68.6197 6.73028 0.732236 0
M  V30 768 H 73.2617 3.93978 1.53431 0
M  V30 769 H 70.9797 8.08036 -0.102052 0
M  V30 770 H 74.5657 5.79266 0.542444 0
M  V30 771 H 73.4457 7.83757 -0.263669 0
M  V30 772 N 70.9488 -0.749086 1.3866 0
M  V30 773 C 72.1978 -1.50371 1.3443 0
M  V30 774 C 72.5108 -1.95503 -0.0616397 0
M  V30 775 O 73.7168 -2.70554 -0.226489 0
M  V30 776 C 72.1728 -2.71644 2.36088 0
M  V30 777 C 71.7808 -2.3352 3.82325 0
M  V30 778 C 73.5248 -3.49518 2.40909 0
M  V30 779 C 71.4318 -3.51431 4.75658 0
M  V30 780 H 70.3618 -0.564628 0.499712 0
M  V30 781 H 73.0128 -0.818449 1.64237 0
M  V30 782 H 71.3948 -3.42175 1.9933 0
M  V30 783 H 72.5688 -1.70627 4.28046 0
M  V30 784 H 70.8838 -1.6877 3.80665 0
M  V30 785 H 73.4808 -4.37197 3.07836 0
M  V30 786 H 73.8238 -3.90992 1.42937 0
M  V30 787 H 74.3568 -2.86005 2.76489 0
M  V30 788 H 71.0958 -3.15019 5.74842 0
M  V30 789 H 70.6158 -4.13352 4.34627 0
M  V30 790 H 72.2948 -4.17953 4.93887 0
M  V30 791 N 72.4269 -1.23603 -0.977757 0
M  V30 792 C 73.6549 -1.09646 -1.75458 0
M  V30 793 C 74.0699 0.351859 -1.85492 0
M  V30 794 O 73.4269 1.24327 -1.336 0
M  V30 795 C 73.4779 -1.71895 -3.18016 0
M  V30 796 O 73.1989 -3.11063 -3.08498 0
M  V30 797 C 74.6999 -1.63415 -4.12081 0
M  V30 798 H 71.9199 -0.38359 -0.550545 0
M  V30 799 H 74.4639 -1.63507 -1.22824 0
M  V30 800 H 72.6189 -1.22061 -3.67668 0
M  V30 801 H 73.0329 -3.41305 -3.9826 0
M  V30 802 H 74.5069 -2.11669 -5.09804 0
M  V30 803 H 74.9839 -0.593462 -4.35172 0
M  V30 804 H 75.5899 -2.12628 -3.68334 0
M  V30 805 N 73.905 1.17692 -1.04816 0
M  V30 806 C 75.316 1.69501 -0.782698 0
M  V30 807 C 75.667 1.83456 0.695577 0
M  V30 808 O 74.792 1.51942 1.54086 0
M  V30 809 C 75.387 3.07874 -1.41419 0
M  V30 810 C 73.946 3.56864 -1.19686 0
M  V30 811 C 73.093 2.3322 -1.50012 0
M  V30 812 H 76.044 1.02262 -1.2136 0
M  V30 813 H 76.065 3.71528 -0.821428 0
M  V30 814 H 75.577 2.97685 -2.49009 0
M  V30 815 H 73.678 3.72337 -0.140043 0
M  V30 816 H 73.791 4.39851 -1.89916 0
M  V30 817 H 72.155 2.37501 -0.920071 0
M  V30 818 H 72.938 2.25644 -2.58727 0
M  V30 819 N 75.3831 0.828654 1.34056 0
M  V30 820 C 76.6131 0.431993 2.02033 0
M  V30 821 C 77.0211 -0.96844 1.62536 0
M  V30 822 O 76.3641 -1.6391 0.829408 0
M  V30 823 C 76.4261 0.461224 3.56529 0
M  V30 824 C 76.0901 1.81599 4.1937 0
M  V30 825 C 77.0871 2.7777 4.39477 0
M  V30 826 C 74.7721 2.10604 4.56017 0
M  V30 827 C 76.7661 4.01115 4.95364 0
M  V30 828 C 74.4531 3.34207 5.11614 0
M  V30 829 C 75.4511 4.2928 5.31232 0
M  V30 830 O 75.1391 5.50699 5.8565 0
M  V30 831 H 74.8711 0.170943 0.654029 0
M  V30 832 H 77.4251 1.11988 1.72185 0
M  V30 833 H 75.6551 -0.283388 3.8566 0
M  V30 834 H 77.3441 0.0838149 4.05813 0
M  V30 835 H 78.1101 2.56659 4.11523 0
M  V30 836 H 73.9891 1.37402 4.40047 0
M  V30 837 H 77.5331 4.75333 5.10592 0
M  V30 838 H 73.4301 3.55179 5.38997 0
M  V30 839 H 74.1981 5.52298 6.04077 0
M  V30 840 N 76.8612 -1.46375 0.584142 0
M  V30 841 C 77.7932 -2.28443 -0.186119 0
M  V30 842 C 78.8062 -1.38596 -0.854115 0
M  V30 843 O 79.9952 -1.63183 -0.723438 0
M  V30 844 C 77.0952 -3.13671 -1.28311 0
M  V30 845 C 76.2682 -4.31652 -0.706758 0
M  V30 846 C 75.3272 -4.98267 -1.69163 0
M  V30 847 O 74.3532 -5.55815 -1.22712 0
M  V30 848 N 75.5552 -4.95408 -3.02575 0
M  V30 849 H 78.3202 -2.9519 0.517986 0
M  V30 850 H 75.8812 -1.56303 0.42201 0
M  V30 851 H 77.8732 -3.55101 -1.94128 0
M  V30 852 H 76.4432 -2.48989 -1.89005 0
M  V30 853 H 75.6632 -3.93989 0.128908 0
M  V30 854 H 76.9512 -5.07906 -0.301506 0
M  V30 855 H 76.3492 -4.49902 -3.42936 0
M  V30 856 H 74.9062 -5.40774 -3.63877 0
M  V30 857 N 78.3393 -0.321999 -1.54275 0
M  V30 858 C 79.2863 0.544664 -2.24281 0
M  V30 859 C 80.2563 1.1129 -1.23303 0
M  V30 860 O 81.4413 1.15354 -1.51981 0
M  V30 861 C 78.5813 1.70045 -3.00298 0
M  V30 862 C 77.6943 1.16159 -4.1609 0
M  V30 863 C 76.8293 2.28293 -4.79641 0
M  V30 864 C 75.8683 1.71648 -5.8754 0
M  V30 865 N 75.0053 2.77438 -6.44959 0
M  V30 866 H 79.8453 -0.0588907 -2.97942 0
M  V30 867 H 77.3823 -0.0408345 -1.47043 0
M  V30 868 H 79.3403 2.38054 -3.42616 0
M  V30 869 H 77.9703 2.27531 -2.28975 0
M  V30 870 H 77.0223 0.373092 -3.78566 0
M  V30 871 H 78.3343 0.707087 -4.93763 0
M  V30 872 H 77.4883 3.0421 -5.2492 0
M  V30 873 H 76.2273 2.77079 -4.01346 0
M  V30 874 H 75.2323 0.942282 -5.41665 0
M  V30 875 H 76.4573 1.23741 -6.67731 0
M  V30 876 H 74.4033 3.25519 -5.69538 0
M  V30 877 H 74.3203 2.36547 -7.1804 0
M  V30 878 H 75.5883 3.53189 -6.94894 0
M  V30 879 N 79.8174 1.5752 -0.0501392 0
M  V30 880 C 81.0634 1.92936 0.624798 0
M  V30 881 C 81.3964 0.928685 1.70555 0
M  V30 882 O 80.6714 -0.0454779 1.94447 0
M  V30 883 C 80.9544 3.38737 1.22185 0
M  V30 884 C 80.8074 4.49552 0.149218 0
M  V30 885 C 82.1264 3.84913 2.13378 0
M  V30 886 H 79.2454 0.701604 0.225657 0
M  V30 887 H 81.8874 1.89671 -0.111693 0
M  V30 888 H 80.0374 3.4165 1.84953 0
M  V30 889 H 81.7094 4.58768 -0.482648 0
M  V30 890 H 79.9524 4.30638 -0.522841 0
M  V30 891 H 80.6234 5.48653 0.606966 0
M  V30 892 H 83.0994 3.8387 1.60572 0
M  V30 893 H 81.9754 4.87584 2.52097 0
M  V30 894 H 82.2364 3.21611 3.03346 0
M  V30 895 N 81.2955 -0.223234 1.56011 0
M  V30 896 C 82.2425 -1.27664 1.92277 0
M  V30 897 C 83.2125 -1.46659 0.779763 0
M  V30 898 O 84.3975 -1.60256 1.03551 0
M  V30 899 C 81.5375 -2.62234 2.24338 0
M  V30 900 C 80.6505 -2.51051 3.51564 0
M  V30 901 C 79.7855 -3.78133 3.7308 0
M  V30 902 C 78.8245 -3.61665 4.93827 0
M  V30 903 N 77.9615 -4.80693 5.11741 0
M  V30 904 H 82.8015 -0.960358 2.82101 0
M  V30 905 H 80.3385 -0.462901 1.39627 0
M  V30 906 H 82.2965 -3.40596 2.40936 0
M  V30 907 H 80.9265 -2.91961 1.3769 0
M  V30 908 H 79.9785 -1.64132 3.43169 0
M  V30 909 H 81.2905 -2.34803 4.40079 0
M  V30 910 H 80.4445 -4.64938 3.89766 0
M  V30 911 H 79.1835 -3.97304 2.82844 0
M  V30 912 H 78.1885 -2.73244 4.77093 0
M  V30 913 H 79.4135 -3.43966 5.85546 0
M  V30 914 H 77.3595 -5.00181 4.24446 0
M  V30 915 H 77.2765 -4.67165 5.94384 0
M  V30 916 H 78.5445 -5.6893 5.3286 0
M  V30 917 N 82.7736 -1.49793 -0.48987 0
M  V30 918 C 83.7216 -1.67783 -1.61095 0
M  V30 919 C 84.7156 -0.543683 -1.60438 0
M  V30 920 O 85.9216 -0.723647 -1.64813 0
M  V30 921 H 82.2966 -0.529255 -0.534222 0
M  V30 922 H 84.2676 -2.61861 -1.43078 0
M  V30 923 C 83.0166 -1.77191 -2.99164 0
M  V30 924 H 82.3396 -2.63841 -3.0038 0
M  V30 925 H 83.7796 -1.93809 -3.77113 0
M  V30 926 C 82.2386 -0.519203 -3.32875 0
M  V30 927 O 82.7686 0.350124 -4.00171 0
M  V30 928 N 80.9746 -0.378816 -2.8812 0
M  V30 929 H 80.5216 -1.08725 -2.33531 0
M  V30 930 H 80.4796 0.458239 -3.11043 0
M  V30 931 N 84.2517 0.741722 -1.39055 0
M  V30 932 C 85.4797 1.53098 -1.39171 0
M  V30 933 C 85.8947 1.88794 0.0155099 0
M  V30 934 O 85.2517 1.53626 0.985159 0
M  V30 935 C 85.3027 2.82274 -2.2584 0
M  V30 936 O 85.0237 2.48097 -3.61081 0
M  V30 937 C 86.5247 3.76343 -2.34266 0
M  V30 938 H 83.7447 0.473335 -0.4756 0
M  V30 939 H 86.2887 0.917045 -1.82785 0
M  V30 940 H 84.4437 3.40015 -1.85656 0
M  V30 941 H 84.8577 3.31029 -4.06842 0
M  V30 942 H 86.3317 4.63898 -2.9917 0
M  V30 943 H 86.8087 4.17619 -1.35982 0
M  V30 944 H 87.4147 3.24523 -2.74891 0
M  V30 945 N 85.7298 1.2412 0.971189 0
M  V30 946 C 86.9548 1.10667 1.75407 0
M  V30 947 C 87.3798 -0.337048 1.85056 0
M  V30 948 O 86.7378 -1.24396 1.31892 0
M  V30 949 C 86.7858 1.74726 3.15441 0
M  V30 950 O 85.8898 1.01566 3.99697 0
M  V30 951 H 85.2308 0.387341 0.539317 0
M  V30 952 H 87.7608 1.64358 1.2185 0
M  V30 953 H 87.7708 1.80341 3.6598 0
M  V30 954 H 86.4458 2.79773 3.07734 0
M  V30 955 H 85.0228 1.03713 3.58187 0
M  V30 956 N 87.2079 -1.17134 1.05439 0
M  V30 957 C 88.4549 -1.87456 0.765942 0
M  V30 958 C 88.7829 -1.81189 -0.707153 0
M  V30 959 O 88.0379 -1.21633 -1.5331 0
M  V30 960 C 88.3369 -3.36833 1.19491 0
M  V30 961 C 88.0029 -3.63301 2.67063 0
M  V30 962 C 86.6649 -3.70234 3.07376 0
M  V30 963 C 89.0169 -3.74575 3.62413 0
M  V30 964 C 86.3449 -3.85933 4.41896 0
M  V30 965 C 88.6969 -3.91793 4.9667 0
M  V30 966 C 87.3609 -3.96966 5.36633 0
M  V30 967 H 86.6309 -0.685948 0.280278 0
M  V30 968 H 89.2779 -1.38556 1.32192 0
M  V30 969 H 87.5829 -3.87807 0.557969 0
M  V30 970 H 89.2799 -3.89611 0.948893 0
M  V30 971 H 85.8699 -3.58532 2.34846 0
M  V30 972 H 90.0539 -3.68537 3.32406 0
M  V30 973 H 85.3099 -3.88187 4.72357 0
M  V30 974 H 89.4839 -3.99458 5.70444 0
M  V30 975 H 87.1109 -4.08883 6.40874 0
M  V30 976 N 88.686 -0.835752 -1.33615 0
M  V30 977 C 89.649 -0.272 -2.2758 0
M  V30 978 C 90.649 0.557487 -1.50827 0
M  V30 979 O 91.839 0.37173 -1.70188 0
M  V30 980 C 88.971 0.617173 -3.35267 0
M  V30 981 H 90.164 -1.10111 -2.78954 0
M  V30 982 H 87.717 -0.608594 -1.43965 0
M  V30 983 H 88.452 1.46884 -2.89129 0
M  V30 984 H 88.237 0.0237066 -3.92093 0
M  V30 985 H 89.727 1.005 -4.05326 0
M  V30 986 N 90.1641 1.46063 -0.591896 0
M  V30 987 C 91.5751 1.85944 -0.167822 0
M  V30 988 C 91.9261 1.49429 1.27143 0
M  V30 989 O 91.0511 0.913515 1.96173 0
M  V30 990 C 91.6461 3.37489 -0.297794 0
M  V30 991 C 90.2051 3.76332 0.0714732 0
M  V30 992 C 89.3521 2.7006 -0.629509 0
M  V30 993 H 92.3031 1.37087 -0.799555 0
M  V30 994 H 92.3241 3.77532 0.474349 0
M  V30 995 H 91.8361 3.64034 -1.3454 0
M  V30 996 H 89.9371 3.55405 1.11886 0
M  V30 997 H 90.0501 4.78088 -0.311245 0
M  V30 998 H 88.4141 2.54607 -0.0687867 0
M  V30 999 H 89.1971 2.99444 -1.67894 0
M  V30 1000 N 91.6422 0.330177 1.54103 0
M  V30 1001 C 92.8902 -0.269871 2.0029 0
M  V30 1002 C 93.2112 -1.52133 1.21986 0
M  V30 1003 O 92.4812 -1.93212 0.323438 0
M  V30 1004 H 91.0612 -0.10271 0.739905 0
M  V30 1005 H 93.7232 0.448249 1.89675 0
M  V30 1006 H 92.8192 -0.52166 3.07709 0
M  V30 1007 N 93.1203 -1.57491 0.0584922 0
M  V30 1008 C 94.0683 -2.13148 -0.931168 0
M  V30 1009 C 95.0623 -1.06507 -1.31729 0
M  V30 1010 O 96.2683 -1.24906 -1.29609 0
M  V30 1011 H 92.6433 -0.68137 -0.31818 0
M  V30 1012 H 94.6143 -2.95187 -0.436707 0
M  V30 1013 C 93.3633 -2.69732 -2.19408 0
M  V30 1014 H 92.6863 -3.51454 -1.90578 0
M  V30 1015 H 94.1263 -3.12287 -2.86798 0
M  V30 1016 C 92.5853 -1.63855 -2.94369 0
M  V30 1017 O 93.1153 -1.05565 -3.87581 0
M  V30 1018 N 91.3213 -1.35202 -2.57233 0
M  V30 1019 H 90.8683 -1.82791 -1.81508 0
M  V30 1020 H 90.8263 -0.645922 -3.07693 0
M  V30 1021 N 94.5984 0.214957 -1.56127 0
M  V30 1022 C 95.8444 0.939762 -1.79712 0
M  V30 1023 C 96.1774 1.83723 -0.629247 0
M  V30 1024 O 95.4524 1.90925 0.371197 0
M  V30 1025 C 95.7354 1.77306 -3.13424 0
M  V30 1026 C 95.5884 0.90164 -4.40671 0
M  V30 1027 C 96.9074 2.74956 -3.43638 0
M  V30 1028 H 94.0264 0.340214 -0.653776 0
M  V30 1029 H 96.6684 0.20824 -1.88855 0
M  V30 1030 H 94.8184 2.39673 -3.0576 0
M  V30 1031 H 96.4904 0.294206 -4.60361 0
M  V30 1032 H 94.7334 0.207368 -4.33304 0
M  V30 1033 H 95.4044 1.51923 -5.30682 0
M  V30 1034 H 97.8804 2.22724 -3.51473 0
M  V30 1035 H 96.7564 3.30358 -4.38355 0
M  V30 1036 H 97.0174 3.53023 -2.66134 0
M  V30 1037 N 96.0765 1.50051 0.48192 0
M  V30 1038 C 97.3015 1.64508 1.26301 0
M  V30 1039 C 97.7265 0.323851 1.85291 0
M  V30 1040 O 97.0845 -0.710969 1.66778 0
M  V30 1041 C 97.1325 2.7305 2.35533 0
M  V30 1042 O 96.2365 2.3355 3.39895 0
M  V30 1043 H 95.5775 0.549978 0.372048 0
M  V30 1044 H 98.1075 1.9636 0.574786 0
M  V30 1045 H 98.1175 2.95799 2.8101 0
M  V30 1046 H 96.7925 3.68946 1.91967 0
M  V30 1047 H 95.3695 2.21205 3.00204 0
M  V30 1048 N 97.5546 -0.734337 1.39446 0
M  V30 1049 C 98.8036 -1.48937 1.36017 0
M  V30 1050 C 99.1166 -1.95557 -0.0409005 0
M  V30 1051 O 100.323 -2.70779 -0.19778 0
M  V30 1052 C 98.7786 -2.69125 2.38955 0
M  V30 1053 C 98.3866 -2.29452 3.8478 0
M  V30 1054 C 100.131 -3.46944 2.44603 0
M  V30 1055 C 98.0376 -3.46366 4.79358 0
M  V30 1056 H 96.9676 -0.559296 0.505672 0
M  V30 1057 H 99.6186 -0.800983 1.65095 0
M  V30 1058 H 98.0006 -3.40041 2.02948 0
M  V30 1059 H 99.1746 -1.66077 4.29831 0
M  V30 1060 H 97.4896 -1.64723 3.82433 0
M  V30 1061 H 100.087 -4.33907 3.12456 0
M  V30 1062 H 100.43 -3.89454 1.47076 0
M  V30 1063 H 100.963 -2.83056 2.79507 0
M  V30 1064 H 97.7016 -3.08905 5.78151 0
M  V30 1065 H 97.2216 -4.08719 4.38986 0
M  V30 1066 H 98.9006 -4.12691 4.98292 0
M  V30 1067 N 99.0327 -1.24633 -0.964593 0
M  V30 1068 C 99.9797 -1.04144 -2.05968 0
M  V30 1069 C 100.95 0.046262 -1.66036 0
M  V30 1070 O 102.135 -0.108972 -1.90489 0
M  V30 1071 C 99.2747 -0.65563 -3.38815 0
M  V30 1072 C 98.3877 -1.81714 -3.91923 0
M  V30 1073 C 97.5227 -1.37662 -5.13052 0
M  V30 1074 C 96.5617 -2.50788 -5.58365 0
M  V30 1075 N 95.6987 -2.07582 -6.70712 0
M  V30 1076 H 100.539 -1.9787 -2.22827 0
M  V30 1077 H 98.0757 -0.9855 -1.09208 0
M  V30 1078 H 100.034 -0.412954 -4.15151 0
M  V30 1079 H 98.6637 0.244627 -3.21872 0
M  V30 1080 H 97.7157 -2.1734 -3.12198 0
M  V30 1081 H 99.0277 -2.66705 -4.21509 0
M  V30 1082 H 98.1817 -1.093 -5.96773 0
M  V30 1083 H 96.9207 -0.497293 -4.85158 0
M  V30 1084 H 95.9257 -2.79906 -4.73215 0
M  V30 1085 H 97.1507 -3.39283 -5.88272 0
M  V30 1086 H 95.0967 -1.22051 -6.44546 0
M  V30 1087 H 95.0137 -2.86125 -6.99763 0
M  V30 1088 H 96.2817 -1.82369 -7.57867 0
M  V30 1089 N 100.511 1.16574 -1.06058 0
M  V30 1090 C 101.757 1.87565 -0.78683 0
M  V30 1091 C 102.112 1.80012 0.679214 0
M  V30 1092 O 101.405 1.20327 1.49104 0
M  V30 1093 C 101.599 3.36195 -1.21275 0
M  V30 1094 C 101.428 3.58216 -2.71866 0
M  V30 1095 C 100.198 3.7444 -3.39298 0
M  V30 1096 C 102.396 3.57134 -3.70081 0
M  V30 1097 N 100.378 3.84389 -4.78663 0
M  V30 1098 C 101.749 3.73038 -4.9522 0
M  V30 1099 C 103.804 3.40332 -3.63426 0
M  V30 1100 C 102.507 3.73879 -6.14497 0
M  V30 1101 C 104.533 3.42466 -4.82153 0
M  V30 1102 C 103.895 3.58887 -6.06118 0
M  V30 1103 H 99.9938 0.704081 -0.340284 0
M  V30 1104 H 102.578 1.39885 -1.35426 0
M  V30 1105 H 100.749 3.82522 -0.673179 0
M  V30 1106 H 102.481 3.94839 -0.887917 0
M  V30 1107 H 99.2358 3.74662 -2.89699 0
M  V30 1108 H 99.6598 3.93138 -5.51155 0
M  V30 1109 H 104.302 3.26566 -2.68541 0
M  V30 1110 H 102.02 3.86427 -7.09718 0
M  V30 1111 H 105.606 3.30712 -4.78666 0
M  V30 1112 H 104.486 3.60454 -6.9645 0
M  V30 1113 N 101.989 0.842826 1.3317 0
M  V30 1114 C 103.219 0.453397 2.01564 0
M  V30 1115 C 103.627 -0.951147 1.63554 0
M  V30 1116 O 102.97 -1.63021 0.846746 0
M  V30 1117 C 103.032 0.499013 3.5602 0
M  V30 1118 C 102.696 1.86037 4.1742 0
M  V30 1119 C 103.693 2.82416 4.36506 0
M  V30 1120 C 101.378 2.15428 4.53757 0
M  V30 1121 C 103.372 4.06346 4.91082 0
M  V30 1122 C 101.059 3.39615 5.0804 0
M  V30 1123 C 102.057 4.3489 5.26649 0
M  V30 1124 O 101.745 5.5688 5.79776 0
M  V30 1125 H 101.477 0.177871 0.652179 0
M  V30 1126 H 104.031 1.13808 1.70988 0
M  V30 1127 H 102.261 -0.242467 3.85939 0
M  V30 1128 H 103.95 0.126852 4.05702 0
M  V30 1129 H 104.716 2.6101 4.08777 0
M  V30 1130 H 100.595 1.42061 4.38565 0
M  V30 1131 H 104.139 4.80722 5.05522 0
M  V30 1132 H 100.036 3.60876 5.352 0
M  V30 1133 H 100.804 5.58674 5.98185 0
M  V30 1134 N 103.467 -1.45747 0.599634 0
M  V30 1135 C 104.377 -2.34262 -0.125888 0
M  V30 1136 C 105.393 -1.50768 -0.868625 0
M  V30 1137 O 106.569 -1.83592 -0.828003 0
M  V30 1138 C 103.634 -3.28252 -1.11587 0
M  V30 1139 C 102.695 -4.27651 -0.375956 0
M  V30 1140 C 101.928 -5.1715 -1.31877 0
M  V30 1141 O 102.151 -5.09916 -2.55621 0
M  V30 1142 O 101.085 -5.96286 -0.820157 0
M  V30 1143 H 104.911 -2.97688 0.601315 0
M  V30 1144 H 102.496 -1.44999 0.359934 0
M  V30 1145 H 104.378 -3.86191 -1.68626 0
M  V30 1146 H 103.053 -2.67401 -1.82424 0
M  V30 1147 H 101.96 -3.7335 0.236698 0
M  V30 1148 H 103.293 -4.91334 0.29177 0
M  V30 1149 N 104.945 -0.338344 -1.53925 0
M  V30 1150 C 106.222 0.314774 -1.93051 0
M  V30 1151 C 106.602 1.68669 -1.26941 0
M  V30 1152 O 105.95 2.24636 -0.418445 0
M  V30 1153 C 106.16 0.392249 -3.46789 0
M  V30 1154 C 107.508 0.645554 -4.19664 0
M  V30 1155 O 108.532 0.474575 -3.53024 0
M  V30 1156 O 107.391 0.976408 -5.37707 0
M  V30 1157 H 104.485 0.182598 -0.80659 0
M  V30 1158 H 107.031 -0.389141 -1.65178 0
M  V30 1159 H 105.803 -0.570702 -3.87116 0
M  V30 1160 H 105.426 1.14316 -3.80812 0
M  V30 1161 N 106.423 1.57458 -0.0668435 0
M  V30 1162 C 107.671 1.92919 0.602214 0
M  V30 1163 C 107.992 0.947215 1.70449 0
M  V30 1164 O 107.262 -0.00544117 1.95899 0
M  V30 1165 H 105.842 0.71217 0.22544 0
M  V30 1166 H 108.504 1.94508 -0.123535 0
M  V30 1167 H 107.6 2.94589 1.03073 0
M  V30 1168 N 107.901 -0.206675 1.56239 0
M  V30 1169 C 109.129 -0.945345 1.8404 0
M  V30 1170 C 109.544 -1.77336 0.647885 0
M  V30 1171 O 108.901 -1.78425 -0.383511 0
M  V30 1172 C 108.952 -1.8509 3.10522 0
M  V30 1173 O 108.673 -1.05634 4.25174 0
M  V30 1174 C 110.174 -2.70222 3.51418 0
M  V30 1175 H 107.394 -0.276372 0.61144 0
M  V30 1176 H 109.938 -0.217417 2.03341 0
M  V30 1177 H 108.093 -2.53259 2.93153 0
M  V30 1178 H 108.507 -1.67238 4.97124 0
M  V30 1179 H 109.981 -3.29438 4.42916 0
M  V30 1180 H 110.458 -3.43358 2.73864 0
M  V30 1181 H 111.064 -2.07443 3.71278 0
M  V30 1182 N 109.379 -1.50304 -0.473955 0
M  V30 1183 C 110.309 -1.71886 -1.58042 0
M  V30 1184 C 111.29 -0.567799 -1.60344 0
M  V30 1185 O 112.475 -0.806623 -1.76656 0
M  V30 1186 C 109.605 -1.81036 -2.96384 0
M  V30 1187 C 108.559 -2.962 -3.08949 0
M  V30 1188 C 107.885 -2.9049 -4.48909 0
M  V30 1189 C 109.185 -4.36752 -2.86434 0
M  V30 1190 H 110.879 -2.64527 -1.40234 0
M  V30 1191 H 108.425 -1.27295 -0.673201 0
M  V30 1192 H 110.378 -1.94719 -3.73714 0
M  V30 1193 H 109.102 -0.850147 -3.15341 0
M  V30 1194 H 107.761 -2.82164 -2.3405 0
M  V30 1195 H 107.409 -1.92321 -4.64781 0
M  V30 1196 H 107.109 -3.67802 -4.58253 0
M  V30 1197 H 108.633 -3.06218 -5.28264 0
M  V30 1198 H 110.047 -4.5133 -3.53517 0
M  V30 1199 H 108.444 -5.15493 -3.07225 0
M  V30 1200 H 109.514 -4.49321 -1.82316 0
M  V30 1201 N 110.857 0.726932 -1.39834 0
M  V30 1202 C 111.805 1.86235 -1.39353 0
M  V30 1203 C 112.799 1.67144 -0.275555 0
M  V30 1204 O 114.005 1.74387 -0.44601 0
M  V30 1205 H 110.38 0.613174 -0.43534 0
M  V30 1206 H 112.351 1.83756 -2.35109 0
M  V30 1207 C 111.1 3.23995 -1.26185 0
M  V30 1208 H 110.423 3.39285 -2.11484 0
M  V30 1209 H 111.863 4.03609 -1.29907 0
M  V30 1210 C 110.322 3.36888 0.0290018 0
M  V30 1211 O 110.852 3.89152 0.99619 0
M  V30 1212 N 109.058 2.90446 0.0947437 0
M  V30 1213 H 108.605 2.48102 -0.693035 0
M  V30 1214 H 108.563 2.99451 0.957932 0
M  V30 1215 N 112.336 1.25143 0.95797 0
M  V30 1216 C 113.266 1.07711 2.07173 0
M  V30 1217 C 114.247 -0.0128462 1.70095 0
M  V30 1218 O 115.432 0.156061 1.93572 0
M  V30 1219 C 112.562 0.691503 3.40346 0
M  V30 1220 C 111.516 1.73132 3.9142 0
M  V30 1221 C 110.842 1.20049 5.21049 0
M  V30 1222 C 112.142 3.1294 4.1817 0
M  V30 1223 H 113.836 2.00873 2.22014 0
M  V30 1224 H 111.382 0.967191 1.06684 0
M  V30 1225 H 113.335 0.556505 4.17709 0
M  V30 1226 H 112.059 -0.275819 3.25433 0
M  V30 1227 H 110.718 1.8547 3.16222 0
M  V30 1228 H 110.366 0.223499 5.02503 0
M  V30 1229 H 110.066 1.89545 5.56189 0
M  V30 1230 H 111.59 1.07782 6.01012 0
M  V30 1231 H 113.004 3.03775 4.86203 0
M  V30 1232 H 111.401 3.79875 4.64559 0
M  V30 1233 H 112.471 3.6025 3.24573 0
M  V30 1234 N 113.814 -1.1601 1.06675 0
M  V30 1235 C 114.777 -2.18724 0.685001 0
M  V30 1236 C 115.777 -1.58496 -0.271246 0
M  V30 1237 O 116.967 -1.74119 -0.0531156 0
M  V30 1238 C 114.099 -3.40899 0.00853648 0
M  V30 1239 H 115.292 -2.54011 1.59431 0
M  V30 1240 H 112.845 -1.30352 0.862441 0
M  V30 1241 H 113.58 -3.11173 -0.913337 0
M  V30 1242 H 113.365 -3.8587 0.696204 0
M  V30 1243 H 114.855 -4.16886 -0.24414 0
M  V30 1244 N 115.292 -0.849877 -1.32721 0
M  V30 1245 C 116.255 -0.296122 -2.27279 0
M  V30 1246 C 117.255 0.541458 -1.5141 0
M  V30 1247 O 118.445 0.353658 -1.70572 0
M  V30 1248 C 115.577 0.581579 -3.35902 0
M  V30 1249 H 116.77 -1.13064 -2.77771 0
M  V30 1250 H 114.323 -0.62383 -1.43311 0
M  V30 1251 H 115.058 1.43809 -2.9067 0
M  V30 1252 H 114.843 -0.0178814 -3.92096 0
M  V30 1253 H 116.333 0.961951 -4.0637 0
M  V30 1254 N 116.77 1.45427 -0.607355 0
M  V30 1255 C 117.718 2.32269 0.12411 0
M  V30 1256 C 118.712 1.45955 0.859854 0
M  V30 1257 O 119.918 1.6244 0.775447 0
M  V30 1258 H 116.293 0.749691 0.0588839 0
M  V30 1259 H 118.264 2.91743 -0.626762 0
M  V30 1260 C 117.013 3.29567 1.1082 0
M  V30 1261 H 116.336 3.95978 0.551492 0
M  V30 1262 H 117.776 3.93061 1.58995 0
M  V30 1263 C 116.235 2.56722 2.18164 0
M  V30 1264 O 116.765 2.34842 3.25902 0
M  V30 1265 N 114.971 2.16861 1.93442 0
M  V30 1266 H 114.518 2.34855 1.05834 0
M  V30 1267 H 114.476 1.68444 2.65469 0
M  V30 1268 N 118.248 0.346503 1.53744 0
M  V30 1269 C 119.488 -0.249413 2.02873 0
M  V30 1270 C 119.852 -1.47532 1.22876 0
M  V30 1271 O 121.053 -2.1456 1.61918 0
M  V30 1272 C 119.324 -0.552909 3.53097 0
M  V30 1273 S 120.883 -1.12521 4.24128 0
M  V30 1274 H 117.701 -0.074042 0.707134 0
M  V30 1275 H 120.303 0.48495 1.8939 0
M  V30 1276 H 119.007 0.347083 4.0893 0
M  V30 1277 H 118.538 -1.31686 3.70705 0
M  V30 1278 H 120.553 -2.41075 4.33702 0
M  V30 1279 N 119.726 -1.57421 0.075193 0
M  V30 1280 C 120.656 -2.15942 -0.888324 0
M  V30 1281 C 121.637 -1.08737 -1.30806 0
M  V30 1282 O 122.822 -1.36787 -1.37851 0
M  V30 1283 C 119.952 -2.72379 -2.1547 0
M  V30 1284 C 118.906 -3.8478 -1.87425 0
M  V30 1285 C 118.232 -4.27834 -3.20721 0
M  V30 1286 C 119.532 -5.08869 -1.17684 0
M  V30 1287 H 121.226 -2.96705 -0.400799 0
M  V30 1288 H 118.772 -1.42723 -0.191342 0
M  V30 1289 H 120.725 -3.11965 -2.83295 0
M  V30 1290 H 119.449 -1.88841 -2.6647 0
M  V30 1291 H 118.108 -3.45703 -1.22004 0
M  V30 1292 H 117.756 -3.41214 -3.6957 0
M  V30 1293 H 117.456 -5.03605 -3.02746 0
M  V30 1294 H 118.98 -4.70039 -3.89738 0
M  V30 1295 H 120.394 -5.4575 -1.75584 0
M  V30 1296 H 118.791 -5.8994 -1.09956 0
M  V30 1297 H 119.861 -4.84648 -0.156453 0
M  V30 1298 N 121.204 0.198386 -1.56346 0
M  V30 1299 C 122.481 0.944982 -1.71258 0
M  V30 1300 C 122.861 2.0151 -0.629048 0
M  V30 1301 O 122.209 2.25639 0.360473 0
M  V30 1302 C 122.419 1.5344 -3.1346 0
M  V30 1303 C 123.767 2.01778 -3.73591 0
M  V30 1304 O 124.791 1.63288 -3.16568 0
M  V30 1305 O 123.65 2.72594 -4.73661 0
M  V30 1306 H 120.744 0.442939 -0.69838 0
M  V30 1307 H 123.29 0.188342 -1.68652 0
M  V30 1308 H 122.062 0.762869 -3.83792 0
M  V30 1309 H 121.685 2.35596 -3.20282 0
M  V30 1310 N 122.682 1.50554 0.465978 0
M  V30 1311 C 124.098 1.38093 0.800154 0
M  V30 1312 C 124.298 0.440988 1.96615 0
M  V30 1313 O 123.354 -0.114499 2.5224 0
M  V30 1314 C 124.667 2.79565 1.10742 0
M  V30 1315 C 126.215 2.88516 1.21357 0
M  V30 1316 C 126.69 4.30833 1.55393 0
M  V30 1317 N 128.181 4.33807 1.62375 0
M  V30 1318 C 128.916 5.40927 1.90225 0
M  V30 1319 N 128.412 6.58247 2.16062 0
M  V30 1320 N 130.205 5.28376 1.9177 0
M  V30 1321 H 122.356 2.10237 -0.302366 0
M  V30 1322 H 124.619 0.945203 -0.0727746 0
M  V30 1323 H 124.325 3.50208 0.323661 0
M  V30 1324 H 124.199 3.17125 2.04234 0
M  V30 1325 H 126.586 2.1809 1.98799 0
M  V30 1326 H 126.667 2.54492 0.258321 0
M  V30 1327 H 126.311 5.01799 0.784889 0
M  V30 1328 H 126.241 4.62347 2.52076 0
M  V30 1329 H 128.732 3.49212 1.44427 0
M  V30 1330 H 129.045 7.3569 2.36601 0
M  V30 1331 H 127.39 6.61413 2.13444 0
M  V30 1332 H 130.581 4.35715 1.71085 0
M  V30 1333 H 130.754 6.11944 2.13139 0
M  V30 1334 N 124.16 -0.719506 1.40217 0
M  V30 1335 C 125.11 -1.8251 1.36653 0
M  V30 1336 C 126.094 -1.59028 0.244732 0
M  V30 1337 O 127.286 -1.70268 0.483524 0
M  V30 1338 C 124.415 -3.20599 1.22763 0
M  V30 1339 C 123.501 -3.49858 2.39708 0
M  V30 1340 N 123.892 -3.49957 3.6519 0
M  V30 1341 C 122.19 -3.80297 2.33002 0
M  V30 1342 C 122.891 -3.77449 4.42614 0
M  V30 1343 N 121.867 -3.96002 3.72402 0
M  V30 1344 H 125.669 -1.80914 2.31619 0
M  V30 1345 H 123.183 -0.918455 1.33933 0
M  V30 1346 H 125.18 -3.99766 1.18292 0
M  V30 1347 H 123.84 -3.23424 0.287614 0
M  V30 1348 H 124.851 -3.309 3.98404 0
M  V30 1349 H 121.528 -3.90635 1.47346 0
M  V30 1350 H 122.918 -3.83863 5.51451 0
M  V30 1351 N 125.638 -1.25649 -0.95132 0
M  V30 1352 C 126.568 -1.08808 -2.06599 0
M  V30 1353 C 127.549 0.00382547 -1.701 0
M  V30 1354 O 128.734 -0.166325 -1.93486 0
M  V30 1355 C 125.864 -0.709542 -3.39975 0
M  V30 1356 C 124.818 -1.75206 -3.90496 0
M  V30 1357 C 124.144 -1.22811 -5.20405 0
M  V30 1358 C 125.444 -3.15153 -4.16504 0
M  V30 1359 H 127.138 -2.02048 -2.20946 0
M  V30 1360 H 124.684 -0.972835 -1.06169 0
M  V30 1361 H 126.637 -0.578649 -4.17408 0
M  V30 1362 H 125.361 0.258556 -3.25575 0
M  V30 1363 H 124.02 -1.87145 -3.15234 0
M  V30 1364 H 123.668 -0.250145 -5.02378 0
M  V30 1365 H 123.368 -1.92492 -5.55176 0
M  V30 1366 H 124.892 -1.10968 -6.00432 0
M  V30 1367 H 126.306 -3.06349 -4.84586 0
M  V30 1368 H 124.703 -3.82333 -4.62538 0
M  V30 1369 H 125.773 -3.61966 -3.22658 0
M  V30 1370 N 127.117 1.15442 -1.07289 0
M  V30 1371 C 128.049 2.19773 -0.650585 0
M  V30 1372 C 129.062 1.60076 0.296572 0
M  V30 1373 O 130.251 1.78293 0.0859905 0
M  V30 1374 C 127.351 3.38838 0.0650398 0
M  V30 1375 C 126.524 4.2808 -0.898141 0
M  V30 1376 C 125.583 5.2574 -0.219926 0
M  V30 1377 O 124.609 5.62654 -0.860773 0
M  V30 1378 N 125.811 5.71205 1.03466 0
M  V30 1379 H 128.576 2.56622 -1.54808 0
M  V30 1380 H 126.137 1.30551 -0.957494 0
M  V30 1381 H 128.129 4.01222 0.529415 0
M  V30 1382 H 126.699 3.00409 0.864466 0
M  V30 1383 H 125.919 3.62804 -1.54165 0
M  V30 1384 H 127.207 4.84577 -1.5512 0
M  V30 1385 H 126.605 5.43325 1.57526 0
M  V30 1386 H 125.162 6.35633 1.44272 0
M  V30 1387 N 128.595 0.856903 1.32268 0
M  V30 1388 C 129.505 0.306131 2.32594 0
M  V30 1389 C 130.521 -0.577209 1.64147 0
M  V30 1390 O 131.697 -0.477043 1.95669 0
M  V30 1391 C 128.762 -0.494561 3.43154 0
M  V30 1392 C 127.823 0.415186 4.27288 0
M  V30 1393 C 127.056 -0.347387 5.32568 0
M  V30 1394 O 127.279 -1.57708 5.48165 0
M  V30 1395 O 126.213 0.287982 6.01211 0
M  V30 1396 H 130.039 1.13737 2.81598 0
M  V30 1397 H 127.624 0.619902 1.35932 0
M  V30 1398 H 129.506 -0.948944 4.10576 0
M  V30 1399 H 128.181 -1.30257 2.96336 0
M  V30 1400 H 127.088 0.917793 3.62667 0
M  V30 1401 H 128.421 1.18844 4.77637 0
M  V30 1402 N 130.073 -1.45103 0.615059 0
M  V30 1403 C 131.021 -2.32331 -0.111791 0
M  V30 1404 C 132.015 -1.46409 -0.852102 0
M  V30 1405 O 133.221 -1.62849 -0.766821 0
M  V30 1406 H 129.596 -0.749993 -0.0549072 0
M  V30 1407 H 131.567 -2.91407 0.642225 0
M  V30 1408 C 130.316 -3.3015 -1.09071 0
M  V30 1409 H 129.639 -3.96265 -0.530485 0
M  V30 1410 H 131.079 -3.93898 -1.56908 0
M  V30 1411 C 129.538 -2.57875 -2.168 0
M  V30 1412 O 130.068 -2.36567 -3.24652 0
M  V30 1413 N 128.274 -2.17884 -1.92289 0
M  V30 1414 H 127.821 -2.35413 -1.04587 0
M  V30 1415 H 127.779 -1.6985 -2.64572 0
M  V30 1416 N 131.551 -0.354651 -1.53558 0
M  V30 1417 C 132.799 0.237972 -2.00694 0
M  V30 1418 C 133.12 1.50173 -1.24391 0
M  V30 1419 O 132.39 1.92673 -0.354135 0
M  V30 1420 H 130.97 0.0909256 -0.741446 0
M  V30 1421 H 133.632 -0.478368 -1.88938 0
M  V30 1422 H 132.728 0.47264 -3.085 0
M  V30 1423 N 133.029 1.57378 -0.0835403 0
M  V30 1424 C 134.306 1.85363 0.624507 0
M  V30 1425 C 134.686 0.978239 1.87066 0
M  V30 1426 O 134.034 0.0475908 2.2845 0
M  V30 1427 C 134.244 3.35795 0.950947 0
M  V30 1428 C 135.592 4.03581 1.31939 0
M  V30 1429 O 136.616 3.40609 1.04232 0
M  V30 1430 O 135.475 5.14672 1.83779 0
M  V30 1431 H 132.569 0.766162 0.311329 0
M  V30 1432 H 135.115 1.69307 -0.115362 0
M  V30 1433 H 133.887 3.91244 0.0663899 0
M  V30 1434 H 133.51 3.57154 1.74719 0
M  V30 1435 N 134.507 -0.190092 1.56449 0
M  V30 1436 C 135.923 -0.54113 1.50146 0
M  V30 1437 C 136.123 -1.85603 0.784465 0
M  V30 1438 O 135.179 -2.5024 0.337051 0
M  V30 1439 C 136.492 -0.591241 2.9483 0
M  V30 1440 C 138.04 -0.679732 3.0553 0
M  V30 1441 C 138.515 -0.760908 4.51635 0
M  V30 1442 N 140.006 -0.824302 4.55806 0
M  V30 1443 C 140.741 -0.907365 5.66175 0
M  V30 1444 N 140.237 -0.952422 6.86222 0
M  V30 1445 N 142.03 -0.94494 5.541 0
M  V30 1446 H 134.181 0.67235 2.01478 0
M  V30 1447 H 136.444 0.240127 0.917084 0
M  V30 1448 H 136.15 0.305905 3.50367 0
M  V30 1449 H 136.024 -1.44422 3.48457 0
M  V30 1450 H 138.411 -1.56731 2.50039 0
M  V30 1451 H 138.492 0.199549 2.5502 0
M  V30 1452 H 138.136 0.122336 5.07753 0
M  V30 1453 H 138.066 -1.65606 4.99882 0
M  V30 1454 H 140.557 -0.798526 3.69367 0
M  V30 1455 H 140.87 -1.01645 7.66086 0
M  V30 1456 H 139.215 -0.921014 6.8887 0
M  V30 1457 H 142.406 -0.906612 4.59236 0
M  V30 1458 H 142.579 -1.00622 6.4014 0
M  V30 1459 N 135.985 -1.50799 -0.457987 0
M  V30 1460 C 137.213 -1.66218 -1.23203 0
M  V30 1461 C 137.628 -0.350894 -1.85511 0
M  V30 1462 O 136.985 0.668546 -1.69814 0
M  V30 1463 C 137.036 -2.76291 -2.33121 0
M  V30 1464 O 136.757 -4.02338 -1.73366 0
M  V30 1465 C 138.258 -3.028 -3.2377 0
M  V30 1466 H 135.478 -0.558361 -0.372121 0
M  V30 1467 H 138.022 -1.97099 -0.545179 0
M  V30 1468 H 136.177 -2.48068 -2.97558 0
M  V30 1469 H 136.591 -4.63312 -2.4585 0
M  V30 1470 H 138.065 -3.8345 -3.97077 0
M  V30 1471 H 138.542 -2.14385 -3.83322 0
M  V30 1472 H 139.148 -3.32604 -2.65056 0
M  V30 1473 N 137.463 0.71206 -1.40597 0
M  V30 1474 C 138.426 1.80785 -1.40888 0
M  V30 1475 C 139.426 1.57937 -0.302103 0
M  V30 1476 O 140.616 1.64913 -0.561182 0
M  V30 1477 C 137.748 3.18927 -1.20409 0
M  V30 1478 H 138.941 1.81924 -2.38419 0
M  V30 1479 H 136.494 0.91805 -1.26497 0
M  V30 1480 H 137.229 3.23436 -0.236522 0
M  V30 1481 H 137.014 3.36911 -2.00582 0
M  V30 1482 H 138.504 3.98949 -1.23408 0
M  V30 1483 N 138.941 1.26152 0.944643 0
M  V30 1484 C 140.19 1.10883 1.68487 0
M  V30 1485 C 140.503 -0.348153 1.92477 0
M  V30 1486 O 141.709 -0.621459 2.64292 0
M  V30 1487 C 140.165 1.93624 3.03377 0
M  V30 1488 C 139.773 3.43875 2.87148 0
M  V30 1489 C 141.517 1.86954 3.81115 0
M  V30 1490 C 139.424 4.18875 4.1749 0
M  V30 1491 H 138.354 0.41135 0.631907 0
M  V30 1492 H 141.005 1.50433 1.05082 0
M  V30 1493 H 139.387 1.46904 3.67743 0
M  V30 1494 H 140.561 3.98338 2.31653 0
M  V30 1495 H 138.876 3.51744 2.22856 0
M  V30 1496 H 141.473 2.40275 4.77673 0
M  V30 1497 H 141.816 0.839518 4.07747 0
M  V30 1498 H 142.349 2.31477 3.23517 0
M  V30 1499 H 139.088 5.22332 3.96043 0
M  V30 1500 H 138.608 3.69193 4.72712 0
M  V30 1501 H 140.287 4.27134 4.85968 0
M  V30 1502 N 140.419 -1.14872 1.07899 0
M  V30 1503 C 141.668 -1.85135 0.800499 0
M  V30 1504 C 141.981 -1.83547 -0.676014 0
M  V30 1505 O 143.187 -2.49548 -1.06948 0
M  V30 1506 C 141.643 -3.3231 1.38197 0
M  V30 1507 C 141.251 -3.42329 2.8899 0
M  V30 1508 C 142.995 -4.0772 1.18174 0
M  V30 1509 C 140.902 -4.83684 3.403 0
M  V30 1510 H 139.832 -0.693563 0.29578 0
M  V30 1511 H 142.483 -1.29532 1.29976 0
M  V30 1512 H 140.865 -3.87618 0.810431 0
M  V30 1513 H 142.039 -2.97097 3.52236 0
M  V30 1514 H 140.354 -2.80369 3.07867 0
M  V30 1515 H 142.951 -5.12049 1.5398 0
M  V30 1516 H 143.294 -4.16124 0.12117 0
M  V30 1517 H 143.827 -3.58696 1.71994 0
M  V30 1518 H 140.566 -4.80465 4.45907 0
M  V30 1519 H 140.086 -5.29474 2.81811 0
M  V30 1520 H 141.765 -5.52558 3.36584 0
M  V30 1521 N 141.898 -0.863906 -1.31812 0
M  V30 1522 C 143.144 -0.481841 -1.9761 0
M  V30 1523 C 143.499 0.954048 -1.6708 0
M  V30 1524 O 142.792 1.66182 -0.953624 0
M  V30 1525 C 142.986 -0.668547 -3.51091 0
M  V30 1526 C 142.815 -2.12103 -3.96538 0
M  V30 1527 C 141.585 -2.76141 -4.23171 0
M  V30 1528 C 143.783 -3.09265 -4.10925 0
M  V30 1529 N 141.765 -4.12205 -4.54929 0
M  V30 1530 C 143.136 -4.30341 -4.46326 0
M  V30 1531 C 145.191 -3.05337 -3.93286 0
M  V30 1532 C 143.894 -5.48 -4.65928 0
M  V30 1533 C 145.92 -4.22248 -4.14078 0
M  V30 1534 C 145.282 -5.42085 -4.49804 0
M  V30 1535 H 141.381 -0.225238 -0.74886 0
M  V30 1536 H 143.965 -1.11723 -1.59455 0
M  V30 1537 H 142.136 -0.0627898 -3.88349 0
M  V30 1538 H 143.868 -0.255467 -4.03893 0
M  V30 1539 H 140.623 -2.27125 -4.15585 0
M  V30 1540 H 141.047 -4.82416 -4.74978 0
M  V30 1541 H 145.689 -2.138 -3.64759 0
M  V30 1542 H 143.407 -6.40059 -4.93305 0
M  V30 1543 H 146.993 -4.20654 -4.01922 0
M  V30 1544 H 145.873 -6.31044 -4.65567 0
M  V30 1545 N 143.376 1.44774 -0.622745 0
M  V30 1546 C 144.286 2.34433 0.0886031 0
M  V30 1547 C 145.302 1.52131 0.844529 0
M  V30 1548 O 146.478 1.84886 0.798691 0
M  V30 1549 C 143.543 3.29986 1.0635 0
M  V30 1550 C 142.604 4.28195 0.307873 0
M  V30 1551 C 141.837 5.19183 1.23633 0
M  V30 1552 O 142.06 5.13918 2.47476 0
M  V30 1553 O 140.994 5.97515 0.725189 0
M  V30 1554 H 144.82 2.96693 -0.648599 0
M  V30 1555 H 142.405 1.44408 -0.382957 0
M  V30 1556 H 144.287 3.88825 1.6246 0
M  V30 1557 H 142.962 2.70269 1.78146 0
M  V30 1558 H 141.869 3.72927 -0.296064 0
M  V30 1559 H 143.202 4.90808 -0.3699 0
M  V30 1560 N 144.854 0.36279 1.53368 0
M  V30 1561 C 146.102 -0.227326 2.00817 0
M  V30 1562 C 146.423 -1.49511 1.25186 0
M  V30 1563 O 145.693 -1.92482 0.364348 0
M  V30 1564 H 144.273 -0.0869923 0.741917 0
M  V30 1565 H 146.935 0.488381 1.88682 0
M  V30 1566 H 146.031 -0.456273 3.08747 0
M  V30 1567 N 146.332 -1.57332 0.0918853 0
M  V30 1568 C 147.609 -1.85691 -0.614668 0
M  V30 1569 C 147.989 -0.988146 -1.86545 0
M  V30 1570 O 147.337 -0.0597055 -2.28422 0
M  V30 1571 C 147.547 -3.36294 -0.933126 0
M  V30 1572 C 148.895 -4.04275 -1.29796 0
M  V30 1573 O 149.919 -3.41157 -1.02424 0
M  V30 1574 O 148.778 -5.1564 -1.81047 0
M  V30 1575 H 145.872 -0.767802 -0.307261 0
M  V30 1576 H 148.418 -1.69244 0.12434 0
M  V30 1577 H 147.19 -3.91273 -0.0456404 0
M  V30 1578 H 146.813 -3.58076 -1.72822 0
M  V30 1579 N 147.81 0.181792 -1.56548 0
M  V30 1580 C 149.087 0.926765 -1.72251 0
M  V30 1581 C 149.467 2.00831 -0.650386 0
M  V30 1582 O 148.815 2.26008 0.336521 0
M  V30 1583 C 149.025 1.50106 -3.1507 0
M  V30 1584 C 150.373 1.97805 -3.75711 0
M  V30 1585 O 151.397 1.59922 -3.18282 0
M  V30 1586 O 150.256 2.67555 -4.76525 0
M  V30 1587 H 147.35 0.435506 -0.703039 0
M  V30 1588 H 149.896 0.170443 -1.68842 0
M  V30 1589 H 148.668 0.72212 -3.84579 0
M  V30 1590 H 148.291 2.32186 -3.22763 0
M  V30 1591 N 149.288 1.51039 0.449983 0
M  V30 1592 C 150.516 1.66869 1.2232 0
M  V30 1593 C 150.931 0.360727 1.85322 0
M  V30 1594 O 150.288 -0.659531 1.70166 0
M  V30 1595 C 150.339 2.77524 2.31652 0
M  V30 1596 O 150.06 4.03252 1.7123 0
M  V30 1597 C 151.561 3.04512 3.2216 0
M  V30 1598 H 148.781 0.560326 0.369155 0
M  V30 1599 H 151.325 1.97385 0.534719 0
M  V30 1600 H 149.48 2.49642 2.96239 0
M  V30 1601 H 149.894 4.64609 2.43389 0
M  V30 1602 H 151.368 3.85551 3.95038 0
M  V30 1603 H 151.845 2.16415 3.8218 0
M  V30 1604 H 152.451 3.34005 2.63288 0
M  V30 1605 N 150.766 -0.704594 1.40972 0
M  V30 1606 C 151.991 -1.49858 1.43378 0
M  V30 1607 C 152.416 -1.88061 0.038184 0
M  V30 1608 O 151.774 -1.5402 -0.956425 0
M  V30 1609 C 151.822 -2.74333 2.34038 0
M  V30 1610 O 150.926 -3.7147 1.7912 0
M  V30 1611 H 150.267 -0.45139 0.486974 0
M  V30 1612 H 152.797 -0.866832 1.8533 0
M  V30 1613 H 152.807 -3.22741 2.49604 0
M  V30 1614 H 151.482 -2.45863 3.35446 0
M  V30 1615 H 150.059 -3.30363 1.72958 0
M  V30 1616 N 152.244 -1.26651 -0.937939 0
M  V30 1617 C 153.176 -1.04283 -2.04102 0
M  V30 1618 C 154.189 -0.00221014 -1.628 0
M  V30 1619 O 155.378 -0.242645 -1.76843 0
M  V30 1620 C 152.478 -0.557846 -3.34277 0
M  V30 1621 C 151.651 -1.66843 -4.04329 0
M  V30 1622 C 150.71 -1.18095 -5.12777 0
M  V30 1623 O 149.736 -1.87865 -5.37304 0
M  V30 1624 N 150.938 -0.0311006 -5.80492 0
M  V30 1625 H 153.703 -1.9927 -2.23856 0
M  V30 1626 H 151.264 -1.1808 -1.10764 0
M  V30 1627 H 153.256 -0.215836 -4.04124 0
M  V30 1628 H 151.826 0.298523 -3.11171 0
M  V30 1629 H 151.046 -2.18123 -3.28353 0
M  V30 1630 H 152.334 -2.41408 -4.47883 0
M  V30 1631 H 151.732 0.551486 -5.63005 0
M  V30 1632 H 150.289 0.251809 -6.51313 0
M  V30 1633 N 153.722 1.14298 -1.08507 0
M  V30 1634 C 154.947 1.8976 -0.837001 0
M  V30 1635 C 155.372 1.78097 0.605228 0
M  V30 1636 O 154.73 1.12188 1.4242 0
M  V30 1637 C 154.778 3.37685 -1.26495 0
M  V30 1638 O 153.882 4.10281 -0.417514 0
M  V30 1639 H 153.223 0.590365 -0.303917 0
M  V30 1640 H 155.753 1.44672 -1.44676 0
M  V30 1641 H 155.763 3.88501 -1.24625 0
M  V30 1642 H 154.438 3.45492 -2.31534 0
M  V30 1643 H 153.015 3.69536 -0.499722 0
M  V30 1644 N 155.201 0.870884 1.31352 0
M  V30 1645 C 156.148 0.325425 2.28494 0
M  V30 1646 C 157.118 -0.576615 1.5577 0
M  V30 1647 O 158.303 -0.508059 1.83911 0
M  V30 1648 C 155.443 -0.466283 3.41935 0
M  V30 1649 C 154.556 0.463378 4.29508 0
M  V30 1650 C 153.691 -0.342544 5.30094 0
M  V30 1651 C 152.73 0.583486 6.09313 0
M  V30 1652 N 151.867 -0.186244 7.01853 0
M  V30 1653 H 156.707 1.15901 2.74538 0
M  V30 1654 H 154.244 0.58294 1.35056 0
M  V30 1655 H 156.202 -0.941085 4.06447 0
M  V30 1656 H 154.832 -1.26456 2.97 0
M  V30 1657 H 153.884 1.05663 3.65431 0
M  V30 1658 H 155.196 1.1734 4.84802 0
M  V30 1659 H 154.35 -0.879816 6.00287 0
M  V30 1660 H 153.089 -1.08585 4.75458 0
M  V30 1661 H 152.094 1.13251 5.3801 0
M  V30 1662 H 153.319 1.32566 6.66035 0
M  V30 1663 H 151.265 -0.912348 6.49625 0
M  V30 1664 H 151.182 0.464422 7.54572 0
M  V30 1665 H 152.45 -0.704716 7.76308 0
M  V30 1666 N 156.679 -1.44442 0.630414 0
M  V30 1667 C 157.629 -2.27794 -0.0968103 0
M  V30 1668 C 158.613 -1.38624 -0.816834 0
M  V30 1669 O 159.805 -1.62438 -0.70306 0
M  V30 1670 C 156.934 -3.25929 -1.07819 0
M  V30 1671 C 156.02 -4.22588 -0.357826 0
M  V30 1672 N 156.411 -5.0207 0.613169 0
M  V30 1673 C 154.709 -4.41914 -0.602365 0
M  V30 1674 C 155.41 -5.72351 1.03871 0
M  V30 1675 N 154.386 -5.42287 0.377642 0
M  V30 1676 H 158.188 -2.86653 0.648621 0
M  V30 1677 H 155.702 -1.55871 0.455862 0
M  V30 1678 H 157.699 -3.84399 -1.61378 0
M  V30 1679 H 156.359 -2.68631 -1.82393 0
M  V30 1680 H 157.37 -5.08331 0.990947 0
M  V30 1681 H 154.047 -3.95714 -1.33103 0
M  V30 1682 H 155.437 -6.4619 1.84086 0
M  V30 1683 N 158.157 -0.370918 -1.53173 0
M  V30 1684 C 159.406 0.218249 -2.00516 0
M  V30 1685 C 159.719 1.49429 -1.26215 0
M  V30 1686 O 160.925 2.16239 -1.64174 0
M  V30 1687 C 159.381 0.43948 -3.57207 0
M  V30 1688 C 158.989 -0.822244 -4.4039 0
M  V30 1689 C 160.733 0.986012 -4.1289 0
M  V30 1690 C 158.64 -0.570304 -5.88644 0
M  V30 1691 H 157.57 0.0853333 -0.749156 0
M  V30 1692 H 160.221 -0.490483 -1.76823 0
M  V30 1693 H 158.603 1.20961 -3.77074 0
M  V30 1694 H 159.777 -1.59557 -4.32294 0
M  V30 1695 H 158.092 -1.29238 -3.95836 0
M  V30 1696 H 160.689 1.18991 -5.21292 0
M  V30 1697 H 161.032 1.94972 -3.6782 0
M  V30 1698 H 161.565 0.27592 -3.96842 0
M  V30 1699 H 158.304 -1.50449 -6.38001 0
M  V30 1700 H 157.824 0.164427 -5.99575 0
M  V30 1701 H 159.503 -0.19784 -6.46697 0
M  V30 1702 N 159.635 1.57281 -0.100228 0
M  V30 1703 C 160.86 1.99302 0.573881 0
M  V30 1704 C 161.285 0.979059 1.60611 0
M  V30 1705 O 160.643 -0.0517803 1.81226 0
M  V30 1706 C 160.691 3.40274 1.19358 0
M  V30 1707 O 159.795 3.41676 2.30935 0
M  V30 1708 H 159.136 0.647944 0.145138 0
M  V30 1709 H 161.666 2.03779 -0.183156 0
M  V30 1710 H 161.676 3.78078 1.53365 0
M  V30 1711 H 160.351 4.13594 0.437385 0
M  V30 1712 H 158.928 3.15672 1.98509 0
M  V30 1713 N 161.113 -0.173488 1.56642 0
M  V30 1714 C 162.343 -0.904781 1.85734 0
M  V30 1715 C 162.751 -1.76431 0.68328 0
M  V30 1716 O 162.094 -1.802 -0.356865 0
M  V30 1717 C 162.156 -1.83382 3.09211 0
M  V30 1718 C 161.82 -1.15411 4.42187 0
M  V30 1719 C 162.817 -0.520609 5.17287 0
M  V30 1720 C 160.502 -1.15151 4.88923 0
M  V30 1721 C 162.496 0.106412 6.37311 0
M  V30 1722 C 160.183 -0.520664 6.08878 0
M  V30 1723 C 161.181 0.107196 6.82916 0
M  V30 1724 O 160.869 0.728102 8.00596 0
M  V30 1725 H 160.601 -0.268408 0.62043 0
M  V30 1726 H 163.155 -0.179096 2.04618 0
M  V30 1727 H 161.385 -2.59976 2.86268 0
M  V30 1728 H 163.074 -2.43476 3.24768 0
M  V30 1729 H 163.84 -0.514606 4.82262 0
M  V30 1730 H 159.719 -1.62961 4.31236 0
M  V30 1731 H 163.263 0.597081 6.9504 0
M  V30 1732 H 159.16 -0.524242 6.43368 0
M  V30 1733 H 159.928 0.627138 8.16094 0
M  V30 1734 N 162.591 -1.51276 -0.441967 0
M  V30 1735 C 164.007 -1.39349 -0.778083 0
M  V30 1736 C 164.207 -0.472212 -1.95889 0
M  V30 1737 O 163.263 0.0743551 -2.5239 0
M  V30 1738 C 164.576 -2.81292 -1.0628 0
M  V30 1739 C 166.124 -2.9041 -1.16751 0
M  V30 1740 C 166.599 -4.33251 -1.48519 0
M  V30 1741 N 168.09 -4.36336 -1.55453 0
M  V30 1742 C 168.825 -5.43885 -1.81596 0
M  V30 1743 N 168.321 -6.61601 -2.05562 0
M  V30 1744 N 170.114 -5.3136 -1.8334 0
M  V30 1745 H 162.265 -2.09729 0.335774 0
M  V30 1746 H 164.528 -0.943925 0.0878028 0
M  V30 1747 H 164.234 -3.50678 -0.267905 0
M  V30 1748 H 164.108 -3.20334 -1.99163 0
M  V30 1749 H 166.495 -2.21225 -1.95304 0
M  V30 1750 H 166.576 -2.54871 -0.217801 0
M  V30 1751 H 166.22 -5.02984 -0.704958 0
M  V30 1752 H 166.15 -4.66299 -2.44689 0
M  V30 1753 H 168.641 -3.51466 -1.38853 0
M  V30 1754 H 168.954 -7.39361 -2.24867 0
M  V30 1755 H 167.299 -6.64725 -2.02894 0
M  V30 1756 H 170.49 -4.38382 -1.64132 0
M  V30 1757 H 170.663 -6.15258 -2.03377 0
M  V30 1758 N 164.069 0.697108 -1.41344 0
M  V30 1759 C 164.979 1.84088 -1.45427 0
M  V30 1760 C 165.995 1.70545 -0.34501 0
M  V30 1761 O 167.171 1.92488 -0.592492 0
M  V30 1762 C 164.236 3.20056 -1.33286 0
M  V30 1763 C 163.297 3.45718 -2.54514 0
M  V30 1764 C 162.53 4.75199 -2.42944 0
M  V30 1765 O 162.753 5.51579 -1.45318 0
M  V30 1766 O 161.687 5.0161 -3.32672 0
M  V30 1767 H 165.513 1.836 -2.41919 0
M  V30 1768 H 163.098 0.849966 -1.22866 0
M  V30 1769 H 164.98 4.01236 -1.28794 0
M  V30 1770 H 163.655 3.2123 -0.39909 0
M  V30 1771 H 162.562 2.64474 -2.64583 0
M  V30 1772 H 163.895 3.49356 -3.46715 0
M  V30 1773 N 165.547 1.27147 0.931209 0
M  V30 1774 C 166.477 1.12081 2.04842 0
M  V30 1775 C 167.458 0.0232364 1.70084 0
M  V30 1776 O 168.643 0.197085 1.93197 0
M  V30 1777 C 165.773 0.76354 3.38803 0
M  V30 1778 C 164.727 1.81396 3.87659 0
M  V30 1779 C 164.053 1.31075 5.18385 0
M  V30 1780 C 165.353 3.21739 4.11438 0
M  V30 1781 H 167.047 2.05537 2.17703 0
M  V30 1782 H 164.593 0.989603 1.04608 0
M  V30 1783 H 166.546 0.644982 4.16435 0
M  V30 1784 H 165.27 -0.206727 3.25945 0
M  V30 1785 H 163.929 1.92136 3.12217 0
M  V30 1786 H 163.577 0.330037 5.01916 0
M  V30 1787 H 163.277 2.013 5.52044 0
M  V30 1788 H 164.801 1.20506 5.98591 0
M  V30 1789 H 166.215 3.14019 4.79651 0
M  V30 1790 H 164.612 3.89644 4.56397 0
M  V30 1791 H 165.682 3.67054 3.16859 0
M  V30 1792 N 167.025 -1.13721 1.09112 0
M  V30 1793 C 167.975 -2.17082 0.697091 0
M  V30 1794 C 168.959 -1.58321 -0.286923 0
M  V30 1795 O 170.151 -1.7673 -0.0978008 0
M  V30 1796 C 167.28 -3.43105 0.115729 0
M  V30 1797 C 166.366 -4.0888 1.12596 0
M  V30 1798 N 166.757 -4.4987 2.31195 0
M  V30 1799 C 165.055 -4.35471 0.963366 0
M  V30 1800 C 165.756 -5.01094 2.95431 0
M  V30 1801 N 164.732 -4.95751 2.23006 0
M  V30 1802 H 168.534 -2.46524 1.6001 0
M  V30 1803 H 166.048 -1.30481 0.966869 0
M  V30 1804 H 168.045 -4.16491 -0.184555 0
M  V30 1805 H 166.705 -3.15138 -0.78217 0
M  V30 1806 H 167.716 -4.42678 2.68806 0
M  V30 1807 H 164.393 -4.17328 0.119878 0
M  V30 1808 H 165.783 -5.4263 3.96236 0
M  V30 1809 N 168.503 -0.877838 -1.30888 0
M  V30 1810 C 169.919 -0.570844 -1.49042 0
M  V30 1811 C 170.119 0.893159 -1.80624 0
M  V30 1812 O 169.175 1.67485 -1.88958 0
M  V30 1813 C 170.488 -1.47784 -2.61878 0
M  V30 1814 C 172.036 -1.48071 -2.75761 0
M  V30 1815 C 172.511 -2.37347 -3.91702 0
M  V30 1816 N 174.002 -2.35271 -3.99001 0
M  V30 1817 C 174.737 -3.01063 -4.88004 0
M  V30 1818 N 174.233 -3.76055 -5.81854 0
M  V30 1819 N 176.026 -2.90332 -4.81315 0
M  V30 1820 H 168.177 -1.82502 -1.0866 0
M  V30 1821 H 170.44 -0.780797 -0.537644 0
M  V30 1822 H 170.146 -2.51993 -2.45341 0
M  V30 1823 H 170.02 -1.18215 -3.58197 0
M  V30 1824 H 172.407 -0.446166 -2.91708 0
M  V30 1825 H 172.488 -1.81668 -1.80085 0
M  V30 1826 H 172.132 -3.40883 -3.76512 0
M  V30 1827 H 172.062 -2.01071 -4.86701 0
M  V30 1828 H 174.553 -1.80768 -3.3186 0
M  V30 1829 H 174.866 -4.23366 -6.46514 0
M  V30 1830 H 173.211 -3.80163 -5.81808 0
M  V30 1831 H 176.402 -2.31278 -4.06974 0
M  V30 1832 H 176.575 -3.41885 -5.50471 0
M  V30 1833 N 169.982 1.44106 -0.638065 0
M  V30 1834 C 171.259 1.95453 -0.0759321 0
M  V30 1835 C 171.639 1.57984 1.40015 0
M  V30 1836 O 170.987 0.857361 2.11806 0
M  V30 1837 C 171.197 3.47655 -0.306132 0
M  V30 1838 C 172.545 4.24114 -0.203008 0
M  V30 1839 O 173.569 3.55405 -0.237871 0
M  V30 1840 O 172.428 5.46381 -0.113827 0
M  V30 1841 H 169.522 0.826797 0.0183332 0
M  V30 1842 H 172.068 1.54122 -0.710251 0
M  V30 1843 H 170.84 3.68 -1.3301 0
M  V30 1844 H 170.463 3.95949 0.361991 0
M  V30 1845 N 171.46 0.379036 1.52974 0
M  V30 1846 C 172.706 -0.206727 2.01744 0
M  V30 1847 C 173.039 -1.47314 1.26539 0
M  V30 1848 O 172.314 -1.91084 0.362903 0
M  V30 1849 C 172.597 -0.485066 3.56818 0
M  V30 1850 C 172.45 0.795919 4.42702 0
M  V30 1851 C 173.769 -1.28003 4.21074 0
M  V30 1852 H 170.888 -0.0736607 0.73331 0
M  V30 1853 H 173.53 0.506581 1.83122 0
M  V30 1854 H 171.68 -1.09272 3.72816 0
M  V30 1855 H 173.352 1.43307 4.38476 0
M  V30 1856 H 171.595 1.41344 4.10127 0
M  V30 1857 H 172.266 0.555947 5.49193 0
M  V30 1858 H 174.742 -0.765867 4.08991 0
M  V30 1859 H 173.618 -1.44352 5.29579 0
M  V30 1860 H 173.879 -2.29236 3.78026 0
M  V30 1861 N 172.938 -1.57226 0.108567 0
M  V30 1862 C 174.178 -1.96717 -0.555155 0
M  V30 1863 C 174.542 -0.990003 -1.64508 0
M  V30 1864 O 175.743 -1.2739 -2.36696 0
M  V30 1865 C 174.014 -3.40575 -1.08367 0
M  V30 1866 S 175.573 -4.02072 -1.75737 0
M  V30 1867 H 172.391 -0.687638 -0.180762 0
M  V30 1868 H 174.993 -1.94563 0.191172 0
M  V30 1869 H 173.697 -4.0945 -0.279092 0
M  V30 1870 H 173.228 -3.46356 -1.86551 0
M  V30 1871 H 175.243 -3.91977 -3.04251 0
M  V30 1872 N 174.416 0.165178 -1.56732 0
M  V30 1873 C 175.832 0.517174 -1.50988 0
M  V30 1874 C 176.032 1.84331 -0.813894 0
M  V30 1875 O 175.088 2.49672 -0.37682 0
M  V30 1876 C 176.401 0.544261 -2.95733 0
M  V30 1877 C 177.949 0.631039 -3.06573 0
M  V30 1878 C 178.424 0.68896 -4.52788 0
M  V30 1879 N 179.915 0.751683 -4.5706 0
M  V30 1880 C 180.65 0.817177 -5.67547 0
M  V30 1881 N 180.146 0.843129 -6.8765 0
M  V30 1882 N 181.939 0.856668 -5.55534 0
M  V30 1883 H 174.09 -0.704318 -2.00382 0
M  V30 1884 H 176.353 -0.254687 -0.913148 0
M  V30 1885 H 176.059 -0.361607 -3.49836 0
M  V30 1886 H 175.933 1.3886 -3.5071 0
M  V30 1887 H 178.32 1.52733 -2.52501 0
M  V30 1888 H 178.401 -0.240095 -2.54671 0
M  V30 1889 H 178.045 -0.2031 -5.07494 0
M  V30 1890 H 177.975 1.57633 -5.02454 0
M  V30 1891 H 180.466 0.739661 -3.70591 0
M  V30 1892 H 180.779 0.894448 -7.67606 0
M  V30 1893 H 179.124 0.811304 -6.90248 0
M  V30 1894 H 182.315 0.833437 -4.60621 0
M  V30 1895 H 182.488 0.904247 -6.4166 0
M  V30 1896 N 175.894 1.51508 0.433938 0
M  V30 1897 C 177.141 1.64345 1.18309 0
M  V30 1898 C 177.469 0.361315 1.91115 0
M  V30 1899 O 176.724 -0.654753 1.84422 0
M  V30 1900 C 177.023 2.79928 2.22205 0
M  V30 1901 C 176.689 4.19078 1.66387 0
M  V30 1902 C 175.351 4.56932 1.50887 0
M  V30 1903 C 177.703 5.05894 1.25381 0
M  V30 1904 C 175.031 5.79305 0.928608 0
M  V30 1905 C 177.383 6.2885 0.687823 0
M  V30 1906 C 176.047 6.65473 0.519755 0
M  V30 1907 H 175.317 0.601381 0.432923 0
M  V30 1908 H 177.964 1.85549 0.473676 0
M  V30 1909 H 176.269 2.52959 2.99197 0
M  V30 1910 H 177.966 2.87059 2.79997 0
M  V30 1911 H 174.556 3.89234 1.79428 0
M  V30 1912 H 178.74 4.77253 1.36175 0
M  V30 1913 H 173.996 6.06324 0.786186 0
M  V30 1914 H 178.17 6.95461 0.361581 0
M  V30 1915 H 175.797 7.6017 0.0679979 0
M  V30 1916 N 177.372 -0.689602 1.41712 0
M  V30 1917 C 178.335 -1.78521 1.43746 0
M  V30 1918 C 179.335 -1.57436 0.327191 0
M  V30 1919 O 180.525 -1.64 0.587348 0
M  V30 1920 C 177.657 -3.16971 1.25467 0
M  V30 1921 H 178.85 -1.78108 2.41283 0
M  V30 1922 H 176.403 -0.89781 1.27942 0
M  V30 1923 H 177.138 -3.23019 0.287948 0
M  V30 1924 H 176.923 -3.33678 2.05917 0
M  V30 1925 H 178.413 -3.96935 1.2974 0
M  V30 1926 N 178.85 -1.27639 -0.924453 0
M  V30 1927 C 179.798 -1.10485 -2.04685 0
M  V30 1928 C 180.792 -0.0270421 -1.69378 0
M  V30 1929 O 181.998 -0.185008 -1.79047 0
M  V30 1930 H 178.373 -0.340546 -0.670472 0
M  V30 1931 H 180.344 -2.05566 -2.16298 0
M  V30 1932 C 179.093 -0.772229 -3.39016 0
M  V30 1933 H 178.416 -1.59351 -3.66671 0
M  V30 1934 H 179.856 -0.692097 -4.18313 0
M  V30 1935 C 178.315 0.523554 -3.32807 0
M  V30 1936 O 178.845 1.55702 -3.70297 0
M  V30 1937 N 177.051 0.520363 -2.85903 0
M  V30 1938 H 176.598 -0.32107 -2.55591 0
M  V30 1939 H 176.556 1.38742 -2.82131 0
M  V30 1940 N 180.328 1.1314 -1.09713 0
M  V30 1941 C 181.556 1.88321 -0.856898 0
M  V30 1942 C 181.971 1.79276 0.592073 0
M  V30 1943 O 181.328 1.16142 1.40774 0
M  V30 1944 C 181.379 3.37812 -1.28706 0
M  V30 1945 O 181.1 3.46627 -2.67921 0
M  V30 1946 C 182.601 4.29952 -1.07964 0
M  V30 1947 H 179.821 0.596094 -0.308079 0
M  V30 1948 H 182.365 1.43205 -1.45988 0
M  V30 1949 H 180.52 3.805 -0.727912 0
M  V30 1950 H 180.934 4.39579 -2.8613 0
M  V30 1951 H 182.408 5.33159 -1.42986 0
M  V30 1952 H 182.885 4.39196 -0.0176577 0
M  V30 1953 H 183.491 3.93036 -1.62489 0
M  V30 1954 N 181.806 0.884767 1.30421 0
M  V30 1955 C 182.736 0.367574 2.30589 0
M  V30 1956 C 183.717 -0.549464 1.60981 0
M  V30 1957 O 184.902 -0.46336 1.88591 0
M  V30 1958 C 182.032 -0.418944 3.44764 0
M  V30 1959 C 180.986 0.406316 4.26067 0
M  V30 1960 C 180.312 -0.506793 5.32293 0
M  V30 1961 C 181.612 1.64832 4.95608 0
M  V30 1962 H 183.306 1.20462 2.74097 0
M  V30 1963 H 180.852 0.580695 1.31772 0
M  V30 1964 H 182.805 -0.791395 4.13902 0
M  V30 1965 H 181.529 -1.28964 3.0006 0
M  V30 1966 H 180.188 0.760903 3.58617 0
M  V30 1967 H 179.836 -1.37519 4.83836 0
M  V30 1968 H 179.536 0.0415828 5.87585 0
M  V30 1969 H 181.06 -0.875764 6.04287 0
M  V30 1970 H 182.474 1.34646 5.57264 0
M  V30 1971 H 180.871 2.13688 5.60765 0
M  V30 1972 H 181.941 2.39284 4.21748 0
M  V30 1973 N 183.284 -1.43765 0.645699 0
M  V30 1974 C 184.214 -2.33471 -0.0370477 0
M  V30 1975 C 185.195 -1.49042 -0.819779 0
M  V30 1976 O 186.38 -1.77726 -0.782758 0
M  V30 1977 C 183.51 -3.32311 -1.0093 0
M  V30 1978 C 182.464 -4.2667 -0.337201 0
M  V30 1979 C 181.79 -5.1549 -1.42037 0
M  V30 1980 C 183.09 -5.16657 0.765706 0
M  V30 1981 H 184.784 -2.90809 0.712069 0
M  V30 1982 H 182.33 -1.39834 0.343876 0
M  V30 1983 H 184.283 -3.9396 -1.49578 0
M  V30 1984 H 183.007 -2.73213 -1.78948 0
M  V30 1985 H 181.666 -3.66374 0.128771 0
M  V30 1986 H 181.314 -4.52735 -2.1918 0
M  V30 1987 H 181.014 -5.79438 -0.975966 0
M  V30 1988 H 182.538 -5.80012 -1.90838 0
M  V30 1989 H 183.952 -5.72158 0.361702 0
M  V30 1990 H 182.349 -5.89286 1.13413 0
M  V30 1991 H 183.419 -4.56796 1.62683 0
M  V30 1992 N 184.763 -0.387143 -1.52771 0
M  V30 1993 C 186.04 0.253197 -1.93954 0
M  V30 1994 C 186.42 1.64545 -1.32243 0
M  V30 1995 O 185.768 2.23191 -0.489699 0
M  V30 1996 C 185.978 0.281722 -3.47861 0
M  V30 1997 C 187.326 0.511715 -4.21505 0
M  V30 1998 O 188.35 0.362023 -3.54356 0
M  V30 1999 O 187.209 0.804847 -5.40541 0
M  V30 2000 H 184.303 0.156845 -0.811991 0
M  V30 2001 H 186.849 -0.441494 -1.63856 0
M  V30 2002 H 185.621 -0.693571 -3.85104 0
M  V30 2003 H 185.244 1.02142 -3.84256 0
M  V30 2004 N 186.241 1.57166 -0.116904 0
M  V30 2005 C 187.171 2.18222 0.830759 0
M  V30 2006 C 188.152 1.12167 1.27877 0
M  V30 2007 O 189.337 1.40394 1.34176 0
M  V30 2008 C 186.467 2.77996 2.08172 0
M  V30 2009 C 185.421 3.89614 1.77157 0
M  V30 2010 C 184.747 4.36187 3.09265 0
M  V30 2011 C 186.047 5.1181 1.04151 0
M  V30 2012 H 187.741 2.97664 0.321992 0
M  V30 2013 H 185.287 1.4318 0.153434 0
M  V30 2014 H 187.24 3.19366 2.74924 0
M  V30 2015 H 185.964 1.9584 2.6137 0
M  V30 2016 H 184.623 3.48816 1.12796 0
M  V30 2017 H 184.271 3.50893 3.60393 0
M  V30 2018 H 183.971 5.11455 2.89288 0
M  V30 2019 H 185.495 4.80207 3.77139 0
M  V30 2020 H 186.909 5.50214 1.61052 0
M  V30 2021 H 185.306 5.92648 0.942762 0
M  V30 2022 H 186.376 4.84892 0.0279022 0
M  V30 2023 N 187.719 -0.156864 1.56817 0
M  V30 2024 C 188.967 -0.869404 1.82444 0
M  V30 2025 C 189.288 -1.82147 0.69623 0
M  V30 2026 O 188.558 -1.93847 -0.28287 0
M  V30 2027 H 187.138 -0.324043 0.673056 0
M  V30 2028 H 189.8 -0.153224 1.94297 0
M  V30 2029 H 188.896 -1.43761 2.77019 0
M  V30 2030 N 189.197 -1.51736 -0.425897 0
M  V30 2031 C 190.446 -1.64201 -1.17136 0
M  V30 2032 C 190.759 -0.369705 -1.92074 0
M  V30 2033 O 191.965 -0.373898 -2.68913 0
M  V30 2034 C 190.421 -2.90035 -2.13091 0
M  V30 2035 C 190.029 -4.24312 -1.43747 0
M  V30 2036 C 191.773 -3.1186 -2.87999 0
M  V30 2037 C 189.68 -5.41285 -2.38253 0
M  V30 2038 H 188.61 -0.611624 -0.440944 0
M  V30 2039 H 191.261 -1.78212 -0.437328 0
M  V30 2040 H 189.643 -2.69684 -2.89977 0
M  V30 2041 H 190.817 -4.55086 -0.723408 0
M  V30 2042 H 189.132 -4.08456 -0.809465 0
M  V30 2043 H 191.729 -3.96427 -3.58817 0
M  V30 2044 H 192.072 -2.25403 -3.49999 0
M  V30 2045 H 192.605 -3.32605 -2.18217 0
M  V30 2046 H 189.344 -6.30037 -1.80925 0
M  V30 2047 H 188.864 -5.14872 -3.0768 0
M  V30 2048 H 190.543 -5.73694 -2.99139 0
M  V30 2049 N 190.675 0.682077 -1.42076 0
M  V30 2050 C 191.622 1.79578 -1.44984 0
M  V30 2051 C 192.592 1.6332 -0.302614 0
M  V30 2052 O 193.777 1.83978 -0.505633 0
M  V30 2053 C 190.917 3.1756 -1.35091 0
M  V30 2054 C 190.03 3.45156 -2.59791 0
M  V30 2055 C 189.165 4.72826 -2.42093 0
M  V30 2056 C 188.204 4.93433 -3.62202 0
M  V30 2057 N 187.341 6.12338 -3.43491 0
M  V30 2058 H 192.181 1.76427 -2.40161 0
M  V30 2059 H 189.718 0.861376 -1.19242 0
M  V30 2060 H 191.676 3.97287 -1.27354 0
M  V30 2061 H 190.306 3.19854 -0.435133 0
M  V30 2062 H 189.358 2.59736 -2.77923 0
M  V30 2063 H 190.67 3.5628 -3.49094 0
M  V30 2064 H 189.824 5.60631 -2.319 0
M  V30 2065 H 188.563 4.63973 -1.50268 0
M  V30 2066 H 187.568 4.04073 -3.72834 0
M  V30 2067 H 188.793 5.04136 -4.54998 0
M  V30 2068 H 186.739 6.04672 -2.54377 0
M  V30 2069 H 186.656 6.2429 -4.26377 0
M  V30 2070 H 187.924 7.02841 -3.37097 0
M  V30 2071 N 192.153 1.28127 0.917671 0
M  V30 2072 C 193.1 1.11717 2.0196 0
M  V30 2073 C 194.07 0.0153929 1.66093 0
M  V30 2074 O 195.255 0.179596 1.89953 0
M  V30 2075 C 192.395 0.780927 3.36148 0
M  V30 2076 C 191.508 1.96135 3.84909 0
M  V30 2077 C 190.643 1.56609 5.0759 0
M  V30 2078 C 189.682 2.71339 5.48673 0
M  V30 2079 N 188.819 2.32332 6.62545 0
M  V30 2080 H 193.659 2.06003 2.15329 0
M  V30 2081 H 191.196 1.02535 1.05475 0
M  V30 2082 H 193.154 0.56675 4.13333 0
M  V30 2083 H 191.784 -0.124998 3.22558 0
M  V30 2084 H 190.836 2.28777 3.03916 0
M  V30 2085 H 192.148 2.82165 4.1132 0
M  V30 2086 H 191.302 1.31374 5.92305 0
M  V30 2087 H 190.041 0.677014 4.82978 0
M  V30 2088 H 189.046 2.97276 4.62501 0
M  V30 2089 H 190.271 3.60882 5.75274 0
M  V30 2090 H 188.217 1.45889 6.39572 0
M  V30 2091 H 188.134 3.11899 6.88662 0
M  V30 2092 H 189.402 2.10371 7.50576 0
M  V30 2093 N 193.631 -1.12557 1.10312 0
M  V30 2094 C 194.879 -1.83675 0.843091 0
M  V30 2095 C 195.2 -1.84435 -0.633131 0
M  V30 2096 O 194.47 -1.30657 -1.45964 0
M  V30 2097 H 193.05 -0.680138 0.308904 0
M  V30 2098 H 195.712 -1.36301 1.39313 0
M  V30 2099 H 194.808 -2.87908 1.2048 0
M  V30 2100 N 195.109 -0.891671 -1.2995 0
M  V30 2101 C 196.386 -0.433307 -1.9074 0
M  V30 2102 C 196.766 1.08646 -1.80995 0
M  V30 2103 O 196.114 1.92476 -1.23147 0
M  V30 2104 C 196.324 -0.938895 -3.36134 0
M  V30 2105 C 197.672 -0.977829 -4.13187 0
M  V30 2106 O 198.696 -0.886015 -3.45005 0
M  V30 2107 O 197.555 -1.11453 -5.35015 0
M  V30 2108 H 194.649 -0.133699 -0.816121 0
M  V30 2109 H 197.195 -0.981011 -1.38471 0
M  V30 2110 H 195.967 -1.98281 -3.37343 0
M  V30 2111 H 195.59 -0.37074 -3.95868 0
M  V30 2112 N 196.587 1.43421 -0.653314 0
M  V30 2113 C 197.833 2.02111 -0.166992 0
M  V30 2114 C 198.166 1.51423 1.21592 0
M  V30 2115 O 197.441 0.707389 1.8118 0
M  V30 2116 C 197.724 3.5966 -0.177948 0
M  V30 2117 C 197.577 4.20579 -1.59478 0
M  V30 2118 C 198.896 4.37413 0.4856 0
M  V30 2119 H 196.015 0.734374 -0.0621557 0
M  V30 2120 H 198.657 1.70717 -0.834016 0
M  V30 2121 H 196.807 3.86537 0.390032 0
M  V30 2122 H 198.479 4.04732 -2.21336 0
M  V30 2123 H 196.722 3.77226 -2.14204 0
M  V30 2124 H 197.393 5.29665 -1.5543 0
M  V30 2125 H 199.869 4.161 0.00234528 0
M  V30 2126 H 198.745 5.47075 0.447207 0
M  V30 2127 H 199.006 4.13672 1.55974 0
M  V30 2128 N 198.065 0.39524 1.52563 0
M  V30 2129 C 199.311 -0.185318 2.01952 0
M  V30 2130 C 199.644 -1.45964 1.28095 0
M  V30 2131 O 198.919 -1.90689 0.38315 0
M  V30 2132 C 199.202 -0.447193 3.57312 0
M  V30 2133 C 199.055 0.842828 4.41833 0
M  V30 2134 C 200.374 -1.23529 4.22408 0
M  V30 2135 H 197.493 -0.0658788 0.73405 0
M  V30 2136 H 200.135 0.525975 1.82575 0
M  V30 2137 H 198.285 -1.05312 3.73954 0
M  V30 2138 H 199.957 1.4795 4.36931 0
M  V30 2139 H 198.2 1.45686 4.08605 0
M  V30 2140 H 198.871 0.614165 5.48573 0
M  V30 2141 H 201.347 -0.722445 4.0978 0
M  V30 2142 H 200.223 -1.38727 5.3108 0
M  V30 2143 H 200.484 -2.25213 3.80436 0
M  V30 2144 N 199.544 -1.57102 0.125237 0
M  V30 2145 C 200.507 -2.14471 -0.80838 0
M  V30 2146 C 201.507 -1.0811 -1.19033 0
M  V30 2147 O 202.697 -1.33856 -1.11482 0
M  V30 2148 C 199.829 -2.69005 -2.09402 0
M  V30 2149 H 201.022 -2.98297 -0.309696 0
M  V30 2150 H 198.575 -1.55807 -0.124051 0
M  V30 2151 H 199.31 -1.88785 -2.63687 0
M  V30 2152 H 199.095 -3.46799 -1.82957 0
M  V30 2153 H 200.585 -3.13278 -2.76128 0
M  V30 2154 N 201.022 0.148545 -1.56898 0
M  V30 2155 C 202.271 0.85984 -1.82454 0
M  V30 2156 C 202.584 1.82406 -0.706229 0
M  V30 2157 O 203.79 2.57938 -0.847349 0
M  V30 2158 C 202.246 1.57967 -3.2338 0
M  V30 2159 C 201.854 0.65794 -4.43142 0
M  V30 2160 C 203.598 2.27784 -3.58211 0
M  V30 2161 C 201.505 1.3793 -5.75091 0
M  V30 2162 H 200.435 0.324834 -0.68044 0
M  V30 2163 H 203.086 0.112588 -1.83154 0
M  V30 2164 H 201.468 2.37249 -3.17063 0
M  V30 2165 H 202.642 -0.0995497 -4.60692 0
M  V30 2166 H 200.957 0.0682643 -4.16344 0
M  V30 2167 H 203.554 2.8239 -4.54048 0
M  V30 2168 H 203.897 3.04204 -2.84193 0
M  V30 2169 H 204.43 1.55421 -3.66182 0
M  V30 2170 H 201.169 0.656982 -6.52199 0
M  V30 2171 H 200.689 2.10954 -5.61479 0
M  V30 2172 H 202.368 1.92063 -6.17835 0
M  V30 2173 N 202.5 1.5196 0.417844 0
M  V30 2174 C 203.73 1.69181 1.18581 0
M  V30 2175 C 204.138 0.397104 1.84986 0
M  V30 2176 O 203.481 -0.636011 1.72339 0
M  V30 2177 C 203.543 2.76497 2.29759 0
M  V30 2178 C 203.207 4.18514 1.83563 0
M  V30 2179 C 204.204 5.02648 1.32821 0
M  V30 2180 C 201.889 4.64708 1.90661 0
M  V30 2181 C 203.883 6.31044 0.897894 0
M  V30 2182 C 201.57 5.93096 1.47241 0
M  V30 2183 C 202.568 6.76093 0.968891 0
M  V30 2184 O 202.256 8.02078 0.540924 0
M  V30 2185 H 201.988 0.570457 0.362705 0
M  V30 2186 H 204.542 1.99249 0.498885 0
M  V30 2187 H 202.772 2.41786 3.01789 0
M  V30 2188 H 204.461 2.82403 2.91553 0
M  V30 2189 H 205.227 4.68154 1.26716 0
M  V30 2190 H 201.106 4.00216 2.28797 0
M  V30 2191 H 204.65 6.95776 0.504192 0
M  V30 2192 H 200.547 6.271 1.53022 0
M  V30 2193 H 201.315 8.15794 0.66502 0
M  V30 2194 N 203.978 -0.674533 1.42435 0
M  V30 2195 C 204.911 -1.79924 1.40366 0
M  V30 2196 C 205.889 -1.60378 0.267899 0
M  V30 2197 O 207.073 -1.82847 0.458159 0
M  V30 2198 C 204.2 -3.16927 1.19478 0
M  V30 2199 C 203.246 -3.55221 2.36051 0
M  V30 2200 S 204.079 -3.5762 3.98583 0
M  V30 2201 C 205.235 -4.97315 3.80038 0
M  V30 2202 H 205.468 -1.81405 2.35541 0
M  V30 2203 H 203.001 -0.845221 1.29211 0
M  V30 2204 H 204.959 -3.96007 1.08114 0
M  V30 2205 H 203.62 -3.13031 0.258883 0
M  V30 2206 H 202.813 -4.54804 2.17185 0
M  V30 2207 H 202.415 -2.83502 2.43932 0
M  V30 2208 H 204.707 -5.85401 3.41045 0
M  V30 2209 H 205.65 -5.21228 4.79298 0
M  V30 2210 H 206.058 -4.69845 3.12899 0
M  V30 2211 N 205.456 -1.28612 -0.910864 0
M  V30 2212 C 206.867 -1.14406 -1.47541 0
M  V30 2213 C 207.218 0.264901 -1.94403 0
M  V30 2214 O 206.343 1.15942 -1.82719 0
M  V30 2215 C 206.938 -2.07073 -2.68153 0
M  V30 2216 C 205.497 -1.96923 -3.20778 0
M  V30 2217 C 204.644 -1.98646 -1.93481 0
M  V30 2218 H 207.595 -1.41259 -0.723291 0
M  V30 2219 H 207.616 -1.63642 -3.43514 0
M  V30 2220 H 207.128 -3.09611 -2.34015 0
M  V30 2221 H 205.229 -0.97433 -3.59635 0
M  V30 2222 H 205.342 -2.84026 -3.85832 0
M  V30 2223 H 203.706 -1.43093 -2.10705 0
M  V30 2224 H 204.489 -3.02868 -1.61634 0
M  V30 2225 N 206.934 1.1197 -1.10907 0
M  V30 2226 C 207.867 2.16998 -0.706192 0
M  V30 2227 C 208.845 1.59903 0.294897 0
M  V30 2228 O 210.029 1.87513 0.192636 0
M  V30 2229 C 207.156 3.38673 -0.0427664 0
M  V30 2230 C 206.202 4.14414 -1.00811 0
M  V30 2231 S 207.035 4.72079 -2.52789 0
M  V30 2232 C 208.191 5.97083 -1.87731 0
M  V30 2233 H 208.424 2.50837 -1.59587 0
M  V30 2234 H 205.957 1.23508 -0.926555 0
M  V30 2235 H 207.915 4.09142 0.333668 0
M  V30 2236 H 206.576 3.03105 0.823788 0
M  V30 2237 H 205.769 5.016 -0.491259 0
M  V30 2238 H 205.371 3.49678 -1.3267 0
M  V30 2239 H 207.663 6.66599 -1.21044 0
M  V30 2240 H 208.606 6.53403 -2.72892 0
M  V30 2241 H 209.014 5.4837 -1.33979 0
M  V30 2242 N 208.412 0.89855 1.29475 0
M  V30 2243 C 209.658 0.524658 1.95896 0
M  V30 2244 C 209.991 -0.926468 1.70676 0
M  V30 2245 O 209.266 -1.65665 1.01908 0
M  V30 2246 C 209.549 0.81633 3.50725 0
M  V30 2247 C 209.402 2.31907 3.85408 0
M  V30 2248 C 210.721 0.302038 4.39062 0
M  V30 2249 H 207.84 0.19209 0.711527 0
M  V30 2250 H 210.482 1.12502 1.53112 0
M  V30 2251 H 208.632 0.305369 3.87298 0
M  V30 2252 H 210.304 2.89949 3.58786 0
M  V30 2253 H 208.547 2.78027 3.32992 0
M  V30 2254 H 209.218 2.47373 4.93468 0
M  V30 2255 H 211.694 0.739551 4.09475 0
M  V30 2256 H 210.57 0.535331 5.46283 0
M  V30 2257 H 210.831 -0.797216 4.34853 0
M  V30 2258 N 209.89 -1.43072 0.660911 0
M  V30 2259 C 211.301 -1.84932 0.256348 0
M  V30 2260 C 211.652 -1.55325 -1.19868 0
M  V30 2261 O 210.777 -1.00607 -1.91591 0
M  V30 2262 C 211.372 -3.35684 0.458475 0
M  V30 2263 C 209.931 -3.76245 0.108161 0
M  V30 2264 C 209.078 -2.66749 0.757641 0
M  V30 2265 H 212.029 -1.33116 0.864051 0
M  V30 2266 H 212.05 -3.79365 -0.293683 0
M  V30 2267 H 211.562 -3.572 1.51755 0
M  V30 2268 H 209.663 -3.60338 -0.948014 0
M  V30 2269 H 209.776 -4.76058 0.538992 0
M  V30 2270 H 208.14 -2.53989 0.190185 0
M  V30 2271 H 208.923 -2.91092 1.81989 0
M  V30 2272 N 211.368 -0.403325 -1.52352 0
M  V30 2273 C 212.278 0.432009 -2.30588 0
M  V30 2274 C 213.294 1.05884 -1.38075 0
M  V30 2275 O 214.47 1.06161 -1.71148 0
M  V30 2276 C 211.535 1.53669 -3.10784 0
M  V30 2277 C 210.596 0.933525 -4.19027 0
M  V30 2278 C 209.829 1.98557 -4.9539 0
M  V30 2279 O 210.052 3.20283 -4.71991 0
M  V30 2280 O 208.986 1.59504 -5.80381 0
M  V30 2281 H 212.812 -0.205739 -3.03002 0
M  V30 2282 H 210.397 -0.166675 -1.48467 0
M  V30 2283 H 212.279 2.17814 -3.60742 0
M  V30 2284 H 210.954 2.15915 -2.41169 0
M  V30 2285 H 209.861 0.254954 -3.7323 0
M  V30 2286 H 211.194 0.35508 -4.90918 0
M  V30 2287 N 212.846 1.57033 -0.133567 0
M  V30 2288 C 213.809 2.14897 0.796995 0
M  V30 2289 C 214.809 1.0874 1.18458 0
M  V30 2290 O 215.999 1.34446 1.1077 0
M  V30 2291 C 213.131 2.70112 2.07973 0
M  V30 2292 H 214.324 2.98457 0.293873 0
M  V30 2293 H 211.877 1.55871 0.115787 0
M  V30 2294 H 212.612 1.9018 2.62682 0
M  V30 2295 H 212.397 3.47764 1.81115 0
M  V30 2296 H 213.887 3.14738 2.74462 0
M  V30 2297 N 214.325 -0.140222 1.56975 0
M  V30 2298 C 215.288 -1.15689 1.97861 0
M  V30 2299 C 216.288 -1.3549 0.865974 0
M  V30 2300 O 217.478 -1.32367 1.13246 0
M  V30 2301 C 214.61 -2.51582 2.30042 0
M  V30 2302 H 215.803 -0.805971 2.88867 0
M  V30 2303 H 213.356 -0.383801 1.51515 0
M  V30 2304 H 214.091 -2.91632 1.41849 0
M  V30 2305 H 213.876 -2.38569 3.11171 0
M  V30 2306 H 215.366 -3.24792 2.62488 0
M  V30 2307 N 215.803 -1.52179 -0.40978 0
M  V30 2308 C 217.049 -1.66453 -1.15851 0
M  V30 2309 C 217.382 -0.392972 -1.90182 0
M  V30 2310 O 216.657 0.608579 -1.84734 0
M  V30 2311 C 216.94 -2.88612 -2.15349 0
M  V30 2312 C 216.793 -4.25815 -1.44918 0
M  V30 2313 C 218.112 -3.06294 -3.16026 0
M  V30 2314 H 215.231 -0.60575 -0.419805 0
M  V30 2315 H 217.873 -1.84732 -0.444314 0
M  V30 2316 H 216.023 -2.73158 -2.76255 0
M  V30 2317 H 217.695 -4.52995 -0.871365 0
M  V30 2318 H 215.938 -4.27247 -0.751159 0
M  V30 2319 H 216.609 -5.07337 -2.17516 0
M  V30 2320 H 219.085 -3.20641 -2.65195 0
M  V30 2321 H 217.961 -3.93283 -3.8291 0
M  V30 2322 H 218.222 -2.19579 -3.83715 0
M  V30 2323 N 217.281 0.66697 -1.42791 0
M  V30 2324 C 218.244 1.76211 -1.46568 0
M  V30 2325 C 219.244 1.56896 -0.352196 0
M  V30 2326 O 220.434 1.63044 -0.613364 0
M  V30 2327 C 217.566 3.14935 -1.30494 0
M  V30 2328 H 218.759 1.74247 -2.44086 0
M  V30 2329 H 216.312 0.877342 -1.29354 0
M  V30 2330 H 217.047 3.2252 -0.339301 0
M  V30 2331 H 216.832 3.30359 -2.11199 0
M  V30 2332 H 218.322 3.94821 -1.36038 0
M  V30 2333 N 218.759 1.29093 0.90403 0
M  V30 2334 C 219.692 1.08176 2.00931 0
M  V30 2335 C 220.67 -0.005083 1.62599 0
M  V30 2336 O 221.854 0.144765 1.87943 0
M  V30 2337 C 218.981 0.645897 3.32484 0
M  V30 2338 C 218.027 1.73081 3.89801 0
M  V30 2339 S 218.86 3.32905 4.19446 0
M  V30 2340 C 220.016 2.91176 5.54046 0
M  V30 2341 H 220.249 2.01752 2.18365 0
M  V30 2342 H 217.782 1.13191 1.0501 0
M  V30 2343 H 219.74 0.401131 4.08535 0
M  V30 2344 H 218.401 -0.270188 3.12936 0
M  V30 2345 H 217.594 1.37768 4.84805 0
M  V30 2346 H 217.196 1.92888 3.20422 0
M  V30 2347 H 219.488 2.37952 6.34338 0
M  V30 2348 H 220.431 3.85014 5.94281 0
M  V30 2349 H 220.839 2.296 5.15698 0
M  V30 2350 N 220.237 -1.11381 1.11499 0
M  V30 2351 C 221.167 -2.19509 0.796125 0
M  V30 2352 C 222.148 -1.68458 -0.235796 0
M  V30 2353 O 223.333 -1.93947 -0.0991344 0
M  V30 2354 C 220.463 -3.46475 0.239205 0
M  V30 2355 C 219.417 -4.10744 1.20307 0
M  V30 2356 C 218.743 -5.32293 0.50683 0
M  V30 2357 C 220.043 -4.55597 2.55399 0
M  V30 2358 H 221.737 -2.46439 1.70024 0
M  V30 2359 H 219.283 -1.18446 0.818935 0
M  V30 2360 H 221.236 -4.214 0.00392006 0
M  V30 2361 H 219.96 -3.19006 -0.700206 0
M  V30 2362 H 218.619 -3.37813 1.42399 0
M  V30 2363 H 218.267 -5.01095 -0.437408 0
M  V30 2364 H 217.967 -5.76243 1.1497 0
M  V30 2365 H 219.491 -6.09956 0.280351 0
M  V30 2366 H 220.905 -5.21841 2.37391 0
M  V30 2367 H 219.302 -5.10363 3.15673 0
M  V30 2368 H 220.372 -3.69013 3.14575 0
M  V30 2369 N 221.715 -0.905404 -1.28997 0
M  V30 2370 C 222.678 -0.392253 -2.25819 0
M  V30 2371 C 223.678 0.476753 -1.5357 0
M  V30 2372 O 224.868 0.280994 -1.71919 0
M  V30 2373 C 222 0.438588 -3.38067 0
M  V30 2374 H 223.193 -1.24743 -2.72725 0
M  V30 2375 H 220.746 -0.684051 -1.40536 0
M  V30 2376 H 221.481 1.31352 -2.96508 0
M  V30 2377 H 221.266 -0.184167 -3.91667 0
M  V30 2378 H 222.756 0.78873 -4.10084 0
M  V30 2379 N 223.193 1.4272 -0.668489 0
M  V30 2380 C 224.433 2.03497 -0.19194 0
M  V30 2381 C 224.797 1.51684 1.17712 0
M  V30 2382 O 225.998 2.04205 1.74796 0
M  V30 2383 C 224.269 3.56734 -0.218032 0
M  V30 2384 S 225.828 4.38395 0.188438 0
M  V30 2385 H 222.646 0.706542 -0.0794959 0
M  V30 2386 H 225.248 1.74563 -0.880235 0
M  V30 2387 H 223.952 3.91943 -1.2169 0
M  V30 2388 H 223.483 3.90333 0.490303 0
M  V30 2389 H 225.498 4.75345 1.42345 0
M  V30 2390 N 224.671 0.411399 1.52136 0
M  V30 2391 C 225.634 -0.401089 2.25663 0
M  V30 2392 C 226.634 -0.971732 1.28117 0
M  V30 2393 O 227.824 -0.850254 1.52041 0
M  V30 2394 C 224.956 -1.56483 3.02863 0
M  V30 2395 H 226.149 0.24295 2.98914 0
M  V30 2396 H 223.702 0.163968 1.55438 0
M  V30 2397 H 224.437 -2.24567 2.33967 0
M  V30 2398 H 224.222 -1.16211 3.74483 0
M  V30 2399 H 225.712 -2.13951 3.58629 0
M  V30 2400 N 226.149 -1.5696 0.141893 0
M  V30 2401 C 227.565 -1.58151 -0.21456 0
M  V30 2402 C 227.765 -1.1559 -1.65049 0
M  V30 2403 O 226.821 -0.853832 -2.37626 0
M  V30 2404 C 228.134 -3.00674 0.0395576 0
M  V30 2405 C 229.682 -3.1299 -0.0245529 0
M  V30 2406 C 230.157 -4.57554 0.202167 0
M  V30 2407 N 231.648 -4.62961 0.148919 0
M  V30 2408 C 232.383 -5.7262 0.298924 0
M  V30 2409 N 231.879 -6.90947 0.50637 0
M  V30 2410 N 233.672 -5.61601 0.236886 0
M  V30 2411 H 225.823 -1.8292 1.07953 0
M  V30 2412 H 228.086 -0.846425 0.42693 0
M  V30 2413 H 227.792 -3.36183 1.03315 0
M  V30 2414 H 227.666 -3.70981 -0.682143 0
M  V30 2415 H 230.053 -2.77326 -1.00869 0
M  V30 2416 H 230.134 -2.4518 0.729396 0
M  V30 2417 H 229.778 -4.93922 1.18338 0
M  V30 2418 H 229.708 -5.23484 -0.572044 0
M  V30 2419 H 232.199 -3.77899 -0.00697015 0
M  V30 2420 H 232.512 -7.7038 0.611076 0
M  V30 2421 H 230.857 -6.92878 0.542628 0
M  V30 2422 H 234.048 -4.68039 0.0756209 0
M  V30 2423 H 234.221 -6.47015 0.357227 0
M  V30 2424 N 227.627 0.131896 -1.57047 0
M  V30 2425 C 228.876 0.84044 -1.83356 0
M  V30 2426 C 229.189 1.81646 -0.725535 0
M  V30 2427 O 230.395 2.57025 -0.874659 0
M  V30 2428 C 228.851 1.54528 -3.25037 0
M  V30 2429 C 228.459 0.610902 -4.43815 0
M  V30 2430 C 230.203 2.23972 -3.60606 0
M  V30 2431 C 228.11 1.31823 -5.76521 0
M  V30 2432 H 227.04 0.317599 -0.683847 0
M  V30 2433 H 229.691 0.0931561 -1.83263 0
M  V30 2434 H 228.073 2.33873 -3.19561 0
M  V30 2435 H 229.247 -0.148407 -4.60561 0
M  V30 2436 H 227.562 0.0241016 -4.16393 0
M  V30 2437 H 230.159 2.77558 -4.57018 0
M  V30 2438 H 230.502 3.01173 -2.87403 0
M  V30 2439 H 231.035 1.51529 -3.6781 0
M  V30 2440 H 227.774 0.587771 -6.52859 0
M  V30 2441 H 227.294 2.04987 -5.63685 0
M  V30 2442 H 228.973 1.855 -6.19838 0
M  V30 2443 N 229.106 1.52395 0.401703 0
M  V30 2444 C 230.354 1.66488 1.14569 0
M  V30 2445 C 230.675 0.400897 1.90835 0
M  V30 2446 O 229.945 -0.584415 1.8698 0
M  V30 2447 H 228.525 0.613672 0.425929 0
M  V30 2448 H 231.187 1.89464 0.457093 0
M  V30 2449 H 230.283 2.50942 1.85566 0
M  V30 2450 N 230.584 -0.659388 1.43143 0
M  V30 2451 C 231.547 -1.75432 1.47501 0
M  V30 2452 C 232.547 -1.56707 0.360512 0
M  V30 2453 O 233.737 -1.62717 0.622002 0
M  V30 2454 C 230.869 -3.14239 1.32162 0
M  V30 2455 H 232.062 -1.7295 2.45006 0
M  V30 2456 H 229.615 -0.870469 1.29817 0
M  V30 2457 H 230.35 -3.22336 0.356401 0
M  V30 2458 H 230.135 -3.29235 2.12948 0
M  V30 2459 H 231.625 -3.94094 1.3813 0
M  V30 2460 N 232.062 -1.29571 -0.897171 0
M  V30 2461 C 233.308 -1.17863 -1.65034 0
M  V30 2462 C 233.641 0.268729 -1.92332 0
M  V30 2463 O 232.916 1.19378 -1.53555 0
M  V30 2464 C 233.199 -1.995 -2.99786 0
M  V30 2465 C 233.052 -3.5239 -2.79538 0
M  V30 2466 C 234.371 -1.82335 -4.00552 0
M  V30 2467 H 231.49 -0.429528 -0.598895 0
M  V30 2468 H 234.132 -1.59072 -1.03905 0
M  V30 2469 H 232.282 -1.64485 -3.51962 0
M  V30 2470 H 233.954 -3.97401 -2.34244 0
M  V30 2471 H 232.197 -3.77187 -2.14273 0
M  V30 2472 H 232.868 -4.04787 -3.75302 0
M  V30 2473 H 235.344 -2.12924 -3.57495 0
M  V30 2474 H 234.22 -2.41801 -4.92771 0
M  V30 2475 H 234.481 -0.779209 -4.35179 0
M  V30 2476 N 233.54 1.10788 -1.12088 0
M  V30 2477 C 234.49 2.15158 -0.754401 0
M  V30 2478 C 235.474 1.59026 0.244846 0
M  V30 2479 O 236.666 1.76927 0.0509097 0
M  V30 2480 C 233.795 3.42677 -0.206657 0
M  V30 2481 C 232.881 4.05751 -1.23398 0
M  V30 2482 N 233.272 4.43582 -2.43041 0
M  V30 2483 C 231.57 4.32764 -1.07848 0
M  V30 2484 C 232.271 4.93085 -3.08613 0
M  V30 2485 N 231.247 4.89664 -2.36072 0
M  V30 2486 H 235.049 2.42195 -1.6649 0
M  V30 2487 H 232.563 1.27872 -1.00112 0
M  V30 2488 H 234.56 4.16834 0.0740646 0
M  V30 2489 H 233.22 3.17101 0.698342 0
M  V30 2490 H 234.231 4.35395 -2.80449 0
M  V30 2491 H 230.908 4.16863 -0.230483 0
M  V30 2492 H 232.298 5.31933 -4.10483 0
M  V30 2493 N 235.018 0.912232 1.28515 0
M  V30 2494 C 236.243 0.559774 1.99703 0
M  V30 2495 C 236.668 -0.851393 1.67729 0
M  V30 2496 O 236.026 -1.56875 0.908834 0
M  V30 2497 C 236.074 0.773874 3.52198 0
M  V30 2498 O 235.178 -0.167842 4.12058 0
M  V30 2499 H 234.519 0.21723 0.627461 0
M  V30 2500 H 237.049 1.22725 1.63706 0
M  V30 2501 H 237.059 0.683386 4.02236 0
M  V30 2502 H 235.734 1.80261 3.74805 0
M  V30 2503 H 234.311 -0.0287509 3.72889 0
M  V30 2504 N 236.496 -1.42363 0.676048 0
M  V30 2505 C 237.742 -2.0182 0.199125 0
M  V30 2506 C 238.075 -1.53339 -1.19168 0
M  V30 2507 O 237.35 -0.736124 -1.80032 0
M  V30 2508 C 237.633 -3.59331 0.235144 0
M  V30 2509 C 237.486 -4.17989 1.66149 0
M  V30 2510 C 238.805 -4.3813 -0.41595 0
M  V30 2511 H 235.924 -0.733293 0.0738311 0
M  V30 2512 H 238.566 -1.69368 0.86107 0
M  V30 2513 H 236.716 -3.87109 -0.328487 0
M  V30 2514 H 238.388 -4.0116 2.27747 0
M  V30 2515 H 236.631 -3.7377 2.20178 0
M  V30 2516 H 237.302 -5.27126 1.63837 0
M  V30 2517 H 239.778 -4.16051 0.0638529 0
M  V30 2518 H 238.654 -5.47717 -0.360115 0
M  V30 2519 H 238.915 -4.16101 -1.49373 0
M  V30 2520 N 237.974 -0.419461 -1.51915 0
M  V30 2521 C 239.223 0.154346 -2.01109 0
M  V30 2522 C 239.536 1.45338 -1.30905 0
M  V30 2523 O 240.742 2.10906 -1.7097 0
M  V30 2524 C 239.198 0.325615 -3.58424 0
M  V30 2525 C 238.806 -0.961934 -4.37551 0
M  V30 2526 C 240.55 0.854155 -4.15818 0
M  V30 2527 C 238.457 -0.757287 -5.86531 0
M  V30 2528 H 237.387 0.0614563 -0.751491 0
M  V30 2529 H 240.038 -0.54649 -1.75173 0
M  V30 2530 H 238.42 1.08903 -3.80731 0
M  V30 2531 H 239.594 -1.7323 -4.26999 0
M  V30 2532 H 237.909 -1.41766 -3.91524 0
M  V30 2533 H 240.506 1.02346 -5.24814 0
M  V30 2534 H 240.849 1.83172 -3.73837 0
M  V30 2535 H 241.382 0.149528 -3.97519 0
M  V30 2536 H 238.121 -1.70671 -6.32892 0
M  V30 2537 H 237.641 -0.0264061 -5.99794 0
M  V30 2538 H 239.32 -0.403482 -6.45741 0
M  V30 2539 N 239.452 1.56882 -0.150215 0
M  V30 2540 C 240.699 1.96228 0.500093 0
M  V30 2541 C 241.027 1.03522 1.64661 0
M  V30 2542 O 240.282 0.0650683 1.95592 0
M  V30 2543 C 240.581 3.41801 1.04437 0
M  V30 2544 C 240.247 4.50897 0.0159671 0
M  V30 2545 C 238.909 4.8046 -0.266731 0
M  V30 2546 C 241.261 5.16703 -0.683192 0
M  V30 2547 C 238.589 5.73135 -1.25434 0
M  V30 2548 C 240.941 6.10441 -1.65964 0
M  V30 2549 C 239.605 6.38382 -1.95 0
M  V30 2550 H 238.875 0.718048 0.182997 0
M  V30 2551 H 241.522 1.90019 -0.237724 0
M  V30 2552 H 239.827 3.44857 1.85959 0
M  V30 2553 H 241.524 3.69573 1.55618 0
M  V30 2554 H 238.114 4.27891 0.246485 0
M  V30 2555 H 242.298 4.93993 -0.477983 0
M  V30 2556 H 237.554 5.93074 -1.48571 0
M  V30 2557 H 241.728 6.60507 -2.20689 0
M  V30 2558 H 239.355 7.09996 -2.71679 0
M  V30 2559 N 240.93 -0.123565 1.57115 0
M  V30 2560 C 242.178 -0.83051 1.84247 0
M  V30 2561 C 242.499 -1.80629 0.73471 0
M  V30 2562 O 241.769 -1.94403 -0.241688 0
M  V30 2563 H 240.349 -0.309694 0.679778 0
M  V30 2564 H 243.011 -0.111976 1.94578 0
M  V30 2565 H 242.107 -1.37852 2.80006 0
M  V30 2566 N 242.408 -1.52605 -0.393616 0
M  V30 2567 C 243.656 -1.67093 -1.13685 0
M  V30 2568 C 243.977 -0.411011 -1.90619 0
M  V30 2569 O 243.247 0.574491 -1.87287 0
M  V30 2570 H 241.827 -0.615923 -0.422668 0
M  V30 2571 H 244.489 -1.89704 -0.447039 0
M  V30 2572 H 243.585 -2.51922 -1.84232 0
M  V30 2573 N 243.887 0.651787 -1.4349 0
M  V30 2574 C 245.134 1.41167 -1.45183 0
M  V30 2575 C 245.462 1.94349 -0.0766601 0
M  V30 2576 O 244.717 1.72804 0.918555 0
M  V30 2577 C 245.016 2.60914 -2.44251 0
M  V30 2578 C 244.682 2.26142 -3.9009 0
M  V30 2579 C 243.344 2.16371 -4.2981 0
M  V30 2580 C 245.696 1.98334 -4.81989 0
M  V30 2581 C 243.024 1.7695 -5.5938 0
M  V30 2582 C 245.376 1.6041 -6.11924 0
M  V30 2583 C 244.04 1.49166 -6.5062 0
M  V30 2584 H 243.31 0.516566 -0.531263 0
M  V30 2585 H 245.957 0.741099 -1.76579 0
M  V30 2586 H 244.262 3.3311 -2.06265 0
M  V30 2587 H 245.959 3.19127 -2.42815 0
M  V30 2588 H 242.549 2.34658 -3.58655 0
M  V30 2589 H 246.733 2.04803 -4.52072 0
M  V30 2590 H 241.989 1.66831 -5.88198 0
M  V30 2591 H 246.163 1.37925 -6.82605 0
M  V30 2592 H 243.79 1.1839 -7.50925 0
M  V30 2593 N 245.365 1.30045 0.890287 0
M  V30 2594 C 246.59 1.21598 1.68014 0
M  V30 2595 C 247.015 -0.218678 1.86825 0
M  V30 2596 O 246.373 -1.15756 1.39536 0
M  V30 2597 C 246.421 1.94434 3.03691 0
M  V30 2598 O 245.525 1.2678 3.92429 0
M  V30 2599 H 244.866 0.420856 0.513592 0
M  V30 2600 H 247.396 1.71775 1.11151 0
M  V30 2601 H 247.406 2.03251 3.5377 0
M  V30 2602 H 246.081 2.98777 2.89318 0
M  V30 2603 H 244.658 1.26282 3.50866 0
M  V30 2604 N 246.843 -1.10192 1.12674 0
M  V30 2605 C 248.254 -1.63707 0.897604 0
M  V30 2606 C 248.605 -1.87812 -0.567546 0
M  V30 2607 O 247.73 -1.62196 -1.43253 0
M  V30 2608 C 248.325 -2.974 1.62292 0
M  V30 2609 C 246.884 -3.47772 1.43986 0
M  V30 2610 C 246.031 -2.22332 1.65722 0
M  V30 2611 H 248.982 -0.936587 1.28116 0
M  V30 2612 H 249.003 -3.64986 1.07541 0
M  V30 2613 H 248.515 -2.79824 2.68924 0
M  V30 2614 H 246.616 -3.70487 0.396206 0
M  V30 2615 H 246.729 -4.25723 2.19765 0
M  V30 2616 H 245.093 -2.30599 1.08149 0
M  V30 2617 H 245.876 -2.07285 2.73657 0
M  V30 2618 N 248.321 -0.919034 -1.28029 0
M  V30 2619 C 249.231 -0.416756 -2.30869 0
M  V30 2620 C 250.247 0.498235 -1.66714 0
M  V30 2621 O 251.423 0.383144 -1.97722 0
M  V30 2622 C 248.488 0.330274 -3.45123 0
M  V30 2623 C 247.549 -0.618578 -4.2482 0
M  V30 2624 C 246.782 0.0928959 -5.33619 0
M  V30 2625 O 247.005 1.31375 -5.55065 0
M  V30 2626 O 245.939 -0.574499 -5.99152 0
M  V30 2627 H 249.765 -1.27043 -2.75851 0
M  V30 2628 H 247.35 -0.684052 -1.3282 0
M  V30 2629 H 249.232 0.751972 -4.14636 0
M  V30 2630 H 247.907 1.1597 -3.02213 0
M  V30 2631 H 246.814 -1.08978 -3.57875 0
M  V30 2632 H 248.147 -1.41497 -4.71423 0
M  V30 2633 N 249.799 1.42003 -0.683588 0
M  V30 2634 C 250.762 2.29191 -0.0198243 0
M  V30 2635 C 251.762 1.43773 0.72013 0
M  V30 2636 O 252.952 1.65061 0.556815 0
M  V30 2637 C 250.084 3.26435 0.982487 0
M  V30 2638 H 251.277 2.8938 -0.787345 0
M  V30 2639 H 248.83 1.49789 -0.446418 0
M  V30 2640 H 249.565 2.71203 1.77819 0
M  V30 2641 H 249.35 3.89449 0.455182 0
M  V30 2642 H 250.84 3.918 1.44508 0
M  V30 2643 N 251.277 0.427512 1.51691 0
M  V30 2644 C 252.523 -0.142439 2.02299 0
M  V30 2645 C 252.856 -1.43214 1.31162 0
M  V30 2646 O 252.131 -1.89833 0.423511 0
M  V30 2647 C 252.414 -0.371301 3.58181 0
M  V30 2648 C 252.267 0.936358 4.39946 0
M  V30 2649 C 253.586 -1.14542 4.24933 0
M  V30 2650 H 250.705 -0.0502937 0.735282 0
M  V30 2651 H 253.347 0.564584 1.81418 0
M  V30 2652 H 251.497 -0.973559 3.76104 0
M  V30 2653 H 253.169 1.57184 4.33694 0
M  V30 2654 H 251.412 1.5432 4.05423 0
M  V30 2655 H 252.083 0.730388 5.47147 0
M  V30 2656 H 254.559 -0.635362 4.11221 0
M  V30 2657 H 253.435 -1.27431 5.33903 0
M  V30 2658 H 253.696 -2.17093 3.85127 0
M  V30 2659 N 252.755 -1.56801 0.158532 0
M  V30 2660 C 253.718 -2.16138 -0.762705 0
M  V30 2661 C 254.718 -1.1061 -1.16713 0
M  V30 2662 O 255.908 -1.36191 -1.08617 0
M  V30 2663 C 253.04 -2.73386 -2.03649 0
M  V30 2664 H 254.233 -2.98886 -0.246354 0
M  V30 2665 H 251.786 -1.56035 -0.0909744 0
M  V30 2666 H 252.521 -1.94335 -2.59623 0
M  V30 2667 H 252.306 -3.50601 -1.75559 0
M  V30 2668 H 253.796 -3.19065 -2.6942 0
M  V30 2669 N 254.233 0.115231 -1.57178 0
M  V30 2670 C 255.481 0.820727 -1.84685 0
M  V30 2671 C 255.802 1.80237 -0.744279 0
M  V30 2672 O 255.072 1.94529 0.231375 0
M  V30 2673 H 253.652 0.306084 -0.681411 0
M  V30 2674 H 256.314 0.101656 -1.94635 0
M  V30 2675 H 255.41 1.36366 -2.80733 0
M  V30 2676 N 255.711 1.52812 0.385517 0
M  V30 2677 C 257.127 1.4214 0.725829 0
M  V30 2678 C 257.327 0.544589 1.94001 0
M  V30 2679 O 256.383 0.0193693 2.52493 0
M  V30 2680 C 257.696 2.85042 0.957668 0
M  V30 2681 C 259.244 2.94543 1.05892 0
M  V30 2682 C 259.719 4.38464 1.32337 0
M  V30 2683 N 261.21 4.41804 1.39151 0
M  V30 2684 C 261.945 5.5025 1.61285 0
M  V30 2685 N 261.441 6.68775 1.80866 0
M  V30 2686 N 263.234 5.37798 1.63492 0
M  V30 2687 H 255.385 2.08338 -0.413383 0
M  V30 2688 H 257.648 0.940016 -0.122775 0
M  V30 2689 H 257.354 3.51431 0.137568 0
M  V30 2690 H 257.228 3.27505 1.87137 0
M  V30 2691 H 259.615 2.28321 1.86959 0
M  V30 2692 H 259.696 2.55504 0.123057 0
M  V30 2693 H 259.34 5.05254 0.517793 0
M  V30 2694 H 259.27 4.75059 2.27214 0
M  V30 2695 H 261.761 3.56377 1.25713 0
M  V30 2696 H 262.074 7.47197 1.97271 0
M  V30 2697 H 260.419 6.71797 1.78083 0
M  V30 2698 H 263.61 4.44171 1.47749 0
M  V30 2699 H 263.783 6.22382 1.80402 0
M  V30 2700 N 257.189 -0.644168 1.43834 0
M  V30 2701 C 258.438 -1.39985 1.45214 0
M  V30 2702 C 258.751 -1.95421 0.0835494 0
M  V30 2703 O 259.957 -2.71488 -0.0251748 0
M  V30 2704 C 258.413 -2.53384 2.55587 0
M  V30 2705 C 258.021 -2.04517 3.98594 0
M  V30 2706 C 259.765 -3.30685 2.66172 0
M  V30 2707 C 257.672 -3.1518 5.00416 0
M  V30 2708 H 256.602 -0.526005 0.540218 0
M  V30 2709 H 259.253 -0.694367 1.69855 0
M  V30 2710 H 257.635 -3.26446 2.24163 0
M  V30 2711 H 258.809 -1.38405 4.39523 0
M  V30 2712 H 257.124 -1.40068 3.92135 0
M  V30 2713 H 259.721 -4.13158 3.39418 0
M  V30 2714 H 260.064 -3.79312 1.71546 0
M  V30 2715 H 260.597 -2.64708 2.96942 0
M  V30 2716 H 257.336 -2.71511 5.96625 0
M  V30 2717 H 256.856 -3.79974 4.64091 0
M  V30 2718 H 258.535 -3.80166 5.23529 0
M  V30 2719 N 258.668 -1.30515 -0.883378 0
M  V30 2720 C 259.917 -1.18795 -1.63005 0
M  V30 2721 C 260.23 0.255923 -1.93919 0
M  V30 2722 O 261.436 0.494654 -2.66956 0
M  V30 2723 C 259.892 -2.07878 -2.93794 0
M  V30 2724 C 259.5 -3.57184 -2.70414 0
M  V30 2725 C 261.244 -2.04924 -3.71761 0
M  V30 2726 C 259.151 -4.38317 -3.97029 0
M  V30 2727 H 258.081 -0.441031 -0.611562 0
M  V30 2728 H 260.732 -1.55275 -0.977854 0
M  V30 2729 H 259.114 -1.64283 -3.60315 0
M  V30 2730 H 260.288 -4.08937 -2.12384 0
M  V30 2731 H 258.603 -3.61976 -2.0582 0
M  V30 2732 H 261.2 -2.62792 -4.65665 0
M  V30 2733 H 261.543 -1.0331 -4.03277 0
M  V30 2734 H 262.076 -2.46649 -3.12104 0
M  V30 2735 H 258.815 -5.40632 -3.70671 0
M  V30 2736 H 258.335 -3.91326 -4.54559 0
M  V30 2737 H 260.014 -4.49834 -4.65036 0
M  V30 2738 N 260.146 1.09593 -1.13257 0
M  V30 2739 C 261.423 1.78293 -0.804432 0
M  V30 2740 C 261.803 1.99004 0.70431 0
M  V30 2741 O 261.151 1.59007 1.641 0
M  V30 2742 C 261.361 3.10707 -1.5894 0
M  V30 2743 C 262.709 3.85443 -1.78099 0
M  V30 2744 O 263.733 3.20454 -1.55525 0
M  V30 2745 O 262.592 5.02108 -2.15753 0
M  V30 2746 H 259.686 0.773156 -0.293528 0
M  V30 2747 H 262.232 1.16164 -1.23709 0
M  V30 2748 H 261.004 2.91106 -2.61482 0
M  V30 2749 H 260.627 3.80558 -1.15157 0
M  V30 2750 N 261.624 0.925811 1.2754 0
M  V30 2751 C 262.849 0.580924 1.99098 0
M  V30 2752 C 263.274 -0.833555 1.68622 0
M  V30 2753 O 262.632 -1.55903 0.925422 0
M  V30 2754 C 262.68 0.811186 3.51358 0
M  V30 2755 O 261.784 -0.124129 4.12213 0
M  V30 2756 H 261.125 0.223873 0.625122 0
M  V30 2757 H 263.655 1.24455 1.62395 0
M  V30 2758 H 263.665 0.72601 4.01489 0
M  V30 2759 H 262.34 1.84227 3.72872 0
M  V30 2760 H 260.917 0.0108006 3.72898 0
M  V30 2761 N 263.102 -1.41638 0.69111 0
M  V30 2762 C 264.327 -2.06148 0.227583 0
M  V30 2763 C 264.752 -1.51652 -1.11281 0
M  V30 2764 O 264.11 -0.64164 -1.69566 0
M  V30 2765 C 264.158 -3.60095 0.190858 0
M  V30 2766 O 263.262 -4.03845 -0.835664 0
M  V30 2767 H 262.603 -0.654434 0.112306 0
M  V30 2768 H 265.133 -1.81484 0.944714 0
M  V30 2769 H 265.143 -4.07995 0.020207 0
M  V30 2770 H 263.818 -3.99129 1.16915 0
M  V30 2771 H 262.395 -3.67458 -0.63473 0
M  V30 2772 N 264.58 -0.43555 -1.51462 0
M  V30 2773 C 265.805 0.132627 -2.06976 0
M  V30 2774 C 266.23 1.35848 -1.30104 0
M  V30 2775 O 265.588 1.78112 -0.338493 0
M  V30 2776 C 265.636 0.43523 -3.57964 0
M  V30 2777 O 264.74 1.52198 -3.83288 0
M  V30 2778 H 264.081 0.00265 -0.663995 0
M  V30 2779 H 266.611 -0.616369 -1.95095 0
M  V30 2780 H 266.621 0.686206 -4.02188 0
M  V30 2781 H 265.296 -0.460739 -4.1334 0
M  V30 2782 H 263.873 1.2611 -3.50928 0
M  V30 2783 N 266.058 1.56714 -0.166846 0
M  V30 2784 C 267.474 1.58473 0.189372 0
M  V30 2785 C 267.674 1.18201 1.63189 0
M  V30 2786 O 266.73 0.891528 2.36237 0
M  V30 2787 C 268.043 3.00573 -0.0873872 0
M  V30 2788 C 269.591 3.1299 -0.0252443 0
M  V30 2789 C 270.066 4.57174 -0.274934 0
M  V30 2790 N 271.557 4.62665 -0.222553 0
M  V30 2791 C 272.292 5.72072 -0.389985 0
M  V30 2792 N 271.788 6.90054 -0.616229 0
M  V30 2793 N 273.581 5.61153 -0.326202 0
M  V30 2794 H 265.732 1.8118 -1.10849 0
M  V30 2795 H 267.995 0.839525 -0.440342 0
M  V30 2796 H 267.701 3.34497 -1.0865 0
M  V30 2797 H 267.575 3.72019 0.623037 0
M  V30 2798 H 269.962 2.78895 0.96444 0
M  V30 2799 H 270.043 2.43989 -0.768309 0
M  V30 2800 H 269.687 4.91976 -1.26181 0
M  V30 2801 H 269.617 5.24328 0.48869 0
M  V30 2802 H 272.108 3.77863 -0.0531512 0
M  V30 2803 H 272.421 7.69311 -0.733559 0
M  V30 2804 H 270.766 6.91927 -0.652791 0
M  V30 2805 H 273.957 4.67859 -0.150072 0
M  V30 2806 H 274.13 6.46364 -0.460116 0
M  V30 2807 N 267.536 -0.106894 1.57237 0
M  V30 2808 C 268.466 -1.13148 2.04254 0
M  V30 2809 C 269.447 -1.42476 0.929224 0
M  V30 2810 O 270.632 -1.52709 1.19973 0
M  V30 2811 C 267.762 -2.4545 2.45706 0
M  V30 2812 C 266.716 -2.30558 3.60592 0
M  V30 2813 C 266.042 -3.67931 3.87983 0
M  V30 2814 C 267.342 -1.75597 4.91897 0
M  V30 2815 H 269.036 -0.740374 2.90101 0
M  V30 2816 H 266.582 -0.354696 1.39563 0
M  V30 2817 H 268.535 -3.17389 2.77205 0
M  V30 2818 H 267.259 -2.86475 1.56843 0
M  V30 2819 H 265.918 -1.61067 3.29322 0
M  V30 2820 H 265.566 -4.06462 2.96306 0
M  V30 2821 H 265.266 -3.58817 4.65322 0
M  V30 2822 H 266.79 -4.41356 4.21945 0
M  V30 2823 H 268.204 -2.37364 5.21854 0
M  V30 2824 H 266.601 -1.77272 5.73319 0
M  V30 2825 H 267.671 -0.714451 4.79608 0
M  V30 2826 N 269.014 -1.53014 -0.377408 0
M  V30 2827 C 270.26 -1.68872 -1.12294 0
M  V30 2828 C 270.593 -0.433224 -1.89306 0
M  V30 2829 O 269.868 0.569258 -1.85983 0
M  V30 2830 C 270.151 -2.93115 -2.09179 0
M  V30 2831 C 270.004 -4.28794 -1.35853 0
M  V30 2832 C 271.323 -3.12928 -3.09458 0
M  V30 2833 H 268.442 -0.614518 -0.406862 0
M  V30 2834 H 271.084 -1.85633 -0.40503 0
M  V30 2835 H 269.234 -2.78956 -2.70399 0
M  V30 2836 H 270.906 -4.54742 -0.775082 0
M  V30 2837 H 269.149 -4.28744 -0.660364 0
M  V30 2838 H 269.82 -5.11837 -2.06706 0
M  V30 2839 H 272.296 -3.26194 -2.58334 0
M  V30 2840 H 271.172 -4.01316 -3.74482 0
M  V30 2841 H 271.433 -2.27669 -3.78971 0
M  V30 2842 N 270.492 0.636531 -1.44174 0
M  V30 2843 C 271.741 1.39213 -1.45954 0
M  V30 2844 C 272.054 1.95374 -0.0939119 0
M  V30 2845 O 273.26 2.71498 0.0107767 0
M  V30 2846 C 271.716 2.52025 -2.56927 0
M  V30 2847 C 271.324 2.024 -3.99673 0
M  V30 2848 C 273.068 3.29269 -2.67922 0
M  V30 2849 C 270.975 3.12521 -5.0208 0
M  V30 2850 H 269.905 0.523132 -0.542999 0
M  V30 2851 H 272.556 0.685349 -1.70221 0
M  V30 2852 H 270.938 3.25253 -2.25891 0
M  V30 2853 H 272.112 1.36073 -4.40251 0
M  V30 2854 H 270.427 1.37987 -3.92872 0
M  V30 2855 H 273.024 4.11352 -3.41605 0
M  V30 2856 H 273.367 3.78397 -1.73555 0
M  V30 2857 H 273.9 2.63129 -2.98342 0
M  V30 2858 H 270.639 2.68343 -5.98057 0
M  V30 2859 H 270.159 3.77507 -4.66099 0
M  V30 2860 H 271.838 3.77385 -5.25538 0
M  V30 2861 N 271.97 1.30982 0.876444 0
M  V30 2862 C 273.198 1.23242 1.6619 0
M  V30 2863 C 273.613 -0.203345 1.87702 0
M  V30 2864 O 272.97 -1.13317 1.43057 0
M  V30 2865 C 273.021 1.96623 3.03351 0
M  V30 2866 O 272.742 3.34594 2.82804 0
M  V30 2867 C 274.243 1.95644 3.97792 0
M  V30 2868 H 271.463 0.426126 0.518322 0
M  V30 2869 H 274.007 1.7275 1.09442 0
M  V30 2870 H 272.162 1.50892 3.56806 0
M  V30 2871 H 272.576 3.71873 3.69879 0
M  V30 2872 H 274.05 2.51511 4.91372 0
M  V30 2873 H 274.527 0.937395 4.2908 0
M  V30 2874 H 275.133 2.41225 3.50272 0
M  V30 2875 N 273.449 -1.08991 1.13837 0
M  V30 2876 C 274.412 -2.13925 0.822715 0
M  V30 2877 C 275.412 -1.599 -0.1699 0
M  V30 2878 O 276.602 -1.74104 0.0577251 0
M  V30 2879 C 273.734 -3.40155 0.225318 0
M  V30 2880 H 274.927 -2.43358 1.75262 0
M  V30 2881 H 272.48 -1.24603 0.943594 0
M  V30 2882 H 273.215 -3.16352 -0.713594 0
M  V30 2883 H 273 -3.80661 0.940193 0
M  V30 2884 H 274.49 -4.17594 0.0214784 0
M  V30 2885 N 274.927 -0.932562 -1.27047 0
M  V30 2886 C 276.204 -0.49377 -1.89265 0
M  V30 2887 C 276.584 1.02833 -1.8436 0
M  V30 2888 O 275.932 1.88461 -1.29209 0
M  V30 2889 C 276.142 -1.04536 -3.32976 0
M  V30 2890 C 277.49 -1.10879 -4.09867 0
M  V30 2891 O 278.514 -0.995327 -3.42011 0
M  V30 2892 O 277.373 -1.28417 -5.31198 0
M  V30 2893 H 274.467 -0.159596 -0.811454 0
M  V30 2894 H 277.013 -1.02457 -1.3528 0
M  V30 2895 H 275.785 -2.08913 -3.30864 0
M  V30 2896 H 275.408 -0.496494 -3.94488 0
M  V30 2897 N 276.405 1.4127 -0.698611 0
M  V30 2898 C 277.315 2.34573 -0.0357891 0
M  V30 2899 C 278.331 1.56393 0.762701 0
M  V30 2900 O 279.507 1.8886 0.699564 0
M  V30 2901 C 276.572 3.35159 0.887089 0
M  V30 2902 C 275.633 4.29225 0.0804634 0
M  V30 2903 C 274.866 5.25006 0.959387 0
M  V30 2904 O 275.089 5.26314 2.19886 0
M  V30 2905 O 274.023 6.00519 0.407439 0
M  V30 2906 H 277.849 2.92838 -0.804957 0
M  V30 2907 H 275.434 1.42175 -0.458966 0
M  V30 2908 H 277.316 3.9689 1.41621 0
M  V30 2909 H 275.991 2.79333 1.6357 0
M  V30 2910 H 274.898 3.70833 -0.493328 0
M  V30 2911 H 276.231 4.88157 -0.629547 0
M  V30 2912 N 277.883 0.443576 1.51229 0
M  V30 2913 C 279.131 -0.120557 2.0174 0
M  V30 2914 C 279.452 -1.42665 1.32935 0
M  V30 2915 O 278.722 -1.9028 0.465866 0
M  V30 2916 H 277.302 -0.0475426 0.745486 0
M  V30 2917 H 279.964 0.587711 1.85828 0
M  V30 2918 H 279.06 -0.291972 3.10731 0
M  V30 2919 N 279.361 -1.56624 0.175154 0
M  V30 2920 C 280.607 -1.9729 -0.469506 0
M  V30 2921 C 280.94 -1.06128 -1.62636 0
M  V30 2922 O 280.215 -0.109183 -1.94193 0
M  V30 2923 C 280.498 -3.47375 -0.948804 0
M  V30 2924 C 280.351 -4.49317 0.208491 0
M  V30 2925 C 281.67 -4.00652 -1.82116 0
M  V30 2926 H 278.789 -0.717317 -0.16919 0
M  V30 2927 H 281.431 -1.88184 0.262062 0
M  V30 2928 H 279.581 -3.55267 -1.57219 0
M  V30 2929 H 281.253 -4.53482 0.845682 0
M  V30 2930 H 279.496 -4.25121 0.863395 0
M  V30 2931 H 280.167 -5.51741 -0.169059 0
M  V30 2932 H 282.643 -3.95416 -1.2956 0
M  V30 2933 H 281.519 -5.06075 -2.12554 0
M  V30 2934 H 281.78 -3.44699 -2.7683 0
M  V30 2935 N 280.839 0.0985539 -1.57292 0
M  V30 2936 C 282.255 0.45267 -1.53046 0
M  V30 2937 C 282.455 1.80713 -0.891342 0
M  V30 2938 O 281.511 2.4785 -0.482375 0
M  V30 2939 C 282.824 0.418341 -2.97776 0
M  V30 2940 C 284.372 0.500443 -3.08973 0
M  V30 2941 C 284.847 0.496297 -4.55303 0
M  V30 2942 N 286.338 0.557151 -4.59837 0
M  V30 2943 C 287.073 0.575726 -5.70502 0
M  V30 2944 N 286.569 0.550714 -6.90608 0
M  V30 2945 N 288.362 0.620277 -5.58667 0
M  V30 2946 H 280.513 -0.788673 -1.97215 0
M  V30 2947 H 282.776 -0.293188 -0.901524 0
M  V30 2948 H 282.482 -0.509659 -3.47988 0
M  V30 2949 H 282.356 1.2386 -3.56284 0
M  V30 2950 H 284.743 1.41886 -2.58751 0
M  V30 2951 H 284.824 -0.347894 -2.53423 0
M  V30 2952 H 284.468 -0.418162 -5.06176 0
M  V30 2953 H 284.398 1.3618 -5.08687 0
M  V30 2954 H 286.889 0.581816 -3.73394 0
M  V30 2955 H 287.202 0.568075 -7.70709 0
M  V30 2956 H 285.547 0.517816 -6.93068 0
M  V30 2957 H 288.738 0.637322 -4.63741 0
M  V30 2958 H 288.911 0.631283 -6.44918 0
M  V30 2959 N 282.317 1.53212 0.369288 0
M  V30 2960 C 283.28 1.7872 1.43498 0
M  V30 2961 C 284.28 0.657554 1.46741 0
M  V30 2962 O 285.47 0.925736 1.47566 0
M  V30 2963 C 282.602 1.90591 2.82645 0
M  V30 2964 H 283.795 2.73894 1.22156 0
M  V30 2965 H 281.348 1.44233 0.602203 0
M  V30 2966 H 282.083 0.974709 3.09306 0
M  V30 2967 H 281.868 2.72751 2.8169 0
M  V30 2968 H 283.358 2.11931 3.59826 0
M  V30 2969 N 283.795 -0.628877 1.44509 0
M  V30 2970 C 285.043 -1.38565 1.4712 0
M  V30 2971 C 285.364 -1.94712 0.105899 0
M  V30 2972 O 284.634 -1.75912 -0.862079 0
M  V30 2973 H 283.214 -0.514333 0.541729 0
M  V30 2974 H 285.876 -0.740018 1.80305 0
M  V30 2975 H 284.972 -2.21583 2.19789 0
M  V30 2976 N 285.273 -1.31445 -0.869486 0
M  V30 2977 C 286.689 -1.10113 -1.15531 0
M  V30 2978 C 286.889 0.128087 -2.01092 0
M  V30 2979 O 285.945 0.817276 -2.38908 0
M  V30 2980 C 287.258 -2.37291 -1.84698 0
M  V30 2981 C 288.806 -2.42906 -1.97397 0
M  V30 2982 C 289.281 -3.69967 -2.69979 0
M  V30 2983 N 290.772 -3.70864 -2.77514 0
M  V30 2984 C 291.507 -4.65875 -3.34287 0
M  V30 2985 N 291.003 -5.71242 -3.91988 0
M  V30 2986 N 292.796 -4.53394 -3.3225 0
M  V30 2987 H 284.947 -2.1028 -0.299347 0
M  V30 2988 H 287.21 -0.927683 -0.195214 0
M  V30 2989 H 286.916 -3.27078 -1.29278 0
M  V30 2990 H 286.79 -2.47125 -2.84972 0
M  V30 2991 H 289.177 -1.53588 -2.51982 0
M  V30 2992 H 289.258 -2.37036 -0.961643 0
M  V30 2993 H 288.902 -4.59652 -2.16062 0
M  V30 2994 H 288.832 -3.73103 -3.7162 0
M  V30 2995 H 291.323 -2.94697 -2.36563 0
M  V30 2996 H 291.636 -6.39817 -4.33421 0
M  V30 2997 H 289.981 -5.75015 -3.90362 0
M  V30 2998 H 293.172 -3.70252 -2.8641 0
M  V30 2999 H 293.345 -5.27617 -3.76197 0
M  V30 3000 N 286.751 1.08385 -1.14413 0
M  V30 3001 C 287.976 1.85057 -0.936413 0
M  V30 3002 C 288.401 1.81055 0.509971 0
M  V30 3003 O 287.759 1.1958 1.36273 0
M  V30 3004 C 287.807 3.30505 -1.44217 0
M  V30 3005 O 286.911 4.07491 -0.634409 0
M  V30 3006 H 286.252 0.573425 -0.334784 0
M  V30 3007 H 288.782 1.36799 -1.52142 0
M  V30 3008 H 288.792 3.81348 -1.45043 0
M  V30 3009 H 287.467 3.32734 -2.49522 0
M  V30 3010 H 286.044 3.66368 -0.694902 0
M  V30 3011 N 288.23 0.939286 1.26551 0
M  V30 3012 C 289.479 0.581601 1.93133 0
M  V30 3013 C 289.792 -0.883224 1.74524 0
M  V30 3014 O 290.998 -1.3502 2.35546 0
M  V30 3015 C 289.454 0.989425 3.46032 0
M  V30 3016 C 289.062 2.47573 3.73379 0
M  V30 3017 C 290.806 0.703544 4.18629 0
M  V30 3018 C 288.713 2.82235 5.19709 0
M  V30 3019 H 287.643 0.213803 0.723052 0
M  V30 3020 H 290.294 1.14167 1.4366 0
M  V30 3021 H 288.676 0.357902 3.94379 0
M  V30 3022 H 289.85 3.15614 3.35744 0
M  V30 3023 H 288.165 2.73471 3.1401 0
M  V30 3024 H 290.762 0.938869 5.26393 0
M  V30 3025 H 291.105 -0.359639 4.14744 0
M  V30 3026 H 291.638 1.2947 3.76141 0
M  V30 3027 H 288.377 3.87509 5.28694 0
M  V30 3028 H 287.897 2.18854 5.58447 0
M  V30 3029 H 289.576 2.70599 5.87695 0
M  V30 3030 N 289.708 -1.40897 0.706093 0
M  V30 3031 C 291.119 -1.84023 0.315052 0
M  V30 3032 C 291.47 -1.5906 -1.14866 0
M  V30 3033 O 290.595 -1.06651 -1.88293 0
M  V30 3034 C 291.19 -3.34055 0.565038 0
M  V30 3035 C 289.749 -3.7571 0.227806 0
M  V30 3036 C 288.896 -2.64204 0.842122 0
M  V30 3037 H 291.847 -1.303 0.905963 0
M  V30 3038 H 291.868 -3.80107 -0.172843 0
M  V30 3039 H 291.38 -3.52192 1.63042 0
M  V30 3040 H 289.481 -3.63172 -0.832895 0
M  V30 3041 H 289.594 -4.74103 0.690174 0
M  V30 3042 H 287.958 -2.53255 0.270893 0
M  V30 3043 H 288.741 -2.85155 1.91158 0
M  V30 3044 N 291.186 -0.45159 -1.50991 0
M  V30 3045 C 292.116 0.342898 -2.30969 0
M  V30 3046 C 293.097 1.00815 -1.37005 0
M  V30 3047 O 294.282 1.00907 -1.65926 0
M  V30 3048 C 291.412 1.43637 -3.16205 0
M  V30 3049 C 290.366 0.893818 -4.18563 0
M  V30 3050 C 289.692 2.08411 -4.92411 0
M  V30 3051 C 290.992 -0.0815568 -5.22236 0
M  V30 3052 H 292.686 -0.324556 -2.97636 0
M  V30 3053 H 290.232 -0.157531 -1.43136 0
M  V30 3054 H 292.185 1.9995 -3.70942 0
M  V30 3055 H 290.909 2.13232 -2.47386 0
M  V30 3056 H 289.568 0.352798 -3.64898 0
M  V30 3057 H 289.216 2.76658 -4.20082 0
M  V30 3058 H 288.916 1.72741 -5.61636 0
M  V30 3059 H 290.44 2.65251 -5.49976 0
M  V30 3060 H 291.854 0.391742 -5.7196 0
M  V30 3061 H 290.251 -0.351551 -5.99069 0
M  V30 3062 H 291.321 -1.01374 -4.74185 0
M  V30 3063 N 292.664 1.56529 -0.183458 0
M  V30 3064 C 293.611 2.18546 0.742055 0
M  V30 3065 C 294.581 1.12912 1.2182 0
M  V30 3066 O 295.766 1.41115 1.28418 0
M  V30 3067 C 292.906 2.83977 1.96089 0
M  V30 3068 C 292.019 4.04105 1.52719 0
M  V30 3069 C 291.154 4.57427 2.70063 0
M  V30 3070 C 290.193 5.69938 2.23243 0
M  V30 3071 N 289.33 6.17717 3.33722 0
M  V30 3072 H 294.17 2.97284 0.206432 0
M  V30 3073 H 291.707 1.46823 0.0901571 0
M  V30 3074 H 293.665 3.20077 2.67594 0
M  V30 3075 H 292.295 2.07822 2.47002 0
M  V30 3076 H 291.347 3.73745 0.708436 0
M  V30 3077 H 292.659 4.85513 1.1436 0
M  V30 3078 H 291.813 4.95772 3.49708 0
M  V30 3079 H 290.552 3.75101 3.11689 0
M  V30 3080 H 289.557 5.31133 1.42048 0
M  V30 3081 H 290.782 6.54073 1.82661 0
M  V30 3082 H 288.728 5.38317 3.74902 0
M  V30 3083 H 288.645 6.94146 2.99495 0
M  V30 3084 H 289.913 6.60713 4.13616 0
M  V30 3085 N 294.142 -0.090211 1.57342 0
M  V30 3086 C 295.089 -1.10909 2.02405 0
M  V30 3087 C 296.059 -1.39523 0.901252 0
M  V30 3088 O 297.244 -1.50903 1.1676 0
M  V30 3089 C 294.384 -2.42277 2.45755 0
M  V30 3090 C 293.497 -2.20352 3.71576 0
M  V30 3091 C 292.632 -3.45154 4.03785 0
M  V30 3092 C 291.671 -3.18512 5.22701 0
M  V30 3093 N 290.808 -4.35593 5.50639 0
M  V30 3094 H 295.648 -0.71782 2.89225 0
M  V30 3095 H 293.185 -0.342901 1.43048 0
M  V30 3096 H 295.143 -3.18951 2.68935 0
M  V30 3097 H 293.773 -2.79242 1.61938 0
M  V30 3098 H 292.825 -1.34458 3.55844 0
M  V30 3099 H 294.137 -1.96661 4.58395 0
M  V30 3100 H 293.291 -4.30233 4.27767 0
M  V30 3101 H 292.03 -3.71904 3.15498 0
M  V30 3102 H 291.035 -2.31827 4.98534 0
M  V30 3103 H 292.26 -2.93103 6.12591 0
M  V30 3104 H 290.206 -4.6241 4.6531 0
M  V30 3105 H 290.123 -4.1511 6.31838 0
M  V30 3106 H 291.391 -5.21723 5.7916 0
M  V30 3107 N 295.62 -1.53406 -0.361157 0
M  V30 3108 C 296.568 -1.80832 -1.46296 0
M  V30 3109 C 297.562 -0.677699 -1.55253 0
M  V30 3110 O 298.768 -0.860723 -1.58087 0
M  V30 3111 H 295.143 -0.572627 -0.487445 0
M  V30 3112 H 297.114 -2.73045 -1.20371 0
M  V30 3113 C 295.863 -2.01907 -2.8307 0
M  V30 3114 H 295.186 -2.88349 -2.76938 0
M  V30 3115 H 296.626 -2.25072 -3.59331 0
M  V30 3116 C 295.085 -0.799449 -3.27277 0
M  V30 3117 O 295.615 0.00971761 -4.01699 0
M  V30 3118 N 293.821 -0.621637 -2.83873 0
M  V30 3119 H 293.368 -1.28126 -2.23476 0
M  V30 3120 H 293.326 0.19298 -3.13807 0
M  V30 3121 N 297.098 0.621204 -1.44841 0
M  V30 3122 C 298.344 1.3826 -1.48365 0
M  V30 3123 C 298.677 1.93831 -0.119624 0
M  V30 3124 O 297.952 1.74251 0.864111 0
M  V30 3125 C 298.235 2.54058 -2.55199 0
M  V30 3126 C 298.088 2.03772 -4.00995 0
M  V30 3127 C 299.407 3.56225 -2.58442 0
M  V30 3128 H 296.526 0.501374 -0.540179 0
M  V30 3129 H 299.168 0.7015 -1.76576 0
M  V30 3130 H 297.318 3.12162 -2.31274 0
M  V30 3131 H 298.99 1.50423 -4.36086 0
M  V30 3132 H 297.233 1.34876 -4.12299 0
M  V30 3133 H 297.904 2.87185 -4.71411 0
M  V30 3134 H 300.38 3.07939 -2.79844 0
M  V30 3135 H 299.256 4.34756 -3.3508 0
M  V30 3136 H 299.517 4.10949 -1.63013 0
M  V30 3137 N 298.576 1.31904 0.862503 0
M  V30 3138 C 299.853 1.12644 1.59908 0
M  V30 3139 C 300.233 -0.316104 2.0872 0
M  V30 3140 O 299.581 -1.31145 1.87118 0
M  V30 3141 C 299.791 2.1472 2.7513 0
M  V30 3142 C 301.139 2.47637 3.44907 0
M  V30 3143 O 302.163 2.13205 2.85346 0
M  V30 3144 O 301.022 3.06632 4.52371 0
M  V30 3145 H 298.116 0.43416 0.703871 0
M  V30 3146 H 300.662 1.43408 0.907314 0
M  V30 3147 H 299.434 3.1172 2.3653 0
M  V30 3148 H 299.057 1.84905 3.51989 0
M  V30 3149 N 300.054 -1.07777 1.14986 0
M  V30 3150 C 301.331 -1.7699 0.832695 0
M  V30 3151 C 301.711 -2.001 -0.672561 0
M  V30 3152 O 301.059 -1.61598 -1.6155 0
M  V30 3153 C 301.269 -3.08139 1.63863 0
M  V30 3154 C 302.617 -3.8256 1.84208 0
M  V30 3155 O 303.641 -3.17939 1.60603 0
M  V30 3156 O 302.5 -4.98612 2.23714 0
M  V30 3157 H 299.594 -0.768389 0.305791 0
M  V30 3158 H 302.14 -1.14182 1.25541 0
M  V30 3159 H 300.912 -2.86909 2.6608 0
M  V30 3160 H 300.535 -3.78678 1.21197 0
M  V30 3161 N 301.532 -0.945985 -1.26051 0
M  V30 3162 C 302.495 -0.463897 -2.24456 0
M  V30 3163 C 303.495 0.427655 -1.55009 0
M  V30 3164 O 304.685 0.226157 -1.72726 0
M  V30 3165 C 301.817 0.330812 -3.39291 0
M  V30 3166 H 303.01 -1.33357 -2.68619 0
M  V30 3167 H 300.563 -0.728416 -1.38289 0
M  V30 3168 H 301.298 1.21852 -3.00537 0
M  V30 3169 H 301.083 -0.308679 -3.90883 0
M  V30 3170 H 302.573 0.657865 -4.12386 0
M  V30 3171 N 303.011 1.40521 -0.713556 0
M  V30 3172 C 303.941 2.33381 -0.0743864 0
M  V30 3173 C 304.922 1.52784 0.747735 0
M  V30 3174 O 306.107 1.81258 0.697071 0
M  V30 3175 C 303.237 3.36748 0.849598 0
M  V30 3176 C 302.191 4.27793 0.133247 0
M  V30 3177 C 301.517 5.21679 1.17281 0
M  V30 3178 C 302.817 5.12415 -1.01134 0
M  V30 3179 H 304.511 2.87081 -0.850007 0
M  V30 3180 H 302.057 1.38034 -0.410201 0
M  V30 3181 H 304.01 4.00648 1.30612 0
M  V30 3182 H 302.734 2.81439 1.65709 0
M  V30 3183 H 301.393 3.65342 -0.303426 0
M  V30 3184 H 301.041 4.62677 1.9733 0
M  V30 3185 H 300.741 5.83435 0.698397 0
M  V30 3186 H 302.265 5.88456 1.62947 0
M  V30 3187 H 303.679 5.69781 -0.634274 0
M  V30 3188 H 302.076 5.83203 -1.41399 0
M  V30 3189 H 303.146 4.48514 -1.84292 0
M  V30 3190 N 304.489 0.459591 1.5075 0
M  V30 3191 C 305.436 -0.340524 2.28274 0
M  V30 3192 C 306.406 -0.997371 1.32822 0
M  V30 3193 O 307.591 -1.01202 1.61749 0
M  V30 3194 C 304.731 -1.42317 3.14388 0
M  V30 3195 C 303.844 -0.782251 4.24859 0
M  V30 3196 C 302.979 -1.84182 4.98247 0
M  V30 3197 C 302.018 -1.18053 6.00608 0
M  V30 3198 N 301.155 -2.18244 6.67319 0
M  V30 3199 H 305.995 0.326899 2.96202 0
M  V30 3200 H 303.532 0.173057 1.46078 0
M  V30 3201 H 305.49 -2.06241 3.62658 0
M  V30 3202 H 304.12 -2.05992 2.4853 0
M  V30 3203 H 303.172 -0.0307404 3.80388 0
M  V30 3204 H 304.484 -0.259663 4.98124 0
M  V30 3205 H 303.638 -2.55714 5.50177 0
M  V30 3206 H 302.377 -2.39819 4.24662 0
M  V30 3207 H 301.382 -0.450776 5.47949 0
M  V30 3208 H 302.607 -0.631202 6.7616 0
M  V30 3209 H 300.553 -2.72919 5.96533 0
M  V30 3210 H 300.47 -1.70938 7.36421 0
M  V30 3211 H 301.738 -2.89191 7.23871 0
M  V30 3212 N 305.967 -1.56429 0.191757 0
M  V30 3213 C 306.915 -2.20273 -0.747174 0
M  V30 3214 C 307.909 -1.17288 -1.22229 0
M  V30 3215 O 309.115 -1.35441 -1.18557 0
M  V30 3216 H 305.49 -0.705885 -0.259289 0
M  V30 3217 H 307.461 -2.97826 -0.184963 0
M  V30 3218 C 306.21 -2.87356 -1.95759 0
M  V30 3219 H 305.533 -3.66341 -1.60106 0
M  V30 3220 H 306.973 -3.3547 -2.59299 0
M  V30 3221 C 305.432 -1.88213 -2.79423 0
M  V30 3222 O 305.962 -1.38033 -3.7724 0
M  V30 3223 N 304.168 -1.56516 -2.44849 0
M  V30 3224 H 303.715 -1.97516 -1.65364 0
M  V30 3225 H 303.673 -0.904369 -3.01112 0
M  V30 3226 N 307.445 0.0818655 -1.57387 0
M  V30 3227 C 308.856 0.634871 -1.75574 0
M  V30 3228 C 309.207 1.78435 -0.815809 0
M  V30 3229 O 308.332 2.164 0.0025366 0
M  V30 3230 C 308.927 1.15845 -3.18379 0
M  V30 3231 C 307.486 1.65741 -3.37945 0
M  V30 3232 C 306.633 0.572549 -2.71325 0
M  V30 3233 H 309.584 -0.144268 -1.58043 0
M  V30 3234 H 309.605 2.02751 -3.21982 0
M  V30 3235 H 309.117 0.321631 -3.86765 0
M  V30 3236 H 307.218 2.51781 -2.74658 0
M  V30 3237 H 307.331 1.74129 -4.46336 0
M  V30 3238 H 305.695 1.01518 -2.33594 0
M  V30 3239 H 306.478 -0.253918 -3.4236 0
M  V30 3240 N 308.923 1.53595 0.353017 0
M  V30 3241 C 309.871 1.81605 1.45335 0
M  V30 3242 C 310.865 0.685923 1.54892 0
M  V30 3243 O 312.071 0.869095 1.57628 0
M  V30 3244 H 308.446 0.575204 0.484401 0
M  V30 3245 H 310.417 2.73679 1.18921 0
M  V30 3246 C 309.166 2.03406 2.81995 0
M  V30 3247 H 308.489 2.89814 2.75405 0
M  V30 3248 H 309.929 2.26975 3.58132 0
M  V30 3249 C 308.388 0.816794 3.26849 0
M  V30 3250 O 308.918 0.0115856 4.01698 0
M  V30 3251 N 307.124 0.636682 2.8354 0
M  V30 3252 H 306.671 1.2931 2.22793 0
M  V30 3253 H 306.629 -0.176336 3.13905 0
M  V30 3254 N 310.401 -0.613514 1.45168 0
M  V30 3255 C 311.647 -1.37471 1.49096 0
M  V30 3256 C 311.98 -1.93765 0.129901 0
M  V30 3257 O 311.255 -1.74707 -0.854858 0
M  V30 3258 C 311.538 -2.52701 2.56542 0
M  V30 3259 C 311.391 -2.01643 4.0207 0
M  V30 3260 C 312.71 -3.54849 2.60327 0
M  V30 3261 H 309.829 -0.498502 0.54283 0
M  V30 3262 H 312.471 -0.692125 1.76945 0
M  V30 3263 H 310.621 -3.10931 2.32926 0
M  V30 3264 H 312.293 -1.48108 4.36877 0
M  V30 3265 H 310.536 -1.32688 4.13009 0
M  V30 3266 H 311.207 -2.84681 4.72928 0
M  V30 3267 H 313.683 -3.0645 2.81474 0
M  V30 3268 H 312.559 -4.32973 3.37381 0
M  V30 3269 H 312.82 -4.10079 1.6519 0
M  V30 3270 N 311.879 -1.3236 -0.855495 0
M  V30 3271 C 313.107 -1.2587 -1.64208 0
M  V30 3272 C 313.522 0.173457 -1.88002 0
M  V30 3273 O 312.879 1.11027 -1.44842 0
M  V30 3274 C 312.93 -2.01424 -3.00184 0
M  V30 3275 O 312.651 -3.39051 -2.77445 0
M  V30 3276 C 314.152 -2.01948 -3.94629 0
M  V30 3277 H 311.372 -0.434318 -0.511477 0
M  V30 3278 H 313.916 -1.74469 -1.0668 0
M  V30 3279 H 312.071 -1.56549 -3.5436 0
M  V30 3280 H 312.485 -3.77711 -3.63916 0
M  V30 3281 H 313.959 -2.59297 -4.87308 0
M  V30 3282 H 314.436 -1.00554 -4.27534 0
M  V30 3283 H 315.042 -2.46767 -3.4639 0
M  V30 3284 N 313.357 1.07166 -1.15556 0
M  V30 3285 C 314.582 1.84053 -0.955988 0
M  V30 3286 C 315.007 1.81586 0.490739 0
M  V30 3287 O 314.365 1.21018 1.34997 0
M  V30 3288 C 314.413 3.28957 -1.47714 0
M  V30 3289 O 313.517 4.06795 -0.677593 0
M  V30 3290 H 312.858 0.569842 -0.340847 0
M  V30 3291 H 315.388 1.35178 -1.53584 0
M  V30 3292 H 315.398 3.79788 -1.4908 0
M  V30 3293 H 314.073 3.30068 -2.53037 0
M  V30 3294 H 312.65 3.6561 -0.733721 0
M  V30 3295 N 314.835 0.952656 1.25548 0
M  V30 3296 C 316.081 0.607272 1.93494 0
M  V30 3297 C 316.414 -0.853245 1.74452 0
M  V30 3298 O 315.689 -1.61194 1.08843 0
M  V30 3299 C 315.972 0.96435 3.46947 0
M  V30 3300 C 315.825 2.48045 3.75225 0
M  V30 3301 C 317.144 0.487987 4.37386 0
M  V30 3302 H 314.263 0.222096 0.702739 0
M  V30 3303 H 316.905 1.18895 1.48203 0
M  V30 3304 H 315.055 0.469361 3.85654 0
M  V30 3305 H 316.727 3.04905 3.46166 0
M  V30 3306 H 314.97 2.919 3.209 0
M  V30 3307 H 315.641 2.6808 4.82532 0
M  V30 3308 H 318.117 0.912558 4.0597 0
M  V30 3309 H 316.993 0.766547 5.43521 0
M  V30 3310 H 317.254 -0.612063 4.37843 0
M  V30 3311 N 316.313 -1.40141 0.720998 0
M  V30 3312 C 317.223 -2.34486 0.0731031 0
M  V30 3313 C 318.239 -1.57587 -0.737723 0
M  V30 3314 O 319.415 -1.89949 -0.669429 0
M  V30 3315 C 316.48 -3.36528 -0.833656 0
M  V30 3316 C 315.541 -4.29298 -0.0121673 0
M  V30 3317 C 314.774 -5.26466 -0.875742 0
M  V30 3318 O 314.997 -5.29745 -2.11485 0
M  V30 3319 O 313.931 -6.01092 -0.31185 0
M  V30 3320 H 317.757 -2.9152 0.851444 0
M  V30 3321 H 315.342 -1.41427 0.481527 0
M  V30 3322 H 317.224 -3.99093 -1.35289 0
M  V30 3323 H 315.899 -2.81899 -1.59105 0
M  V30 3324 H 314.806 -3.70001 0.552262 0
M  V30 3325 H 316.139 -4.87094 0.707129 0
M  V30 3326 N 317.792 -0.46758 -1.50504 0
M  V30 3327 C 318.742 0.34698 -2.25344 0
M  V30 3328 C 319.726 0.964469 -1.2879 0
M  V30 3329 O 320.918 0.8776 -1.53711 0
M  V30 3330 C 318.047 1.43042 -3.1208 0
M  V30 3331 C 317.133 0.82084 -4.16081 0
M  V30 3332 N 317.524 -0.0567602 -5.05768 0
M  V30 3333 C 315.822 1.08517 -4.32597 0
M  V30 3334 C 316.523 -0.402343 -5.80307 0
M  V30 3335 N 315.499 0.221607 -5.43148 0
M  V30 3336 H 319.301 -0.329129 -2.92051 0
M  V30 3337 H 316.815 -0.281508 -1.59942 0
M  V30 3338 H 318.812 2.02712 -3.64299 0
M  V30 3339 H 317.472 2.10856 -2.46921 0
M  V30 3340 H 318.483 -0.425349 -5.1615 0
M  V30 3341 H 315.16 1.75855 -3.78657 0
M  V30 3342 H 316.55 -1.11834 -6.62528 0
M  V30 3343 N 319.27 1.56325 -0.20005 0
M  V30 3344 C 320.516 1.98012 0.438059 0
M  V30 3345 C 320.849 1.08702 1.60927 0
M  V30 3346 O 320.124 0.140064 1.93995 0
M  V30 3347 C 320.407 3.48841 0.893419 0
M  V30 3348 C 320.26 4.48928 -0.279947 0
M  V30 3349 C 321.579 4.03498 1.75719 0
M  V30 3350 H 318.698 0.719918 0.157757 0
M  V30 3351 H 321.34 1.87743 -0.291968 0
M  V30 3352 H 319.49 3.57723 1.51547 0
M  V30 3353 H 321.162 4.52079 -0.91772 0
M  V30 3354 H 319.405 4.23694 -0.930919 0
M  V30 3355 H 320.076 5.5194 0.0812601 0
M  V30 3356 H 322.552 3.97427 1.23253 0
M  V30 3357 H 321.428 5.09393 2.04476 0
M  V30 3358 H 321.689 3.4906 2.71311 0
M  V30 3359 N 320.748 -0.0735177 1.57428 0
M  V30 3360 C 321.997 -0.771809 1.86349 0
M  V30 3361 C 322.31 -1.78828 0.792452 0
M  V30 3362 O 323.516 -2.53602 0.96945 0
M  V30 3363 C 321.972 -1.42358 3.30548 0
M  V30 3364 C 321.58 -0.445761 4.45777 0
M  V30 3365 C 323.324 -2.10434 3.6867 0
M  V30 3366 C 321.231 -1.10335 5.81016 0
M  V30 3367 H 320.161 -0.291999 0.695164 0
M  V30 3368 H 322.812 -0.0250749 1.83483 0
M  V30 3369 H 321.194 -2.21852 3.28021 0
M  V30 3370 H 322.368 0.319239 4.59693 0
M  V30 3371 H 320.683 0.130457 4.16196 0
M  V30 3372 H 323.28 -2.60405 4.67004 0
M  V30 3373 H 323.623 -2.90298 2.98383 0
M  V30 3374 H 324.156 -1.37773 3.7318 0
M  V30 3375 H 320.895 -0.345061 6.54591 0
M  V30 3376 H 320.415 -1.83925 5.70904 0
M  V30 3377 H 322.094 -1.62367 6.26295 0
M  V30 3378 N 322.226 -1.5378 -0.344866 0
M  V30 3379 C 323.472 -1.71216 -1.08687 0
M  V30 3380 C 323.805 -0.473281 -1.88345 0
M  V30 3381 O 323.08 0.52968 -1.87149 0
M  V30 3382 C 323.363 -2.97486 -2.02914 0
M  V30 3383 C 323.216 -4.31579 -1.26727 0
M  V30 3384 C 324.535 -3.19422 -3.0275 0
M  V30 3385 H 321.654 -0.62301 -0.393735 0
M  V30 3386 H 324.296 -1.8645 -0.365563 0
M  V30 3387 H 322.446 -2.84629 -2.64421 0
M  V30 3388 H 324.118 -4.56284 -0.67845 0
M  V30 3389 H 322.361 -4.30049 -0.569273 0
M  V30 3390 H 323.032 -5.16106 -1.95803 0
M  V30 3391 H 325.508 -3.316 -2.51357 0
M  V30 3392 H 324.384 -4.09169 -3.65885 0
M  V30 3393 H 324.645 -2.35656 -3.74057 0
M  V30 3394 N 323.704 0.605807 -1.45491 0
M  V30 3395 C 324.634 1.72709 -1.57143 0
M  V30 3396 C 325.615 1.6476 -0.422884 0
M  V30 3397 O 326.8 1.83132 -0.646247 0
M  V30 3398 C 323.93 3.11316 -1.53948 0
M  V30 3399 C 322.884 3.34077 -2.67537 0
M  V30 3400 C 322.21 4.72975 -2.49397 0
M  V30 3401 C 323.51 3.24158 -4.09535 0
M  V30 3402 H 325.204 1.63214 -2.51001 0
M  V30 3403 H 322.75 0.78379 -1.208 0
M  V30 3404 H 324.703 3.89557 -1.60696 0
M  V30 3405 H 323.427 3.21655 -0.566205 0
M  V30 3406 H 322.086 2.58227 -2.6022 0
M  V30 3407 H 321.734 4.8005 -1.50205 0
M  V30 3408 H 321.434 4.8916 -3.25571 0
M  V30 3409 H 322.958 5.53414 -2.58002 0
M  V30 3410 H 324.372 3.92271 -4.18086 0
M  V30 3411 H 322.769 3.51872 -4.86113 0
M  V30 3412 H 323.839 2.2157 -4.31317 0
M  V30 3413 N 325.182 1.32811 0.848464 0
M  V30 3414 C 326.129 1.22265 1.95755 0
M  V30 3415 C 327.099 0.103413 1.65778 0
M  V30 3416 O 328.284 0.280033 1.88734 0
M  V30 3417 C 325.424 0.958014 3.31536 0
M  V30 3418 C 324.537 2.16262 3.73971 0
M  V30 3419 C 323.672 1.83295 4.98575 0
M  V30 3420 C 322.711 3.00041 5.33518 0
M  V30 3421 N 321.848 2.67125 6.49299 0
M  V30 3422 H 326.688 2.17128 2.04107 0
M  V30 3423 H 324.225 1.07982 0.998913 0
M  V30 3424 H 326.183 0.785052 4.09747 0
M  V30 3425 H 324.813 0.046159 3.22767 0
M  V30 3426 H 323.865 2.44565 2.91362 0
M  V30 3427 H 325.177 3.03572 3.95785 0
M  V30 3428 H 324.331 1.62586 5.84509 0
M  V30 3429 H 323.07 0.932078 4.7871 0
M  V30 3430 H 322.075 3.21374 4.46093 0
M  V30 3431 H 323.3 3.90869 5.55336 0
M  V30 3432 H 321.246 1.79586 6.3094 0
M  V30 3433 H 321.163 3.47965 6.71161 0
M  V30 3434 H 322.431 2.49861 7.3837 0
M  V30 3435 N 326.66 -1.06551 1.16123 0
M  V30 3436 C 328.076 -1.3142 0.905585 0
M  V30 3437 C 328.276 -1.96571 -0.442964 0
M  V30 3438 O 327.332 -2.23068 -1.18308 0
M  V30 3439 C 328.645 -2.19741 2.05267 0
M  V30 3440 C 330.193 -2.33165 2.08813 0
M  V30 3441 C 330.668 -3.24838 3.22868 0
M  V30 3442 N 332.159 -3.32421 3.22568 0
M  V30 3443 C 332.894 -4.0344 4.0746 0
M  V30 3444 N 332.39 -4.77003 5.02434 0
M  V30 3445 N 334.183 -3.99464 3.95456 0
M  V30 3446 H 326.334 -0.626548 2.02949 0
M  V30 3447 H 328.597 -0.338777 0.8854 0
M  V30 3448 H 328.303 -1.79142 3.02657 0
M  V30 3449 H 328.177 -3.20313 1.99198 0
M  V30 3450 H 330.564 -2.73013 1.12018 0
M  V30 3451 H 330.645 -1.3227 2.18948 0
M  V30 3452 H 330.289 -2.85708 4.19921 0
M  V30 3453 H 330.219 -4.25707 3.0997 0
M  V30 3454 H 332.71 -2.79994 2.53795 0
M  V30 3455 H 333.023 -5.28712 5.63634 0
M  V30 3456 H 331.368 -4.75992 5.06415 0
M  V30 3457 H 334.559 -3.4111 3.20564 0
M  V30 3458 H 334.732 -4.54544 4.61837 0
M  V30 3459 N 328.138 -0.959301 -1.25041 0
M  V30 3460 C 329.366 -0.633949 -1.96948 0
M  V30 3461 C 329.781 0.794916 -1.7125 0
M  V30 3462 O 329.138 1.53231 -0.991287 0
M  V30 3463 C 329.189 -0.888805 -3.50403 0
M  V30 3464 O 328.91 -2.26149 -3.75218 0
M  V30 3465 C 330.411 -0.576482 -4.39536 0
M  V30 3466 H 327.631 -0.237263 -0.627652 0
M  V30 3467 H 330.175 -1.28495 -1.59089 0
M  V30 3468 H 328.33 -0.284145 -3.86357 0
M  V30 3469 H 328.744 -2.33514 -4.6965 0
M  V30 3470 H 330.218 -0.805314 -5.46094 0
M  V30 3471 H 330.695 0.489075 -4.36468 0
M  V30 3472 H 331.301 -1.16067 -4.09156 0
M  V30 3473 N 329.616 1.39756 -0.72842 0
M  V30 3474 C 330.864 2.00248 -0.272946 0
M  V30 3475 C 331.185 1.58077 1.14178 0
M  V30 3476 O 330.455 0.826014 1.77634 0
M  V30 3477 H 329.035 0.740554 -0.0979247 0
M  V30 3478 H 331.697 1.70903 -0.936912 0
M  V30 3479 H 330.793 3.10495 -0.316142 0
M  V30 3480 N 331.094 0.475555 1.50254 0
M  V30 3481 C 332.319 -0.0777042 2.07254 0
M  V30 3482 C 332.744 -1.3235 1.3366 0
M  V30 3483 O 332.102 -1.77152 0.385597 0
M  V30 3484 C 332.15 -0.340169 3.58992 0
M  V30 3485 O 331.254 -1.41982 3.87188 0
M  V30 3486 H 330.595 0.0149556 0.663832 0
M  V30 3487 H 333.125 0.667878 1.93392 0
M  V30 3488 H 333.135 -0.579332 4.03866 0
M  V30 3489 H 331.81 0.570167 4.11973 0
M  V30 3490 H 330.387 -1.16762 3.54148 0
M  V30 3491 N 332.573 -1.56217 0.208337 0
M  V30 3492 C 333.85 -1.89739 -0.475234 0
M  V30 3493 C 334.23 -1.1238 -1.78701 0
M  V30 3494 O 333.578 -0.228979 -2.2735 0
M  V30 3495 C 333.788 -3.42289 -0.681101 0
M  V30 3496 C 335.136 -4.12789 -0.994507 0
M  V30 3497 O 336.16 -3.47814 -0.768357 0
M  V30 3498 O 335.019 -5.27649 -1.42299 0
M  V30 3499 H 332.113 -0.788478 -0.249461 0
M  V30 3500 H 334.659 -1.67855 0.249538 0
M  V30 3501 H 333.431 -3.90534 0.244722 0
M  V30 3502 H 333.054 -3.69909 -1.45785 0
M  V30 3503 N 334.051 0.0651679 -1.57465 0
M  V30 3504 C 335.3 0.761916 -1.86756 0
M  V30 3505 C 335.613 1.78406 -0.801925 0
M  V30 3506 O 336.819 2.53084 -0.982885 0
M  V30 3507 C 335.275 1.40603 -3.31299 0
M  V30 3508 C 334.883 0.422115 -4.46007 0
M  V30 3509 C 336.627 2.08476 -3.69781 0
M  V30 3510 C 334.534 1.07252 -5.81593 0
M  V30 3511 H 333.464 0.288308 -0.696702 0
M  V30 3512 H 336.115 0.015344 -1.83494 0
M  V30 3513 H 334.497 2.20109 -3.29193 0
M  V30 3514 H 335.671 -0.343613 -4.59517 0
M  V30 3515 H 333.986 -0.152527 -4.16121 0
M  V30 3516 H 336.583 2.57925 -4.68379 0
M  V30 3517 H 336.926 2.88712 -2.99919 0
M  V30 3518 H 337.459 1.35792 -3.73905 0
M  V30 3519 H 334.198 0.310342 -6.54765 0
M  V30 3520 H 333.718 1.80895 -5.71872 0
M  V30 3521 H 335.397 1.59043 -6.27148 0
M  V30 3522 N 335.529 1.53961 0.336706 0
M  V30 3523 C 336.806 1.62171 1.09361 0
M  V30 3524 C 337.186 0.447263 2.06307 0
M  V30 3525 O 336.534 -0.559802 2.21537 0
M  V30 3526 C 336.744 2.98565 1.80721 0
M  V30 3527 C 338.092 3.54157 2.34218 0
M  V30 3528 O 339.116 3.00784 1.90807 0
M  V30 3529 O 337.975 4.47528 3.13657 0
M  V30 3530 H 335.069 0.6562 0.503319 0
M  V30 3531 H 337.615 1.66307 0.33765 0
M  V30 3532 H 336.387 3.75482 1.10132 0
M  V30 3533 H 336.01 2.9805 2.63158 0
M  V30 3534 N 337.007 -0.598083 1.45811 0
M  V30 3535 C 338.253 -1.35679 1.51535 0
M  V30 3536 C 338.608 -1.91745 0.15864 0
M  V30 3537 O 337.901 -1.72654 -0.830724 0
M  V30 3538 C 338.095 -2.51669 2.53766 0
M  V30 3539 C 337.924 -2.06963 3.99245 0
M  V30 3540 C 336.694 -1.92693 4.67116 0
M  V30 3541 C 338.892 -1.63855 4.875 0
M  V30 3542 N 336.874 -1.41897 5.97276 0
M  V30 3543 C 338.245 -1.24541 6.07363 0
M  V30 3544 C 340.3 -1.51533 4.74281 0
M  V30 3545 C 339.003 -0.741354 7.15469 0
M  V30 3546 C 341.029 -1.0253 5.82444 0
M  V30 3547 C 340.391 -0.641869 7.01469 0
M  V30 3548 H 336.49 -0.490042 0.609412 0
M  V30 3549 H 339.074 -0.682687 1.82339 0
M  V30 3550 H 337.245 -3.16663 2.24898 0
M  V30 3551 H 338.977 -3.18578 2.4958 0
M  V30 3552 H 335.732 -2.1417 4.22408 0
M  V30 3553 H 336.156 -1.18704 6.66512 0
M  V30 3554 H 340.798 -1.798 3.82664 0
M  V30 3555 H 338.516 -0.446243 8.06867 0
M  V30 3556 H 342.102 -0.934088 5.74253 0
M  V30 3557 H 340.982 -0.268531 7.8374 0
M  V30 3558 N 338.485 -1.33259 -0.841409 0
M  V30 3559 C 339.417 -1.19136 -1.95804 0
M  V30 3560 C 340.43 -0.122965 -1.62335 0
M  V30 3561 O 341.619 -0.373154 -1.74556 0
M  V30 3562 C 338.719 -0.804268 -3.29218 0
M  V30 3563 C 337.892 -1.96376 -3.90839 0
M  V30 3564 C 336.951 -1.55806 -5.02604 0
M  V30 3565 O 335.977 -2.27203 -5.21888 0
M  V30 3566 N 337.179 -0.461609 -5.78662 0
M  V30 3567 H 339.944 -2.15326 -2.08458 0
M  V30 3568 H 337.505 -1.25971 -1.017 0
M  V30 3569 H 339.497 -0.51501 -4.0141 0
M  V30 3570 H 338.067 0.0668809 -3.12528 0
M  V30 3571 H 337.287 -2.41879 -3.11269 0
M  V30 3572 H 338.575 -2.73966 -4.28742 0
M  V30 3573 H 337.973 0.132343 -5.65545 0
M  V30 3574 H 336.53 -0.232013 -6.51387 0
M  V30 3575 N 339.963 1.05934 -1.16686 0
M  V30 3576 C 340.873 2.17014 -0.891183 0
M  V30 3577 C 341.889 1.73453 0.137907 0
M  V30 3578 O 343.065 2.01361 -0.039592 0
M  V30 3579 C 340.13 3.44384 -0.400099 0
M  V30 3580 C 339.191 4.02433 -1.49486 0
M  V30 3581 C 338.424 5.23723 -1.02711 0
M  V30 3582 O 338.647 5.7027 0.121716 0
M  V30 3583 O 337.581 5.7382 -1.81699 0
M  V30 3584 H 341.407 2.43113 -1.82015 0
M  V30 3585 H 338.992 1.15541 -0.947132 0
M  V30 3586 H 340.874 4.21189 -0.133392 0
M  V30 3587 H 339.549 3.19802 0.500817 0
M  V30 3588 H 338.456 3.27102 -1.81535 0
M  V30 3589 H 339.789 4.31317 -2.37121 0
M  V30 3590 N 341.441 0.965919 1.2453 0
M  V30 3591 C 342.689 0.625593 1.92174 0
M  V30 3592 C 343.01 -0.841652 1.75901 0
M  V30 3593 O 342.28 -1.60061 1.12948 0
M  V30 3594 H 340.86 0.228388 0.71123 0
M  V30 3595 H 343.522 1.2266 1.51461 0
M  V30 3596 H 342.618 0.864653 2.99884 0
M  V30 3597 N 342.919 -1.39368 0.735821 0
M  V30 3598 C 344.335 -1.54204 0.411492 0
M  V30 3599 C 344.535 -1.70268 -1.07755 0
M  V30 3600 O 343.591 -1.70364 -1.86366 0
M  V30 3601 C 344.904 -2.75925 1.19523 0
M  V30 3602 C 346.452 -2.89761 1.18354 0
M  V30 3603 C 346.927 -4.14421 1.94986 0
M  V30 3604 N 348.418 -4.21462 1.92156 0
M  V30 3605 C 349.153 -5.16871 2.48258 0
M  V30 3606 N 348.649 -6.18063 3.13001 0
M  V30 3607 N 350.442 -5.09093 2.38287 0
M  V30 3608 H 342.593 -1.27189 1.70108 0
M  V30 3609 H 344.856 -0.616517 0.720147 0
M  V30 3610 H 344.562 -2.70401 2.24892 0
M  V30 3611 H 344.436 -3.68614 0.800222 0
M  V30 3612 H 346.823 -2.94777 0.137975 0
M  V30 3613 H 346.904 -1.98133 1.61793 0
M  V30 3614 H 346.548 -4.10166 2.99543 0
M  V30 3615 H 346.478 -5.05095 1.48953 0
M  V30 3616 H 348.969 -3.48979 1.44991 0
M  V30 3617 H 349.282 -6.87326 3.53275 0
M  V30 3618 H 347.627 -6.18448 3.17091 0
M  V30 3619 H 350.818 -4.28973 1.8735 0
M  V30 3620 H 350.991 -5.83272 2.82308 0
M  V30 3621 N 344.397 -0.483516 -1.5 0
M  V30 3622 C 345.674 0.129337 -1.95172 0
M  V30 3623 C 346.054 1.55802 -1.4244 0
M  V30 3624 O 345.402 2.19625 -0.630649 0
M  V30 3625 C 345.612 0.0599251 -3.48949 0
M  V30 3626 C 346.96 0.242617 -4.23906 0
M  V30 3627 O 347.984 0.135933 -3.55941 0
M  V30 3628 O 346.843 0.459454 -5.44565 0
M  V30 3629 H 343.937 0.104887 -0.820322 0
M  V30 3630 H 346.483 -0.544807 -1.60717 0
M  V30 3631 H 345.255 -0.937079 -3.79914 0
M  V30 3632 H 344.878 0.774984 -3.89974 0
M  V30 3633 N 345.875 1.56104 -0.216619 0
M  V30 3634 C 346.805 2.23063 0.690296 0
M  V30 3635 C 347.786 1.20072 1.20485 0
M  V30 3636 O 348.971 1.48643 1.24976 0
M  V30 3637 C 346.101 2.90672 1.90072 0
M  V30 3638 C 345.055 4.00092 1.5202 0
M  V30 3639 C 344.381 4.54972 2.80899 0
M  V30 3640 C 345.681 5.17398 0.71391 0
M  V30 3641 H 347.375 2.99109 0.132038 0
M  V30 3642 H 344.921 1.43866 0.0620664 0
M  V30 3643 H 346.874 3.36204 2.54057 0
M  V30 3644 H 345.598 2.12066 2.48386 0
M  V30 3645 H 344.257 3.55283 0.903839 0
M  V30 3646 H 343.905 3.73102 3.37348 0
M  V30 3647 H 343.605 5.28817 2.56176 0
M  V30 3648 H 345.129 5.0322 3.45836 0
M  V30 3649 H 346.543 5.59342 1.25735 0
M  V30 3650 H 344.94 5.97444 0.563951 0
M  V30 3651 H 346.01 4.84088 -0.280527 0
M  V30 3652 N 347.353 -0.0568162 1.57498 0
M  V30 3653 C 348.599 -0.748893 1.89111 0
M  V30 3654 C 348.954 -1.74422 0.81208 0
M  V30 3655 O 348.247 -1.90731 -0.182247 0
M  V30 3656 C 348.441 -1.48359 3.25153 0
M  V30 3657 C 348.27 -0.560924 4.46188 0
M  V30 3658 C 347.04 -0.192264 5.04934 0
M  V30 3659 C 349.238 0.148824 5.14085 0
M  V30 3660 N 347.22 0.734555 6.0949 0
M  V30 3661 C 348.591 0.932286 6.12951 0
M  V30 3662 C 350.646 0.218713 4.97419 0
M  V30 3663 C 349.349 1.77917 6.96949 0
M  V30 3664 C 351.375 1.05262 5.81957 0
M  V30 3665 C 350.737 1.82409 6.80372 0
M  V30 3666 H 346.836 -0.249002 0.741298 0
M  V30 3667 H 349.42 -0.00984926 1.94698 0
M  V30 3668 H 347.591 -2.19326 3.20547 0
M  V30 3669 H 349.323 -2.12586 3.44368 0
M  V30 3670 H 346.078 -0.548421 4.70414 0
M  V30 3671 H 346.502 1.19165 6.6643 0
M  V30 3672 H 351.144 -0.363407 4.21235 0
M  V30 3673 H 348.862 2.3722 7.72497 0
M  V30 3674 H 352.448 1.10987 5.71116 0
M  V30 3675 H 351.328 2.45895 7.44651 0
M  V30 3676 N 348.832 -1.54138 -0.328536 0
M  V30 3677 C 350.078 -1.73297 -1.06488 0
M  V30 3678 C 350.433 -0.497958 -1.85844 0
M  V30 3679 O 349.726 0.509591 -1.84699 0
M  V30 3680 C 349.92 -2.9457 -2.02393 0
M  V30 3681 C 349.749 -4.29747 -1.32467 0
M  V30 3682 C 348.519 -4.93987 -1.06324 0
M  V30 3683 C 350.717 -5.08903 -0.743137 0
M  V30 3684 N 348.699 -6.13005 -0.331359 0
M  V30 3685 C 350.07 -6.19836 -0.142602 0
M  V30 3686 C 352.125 -4.93699 -0.64546 0
M  V30 3687 C 350.828 -7.17224 0.546125 0
M  V30 3688 C 352.854 -5.91393 0.0295558 0
M  V30 3689 C 352.216 -7.01674 0.619056 0
M  V30 3690 H 348.315 -0.687017 -0.373539 0
M  V30 3691 H 350.899 -1.91589 -0.346659 0
M  V30 3692 H 349.07 -2.77752 -2.71493 0
M  V30 3693 H 350.802 -3.0238 -2.68977 0
M  V30 3694 H 347.557 -4.53824 -1.35428 0
M  V30 3695 H 347.981 -6.76997 0.0202939 0
M  V30 3696 H 352.623 -4.08589 -1.08695 0
M  V30 3697 H 350.341 -8.01896 0.999459 0
M  V30 3698 H 353.927 -5.81706 0.104705 0
M  V30 3699 H 352.807 -7.75971 1.13309 0
M  V30 3700 N 350.31 0.590341 -1.46126 0
M  V30 3701 C 351.726 0.912917 -1.30912 0
M  V30 3702 C 351.926 1.99616 -0.274893 0
M  V30 3703 O 350.982 2.50397 0.325197 0
M  V30 3704 C 352.295 1.3375 -2.69317 0
M  V30 3705 C 353.843 1.45077 -2.77348 0
M  V30 3706 C 354.318 1.90904 -4.16317 0
M  V30 3707 N 355.809 1.9811 -4.18696 0
M  V30 3708 C 356.544 2.34828 -5.23109 0
M  V30 3709 N 356.04 2.70393 -6.37856 0
M  V30 3710 N 357.833 2.35317 -5.10473 0
M  V30 3711 H 349.984 -0.125358 -2.1203 0
M  V30 3712 H 352.247 0.00658481 -0.947977 0
M  V30 3713 H 351.953 0.615614 -3.4627 0
M  V30 3714 H 351.827 2.30058 -2.9892 0
M  V30 3715 H 354.214 2.16353 -2.00687 0
M  V30 3716 H 354.295 0.4704 -2.51438 0
M  V30 3717 H 353.939 1.20209 -4.9347 0
M  V30 3718 H 353.869 2.89886 -4.39629 0
M  V30 3719 H 356.36 1.73146 -3.359 0
M  V30 3720 H 356.673 2.97341 -7.13308 0
M  V30 3721 H 355.018 2.68048 -6.41229 0
M  V30 3722 H 358.209 2.0695 -4.19868 0
M  V30 3723 H 358.382 2.63605 -5.9196 0
M  V30 3724 N 351.788 1.33704 0.83433 0
M  V30 3725 C 353.065 1.16011 1.57483 0
M  V30 3726 C 353.445 -0.27176 2.09343 0
M  V30 3727 O 352.793 -1.27146 1.89858 0
M  V30 3728 C 353.003 2.20507 2.70514 0
M  V30 3729 C 354.351 2.54898 3.39577 0
M  V30 3730 O 355.375 2.19209 2.80759 0
M  V30 3731 O 354.234 3.16158 4.45765 0
M  V30 3732 H 351.328 0.448992 0.694503 0
M  V30 3733 H 353.874 1.453 0.876691 0
M  V30 3734 H 352.646 3.16667 2.29865 0
M  V30 3735 H 352.269 1.92329 3.47987 0
M  V30 3736 N 353.266 -1.05314 1.17247 0
M  V30 3737 C 354.196 -2.1498 0.911362 0
M  V30 3738 C 355.177 -1.69471 -0.146169 0
M  V30 3739 O 356.362 -1.942 0.003812 0
M  V30 3740 C 353.492 -3.4472 0.422528 0
M  V30 3741 C 352.446 -4.03789 1.4191 0
M  V30 3742 C 351.772 -5.28858 0.788274 0
M  V30 3743 C 353.072 -4.41418 2.7919 0
M  V30 3744 H 354.766 -2.3708 1.82848 0
M  V30 3745 H 352.312 -1.13938 0.880569 0
M  V30 3746 H 354.265 -4.20787 0.227289 0
M  V30 3747 H 352.989 -3.22269 -0.530123 0
M  V30 3748 H 351.648 -3.2979 1.60106 0
M  V30 3749 H 351.296 -5.02709 -0.171173 0
M  V30 3750 H 350.996 -5.69338 1.45353 0
M  V30 3751 H 352.52 -6.07612 0.603282 0
M  V30 3752 H 353.934 -5.08524 2.64719 0
M  V30 3753 H 352.331 -4.92913 3.42282 0
M  V30 3754 H 353.401 -3.51819 3.33693 0
M  V30 3755 N 354.744 -0.972509 -1.24016 0
M  V30 3756 C 355.993 -0.632603 -1.91523 0
M  V30 3757 C 356.306 0.836641 -1.76804 0
M  V30 3758 O 357.512 1.28728 -2.39043 0
M  V30 3759 C 355.968 -1.08082 -3.43287 0
M  V30 3760 C 355.576 -2.57386 -3.66683 0
M  V30 3761 C 357.32 -0.814288 -4.16617 0
M  V30 3762 C 355.227 -2.95915 -5.12043 0
M  V30 3763 H 354.157 -0.232898 -0.717129 0
M  V30 3764 H 356.808 -1.17936 -1.40582 0
M  V30 3765 H 355.19 -0.462339 -3.93292 0
M  V30 3766 H 356.364 -3.24405 -3.27258 0
M  V30 3767 H 354.679 -2.81701 -3.06649 0
M  V30 3768 H 357.276 -1.0781 -5.23718 0
M  V30 3769 H 357.619 0.24955 -4.15551 0
M  V30 3770 H 358.152 -1.39397 -3.72577 0
M  V30 3771 H 354.891 -4.0139 -5.18234 0
M  V30 3772 H 354.411 -2.33584 -5.52448 0
M  V30 3773 H 356.09 -2.86086 -5.80314 0
M  V30 3774 N 356.222 1.38976 -0.743202 0
M  V30 3775 C 357.132 2.3434 -0.110399 0
M  V30 3776 C 358.148 1.58741 0.712559 0
M  V30 3777 O 359.324 1.9099 0.639125 0
M  V30 3778 C 356.389 3.37812 0.780012 0
M  V30 3779 C 355.45 4.29263 -0.0561319 0
M  V30 3780 C 354.683 5.27793 0.791875 0
M  V30 3781 O 354.906 5.33043 2.03031 0
M  V30 3782 O 353.84 6.01512 0.216183 0
M  V30 3783 H 357.666 2.90129 -0.897714 0
M  V30 3784 H 355.251 1.40643 -0.503966 0
M  V30 3785 H 357.133 4.01194 1.28923 0
M  V30 3786 H 355.808 2.84395 1.546 0
M  V30 3787 H 354.715 3.69076 -0.611056 0
M  V30 3788 H 356.048 4.85907 -0.784531 0
M  V30 3789 N 357.7 0.491464 1.49741 0
M  V30 3790 C 358.647 -0.292027 2.28945 0
M  V30 3791 C 359.617 -0.968973 1.34908 0
M  V30 3792 O 360.802 -0.97748 1.6386 0
M  V30 3793 C 357.942 -1.35617 3.17336 0
M  V30 3794 C 357.055 -0.691957 4.26422 0
M  V30 3795 C 356.19 -1.73572 5.02042 0
M  V30 3796 C 355.229 -1.05286 6.02977 0
M  V30 3797 N 354.366 -2.0404 6.71798 0
M  V30 3798 H 359.206 0.389654 2.95442 0
M  V30 3799 H 356.743 0.204003 1.45679 0
M  V30 3800 H 358.701 -1.98502 3.66951 0
M  V30 3801 H 357.331 -2.00674 2.52844 0
M  V30 3802 H 356.383 0.0499523 3.80367 0
M  V30 3803 H 357.695 -0.153946 4.98562 0
M  V30 3804 H 356.849 -2.43987 5.55478 0
M  V30 3805 H 355.588 -2.30757 4.29654 0
M  V30 3806 H 354.593 -0.334446 5.48782 0
M  V30 3807 H 355.818 -0.487636 6.77347 0
M  V30 3808 H 353.764 -2.60205 6.02187 0
M  V30 3809 H 353.681 -1.55279 7.39881 0
M  V30 3810 H 354.949 -2.73772 7.29842 0
M  V30 3811 N 359.178 -1.55987 0.224894 0
M  V30 3812 C 360.141 -2.19178 -0.670348 0
M  V30 3813 C 361.141 -1.15461 -1.11917 0
M  V30 3814 O 362.331 -1.40675 -1.02743 0
M  V30 3815 C 359.463 -2.81777 -1.9187 0
M  V30 3816 H 360.656 -2.99662 -0.119364 0
M  V30 3817 H 358.209 -1.5628 -0.0247128 0
M  V30 3818 H 358.944 -2.05172 -2.51147 0
M  V30 3819 H 358.729 -3.57732 -1.60531 0
M  V30 3820 H 360.219 -3.30205 -2.55645 0
M  V30 3821 N 360.656 0.0484629 -1.57525 0
M  V30 3822 C 361.881 0.759177 -1.93006 0
M  V30 3823 C 362.306 1.69125 -0.823317 0
M  V30 3824 O 361.664 1.79931 0.222364 0
M  V30 3825 C 361.712 1.50899 -3.27509 0
M  V30 3826 O 360.816 2.62112 -3.18388 0
M  V30 3827 H 360.157 0.205564 -0.631379 0
M  V30 3828 H 362.687 0.00972959 -2.04598 0
M  V30 3829 H 362.697 1.88317 -3.6194 0
M  V30 3830 H 361.372 0.825269 -4.0763 0
M  V30 3831 H 359.949 2.27379 -2.95556 0
M  V30 3832 N 362.134 1.5431 0.320358 0
M  V30 3833 C 363.545 1.63872 0.894594 0
M  V30 3834 C 363.896 0.534847 1.88769 0
M  V30 3835 O 363.021 -0.331732 2.13842 0
M  V30 3836 C 363.616 2.97049 1.62934 0
M  V30 3837 C 362.175 3.08796 2.15226 0
M  V30 3838 C 361.322 2.59456 0.978671 0
M  V30 3839 H 364.273 1.58398 0.0978544 0
M  V30 3840 H 364.294 2.87388 2.49376 0
M  V30 3841 H 363.806 3.7737 0.906302 0
M  V30 3842 H 361.907 2.33156 2.90636 0
M  V30 3843 H 362.02 4.14649 2.40006 0
M  V30 3844 H 360.384 2.1543 1.35875 0
M  V30 3845 H 361.167 3.42237 0.269895 0
M  V30 3846 N 363.613 -0.582584 1.46437 0
M  V30 3847 C 364.523 -1.71949 1.59595 0
M  V30 3848 C 365.539 -1.67264 0.479443 0
M  V30 3849 O 366.715 -1.87171 0.743579 0
M  V30 3850 C 363.78 -3.08452 1.58298 0
M  V30 3851 C 362.841 -3.244 2.81182 0
M  V30 3852 C 362.074 -4.54391 2.79937 0
M  V30 3853 O 362.297 -5.38287 1.8869 0
M  V30 3854 O 361.231 -4.73588 3.71481 0
M  V30 3855 H 365.057 -1.63795 2.55744 0
M  V30 3856 H 362.642 -0.749643 1.29231 0
M  V30 3857 H 364.524 -3.89732 1.60271 0
M  V30 3858 H 363.199 -3.17043 0.653094 0
M  V30 3859 H 362.106 -2.42613 2.84763 0
M  V30 3860 H 363.439 -3.20699 3.7338 0
M  V30 3861 N 365.091 -1.34144 -0.827227 0
M  V30 3862 C 366.041 -1.21923 -1.92663 0
M  V30 3863 C 367.025 -0.119294 -1.60457 0
M  V30 3864 O 368.217 -0.348539 -1.73534 0
M  V30 3865 C 365.346 -0.972492 -3.29238 0
M  V30 3866 C 364.432 -2.1154 -3.67576 0
M  V30 3867 N 364.823 -3.36627 -3.77512 0
M  V30 3868 C 363.121 -2.02468 -3.97395 0
M  V30 3869 C 363.822 -4.11658 -4.1099 0
M  V30 3870 N 362.798 -3.40207 -4.23981 0
M  V30 3871 H 366.6 -2.16721 -1.98517 0
M  V30 3872 H 364.114 -1.2632 -1.02064 0
M  V30 3873 H 366.111 -0.865847 -4.0781 0
M  V30 3874 H 364.771 -0.0331509 -3.24683 0
M  V30 3875 H 365.782 -3.71234 -3.61118 0
M  V30 3876 H 362.459 -1.16265 -4.00985 0
M  V30 3877 H 363.849 -5.19657 -4.25918 0
M  V30 3878 N 366.569 1.04691 -1.17803 0
M  V30 3879 C 367.501 2.12571 -0.857097 0
M  V30 3880 C 368.514 1.62174 0.142647 0
M  V30 3881 O 369.703 1.78301 -0.0843387 0
M  V30 3882 C 366.803 3.37915 -0.258216 0
M  V30 3883 C 365.976 4.1757 -1.30207 0
M  V30 3884 C 365.035 5.2125 -0.720029 0
M  V30 3885 O 364.061 5.51888 -1.39314 0
M  V30 3886 N 365.263 5.78466 0.485507 0
M  V30 3887 H 368.028 2.40698 -1.78562 0
M  V30 3888 H 365.589 1.20831 -1.07757 0
M  V30 3889 H 367.581 4.04442 0.144584 0
M  V30 3890 H 366.151 3.07281 0.574199 0
M  V30 3891 H 365.371 3.46458 -1.88043 0
M  V30 3892 H 366.659 4.67586 -2.00601 0
M  V30 3893 H 366.057 5.55866 1.05022 0
M  V30 3894 H 364.614 6.4649 0.830307 0
M  V30 3895 N 368.047 0.979072 1.23499 0
M  V30 3896 C 369.458 0.684391 1.73704 0
M  V30 3897 C 369.809 -0.799448 1.79174 0
M  V30 3898 O 368.934 -1.62531 1.42873 0
M  V30 3899 C 369.529 1.23564 3.15464 0
M  V30 3900 C 368.088 0.99063 3.6313 0
M  V30 3901 C 367.235 1.36416 2.41425 0
M  V30 3902 H 370.186 1.15307 1.09041 0
M  V30 3903 H 370.207 0.607417 3.7562 0
M  V30 3904 H 369.719 2.31561 3.1145 0
M  V30 3905 H 367.82 -0.0733136 3.72528 0
M  V30 3906 H 367.933 1.64427 4.5 0
M  V30 3907 H 366.297 0.782616 2.42378 0
M  V30 3908 H 367.08 2.45387 2.40083 0
M  V30 3909 N 369.525 -1.3858 0.750561 0
M  V30 3910 C 370.435 -2.34278 0.122825 0
M  V30 3911 C 371.451 -1.59116 -0.704131 0
M  V30 3912 O 372.627 -1.91326 -0.628987 0
M  V30 3913 C 369.692 -3.38221 -0.762086 0
M  V30 3914 C 368.753 -4.29227 0.078896 0
M  V30 3915 C 367.986 -5.28205 -0.763874 0
M  V30 3916 O 368.209 -5.34112 -2.00201 0
M  V30 3917 O 367.143 -6.01618 -0.18428 0
M  V30 3918 H 370.969 -2.89649 0.913088 0
M  V30 3919 H 368.554 -1.40374 0.511417 0
M  V30 3920 H 370.436 -4.01872 -1.26793 0
M  V30 3921 H 369.111 -2.85211 -1.5309 0
M  V30 3922 H 368.018 -3.68747 0.630621 0
M  V30 3923 H 369.351 -4.85484 0.810289 0
M  V30 3924 N 371.003 -0.499398 -1.49478 0
M  V30 3925 C 371.966 0.268838 -2.27618 0
M  V30 3926 C 372.966 0.895383 -1.33565 0
M  V30 3927 O 374.156 0.760164 -1.56739 0
M  V30 3928 C 371.288 1.38559 -3.11471 0
M  V30 3929 H 372.481 -0.416812 -2.96989 0
M  V30 3930 H 370.034 -0.254313 -1.54217 0
M  V30 3931 H 370.769 2.10544 -2.46661 0
M  V30 3932 H 370.554 0.941797 -3.80621 0
M  V30 3933 H 372.044 1.92678 -3.70493 0
M  V30 3934 N 372.481 1.55866 -0.233164 0
M  V30 3935 C 373.414 2.16794 0.712442 0
M  V30 3936 C 374.392 1.1158 1.18273 0
M  V30 3937 O 375.576 1.39897 1.26337 0
M  V30 3938 C 372.703 2.75757 1.96661 0
M  V30 3939 C 371.749 3.93902 1.63533 0
M  V30 3940 S 372.582 5.30223 0.74995 0
M  V30 3941 C 373.738 5.92631 2.01343 0
M  V30 3942 H 373.971 2.96662 0.194617 0
M  V30 3943 H 371.504 1.5439 -0.0177425 0
M  V30 3944 H 373.462 3.10367 2.68668 0
M  V30 3945 H 372.123 1.9586 2.45556 0
M  V30 3946 H 371.316 4.33702 2.56747 0
M  V30 3947 H 370.918 3.60499 0.995804 0
M  V30 3948 H 373.21 6.09312 2.96219 0
M  V30 3949 H 374.153 6.88388 1.65915 0
M  V30 3950 H 374.561 5.21571 2.15925 0
M  V30 3951 N 373.959 -0.0401083 1.57549 0
M  V30 3952 C 374.907 -1.06264 2.06908 0
M  V30 3953 C 375.901 -1.38132 0.980608 0
M  V30 3954 O 377.107 -1.37167 1.16556 0
M  V30 3955 H 373.482 -0.360166 0.660139 0
M  V30 3956 H 375.453 -0.620445 2.91878 0
M  V30 3957 C 374.202 -2.35846 2.55483 0
M  V30 3958 H 373.525 -2.12183 3.38849 0
M  V30 3959 H 374.965 -3.05765 2.93741 0
M  V30 3960 C 373.424 -3.0404 1.45126 0
M  V30 3961 O 373.954 -3.93424 0.811216 0
M  V30 3962 N 372.16 -2.65184 1.18852 0
M  V30 3963 H 371.707 -1.92584 1.71083 0
M  V30 3964 H 371.665 -3.1113 0.452244 0
M  V30 3965 N 375.437 -1.54477 -0.31217 0
M  V30 3966 C 376.4 -1.83923 -1.36766 0
M  V30 3967 C 377.4 -0.711563 -1.44199 0
M  V30 3968 O 378.59 -0.979866 -1.44029 0
M  V30 3969 C 375.722 -2.0095 -2.75376 0
M  V30 3970 H 376.915 -2.78239 -1.11906 0
M  V30 3971 H 374.468 -1.46369 -0.548257 0
M  V30 3972 H 375.203 -1.08883 -3.05475 0
M  V30 3973 H 374.988 -2.83018 -2.71373 0
M  V30 3974 H 376.478 -2.2514 -3.51713 0
M  V30 3975 N 376.915 0.57481 -1.46744 0
M  V30 3976 C 377.825 1.711 -1.60505 0
M  V30 3977 C 378.841 1.67008 -0.488307 0
M  V30 3978 O 380.017 1.86774 -0.753495 0
M  V30 3979 C 377.082 3.07608 -1.59932 0
M  V30 3980 C 376.143 3.22904 -2.82898 0
M  V30 3981 C 375.376 4.529 -2.82343 0
M  V30 3982 O 375.599 5.37278 -1.91542 0
M  V30 3983 O 374.533 4.71611 -3.73987 0
M  V30 3984 H 378.359 1.62436 -2.56609 0
M  V30 3985 H 375.944 0.742779 -1.29627 0
M  V30 3986 H 377.826 3.88877 -1.62336 0
M  V30 3987 H 376.501 3.16692 -0.669898 0
M  V30 3988 H 375.408 2.41099 -2.86046 0
M  V30 3989 H 376.741 3.18715 -3.75076 0
M  V30 3990 N 378.394 1.34581 0.820102 0
M  V30 3991 C 379.671 1.17675 1.56244 0
M  V30 3992 C 380.051 -0.249541 2.0962 0
M  V30 3993 O 379.399 -1.25125 1.91196 0
M  V30 3994 C 379.609 2.23364 2.6816 0
M  V30 3995 C 380.957 2.58485 3.36854 0
M  V30 3996 O 381.981 2.22175 2.78418 0
M  V30 3997 O 380.84 3.20868 4.42386 0
M  V30 3998 H 377.934 0.456333 0.689702 0
M  V30 3999 H 380.48 1.46222 0.861231 0
M  V30 4000 H 379.252 3.19087 2.26493 0
M  V30 4001 H 378.875 1.96009 3.45928 0
M  V30 4002 N 379.872 -1.04064 1.18357 0
M  V30 4003 C 381.283 -1.58719 0.98312 0
M  V30 4004 C 381.634 -1.90556 -0.467193 0
M  V30 4005 O 380.759 -1.69561 -1.34454 0
M  V30 4006 C 381.354 -2.88379 1.77828 0
M  V30 4007 C 379.913 -3.3965 1.62218 0
M  V30 4008 C 379.06 -2.13235 1.77274 0
M  V30 4009 H 382.011 -0.867359 1.32901 0
M  V30 4010 H 382.032 -3.58773 1.26737 0
M  V30 4011 H 381.544 -2.65176 2.83379 0
M  V30 4012 H 379.645 -3.67866 0.592036 0
M  V30 4013 H 379.758 -4.13475 2.42023 0
M  V30 4014 H 378.122 -2.24542 1.20221 0
M  V30 4015 H 378.905 -1.92487 2.8426 0
M  V30 4016 N 381.35 -0.985608 -1.22978 0
M  V30 4017 C 382.28 -0.549649 -2.26939 0
M  V30 4018 C 383.261 0.419803 -1.64838 0
M  V30 4019 O 384.446 0.31203 -1.91677 0
M  V30 4020 C 381.576 0.143652 -3.47003 0
M  V30 4021 C 380.53 -0.743606 -4.21491 0
M  V30 4022 C 379.856 0.0822027 -5.34637 0
M  V30 4023 C 381.156 -2.03694 -4.80943 0
M  V30 4024 H 382.85 -1.41862 -2.63658 0
M  V30 4025 H 380.396 -0.683571 -1.26741 0
M  V30 4026 H 382.349 0.459985 -4.18882 0
M  V30 4027 H 381.073 1.04711 -3.09359 0
M  V30 4028 H 379.732 -1.04347 -3.51436 0
M  V30 4029 H 379.38 0.986359 -4.93234 0
M  V30 4030 H 379.08 -0.508377 -5.85397 0
M  V30 4031 H 380.604 0.392797 -6.09335 0
M  V30 4032 H 382.018 -1.78504 -5.44802 0
M  V30 4033 H 380.415 -2.57573 -5.42011 0
M  V30 4034 H 381.485 -2.72042 -4.01399 0
M  V30 4035 N 382.828 1.3818 -0.7579 0
M  V30 4036 C 384.075 2.00019 -0.315985 0
M  V30 4037 C 384.403 1.60163 1.10355 0
M  V30 4038 O 383.658 0.83264 1.77103 0
M  V30 4039 C 383.957 3.55252 -0.391218 0
M  V30 4040 C 383.623 4.14834 -1.76702 0
M  V30 4041 C 382.285 4.30821 -2.14353 0
M  V30 4042 C 384.637 4.47658 -2.66931 0
M  V30 4043 C 381.965 4.76928 -3.41696 0
M  V30 4044 C 384.317 4.95184 -3.93669 0
M  V30 4045 C 382.981 5.09377 -4.31383 0
M  V30 4046 H 382.251 0.731923 -0.115627 0
M  V30 4047 H 384.898 1.65161 -0.969223 0
M  V30 4048 H 383.203 3.90273 0.34558 0
M  V30 4049 H 384.9 4.00988 -0.030805 0
M  V30 4050 H 381.49 4.02808 -1.46435 0
M  V30 4051 H 385.674 4.34904 -2.39106 0
M  V30 4052 H 380.93 4.86103 -3.70829 0
M  V30 4053 H 385.104 5.19551 -4.63724 0
M  V30 4054 H 382.731 5.44865 -5.30119 0
M  V30 4055 N 384.306 0.507319 1.49211 0
M  V30 4056 C 385.555 -0.0368315 2.01666 0
M  V30 4057 C 385.868 -1.37459 1.39156 0
M  V30 4058 O 387.074 -2.00579 1.82976 0
M  V30 4059 C 385.53 -0.116089 3.59713 0
M  V30 4060 C 385.138 1.2154 4.31198 0
M  V30 4061 C 386.882 -0.610268 4.2009 0
M  V30 4062 C 384.789 1.09796 5.81119 0
M  V30 4063 H 383.719 -0.0175376 0.753796 0
M  V30 4064 H 386.37 0.647691 1.71689 0
M  V30 4065 H 384.752 -0.8652 3.86433 0
M  V30 4066 H 385.926 1.9783 4.16173 0
M  V30 4067 H 384.241 1.64352 3.82593 0
M  V30 4068 H 386.838 -0.715742 5.29888 0
M  V30 4069 H 387.181 -1.61064 3.8388 0
M  V30 4070 H 387.714 0.0824916 3.97714 0
M  V30 4071 H 384.453 2.0728 6.21864 0
M  V30 4072 H 383.973 0.376058 5.9862 0
M  V30 4073 H 385.652 0.779281 6.4229 0
M  V30 4074 N 385.784 -1.5574 0.241426 0
M  V30 4075 C 386.714 -2.24133 -0.654722 0
M  V30 4076 C 387.695 -1.21974 -1.1856 0
M  V30 4077 O 388.88 -1.50612 -1.22595 0
M  V30 4078 C 386.01 -2.93659 -1.85423 0
M  V30 4079 C 384.964 -4.0246 -1.45636 0
M  V30 4080 C 384.29 -4.59383 -2.73626 0
M  V30 4081 C 385.59 -5.18468 -0.631506 0
M  V30 4082 H 387.284 -2.99281 -0.0844353 0
M  V30 4083 H 384.83 -1.43947 -0.0391707 0
M  V30 4084 H 386.783 -3.40203 -2.48676 0
M  V30 4085 H 385.507 -2.15991 -2.44981 0
M  V30 4086 H 384.166 -3.56676 -0.847202 0
M  V30 4087 H 383.814 -3.78422 -3.3137 0
M  V30 4088 H 383.514 -5.32826 -2.4773 0
M  V30 4089 H 385.038 -5.08658 -3.37786 0
M  V30 4090 H 386.452 -5.61272 -1.1682 0
M  V30 4091 H 384.849 -5.98266 -0.468831 0
M  V30 4092 H 385.919 -4.8358 0.357506 0
M  V30 4093 N 387.262 0.0317525 -1.57568 0
M  V30 4094 C 388.492 0.733884 -1.93126 0
M  V30 4095 C 388.9 1.69563 -0.839352 0
M  V30 4096 O 388.243 1.82681 0.193175 0
M  V30 4097 C 388.305 1.54798 -3.24465 0
M  V30 4098 C 387.969 0.751304 -4.50782 0
M  V30 4099 C 388.966 0.0527632 -5.19873 0
M  V30 4100 C 386.651 0.706639 -4.97305 0
M  V30 4101 C 388.645 -0.679774 -6.33765 0
M  V30 4102 C 386.332 -0.0296449 -6.11093 0
M  V30 4103 C 387.33 -0.721614 -6.79177 0
M  V30 4104 O 387.018 -1.44595 -7.90789 0
M  V30 4105 H 386.75 0.211459 -0.642076 0
M  V30 4106 H 389.304 -0.00585615 -2.05399 0
M  V30 4107 H 387.534 2.33147 -3.08512 0
M  V30 4108 H 389.223 2.13247 -3.4537 0
M  V30 4109 H 389.989 0.0783188 -4.84937 0
M  V30 4110 H 385.868 1.23474 -4.44157 0
M  V30 4111 H 389.412 -1.22042 -6.86842 0
M  V30 4112 H 385.309 -0.0571331 -6.45475 0
M  V30 4113 H 386.077 -1.35935 -8.07133 0
M  V30 4114 N 388.74 1.54641 0.303973 0
M  V30 4115 C 389.968 1.77768 1.05858 0
M  V30 4116 C 390.383 0.535722 1.8104 0
M  V30 4117 O 389.74 -0.494337 1.75677 0
M  V30 4118 C 389.791 2.9834 2.04146 0
M  V30 4119 O 389.512 4.17736 1.32015 0
M  V30 4120 C 391.013 3.33832 2.91669 0
M  V30 4121 H 388.233 0.592961 0.314067 0
M  V30 4122 H 390.777 2.01583 0.344149 0
M  V30 4123 H 388.932 2.76742 2.71096 0
M  V30 4124 H 389.346 4.85693 1.97998 0
M  V30 4125 H 390.82 4.21448 3.56491 0
M  V30 4126 H 391.297 2.51857 3.59812 0
M  V30 4127 H 391.903 3.57579 2.30254 0
M  V30 4128 N 390.218 -0.567019 1.47046 0
M  V30 4129 C 391.443 -1.3551 1.57009 0
M  V30 4130 C 391.868 -1.86841 0.217259 0
M  V30 4131 O 391.226 -1.62435 -0.805268 0
M  V30 4132 C 391.274 -2.50777 2.5912 0
M  V30 4133 O 390.378 -3.52706 2.13711 0
M  V30 4134 H 389.719 -0.402919 0.52778 0
M  V30 4135 H 392.249 -0.686241 1.92748 0
M  V30 4136 H 392.259 -2.97481 2.79229 0
M  V30 4137 H 390.934 -2.12771 3.57353 0
M  V30 4138 H 389.511 -3.12374 2.03659 0
M  V30 4139 N 391.696 -1.35014 -0.812953 0
M  V30 4140 C 392.944 -1.27678 -1.56661 0
M  V30 4141 C 393.265 0.150359 -1.94419 0
M  V30 4142 O 392.535 1.08532 -1.63088 0
M  V30 4143 H 391.115 -0.469602 -0.580933 0
M  V30 4144 H 393.777 -1.69043 -0.970076 0
M  V30 4145 H 392.873 -1.88833 -2.48492 0
M  V30 4146 N 393.175 1.03435 -1.18907 0
M  V30 4147 C 394.4 1.80919 -1.01406 0
M  V30 4148 C 394.825 1.83055 0.432721 0
M  V30 4149 O 394.183 1.25252 1.31079 0
M  V30 4150 C 394.231 3.24091 -1.58105 0
M  V30 4151 O 393.335 4.04434 -0.806669 0
M  V30 4152 H 392.676 0.558709 -0.358803 0
M  V30 4153 H 395.206 1.30223 -1.57807 0
M  V30 4154 H 395.216 3.74853 -1.61087 0
M  V30 4155 H 393.891 3.21851 -2.6341 0
M  V30 4156 H 392.468 3.63091 -0.849666 0
M  V30 4157 N 394.653 0.992116 1.22453 0
M  V30 4158 C 395.881 0.685944 1.95198 0
M  V30 4159 C 396.296 -0.749233 1.73297 0
M  V30 4160 O 395.653 -1.50549 1.03156 0
M  V30 4161 C 395.704 0.981395 3.47924 0
M  V30 4162 O 395.425 2.36018 3.6909 0
M  V30 4163 C 396.926 0.692815 4.37853 0
M  V30 4164 H 394.146 0.253821 0.621141 0
M  V30 4165 H 396.69 1.32668 1.55626 0
M  V30 4166 H 394.845 0.386481 3.85467 0
M  V30 4167 H 395.259 2.45884 4.63294 0
M  V30 4168 H 396.733 0.949818 5.43767 0
M  V30 4169 H 397.21 -0.373181 4.37612 0
M  V30 4170 H 397.816 1.26874 4.05935 0
M  V30 4171 N 396.131 -1.37776 0.765217 0
M  V30 4172 C 397.379 -1.99454 0.325943 0
M  V30 4173 C 397.7 -1.61049 -1.09947 0
M  V30 4174 O 396.97 -0.872821 -1.75381 0
M  V30 4175 H 395.55 -0.737697 0.117525 0
M  V30 4176 H 398.212 -1.68359 0.981895 0
M  V30 4177 H 397.308 -3.09547 0.398353 0
M  V30 4178 N 397.609 -0.515225 -1.4894 0
M  V30 4179 C 398.556 0.255567 -2.29381 0
M  V30 4180 C 399.526 0.947387 -1.36432 0
M  V30 4181 O 400.711 0.951288 -1.65394 0
M  V30 4182 C 397.851 1.30551 -3.19453 0
M  V30 4183 C 396.964 0.624029 -4.27469 0
M  V30 4184 C 396.099 1.65563 -5.0474 0
M  V30 4185 C 395.138 0.956802 -6.04576 0
M  V30 4186 N 394.275 1.93326 -6.74959 0
M  V30 4187 H 399.115 -0.436607 -2.94784 0
M  V30 4188 H 396.652 -0.227154 -1.45336 0
M  V30 4189 H 398.61 1.92639 -3.70062 0
M  V30 4190 H 397.24 1.96626 -2.56004 0
M  V30 4191 H 396.292 -0.110459 -3.8024 0
M  V30 4192 H 397.604 0.0746092 -4.98744 0
M  V30 4193 H 396.758 2.35119 -5.59289 0
M  V30 4194 H 395.497 2.23893 -4.3327 0
M  V30 4195 H 394.502 0.247097 -5.49244 0
M  V30 4196 H 395.727 0.379814 -6.78037 0
M  V30 4197 H 393.673 2.50591 -6.06251 0
M  V30 4198 H 393.59 1.43489 -7.42258 0
M  V30 4199 H 394.858 2.62126 -7.34105 0
M  V30 4200 N 399.087 1.5561 -0.249682 0
M  V30 4201 C 400.498 1.84979 0.252949 0
M  V30 4202 C 400.849 1.17153 1.57384 0
M  V30 4203 O 399.974 0.450884 2.11651 0
M  V30 4204 C 400.569 3.35584 0.465732 0
M  V30 4205 C 399.128 3.65169 0.912624 0
M  V30 4206 C 398.275 2.77299 -0.00859085 0
M  V30 4207 H 401.226 1.51513 -0.47217 0
M  V30 4208 H 401.247 3.57313 1.30795 0
M  V30 4209 H 400.759 3.8492 -0.49579 0
M  V30 4210 H 398.86 3.21312 1.88652 0
M  V30 4211 H 398.973 4.72912 0.767559 0
M  V30 4212 H 397.337 2.49678 0.50327 0
M  V30 4213 H 398.12 3.29442 -0.965537 0
M  V30 4214 N 400.565 -0.0233959 1.57583 0
M  V30 4215 C 401.512 -1.02224 2.06927 0
M  V30 4216 C 402.482 -1.35575 0.959617 0
M  V30 4217 O 403.667 -1.45815 1.23055 0
M  V30 4218 C 400.807 -2.31636 2.5581 0
M  V30 4219 C 399.92 -2.04394 3.80588 0
M  V30 4220 C 399.055 -3.27717 4.18061 0
M  V30 4221 C 398.094 -2.96056 5.3574 0
M  V30 4222 N 397.231 -4.11847 5.68618 0
M  V30 4223 H 402.071 -0.594504 2.9201 0
M  V30 4224 H 399.608 -0.281921 1.44373 0
M  V30 4225 H 401.566 -3.07258 2.82221 0
M  V30 4226 H 400.196 -2.72122 1.73636 0
M  V30 4227 H 399.248 -1.19244 3.61227 0
M  V30 4228 H 400.56 -1.77042 4.66323 0
M  V30 4229 H 399.714 -4.11702 4.4563 0
M  V30 4230 H 398.453 -3.58188 3.30988 0
M  V30 4231 H 397.458 -2.10474 5.07918 0
M  V30 4232 H 398.683 -2.66857 6.24471 0
M  V30 4233 H 396.629 -4.42258 4.84504 0
M  V30 4234 H 396.546 -3.87938 6.48876 0
M  V30 4235 H 397.814 -4.96689 6.00766 0
M  V30 4236 N 402.043 -1.548 -0.295768 0
M  V30 4237 C 403.291 -1.73985 -1.02828 0
M  V30 4238 C 403.612 -0.531406 -1.87619 0
M  V30 4239 O 402.882 0.454221 -1.90561 0
M  V30 4240 H 401.462 -0.641556 -0.382642 0
M  V30 4241 H 404.124 -1.92163 -0.325489 0
M  V30 4242 H 403.22 -2.63129 -1.67838 0
M  V30 4243 N 403.521 0.559213 -1.47345 0
M  V30 4244 C 404.767 1.31843 -1.54095 0
M  V30 4245 C 405.1 1.93149 -0.201726 0
M  V30 4246 O 404.375 1.77759 0.789428 0
M  V30 4247 C 404.658 2.43006 -2.65744 0
M  V30 4248 C 404.511 1.86581 -4.09277 0
M  V30 4249 C 405.83 3.44943 -2.73318 0
M  V30 4250 H 402.949 0.478012 -0.560957 0
M  V30 4251 H 405.591 0.625977 -1.79392 0
M  V30 4252 H 403.741 3.02072 -2.44305 0
M  V30 4253 H 405.413 1.31792 -4.42073 0
M  V30 4254 H 403.656 1.17268 -4.17649 0
M  V30 4255 H 404.327 2.66933 -4.83168 0
M  V30 4256 H 406.803 2.95793 -2.92653 0
M  V30 4257 H 405.679 4.20153 -3.53218 0
M  V30 4258 H 405.94 4.03665 -1.80296 0
M  V30 4259 N 404.999 1.35443 0.805782 0
M  V30 4260 C 405.929 1.31095 1.93226 0
M  V30 4261 C 406.91 0.185244 1.69088 0
M  V30 4262 O 408.095 0.380332 1.90439 0
M  V30 4263 C 405.225 1.08299 3.29983 0
M  V30 4264 C 404.179 2.17519 3.68605 0
M  V30 4265 C 403.505 1.79887 5.03532 0
M  V30 4266 C 404.805 3.5949 3.78898 0
M  V30 4267 H 406.499 2.25352 1.97122 0
M  V30 4268 H 404.045 1.0848 0.946996 0
M  V30 4269 H 405.998 1.03897 4.08391 0
M  V30 4270 H 404.722 0.104885 3.26432 0
M  V30 4271 H 403.381 2.2102 2.92482 0
M  V30 4272 H 403.029 0.80693 4.96485 0
M  V30 4273 H 402.729 2.53001 5.30344 0
M  V30 4274 H 404.253 1.77011 5.84379 0
M  V30 4275 H 405.667 3.58307 4.47536 0
M  V30 4276 H 404.064 4.31371 4.1718 0
M  V30 4277 H 405.134 3.95584 2.80431 0
M  V30 4278 N 406.477 -1.02803 1.19454 0
M  V30 4279 C 407.427 -2.0945 0.900827 0
M  V30 4280 C 408.411 -1.60335 -0.134715 0
M  V30 4281 O 409.603 -1.76857 0.0710924 0
M  V30 4282 C 406.732 -3.4044 0.442229 0
M  V30 4283 C 405.818 -3.96286 1.51056 0
M  V30 4284 N 406.209 -4.25785 2.73021 0
M  V30 4285 C 404.507 -4.24307 1.37404 0
M  V30 4286 C 405.208 -4.70654 3.41848 0
M  V30 4287 N 404.184 -4.72238 2.69243 0
M  V30 4288 H 407.986 -2.3015 1.82779 0
M  V30 4289 H 405.5 -1.20672 1.08683 0
M  V30 4290 H 407.497 -4.16354 0.21326 0
M  V30 4291 H 406.157 -3.21159 -0.478238 0
M  V30 4292 H 407.168 -4.15041 3.09776 0
M  V30 4293 H 403.845 -4.14285 0.517103 0
M  V30 4294 H 405.235 -5.02392 4.46152 0
M  V30 4295 N 407.956 -0.998596 -1.21925 0
M  V30 4296 C 409.184 -0.696286 -1.94832 0
M  V30 4297 C 409.599 0.740032 -1.73692 0
M  V30 4298 O 408.956 1.5 -1.03953 0
M  V30 4299 C 409.007 -0.999833 -3.47398 0
M  V30 4300 O 408.728 -2.37972 -3.67833 0
M  V30 4301 C 410.229 -0.716025 -4.37479 0
M  V30 4302 H 407.449 -0.257111 -0.619786 0
M  V30 4303 H 409.993 -1.33491 -1.54921 0
M  V30 4304 H 408.148 -0.406918 -3.85257 0
M  V30 4305 H 408.562 -2.48338 -4.61983 0
M  V30 4306 H 410.036 -0.978642 -5.43256 0
M  V30 4307 H 410.513 0.349968 -4.37803 0
M  V30 4308 H 411.119 -1.29025 -4.05256 0
M  V30 4309 N 409.434 1.37368 -0.772513 0
M  V30 4310 C 410.662 2.03942 -0.348588 0
M  V30 4311 C 411.077 1.58264 1.02947 0
M  V30 4312 O 410.434 0.764246 1.65727 0
M  V30 4313 C 410.485 3.5946 -0.38351 0
M  V30 4314 O 410.206 4.03468 -1.70721 0
M  V30 4315 C 411.707 4.4327 0.0519152 0
M  V30 4316 H 408.927 0.654931 -0.145966 0
M  V30 4317 H 411.471 1.75686 -1.04665 0
M  V30 4318 H 409.626 3.86486 0.265978 0
M  V30 4319 H 410.04 4.97991 -1.64636 0
M  V30 4320 H 411.514 5.51995 -0.0236733 0
M  V30 4321 H 411.991 4.2514 1.10238 0
M  V30 4322 H 412.597 4.21471 -0.569415 0
M  V30 4323 N 410.912 0.523116 1.48665 0
M  V30 4324 C 412.16 -0.0134497 2.02096 0
M  V30 4325 C 412.481 -1.35418 1.40311 0
M  V30 4326 O 411.751 -1.87543 0.566074 0
M  V30 4327 H 410.331 -0.00795915 0.746958 0
M  V30 4328 H 412.993 0.685388 1.82451 0
M  V30 4329 H 412.089 -0.126849 3.11842 0
M  V30 4330 N 412.39 -1.55475 0.257931 0
M  V30 4331 C 413.638 -1.98813 -0.363009 0
M  V30 4332 C 413.959 -1.14757 -1.57657 0
M  V30 4333 O 413.229 -0.232956 -1.9451 0
M  V30 4334 H 411.809 -0.734308 -0.137113 0
M  V30 4335 H 414.471 -1.9156 0.359281 0
M  V30 4336 H 413.567 -3.04941 -0.664634 0
M  V30 4337 N 413.868 0.0150385 -1.57593 0
M  V30 4338 C 415.098 0.713359 -1.93894 0
M  V30 4339 C 415.506 1.68663 -0.857289 0
M  V30 4340 O 414.849 1.82876 0.173788 0
M  V30 4341 C 414.911 1.51348 -3.26089 0
M  V30 4342 C 414.575 0.703451 -4.51554 0
M  V30 4343 C 415.572 -0.00237924 -5.199 0
M  V30 4344 C 413.257 0.653854 -4.98026 0
M  V30 4345 C 415.251 -0.746955 -6.33008 0
M  V30 4346 C 412.938 -0.0944578 -6.11027 0
M  V30 4347 C 413.936 -0.793609 -6.78374 0
M  V30 4348 O 413.624 -1.52974 -7.89211 0
M  V30 4349 H 413.356 0.204637 -0.644282 0
M  V30 4350 H 415.91 -0.0276411 -2.05381 0
M  V30 4351 H 414.14 2.29862 -3.10967 0
M  V30 4352 H 415.829 2.09572 -3.47612 0
M  V30 4353 H 416.595 0.0268803 -4.84993 0
M  V30 4354 H 412.474 1.18756 -4.45441 0
M  V30 4355 H 416.018 -1.2932 -6.85509 0
M  V30 4356 H 411.915 -0.125591 -6.45378 0
M  V30 4357 H 412.683 -1.44488 -8.05646 0
M  V30 4358 N 415.346 1.54954 0.287554 0
M  V30 4359 C 416.276 1.89839 1.35954 0
M  V30 4360 C 417.257 0.758675 1.52244 0
M  V30 4361 O 418.442 1.01557 1.65529 0
M  V30 4362 C 415.572 2.15753 2.72154 0
M  V30 4363 C 414.526 3.3159 2.70614 0
M  V30 4364 C 413.852 3.42952 4.10229 0
M  V30 4365 C 415.152 4.68359 2.31165 0
M  V30 4366 H 416.846 2.79625 1.07007 0
M  V30 4367 H 414.392 1.3454 0.513316 0
M  V30 4368 H 416.345 2.38743 3.47246 0
M  V30 4369 H 415.069 1.22752 3.02654 0
M  V30 4370 H 413.728 3.08545 1.97979 0
M  V30 4371 H 413.376 2.47443 4.37928 0
M  V30 4372 H 413.076 4.20826 4.10097 0
M  V30 4373 H 414.6 3.68218 4.87081 0
M  V30 4374 H 416.014 4.9099 2.95976 0
M  V30 4375 H 414.411 5.49044 2.42221 0
M  V30 4376 H 415.481 4.68165 1.26291 0
M  V30 4377 N 416.824 -0.551391 1.4764 0
M  V30 4378 C 418.07 -1.31024 1.54792 0
M  V30 4379 C 418.403 -1.9304 0.211967 0
M  V30 4380 O 417.678 -1.78175 -0.77999 0
M  V30 4381 C 417.961 -2.41593 2.67029 0
M  V30 4382 C 417.814 -1.84408 4.10261 0
M  V30 4383 C 419.133 -3.43488 2.75143 0
M  V30 4384 H 416.252 -0.475031 0.563485 0
M  V30 4385 H 418.894 -0.616454 1.79722 0
M  V30 4386 H 417.044 -3.00772 2.45904 0
M  V30 4387 H 418.716 -1.29445 4.42766 0
M  V30 4388 H 416.959 -1.15051 4.18265 0
M  V30 4389 H 417.63 -2.64367 4.84576 0
M  V30 4390 H 420.106 -2.94236 2.94218 0
M  V30 4391 H 418.982 -4.18274 3.55441 0
M  V30 4392 H 419.243 -4.02703 1.82435 0
M  V30 4393 N 418.302 -1.35869 -0.798587 0
M  V30 4394 C 419.532 -1.32529 -1.58491 0
M  V30 4395 C 419.94 0.0975405 -1.88948 0
M  V30 4396 O 419.283 1.06224 -1.49874 0
M  V30 4397 C 419.345 -2.07247 -2.9375 0
M  V30 4398 C 419.009 -3.56391 -2.86068 0
M  V30 4399 C 420.006 -4.50824 -2.58947 0
M  V30 4400 C 417.691 -3.9915 -3.04933 0
M  V30 4401 C 419.685 -5.85993 -2.5078 0
M  V30 4402 C 417.372 -5.34413 -2.96389 0
M  V30 4403 C 418.37 -6.27646 -2.69349 0
M  V30 4404 O 418.058 -7.60426 -2.60782 0
M  V30 4405 H 417.79 -0.456529 -0.498556 0
M  V30 4406 H 420.344 -1.79425 -0.999799 0
M  V30 4407 H 418.574 -1.55001 -3.54276 0
M  V30 4408 H 420.263 -1.96883 -3.54954 0
M  V30 4409 H 421.029 -4.19104 -2.44084 0
M  V30 4410 H 416.908 -3.26961 -3.24989 0
M  V30 4411 H 420.452 -6.58735 -2.29595 0
M  V30 4412 H 416.349 -5.65743 -3.10813 0
M  V30 4413 H 417.117 -7.70444 -2.76331 0
M  V30 4414 N 419.78 1.02168 -1.19998 0
M  V30 4415 C 420.743 2.08765 -0.94604 0
M  V30 4416 C 421.743 1.60618 0.0763846 0
M  V30 4417 O 422.933 1.73472 -0.159135 0
M  V30 4418 C 420.065 3.38262 -0.423255 0
M  V30 4419 H 421.258 2.32726 -1.89153 0
M  V30 4420 H 418.811 1.1889 -1.01464 0
M  V30 4421 H 419.546 3.19974 0.527938 0
M  V30 4422 H 419.331 3.74532 -1.16053 0
M  V30 4423 H 420.821 4.16759 -0.264911 0
M  V30 4424 N 421.258 1.00505 1.21394 0
M  V30 4425 C 422.221 0.570459 2.21987 0
M  V30 4426 C 423.221 -0.353211 1.56873 0
M  V30 4427 O 424.411 -0.14349 1.73608 0
M  V30 4428 C 421.543 -0.168555 3.40483 0
M  V30 4429 H 422.736 1.46021 2.6195 0
M  V30 4430 H 420.289 0.793565 1.34656 0
M  V30 4431 H 421.024 -1.07374 3.06009 0
M  V30 4432 H 420.809 0.494823 3.88965 0
M  V30 4433 H 422.299 -0.460362 4.15055 0
M  V30 4434 N 422.737 -1.36956 0.779787 0
M  V30 4435 C 423.965 -2.03755 0.359398 0
M  V30 4436 C 424.38 -1.58807 -1.02106 0
M  V30 4437 O 423.737 -0.773024 -1.6532 0
M  V30 4438 C 423.788 -3.59251 0.402568 0
M  V30 4439 O 423.509 -4.02557 1.72858 0
M  V30 4440 C 425.01 -4.43291 -0.0284068 0
M  V30 4441 H 422.23 -0.654148 0.149437 0
M  V30 4442 H 424.774 -1.75128 1.05595 0
M  V30 4443 H 422.929 -3.86621 -0.245478 0
M  V30 4444 H 423.343 -4.97111 1.67275 0
M  V30 4445 H 424.817 -5.51975 0.0529466 0
M  V30 4446 H 425.294 -4.25719 -1.07982 0
M  V30 4447 H 425.9 -4.21163 0.591758 0
M  V30 4448 N 424.215 -0.530993 -1.48385 0
M  V30 4449 C 425.443 -0.00134122 -2.069 0
M  V30 4450 C 425.858 1.2805 -1.3874 0
M  V30 4451 O 425.215 1.76204 -0.475244 0
M  V30 4452 C 425.266 0.225256 -3.60798 0
M  V30 4453 O 424.987 -1.0058 -4.26398 0
M  V30 4454 C 426.488 0.795172 -4.3611 0
M  V30 4455 H 423.708 -0.0339704 -0.67014 0
M  V30 4456 H 426.252 -0.736926 -1.90761 0
M  V30 4457 H 424.407 0.910891 -3.76539 0
M  V30 4458 H 424.821 -0.787165 -5.1856 0
M  V30 4459 H 426.295 0.903143 -5.44562 0
M  V30 4460 H 426.772 1.80031 -4.00606 0
M  V30 4461 H 427.378 0.146069 -4.25049 0
M  V30 4462 N 425.693 1.55336 -0.266172 0
M  V30 4463 C 426.94 1.99397 0.353158 0
M  V30 4464 C 427.268 1.15451 1.56529 0
M  V30 4465 O 426.523 0.209974 1.9457 0
M  V30 4466 C 426.822 3.48606 0.787957 0
M  V30 4467 C 426.488 4.49773 -0.318541 0
M  V30 4468 C 425.15 4.77158 -0.62239 0
M  V30 4469 C 427.502 5.10212 -1.06459 0
M  V30 4470 C 424.83 5.62251 -1.67602 0
M  V30 4471 C 427.182 5.96449 -2.10788 0
M  V30 4472 C 425.846 6.22158 -2.41817 0
M  V30 4473 H 425.116 0.729644 0.12923 0
M  V30 4474 H 427.763 1.87732 -0.37802 0
M  V30 4475 H 426.068 3.57701 1.59866 0
M  V30 4476 H 427.765 3.80098 1.27775 0
M  V30 4477 H 424.355 4.2854 -0.0715925 0
M  V30 4478 H 428.539 4.89086 -0.843098 0
M  V30 4479 H 423.795 5.80419 -1.92155 0
M  V30 4480 H 427.969 6.42317 -2.69076 0
M  V30 4481 H 425.596 6.87888 -3.23596 0
M  V30 4482 N 427.171 -0.0066808 1.57599 0
M  V30 4483 C 428.118 -1.00024 2.08 0
M  V30 4484 C 429.088 -1.34549 0.973943 0
M  V30 4485 O 430.273 -1.44502 1.24595 0
M  V30 4486 C 427.413 -2.2891 2.58252 0
M  V30 4487 C 426.526 -2.00346 3.82734 0
M  V30 4488 C 425.661 -3.23265 4.21513 0
M  V30 4489 C 424.7 -2.90357 5.3885 0
M  V30 4490 N 423.837 -4.05793 5.72954 0
M  V30 4491 H 428.677 -0.563499 2.92624 0
M  V30 4492 H 426.214 -0.266592 1.44664 0
M  V30 4493 H 428.172 -3.04247 2.85464 0
M  V30 4494 H 426.802 -2.70265 1.76512 0
M  V30 4495 H 425.854 -1.15406 3.62471 0
M  V30 4496 H 427.166 -1.72086 4.68175 0
M  V30 4497 H 426.32 -4.06953 4.49971 0
M  V30 4498 H 425.059 -3.54657 3.34768 0
M  V30 4499 H 424.064 -2.05075 5.10122 0
M  V30 4500 H 425.289 -2.60219 6.27266 0
M  V30 4501 H 423.235 -4.37094 4.89167 0
M  V30 4502 H 423.152 -3.81034 6.52954 0
M  V30 4503 H 424.42 -4.90289 6.06001 0
M  V30 4504 N 428.649 -1.55105 -0.279332 0
M  V30 4505 C 429.879 -1.7917 -1.02867 0
M  V30 4506 C 430.287 -0.56204 -1.80659 0
M  V30 4507 O 429.63 0.478266 -1.77365 0
M  V30 4508 C 429.692 -2.96061 -2.03932 0
M  V30 4509 C 429.356 -4.33341 -1.45137 0
M  V30 4510 C 430.353 -5.12565 -0.870266 0
M  V30 4511 C 428.038 -4.79987 -1.48048 0
M  V30 4512 C 430.032 -6.36565 -0.326097 0
M  V30 4513 C 427.719 -6.03944 -0.932443 0
M  V30 4514 C 428.717 -6.8207 -0.356247 0
M  V30 4515 O 428.405 -8.03691 0.183412 0
M  V30 4516 H 428.137 -0.600796 -0.309872 0
M  V30 4517 H 430.691 -2.02932 -0.317468 0
M  V30 4518 H 428.921 -2.67975 -2.78794 0
M  V30 4519 H 430.61 -3.07506 -2.64943 0
M  V30 4520 H 431.376 -4.77661 -0.840521 0
M  V30 4521 H 427.255 -4.1919 -1.91835 0
M  V30 4522 H 430.799 -6.97489 0.124286 0
M  V30 4523 H 426.696 -6.3833 -0.959407 0
M  V30 4524 H 427.464 -8.18468 0.0721681 0
M  V30 4525 N 430.127 0.543554 -1.4793 0
M  V30 4526 C 431.373 1.30201 -1.55485 0
M  V30 4527 C 431.706 1.92925 -0.222201 0
M  V30 4528 O 430.981 1.78586 0.77053 0
M  V30 4529 C 431.264 2.40174 -2.68307 0
M  V30 4530 C 431.117 1.8223 -4.11233 0
M  V30 4531 C 432.436 3.42024 -2.76961 0
M  V30 4532 H 429.555 0.472036 -0.565996 0
M  V30 4533 H 432.197 0.606914 -1.80046 0
M  V30 4534 H 430.347 2.99463 -2.47495 0
M  V30 4535 H 432.019 1.27096 -4.43446 0
M  V30 4536 H 430.262 1.12832 -4.18869 0
M  V30 4537 H 430.933 2.61793 -4.85972 0
M  V30 4538 H 433.409 2.92672 -2.95774 0
M  V30 4539 H 432.285 4.16383 -3.57654 0
M  V30 4540 H 432.546 4.0173 -1.84568 0
M  V30 4541 N 431.605 1.3629 0.791371 0
M  V30 4542 C 432.852 1.30412 1.54916 0
M  V30 4543 C 433.18 -0.117162 1.94147 0
M  V30 4544 O 432.435 -1.08599 1.62803 0
M  V30 4545 C 432.734 2.17068 2.8393 0
M  V30 4546 C 432.4 3.65645 2.63846 0
M  V30 4547 C 431.062 4.0614 2.58077 0
M  V30 4548 C 433.414 4.59855 2.45322 0
M  V30 4549 C 430.742 5.3899 2.31748 0
M  V30 4550 C 433.094 5.9292 2.2052 0
M  V30 4551 C 431.758 6.32542 2.13183 0
M  V30 4552 H 431.028 0.47721 0.566879 0
M  V30 4553 H 433.675 1.68325 0.913172 0
M  V30 4554 H 431.98 1.72085 3.51986 0
M  V30 4555 H 433.677 2.09846 3.4171 0
M  V30 4556 H 430.267 3.33518 2.69191 0
M  V30 4557 H 434.451 4.29443 2.48782 0
M  V30 4558 H 429.707 5.68672 2.24548 0
M  V30 4559 H 433.881 6.65487 2.05182 0
M  V30 4560 H 431.508 7.35412 1.92544 0
M  V30 4561 N 433.083 -1.0153 1.20538 0
M  V30 4562 C 434.36 -1.72327 0.925343 0
M  V30 4563 C 434.74 -2.03383 -0.565547 0
M  V30 4564 O 434.088 -1.69934 -1.52757 0
M  V30 4565 C 434.298 -2.9902 1.79967 0
M  V30 4566 C 435.646 -3.72258 2.04228 0
M  V30 4567 O 436.67 -3.08979 1.77231 0
M  V30 4568 O 435.529 -4.86053 2.4983 0
M  V30 4569 H 432.623 -0.751099 0.346092 0
M  V30 4570 H 435.169 -1.07366 1.31417 0
M  V30 4571 H 433.941 -2.72402 2.80915 0
M  V30 4572 H 433.564 -3.71721 1.41099 0
M  V30 4573 N 434.561 -1.01147 -1.20859 0
M  V30 4574 C 435.791 -0.715872 -1.93801 0
M  V30 4575 C 436.199 0.726592 -1.74692 0
M  V30 4576 O 435.542 1.50397 -1.05482 0
M  V30 4577 C 435.604 -0.965269 -3.46299 0
M  V30 4578 C 435.268 -2.39584 -3.89164 0
M  V30 4579 C 436.265 -3.3764 -3.95342 0
M  V30 4580 C 433.95 -2.73522 -4.21297 0
M  V30 4581 C 435.944 -4.67698 -4.33056 0
M  V30 4582 C 433.631 -4.03794 -4.58687 0
M  V30 4583 C 434.629 -5.00693 -4.64538 0
M  V30 4584 O 434.317 -6.28635 -5.01072 0
M  V30 4585 H 434.049 -0.262524 -0.622942 0
M  V30 4586 H 436.603 -1.35413 -1.54443 0
M  V30 4587 H 434.833 -0.269847 -3.85757 0
M  V30 4588 H 436.522 -0.662051 -4.00464 0
M  V30 4589 H 437.288 -3.12757 -3.70686 0
M  V30 4590 H 433.167 -1.9879 -4.15937 0
M  V30 4591 H 436.711 -5.4333 -4.37537 0
M  V30 4592 H 432.608 -4.28459 -4.82797 0
M  V30 4593 H 433.376 -6.32847 -5.19083 0
M  V30 4594 N 436.039 1.36541 -0.78704 0
M  V30 4595 C 436.989 2.27459 -0.156957 0
M  V30 4596 C 437.973 1.46843 0.657709 0
M  V30 4597 O 439.165 1.69245 0.518173 0
M  V30 4598 C 436.294 3.35893 0.709278 0
M  V30 4599 C 435.38 4.23947 -0.114049 0
M  V30 4600 N 435.771 4.92145 -1.16736 0
M  V30 4601 C 434.069 4.4587 0.107497 0
M  V30 4602 C 434.77 5.57261 -1.66837 0
M  V30 4603 N 433.746 5.3473 -0.977992 0
M  V30 4604 H 437.548 2.77669 -0.963185 0
M  V30 4605 H 435.062 1.49839 -0.62627 0
M  V30 4606 H 437.059 3.99953 1.17656 0
M  V30 4607 H 435.719 2.87238 1.51408 0
M  V30 4608 H 436.73 4.94169 -1.54976 0
M  V30 4609 H 433.407 4.08056 0.882994 0
M  V30 4610 H 434.797 6.21728 -2.54762 0
M  V30 4611 N 437.518 0.538854 1.48102 0
M  V30 4612 C 438.929 0.100679 1.86428 0
M  V30 4613 C 439.28 -1.32447 1.44749 0
M  V30 4614 O 438.405 -1.99339 0.842199 0
M  V30 4615 C 439 0.175933 3.38343 0
M  V30 4616 C 437.559 -0.207098 3.7583 0
M  V30 4617 C 436.706 0.531741 2.72154 0
M  V30 4618 H 439.657 0.749614 1.3988 0
M  V30 4619 H 439.678 -0.610144 3.75576 0
M  V30 4620 H 439.19 1.21328 3.68648 0
M  V30 4621 H 437.291 -1.24626 3.5114 0
M  V30 4622 H 437.404 0.138687 4.78899 0
M  V30 4623 H 435.768 -0.0230462 2.5469 0
M  V30 4624 H 436.551 1.56989 3.05302 0
M  V30 4625 N 438.996 -1.55193 0.274407 0
M  V30 4626 C 440.244 -1.99187 -0.341902 0
M  V30 4627 C 440.565 -1.16422 -1.56431 0
M  V30 4628 O 439.835 -0.253573 -1.94252 0
M  V30 4629 H 438.415 -0.735721 -0.129317 0
M  V30 4630 H 441.077 -1.91168 0.379578 0
M  V30 4631 H 440.173 -3.05629 -0.632253 0
M  V30 4632 N 440.474 -0.00167713 -1.576 0
M  V30 4633 C 441.751 0.719951 -1.81868 0
M  V30 4634 C 442.131 1.91895 -0.879747 0
M  V30 4635 O 441.479 2.28389 0.0711423 0
M  V30 4636 C 441.689 1.12409 -3.30402 0
M  V30 4637 C 443.037 1.52724 -3.96182 0
M  V30 4638 O 444.061 1.21784 -3.34734 0
M  V30 4639 O 442.92 2.10265 -5.04431 0
M  V30 4640 H 440.014 0.350707 -0.748955 0
M  V30 4641 H 442.56 -0.0272597 -1.69678 0
M  V30 4642 H 441.332 0.269532 -3.90371 0
M  V30 4643 H 440.955 1.93035 -3.47596 0
M  V30 4644 N 441.952 1.55251 0.271103 0
M  V30 4645 C 443.201 1.75151 1.00025 0
M  V30 4646 C 443.514 0.561041 1.87381 0
M  V30 4647 O 444.72 0.642506 2.63788 0
M  V30 4648 C 443.176 3.09999 1.82835 0
M  V30 4649 C 442.784 4.3662 1.00336 0
M  V30 4650 C 444.528 3.39249 2.55168 0
M  V30 4651 C 442.435 5.62506 1.82595 0
M  V30 4652 H 441.365 0.652877 0.377183 0
M  V30 4653 H 444.016 1.81708 0.255843 0
M  V30 4654 H 442.398 2.97485 2.61378 0
M  V30 4655 H 443.572 4.60055 0.261959 0
M  V30 4656 H 441.887 4.14527 0.394486 0
M  V30 4657 H 444.484 4.3051 3.1712 0
M  V30 4658 H 444.827 2.59467 3.2555 0
M  V30 4659 H 445.36 3.52869 1.83653 0
M  V30 4660 H 442.099 6.45041 1.16631 0
M  V30 4661 H 441.619 5.43211 2.54327 0
M  V30 4662 H 443.298 6.00875 2.39913 0
M  V30 4663 N 443.43 -0.535701 1.48216 0
M  V30 4664 C 444.66 -1.3148 1.59363 0
M  V30 4665 C 445.068 -1.8753 0.250844 0
M  V30 4666 O 444.411 -1.66821 -0.769174 0
M  V30 4667 C 444.473 -2.50731 2.57632 0
M  V30 4668 C 444.137 -2.15811 4.02833 0
M  V30 4669 C 445.134 -1.71822 4.90686 0
M  V30 4670 C 442.819 -2.26509 4.48329 0
M  V30 4671 C 444.813 -1.3899 6.22062 0
M  V30 4672 C 442.5 -1.93289 5.79726 0
M  V30 4673 C 443.498 -1.49599 6.66415 0
M  V30 4674 O 443.186 -1.16812 7.95368 0
M  V30 4675 H 442.918 -0.406315 0.540263 0
M  V30 4676 H 445.472 -0.653569 1.94725 0
M  V30 4677 H 443.702 -3.19817 2.1738 0
M  V30 4678 H 445.391 -3.12797 2.58675 0
M  V30 4679 H 446.157 -1.63031 4.56778 0
M  V30 4680 H 442.036 -2.59471 3.81045 0
M  V30 4681 H 445.58 -1.04816 6.89681 0
M  V30 4682 H 441.477 -2.01718 6.13172 0
M  V30 4683 H 442.245 -1.30259 8.08069 0
M  V30 4684 N 444.908 -1.36708 -0.784132 0
M  V30 4685 C 446.154 -1.32433 -1.54379 0
M  V30 4686 C 446.509 0.0941816 -1.92169 0
M  V30 4687 O 445.802 1.04997 -1.60269 0
M  V30 4688 C 445.996 -2.18571 -2.82774 0
M  V30 4689 C 445.825 -3.68656 -2.57533 0
M  V30 4690 C 444.595 -4.37813 -2.52286 0
M  V30 4691 C 446.793 -4.61802 -2.2637 0
M  V30 4692 N 444.775 -5.7351 -2.18997 0
M  V30 4693 C 446.146 -5.85785 -2.03115 0
M  V30 4694 C 448.201 -4.50313 -2.12421 0
M  V30 4695 C 446.904 -6.99569 -1.67321 0
M  V30 4696 C 448.93 -5.63969 -1.78026 0
M  V30 4697 C 448.292 -6.86994 -1.55622 0
M  V30 4698 H 444.391 -0.539886 -0.565727 0
M  V30 4699 H 446.975 -1.71812 -0.915908 0
M  V30 4700 H 445.146 -1.81429 -3.43421 0
M  V30 4701 H 446.878 -2.05646 -3.48557 0
M  V30 4702 H 443.633 -3.90674 -2.67714 0
M  V30 4703 H 444.057 -6.45189 -2.05084 0
M  V30 4704 H 448.699 -3.55781 -2.28429 0
M  V30 4705 H 446.417 -7.94047 -1.5005 0
M  V30 4706 H 450.003 -5.57044 -1.67909 0
M  V30 4707 H 448.883 -7.7345 -1.294 0
M  V30 4708 N 446.386 1.0089 -1.21074 0
M  V30 4709 C 447.626 1.76142 -1.03699 0
M  V30 4710 C 447.99 1.87292 0.422587 0
M  V30 4711 O 449.191 2.59068 0.716752 0
M  V30 4712 C 447.462 3.13805 -1.7106 0
M  V30 4713 S 449.021 4.04996 -1.68889 0
M  V30 4714 H 445.839 0.606113 -0.371683 0
M  V30 4715 H 448.441 1.20744 -1.53756 0
M  V30 4716 H 447.145 3.0332 -2.76451 0
M  V30 4717 H 446.676 3.74276 -1.21166 0
M  V30 4718 H 448.691 4.90842 -0.727211 0
M  V30 4719 N 447.864 1.01787 1.20321 0
M  V30 4720 C 449.092 0.727194 1.937 0
M  V30 4721 C 449.507 -0.712305 1.74848 0
M  V30 4722 O 448.864 -1.48327 1.06327 0
M  V30 4723 C 448.915 1.05497 3.45764 0
M  V30 4724 O 448.636 2.43794 3.64 0
M  V30 4725 C 450.137 0.785534 4.36285 0
M  V30 4726 H 447.357 0.266939 0.615617 0
M  V30 4727 H 449.901 1.35939 1.52777 0
M  V30 4728 H 448.056 0.468158 3.84561 0
M  V30 4729 H 448.47 2.55656 4.57974 0
M  V30 4730 H 449.944 1.06495 5.4163 0
M  V30 4731 H 450.421 -0.280273 4.38305 0
M  V30 4732 H 451.027 1.35456 4.03152 0
M  V30 4733 N 449.342 -1.36122 0.79427 0
M  V30 4734 C 450.305 -2.28309 0.201889 0
M  V30 4735 C 451.305 -1.49041 -0.603603 0
M  V30 4736 O 452.495 -1.68964 -0.423888 0
M  V30 4737 C 449.627 -3.3321 -0.719978 0
M  V30 4738 H 450.82 -2.82208 1.01481 0
M  V30 4739 H 448.373 -1.45768 0.564037 0
M  V30 4740 H 449.108 -2.84475 -1.55706 0
M  V30 4741 H 448.893 -3.91835 -0.144266 0
M  V30 4742 H 450.383 -4.02044 -1.12916 0
M  V30 4743 N 450.82 -0.546701 -1.47814 0
M  V30 4744 C 452.097 0.0464413 -1.95545 0
M  V30 4745 C 452.477 1.4962 -1.48919 0
M  V30 4746 O 451.825 2.16752 -0.723232 0
M  V30 4747 C 452.035 -0.0881298 -3.48889 0
M  V30 4748 C 453.383 0.0626059 -4.24554 0
M  V30 4749 O 454.407 -0.0151555 -3.56197 0
M  V30 4750 O 453.266 0.228071 -5.46024 0
M  V30 4751 H 450.36 0.0700004 -0.824032 0
M  V30 4752 H 452.906 -0.612482 -1.58262 0
M  V30 4753 H 451.678 -1.09737 -3.75597 0
M  V30 4754 H 451.301 0.608886 -3.9291 0
M  V30 4755 N 452.299 1.55045 -0.282633 0
M  V30 4756 C 453.545 2.00056 0.332481 0
M  V30 4757 C 453.878 1.1708 1.54939 0
M  V30 4758 O 453.153 0.2427 1.9298 0
M  V30 4759 C 453.436 3.53086 0.70725 0
M  V30 4760 C 453.289 4.46813 -0.517521 0
M  V30 4761 C 454.608 4.12245 1.54084 0
M  V30 4762 H 451.727 0.727268 0.119373 0
M  V30 4763 H 454.369 1.85932 -0.391076 0
M  V30 4764 H 452.519 3.65253 1.32372 0
M  V30 4765 H 454.191 4.46579 -1.15607 0
M  V30 4766 H 452.434 4.18163 -1.1542 0
M  V30 4767 H 453.105 5.51595 -0.211426 0
M  V30 4768 H 455.581 4.03401 1.02013 0
M  V30 4769 H 454.457 5.19515 1.77186 0
M  V30 4770 H 454.718 3.62951 2.52427 0
M  V30 4771 N 453.777 0.010035 1.57597 0
M  V30 4772 C 455.025 -0.671371 1.90623 0
M  V30 4773 C 455.346 -1.73753 0.885151 0
M  V30 4774 O 454.616 -1.95752 -0.0760611 0
M  V30 4775 H 453.196 -0.250968 0.703579 0
M  V30 4776 H 455.858 0.0533325 1.94827 0
M  V30 4777 H 454.954 -1.13626 2.90681 0
M  V30 4778 N 455.255 -1.55392 -0.262866 0
M  V30 4779 C 456.501 -1.77657 -0.990424 0
M  V30 4780 C 456.856 -0.576333 -1.83565 0
M  V30 4781 O 456.149 0.430795 -1.86694 0
M  V30 4782 C 456.343 -3.02889 -1.89718 0
M  V30 4783 C 456.172 -4.34979 -1.14121 0
M  V30 4784 C 454.942 -4.98052 -0.852768 0
M  V30 4785 C 457.14 -5.11597 -0.526625 0
M  V30 4786 N 455.122 -6.13859 -0.0710649 0
M  V30 4787 C 456.493 -6.19883 0.12042 0
M  V30 4788 C 458.548 -4.95992 -0.435485 0
M  V30 4789 C 457.251 -7.14262 0.849833 0
M  V30 4790 C 459.277 -5.90735 0.280359 0
M  V30 4791 C 458.639 -6.98417 0.916103 0
M  V30 4792 H 454.738 -0.702242 -0.344064 0
M  V30 4793 H 457.322 -1.92887 -0.265088 0
M  V30 4794 H 455.493 -2.89017 -2.59468 0
M  V30 4795 H 457.225 -3.13516 -2.5591 0
M  V30 4796 H 453.98 -4.5916 -1.16058 0
M  V30 4797 H 454.404 -6.76302 0.307413 0
M  V30 4798 H 459.046 -4.12832 -0.912671 0
M  V30 4799 H 456.764 -7.96935 1.33867 0
M  V30 4800 H 460.35 -5.80738 0.351332 0
M  V30 4801 H 459.23 -7.70467 1.46119 0
M  V30 4802 N 456.733 0.527833 -1.48498 0
M  V30 4803 C 457.979 1.28545 -1.56857 0
M  V30 4804 C 458.312 1.92678 -0.242651 0
M  V30 4805 O 457.587 1.79394 0.751545 0
M  V30 4806 C 457.87 2.37314 -2.70839 0
M  V30 4807 C 457.723 1.77858 -4.13142 0
M  V30 4808 C 459.042 3.39068 -2.80573 0
M  V30 4809 H 456.161 0.466006 -0.570971 0
M  V30 4810 H 458.803 0.587784 -1.8068 0
M  V30 4811 H 456.953 2.96821 -2.50658 0
M  V30 4812 H 458.625 1.22385 -4.44769 0
M  V30 4813 H 456.868 1.08383 -4.20042 0
M  V30 4814 H 457.539 2.56624 -4.88721 0
M  V30 4815 H 460.015 2.89518 -2.98862 0
M  V30 4816 H 458.891 4.12566 -3.6205 0
M  V30 4817 H 459.152 3.9975 -1.88818 0
M  V30 4818 N 458.211 1.37122 0.776871 0
M  V30 4819 C 459.439 1.3523 1.5659 0
M  V30 4820 C 459.854 -0.0635518 1.88693 0
M  V30 4821 O 459.211 -1.02394 1.51069 0
M  V30 4822 C 459.262 2.18583 2.8793 0
M  V30 4823 O 458.983 3.5465 2.57206 0
M  V30 4824 C 460.484 2.24612 3.82183 0
M  V30 4825 H 457.704 0.4634 0.485285 0
M  V30 4826 H 460.248 1.80392 0.963266 0
M  V30 4827 H 458.403 1.76943 3.4463 0
M  V30 4828 H 458.817 3.98286 3.41275 0
M  V30 4829 H 460.291 2.87267 4.71361 0
M  V30 4830 H 460.768 1.25309 4.20944 0
M  V30 4831 H 461.374 2.66543 3.31414 0
M  V30 4832 N 459.689 -1.00246 1.21608 0
M  V30 4833 C 460.937 -1.73717 1.0328 0
M  V30 4834 C 461.258 -1.90102 -0.434318 0
M  V30 4835 O 460.528 -1.45376 -1.31311 0
M  V30 4836 H 459.108 -0.643613 0.379172 0
M  V30 4837 H 461.77 -1.20787 1.52959 0
M  V30 4838 H 460.866 -2.73535 1.50283 0
M  V30 4839 N 461.167 -1.02423 -1.1978 0
M  V30 4840 C 462.117 -0.571689 -2.20716 0
M  V30 4841 C 463.101 0.377077 -1.56419 0
M  V30 4842 O 464.293 0.198801 -1.7588 0
M  V30 4843 C 461.422 0.0808555 -3.43205 0
M  V30 4844 C 460.508 -0.890073 -4.14655 0
M  V30 4845 N 460.899 -2.05065 -4.62366 0
M  V30 4846 C 459.197 -0.71252 -4.40272 0
M  V30 4847 C 459.898 -2.66264 -5.17183 0
M  V30 4848 N 458.874 -1.94264 -5.07703 0
M  V30 4849 H 462.676 -1.45636 -2.55279 0
M  V30 4850 H 460.19 -0.890596 -1.35802 0
M  V30 4851 H 462.187 0.422654 -4.14752 0
M  V30 4852 H 460.847 0.961274 -3.10144 0
M  V30 4853 H 461.858 -2.43026 -4.57339 0
M  V30 4854 H 458.535 0.119199 -4.1733 0
M  V30 4855 H 459.925 -3.64526 -5.64421 0
M  V30 4856 N 462.645 1.35699 -0.801477 0
M  V30 4857 C 463.87 2.03687 -0.390678 0
M  V30 4858 C 464.295 1.60015 0.988778 0
M  V30 4859 O 463.653 0.774357 1.63931 0
M  V30 4860 C 463.701 3.57439 -0.476404 0
M  V30 4861 O 462.805 4.09208 0.512106 0
M  V30 4862 H 462.146 0.64344 -0.163956 0
M  V30 4863 H 464.676 1.73403 -1.08594 0
M  V30 4864 H 464.686 4.06544 -0.344357 0
M  V30 4865 H 463.361 3.88576 -1.48262 0
M  V30 4866 H 461.938 3.7134 0.340721 0
M  V30 4867 N 464.123 0.554532 1.47522 0
M  V30 4868 C 465.353 0.0342074 2.06572 0
M  V30 4869 C 465.761 -1.26375 1.40805 0
M  V30 4870 O 465.104 -1.7683 0.49769 0
M  V30 4871 C 465.166 -0.235096 3.5873 0
M  V30 4872 C 464.83 0.973024 4.46521 0
M  V30 4873 C 465.827 1.8779 4.848 0
M  V30 4874 C 463.512 1.18694 4.88075 0
M  V30 4875 C 465.506 2.98039 5.63428 0
M  V30 4876 C 463.193 2.29254 5.66468 0
M  V30 4877 C 464.191 3.18757 6.04055 0
M  V30 4878 O 463.879 4.27401 6.8087 0
M  V30 4879 H 463.611 0.041587 0.67472 0
M  V30 4880 H 466.165 0.766748 1.90552 0
M  V30 4881 H 464.395 -1.02191 3.72953 0
M  V30 4882 H 466.084 -0.700477 3.9981 0
M  V30 4883 H 466.85 1.72467 4.53299 0
M  V30 4884 H 462.729 0.49947 4.58286 0
M  V30 4885 H 466.273 3.67926 5.92685 0
M  V30 4886 H 462.17 2.4455 5.97382 0
M  V30 4887 H 462.938 4.25415 6.9926 0
M  V30 4888 N 465.601 -1.54893 0.290851 0
M  V30 4889 C 466.531 -2.26103 -0.583084 0
M  V30 4890 C 467.512 -1.25684 -1.14619 0
M  V30 4891 O 468.697 -1.54436 -1.17741 0
M  V30 4892 C 465.827 -2.99409 -1.75987 0
M  V30 4893 C 464.781 -4.0689 -1.32758 0
M  V30 4894 C 464.107 -4.67856 -2.58872 0
M  V30 4895 C 465.407 -5.20215 -0.46624 0
M  V30 4896 H 467.101 -2.99398 0.0108214 0
M  V30 4897 H 464.647 -1.43998 0.00664468 0
M  V30 4898 H 466.6 -3.47943 -2.37727 0
M  V30 4899 H 465.324 -2.23675 -2.37985 0
M  V30 4900 H 463.983 -3.59191 -0.733299 0
M  V30 4901 H 463.631 -3.88772 -3.19163 0
M  V30 4902 H 463.331 -5.40438 -2.30653 0
M  V30 4903 H 464.855 -5.19147 -3.21433 0
M  V30 4904 H 466.269 -5.64704 -0.989047 0
M  V30 4905 H 464.666 -5.99455 -0.27826 0
M  V30 4906 H 465.736 -4.82198 0.511173 0
M  V30 4907 N 467.08 -0.0183926 -1.57589 0
M  V30 4908 C 468.01 0.965596 -2.12599 0
M  V30 4909 C 468.991 1.34641 -1.0395 0
M  V30 4910 O 470.176 1.42693 -1.31729 0
M  V30 4911 C 467.306 2.25149 -2.64434 0
M  V30 4912 C 466.26 2.01175 -3.77773 0
M  V30 4913 C 465.586 3.35937 -4.15994 0
M  V30 4914 C 466.886 1.35953 -5.04296 0
M  V30 4915 H 468.58 0.507504 -2.95067 0
M  V30 4916 H 466.126 0.242671 -1.41941 0
M  V30 4917 H 468.079 2.94357 -3.01549 0
M  V30 4918 H 466.803 2.73105 -1.79112 0
M  V30 4919 H 465.462 1.34388 -3.4108 0
M  V30 4920 H 465.11 3.81631 -3.27669 0
M  V30 4921 H 464.81 3.20705 -4.92364 0
M  V30 4922 H 466.334 4.0643 -4.55683 0
M  V30 4923 H 467.748 1.95144 -5.39065 0
M  V30 4924 H 466.145 1.31152 -5.85593 0
M  V30 4925 H 467.215 0.331071 -4.83768 0
M  V30 4926 N 468.558 1.5553 0.254621 0
M  V30 4927 C 469.788 1.80784 1.00004 0
M  V30 4928 C 470.196 0.59071 1.79742 0
M  V30 4929 O 469.539 -0.449988 1.78103 0
M  V30 4930 C 469.601 2.99268 1.99196 0
M  V30 4931 C 469.265 4.35595 1.38224 0
M  V30 4932 C 470.262 5.13884 0.788611 0
M  V30 4933 C 467.947 4.82281 1.40393 0
M  V30 4934 C 469.941 6.37004 0.224783 0
M  V30 4935 C 467.628 6.05351 0.836243 0
M  V30 4936 C 468.626 6.82551 0.24769 0
M  V30 4937 O 468.314 8.03297 -0.311249 0
M  V30 4938 H 468.046 0.60565 0.300274 0
M  V30 4939 H 470.6 2.03411 0.285143 0
M  V30 4940 H 468.83 2.72377 2.74496 0
M  V30 4941 H 470.519 3.11682 2.60018 0
M  V30 4942 H 471.285 4.78938 0.764423 0
M  V30 4943 H 467.164 4.22189 1.85142 0
M  V30 4944 H 470.708 6.97203 -0.235235 0
M  V30 4945 H 466.605 6.39776 0.857733 0
M  V30 4946 H 467.373 8.1825 -0.20237 0
M  V30 4947 N 470.036 -0.519951 1.48776 0
M  V30 4948 C 471.284 -1.2727 1.56993 0
M  V30 4949 C 471.605 -1.9339 0.25004 0
M  V30 4950 O 470.875 -1.81822 -0.729216 0
M  V30 4951 H 469.455 -0.472732 0.578389 0
M  V30 4952 H 472.117 -0.604234 1.85297 0
M  V30 4953 H 471.213 -2.04669 2.3562 0
M  V30 4954 N 471.514 -1.37532 -0.769588 0
M  V30 4955 C 472.925 -1.29382 -1.346 0
M  V30 4956 C 473.276 0.0576039 -1.96115 0
M  V30 4957 O 472.401 0.95947 -1.93967 0
M  V30 4958 C 472.996 -2.34298 -2.44724 0
M  V30 4959 C 471.555 -2.29776 -2.98128 0
M  V30 4960 C 470.702 -2.18013 -1.71364 0
M  V30 4961 H 473.653 -1.48123 -0.56968 0
M  V30 4962 H 473.674 -1.99089 -3.24259 0
M  V30 4963 H 473.186 -3.32645 -1.99922 0
M  V30 4964 H 471.287 -1.34959 -3.47299 0
M  V30 4965 H 471.4 -3.23276 -3.53595 0
M  V30 4966 H 469.764 -1.64595 -1.94372 0
M  V30 4967 H 470.547 -3.18278 -1.28662 0
M  V30 4968 N 472.992 0.995999 -1.22138 0
M  V30 4969 C 473.922 2.10387 -1.01289 0
M  V30 4970 C 474.903 1.69975 0.0651454 0
M  V30 4971 O 476.088 1.9396 -0.0964628 0
M  V30 4972 C 473.218 3.42312 -0.586517 0
M  V30 4973 C 472.172 3.96558 -1.61014 0
M  V30 4974 C 471.498 5.24494 -1.0397 0
M  V30 4975 C 472.798 4.27595 -2.99933 0
M  V30 4976 H 474.492 2.28086 -1.93951 0
M  V30 4977 H 472.038 1.09607 -0.933928 0
M  V30 4978 H 473.991 4.19223 -0.427793 0
M  V30 4979 H 472.715 3.24431 0.375761 0
M  V30 4980 H 471.374 3.21776 -1.75658 0
M  V30 4981 H 471.022 5.02953 -0.0688703 0
M  V30 4982 H 470.722 5.61755 -1.72352 0
M  V30 4983 H 472.246 6.04042 -0.892494 0
M  V30 4984 H 473.66 4.95315 -2.8868 0
M  V30 4985 H 472.057 4.76021 -3.6541 0
M  V30 4986 H 473.127 3.35498 -3.50099 0
M  V30 4987 N 474.47 1.03057 1.19235 0
M  V30 4988 C 475.433 0.617418 2.20727 0
M  V30 4989 C 476.433 -0.319856 1.57587 0
M  V30 4990 O 477.623 -0.106633 1.73873 0
M  V30 4991 C 474.755 -0.096296 3.40764 0
M  V30 4992 H 475.948 1.51544 2.58794 0
M  V30 4993 H 473.501 0.821949 1.32942 0
M  V30 4994 H 474.236 -1.00859 3.08217 0
M  V30 4995 H 474.021 0.577217 3.87828 0
M  V30 4996 H 475.511 -0.372219 4.15938 0
M  V30 4997 N 475.948 -1.35272 0.808662 0
M  V30 4998 C 477.188 -2.00534 0.395668 0
M  V30 4999 C 477.552 -1.62755 -1.01857 0
M  V30 5000 O 478.753 -2.20752 -1.53368 0
M  V30 5001 C 477.024 -3.52732 0.575771 0
M  V30 5002 S 478.583 -4.38067 0.253507 0
M  V30 5003 H 475.401 -0.694962 0.150165 0
M  V30 5004 H 478.003 -1.64823 1.05137 0
M  V30 5005 H 476.707 -3.77714 1.60499 0
M  V30 5006 H 476.238 -3.93285 -0.0951739 0
M  V30 5007 H 478.253 -4.87252 -0.938068 0
M  V30 5008 N 477.426 -0.562348 -1.47226 0
M  V30 5009 C 478.674 -0.0401371 -2.0206 0
M  V30 5010 C 478.995 1.3165 -1.43852 0
M  V30 5011 O 478.265 1.85976 -0.615599 0
M  V30 5012 H 476.845 -0.0118479 -0.746906 0
M  V30 5013 H 479.507 -0.73352 -1.8057 0
M  V30 5014 H 478.603 0.0441254 -3.12069 0
M  V30 5015 N 478.904 1.54736 -0.299062 0
M  V30 5016 C 479.867 2.22127 0.565012 0
M  V30 5017 C 480.867 1.20669 1.06281 0
M  V30 5018 O 482.057 1.45417 0.959145 0
M  V30 5019 C 479.189 2.90611 1.78208 0
M  V30 5020 H 480.382 2.99891 -0.0237448 0
M  V30 5021 H 477.935 1.5622 -0.0498788 0
M  V30 5022 H 478.67 2.16921 2.41072 0
M  V30 5023 H 478.455 3.64984 1.43281 0
M  V30 5024 H 479.945 3.42026 2.396 0
M  V30 5025 N 480.382 0.0267497 1.57577 0
M  V30 5026 C 481.61 -0.662661 1.96001 0
M  V30 5027 C 482.025 -1.65799 0.903117 0
M  V30 5028 O 481.382 -1.82135 -0.115317 0
M  V30 5029 C 481.433 -1.37112 3.34488 0
M  V30 5030 O 481.154 -0.415683 4.36123 0
M  V30 5031 C 482.655 -2.15257 3.8753 0
M  V30 5032 H 479.875 -0.18287 0.6456 0
M  V30 5033 H 482.419 0.0858116 2.0432 0
M  V30 5034 H 480.574 -2.07101 3.27395 0
M  V30 5035 H 480.988 -0.918496 5.16395 0
M  V30 5036 H 482.462 -2.60285 4.86781 0
M  V30 5037 H 482.939 -2.99063 3.21649 0
M  V30 5038 H 483.545 -1.50231 3.97883 0
M  V30 5039 N 481.861 -1.55662 -0.24637 0
M  V30 5040 C 483.089 -1.81575 -0.991876 0
M  V30 5041 C 483.504 -0.602545 -1.78927 0
M  V30 5042 O 482.861 0.428795 -1.77391 0
M  V30 5043 C 482.912 -3.05711 -1.92933 0
M  V30 5044 O 482.633 -4.22348 -1.1642 0
M  V30 5045 C 484.134 -3.44428 -2.79078 0
M  V30 5046 H 481.354 -0.604209 -0.291844 0
M  V30 5047 H 483.898 -2.02722 -0.269095 0
M  V30 5048 H 482.053 -2.86612 -2.60638 0
M  V30 5049 H 482.467 -4.92706 -1.79835 0
M  V30 5050 H 483.941 -4.34388 -3.40603 0
M  V30 5051 H 484.418 -2.65037 -3.50217 0
M  V30 5052 H 485.024 -3.65879 -2.16824 0
M  V30 5053 N 483.339 0.512053 -1.4905 0
M  V30 5054 C 484.269 1.62365 -1.67809 0
M  V30 5055 C 485.25 1.61737 -0.526809 0
M  V30 5056 O 486.435 1.78651 -0.761404 0
M  V30 5057 C 483.565 3.00895 -1.73435 0
M  V30 5058 C 482.519 3.16387 -2.88242 0
M  V30 5059 C 481.845 4.56157 -2.78971 0
M  V30 5060 C 483.145 2.97457 -4.29321 0
M  V30 5061 H 484.839 1.46921 -2.60873 0
M  V30 5062 H 482.385 0.705379 -1.2554 0
M  V30 5063 H 484.338 3.78549 -1.85145 0
M  V30 5064 H 483.062 3.17403 -0.769619 0
M  V30 5065 H 481.721 2.41155 -2.76116 0
M  V30 5066 H 481.369 4.69525 -1.8043 0
M  V30 5067 H 481.069 4.67465 -3.5602 0
M  V30 5068 H 482.593 5.35886 -2.92675 0
M  V30 5069 H 484.007 3.64888 -4.42187 0
M  V30 5070 H 482.404 3.20245 -5.07507 0
M  V30 5071 H 483.474 1.93692 -4.44535 0
M  V30 5072 N 484.817 1.37938 0.762283 0
M  V30 5073 C 485.75 1.2884 1.88349 0
M  V30 5074 C 486.728 0.167084 1.61739 0
M  V30 5075 O 487.912 0.34292 1.85355 0
M  V30 5076 C 485.039 0.994257 3.23778 0
M  V30 5077 C 484.085 2.13376 3.69287 0
M  V30 5078 S 484.918 3.75439 3.81845 0
M  V30 5079 C 486.074 3.48195 5.20107 0
M  V30 5080 H 486.307 2.23736 1.95779 0
M  V30 5081 H 483.84 1.23672 0.924368 0
M  V30 5082 H 485.798 0.83138 4.01993 0
M  V30 5083 H 484.459 0.0626251 3.14038 0
M  V30 5084 H 483.652 1.88319 4.67495 0
M  V30 5085 H 483.254 2.25726 2.98201 0
M  V30 5086 H 485.546 3.0377 6.05583 0
M  V30 5087 H 486.489 4.45765 5.50181 0
M  V30 5088 H 486.897 2.82905 4.88493 0
M  V30 5089 N 486.295 -0.989507 1.22664 0
M  V30 5090 C 487.542 -1.72953 1.05325 0
M  V30 5091 C 487.87 -1.90104 -0.411168 0
M  V30 5092 O 487.125 -1.44386 -1.32103 0
M  V30 5093 C 487.424 -3.13649 1.71345 0
M  V30 5094 C 487.09 -3.16403 3.21248 0
M  V30 5095 C 485.752 -3.16862 3.62149 0
M  V30 5096 C 488.104 -3.12428 4.17179 0
M  V30 5097 C 485.432 -3.11051 4.97458 0
M  V30 5098 C 487.784 -3.08159 5.52468 0
M  V30 5099 C 486.448 -3.06935 5.92746 0
M  V30 5100 H 485.718 -0.632881 0.385412 0
M  V30 5101 H 488.365 -1.15863 1.52473 0
M  V30 5102 H 486.67 -3.74069 1.16532 0
M  V30 5103 H 488.367 -3.69658 1.55416 0
M  V30 5104 H 484.957 -3.16798 2.88682 0
M  V30 5105 H 489.141 -3.11221 3.86595 0
M  V30 5106 H 484.397 -3.0845 5.27891 0
M  V30 5107 H 488.571 -3.04039 6.26525 0
M  V30 5108 H 486.198 -3.02186 6.97558 0
M  V30 5109 N 487.773 -1.03688 -1.18687 0
M  V30 5110 C 488.683 -0.634908 -2.25845 0
M  V30 5111 C 489.699 0.337065 -1.70704 0
M  V30 5112 O 490.875 0.192943 -2.00474 0
M  V30 5113 C 487.94 -0.000180054 -3.467 0
M  V30 5114 C 487.001 -1.02067 -4.1699 0
M  V30 5115 C 486.234 -0.41614 -5.32075 0
M  V30 5116 O 486.457 0.778712 -5.65059 0
M  V30 5117 O 485.391 -1.14296 -5.90948 0
M  V30 5118 H 489.217 -1.52757 -2.62486 0
M  V30 5119 H 486.802 -0.807533 -1.25695 0
M  V30 5120 H 488.684 0.353342 -4.19916 0
M  V30 5121 H 487.359 0.866367 -3.11891 0
M  V30 5122 H 486.266 -1.42592 -3.45859 0
M  V30 5123 H 487.599 -1.85786 -4.5579 0
M  V30 5124 N 489.251 1.34841 -0.815825 0
M  V30 5125 C 490.499 1.98107 -0.399744 0
M  V30 5126 C 490.82 1.65019 1.03894 0
M  V30 5127 O 490.09 0.937311 1.72021 0
M  V30 5128 H 488.67 0.732827 -0.144823 0
M  V30 5129 H 491.332 1.64599 -1.0437 0
M  V30 5130 H 490.428 3.07856 -0.512965 0
M  V30 5131 N 490.729 0.570148 1.46925 0
M  V30 5132 C 491.975 0.0510284 2.02736 0
M  V30 5133 C 492.308 -1.3006 1.44215 0
M  V30 5134 O 491.583 -1.84932 0.602521 0
M  V30 5135 C 491.866 -0.028215 3.60089 0
M  V30 5136 C 491.719 1.35142 4.29018 0
M  V30 5137 C 493.038 -0.735181 4.33916 0
M  V30 5138 H 490.157 0.0200178 0.736728 0
M  V30 5139 H 492.799 0.73493 1.75211 0
M  V30 5140 H 490.949 -0.610648 3.83671 0
M  V30 5141 H 492.621 1.97806 4.16738 0
M  V30 5142 H 490.864 1.9226 3.88868 0
M  V30 5143 H 491.535 1.24857 5.37694 0
M  V30 5144 H 494.011 -0.240519 4.15404 0
M  V30 5145 H 492.887 -0.759622 5.43618 0
M  V30 5146 H 493.148 -1.79397 4.04066 0
M  V30 5147 N 492.207 -1.54576 0.307264 0
M  V30 5148 C 493.618 -1.8579 -0.184121 0
M  V30 5149 C 493.969 -1.22914 -1.52927 0
M  V30 5150 O 493.094 -0.529126 -2.09831 0
M  V30 5151 C 493.689 -3.37081 -0.340862 0
M  V30 5152 C 492.248 -3.68304 -0.776465 0
M  V30 5153 C 491.395 -2.77076 0.111503 0
M  V30 5154 H 494.346 -1.49656 0.528078 0
M  V30 5155 H 494.367 -3.61922 -1.17443 0
M  V30 5156 H 493.879 -3.82815 0.638309 0
M  V30 5157 H 491.98 -3.28092 -1.76596 0
M  V30 5158 H 492.093 -4.75434 -0.591512 0
M  V30 5159 H 490.457 -2.51374 -0.410256 0
M  V30 5160 H 491.24 -3.25632 1.08714 0
M  V30 5161 N 493.685 -0.035106 -1.57561 0
M  V30 5162 C 494.633 0.962707 -2.11742 0
M  V30 5163 C 495.627 1.33296 -1.0454 0
M  V30 5164 O 496.833 1.31449 -1.22968 0
M  V30 5165 H 493.208 0.32826 -0.676572 0
M  V30 5166 H 495.179 0.48048 -2.94506 0
M  V30 5167 C 493.928 2.23388 -2.66445 0
M  V30 5168 H 493.251 1.95774 -3.48587 0
M  V30 5169 H 494.691 2.91402 -3.07995 0
M  V30 5170 C 493.15 2.96769 -1.59467 0
M  V30 5171 O 493.68 3.89105 -0.998 0
M  V30 5172 N 491.886 2.59212 -1.31369 0
M  V30 5173 H 491.433 1.84202 -1.80076 0
M  V30 5174 H 491.391 3.08618 -0.600173 0
M  V30 5175 N 495.163 1.55791 0.238111 0
M  V30 5176 C 496.409 1.79211 0.962035 0
M  V30 5177 C 496.764 0.605463 1.82625 0
M  V30 5178 O 496.057 -0.40104 1.87356 0
M  V30 5179 C 496.251 3.05869 1.84875 0
M  V30 5180 C 496.08 4.36739 1.07186 0
M  V30 5181 C 494.85 4.99346 0.773424 0
M  V30 5182 C 497.048 5.1237 0.445168 0
M  V30 5183 N 495.03 6.13894 -0.0266037 0
M  V30 5184 C 496.401 6.19613 -0.219023 0
M  V30 5185 C 498.456 4.96622 0.356522 0
M  V30 5186 C 497.159 7.1282 -0.963358 0
M  V30 5187 C 499.185 5.90214 -0.374304 0
M  V30 5188 C 498.547 6.96872 -1.0271 0
M  V30 5189 H 494.646 0.707627 0.332849 0
M  V30 5190 H 497.23 1.93284 0.234368 0
M  V30 5191 H 495.401 2.93108 2.54837 0
M  V30 5192 H 497.133 3.17547 2.5089 0
M  V30 5193 H 493.888 4.60948 1.08738 0
M  V30 5194 H 494.312 6.75727 -0.414968 0
M  V30 5195 H 498.954 4.14232 0.846878 0
M  V30 5196 H 496.672 7.94704 -1.46529 0
M  V30 5197 H 500.258 5.80106 -0.443678 0
M  V30 5198 H 499.138 7.68045 -1.58358 0
M  V30 5199 N 496.642 -0.504142 1.49319 0
M  V30 5200 C 498.053 -1.08572 1.51885 0
M  V30 5201 C 498.404 -1.93842 0.303255 0
M  V30 5202 O 497.529 -2.0828 -0.58724 0
M  V30 5203 C 498.124 -1.97574 2.75227 0
M  V30 5204 C 496.683 -2.509 2.80581 0
M  V30 5205 C 495.83 -1.28447 2.45757 0
M  V30 5206 H 498.781 -0.288194 1.56061 0
M  V30 5207 H 498.802 -2.82219 2.55211 0
M  V30 5208 H 498.314 -1.35486 3.63683 0
M  V30 5209 H 496.415 -3.16636 1.96398 0
M  V30 5210 H 496.528 -2.88268 3.82673 0
M  V30 5211 H 494.892 -1.60868 1.97468 0
M  V30 5212 H 495.675 -0.68072 3.36483 0
M  V30 5213 N 498.12 -1.38341 -0.754957 0
M  V30 5214 C 499.348 -1.37704 -1.54419 0
M  V30 5215 C 499.763 0.0335243 -1.8877 0
M  V30 5216 O 499.12 0.999773 -1.52679 0
M  V30 5217 C 499.171 -2.23136 -2.84416 0
M  V30 5218 O 498.892 -3.58697 -2.51531 0
M  V30 5219 C 500.393 -2.30664 -3.78562 0
M  V30 5220 H 497.613 -0.471061 -0.477852 0
M  V30 5221 H 500.157 -1.81902 -0.934446 0
M  V30 5222 H 498.312 -1.82403 -3.41772 0
M  V30 5223 H 498.726 -4.03665 -3.34896 0
M  V30 5224 H 500.2 -2.9473 -4.66732 0
M  V30 5225 H 500.677 -1.3199 -4.18898 0
M  V30 5226 H 501.283 -2.71781 -3.27131 0
M  V30 5227 N 499.598 0.982988 -1.23187 0
M  V30 5228 C 501.009 1.53847 -1.05773 0
M  V30 5229 C 501.36 1.92568 0.375744 0
M  V30 5230 O 500.485 1.75783 1.26211 0
M  V30 5231 C 501.08 2.79567 -1.91384 0
M  V30 5232 C 499.639 3.31524 -1.78238 0
M  V30 5233 C 498.786 2.04534 -1.87246 0
M  V30 5234 H 501.737 0.802962 -1.36888 0
M  V30 5235 H 501.758 3.52317 -1.43711 0
M  V30 5236 H 501.27 2.51353 -2.95708 0
M  V30 5237 H 499.371 3.64623 -0.766875 0
M  V30 5238 H 499.484 4.01457 -2.61475 0
M  V30 5239 H 497.848 2.1855 -1.30797 0
M  V30 5240 H 498.631 1.78706 -2.9312 0
M  V30 5241 N 501.076 1.04316 1.18135 0
M  V30 5242 C 502.039 0.640794 2.2006 0
M  V30 5243 C 503.039 -0.303124 1.57917 0
M  V30 5244 O 504.229 -0.0881855 1.73977 0
M  V30 5245 C 501.361 -0.060148 3.40847 0
M  V30 5246 H 502.554 1.54281 2.57172 0
M  V30 5247 H 500.107 0.836004 1.32063 0
M  V30 5248 H 500.842 -0.975845 3.0927 0
M  V30 5249 H 500.627 0.618319 3.87194 0
M  V30 5250 H 502.117 -0.328082 4.16309 0
M  V30 5251 N 502.554 -1.34406 0.822964 0
M  V30 5252 C 503.97 -1.51275 0.508727 0
M  V30 5253 C 504.17 -1.76776 -0.967083 0
M  V30 5254 O 503.226 -1.81871 -1.75155 0
M  V30 5255 C 504.539 -2.67765 1.36829 0
M  V30 5256 C 506.087 -2.81647 1.36542 0
M  V30 5257 C 506.562 -4.01181 2.20947 0
M  V30 5258 N 508.053 -4.08388 2.18571 0
M  V30 5259 C 508.788 -5.00036 2.80627 0
M  V30 5260 N 508.284 -5.96906 3.51674 0
M  V30 5261 N 510.077 -4.92908 2.70181 0
M  V30 5262 H 502.228 -1.16113 1.77852 0
M  V30 5263 H 504.491 -0.56947 0.757897 0
M  V30 5264 H 504.197 -2.55551 2.41633 0
M  V30 5265 H 504.071 -3.62779 1.03303 0
M  V30 5266 H 506.458 -2.93303 0.325163 0
M  V30 5267 H 506.539 -1.87443 1.74066 0
M  V30 5268 H 506.183 -3.90286 3.25022 0
M  V30 5269 H 506.113 -4.94599 1.80774 0
M  V30 5270 H 508.604 -3.39051 1.66891 0
M  V30 5271 H 508.917 -6.63468 3.96271 0
M  V30 5272 H 507.262 -5.9703 3.5578 0
M  V30 5273 H 510.453 -4.1619 2.14251 0
M  V30 5274 H 510.626 -5.64137 3.18831 0
M  V30 5275 N 504.032 -0.577932 -1.46621 0
M  V30 5276 C 504.965 0.206312 -2.27265 0
M  V30 5277 C 505.943 0.901306 -1.35334 0
M  V30 5278 O 507.127 0.916151 -1.64739 0
M  V30 5279 C 504.254 1.29563 -3.1294 0
M  V30 5280 C 503.3 0.706981 -4.206 0
M  V30 5281 S 504.133 -0.462459 -5.33499 0
M  V30 5282 C 505.289 0.628171 -6.2274 0
M  V30 5283 H 505.522 -0.477961 -2.93433 0
M  V30 5284 H 503.055 -0.364715 -1.50031 0
M  V30 5285 H 505.013 1.91935 -3.62865 0
M  V30 5286 H 503.674 1.95183 -2.46095 0
M  V30 5287 H 502.867 1.52565 -4.80354 0
M  V30 5288 H 502.469 0.159022 -3.73662 0
M  V30 5289 H 504.761 1.51506 -6.60342 0
M  V30 5290 H 505.704 0.0674961 -7.08068 0
M  V30 5291 H 506.112 0.930167 -5.56784 0
M  V30 5292 N 505.51 1.54411 -0.315457 0
M  V30 5293 C 506.75 2.02329 0.290236 0
M  V30 5294 C 507.114 1.19878 1.49977 0
M  V30 5295 O 508.315 1.57562 2.17779 0
M  V30 5296 C 506.586 3.51912 0.623937 0
M  V30 5297 S 508.145 4.21775 1.21044 0
M  V30 5298 H 504.963 0.705499 0.0882739 0
M  V30 5299 H 507.565 1.90328 -0.446694 0
M  V30 5300 H 506.269 4.09546 -0.264624 0
M  V30 5301 H 505.8 3.67977 1.39128 0
M  V30 5302 H 507.815 4.28757 2.49764 0
M  V30 5303 N 506.988 0.0434614 1.5754 0
M  V30 5304 C 507.92 -0.962586 2.08007 0
M  V30 5305 C 508.933 -1.27972 1.00634 0
M  V30 5306 O 510.122 -1.24186 1.28219 0
M  V30 5307 C 507.222 -2.28621 2.50171 0
M  V30 5308 C 506.395 -2.15214 3.80791 0
M  V30 5309 C 505.454 -3.30633 4.09351 0
M  V30 5310 O 504.48 -3.0688 4.79388 0
M  V30 5311 N 505.682 -4.54873 3.60654 0
M  V30 5312 H 508.447 -0.531891 2.94942 0
M  V30 5313 H 506.008 -0.142965 1.61268 0
M  V30 5314 H 508 -3.04689 2.66359 0
M  V30 5315 H 506.57 -2.63283 1.68525 0
M  V30 5316 H 505.79 -1.23785 3.74261 0
M  V30 5317 H 507.078 -2.03475 4.66343 0
M  V30 5318 H 506.476 -4.77063 3.04019 0
M  V30 5319 H 505.033 -5.2806 3.82094 0
M  V30 5320 N 508.466 -1.55915 -0.229846 0
M  V30 5321 C 509.712 -1.78807 -0.956868 0
M  V30 5322 C 510.045 -0.611687 -1.84315 0
M  V30 5323 O 509.32 0.389398 -1.90562 0
M  V30 5324 C 509.603 -3.11718 -1.80288 0
M  V30 5325 C 509.456 -4.3979 -0.943649 0
M  V30 5326 C 510.775 -3.40999 -2.78222 0
M  V30 5327 H 507.894 -0.6505 -0.346437 0
M  V30 5328 H 510.536 -1.88648 -0.226252 0
M  V30 5329 H 508.686 -3.03459 -2.42579 0
M  V30 5330 H 510.358 -4.60059 -0.338121 0
M  V30 5331 H 508.601 -4.33086 -0.248705 0
M  V30 5332 H 509.272 -5.29208 -1.5698 0
M  V30 5333 H 511.748 -3.49332 -2.26067 0
M  V30 5334 H 510.624 -4.35183 -3.34526 0
M  V30 5335 H 510.885 -2.62754 -3.55546 0
M  V30 5336 N 509.944 0.496216 -1.49584 0
M  V30 5337 C 511.19 1.25189 -1.59548 0
M  V30 5338 C 511.523 1.9212 -0.283466 0
M  V30 5339 O 510.798 1.80947 0.713324 0
M  V30 5340 C 511.081 2.31516 -2.75812 0
M  V30 5341 C 510.934 1.69054 -4.16822 0
M  V30 5342 C 512.253 3.3304 -2.87702 0
M  V30 5343 H 509.372 0.45379 -0.580727 0
M  V30 5344 H 512.014 0.549327 -1.81886 0
M  V30 5345 H 510.164 2.91438 -2.56897 0
M  V30 5346 H 511.836 1.12923 -4.47265 0
M  V30 5347 H 510.079 0.994485 -4.22247 0
M  V30 5348 H 510.75 2.462 -4.94054 0
M  V30 5349 H 513.226 2.83114 -3.04936 0
M  V30 5350 H 512.102 4.04794 -3.7072 0
M  V30 5351 H 512.363 3.95655 -1.97255 0
M  V30 5352 N 511.423 1.38739 0.74761 0
M  V30 5353 C 512.7 1.25791 1.49786 0
M  V30 5354 C 513.08 -0.138075 2.10648 0
M  V30 5355 O 512.428 -1.14815 1.9756 0
M  V30 5356 C 512.638 2.37265 2.55942 0
M  V30 5357 C 513.986 2.75978 3.22679 0
M  V30 5358 O 515.01 2.36621 2.6625 0
M  V30 5359 O 513.869 3.43867 4.24756 0
M  V30 5360 H 510.963 0.492251 0.664543 0
M  V30 5361 H 513.509 1.50582 0.782511 0
M  V30 5362 H 512.281 3.30644 2.0926 0
M  V30 5363 H 511.904 2.14071 3.35051 0
M  V30 5364 N 512.901 -0.976442 1.23707 0
M  V30 5365 C 513.848 -2.06952 1.02174 0
M  V30 5366 C 514.818 -1.65984 -0.0621034 0
M  V30 5367 O 516.003 -1.90584 0.0907906 0
M  V30 5368 C 513.143 -3.39425 0.62327 0
M  V30 5369 C 512.256 -3.9364 1.77966 0
M  V30 5370 C 511.391 -5.14343 1.3276 0
M  V30 5371 C 510.43 -5.60733 2.45449 0
M  V30 5372 N 509.567 -6.72662 2.01172 0
M  V30 5373 H 514.407 -2.24704 1.95734 0
M  V30 5374 H 511.944 -1.10143 0.975034 0
M  V30 5375 H 513.902 -4.15526 0.37332 0
M  V30 5376 H 512.532 -3.21624 -0.275329 0
M  V30 5377 H 511.584 -3.14258 2.14351 0
M  V30 5378 H 512.896 -4.24035 2.62671 0
M  V30 5379 H 512.05 -5.97789 1.03601 0
M  V30 5380 H 510.789 -4.8561 0.450975 0
M  V30 5381 H 509.794 -4.75865 2.75378 0
M  V30 5382 H 511.019 -5.91483 3.33654 0
M  V30 5383 H 508.965 -6.45681 1.15895 0
M  V30 5384 H 508.882 -7.02462 2.79434 0
M  V30 5385 H 510.15 -7.59572 1.75129 0
M  V30 5386 N 514.379 -1.04941 -1.1758 0
M  V30 5387 C 515.329 -0.618378 -2.19454 0
M  V30 5388 C 516.313 0.343813 -1.57184 0
M  V30 5389 O 517.505 0.16145 -1.76262 0
M  V30 5390 C 514.634 0.00803847 -3.43299 0
M  V30 5391 C 513.72 -0.977827 -4.12673 0
M  V30 5392 N 514.111 -2.14826 -4.57912 0
M  V30 5393 C 512.409 -0.805748 -4.38661 0
M  V30 5394 C 513.11 -2.77174 -5.11419 0
M  V30 5395 N 512.086 -2.04989 -5.03468 0
M  V30 5396 H 515.888 -1.51018 -2.52132 0
M  V30 5397 H 513.402 -0.919201 -1.33882 0
M  V30 5398 H 515.399 0.334584 -4.15555 0
M  V30 5399 H 514.059 0.895272 -3.12114 0
M  V30 5400 H 515.07 -2.52673 -4.52081 0
M  V30 5401 H 511.747 0.0306506 -4.17489 0
M  V30 5402 H 513.137 -3.76416 -5.56562 0
M  V30 5403 N 515.857 1.33968 -0.830081 0
M  V30 5404 C 516.789 2.28194 -0.21448 0
M  V30 5405 C 517.802 1.5135 0.599752 0
M  V30 5406 O 518.991 1.73286 0.42826 0
M  V30 5407 C 516.091 3.31221 0.717356 0
M  V30 5408 C 515.264 4.37365 -0.055613 0
M  V30 5409 C 514.323 5.2011 0.798231 0
M  V30 5410 O 513.349 5.68691 0.240616 0
M  V30 5411 N 514.551 5.40523 2.11695 0
M  V30 5412 H 517.316 2.81662 -1.02405 0
M  V30 5413 H 514.877 1.46568 -0.687713 0
M  V30 5414 H 516.869 3.83477 1.29334 0
M  V30 5415 H 515.439 2.78095 1.42765 0
M  V30 5416 H 514.659 3.85727 -0.812936 0
M  V30 5417 H 515.947 5.05397 -0.587444 0
M  V30 5418 H 515.345 5.0274 2.59363 0
M  V30 5419 H 513.902 5.95871 2.64162 0
M  V30 5420 N 517.335 0.585699 1.46312 0
M  V30 5421 C 518.581 0.0725284 2.0267 0
M  V30 5422 C 518.914 -1.28523 1.45586 0
M  V30 5423 O 518.189 -1.84283 0.622101 0
M  V30 5424 C 518.472 0.0099788 3.60099 0
M  V30 5425 C 518.325 1.39685 4.27561 0
M  V30 5426 C 519.644 -0.689117 4.34671 0
M  V30 5427 H 516.763 0.0278307 0.736474 0
M  V30 5428 H 519.405 0.753472 1.74421 0
M  V30 5429 H 517.555 -0.56992 3.84297 0
M  V30 5430 H 519.227 2.02215 4.14617 0
M  V30 5431 H 517.47 1.96374 3.86807 0
M  V30 5432 H 518.141 1.30553 5.36339 0
M  V30 5433 H 520.617 -0.196446 4.15636 0
M  V30 5434 H 519.493 -0.701921 5.44393 0
M  V30 5435 H 519.754 -1.75101 4.05946 0
M  V30 5436 N 518.813 -1.54241 0.323641 0
M  V30 5437 C 519.761 -2.25813 -0.557804 0
M  V30 5438 C 520.755 -1.27225 -1.11849 0
M  V30 5439 O 521.961 -1.45001 -1.06652 0
M  V30 5440 H 518.336 -0.72532 -0.198532 0
M  V30 5441 H 520.307 -2.98322 0.0681112 0
M  V30 5442 C 519.056 -3.02913 -1.70701 0
M  V30 5443 H 518.379 -3.78593 -1.28482 0
M  V30 5444 H 519.819 -3.56238 -2.29935 0
M  V30 5445 C 518.278 -2.11217 -2.62467 0
M  V30 5446 O 518.808 -1.69508 -3.64184 0
M  V30 5447 N 517.014 -1.76704 -2.30703 0
M  V30 5448 H 516.561 -2.1082 -1.48029 0
M  V30 5449 H 516.519 -1.15631 -2.92364 0
M  V30 5450 N 520.291 -0.0518155 -1.57515 0
M  V30 5451 C 521.54 0.621286 -1.91893 0
M  V30 5452 C 521.853 1.71966 -0.932052 0
M  V30 5453 O 523.059 2.45096 -1.16791 0
M  V30 5454 C 521.515 1.15641 -3.40816 0
M  V30 5455 C 521.123 0.0901146 -4.47909 0
M  V30 5456 C 522.867 1.80472 -3.84227 0
M  V30 5457 C 520.774 0.638154 -5.87947 0
M  V30 5458 H 519.704 0.235835 -0.716169 0
M  V30 5459 H 522.355 -0.120809 -1.83102 0
M  V30 5460 H 520.737 1.95084 -3.44613 0
M  V30 5461 H 521.911 -0.683525 -4.55702 0
M  V30 5462 H 520.226 -0.460774 -4.13843 0
M  V30 5463 H 522.823 2.22471 -4.86221 0
M  V30 5464 H 523.166 2.65669 -3.20508 0
M  V30 5465 H 523.699 1.07683 -3.82948 0
M  V30 5466 H 520.438 -0.176202 -6.55263 0
M  V30 5467 H 519.958 1.37976 -5.83714 0
M  V30 5468 H 521.637 1.12085 -6.37217 0
M  V30 5469 N 521.769 1.56035 0.221574 0
M  V30 5470 C 522.699 1.95434 1.2778 0
M  V30 5471 C 523.68 0.822564 1.48889 0
M  V30 5472 O 524.865 1.08486 1.61072 0
M  V30 5473 C 521.995 2.27102 2.62759 0
M  V30 5474 C 520.949 3.4277 2.56306 0
M  V30 5475 C 520.275 3.60043 3.95314 0
M  V30 5476 C 521.575 4.77742 2.11093 0
M  V30 5477 H 523.269 2.83912 0.950504 0
M  V30 5478 H 520.815 1.36596 0.455791 0
M  V30 5479 H 522.768 2.53256 3.36807 0
M  V30 5480 H 521.492 1.35478 2.97176 0
M  V30 5481 H 520.151 3.16664 1.84715 0
M  V30 5482 H 519.799 2.65794 4.27039 0
M  V30 5483 H 519.499 4.37841 3.91879 0
M  V30 5484 H 521.023 3.88545 4.71025 0
M  V30 5485 H 522.437 5.03102 2.74885 0
M  V30 5486 H 520.834 5.58823 2.18716 0
M  V30 5487 H 521.904 4.731 1.06321 0
M  V30 5488 N 523.247 -0.488276 1.49845 0
M  V30 5489 C 524.477 -1.26344 1.63465 0
M  V30 5490 C 524.885 -1.86637 0.310379 0
M  V30 5491 O 524.228 -1.69184 -0.715712 0
M  V30 5492 C 524.29 -2.42407 2.65479 0
M  V30 5493 C 523.954 -2.02886 4.09495 0
M  V30 5494 C 524.951 -1.56124 4.95904 0
M  V30 5495 C 522.636 -2.12131 4.55308 0
M  V30 5496 C 524.63 -1.19129 6.26169 0
M  V30 5497 C 522.317 -1.74747 5.85582 0
M  V30 5498 C 523.315 -1.28322 6.70837 0
M  V30 5499 O 523.003 -0.914491 7.98682 0
M  V30 5500 H 522.735 -0.388921 0.552916 0
M  V30 5501 H 525.289 -0.591288 1.96705 0
M  V30 5502 H 523.519 -3.12739 2.27445 0
M  V30 5503 H 525.208 -3.04409 2.68495 0
M  V30 5504 H 525.974 -1.48417 4.61733 0
M  V30 5505 H 521.853 -2.47217 3.89107 0
M  V30 5506 H 525.397 -0.828211 6.92666 0
M  V30 5507 H 521.294 -1.82109 6.19279 0
M  V30 5508 H 522.062 -1.04485 8.11804 0
M  V30 5509 N 524.725 -1.39134 -0.740242 0
M  V30 5510 C 525.953 -1.39334 -1.5295 0
M  V30 5511 C 526.368 0.0135008 -1.88795 0
M  V30 5512 O 525.725 0.983524 -1.5373 0
M  V30 5513 C 525.776 -2.2614 -2.82034 0
M  V30 5514 O 525.497 -3.61345 -2.47712 0
M  V30 5515 C 526.998 -2.34666 -3.76094 0
M  V30 5516 H 524.218 -0.476103 -0.472828 0
M  V30 5517 H 526.762 -1.82883 -0.9151 0
M  V30 5518 H 524.917 -1.86018 -3.39818 0
M  V30 5519 H 525.331 -4.07194 -3.30595 0
M  V30 5520 H 526.805 -2.99663 -4.63579 0
M  V30 5521 H 527.282 -1.36426 -4.17474 0
M  V30 5522 H 527.888 -2.75236 -3.2423 0
M  V30 5523 N 526.204 0.969867 -1.24223 0
M  V30 5524 C 527.167 2.04564 -1.03373 0
M  V30 5525 C 528.167 1.60798 0.00819206 0
M  V30 5526 O 529.357 1.72641 -0.232567 0
M  V30 5527 C 526.489 3.36163 -0.566343 0
M  V30 5528 H 527.682 2.24494 -1.98853 0
M  V30 5529 H 525.235 1.1448 -1.06415 0
M  V30 5530 H 525.97 3.21925 0.391751 0
M  V30 5531 H 525.755 3.69273 -1.31834 0
M  V30 5532 H 527.245 4.1526 -0.441435 0
M  V30 5533 N 527.682 1.05563 1.17022 0
M  V30 5534 C 529.093 0.793475 1.69 0
M  V30 5535 C 529.444 -0.683882 1.83895 0
M  V30 5536 O 528.569 -1.53116 1.5292 0
M  V30 5537 C 529.164 1.43376 3.06967 0
M  V30 5538 C 527.723 1.21956 3.56095 0
M  V30 5539 C 526.87 1.51494 2.3226 0
M  V30 5540 H 529.821 1.22008 1.01487 0
M  V30 5541 H 529.842 0.845068 3.70997 0
M  V30 5542 H 529.354 2.50899 2.96093 0
M  V30 5543 H 527.455 0.163749 3.7224 0
M  V30 5544 H 527.568 1.92713 4.38633 0
M  V30 5545 H 525.932 0.935175 2.3691 0
M  V30 5546 H 526.715 2.60159 2.23992 0
M  V30 5547 N 529.16 -1.33526 0.837174 0
M  V30 5548 C 530.388 -2.02047 0.445494 0
M  V30 5549 C 530.803 -1.62995 -0.952788 0
M  V30 5550 O 530.16 -0.842447 -1.61892 0
M  V30 5551 C 530.211 -3.57221 0.554577 0
M  V30 5552 O 529.932 -3.94863 1.89776 0
M  V30 5553 C 531.433 -4.43012 0.159634 0
M  V30 5554 H 528.653 -0.647221 0.177048 0
M  V30 5555 H 531.197 -1.70492 1.12928 0
M  V30 5556 H 529.352 -3.87315 -0.0812781 0
M  V30 5557 H 529.766 -4.89569 1.88208 0
M  V30 5558 H 531.24 -5.51253 0.28701 0
M  V30 5559 H 531.717 -4.29916 -0.898289 0
M  V30 5560 H 532.323 -4.18274 0.769855 0
M  V30 5561 N 530.638 -0.59345 -1.46 0
M  V30 5562 C 531.601 0.123538 -2.28867 0
M  V30 5563 C 532.601 0.808628 -1.38989 0
M  V30 5564 O 533.791 0.658945 -1.61256 0
M  V30 5565 C 530.923 1.1847 -3.19653 0
M  V30 5566 H 532.116 -0.604843 -2.93737 0
M  V30 5567 H 529.669 -0.351875 -1.52288 0
M  V30 5568 H 530.404 1.94431 -2.59552 0
M  V30 5569 H 530.189 0.69783 -3.8584 0
M  V30 5570 H 531.679 1.68726 -3.81997 0
M  V30 5571 N 532.116 1.54067 -0.331816 0
M  V30 5572 C 533.365 1.99895 0.269209 0
M  V30 5573 C 533.678 1.22371 1.52593 0
M  V30 5574 O 534.884 1.58618 2.20347 0
M  V30 5575 C 533.34 3.55972 0.530244 0
M  V30 5576 C 532.948 4.4234 -0.709901 0
M  V30 5577 C 534.692 4.10247 1.09077 0
M  V30 5578 C 532.599 5.89905 -0.420312 0
M  V30 5579 H 531.529 0.746741 0.104371 0
M  V30 5580 H 534.18 1.78014 -0.445324 0
M  V30 5581 H 532.562 3.73873 1.30518 0
M  V30 5582 H 533.736 4.36215 -1.48504 0
M  V30 5583 H 532.051 3.98997 -1.19123 0
M  V30 5584 H 534.648 5.18095 1.32219 0
M  V30 5585 H 534.991 3.62739 2.0427 0
M  V30 5586 H 535.524 3.96011 0.376824 0
M  V30 5587 H 532.263 6.41623 -1.34164 0
M  V30 5588 H 531.783 5.98962 0.316962 0
M  V30 5589 H 533.462 6.46991 -0.0331956 0
M  V30 5590 N 533.594 0.0601682 1.57485 0
M  V30 5591 C 535.01 -0.296422 1.56823 0
M  V30 5592 C 535.21 -1.70831 1.0686 0
M  V30 5593 O 534.266 -2.4174 0.729245 0
M  V30 5594 C 535.579 -0.116681 3.00474 0
M  V30 5595 C 537.127 -0.187103 3.1244 0
M  V30 5596 C 537.602 -0.035783 4.57986 0
M  V30 5597 N 539.093 -0.0917676 4.63109 0
M  V30 5598 C 539.828 0.00107251 5.734 0
M  V30 5599 N 539.324 0.146773 6.92645 0
M  V30 5600 N 541.117 -0.0551577 5.62073 0
M  V30 5601 H 533.268 0.983055 1.88281 0
M  V30 5602 H 535.531 0.382386 0.867459 0
M  V30 5603 H 535.237 0.85712 3.41096 0
M  V30 5604 H 535.111 -0.873929 3.66936 0
M  V30 5605 H 537.498 -1.15138 2.71712 0
M  V30 5606 H 537.579 0.601052 2.48638 0
M  V30 5607 H 537.223 0.925212 4.99402 0
M  V30 5608 H 537.153 -0.843196 5.19806 0
M  V30 5609 H 539.644 -0.203261 3.77353 0
M  V30 5610 H 539.957 0.210076 7.72514 0
M  V30 5611 H 538.302 0.181979 6.94762 0
M  V30 5612 H 541.493 -0.167605 4.678 0
M  V30 5613 H 541.666 0.020652 6.47997 0
M  V30 5614 N 535.072 -1.5615 -0.213296 0
M  V30 5615 C 536.035 -1.92249 -1.24792 0
M  V30 5616 C 537.035 -0.801828 -1.39382 0
M  V30 5617 O 538.225 -1.06948 -1.37506 0
M  V30 5618 C 535.357 -2.18056 -2.62039 0
M  V30 5619 H 536.55 -2.84793 -0.939845 0
M  V30 5620 H 534.103 -1.49559 -0.454062 0
M  V30 5621 H 534.838 -1.2809 -2.97932 0
M  V30 5622 H 534.623 -2.99703 -2.52825 0
M  V30 5623 H 536.113 -2.47051 -3.36683 0
M  V30 5624 N 536.55 0.480323 -1.50102 0
M  V30 5625 C 537.48 1.58769 -1.71215 0
M  V30 5626 C 538.461 1.60583 -0.560997 0
M  V30 5627 O 539.646 1.76996 -0.799127 0
M  V30 5628 C 536.776 2.97148 -1.79778 0
M  V30 5629 C 535.73 3.10201 -2.94888 0
M  V30 5630 C 535.056 4.50137 -2.88584 0
M  V30 5631 C 536.356 2.88283 -4.35534 0
M  V30 5632 H 538.05 1.41354 -2.6393 0
M  V30 5633 H 535.596 0.678591 -1.27008 0
M  V30 5634 H 537.549 3.74536 -1.93133 0
M  V30 5635 H 536.273 3.15699 -0.836772 0
M  V30 5636 H 534.932 2.35244 -2.81169 0
M  V30 5637 H 534.58 4.65593 -1.90349 0
M  V30 5638 H 534.28 4.59808 -3.65856 0
M  V30 5639 H 535.804 5.29558 -3.03976 0
M  V30 5640 H 537.218 3.55427 -4.49827 0
M  V30 5641 H 535.615 3.09408 -5.14186 0
M  V30 5642 H 536.685 1.84219 -4.48544 0
M  V30 5643 N 538.028 1.39524 0.732853 0
M  V30 5644 C 538.961 1.32806 1.85574 0
M  V30 5645 C 539.939 0.201354 1.61348 0
M  V30 5646 O 541.123 0.38216 1.84585 0
M  V30 5647 C 538.25 1.06271 3.21596 0
M  V30 5648 C 537.296 2.21161 3.64678 0
M  V30 5649 S 538.129 3.83454 3.73796 0
M  V30 5650 C 539.285 3.59149 5.12604 0
M  V30 5651 H 539.518 2.27838 1.9099 0
M  V30 5652 H 537.051 1.25605 0.897927 0
M  V30 5653 H 539.009 0.916461 4.00139 0
M  V30 5654 H 537.67 0.129223 3.13834 0
M  V30 5655 H 536.863 1.98193 4.63396 0
M  V30 5656 H 536.465 2.32 2.93346 0
M  V30 5657 H 538.757 3.16547 5.99003 0
M  V30 5658 H 539.7 4.57335 5.40602 0
M  V30 5659 H 540.108 2.93203 4.82382 0
M  V30 5660 N 539.506 -0.963266 1.24736 0
M  V30 5661 C 540.469 -2.04013 1.04457 0
M  V30 5662 C 541.469 -1.608 0.000335555 0
M  V30 5663 O 542.659 -1.72515 0.241719 0
M  V30 5664 C 539.791 -3.35858 0.584162 0
M  V30 5665 H 540.984 -2.23436 2.00041 0
M  V30 5666 H 538.537 -1.13914 1.07021 0
M  V30 5667 H 539.272 -3.22128 -0.374673 0
M  V30 5668 H 539.057 -3.68568 1.3379 0
M  V30 5669 H 540.547 -4.1502 0.463451 0
M  V30 5670 N 540.985 -1.06182 -1.16461 0
M  V30 5671 C 541.895 -0.682671 -2.24448 0
M  V30 5672 C 542.911 0.30078 -1.71381 0
M  V30 5673 O 544.087 0.150376 -2.00838 0
M  V30 5674 C 541.152 -0.0737202 -3.46622 0
M  V30 5675 C 540.213 -1.10889 -4.14731 0
M  V30 5676 C 539.446 -0.528908 -5.31073 0
M  V30 5677 O 539.669 0.65868 -5.66584 0
M  V30 5678 O 538.603 -1.26805 -5.88391 0
M  V30 5679 H 542.429 -1.58291 -2.59187 0
M  V30 5680 H 540.014 -0.834013 -1.23954 0
M  V30 5681 H 541.896 0.264192 -4.20571 0
M  V30 5682 H 540.571 0.800015 -3.13658 0
M  V30 5683 H 539.478 -1.49896 -3.42756 0
M  V30 5684 H 540.811 -1.95412 -4.51747 0
M  V30 5685 N 542.463 1.3308 -0.844243 0
M  V30 5686 C 543.711 1.97215 -0.441676 0
M  V30 5687 C 544.032 1.67185 1.0037 0
M  V30 5688 O 543.302 0.973588 1.69994 0
M  V30 5689 H 541.882 0.72959 -0.160335 0
M  V30 5690 H 544.544 1.62348 -1.07838 0
M  V30 5691 H 543.64 3.06698 -0.57815 0
M  V30 5692 N 543.941 0.601185 1.45683 0
M  V30 5693 C 545.218 0.0261659 1.95582 0
M  V30 5694 C 545.598 -1.4399 1.5437 0
M  V30 5695 O 544.946 -2.13919 0.80318 0
M  V30 5696 C 545.156 0.217557 3.48321 0
M  V30 5697 C 546.504 0.0950076 4.24494 0
M  V30 5698 O 547.528 0.147345 3.55895 0
M  V30 5699 O 546.387 -0.025261 5.46494 0
M  V30 5700 H 543.481 -0.0393688 0.826062 0
M  V30 5701 H 546.027 0.670798 1.55879 0
M  V30 5702 H 544.799 1.23601 3.71266 0
M  V30 5703 H 544.422 -0.46264 3.94899 0
M  V30 5704 N 545.419 -1.53889 0.339982 0
M  V30 5705 C 546.366 -2.24902 -0.518452 0
M  V30 5706 C 547.336 -1.24593 -1.09844 0
M  V30 5707 O 548.521 -1.53317 -1.13572 0
M  V30 5708 C 545.661 -3.02262 -1.66529 0
M  V30 5709 C 544.774 -4.17418 -1.11295 0
M  V30 5710 C 543.909 -4.82273 -2.2268 0
M  V30 5711 C 542.948 -5.89503 -1.6478 0
M  V30 5712 N 542.085 -6.48153 -2.69893 0
M  V30 5713 H 546.925 -2.97853 0.0936579 0
M  V30 5714 H 544.462 -1.46986 0.0579924 0
M  V30 5715 H 546.42 -3.45371 -2.3404 0
M  V30 5716 H 545.05 -2.31614 -2.24844 0
M  V30 5717 H 544.102 -3.78976 -0.328886 0
M  V30 5718 H 545.414 -4.94554 -0.649414 0
M  V30 5719 H 544.568 -5.28435 -2.98063 0
M  V30 5720 H 543.307 -4.04552 -2.72376 0
M  V30 5721 H 542.312 -5.42728 -0.879004 0
M  V30 5722 H 543.537 -6.6913 -1.1594 0
M  V30 5723 H 541.483 -5.73298 -3.1885 0
M  V30 5724 H 541.4 -7.20752 -2.28151 0
M  V30 5725 H 542.668 -6.98968 -3.45056 0
M  V30 5726 N 546.897 -0.0685191 -1.57451 0
M  V30 5727 C 547.86 0.885173 -2.11417 0
M  V30 5728 C 548.86 1.22853 -1.03748 0
M  V30 5729 O 550.05 1.16235 -1.2975 0
M  V30 5730 C 547.182 2.18964 -2.61281 0
M  V30 5731 H 548.375 0.417034 -2.96986 0
M  V30 5732 H 545.928 0.18014 -1.55258 0
M  V30 5733 H 546.663 2.70321 -1.79156 0
M  V30 5734 H 546.448 1.9534 -3.39977 0
M  V30 5735 H 547.938 2.87242 -3.0312 0
M  V30 5736 N 548.375 1.56261 0.205012 0
M  V30 5737 C 549.624 1.79236 0.925058 0
M  V30 5738 C 549.937 0.640011 1.84833 0
M  V30 5739 O 551.143 0.753809 2.60826 0
M  V30 5740 C 549.599 3.17475 1.69522 0
M  V30 5741 C 549.207 4.40482 0.817269 0
M  V30 5742 C 550.951 3.49766 2.4055 0
M  V30 5743 C 548.858 5.69744 1.58573 0
M  V30 5744 H 547.788 0.668287 0.349153 0
M  V30 5745 H 550.439 1.82629 0.178544 0
M  V30 5746 H 548.821 3.08304 2.48526 0
M  V30 5747 H 549.995 4.60752 0.0665988 0
M  V30 5748 H 548.31 4.15827 0.218316 0
M  V30 5749 H 550.907 4.43573 2.98575 0
M  V30 5750 H 551.25 2.73041 3.14252 0
M  V30 5751 H 551.783 3.60341 1.68522 0
M  V30 5752 H 548.522 6.49407 0.891679 0
M  V30 5753 H 548.042 5.53509 2.31059 0
M  V30 5754 H 549.721 6.1051 2.14212 0
M  V30 5755 N 549.853 -0.472356 1.50355 0
M  V30 5756 C 550.763 -1.59637 1.7191 0
M  V30 5757 C 551.779 -1.63247 0.602195 0
M  V30 5758 O 552.955 -1.81139 0.880369 0
M  V30 5759 C 550.02 -2.9586 1.80742 0
M  V30 5760 C 549.081 -3.02649 3.04471 0
M  V30 5761 C 548.314 -4.32374 3.12872 0
M  V30 5762 O 548.537 -5.22807 2.28099 0
M  V30 5763 O 547.471 -4.44728 4.05587 0
M  V30 5764 H 551.297 -1.44373 2.67189 0
M  V30 5765 H 548.882 -0.651717 1.34436 0
M  V30 5766 H 550.764 -3.7677 1.88739 0
M  V30 5767 H 549.439 -3.11325 0.88647 0
M  V30 5768 H 548.346 -2.20821 3.01975 0
M  V30 5769 H 549.679 -2.92119 3.9614 0
M  V30 5770 N 551.331 -1.39911 -0.725443 0
M  V30 5771 C 552.579 -1.37382 -1.48224 0
M  V30 5772 C 552.9 0.0264107 -1.94982 0
M  V30 5773 O 552.17 0.979408 -1.6966 0
M  V30 5774 H 550.75 -0.505596 -0.549892 0
M  V30 5775 H 553.412 -1.7487 -0.860608 0
M  V30 5776 H 552.508 -2.04254 -2.3598 0
M  V30 5777 N 552.809 0.956637 -1.25245 0
M  V30 5778 C 554.037 1.73571 -1.12608 0
M  V30 5779 C 554.452 1.86063 0.320324 0
M  V30 5780 O 553.809 1.35691 1.22042 0
M  V30 5781 C 553.86 3.15053 -1.77268 0
M  V30 5782 O 553.581 3.03174 -3.16255 0
M  V30 5783 C 555.082 4.09248 -1.70386 0
M  V30 5784 H 552.302 0.543955 -0.392879 0
M  V30 5785 H 554.846 1.20031 -1.65568 0
M  V30 5786 H 553.001 3.65543 -1.28284 0
M  V30 5787 H 553.415 3.9241 -3.48015 0
M  V30 5788 H 554.889 5.06138 -2.20291 0
M  V30 5789 H 555.366 4.34102 -0.667239 0
M  V30 5790 H 555.972 3.64672 -2.18849 0
M  V30 5791 N 554.287 1.06798 1.15896 0
M  V30 5792 C 555.564 0.701057 1.82605 0
M  V30 5793 C 555.944 -0.817066 1.94646 0
M  V30 5794 O 555.292 -1.72933 1.49353 0
M  V30 5795 C 555.502 1.40895 3.19296 0
M  V30 5796 C 556.85 1.55744 3.95005 0
M  V30 5797 O 557.874 1.36927 3.28831 0
M  V30 5798 O 556.733 1.86658 5.13635 0
M  V30 5799 H 553.827 0.248791 0.78869 0
M  V30 5800 H 556.373 1.16857 1.23055 0
M  V30 5801 H 555.145 2.4439 3.05596 0
M  V30 5802 H 554.768 0.931847 3.86526 0
M  V30 5803 N 555.766 -1.3263 0.851289 0
M  V30 5804 C 557.182 -1.50162 0.5407 0
M  V30 5805 C 557.382 -1.78788 -0.929369 0
M  V30 5806 O 556.438 -1.85545 -1.71258 0
M  V30 5807 C 557.751 -2.64803 1.42478 0
M  V30 5808 C 559.299 -2.78688 1.42485 0
M  V30 5809 C 559.774 -3.96405 2.29407 0
M  V30 5810 N 561.265 -4.0366 2.27184 0
M  V30 5811 C 562 -4.93971 2.9117 0
M  V30 5812 N 561.496 -5.89313 3.64256 0
M  V30 5813 N 563.289 -4.87066 2.80576 0
M  V30 5814 H 555.44 -1.12315 1.80275 0
M  V30 5815 H 557.703 -0.553266 0.769806 0
M  V30 5816 H 557.409 -2.50368 2.46999 0
M  V30 5817 H 557.283 -3.60506 1.10974 0
M  V30 5818 H 559.67 -2.92547 0.387304 0
M  V30 5819 H 559.751 -1.83708 1.78002 0
M  V30 5820 H 559.395 -3.83304 3.33228 0
M  V30 5821 H 559.325 -4.90654 1.91224 0
M  V30 5822 H 561.816 -3.35435 1.74045 0
M  V30 5823 H 562.129 -6.54913 4.10255 0
M  V30 5824 H 560.474 -5.8935 3.68364 0
M  V30 5825 H 563.665 -4.11552 2.23031 0
M  V30 5826 H 563.838 -5.57248 3.30725 0
M  V30 5827 N 557.244 -0.608902 -1.45362 0
M  V30 5828 C 558.469 -0.10921 -2.07112 0
M  V30 5829 C 558.894 1.19779 -1.45033 0
M  V30 5830 O 558.252 1.72961 -0.543527 0
M  V30 5831 C 558.3 0.0155745 -3.60597 0
M  V30 5832 O 557.404 1.06546 -3.98399 0
M  V30 5833 H 556.745 -0.0746619 -0.659789 0
M  V30 5834 H 559.275 -0.839283 -1.86594 0
M  V30 5835 H 559.285 0.213364 -4.07442 0
M  V30 5836 H 557.96 -0.938765 -4.05167 0
M  V30 5837 H 556.537 0.844024 -3.63223 0
M  V30 5838 N 558.722 1.53707 -0.348139 0
M  V30 5839 C 559.947 2.05877 0.250883 0
M  V30 5840 C 560.372 1.22115 1.43072 0
M  V30 5841 O 559.73 0.235986 1.79758 0
M  V30 5842 C 559.778 3.54886 0.639416 0
M  V30 5843 O 558.882 3.73948 1.73888 0
M  V30 5844 H 558.223 0.662754 0.040653 0
M  V30 5845 H 560.753 1.98303 -0.503685 0
M  V30 5846 H 560.763 3.97601 0.915295 0
M  V30 5847 H 559.438 4.153 -0.223386 0
M  V30 5848 H 558.015 3.43134 1.45991 0
M  V30 5849 N 560.2 0.0768682 1.57412 0
M  V30 5850 C 561.13 -0.886026 2.16037 0
M  V30 5851 C 562.111 -1.30691 1.08876 0
M  V30 5852 O 563.296 -1.37705 1.36934 0
M  V30 5853 C 560.426 -2.1518 2.72608 0
M  V30 5854 C 559.38 -1.87015 3.8498 0
M  V30 5855 C 558.706 -3.20266 4.28175 0
M  V30 5856 C 560.006 -1.17143 5.08994 0
M  V30 5857 H 561.7 -0.397642 2.96748 0
M  V30 5858 H 559.246 -0.189823 1.42743 0
M  V30 5859 H 561.199 -2.82962 3.12266 0
M  V30 5860 H 559.923 -2.66269 1.89125 0
M  V30 5861 H 558.582 -1.21636 3.45833 0
M  V30 5862 H 558.23 -3.69207 3.41607 0
M  V30 5863 H 557.93 -3.0221 5.03927 0
M  V30 5864 H 559.454 -3.89237 4.70454 0
M  V30 5865 H 560.868 -1.75003 5.45937 0
M  V30 5866 H 559.265 -1.09328 5.90057 0
M  V30 5867 H 560.335 -0.151295 4.84664 0
M  V30 5868 N 561.678 -1.56367 -0.196722 0
M  V30 5869 C 563.094 -1.49916 -0.54749 0
M  V30 5870 C 563.294 -0.77659 -1.85934 0
M  V30 5871 O 562.35 -0.32644 -2.50381 0
M  V30 5872 C 563.663 -2.94577 -0.603734 0
M  V30 5873 C 565.211 -3.05239 -0.692677 0
M  V30 5874 C 565.686 -4.51308 -0.780046 0
M  V30 5875 N 567.177 -4.55453 -0.843616 0
M  V30 5876 C 567.912 -5.65786 -0.931358 0
M  V30 5877 N 567.408 -6.85812 -0.981503 0
M  V30 5878 N 569.201 -5.53695 -0.968421 0
M  V30 5879 H 561.352 -2.01761 0.663803 0
M  V30 5880 H 563.615 -0.918094 0.236238 0
M  V30 5881 H 563.321 -3.50494 0.29105 0
M  V30 5882 H 563.195 -3.47841 -1.45898 0
M  V30 5883 H 565.582 -2.49372 -1.57789 0
M  V30 5884 H 565.663 -2.55103 0.188736 0
M  V30 5885 H 565.307 -5.078 0.100811 0
M  V30 5886 H 565.237 -4.99176 -1.67724 0
M  V30 5887 H 567.728 -3.69025 -0.814176 0
M  V30 5888 H 568.041 -7.65648 -1.04892 0
M  V30 5889 H 566.386 -6.88474 -0.950208 0
M  V30 5890 H 569.577 -4.58848 -0.926072 0
M  V30 5891 H 569.75 -6.39708 -1.03334 0
M  V30 5892 N 563.156 0.464375 -1.50603 0
M  V30 5893 C 564.405 1.21277 -1.61167 0
M  V30 5894 C 564.718 1.92953 -0.320704 0
M  V30 5895 O 565.924 2.69778 -0.30534 0
M  V30 5896 C 564.38 2.20403 -2.84518 0
M  V30 5897 C 563.988 1.54499 -4.20516 0
M  V30 5898 C 565.732 2.95843 -3.0443 0
M  V30 5899 C 563.639 2.51951 -5.35047 0
M  V30 5900 H 562.569 0.456367 -0.600204 0
M  V30 5901 H 565.22 0.48254 -1.77042 0
M  V30 5902 H 563.602 2.96746 -2.62217 0
M  V30 5903 H 564.776 0.83899 -4.53098 0
M  V30 5904 H 563.091 0.913152 -4.06264 0
M  V30 5905 H 565.688 3.6879 -3.87167 0
M  V30 5906 H 566.031 3.55622 -2.16423 0
M  V30 5907 H 566.564 2.26611 -3.26944 0
M  V30 5908 H 563.303 1.96901 -6.25228 0
M  V30 5909 H 562.823 3.20683 -5.06875 0
M  V30 5910 H 564.502 3.13643 -5.65895 0
M  V30 5911 N 564.634 1.40294 0.718013 0
M  V30 5912 C 565.564 1.43118 1.84498 0
M  V30 5913 C 566.545 0.292403 1.67568 0
M  V30 5914 O 567.73 0.500675 1.87635 0
M  V30 5915 C 564.86 1.29065 3.22427 0
M  V30 5916 C 563.814 2.40521 3.54025 0
M  V30 5917 C 563.14 2.11546 4.91073 0
M  V30 5918 C 564.44 3.82859 3.55269 0
M  V30 5919 H 566.134 2.37432 1.82391 0
M  V30 5920 H 563.68 1.14283 0.87609 0
M  V30 5921 H 565.633 1.29658 4.00957 0
M  V30 5922 H 564.357 0.312271 3.25104 0
M  V30 5923 H 563.016 2.39173 2.77834 0
M  V30 5924 H 562.664 1.12104 4.90348 0
M  V30 5925 H 562.364 2.86216 5.1318 0
M  V30 5926 H 563.888 2.13817 5.71939 0
M  V30 5927 H 565.302 3.86044 4.23843 0
M  V30 5928 H 563.699 4.57029 3.88902 0
M  V30 5929 H 564.769 4.12617 2.54706 0
M  V30 5930 N 566.112 -0.949982 1.2575 0
M  V30 5931 C 567.36 -1.6918 1.10555 0
M  V30 5932 C 567.681 -1.91773 -0.353298 0
M  V30 5933 O 566.951 -1.50814 -1.25027 0
M  V30 5934 H 565.531 -0.626952 0.406129 0
M  V30 5935 H 568.193 -1.1419 1.57945 0
M  V30 5936 H 567.289 -2.66915 1.61749 0
M  V30 5937 N 567.59 -1.07411 -1.15328 0
M  V30 5938 C 568.815 -0.818856 -1.90551 0
M  V30 5939 C 569.24 0.622194 -1.77512 0
M  V30 5940 O 568.598 1.43484 -1.10824 0
M  V30 5941 C 568.646 -1.23267 -3.38877 0
M  V30 5942 O 567.75 -0.378345 -4.10661 0
M  V30 5943 H 567.091 -0.29827 -0.593238 0
M  V30 5944 H 569.621 -1.43289 -1.46046 0
M  V30 5945 H 569.631 -1.20912 -3.89672 0
M  V30 5946 H 568.306 -2.28226 -3.47686 0
M  V30 5947 H 566.883 -0.464437 -3.69996 0
M  V30 5948 N 569.068 1.32177 -0.85831 0
M  V30 5949 C 570.314 1.97417 -0.46417 0
M  V30 5950 C 570.647 1.67746 0.978514 0
M  V30 5951 O 569.922 0.967654 1.68721 0
M  V30 5952 C 570.205 3.53069 -0.708094 0
M  V30 5953 C 570.058 3.92357 -2.19946 0
M  V30 5954 C 571.377 4.39783 -0.166881 0
M  V30 5955 H 568.496 0.717097 -0.17012 0
M  V30 5956 H 571.138 1.56499 -1.07741 0
M  V30 5957 H 569.288 3.88054 -0.186128 0
M  V30 5958 H 570.96 3.67533 -2.78779 0
M  V30 5959 H 569.203 3.41384 -2.67656 0
M  V30 5960 H 569.874 5.00841 -2.32082 0
M  V30 5961 H 572.35 4.11556 -0.613285 0
M  V30 5962 H 571.226 5.47671 -0.367093 0
M  V30 5963 H 571.487 4.32196 0.930559 0
M  V30 5964 N 570.547 0.616602 1.45037 0
M  V30 5965 C 571.795 0.115103 2.01772 0
M  V30 5966 C 572.116 -1.2622 1.48639 0
M  V30 5967 O 571.386 -1.83563 0.684199 0
M  V30 5968 H 569.966 0.0395607 0.745952 0
M  V30 5969 H 572.628 0.800032 1.77723 0
M  V30 5970 H 571.724 0.0717274 3.12018 0
M  V30 5971 N 572.025 -1.5352 0.356285 0
M  V30 5972 C 572.935 -2.29151 -0.502712 0
M  V30 5973 C 573.951 -1.34753 -1.1008 0
M  V30 5974 O 575.127 -1.67803 -1.11374 0
M  V30 5975 C 572.192 -3.05911 -1.63154 0
M  V30 5976 C 571.253 -4.15958 -1.06194 0
M  V30 5977 C 570.486 -4.8905 -2.13696 0
M  V30 5978 O 570.709 -4.61919 -3.34645 0
M  V30 5979 O 569.643 -5.75202 -1.77275 0
M  V30 5980 H 573.469 -3.03492 0.112466 0
M  V30 5981 H 571.054 -1.4891 0.120942 0
M  V30 5982 H 572.936 -3.53874 -2.28804 0
M  V30 5983 H 571.611 -2.34415 -2.23229 0
M  V30 5984 H 570.518 -3.7227 -0.369603 0
M  V30 5985 H 571.851 -4.89593 -0.505872 0
M  V30 5986 N 573.503 -0.0852151 -1.57369 0
M  V30 5987 C 574.914 0.445428 -1.81309 0
M  V30 5988 C 575.265 1.68795 -1.00013 0
M  V30 5989 O 574.39 2.15211 -0.226573 0
M  V30 5990 C 574.985 0.814887 -3.28854 0
M  V30 5991 C 573.544 1.29032 -3.53592 0
M  V30 5992 C 572.691 0.282089 -2.75861 0
M  V30 5993 H 575.642 -0.310771 -1.55627 0
M  V30 5994 H 575.663 1.67524 -3.41637 0
M  V30 5995 H 575.175 -0.0896309 -3.87996 0
M  V30 5996 H 573.276 2.21289 -2.9977 0
M  V30 5997 H 573.389 1.25898 -4.62262 0
M  V30 5998 H 571.753 0.762182 -2.43029 0
M  V30 5999 H 572.536 -0.614936 -3.37748 0
M  V30 6000 N 574.981 1.5647 0.188427 0
M  V30 6001 C 576.23 1.80207 0.905995 0
M  V30 6002 C 576.543 0.659579 1.84144 0
M  V30 6003 O 577.749 0.781431 2.60011 0
M  V30 6004 C 576.205 3.19255 1.66145 0
M  V30 6005 C 575.813 4.41324 0.770504 0
M  V30 6006 C 577.557 3.52298 2.36826 0
M  V30 6007 C 575.464 5.71394 1.52521 0
M  V30 6008 H 574.394 0.671953 0.342045 0
M  V30 6009 H 577.045 1.82808 0.159164 0
M  V30 6010 H 575.427 3.10922 2.45242 0
M  V30 6011 H 576.601 4.60797 0.0177261 0
M  V30 6012 H 574.916 4.16035 0.174199 0
M  V30 6013 H 577.513 4.46715 2.93854 0
M  V30 6014 H 577.856 2.76359 3.11338 0
M  V30 6015 H 578.389 3.62108 1.6469 0
M  V30 6016 H 575.128 6.50316 0.82275 0
M  V30 6017 H 574.648 5.55928 2.25175 0
M  V30 6018 H 576.327 6.12747 2.07725 0
M  V30 6019 N 576.459 -0.456382 1.50847 0
M  V30 6020 C 577.407 -1.57318 1.71329 0
M  V30 6021 C 578.401 -1.59187 0.579287 0
M  V30 6022 O 579.607 -1.6316 0.76018 0
M  V30 6023 H 575.982 -0.5223 0.541024 0
M  V30 6024 H 577.953 -1.3721 2.64983 0
M  V30 6025 C 576.702 -2.95142 1.83811 0
M  V30 6026 H 576.025 -2.94428 2.70467 0
M  V30 6027 H 577.465 -3.72702 2.02161 0
M  V30 6028 C 575.924 -3.31636 0.593224 0
M  V30 6029 O 576.454 -4.00852 -0.260898 0
M  V30 6030 N 574.66 -2.87205 0.442902 0
M  V30 6031 H 574.207 -2.31051 1.13901 0
M  V30 6032 H 574.165 -3.11986 -0.38884 0
M  V30 6033 N 577.937 -1.40673 -0.710563 0
M  V30 6034 C 579.348 -1.34975 -1.28991 0
M  V30 6035 C 579.699 -0.0256272 -1.96183 0
M  V30 6036 O 578.824 0.876339 -1.97862 0
M  V30 6037 C 579.419 -2.44467 -2.34567 0
M  V30 6038 C 577.978 -2.42213 -2.88114 0
M  V30 6039 C 577.125 -2.25085 -1.61963 0
M  V30 6040 H 580.076 -1.50406 -0.506343 0
M  V30 6041 H 580.097 -2.12663 -3.15523 0
M  V30 6042 H 579.609 -3.40825 -1.85634 0
M  V30 6043 H 577.71 -1.49568 -3.41263 0
M  V30 6044 H 577.823 -3.37983 -3.39565 0
M  V30 6045 H 576.187 -1.72691 -1.87216 0
M  V30 6046 H 576.97 -3.23449 -1.15047 0
M  V30 6047 N 579.415 0.9433 -1.26252 0
M  V30 6048 C 580.325 2.07532 -1.09397 0
M  V30 6049 C 581.341 1.73977 -0.0280449 0
M  V30 6050 O 582.517 2.00067 -0.231337 0
M  V30 6051 C 579.582 3.39002 -0.726523 0
M  V30 6052 C 578.643 3.86353 -1.87163 0
M  V30 6053 C 577.876 5.11549 -1.52162 0
M  V30 6054 O 578.099 5.68834 -0.422385 0
M  V30 6055 O 577.033 5.53889 -2.35565 0
M  V30 6056 H 580.859 2.24658 -2.04359 0
M  V30 6057 H 578.444 1.05988 -1.05295 0
M  V30 6058 H 580.326 4.18 -0.534236 0
M  V30 6059 H 579.001 3.2312 0.193721 0
M  V30 6060 H 577.908 3.0831 -2.11886 0
M  V30 6061 H 579.241 4.06752 -2.77152 0
M  V30 6062 N 580.893 1.08022 1.14757 0
M  V30 6063 C 581.856 0.71048 2.1791 0
M  V30 6064 C 582.856 -0.252731 1.58801 0
M  V30 6065 O 584.046 -0.0327915 1.74169 0
M  V30 6066 C 581.178 0.0483203 3.40866 0
M  V30 6067 H 582.371 1.62384 2.52134 0
M  V30 6068 H 579.924 0.877595 1.29337 0
M  V30 6069 H 580.659 -0.876959 3.12218 0
M  V30 6070 H 580.444 0.741189 3.85031 0
M  V30 6071 H 581.934 -0.195471 4.17142 0
M  V30 6072 N 582.371 -1.3172 0.865308 0
M  V30 6073 C 583.617 -1.97559 0.483944 0
M  V30 6074 C 583.972 -1.67181 -0.95227 0
M  V30 6075 O 583.265 -0.955392 -1.66081 0
M  V30 6076 C 583.459 -3.5102 0.672283 0
M  V30 6077 C 583.288 -3.96312 2.12525 0
M  V30 6078 C 582.058 -4.22877 2.76591 0
M  V30 6079 C 584.256 -4.10596 3.09702 0
M  V30 6080 N 582.238 -4.5449 4.12689 0
M  V30 6081 C 583.609 -4.45867 4.30816 0
M  V30 6082 C 585.664 -3.92961 3.05755 0
M  V30 6083 C 584.367 -4.65344 5.48495 0
M  V30 6084 C 586.393 -4.13628 4.22688 0
M  V30 6085 C 585.755 -4.49227 5.42563 0
M  V30 6086 H 581.854 -0.74862 0.226035 0
M  V30 6087 H 584.438 -1.59336 1.11893 0
M  V30 6088 H 582.609 -3.88342 0.0669224 0
M  V30 6089 H 584.341 -4.03865 0.259765 0
M  V30 6090 H 581.096 -4.15343 2.27567 0
M  V30 6091 H 581.52 -4.74464 4.82921 0
M  V30 6092 H 586.162 -3.64531 2.14188 0
M  V30 6093 H 583.88 -4.92624 6.40584 0
M  V30 6094 H 587.466 -4.01474 4.21082 0
M  V30 6095 H 586.346 -4.64895 6.31539 0
M  V30 6096 N 583.85 -0.624285 -1.44708 0
M  V30 6097 C 584.76 0.0861083 -2.34442 0
M  V30 6098 C 585.776 0.84291 -1.5222 0
M  V30 6099 O 586.952 0.796723 -1.84971 0
M  V30 6100 C 584.017 1.05999 -3.30099 0
M  V30 6101 C 583.077 0.303316 -4.28227 0
M  V30 6102 C 582.311 1.23081 -5.19314 0
M  V30 6103 O 582.534 2.46929 -5.14181 0
M  V30 6104 O 581.468 0.71883 -5.97592 0
M  V30 6105 H 585.293 -0.651756 -2.96624 0
M  V30 6106 H 582.879 -0.384493 -1.44368 0
M  V30 6107 H 584.76 1.62046 -3.88997 0
M  V30 6108 H 583.436 1.77859 -2.70459 0
M  V30 6109 H 582.343 -0.300033 -3.72895 0
M  V30 6110 H 583.676 -0.375123 -4.90768 0
M  V30 6111 N 585.328 1.53329 -0.364422 0
M  V30 6112 C 586.574 2.02222 0.21855 0
M  V30 6113 C 586.929 1.24702 1.46517 0
M  V30 6114 O 586.222 0.331969 1.88702 0
M  V30 6115 C 586.416 3.52911 0.564661 0
M  V30 6116 C 586.245 4.45023 -0.646862 0
M  V30 6117 C 585.015 4.91838 -1.15858 0
M  V30 6118 C 587.213 4.91581 -1.51172 0
M  V30 6119 N 585.195 5.67955 -2.33025 0
M  V30 6120 C 586.566 5.66028 -2.53006 0
M  V30 6121 C 588.621 4.73656 -1.53473 0
M  V30 6122 C 587.324 6.24457 -3.56996 0
M  V30 6123 C 589.35 5.3295 -2.56356 0
M  V30 6124 C 588.712 6.07282 -3.56914 0
M  V30 6125 H 584.811 0.780832 0.0427199 0
M  V30 6126 H 587.395 1.87937 -0.508704 0
M  V30 6127 H 585.566 3.6736 1.26099 0
M  V30 6128 H 587.298 3.88528 1.13262 0
M  V30 6129 H 584.053 4.68043 -0.723393 0
M  V30 6130 H 584.477 6.10675 -2.92241 0
M  V30 6131 H 589.119 4.15714 -0.770842 0
M  V30 6132 H 586.837 6.81496 -4.34268 0
M  V30 6133 H 590.423 5.20976 -2.58989 0
M  V30 6134 H 589.303 6.52345 -4.35218 0
M  V30 6135 N 586.806 0.0935595 1.57322 0
M  V30 6136 C 588.036 -0.578095 1.98347 0
M  V30 6137 C 588.444 -1.62357 0.971441 0
M  V30 6138 O 587.787 -1.83639 -0.0473959 0
M  V30 6139 C 587.849 -1.28525 3.3574 0
M  V30 6140 C 587.513 -0.390714 4.55327 0
M  V30 6141 C 588.51 0.360522 5.18648 0
M  V30 6142 C 586.195 -0.309221 5.01347 0
M  V30 6143 C 588.189 1.18125 6.26359 0
M  V30 6144 C 585.876 0.515157 6.08925 0
M  V30 6145 C 586.874 1.25904 6.71295 0
M  V30 6146 O 586.562 2.06978 7.76798 0
M  V30 6147 H 586.294 -0.159767 0.656849 0
M  V30 6148 H 588.848 0.169058 2.04703 0
M  V30 6149 H 587.078 -2.07894 3.26063 0
M  V30 6150 H 588.767 -1.85128 3.61223 0
M  V30 6151 H 589.533 0.307285 4.84026 0
M  V30 6152 H 585.412 -0.877881 4.52564 0
M  V30 6153 H 588.956 1.76236 6.74971 0
M  V30 6154 H 584.853 0.56988 6.42979 0
M  V30 6155 H 585.621 1.99644 7.93779 0
M  V30 6156 N 588.284 -1.56567 -0.180126 0
M  V30 6157 C 589.53 -1.82658 -0.894859 0
M  V30 6158 C 589.885 -0.672826 -1.80252 0
M  V30 6159 O 589.178 0.331227 -1.88715 0
M  V30 6160 C 589.372 -3.1252 -1.73395 0
M  V30 6161 C 589.201 -4.40417 -0.909028 0
M  V30 6162 C 587.971 -5.01872 -0.587562 0
M  V30 6163 C 590.169 -5.13669 -0.254698 0
M  V30 6164 N 588.151 -6.13373 0.254428 0
M  V30 6165 C 589.522 -6.18373 0.448837 0
M  V30 6166 C 591.577 -4.97603 -0.171958 0
M  V30 6167 C 590.28 -7.08753 1.22725 0
M  V30 6168 C 592.306 -5.88418 0.593101 0
M  V30 6169 C 591.668 -6.92579 1.28503 0
M  V30 6170 H 587.767 -0.719493 -0.306356 0
M  V30 6171 H 590.351 -1.94021 -0.16247 0
M  V30 6172 H 588.522 -3.02365 -2.43783 0
M  V30 6173 H 590.254 -3.2664 -2.38931 0
M  V30 6174 H 587.009 -4.64666 -0.915557 0
M  V30 6175 H 587.433 -6.73721 0.665474 0
M  V30 6176 H 592.075 -4.17089 -0.692555 0
M  V30 6177 H 589.793 -7.88718 1.75923 0
M  V30 6178 H 593.379 -5.78059 0.658674 0
M  V30 6179 H 592.259 -7.61638 1.86754 0
M  V30 6180 N 589.762 0.448376 -1.51087 0
M  V30 6181 C 590.709 1.54341 -1.71603 0
M  V30 6182 C 591.679 1.56463 -0.557536 0
M  V30 6183 O 592.864 1.73644 -0.79072 0
M  V30 6184 C 590.004 2.92148 -1.83695 0
M  V30 6185 C 589.117 2.99639 -3.11192 0
M  V30 6186 C 588.252 4.285 -3.13944 0
M  V30 6187 C 587.291 4.29819 -4.35801 0
M  V30 6188 N 586.428 5.50186 -4.36164 0
M  V30 6189 H 591.268 1.36151 -2.65079 0
M  V30 6190 H 588.805 0.661585 -1.31383 0
M  V30 6191 H 590.763 3.72093 -1.88687 0
M  V30 6192 H 589.393 3.0892 -0.936374 0
M  V30 6193 H 588.445 2.12425 -3.15562 0
M  V30 6194 H 589.757 2.96474 -4.01129 0
M  V30 6195 H 588.911 5.16811 -3.17791 0
M  V30 6196 H 587.65 4.34307 -2.21876 0
M  V30 6197 H 586.655 3.39902 -4.32142 0
M  V30 6198 H 587.88 4.25685 -5.29121 0
M  V30 6199 H 585.826 5.56735 -3.46961 0
M  V30 6200 H 585.743 5.48856 -5.19897 0
M  V30 6201 H 587.011 6.40559 -4.44189 0
M  V30 6202 N 591.24 1.41047 0.703093 0
M  V30 6203 C 592.187 1.42302 1.81711 0
M  V30 6204 C 593.157 0.278336 1.63751 0
M  V30 6205 O 594.342 0.478266 1.84709 0
M  V30 6206 C 591.482 1.30362 3.19531 0
M  V30 6207 C 590.595 2.54638 3.48975 0
M  V30 6208 C 589.73 2.35047 4.76368 0
M  V30 6209 C 588.769 3.54837 4.98756 0
M  V30 6210 N 587.906 3.34363 6.1737 0
M  V30 6211 H 592.746 2.37516 1.79973 0
M  V30 6212 H 590.283 1.1795 0.878983 0
M  V30 6213 H 592.241 1.21443 3.99134 0
M  V30 6214 H 590.871 0.387602 3.20464 0
M  V30 6215 H 589.923 2.74037 2.63833 0
M  V30 6216 H 591.235 3.43766 3.61423 0
M  V30 6217 H 590.389 2.23552 5.64012 0
M  V30 6218 H 589.128 1.43363 4.66153 0
M  V30 6219 H 588.133 3.66795 4.09563 0
M  V30 6220 H 589.358 4.47464 5.10835 0
M  V30 6221 H 587.304 2.45373 6.08382 0
M  V30 6222 H 587.221 4.17063 6.30551 0
M  V30 6223 H 588.489 3.26626 7.07768 0
M  V30 6224 N 592.718 -0.936591 1.26751 0
M  V30 6225 C 593.967 -1.67778 1.11953 0
M  V30 6226 C 594.28 -1.92694 -0.33589 0
M  V30 6227 O 595.486 -2.64682 -0.604618 0
M  V30 6228 C 593.942 -3.02138 1.95551 0
M  V30 6229 C 593.55 -2.84953 3.45696 0
M  V30 6230 C 595.294 -3.79917 1.89377 0
M  V30 6231 C 593.201 -4.14814 4.21525 0
M  V30 6232 H 592.131 -0.629275 0.415366 0
M  V30 6233 H 594.782 -1.04122 1.51099 0
M  V30 6234 H 593.164 -3.668 1.49243 0
M  V30 6235 H 594.338 -2.29112 3.99805 0
M  V30 6236 H 592.653 -2.20612 3.53156 0
M  V30 6237 H 595.25 -4.76134 2.43312 0
M  V30 6238 H 595.593 -4.07204 0.865464 0
M  V30 6239 H 596.126 -3.22037 2.33532 0
M  V30 6240 H 592.865 -3.92709 5.24843 0
M  V30 6241 H 592.385 -4.70352 3.72195 0
M  V30 6242 H 594.064 -4.83239 4.3022 0
M  V30 6243 N 594.196 -1.08629 -1.14182 0
M  V30 6244 C 595.444 -0.815731 -1.84906 0
M  V30 6245 C 595.765 0.660441 -1.83475 0
M  V30 6246 O 595.035 1.47888 -1.28476 0
M  V30 6247 H 593.615 -0.298773 -0.684648 0
M  V30 6248 H 596.277 -1.37274 -1.38354 0
M  V30 6249 H 595.373 -1.16193 -2.89665 0
M  V30 6250 N 595.674 1.31259 -0.872281 0
M  V30 6251 C 596.621 2.28459 -0.327857 0
M  V30 6252 C 597.591 1.55831 0.574957 0
M  V30 6253 O 598.776 1.83965 0.506101 0
M  V30 6254 C 595.916 3.41985 0.462644 0
M  V30 6255 C 595.029 4.29458 -0.467949 0
M  V30 6256 C 594.164 5.30131 0.336903 0
M  V30 6257 C 593.203 6.0925 -0.58997 0
M  V30 6258 N 592.34 7.01872 0.178775 0
M  V30 6259 H 597.18 2.74414 -1.16193 0
M  V30 6260 H 594.717 1.34994 -0.584376 0
M  V30 6261 H 596.675 4.06547 0.936759 0
M  V30 6262 H 595.305 2.97134 1.2614 0
M  V30 6263 H 594.357 3.65318 -1.06052 0
M  V30 6264 H 595.669 4.84677 -1.17856 0
M  V30 6265 H 594.823 6.0038 0.873427 0
M  V30 6266 H 593.562 4.75573 1.08079 0
M  V30 6267 H 592.567 5.37889 -1.13823 0
M  V30 6268 H 593.792 6.65894 -1.33275 0
M  V30 6269 H 591.738 6.49721 0.905435 0
M  V30 6270 H 591.655 7.54522 -0.472452 0
M  V30 6271 H 592.923 7.76382 0.696454 0
M  V30 6272 N 597.152 0.631951 1.44375 0
M  V30 6273 C 598.062 -0.073674 2.34484 0
M  V30 6274 C 599.078 -0.834825 1.52665 0
M  V30 6275 O 600.254 -0.786902 1.85391 0
M  V30 6276 C 597.319 -1.04247 3.30656 0
M  V30 6277 C 596.38 -0.280602 4.28382 0
M  V30 6278 C 595.613 -1.20325 5.19959 0
M  V30 6279 O 595.836 -2.44199 5.15484 0
M  V30 6280 O 594.77 -0.687128 5.97965 0
M  V30 6281 H 598.596 0.667477 2.96274 0
M  V30 6282 H 596.181 0.392144 1.44162 0
M  V30 6283 H 598.063 -1.59981 3.89851 0
M  V30 6284 H 596.738 -1.76422 2.71398 0
M  V30 6285 H 595.645 0.319804 3.72731 0
M  V30 6286 H 596.978 0.401144 4.90563 0
M  V30 6287 N 598.631 -1.53133 0.372548 0
M  V30 6288 C 599.578 -2.25951 -0.470631 0
M  V30 6289 C 600.548 -1.26895 -1.07176 0
M  V30 6290 O 601.733 -1.55691 -1.10294 0
M  V30 6291 C 598.873 -3.05726 -1.6008 0
M  V30 6292 C 597.986 -4.19684 -1.02416 0
M  V30 6293 C 597.121 -4.86888 -2.124 0
M  V30 6294 C 596.16 -5.92866 -1.52238 0
M  V30 6295 N 595.297 -6.53732 -2.56084 0
M  V30 6296 H 600.137 -2.97587 0.156816 0
M  V30 6297 H 597.674 -1.4683 0.0891571 0
M  V30 6298 H 599.632 -3.50258 -2.26661 0
M  V30 6299 H 598.262 -2.36331 -2.1988 0
M  V30 6300 H 597.314 -3.79588 -0.248426 0
M  V30 6301 H 598.626 -4.95821 -0.544366 0
M  V30 6302 H 597.78 -5.34638 -2.86787 0
M  V30 6303 H 596.519 -4.10239 -2.63734 0
M  V30 6304 H 595.524 -5.4447 -0.763685 0
M  V30 6305 H 596.749 -6.71439 -1.0172 0
M  V30 6306 H 594.695 -5.79932 -3.06618 0
M  V30 6307 H 594.612 -7.25429 -2.12811 0
M  V30 6308 H 595.88 -7.0613 -3.30152 0
M  V30 6309 N 600.109 -0.101901 -1.5727 0
M  V30 6310 C 601.349 0.563489 -1.96479 0
M  V30 6311 C 601.713 1.64926 -0.983021 0
M  V30 6312 O 602.914 2.37234 -1.26386 0
M  V30 6313 C 601.185 1.09809 -3.40113 0
M  V30 6314 S 602.744 1.7744 -4.01323 0
M  V30 6315 H 599.562 0.183675 -0.686866 0
M  V30 6316 H 602.164 -0.182922 -1.94642 0
M  V30 6317 H 600.868 0.296447 -4.09328 0
M  V30 6318 H 600.399 1.88018 -3.45562 0
M  V30 6319 H 602.414 3.0591 -3.90683 0
M  V30 6320 N 601.587 1.56661 0.17182 0
M  V30 6321 C 602.998 1.71652 0.734329 0
M  V30 6322 C 603.349 0.712335 1.82812 0
M  V30 6323 O 602.474 -0.126401 2.16031 0
M  V30 6324 C 603.069 3.11226 1.3388 0
M  V30 6325 C 601.628 3.27904 1.84813 0
M  V30 6326 C 600.775 2.67603 0.726917 0
M  V30 6327 H 603.726 1.5861 -0.0535665 0
M  V30 6328 H 603.747 3.09849 2.20849 0
M  V30 6329 H 603.259 3.8429 0.54249 0
M  V30 6330 H 601.36 2.59796 2.6709 0
M  V30 6331 H 601.473 4.35637 1.99392 0
M  V30 6332 H 599.837 2.274 1.14723 0
M  V30 6333 H 600.62 3.43252 -0.0575334 0
M  V30 6334 N 603.065 -0.440357 1.51323 0
M  V30 6335 C 604.311 -1.19181 1.64085 0
M  V30 6336 C 604.644 -1.90936 0.354575 0
M  V30 6337 O 603.919 -1.8347 -0.645675 0
M  V30 6338 C 604.202 -2.2112 2.84215 0
M  V30 6339 C 604.055 -1.53468 4.22809 0
M  V30 6340 C 605.374 -3.22133 2.99864 0
M  V30 6341 H 602.493 -0.431924 0.597169 0
M  V30 6342 H 605.135 -0.481443 1.83799 0
M  V30 6343 H 603.285 -2.81703 2.67537 0
M  V30 6344 H 604.957 -0.962455 4.51148 0
M  V30 6345 H 603.2 -0.837086 4.25647 0
M  V30 6346 H 603.871 -2.27694 5.02852 0
M  V30 6347 H 606.347 -2.71601 3.15233 0
M  V30 6348 H 605.223 -3.90756 3.85488 0
M  V30 6349 H 605.484 -3.88061 2.11804 0
M  V30 6350 N 604.543 -1.41418 -0.695603 0
M  V30 6351 C 605.789 -1.40982 -1.4578 0
M  V30 6352 C 606.122 -0.0187763 -1.94191 0
M  V30 6353 O 605.397 0.95346 -1.69527 0
M  V30 6354 C 605.68 -2.41657 -2.66972 0
M  V30 6355 C 605.533 -3.89869 -2.24327 0
M  V30 6356 C 606.852 -2.39589 -3.69168 0
M  V30 6357 H 603.971 -0.513405 -0.528757 0
M  V30 6358 H 606.613 -1.72693 -0.792275 0
M  V30 6359 H 604.763 -2.14746 -3.23754 0
M  V30 6360 H 606.435 -4.27683 -1.72872 0
M  V30 6361 H 604.678 -4.04737 -1.56111 0
M  V30 6362 H 605.349 -4.55857 -3.11285 0
M  V30 6363 H 607.825 -2.63471 -3.2206 0
M  V30 6364 H 606.701 -3.12044 -4.51575 0
M  V30 6365 H 606.962 -1.41447 -4.18862 0
M  V30 6366 N 606.021 0.929856 -1.27246 0
M  V30 6367 C 607.298 1.65544 -1.04186 0
M  V30 6368 C 607.678 2.06796 0.424097 0
M  V30 6369 O 607.026 1.80053 1.40688 0
M  V30 6370 C 607.236 2.85912 -2.00138 0
M  V30 6371 C 608.584 3.57305 -2.29387 0
M  V30 6372 O 609.608 2.96036 -1.98094 0
M  V30 6373 O 608.467 4.67688 -2.82719 0
M  V30 6374 H 605.561 0.725473 -0.397011 0
M  V30 6375 H 608.107 0.980583 -1.38501 0
M  V30 6376 H 606.879 2.52403 -2.99013 0
M  V30 6377 H 606.502 3.61118 -1.66371 0
M  V30 6378 N 607.499 1.09233 1.13605 0
M  V30 6379 C 608.727 0.848908 1.88683 0
M  V30 6380 C 609.142 -0.599667 1.79024 0
M  V30 6381 O 608.499 -1.41265 1.15544 0
M  V30 6382 C 608.55 1.27273 3.38355 0
M  V30 6383 O 608.271 2.66449 3.47759 0
M  V30 6384 C 609.772 1.0614 4.30406 0
M  V30 6385 H 606.992 0.305549 0.597395 0
M  V30 6386 H 609.536 1.4538 1.43823 0
M  V30 6387 H 607.691 0.711776 3.80805 0
M  V30 6388 H 608.105 2.84264 4.40788 0
M  V30 6389 H 609.579 1.40725 5.33761 0
M  V30 6390 H 610.056 -0.000960332 4.392 0
M  V30 6391 H 610.662 1.60821 3.93722 0
M  V30 6392 N 608.977 -1.30795 0.87923 0
M  V30 6393 C 610.223 -1.97035 0.50487 0
M  V30 6394 C 610.578 -1.68182 -0.934484 0
M  V30 6395 O 609.871 -0.972953 -1.65058 0
M  V30 6396 C 610.065 -3.50287 0.709476 0
M  V30 6397 C 609.894 -3.94035 2.16717 0
M  V30 6398 C 608.664 -4.1992 2.81061 0
M  V30 6399 C 610.862 -4.07288 3.1404 0
M  V30 6400 N 608.844 -4.50088 4.17486 0
M  V30 6401 C 610.215 -4.41273 4.35521 0
M  V30 6402 C 612.27 -3.89696 3.09906 0
M  V30 6403 C 610.973 -4.59501 5.534 0
M  V30 6404 C 612.999 -4.09122 4.27052 0
M  V30 6405 C 612.361 -4.43447 5.47297 0
M  V30 6406 H 608.46 -0.746181 0.233962 0
M  V30 6407 H 611.044 -1.5814 1.13577 0
M  V30 6408 H 609.215 -3.8825 0.108108 0
M  V30 6409 H 610.947 -4.03567 0.302585 0
M  V30 6410 H 607.702 -4.12906 2.3196 0
M  V30 6411 H 608.126 -4.69316 4.87926 0
M  V30 6412 H 612.768 -3.62239 2.18043 0
M  V30 6413 H 610.486 -4.85802 6.45773 0
M  V30 6414 H 614.072 -3.96985 4.25316 0
M  V30 6415 H 612.952 -4.58171 6.36435 0
M  V30 6416 N 610.455 -0.639598 -1.44038 0
M  V30 6417 C 611.701 -0.156248 -2.02799 0
M  V30 6418 C 612.056 1.21145 -1.49471 0
M  V30 6419 O 611.349 1.79406 -0.672608 0
M  V30 6420 C 611.543 -0.0925348 -3.5728 0
M  V30 6421 C 611.372 -1.45252 -4.25596 0
M  V30 6422 C 610.142 -2.04145 -4.62226 0
M  V30 6423 C 612.34 -2.38812 -4.55492 0
M  V30 6424 N 610.322 -3.3329 -5.15549 0
M  V30 6425 C 611.693 -3.52578 -5.09989 0
M  V30 6426 C 613.748 -2.37785 -4.3745 0
M  V30 6427 C 612.451 -4.65525 -5.48342 0
M  V30 6428 C 614.477 -3.49802 -4.76857 0
M  V30 6429 C 613.839 -4.62292 -5.31475 0
M  V30 6430 H 609.938 -0.101292 -0.775412 0
M  V30 6431 H 612.522 -0.844938 -1.75411 0
M  V30 6432 H 610.693 0.565459 -3.84262 0
M  V30 6433 H 612.425 0.400426 -4.02714 0
M  V30 6434 H 609.18 -1.56999 -4.4682 0
M  V30 6435 H 609.604 -3.9934 -5.46678 0
M  V30 6436 H 614.246 -1.52061 -3.94509 0
M  V30 6437 H 611.964 -5.51951 -5.90233 0
M  V30 6438 H 615.55 -3.50193 -4.64603 0
M  V30 6439 H 614.43 -5.47536 -5.61403 0
M  V30 6440 N 611.933 1.52934 -0.380664 0
M  V30 6441 C 612.865 2.23822 0.493581 0
M  V30 6442 C 613.878 1.25761 1.03383 0
M  V30 6443 O 615.067 1.5189 0.937633 0
M  V30 6444 C 612.167 2.9342 1.69582 0
M  V30 6445 C 611.34 4.18115 1.28445 0
M  V30 6446 C 610.399 4.70788 2.35042 0
M  V30 6447 O 609.425 5.34093 1.96807 0
M  V30 6448 N 610.627 4.49899 3.66839 0
M  V30 6449 H 613.392 2.99484 -0.11371 0
M  V30 6450 H 610.953 1.60577 -0.206587 0
M  V30 6451 H 612.945 3.2556 2.40401 0
M  V30 6452 H 611.515 2.21119 2.20965 0
M  V30 6453 H 610.735 3.92109 0.405503 0
M  V30 6454 H 612.023 4.99152 0.986132 0
M  V30 6455 H 611.421 3.99349 4.0067 0
M  V30 6456 H 609.978 4.86551 4.33718 0
M  V30 6457 N 613.412 0.11024 1.57214 0
M  V30 6458 C 614.64 -0.557834 1.99238 0
M  V30 6459 C 615.055 -1.60778 0.989734 0
M  V30 6460 O 614.412 -1.82491 -0.0186092 0
M  V30 6461 C 614.463 -1.19189 3.41286 0
M  V30 6462 O 614.184 -0.183919 4.37714 0
M  V30 6463 C 615.685 -1.94413 3.98395 0
M  V30 6464 H 612.905 -0.148392 0.654386 0
M  V30 6465 H 615.449 0.193996 2.03578 0
M  V30 6466 H 613.604 -1.89456 3.37913 0
M  V30 6467 H 614.018 -0.643475 5.20538 0
M  V30 6468 H 615.492 -2.34116 4.99894 0
M  V30 6469 H 615.969 -2.81592 3.3705 0
M  V30 6470 H 616.575 -1.28928 4.05287 0
M  V30 6471 N 614.89 -1.56749 -0.16351 0
M  V30 6472 C 615.8 -2.00255 -1.2221 0
M  V30 6473 C 616.816 -0.915194 -1.47987 0
M  V30 6474 O 617.992 -1.22342 -1.59982 0
M  V30 6475 C 615.057 -2.36035 -2.53946 0
M  V30 6476 C 614.118 -3.58637 -2.35962 0
M  V30 6477 C 613.351 -3.92701 -3.61416 0
M  V30 6478 O 613.574 -3.27632 -4.66919 0
M  V30 6479 O 612.508 -4.86019 -3.55062 0
M  V30 6480 H 616.334 -2.90586 -0.882794 0
M  V30 6481 H 613.919 -1.44721 -0.370978 0
M  V30 6482 H 615.801 -2.59982 -3.31643 0
M  V30 6483 H 614.476 -1.48863 -2.8744 0
M  V30 6484 H 613.383 -3.39898 -1.5627 0
M  V30 6485 H 614.716 -4.46374 -2.0739 0
M  V30 6486 N 616.368 0.432326 -1.51554 0
M  V30 6487 C 617.596 1.20364 -1.68286 0
M  V30 6488 C 618.011 1.84888 -0.38233 0
M  V30 6489 O 617.368 1.70924 0.639627 0
M  V30 6490 C 617.419 2.28398 -2.80208 0
M  V30 6491 O 617.14 1.66512 -4.05223 0
M  V30 6492 C 618.641 3.18584 -3.08251 0
M  V30 6493 H 615.861 0.36259 -0.564596 0
M  V30 6494 H 618.405 0.511647 -1.97996 0
M  V30 6495 H 616.56 2.93305 -2.53083 0
M  V30 6496 H 616.974 2.37951 -4.67418 0
M  V30 6497 H 618.448 3.90511 -3.90135 0
M  V30 6498 H 618.925 3.79628 -2.2086 0
M  V30 6499 H 619.531 2.59372 -3.37055 0
M  V30 6500 N 617.846 1.41785 0.688094 0
M  V30 6501 C 619.094 1.41264 1.4453 0
M  V30 6502 C 619.415 0.0252946 1.94984 0
M  V30 6503 O 618.685 -0.934081 1.72197 0
M  V30 6504 H 617.265 0.519998 0.536294 0
M  V30 6505 H 619.927 1.7709 0.813941 0
M  V30 6506 H 619.023 2.10439 2.30482 0
M  V30 6507 N 619.324 -0.923095 1.27737 0
M  V30 6508 C 620.572 -1.66797 1.14119 0
M  V30 6509 C 620.893 -1.92479 -0.312541 0
M  V30 6510 O 620.163 -1.53432 -1.218 0
M  V30 6511 H 618.743 -0.618196 0.419336 0
M  V30 6512 H 621.405 -1.10815 1.60331 0
M  V30 6513 H 620.501 -2.63424 1.67374 0
M  V30 6514 N 620.802 -1.09834 -1.13024 0
M  V30 6515 C 622.049 -0.83695 -1.84395 0
M  V30 6516 C 622.377 0.637463 -1.83757 0
M  V30 6517 O 621.632 1.48554 -1.27398 0
M  V30 6518 C 621.931 -1.32263 -3.32026 0
M  V30 6519 C 621.597 -2.80739 -3.52841 0
M  V30 6520 C 620.259 -3.21286 -3.5823 0
M  V30 6521 C 622.611 -3.76449 -3.60466 0
M  V30 6522 C 619.939 -4.56308 -3.68781 0
M  V30 6523 C 622.291 -5.11266 -3.72546 0
M  V30 6524 C 620.955 -5.51397 -3.76189 0
M  V30 6525 H 620.225 -0.306262 -0.674748 0
M  V30 6526 H 622.872 -1.37385 -1.33408 0
M  V30 6527 H 621.177 -0.705618 -3.85394 0
M  V30 6528 H 622.874 -1.09695 -3.85705 0
M  V30 6529 H 619.464 -2.48363 -3.49305 0
M  V30 6530 H 623.648 -3.46234 -3.55578 0
M  V30 6531 H 618.904 -4.86832 -3.69871 0
M  V30 6532 H 623.078 -5.85279 -3.77388 0
M  V30 6533 H 620.705 -6.56017 -3.84117 0
M  V30 6534 N 622.28 1.30327 -0.886154 0
M  V30 6535 C 623.213 2.26241 -0.298407 0
M  V30 6536 C 624.191 1.51839 0.581704 0
M  V30 6537 O 625.375 1.80851 0.531536 0
M  V30 6538 C 622.502 3.33768 0.575888 0
M  V30 6539 C 621.548 4.25852 -0.235057 0
M  V30 6540 S 622.381 5.10277 -1.62411 0
M  V30 6541 C 623.537 6.21313 -0.756368 0
M  V30 6542 H 623.77 2.75744 -1.11141 0
M  V30 6543 H 621.303 1.38341 -0.685651 0
M  V30 6544 H 623.261 3.96186 1.07458 0
M  V30 6545 H 621.922 2.82986 1.363 0
M  V30 6546 H 621.115 5.02143 0.432198 0
M  V30 6547 H 620.717 3.68015 -0.666409 0
M  V30 6548 H 623.009 6.77495 0.0261451 0
M  V30 6549 H 623.952 6.92226 -1.49093 0
M  V30 6550 H 624.36 5.63611 -0.316749 0
M  V30 6551 N 623.758 0.647228 1.43697 0
M  V30 6552 C 625.007 0.155552 2.01099 0
M  V30 6553 C 625.32 -1.23569 1.51624 0
M  V30 6554 O 626.526 -1.82226 2.01261 0
M  V30 6555 C 624.982 0.227296 3.59182 0
M  V30 6556 C 624.59 1.62086 4.17651 0
M  V30 6557 C 626.334 -0.207085 4.23995 0
M  V30 6558 C 624.241 1.64685 5.68008 0
M  V30 6559 H 623.171 0.0543895 0.752036 0
M  V30 6560 H 625.822 0.808386 1.64734 0
M  V30 6561 H 624.204 -0.492937 3.9292 0
M  V30 6562 H 625.378 2.36597 3.95422 0
M  V30 6563 H 623.693 2.0007 3.65186 0
M  V30 6564 H 626.29 -0.207426 5.34298 0
M  V30 6565 H 626.633 -1.23742 3.97484 0
M  V30 6566 H 627.166 0.461193 3.95118 0
M  V30 6567 H 623.905 2.65608 5.99277 0
M  V30 6568 H 623.425 0.944914 5.9231 0
M  V30 6569 H 625.104 1.38792 6.31938 0
M  V30 6570 N 625.236 -1.5273 0.388769 0
M  V30 6571 C 626.464 -2.05992 -0.193677 0
M  V30 6572 C 626.879 -1.26053 -1.40557 0
M  V30 6573 O 626.236 -0.307049 -1.79898 0
M  V30 6574 C 626.287 -3.57068 -0.564321 0
M  V30 6575 O 626.008 -4.3398 0.599422 0
M  V30 6576 C 627.509 -4.26674 -1.20269 0
M  V30 6577 H 624.729 -0.670358 -0.0293445 0
M  V30 6578 H 627.273 -1.96857 0.553844 0
M  V30 6579 H 625.428 -3.66277 -1.26174 0
M  V30 6580 H 625.842 -5.2367 0.294895 0
M  V30 6581 H 627.316 -5.33625 -1.4124 0
M  V30 6582 H 627.793 -3.81854 -2.16989 0
M  V30 6583 H 628.399 -4.2178 -0.546047 0
M  V30 6584 N 626.714 -0.118576 -1.57153 0
M  V30 6585 C 628.125 0.40687 -1.82213 0
M  V30 6586 C 628.476 1.66636 -1.03571 0
M  V30 6587 O 627.601 2.14682 -0.272171 0
M  V30 6588 C 628.196 0.744949 -3.30509 0
M  V30 6589 C 626.755 1.21503 -3.5625 0
M  V30 6590 C 625.902 0.223511 -2.76398 0
M  V30 6591 H 628.853 -0.343712 -1.54933 0
M  V30 6592 H 628.874 1.6024 -3.45114 0
M  V30 6593 H 628.386 -0.171911 -3.87719 0
M  V30 6594 H 626.487 2.1488 -3.04396 0
M  V30 6595 H 626.6 1.16065 -4.64829 0
M  V30 6596 H 624.964 0.71046 -2.44591 0
M  V30 6597 H 625.747 -0.686439 -3.36367 0
M  V30 6598 N 628.193 1.56834 0.155195 0
M  V30 6599 C 629.123 2.00678 1.19376 0
M  V30 6600 C 630.104 0.884973 1.45266 0
M  V30 6601 O 631.289 1.1522 1.56326 0
M  V30 6602 C 628.419 2.38042 2.5289 0
M  V30 6603 C 627.373 3.53332 2.41538 0
M  V30 6604 C 626.699 3.76485 3.79688 0
M  V30 6605 C 627.999 4.86265 1.9064 0
M  V30 6606 H 629.693 2.87688 0.829232 0
M  V30 6607 H 627.239 1.38407 0.397445 0
M  V30 6608 H 629.192 2.67314 3.25763 0
M  V30 6609 H 627.916 1.4796 2.91162 0
M  V30 6610 H 626.575 3.24213 1.71117 0
M  V30 6611 H 626.223 2.83667 4.15382 0
M  V30 6612 H 625.923 4.54068 3.72956 0
M  V30 6613 H 627.447 4.08174 4.54122 0
M  V30 6614 H 628.861 5.14308 2.53299 0
M  V30 6615 H 627.258 5.67597 1.94818 0
M  V30 6616 H 628.328 4.77184 0.861596 0
M  V30 6617 N 629.671 -0.424282 1.51781 0
M  V30 6618 C 631.082 -1.00368 1.57427 0
M  V30 6619 C 631.433 -1.91962 0.40558 0
M  V30 6620 O 630.558 -2.111 -0.47601 0
M  V30 6621 C 631.153 -1.82707 2.85313 0
M  V30 6622 C 629.712 -2.35675 2.93487 0
M  V30 6623 C 628.859 -1.1524 2.5222 0
M  V30 6624 H 631.81 -0.205064 1.5737 0
M  V30 6625 H 631.831 -2.68294 2.69812 0
M  V30 6626 H 631.343 -1.16017 3.70353 0
M  V30 6627 H 629.444 -3.05781 2.12906 0
M  V30 6628 H 629.557 -2.67578 3.97415 0
M  V30 6629 H 627.921 -1.50174 2.05718 0
M  V30 6630 H 628.704 -0.5014 3.39619 0
M  V30 6631 N 631.149 -1.42148 -0.680565 0
M  V30 6632 C 632.397 -1.42029 -1.43779 0
M  V30 6633 C 632.718 -0.0356347 -1.94967 0
M  V30 6634 O 631.988 0.924936 -1.7269 0
M  V30 6635 H 630.568 -0.522835 -0.533529 0
M  V30 6636 H 633.23 -1.7752 -0.804538 0
M  V30 6637 H 632.326 -2.11658 -2.29363 0
M  V30 6638 N 632.627 0.916307 -1.28225 0
M  V30 6639 C 633.59 1.99996 -1.11957 0
M  V30 6640 C 634.59 1.60688 -0.0600152 0
M  V30 6641 O 635.78 1.71499 -0.30558 0
M  V30 6642 C 632.912 3.33458 -0.708411 0
M  V30 6643 H 634.105 2.15858 -2.08196 0
M  V30 6644 H 631.658 1.09863 -1.11175 0
M  V30 6645 H 632.393 3.23297 0.254859 0
M  V30 6646 H 632.178 3.63349 -1.47377 0
M  V30 6647 H 633.668 4.13014 -0.617164 0
M  V30 6648 N 634.105 1.10431 1.1244 0
M  V30 6649 C 635.354 0.841539 1.83306 0
M  V30 6650 C 635.667 -0.634961 1.85007 0
M  V30 6651 O 636.873 -1.01363 2.51869 0
M  V30 6652 C 635.329 1.45565 3.29149 0
M  V30 6653 C 634.937 2.96544 3.35806 0
M  V30 6654 C 636.681 1.27227 4.04986 0
M  V30 6655 C 634.588 3.5099 4.75983 0
M  V30 6656 H 633.518 0.311156 0.686803 0
M  V30 6657 H 636.169 1.32829 1.26604 0
M  V30 6658 H 634.551 0.896574 3.85717 0
M  V30 6659 H 635.725 3.58766 2.89177 0
M  V30 6660 H 634.04 3.14036 2.73442 0
M  V30 6661 H 636.637 1.65348 5.08492 0
M  V30 6662 H 636.98 0.213834 4.1575 0
M  V30 6663 H 637.513 1.79941 3.54776 0
M  V30 6664 H 634.252 4.56499 4.70413 0
M  V30 6665 H 633.772 2.93535 5.23065 0
M  V30 6666 H 635.451 3.48808 5.44924 0
M  V30 6667 N 635.583 -1.29855 0.893053 0
M  V30 6668 C 636.493 -2.31661 0.370157 0
M  V30 6669 C 637.509 -1.65677 -0.531723 0
M  V30 6670 O 638.685 -1.9691 -0.422902 0
M  V30 6671 C 635.75 -3.44388 -0.399741 0
M  V30 6672 C 634.811 -4.2598 0.532861 0
M  V30 6673 C 634.044 -5.33324 -0.200388 0
M  V30 6674 O 634.267 -5.52305 -1.42531 0
M  V30 6675 O 633.201 -6.00188 0.453668 0
M  V30 6676 H 637.027 -2.78354 1.2146 0
M  V30 6677 H 634.612 -1.34171 0.657153 0
M  V30 6678 H 636.494 -4.13037 -0.835358 0
M  V30 6679 H 635.169 -2.99815 -1.22035 0
M  V30 6680 H 634.076 -3.59998 1.01746 0
M  V30 6681 H 635.409 -4.74178 1.3197 0
M  V30 6682 N 637.061 -0.65484 -1.43351 0
M  V30 6683 C 637.991 0.0221809 -2.33489 0
M  V30 6684 C 638.972 0.810272 -1.49561 0
M  V30 6685 O 640.157 0.771426 -1.78221 0
M  V30 6686 C 637.287 0.988117 -3.32947 0
M  V30 6687 C 636.241 0.310026 -4.26876 0
M  V30 6688 C 635.567 1.38752 -5.16384 0
M  V30 6689 C 636.867 -0.798589 -5.16159 0
M  V30 6690 H 638.561 -0.730571 -2.9035 0
M  V30 6691 H 636.107 -0.352773 -1.39612 0
M  V30 6692 H 638.06 1.47067 -3.94904 0
M  V30 6693 H 636.784 1.77205 -2.74346 0
M  V30 6694 H 635.443 -0.152097 -3.66284 0
M  V30 6695 H 635.091 2.16293 -4.54121 0
M  V30 6696 H 634.791 0.939051 -5.80048 0
M  V30 6697 H 636.315 1.87141 -5.81215 0
M  V30 6698 H 637.729 -0.398126 -5.71916 0
M  V30 6699 H 636.126 -1.17163 -5.88552 0
M  V30 6700 H 637.196 -1.65588 -4.55751 0
M  V30 6701 N 638.539 1.52521 -0.396863 0
M  V30 6702 C 639.486 2.26671 0.434624 0
M  V30 6703 C 640.456 1.28584 1.05144 0
M  V30 6704 O 641.641 1.57426 1.07804 0
M  V30 6705 C 638.781 3.08234 1.55196 0
M  V30 6706 C 637.894 4.21261 0.957262 0
M  V30 6707 C 637.029 4.90205 2.04627 0
M  V30 6708 C 636.068 5.95213 1.42787 0
M  V30 6709 N 635.205 6.57723 2.45651 0
M  V30 6710 H 640.045 2.973 -0.204139 0
M  V30 6711 H 637.582 1.46669 -0.112505 0
M  V30 6712 H 639.54 3.53819 2.2106 0
M  V30 6713 H 638.17 2.398 2.16092 0
M  V30 6714 H 637.222 3.79935 0.188005 0
M  V30 6715 H 638.534 4.96624 0.465416 0
M  V30 6716 H 637.688 5.39133 2.78246 0
M  V30 6717 H 636.427 4.14383 2.57174 0
M  V30 6718 H 635.432 5.45616 0.676968 0
M  V30 6719 H 636.657 6.72972 0.910255 0
M  V30 6720 H 634.603 5.84737 2.97353 0
M  V30 6721 H 634.52 7.28723 2.01243 0
M  V30 6722 H 635.788 7.11293 3.18876 0
M  V30 6723 N 640.017 0.126909 1.57088 0
M  V30 6724 C 640.98 -0.806097 2.14557 0
M  V30 6725 C 641.98 -1.18918 1.08236 0
M  V30 6726 O 643.17 -1.11339 1.33975 0
M  V30 6727 C 640.302 -2.09116 2.69227 0
M  V30 6728 H 641.495 -0.306522 2.98329 0
M  V30 6729 H 639.048 -0.122393 1.5582 0
M  V30 6730 H 639.783 -2.63486 1.89065 0
M  V30 6731 H 639.568 -1.82588 3.46993 0
M  V30 6732 H 641.058 -2.75794 3.13572 0
M  V30 6733 N 641.495 -1.56914 -0.146875 0
M  V30 6734 C 642.743 -1.82994 -0.85777 0
M  V30 6735 C 643.064 -0.707814 -1.817 0
M  V30 6736 O 642.334 0.270521 -1.94023 0
M  V30 6737 H 640.914 -0.675106 -0.319751 0
M  V30 6738 H 643.576 -1.9439 -0.140849 0
M  V30 6739 H 642.672 -2.77928 -1.41994 0
M  V30 6740 N 642.974 0.416227 -1.52004 0
M  V30 6741 C 644.199 1.19029 -1.69843 0
M  V30 6742 C 644.624 1.83708 -0.404103 0
M  V30 6743 O 643.982 1.69711 0.637787 0
M  V30 6744 C 644.03 2.23439 -2.83032 0
M  V30 6745 O 643.134 3.29419 -2.48106 0
M  V30 6746 H 642.475 0.347785 -0.565634 0
M  V30 6747 H 645.005 0.488871 -1.98674 0
M  V30 6748 H 645.015 2.67884 -3.07737 0
M  V30 6749 H 643.69 1.75745 -3.76944 0
M  V30 6750 H 642.267 2.90303 -2.34048 0
M  V30 6751 N 644.452 1.42507 0.673017 0
M  V30 6752 C 645.415 1.4582 1.76831 0
M  V30 6753 C 646.415 0.345542 1.57043 0
M  V30 6754 O 647.605 0.606447 1.63303 0
M  V30 6755 C 644.737 1.29158 3.15485 0
M  V30 6756 H 645.93 2.43345 1.7528 0
M  V30 6757 H 643.483 1.28981 0.882817 0
M  V30 6758 H 644.218 0.325626 3.22661 0
M  V30 6759 H 644.003 2.09797 3.31252 0
M  V30 6760 H 645.493 1.34363 3.95394 0
M  V30 6761 N 645.93 -0.909495 1.28709 0
M  V30 6762 C 647.158 -1.69272 1.18973 0
M  V30 6763 C 647.573 -1.87123 -0.251048 0
M  V30 6764 O 646.93 -1.40127 -1.16922 0
M  V30 6765 C 646.981 -3.08257 1.88839 0
M  V30 6766 O 646.702 -2.91228 3.27289 0
M  V30 6767 C 648.203 -4.02642 1.85457 0
M  V30 6768 H 645.423 -0.528999 0.412797 0
M  V30 6769 H 647.967 -1.13803 1.69909 0
M  V30 6770 H 646.122 -3.6053 1.41762 0
M  V30 6771 H 646.536 -3.79223 3.6234 0
M  V30 6772 H 648.01 -4.97613 2.38925 0
M  V30 6773 H 648.487 -4.31327 0.827893 0
M  V30 6774 H 649.093 -3.56298 2.32233 0
M  V30 6775 N 647.408 -1.11026 -1.11852 0
M  V30 6776 C 648.824 -0.843294 -1.35502 0
M  V30 6777 C 649.024 0.534179 -1.9429 0
M  V30 6778 O 648.08 1.28585 -2.17307 0
M  V30 6779 C 649.393 -1.94793 -2.29077 0
M  V30 6780 C 650.941 -1.97709 -2.42652 0
M  V30 6781 C 651.416 -3.07364 -3.39546 0
M  V30 6782 N 652.907 -3.0671 -3.47107 0
M  V30 6783 C 653.642 -3.88197 -4.22008 0
M  V30 6784 N 653.138 -4.79635 -4.99922 0
M  V30 6785 N 654.931 -3.76391 -4.17476 0
M  V30 6786 H 647.082 -1.99805 -0.720538 0
M  V30 6787 H 649.345 -0.868633 -0.379711 0
M  V30 6788 H 649.051 -2.93971 -1.93065 0
M  V30 6789 H 648.925 -1.84039 -3.29256 0
M  V30 6790 H 651.312 -0.991604 -2.77941 0
M  V30 6791 H 651.393 -2.1254 -1.4234 0
M  V30 6792 H 651.037 -4.06136 -3.04985 0
M  V30 6793 H 650.967 -2.89774 -4.39703 0
M  V30 6794 H 653.458 -2.40457 -2.91528 0
M  V30 6795 H 653.771 -5.38357 -5.54429 0
M  V30 6796 H 652.116 -4.8366 -4.99097 0
M  V30 6797 H 655.307 -3.04303 -3.55693 0
M  V30 6798 H 655.48 -4.40131 -4.75593 0
M  V30 6799 N 648.886 1.2938 -0.899927 0
M  V30 6800 C 650.297 1.77644 -0.574427 0
M  V30 6801 C 650.648 1.73824 0.909928 0
M  V30 6802 O 649.773 1.32429 1.71147 0
M  V30 6803 C 650.368 3.22573 -1.03595 0
M  V30 6804 C 648.927 3.68614 -0.76161 0
M  V30 6805 C 648.074 2.49483 -1.21052 0
M  V30 6806 H 651.025 1.16038 -1.08263 0
M  V30 6807 H 651.046 3.78684 -0.371337 0
M  V30 6808 H 650.558 3.25321 -2.11631 0
M  V30 6809 H 648.659 3.7134 0.306127 0
M  V30 6810 H 648.772 4.59402 -1.35965 0
M  V30 6811 H 647.136 2.46798 -0.629515 0
M  V30 6812 H 647.919 2.54959 -2.29893 0
M  V30 6813 N 650.364 0.662433 1.43002 0
M  V30 6814 C 651.611 0.179591 2.01702 0
M  V30 6815 C 651.939 -1.20964 1.52309 0
M  V30 6816 O 651.194 -1.82343 0.7106 0
M  V30 6817 C 651.493 0.149363 3.57088 0
M  V30 6818 C 651.159 1.48158 4.25864 0
M  V30 6819 C 649.821 1.84638 4.44367 0
M  V30 6820 C 652.173 2.35953 4.64732 0
M  V30 6821 C 649.501 3.08561 4.99006 0
M  V30 6822 C 651.853 3.59176 5.20745 0
M  V30 6823 C 650.517 3.95841 5.37463 0
M  V30 6824 H 649.787 0.0657172 0.73808 0
M  V30 6825 H 652.434 0.854968 1.71355 0
M  V30 6826 H 650.739 -0.609491 3.8703 0
M  V30 6827 H 652.436 -0.241241 4.00274 0
M  V30 6828 H 649.026 1.18777 4.11813 0
M  V30 6829 H 653.21 2.09058 4.50121 0
M  V30 6830 H 648.466 3.37005 5.10135 0
M  V30 6831 H 652.64 4.27417 5.49807 0
M  V30 6832 H 650.267 4.91942 5.79566 0
M  V30 6833 N 651.842 -1.52309 0.404946 0
M  V30 6834 C 653.089 -2.01767 -0.1722 0
M  V30 6835 C 653.417 -1.29075 -1.45498 0
M  V30 6836 O 652.672 -0.3843 -1.9189 0
M  V30 6837 C 652.971 -3.54284 -0.470895 0
M  V30 6838 C 652.637 -4.45079 0.722194 0
M  V30 6839 C 651.299 -4.69617 1.04946 0
M  V30 6840 C 653.651 -4.98555 1.51962 0
M  V30 6841 C 650.979 -5.44878 2.17543 0
M  V30 6842 C 653.331 -5.75049 2.63632 0
M  V30 6843 C 651.995 -5.9786 2.9685 0
M  V30 6844 H 651.265 -0.738316 -0.0630125 0
M  V30 6845 H 653.912 -1.83566 0.545506 0
M  V30 6846 H 652.217 -3.70642 -1.27012 0
M  V30 6847 H 653.914 -3.90058 -0.930346 0
M  V30 6848 H 650.504 -4.26155 0.457131 0
M  V30 6849 H 654.688 -4.79509 1.28002 0
M  V30 6850 H 649.944 -5.60762 2.43631 0
M  V30 6851 H 654.118 -6.15483 3.25813 0
M  V30 6852 H 651.745 -6.5596 3.84215 0
M  V30 6853 N 653.32 -0.135238 -1.57019 0
M  V30 6854 C 654.568 0.51777 -1.95355 0
M  V30 6855 C 654.889 1.6617 -1.02042 0
M  V30 6856 O 654.159 1.95738 -0.0797343 0
M  V30 6857 H 652.739 0.194264 -0.721298 0
M  V30 6858 H 655.401 -0.207983 -1.93787 0
M  V30 6859 H 654.497 0.901675 -2.98791 0
M  V30 6860 N 654.798 1.5699 0.138552 0
M  V30 6861 C 656.044 1.84081 0.85099 0
M  V30 6862 C 656.377 0.718107 1.80435 0
M  V30 6863 O 655.652 -0.277633 1.92508 0
M  V30 6864 C 655.935 3.21699 1.61808 0
M  V30 6865 C 655.788 4.44544 0.685633 0
M  V30 6866 C 657.107 3.5664 2.57868 0
M  V30 6867 H 654.226 0.669592 0.307922 0
M  V30 6868 H 656.868 1.89646 0.11588 0
M  V30 6869 H 655.018 3.17086 2.24474 0
M  V30 6870 H 656.69 4.61248 0.0693179 0
M  V30 6871 H 654.933 4.338 -0.00421993 0
M  V30 6872 H 655.604 5.3746 1.25858 0
M  V30 6873 H 658.08 3.61918 2.05316 0
M  V30 6874 H 656.956 4.53946 3.08584 0
M  V30 6875 H 657.217 2.83036 3.39622 0
M  V30 6876 N 656.276 -0.40816 1.52223 0
M  V30 6877 C 657.208 -1.51642 1.71864 0
M  V30 6878 C 658.221 -1.51378 0.599056 0
M  V30 6879 O 659.41 -1.55626 0.874239 0
M  V30 6880 C 656.51 -2.90534 1.74481 0
M  V30 6881 C 655.683 -3.14979 3.03491 0
M  V30 6882 C 654.742 -4.33749 2.97907 0
M  V30 6883 O 653.768 -4.30982 3.71811 0
M  V30 6884 N 654.97 -5.38912 2.15764 0
M  V30 6885 H 657.735 -1.35188 2.67478 0
M  V30 6886 H 655.296 -0.597468 1.50472 0
M  V30 6887 H 657.288 -3.68056 1.68275 0
M  V30 6888 H 655.858 -3.00441 0.863363 0
M  V30 6889 H 655.078 -2.25492 3.23337 0
M  V30 6890 H 656.366 -3.28156 3.88833 0
M  V30 6891 H 655.764 -5.44008 1.55152 0
M  V30 6892 H 654.321 -6.15174 2.15415 0
M  V30 6893 N 657.755 -1.42862 -0.66545 0
M  V30 6894 C 659.166 -1.3901 -1.24632 0
M  V30 6895 C 659.517 -0.0880285 -1.96002 0
M  V30 6896 O 658.642 0.812947 -2.0055 0
M  V30 6897 C 659.237 -2.51806 -2.2667 0
M  V30 6898 C 657.796 -2.51257 -2.80262 0
M  V30 6899 C 656.943 -2.30124 -1.5472 0
M  V30 6900 H 659.894 -1.5194 -0.458237 0
M  V30 6901 H 659.915 -2.22593 -3.08598 0
M  V30 6902 H 659.427 -3.46558 -1.74697 0
M  V30 6903 H 657.528 -1.60349 -3.36332 0
M  V30 6904 H 657.641 -3.48614 -3.28641 0
M  V30 6905 H 656.005 -1.7856 -1.81627 0
M  V30 6906 H 656.788 -3.26945 -1.04699 0
M  V30 6907 N 659.233 0.902656 -1.29189 0
M  V30 6908 C 660.196 1.98797 -1.14071 0
M  V30 6909 C 661.196 1.60615 -0.0770549 0
M  V30 6910 O 662.386 1.71165 -0.323753 0
M  V30 6911 C 659.518 3.32688 -0.743739 0
M  V30 6912 H 660.711 2.13637 -2.10473 0
M  V30 6913 H 658.264 1.08678 -1.12334 0
M  V30 6914 H 658.999 3.23549 0.220554 0
M  V30 6915 H 658.784 3.61765 -1.51223 0
M  V30 6916 H 660.274 4.12337 -0.660935 0
M  V30 6917 N 660.711 1.11618 1.11262 0
M  V30 6918 C 661.641 0.79846 2.19424 0
M  V30 6919 C 662.622 -0.234003 1.68483 0
M  V30 6920 O 663.807 -0.0970704 1.93957 0
M  V30 6921 C 660.937 0.242892 3.4645 0
M  V30 6922 C 659.891 1.20744 4.10615 0
M  V30 6923 C 659.217 0.512494 5.32238 0
M  V30 6924 C 660.517 2.55884 4.55325 0
M  V30 6925 H 662.211 1.70286 2.46258 0
M  V30 6926 H 659.757 0.820195 1.18359 0
M  V30 6927 H 661.71 0.00840447 4.21399 0
M  V30 6928 H 660.434 -0.696811 3.1908 0
M  V30 6929 H 659.093 1.42759 3.37662 0
M  V30 6930 H 658.741 -0.432075 5.01141 0
M  V30 6931 H 658.441 1.15583 5.7612 0
M  V30 6932 H 659.965 0.286842 6.09926 0
M  V30 6933 H 661.379 2.37946 5.21588 0
M  V30 6934 H 659.776 3.16216 5.10027 0
M  V30 6935 H 660.846 3.14968 3.68678 0
M  V30 6936 N 662.189 -1.289 0.906776 0
M  V30 6937 C 663.435 -1.95558 0.53712 0
M  V30 6938 C 663.768 -1.71262 -0.915582 0
M  V30 6939 O 663.043 -1.02961 -1.65013 0
M  V30 6940 C 663.326 -3.50198 0.838645 0
M  V30 6941 C 663.179 -3.83923 2.34357 0
M  V30 6942 C 664.498 -4.38861 0.329988 0
M  V30 6943 H 661.617 -0.710289 0.196617 0
M  V30 6944 H 664.259 -1.52392 1.13475 0
M  V30 6945 H 662.409 -3.87096 0.330024 0
M  V30 6946 H 664.081 -3.56933 2.92227 0
M  V30 6947 H 662.324 -3.31215 2.80141 0
M  V30 6948 H 662.995 -4.91883 2.5051 0
M  V30 6949 H 665.471 -4.08996 0.765609 0
M  V30 6950 H 664.347 -5.45931 0.570105 0
M  V30 6951 H 664.608 -4.35352 -0.769511 0
M  V30 6952 N 663.667 -0.670007 -1.42649 0
M  V30 6953 C 664.944 -0.119451 -1.95235 0
M  V30 6954 C 665.324 1.36461 -1.61064 0
M  V30 6955 O 664.672 2.09843 -0.904329 0
M  V30 6956 C 664.882 -0.383498 -3.46887 0
M  V30 6957 C 666.23 -0.297431 -4.23557 0
M  V30 6958 O 667.254 -0.31698 -3.54787 0
M  V30 6959 O 666.113 -0.235507 -5.45992 0
M  V30 6960 H 663.207 -8.85474e-05 -0.827 0
M  V30 6961 H 665.753 -0.744406 -1.52501 0
M  V30 6962 H 664.525 -1.41174 -3.64946 0
M  V30 6963 H 664.148 0.273702 -3.96657 0
M  V30 6964 N 665.145 1.52092 -0.413018 0
M  V30 6965 C 666.093 2.28681 0.425199 0
M  V30 6966 C 667.087 1.3353 1.04241 0
M  V30 6967 O 668.293 1.50973 0.980166 0
M  V30 6968 H 664.668 0.735661 0.155906 0
M  V30 6969 H 666.639 2.97418 -0.241926 0
M  V30 6970 C 665.388 3.1235 1.5275 0
M  V30 6971 H 664.711 3.85439 1.06191 0
M  V30 6972 H 666.151 3.69038 2.08774 0
M  V30 6973 C 664.61 2.26161 2.49706 0
M  V30 6974 O 665.14 1.90452 3.53682 0
M  V30 6975 N 663.346 1.89854 2.20008 0
M  V30 6976 H 662.893 2.19092 1.35486 0
M  V30 6977 H 662.851 1.3248 2.85125 0
M  V30 6978 N 666.623 0.143563 1.56945 0
M  V30 6979 C 667.533 -0.810562 2.20152 0
M  V30 6980 C 668.549 -1.27431 1.1848 0
M  V30 6981 O 669.725 -1.33221 1.51044 0
M  V30 6982 C 666.79 -2.03353 2.80799 0
M  V30 6983 C 665.851 -1.61936 3.97587 0
M  V30 6984 C 665.084 -2.78403 4.55332 0
M  V30 6985 O 665.307 -3.94521 4.11958 0
M  V30 6986 O 664.241 -2.54073 5.45647 0
M  V30 6987 H 668.067 -0.30253 3.02189 0
M  V30 6988 H 665.652 -0.0832925 1.49168 0
M  V30 6989 H 667.534 -2.74932 3.19359 0
M  V30 6990 H 666.209 -2.53116 2.01777 0
M  V30 6991 H 665.116 -0.873904 3.6375 0
M  V30 6992 H 666.449 -1.16892 4.78118 0
M  V30 6993 N 668.101 -1.57061 -0.130224 0
M  V30 6994 C 669.349 -1.83893 -0.838313 0
M  V30 6995 C 669.67 -0.727046 -1.80939 0
M  V30 6996 O 668.94 0.249927 -1.94299 0
M  V30 6997 H 667.52 -0.67846 -0.312573 0
M  V30 6998 H 670.182 -1.94529 -0.120224 0
M  V30 6999 H 669.278 -2.79419 -1.39038 0
M  V30 7000 N 669.579 0.400081 -1.52437 0
M  V30 7001 C 670.529 1.48734 -1.72807 0
M  V30 7002 C 671.513 1.50004 -0.582032 0
M  V30 7003 O 672.705 1.55828 -0.839449 0
M  V30 7004 C 669.834 2.86568 -1.89034 0
M  V30 7005 C 668.92 2.8991 -3.09537 0
M  V30 7006 N 669.311 2.62937 -4.32086 0
M  V30 7007 C 667.609 3.21078 -3.09556 0
M  V30 7008 C 668.31 2.73079 -5.13617 0
M  V30 7009 N 667.286 3.06342 -4.49061 0
M  V30 7010 H 671.088 1.26689 -2.65193 0
M  V30 7011 H 668.602 0.607902 -1.50593 0
M  V30 7012 H 670.599 3.64834 -2.01746 0
M  V30 7013 H 669.259 3.09604 -0.978547 0
M  V30 7014 H 670.27 2.37163 -4.60406 0
M  V30 7015 H 666.947 3.49651 -2.28146 0
M  V30 7016 H 668.337 2.55863 -6.21276 0
M  V30 7017 N 671.057 1.43213 0.657864 0
M  V30 7018 C 672.468 1.39669 1.23893 0
M  V30 7019 C 672.819 0.0984217 1.95953 0
M  V30 7020 O 671.944 -0.8023 2.00978 0
M  V30 7021 C 672.539 2.53004 2.25332 0
M  V30 7022 C 671.098 2.5274 2.78926 0
M  V30 7023 C 670.245 2.30941 1.53497 0
M  V30 7024 H 673.196 1.52181 0.450172 0
M  V30 7025 H 673.217 2.24226 3.07413 0
M  V30 7026 H 672.729 3.4748 1.72856 0
M  V30 7027 H 670.83 1.6213 3.35477 0
M  V30 7028 H 670.943 3.50352 3.26787 0
M  V30 7029 H 669.307 1.7952 1.80678 0
M  V30 7030 H 670.09 3.27496 1.02963 0
M  V30 7031 N 672.536 -0.895792 1.29666 0
M  V30 7032 C 673.468 -2.00563 1.10937 0
M  V30 7033 C 674.481 -1.62705 0.055734 0
M  V30 7034 O 675.67 -1.7595 0.300656 0
M  V30 7035 C 672.77 -3.32262 0.667448 0
M  V30 7036 C 671.943 -3.98625 1.80047 0
M  V30 7037 C 671.002 -5.08617 1.3489 0
M  V30 7038 O 670.028 -5.30837 2.05429 0
M  V30 7039 N 671.23 -5.80076 0.221937 0
M  V30 7040 H 673.995 -2.17184 2.06522 0
M  V30 7041 H 671.556 -1.06822 1.21658 0
M  V30 7042 H 673.548 -4.03196 0.348586 0
M  V30 7043 H 672.118 -3.11985 -0.196055 0
M  V30 7044 H 671.338 -3.21005 2.28801 0
M  V30 7045 H 672.626 -4.39704 2.56003 0
M  V30 7046 H 672.024 -5.64514 -0.366084 0
M  V30 7047 H 670.581 -6.51789 -0.0375346 0
M  V30 7048 N 674.014 -1.12206 -1.10668 0
M  V30 7049 C 674.924 -0.800686 -2.20513 0
M  V30 7050 C 675.94 0.209512 -1.72734 0
M  V30 7051 O 677.116 0.043705 -2.01353 0
M  V30 7052 C 674.181 -0.257353 -3.45744 0
M  V30 7053 C 673.242 -1.32718 -4.0827 0
M  V30 7054 C 672.475 -0.809674 -5.27522 0
M  V30 7055 O 672.698 0.35742 -5.69279 0
M  V30 7056 O 671.632 -1.57816 -5.80842 0
M  V30 7057 H 675.458 -1.71807 -2.50432 0
M  V30 7058 H 673.043 -0.898546 -1.19359 0
M  V30 7059 H 674.925 0.0408849 -4.2138 0
M  V30 7060 H 673.6 0.632627 -3.17458 0
M  V30 7061 H 672.507 -1.67855 -3.34329 0
M  V30 7062 H 673.84 -2.19083 -4.40753 0
M  V30 7063 N 675.492 1.28418 -0.913599 0
M  V30 7064 C 676.74 1.94596 -0.545594 0
M  V30 7065 C 677.061 1.7227 0.913668 0
M  V30 7066 O 676.331 1.06233 1.64595 0
M  V30 7067 H 674.911 0.720065 -0.198783 0
M  V30 7068 H 677.573 1.56404 -1.16292 0
M  V30 7069 H 676.669 3.03202 -0.739911 0
M  V30 7070 N 676.97 0.677563 1.42291 0
M  V30 7071 C 677.933 0.0101085 2.29198 0
M  V30 7072 C 678.933 -0.726219 1.43467 0
M  V30 7073 O 680.123 -0.563807 1.64824 0
M  V30 7074 C 677.255 -0.996316 3.26016 0
M  V30 7075 H 678.448 0.775071 2.89711 0
M  V30 7076 H 676.001 0.440065 1.49977 0
M  V30 7077 H 676.736 -1.78967 2.70446 0
M  V30 7078 H 676.521 -0.471687 3.89253 0
M  V30 7079 H 678.011 -1.46167 3.91184 0
M  V30 7080 N 678.448 -1.51871 0.421078 0
M  V30 7081 C 679.676 -2.06356 -0.14994 0
M  V30 7082 C 680.091 -1.29006 -1.37851 0
M  V30 7083 O 679.448 -0.345139 -1.79207 0
M  V30 7084 C 679.499 -3.58185 -0.488454 0
M  V30 7085 O 679.22 -4.32611 0.691341 0
M  V30 7086 C 680.721 -4.29129 -1.11191 0
M  V30 7087 H 677.941 -0.67083 -0.0151186 0
M  V30 7088 H 680.485 -1.95638 0.595476 0
M  V30 7089 H 678.64 -3.68871 -1.18376 0
M  V30 7090 H 679.054 -5.22927 0.405906 0
M  V30 7091 H 680.528 -5.36501 -1.29889 0
M  V30 7092 H 681.005 -3.86371 -2.0884 0
M  V30 7093 H 681.611 -4.22843 -0.456458 0
M  V30 7094 N 679.926 -0.151884 -1.56866 0
M  V30 7095 C 680.836 0.798876 -2.20579 0
M  V30 7096 C 681.852 1.268 -1.19154 0
M  V30 7097 O 683.028 1.32418 -1.51748 0
M  V30 7098 C 680.093 2.01861 -2.81874 0
M  V30 7099 C 679.154 1.59825 -3.9844 0
M  V30 7100 C 678.387 2.75984 -4.56802 0
M  V30 7101 O 678.61 3.92331 -4.14044 0
M  V30 7102 O 677.544 2.51175 -5.46987 0
M  V30 7103 H 681.37 0.2865 -3.02346 0
M  V30 7104 H 678.955 0.0753806 -1.4921 0
M  V30 7105 H 680.837 2.73235 -3.20813 0
M  V30 7106 H 679.512 2.52042 -2.03117 0
M  V30 7107 H 678.419 0.854601 -3.64208 0
M  V30 7108 H 679.752 1.14355 -4.78731 0
M  V30 7109 N 681.404 1.57128 0.121893 0
M  V30 7110 C 682.652 1.84335 0.828548 0
M  V30 7111 C 682.973 0.736632 1.80551 0
M  V30 7112 O 682.243 -0.23962 1.94429 0
M  V30 7113 H 680.823 0.680108 0.30897 0
M  V30 7114 H 683.485 1.9459 0.109906 0
M  V30 7115 H 682.581 2.80152 1.37554 0
M  V30 7116 N 682.882 -0.391992 1.52647 0
M  V30 7117 C 683.83 -1.4991 1.77848 0
M  V30 7118 C 684.824 -1.56587 0.646282 0
M  V30 7119 O 686.03 -1.59789 0.828698 0
M  V30 7120 H 682.405 -0.498883 0.56269 0
M  V30 7121 H 684.376 -1.25847 2.70564 0
M  V30 7122 C 683.125 -2.87081 1.96163 0
M  V30 7123 H 682.448 -2.82692 2.82711 0
M  V30 7124 H 683.888 -3.63792 2.17787 0
M  V30 7125 C 682.347 -3.28822 0.733348 0
M  V30 7126 O 682.877 -4.01598 -0.0906481 0
M  V30 7127 N 681.083 -2.85068 0.564317 0
M  V30 7128 H 680.63 -2.26012 1.23598 0
M  V30 7129 H 680.588 -3.13355 -0.256166 0
M  V30 7130 N 684.36 -1.4356 -0.65026 0
M  V30 7131 C 685.29 -1.51758 -1.77459 0
M  V30 7132 C 686.271 -0.372019 -1.65982 0
M  V30 7133 O 687.456 -0.589627 -1.85033 0
M  V30 7134 C 684.586 -1.44302 -3.15902 0
M  V30 7135 C 683.54 -2.57138 -3.42146 0
M  V30 7136 C 682.866 -2.34735 -4.8042 0
M  V30 7137 C 684.166 -3.99373 -3.36598 0
M  V30 7138 H 685.86 -2.45863 -1.70855 0
M  V30 7139 H 683.406 -1.18333 -0.820566 0
M  V30 7140 H 685.359 -1.48641 -3.94314 0
M  V30 7141 H 684.083 -0.467026 -3.23244 0
M  V30 7142 H 682.742 -2.52157 -2.66106 0
M  V30 7143 H 682.39 -1.35372 -4.84441 0
M  V30 7144 H 682.09 -3.10375 -4.9894 0
M  V30 7145 H 683.614 -2.40862 -5.61086 0
M  V30 7146 H 685.028 -4.05826 -4.04942 0
M  V30 7147 H 683.425 -4.75063 -3.66654 0
M  V30 7148 H 684.495 -4.243 -2.34729 0
M  V30 7149 N 685.838 0.888903 -1.30139 0
M  V30 7150 C 687.084 1.6428 -1.18912 0
M  V30 7151 C 687.417 1.92499 0.256477 0
M  V30 7152 O 686.692 1.54312 1.18397 0
M  V30 7153 C 686.975 2.9851 -2.01405 0
M  V30 7154 C 686.828 2.77288 -3.54163 0
M  V30 7155 C 688.147 3.99383 -1.84882 0
M  V30 7156 H 685.266 0.596148 -0.433333 0
M  V30 7157 H 687.908 1.0289 -1.5973 0
M  V30 7158 H 686.058 3.50907 -1.66722 0
M  V30 7159 H 687.73 2.31709 -3.98884 0
M  V30 7160 H 685.973 2.11867 -3.78543 0
M  V30 7161 H 686.644 3.72717 -4.07168 0
M  V30 7162 H 689.12 3.56132 -2.15196 0
M  V30 7163 H 687.996 4.91222 -2.44934 0
M  V30 7164 H 688.257 4.34674 -0.806902 0
M  V30 7165 N 687.317 1.12792 1.10072 0
M  V30 7166 C 688.566 0.880232 1.81479 0
M  V30 7167 C 688.879 -0.595575 1.86312 0
M  V30 7168 O 690.085 -0.959979 2.53962 0
M  V30 7169 C 688.541 1.52514 3.25987 0
M  V30 7170 C 688.149 3.036 3.29441 0
M  V30 7171 C 689.893 1.35788 4.02196 0
M  V30 7172 C 687.8 3.61007 4.68431 0
M  V30 7173 H 686.73 0.325654 0.680048 0
M  V30 7174 H 689.381 1.35485 1.23758 0
M  V30 7175 H 687.763 0.978188 3.83728 0
M  V30 7176 H 688.937 3.64819 2.81502 0
M  V30 7177 H 687.252 3.19765 2.66719 0
M  V30 7178 H 689.849 1.76096 5.0487 0
M  V30 7179 H 690.192 0.301972 4.15203 0
M  V30 7180 H 690.725 1.87426 3.50879 0
M  V30 7181 H 687.464 4.66375 4.60625 0
M  V30 7182 H 686.984 3.04564 5.16721 0
M  V30 7183 H 688.663 3.60289 5.37402 0
M  V30 7184 N 688.795 -1.27931 0.920396 0
M  V30 7185 C 690.023 -1.98805 0.573087 0
M  V30 7186 C 690.438 -1.68724 -0.847201 0
M  V30 7187 O 689.795 -0.943699 -1.56207 0
M  V30 7188 C 689.846 -3.52971 0.780633 0
M  V30 7189 O 689.567 -3.81994 2.14504 0
M  V30 7190 C 691.068 -4.411 0.44105 0
M  V30 7191 H 688.288 -0.634651 0.21785 0
M  V30 7192 H 690.832 -1.62965 1.23542 0
M  V30 7193 H 688.987 -3.87048 0.165204 0
M  V30 7194 H 689.401 -4.76609 2.18962 0
M  V30 7195 H 690.875 -5.48312 0.637006 0
M  V30 7196 H 691.352 -4.34758 -0.62306 0
M  V30 7197 H 691.958 -4.12532 1.0343 0
M  V30 7198 N 690.273 -0.685099 -1.4193 0
M  V30 7199 C 691.55 -0.140152 -1.95097 0
M  V30 7200 C 691.93 1.34745 -1.62502 0
M  V30 7201 O 691.278 2.08872 -0.926534 0
M  V30 7202 C 691.488 -0.420268 -3.4646 0
M  V30 7203 C 692.836 -0.342338 -4.23218 0
M  V30 7204 O 693.86 -0.354592 -3.54431 0
M  V30 7205 O 692.719 -0.293404 -5.45712 0
M  V30 7206 H 689.813 -0.00885998 -0.826953 0
M  V30 7207 H 692.359 -0.760539 -1.51703 0
M  V30 7208 H 691.131 -1.45037 -3.63428 0
M  V30 7209 H 690.754 0.231616 -3.96925 0
M  V30 7210 N 691.751 1.51645 -0.429126 0
M  V30 7211 C 692.976 2.06917 0.141399 0
M  V30 7212 C 693.401 1.29527 1.36398 0
M  V30 7213 O 692.759 0.33094 1.78254 0
M  V30 7214 C 692.807 3.57776 0.4504 0
M  V30 7215 O 691.911 3.82639 1.53821 0
M  V30 7216 H 691.252 0.663978 0.0054647 0
M  V30 7217 H 693.782 1.95355 -0.608093 0
M  V30 7218 H 693.792 4.01894 0.703249 0
M  V30 7219 H 692.467 4.13532 -0.443213 0
M  V30 7220 H 691.044 3.5039 1.27597 0
M  V30 7221 N 693.229 0.160201 1.56784 0
M  V30 7222 C 694.475 -0.481855 1.9761 0
M  V30 7223 C 694.83 -1.61605 1.04411 0
M  V30 7224 O 694.123 -1.91426 0.0816402 0
M  V30 7225 C 694.317 -1.02259 3.42459 0
M  V30 7226 C 694.146 0.0576781 4.49663 0
M  V30 7227 C 692.916 0.503585 5.02784 0
M  V30 7228 C 695.114 0.854013 5.0716 0
M  V30 7229 N 693.096 1.56532 5.93608 0
M  V30 7230 C 694.467 1.76593 5.94319 0
M  V30 7231 C 696.522 0.900333 4.89692 0
M  V30 7232 C 695.225 2.72023 6.6588 0
M  V30 7233 C 697.251 1.84252 5.61965 0
M  V30 7234 C 696.613 2.74194 6.48843 0
M  V30 7235 H 692.712 -0.144748 0.768487 0
M  V30 7236 H 695.296 0.257853 1.92985 0
M  V30 7237 H 693.467 -1.73186 3.47651 0
M  V30 7238 H 695.199 -1.63235 3.70319 0
M  V30 7239 H 691.954 0.103361 4.73487 0
M  V30 7240 H 692.378 2.09634 6.43726 0
M  V30 7241 H 697.02 0.219023 4.22232 0
M  V30 7242 H 694.738 3.41147 7.3256 0
M  V30 7243 H 698.324 1.88433 5.5044 0
M  V30 7244 H 697.204 3.45912 7.03786 0
M  V30 7245 N 694.707 -1.5719 -0.113559 0
M  V30 7246 C 696.118 -1.74259 -0.670116 0
M  V30 7247 C 696.469 -0.779694 -1.80042 0
M  V30 7248 O 695.594 0.0461353 -2.16351 0
M  V30 7249 C 696.189 -3.15981 -1.22236 0
M  V30 7250 C 694.748 -3.34537 -1.72516 0
M  V30 7251 C 693.895 -2.70116 -0.627098 0
M  V30 7252 H 696.846 -1.58301 0.112396 0
M  V30 7253 H 696.867 -3.17832 -2.09197 0
M  V30 7254 H 696.379 -3.86038 -0.39949 0
M  V30 7255 H 694.48 -2.6953 -2.57263 0
M  V30 7256 H 694.593 -4.42737 -1.83086 0
M  V30 7257 H 692.957 -2.31501 -1.06204 0
M  V30 7258 H 693.74 -3.42802 0.184889 0
M  V30 7259 N 696.185 0.383891 -1.52853 0
M  V30 7260 C 697.433 1.12619 -1.67814 0
M  V30 7261 C 697.754 1.90354 -0.423141 0
M  V30 7262 O 697.024 1.87649 0.562554 0
M  V30 7263 H 695.604 0.418738 -0.618601 0
M  V30 7264 H 698.266 0.43495 -1.89985 0
M  V30 7265 H 697.362 1.82624 -2.5309 0
M  V30 7266 N 697.663 1.43903 0.642637 0
M  V30 7267 C 698.595 1.45857 1.768 0
M  V30 7268 C 699.608 0.353358 1.58919 0
M  V30 7269 O 700.797 0.618426 1.67445 0
M  V30 7270 C 697.897 1.26583 3.14372 0
M  V30 7271 C 697.07 2.50139 3.58817 0
M  V30 7272 C 696.129 2.25933 4.75227 0
M  V30 7273 O 695.155 2.99351 4.84125 0
M  V30 7274 N 696.357 1.28263 5.66153 0
M  V30 7275 H 699.122 2.42869 1.75598 0
M  V30 7276 H 696.683 1.39194 0.826832 0
M  V30 7277 H 698.675 1.08255 3.89953 0
M  V30 7278 H 697.245 0.37978 3.10284 0
M  V30 7279 H 696.465 2.83821 2.73568 0
M  V30 7280 H 697.753 3.32344 3.8526 0
M  V30 7281 H 697.151 0.676041 5.61646 0
M  V30 7282 H 695.708 1.15916 6.4141 0
M  V30 7283 N 699.141 -0.881989 1.30609 0
M  V30 7284 C 700.104 -1.96957 1.1722 0
M  V30 7285 C 701.104 -1.60472 0.102598 0
M  V30 7286 O 702.294 -1.70628 0.350943 0
M  V30 7287 C 699.426 -3.31463 0.796572 0
M  V30 7288 H 700.619 -2.10262 2.13846 0
M  V30 7289 H 698.172 -1.06877 1.14048 0
M  V30 7290 H 698.907 -3.23859 -0.169053 0
M  V30 7291 H 698.692 -3.59314 1.56959 0
M  V30 7292 H 700.182 -4.11233 0.72645 0
M  V30 7293 N 700.619 -1.13374 -1.09472 0
M  V30 7294 C 702.035 -0.871846 -1.33682 0
M  V30 7295 C 702.235 0.492847 -1.9538 0
M  V30 7296 O 701.291 1.23946 -2.19985 0
M  V30 7297 C 702.604 -1.99608 -2.24893 0
M  V30 7298 C 704.152 -2.02812 -2.38404 0
M  V30 7299 C 704.627 -3.14497 -3.3295 0
M  V30 7300 N 706.118 -3.14004 -3.40523 0
M  V30 7301 C 706.853 -3.97061 -4.13679 0
M  V30 7302 N 706.349 -4.90131 -4.89636 0
M  V30 7303 N 708.142 -3.85162 -4.09398 0
M  V30 7304 H 700.293 -2.01288 -0.677995 0
M  V30 7305 H 702.556 -0.876492 -0.361201 0
M  V30 7306 H 702.262 -2.98 -1.86786 0
M  V30 7307 H 702.136 -1.90981 -3.25278 0
M  V30 7308 H 704.523 -1.05034 -2.75775 0
M  V30 7309 H 704.604 -2.15511 -1.37799 0
M  V30 7310 H 704.248 -4.12514 -2.96302 0
M  V30 7311 H 704.178 -2.99035 -4.33458 0
M  V30 7312 H 706.669 -2.46587 -2.86362 0
M  V30 7313 H 706.982 -5.49996 -5.42885 0
M  V30 7314 H 705.327 -4.94138 -4.88726 0
M  V30 7315 H 708.518 -3.11779 -3.49158 0
M  V30 7316 H 708.691 -4.5012 -4.6615 0
M  V30 7317 N 702.098 1.27442 -0.927168 0
M  V30 7318 C 703.326 1.98498 -0.583622 0
M  V30 7319 C 703.741 1.69171 0.838241 0
M  V30 7320 O 703.098 0.951969 1.55704 0
M  V30 7321 C 703.149 3.52552 -0.799341 0
M  V30 7322 O 702.87 3.80851 -2.16527 0
M  V30 7323 C 704.371 4.4086 -0.464436 0
M  V30 7324 H 701.591 0.633487 -0.221213 0
M  V30 7325 H 704.135 1.62308 -1.24404 0
M  V30 7326 H 702.29 3.86955 -0.185728 0
M  V30 7327 H 702.704 4.75441 -2.21487 0
M  V30 7328 H 704.178 5.47967 -0.666075 0
M  V30 7329 H 704.655 4.35082 0.599995 0
M  V30 7330 H 705.261 4.11977 -1.05617 0
M  V30 7331 N 703.576 0.692616 1.41565 0
M  V30 7332 C 704.506 0.0397325 2.33466 0
M  V30 7333 C 705.487 -0.770334 1.51657 0
M  V30 7334 O 706.672 -0.723903 1.80203 0
M  V30 7335 C 703.802 -0.899495 3.3545 0
M  V30 7336 C 702.756 -0.196738 4.27548 0
M  V30 7337 C 702.082 -1.25012 5.19881 0
M  V30 7338 C 703.382 0.935158 5.1386 0
M  V30 7339 H 705.076 0.807296 2.88311 0
M  V30 7340 H 702.622 0.389665 1.38628 0
M  V30 7341 H 704.575 -1.36545 3.98665 0
M  V30 7342 H 703.299 -1.69869 2.78948 0
M  V30 7343 H 701.958 0.249158 3.65752 0
M  V30 7344 H 701.606 -2.04177 4.59696 0
M  V30 7345 H 701.306 -0.784931 5.82334 0
M  V30 7346 H 702.83 -1.71665 5.85972 0
M  V30 7347 H 704.244 0.549619 5.70659 0
M  V30 7348 H 702.641 1.32726 5.85238 0
M  V30 7349 H 703.711 1.77613 4.512 0
M  V30 7350 N 705.054 -1.51416 0.437162 0
M  V30 7351 C 706.301 -2.02086 -0.129364 0
M  V30 7352 C 706.629 -1.32133 -1.42728 0
M  V30 7353 O 705.884 -0.424916 -1.91031 0
M  V30 7354 C 706.183 -3.55203 -0.39564 0
M  V30 7355 C 705.849 -4.43447 0.81644 0
M  V30 7356 C 704.511 -4.67285 1.14884 0
M  V30 7357 C 706.863 -4.95219 1.62503 0
M  V30 7358 C 704.191 -5.40141 2.29052 0
M  V30 7359 C 706.543 -5.69327 2.7577 0
M  V30 7360 C 705.207 -5.91429 3.09464 0
M  V30 7361 H 704.477 -0.739486 -0.0473375 0
M  V30 7362 H 707.124 -1.82368 0.584321 0
M  V30 7363 H 705.429 -3.73252 -1.19121 0
M  V30 7364 H 707.126 -3.91944 -0.847399 0
M  V30 7365 H 703.716 -4.2509 0.547422 0
M  V30 7366 H 707.9 -4.76686 1.38144 0
M  V30 7367 H 703.156 -5.55468 2.55471 0
M  V30 7368 H 707.33 -6.08433 3.38795 0
M  V30 7369 H 704.957 -6.47662 3.98042 0
M  V30 7370 N 706.532 -0.168513 -1.56696 0
M  V30 7371 C 707.78 0.476216 -1.96409 0
M  V30 7372 C 708.101 1.63968 -1.05544 0
M  V30 7373 O 707.371 1.95525 -0.121235 0
M  V30 7374 H 705.951 0.178921 -0.725256 0
M  V30 7375 H 708.613 -0.249042 -1.93302 0
M  V30 7376 H 707.709 0.838094 -3.00637 0
M  V30 7377 N 708.01 1.57248 0.105221 0
M  V30 7378 C 709.287 1.76566 0.841647 0
M  V30 7379 C 709.667 0.747566 1.9742 0
M  V30 7380 O 709.015 -0.225886 2.27381 0
M  V30 7381 C 709.225 3.22016 1.3456 0
M  V30 7382 C 710.573 3.84911 1.79244 0
M  V30 7383 O 711.597 3.25703 1.44207 0
M  V30 7384 O 710.456 4.89008 2.43995 0
M  V30 7385 H 707.55 0.723443 0.400698 0
M  V30 7386 H 710.096 1.69472 0.0878893 0
M  V30 7387 H 708.868 3.87644 0.533685 0
M  V30 7388 H 708.491 3.33703 2.16167 0
M  V30 7389 N 709.488 -0.375779 1.53054 0
M  V30 7390 C 710.438 -1.45965 1.75152 0
M  V30 7391 C 711.422 -1.49059 0.605823 0
M  V30 7392 O 712.614 -1.54472 0.864133 0
M  V30 7393 C 709.743 -2.83524 1.93569 0
M  V30 7394 C 708.829 -2.84949 3.1411 0
M  V30 7395 N 709.22 -2.56029 4.36214 0
M  V30 7396 C 707.518 -3.16113 3.14625 0
M  V30 7397 C 708.219 -2.64873 5.17897 0
M  V30 7398 N 707.195 -2.99159 4.53878 0
M  V30 7399 H 710.997 -1.22454 2.67175 0
M  V30 7400 H 708.511 -0.583867 1.51541 0
M  V30 7401 H 710.508 -3.61578 2.07525 0
M  V30 7402 H 709.168 -3.08008 1.02768 0
M  V30 7403 H 710.179 -2.29808 4.64121 0
M  V30 7404 H 706.856 -3.45977 2.3368 0
M  V30 7405 H 708.246 -2.45947 6.25268 0
M  V30 7406 N 710.966 -1.44241 -0.634997 0
M  V30 7407 C 711.876 -1.53293 -1.77591 0
M  V30 7408 C 712.892 -0.418831 -1.68884 0
M  V30 7409 O 714.068 -0.675619 -1.8973 0
M  V30 7410 C 711.133 -1.47075 -3.13958 0
M  V30 7411 C 710.194 -2.69304 -3.34326 0
M  V30 7412 C 709.427 -2.63374 -4.64187 0
M  V30 7413 O 709.65 -1.69161 -5.44739 0
M  V30 7414 O 708.584 -3.54166 -4.86673 0
M  V30 7415 H 712.41 -2.49673 -1.72908 0
M  V30 7416 H 709.995 -1.26445 -0.795745 0
M  V30 7417 H 711.877 -1.46117 -3.95257 0
M  V30 7418 H 710.552 -0.538373 -3.19192 0
M  V30 7419 H 709.459 -2.75831 -2.52721 0
M  V30 7420 H 710.792 -3.61576 -3.33951 0
M  V30 7421 N 712.444 0.87505 -1.31075 0
M  V30 7422 C 713.86 1.15997 -1.09622 0
M  V30 7423 C 714.06 2.01036 0.136611 0
M  V30 7424 O 713.116 2.38559 0.827397 0
M  V30 7425 C 714.429 1.85702 -2.36506 0
M  V30 7426 C 715.977 1.98425 -2.42067 0
M  V30 7427 C 716.452 2.71544 -3.68819 0
M  V30 7428 N 717.943 2.79084 -3.69684 0
M  V30 7429 C 718.678 3.36259 -4.64454 0
M  V30 7430 N 718.174 3.94406 -5.69575 0
M  V30 7431 N 719.967 3.34169 -4.51982 0
M  V30 7432 H 712.118 0.308258 -2.10151 0
M  V30 7433 H 714.381 0.199145 -0.926847 0
M  V30 7434 H 714.087 1.30663 -3.26527 0
M  V30 7435 H 713.961 2.86017 -2.45915 0
M  V30 7436 H 716.348 2.5263 -1.52518 0
M  V30 7437 H 716.429 0.971682 -2.36626 0
M  V30 7438 H 716.073 2.18008 -4.58732 0
M  V30 7439 H 716.003 3.73198 -3.71525 0
M  V30 7440 H 718.494 2.3781 -2.93691 0
M  V30 7441 H 718.807 4.36129 -6.37974 0
M  V30 7442 H 717.152 3.92797 -5.73355 0
M  V30 7443 H 720.343 2.87977 -3.69035 0
M  V30 7444 H 720.516 3.78431 -5.26017 0
M  V30 7445 N 713.922 1.13953 1.08869 0
M  V30 7446 C 715.169 0.90481 1.81161 0
M  V30 7447 C 715.497 -0.568824 1.85996 0
M  V30 7448 O 714.752 -1.43723 1.32823 0
M  V30 7449 C 715.051 1.44495 3.26888 0
M  V30 7450 C 714.717 2.93641 3.42178 0
M  V30 7451 C 713.379 3.34361 3.46059 0
M  V30 7452 C 715.731 3.89568 3.46246 0
M  V30 7453 C 713.059 4.69681 3.51592 0
M  V30 7454 C 715.411 5.2474 3.53314 0
M  V30 7455 C 714.075 5.64979 3.55465 0
M  V30 7456 H 713.345 0.331094 0.662916 0
M  V30 7457 H 715.992 1.42242 1.28217 0
M  V30 7458 H 714.297 0.848169 3.82509 0
M  V30 7459 H 715.994 1.23934 3.81368 0
M  V30 7460 H 712.584 2.61156 3.39846 0
M  V30 7461 H 716.768 3.59192 3.42483 0
M  V30 7462 H 712.024 5.00224 3.51547 0
M  V30 7463 H 716.198 5.98882 3.55406 0
M  V30 7464 H 713.825 6.69821 3.59505 0
M  V30 7465 N 715.4 -1.26948 0.933913 0
M  V30 7466 C 716.31 -2.30366 0.443671 0
M  V30 7467 C 717.326 -1.67284 -0.478745 0
M  V30 7468 O 718.502 -1.98156 -0.360043 0
M  V30 7469 C 715.567 -3.45485 -0.289974 0
M  V30 7470 C 714.628 -4.24069 0.668114 0
M  V30 7471 C 713.861 -5.33691 -0.0306138 0
M  V30 7472 O 714.084 -5.5656 -1.24888 0
M  V30 7473 O 713.018 -5.98441 0.644384 0
M  V30 7474 H 716.844 -2.74349 1.30254 0
M  V30 7475 H 714.429 -1.32012 0.699506 0
M  V30 7476 H 716.311 -4.15486 -0.70353 0
M  V30 7477 H 714.986 -3.03546 -1.12435 0
M  V30 7478 H 713.893 -3.56579 1.13147 0
M  V30 7479 H 715.226 -4.69739 1.46989 0
M  V30 7480 N 716.879 -0.700114 -1.41195 0
M  V30 7481 C 717.811 0.00155823 -2.292 0
M  V30 7482 C 718.824 0.739736 -1.45023 0
M  V30 7483 O 720.013 0.589684 -1.68478 0
M  V30 7484 C 717.113 1.02635 -3.22985 0
M  V30 7485 C 716.286 0.356871 -4.35942 0
M  V30 7486 C 715.345 1.28491 -5.10271 0
M  V30 7487 O 714.371 0.775562 -5.63892 0
M  V30 7488 N 715.573 2.61699 -5.18164 0
M  V30 7489 H 718.338 -0.754008 -2.9006 0
M  V30 7490 H 715.899 -0.546504 -1.52397 0
M  V30 7491 H 717.891 1.64902 -3.6958 0
M  V30 7492 H 716.461 1.68341 -2.63401 0
M  V30 7493 H 715.681 -0.445753 -3.91672 0
M  V30 7494 H 716.969 -0.108469 -5.08684 0
M  V30 7495 H 716.367 3.05594 -4.76056 0
M  V30 7496 H 714.924 3.19149 -5.6832 0
M  V30 7497 N 718.357 1.51182 -0.445186 0
M  V30 7498 C 719.585 2.06568 0.117091 0
M  V30 7499 C 720 1.31182 1.35781 0
M  V30 7500 O 719.357 0.373605 1.78635 0
M  V30 7501 C 719.408 3.58917 0.431408 0
M  V30 7502 O 719.129 4.31456 -0.760078 0
M  V30 7503 C 720.63 4.30843 1.0435 0
M  V30 7504 H 717.85 0.670985 0.00444436 0
M  V30 7505 H 720.394 1.94666 -0.626525 0
M  V30 7506 H 718.549 3.70708 1.12493 0
M  V30 7507 H 718.963 5.22215 -0.489048 0
M  V30 7508 H 720.437 5.38499 1.21337 0
M  V30 7509 H 720.914 3.89644 2.02667 0
M  V30 7510 H 721.52 4.23516 0.38913 0
M  V30 7511 N 719.835 0.176821 1.56605 0
M  V30 7512 C 721.065 -0.472142 2.01133 0
M  V30 7513 C 721.473 -1.56979 1.05614 0
M  V30 7514 O 720.816 -1.83632 0.0500137 0
M  V30 7515 C 720.878 -1.10547 3.42081 0
M  V30 7516 C 720.542 -0.148806 4.56758 0
M  V30 7517 C 721.539 0.634939 5.16008 0
M  V30 7518 C 719.224 -0.0430325 5.02282 0
M  V30 7519 C 721.218 1.5116 6.19217 0
M  V30 7520 C 718.905 0.83721 6.05338 0
M  V30 7521 C 719.903 1.61311 6.63677 0
M  V30 7522 O 719.591 2.47863 7.64735 0
M  V30 7523 H 719.323 -0.124725 0.664394 0
M  V30 7524 H 721.877 0.277329 2.03519 0
M  V30 7525 H 720.107 -1.90318 3.36625 0
M  V30 7526 H 721.796 -1.6572 3.70529 0
M  V30 7527 H 722.562 0.563424 4.81716 0
M  V30 7528 H 718.441 -0.636753 4.56581 0
M  V30 7529 H 721.985 2.11767 6.64681 0
M  V30 7530 H 717.882 0.909908 6.39055 0
M  V30 7531 H 718.65 2.4144 7.8208 0
M  V30 7532 N 721.313 -1.57302 -0.09688 0
M  V30 7533 C 722.56 -1.85997 -0.800699 0
M  V30 7534 C 722.888 -0.765089 -1.7882 0
M  V30 7535 O 722.143 0.241492 -1.94204 0
M  V30 7536 C 722.442 -3.21272 -1.56586 0
M  V30 7537 C 722.108 -4.45104 -0.72064 0
M  V30 7538 C 720.77 -4.78723 -0.487632 0
M  V30 7539 C 723.122 -5.2103 -0.132948 0
M  V30 7540 C 720.45 -5.85697 0.34296 0
M  V30 7541 C 722.802 -6.28881 0.684957 0
M  V30 7542 C 721.466 -6.61017 0.928073 0
M  V30 7543 H 720.736 -0.680613 -0.292997 0
M  V30 7544 H 723.383 -1.91399 -0.0622474 0
M  V30 7545 H 721.688 -3.11547 -2.37583 0
M  V30 7546 H 723.385 -3.40702 -2.11478 0
M  V30 7547 H 719.975 -4.18777 -0.912359 0
M  V30 7548 H 724.159 -4.95392 -0.300132 0
M  V30 7549 H 719.415 -6.09008 0.540317 0
M  V30 7550 H 723.589 -6.86886 1.14721 0
M  V30 7551 H 721.216 -7.43738 1.57348 0
M  V30 7552 N 722.791 0.367657 -1.53252 0
M  V30 7553 C 724.016 1.13566 -1.73544 0
M  V30 7554 C 724.441 1.82329 -0.462344 0
M  V30 7555 O 723.799 1.71655 0.583472 0
M  V30 7556 C 723.847 2.14322 -2.89997 0
M  V30 7557 O 722.951 3.21359 -2.58461 0
M  V30 7558 H 722.292 0.329614 -0.576412 0
M  V30 7559 H 724.822 0.425417 -2.00128 0
M  V30 7560 H 724.832 2.57958 -3.16104 0
M  V30 7561 H 723.507 1.63664 -3.82344 0
M  V30 7562 H 722.084 2.8271 -2.43165 0
M  V30 7563 N 724.269 1.44576 0.627338 0
M  V30 7564 C 725.497 1.51048 1.41394 0
M  V30 7565 C 725.912 0.136568 1.88305 0
M  V30 7566 O 725.269 -0.858251 1.6106 0
M  V30 7567 C 725.32 2.47837 2.63172 0
M  V30 7568 O 725.041 3.79887 2.18215 0
M  V30 7569 C 726.542 2.63811 3.56257 0
M  V30 7570 H 723.762 0.512171 0.4335 0
M  V30 7571 H 726.306 1.89576 0.766878 0
M  V30 7572 H 724.461 2.12433 3.23961 0
M  V30 7573 H 724.875 4.32177 2.97192 0
M  V30 7574 H 726.349 3.35554 4.38301 0
M  V30 7575 H 726.826 1.69169 4.05313 0
M  V30 7576 H 727.432 3.0013 3.01333 0
M  V30 7577 N 725.747 -0.868086 1.31537 0
M  V30 7578 C 726.994 -1.62127 1.2133 0
M  V30 7579 C 727.322 -1.93158 -0.2281 0
M  V30 7580 O 726.577 -1.5632 -1.1774 0
M  V30 7581 C 726.876 -2.95889 2.0046 0
M  V30 7582 C 726.542 -2.84343 3.49943 0
M  V30 7583 C 725.204 -2.80901 3.90702 0
M  V30 7584 C 727.556 -2.71243 4.45058 0
M  V30 7585 C 724.884 -2.6222 5.24841 0
M  V30 7586 C 727.236 -2.54098 5.79325 0
M  V30 7587 C 725.9 -2.4904 6.19302 0
M  V30 7588 H 725.17 -0.593265 0.443979 0
M  V30 7589 H 727.817 -1.00803 1.62822 0
M  V30 7590 H 726.122 -3.61259 1.51655 0
M  V30 7591 H 727.819 -3.53161 1.89942 0
M  V30 7592 H 724.409 -2.8784 3.17563 0
M  V30 7593 H 728.593 -2.72956 4.14498 0
M  V30 7594 H 723.849 -2.56731 5.54887 0
M  V30 7595 H 728.023 -2.42938 6.52652 0
M  V30 7596 H 725.65 -2.34324 7.23185 0
M  V30 7597 N 727.225 -1.14528 -1.08264 0
M  V30 7598 C 728.172 -0.833556 -2.15222 0
M  V30 7599 C 729.142 0.209539 -1.64773 0
M  V30 7600 O 730.327 0.0791388 -1.90636 0
M  V30 7601 C 727.467 -0.318799 -3.43624 0
M  V30 7602 C 726.58 -1.42237 -4.07913 0
M  V30 7603 C 725.715 -0.864704 -5.24115 0
M  V30 7604 C 724.754 -1.94585 -5.80347 0
M  V30 7605 N 723.891 -1.40525 -6.87893 0
M  V30 7606 H 728.731 -1.74965 -2.41228 0
M  V30 7607 H 726.268 -0.873169 -1.18381 0
M  V30 7608 H 728.226 -0.00213088 -4.172 0
M  V30 7609 H 726.856 0.560397 -3.17898 0
M  V30 7610 H 725.908 -1.8554 -3.32083 0
M  V30 7611 H 727.22 -2.23901 -4.45724 0
M  V30 7612 H 726.374 -0.500025 -6.04636 0
M  V30 7613 H 725.113 -0.0171219 -4.87697 0
M  V30 7614 H 724.118 -2.31946 -4.98479 0
M  V30 7615 H 725.343 -2.79704 -6.18823 0
M  V30 7616 H 723.289 -0.579873 -6.53432 0
M  V30 7617 H 723.206 -2.15825 -7.24538 0
M  V30 7618 H 724.474 -1.06852 -7.72142 0
M  V30 7619 N 728.703 1.26451 -0.940633 0
M  V30 7620 C 729.651 2.28389 -0.440581 0
M  V30 7621 C 730.645 1.62402 0.481859 0
M  V30 7622 O 731.851 1.76361 0.360132 0
M  V30 7623 H 728.226 0.741716 -0.123938 0
M  V30 7624 H 730.197 2.67967 -1.31288 0
M  V30 7625 C 728.946 3.46576 0.279364 0
M  V30 7626 H 728.269 3.97574 -0.421274 0
M  V30 7627 H 729.709 4.19826 0.59348 0
M  V30 7628 C 728.168 3.01815 1.49697 0
M  V30 7629 O 728.698 3.06607 2.59529 0
M  V30 7630 N 726.904 2.57163 1.35334 0
M  V30 7631 H 726.451 2.53464 0.459743 0
M  V30 7632 H 726.409 2.27578 2.16923 0
M  V30 7633 N 730.181 0.707592 1.40822 0
M  V30 7634 C 731.114 -0.000859377 2.282 0
M  V30 7635 C 732.092 -0.7758 1.42899 0
M  V30 7636 O 733.276 -0.76411 1.72318 0
M  V30 7637 C 730.403 -1.00861 3.23334 0
M  V30 7638 C 729.449 -0.32543 4.25257 0
M  V30 7639 S 730.282 0.940908 5.27169 0
M  V30 7640 C 731.438 -0.0649459 6.25866 0
M  V30 7641 H 731.671 0.740207 2.87938 0
M  V30 7642 H 729.204 0.498311 1.46138 0
M  V30 7643 H 731.162 -1.58485 3.78672 0
M  V30 7644 H 729.823 -1.72233 2.62668 0
M  V30 7645 H 729.016 -1.08697 4.92139 0
M  V30 7646 H 728.618 0.178044 3.73576 0
M  V30 7647 H 730.91 -0.914377 6.71301 0
M  V30 7648 H 731.853 0.570276 7.058 0
M  V30 7649 H 732.261 -0.425098 5.62897 0
M  V30 7650 N 731.66 -1.50943 0.453197 0
M  V30 7651 C 732.89 -2.06328 -0.105981 0
M  V30 7652 C 733.298 -1.31909 -1.35634 0
M  V30 7653 O 732.641 -0.376607 -1.79798 0
M  V30 7654 C 732.703 -3.5631 -0.477868 0
M  V30 7655 C 732.367 -4.52093 0.667925 0
M  V30 7656 C 733.364 -4.96421 1.54475 0
M  V30 7657 C 731.049 -4.95001 0.853168 0
M  V30 7658 C 733.043 -5.82346 2.59138 0
M  V30 7659 C 730.73 -5.80713 1.90305 0
M  V30 7660 C 731.728 -6.24284 2.77053 0
M  V30 7661 O 731.416 -7.08291 3.80236 0
M  V30 7662 H 731.148 -0.675986 -0.00427247 0
M  V30 7663 H 733.702 -1.95314 0.635738 0
M  V30 7664 H 731.932 -3.65163 -1.27252 0
M  V30 7665 H 733.621 -3.94138 -0.970039 0
M  V30 7666 H 734.387 -4.63953 1.41324 0
M  V30 7667 H 730.266 -4.60619 0.187482 0
M  V30 7668 H 733.81 -6.16276 3.2688 0
M  V30 7669 H 729.707 -6.12593 2.03469 0
M  V30 7670 H 730.475 -7.26504 3.77007 0
M  V30 7671 N 733.138 -0.185124 -1.56509 0
M  V30 7672 C 734.385 0.456258 -1.97293 0
M  V30 7673 C 734.713 1.62314 -1.07165 0
M  V30 7674 O 733.968 1.95398 -0.108621 0
M  V30 7675 C 734.267 0.967977 -3.44042 0
M  V30 7676 C 733.933 -0.084476 -4.50821 0
M  V30 7677 C 732.595 -0.373689 -4.79747 0
M  V30 7678 C 734.947 -0.79812 -5.15053 0
M  V30 7679 C 732.275 -1.3817 -5.70198 0
M  V30 7680 C 734.627 -1.79521 -6.06593 0
M  V30 7681 C 733.291 -2.09172 -6.3388 0
M  V30 7682 H 732.561 0.166957 -0.721946 0
M  V30 7683 H 735.208 -0.279992 -1.89442 0
M  V30 7684 H 733.513 1.78231 -3.48914 0
M  V30 7685 H 735.21 1.47347 -3.72948 0
M  V30 7686 H 731.8 0.15111 -4.28334 0
M  V30 7687 H 735.984 -0.587903 -4.92806 0
M  V30 7688 H 731.24 -1.61745 -5.89617 0
M  V30 7689 H 735.414 -2.35347 -6.55427 0
M  V30 7690 H 733.041 -2.87427 -7.03768 0
M  V30 7691 N 734.616 1.57351 0.0885366 0
M  V30 7692 C 735.841 1.91011 0.80805 0
M  V30 7693 C 736.266 0.780009 1.71165 0
M  V30 7694 O 735.624 -0.268083 1.79307 0
M  V30 7695 C 735.672 3.23562 1.59185 0
M  V30 7696 O 734.776 3.11615 2.7013 0
M  V30 7697 H 734.117 0.625943 0.221565 0
M  V30 7698 H 736.647 2.04507 0.0617954 0
M  V30 7699 H 736.657 3.5703 1.97468 0
M  V30 7700 H 735.332 4.05398 0.928741 0
M  V30 7701 H 733.909 2.89673 2.34827 0
M  V30 7702 N 736.094 -0.359525 1.53444 0
M  V30 7703 C 737.342 -1.09935 1.69584 0
M  V30 7704 C 737.663 -1.89656 0.453371 0
M  V30 7705 O 736.933 -1.8852 -0.53263 0
M  V30 7706 H 735.513 -0.408843 0.625185 0
M  V30 7707 H 738.175 -0.40467 1.90653 0
M  V30 7708 H 737.271 -1.78575 2.55964 0
M  V30 7709 N 737.572 -1.44907 -0.619662 0
M  V30 7710 C 738.849 -1.38766 -1.37852 0
M  V30 7711 C 739.229 -0.0521393 -2.11036 0
M  V30 7712 O 738.577 0.965613 -2.07095 0
M  V30 7713 C 738.787 -2.59344 -2.33541 0
M  V30 7714 C 740.135 -3.03909 -2.96521 0
M  V30 7715 O 741.159 -2.59631 -2.43865 0
M  V30 7716 O 740.018 -3.80713 -3.92071 0
M  V30 7717 H 737.112 -0.550083 -0.617525 0
M  V30 7718 H 739.658 -1.57015 -0.643759 0
M  V30 7719 H 738.43 -3.48142 -1.78642 0
M  V30 7720 H 738.053 -2.43367 -3.14417 0
M  V30 7721 N 739.05 0.861098 -1.31996 0
M  V30 7722 C 740.298 1.61162 -1.21947 0
M  V30 7723 C 740.619 1.93751 0.220351 0
M  V30 7724 O 739.889 1.59069 1.14341 0
M  V30 7725 H 738.469 0.597485 -0.448353 0
M  V30 7726 H 741.131 1.03039 -1.65436 0
M  V30 7727 H 740.227 2.55138 -1.79752 0
M  V30 7728 N 740.528 1.15101 1.07655 0
M  V30 7729 C 741.491 0.847625 2.12951 0
M  V30 7730 C 742.491 -0.151227 1.60087 0
M  V30 7731 O 743.681 0.0780399 1.74025 0
M  V30 7732 C 740.813 0.265 3.39868 0
M  V30 7733 H 742.006 1.7809 2.41296 0
M  V30 7734 H 739.559 0.958072 1.23494 0
M  V30 7735 H 740.294 -0.676625 3.17163 0
M  V30 7736 H 740.079 0.984554 3.79538 0
M  V30 7737 H 741.569 0.0702121 4.17541 0
M  V30 7738 N 742.006 -1.2595 0.947325 0
M  V30 7739 C 743.422 -1.45737 0.650597 0
M  V30 7740 C 743.622 -1.85189 -0.794188 0
M  V30 7741 O 742.678 -1.97738 -1.57022 0
M  V30 7742 C 743.991 -2.53505 1.61728 0
M  V30 7743 C 745.539 -2.67351 1.62765 0
M  V30 7744 C 746.014 -3.78296 2.58179 0
M  V30 7745 N 747.505 -3.85696 2.56501 0
M  V30 7746 C 748.24 -4.71012 3.2701 0
M  V30 7747 N 747.736 -5.60669 4.06966 0
M  V30 7748 N 749.529 -4.64912 3.15932 0
M  V30 7749 H 741.68 -0.986327 1.8811 0
M  V30 7750 H 743.943 -0.494639 0.808725 0
M  V30 7751 H 743.649 -2.31357 2.6489 0
M  V30 7752 H 743.523 -3.51281 1.3741 0
M  V30 7753 H 745.91 -2.88869 0.603241 0
M  V30 7754 H 745.991 -1.69998 1.91139 0
M  V30 7755 H 745.635 -3.5753 3.60742 0
M  V30 7756 H 745.565 -4.75117 2.27093 0
M  V30 7757 H 748.056 -3.21601 1.98447 0
M  V30 7758 H 748.369 -6.22677 4.57704 0
M  V30 7759 H 746.714 -5.60402 4.11066 0
M  V30 7760 H 749.905 -3.93874 2.52945 0
M  V30 7761 H 750.078 -5.3118 3.71149 0
M  V30 7762 N 743.484 -0.715051 -1.40445 0
M  V30 7763 C 744.9 -0.388555 -1.54798 0
M  V30 7764 C 745.1 1.10271 -1.68649 0
M  V30 7765 O 744.156 1.88875 -1.67578 0
M  V30 7766 C 745.469 -1.15414 -2.77669 0
M  V30 7767 C 747.017 -1.14039 -2.91486 0
M  V30 7768 C 747.492 -1.88812 -4.1727 0
M  V30 7769 N 748.983 -1.85878 -4.24268 0
M  V30 7770 C 749.718 -2.40558 -5.20499 0
M  V30 7771 N 749.214 -3.03791 -6.22642 0
M  V30 7772 N 751.007 -2.30703 -5.12574 0
M  V30 7773 H 743.158 -1.68201 -1.297 0
M  V30 7774 H 745.421 -0.710915 -0.627139 0
M  V30 7775 H 745.127 -2.20853 -2.7371 0
M  V30 7776 H 745.001 -0.745412 -3.69761 0
M  V30 7777 H 747.388 -0.0941996 -2.9495 0
M  V30 7778 H 747.469 -1.58834 -2.00513 0
M  V30 7779 H 747.113 -2.93422 -4.14568 0
M  V30 7780 H 747.043 -1.41438 -5.0725 0
M  V30 7781 H 749.534 -1.39794 -3.51093 0
M  V30 7782 H 749.847 -3.43032 -6.92495 0
M  V30 7783 H 748.192 -3.07875 -6.23087 0
M  V30 7784 H 751.383 -1.80961 -4.31707 0
M  V30 7785 H 751.556 -2.73618 -5.87398 0
M  V30 7786 N 744.962 1.50701 -0.461195 0
M  V30 7787 C 746.239 1.94958 0.158296 0
M  V30 7788 C 746.619 1.40111 1.57899 0
M  V30 7789 O 745.967 0.597976 2.20537 0
M  V30 7790 C 746.177 3.48821 0.11172 0
M  V30 7791 C 747.525 4.23499 0.30552 0
M  V30 7792 O 748.549 3.557 0.188758 0
M  V30 7793 O 747.408 5.43823 0.540244 0
M  V30 7794 H 744.502 0.818674 0.117054 0
M  V30 7795 H 747.048 1.61508 -0.520888 0
M  V30 7796 H 745.82 3.81263 -0.880577 0
M  V30 7797 H 745.443 3.88781 0.832791 0
M  V30 7798 N 746.441 0.193421 1.56409 0
M  V30 7799 C 747.351 -0.740112 2.2262 0
M  V30 7800 C 748.367 -1.23597 1.22474 0
M  V30 7801 O 749.543 -1.28348 1.55206 0
M  V30 7802 C 746.608 -1.94317 2.87127 0
M  V30 7803 C 745.669 -1.49205 4.02538 0
M  V30 7804 C 744.902 -2.63776 4.63959 0
M  V30 7805 O 745.125 -3.81215 4.24301 0
M  V30 7806 O 744.059 -2.36585 5.53454 0
M  V30 7807 H 747.885 -0.206238 3.02999 0
M  V30 7808 H 745.47 -0.0357938 1.49357 0
M  V30 7809 H 747.352 -2.64633 3.27944 0
M  V30 7810 H 746.027 -2.46568 2.09728 0
M  V30 7811 H 744.934 -0.757738 3.66346 0
M  V30 7812 H 746.267 -1.01622 4.81595 0
M  V30 7813 N 747.919 -1.57396 -0.0801906 0
M  V30 7814 C 749.196 -1.77883 -0.813451 0
M  V30 7815 C 749.576 -0.778879 -1.96206 0
M  V30 7816 O 748.924 0.189683 -2.27711 0
M  V30 7817 C 749.134 -3.24116 -1.2942 0
M  V30 7818 C 750.482 -3.87714 -1.73098 0
M  V30 7819 O 751.506 -3.27956 -1.39007 0
M  V30 7820 O 750.365 -4.92828 -2.36184 0
M  V30 7821 H 747.459 -0.729727 -0.389138 0
M  V30 7822 H 750.005 -1.69591 -0.0609166 0
M  V30 7823 H 748.777 -3.88443 -0.471947 0
M  V30 7824 H 748.4 -3.371 -2.1083 0
M  V30 7825 N 749.397 0.351382 -1.53633 0
M  V30 7826 C 750.645 1.09034 -1.70165 0
M  V30 7827 C 750.966 1.89413 -0.463422 0
M  V30 7828 O 750.236 1.888 0.522624 0
M  V30 7829 H 748.816 0.405522 -0.627344 0
M  V30 7830 H 751.478 0.394554 -1.90865 0
M  V30 7831 H 750.574 1.77215 -2.56907 0
M  V30 7832 N 750.875 1.45233 0.611969 0
M  V30 7833 C 752.105 1.52318 1.39581 0
M  V30 7834 C 752.513 0.153093 1.8858 0
M  V30 7835 O 751.856 -0.854792 1.62601 0
M  V30 7836 C 751.918 2.4426 2.63775 0
M  V30 7837 C 751.582 3.91079 2.36445 0
M  V30 7838 C 752.579 4.81099 1.97079 0
M  V30 7839 C 750.264 4.35958 2.49492 0
M  V30 7840 C 752.258 6.14002 1.71115 0
M  V30 7841 C 749.945 5.68903 2.23142 0
M  V30 7842 C 750.943 6.57744 1.84015 0
M  V30 7843 O 750.631 7.88226 1.5797 0
M  V30 7844 H 750.363 0.518428 0.43383 0
M  V30 7845 H 752.917 1.91067 0.753837 0
M  V30 7846 H 751.147 2.00474 3.30677 0
M  V30 7847 H 752.836 2.42077 3.25812 0
M  V30 7848 H 753.602 4.47692 1.86539 0
M  V30 7849 H 749.481 3.67053 2.78914 0
M  V30 7850 H 753.025 6.83305 1.405 0
M  V30 7851 H 748.922 6.01866 2.33297 0
M  V30 7852 H 749.69 8.00211 1.72058 0
M  V30 7853 N 752.353 -0.854086 1.3245 0
M  V30 7854 C 753.583 -1.63836 1.25862 0
M  V30 7855 C 753.991 -1.88383 -0.175588 0
M  V30 7856 O 753.334 -1.45353 -1.1233 0
M  V30 7857 C 753.396 -3.02068 1.94923 0
M  V30 7858 C 753.06 -3.0056 3.44257 0
M  V30 7859 C 754.057 -2.77368 4.39731 0
M  V30 7860 C 751.742 -3.21177 3.862 0
M  V30 7861 C 753.736 -2.74797 5.75122 0
M  V30 7862 C 751.423 -3.18234 5.217 0
M  V30 7863 C 752.421 -2.95072 6.15972 0
M  V30 7864 O 752.109 -2.92003 7.48992 0
M  V30 7865 H 751.841 -0.517007 0.435523 0
M  V30 7866 H 754.395 -1.07314 1.75137 0
M  V30 7867 H 752.625 -3.60382 1.40219 0
M  V30 7868 H 754.314 -3.62791 1.82037 0
M  V30 7869 H 755.08 -2.61205 4.08653 0
M  V30 7870 H 750.959 -3.38231 3.13243 0
M  V30 7871 H 754.503 -2.56638 6.48678 0
M  V30 7872 H 750.4 -3.33941 5.52407 0
M  V30 7873 H 751.168 -3.07953 7.58358 0
M  V30 7874 N 753.831 -1.1567 -1.07043 0
M  V30 7875 C 755.077 -0.944878 -1.80121 0
M  V30 7876 C 755.432 0.522239 -1.85177 0
M  V30 7877 O 754.725 1.38228 -1.32678 0
M  V30 7878 C 754.919 -1.49677 -3.24548 0
M  V30 7879 C 754.748 -3.01602 -3.33566 0
M  V30 7880 C 753.518 -3.70177 -3.43943 0
M  V30 7881 C 755.716 -3.99362 -3.24059 0
M  V30 7882 N 753.698 -5.09882 -3.41896 0
M  V30 7883 C 755.069 -5.25404 -3.29167 0
M  V30 7884 C 757.124 -3.91289 -3.07891 0
M  V30 7885 C 755.827 -6.44314 -3.19769 0
M  V30 7886 C 757.853 -5.09761 -2.99829 0
M  V30 7887 C 757.215 -6.34679 -3.05552 0
M  V30 7888 H 753.314 -0.399447 -0.672284 0
M  V30 7889 H 755.898 -1.4693 -1.27749 0
M  V30 7890 H 754.069 -0.998941 -3.75334 0
M  V30 7891 H 755.801 -1.22346 -3.85764 0
M  V30 7892 H 752.556 -3.2078 -3.48421 0
M  V30 7893 H 752.98 -5.82857 -3.44393 0
M  V30 7894 H 757.622 -2.95573 -3.02318 0
M  V30 7895 H 755.34 -7.4026 -3.24101 0
M  V30 7896 H 758.926 -5.05279 -2.88418 0
M  V30 7897 H 757.806 -7.24812 -2.99361 0
M  V30 7898 N 755.309 1.25446 -0.953992 0
M  V30 7899 C 756.558 1.92441 -0.604101 0
M  V30 7900 C 756.871 1.75543 0.862796 0
M  V30 7901 O 758.077 2.37106 1.32262 0
M  V30 7902 C 756.533 3.44854 -1.02974 0
M  V30 7903 C 756.141 3.70464 -2.51914 0
M  V30 7904 C 757.885 4.1778 -0.752352 0
M  V30 7905 C 755.792 5.1638 -2.88281 0
M  V30 7906 H 754.722 0.720508 -0.222227 0
M  V30 7907 H 757.373 1.42318 -1.15836 0
M  V30 7908 H 755.755 3.93935 -0.403904 0
M  V30 7909 H 756.929 3.32038 -3.19511 0
M  V30 7910 H 755.244 3.10797 -2.77117 0
M  V30 7911 H 757.841 5.25261 -1.00024 0
M  V30 7912 H 758.184 4.15135 0.311212 0
M  V30 7913 H 758.717 3.74605 -1.33851 0
M  V30 7914 H 755.456 5.24135 -3.93653 0
M  V30 7915 H 754.976 5.55855 -2.25357 0
M  V30 7916 H 756.655 5.84497 -2.77439 0
M  V30 7917 N 756.787 0.722489 1.40064 0
M  V30 7918 C 758.015 0.274838 2.05066 0
M  V30 7919 C 758.43 -1.08586 1.54449 0
M  V30 7920 O 757.787 -1.68375 0.704003 0
M  V30 7921 C 757.838 0.253673 3.60609 0
M  V30 7922 O 757.559 1.56064 4.0936 0
M  V30 7923 C 759.06 -0.211684 4.42794 0
M  V30 7924 H 756.28 0.12226 0.659768 0
M  V30 7925 H 758.824 0.982632 1.79345 0
M  V30 7926 H 756.979 -0.405137 3.85276 0
M  V30 7927 H 757.393 1.46576 5.03603 0
M  V30 7928 H 758.867 -0.175341 5.51721 0
M  V30 7929 H 759.344 -1.25493 4.2089 0
M  V30 7930 H 759.95 0.4171 4.2325 0
M  V30 7931 N 758.265 -1.50454 0.469181 0
M  V30 7932 C 759.513 -2.01916 -0.0862982 0
M  V30 7933 C 759.834 -1.35337 -1.40388 0
M  V30 7934 O 759.104 -0.498096 -1.89462 0
M  V30 7935 H 757.684 -0.746185 -0.0348825 0
M  V30 7936 H 760.346 -1.84804 0.619167 0
M  V30 7937 H 759.442 -3.11182 -0.239189 0
M  V30 7938 N 759.743 -0.201713 -1.56304 0
M  V30 7939 C 761.159 0.154025 -1.58855 0
M  V30 7940 C 761.359 1.60516 -1.21807 0
M  V30 7941 O 760.415 2.34193 -0.94393 0
M  V30 7942 C 761.728 -0.154319 -3.00304 0
M  V30 7943 C 763.276 -0.0949578 -3.12856 0
M  V30 7944 C 763.751 -0.376703 -4.56448 0
M  V30 7945 N 765.242 -0.325558 -4.62054 0
M  V30 7946 C 765.977 -0.51732 -5.71062 0
M  V30 7947 N 765.473 -0.769789 -6.8851 0
M  V30 7948 N 767.266 -0.45112 -5.60287 0
M  V30 7949 H 759.417 -1.14858 -1.78666 0
M  V30 7950 H 761.68 -0.458934 -0.829508 0
M  V30 7951 H 761.386 -1.16074 -3.31994 0
M  V30 7952 H 761.26 0.540014 -3.73314 0
M  V30 7953 H 763.647 0.902075 -2.80974 0
M  V30 7954 H 763.728 -0.822468 -2.42217 0
M  V30 7955 H 763.372 -1.37108 -4.89044 0
M  V30 7956 H 763.302 0.371772 -5.25286 0
M  V30 7957 H 765.793 -0.137308 -3.7765 0
M  V30 7958 H 766.106 -0.904744 -7.67486 0
M  V30 7959 H 764.451 -0.806758 -6.90302 0
M  V30 7960 H 767.642 -0.254253 -4.67409 0
M  V30 7961 H 767.815 -0.603982 -6.45179 0
M  V30 7962 N 761.222 1.57436 0.0718424 0
M  V30 7963 C 762.468 1.87525 0.772149 0
M  V30 7964 C 762.801 0.79399 1.77227 0
M  V30 7965 O 762.076 -0.195733 1.93513 0
M  V30 7966 C 762.359 3.28272 1.48018 0
M  V30 7967 C 762.212 4.47052 0.49647 0
M  V30 7968 C 763.531 3.67256 2.42509 0
M  V30 7969 H 760.65 0.682049 0.279245 0
M  V30 7970 H 763.292 1.89967 0.03534 0
M  V30 7971 H 761.442 3.26321 2.10824 0
M  V30 7972 H 763.114 4.61127 -0.126375 0
M  V30 7973 H 761.357 4.33392 -0.188205 0
M  V30 7974 H 762.028 5.42315 1.02949 0
M  V30 7975 H 764.504 3.70301 1.89781 0
M  V30 7976 H 763.38 4.66626 2.89053 0
M  V30 7977 H 763.641 2.97186 3.27312 0
M  V30 7978 N 762.7 -0.34323 1.53817 0
M  V30 7979 C 763.977 -1.10047 1.61706 0
M  V30 7980 C 764.357 -2.06495 0.438514 0
M  V30 7981 O 763.705 -2.21297 -0.569188 0
M  V30 7982 C 763.915 -1.81985 2.97796 0
M  V30 7983 C 765.263 -2.35717 3.53161 0
M  V30 7984 O 766.287 -1.9208 2.99973 0
M  V30 7985 O 765.146 -3.15551 4.46195 0
M  V30 7986 H 762.24 -0.506096 0.654061 0
M  V30 7987 H 764.786 -0.344697 1.66162 0
M  V30 7988 H 763.558 -1.11722 3.75012 0
M  V30 7989 H 763.181 -2.64419 2.96931 0
M  V30 7990 N 764.178 -1.45556 -0.604258 0
M  V30 7991 C 765.455 -1.40221 -1.36373 0
M  V30 7992 C 765.835 -0.0745195 -2.10968 0
M  V30 7993 O 765.183 0.943594 -2.08107 0
M  V30 7994 C 765.393 -2.61807 -2.30777 0
M  V30 7995 C 766.741 -3.07037 -2.93281 0
M  V30 7996 O 767.765 -2.62203 -2.41097 0
M  V30 7997 O 766.624 -3.8485 -3.88011 0
M  V30 7998 H 763.718 -0.556602 -0.611656 0
M  V30 7999 H 766.264 -1.57689 -0.627069 0
M  V30 8000 H 765.036 -3.50017 -1.74939 0
M  V30 8001 H 764.659 -2.46688 -3.11818 0
M  V30 8002 N 765.656 0.84705 -1.32902 0
M  V30 8003 C 766.902 1.60414 -1.24078 0
M  V30 8004 C 767.235 1.93217 0.195105 0
M  V30 8005 O 766.51 1.58001 1.13428 0
M  V30 8006 C 766.793 2.91951 -2.108 0
M  V30 8007 C 766.646 2.6588 -3.62805 0
M  V30 8008 C 767.965 3.93299 -1.97494 0
M  V30 8009 H 765.084 0.58206 -0.452079 0
M  V30 8010 H 767.726 0.977562 -1.62922 0
M  V30 8011 H 765.876 3.45425 -1.77802 0
M  V30 8012 H 767.548 2.18902 -4.06054 0
M  V30 8013 H 765.791 1.99716 -3.85092 0
M  V30 8014 H 766.462 3.59574 -4.1882 0
M  V30 8015 H 768.938 3.49105 -2.26417 0
M  V30 8016 H 767.814 4.8318 -2.60438 0
M  V30 8017 H 768.075 4.31887 -0.944782 0
M  V30 8018 N 767.134 1.16236 1.06428 0
M  V30 8019 C 768.064 0.890807 2.1584 0
M  V30 8020 C 769.045 -0.162333 1.69324 0
M  V30 8021 O 770.23 -0.0147191 1.94194 0
M  V30 8022 C 767.36 0.389615 3.45108 0
M  V30 8023 C 766.314 1.38051 4.05125 0
M  V30 8024 C 765.64 0.737773 5.29586 0
M  V30 8025 C 766.94 2.74965 4.44062 0
M  V30 8026 H 768.634 1.80577 2.38814 0
M  V30 8027 H 766.18 0.869657 1.14774 0
M  V30 8028 H 768.133 0.187127 4.20984 0
M  V30 8029 H 766.857 -0.560851 3.21748 0
M  V30 8030 H 765.516 1.56952 3.31303 0
M  V30 8031 H 765.164 -0.219135 5.02522 0
M  V30 8032 H 764.864 1.39914 5.70699 0
M  V30 8033 H 766.388 0.545275 6.0816 0
M  V30 8034 H 767.802 2.59855 5.11027 0
M  V30 8035 H 766.199 3.37563 4.96156 0
M  V30 8036 H 767.269 3.30321 3.54987 0
M  V30 8037 N 768.612 -1.24939 0.960631 0
M  V30 8038 C 769.56 -2.27659 0.47686 0
M  V30 8039 C 770.554 -1.63148 -0.455961 0
M  V30 8040 O 771.76 -1.76911 -0.332029 0
M  V30 8041 H 768.135 -0.739651 0.135723 0
M  V30 8042 H 770.106 -2.65844 1.35534 0
M  V30 8043 C 768.855 -3.46976 -0.224191 0
M  V30 8044 H 768.178 -3.96854 0.484471 0
M  V30 8045 H 769.618 -4.20717 -0.526615 0
M  V30 8046 C 768.077 -3.04159 -1.44876 0
M  V30 8047 O 768.607 -3.10697 -2.54618 0
M  V30 8048 N 766.813 -2.59284 -1.31226 0
M  V30 8049 H 766.36 -2.54164 -0.419361 0
M  V30 8050 H 766.318 -2.31 -2.13275 0
M  V30 8051 N 770.09 -0.729906 -1.39679 0
M  V30 8052 C 771.336 -0.27603 -2.00913 0
M  V30 8053 C 771.669 1.13227 -1.57776 0
M  V30 8054 O 770.944 1.7709 -0.804319 0
M  V30 8055 C 771.227 -0.372157 -3.58172 0
M  V30 8056 C 771.08 -1.81986 -4.11341 0
M  V30 8057 C 772.399 0.248378 -4.39399 0
M  V30 8058 H 769.518 -0.101773 -0.729939 0
M  V30 8059 H 772.16 -0.925104 -1.65957 0
M  V30 8060 H 770.31 0.180459 -3.88081 0
M  V30 8061 H 771.982 -2.42896 -3.92172 0
M  V30 8062 H 770.225 -2.34287 -3.65092 0
M  V30 8063 H 770.896 -1.83842 -5.20486 0
M  V30 8064 H 773.372 -0.222645 -4.15504 0
M  V30 8065 H 772.248 0.150746 -5.48693 0
M  V30 8066 H 772.509 1.33378 -4.21501 0
M  V30 8067 N 771.568 1.50203 -0.477153 0
M  V30 8068 C 772.793 2.07263 0.0754986 0
M  V30 8069 C 773.218 1.33801 1.32208 0
M  V30 8070 O 772.576 0.387482 1.77111 0
M  V30 8071 C 772.624 3.59028 0.336348 0
M  V30 8072 O 771.728 3.87339 1.4157 0
M  V30 8073 H 771.069 0.663815 -0.015662 0
M  V30 8074 H 773.599 1.93321 -0.669936 0
M  V30 8075 H 773.609 4.03927 0.575034 0
M  V30 8076 H 772.284 4.11912 -0.574551 0
M  V30 8077 H 770.861 3.54272 1.16385 0
M  V30 8078 N 773.046 0.209999 1.56195 0
M  V30 8079 C 774.294 -0.423974 1.97603 0
M  V30 8080 C 774.615 -1.61112 1.09854 0
M  V30 8081 O 773.885 -1.95134 0.173032 0
M  V30 8082 H 772.465 -0.159629 0.729745 0
M  V30 8083 H 775.127 0.300205 1.92574 0
M  V30 8084 H 774.223 -0.75809 3.02753 0
M  V30 8085 N 774.524 -1.57472 -0.0634922 0
M  V30 8086 C 775.474 -2.00709 -1.08166 0
M  V30 8087 C 776.458 -0.890498 -1.34011 0
M  V30 8088 O 777.65 -1.15441 -1.34173 0
M  V30 8089 C 774.779 -2.46148 -2.39303 0
M  V30 8090 C 773.865 -3.64559 -2.16697 0
M  V30 8091 N 774.256 -4.78459 -1.64043 0
M  V30 8092 C 772.554 -3.71269 -2.47135 0
M  V30 8093 C 773.255 -5.60268 -1.56445 0
M  V30 8094 N 772.231 -5.04357 -2.02792 0
M  V30 8095 H 776.033 -2.86208 -0.668016 0
M  V30 8096 H 773.547 -1.60133 -0.270426 0
M  V30 8097 H 775.544 -2.75367 -3.13016 0
M  V30 8098 H 774.204 -1.62041 -2.81377 0
M  V30 8099 H 775.215 -5.00587 -1.32791 0
M  V30 8100 H 771.892 -2.97891 -2.92518 0
M  V30 8101 H 773.282 -6.6172 -1.16519 0
M  V30 8102 N 776.003 0.335068 -1.53997 0
M  V30 8103 C 777.419 0.678704 -1.4445 0
M  V30 8104 C 777.619 1.92106 -0.608078 0
M  V30 8105 O 776.675 2.52292 -0.102373 0
M  V30 8106 C 777.988 0.863435 -2.88037 0
M  V30 8107 C 779.536 0.961513 -2.97866 0
M  V30 8108 C 780.011 1.1785 -4.42578 0
M  V30 8109 N 781.502 1.2455 -4.46141 0
M  V30 8110 C 782.237 1.43106 -5.55255 0
M  V30 8111 N 781.733 1.5878 -6.74359 0
M  V30 8112 N 783.526 1.45722 -5.42883 0
M  V30 8113 H 775.677 -0.481656 -2.06867 0
M  V30 8114 H 777.94 -0.153615 -0.935471 0
M  V30 8115 H 777.646 0.0219511 -3.51693 0
M  V30 8116 H 777.52 1.76268 -3.33481 0
M  V30 8117 H 779.907 1.79351 -2.34344 0
M  V30 8118 H 779.988 0.0389862 -2.5577 0
M  V30 8119 H 779.632 0.351397 -5.06683 0
M  V30 8120 H 779.562 2.11472 -4.82273 0
M  V30 8121 H 782.053 1.13928 -3.60318 0
M  V30 8122 H 782.366 1.72599 -7.53279 0
M  V30 8123 H 780.711 1.559 -6.77289 0
M  V30 8124 H 783.902 1.33065 -4.48789 0
M  V30 8125 H 784.075 1.59841 -6.27977 0
M  V30 8126 N 777.481 1.45874 0.596531 0
M  V30 8127 C 778.411 1.5824 1.71705 0
M  V30 8128 C 779.392 0.433366 1.64487 0
M  V30 8129 O 780.577 0.657895 1.82717 0
M  V30 8130 C 777.707 1.55927 3.10329 0
M  V30 8131 C 776.661 2.69659 3.32367 0
M  V30 8132 C 775.987 2.52403 4.71377 0
M  V30 8133 C 777.287 4.11591 3.21544 0
M  V30 8134 H 778.981 2.52035 1.61613 0
M  V30 8135 H 776.527 1.21297 0.776082 0
M  V30 8136 H 778.48 1.63173 3.88526 0
M  V30 8137 H 777.204 0.586674 3.21288 0
M  V30 8138 H 775.863 2.61859 2.56564 0
M  V30 8139 H 775.511 1.53258 4.79083 0
M  V30 8140 H 775.211 3.28679 4.87077 0
M  V30 8141 H 776.735 2.6152 5.5176 0
M  V30 8142 H 778.149 4.20576 3.89601 0
M  V30 8143 H 776.546 4.88344 3.4877 0
M  V30 8144 H 777.616 4.32719 2.1882 0
M  V30 8145 N 778.959 -0.83999 1.33349 0
M  V30 8146 C 780.207 -1.59202 1.24496 0
M  V30 8147 C 780.528 -1.94077 -0.189499 0
M  V30 8148 O 779.798 -1.60868 -1.11796 0
M  V30 8149 H 778.378 -0.590276 0.457802 0
M  V30 8150 H 781.04 -1.00394 1.67054 0
M  V30 8151 H 780.136 -2.52247 1.83788 0
M  V30 8152 N 780.437 -1.16799 -1.0581 0
M  V30 8153 C 781.665 -0.97687 -1.82387 0
M  V30 8154 C 782.08 0.474917 -1.82729 0
M  V30 8155 O 781.437 1.3297 -1.25001 0
M  V30 8156 C 781.488 -1.50279 -3.28783 0
M  V30 8157 O 781.209 -2.89772 -3.28578 0
M  V30 8158 C 782.71 -1.35538 -4.22071 0
M  V30 8159 H 779.93 -0.345977 -0.574927 0
M  V30 8160 H 782.474 -1.54942 -1.33466 0
M  V30 8161 H 780.629 -0.972414 -3.74997 0
M  V30 8162 H 781.043 -3.13954 -4.20159 0
M  V30 8163 H 782.517 -1.7716 -5.22799 0
M  V30 8164 H 782.994 -0.301598 -4.38163 0
M  V30 8165 H 783.6 -1.87562 -3.81708 0
M  V30 8166 N 781.915 1.24427 -0.967243 0
M  V30 8167 C 782.878 2.23637 -0.501927 0
M  V30 8168 C 783.878 1.55712 0.401283 0
M  V30 8169 O 785.068 1.73085 0.196808 0
M  V30 8170 C 782.2 3.39804 0.273176 0
M  V30 8171 H 783.393 2.66317 -1.37897 0
M  V30 8172 H 780.946 1.37033 -0.751783 0
M  V30 8173 H 781.681 3.02562 1.16733 0
M  V30 8174 H 781.466 3.90303 -0.37498 0
M  V30 8175 H 782.956 4.13443 0.587776 0
M  V30 8176 N 783.393 0.737304 1.3929 0
M  V30 8177 C 784.303 0.100464 2.34385 0
M  V30 8178 C 785.319 -0.719282 1.58437 0
M  V30 8179 O 786.495 -0.647216 1.90717 0
M  V30 8180 C 783.56 -0.794325 3.37478 0
M  V30 8181 C 782.621 0.0379345 4.29283 0
M  V30 8182 C 781.854 -0.814241 5.27452 0
M  V30 8183 O 782.077 -2.05288 5.32177 0
M  V30 8184 O 781.011 -0.241679 6.01415 0
M  V30 8185 H 784.837 0.885407 2.90507 0
M  V30 8186 H 782.422 0.497999 1.40856 0
M  V30 8187 H 784.304 -1.30622 4.00644 0
M  V30 8188 H 782.979 -1.55804 2.83737 0
M  V30 8189 H 781.886 0.595405 3.69331 0
M  V30 8190 H 783.219 0.763926 4.86236 0
M  V30 8191 N 784.871 -1.49948 0.485112 0
M  V30 8192 C 786.12 -2.01589 -0.066765 0
M  V30 8193 C 786.433 -1.371 -1.39509 0
M  V30 8194 O 787.639 -1.79978 -2.03274 0
M  V30 8195 C 786.095 -3.59501 -0.169476 0
M  V30 8196 C 785.703 -4.32955 1.15126 0
M  V30 8197 C 787.447 -4.19138 -0.672564 0
M  V30 8198 C 785.354 -5.82684 1.01158 0
M  V30 8199 H 784.284 -0.753453 -0.0287259 0
M  V30 8200 H 786.935 -1.72632 0.622132 0
M  V30 8201 H 785.317 -3.85106 -0.922471 0
M  V30 8202 H 786.491 -4.19064 1.9163 0
M  V30 8203 H 784.806 -3.84991 1.58654 0
M  V30 8204 H 787.403 -5.28767 -0.794325 0
M  V30 8205 H 787.746 -3.81447 -1.66745 0
M  V30 8206 H 788.279 -3.97793 0.0234415 0
M  V30 8207 H 785.018 -6.24873 1.98025 0
M  V30 8208 H 784.538 -5.99112 0.287151 0
M  V30 8209 H 786.217 -6.43376 0.683847 0
M  V30 8210 N 786.349 -0.21828 -1.56081 0
M  V30 8211 C 787.259 0.704602 -2.23769 0
M  V30 8212 C 788.275 1.21633 -1.24425 0
M  V30 8213 O 789.451 1.25862 -1.57228 0
M  V30 8214 C 786.516 1.89725 -2.90182 0
M  V30 8215 C 785.577 1.42782 -4.0486 0
M  V30 8216 C 784.81 2.56361 -4.68097 0
M  V30 8217 O 785.033 3.74417 -4.30312 0
M  V30 8218 O 783.967 2.2775 -5.57148 0
M  V30 8219 H 787.793 0.158007 -3.03289 0
M  V30 8220 H 785.378 0.0120279 -1.49395 0
M  V30 8221 H 787.26 2.59382 -3.32113 0
M  V30 8222 H 785.935 2.432 -2.13624 0
M  V30 8223 H 784.842 0.699359 -3.67505 0
M  V30 8224 H 786.175 0.939474 -4.83151 0
M  V30 8225 N 787.827 1.57504 0.0551401 0
M  V30 8226 C 789.052 1.92682 0.767352 0
M  V30 8227 C 789.477 0.81614 1.69472 0
M  V30 8228 O 788.835 -0.229989 1.79835 0
M  V30 8229 C 788.883 3.26866 1.52286 0
M  V30 8230 O 787.987 3.17274 2.63459 0
M  V30 8231 H 787.328 0.630502 0.208238 0
M  V30 8232 H 789.858 2.04592 0.0184026 0
M  V30 8233 H 789.868 3.61138 1.8985 0
M  V30 8234 H 788.543 4.07276 0.842541 0
M  V30 8235 H 787.12 2.94589 2.2863 0
M  V30 8236 N 789.305 -0.326896 1.54172 0
M  V30 8237 C 790.268 -1.38515 1.8261 0
M  V30 8238 C 791.268 -1.44872 0.697771 0
M  V30 8239 O 792.458 -1.44957 0.966078 0
M  V30 8240 C 789.59 -2.77281 1.98313 0
M  V30 8241 H 790.783 -1.14556 2.77159 0
M  V30 8242 H 788.336 -0.562199 1.45839 0
M  V30 8243 H 789.071 -3.065 1.05964 0
M  V30 8244 H 788.856 -2.74061 2.80416 0
M  V30 8245 H 790.346 -3.53845 2.21773 0
M  V30 8246 N 790.784 -1.46188 -0.588786 0
M  V30 8247 C 791.714 -1.59148 -1.70863 0
M  V30 8248 C 792.695 -0.442083 -1.64255 0
M  V30 8249 O 793.88 -0.667575 -1.82365 0
M  V30 8250 C 791.01 -1.5757 -3.09498 0
M  V30 8251 C 789.964 -2.71418 -3.30932 0
M  V30 8252 C 789.29 -2.549 -4.70032 0
M  V30 8253 C 790.59 -4.1329 -3.19356 0
M  V30 8254 H 792.284 -2.52889 -1.60274 0
M  V30 8255 H 789.83 -1.21707 -0.769638 0
M  V30 8256 H 791.783 -1.65231 -3.87655 0
M  V30 8257 H 790.507 -0.603705 -3.20972 0
M  V30 8258 H 789.166 -2.63216 -2.55172 0
M  V30 8259 H 788.814 -1.55797 -4.78264 0
M  V30 8260 H 788.514 -3.31257 -4.85327 0
M  V30 8261 H 790.038 -2.64443 -5.50366 0
M  V30 8262 H 791.452 -4.22636 -3.87365 0
M  V30 8263 H 789.849 -4.90187 -3.46175 0
M  V30 8264 H 790.919 -4.33874 -2.16522 0
M  V30 8265 N 792.262 0.832906 -1.33792 0
M  V30 8266 C 793.508 1.59089 -1.25772 0
M  V30 8267 C 793.841 1.93414 0.174601 0
M  V30 8268 O 793.116 1.59195 1.11746 0
M  V30 8269 C 793.399 2.89699 -2.13885 0
M  V30 8270 C 793.252 2.62017 -3.65605 0
M  V30 8271 C 794.571 3.91182 -2.01654 0
M  V30 8272 H 791.69 0.577232 -0.458227 0
M  V30 8273 H 794.332 0.960227 -1.6395 0
M  V30 8274 H 792.482 3.4352 -1.81456 0
M  V30 8275 H 794.154 2.14582 -4.08353 0
M  V30 8276 H 792.397 1.95621 -3.87189 0
M  V30 8277 H 793.068 3.55112 -4.2261 0
M  V30 8278 H 795.544 3.46684 -2.30107 0
M  V30 8279 H 794.42 4.80391 -2.65548 0
M  V30 8280 H 794.681 4.30861 -0.990536 0
M  V30 8281 N 793.74 1.17359 1.05189 0
M  V30 8282 C 794.703 0.892604 2.11105 0
M  V30 8283 C 795.703 -0.117236 1.60372 0
M  V30 8284 O 796.893 0.114936 1.7382 0
M  V30 8285 C 794.025 0.337032 3.3923 0
M  V30 8286 H 795.218 1.83169 2.37464 0
M  V30 8287 H 792.771 0.984051 1.21434 0
M  V30 8288 H 793.506 -0.609198 3.18527 0
M  V30 8289 H 793.291 1.06484 3.77364 0
M  V30 8290 H 794.781 0.158763 4.17298 0
M  V30 8291 N 795.218 -1.23913 0.973828 0
M  V30 8292 C 796.168 -2.22892 0.479933 0
M  V30 8293 C 797.152 -1.54726 -0.441434 0
M  V30 8294 O 798.344 -1.74908 -0.271358 0
M  V30 8295 C 795.473 -3.42577 -0.222702 0
M  V30 8296 C 794.559 -4.17981 0.717851 0
M  V30 8297 N 794.95 -4.7045 1.8577 0
M  V30 8298 C 793.248 -4.42841 0.529858 0
M  V30 8299 C 793.949 -5.27751 2.44651 0
M  V30 8300 N 792.925 -5.15302 1.73104 0
M  V30 8301 H 796.727 -2.61083 1.34956 0
M  V30 8302 H 794.241 -1.39368 0.83368 0
M  V30 8303 H 796.238 -4.1265 -0.593793 0
M  V30 8304 H 794.898 -3.05904 -1.0887 0
M  V30 8305 H 795.909 -4.66997 2.23908 0
M  V30 8306 H 792.586 -4.1648 -0.291664 0
M  V30 8307 H 793.976 -5.79011 3.40875 0
M  V30 8308 N 796.696 -0.74468 -1.38897 0
M  V30 8309 C 798.107 -0.36568 -1.83084 0
M  V30 8310 C 798.458 1.10436 -1.62168 0
M  V30 8311 O 797.583 1.85281 -1.11804 0
M  V30 8312 C 798.178 -0.656946 -3.3237 0
M  V30 8313 C 796.737 -0.331329 -3.74939 0
M  V30 8314 C 795.884 -0.914661 -2.61781 0
M  V30 8315 H 798.835 -0.941551 -1.27752 0
M  V30 8316 H 798.856 0.0679546 -3.80439 0
M  V30 8317 H 798.368 -1.72693 -3.47561 0
M  V30 8318 H 796.469 0.732426 -3.6533 0
M  V30 8319 H 796.582 -0.820655 -4.72019 0
M  V30 8320 H 794.946 -0.34063 -2.52412 0
M  V30 8321 H 795.729 -1.98949 -2.79775 0
M  V30 8322 N 798.174 1.49689 -0.493057 0
M  V30 8323 C 799.121 2.28976 0.28959 0
M  V30 8324 C 800.091 1.35011 0.967536 0
M  V30 8325 O 801.276 1.63964 0.975736 0
M  V30 8326 C 798.416 3.1748 1.35279 0
M  V30 8327 C 797.529 4.26496 0.687418 0
M  V30 8328 C 796.664 5.02226 1.73038 0
M  V30 8329 C 795.703 6.03089 1.04645 0
M  V30 8330 N 794.84 6.72014 2.03325 0
M  V30 8331 H 799.68 2.954 -0.392798 0
M  V30 8332 H 797.217 1.45657 -0.205554 0
M  V30 8333 H 799.175 3.67162 1.98111 0
M  V30 8334 H 797.805 2.53057 2.00405 0
M  V30 8335 H 796.857 3.80362 -0.0540001 0
M  V30 8336 H 798.169 4.98578 0.14864 0
M  V30 8337 H 797.323 5.55737 2.43395 0
M  V30 8338 H 796.062 4.29899 2.303 0
M  V30 8339 H 795.067 5.48817 0.328606 0
M  V30 8340 H 796.292 6.77398 0.480428 0
M  V30 8341 H 794.238 6.02464 2.59564 0
M  V30 8342 H 794.155 7.40046 1.54492 0
M  V30 8343 H 795.423 7.30133 2.72995 0
M  V30 8344 N 799.652 0.226554 1.55963 0
M  V30 8345 C 800.901 -0.40417 1.97609 0
M  V30 8346 C 801.214 -1.60541 1.1174 0
M  V30 8347 O 802.42 -2.30598 1.43307 0
M  V30 8348 C 800.876 -0.770466 3.51556 0
M  V30 8349 C 800.484 0.408244 4.46136 0
M  V30 8350 C 802.228 -1.36651 4.01904 0
M  V30 8351 C 800.135 0.0192347 5.91397 0
M  V30 8352 H 799.065 -0.15478 0.737943 0
M  V30 8353 H 801.716 0.323558 1.80625 0
M  V30 8354 H 800.098 -1.55575 3.6416 0
M  V30 8355 H 801.272 1.18575 4.45283 0
M  V30 8356 H 799.587 0.917859 4.06158 0
M  V30 8357 H 802.184 -1.67055 5.07934 0
M  V30 8358 H 802.527 -2.28403 3.48049 0
M  V30 8359 H 803.06 -0.644556 3.92543 0
M  V30 8360 H 799.799 0.90336 6.49245 0
M  V30 8361 H 799.319 -0.722485 5.95433 0
M  V30 8362 H 800.998 -0.405711 6.45727 0
M  V30 8363 N 801.13 -1.57531 -0.0467866 0
M  V30 8364 C 802.093 -2.04379 -1.03738 0
M  V30 8365 C 803.093 -0.944881 -1.3011 0
M  V30 8366 O 804.283 -1.20904 -1.25411 0
M  V30 8367 C 801.415 -2.44572 -2.37482 0
M  V30 8368 H 802.608 -2.93142 -0.633063 0
M  V30 8369 H 800.161 -1.53526 -0.293177 0
M  V30 8370 H 800.896 -1.58911 -2.82697 0
M  V30 8371 H 800.681 -3.24785 -2.19675 0
M  V30 8372 H 802.171 -2.81307 -3.08636 0
M  V30 8373 N 802.608 0.318715 -1.54344 0
M  V30 8374 C 803.518 1.41535 -1.87097 0
M  V30 8375 C 804.534 1.56361 -0.763353 0
M  V30 8376 O 805.71 1.71365 -1.05811 0
M  V30 8377 C 802.775 2.76178 -2.09587 0
M  V30 8378 C 801.836 2.70486 -3.3337 0
M  V30 8379 C 801.069 3.98708 -3.54778 0
M  V30 8380 O 801.292 4.9721 -2.79532 0
M  V30 8381 O 800.226 4.01674 -4.48266 0
M  V30 8382 H 804.052 1.16764 -2.80357 0
M  V30 8383 H 801.637 0.51318 -1.4031 0
M  V30 8384 H 803.519 3.55873 -2.25682 0
M  V30 8385 H 802.194 3.00829 -1.19514 0
M  V30 8386 H 801.101 1.89325 -3.22656 0
M  V30 8387 H 802.434 2.50789 -4.23516 0
M  V30 8388 N 804.086 1.46499 0.581025 0
M  V30 8389 C 805.049 1.5677 1.672 0
M  V30 8390 C 806.049 0.444716 1.54528 0
M  V30 8391 O 807.239 0.709074 1.59116 0
M  V30 8392 C 804.371 1.4896 3.06633 0
M  V30 8393 H 805.564 2.54 1.5945 0
M  V30 8394 H 803.117 1.34334 0.799003 0
M  V30 8395 H 803.852 0.530168 3.19937 0
M  V30 8396 H 803.637 2.30439 3.17239 0
M  V30 8397 H 805.127 1.59237 3.86048 0
M  V30 8398 N 805.565 -0.825799 1.34232 0
M  V30 8399 C 806.528 -1.91808 1.25468 0
M  V30 8400 C 807.528 -1.59893 0.170567 0
M  V30 8401 O 808.718 -1.68986 0.422996 0
M  V30 8402 C 805.85 -3.27786 0.93644 0
M  V30 8403 H 807.043 -2.01003 2.22571 0
M  V30 8404 H 804.596 -1.01944 1.18479 0
M  V30 8405 H 805.331 -3.24285 -0.0315408 0
M  V30 8406 H 805.116 -3.52333 1.72057 0
M  V30 8407 H 806.606 -4.07782 0.900214 0
M  V30 8408 N 807.043 -1.17915 -1.04565 0
M  V30 8409 C 808.289 -0.972863 -1.77942 0
M  V30 8410 C 808.622 0.496753 -1.87739 0
M  V30 8411 O 807.897 1.3688 -1.38181 0
M  V30 8412 C 808.18 -1.62227 -3.21488 0
M  V30 8413 C 808.033 -3.16441 -3.19664 0
M  V30 8414 C 809.352 -1.33137 -4.19479 0
M  V30 8415 H 806.471 -0.354843 -0.645953 0
M  V30 8416 H 809.113 -1.45508 -1.22178 0
M  V30 8417 H 807.263 -1.21224 -3.69103 0
M  V30 8418 H 808.935 -3.66544 -2.80077 0
M  V30 8419 H 807.178 -3.48863 -2.57832 0
M  V30 8420 H 807.849 -3.57012 -4.21006 0
M  V30 8421 H 810.325 -1.68654 -3.80388 0
M  V30 8422 H 809.201 -1.81151 -5.18146 0
M  V30 8423 H 809.462 -0.253319 -4.41374 0
M  V30 8424 N 808.521 1.23394 -0.980386 0
M  V30 8425 C 809.767 1.92094 -0.650223 0
M  V30 8426 C 810.1 1.76309 0.814173 0
M  V30 8427 O 809.375 1.12406 1.5873 0
M  V30 8428 C 809.658 3.44713 -1.04139 0
M  V30 8429 C 809.511 3.69606 -2.56342 0
M  V30 8430 C 810.83 4.36191 -0.585296 0
M  V30 8431 H 807.949 0.697618 -0.237695 0
M  V30 8432 H 810.591 1.45517 -1.22167 0
M  V30 8433 H 808.741 3.84513 -0.55515 0
M  V30 8434 H 810.413 3.39288 -3.1254 0
M  V30 8435 H 808.656 3.14318 -2.98976 0
M  V30 8436 H 809.327 4.76441 -2.78762 0
M  V30 8437 H 811.803 4.03836 -1.00276 0
M  V30 8438 H 810.679 5.41679 -0.887428 0
M  V30 8439 H 810.94 4.39097 0.51438 0
M  V30 8440 N 809.999 0.752036 1.385 0
M  V30 8441 C 811.247 0.306895 1.99756 0
M  V30 8442 C 811.568 -1.11478 1.59992 0
M  V30 8443 O 810.838 -1.76206 0.856045 0
M  V30 8444 H 809.418 0.11048 0.738785 0
M  V30 8445 H 812.08 0.965785 1.69289 0
M  V30 8446 H 811.176 0.368797 3.09913 0
M  V30 8447 N 811.477 -1.49425 0.500989 0
M  V30 8448 C 812.726 -2.01649 -0.04538 0
M  V30 8449 C 813.039 -1.38572 -1.38047 0
M  V30 8450 O 814.245 -1.82124 -2.01353 0
M  V30 8451 C 812.701 -3.5966 -0.131337 0
M  V30 8452 C 812.309 -4.3171 1.19711 0
M  V30 8453 C 814.053 -4.19828 -0.628071 0
M  V30 8454 C 811.96 -5.81579 1.07332 0
M  V30 8455 H 810.89 -0.753715 -0.0207329 0
M  V30 8456 H 813.541 -1.71962 0.640407 0
M  V30 8457 H 811.923 -3.86063 -0.881574 0
M  V30 8458 H 813.097 -4.17008 1.96064 0
M  V30 8459 H 811.412 -3.83286 1.62729 0
M  V30 8460 H 814.009 -5.2958 -0.738198 0
M  V30 8461 H 814.352 -3.83194 -1.6269 0
M  V30 8462 H 814.885 -3.97746 0.0656314 0
M  V30 8463 H 811.624 -6.22738 2.04642 0
M  V30 8464 H 811.144 -5.98774 0.350679 0
M  V30 8465 H 812.823 -6.42614 0.752047 0
M  V30 8466 N 812.955 -0.234822 -1.55841 0
M  V30 8467 C 814.366 0.270588 -1.84729 0
M  V30 8468 C 814.717 1.58494 -1.15646 0
M  V30 8469 O 813.842 2.12071 -0.430667 0
M  V30 8470 C 814.437 0.497733 -3.35124 0
M  V30 8471 C 812.996 0.947428 -3.64281 0
M  V30 8472 C 812.143 0.01787 -2.77294 0
M  V30 8473 H 815.094 -0.457691 -1.51957 0
M  V30 8474 H 815.115 1.34199 -3.56049 0
M  V30 8475 H 814.627 -0.459037 -3.85376 0
M  V30 8476 H 812.728 1.91709 -3.19497 0
M  V30 8477 H 812.841 0.812651 -4.72158 0
M  V30 8478 H 811.205 0.527071 -2.49187 0
M  V30 8479 H 811.988 -0.934056 -3.30349 0
M  V30 8480 N 814.433 1.57553 0.0384317 0
M  V30 8481 C 815.383 2.02404 1.0496 0
M  V30 8482 C 816.367 0.911705 1.32577 0
M  V30 8483 O 817.559 1.17561 1.32319 0
M  V30 8484 C 814.688 2.49924 2.35357 0
M  V30 8485 C 813.774 3.6796 2.1087 0
M  V30 8486 N 814.165 4.81009 1.56411 0
M  V30 8487 C 812.463 3.75153 2.41197 0
M  V30 8488 C 813.164 5.62686 1.47512 0
M  V30 8489 N 812.14 5.0752 1.94742 0
M  V30 8490 H 815.942 2.87234 0.622399 0
M  V30 8491 H 813.456 1.60543 0.244916 0
M  V30 8492 H 815.453 2.80312 3.08595 0
M  V30 8493 H 814.113 1.66496 2.78763 0
M  V30 8494 H 815.124 5.02636 1.2481 0
M  V30 8495 H 811.801 3.02507 2.87742 0
M  V30 8496 H 813.191 6.6349 1.05976 0
M  V30 8497 N 815.911 -0.310526 1.54511 0
M  V30 8498 C 816.874 -1.3657 1.84068 0
M  V30 8499 C 817.874 -1.44123 0.713097 0
M  V30 8500 O 819.064 -1.43924 0.981399 0
M  V30 8501 C 816.196 -2.75162 2.01243 0
M  V30 8502 H 817.389 -1.1161 2.78358 0
M  V30 8503 H 814.942 -0.546699 1.46427 0
M  V30 8504 H 815.677 -3.05359 1.09208 0
M  V30 8505 H 815.462 -2.71071 2.83307 0
M  V30 8506 H 816.952 -3.51473 2.25514 0
M  V30 8507 N 817.389 -1.46805 -0.573248 0
M  V30 8508 C 818.638 -1.51868 -1.32736 0
M  V30 8509 C 818.951 -0.178765 -1.94781 0
M  V30 8510 O 820.157 -0.107272 -2.71288 0
M  V30 8511 C 818.613 -2.67641 -2.40616 0
M  V30 8512 C 818.221 -4.08094 -1.84832 0
M  V30 8513 C 819.965 -2.81984 -3.17309 0
M  V30 8514 C 817.872 -5.15193 -2.90397 0
M  V30 8515 H 816.802 -0.56523 -0.49903 0
M  V30 8516 H 819.453 -1.7304 -0.610695 0
M  V30 8517 H 817.835 -2.39818 -3.15124 0
M  V30 8518 H 819.009 -4.45751 -1.16803 0
M  V30 8519 H 817.324 -3.985 -1.20775 0
M  V30 8520 H 819.921 -3.59166 -3.96111 0
M  V30 8521 H 820.264 -1.89842 -3.70494 0
M  V30 8522 H 820.797 -3.095 -2.4991 0
M  V30 8523 H 817.536 -6.09158 -2.42088 0
M  V30 8524 H 817.056 -4.82071 -3.56886 0
M  V30 8525 H 818.735 -5.41448 -3.54179 0
M  V30 8526 N 818.867 0.818669 -1.34668 0
M  V30 8527 C 819.814 1.92983 -1.26595 0
M  V30 8528 C 820.784 1.65506 -0.140315 0
M  V30 8529 O 821.969 1.88063 -0.322005 0
M  V30 8530 C 819.109 3.2932 -1.03163 0
M  V30 8531 C 818.222 3.69061 -2.24539 0
M  V30 8532 C 817.357 4.94368 -1.94355 0
M  V30 8533 C 816.396 5.26702 -3.11851 0
M  V30 8534 N 815.533 6.43187 -2.81522 0
M  V30 8535 H 820.373 1.99219 -2.2162 0
M  V30 8536 H 817.91 0.974612 -1.1018 0
M  V30 8537 H 819.868 4.07897 -0.87613 0
M  V30 8538 H 818.498 3.22584 -0.118045 0
M  V30 8539 H 817.55 2.85842 -2.50995 0
M  V30 8540 H 818.862 3.88924 -3.12313 0
M  V30 8541 H 818.016 5.80742 -1.75566 0
M  V30 8542 H 816.755 4.76515 -1.03848 0
M  V30 8543 H 815.76 4.38823 -3.31231 0
M  V30 8544 H 816.985 5.46492 -4.03142 0
M  V30 8545 H 814.931 6.26783 -1.93596 0
M  V30 8546 H 814.848 6.63243 -3.62829 0
M  V30 8547 H 816.116 7.32621 -2.66247 0
M  V30 8548 N 820.346 1.18468 1.03938 0
M  V30 8549 C 821.594 0.978895 1.76811 0
M  V30 8550 C 821.915 -0.49257 1.88676 0
M  V30 8551 O 821.185 -1.3572 1.41269 0
M  V30 8552 H 819.765 0.359201 0.654968 0
M  V30 8553 H 822.427 1.49173 1.25433 0
M  V30 8554 H 821.523 1.418 2.78027 0
M  V30 8555 N 821.824 -1.22873 0.986916 0
M  V30 8556 C 822.756 -2.23889 0.490537 0
M  V30 8557 C 823.769 -1.57523 -0.411144 0
M  V30 8558 O 824.958 -1.7721 -0.214236 0
M  V30 8559 C 822.058 -3.37488 -0.30902 0
M  V30 8560 C 821.231 -4.33438 0.587354 0
M  V30 8561 C 820.29 -5.25958 -0.159467 0
M  V30 8562 O 819.316 -5.67394 0.453115 0
M  V30 8563 N 820.518 -5.62265 -1.44355 0
M  V30 8564 H 823.283 -2.67109 1.35914 0
M  V30 8565 H 820.844 -1.37111 0.860937 0
M  V30 8566 H 822.836 -3.96365 -0.817139 0
M  V30 8567 H 821.406 -2.934 -1.07868 0
M  V30 8568 H 820.626 -3.72969 1.27622 0
M  V30 8569 H 821.914 -4.94495 1.19801 0
M  V30 8570 H 821.312 -5.30562 -1.96266 0
M  V30 8571 H 819.869 -6.23585 -1.89698 0
M  V30 8572 N 823.302 -0.75937 -1.38099 0
M  V30 8573 C 824.265 -0.14372 -2.28749 0
M  V30 8574 C 825.265 0.641338 -1.47457 0
M  V30 8575 O 826.455 0.466751 -1.67831 0
M  V30 8576 C 823.587 0.804545 -3.3127 0
M  V30 8577 H 824.78 -0.942663 -2.847 0
M  V30 8578 H 822.333 -0.526757 -1.47156 0
M  V30 8579 H 823.068 1.62895 -2.80421 0
M  V30 8580 H 822.853 0.243939 -3.9134 0
M  V30 8581 H 824.343 1.23111 -3.99041 0
M  V30 8582 N 824.78 1.49157 -0.508906 0
M  V30 8583 C 826.029 2.0167 0.0346854 0
M  V30 8584 C 826.342 1.39302 1.37311 0
M  V30 8585 O 827.548 1.83189 2.00385 0
M  V30 8586 C 826.004 3.59725 0.112261 0
M  V30 8587 C 825.612 4.31069 -1.21999 0
M  V30 8588 C 827.356 4.20155 0.605798 0
M  V30 8589 C 825.263 5.81001 -1.10415 0
M  V30 8590 H 824.193 0.753814 0.0167355 0
M  V30 8591 H 826.844 1.7162 -0.649518 0
M  V30 8592 H 825.226 3.86525 0.861087 0
M  V30 8593 H 826.4 4.15962 -1.98273 0
M  V30 8594 H 824.715 3.82418 -1.64759 0
M  V30 8595 H 827.312 5.29964 0.710102 0
M  V30 8596 H 827.655 3.84051 1.60656 0
M  V30 8597 H 828.188 3.97705 -0.0867239 0
M  V30 8598 H 824.927 6.21643 -2.07941 0
M  V30 8599 H 824.447 5.9858 -0.382428 0
M  V30 8600 H 826.126 6.42207 -0.786116 0
M  V30 8601 N 826.258 0.243083 1.55714 0
M  V30 8602 C 827.488 -0.38641 2.02954 0
M  V30 8603 C 827.896 -1.52358 1.12177 0
M  V30 8604 O 827.239 -1.83255 0.127853 0
M  V30 8605 C 827.301 -0.959388 3.46462 0
M  V30 8606 C 826.965 0.0450546 4.56978 0
M  V30 8607 C 827.962 0.853224 5.12851 0
M  V30 8608 C 825.647 0.170041 5.02012 0
M  V30 8609 C 827.641 1.77288 6.12248 0
M  V30 8610 C 825.328 1.0932 6.01242 0
M  V30 8611 C 826.326 1.89315 6.56238 0
M  V30 8612 O 826.014 2.80075 7.53534 0
M  V30 8613 H 825.746 -0.0964333 0.669086 0
M  V30 8614 H 828.3 0.363399 2.0216 0
M  V30 8615 H 826.53 -1.75869 3.44394 0
M  V30 8616 H 828.219 -1.49856 3.77224 0
M  V30 8617 H 828.985 0.767229 4.78893 0
M  V30 8618 H 824.864 -0.442528 4.58871 0
M  V30 8619 H 828.408 2.39768 6.55101 0
M  V30 8620 H 824.305 1.18013 6.3462 0
M  V30 8621 H 825.073 2.74393 7.71136 0
M  V30 8622 N 827.736 -1.57571 -0.0300757 0
M  V30 8623 C 828.699 -2.05468 -1.01565 0
M  V30 8624 C 829.699 -0.958628 -1.29101 0
M  V30 8625 O 830.889 -1.22228 -1.24121 0
M  V30 8626 C 828.021 -2.47077 -2.34874 0
M  V30 8627 H 829.214 -2.93797 -0.601936 0
M  V30 8628 H 826.767 -1.53828 -0.276878 0
M  V30 8629 H 827.502 -1.61901 -2.80996 0
M  V30 8630 H 827.287 -3.27097 -2.16218 0
M  V30 8631 H 828.777 -2.84564 -3.05635 0
M  V30 8632 N 829.214 0.302327 -1.54673 0
M  V30 8633 C 830.444 1.05516 -1.77623 0
M  V30 8634 C 830.852 1.81474 -0.535159 0
M  V30 8635 O 830.195 1.76635 0.504543 0
M  V30 8636 C 830.257 2.08305 -2.93001 0
M  V30 8637 C 829.921 1.51554 -4.31139 0
M  V30 8638 C 830.918 0.946261 -5.11216 0
M  V30 8639 C 828.603 1.55157 -4.77736 0
M  V30 8640 C 830.597 0.420559 -6.36011 0
M  V30 8641 C 828.284 1.022 -6.02494 0
M  V30 8642 C 829.282 0.457461 -6.81466 0
M  V30 8643 O 828.97 -0.064083 -8.03874 0
M  V30 8644 H 828.702 0.318756 -0.59613 0
M  V30 8645 H 831.256 0.347558 -2.02438 0
M  V30 8646 H 829.486 2.82742 -2.63807 0
M  V30 8647 H 831.175 2.69479 -3.03539 0
M  V30 8648 H 831.941 0.911338 -4.76361 0
M  V30 8649 H 827.82 1.98037 -4.16296 0
M  V30 8650 H 831.364 -0.0207298 -6.97597 0
M  V30 8651 H 827.261 1.05406 -6.36836 0
M  V30 8652 H 828.029 0.0493422 -8.18485 0
M  V30 8653 N 830.692 1.47107 0.565454 0
M  V30 8654 C 831.938 1.53535 1.32495 0
M  V30 8655 C 832.271 0.193537 1.93233 0
M  V30 8656 O 831.546 -0.796956 1.77423 0
M  V30 8657 C 831.829 2.64712 2.4413 0
M  V30 8658 C 831.682 4.08482 1.88314 0
M  V30 8659 C 833.001 2.71853 3.46098 0
M  V30 8660 H 830.12 0.558926 0.480386 0
M  V30 8661 H 832.762 1.79125 0.633575 0
M  V30 8662 H 830.912 2.43023 3.03104 0
M  V30 8663 H 832.584 4.4151 1.33665 0
M  V30 8664 H 830.827 4.17148 1.19037 0
M  V30 8665 H 831.498 4.82032 2.68978 0
M  V30 8666 H 833.974 2.91397 2.97031 0
M  V30 8667 H 832.85 3.51433 4.21646 0
M  V30 8668 H 833.111 1.78584 4.04426 0
M  V30 8669 N 832.17 -0.811516 1.35101 0
M  V30 8670 C 833.398 -1.59981 1.31201 0
M  V30 8671 C 833.813 -1.8847 -0.111552 0
M  V30 8672 O 833.17 -1.48414 -1.06205 0
M  V30 8673 C 833.221 -2.934 2.11184 0
M  V30 8674 O 832.942 -2.66148 3.4799 0
M  V30 8675 C 834.443 -3.87776 2.14813 0
M  V30 8676 H 831.663 -0.496921 0.450899 0
M  V30 8677 H 834.207 -1.00886 1.77883 0
M  V30 8678 H 832.362 -3.49022 1.68115 0
M  V30 8679 H 832.776 -3.51301 3.89471 0
M  V30 8680 H 834.25 -4.7852 2.75178 0
M  V30 8681 H 834.727 -4.23997 1.14556 0
M  V30 8682 H 835.333 -3.3809 2.58022 0
M  V30 8683 N 833.648 -1.19017 -1.03309 0
M  V30 8684 C 834.578 -0.94772 -2.13402 0
M  V30 8685 C 835.559 0.117383 -1.69694 0
M  V30 8686 O 836.744 -0.0367733 -1.94165 0
M  V30 8687 C 833.874 -0.480977 -3.43953 0
M  V30 8688 C 832.828 -1.48743 -4.01322 0
M  V30 8689 C 832.154 -0.877924 -5.27443 0
M  V30 8690 C 833.454 -2.86642 -4.36616 0
M  V30 8691 H 835.148 -1.86846 -2.33942 0
M  V30 8692 H 832.694 -0.899781 -1.12427 0
M  V30 8693 H 834.647 -0.298677 -4.2034 0
M  V30 8694 H 833.371 0.475348 -3.23122 0
M  V30 8695 H 832.03 -1.65681 -3.27025 0
M  V30 8696 H 831.678 0.0858232 -5.02927 0
M  V30 8697 H 831.378 -1.54996 -5.66789 0
M  V30 8698 H 832.902 -0.706326 -6.06501 0
M  V30 8699 H 834.316 -2.73312 -5.03958 0
M  V30 8700 H 832.713 -3.50599 -4.87032 0
M  V30 8701 H 833.783 -3.39617 -3.46105 0
M  V30 8702 N 835.127 1.22348 -0.993418 0
M  V30 8703 C 836.075 2.26315 -0.537052 0
M  V30 8704 C 837.069 1.643 0.412545 0
M  V30 8705 O 838.275 1.77729 0.285008 0
M  V30 8706 H 834.65 0.735792 -0.155286 0
M  V30 8707 H 836.621 2.62157 -1.42535 0
M  V30 8708 C 835.37 3.47449 0.132118 0
M  V30 8709 H 834.693 3.9543 -0.589519 0
M  V30 8710 H 836.133 4.21965 0.414884 0
M  V30 8711 C 834.592 3.07893 1.36761 0
M  V30 8712 O 835.122 3.17338 2.46291 0
M  V30 8713 N 833.328 2.62672 1.24305 0
M  V30 8714 H 832.875 2.55186 0.351826 0
M  V30 8715 H 832.833 2.36574 2.07076 0
M  V30 8716 N 836.605 0.766683 1.37694 0
M  V30 8717 C 837.555 0.123173 2.27667 0
M  V30 8718 C 838.539 -0.679436 1.45851 0
M  V30 8719 O 839.731 -0.54324 1.68457 0
M  V30 8720 C 836.86 -0.759064 3.34803 0
M  V30 8721 C 835.946 0.0511009 4.24069 0
M  V30 8722 N 836.337 1.09418 4.93823 0
M  V30 8723 C 834.635 -0.173675 4.45662 0
M  V30 8724 C 835.336 1.58546 5.59677 0
M  V30 8725 N 834.312 0.898503 5.36123 0
M  V30 8726 H 838.114 0.921859 2.79068 0
M  V30 8727 H 835.628 0.603957 1.50752 0
M  V30 8728 H 837.625 -1.23581 3.98163 0
M  V30 8729 H 836.285 -1.55655 2.84959 0
M  V30 8730 H 837.296 1.47623 4.96415 0
M  V30 8731 H 833.973 -0.943473 4.067 0
M  V30 8732 H 835.363 2.45504 6.25442 0
M  V30 8733 N 838.083 -1.48885 0.516809 0
M  V30 8734 C 839.331 -2.02088 -0.0220166 0
M  V30 8735 C 839.652 -1.39735 -1.36011 0
M  V30 8736 O 838.922 -0.558119 -1.87781 0
M  V30 8737 H 837.502 -0.746917 -0.0111255 0
M  V30 8738 H 840.164 -1.8274 0.677647 0
M  V30 8739 H 839.26 -3.11786 -0.140067 0
M  V30 8740 N 839.561 -0.251338 -1.55583 0
M  V30 8741 C 840.471 0.656978 -2.25213 0
M  V30 8742 C 841.487 1.18966 -1.26977 0
M  V30 8743 O 842.663 1.22499 -1.59862 0
M  V30 8744 C 839.728 1.83527 -2.94141 0
M  V30 8745 C 838.789 1.34162 -4.07798 0
M  V30 8746 C 838.022 2.46375 -4.73429 0
M  V30 8747 O 838.245 3.65205 -4.38157 0
M  V30 8748 O 837.179 2.15881 -5.61853 0
M  V30 8749 H 841.005 0.0936395 -3.03556 0
M  V30 8750 H 838.59 -0.0196638 -1.49387 0
M  V30 8751 H 840.472 2.52279 -3.3754 0
M  V30 8752 H 839.147 2.38614 -2.18735 0
M  V30 8753 H 838.054 0.621249 -3.68906 0
M  V30 8754 H 839.387 0.836779 -4.85035 0
M  V30 8755 N 841.039 1.57585 0.0217189 0
M  V30 8756 C 841.949 2.10444 1.03684 0
M  V30 8757 C 842.965 1.04472 1.39146 0
M  V30 8758 O 844.141 1.36249 1.48317 0
M  V30 8759 C 841.206 2.5794 2.31664 0
M  V30 8760 C 840.267 3.78425 2.02714 0
M  V30 8761 C 839.5 4.23646 3.24592 0
M  V30 8762 O 839.723 3.6834 4.35525 0
M  V30 8763 O 838.657 5.16013 3.09862 0
M  V30 8764 H 842.483 2.97354 0.617584 0
M  V30 8765 H 840.068 1.47473 0.239174 0
M  V30 8766 H 841.95 2.88785 3.06889 0
M  V30 8767 H 840.625 1.74138 2.7287 0
M  V30 8768 H 839.532 3.52587 1.25033 0
M  V30 8769 H 840.865 4.63234 1.66359 0
M  V30 8770 N 842.517 -0.29412 1.54831 0
M  V30 8771 C 843.928 -0.866651 1.65366 0
M  V30 8772 C 844.279 -1.87834 0.56681 0
M  V30 8773 O 843.404 -2.14374 -0.295389 0
M  V30 8774 C 843.999 -1.57869 2.99771 0
M  V30 8775 C 842.558 -2.09954 3.12404 0
M  V30 8776 C 841.705 -0.934492 2.6108 0
M  V30 8777 H 844.656 -0.0709551 1.58541 0
M  V30 8778 H 844.677 -2.44462 2.91579 0
M  V30 8779 H 844.189 -0.84212 3.78853 0
M  V30 8780 H 842.29 -2.86637 2.38055 0
M  V30 8781 H 842.403 -2.32934 4.18663 0
M  V30 8782 H 840.767 -1.32199 2.17705 0
M  V30 8783 H 841.55 -0.211768 3.42646 0
M  V30 8784 N 843.995 -1.47404 -0.557645 0
M  V30 8785 C 845.22 -1.57868 -1.34508 0
M  V30 8786 C 845.645 -0.229151 -1.86699 0
M  V30 8787 O 845.003 0.794908 -1.62944 0
M  V30 8788 C 845.051 -2.60712 -2.49122 0
M  V30 8789 O 844.155 -2.15952 -3.51338 0
M  V30 8790 H 843.496 -0.530335 -0.399551 0
M  V30 8791 H 846.026 -1.93181 -0.673954 0
M  V30 8792 H 846.036 -2.81118 -2.95697 0
M  V30 8793 H 844.711 -3.58701 -2.10491 0
M  V30 8794 H 843.288 -2.05644 -3.11071 0
M  V30 8795 N 845.473 0.80434 -1.35529 0
M  V30 8796 C 846.884 1.37849 -1.25915 0
M  V30 8797 C 847.235 1.95905 0.107495 0
M  V30 8798 O 846.36 1.91462 1.00852 0
M  V30 8799 C 846.955 2.50608 -2.27994 0
M  V30 8800 C 845.514 3.03879 -2.22114 0
M  V30 8801 C 844.661 1.76856 -2.13582 0
M  V30 8802 H 847.612 0.607192 -1.46625 0
M  V30 8803 H 847.633 3.29221 -1.90772 0
M  V30 8804 H 847.145 2.08323 -3.27449 0
M  V30 8805 H 845.246 3.50622 -1.26077 0
M  V30 8806 H 845.359 3.61707 -3.14173 0
M  V30 8807 H 843.723 1.98498 -1.59595 0
M  V30 8808 H 844.506 1.36721 -3.14901 0
M  V30 8809 N 846.951 1.19563 1.02676 0
M  V30 8810 C 847.861 0.950691 2.14474 0
M  V30 8811 C 848.877 -0.0900219 1.73767 0
M  V30 8812 O 850.053 0.0951063 2.01175 0
M  V30 8813 C 847.118 0.494917 3.43149 0
M  V30 8814 C 846.179 1.60527 3.98158 0
M  V30 8815 C 845.412 1.17115 5.20692 0
M  V30 8816 O 845.635 0.0355937 5.70389 0
M  V30 8817 O 844.569 1.97454 5.68591 0
M  V30 8818 H 848.395 1.88651 2.38001 0
M  V30 8819 H 845.98 0.978635 1.12885 0
M  V30 8820 H 847.862 0.249492 4.20661 0
M  V30 8821 H 846.537 -0.412434 3.21062 0
M  V30 8822 H 845.444 1.90487 3.21971 0
M  V30 8823 H 846.777 2.48925 4.24614 0
M  V30 8824 N 848.429 -1.21819 0.999893 0
M  V30 8825 C 849.359 -2.26282 0.576096 0
M  V30 8826 C 850.34 -1.65317 -0.400537 0
M  V30 8827 O 851.525 -1.92028 -0.28964 0
M  V30 8828 C 848.655 -3.47147 -0.103145 0
M  V30 8829 C 847.609 -4.20594 0.792745 0
M  V30 8830 C 846.935 -5.34696 -0.0198026 0
M  V30 8831 C 848.235 -4.78533 2.09293 0
M  V30 8832 H 849.929 -2.61984 1.4493 0
M  V30 8833 H 847.475 -1.25935 0.698316 0
M  V30 8834 H 849.428 -4.1939 -0.411068 0
M  V30 8835 H 848.152 -3.1056 -1.01094 0
M  V30 8836 H 846.811 -3.50194 1.08442 0
M  V30 8837 H 846.459 -4.94352 -0.928729 0
M  V30 8838 H 846.159 -5.84764 0.576661 0
M  V30 8839 H 847.683 -6.09752 -0.321659 0
M  V30 8840 H 849.097 -5.42682 1.8485 0
M  V30 8841 H 847.494 -5.38968 2.63881 0
M  V30 8842 H 848.564 -3.98197 2.76708 0
M  V30 8843 N 849.908 -0.773975 -1.37286 0
M  V30 8844 C 851.138 -0.350249 -2.03609 0
M  V30 8845 C 851.546 1.03313 -1.58502 0
M  V30 8846 O 850.889 1.67118 -0.7627 0
M  V30 8847 C 850.951 -0.317215 -3.58098 0
M  V30 8848 C 850.615 -1.64556 -4.26345 0
M  V30 8849 C 851.612 -2.59839 -4.50311 0
M  V30 8850 C 849.297 -1.92061 -4.64131 0
M  V30 8851 C 851.291 -3.80833 -5.11122 0
M  V30 8852 C 848.978 -3.13325 -5.24663 0
M  V30 8853 C 849.976 -4.0753 -5.48095 0
M  V30 8854 O 849.664 -5.26658 -6.0736 0
M  V30 8855 H 849.396 -0.144456 -0.660385 0
M  V30 8856 H 851.95 -1.0496 -1.76557 0
M  V30 8857 H 850.18 0.438528 -3.84205 0
M  V30 8858 H 851.869 0.0797428 -4.05822 0
M  V30 8859 H 852.635 -2.39872 -4.21529 0
M  V30 8860 H 848.514 -1.19562 -4.45226 0
M  V30 8861 H 852.058 -4.54377 -5.29327 0
M  V30 8862 H 847.955 -3.33177 -5.52869 0
M  V30 8863 H 848.723 -5.27513 -6.25837 0
M  V30 8864 N 851.386 1.48609 -0.524698 0
M  V30 8865 C 852.349 2.28041 0.230166 0
M  V30 8866 C 853.349 1.35065 0.872584 0
M  V30 8867 O 854.539 1.58007 0.73345 0
M  V30 8868 C 851.671 3.13778 1.33252 0
M  V30 8869 H 852.864 2.96239 -0.467161 0
M  V30 8870 H 850.417 1.53763 -0.280452 0
M  V30 8871 H 851.152 2.502 2.06327 0
M  V30 8872 H 850.937 3.82165 0.877058 0
M  V30 8873 H 852.427 3.7371 1.86362 0
M  V30 8874 N 852.864 0.259585 1.55447 0
M  V30 8875 C 853.774 -0.645026 2.25558 0
M  V30 8876 C 854.79 -1.18291 1.27606 0
M  V30 8877 O 855.966 -1.21649 1.6051 0
M  V30 8878 C 853.031 -1.81964 2.9511 0
M  V30 8879 C 852.092 -1.31997 4.08504 0
M  V30 8880 C 851.325 -2.43861 4.74729 0
M  V30 8881 O 851.548 -3.62876 4.40088 0
M  V30 8882 O 850.482 -2.12898 5.6299 0
M  V30 8883 H 854.308 -0.0775399 3.03601 0
M  V30 8884 H 851.893 0.0275859 1.49375 0
M  V30 8885 H 853.775 -2.50485 3.38873 0
M  V30 8886 H 852.45 -2.37451 2.19997 0
M  V30 8887 H 851.357 -0.601676 3.6923 0
M  V30 8888 H 852.69 -0.811045 4.85472 0
M  V30 8889 N 854.342 -1.57594 -0.0133615 0
M  V30 8890 C 855.588 -1.90262 -0.702019 0
M  V30 8891 C 855.921 -0.859219 -1.74158 0
M  V30 8892 O 855.196 0.123778 -1.94106 0
M  V30 8893 C 855.479 -3.3354 -1.35732 0
M  V30 8894 C 855.332 -4.48586 -0.330208 0
M  V30 8895 C 856.651 -3.76004 -2.28712 0
M  V30 8896 H 853.77 -0.691943 -0.253739 0
M  V30 8897 H 856.412 -1.89967 0.0351894 0
M  V30 8898 H 854.562 -3.33921 -1.98567 0
M  V30 8899 H 856.234 -4.6034 0.297433 0
M  V30 8900 H 854.477 -4.32394 0.348926 0
M  V30 8901 H 855.148 -5.45762 -0.827508 0
M  V30 8902 H 857.624 -3.77089 -1.75906 0
M  V30 8903 H 856.5 -4.77032 -2.71535 0
M  V30 8904 H 856.761 -3.09129 -3.16056 0
M  V30 8905 N 855.82 0.285905 -1.54985 0
M  V30 8906 C 857.236 0.632405 -1.46536 0
M  V30 8907 C 857.436 1.90074 -0.668888 0
M  V30 8908 O 856.492 2.51839 -0.182586 0
M  V30 8909 C 857.805 0.771361 -2.90638 0
M  V30 8910 C 859.353 0.866262 -3.00774 0
M  V30 8911 C 859.828 1.0371 -4.46103 0
M  V30 8912 N 861.319 1.10294 -4.49877 0
M  V30 8913 C 862.054 1.25369 -5.59527 0
M  V30 8914 N 861.55 1.37246 -6.7907 0
M  V30 8915 N 863.343 1.28377 -5.47244 0
M  V30 8916 H 855.494 -0.547226 -2.0523 0
M  V30 8917 H 857.757 -0.183298 -0.930111 0
M  V30 8918 H 857.463 -0.0899485 -3.51585 0
M  V30 8919 H 857.337 1.65569 -3.3892 0
M  V30 8920 H 859.724 1.71805 -2.39931 0
M  V30 8921 H 859.805 -0.0424049 -2.55765 0
M  V30 8922 H 859.449 0.190021 -5.07544 0
M  V30 8923 H 859.379 1.96022 -4.88757 0
M  V30 8924 H 861.87 1.02407 -3.6376 0
M  V30 8925 H 862.183 1.48546 -7.58389 0
M  V30 8926 H 860.528 1.34274 -6.81906 0
M  V30 8927 H 863.719 1.1872 -4.52795 0
M  V30 8928 H 863.892 1.39782 -6.32744 0
M  V30 8929 N 857.298 1.47698 0.54982 0
M  V30 8930 C 858.246 1.61156 1.67724 0
M  V30 8931 C 859.24 0.478606 1.62498 0
M  V30 8932 O 860.446 0.656661 1.67595 0
M  V30 8933 H 856.821 0.507304 0.55511 0
M  V30 8934 H 858.792 2.55884 1.53512 0
M  V30 8935 C 857.541 1.64994 3.06059 0
M  V30 8936 H 856.864 2.51525 3.10765 0
M  V30 8937 H 858.304 1.78459 3.84615 0
M  V30 8938 C 856.763 0.384677 3.34697 0
M  V30 8939 O 857.293 -0.511057 3.98436 0
M  V30 8940 N 855.499 0.262434 2.89413 0
M  V30 8941 H 855.046 0.99229 2.37721 0
M  V30 8942 H 855.004 -0.583177 3.08944 0
M  V30 8943 N 858.776 -0.797141 1.35954 0
M  V30 8944 C 860.022 -1.55636 1.30954 0
M  V30 8945 C 860.377 -1.92071 -0.112515 0
M  V30 8946 O 859.67 -1.5926 -1.06521 0
M  V30 8947 C 859.864 -2.84847 2.15863 0
M  V30 8948 C 859.693 -2.61039 3.66182 0
M  V30 8949 C 858.463 -2.56452 4.35385 0
M  V30 8950 C 860.661 -2.30766 4.59621 0
M  V30 8951 N 858.643 -2.2446 5.71394 0
M  V30 8952 C 860.014 -2.08695 5.8382 0
M  V30 8953 C 862.069 -2.16708 4.48266 0
M  V30 8954 C 860.772 -1.73989 6.9794 0
M  V30 8955 C 862.798 -1.83399 5.62244 0
M  V30 8956 C 862.16 -1.62171 6.85478 0
M  V30 8957 H 858.259 -0.570853 0.534463 0
M  V30 8958 H 860.843 -0.932261 1.7093 0
M  V30 8959 H 859.014 -3.45137 1.78144 0
M  V30 8960 H 860.746 -3.50503 2.02311 0
M  V30 8961 H 857.501 -2.7143 3.88101 0
M  V30 8962 H 857.925 -2.11232 6.43203 0
M  V30 8963 H 862.567 -2.31814 3.53585 0
M  V30 8964 H 860.285 -1.57621 7.92579 0
M  V30 8965 H 863.871 -1.73217 5.55416 0
M  V30 8966 H 862.751 -1.36774 7.7218 0
M  V30 8967 N 860.254 -1.20106 -1.0204 0
M  V30 8968 C 861.5 -1.01039 -1.75838 0
M  V30 8969 C 861.833 0.456819 -1.88751 0
M  V30 8970 O 861.108 1.33919 -1.41053 0
M  V30 8971 C 861.391 -1.69009 -3.17975 0
M  V30 8972 C 861.244 -3.2315 -3.1288 0
M  V30 8973 C 862.563 -1.42005 -4.16561 0
M  V30 8974 H 859.682 -0.368465 -0.638281 0
M  V30 8975 H 862.324 -1.48066 -1.19064 0
M  V30 8976 H 860.474 -1.29026 -3.66449 0
M  V30 8977 H 862.146 -3.72402 -2.72239 0
M  V30 8978 H 860.389 -3.54253 -2.50374 0
M  V30 8979 H 861.06 -3.65862 -4.13339 0
M  V30 8980 H 863.536 -1.76685 -3.76725 0
M  V30 8981 H 862.412 -1.92101 -5.14187 0
M  V30 8982 H 862.673 -0.346884 -4.40737 0
M  V30 8983 N 861.732 1.21287 -1.00634 0
M  V30 8984 C 863.148 1.42467 -0.719389 0
M  V30 8985 C 863.348 1.88767 0.704927 0
M  V30 8986 O 862.404 2.05004 1.47409 0
M  V30 8987 C 863.717 2.455 -1.73639 0
M  V30 8988 C 865.265 2.59281 -1.75335 0
M  V30 8989 C 865.74 3.65547 -2.75934 0
M  V30 8990 N 867.231 3.73019 -2.74611 0
M  V30 8991 C 867.966 4.54873 -3.4911 0
M  V30 8992 N 867.462 5.40614 -4.33253 0
M  V30 8993 N 869.255 4.49309 -3.37754 0
M  V30 8994 H 861.406 0.895454 -1.92602 0
M  V30 8995 H 863.669 0.455491 -0.831404 0
M  V30 8996 H 863.375 2.18455 -2.75627 0
M  V30 8997 H 863.249 3.44325 -1.54014 0
M  V30 8998 H 865.636 2.85661 -0.740377 0
M  V30 8999 H 865.717 1.60685 -1.99032 0
M  V30 9000 H 865.361 3.39911 -3.77389 0
M  V30 9001 H 865.291 4.63741 -2.49503 0
M  V30 9002 H 867.782 3.11766 -2.13565 0
M  V30 9003 H 868.095 6.0013 -4.86892 0
M  V30 9004 H 866.44 5.40151 -4.37335 0
M  V30 9005 H 869.631 3.81357 -2.71449 0
M  V30 9006 H 869.804 5.12867 -3.9607 0
M  V30 9007 N 863.21 0.781244 1.36873 0
M  V30 9008 C 864.157 0.172146 2.30157 0
M  V30 9009 C 865.127 -0.679328 1.51573 0
M  V30 9010 O 866.312 -0.629713 1.80109 0
M  V30 9011 C 863.452 -0.693534 3.38059 0
M  V30 9012 C 862.565 0.175586 4.31643 0
M  V30 9013 C 861.7 -0.695695 5.26625 0
M  V30 9014 C 860.739 0.17538 6.11849 0
M  V30 9015 N 859.876 -0.654416 6.99043 0
M  V30 9016 H 864.716 0.973133 2.81663 0
M  V30 9017 H 862.253 0.491469 1.38647 0
M  V30 9018 H 864.211 -1.21035 3.99257 0
M  V30 9019 H 862.841 -1.46003 2.87894 0
M  V30 9020 H 861.893 0.810295 3.7167 0
M  V30 9021 H 863.205 0.847107 4.91554 0
M  V30 9022 H 862.359 -1.27863 5.93073 0
M  V30 9023 H 861.098 -1.40087 4.67148 0
M  V30 9024 H 860.103 0.77078 5.4437 0
M  V30 9025 H 861.328 0.87803 6.734 0
M  V30 9026 H 859.274 -1.34403 6.42084 0
M  V30 9027 H 859.191 -0.0403998 7.55989 0
M  V30 9028 H 860.459 -1.22144 7.69871 0
M  V30 9029 N 864.689 -1.48329 0.532571 0
M  V30 9030 C 865.599 -2.33445 -0.232546 0
M  V30 9031 C 866.615 -1.46651 -0.93645 0
M  V30 9032 O 867.791 -1.79627 -0.910834 0
M  V30 9033 C 864.856 -3.22824 -1.26434 0
M  V30 9034 C 863.917 -4.25492 -0.570511 0
M  V30 9035 C 863.15 -5.10601 -1.55315 0
M  V30 9036 O 863.373 -4.97733 -2.78599 0
M  V30 9037 O 862.307 -5.91927 -1.09112 0
M  V30 9038 H 866.133 -3.00119 0.464988 0
M  V30 9039 H 863.718 -1.46489 0.293462 0
M  V30 9040 H 865.6 -3.78103 -1.86055 0
M  V30 9041 H 864.275 -2.58807 -1.94424 0
M  V30 9042 H 863.182 -3.74041 0.0662587 0
M  V30 9043 H 864.515 -4.92154 0.0674904 0
M  V30 9044 N 866.167 -0.267825 -1.55308 0
M  V30 9045 C 867.416 0.351635 -1.98611 0
M  V30 9046 C 867.729 1.57522 -1.15957 0
M  V30 9047 O 868.935 2.26717 -1.49371 0
M  V30 9048 C 867.391 0.676986 -3.53475 0
M  V30 9049 C 866.999 -0.526385 -4.44897 0
M  V30 9050 C 868.743 1.25948 -4.05386 0
M  V30 9051 C 866.65 -0.176026 -5.91138 0
M  V30 9052 H 865.58 0.13516 -0.741787 0
M  V30 9053 H 868.231 -0.371333 -1.79704 0
M  V30 9054 H 866.613 1.45866 -3.68156 0
M  V30 9055 H 867.787 -1.30339 -4.41982 0
M  V30 9056 H 866.102 -1.02522 -4.03582 0
M  V30 9057 H 868.699 1.53529 -5.12184 0
M  V30 9058 H 869.042 2.19094 -3.53982 0
M  V30 9059 H 869.575 0.540253 -3.94114 0
M  V30 9060 H 866.314 -1.07518 -6.46622 0
M  V30 9061 H 865.834 0.564363 -5.97139 0
M  V30 9062 H 867.513 0.234365 -6.46575 0
M  V30 9063 N 867.645 1.57599 0.00500368 0
M  V30 9064 C 868.893 1.89973 0.68953 0
M  V30 9065 C 869.214 0.868531 1.7459 0
M  V30 9066 O 868.484 -0.0947367 1.95671 0
M  V30 9067 H 867.064 0.701153 0.25767 0
M  V30 9068 H 869.726 1.94869 -0.0347392 0
M  V30 9069 H 868.822 2.89584 1.16394 0
M  V30 9070 N 869.123 -0.277682 1.55134 0
M  V30 9071 C 870.534 -0.849063 1.66276 0
M  V30 9072 C 870.885 -1.87223 0.5867 0
M  V30 9073 O 870.01 -2.14676 -0.272635 0
M  V30 9074 C 870.605 -1.54681 3.01429 0
M  V30 9075 C 869.164 -2.06628 3.14614 0
M  V30 9076 C 868.311 -0.906748 2.62056 0
M  V30 9077 H 871.262 -0.0541357 1.58608 0
M  V30 9078 H 871.283 -2.41356 2.94156 0
M  V30 9079 H 870.795 -0.80189 3.79725 0
M  V30 9080 H 868.896 -2.84095 2.41082 0
M  V30 9081 H 869.009 -2.2848 4.2111 0
M  V30 9082 H 867.373 -1.29882 2.19095 0
M  V30 9083 H 868.156 -0.175414 3.42852 0
M  V30 9084 N 870.601 -1.47988 -0.541979 0
M  V30 9085 C 871.531 -1.64503 -1.65713 0
M  V30 9086 C 872.512 -0.494116 -1.62765 0
M  V30 9087 O 873.697 -0.725256 -1.80149 0
M  V30 9088 C 870.827 -1.67337 -3.04328 0
M  V30 9089 C 869.781 -2.81809 -3.2213 0
M  V30 9090 C 869.107 -2.69724 -4.61685 0
M  V30 9091 C 870.407 -4.23241 -3.06046 0
M  V30 9092 H 872.101 -2.5786 -1.52147 0
M  V30 9093 H 869.647 -1.24094 -0.730529 0
M  V30 9094 H 871.6 -1.77481 -3.82202 0
M  V30 9095 H 870.324 -0.705514 -3.18889 0
M  V30 9096 H 868.983 -2.71201 -2.46669 0
M  V30 9097 H 868.631 -1.70934 -4.73065 0
M  V30 9098 H 868.331 -3.4653 -4.74543 0
M  V30 9099 H 869.855 -2.81818 -5.41674 0
M  V30 9100 H 871.269 -4.34746 -3.73723 0
M  V30 9101 H 869.666 -5.00952 -3.30405 0
M  V30 9102 H 870.736 -4.40543 -2.02609 0
M  V30 9103 N 872.079 0.78992 -1.36375 0
M  V30 9104 C 873.042 1.88414 -1.30509 0
M  V30 9105 C 874.042 1.59384 -0.2129 0
M  V30 9106 O 875.232 1.67805 -0.467651 0
M  V30 9107 C 872.364 3.25188 -1.02302 0
M  V30 9108 H 873.557 1.95031 -2.27822 0
M  V30 9109 H 871.11 0.987664 -1.2114 0
M  V30 9110 H 871.845 3.24254 -0.0544486 0
M  V30 9111 H 871.63 3.47647 -1.81338 0
M  V30 9112 H 873.12 4.05252 -1.00801 0
M  V30 9113 N 873.557 1.20646 1.01402 0
M  V30 9114 C 874.785 1.04389 1.78635 0
M  V30 9115 C 875.2 -0.406771 1.84366 0
M  V30 9116 O 874.557 -1.28239 1.2985 0
M  V30 9117 C 874.608 1.62378 3.22979 0
M  V30 9118 O 874.329 3.01768 3.17597 0
M  V30 9119 C 875.83 1.5111 4.1675 0
M  V30 9120 H 873.05 0.367077 0.56169 0
M  V30 9121 H 875.594 1.59789 1.27624 0
M  V30 9122 H 873.749 1.11092 3.7113 0
M  V30 9123 H 874.163 3.29331 4.08217 0
M  V30 9124 H 875.637 1.96441 5.15863 0
M  V30 9125 H 876.114 0.464011 4.36742 0
M  V30 9126 H 876.72 2.01599 3.74483 0
M  V30 9127 N 875.035 -1.20752 1.01276 0
M  V30 9128 C 876.446 -1.7175 0.732033 0
M  V30 9129 C 876.797 -1.8131 -0.749733 0
M  V30 9130 O 875.922 -1.47301 -1.58529 0
M  V30 9131 C 876.517 -3.11936 1.32217 0
M  V30 9132 C 875.076 -3.6026 1.09039 0
M  V30 9133 C 874.223 -2.37571 1.43022 0
M  V30 9134 H 877.174 -1.0582 1.1827 0
M  V30 9135 H 877.195 -3.73802 0.710771 0
M  V30 9136 H 876.707 -3.04946 2.40061 0
M  V30 9137 H 874.808 -3.72588 0.0294464 0
M  V30 9138 H 874.921 -4.45295 1.76775 0
M  V30 9139 H 873.285 -2.40128 0.849159 0
M  V30 9140 H 874.068 -2.33225 2.51915 0
M  V30 9141 N 876.513 -0.788492 -1.36457 0
M  V30 9142 C 877.79 -0.284484 -1.9352 0
M  V30 9143 C 878.17 1.2232 -1.7205 0
M  V30 9144 O 877.518 2.01424 -1.07892 0
M  V30 9145 C 877.728 -0.676106 -3.42388 0
M  V30 9146 C 879.076 -0.655327 -4.19512 0
M  V30 9147 O 880.1 -0.616523 -3.50824 0
M  V30 9148 O 878.959 -0.697391 -5.42032 0
M  V30 9149 H 876.053 -0.0701769 -0.824017 0
M  V30 9150 H 878.599 -0.870974 -1.45644 0
M  V30 9151 H 877.371 -1.71596 -3.51668 0
M  V30 9152 H 876.994 -0.0634517 -3.97549 0
M  V30 9153 N 877.991 1.48044 -0.54043 0
M  V30 9154 C 879.237 2.02797 -0.0101718 0
M  V30 9155 C 879.57 1.41565 1.32939 0
M  V30 9156 O 878.845 0.565139 1.86109 0
M  V30 9157 C 879.128 3.59959 0.100758 0
M  V30 9158 C 878.981 4.31654 -1.26471 0
M  V30 9159 C 880.3 4.32347 0.822455 0
M  V30 9160 H 877.419 0.736982 -0.00517052 0
M  V30 9161 H 880.061 1.76656 -0.69948 0
M  V30 9162 H 878.211 3.82363 0.687824 0
M  V30 9163 H 879.883 4.20639 -1.89369 0
M  V30 9164 H 878.126 3.92663 -1.84386 0
M  V30 9165 H 878.797 5.401 -1.13998 0
M  V30 9166 H 881.273 4.14835 0.324164 0
M  V30 9167 H 880.149 5.41978 0.868993 0
M  V30 9168 H 880.41 4.00369 1.87501 0
M  V30 9169 N 879.47 0.276058 1.55163 0
M  V30 9170 C 880.4 -0.604633 2.25536 0
M  V30 9171 C 881.381 -1.15813 1.24585 0
M  V30 9172 O 882.566 -1.1921 1.53306 0
M  V30 9173 C 879.696 -1.78836 2.97716 0
M  V30 9174 C 878.65 -1.36635 4.05604 0
M  V30 9175 C 877.976 -2.63325 4.65364 0
M  V30 9176 C 879.276 -0.515858 5.19746 0
M  V30 9177 H 880.97 -0.0177483 2.99395 0
M  V30 9178 H 878.516 -0.00709627 1.43998 0
M  V30 9179 H 880.469 -2.41036 3.45658 0
M  V30 9180 H 879.193 -2.40109 2.21394 0
M  V30 9181 H 877.852 -0.767541 3.58475 0
M  V30 9182 H 877.5 -3.22858 3.85709 0
M  V30 9183 H 877.2 -2.358 5.38212 0
M  V30 9184 H 878.724 -3.26372 5.16056 0
M  V30 9185 H 880.138 -1.04289 5.63735 0
M  V30 9186 H 878.535 -0.335449 5.99162 0
M  V30 9187 H 879.605 0.465137 4.82664 0
M  V30 9188 N 880.948 -1.576 0.00335426 0
M  V30 9189 C 881.898 -2.05116 -0.995562 0
M  V30 9190 C 882.882 -0.946535 -1.30113 0
M  V30 9191 O 884.074 -1.21028 -1.29156 0
M  V30 9192 C 881.203 -2.56077 -2.28648 0
M  V30 9193 C 880.289 -3.73422 -2.0104 0
M  V30 9194 N 880.68 -4.84986 -1.43603 0
M  V30 9195 C 878.978 -3.81416 -2.31166 0
M  V30 9196 C 879.679 -5.66399 -1.32542 0
M  V30 9197 N 878.655 -5.12505 -1.81218 0
M  V30 9198 H 882.457 -2.88783 -0.546025 0
M  V30 9199 H 879.971 -1.61135 -0.202265 0
M  V30 9200 H 881.968 -2.88395 -3.01055 0
M  V30 9201 H 880.628 -1.73829 -2.74251 0
M  V30 9202 H 881.639 -5.05768 -1.11439 0
M  V30 9203 H 878.316 -3.1003 -2.7962 0
M  V30 9204 H 879.706 -6.66066 -0.88348 0
M  V30 9205 N 882.426 0.269451 -1.5528 0
M  V30 9206 C 883.672 0.997946 -1.77236 0
M  V30 9207 C 884.027 1.83808 -0.568546 0
M  V30 9208 O 883.32 1.8651 0.438706 0
M  V30 9209 C 883.514 1.91 -3.02082 0
M  V30 9210 C 883.343 1.15963 -4.34491 0
M  V30 9211 C 882.113 0.873873 -4.97686 0
M  V30 9212 C 884.311 0.548307 -5.11369 0
M  V30 9213 N 882.293 0.0970863 -6.13823 0
M  V30 9214 C 883.664 -0.0941413 -6.19929 0
M  V30 9215 C 885.719 0.456507 -4.95803 0
M  V30 9216 C 884.422 -0.819547 -7.14616 0
M  V30 9217 C 886.448 -0.255315 -5.90849 0
M  V30 9218 C 885.81 -0.886488 -6.988 0
M  V30 9219 H 881.909 0.347038 -0.700777 0
M  V30 9220 H 884.493 0.273262 -1.92773 0
M  V30 9221 H 882.664 2.60691 -2.87915 0
M  V30 9222 H 884.396 2.57237 -3.12428 0
M  V30 9223 H 881.151 1.18003 -4.58663 0
M  V30 9224 H 881.575 -0.278741 -6.76426 0
M  V30 9225 H 886.217 0.930164 -4.12441 0
M  V30 9226 H 883.935 -1.30488 -7.97495 0
M  V30 9227 H 887.521 -0.32671 -5.80882 0
M  V30 9228 H 886.401 -1.42851 -7.71079 0
M  V30 9229 N 883.904 1.48273 0.534124 0
M  V30 9230 C 885.132 1.59734 1.31501 0
M  V30 9231 C 885.547 0.256047 1.87056 0
M  V30 9232 O 884.904 -0.754086 1.66192 0
M  V30 9233 C 884.955 2.64072 2.46877 0
M  V30 9234 O 884.676 3.92995 1.93613 0
M  V30 9235 C 886.177 2.85933 3.38758 0
M  V30 9236 H 883.397 0.538703 0.40005 0
M  V30 9237 H 885.941 1.9407 0.644762 0
M  V30 9238 H 884.096 2.32606 3.09795 0
M  V30 9239 H 884.51 4.50203 2.69106 0
M  V30 9240 H 885.984 3.62749 4.16073 0
M  V30 9241 H 886.461 1.94603 3.93734 0
M  V30 9242 H 887.067 3.18687 2.81636 0
M  V30 9243 N 885.382 -0.782676 1.36792 0
M  V30 9244 C 886.659 -1.52939 1.21939 0
M  V30 9245 C 887.039 -2.10228 -0.191639 0
M  V30 9246 O 886.387 -1.94574 -1.19805 0
M  V30 9247 C 886.597 -2.61898 2.30674 0
M  V30 9248 C 887.945 -3.29598 2.67676 0
M  V30 9249 O 888.969 -2.72186 2.29768 0
M  V30 9250 O 887.828 -4.3337 3.32946 0
M  V30 9251 H 884.922 -0.676856 0.47518 0
M  V30 9252 H 887.468 -0.82058 1.48542 0
M  V30 9253 H 886.24 -2.17607 3.25212 0
M  V30 9254 H 885.863 -3.40391 2.05475 0
M  V30 9255 N 886.86 -1.21182 -1.00761 0
M  V30 9256 C 888.085 -1.05411 -1.78615 0
M  V30 9257 C 888.51 0.391837 -1.83973 0
M  V30 9258 O 887.868 1.28256 -1.28141 0
M  V30 9259 C 887.916 -1.65285 -3.20489 0
M  V30 9260 O 887.02 -0.896558 -4.02536 0
M  V30 9261 H 886.361 -0.37116 -0.550578 0
M  V30 9262 H 888.891 -1.60669 -1.26676 0
M  V30 9263 H 888.901 -1.69397 -3.71172 0
M  V30 9264 H 887.576 -2.70514 -3.15904 0
M  V30 9265 H 886.153 -0.930335 -3.61108 0
M  V30 9266 N 888.338 1.20213 -1.01915 0
M  V30 9267 C 889.268 2.25336 -0.612023 0
M  V30 9268 C 890.249 1.65933 0.374186 0
M  V30 9269 O 891.434 1.92464 0.259053 0
M  V30 9270 C 888.564 3.47267 0.047904 0
M  V30 9271 C 887.518 4.1928 -0.859557 0
M  V30 9272 C 886.844 5.3466 -0.0652655 0
M  V30 9273 C 888.144 4.75143 -2.1688 0
M  V30 9274 H 889.838 2.59645 -1.49079 0
M  V30 9275 H 887.384 1.24808 -0.718263 0
M  V30 9276 H 889.337 4.19991 0.344294 0
M  V30 9277 H 888.061 3.12129 0.961404 0
M  V30 9278 H 886.72 3.48425 -1.13999 0
M  V30 9279 H 886.368 4.95767 0.849964 0
M  V30 9280 H 886.068 5.83772 -0.669618 0
M  V30 9281 H 887.592 6.10187 0.224612 0
M  V30 9282 H 889.006 5.39672 -1.9346 0
M  V30 9283 H 887.403 5.34702 -2.72422 0
M  V30 9284 H 888.473 3.93744 -2.83008 0
M  V30 9285 N 889.816 0.795718 1.36037 0
M  V30 9286 C 891.227 0.433379 1.816 0
M  V30 9287 C 891.578 -1.04341 1.66155 0
M  V30 9288 O 890.703 -1.81004 1.18603 0
M  V30 9289 C 891.298 0.77985 3.29703 0
M  V30 9290 C 889.857 0.470256 3.73451 0
M  V30 9291 C 889.004 1.01119 2.58206 0
M  V30 9292 H 891.955 0.988317 1.24169 0
M  V30 9293 H 891.976 0.0732898 3.80429 0
M  V30 9294 H 891.488 1.85473 3.40913 0
M  V30 9295 H 889.589 -0.596332 3.67797 0
M  V30 9296 H 889.702 0.995276 4.68648 0
M  V30 9297 H 888.066 0.434077 2.50974 0
M  V30 9298 H 888.849 2.09196 2.72198 0
M  V30 9299 N 891.294 -1.47756 0.548274 0
M  V30 9300 C 892.241 -2.29893 -0.204408 0
M  V30 9301 C 893.211 -1.38509 -0.916761 0
M  V30 9302 O 894.396 -1.67472 -0.91421 0
M  V30 9303 C 891.536 -3.22282 -1.23403 0
M  V30 9304 C 890.649 -4.28753 -0.528654 0
M  V30 9305 C 889.784 -5.08303 -1.54279 0
M  V30 9306 C 888.823 -6.06557 -0.821893 0
M  V30 9307 N 887.96 -6.79098 -1.78243 0
M  V30 9308 H 892.8 -2.93739 0.502163 0
M  V30 9309 H 890.337 -1.44793 0.259471 0
M  V30 9310 H 892.295 -3.74262 -1.84348 0
M  V30 9311 H 890.925 -2.6032 -1.90875 0
M  V30 9312 H 889.977 -3.79899 0.195132 0
M  V30 9313 H 891.289 -4.98787 0.0365066 0
M  V30 9314 H 890.443 -5.64388 -2.22602 0
M  V30 9315 H 889.182 -4.3815 -2.14186 0
M  V30 9316 H 888.187 -5.49659 -0.12469 0
M  V30 9317 H 889.412 -6.78715 -0.228685 0
M  V30 9318 H 887.358 -6.11682 -2.37025 0
M  V30 9319 H 887.275 -7.4527 -1.26919 0
M  V30 9320 H 888.543 -7.39762 -2.45709 0
M  V30 9321 N 892.772 -0.284283 -1.55015 0
M  V30 9322 C 894 0.332948 -2.04203 0
M  V30 9323 C 894.415 1.48783 -1.16229 0
M  V30 9324 O 893.772 1.81567 -0.184323 0
M  V30 9325 C 893.823 0.805207 -3.52418 0
M  V30 9326 O 893.544 -0.303689 -4.37046 0
M  V30 9327 C 895.045 1.48931 -4.17534 0
M  V30 9328 H 892.265 0.0747447 -0.666824 0
M  V30 9329 H 894.809 -0.419048 -2.00161 0
M  V30 9330 H 892.964 1.50727 -3.56876 0
M  V30 9331 H 893.378 0.0609703 -5.24465 0
M  V30 9332 H 894.852 1.77108 -5.22816 0
M  V30 9333 H 895.329 2.42389 -3.66257 0
M  V30 9334 H 895.935 0.830867 -4.17105 0
M  V30 9335 N 894.251 1.57596 -0.0117121 0
M  V30 9336 C 895.667 1.55837 0.344506 0
M  V30 9337 C 895.867 1.01557 1.74036 0
M  V30 9338 O 894.923 0.654563 2.43868 0
M  V30 9339 C 896.236 2.99973 0.209023 0
M  V30 9340 C 897.784 3.11717 0.283092 0
M  V30 9341 C 898.259 4.57659 0.176599 0
M  V30 9342 N 899.75 4.62608 0.234133 0
M  V30 9343 C 900.485 5.73132 0.175252 0
M  V30 9344 N 899.981 6.92768 0.0662888 0
M  V30 9345 N 901.774 5.61638 0.227972 0
M  V30 9346 H 893.925 1.91215 -0.924692 0
M  V30 9347 H 896.188 0.878807 -0.355531 0
M  V30 9348 H 895.894 3.4357 -0.751826 0
M  V30 9349 H 895.768 3.64075 0.98635 0
M  V30 9350 H 898.155 2.68043 1.23439 0
M  V30 9351 H 898.236 2.50369 -0.52431 0
M  V30 9352 H 897.88 5.02011 -0.771205 0
M  V30 9353 H 897.81 5.16967 1.00264 0
M  V30 9354 H 900.301 3.76549 0.319203 0
M  V30 9355 H 900.614 7.72795 0.0275765 0
M  V30 9356 H 898.959 6.94993 0.0317502 0
M  V30 9357 H 902.15 4.67063 0.311377 0
M  V30 9358 H 902.323 6.47754 0.178621 0
M  V30 9359 N 895.729 -0.261212 1.5542 0
M  V30 9360 C 896.954 -1.01341 1.80955 0
M  V30 9361 C 897.379 -1.78711 0.586849 0
M  V30 9362 O 896.737 -1.75266 -0.463837 0
M  V30 9363 C 896.785 -1.93835 3.04073 0
M  V30 9364 O 895.889 -3.02791 2.79985 0
M  V30 9365 H 895.23 -0.289123 0.597749 0
M  V30 9366 H 897.76 -0.286543 2.02584 0
M  V30 9367 H 897.77 -2.3557 3.33123 0
M  V30 9368 H 896.445 -1.36936 3.9271 0
M  V30 9369 H 895.022 -2.65287 2.62063 0
M  V30 9370 N 897.207 -1.48554 -0.526253 0
M  V30 9371 C 898.455 -1.56452 -1.27935 0
M  V30 9372 C 898.776 -0.24184 -1.93495 0
M  V30 9373 O 898.046 0.736917 -1.81511 0
M  V30 9374 H 896.626 -0.576379 -0.47518 0
M  V30 9375 H 899.288 -1.85039 -0.612083 0
M  V30 9376 H 898.384 -2.34751 -2.05666 0
M  V30 9377 N 898.685 0.775411 -1.37205 0
M  V30 9378 C 899.632 1.88857 -1.32671 0
M  V30 9379 C 900.602 1.64976 -0.192899 0
M  V30 9380 O 901.787 1.86944 -0.381673 0
M  V30 9381 C 898.927 3.25871 -1.13588 0
M  V30 9382 C 898.04 3.61731 -2.36167 0
M  V30 9383 C 897.175 4.87934 -2.09985 0
M  V30 9384 C 896.214 5.16514 -3.2845 0
M  V30 9385 N 895.351 6.33905 -3.01842 0
M  V30 9386 H 900.191 1.92068 -2.27846 0
M  V30 9387 H 897.728 0.939066 -1.13225 0
M  V30 9388 H 899.686 4.04903 -1.00546 0
M  V30 9389 H 898.316 3.22045 -0.220613 0
M  V30 9390 H 897.368 2.77712 -2.59962 0
M  V30 9391 H 898.68 3.78792 -3.24528 0
M  V30 9392 H 897.834 5.74863 -1.93953 0
M  V30 9393 H 896.573 4.7297 -1.18956 0
M  V30 9394 H 895.578 4.28063 -3.45025 0
M  V30 9395 H 896.803 5.33389 -4.20325 0
M  V30 9396 H 894.749 6.20306 -2.13439 0
M  V30 9397 H 894.666 6.51364 -3.83746 0
M  V30 9398 H 895.934 7.23779 -2.8942 0
M  V30 9399 N 900.163 1.21714 1.00117 0
M  V30 9400 C 901.412 1.03087 1.73367 0
M  V30 9401 C 901.725 -0.435532 1.90689 0
M  V30 9402 O 902.931 -0.741291 2.61184 0
M  V30 9403 C 901.387 1.79593 3.11888 0
M  V30 9404 C 900.995 3.30428 3.02525 0
M  V30 9405 C 902.739 1.69386 3.89241 0
M  V30 9406 C 900.646 3.99408 4.3615 0
M  V30 9407 H 899.576 0.382117 0.650002 0
M  V30 9408 H 902.227 1.45486 1.11831 0
M  V30 9409 H 900.609 1.29988 3.74058 0
M  V30 9410 H 901.783 3.87364 2.49571 0
M  V30 9411 H 900.098 3.4122 2.38659 0
M  V30 9412 H 902.695 2.18251 4.8813 0
M  V30 9413 H 903.038 0.652773 4.1115 0
M  V30 9414 H 903.571 2.16489 3.33733 0
M  V30 9415 H 900.31 5.03735 4.19442 0
M  V30 9416 H 899.83 3.47261 4.8905 0
M  V30 9417 H 901.509 4.04537 5.04934 0
M  V30 9418 N 901.641 -1.19671 1.02551 0
M  V30 9419 C 902.574 -2.21522 0.547998 0
M  V30 9420 C 903.552 -1.57363 -0.409349 0
M  V30 9421 O 904.736 -1.85638 -0.327248 0
M  V30 9422 C 901.863 -3.38101 -0.201375 0
M  V30 9423 C 900.909 -4.20601 0.706886 0
M  V30 9424 S 901.742 -4.89066 2.18116 0
M  V30 9425 C 902.898 -6.09058 1.4422 0
M  V30 9426 H 903.131 -2.61684 1.41099 0
M  V30 9427 H 900.664 -1.29864 0.835153 0
M  V30 9428 H 902.622 -4.05674 -0.627607 0
M  V30 9429 H 901.283 -2.96381 -1.04005 0
M  V30 9430 H 900.476 -5.03836 0.128554 0
M  V30 9431 H 900.078 -3.58329 1.07129 0
M  V30 9432 H 902.37 -6.73588 0.726975 0
M  V30 9433 H 903.313 -6.71368 2.25102 0
M  V30 9434 H 903.721 -5.56599 0.941176 0
M  V30 9435 N 903.119 -0.802921 -1.35613 0
M  V30 9436 C 904.535 -0.486214 -1.52014 0
M  V30 9437 C 904.735 0.993219 -1.75321 0
M  V30 9438 O 903.791 1.77835 -1.79251 0
M  V30 9439 C 905.104 -1.32839 -2.69767 0
M  V30 9440 C 906.652 -1.32346 -2.83643 0
M  V30 9441 C 907.127 -2.14967 -4.04417 0
M  V30 9442 N 908.618 -2.12484 -4.11588 0
M  V30 9443 C 909.353 -2.73173 -5.04147 0
M  V30 9444 N 908.849 -3.42774 -6.02061 0
M  V30 9445 N 910.642 -2.62834 -4.96865 0
M  V30 9446 H 902.793 -1.76109 -1.18741 0
M  V30 9447 H 905.056 -0.74936 -0.580658 0
M  V30 9448 H 904.762 -2.37813 -2.5911 0
M  V30 9449 H 904.636 -0.979058 -3.64272 0
M  V30 9450 H 907.023 -0.281586 -2.93753 0
M  V30 9451 H 907.104 -1.71264 -1.90006 0
M  V30 9452 H 906.748 -3.19193 -3.95068 0
M  V30 9453 H 906.678 -1.73411 -4.97228 0
M  V30 9454 H 909.169 -1.61839 -3.41492 0
M  V30 9455 H 909.482 -3.86378 -6.69277 0
M  V30 9456 H 907.827 -3.46878 -6.02246 0
M  V30 9457 H 911.018 -2.08049 -4.19325 0
M  V30 9458 H 911.191 -3.10421 -5.68808 0
M  V30 9459 N 904.597 1.47463 -0.556102 0
M  V30 9460 C 906.013 1.58134 -0.21579 0
M  V30 9461 C 906.213 1.55486 1.28166 0
M  V30 9462 O 905.269 1.45768 2.06174 0
M  V30 9463 C 906.582 2.88686 -0.841464 0
M  V30 9464 C 908.13 3.02268 -0.812591 0
M  V30 9465 C 908.605 4.35518 -1.41731 0
M  V30 9466 N 910.096 4.42151 -1.38045 0
M  V30 9467 C 910.831 5.43817 -1.81799 0
M  V30 9468 N 910.327 6.52299 -2.33404 0
M  V30 9469 N 912.12 5.34855 -1.72877 0
M  V30 9470 H 904.271 1.47428 -1.52901 0
M  V30 9471 H 906.534 0.701586 -0.637559 0
M  V30 9472 H 906.24 2.96358 -1.8938 0
M  V30 9473 H 906.114 3.7572 -0.333846 0
M  V30 9474 H 908.501 2.94194 0.231056 0
M  V30 9475 H 908.582 2.16779 -1.35796 0
M  V30 9476 H 908.226 4.44348 -2.46002 0
M  V30 9477 H 908.156 5.19737 -0.847402 0
M  V30 9478 H 910.647 3.64348 -1.00296 0
M  V30 9479 H 910.96 7.26047 -2.64717 0
M  V30 9480 H 909.305 6.53192 -2.37414 0
M  V30 9481 H 912.496 4.49004 -1.32338 0
M  V30 9482 H 912.669 6.13949 -2.07294 0
M  V30 9483 N 906.075 0.2925 1.54862 0
M  V30 9484 C 907.324 -0.319994 1.99146 0
M  V30 9485 C 907.637 -1.55658 1.18448 0
M  V30 9486 O 908.843 -2.24312 1.52959 0
M  V30 9487 C 907.299 -0.620665 3.54508 0
M  V30 9488 C 906.907 0.597098 4.44003 0
M  V30 9489 C 908.651 -1.19482 4.07338 0
M  V30 9490 C 906.558 0.270049 5.90783 0
M  V30 9491 H 905.488 -0.123342 0.743843 0
M  V30 9492 H 908.139 0.399876 1.7909 0
M  V30 9493 H 906.521 -1.3999 3.7043 0
M  V30 9494 H 907.695 1.37354 4.39853 0
M  V30 9495 H 906.01 1.0893 4.019 0
M  V30 9496 H 908.607 -1.45362 5.14562 0
M  V30 9497 H 908.95 -2.13435 3.57423 0
M  V30 9498 H 909.483 -0.477485 3.94924 0
M  V30 9499 H 906.222 1.17791 6.4483 0
M  V30 9500 H 905.742 -0.469292 5.97961 0
M  V30 9501 H 907.421 -0.131471 6.46866 0
M  V30 9502 N 907.553 -1.57587 0.0200696 0
M  V30 9503 C 908.483 -2.12702 -0.963333 0
M  V30 9504 C 909.464 -1.04094 -1.34531 0
M  V30 9505 O 910.649 -1.31881 -1.42552 0
M  V30 9506 C 907.779 -2.64673 -2.24868 0
M  V30 9507 C 906.733 -3.77987 -2.00772 0
M  V30 9508 C 906.059 -4.16351 -3.35494 0
M  V30 9509 C 907.359 -5.0444 -1.35416 0
M  V30 9510 H 909.053 -2.95121 -0.504363 0
M  V30 9511 H 906.599 -1.41966 -0.24116 0
M  V30 9512 H 908.552 -3.01862 -2.94036 0
M  V30 9513 H 907.276 -1.79403 -2.72914 0
M  V30 9514 H 905.935 -3.41223 -1.34025 0
M  V30 9515 H 905.583 -3.28075 -3.81282 0
M  V30 9516 H 905.283 -4.92705 -3.20181 0
M  V30 9517 H 906.807 -4.56115 -4.05945 0
M  V30 9518 H 908.221 -5.39273 -1.94571 0
M  V30 9519 H 906.618 -5.85732 -1.30529 0
M  V30 9520 H 907.688 -4.83803 -0.325923 0
M  V30 9521 N 909.032 0.252966 -1.55557 0
M  V30 9522 C 910.448 0.60118 -1.47844 0
M  V30 9523 C 910.648 1.88612 -0.709055 0
M  V30 9524 O 909.704 2.51395 -0.235964 0
M  V30 9525 C 911.017 0.709539 -2.92209 0
M  V30 9526 C 912.565 0.802269 -3.02544 0
M  V30 9527 C 913.04 0.94224 -4.48203 0
M  V30 9528 N 914.531 1.00726 -4.52116 0
M  V30 9529 C 915.266 1.13472 -5.6206 0
M  V30 9530 N 914.762 1.22811 -6.81828 0
M  V30 9531 N 916.555 1.1674 -5.49844 0
M  V30 9532 H 908.706 -0.590635 -2.04023 0
M  V30 9533 H 910.969 -0.202986 -0.926013 0
M  V30 9534 H 910.675 -0.164505 -3.51315 0
M  V30 9535 H 910.549 1.58343 -3.42356 0
M  V30 9536 H 912.936 1.66677 -2.43522 0
M  V30 9537 H 913.017 -0.0966469 -2.55617 0
M  V30 9538 H 912.661 0.0823209 -5.07833 0
M  V30 9539 H 912.591 1.85611 -4.92805 0
M  V30 9540 H 915.082 0.946684 -3.6585 0
M  V30 9541 H 915.395 1.32426 -7.61369 0
M  V30 9542 H 913.74 1.19779 -6.84601 0
M  V30 9543 H 916.931 1.09089 -4.55211 0
M  V30 9544 H 917.104 1.26329 -6.35567 0
M  V30 9545 N 910.51 1.48831 0.518367 0
M  V30 9546 C 911.457 1.64216 1.62178 0
M  V30 9547 C 912.427 0.483942 1.58894 0
M  V30 9548 O 913.612 0.708857 1.77144 0
M  V30 9549 C 910.752 1.69867 3.00399 0
M  V30 9550 C 909.865 2.96875 3.1383 0
M  V30 9551 C 909 2.93613 4.42679 0
M  V30 9552 C 908.039 4.15276 4.4968 0
M  V30 9553 N 907.176 4.10024 5.69934 0
M  V30 9554 H 912.016 2.58439 1.48368 0
M  V30 9555 H 909.553 1.28154 0.722152 0
M  V30 9556 H 911.511 1.71124 3.8049 0
M  V30 9557 H 910.141 0.791249 3.12952 0
M  V30 9558 H 909.193 3.0531 2.26914 0
M  V30 9559 H 910.505 3.86863 3.14863 0
M  V30 9560 H 909.659 2.93337 5.31073 0
M  V30 9561 H 908.398 2.01375 4.44184 0
M  V30 9562 H 907.403 4.15816 3.59691 0
M  V30 9563 H 908.628 5.08687 4.49904 0
M  V30 9564 H 906.574 3.20613 5.72314 0
M  V30 9565 H 906.491 4.93728 5.72511 0
M  V30 9566 H 907.759 4.13824 6.60583 0
M  V30 9567 N 911.988 -0.768124 1.37614 0
M  V30 9568 C 913.237 -1.5221 1.32345 0
M  V30 9569 C 913.55 -1.95399 -0.0885761 0
M  V30 9570 O 914.756 -2.70216 -0.263752 0
M  V30 9571 C 913.212 -2.74872 2.32322 0
M  V30 9572 C 912.82 -2.38767 3.79071 0
M  V30 9573 C 914.564 -3.52805 2.36069 0
M  V30 9574 C 912.471 -3.57953 4.7077 0
M  V30 9575 H 911.401 -0.571461 0.491883 0
M  V30 9576 H 914.052 -0.841004 1.63093 0
M  V30 9577 H 912.434 -3.44889 1.94596 0
M  V30 9578 H 913.608 -1.7651 4.25654 0
M  V30 9579 H 911.923 -1.74 3.78303 0
M  V30 9580 H 914.52 -4.41397 3.01782 0
M  V30 9581 H 914.863 -3.92925 1.37535 0
M  V30 9582 H 915.396 -2.89788 2.72521 0
M  V30 9583 H 912.135 -3.22911 5.70446 0
M  V30 9584 H 911.655 -4.19302 4.28889 0
M  V30 9585 H 913.334 -4.2472 4.8808 0
M  V30 9586 N 913.466 -1.22244 -0.994698 0
M  V30 9587 C 914.429 -0.992308 -2.06606 0
M  V30 9588 C 915.429 0.0405872 -1.60749 0
M  V30 9589 O 916.619 -0.197737 -1.73074 0
M  V30 9590 C 913.751 -0.498499 -3.37236 0
M  V30 9591 H 914.944 -1.9429 -2.28455 0
M  V30 9592 H 912.497 -1.04087 -1.166 0
M  V30 9593 H 913.232 0.456531 -3.21071 0
M  V30 9594 H 913.017 -1.24367 -3.71854 0
M  V30 9595 H 914.507 -0.35768 -4.16065 0
M  V30 9596 N 914.944 1.19125 -1.03184 0
M  V30 9597 C 915.907 2.20662 -0.619766 0
M  V30 9598 C 916.907 1.57621 0.318179 0
M  V30 9599 O 918.097 1.73885 0.104783 0
M  V30 9600 C 915.229 3.40774 0.0926696 0
M  V30 9601 H 916.422 2.58633 -1.5182 0
M  V30 9602 H 913.975 1.32855 -0.823364 0
M  V30 9603 H 914.71 3.08324 1.00531 0
M  V30 9604 H 914.495 3.87766 -0.581344 0
M  V30 9605 H 915.985 4.15977 0.367792 0
M  V30 9606 N 916.422 0.810101 1.35185 0
M  V30 9607 C 917.67 0.391343 1.98275 0
M  V30 9608 C 917.991 -1.04592 1.64577 0
M  V30 9609 O 917.261 -1.72417 0.93001 0
M  V30 9610 H 915.841 0.141715 0.733434 0
M  V30 9611 H 918.503 1.03672 1.6504 0
M  V30 9612 H 917.599 0.49991 3.0807 0
M  V30 9613 N 917.9 -1.47166 0.563914 0
M  V30 9614 C 919.177 -1.95586 -0.0236172 0
M  V30 9615 C 919.557 -1.50655 -1.47872 0
M  V30 9616 O 918.905 -0.748479 -2.15894 0
M  V30 9617 C 919.115 -3.48762 0.128841 0
M  V30 9618 C 920.463 -4.24598 -0.0130544 0
M  V30 9619 O 921.487 -3.56155 0.0567242 0
M  V30 9620 O 920.346 -5.46253 -0.164332 0
M  V30 9621 H 917.44 -0.824793 -0.0603789 0
M  V30 9622 H 919.986 -1.57536 0.63091 0
M  V30 9623 H 918.758 -3.74291 1.14113 0
M  V30 9624 H 918.381 -3.93594 -0.56299 0
M  V30 9625 N 919.378 -0.300708 -1.54705 0
M  V30 9626 C 920.606 0.31127 -2.04545 0
M  V30 9627 C 921.021 1.47542 -1.178 0
M  V30 9628 O 920.378 1.81361 -0.203571 0
M  V30 9629 C 920.429 0.767783 -3.53253 0
M  V30 9630 O 920.15 -0.350027 -4.36699 0
M  V30 9631 C 921.651 1.44494 -4.1909 0
M  V30 9632 H 918.871 0.067668 -0.667579 0
M  V30 9633 H 921.415 -0.440254 -1.99705 0
M  V30 9634 H 919.57 1.46933 -3.58454 0
M  V30 9635 H 919.984 0.00534038 -5.245 0
M  V30 9636 H 921.458 1.71553 -5.24665 0
M  V30 9637 H 921.935 2.3849 -3.68808 0
M  V30 9638 H 922.541 0.786581 -4.17963 0
M  V30 9639 N 920.856 1.57574 -0.0284266 0
M  V30 9640 C 922.081 1.96479 0.664137 0
M  V30 9641 C 922.506 0.904826 1.64908 0
M  V30 9642 O 921.864 -0.134339 1.80802 0
M  V30 9643 C 921.912 3.34479 1.34745 0
M  V30 9644 O 921.016 3.30794 2.46271 0
M  V30 9645 H 920.357 0.640654 0.174524 0
M  V30 9646 H 922.887 2.04402 -0.0900729 0
M  V30 9647 H 922.897 3.70694 1.7044 0
M  V30 9648 H 921.572 4.1117 0.625468 0
M  V30 9649 H 920.149 3.06294 2.12693 0
M  V30 9650 N 922.334 -0.244713 1.55689 0
M  V30 9651 C 923.282 -1.32276 1.91326 0
M  V30 9652 C 924.276 -1.49714 0.792589 0
M  V30 9653 O 925.482 -1.51163 0.977227 0
M  V30 9654 H 921.857 -0.442979 0.607679 0
M  V30 9655 H 923.828 -0.99486 2.81327 0
M  V30 9656 C 922.577 -2.67077 2.22633 0
M  V30 9657 H 921.9 -2.54458 3.08368 0
M  V30 9658 H 923.34 -3.41378 2.5147 0
M  V30 9659 C 921.799 -3.20335 1.04342 0
M  V30 9660 O 922.329 -4.00633 0.292543 0
M  V30 9661 N 920.535 -2.78392 0.833457 0
M  V30 9662 H 920.082 -2.13202 1.44577 0
M  V30 9663 H 920.04 -3.1437 0.0436713 0
M  V30 9664 N 923.813 -1.49104 -0.510467 0
M  V30 9665 C 924.743 -1.67981 -1.62187 0
M  V30 9666 C 925.724 -0.528529 -1.6168 0
M  V30 9667 O 926.909 -0.763305 -1.7857 0
M  V30 9668 C 924.039 -1.73755 -3.0071 0
M  V30 9669 C 922.993 -2.88579 -3.1608 0
M  V30 9670 C 922.319 -2.79457 -4.5586 0
M  V30 9671 C 923.619 -4.29638 -2.97 0
M  V30 9672 H 925.313 -2.61029 -1.46643 0
M  V30 9673 H 922.859 -1.25615 -0.704042 0
M  V30 9674 H 924.812 -1.85548 -3.78352 0
M  V30 9675 H 923.536 -0.772996 -3.17321 0
M  V30 9676 H 922.195 -2.76372 -2.40861 0
M  V30 9677 H 921.843 -1.80929 -4.69333 0
M  V30 9678 H 921.543 -3.56518 -4.67086 0
M  V30 9679 H 923.067 -2.93245 -5.35574 0
M  V30 9680 H 924.481 -4.42575 -3.64418 0
M  V30 9681 H 922.878 -5.07847 -3.19704 0
M  V30 9682 H 923.948 -4.44741 -1.93219 0
M  V30 9683 N 925.291 0.760815 -1.38019 0
M  V30 9684 C 926.539 1.51673 -1.33566 0
M  V30 9685 C 926.86 1.94852 0.076024 0
M  V30 9686 O 926.13 1.67112 1.02227 0
M  V30 9687 H 924.71 0.562581 -0.491438 0
M  V30 9688 H 927.372 0.904832 -1.72623 0
M  V30 9689 H 926.468 2.41102 -1.98182 0
M  V30 9690 N 926.769 1.22769 0.988202 0
M  V30 9691 C 928.046 0.9635 1.70223 0
M  V30 9692 C 928.426 -0.520102 2.04593 0
M  V30 9693 O 927.774 -1.48934 1.73295 0
M  V30 9694 C 927.984 1.86583 2.94937 0
M  V30 9695 C 929.332 2.12469 3.67616 0
M  V30 9696 O 930.356 1.84069 3.04954 0
M  V30 9697 O 929.215 2.60595 4.80367 0
M  V30 9698 H 926.309 0.362737 0.743203 0
M  V30 9699 H 928.855 1.33776 1.04412 0
M  V30 9700 H 927.627 2.86913 2.66077 0
M  V30 9701 H 927.25 1.49344 3.68486 0
M  V30 9702 N 928.247 -1.18576 1.03814 0
M  V30 9703 C 929.475 -1.92437 0.759966 0
M  V30 9704 C 929.89 -1.76031 -0.682526 0
M  V30 9705 O 929.247 -1.08829 -1.46501 0
M  V30 9706 C 929.298 -3.43923 1.11351 0
M  V30 9707 O 929.019 -3.5981 2.49937 0
M  V30 9708 C 930.52 -4.34888 0.859472 0
M  V30 9709 H 927.74 -0.610998 0.277349 0
M  V30 9710 H 930.284 -1.50448 1.38512 0
M  V30 9711 H 928.439 -3.83711 0.533362 0
M  V30 9712 H 928.853 -4.53569 2.63393 0
M  V30 9713 H 930.327 -5.39744 1.15672 0
M  V30 9714 H 930.804 -4.38717 -0.205839 0
M  V30 9715 H 931.41 -4.00795 1.42279 0
M  V30 9716 N 929.725 -0.817259 -1.34754 0
M  V30 9717 C 930.95 -0.414423 -2.03217 0
M  V30 9718 C 931.375 0.970037 -1.61158 0
M  V30 9719 O 930.733 1.63016 -0.793436 0
M  V30 9720 C 930.781 -0.518087 -3.56859 0
M  V30 9721 O 929.885 0.464314 -4.09778 0
M  V30 9722 H 929.226 -0.171454 -0.641482 0
M  V30 9723 H 931.756 -1.10611 -1.72123 0
M  V30 9724 H 931.766 -0.391779 -4.06115 0
M  V30 9725 H 930.441 -1.52786 -3.86819 0
M  V30 9726 H 929.018 0.297361 -3.71712 0
M  V30 9727 N 931.203 1.46865 -0.571711 0
M  V30 9728 C 932.431 2.06818 -0.0583975 0
M  V30 9729 C 932.846 1.42218 1.24175 0
M  V30 9730 O 932.203 0.523655 1.74826 0
M  V30 9731 C 932.254 3.61281 0.125673 0
M  V30 9732 O 931.975 4.23462 -1.123 0
M  V30 9733 C 933.476 4.38137 0.674604 0
M  V30 9734 H 930.696 0.668948 -0.052438 0
M  V30 9735 H 933.24 1.88656 -0.789251 0
M  V30 9736 H 931.395 3.78908 0.806707 0
M  V30 9737 H 931.809 5.16192 -0.929869 0
M  V30 9738 H 933.283 5.46845 0.752626 0
M  V30 9739 H 933.76 4.05419 1.68915 0
M  V30 9740 H 934.366 4.2529 0.0287979 0
M  V30 9741 N 932.681 0.308908 1.54543 0
M  V30 9742 C 933.611 -0.556657 2.26768 0
M  V30 9743 C 934.592 -1.13145 1.27013 0
M  V30 9744 O 935.777 -1.15931 1.558 0
M  V30 9745 C 932.907 -1.72481 3.01443 0
M  V30 9746 C 931.861 -1.28001 4.08411 0
M  V30 9747 C 931.187 -2.53395 4.70845 0
M  V30 9748 C 932.487 -0.405497 5.20724 0
M  V30 9749 H 934.181 0.0457618 2.99365 0
M  V30 9750 H 931.727 0.0234495 1.43981 0
M  V30 9751 H 933.68 -2.3365 3.50693 0
M  V30 9752 H 932.404 -2.35359 2.26437 0
M  V30 9753 H 931.063 -0.69133 3.60022 0
M  V30 9754 H 930.711 -3.14604 3.92471 0
M  V30 9755 H 930.411 -2.2433 5.43093 0
M  V30 9756 H 931.935 -3.15352 5.22863 0
M  V30 9757 H 933.349 -0.923076 5.6582 0
M  V30 9758 H 931.746 -0.208282 5.99738 0
M  V30 9759 H 932.816 0.567412 4.81569 0
M  V30 9760 N 934.159 -1.57557 0.0367827 0
M  V30 9761 C 935.122 -2.09591 -0.927589 0
M  V30 9762 C 936.122 -1.01252 -1.24919 0
M  V30 9763 O 937.312 -1.27382 -1.18825 0
M  V30 9764 C 934.444 -2.56816 -2.24184 0
M  V30 9765 H 935.637 -2.96086 -0.476784 0
M  V30 9766 H 933.19 -1.54864 -0.211385 0
M  V30 9767 H 933.925 -1.73673 -2.73876 0
M  V30 9768 H 933.71 -3.35973 -2.0215 0
M  V30 9769 H 935.2 -2.97271 -2.93291 0
M  V30 9770 N 935.637 0.236453 -1.55816 0
M  V30 9771 C 936.914 0.986463 -1.68903 0
M  V30 9772 C 937.294 2.02984 -0.579722 0
M  V30 9773 O 936.642 2.24693 0.415389 0
M  V30 9774 C 936.852 1.61038 -3.09625 0
M  V30 9775 C 938.2 2.10829 -3.6856 0
M  V30 9776 O 939.224 1.7096 -3.12492 0
M  V30 9777 O 938.083 2.84064 -4.66873 0
M  V30 9778 H 935.177 0.459837 -0.687371 0
M  V30 9779 H 937.723 0.229412 -1.68142 0
M  V30 9780 H 936.495 0.856232 -3.81817 0
M  V30 9781 H 936.118 2.43336 -3.14441 0
M  V30 9782 N 937.115 1.49373 0.502552 0
M  V30 9783 C 938.526 1.52 1.0841 0
M  V30 9784 C 938.877 0.305317 1.9381 0
M  V30 9785 O 938.002 -0.585023 2.08342 0
M  V30 9786 C 938.597 2.75437 1.97281 0
M  V30 9787 C 937.156 2.80848 2.50602 0
M  V30 9788 C 936.303 2.45894 1.28186 0
M  V30 9789 H 939.254 1.56092 0.286533 0
M  V30 9790 H 939.275 2.55511 2.81947 0
M  V30 9791 H 938.787 3.63827 1.35098 0
M  V30 9792 H 936.888 1.96735 3.16427 0
M  V30 9793 H 937.001 3.82979 2.8786 0
M  V30 9794 H 935.365 1.97639 1.60657 0
M  V30 9795 H 936.148 3.36556 0.677139 0
M  V30 9796 N 938.594 -0.753485 1.38421 0
M  V30 9797 C 939.842 -1.50962 1.34368 0
M  V30 9798 C 940.163 -1.94889 -0.0656895 0
M  V30 9799 O 939.433 -1.67652 -1.01339 0
M  V30 9800 H 938.013 -0.559967 0.494415 0
M  V30 9801 H 940.675 -0.895665 1.73101 0
M  V30 9802 H 939.771 -2.40048 1.99458 0
M  V30 9803 N 940.072 -1.23292 -0.981677 0
M  V30 9804 C 941.318 -1.06582 -1.72535 0
M  V30 9805 C 941.651 0.396538 -1.90108 0
M  V30 9806 O 940.926 1.29363 -1.45243 0
M  V30 9807 C 941.209 -1.7904 -3.12437 0
M  V30 9808 C 941.062 -3.32941 -3.02441 0
M  V30 9809 C 942.381 -1.55185 -4.11832 0
M  V30 9810 H 939.5 -0.388585 -0.626236 0
M  V30 9811 H 942.142 -1.51779 -1.14293 0
M  V30 9812 H 940.292 -1.40619 -3.62158 0
M  V30 9813 H 941.964 -3.80875 -2.60254 0
M  V30 9814 H 940.207 -3.62039 -2.38977 0
M  V30 9815 H 940.878 -3.78827 -4.0149 0
M  V30 9816 H 943.354 -1.88581 -3.70913 0
M  V30 9817 H 942.23 -2.08362 -5.07815 0
M  V30 9818 H 942.491 -0.486925 -4.3941 0
M  V30 9819 N 941.55 1.18024 -1.04442 0
M  V30 9820 C 942.796 1.88377 -0.751133 0
M  V30 9821 C 943.129 1.80377 0.719571 0
M  V30 9822 O 942.404 1.20662 1.52548 0
M  V30 9823 C 942.687 3.38708 -1.22265 0
M  V30 9824 C 942.54 3.55499 -2.75574 0
M  V30 9825 C 943.859 4.32475 -0.815688 0
M  V30 9826 H 940.978 0.684037 -0.27434 0
M  V30 9827 H 943.62 1.38837 -1.29709 0
M  V30 9828 H 941.77 3.8103 -0.758192 0
M  V30 9829 H 943.442 3.22244 -3.30086 0
M  V30 9830 H 941.685 2.98028 -3.15217 0
M  V30 9831 H 942.356 4.60994 -3.03625 0
M  V30 9832 H 944.832 3.97953 -1.21542 0
M  V30 9833 H 943.708 5.36213 -1.17331 0
M  V30 9834 H 943.969 4.41207 0.280901 0
M  V30 9835 N 943.028 0.824394 1.34319 0
M  V30 9836 C 943.938 0.24932 2.33271 0
M  V30 9837 C 944.954 -0.617066 1.62691 0
M  V30 9838 O 946.13 -0.524616 1.94447 0
M  V30 9839 C 943.195 -0.578094 3.41846 0
M  V30 9840 C 942.256 0.310866 4.28173 0
M  V30 9841 C 941.489 -0.477153 5.31563 0
M  V30 9842 O 941.712 -1.71028 5.44156 0
M  V30 9843 O 940.646 0.141287 6.01734 0
M  V30 9844 H 944.472 1.06837 2.84288 0
M  V30 9845 H 942.057 0.58657 1.37403 0
M  V30 9846 H 943.939 -1.04878 4.0814 0
M  V30 9847 H 942.614 -1.37444 2.93071 0
M  V30 9848 H 941.521 0.829081 3.64797 0
M  V30 9849 H 942.854 1.07161 4.80393 0
M  V30 9850 N 944.506 -1.46559 0.579492 0
M  V30 9851 C 945.453 -2.30275 -0.155598 0
M  V30 9852 C 946.423 -1.40422 -0.887175 0
M  V30 9853 O 947.608 -1.69373 -0.878481 0
M  V30 9854 C 944.748 -3.24827 -1.16539 0
M  V30 9855 C 943.861 -4.29778 -0.43759 0
M  V30 9856 C 942.996 -5.11461 -1.43462 0
M  V30 9857 C 942.035 -6.08164 -0.693048 0
M  V30 9858 N 941.172 -6.82726 -1.63799 0
M  V30 9859 H 946.012 -2.92607 0.564356 0
M  V30 9860 H 943.549 -1.44211 0.290126 0
M  V30 9861 H 945.507 -3.78088 -1.76368 0
M  V30 9862 H 944.137 -2.64311 -1.8531 0
M  V30 9863 H 943.189 -3.794 0.27567 0
M  V30 9864 H 944.501 -4.98597 0.142298 0
M  V30 9865 H 943.655 -5.68982 -2.1058 0
M  V30 9866 H 942.394 -4.42595 -2.04844 0
M  V30 9867 H 941.399 -5.49799 -0.00807093 0
M  V30 9868 H 942.624 -6.79047 -0.0846678 0
M  V30 9869 H 940.57 -6.16572 -2.23997 0
M  V30 9870 H 940.487 -7.47795 -1.11082 0
M  V30 9871 H 941.755 -7.44807 -2.29962 0
M  V30 9872 N 945.984 -0.3171 -1.54377 0
M  V30 9873 C 946.914 0.544623 -2.2706 0
M  V30 9874 C 947.895 1.12469 -1.27611 0
M  V30 9875 O 949.08 1.15103 -1.56413 0
M  V30 9876 C 946.21 1.70879 -3.02353 0
M  V30 9877 C 945.164 1.25833 -4.09084 0
M  V30 9878 C 944.49 2.50894 -4.72182 0
M  V30 9879 C 945.79 0.377876 -5.20931 0
M  V30 9880 H 947.484 -0.0616372 -2.99337 0
M  V30 9881 H 945.03 -0.0310848 -1.43966 0
M  V30 9882 H 946.983 2.31787 -3.51927 0
M  V30 9883 H 945.707 2.34155 -2.27682 0
M  V30 9884 H 944.366 0.672228 -3.60384 0
M  V30 9885 H 944.014 3.12518 -3.94134 0
M  V30 9886 H 943.714 2.21447 -5.44275 0
M  V30 9887 H 945.238 3.12575 -5.24528 0
M  V30 9888 H 946.652 0.893056 -5.66302 0
M  V30 9889 H 945.049 0.176474 -5.9984 0
M  V30 9890 H 946.119 -0.592943 -4.81261 0
M  V30 9891 N 947.462 1.57535 -0.0451378 0
M  V30 9892 C 948.392 2.14208 0.929372 0
M  V30 9893 C 949.373 1.06221 1.32858 0
M  V30 9894 O 950.558 1.34132 1.40436 0
M  V30 9895 C 947.688 2.68217 2.20629 0
M  V30 9896 C 946.642 3.81134 1.94734 0
M  V30 9897 C 945.968 4.21636 3.28828 0
M  V30 9898 C 947.268 5.06531 1.27374 0
M  V30 9899 H 948.962 2.95886 0.457348 0
M  V30 9900 H 946.508 1.42332 0.218544 0
M  V30 9901 H 948.461 3.06502 2.89196 0
M  V30 9902 H 947.185 1.83722 2.70026 0
M  V30 9903 H 945.844 3.43312 1.28579 0
M  V30 9904 H 945.492 3.34099 3.76014 0
M  V30 9905 H 945.192 4.97736 3.12302 0
M  V30 9906 H 946.716 4.62516 3.98637 0
M  V30 9907 H 948.13 5.423 1.85967 0
M  V30 9908 H 946.527 5.87735 1.21194 0
M  V30 9909 H 947.597 4.84261 0.248913 0
M  V30 9910 N 948.94 -0.228186 1.55939 0
M  V30 9911 C 949.85 -1.30386 1.9503 0
M  V30 9912 C 950.866 -1.51645 0.853218 0
M  V30 9913 O 952.042 -1.64904 1.15623 0
M  V30 9914 C 949.107 -2.63489 2.25332 0
M  V30 9915 C 948.168 -2.5059 3.48573 0
M  V30 9916 C 947.401 -3.77345 3.7742 0
M  V30 9917 O 947.624 -4.80067 3.08045 0
M  V30 9918 O 946.558 -3.74855 4.70922 0
M  V30 9919 H 950.384 -1.0022 2.86687 0
M  V30 9920 H 947.969 -0.430503 1.43063 0
M  V30 9921 H 949.851 -3.4211 2.46046 0
M  V30 9922 H 948.526 -2.93349 1.3685 0
M  V30 9923 H 947.433 -1.70191 3.33145 0
M  V30 9924 H 948.766 -2.2567 4.37417 0
M  V30 9925 N 950.418 -1.49637 -0.494624 0
M  V30 9926 C 951.328 -1.69522 -1.62172 0
M  V30 9927 C 952.344 -0.577894 -1.64123 0
M  V30 9928 O 953.52 -0.853382 -1.82426 0
M  V30 9929 C 950.585 -1.7633 -2.9851 0
M  V30 9930 C 949.646 -2.99944 -3.07135 0
M  V30 9931 C 948.879 -3.06419 -4.36971 0
M  V30 9932 O 949.102 -2.20312 -5.26136 0
M  V30 9933 O 948.036 -3.9894 -4.507 0
M  V30 9934 H 951.862 -2.65017 -1.48324 0
M  V30 9935 H 949.447 -1.33454 -0.671603 0
M  V30 9936 H 951.329 -1.83125 -3.7953 0
M  V30 9937 H 950.004 -0.840155 -3.12607 0
M  V30 9938 H 948.911 -2.98664 -2.2528 0
M  V30 9939 H 950.244 -3.9176 -2.97968 0
M  V30 9940 N 951.896 0.746133 -1.38819 0
M  V30 9941 C 952.843 1.86001 -1.36647 0
M  V30 9942 C 953.813 1.6453 -0.227849 0
M  V30 9943 O 954.998 1.86092 -0.421241 0
M  V30 9944 C 952.138 3.23388 -1.20474 0
M  V30 9945 C 951.251 3.5664 -2.43786 0
M  V30 9946 C 950.386 4.8337 -2.20287 0
M  V30 9947 C 949.425 5.09431 -3.39332 0
M  V30 9948 N 948.562 6.2736 -3.1522 0
M  V30 9949 H 953.402 1.87192 -2.31869 0
M  V30 9950 H 950.939 0.914838 -1.15192 0
M  V30 9951 H 952.897 4.02679 -1.09112 0
M  V30 9952 H 951.527 3.21505 -0.288874 0
M  V30 9953 H 950.579 2.72135 -2.65794 0
M  V30 9954 H 951.891 3.71823 -3.3249 0
M  V30 9955 H 951.045 5.70619 -2.06103 0
M  V30 9956 H 949.784 4.70341 -1.28961 0
M  V30 9957 H 948.789 4.20648 -3.54027 0
M  V30 9958 H 950.014 5.24354 -4.31544 0
M  V30 9959 H 947.96 6.15639 -2.26549 0
M  V30 9960 H 947.877 6.43078 -3.97476 0
M  V30 9961 H 949.145 7.17477 -3.04707 0
M  V30 9962 N 953.375 1.23811 0.975125 0
M  V30 9963 C 954.307 0.981779 2.07108 0
M  V30 9964 C 955.32 -0.0461211 1.62735 0
M  V30 9965 O 956.509 0.190039 1.77486 0
M  V30 9966 C 953.609 0.458364 3.35786 0
M  V30 9967 C 952.782 1.54767 4.09104 0
M  V30 9968 C 951.841 1.0282 5.16057 0
M  V30 9969 O 950.867 1.71831 5.42644 0
M  V30 9970 N 952.069 -0.141243 5.80328 0
M  V30 9971 H 954.834 1.92537 2.29673 0
M  V30 9972 H 952.395 1.1474 1.14221 0
M  V30 9973 H 954.387 0.0957686 4.04587 0
M  V30 9974 H 952.957 -0.390768 3.10148 0
M  V30 9975 H 952.177 2.08279 3.34684 0
M  V30 9976 H 953.465 2.28006 4.54853 0
M  V30 9977 H 952.863 -0.718382 5.6112 0
M  V30 9978 H 951.42 -0.445052 6.50279 0
M  V30 9979 N 954.853 -1.17469 1.05066 0
M  V30 9980 C 955.816 -2.19648 0.654793 0
M  V30 9981 C 956.816 -1.58107 -0.293063 0
M  V30 9982 O 958.006 -1.74029 -0.077106 0
M  V30 9983 C 955.138 -3.40878 -0.0384437 0
M  V30 9984 H 956.331 -2.56184 1.55915 0
M  V30 9985 H 953.884 -1.31528 0.844396 0
M  V30 9986 H 954.619 -3.09885 -0.956133 0
M  V30 9987 H 954.404 -3.86792 0.642961 0
M  V30 9988 H 955.894 -4.1651 -0.301568 0
M  V30 9989 N 956.331 -0.831506 -1.3388 0
M  V30 9990 C 957.58 -0.420028 -1.97278 0
M  V30 9991 C 957.893 1.02441 -1.66629 0
M  V30 9992 O 959.099 1.54021 -2.23584 0
M  V30 9993 C 957.555 -0.700116 -3.53025 0
M  V30 9994 C 957.163 -2.15874 -3.92559 0
M  V30 9995 C 958.907 -0.355226 -4.23011 0
M  V30 9996 C 956.814 -2.38327 -5.41252 0
M  V30 9997 H 955.744 -0.153326 -0.738246 0
M  V30 9998 H 958.395 -1.01906 -1.52602 0
M  V30 9999 H 956.777 -0.0308044 -3.95988 0
M  V30 10000 H 957.951 -2.86792 -3.60675 0
M  V30 10001 H 956.266 -2.4659 -3.35533 0
M  V30 10002 H 958.863 -0.500701 -5.32351 0
M  V30 10003 H 959.206 0.70111 -4.10354 0
M  V30 10004 H 959.739 -0.979466 -3.85553 0
M  V30 10005 H 956.478 -3.42498 -5.58906 0
M  V30 10006 H 955.998 -1.71962 -5.74621 0
M  V30 10007 H 957.677 -2.21113 -6.08045 0
M  V30 10008 N 957.809 1.4625 -0.587256 0
M  V30 10009 C 958.772 2.28812 0.133238 0
M  V30 10010 C 959.772 1.38645 0.814513 0
M  V30 10011 O 960.962 1.60975 0.665774 0
M  V30 10012 C 958.094 3.19147 1.19824 0
M  V30 10013 H 959.287 2.93991 -0.592386 0
M  V30 10014 H 956.84 1.52435 -0.345416 0
M  V30 10015 H 957.575 2.58725 1.95529 0
M  V30 10016 H 957.36 3.85541 0.71418 0
M  V30 10017 H 958.85 3.81278 1.70344 0
M  V30 10018 N 959.287 0.325282 1.54207 0
M  V30 10019 C 960.22 -0.582485 2.20641 0
M  V30 10020 C 961.198 -1.11441 1.18405 0
M  V30 10021 O 962.382 -1.17809 1.4715 0
M  V30 10022 C 959.509 -1.79944 2.86946 0
M  V30 10023 C 958.555 -1.39861 4.02916 0
M  V30 10024 S 959.388 -0.433859 5.3374 0
M  V30 10025 C 960.544 -1.65806 6.03539 0
M  V30 10026 H 960.777 -0.0181601 2.97294 0
M  V30 10027 H 958.31 0.109365 1.54012 0
M  V30 10028 H 960.268 -2.4977 3.25769 0
M  V30 10029 H 958.929 -2.33495 2.10092 0
M  V30 10030 H 958.122 -2.30547 4.48179 0
M  V30 10031 H 957.724 -0.780036 3.65775 0
M  V30 10032 H 960.016 -2.59524 6.25822 0
M  V30 10033 H 960.959 -1.24756 6.97023 0
M  V30 10034 H 961.367 -1.84581 5.3347 0
M  V30 10035 N 960.765 -1.57509 0.0534917 0
M  V30 10036 C 962.176 -1.80374 -0.481867 0
M  V30 10037 C 962.527 -0.965917 -1.70776 0
M  V30 10038 O 961.652 -0.183167 -2.15623 0
M  V30 10039 C 962.247 -3.27146 -0.880978 0
M  V30 10040 C 960.806 -3.50921 -1.3613 0
M  V30 10041 C 959.953 -2.75237 -0.337611 0
M  V30 10042 H 962.904 -1.56222 0.279353 0
M  V30 10043 H 962.925 -3.38193 -1.74373 0
M  V30 10044 H 962.437 -3.88098 0.011441 0
M  V30 10045 H 960.538 -2.95251 -2.27283 0
M  V30 10046 H 960.651 -4.59632 -1.35186 0
M  V30 10047 H 959.015 -2.41444 -0.810991 0
M  V30 10048 H 959.798 -3.38918 0.546763 0
M  V30 10049 N 962.243 0.219913 -1.56058 0
M  V30 10050 C 963.468 0.965073 -1.83579 0
M  V30 10051 C 963.893 1.77092 -0.634024 0
M  V30 10052 O 963.251 1.76434 0.417205 0
M  V30 10053 C 963.299 1.85705 -3.09105 0
M  V30 10054 O 962.403 2.95261 -2.87914 0
M  V30 10055 H 961.744 0.273173 -0.605204 0
M  V30 10056 H 964.274 0.23273 -2.03272 0
M  V30 10057 H 964.284 2.26655 -3.39252 0
M  V30 10058 H 962.959 1.26476 -3.96203 0
M  V30 10059 H 961.536 2.58246 -2.69005 0
M  V30 10060 O 963.76 1.57313 0.365352 0
M  V30 10061 H 964.451 1.64911 1.01607 0
M  V30 END ATOM
M  V30 BEGIN BOND
M  V30 END BOND
M  V30 END CTAB
M  END
$$$$
