drugbank_target|Q01959 Sodium-dependent dopamine transporter (DB00182; DB00191; DB00245; DB00285; DB00408; DB00422; DB00454; DB00458; DB00476; DB00543; DB00579; DB00721; DB00726; DB00745; DB00830; DB00852; DB00865; DB00907; DB00937; DB00988; DB01104; DB01105; DB01114; DB01146; DB01149; DB01156; DB01161; DB01175; DB01238; DB01363; DB01442; DB01454; DB01463; DB01472; DB01576; DB01577; DB03701; DB04821; DB04947; DB06148; DB06156; DB06333; DB06413; DB06700; DB06701; DB12305; DB14754)
 OpenBabel12092119363D

  0  0  0     0  0            999 V3000
M  V30 BEGIN CTAB
M  V30 COUNTS 9692 9834 0 0 0
M  V30 BEGIN ATOM
M  V30 1 H -0.908 1.98254 -0.117106 0
M  V30 2 N 0 1.576 0 0
M  V30 3 C 0.933 2.03868 1.02534 0
M  V30 4 C 1.911 0.928543 1.3348 0
M  V30 5 O 3.095 1.19667 1.45644 0
M  V30 6 C 0.222 2.43627 2.35294 0
M  V30 7 C -0.732 3.65373 2.2001 0
M  V30 8 S 0.101 5.13292 1.52614 0
M  V30 9 C 1.257 5.56322 2.86805 0
M  V30 10 H 1.49 2.90518 0.631377 0
M  V30 11 H -0.977 1.52953 0.210867 0
M  V30 12 H 0.981 2.67203 3.11629 0
M  V30 13 H -0.358 1.57376 2.7183 0
M  V30 14 H -1.165 3.90944 3.18086 0
M  V30 15 H -1.563 3.418 1.51819 0
M  V30 16 H 0.729 5.58782 3.83104 0
M  V30 17 H 1.672 6.56266 2.65933 0
M  V30 18 H 2.08 4.83886 2.90714 0
M  V30 19 N 1.4781 -0.272755 1.55222 0
M  V30 20 C 2.7031 -1.02683 1.80197 0
M  V30 21 C 3.1281 -1.79142 0.573551 0
M  V30 22 O 2.4861 -1.74917 -0.476849 0
M  V30 23 C 2.5341 -1.9609 3.02624 0
M  V30 24 O 1.6381 -3.04863 2.77727 0
M  V30 25 H 0.9791 -0.293557 0.595584 0
M  V30 26 H 3.5091 -0.30159 2.02365 0
M  V30 27 H 3.5191 -2.38039 3.31363 0
M  V30 28 H 2.1941 -1.39851 3.91682 0
M  V30 29 H 0.7711 -2.67228 2.60084 0
M  V30 30 N 2.9562 -1.48159 -0.537278 0
M  V30 31 C 3.9032 -1.62138 -1.64256 0
M  V30 32 C 4.8732 -0.463668 -1.59497 0
M  V30 33 O 6.0582 -0.686241 -1.78032 0
M  V30 34 C 3.1982 -1.66028 -3.02537 0
M  V30 35 C 2.3112 -2.92855 -3.17585 0
M  V30 36 C 1.4462 -2.87952 -4.46382 0
M  V30 37 C 0.4852 -4.09516 -4.54932 0
M  V30 38 N -0.3778 -4.02733 -5.75109 0
M  V30 39 H 4.4622 -2.56529 -1.51647 0
M  V30 40 H 1.9992 -1.27224 -0.738414 0
M  V30 41 H 3.9572 -1.66265 -3.82638 0
M  V30 42 H 2.5872 -0.751331 -3.13934 0
M  V30 43 H 1.6392 -3.02395 -2.30784 0
M  V30 44 H 2.9512 -3.82822 -3.19764 0
M  V30 45 H 2.1052 -2.8655 -5.34765 0
M  V30 46 H 0.8442 -1.95702 -4.46712 0
M  V30 47 H -0.1508 -4.11201 -3.64957 0
M  V30 48 H 1.0742 -5.02917 -4.56346 0
M  V30 49 H -0.9798 -3.13299 -5.76351 0
M  V30 50 H -1.0628 -4.86397 -5.78752 0
M  V30 51 H 0.2052 -4.05379 -6.65799 0
M  V30 52 N 4.4343 0.785586 -1.36625 0
M  V30 53 C 5.6593 1.57963 -1.34397 0
M  V30 54 C 6.0843 1.87964 0.071526 0
M  V30 55 O 5.4423 1.48182 1.0446 0
M  V30 56 C 5.4903 2.87511 -2.17646 0
M  V30 57 O 4.5943 3.81281 -1.57158 0
M  V30 58 H 3.9353 0.479014 -0.459828 0
M  V30 59 H 6.4653 0.973411 -1.79961 0
M  V30 60 H 6.4753 3.36745 -2.30362 0
M  V30 61 H 5.1503 2.65002 -3.20541 0
M  V30 62 H 3.7273 3.39885 -1.53403 0
M  V30 63 N 5.9124 1.20967 1.01018 0
M  V30 64 C 6.8594 0.964281 2.09691 0
M  V30 65 C 7.8294 -0.107853 1.65749 0
M  V30 66 O 9.0144 0.0381987 1.90762 0
M  V30 67 C 6.1544 0.52943 3.41015 0
M  V30 68 C 5.2674 1.67043 3.98398 0
M  V30 69 C 4.4024 1.18525 5.17808 0
M  V30 70 C 3.4414 2.29892 5.67288 0
M  V30 71 N 2.5784 1.82546 6.77954 0
M  V30 72 H 7.4184 1.89463 2.30017 0
M  V30 73 H 4.9554 0.944289 1.1279 0
M  V30 74 H 6.9134 0.258588 4.16398 0
M  V30 75 H 5.5434 -0.363919 3.20742 0
M  V30 76 H 4.5954 2.05603 3.20049 0
M  V30 77 H 5.9074 2.50877 4.31117 0
M  V30 78 H 5.0614 0.870762 6.00419 0
M  V30 79 H 3.8004 0.316887 4.86669 0
M  V30 80 H 2.8054 2.6215 4.83278 0
M  V30 81 H 4.0304 3.17216 6.00459 0
M  V30 82 H 1.9764 0.980454 6.48632 0
M  V30 83 H 1.8934 2.59956 7.09901 0
M  V30 84 H 3.1614 1.54115 7.64113 0
M  V30 85 N 7.3905 -1.2043 1.01659 0
M  V30 86 C 8.6305 -1.91507 0.714456 0
M  V30 87 C 8.9945 -1.77073 -0.742237 0
M  V30 88 O 10.1955 -2.42631 -1.15688 0
M  V30 89 C 8.4665 -3.38795 1.13809 0
M  V30 90 S 10.0255 -4.28216 0.957925 0
M  V30 91 H 6.8435 -0.661571 0.260471 0
M  V30 92 H 9.4455 -1.45671 1.30384 0
M  V30 93 H 8.1495 -3.46822 2.19415 0
M  V30 94 H 7.6805 -3.89656 0.541474 0
M  V30 95 H 9.6955 -4.96007 -0.138531 0
M  V30 96 N 8.8686 -0.792821 -1.36206 0
M  V30 97 C 10.0936 -0.377701 -2.03932 0
M  V30 98 C 10.5186 0.998947 -1.59382 0
M  V30 99 O 9.8766 1.64421 -0.763903 0
M  V30 100 C 9.9246 -0.453635 -3.57735 0
M  V30 101 O 9.0286 0.538151 -4.08874 0
M  V30 102 H 8.3696 -0.159855 -0.644471 0
M  V30 103 H 10.8996 -1.07488 -1.7409 0
M  V30 104 H 10.9096 -0.318464 -4.06755 0
M  V30 105 H 9.5846 -1.45784 -3.89512 0
M  V30 106 H 8.1616 0.364359 -3.71116 0
M  V30 107 N 10.3467 1.47872 -0.545128 0
M  V30 108 C 11.5927 2.02793 -0.0166104 0
M  V30 109 C 11.9257 1.41987 1.32489 0
M  V30 110 O 11.2007 0.571045 1.85928 0
M  V30 111 C 11.4837 3.59989 0.0893294 0
M  V30 112 C 11.3367 4.3125 -1.27841 0
M  V30 113 C 12.6557 4.32606 0.808724 0
M  V30 114 H 9.7747 0.736962 -0.00751035 0
M  V30 115 H 12.4167 1.76433 -0.705085 0
M  V30 116 H 10.5667 3.82579 0.675681 0
M  V30 117 H 12.2387 4.20035 -1.90704 0
M  V30 118 H 10.4817 3.92076 -1.85632 0
M  V30 119 H 11.1527 5.39736 -1.15713 0
M  V30 120 H 13.6287 4.14936 0.310992 0
M  V30 121 H 12.5047 5.42251 0.851782 0
M  V30 122 H 12.7657 4.00963 1.86229 0
M  V30 123 N 11.8248 0.280983 1.55075 0
M  V30 124 C 13.0728 -0.333455 1.9933 0
M  V30 125 C 13.3938 -1.55937 1.17085 0
M  V30 126 O 12.6638 -1.94143 0.261805 0
M  V30 127 H 11.2438 -0.126197 0.736263 0
M  V30 128 H 13.9058 0.387678 1.91005 0
M  V30 129 H 13.0018 -0.619292 3.05894 0
M  V30 130 N 13.3029 -1.57598 0.00835791 0
M  V30 131 C 14.2329 -2.1198 -0.979113 0
M  V30 132 C 15.2139 -1.03091 -1.35301 0
M  V30 133 O 16.3989 -1.30818 -1.43528 0
M  V30 134 C 13.5289 -2.62995 -2.26828 0
M  V30 135 C 12.4829 -3.76485 -2.03576 0
M  V30 136 C 11.8089 -4.13846 -3.38579 0
M  V30 137 C 13.1089 -5.0342 -1.39161 0
M  V30 138 H 14.8029 -2.94738 -0.526281 0
M  V30 139 H 12.3489 -1.41783 -0.251704 0
M  V30 140 H 14.3019 -2.99669 -2.96271 0
M  V30 141 H 13.0259 -1.7737 -2.7424 0
M  V30 142 H 11.6849 -3.40217 -1.36557 0
M  V30 143 H 11.3329 -3.25232 -3.83709 0
M  V30 144 H 11.0329 -4.90312 -3.23834 0
M  V30 145 H 12.5569 -4.53086 -4.09323 0
M  V30 146 H 13.9709 -5.37812 -1.98573 0
M  V30 147 H 12.3679 -5.84746 -1.34878 0
M  V30 148 H 13.4379 -4.83548 -0.361868 0
M  V30 149 N 14.781 0.264519 -1.55364 0
M  V30 150 C 15.714 1.35297 -1.83766 0
M  V30 151 C 16.692 1.47171 -0.691336 0
M  V30 152 O 17.876 1.63663 -0.935238 0
M  V30 153 C 15.003 2.72847 -2.00679 0
M  V30 154 C 14.049 2.78214 -3.23263 0
M  V30 155 S 14.882 2.36601 -4.80396 0
M  V30 156 C 16.038 3.7611 -5.00292 0
M  V30 157 H 16.271 1.11003 -2.758 0
M  V30 158 H 13.804 0.464596 -1.47244 0
M  V30 159 H 15.762 3.52057 -2.11108 0
M  V30 160 H 14.423 2.94388 -1.09518 0
M  V30 161 H 13.616 3.7919 -3.3201 0
M  V30 162 H 13.218 2.07034 -3.11469 0
M  V30 163 H 15.51 4.71457 -4.86554 0
M  V30 164 H 16.453 3.7231 -6.02321 0
M  V30 165 H 16.861 3.67806 -4.28228 0
M  V30 166 N 16.2591 1.48442 0.529413 0
M  V30 167 C 17.4841 1.60406 1.31471 0
M  V30 168 C 17.9091 0.264738 1.86228 0
M  V30 169 O 17.2671 -0.763668 1.64432 0
M  V30 170 C 17.3151 2.65419 2.44101 0
M  V30 171 O 16.4191 2.22618 3.47153 0
M  V30 172 H 15.7601 0.537863 0.389357 0
M  V30 173 H 18.2901 1.94432 0.636965 0
M  V30 174 H 18.3001 2.86709 2.90279 0
M  V30 175 H 16.9751 3.62652 2.03608 0
M  V30 176 H 15.5521 2.11543 3.0709 0
M  V30 177 N 17.7372 -0.778329 1.37039 0
M  V30 178 C 18.9622 -1.57248 1.35233 0
M  V30 179 C 19.3872 -1.87999 -0.0615568 0
M  V30 180 O 18.7452 -1.48734 -1.03672 0
M  V30 181 C 18.7932 -2.86353 2.19167 0
M  V30 182 O 17.8972 -3.80442 1.59178 0
M  V30 183 H 17.2382 -0.476569 0.462362 0
M  V30 184 H 19.7682 -0.963853 1.80474 0
M  V30 185 H 19.7782 -3.35519 2.32145 0
M  V30 186 H 18.4532 -2.63299 3.21942 0
M  V30 187 H 17.0302 -3.39067 1.55203 0
M  V30 188 N 19.2153 -1.21501 -1.00376 0
M  V30 189 C 20.4613 -1.03452 -1.74429 0
M  V30 190 C 20.7943 0.430764 -1.89362 0
M  V30 191 O 20.0693 1.31962 -1.42886 0
M  V30 192 C 20.3523 -1.73375 -3.15615 0
M  V30 193 C 20.2053 -3.27431 -3.08397 0
M  V30 194 C 21.5243 -1.47732 -4.14564 0
M  V30 195 H 18.6433 -0.377226 -0.633143 0
M  V30 196 H 21.2853 -1.49693 -1.17013 0
M  V30 197 H 19.4353 -1.34064 -3.64636 0
M  V30 198 H 21.1073 -3.76119 -2.67081 0
M  V30 199 H 19.3503 -3.5767 -2.45468 0
M  V30 200 H 20.0213 -3.71524 -4.08258 0
M  V30 201 H 22.4973 -1.8186 -3.74254 0
M  V30 202 H 21.3733 -1.99169 -5.11491 0
M  V30 203 H 21.6343 -0.407589 -4.40217 0
M  V30 204 N 20.6934 1.19889 -1.02296 0
M  V30 205 C 21.9394 1.89701 -0.717033 0
M  V30 206 C 22.2724 1.7905 0.751989 0
M  V30 207 O 21.5474 1.17891 1.547 0
M  V30 208 C 21.8304 3.40858 -1.16136 0
M  V30 209 C 21.6834 3.60411 -2.69117 0
M  V30 210 C 23.0024 4.33876 -0.737549 0
M  V30 211 H 20.1214 0.688874 -0.261957 0
M  V30 212 H 22.7634 1.41154 -1.27183 0
M  V30 213 H 20.9134 3.82335 -0.689342 0
M  V30 214 H 22.5854 3.28145 -3.2422 0
M  V30 215 H 20.8284 3.03665 -3.0979 0
M  V30 216 H 21.4994 4.66396 -2.95261 0
M  V30 217 H 23.9754 4.00081 -1.14344 0
M  V30 218 H 22.8514 5.38242 -1.0764 0
M  V30 219 H 23.1124 4.40628 0.360436 0
M  V30 220 N 22.1715 0.800033 1.35784 0
M  V30 221 C 23.1345 0.211565 2.28221 0
M  V30 222 C 24.1345 -0.59728 1.49296 0
M  V30 223 O 25.3245 -0.416721 1.69142 0
M  V30 224 C 22.4565 -0.705846 3.33513 0
M  V30 225 H 23.6495 1.02677 2.81776 0
M  V30 226 H 21.2025 0.570211 1.45528 0
M  V30 227 H 21.9375 -1.54498 2.85133 0
M  V30 228 H 21.7225 -0.127655 3.91892 0
M  V30 229 H 23.2125 -1.11211 4.02519 0
M  V30 230 N 23.6496 -1.47581 0.552962 0
M  V30 231 C 25.0606 -1.86324 0.118463 0
M  V30 232 C 25.4116 -1.46006 -1.3106 0
M  V30 233 O 24.5366 -0.861182 -1.98526 0
M  V30 234 C 25.1316 -3.3816 0.20821 0
M  V30 235 C 23.6906 -3.7601 -0.171226 0
M  V30 236 C 22.8376 -2.71634 0.557686 0
M  V30 237 H 25.7886 -1.39159 0.762928 0
M  V30 238 H 25.8096 -3.76141 -0.574278 0
M  V30 239 H 25.3216 -3.67473 1.24841 0
M  V30 240 H 23.4226 -3.52313 -1.21269 0
M  V30 241 H 23.5356 -4.78745 0.184379 0
M  V30 242 H 21.8996 -2.547 0.00125792 0
M  V30 243 H 22.6826 -3.0379 1.59896 0
M  V30 244 N 25.1277 -0.289203 -1.54924 0
M  V30 245 C 26.0907 0.579144 -2.21762 0
M  V30 246 C 27.0907 1.07047 -1.1999 0
M  V30 247 O 28.2807 0.968384 -1.44803 0
M  V30 248 C 25.4127 1.80055 -2.8947 0
M  V30 249 H 26.6057 -0.00464908 -2.999 0
M  V30 250 H 24.1587 -0.0399306 -1.56249 0
M  V30 251 H 24.8937 2.42449 -2.15381 0
M  V30 252 H 24.6787 1.45602 -3.64064 0
M  V30 253 H 26.1687 2.41773 -3.40493 0
M  V30 254 N 26.6058 1.57591 -0.0167156 0
M  V30 255 C 27.5528 2.09462 0.969251 0
M  V30 256 C 28.5228 0.99381 1.33089 0
M  V30 257 O 29.7078 1.26726 1.42636 0
M  V30 258 C 26.8478 2.61622 2.25051 0
M  V30 259 C 25.9608 3.85666 1.94642 0
M  V30 260 C 25.0958 4.26266 3.16972 0
M  V30 261 C 24.1348 5.43101 2.82326 0
M  V30 262 N 23.2718 5.78915 3.97243 0
M  V30 263 H 28.1118 2.93428 0.519997 0
M  V30 264 H 25.6488 1.45044 0.245087 0
M  V30 265 H 27.6068 2.89949 2.99976 0
M  V30 266 H 26.2368 1.80505 2.67615 0
M  V30 267 H 25.2888 3.64145 1.10013 0
M  V30 268 H 26.6008 4.70678 1.65117 0
M  V30 269 H 25.7548 4.55963 4.00228 0
M  V30 270 H 24.4938 3.39996 3.49648 0
M  V30 271 H 23.4988 5.1311 1.97479 0
M  V30 272 H 24.7238 6.3106 2.50879 0
M  V30 273 H 22.6698 4.95602 4.29785 0
M  V30 274 H 22.5868 6.58539 3.71299 0
M  V30 275 H 23.8548 6.13212 4.81239 0
M  V30 276 N 28.0839 -0.256276 1.55502 0
M  V30 277 C 28.9939 -1.33882 1.92647 0
M  V30 278 C 30.0099 -1.53159 0.825727 0
M  V30 279 O 31.1859 -1.66963 1.12629 0
M  V30 280 C 28.2509 -2.6751 2.20543 0
M  V30 281 C 27.3119 -2.56836 3.43997 0
M  V30 282 C 26.5449 -3.84092 3.70553 0
M  V30 283 O 26.7679 -4.85545 2.99336 0
M  V30 284 O 25.7019 -3.83288 4.64084 0
M  V30 285 H 29.5279 -1.05374 2.84833 0
M  V30 286 H 27.1129 -0.456237 1.42263 0
M  V30 287 H 28.9949 -3.46492 2.39835 0
M  V30 288 H 27.6699 -2.9577 1.31536 0
M  V30 289 H 26.5769 -1.76172 3.30021 0
M  V30 290 H 27.9099 -2.33523 4.33275 0
M  V30 291 N 29.562 -1.4872 -0.521534 0
M  V30 292 C 30.973 -1.50607 -1.10337 0
M  V30 293 C 31.324 -0.280612 -1.94183 0
M  V30 294 O 30.449 0.611507 -2.0758 0
M  V30 295 C 31.044 -2.72903 -2.00772 0
M  V30 296 C 29.603 -2.77634 -2.54158 0
M  V30 297 C 28.75 -2.44241 -1.31307 0
M  V30 298 H 31.701 -1.55714 -0.306388 0
M  V30 299 H 31.722 -2.519 -2.85178 0
M  V30 300 H 31.234 -3.62077 -1.39721 0
M  V30 301 H 29.335 -1.92689 -3.18907 0
M  V30 302 H 29.448 -3.79283 -2.92714 0
M  V30 303 H 27.812 -1.95577 -1.63161 0
M  V30 304 H 28.595 -3.35666 -0.719943 0
M  V30 305 N 31.0401 0.771051 -1.3745 0
M  V30 306 C 31.9881 1.90574 -1.33358 0
M  V30 307 C 32.9821 1.67936 -0.22224 0
M  V30 308 O 34.1881 1.75717 -0.390304 0
M  V30 309 H 30.5631 0.626714 -0.415612 0
M  V30 310 H 32.5341 1.91142 -2.29144 0
M  V30 311 C 31.2831 3.27845 -1.15813 0
M  V30 312 H 30.6061 3.45842 -2.00583 0
M  V30 313 H 32.0461 4.07538 -1.17 0
M  V30 314 C 30.5051 3.36625 0.136165 0
M  V30 315 O 31.0351 3.85785 1.11949 0
M  V30 316 N 29.2411 2.89997 0.187099 0
M  V30 317 H 28.7881 2.50182 -0.613753 0
M  V30 318 H 28.7461 2.96252 1.05272 0
M  V30 319 N 32.5182 1.22032 0.997298 0
M  V30 320 C 33.4812 0.987909 2.06816 0
M  V30 321 C 34.4812 -0.0440084 1.6074 0
M  V30 322 O 35.6712 0.194053 1.73116 0
M  V30 323 C 32.8032 0.49132 3.37341 0
M  V30 324 H 33.9962 1.93803 2.28868 0
M  V30 325 H 31.5492 1.03838 1.16822 0
M  V30 326 H 32.2842 -0.463364 3.20973 0
M  V30 327 H 32.0692 1.23575 3.72118 0
M  V30 328 H 33.5592 0.348824 4.16141 0
M  V30 329 N 33.9963 -1.19345 1.0293 0
M  V30 330 C 35.2423 -1.89318 0.727083 0
M  V30 331 C 35.5753 -1.79446 -0.742483 0
M  V30 332 O 34.8503 -1.1871 -1.54072 0
M  V30 333 C 35.1333 -3.40238 1.17942 0
M  V30 334 C 34.9863 -3.58979 2.71024 0
M  V30 335 C 36.3053 -4.33479 0.760548 0
M  V30 336 H 33.4243 -0.687475 0.265606 0
M  V30 337 H 36.0663 -1.40477 1.2793 0
M  V30 338 H 34.2163 -3.81964 0.709608 0
M  V30 339 H 35.8883 -3.26421 3.25955 0
M  V30 340 H 34.1313 -3.02018 3.11396 0
M  V30 341 H 34.8023 -4.64823 2.9773 0
M  V30 342 H 37.2783 -3.99469 1.16464 0
M  V30 343 H 36.1543 -5.37664 1.10493 0
M  V30 344 H 36.4153 -4.40813 -0.337063 0
M  V30 345 N 35.4744 -0.807222 -1.35358 0
M  V30 346 C 36.7224 -0.387122 -1.98358 0
M  V30 347 C 37.0434 1.04942 -1.64354 0
M  V30 348 O 36.3134 1.72615 -0.926339 0
M  V30 349 H 34.8934 -0.140154 -0.733734 0
M  V30 350 H 37.5554 -1.0332 -1.6526 0
M  V30 351 H 36.6514 -0.493352 -3.08176 0
M  V30 352 N 36.9525 1.47285 -0.560781 0
M  V30 353 C 38.3635 1.86258 -0.128343 0
M  V30 354 C 38.7145 1.46699 1.30284 0
M  V30 355 O 37.8395 0.871698 1.98067 0
M  V30 356 C 38.4345 3.38044 -0.22614 0
M  V30 357 C 36.9935 3.76096 0.151283 0
M  V30 358 C 36.1405 2.71335 -0.572084 0
M  V30 359 H 39.0915 1.38752 -0.770297 0
M  V30 360 H 39.1125 3.76441 0.554322 0
M  V30 361 H 38.6245 3.66806 -1.26788 0
M  V30 362 H 36.7255 3.52951 1.19399 0
M  V30 363 H 36.8385 4.78641 -0.209765 0
M  V30 364 H 35.2025 2.54696 -0.0147653 0
M  V30 365 H 35.9855 3.02938 -1.61504 0
M  V30 366 N 38.4306 0.297415 1.54768 0
M  V30 367 C 39.3776 -0.580276 2.23386 0
M  V30 368 C 40.3476 -1.13238 1.21517 0
M  V30 369 O 41.5326 -1.17757 1.50126 0
M  V30 370 C 38.6726 -1.74801 2.97555 0
M  V30 371 C 37.7856 -1.22764 4.1419 0
M  V30 372 C 36.9206 -2.35895 4.75949 0
M  V30 373 C 35.9596 -1.80974 5.84735 0
M  V30 374 N 35.0966 -2.87664 6.40464 0
M  V30 375 H 39.9366 0.0114833 2.97998 0
M  V30 376 H 37.4736 0.0174361 1.4709 0
M  V30 377 H 39.4316 -2.43475 3.38786 0
M  V30 378 H 38.0616 -2.31145 2.25326 0
M  V30 379 H 37.1136 -0.433271 3.77924 0
M  V30 380 H 38.4256 -0.785551 4.92575 0
M  V30 381 H 37.5796 -3.12523 5.20014 0
M  V30 382 H 36.3186 -2.83429 3.96887 0
M  V30 383 H 35.3236 -1.02834 5.40097 0
M  V30 384 H 36.5486 -1.34348 6.65678 0
M  V30 385 H 34.4946 -3.34538 5.64287 0
M  V30 386 H 34.4116 -2.4794 7.14186 0
M  V30 387 H 35.6796 -3.642 6.89187 0
M  V30 388 N 39.9087 -1.5758 0.0250728 0
M  V30 389 C 40.8187 -2.1343 -0.973905 0
M  V30 390 C 41.8347 -1.08556 -1.35984 0
M  V30 391 O 43.0107 -1.40592 -1.44207 0
M  V30 392 C 40.0757 -2.64703 -2.23904 0
M  V30 393 C 39.1367 -3.84276 -1.91391 0
M  V30 394 C 38.3697 -4.33095 -3.11873 0
M  V30 395 O 38.5927 -3.81107 -4.24398 0
M  V30 396 O 37.5267 -5.24984 -2.94406 0
M  V30 397 H 41.3527 -2.99057 -0.529036 0
M  V30 398 H 38.9377 -1.48118 -0.195288 0
M  V30 399 H 40.8197 -2.97769 -2.98181 0
M  V30 400 H 39.4947 -1.82161 -2.6758 0
M  V30 401 H 38.4017 -3.56143 -1.14511 0
M  V30 402 H 39.7347 -4.67968 -1.52534 0
M  V30 403 N 41.3868 0.248026 -1.55636 0
M  V30 404 C 42.6328 0.97767 -1.77678 0
M  V30 405 C 42.9658 1.85016 -0.590135 0
M  V30 406 O 42.2408 1.90095 0.411611 0
M  V30 407 C 42.5238 1.83914 -3.09593 0
M  V30 408 C 42.3768 0.99491 -4.38659 0
M  V30 409 C 43.6958 2.82183 -3.37729 0
M  V30 410 H 40.8148 0.354005 -0.646413 0
M  V30 411 H 43.4568 0.248253 -1.88371 0
M  V30 412 H 41.6068 2.46104 -3.00608 0
M  V30 413 H 43.2788 0.391789 -4.59633 0
M  V30 414 H 41.5218 0.299231 -4.32767 0
M  V30 415 H 42.1928 1.63145 -5.2734 0
M  V30 416 H 44.6688 2.30129 -3.4667 0
M  V30 417 H 43.5448 3.39582 -4.31249 0
M  V30 418 H 43.8058 3.58588 -2.58586 0
M  V30 419 N 42.8649 1.48995 0.513639 0
M  V30 420 C 43.7749 1.67443 1.64317 0
M  V30 421 C 44.7909 0.556947 1.64846 0
M  V30 422 O 45.9669 0.830082 1.83498 0
M  V30 423 C 43.0319 1.72515 3.00732 0
M  V30 424 C 42.0929 2.96009 3.1093 0
M  V30 425 C 41.3259 3.00829 4.40837 0
M  V30 426 O 41.5489 2.13594 5.28898 0
M  V30 427 O 40.4829 3.93168 4.55744 0
M  V30 428 H 44.3089 2.63106 1.51687 0
M  V30 429 H 41.8939 1.32588 0.688543 0
M  V30 430 H 43.7759 1.78277 3.81831 0
M  V30 431 H 42.4509 0.800278 3.13651 0
M  V30 432 H 41.3579 2.9577 2.29065 0
M  V30 433 H 42.6909 3.87934 3.02933 0
M  V30 434 N 44.343 -0.763751 1.37857 0
M  V30 435 C 45.273 -1.89103 1.36975 0
M  V30 436 C 46.254 -1.68439 0.237152 0
M  V30 437 O 47.439 -1.8918 0.438713 0
M  V30 438 C 44.569 -3.26496 1.18395 0
M  V30 439 C 43.523 -3.61741 2.28751 0
M  V30 440 C 42.849 -4.97762 1.95286 0
M  V30 441 C 44.149 -3.67665 3.70972 0
M  V30 442 H 45.843 -1.90099 2.31307 0
M  V30 443 H 43.389 -0.91319 1.11341 0
M  V30 444 H 45.342 -4.05003 1.16406 0
M  V30 445 H 44.066 -3.25955 0.205215 0
M  V30 446 H 42.725 -2.85547 2.29909 0
M  V30 447 H 42.373 -4.93769 0.959221 0
M  V30 448 H 42.073 -5.22313 2.69189 0
M  V30 449 H 43.597 -5.7866 1.94898 0
M  V30 450 H 45.011 -4.36307 3.719 0
M  V30 451 H 43.408 -4.03718 4.43995 0
M  V30 452 H 44.478 -2.68134 4.0402 0
M  V30 453 N 45.8211 -1.22559 -0.990812 0
M  V30 454 C 47.0701 -1.04553 -1.72486 0
M  V30 455 C 47.3831 0.419349 -1.91052 0
M  V30 456 O 48.5891 0.719121 -2.61803 0
M  V30 457 C 47.0451 -1.82231 -3.10355 0
M  V30 458 C 46.6531 -3.32981 -2.99713 0
M  V30 459 C 48.3971 -1.7268 -3.87791 0
M  V30 460 C 46.3041 -4.03091 -4.32748 0
M  V30 461 H 45.2341 -0.387614 -0.646739 0
M  V30 462 H 47.8851 -1.46429 -1.10593 0
M  V30 463 H 46.2671 -1.33155 -3.72942 0
M  V30 464 H 47.4411 -3.89466 -2.46278 0
M  V30 465 H 45.7561 -3.43231 -2.35758 0
M  V30 466 H 48.3531 -2.22381 -4.86262 0
M  V30 467 H 48.6961 -0.687607 -4.10582 0
M  V30 468 H 49.2291 -2.1931 -3.31885 0
M  V30 469 H 45.9681 -5.07273 -4.15156 0
M  V30 470 H 45.4881 -3.51394 -4.86089 0
M  V30 471 H 47.1671 -4.08804 -5.01486 0
M  V30 472 N 47.2992 1.18797 -1.03562 0
M  V30 473 C 48.2292 2.24472 -0.643019 0
M  V30 474 C 49.2102 1.66433 0.351283 0
M  V30 475 O 50.3952 1.92803 0.232505 0
M  V30 476 C 47.5252 3.473 4.24935e-05 0
M  V30 477 C 46.4792 4.18055 -0.917257 0
M  V30 478 C 45.8052 5.34519 -0.138941 0
M  V30 479 C 47.1052 4.72109 -2.23407 0
M  V30 480 H 48.7992 2.57566 -1.52643 0
M  V30 481 H 46.3452 1.23806 -0.735394 0
M  V30 482 H 48.2982 4.20426 0.286383 0
M  V30 483 H 47.0222 3.13424 0.918299 0
M  V30 484 H 45.6812 3.46821 -1.1879 0
M  V30 485 H 45.3292 4.96891 0.781562 0
M  V30 486 H 45.0292 5.82794 -0.750005 0
M  V30 487 H 46.5532 6.10438 0.1405 0
M  V30 488 H 47.9672 5.36955 -2.00879 0
M  V30 489 H 46.3642 5.30897 -2.79765 0
M  V30 490 H 47.4342 3.89807 -2.88407 0
M  V30 491 N 48.7773 0.814389 1.34928 0
M  V30 492 C 50.0233 0.399013 1.98836 0
M  V30 493 C 50.3563 -1.03314 1.64438 0
M  V30 494 O 49.6313 -1.71811 0.911659 0
M  V30 495 C 49.9143 0.591629 3.55207 0
M  V30 496 C 49.7673 2.06928 3.99376 0
M  V30 497 C 51.0863 0.022199 4.40094 0
M  V30 498 H 48.2053 0.146451 0.722303 0
M  V30 499 H 50.8473 1.02537 1.59957 0
M  V30 500 H 48.9973 0.0584441 3.88456 0
M  V30 501 H 50.6693 2.66544 3.76499 0
M  V30 502 H 48.9123 2.56287 3.49999 0
M  V30 503 H 49.5833 2.1549 5.08201 0
M  V30 504 H 52.0593 0.477643 4.13349 0
M  V30 505 H 50.9353 0.186832 5.48582 0
M  V30 506 H 51.1963 -1.07215 4.28902 0
M  V30 507 N 50.2554 -1.46986 0.568584 0
M  V30 508 C 51.2024 -2.30153 -0.172707 0
M  V30 509 C 52.1724 -1.39759 -0.897586 0
M  V30 510 O 53.3574 -1.68716 -0.891044 0
M  V30 511 C 50.4974 -3.23952 -1.1895 0
M  V30 512 C 49.6104 -4.29441 -0.469517 0
M  V30 513 C 48.7454 -5.1038 -1.47259 0
M  V30 514 C 47.7844 -6.07632 -0.738225 0
M  V30 515 N 46.9214 -6.8149 -1.68868 0
M  V30 516 H 51.7614 -2.93019 0.542596 0
M  V30 517 H 49.2984 -1.44422 0.279401 0
M  V30 518 H 51.2564 -3.76767 -1.79173 0
M  V30 519 H 49.8864 -2.62926 -1.87269 0
M  V30 520 H 48.9384 -3.79594 0.247467 0
M  V30 521 H 50.2504 -4.98689 0.105241 0
M  V30 522 H 49.4044 -5.67402 -2.14803 0
M  V30 523 H 48.1434 -4.4106 -2.08128 0
M  V30 524 H 47.1484 -5.49778 -0.0489293 0
M  V30 525 H 48.3734 -6.78966 -0.135129 0
M  V30 526 H 46.3194 -6.14891 -2.28573 0
M  V30 527 H 46.2364 -7.46948 -1.16636 0
M  V30 528 H 47.5044 -7.43078 -2.3549 0
M  V30 529 N 51.7335 -0.305618 -1.54608 0
M  V30 530 C 52.6435 0.57778 -2.27374 0
M  V30 531 C 53.6595 1.14451 -1.31061 0
M  V30 532 O 54.8355 1.16831 -1.6405 0
M  V30 533 C 51.9005 1.73123 -3.00382 0
M  V30 534 C 50.9615 1.19812 -4.12242 0
M  V30 535 C 50.1945 2.2966 -4.81759 0
M  V30 536 O 50.4175 3.49651 -4.50666 0
M  V30 537 O 49.3515 1.96091 -5.69062 0
M  V30 538 H 53.1775 -0.012624 -3.03697 0
M  V30 539 H 50.7625 -0.0719184 -1.49227 0
M  V30 540 H 52.6445 2.40315 -3.4616 0
M  V30 541 H 51.3195 2.30815 -2.26949 0
M  V30 542 H 50.2265 0.491798 -3.70853 0
M  V30 543 H 51.5595 0.666566 -4.87666 0
M  V30 544 N 53.2116 1.57565 -0.0334293 0
M  V30 545 C 54.1436 2.0739 0.975811 0
M  V30 546 C 55.1566 0.998166 1.2861 0
M  V30 547 O 56.3456 1.27426 1.25 0
M  V30 548 C 53.4456 2.4871 2.30209 0
M  V30 549 C 52.6186 3.79413 2.17634 0
M  V30 550 C 51.6776 4.07237 3.33233 0
M  V30 551 O 50.7036 4.77425 3.09927 0
M  V30 552 N 51.9056 3.5775 4.5716 0
M  V30 553 H 54.6706 2.94598 0.55066 0
M  V30 554 H 52.2316 1.61173 0.15323 0
M  V30 555 H 54.2236 2.64413 3.06378 0
M  V30 556 H 52.7936 1.66845 2.64351 0
M  V30 557 H 52.0136 3.73465 1.26165 0
M  V30 558 H 53.3016 4.65038 2.0644 0
M  V30 559 H 52.6996 3.00976 4.78989 0
M  V30 560 H 51.2566 3.78724 5.30482 0
M  V30 561 N 54.6897 -0.239769 1.55765 0
M  V30 562 C 55.6377 -1.31668 1.91745 0
M  V30 563 C 56.6317 -1.49462 0.797338 0
M  V30 564 O 57.8377 -1.50852 0.982021 0
M  V30 565 H 54.2127 -0.441048 0.609082 0
M  V30 566 H 56.1837 -0.985923 2.81642 0
M  V30 567 C 54.9327 -2.66368 2.2348 0
M  V30 568 H 54.2557 -2.53478 3.09175 0
M  V30 569 H 55.6957 -3.40578 2.52553 0
M  V30 570 C 54.1547 -3.20002 1.05359 0
M  V30 571 O 54.6847 -4.00538 0.305261 0
M  V30 572 N 52.8907 -2.78126 0.842292 0
M  V30 573 H 52.4377 -2.12742 1.45253 0
M  V30 574 H 52.3957 -3.14354 0.053652 0
M  V30 575 N 56.1678 -1.49265 -0.50573 0
M  V30 576 C 57.4158 -1.582 -1.25766 0
M  V30 577 C 57.7368 -0.268482 -1.93143 0
M  V30 578 O 57.0068 0.711833 -1.8251 0
M  V30 579 H 55.5868 -0.582873 -0.467191 0
M  V30 580 H 58.2488 -1.85865 -0.586525 0
M  V30 581 H 57.3448 -2.37563 -2.02412 0
M  V30 582 N 57.6459 0.756429 -1.3826 0
M  V30 583 C 58.8919 1.51772 -1.34511 0
M  V30 584 C 59.2249 1.94089 0.0656691 0
M  V30 585 O 58.4999 1.65221 1.02626 0
M  V30 586 C 58.7829 2.77226 -2.29821 0
M  V30 587 C 58.6359 2.41065 -3.79747 0
M  V30 588 C 59.9549 3.79236 -2.23312 0
M  V30 589 H 57.0739 0.550578 -0.489931 0
M  V30 590 H 59.7159 0.866607 -1.69086 0
M  V30 591 H 57.8659 3.32784 -2.00467 0
M  V30 592 H 59.5379 1.91303 -4.19763 0
M  V30 593 H 57.7809 1.7356 -3.97567 0
M  V30 594 H 58.4519 3.3081 -4.41892 0
M  V30 595 H 60.9279 3.3321 -2.49219 0
M  V30 596 H 59.8039 4.64714 -2.92116 0
M  V30 597 H 60.0649 4.24615 -1.23102 0
M  V30 598 N 59.124 1.23083 0.984299 0
M  V30 599 C 60.056 0.96636 2.07832 0
M  V30 600 C 61.069 -0.0582135 1.62696 0
M  V30 601 O 62.258 0.176843 1.77622 0
M  V30 602 C 59.358 0.433397 3.36117 0
M  V30 603 C 58.531 1.51722 4.10243 0
M  V30 604 C 57.59 0.989821 5.16807 0
M  V30 605 O 56.616 1.67794 5.43906 0
M  V30 606 N 57.818 -0.184367 5.80207 0
M  V30 607 H 60.583 1.90824 2.31098 0
M  V30 608 H 58.144 1.13888 1.1507 0
M  V30 609 H 60.136 0.065699 4.04647 0
M  V30 610 H 58.706 -0.413806 3.09849 0
M  V30 611 H 57.926 2.05786 3.36223 0
M  V30 612 H 59.214 2.24619 4.56534 0
M  V30 613 H 58.612 -0.760062 5.60571 0
M  V30 614 H 57.169 -0.493366 6.4993 0
M  V30 615 N 60.6021 -1.18246 1.0419 0
M  V30 616 C 61.5321 -2.24127 0.654914 0
M  V30 617 C 62.5131 -1.66617 -0.342451 0
M  V30 618 O 63.6981 -1.92924 -0.222277 0
M  V30 619 C 60.8281 -3.47295 0.0183757 0
M  V30 620 C 59.7821 -4.17563 0.939414 0
M  V30 621 C 59.1081 -5.34438 0.167286 0
M  V30 622 C 60.4081 -4.70917 2.25908 0
M  V30 623 H 62.1021 -2.56753 1.54007 0
M  V30 624 H 59.6481 -1.23414 0.74195 0
M  V30 625 H 61.6011 -4.20572 -0.264082 0
M  V30 626 H 60.3251 -3.13907 -0.901664 0
M  V30 627 H 58.9841 -3.46186 1.20628 0
M  V30 628 H 58.6321 -4.97298 -0.7552 0
M  V30 629 H 58.3321 -5.82388 0.780901 0
M  V30 630 H 59.8561 -6.10504 -0.108125 0
M  V30 631 H 61.2701 -5.35882 2.03724 0
M  V30 632 H 59.6671 -5.29406 2.82577 0
M  V30 633 H 60.7371 -3.88272 2.9047 0
M  V30 634 N 62.0802 -0.821533 -1.34494 0
M  V30 635 C 63.3082 -0.421884 -2.02553 0
M  V30 636 C 63.7232 0.971745 -1.61872 0
M  V30 637 O 63.0802 1.62864 -0.823496 0
M  V30 638 C 63.1312 -0.51285 -3.57844 0
M  V30 639 O 62.8522 -1.85155 -3.97051 0
M  V30 640 C 64.3532 -0.107921 -4.43169 0
M  V30 641 H 61.5732 -0.169482 -0.649243 0
M  V30 642 H 64.1172 -1.1093 -1.71798 0
M  V30 643 H 62.2722 0.126474 -3.87193 0
M  V30 644 H 62.6862 -1.82482 -4.91732 0
M  V30 645 H 64.1602 -0.222657 -5.51551 0
M  V30 646 H 64.6372 0.948401 -4.28838 0
M  V30 647 H 65.2432 -0.720989 -4.19144 0
M  V30 648 N 63.5583 1.46682 -0.576371 0
M  V30 649 C 64.7833 2.07304 -0.0630475 0
M  V30 650 C 65.2083 1.42329 1.2298 0
M  V30 651 O 64.5663 0.504865 1.74129 0
M  V30 652 C 64.6143 3.60472 0.095895 0
M  V30 653 O 63.7183 3.95927 1.15394 0
M  V30 654 H 63.0593 0.661288 -0.0599463 0
M  V30 655 H 65.5893 1.88417 -0.797511 0
M  V30 656 H 65.5993 4.06865 0.304071 0
M  V30 657 H 64.2743 4.07157 -0.84828 0
M  V30 658 H 62.8513 3.61252 0.924724 0
M  V30 659 N 65.0364 0.313813 1.54444 0
M  V30 660 C 66.2614 -0.296681 2.05267 0
M  V30 661 C 66.6864 -1.45757 1.18897 0
M  V30 662 O 66.0444 -1.80239 0.195886 0
M  V30 663 C 66.0924 -0.71831 3.53373 0
M  V30 664 O 65.1964 -1.82175 3.69981 0
M  V30 665 H 64.5374 -0.0554061 0.661684 0
M  V30 666 H 67.0674 0.459387 1.99376 0
M  V30 667 H 67.0774 -1.00364 3.95463 0
M  V30 668 H 65.7524 0.130821 4.15694 0
M  V30 669 H 64.3294 -1.53598 3.39797 0
M  V30 670 N 66.5145 -1.57545 0.0417849 0
M  V30 671 C 67.7425 -1.96624 -0.643928 0
M  V30 672 C 68.1575 -0.918897 -1.64929 0
M  V30 673 O 67.5145 0.0979323 -1.82237 0
M  V30 674 C 67.5655 -3.35781 -1.33914 0
M  V30 675 O 67.2865 -4.365 -0.374048 0
M  V30 676 C 68.7875 -3.89566 -2.1155 0
M  V30 677 H 66.0075 -0.647316 -0.176702 0
M  V30 678 H 68.5515 -2.04229 0.105304 0
M  V30 679 H 66.7065 -3.29357 -2.03968 0
M  V30 680 H 67.1205 -5.17248 -0.869179 0
M  V30 681 H 68.5945 -4.89242 -2.55628 0
M  V30 682 H 69.0715 -3.24488 -2.9598 0
M  V30 683 H 69.6775 -3.99298 -1.46427 0
M  V30 684 N 67.9926 0.231505 -1.5589 0
M  V30 685 C 68.9226 1.29022 -1.94617 0
M  V30 686 C 69.9036 1.4941 -0.813067 0
M  V30 687 O 71.0886 1.6176 -1.07459 0
M  V30 688 C 68.2186 2.64199 -2.25424 0
M  V30 689 C 67.1726 2.58484 -3.41131 0
M  V30 690 C 66.4986 3.97599 -3.57518 0
M  V30 691 C 67.7986 2.1413 -4.76388 0
M  V30 692 H 69.4926 0.968563 -2.83301 0
M  V30 693 H 67.0386 0.464479 -1.36303 0
M  V30 694 H 68.9916 3.38413 -2.51107 0
M  V30 695 H 67.7156 2.98032 -1.33583 0
M  V30 696 H 66.3746 1.86727 -3.15481 0
M  V30 697 H 66.0226 4.28723 -2.6307 0
M  V30 698 H 65.7226 3.94659 -4.35337 0
M  V30 699 H 67.2466 4.7349 -3.85538 0
M  V30 700 H 68.6606 2.78083 -5.01341 0
M  V30 701 H 67.0576 2.2227 -5.57419 0
M  V30 702 H 68.1276 1.09331 -4.72414 0
M  V30 703 N 69.4707 1.49531 0.497807 0
M  V30 704 C 70.6987 1.62893 1.27567 0
M  V30 705 C 71.1137 0.301585 1.86376 0
M  V30 706 O 70.4707 -0.713335 1.67982 0
M  V30 707 C 70.5217 2.70013 2.40364 0
M  V30 708 O 70.2427 3.976 1.83972 0
M  V30 709 C 71.7437 2.94109 3.31685 0
M  V30 710 H 68.9637 0.548298 0.386794 0
M  V30 711 H 71.5077 1.95584 0.597245 0
M  V30 712 H 69.6627 2.40092 3.04031 0
M  V30 713 H 70.0767 4.56631 2.58047 0
M  V30 714 H 71.5507 3.72788 4.07104 0
M  V30 715 H 72.0277 2.04147 3.88871 0
M  V30 716 H 72.6337 3.2546 2.73781 0
M  V30 717 N 70.9488 -0.749086 1.3866 0
M  V30 718 C 71.8968 -1.88428 1.36373 0
M  V30 719 C 72.8908 -1.67561 0.248929 0
M  V30 720 O 74.0968 -1.75074 0.41821 0
M  V30 721 H 70.4718 -0.620023 0.42553 0
M  V30 722 H 72.4428 -1.87473 2.32156 0
M  V30 723 C 71.1918 -3.25961 1.21014 0
M  V30 724 H 70.5148 -3.42607 2.06059 0
M  V30 725 H 71.9548 -4.05625 1.23469 0
M  V30 726 C 70.4138 -3.36799 -0.0825941 0
M  V30 727 O 70.9438 -3.87517 -1.05797 0
M  V30 728 N 69.1498 -2.90258 -0.140939 0
M  V30 729 H 68.6968 -2.49174 0.653477 0
M  V30 730 H 68.6548 -2.97889 -1.00545 0
M  V30 731 N 72.4269 -1.23603 -0.977757 0
M  V30 732 C 73.8379 -1.06424 -1.53398 0
M  V30 733 C 74.1889 0.367578 -1.92726 0
M  V30 734 O 73.3139 1.25465 -1.76316 0
M  V30 735 C 73.9089 -1.92568 -2.78753 0
M  V30 736 C 72.4679 -1.79642 -3.30765 0
M  V30 737 C 71.6149 -1.88111 -2.03739 0
M  V30 738 H 74.5659 -1.37227 -0.797152 0
M  V30 739 H 74.5869 -1.45203 -3.51705 0
M  V30 740 H 74.0989 -2.96771 -2.50098 0
M  V30 741 H 72.1999 -0.782325 -3.64294 0
M  V30 742 H 72.3129 -2.63174 -4.00345 0
M  V30 743 H 70.6769 -1.31723 -2.17994 0
M  V30 744 H 71.4599 -2.93875 -1.77461 0
M  V30 745 N 73.905 1.17692 -1.04816 0
M  V30 746 C 75.321 1.39863 -0.768794 0
M  V30 747 C 75.521 1.91118 0.638451 0
M  V30 748 O 74.577 2.10036 1.40146 0
M  V30 749 C 75.89 2.39274 -1.82122 0
M  V30 750 C 77.438 2.52987 -1.843 0
M  V30 751 C 77.913 3.55669 -2.88555 0
M  V30 752 N 79.404 3.63183 -2.87493 0
M  V30 753 C 80.139 4.42381 -3.64811 0
M  V30 754 N 79.635 5.25125 -4.51903 0
M  V30 755 N 81.428 4.37217 -3.53267 0
M  V30 756 H 73.579 0.82752 -1.95617 0
M  V30 757 H 75.842 0.426123 -0.846831 0
M  V30 758 H 75.548 2.08678 -2.83102 0
M  V30 759 H 75.422 3.38725 -1.65967 0
M  V30 760 H 77.809 2.82896 -0.839869 0
M  V30 761 H 77.89 1.53623 -2.04532 0
M  V30 762 H 77.534 3.26499 -3.89051 0
M  V30 763 H 77.464 4.54728 -2.65575 0
M  V30 764 H 79.955 3.04103 -2.24343 0
M  V30 765 H 80.268 5.82728 -5.07591 0
M  V30 766 H 78.613 5.24519 -4.55966 0
M  V30 767 H 81.804 3.71626 -2.84625 0
M  V30 768 H 81.977 4.98696 -4.13771 0
M  V30 769 N 75.3831 0.828654 1.34056 0
M  V30 770 C 76.3151 0.212052 2.28217 0
M  V30 771 C 77.3281 -0.601362 1.51286 0
M  V30 772 O 78.5171 -0.430104 1.73241 0
M  V30 773 C 75.6171 -0.72088 3.31144 0
M  V30 774 C 74.7901 0.0509587 4.3737 0
M  V30 775 C 73.8491 -0.803766 5.20025 0
M  V30 776 O 72.8751 -0.246667 5.68665 0
M  V30 777 N 74.0771 -2.1227 5.40298 0
M  V30 778 H 76.8421 1.02105 2.81771 0
M  V30 779 H 74.4031 0.686153 1.46641 0
M  V30 780 H 76.3951 -1.29742 3.8334 0
M  V30 781 H 74.9651 -1.43061 2.77943 0
M  V30 782 H 74.1851 0.808831 3.85813 0
M  V30 783 H 75.4731 0.582065 5.0546 0
M  V30 784 H 74.8711 -2.59898 5.02464 0
M  V30 785 H 73.4281 -2.64796 5.95589 0
M  V30 786 N 76.8612 -1.46375 0.584142 0
M  V30 787 C 78.0862 -2.07268 0.0740405 0
M  V30 788 C 78.5112 -1.42979 -1.22223 0
M  V30 789 O 77.8692 -0.514092 -1.73859 0
M  V30 790 C 77.9172 -3.60518 -0.0767769 0
M  V30 791 O 77.0212 -3.96533 -1.13292 0
M  V30 792 H 76.3622 -0.660961 0.0634524 0
M  V30 793 H 78.8922 -1.87991 0.807492 0
M  V30 794 H 78.9022 -4.07021 -0.282489 0
M  V30 795 H 77.5772 -4.06702 0.86986 0
M  V30 796 H 76.1542 -3.61738 -0.905553 0
M  V30 797 N 78.3393 -0.321999 -1.54275 0
M  V30 798 C 79.7503 0.166384 -1.85957 0
M  V30 799 C 80.1013 1.51747 -1.24367 0
M  V30 800 O 79.2263 2.09317 -0.549124 0
M  V30 801 C 79.8213 0.308681 -3.37391 0
M  V30 802 C 78.3803 0.741286 -3.69028 0
M  V30 803 C 77.5273 -0.137937 -2.76957 0
M  V30 804 H 80.4783 -0.542335 -1.49146 0
M  V30 805 H 80.4993 1.13984 -3.63026 0
M  V30 806 H 80.0113 -0.674809 -3.82188 0
M  V30 807 H 78.1123 1.73458 -3.29762 0
M  V30 808 H 78.2253 0.546118 -4.75977 0
M  V30 809 H 76.5893 0.386251 -2.51754 0
M  V30 810 H 77.3723 -1.11816 -3.2458 0
M  V30 811 N 79.8174 1.5752 -0.0501392 0
M  V30 812 C 81.0634 1.92936 0.624798 0
M  V30 813 C 81.3964 0.928685 1.70555 0
M  V30 814 O 80.6714 -0.0454779 1.94447 0
M  V30 815 C 80.9544 3.38737 1.22185 0
M  V30 816 C 80.8074 4.49552 0.149218 0
M  V30 817 C 82.1264 3.84913 2.13378 0
M  V30 818 H 79.2454 0.701604 0.225657 0
M  V30 819 H 81.8874 1.89671 -0.111693 0
M  V30 820 H 80.0374 3.4165 1.84953 0
M  V30 821 H 81.7094 4.58768 -0.482648 0
M  V30 822 H 79.9524 4.30638 -0.522841 0
M  V30 823 H 80.6234 5.48653 0.606966 0
M  V30 824 H 83.0994 3.8387 1.60572 0
M  V30 825 H 81.9754 4.87584 2.52097 0
M  V30 826 H 82.2364 3.21611 3.03346 0
M  V30 827 N 81.2955 -0.223234 1.56011 0
M  V30 828 C 82.2055 -1.29766 1.95443 0
M  V30 829 C 83.2215 -1.51373 0.858028 0
M  V30 830 O 84.3975 -1.64536 1.16146 0
M  V30 831 C 81.4625 -2.62772 2.26167 0
M  V30 832 C 80.5235 -2.49482 3.49367 0
M  V30 833 C 79.7565 -3.76145 3.78616 0
M  V30 834 O 79.9795 -4.79087 3.09568 0
M  V30 835 O 78.9135 -3.73358 4.72109 0
M  V30 836 H 82.7395 -0.99309 2.87004 0
M  V30 837 H 80.3245 -0.425958 1.43199 0
M  V30 838 H 82.2065 -3.41327 2.47131 0
M  V30 839 H 80.8815 -2.92913 1.37781 0
M  V30 840 H 79.7885 -1.69133 3.33684 0
M  V30 841 H 81.1215 -2.2428 4.38131 0
M  V30 842 N 82.7736 -1.49793 -0.48987 0
M  V30 843 C 83.7366 -1.66752 -1.57246 0
M  V30 844 C 84.7366 -0.538867 -1.51502 0
M  V30 845 O 85.9266 -0.805545 -1.54456 0
M  V30 846 C 83.0586 -1.67528 -2.96896 0
M  V30 847 H 84.2516 -2.63321 -1.43534 0
M  V30 848 H 81.8046 -1.38992 -0.714914 0
M  V30 849 H 82.5396 -0.725837 -3.16073 0
M  V30 850 H 82.3246 -2.49504 -3.02473 0
M  V30 851 H 83.8146 -1.82667 -3.7553 0
M  V30 852 N 84.2517 0.741722 -1.39055 0
M  V30 853 C 85.1837 1.8657 -1.33133 0
M  V30 854 C 86.1967 1.61001 -0.241329 0
M  V30 855 O 87.3857 1.7136 -0.499784 0
M  V30 856 C 84.4857 3.22457 -1.04283 0
M  V30 857 C 83.6587 3.75435 -2.24427 0
M  V30 858 C 82.7177 4.89867 -1.92138 0
M  V30 859 O 81.7437 5.03879 -2.64754 0
M  V30 860 N 82.9457 5.73738 -0.88347 0
M  V30 861 H 85.7107 1.92156 -2.29991 0
M  V30 862 H 83.2717 0.922172 -1.3307 0
M  V30 863 H 85.2637 3.9657 -0.807128 0
M  V30 864 H 83.8337 3.12181 -0.161807 0
M  V30 865 H 83.0537 2.92751 -2.6399 0
M  V30 866 H 84.3417 4.07563 -3.04581 0
M  V30 867 H 83.7397 5.64999 -0.281517 0
M  V30 868 H 82.2967 6.47947 -0.707662 0
M  V30 869 N 85.7298 1.2412 0.971189 0
M  V30 870 C 87.0068 0.986867 1.6888 0
M  V30 871 C 87.3868 -0.491857 2.0529 0
M  V30 872 O 86.7348 -1.46531 1.75331 0
M  V30 873 C 86.9448 1.9063 2.92338 0
M  V30 874 C 88.2928 2.17515 3.64654 0
M  V30 875 O 89.3168 1.88254 3.02388 0
M  V30 876 O 88.1758 2.6719 4.7673 0
M  V30 877 H 85.2698 0.372944 0.738134 0
M  V30 878 H 87.8158 1.35203 1.02559 0
M  V30 879 H 86.5878 2.90552 2.62097 0
M  V30 880 H 86.2108 1.54408 3.66393 0
M  V30 881 N 87.2079 -1.17134 1.05439 0
M  V30 882 C 88.6239 -1.39454 0.776201 0
M  V30 883 C 88.8239 -1.91454 -0.628307 0
M  V30 884 O 87.8799 -2.10777 -1.39031 0
M  V30 885 C 89.1929 -2.38305 1.83388 0
M  V30 886 C 90.7409 -2.52006 1.85639 0
M  V30 887 C 91.2159 -3.54133 2.90437 0
M  V30 888 N 92.7069 -3.61653 2.89415 0
M  V30 889 C 93.4419 -4.4044 3.67152 0
M  V30 890 N 92.9379 -5.22721 4.54681 0
M  V30 891 N 94.7309 -4.35337 3.55581 0
M  V30 892 H 86.8819 -0.817134 1.96053 0
M  V30 893 H 89.1449 -0.421626 0.849079 0
M  V30 894 H 88.8509 -2.07173 2.84204 0
M  V30 895 H 88.7249 -3.37841 1.67761 0
M  V30 896 H 91.1119 -2.82447 0.85486 0
M  V30 897 H 91.1929 -1.52537 2.05344 0
M  V30 898 H 90.8369 -3.24431 3.90777 0
M  V30 899 H 90.7669 -4.53313 2.67983 0
M  V30 900 H 93.2579 -3.02909 2.25952 0
M  V30 901 H 93.5709 -5.80027 5.10674 0
M  V30 902 H 91.9159 -5.22093 4.58741 0
M  V30 903 H 95.1069 -3.70112 2.86592 0
M  V30 904 H 95.2799 -4.96494 4.1641 0
M  V30 905 N 88.686 -0.835752 -1.33615 0
M  V30 906 C 89.596 -0.269088 -2.33052 0
M  V30 907 C 90.612 0.603251 -1.63208 0
M  V30 908 O 91.788 0.508112 -1.94885 0
M  V30 909 C 88.853 0.549091 -3.42324 0
M  V30 910 C 87.914 -0.347156 -4.27894 0
M  V30 911 C 87.147 0.43207 -5.31948 0
M  V30 912 O 87.37 1.66409 -5.45586 0
M  V30 913 O 86.304 -0.192298 -6.01593 0
M  V30 914 H 90.13 -1.09243 -2.83372 0
M  V30 915 H 87.715 -0.598198 -1.36901 0
M  V30 916 H 89.597 1.01414 -4.09015 0
M  V30 917 H 88.272 1.34955 -2.94226 0
M  V30 918 H 87.179 -0.859979 -3.64081 0
M  V30 919 H 88.512 -1.1123 -4.79467 0
M  V30 920 N 90.1641 1.46063 -0.591896 0
M  V30 921 C 91.3921 2.06717 -0.0868936 0
M  V30 922 C 91.8071 1.43916 1.22203 0
M  V30 923 O 91.1641 0.547698 1.74088 0
M  V30 924 C 91.2151 3.6142 0.0758725 0
M  V30 925 O 90.9361 4.21874 -1.18126 0
M  V30 926 C 92.4371 4.39025 0.61416 0
M  V30 927 H 89.6571 0.668162 -0.0616518 0
M  V30 928 H 92.2011 1.8755 -0.815175 0
M  V30 929 H 90.3561 3.79983 0.754413 0
M  V30 930 H 90.7701 5.14861 -1.00092 0
M  V30 931 H 92.2441 5.4783 0.677193 0
M  V30 932 H 92.7211 4.07708 1.63312 0
M  V30 933 H 93.3271 4.2529 -0.0298142 0
M  V30 934 N 91.6422 0.330177 1.54103 0
M  V30 935 C 92.8882 -0.263542 2.01685 0
M  V30 936 C 93.2432 -1.49258 1.21408 0
M  V30 937 O 92.5362 -1.89395 0.289852 0
M  V30 938 C 92.7302 -0.643134 3.51566 0
M  V30 939 C 92.5592 0.547571 4.46354 0
M  V30 940 C 91.3292 1.04873 4.94297 0
M  V30 941 C 93.5272 1.40184 4.94826 0
M  V30 942 N 91.5092 2.20316 5.73005 0
M  V30 943 C 92.8802 2.40335 5.71524 0
M  V30 944 C 94.9352 1.42884 4.76958 0
M  V30 945 C 93.6382 3.42998 6.32254 0
M  V30 946 C 95.6642 2.44421 5.38528 0
M  V30 947 C 95.0262 3.43298 6.15082 0
M  V30 948 H 91.1252 -0.0601026 0.779687 0
M  V30 949 H 93.7092 0.466714 1.89023 0
M  V30 950 H 91.8802 -1.34251 3.6446 0
M  V30 951 H 93.6122 -1.21889 3.85908 0
M  V30 952 H 90.3672 0.618956 4.69538 0
M  V30 953 H 90.7912 2.78565 6.17034 0
M  V30 954 H 95.4332 0.678049 4.17328 0
M  V30 955 H 93.1512 4.1898 6.91 0
M  V30 956 H 96.7372 2.4732 5.26616 0
M  V30 957 H 95.6172 4.20579 6.61878 0
M  V30 958 N 93.1203 -1.57491 0.0584922 0
M  V30 959 C 94.3683 -1.92597 -0.612436 0
M  V30 960 C 94.6893 -0.938162 -1.70949 0
M  V30 961 O 93.9593 0.0158301 -1.95894 0
M  V30 962 H 92.5393 -0.710964 -0.229214 0
M  V30 963 H 95.2013 -1.94571 0.113218 0
M  V30 964 H 94.2973 -2.94038 -1.04633 0
M  V30 965 N 94.5984 0.214957 -1.56127 0
M  V30 966 C 95.5454 1.26642 -1.92952 0
M  V30 967 C 96.5154 1.46244 -0.78753 0
M  V30 968 O 97.7004 1.59704 -1.04399 0
M  V30 969 C 94.8404 2.6104 -2.25726 0
M  V30 970 C 93.9534 2.49183 -3.52891 0
M  V30 971 C 93.0884 3.76149 -3.7508 0
M  V30 972 C 92.1274 3.59041 -4.95738 0
M  V30 973 N 91.2644 4.77972 -5.14283 0
M  V30 974 H 96.1044 0.945384 -2.82607 0
M  V30 975 H 93.6414 0.455489 -1.3987 0
M  V30 976 H 95.5994 3.39313 -2.42739 0
M  V30 977 H 94.2294 2.91227 -1.39236 0
M  V30 978 H 93.2814 1.6231 -3.44034 0
M  V30 979 H 94.5934 2.32466 -4.41318 0
M  V30 980 H 93.7474 4.62865 -3.92226 0
M  V30 981 H 92.4864 3.95799 -2.84947 0
M  V30 982 H 91.4914 2.7071 -4.78535 0
M  V30 983 H 92.7164 3.40856 -5.87362 0
M  V30 984 H 90.6624 4.97923 -4.27093 0
M  V30 985 H 90.5794 4.64006 -5.96853 0
M  V30 986 H 91.8474 5.66096 -5.35869 0
M  V30 987 N 96.0765 1.50051 0.48192 0
M  V30 988 C 97.0235 1.68122 1.58125 0
M  V30 989 C 97.9935 0.522545 1.57666 0
M  V30 990 O 99.1785 0.751844 1.75362 0
M  V30 991 C 96.3185 1.77142 2.96167 0
M  V30 992 C 95.4315 3.0444 3.06497 0
M  V30 993 C 94.5665 3.04321 4.35387 0
M  V30 994 C 93.6055 4.26118 4.3942 0
M  V30 995 N 92.7425 4.238 5.59766 0
M  V30 996 H 97.5825 2.6198 1.42022 0
M  V30 997 H 95.1195 1.29877 0.690687 0
M  V30 998 H 97.0775 1.80352 3.76203 0
M  V30 999 H 95.7075 0.867329 3.1093 0
M  V30 1000 H 94.7595 3.10752 2.19402 0
M  V30 1001 H 96.0715 3.94426 3.05336 0
M  V30 1002 H 95.2255 3.062 5.23762 0
M  V30 1003 H 93.9645 2.12147 4.39141 0
M  V30 1004 H 92.9695 4.24463 3.49444 0
M  V30 1005 H 94.1945 5.19507 4.37366 0
M  V30 1006 H 92.1405 3.34474 5.64326 0
M  V30 1007 H 92.0575 5.07542 5.60301 0
M  V30 1008 H 93.3255 4.2981 6.50295 0
M  V30 1009 N 97.5546 -0.734337 1.39446 0
M  V30 1010 C 98.8036 -1.48937 1.36017 0
M  V30 1011 C 99.1166 -1.95557 -0.0409005 0
M  V30 1012 O 100.323 -2.70779 -0.19778 0
M  V30 1013 C 98.7786 -2.69125 2.38955 0
M  V30 1014 C 98.3866 -2.29452 3.8478 0
M  V30 1015 C 100.131 -3.46944 2.44603 0
M  V30 1016 C 98.0376 -3.46366 4.79358 0
M  V30 1017 H 96.9676 -0.559296 0.505672 0
M  V30 1018 H 99.6186 -0.800983 1.65095 0
M  V30 1019 H 98.0006 -3.40041 2.02948 0
M  V30 1020 H 99.1746 -1.66077 4.29831 0
M  V30 1021 H 97.4896 -1.64723 3.82433 0
M  V30 1022 H 100.087 -4.33907 3.12456 0
M  V30 1023 H 100.43 -3.89454 1.47076 0
M  V30 1024 H 100.963 -2.83056 2.79507 0
M  V30 1025 H 97.7016 -3.08905 5.78151 0
M  V30 1026 H 97.2216 -4.08719 4.38986 0
M  V30 1027 H 98.9006 -4.12691 4.98292 0
M  V30 1028 N 99.0327 -1.24633 -0.964593 0
M  V30 1029 C 100.31 -0.995809 -1.68354 0
M  V30 1030 C 100.69 0.480964 -2.05548 0
M  V30 1031 O 100.038 1.45599 -1.76105 0
M  V30 1032 C 100.248 -1.92177 -2.91323 0
M  V30 1033 C 101.596 -2.19446 -3.63495 0
M  V30 1034 O 102.62 -1.89855 -3.01386 0
M  V30 1035 O 101.479 -2.69714 -4.75307 0
M  V30 1036 H 98.5727 -0.376854 -0.736146 0
M  V30 1037 H 101.119 -1.35745 -1.0184 0
M  V30 1038 H 99.8907 -2.91938 -2.60553 0
M  V30 1039 H 99.5137 -1.56349 -3.65569 0
M  V30 1040 N 100.511 1.16574 -1.06058 0
M  V30 1041 C 101.758 1.87047 -0.775873 0
M  V30 1042 C 102.086 1.81562 0.697534 0
M  V30 1043 O 101.341 1.22445 1.52662 0
M  V30 1044 C 101.64 3.36195 -1.21275 0
M  V30 1045 C 101.306 3.6188 -2.68986 0
M  V30 1046 C 99.9678 3.68599 -3.09335 0
M  V30 1047 C 102.32 3.72648 -3.64394 0
M  V30 1048 C 99.6478 3.83584 -4.43937 0
M  V30 1049 C 102 3.89154 -4.98741 0
M  V30 1050 C 100.664 3.94114 -5.3873 0
M  V30 1051 H 99.9338 0.684452 -0.283912 0
M  V30 1052 H 102.581 1.37853 -1.32925 0
M  V30 1053 H 100.886 3.87505 -0.578528 0
M  V30 1054 H 102.583 3.89103 -0.969542 0
M  V30 1055 H 99.1728 3.57281 -2.36744 0
M  V30 1056 H 103.357 3.66769 -3.34356 0
M  V30 1057 H 98.6128 3.85677 -4.74409 0
M  V30 1058 H 102.787 3.96427 -5.72554 0
M  V30 1059 H 100.414 4.05478 -6.43033 0
M  V30 1060 N 101.989 0.842826 1.3317 0
M  V30 1061 C 102.919 0.294028 2.31641 0
M  V30 1062 C 103.9 -0.600401 1.59151 0
M  V30 1063 O 105.085 -0.523124 1.87022 0
M  V30 1064 C 102.215 -0.528416 3.43257 0
M  V30 1065 C 101.169 0.27056 4.27144 0
M  V30 1066 C 100.495 -0.675881 5.30411 0
M  V30 1067 C 101.795 1.48981 5.00602 0
M  V30 1068 H 103.489 1.11681 2.77791 0
M  V30 1069 H 101.035 0.538478 1.33553 0
M  V30 1070 H 102.988 -0.922674 4.11175 0
M  V30 1071 H 101.712 -1.38445 2.95805 0
M  V30 1072 H 100.371 0.646427 3.60856 0
M  V30 1073 H 100.019 -1.52842 4.79216 0
M  V30 1074 H 99.7189 -0.145374 5.8742 0
M  V30 1075 H 101.243 -1.06757 6.01195 0
M  V30 1076 H 102.657 1.16849 5.61266 0
M  V30 1077 H 101.054 1.95739 5.6728 0
M  V30 1078 H 102.124 2.25746 4.29147 0
M  V30 1079 N 103.467 -1.45747 0.599634 0
M  V30 1080 C 104.397 -2.33235 -0.111306 0
M  V30 1081 C 105.378 -1.46359 -0.866781 0
M  V30 1082 O 106.563 -1.75146 -0.838904 0
M  V30 1083 C 103.693 -3.28932 -1.11451 0
M  V30 1084 C 102.647 -4.25381 -0.472772 0
M  V30 1085 C 101.973 -5.1071 -1.58365 0
M  V30 1086 C 103.273 -5.18831 0.600948 0
M  V30 1087 H 104.967 -2.92927 0.61919 0
M  V30 1088 H 102.513 -1.40857 0.299215 0
M  V30 1089 H 104.466 -3.89002 -1.62036 0
M  V30 1090 H 103.19 -2.67381 -1.8755 0
M  V30 1091 H 101.849 -3.66598 0.0121472 0
M  V30 1092 H 101.497 -4.45533 -2.33473 0
M  V30 1093 H 101.197 -5.7604 -1.15982 0
M  V30 1094 H 102.721 -5.73647 -2.09194 0
M  V30 1095 H 104.135 -5.73019 0.179491 0
M  V30 1096 H 102.532 -5.92595 0.946076 0
M  V30 1097 H 103.602 -4.6174 1.48068 0
M  V30 1098 N 104.945 -0.338344 -1.53925 0
M  V30 1099 C 106.17 0.263987 -2.05713 0
M  V30 1100 C 106.595 1.43847 -1.21201 0
M  V30 1101 O 105.953 1.79904 -0.224535 0
M  V30 1102 C 106.001 0.662 -3.54471 0
M  V30 1103 O 105.105 1.76265 -3.72833 0
M  V30 1104 H 104.446 0.0448722 -0.662482 0
M  V30 1105 H 106.976 -0.491048 -1.9862 0
M  V30 1106 H 106.986 0.940594 -3.9701 0
M  V30 1107 H 105.661 -0.196937 -4.15433 0
M  V30 1108 H 104.238 1.48173 -3.42198 0
M  V30 1109 N 106.423 1.57458 -0.0668435 0
M  V30 1110 C 107.669 1.93587 0.6043 0
M  V30 1111 C 108.002 0.946722 1.69561 0
M  V30 1112 O 107.277 -0.0248516 1.94484 0
M  V30 1113 C 107.56 3.40014 1.18585 0
M  V30 1114 C 107.413 4.49685 0.101529 0
M  V30 1115 C 108.732 3.87154 2.09284 0
M  V30 1116 H 105.851 0.703958 0.218202 0
M  V30 1117 H 108.493 1.89542 -0.131804 0
M  V30 1118 H 106.643 3.43592 1.81319 0
M  V30 1119 H 108.315 4.5823 -0.531279 0
M  V30 1120 H 106.558 4.30059 -0.568487 0
M  V30 1121 H 107.229 5.49266 0.54874 0
M  V30 1122 H 109.705 3.85551 1.56491 0
M  V30 1123 H 108.581 4.90231 2.46911 0
M  V30 1124 H 108.842 3.2481 2.99918 0
M  V30 1125 N 107.901 -0.206675 1.56239 0
M  V30 1126 C 109.15 -0.926964 1.79138 0
M  V30 1127 C 109.463 -1.84901 0.638043 0
M  V30 1128 O 110.669 -2.60906 0.751033 0
M  V30 1129 C 109.125 -1.6986 3.17294 0
M  V30 1130 C 108.733 -0.821956 4.40395 0
M  V30 1131 C 110.477 -2.40922 3.4951 0
M  V30 1132 C 108.384 -1.59179 5.69575 0
M  V30 1133 H 107.314 -0.349864 0.667915 0
M  V30 1134 H 109.965 -0.180487 1.8261 0
M  V30 1135 H 108.347 -2.48853 3.08039 0
M  V30 1136 H 109.521 -0.0715019 4.60745 0
M  V30 1137 H 107.836 -0.222741 4.15804 0
M  V30 1138 H 110.433 -2.99047 4.43255 0
M  V30 1139 H 110.776 -3.14542 2.72707 0
M  V30 1140 H 111.309 -1.68905 3.60161 0
M  V30 1141 H 108.048 -0.898589 6.49312 0
M  V30 1142 H 107.568 -2.31648 5.53262 0
M  V30 1143 H 109.247 -2.14862 6.10281 0
M  V30 1144 N 109.379 -1.50304 -0.473955 0
M  V30 1145 C 110.627 -1.60832 -1.22382 0
M  V30 1146 C 110.948 -0.30939 -1.9253 0
M  V30 1147 O 110.218 0.67296 -1.83978 0
M  V30 1148 H 108.798 -0.592652 -0.454723 0
M  V30 1149 H 111.46 -1.87068 -0.546968 0
M  V30 1150 H 110.556 -2.41803 -1.97327 0
M  V30 1151 N 110.857 0.726932 -1.39834 0
M  V30 1152 C 112.104 1.48664 -1.37496 0
M  V30 1153 C 112.432 1.94482 0.0264678 0
M  V30 1154 O 111.687 1.67692 1.00886 0
M  V30 1155 C 111.986 2.73495 -2.30077 0
M  V30 1156 C 111.652 2.46502 -3.77555 0
M  V30 1157 C 110.314 2.3885 -4.17737 0
M  V30 1158 C 112.666 2.23604 -4.70798 0
M  V30 1159 C 109.994 2.06352 -5.49214 0
M  V30 1160 C 112.346 1.92622 -6.02561 0
M  V30 1161 C 111.01 1.83444 -6.41798 0
M  V30 1162 H 110.28 0.544001 -0.503135 0
M  V30 1163 H 112.927 0.833657 -1.72402 0
M  V30 1164 H 111.232 3.43575 -1.88317 0
M  V30 1165 H 112.929 3.31549 -2.25558 0
M  V30 1166 H 109.519 2.5334 -3.45712 0
M  V30 1167 H 113.703 2.28479 -4.40581 0
M  V30 1168 H 108.959 1.97776 -5.78528 0
M  V30 1169 H 113.133 1.73914 -6.74334 0
M  V30 1170 H 110.76 1.58029 -7.43593 0
M  V30 1171 N 112.336 1.25143 0.95797 0
M  V30 1172 C 113.299 1.05321 2.03569 0
M  V30 1173 C 114.299 0.007152 1.60798 0
M  V30 1174 O 115.489 0.24903 1.72411 0
M  V30 1175 C 112.621 0.598394 3.35607 0
M  V30 1176 H 113.814 2.00986 2.22586 0
M  V30 1177 H 111.367 1.07502 1.13459 0
M  V30 1178 H 112.102 -0.361014 3.22284 0
M  V30 1179 H 111.887 1.35351 3.67998 0
M  V30 1180 H 113.377 0.48104 4.1482 0
M  V30 1181 N 113.814 -1.1601 1.06675 0
M  V30 1182 C 115.06 -1.86909 0.786945 0
M  V30 1183 C 115.393 -1.81717 -0.685018 0
M  V30 1184 O 114.668 -1.23551 -1.50218 0
M  V30 1185 C 114.951 -3.36313 1.28707 0
M  V30 1186 C 114.804 -3.50175 2.82308 0
M  V30 1187 C 116.123 -4.3084 0.898071 0
M  V30 1188 H 113.242 -0.678677 0.287343 0
M  V30 1189 H 115.884 -1.36336 1.32334 0
M  V30 1190 H 114.034 -3.79513 0.830768 0
M  V30 1191 H 115.706 -3.15886 3.36175 0
M  V30 1192 H 113.949 -2.91959 3.20847 0
M  V30 1193 H 114.62 -4.55116 3.12368 0
M  V30 1194 H 117.096 -3.95561 1.29114 0
M  V30 1195 H 115.972 -5.33876 1.27543 0
M  V30 1196 H 116.233 -4.41662 -0.196651 0
M  V30 1197 N 115.292 -0.849877 -1.32721 0
M  V30 1198 C 116.569 -0.372405 -1.92022 0
M  V30 1199 C 116.949 1.1435 -1.77447 0
M  V30 1200 O 116.297 1.96296 -1.16962 0
M  V30 1201 C 116.507 -0.831482 -3.3895 0
M  V30 1202 C 117.855 -0.845882 -4.16089 0
M  V30 1203 O 118.879 -0.775806 -3.47649 0
M  V30 1204 O 117.738 -0.943753 -5.38289 0
M  V30 1205 H 114.832 -0.107667 -0.819961 0
M  V30 1206 H 117.378 -0.93646 -1.41522 0
M  V30 1207 H 116.15 -1.87448 -3.4348 0
M  V30 1208 H 115.773 -0.24461 -3.96847 0
M  V30 1209 N 116.77 1.45427 -0.607355 0
M  V30 1210 C 117.7 2.3329 0.0989352 0
M  V30 1211 C 118.681 1.46816 0.859007 0
M  V30 1212 O 119.866 1.75588 0.829604 0
M  V30 1213 C 116.996 3.29518 1.09705 0
M  V30 1214 C 115.95 4.25626 0.450206 0
M  V30 1215 C 115.276 5.11542 1.55655 0
M  V30 1216 C 116.576 5.18505 -0.628455 0
M  V30 1217 H 118.27 2.92595 -0.634716 0
M  V30 1218 H 115.816 1.40696 -0.306681 0
M  V30 1219 H 117.769 3.89855 1.59971 0
M  V30 1220 H 116.493 2.68372 1.86129 0
M  V30 1221 H 115.152 3.66586 -0.0315886 0
M  V30 1222 H 114.8 4.46765 2.31107 0
M  V30 1223 H 114.5 5.76647 1.12925 0
M  V30 1224 H 116.024 5.74748 2.06148 0
M  V30 1225 H 117.438 5.72916 -0.209877 0
M  V30 1226 H 115.835 5.92085 -0.977489 0
M  V30 1227 H 116.905 4.60948 -1.50514 0
M  V30 1228 N 118.248 0.346503 1.53744 0
M  V30 1229 C 119.211 -0.496439 2.23759 0
M  V30 1230 C 120.211 -1.0252 1.2388 0
M  V30 1231 O 121.401 -0.913974 1.48297 0
M  V30 1232 C 118.533 -1.69187 2.95954 0
M  V30 1233 H 119.726 0.115952 2.99676 0
M  V30 1234 H 117.279 0.0978939 1.55993 0
M  V30 1235 H 118.014 -2.34288 2.24231 0
M  V30 1236 H 117.799 -1.31989 3.69217 0
M  V30 1237 H 119.289 -2.28969 3.49232 0
M  V30 1238 N 119.726 -1.57421 0.075193 0
M  V30 1239 C 120.674 -2.14124 -0.908508 0
M  V30 1240 C 121.668 -1.07898 -1.30592 0
M  V30 1241 O 122.874 -1.26273 -1.28277 0
M  V30 1242 H 119.249 -0.684707 -0.310935 0
M  V30 1243 H 121.22 -2.95634 -0.405374 0
M  V30 1244 C 119.969 -2.72044 -2.16535 0
M  V30 1245 H 119.292 -3.53456 -1.86839 0
M  V30 1246 H 120.732 -3.15311 -2.83469 0
M  V30 1247 C 119.191 -1.66968 -2.92615 0
M  V30 1248 O 119.721 -1.0967 -3.86439 0
M  V30 1249 N 117.927 -1.37923 -2.55784 0
M  V30 1250 H 117.474 -1.84706 -1.79559 0
M  V30 1251 H 117.432 -0.67852 -3.06991 0
M  V30 1252 N 121.204 0.198386 -1.56346 0
M  V30 1253 C 122.45 0.920648 -1.80698 0
M  V30 1254 C 122.783 1.83045 -0.648697 0
M  V30 1255 O 122.058 1.91308 0.350925 0
M  V30 1256 C 122.341 1.73971 -3.15287 0
M  V30 1257 C 122.194 0.85485 -4.41602 0
M  V30 1258 C 123.513 2.71296 -3.46535 0
M  V30 1259 H 120.632 0.333261 -0.657348 0
M  V30 1260 H 123.274 0.188198 -1.89066 0
M  V30 1261 H 121.424 2.36416 -3.08285 0
M  V30 1262 H 123.096 0.245362 -4.60647 0
M  V30 1263 H 121.339 0.161398 -4.335 0
M  V30 1264 H 122.01 1.46286 -5.32264 0
M  V30 1265 H 124.486 2.18983 -3.53816 0
M  V30 1266 H 123.362 3.2569 -4.41834 0
M  V30 1267 H 123.623 3.5018 -2.69864 0
M  V30 1268 N 122.682 1.50554 0.465978 0
M  V30 1269 C 123.928 1.63006 1.21658 0
M  V30 1270 C 124.283 0.328613 1.89573 0
M  V30 1271 O 123.576 -0.673813 1.79361 0
M  V30 1272 C 123.77 2.75152 2.28093 0
M  V30 1273 C 123.599 4.16075 1.7062 0
M  V30 1274 C 122.369 4.82408 1.50368 0
M  V30 1275 C 124.567 5.00145 1.1983 0
M  V30 1276 N 122.549 6.07532 0.881924 0
M  V30 1277 C 123.92 6.16035 0.700083 0
M  V30 1278 C 125.975 4.85882 1.08733 0
M  V30 1279 C 124.678 7.19228 0.101835 0
M  V30 1280 C 126.704 5.89257 0.503016 0
M  V30 1281 C 126.066 7.04398 0.0152005 0
M  V30 1282 H 122.165 0.650596 0.433877 0
M  V30 1283 H 124.749 1.8769 0.517746 0
M  V30 1284 H 122.92 2.52181 2.95397 0
M  V30 1285 H 124.652 2.76935 2.95109 0
M  V30 1286 H 121.407 4.39788 1.75737 0
M  V30 1287 H 121.831 6.7443 0.589312 0
M  V30 1288 H 126.473 3.97144 1.4504 0
M  V30 1289 H 124.191 8.07637 -0.273426 0
M  V30 1290 H 127.777 5.80286 0.419451 0
M  V30 1291 H 126.657 7.83021 -0.429856 0
M  V30 1292 N 124.16 -0.719506 1.40217 0
M  V30 1293 C 125.576 -1.02707 1.22161 0
M  V30 1294 C 125.776 -2.0128 0.0940557 0
M  V30 1295 O 124.832 -2.46452 -0.549318 0
M  V30 1296 C 126.145 -1.57454 2.56181 0
M  V30 1297 C 127.693 -1.69458 2.63159 0
M  V30 1298 C 128.168 -2.27611 3.97438 0
M  V30 1299 N 129.659 -2.35002 3.99159 0
M  V30 1300 C 130.394 -2.80972 4.99842 0
M  V30 1301 N 129.89 -3.26723 6.10921 0
M  V30 1302 N 131.683 -2.80321 4.87213 0
M  V30 1303 H 123.834 -0.0660492 2.12297 0
M  V30 1304 H 126.097 -0.0919077 0.943534 0
M  V30 1305 H 125.803 -0.924873 3.39321 0
M  V30 1306 H 125.677 -2.56036 2.76993 0
M  V30 1307 H 128.064 -2.33543 1.80393 0
M  V30 1308 H 128.145 -0.694867 2.46181 0
M  V30 1309 H 127.789 -1.6415 4.80643 0
M  V30 1310 H 127.719 -3.2829 4.11744 0
M  V30 1311 H 130.21 -2.02685 3.18947 0
M  V30 1312 H 130.523 -3.60355 6.8364 0
M  V30 1313 H 128.868 -3.24692 6.14492 0
M  V30 1314 H 132.059 -2.43912 3.9953 0
M  V30 1315 H 132.232 -3.15831 5.65822 0
M  V30 1316 N 125.638 -1.25649 -0.95132 0
M  V30 1317 C 126.885 -1.10594 -1.69633 0
M  V30 1318 C 127.213 0.352515 -1.91279 0
M  V30 1319 O 126.468 1.27601 -1.4838 0
M  V30 1320 C 126.767 -1.80909 -3.08231 0
M  V30 1321 C 126.433 -3.30825 -3.06375 0
M  V30 1322 C 125.095 -3.71722 -3.05576 0
M  V30 1323 C 127.447 -4.26589 -2.99452 0
M  V30 1324 C 124.775 -5.06788 -2.95606 0
M  V30 1325 C 127.127 -5.61683 -2.91024 0
M  V30 1326 C 125.791 -6.01904 -2.88562 0
M  V30 1327 H 125.061 -0.404691 -0.620731 0
M  V30 1328 H 127.708 -1.55964 -1.11119 0
M  V30 1329 H 126.013 -1.27979 -3.70309 0
M  V30 1330 H 127.71 -1.6671 -3.64704 0
M  V30 1331 H 124.3 -2.98287 -3.07771 0
M  V30 1332 H 128.484 -3.95982 -2.99185 0
M  V30 1333 H 123.74 -5.37126 -2.92071 0
M  V30 1334 H 127.914 -6.35578 -2.84629 0
M  V30 1335 H 125.541 -7.06521 -2.80593 0
M  V30 1336 N 127.117 1.15442 -1.07289 0
M  V30 1337 C 128.528 1.67803 -0.818475 0
M  V30 1338 C 128.879 1.8489 0.656507 0
M  V30 1339 O 128.004 1.55176 1.50829 0
M  V30 1340 C 128.599 3.04805 -1.47917 0
M  V30 1341 C 127.158 3.54245 -1.27229 0
M  V30 1342 C 126.305 2.29986 -1.54925 0
M  V30 1343 H 129.256 0.996646 -1.23502 0
M  V30 1344 H 129.277 3.69702 -0.90005 0
M  V30 1345 H 128.789 2.92336 -2.55267 0
M  V30 1346 H 126.89 3.71956 -0.21899 0
M  V30 1347 H 127.003 4.35723 -1.99203 0
M  V30 1348 H 125.367 2.35496 -0.970242 0
M  V30 1349 H 126.15 2.20105 -2.63455 0
M  V30 1350 N 128.595 0.856903 1.32268 0
M  V30 1351 C 129.825 0.47475 2.01071 0
M  V30 1352 C 130.233 -0.933746 1.64553 0
M  V30 1353 O 129.576 -1.62114 0.863989 0
M  V30 1354 C 129.638 0.536746 3.55471 0
M  V30 1355 C 129.302 1.90453 4.15423 0
M  V30 1356 C 130.299 2.87029 4.33486 0
M  V30 1357 C 127.984 2.20229 4.51447 0
M  V30 1358 C 129.978 4.11532 4.86744 0
M  V30 1359 C 127.665 3.44984 5.0441 0
M  V30 1360 C 128.663 4.40452 5.22007 0
M  V30 1361 O 128.351 5.62998 5.73837 0
M  V30 1362 H 128.083 0.184778 0.650256 0
M  V30 1363 H 130.637 1.15615 1.69771 0
M  V30 1364 H 128.867 -0.20152 3.86175 0
M  V30 1365 H 130.556 0.169875 4.05544 0
M  V30 1366 H 131.322 2.6533 4.05986 0
M  V30 1367 H 127.201 1.46705 4.37034 0
M  V30 1368 H 130.745 4.86056 5.00395 0
M  V30 1369 H 126.642 3.66532 5.31342 0
M  V30 1370 H 127.41 5.64987 5.92226 0
M  V30 1371 N 130.073 -1.45103 0.615059 0
M  V30 1372 C 131.003 -2.33339 -0.0865619 0
M  V30 1373 C 131.984 -1.4727 -0.851209 0
M  V30 1374 O 133.169 -1.76026 -0.820281 0
M  V30 1375 C 130.299 -3.30095 -1.07956 0
M  V30 1376 C 129.253 -4.25858 -0.427628 0
M  V30 1377 C 128.579 -5.12361 -1.5294 0
M  V30 1378 C 129.879 -5.18165 0.655944 0
M  V30 1379 H 131.573 -2.92254 0.650224 0
M  V30 1380 H 129.119 -1.40532 0.314138 0
M  V30 1381 H 131.072 -3.90698 -1.57901 0
M  V30 1382 H 129.796 -2.69355 -1.84703 0
M  V30 1383 H 128.455 -3.66564 0.0510292 0
M  V30 1384 H 128.103 -4.47984 -2.28734 0
M  V30 1385 H 127.803 -5.77238 -1.09865 0
M  V30 1386 H 129.327 -5.75833 -2.03098 0
M  V30 1387 H 130.741 -5.72796 0.240257 0
M  V30 1388 H 129.138 -5.91559 1.00888 0
M  V30 1389 H 130.208 -4.60144 1.52957 0
M  V30 1390 N 131.551 -0.354651 -1.53558 0
M  V30 1391 C 132.791 0.238651 -2.03002 0
M  V30 1392 C 133.155 1.46878 -1.23656 0
M  V30 1393 O 134.356 2.13699 -1.63053 0
M  V30 1394 C 132.627 0.534175 -3.53386 0
M  V30 1395 S 134.186 1.10271 -4.24719 0
M  V30 1396 H 131.004 0.0702908 -0.707517 0
M  V30 1397 H 133.606 -0.494987 -1.8913 0
M  V30 1398 H 132.31 -0.368765 -4.0874 0
M  V30 1399 H 131.841 1.29718 -3.71398 0
M  V30 1400 H 133.856 2.38772 -4.34974 0
M  V30 1401 N 133.029 1.57378 -0.0835403 0
M  V30 1402 C 134.259 1.97975 0.590713 0
M  V30 1403 C 134.667 0.961083 1.62972 0
M  V30 1404 O 134.01 -0.0590879 1.83605 0
M  V30 1405 C 134.072 3.34915 1.3066 0
M  V30 1406 C 133.736 4.55069 0.419698 0
M  V30 1407 C 134.733 5.18868 -0.32749 0
M  V30 1408 C 132.418 5.0114 0.341137 0
M  V30 1409 C 134.412 6.27098 -1.14134 0
M  V30 1410 C 132.099 6.0924 -0.476374 0
M  V30 1411 C 133.097 6.72083 -1.21627 0
M  V30 1412 O 132.785 7.781 -2.02028 0
M  V30 1413 H 132.517 0.655818 0.163947 0
M  V30 1414 H 135.071 2.04807 -0.156021 0
M  V30 1415 H 133.301 3.24733 2.09966 0
M  V30 1416 H 134.99 3.60037 1.87424 0
M  V30 1417 H 135.756 4.84211 -0.276459 0
M  V30 1418 H 131.635 4.51996 0.90668 0
M  V30 1419 H 135.179 6.7608 -1.71935 0
M  V30 1420 H 131.076 6.43329 -0.528927 0
M  V30 1421 H 131.844 7.95034 -1.94586 0
M  V30 1422 N 134.507 -0.190092 1.56449 0
M  V30 1423 C 135.454 -1.23557 1.94942 0
M  V30 1424 C 136.424 -1.44972 0.810696 0
M  V30 1425 O 137.609 -1.58023 1.06927 0
M  V30 1426 C 134.749 -2.57416 2.2985 0
M  V30 1427 C 133.862 -2.43537 3.5681 0
M  V30 1428 C 132.997 -3.70134 3.81017 0
M  V30 1429 C 132.036 -3.51109 5.01387 0
M  V30 1430 N 131.173 -4.6973 5.21822 0
M  V30 1431 H 136.013 -0.900304 2.84075 0
M  V30 1432 H 133.55 -0.43318 1.40577 0
M  V30 1433 H 135.508 -3.35409 2.48106 0
M  V30 1434 H 134.138 -2.88975 1.43852 0
M  V30 1435 H 133.19 -1.56816 3.46573 0
M  V30 1436 H 134.502 -2.25415 4.4496 0
M  V30 1437 H 133.656 -4.56566 3.9954 0
M  V30 1438 H 132.395 -3.91215 2.91207 0
M  V30 1439 H 131.4 -2.63063 4.82782 0
M  V30 1440 H 132.625 -3.31468 5.9271 0
M  V30 1441 H 130.571 -4.91065 4.34961 0
M  V30 1442 H 130.488 -4.54452 6.0416 0
M  V30 1443 H 131.756 -5.57499 5.44808 0
M  V30 1444 N 135.985 -1.50799 -0.457987 0
M  V30 1445 C 136.933 -1.71162 -1.575 0
M  V30 1446 C 137.927 -0.577592 -1.59249 0
M  V30 1447 O 139.133 -0.758443 -1.63241 0
M  V30 1448 H 135.508 -0.540468 -0.522875 0
M  V30 1449 H 137.479 -2.64837 -1.37492 0
M  V30 1450 C 136.228 -1.83496 -2.95338 0
M  V30 1451 H 135.551 -2.70153 -2.94716 0
M  V30 1452 H 136.991 -2.01765 -3.72917 0
M  V30 1453 C 135.45 -0.589694 -3.31699 0
M  V30 1454 O 135.98 0.265163 -4.00824 0
M  V30 1455 N 134.186 -0.439845 -2.87252 0
M  V30 1456 H 133.733 -1.13655 -2.31172 0
M  V30 1457 H 133.691 0.392159 -3.11945 0
M  V30 1458 N 137.463 0.71206 -1.40597 0
M  V30 1459 C 138.711 1.46907 -1.38791 0
M  V30 1460 C 139.032 1.94998 0.00780391 0
M  V30 1461 O 138.302 1.70587 0.963174 0
M  V30 1462 H 136.882 0.545043 -0.51082 0
M  V30 1463 H 139.544 0.843882 -1.75683 0
M  V30 1464 H 138.64 2.34021 -2.06496 0
M  V30 1465 N 138.941 1.26152 0.944643 0
M  V30 1466 C 140.189 1.11271 1.6871 0
M  V30 1467 C 140.51 -0.345166 1.91921 0
M  V30 1468 O 139.78 -1.24387 1.51343 0
M  V30 1469 H 138.36 0.408783 0.625224 0
M  V30 1470 H 141.022 1.58427 1.1352 0
M  V30 1471 H 140.118 1.62879 2.66227 0
M  V30 1472 N 140.419 -1.14872 1.07899 0
M  V30 1473 C 141.667 -1.85422 0.803941 0
M  V30 1474 C 141.988 -1.83051 -0.67211 0
M  V30 1475 O 141.258 -1.27532 -1.48703 0
M  V30 1476 H 139.838 -0.686537 0.294408 0
M  V30 1477 H 142.5 -1.39226 1.3639 0
M  V30 1478 H 141.596 -2.90399 1.14346 0
M  V30 1479 N 141.898 -0.863906 -1.31812 0
M  V30 1480 C 142.861 -0.320212 -2.26952 0
M  V30 1481 C 143.861 0.525369 -1.51975 0
M  V30 1482 O 145.051 0.335547 -1.70938 0
M  V30 1483 C 142.183 0.545919 -3.365 0
M  V30 1484 H 143.376 -1.16004 -2.76556 0
M  V30 1485 H 140.929 -0.638995 -1.42641 0
M  V30 1486 H 141.664 1.40718 -2.92179 0
M  V30 1487 H 141.449 -0.0594674 -3.92055 0
M  V30 1488 H 142.939 0.918796 -4.07367 0
M  V30 1489 N 143.376 1.44774 -0.622745 0
M  V30 1490 C 144.623 2.02121 -0.1239 0
M  V30 1491 C 144.951 1.48915 1.25118 0
M  V30 1492 O 144.206 0.660045 1.84233 0
M  V30 1493 C 144.505 3.57364 -0.0508323 0
M  V30 1494 C 144.171 4.29787 -1.36358 0
M  V30 1495 C 142.833 4.4929 -1.72314 0
M  V30 1496 C 145.185 4.71062 -2.23048 0
M  V30 1497 C 142.513 5.07325 -2.94682 0
M  V30 1498 C 144.865 5.30452 -3.44679 0
M  V30 1499 C 143.529 5.48175 -3.80868 0
M  V30 1500 H 142.799 0.739612 -0.0453381 0
M  V30 1501 H 145.446 1.73648 -0.807389 0
M  V30 1502 H 143.751 3.85202 0.715991 0
M  V30 1503 H 145.448 3.99456 0.351533 0
M  V30 1504 H 142.038 4.14932 -1.07375 0
M  V30 1505 H 146.222 4.55715 -1.96565 0
M  V30 1506 H 141.478 5.19235 -3.22809 0
M  V30 1507 H 145.652 5.61385 -4.12092 0
M  V30 1508 H 143.279 5.92912 -4.75773 0
M  V30 1509 N 144.854 0.36279 1.53368 0
M  V30 1510 C 145.784 -0.476976 2.28576 0
M  V30 1511 C 146.765 -1.08631 1.30894 0
M  V30 1512 O 147.95 -1.10409 1.59761 0
M  V30 1513 C 145.08 -1.61828 3.07293 0
M  V30 1514 C 144.034 -1.13633 4.1264 0
M  V30 1515 C 143.36 -2.36766 4.79423 0
M  V30 1516 C 144.66 -0.223061 5.21823 0
M  V30 1517 H 146.354 0.150474 2.99022 0
M  V30 1518 H 143.9 0.0738103 1.43811 0
M  V30 1519 H 145.853 -2.21237 3.58653 0
M  V30 1520 H 144.577 -2.27292 2.34533 0
M  V30 1521 H 143.236 -0.564945 3.62221 0
M  V30 1522 H 142.884 -3.0068 4.03238 0
M  V30 1523 H 142.584 -2.05192 5.50609 0
M  V30 1524 H 144.108 -2.96865 5.33576 0
M  V30 1525 H 145.522 -0.724545 5.68703 0
M  V30 1526 H 143.919 0.001678 6.001 0
M  V30 1527 H 144.989 0.735553 4.79289 0
M  V30 1528 N 146.332 -1.57332 0.0918853 0
M  V30 1529 C 147.578 -1.94524 -0.573425 0
M  V30 1530 C 147.911 -0.973578 -1.68033 0
M  V30 1531 O 147.186 -0.00609226 -1.94499 0
M  V30 1532 C 147.469 -3.41858 -1.13161 0
M  V30 1533 C 147.322 -4.4979 -0.0299747 0
M  V30 1534 C 148.641 -3.90435 -2.03098 0
M  V30 1535 H 145.76 -0.70734 -0.206975 0
M  V30 1536 H 148.402 -1.89309 0.161942 0
M  V30 1537 H 146.552 -3.46433 -1.7583 0
M  V30 1538 H 148.224 -4.57327 0.604112 0
M  V30 1539 H 146.467 -4.291 0.636833 0
M  V30 1540 H 147.138 -5.50069 -0.461287 0
M  V30 1541 H 149.614 -3.87992 -1.50338 0
M  V30 1542 H 148.49 -4.94097 -2.39081 0
M  V30 1543 H 148.751 -3.29541 -2.94712 0
M  V30 1544 N 147.81 0.181792 -1.56548 0
M  V30 1545 C 149.221 0.745244 -1.71181 0
M  V30 1546 C 149.572 1.83262 -0.70068 0
M  V30 1547 O 148.697 2.15946 0.140154 0
M  V30 1548 C 149.292 1.35859 -3.10367 0
M  V30 1549 C 147.851 1.86898 -3.2672 0
M  V30 1550 C 146.998 0.743942 -2.67134 0
M  V30 1551 H 149.949 -0.0434661 -1.5864 0
M  V30 1552 H 149.97 2.22817 -3.08436 0
M  V30 1553 H 149.482 0.566948 -3.83937 0
M  V30 1554 H 147.583 2.68738 -2.5809 0
M  V30 1555 H 147.696 2.02162 -4.34359 0
M  V30 1556 H 146.06 1.16169 -2.26665 0
M  V30 1557 H 146.843 -0.035676 -3.43281 0
M  V30 1558 N 149.288 1.51039 0.449983 0
M  V30 1559 C 150.518 1.66627 1.22143 0
M  V30 1560 C 150.926 0.357776 1.85786 0
M  V30 1561 O 150.269 -0.672424 1.70951 0
M  V30 1562 C 150.331 2.71562 2.35573 0
M  V30 1563 C 149.995 4.14526 1.92399 0
M  V30 1564 C 150.992 4.99717 1.43453 0
M  V30 1565 C 148.677 4.60559 2.00475 0
M  V30 1566 C 150.671 6.28998 1.03155 0
M  V30 1567 C 148.358 5.8984 1.59788 0
M  V30 1568 C 149.356 6.73886 1.11208 0
M  V30 1569 O 149.044 8.0075 0.710935 0
M  V30 1570 H 148.776 0.562635 0.374724 0
M  V30 1571 H 151.33 1.98146 0.541036 0
M  V30 1572 H 149.56 2.3533 3.06849 0
M  V30 1573 H 151.249 2.76156 2.97478 0
M  V30 1574 H 152.015 4.65361 1.36618 0
M  V30 1575 H 147.894 3.95273 2.37235 0
M  V30 1576 H 151.438 6.9455 0.651663 0
M  V30 1577 H 147.335 6.23713 1.66289 0
M  V30 1578 H 148.103 8.142 0.837913 0
M  V30 1579 N 150.766 -0.704594 1.40972 0
M  V30 1580 C 151.696 -1.83124 1.44872 0
M  V30 1581 C 152.677 -1.67281 0.30838 0
M  V30 1582 O 153.862 -1.87149 0.518556 0
M  V30 1583 C 150.992 -3.21181 1.32136 0
M  V30 1584 C 149.946 -3.51714 2.43888 0
M  V30 1585 C 149.272 -4.89032 2.16222 0
M  V30 1586 C 150.572 -3.516 3.86232 0
M  V30 1587 H 152.266 -1.80117 2.39161 0
M  V30 1588 H 149.812 -0.865145 1.15114 0
M  V30 1589 H 151.765 -3.99702 1.33479 0
M  V30 1590 H 150.489 -3.24791 0.343279 0
M  V30 1591 H 149.148 -2.75539 2.41813 0
M  V30 1592 H 148.796 -4.89256 1.16778 0
M  V30 1593 H 148.496 -5.10426 2.911 0
M  V30 1594 H 150.02 -5.69873 2.19265 0
M  V30 1595 H 151.434 -4.2014 3.9007 0
M  V30 1596 H 149.831 -3.84523 4.60719 0
M  V30 1597 H 150.901 -2.50757 4.15029 0
M  V30 1598 N 152.244 -1.26651 -0.937939 0
M  V30 1599 C 153.174 -1.10993 -2.05433 0
M  V30 1600 C 154.155 -0.0142161 -1.70094 0
M  V30 1601 O 155.34 -0.186837 -1.93299 0
M  V30 1602 C 152.47 -0.745561 -3.39203 0
M  V30 1603 C 151.424 -1.79337 -3.88616 0
M  V30 1604 C 150.75 -1.28324 -5.19073 0
M  V30 1605 C 152.05 -3.19553 -4.13138 0
M  V30 1606 H 153.744 -2.0438 -2.1879 0
M  V30 1607 H 151.29 -0.984041 -1.05131 0
M  V30 1608 H 153.243 -0.622888 -4.16771 0
M  V30 1609 H 151.967 0.22401 -3.25831 0
M  V30 1610 H 150.626 -1.90477 -3.13231 0
M  V30 1611 H 150.274 -0.303414 -5.02084 0
M  V30 1612 H 149.974 -1.98369 -5.53103 0
M  V30 1613 H 151.498 -1.1733 -5.99221 0
M  V30 1614 H 152.912 -3.11471 -4.81309 0
M  V30 1615 H 151.309 -3.87218 -4.58457 0
M  V30 1616 H 152.379 -3.65368 -3.18801 0
M  V30 1617 N 153.722 1.14298 -1.08507 0
M  V30 1618 C 154.969 1.85359 -0.815373 0
M  V30 1619 C 155.297 1.83001 0.658865 0
M  V30 1620 O 154.552 1.25655 1.50031 0
M  V30 1621 C 154.851 3.33547 -1.28379 0
M  V30 1622 C 154.517 3.56093 -2.76602 0
M  V30 1623 C 153.179 3.61955 -3.17084 0
M  V30 1624 C 155.531 3.64834 -3.72217 0
M  V30 1625 C 152.859 3.74082 -4.51973 0
M  V30 1626 C 155.211 3.78487 -5.06883 0
M  V30 1627 C 153.875 3.82598 -5.46969 0
M  V30 1628 H 153.145 0.678276 -0.298366 0
M  V30 1629 H 155.792 1.35002 -1.35819 0
M  V30 1630 H 154.097 3.86191 -0.660593 0
M  V30 1631 H 155.794 3.86959 -1.05186 0
M  V30 1632 H 152.384 3.52179 -2.4427 0
M  V30 1633 H 156.568 3.59595 -3.42061 0
M  V30 1634 H 151.824 3.75527 -4.82483 0
M  V30 1635 H 155.998 3.84193 -5.80834 0
M  V30 1636 H 153.625 3.91747 -6.51489 0
M  V30 1637 N 155.201 0.870884 1.31352 0
M  V30 1638 C 156.134 0.271983 2.26573 0
M  V30 1639 C 157.112 -0.599385 1.51149 0
M  V30 1640 O 158.296 -0.552605 1.80218 0
M  V30 1641 C 155.423 -0.614801 3.33073 0
M  V30 1642 C 154.469 0.185342 4.26097 0
M  V30 1643 S 155.302 1.56444 5.12138 0
M  V30 1644 C 156.458 0.683807 6.22153 0
M  V30 1645 H 156.691 1.07916 2.77023 0
M  V30 1646 H 154.224 0.669459 1.39132 0
M  V30 1647 H 156.182 -1.12074 3.94905 0
M  V30 1648 H 154.843 -1.39593 2.81376 0
M  V30 1649 H 154.036 -0.490771 5.01605 0
M  V30 1650 H 153.638 0.623415 3.68768 0
M  V30 1651 H 155.93 -0.10521 6.77418 0
M  V30 1652 H 156.873 1.41004 6.93919 0
M  V30 1653 H 157.281 0.250952 5.63942 0
M  V30 1654 N 156.679 -1.44442 0.630414 0
M  V30 1655 C 157.925 -2.02351 0.134816 0
M  V30 1656 C 158.258 -1.4947 -1.23986 0
M  V30 1657 O 157.533 -0.678475 -1.82283 0
M  V30 1658 C 157.816 -3.59898 0.120707 0
M  V30 1659 C 157.669 -4.23063 1.52767 0
M  V30 1660 C 158.988 -4.36585 -0.555127 0
M  V30 1661 H 156.107 -0.73527 0.0504646 0
M  V30 1662 H 158.749 -1.72022 0.806751 0
M  V30 1663 H 156.899 -3.85868 -0.451477 0
M  V30 1664 H 158.571 -4.08202 2.14869 0
M  V30 1665 H 156.814 -3.80586 2.08175 0
M  V30 1666 H 157.485 -5.32071 1.46984 0
M  V30 1667 H 159.961 -4.16044 -0.0685429 0
M  V30 1668 H 158.837 -5.46294 -0.534185 0
M  V30 1669 H 159.098 -4.11138 -1.62535 0
M  V30 1670 N 158.157 -0.370918 -1.53173 0
M  V30 1671 C 159.406 0.218249 -2.00516 0
M  V30 1672 C 159.719 1.49429 -1.26215 0
M  V30 1673 O 160.925 2.16239 -1.64174 0
M  V30 1674 C 159.381 0.43948 -3.57207 0
M  V30 1675 C 158.989 -0.822244 -4.4039 0
M  V30 1676 C 160.733 0.986012 -4.1289 0
M  V30 1677 C 158.64 -0.570304 -5.88644 0
M  V30 1678 H 157.57 0.0853333 -0.749156 0
M  V30 1679 H 160.221 -0.490483 -1.76823 0
M  V30 1680 H 158.603 1.20961 -3.77074 0
M  V30 1681 H 159.777 -1.59557 -4.32294 0
M  V30 1682 H 158.092 -1.29238 -3.95836 0
M  V30 1683 H 160.689 1.18991 -5.21292 0
M  V30 1684 H 161.032 1.94972 -3.6782 0
M  V30 1685 H 161.565 0.27592 -3.96842 0
M  V30 1686 H 158.304 -1.50449 -6.38001 0
M  V30 1687 H 157.824 0.164427 -5.99575 0
M  V30 1688 H 159.503 -0.19784 -6.46697 0
M  V30 1689 N 159.635 1.57281 -0.100228 0
M  V30 1690 C 160.598 2.13158 0.842398 0
M  V30 1691 C 161.598 1.06202 1.20738 0
M  V30 1692 O 162.788 1.32066 1.13597 0
M  V30 1693 C 159.92 2.65639 2.13655 0
M  V30 1694 H 161.113 2.97766 0.357114 0
M  V30 1695 H 158.666 1.5559 0.148823 0
M  V30 1696 H 159.401 1.84566 2.66657 0
M  V30 1697 H 159.186 3.43844 1.88451 0
M  V30 1698 H 160.676 3.08846 2.81077 0
M  V30 1699 N 161.113 -0.173488 1.56642 0
M  V30 1700 C 162.361 -0.888706 1.81512 0
M  V30 1701 C 162.682 -1.82875 0.676872 0
M  V30 1702 O 161.952 -1.93536 -0.303414 0
M  V30 1703 H 160.532 -0.331164 0.669582 0
M  V30 1704 H 163.194 -0.173823 1.94123 0
M  V30 1705 H 162.29 -1.46691 2.75478 0
M  V30 1706 N 162.591 -1.51276 -0.441967 0
M  V30 1707 C 163.524 -1.66933 -1.55591 0
M  V30 1708 C 164.502 -0.516958 -1.54163 0
M  V30 1709 O 165.686 -0.740209 -1.73358 0
M  V30 1710 C 162.813 -1.67866 -2.94174 0
M  V30 1711 C 161.859 -2.89013 -3.13646 0
M  V30 1712 S 162.692 -4.49897 -2.90436 0
M  V30 1713 C 163.848 -4.53568 -4.31308 0
M  V30 1714 H 164.081 -2.61155 -1.42076 0
M  V30 1715 H 161.614 -1.40902 -0.631341 0
M  V30 1716 H 163.572 -1.69089 -3.74058 0
M  V30 1717 H 162.233 -0.748296 -3.05056 0
M  V30 1718 H 161.426 -2.86054 -4.14957 0
M  V30 1719 H 161.028 -2.85509 -2.4158 0
M  V30 1720 H 163.32 -4.28924 -5.24434 0
M  V30 1721 H 164.263 -5.55355 -4.39303 0
M  V30 1722 H 164.671 -3.82943 -4.14747 0
M  V30 1723 N 164.069 0.697108 -1.41344 0
M  V30 1724 C 165.48 1.27697 -1.36199 0
M  V30 1725 C 165.831 1.9615 -0.0443463 0
M  V30 1726 O 164.956 1.98689 0.857419 0
M  V30 1727 C 165.551 2.32223 -2.46694 0
M  V30 1728 C 164.11 2.8579 -2.44952 0
M  V30 1729 C 163.257 1.59807 -2.26621 0
M  V30 1730 H 166.208 0.491968 -1.50882 0
M  V30 1731 H 166.229 3.1348 -2.15664 0
M  V30 1732 H 165.741 1.82373 -3.42581 0
M  V30 1733 H 163.842 3.3982 -1.52817 0
M  V30 1734 H 163.955 3.36325 -3.41207 0
M  V30 1735 H 162.319 1.8556 -1.7447 0
M  V30 1736 H 163.102 1.11956 -3.24532 0
M  V30 1737 N 165.547 1.27147 0.931209 0
M  V30 1738 C 166.477 1.12081 2.04842 0
M  V30 1739 C 167.458 0.0232364 1.70084 0
M  V30 1740 O 168.643 0.197085 1.93197 0
M  V30 1741 C 165.773 0.76354 3.38803 0
M  V30 1742 C 164.727 1.81396 3.87659 0
M  V30 1743 C 164.053 1.31075 5.18385 0
M  V30 1744 C 165.353 3.21739 4.11438 0
M  V30 1745 H 167.047 2.05537 2.17703 0
M  V30 1746 H 164.593 0.989603 1.04608 0
M  V30 1747 H 166.546 0.644982 4.16435 0
M  V30 1748 H 165.27 -0.206727 3.25945 0
M  V30 1749 H 163.929 1.92136 3.12217 0
M  V30 1750 H 163.577 0.330037 5.01916 0
M  V30 1751 H 163.277 2.013 5.52044 0
M  V30 1752 H 164.801 1.20506 5.98591 0
M  V30 1753 H 166.215 3.14019 4.79651 0
M  V30 1754 H 164.612 3.89644 4.56397 0
M  V30 1755 H 165.682 3.67054 3.16859 0
M  V30 1756 N 167.025 -1.13721 1.09112 0
M  V30 1757 C 168.272 -1.84924 0.825192 0
M  V30 1758 C 168.6 -1.83347 -0.649151 0
M  V30 1759 O 167.855 -1.26449 -1.49362 0
M  V30 1760 C 168.154 -3.32861 1.30146 0
M  V30 1761 C 167.82 -3.54621 2.78486 0
M  V30 1762 C 166.482 -3.60268 3.18999 0
M  V30 1763 C 168.834 -3.62855 3.74146 0
M  V30 1764 C 166.162 -3.71679 4.53951 0
M  V30 1765 C 168.514 -3.75793 5.08883 0
M  V30 1766 C 167.178 -3.79692 5.4899 0
M  V30 1767 H 166.448 -0.676684 0.301959 0
M  V30 1768 H 169.095 -1.3428 1.36533 0
M  V30 1769 H 167.4 -3.85835 0.681064 0
M  V30 1770 H 169.097 -3.86395 1.07236 0
M  V30 1771 H 165.687 -3.50879 2.46134 0
M  V30 1772 H 169.871 -3.57775 3.43963 0
M  V30 1773 H 165.127 -3.72963 4.84467 0
M  V30 1774 H 169.301 -3.81107 5.82864 0
M  V30 1775 H 166.928 -3.88287 6.53558 0
M  V30 1776 N 168.503 -0.877838 -1.30888 0
M  V30 1777 C 169.733 -0.506678 -2.00291 0
M  V30 1778 C 170.141 0.907449 -1.66018 0
M  V30 1779 O 169.484 1.60719 -0.88967 0
M  V30 1780 C 169.546 -0.59323 -3.54572 0
M  V30 1781 C 169.21 -1.97038 -4.12341 0
M  V30 1782 C 170.207 -2.93889 -4.28865 0
M  V30 1783 C 167.892 -2.27383 -4.47886 0
M  V30 1784 C 169.886 -4.19224 -4.80136 0
M  V30 1785 C 167.573 -3.52965 -4.98857 0
M  V30 1786 C 168.571 -4.48701 -5.14934 0
M  V30 1787 O 168.259 -5.72056 -5.64808 0
M  V30 1788 H 167.991 -0.1951 -0.647234 0
M  V30 1789 H 170.545 -1.18301 -1.6791 0
M  V30 1790 H 168.775 0.140057 -3.86446 0
M  V30 1791 H 170.464 -0.234372 -4.05223 0
M  V30 1792 H 171.23 -2.71756 -4.01714 0
M  V30 1793 H 167.109 -1.53639 -4.34645 0
M  V30 1794 H 170.653 -4.93956 -4.92599 0
M  V30 1795 H 166.55 -3.74939 -5.25443 0
M  V30 1796 H 167.318 -5.74337 -5.83163 0
M  V30 1797 N 169.982 1.44106 -0.638065 0
M  V30 1798 C 170.915 2.27924 0.112161 0
M  V30 1799 C 171.893 1.38945 0.844574 0
M  V30 1800 O 173.077 1.68386 0.847248 0
M  V30 1801 C 170.204 3.18029 1.16512 0
M  V30 1802 C 169.25 4.23163 0.532458 0
M  V30 1803 S 170.083 5.31131 -0.682666 0
M  V30 1804 C 171.239 6.24805 0.37013 0
M  V30 1805 H 171.472 2.91205 -0.598887 0
M  V30 1806 H 169.005 1.48394 -0.426441 0
M  V30 1807 H 170.963 3.70492 1.76766 0
M  V30 1808 H 169.624 2.53955 1.8484 0
M  V30 1809 H 168.817 4.86252 1.32571 0
M  V30 1810 H 168.419 3.74 0.00437644 0
M  V30 1811 H 170.711 6.66042 1.24071 0
M  V30 1812 H 171.654 7.07741 -0.225349 0
M  V30 1813 H 172.062 5.60154 0.699141 0
M  V30 1814 N 171.46 0.379036 1.52974 0
M  V30 1815 C 172.37 -0.468639 2.29872 0
M  V30 1816 C 173.386 -1.08067 1.36373 0
M  V30 1817 O 174.562 -1.08871 1.69438 0
M  V30 1818 C 171.627 -1.58594 3.083 0
M  V30 1819 C 170.688 -1.00007 4.17489 0
M  V30 1820 C 169.921 -2.06413 4.92168 0
M  V30 1821 O 170.144 -3.27751 4.66835 0
M  V30 1822 O 169.078 -1.68717 5.7777 0
M  V30 1823 H 172.904 0.157508 3.03291 0
M  V30 1824 H 170.489 0.143035 1.48714 0
M  V30 1825 H 172.371 -2.23525 3.57232 0
M  V30 1826 H 171.046 -2.19724 2.37703 0
M  V30 1827 H 169.953 -0.314299 3.72777 0
M  V30 1828 H 171.286 -0.433135 4.90291 0
M  V30 1829 N 172.938 -1.57226 0.108567 0
M  V30 1830 C 173.868 -2.17778 -0.84232 0
M  V30 1831 C 174.849 -1.11487 -1.2847 0
M  V30 1832 O 176.034 -1.39681 -1.34918 0
M  V30 1833 C 173.164 -2.76888 -2.09644 0
M  V30 1834 C 172.118 -3.88669 -1.79221 0
M  V30 1835 C 171.444 -4.34541 -3.11574 0
M  V30 1836 C 172.744 -5.11251 -1.06864 0
M  V30 1837 H 174.438 -2.97489 -0.337774 0
M  V30 1838 H 171.984 -1.43097 -0.161025 0
M  V30 1839 H 173.937 -3.17904 -2.76614 0
M  V30 1840 H 172.661 -1.94451 -2.62405 0
M  V30 1841 H 171.32 -3.48213 -1.14644 0
M  V30 1842 H 170.968 -3.48977 -3.62249 0
M  V30 1843 H 170.668 -5.09914 -2.91996 0
M  V30 1844 H 172.192 -4.782 -3.7968 0
M  V30 1845 H 173.606 -5.49352 -1.63968 0
M  V30 1846 H 172.003 -5.9214 -0.974178 0
M  V30 1847 H 173.073 -4.8487 -0.0536168 0
M  V30 1848 N 174.416 0.165178 -1.56732 0
M  V30 1849 C 175.379 1.18822 -1.95995 0
M  V30 1850 C 176.379 1.3685 -0.84431 0
M  V30 1851 O 177.569 1.34152 -1.11126 0
M  V30 1852 C 174.701 2.5521 -2.26011 0
M  V30 1853 H 175.894 0.851825 -2.87548 0
M  V30 1854 H 173.447 0.407857 -1.50885 0
M  V30 1855 H 174.182 2.93852 -1.37191 0
M  V30 1856 H 173.967 2.43489 -3.07336 0
M  V30 1857 H 175.457 3.28927 -2.57288 0
M  V30 1858 N 175.894 1.51508 0.433938 0
M  V30 1859 C 176.824 1.76016 1.53429 0
M  V30 1860 C 177.805 0.610112 1.58782 0
M  V30 1861 O 178.99 0.853177 1.74455 0
M  V30 1862 C 176.12 1.88831 2.9148 0
M  V30 1863 C 175.074 3.04288 3.00987 0
M  V30 1864 C 174.4 3.0229 4.4105 0
M  V30 1865 C 175.7 4.44193 2.74754 0
M  V30 1866 H 177.394 2.68152 1.33171 0
M  V30 1867 H 174.94 1.29035 0.639214 0
M  V30 1868 H 176.893 2.04559 3.6842 0
M  V30 1869 H 175.617 0.933455 3.12976 0
M  V30 1870 H 174.276 2.8827 2.26486 0
M  V30 1871 H 173.924 2.04576 4.59519 0
M  V30 1872 H 173.624 3.79822 4.4834 0
M  V30 1873 H 175.148 3.20116 5.1996 0
M  V30 1874 H 176.562 4.60544 3.41426 0
M  V30 1875 H 174.959 5.23457 2.9345 0
M  V30 1876 H 176.029 4.53996 1.70339 0
M  V30 1877 N 177.372 -0.689602 1.41712 0
M  V30 1878 C 178.62 -1.4468 1.4111 0
M  V30 1879 C 178.941 -1.94986 0.0232196 0
M  V30 1880 O 178.211 -1.72097 -0.935913 0
M  V30 1881 H 176.791 -0.536847 0.519427 0
M  V30 1882 H 179.453 -0.815825 1.77004 0
M  V30 1883 H 178.549 -2.30706 2.10193 0
M  V30 1884 N 178.85 -1.27639 -0.924453 0
M  V30 1885 C 179.782 -1.06442 -2.02985 0
M  V30 1886 C 180.795 -0.0194771 -1.62788 0
M  V30 1887 O 181.984 -0.261388 -1.76576 0
M  V30 1888 C 179.084 -0.59327 -3.33667 0
M  V30 1889 C 178.257 -1.71123 -4.02537 0
M  V30 1890 C 177.316 -1.23527 -5.11495 0
M  V30 1891 O 176.342 -1.93553 -5.35281 0
M  V30 1892 N 177.544 -0.0926678 -5.80426 0
M  V30 1893 H 180.309 -2.01633 -2.2173 0
M  V30 1894 H 177.87 -1.19248 -1.09505 0
M  V30 1895 H 179.862 -0.258686 -4.03872 0
M  V30 1896 H 178.432 0.265502 -3.1147 0
M  V30 1897 H 177.652 -2.21593 -3.26022 0
M  V30 1898 H 178.94 -2.46145 -4.45298 0
M  V30 1899 H 178.338 0.491741 -5.63559 0
M  V30 1900 H 176.895 0.182714 -6.51544 0
M  V30 1901 N 180.328 1.1314 -1.09713 0
M  V30 1902 C 181.575 1.84484 -0.834987 0
M  V30 1903 C 181.903 1.83689 0.639418 0
M  V30 1904 O 181.158 1.2724 1.4869 0
M  V30 1905 C 181.457 3.32167 -1.3191 0
M  V30 1906 C 181.123 3.53139 -2.80363 0
M  V30 1907 C 179.785 3.58571 -3.20905 0
M  V30 1908 C 182.137 3.60866 -3.76065 0
M  V30 1909 C 179.465 3.69267 -4.55916 0
M  V30 1910 C 181.817 3.73089 -5.10869 0
M  V30 1911 C 180.481 3.76775 -5.50996 0
M  V30 1912 H 179.751 0.675073 -0.305544 0
M  V30 1913 H 182.398 1.33554 -1.37243 0
M  V30 1914 H 180.703 3.85469 -0.701517 0
M  V30 1915 H 182.4 3.85821 -1.09284 0
M  V30 1916 H 178.99 3.49569 -2.47991 0
M  V30 1917 H 183.174 3.55946 -3.45855 0
M  V30 1918 H 178.43 3.70388 -4.86438 0
M  V30 1919 H 182.604 3.78011 -5.84877 0
M  V30 1920 H 180.231 3.84815 -6.55608 0
M  V30 1921 N 181.806 0.884767 1.30421 0
M  V30 1922 C 182.754 0.340869 2.30089 0
M  V30 1923 C 183.748 -0.55201 1.60154 0
M  V30 1924 O 184.954 -0.436467 1.74628 0
M  V30 1925 H 181.329 0.0915739 0.746404 0
M  V30 1926 H 183.3 1.19513 2.73421 0
M  V30 1927 C 182.049 -0.429779 3.45034 0
M  V30 1928 H 181.372 0.248024 3.9903 0
M  V30 1929 H 182.812 -0.775445 4.16849 0
M  V30 1930 C 181.271 -1.62677 2.95022 0
M  V30 1931 O 181.801 -2.72614 2.95033 0
M  V30 1932 N 180.007 -1.46387 2.51036 0
M  V30 1933 H 179.554 -0.569506 2.51226 0
M  V30 1934 H 179.512 -2.26612 2.17932 0
M  V30 1935 N 183.284 -1.43765 0.645699 0
M  V30 1936 C 184.7 -1.56509 0.312591 0
M  V30 1937 C 184.9 -1.6307 -1.18365 0
M  V30 1938 O 183.956 -1.58167 -1.96824 0
M  V30 1939 C 185.269 -2.82968 1.01733 0
M  V30 1940 C 186.817 -2.96701 0.996865 0
M  V30 1941 C 187.292 -4.25982 1.68236 0
M  V30 1942 N 188.783 -4.32829 1.64964 0
M  V30 1943 C 189.518 -5.31613 2.14885 0
M  V30 1944 N 189.014 -6.36718 2.73061 0
M  V30 1945 N 190.807 -5.23217 2.05428 0
M  V30 1946 H 182.958 -1.3775 1.61675 0
M  V30 1947 H 185.221 -0.661067 0.679481 0
M  V30 1948 H 184.927 -2.84156 2.0724 0
M  V30 1949 H 184.801 -3.72957 0.564177 0
M  V30 1950 H 187.188 -2.95058 -0.0497719 0
M  V30 1951 H 187.269 -2.08022 1.48865 0
M  V30 1952 H 186.913 -4.28386 2.72852 0
M  V30 1953 H 186.843 -5.13545 1.16529 0
M  V30 1954 H 189.334 -3.57493 1.22503 0
M  V30 1955 H 189.647 -7.08401 3.08848 0
M  V30 1956 H 187.992 -6.37362 2.77118 0
M  V30 1957 H 191.183 -4.40019 1.59689 0
M  V30 1958 H 191.356 -6.00045 2.44643 0
M  V30 1959 N 184.763 -0.387143 -1.52771 0
M  V30 1960 C 185.673 0.456442 -2.30117 0
M  V30 1961 C 186.689 1.07342 -1.36944 0
M  V30 1962 O 187.865 1.07971 -1.70013 0
M  V30 1963 C 184.93 1.56957 -3.09136 0
M  V30 1964 C 183.991 0.977916 -4.18014 0
M  V30 1965 C 183.224 2.038 -4.93256 0
M  V30 1966 O 183.447 3.25271 -4.68567 0
M  V30 1967 O 182.381 1.6565 -5.78657 0
M  V30 1968 H 186.207 -0.17359 -3.03203 0
M  V30 1969 H 183.792 -0.150919 -1.48636 0
M  V30 1970 H 185.674 2.21628 -3.58412 0
M  V30 1971 H 184.349 2.18461 -2.38865 0
M  V30 1972 H 183.256 0.294525 -3.72939 0
M  V30 1973 H 184.589 0.407128 -4.90513 0
M  V30 1974 N 186.241 1.57166 -0.116904 0
M  V30 1975 C 187.489 1.94737 0.540533 0
M  V30 1976 C 187.81 1.00096 1.67349 0
M  V30 1977 O 187.08 0.0568854 1.95817 0
M  V30 1978 H 185.66 0.718981 0.202669 0
M  V30 1979 H 188.322 1.94017 -0.185353 0
M  V30 1980 H 187.418 2.97719 0.936483 0
M  V30 1981 N 187.719 -0.156864 1.56817 0
M  V30 1982 C 188.682 -1.17781 1.96622 0
M  V30 1983 C 189.682 -1.36401 0.851555 0
M  V30 1984 O 190.872 -1.33561 1.11836 0
M  V30 1985 C 188.004 -2.54008 2.27361 0
M  V30 1986 H 189.197 -0.836564 2.87996 0
M  V30 1987 H 186.75 -0.39985 1.51099 0
M  V30 1988 H 187.485 -2.9312 1.38748 0
M  V30 1989 H 187.27 -2.41856 3.08623 0
M  V30 1990 H 188.76 -3.27558 2.59029 0
M  V30 1991 N 189.197 -1.51736 -0.425897 0
M  V30 1992 C 190.16 -1.73271 -1.50032 0
M  V30 1993 C 191.16 -0.602639 -1.4908 0
M  V30 1994 O 192.35 -0.87033 -1.509 0
M  V30 1995 C 189.482 -1.79969 -2.89523 0
M  V30 1996 H 190.675 -2.69172 -1.32237 0
M  V30 1997 H 188.228 -1.41899 -0.65532 0
M  V30 1998 H 188.963 -0.859241 -3.1271 0
M  V30 1999 H 188.748 -2.62109 -2.91619 0
M  V30 2000 H 190.238 -1.9843 -3.67444 0
M  V30 2001 N 190.675 0.682077 -1.42076 0
M  V30 2002 C 191.923 1.4393 -1.41876 0
M  V30 2003 C 192.244 1.94971 -0.0335599 0
M  V30 2004 O 191.514 1.72591 0.926773 0
M  V30 2005 H 190.094 0.534085 -0.522267 0
M  V30 2006 H 192.756 0.806427 -1.77434 0
M  V30 2007 H 191.852 2.29588 -2.11414 0
M  V30 2008 N 192.153 1.28127 0.917671 0
M  V30 2009 C 193.399 1.15223 1.66888 0
M  V30 2010 C 193.732 -0.299293 1.9188 0
M  V30 2011 O 193.007 -1.21805 1.51637 0
M  V30 2012 C 193.29 1.94706 3.02922 0
M  V30 2013 C 193.143 3.47898 2.85109 0
M  V30 2014 C 194.462 1.75939 4.03402 0
M  V30 2015 H 191.581 0.419946 0.605652 0
M  V30 2016 H 194.223 1.57398 1.06423 0
M  V30 2017 H 192.373 1.58864 3.54534 0
M  V30 2018 H 194.045 3.93624 2.40537 0
M  V30 2019 H 192.288 3.7373 2.20246 0
M  V30 2020 H 192.959 3.98765 3.81694 0
M  V30 2021 H 195.435 2.07209 3.60837 0
M  V30 2022 H 194.311 2.33931 4.96556 0
M  V30 2023 H 194.572 0.709877 4.36364 0
M  V30 2024 N 193.631 -1.12557 1.10312 0
M  V30 2025 C 194.877 -1.84515 0.855901 0
M  V30 2026 C 195.232 -1.82409 -0.611936 0
M  V30 2027 O 194.525 -1.25778 -1.44535 0
M  V30 2028 C 194.719 -3.31462 1.33669 0
M  V30 2029 C 194.548 -3.47879 2.84974 0
M  V30 2030 C 193.318 -3.61589 3.52961 0
M  V30 2031 C 195.516 -3.43152 3.83081 0
M  V30 2032 N 193.498 -3.66359 4.926 0
M  V30 2033 C 194.869 -3.54401 5.08724 0
M  V30 2034 C 196.924 -3.2661 3.75807 0
M  V30 2035 C 195.627 -3.50815 6.2795 0
M  V30 2036 C 197.653 -3.24335 4.94531 0
M  V30 2037 C 197.015 -3.36144 6.19021 0
M  V30 2038 H 193.114 -0.690967 0.366182 0
M  V30 2039 H 195.698 -1.34763 1.40524 0
M  V30 2040 H 193.869 -3.7976 0.814686 0
M  V30 2041 H 195.601 -3.91272 1.03385 0
M  V30 2042 H 192.356 -3.63652 3.03404 0
M  V30 2043 H 192.78 -3.72411 5.65366 0
M  V30 2044 H 197.422 -3.16375 2.80476 0
M  V30 2045 H 195.14 -3.5982 7.23571 0
M  V30 2046 H 198.726 -3.12719 4.9061 0
M  V30 2047 H 197.606 -3.34357 7.09348 0
M  V30 2048 N 195.109 -0.891671 -1.2995 0
M  V30 2049 C 196.056 -0.361736 -2.27948 0
M  V30 2050 C 197.026 0.551761 -1.56668 0
M  V30 2051 O 198.211 0.478736 -1.84696 0
M  V30 2052 C 195.351 0.411825 -3.42634 0
M  V30 2053 C 194.464 -0.531651 -4.28716 0
M  V30 2054 C 193.599 0.258167 -5.30572 0
M  V30 2055 C 192.638 -0.680349 -6.08307 0
M  V30 2056 N 191.775 0.0745613 -7.0206 0
M  V30 2057 H 196.615 -1.20254 -2.72659 0
M  V30 2058 H 194.152 -0.604352 -1.34112 0
M  V30 2059 H 196.11 0.876304 -4.07893 0
M  V30 2060 H 194.74 1.21715 -2.98974 0
M  V30 2061 H 193.792 -1.11463 -3.63703 0
M  V30 2062 H 195.104 -1.25038 -4.82874 0
M  V30 2063 H 194.258 0.784204 -6.0161 0
M  V30 2064 H 192.997 1.01008 -4.77126 0
M  V30 2065 H 192.002 -1.21796 -5.3614 0
M  V30 2066 H 193.227 -1.43145 -6.63842 0
M  V30 2067 H 191.173 0.808883 -6.50994 0
M  V30 2068 H 191.09 -0.584409 -7.53738 0
M  V30 2069 H 192.358 0.581123 -7.77331 0
M  V30 2070 N 196.587 1.43421 -0.653314 0
M  V30 2071 C 197.836 2.01032 -0.164076 0
M  V30 2072 C 198.149 1.52147 1.22926 0
M  V30 2073 O 199.355 2.02031 1.81371 0
M  V30 2074 C 197.811 3.59082 -0.24252 0
M  V30 2075 C 197.419 4.1696 -1.63855 0
M  V30 2076 C 199.163 4.24079 0.18911 0
M  V30 2077 C 197.07 5.67304 -1.67092 0
M  V30 2078 H 196 0.751798 -0.0575769 0
M  V30 2079 H 198.651 1.6439 -0.815362 0
M  V30 2080 H 197.033 3.93125 0.476276 0
M  V30 2081 H 198.207 3.94416 -2.38271 0
M  V30 2082 H 196.522 3.64335 -2.01616 0
M  V30 2083 H 199.119 5.34381 0.184775 0
M  V30 2084 H 199.462 3.98005 1.22056 0
M  V30 2085 H 199.995 3.94918 -0.477938 0
M  V30 2086 H 196.734 5.98145 -2.68146 0
M  V30 2087 H 196.254 5.91904 -0.970014 0
M  V30 2088 H 197.933 6.31344 -1.4147 0
M  V30 2089 N 198.065 0.39524 1.52563 0
M  V30 2090 C 199.305 -0.184744 2.03563 0
M  V30 2091 C 199.669 -1.43548 1.27507 0
M  V30 2092 O 200.87 -2.093 1.68662 0
M  V30 2093 C 199.141 -0.440294 3.54678 0
M  V30 2094 S 200.7 -0.989712 4.27493 0
M  V30 2095 H 197.518 -0.0515075 0.709132 0
M  V30 2096 H 200.12 0.544957 1.87751 0
M  V30 2097 H 198.824 0.477005 4.07618 0
M  V30 2098 H 198.355 -1.19825 3.74707 0
M  V30 2099 H 200.37 -2.27155 4.41152 0
M  V30 2100 N 199.544 -1.57102 0.125237 0
M  V30 2101 C 200.955 -1.82384 -0.399142 0
M  V30 2102 C 201.306 -1.04276 -1.66195 0
M  V30 2103 O 200.431 -0.281269 -2.14564 0
M  V30 2104 C 201.026 -3.30821 -0.730932 0
M  V30 2105 C 199.585 -3.56762 -1.19992 0
M  V30 2106 C 198.732 -2.7649 -0.211792 0
M  V30 2107 H 201.683 -1.54786 0.350277 0
M  V30 2108 H 201.704 -3.4579 -1.58775 0
M  V30 2109 H 201.216 -3.87643 0.188345 0
M  V30 2110 H 199.317 -3.05305 -2.13588 0
M  V30 2111 H 199.43 -4.65317 -1.14093 0
M  V30 2112 H 197.794 -2.4489 -0.700085 0
M  V30 2113 H 198.577 -3.36073 0.700691 0
M  V30 2114 N 201.022 0.148545 -1.56898 0
M  V30 2115 C 202.271 0.85984 -1.82454 0
M  V30 2116 C 202.584 1.82406 -0.706229 0
M  V30 2117 O 203.79 2.57938 -0.847349 0
M  V30 2118 C 202.246 1.57967 -3.2338 0
M  V30 2119 C 201.854 0.65794 -4.43142 0
M  V30 2120 C 203.598 2.27784 -3.58211 0
M  V30 2121 C 201.505 1.3793 -5.75091 0
M  V30 2122 H 200.435 0.324834 -0.68044 0
M  V30 2123 H 203.086 0.112588 -1.83154 0
M  V30 2124 H 201.468 2.37249 -3.17063 0
M  V30 2125 H 202.642 -0.0995497 -4.60692 0
M  V30 2126 H 200.957 0.0682643 -4.16344 0
M  V30 2127 H 203.554 2.8239 -4.54048 0
M  V30 2128 H 203.897 3.04204 -2.84193 0
M  V30 2129 H 204.43 1.55421 -3.66182 0
M  V30 2130 H 201.169 0.656982 -6.52199 0
M  V30 2131 H 200.689 2.10954 -5.61479 0
M  V30 2132 H 202.368 1.92063 -6.17835 0
M  V30 2133 N 202.5 1.5196 0.417844 0
M  V30 2134 C 203.43 1.77634 1.51554 0
M  V30 2135 C 204.411 0.626918 1.58126 0
M  V30 2136 O 205.596 0.871632 1.7354 0
M  V30 2137 C 202.726 1.91911 2.8946 0
M  V30 2138 C 201.68 3.07463 2.97743 0
M  V30 2139 C 201.006 3.06951 4.37819 0
M  V30 2140 C 202.306 4.47082 2.70027 0
M  V30 2141 H 204 2.6955 1.3032 0
M  V30 2142 H 201.546 1.29706 0.625492 0
M  V30 2143 H 203.499 2.08455 3.6623 0
M  V30 2144 H 202.223 0.966598 3.11969 0
M  V30 2145 H 200.882 2.90656 2.23416 0
M  V30 2146 H 200.53 2.09438 4.57323 0
M  V30 2147 H 200.23 3.84556 4.44286 0
M  V30 2148 H 201.754 3.25613 5.16535 0
M  V30 2149 H 203.168 4.6414 3.36522 0
M  V30 2150 H 201.565 5.2654 2.87881 0
M  V30 2151 H 202.635 4.55777 1.65514 0
M  V30 2152 N 203.978 -0.674533 1.42435 0
M  V30 2153 C 204.925 -1.78807 1.45934 0
M  V30 2154 C 205.895 -1.63157 0.311271 0
M  V30 2155 O 207.08 -1.83707 0.515383 0
M  V30 2156 C 204.22 -3.16839 1.36773 0
M  V30 2157 C 203.333 -3.43774 2.61617 0
M  V30 2158 C 202.468 -4.71536 2.44597 0
M  V30 2159 C 201.507 -4.91505 3.64814 0
M  V30 2160 N 200.644 -6.10508 3.46734 0
M  V30 2161 H 205.484 -1.75151 2.41093 0
M  V30 2162 H 203.021 -0.85504 1.19697 0
M  V30 2163 H 204.979 -3.96606 1.29459 0
M  V30 2164 H 203.609 -3.19619 0.452089 0
M  V30 2165 H 202.661 -2.58259 2.79297 0
M  V30 2166 H 203.973 -3.54423 3.50978 0
M  V30 2167 H 203.127 -5.59393 2.3487 0
M  V30 2168 H 201.866 -4.6317 1.52726 0
M  V30 2169 H 200.871 -4.0209 3.74972 0
M  V30 2170 H 202.096 -5.01716 4.57665 0
M  V30 2171 H 200.042 -6.03315 2.5758 0
M  V30 2172 H 199.959 -6.2202 4.29682 0
M  V30 2173 H 201.227 -7.01044 3.40819 0
M  V30 2174 N 205.456 -1.28612 -0.910864 0
M  V30 2175 C 206.704 -1.15705 -1.65701 0
M  V30 2176 C 207.025 0.29416 -1.92769 0
M  V30 2177 O 206.295 1.20331 -1.54588 0
M  V30 2178 H 204.875 -0.425216 -0.614167 0
M  V30 2179 H 207.537 -1.61381 -1.0928 0
M  V30 2180 H 206.633 -1.6988 -2.61815 0
M  V30 2181 N 206.934 1.1197 -1.10907 0
M  V30 2182 C 208.18 1.8386 -0.855773 0
M  V30 2183 C 208.513 1.84134 0.617103 0
M  V30 2184 O 207.788 1.29041 1.45529 0
M  V30 2185 C 208.071 3.31305 -1.411 0
M  V30 2186 C 207.924 3.39456 -2.9511 0
M  V30 2187 C 209.243 4.2721 -1.05736 0
M  V30 2188 H 206.362 0.667545 -0.312334 0
M  V30 2189 H 209.004 1.31331 -1.37303 0
M  V30 2190 H 207.154 3.76169 -0.97105 0
M  V30 2191 H 208.826 3.03191 -3.47668 0
M  V30 2192 H 207.069 2.79849 -3.31462 0
M  V30 2193 H 207.74 4.43209 -3.29044 0
M  V30 2194 H 210.216 3.90497 -1.43706 0
M  V30 2195 H 209.092 5.28775 -1.47269 0
M  V30 2196 H 209.353 4.42088 0.0325958 0
M  V30 2197 N 208.412 0.89855 1.29475 0
M  V30 2198 C 209.66 0.522847 1.9522 0
M  V30 2199 C 209.981 -0.93371 1.71192 0
M  V30 2200 O 209.251 -1.65823 1.04305 0
M  V30 2201 H 207.831 0.190366 0.722336 0
M  V30 2202 H 210.493 1.14459 1.5775 0
M  V30 2203 H 209.589 0.704476 3.04045 0
M  V30 2204 N 209.89 -1.43072 0.660911 0
M  V30 2205 C 211.137 -2.01721 0.177445 0
M  V30 2206 C 211.465 -1.5218 -1.21126 0
M  V30 2207 O 210.72 -0.708659 -1.82419 0
M  V30 2208 C 211.019 -3.57103 0.145563 0
M  V30 2209 C 210.685 -4.26021 1.47705 0
M  V30 2210 C 209.347 -4.44563 1.84165 0
M  V30 2211 C 211.699 -4.64983 2.35458 0
M  V30 2212 C 209.027 -4.99334 3.0803 0
M  V30 2213 C 211.379 -5.21127 3.58622 0
M  V30 2214 C 210.043 -5.37884 3.95268 0
M  V30 2215 H 209.313 -0.73815 0.0649317 0
M  V30 2216 H 211.96 -1.71446 0.853144 0
M  V30 2217 H 210.265 -3.86965 -0.61361 0
M  V30 2218 H 211.962 -4.00248 -0.2455 0
M  V30 2219 H 208.552 -4.11939 1.18339 0
M  V30 2220 H 212.736 -4.50343 2.08579 0
M  V30 2221 H 207.992 -5.10493 3.36462 0
M  V30 2222 H 212.166 -5.50262 4.26831 0
M  V30 2223 H 209.793 -5.80089 4.91325 0
M  V30 2224 N 211.368 -0.403325 -1.52352 0
M  V30 2225 C 212.596 0.174012 -2.06167 0
M  V30 2226 C 213.011 1.39347 -1.27388 0
M  V30 2227 O 212.368 1.79597 -0.324201 0
M  V30 2228 C 212.419 0.530223 -3.5759 0
M  V30 2229 O 212.14 -0.640806 -4.33388 0
M  V30 2230 C 213.641 1.16192 -4.27802 0
M  V30 2231 H 210.861 0.0229464 -0.670608 0
M  V30 2232 H 213.405 -0.572604 -1.9632 0
M  V30 2233 H 211.56 1.22673 -3.67464 0
M  V30 2234 H 211.974 -0.344851 -5.23365 0
M  V30 2235 H 213.448 1.36141 -5.34948 0
M  V30 2236 H 213.925 2.13335 -3.83907 0
M  V30 2237 H 214.531 0.505775 -4.22282 0
M  V30 2238 N 212.846 1.57033 -0.133567 0
M  V30 2239 C 214.092 1.95976 0.521649 0
M  V30 2240 C 214.425 1.01779 1.65393 0
M  V30 2241 O 213.7 0.0576581 1.94415 0
M  V30 2242 C 213.983 3.44738 1.04057 0
M  V30 2243 C 213.836 4.49711 -0.0892897 0
M  V30 2244 C 215.155 3.95682 1.92675 0
M  V30 2245 H 212.274 0.712579 0.188149 0
M  V30 2246 H 214.916 1.88813 -0.212076 0
M  V30 2247 H 213.066 3.50973 1.66583 0
M  V30 2248 H 214.738 4.55565 -0.725152 0
M  V30 2249 H 212.981 4.27261 -0.750378 0
M  V30 2250 H 213.652 5.51099 0.315284 0
M  V30 2251 H 216.128 3.91841 1.39998 0
M  V30 2252 H 215.004 5.00262 2.25897 0
M  V30 2253 H 215.265 3.37239 2.85872 0
M  V30 2254 N 214.325 -0.140222 1.56975 0
M  V30 2255 C 215.574 -0.850152 1.82908 0
M  V30 2256 C 215.887 -1.82028 0.715892 0
M  V30 2257 O 217.093 -2.57485 0.861016 0
M  V30 2258 C 215.549 -1.5625 3.24213 0
M  V30 2259 C 215.157 -0.63443 4.43485 0
M  V30 2260 C 216.901 -2.25881 3.59413 0
M  V30 2261 C 214.808 -1.34879 5.75814 0
M  V30 2262 H 213.738 -0.321221 0.682153 0
M  V30 2263 H 216.389 -0.102874 1.83211 0
M  V30 2264 H 214.771 -2.35565 3.18316 0
M  V30 2265 H 215.945 0.12398 4.60633 0
M  V30 2266 H 214.26 -0.0461836 4.16374 0
M  V30 2267 H 216.857 -2.79978 4.5554 0
M  V30 2268 H 217.2 -3.02693 2.85802 0
M  V30 2269 H 217.733 -1.53477 3.67001 0
M  V30 2270 H 214.472 -0.622385 6.52539 0
M  V30 2271 H 213.992 -2.07974 5.6259 0
M  V30 2272 H 215.671 -1.88784 6.18845 0
M  V30 2273 N 215.803 -1.52179 -0.40978 0
M  V30 2274 C 216.733 -1.78435 -1.5061 0
M  V30 2275 C 217.714 -0.635295 -1.57791 0
M  V30 2276 O 218.899 -0.880823 -1.73076 0
M  V30 2277 C 216.029 -1.93444 -2.88439 0
M  V30 2278 C 214.983 -3.09038 -2.96108 0
M  V30 2279 C 214.309 -3.09268 -4.36185 0
M  V30 2280 C 215.609 -4.48508 -2.67652 0
M  V30 2281 H 217.303 -2.70237 -1.28889 0
M  V30 2282 H 214.849 -1.30036 -0.618605 0
M  V30 2283 H 216.802 -2.10394 -3.65119 0
M  V30 2284 H 215.526 -0.983129 -3.11452 0
M  V30 2285 H 214.185 -2.91837 -2.21872 0
M  V30 2286 H 213.833 -2.11861 -4.56206 0
M  V30 2287 H 213.533 -3.86907 -4.42241 0
M  V30 2288 H 215.057 -3.28348 -5.14801 0
M  V30 2289 H 216.471 -4.65918 -3.34056 0
M  V30 2290 H 214.868 -5.28059 -2.85085 0
M  V30 2291 H 215.938 -4.56649 -1.63095 0
M  V30 2292 N 217.281 0.66697 -1.42791 0
M  V30 2293 C 218.53 1.42278 -1.42968 0
M  V30 2294 C 218.843 1.9553 -0.0524489 0
M  V30 2295 O 220.049 2.71414 0.068363 0
M  V30 2296 C 218.505 2.57418 -2.51524 0
M  V30 2297 C 218.113 2.10832 -3.9529 0
M  V30 2298 C 219.857 3.34878 -2.60877 0
M  V30 2299 C 217.764 3.23101 -4.95338 0
M  V30 2300 H 216.694 0.534533 -0.531781 0
M  V30 2301 H 219.345 0.721302 -1.68729 0
M  V30 2302 H 217.727 3.29971 -2.18941 0
M  V30 2303 H 218.901 1.4538 -4.37266 0
M  V30 2304 H 217.216 1.46289 -3.89857 0
M  V30 2305 H 219.813 4.18505 -3.32802 0
M  V30 2306 H 220.156 3.81993 -1.6549 0
M  V30 2307 H 220.689 2.69398 -2.92693 0
M  V30 2308 H 217.428 2.80969 -5.9223 0
M  V30 2309 H 216.948 3.87309 -4.57987 0
M  V30 2310 H 218.627 3.88447 -5.17415 0
M  V30 2311 N 218.759 1.29093 0.90403 0
M  V30 2312 C 219.984 1.19809 1.69294 0
M  V30 2313 C 220.409 -0.238481 1.86582 0
M  V30 2314 O 219.767 -1.1723 1.383 0
M  V30 2315 C 219.815 1.91202 3.05736 0
M  V30 2316 O 218.919 1.22611 3.93752 0
M  V30 2317 H 218.26 0.415385 0.518027 0
M  V30 2318 H 220.79 1.70586 1.12967 0
M  V30 2319 H 220.8 1.99487 3.55906 0
M  V30 2320 H 219.475 2.95692 2.92471 0
M  V30 2321 H 218.052 1.22554 3.52186 0
M  V30 2322 N 220.237 -1.11381 1.11499 0
M  V30 2323 C 221.167 -2.19509 0.796125 0
M  V30 2324 C 222.148 -1.68458 -0.235796 0
M  V30 2325 O 223.333 -1.93947 -0.0991344 0
M  V30 2326 C 220.463 -3.46475 0.239205 0
M  V30 2327 C 219.417 -4.10744 1.20307 0
M  V30 2328 C 218.743 -5.32293 0.50683 0
M  V30 2329 C 220.043 -4.55597 2.55399 0
M  V30 2330 H 221.737 -2.46439 1.70024 0
M  V30 2331 H 219.283 -1.18446 0.818935 0
M  V30 2332 H 221.236 -4.214 0.00392006 0
M  V30 2333 H 219.96 -3.19006 -0.700206 0
M  V30 2334 H 218.619 -3.37813 1.42399 0
M  V30 2335 H 218.267 -5.01095 -0.437408 0
M  V30 2336 H 217.967 -5.76243 1.1497 0
M  V30 2337 H 219.491 -6.09956 0.280351 0
M  V30 2338 H 220.905 -5.21841 2.37391 0
M  V30 2339 H 219.302 -5.10363 3.15673 0
M  V30 2340 H 220.372 -3.69013 3.14575 0
M  V30 2341 N 221.715 -0.905404 -1.28997 0
M  V30 2342 C 222.945 -0.549049 -1.99171 0
M  V30 2343 C 223.353 0.87203 -1.67906 0
M  V30 2344 O 222.696 1.58796 -0.923561 0
M  V30 2345 C 222.758 -0.668306 -3.53234 0
M  V30 2346 C 222.422 -2.0574 -4.08069 0
M  V30 2347 C 223.419 -3.0292 -4.22534 0
M  V30 2348 C 221.104 -2.36833 -4.42962 0
M  V30 2349 C 223.098 -4.29314 -4.71135 0
M  V30 2350 C 220.785 -3.63467 -4.91258 0
M  V30 2351 C 221.783 -4.59522 -5.053 0
M  V30 2352 O 221.471 -5.83907 -5.52546 0
M  V30 2353 H 221.203 -0.208784 -0.64295 0
M  V30 2354 H 223.757 -1.21836 -1.65363 0
M  V30 2355 H 221.987 0.0580547 -3.86656 0
M  V30 2356 H 223.676 -0.320273 -4.04634 0
M  V30 2357 H 224.442 -2.80216 -3.95859 0
M  V30 2358 H 220.321 -1.62824 -4.31288 0
M  V30 2359 H 223.865 -5.04293 -4.8201 0
M  V30 2360 H 219.762 -3.86 -5.17372 0
M  V30 2361 H 220.53 -5.86578 -5.70849 0
M  V30 2362 N 223.193 1.4272 -0.668489 0
M  V30 2363 C 224.439 2.01923 -0.188419 0
M  V30 2364 C 224.772 1.52704 1.19979 0
M  V30 2365 O 224.047 0.726566 1.8042 0
M  V30 2366 C 224.33 3.59451 -0.216085 0
M  V30 2367 C 224.183 4.18864 -1.6393 0
M  V30 2368 C 225.502 4.37903 0.439179 0
M  V30 2369 H 222.621 0.733674 -0.0699412 0
M  V30 2370 H 225.263 1.69822 -0.852076 0
M  V30 2371 H 223.413 3.86929 0.349012 0
M  V30 2372 H 225.085 4.02362 -2.25616 0
M  V30 2373 H 223.328 3.74933 -2.18193 0
M  V30 2374 H 223.999 5.27987 -1.61039 0
M  V30 2375 H 226.475 4.16079 -0.0417878 0
M  V30 2376 H 225.351 5.47519 0.389157 0
M  V30 2377 H 225.612 4.15303 1.51577 0
M  V30 2378 N 224.671 0.411399 1.52136 0
M  V30 2379 C 225.919 -0.163322 2.01439 0
M  V30 2380 C 226.24 -1.45453 1.29879 0
M  V30 2381 O 225.51 -1.91225 0.4254 0
M  V30 2382 H 224.09 -0.0633447 0.744309 0
M  V30 2383 H 226.752 0.548161 1.87033 0
M  V30 2384 H 225.848 -0.357817 3.10042 0
M  V30 2385 N 226.149 -1.5696 0.141893 0
M  V30 2386 C 227.396 -1.9596 -0.510492 0
M  V30 2387 C 227.724 -1.02648 -1.65208 0
M  V30 2388 O 226.979 -0.0546947 -1.95624 0
M  V30 2389 C 227.278 -3.41242 -1.06249 0
M  V30 2390 C 226.944 -4.50882 -0.0398791 0
M  V30 2391 C 225.606 -4.80595 0.241247 0
M  V30 2392 C 227.958 -5.17058 0.65578 0
M  V30 2393 C 225.286 -5.73792 1.22393 0
M  V30 2394 C 227.638 -6.11313 1.62724 0
M  V30 2395 C 226.302 -6.39407 1.91612 0
M  V30 2396 H 225.572 -0.717068 -0.186802 0
M  V30 2397 H 228.219 -1.90142 0.227643 0
M  V30 2398 H 226.524 -3.43866 -1.87785 0
M  V30 2399 H 228.221 -3.68742 -1.57576 0
M  V30 2400 H 224.811 -4.27754 -0.269174 0
M  V30 2401 H 228.995 -4.94239 0.451779 0
M  V30 2402 H 224.251 -5.93853 1.45424 0
M  V30 2403 H 228.425 -6.61668 2.17183 0
M  V30 2404 H 226.052 -7.11427 2.6791 0
M  V30 2405 N 227.627 0.131896 -1.57047 0
M  V30 2406 C 228.874 0.841932 -1.84168 0
M  V30 2407 C 229.202 1.8048 -0.725066 0
M  V30 2408 O 228.457 1.93618 0.284692 0
M  V30 2409 C 228.756 1.63703 -3.17704 0
M  V30 2410 C 228.422 0.81961 -4.43388 0
M  V30 2411 C 227.084 0.594148 -4.77518 0
M  V30 2412 C 229.436 0.248977 -5.20605 0
M  V30 2413 C 226.764 -0.212409 -5.86315 0
M  V30 2414 C 229.116 -0.544701 -6.30251 0
M  V30 2415 C 227.78 -0.780599 -6.6292 0
M  V30 2416 H 227.05 0.308085 -0.673917 0
M  V30 2417 H 229.697 0.104867 -1.91213 0
M  V30 2418 H 228.002 2.44464 -3.06177 0
M  V30 2419 H 229.699 2.19015 -3.35907 0
M  V30 2420 H 226.289 1.00542 -4.16641 0
M  V30 2421 H 230.473 0.410408 -4.946 0
M  V30 2422 H 225.729 -0.404524 -6.1006 0
M  V30 2423 H 229.903 -0.993922 -6.89271 0
M  V30 2424 H 227.53 -1.40742 -7.47058 0
M  V30 2425 N 229.106 1.52395 0.401703 0
M  V30 2426 C 230.336 1.70429 1.1678 0
M  V30 2427 C 230.744 0.416702 1.84554 0
M  V30 2428 O 230.087 -0.617697 1.73003 0
M  V30 2429 C 230.149 2.78919 2.26814 0
M  V30 2430 C 229.813 4.20437 1.79113 0
M  V30 2431 C 230.81 5.04028 1.27482 0
M  V30 2432 C 228.495 4.66704 1.85722 0
M  V30 2433 C 230.489 6.31961 0.830913 0
M  V30 2434 C 228.176 5.94625 1.40942 0
M  V30 2435 C 229.174 6.77082 0.897128 0
M  V30 2436 O 228.862 8.02607 0.455822 0
M  V30 2437 H 228.594 0.574272 0.356634 0
M  V30 2438 H 231.148 1.99767 0.477724 0
M  V30 2439 H 229.378 2.44973 2.99207 0
M  V30 2440 H 231.067 2.8548 2.88541 0
M  V30 2441 H 231.833 4.69471 1.21744 0
M  V30 2442 H 227.712 4.0262 2.24539 0
M  V30 2443 H 231.256 6.96271 0.430368 0
M  V30 2444 H 227.153 6.28688 1.46362 0
M  V30 2445 H 227.921 8.16453 0.578457 0
M  V30 2446 N 230.584 -0.659388 1.43143 0
M  V30 2447 C 231.532 -1.79374 1.4808 0
M  V30 2448 C 232.526 -1.65639 0.354988 0
M  V30 2449 O 233.732 -1.7206 0.528704 0
M  V30 2450 H 230.107 -0.591705 0.4641 0
M  V30 2451 H 232.078 -1.72329 2.43609 0
M  V30 2452 C 230.827 -3.17606 1.41499 0
M  V30 2453 H 230.15 -3.28809 2.27431 0
M  V30 2454 H 231.59 -3.96951 1.49015 0
M  V30 2455 C 230.049 -3.36642 0.131765 0
M  V30 2456 O 230.579 -3.93461 -0.809386 0
M  V30 2457 N 228.785 -2.90567 0.0439396 0
M  V30 2458 H 228.332 -2.44513 0.810619 0
M  V30 2459 H 228.29 -3.03681 -0.813969 0
M  V30 2460 N 232.062 -1.29571 -0.897171 0
M  V30 2461 C 233.308 -1.17863 -1.65034 0
M  V30 2462 C 233.641 0.268729 -1.92332 0
M  V30 2463 O 232.916 1.19378 -1.53555 0
M  V30 2464 C 233.199 -1.995 -2.99786 0
M  V30 2465 C 233.052 -3.5239 -2.79538 0
M  V30 2466 C 234.371 -1.82335 -4.00552 0
M  V30 2467 H 231.49 -0.429528 -0.598895 0
M  V30 2468 H 234.132 -1.59072 -1.03905 0
M  V30 2469 H 232.282 -1.64485 -3.51962 0
M  V30 2470 H 233.954 -3.97401 -2.34244 0
M  V30 2471 H 232.197 -3.77187 -2.14273 0
M  V30 2472 H 232.868 -4.04787 -3.75302 0
M  V30 2473 H 235.344 -2.12924 -3.57495 0
M  V30 2474 H 234.22 -2.41801 -4.92771 0
M  V30 2475 H 234.481 -0.779209 -4.35179 0
M  V30 2476 N 233.54 1.10788 -1.12088 0
M  V30 2477 C 234.789 1.82036 -0.868659 0
M  V30 2478 C 235.102 1.85929 0.607426 0
M  V30 2479 O 236.308 2.53346 0.97613 0
M  V30 2480 C 234.764 3.26951 -1.50435 0
M  V30 2481 C 234.372 3.31367 -3.01496 0
M  V30 2482 C 236.116 4.03053 -1.33225 0
M  V30 2483 C 234.023 4.7072 -3.58017 0
M  V30 2484 H 232.953 0.682108 -0.321318 0
M  V30 2485 H 235.604 1.24618 -1.34694 0
M  V30 2486 H 233.986 3.84343 -0.953735 0
M  V30 2487 H 235.16 2.83819 -3.6302 0
M  V30 2488 H 233.475 2.6875 -3.18061 0
M  V30 2489 H 236.072 5.05981 -1.72878 0
M  V30 2490 H 236.415 4.15387 -0.275529 0
M  V30 2491 H 236.948 3.52066 -1.85188 0
M  V30 2492 H 233.687 4.63585 -4.63432 0
M  V30 2493 H 233.207 5.1865 -3.01268 0
M  V30 2494 H 234.886 5.39685 -3.56859 0
M  V30 2495 N 235.018 0.912232 1.28515 0
M  V30 2496 C 236.267 0.540504 1.94323 0
M  V30 2497 C 236.58 -0.920044 1.72611 0
M  V30 2498 O 237.786 -1.39986 2.32629 0
M  V30 2499 C 236.242 0.915803 3.48053 0
M  V30 2500 C 235.85 2.39598 3.78546 0
M  V30 2501 C 237.594 0.614588 4.20027 0
M  V30 2502 C 235.501 2.71148 5.25578 0
M  V30 2503 H 234.431 0.198418 0.727424 0
M  V30 2504 H 237.082 1.11094 1.46049 0
M  V30 2505 H 235.464 0.274168 3.9505 0
M  V30 2506 H 236.638 3.08422 3.42364 0
M  V30 2507 H 234.953 2.66749 3.1974 0
M  V30 2508 H 237.55 0.827002 5.28266 0
M  V30 2509 H 237.893 -0.447531 4.13887 0
M  V30 2510 H 238.426 1.21462 3.78803 0
M  V30 2511 H 235.165 3.76207 5.36794 0
M  V30 2512 H 234.685 2.0696 5.62963 0
M  V30 2513 H 236.364 2.58072 5.93302 0
M  V30 2514 N 236.496 -1.42363 0.676048 0
M  V30 2515 C 237.459 -2.29199 0.00766941 0
M  V30 2516 C 238.459 -1.43389 -0.727745 0
M  V30 2517 O 239.649 -1.64764 -0.56556 0
M  V30 2518 C 236.781 -3.2591 -0.999785 0
M  V30 2519 H 237.974 -2.89794 0.771988 0
M  V30 2520 H 235.527 -1.50024 0.438468 0
M  V30 2521 H 236.262 -2.70256 -1.79255 0
M  V30 2522 H 236.047 -3.89202 -0.475829 0
M  V30 2523 H 237.537 -3.91028 -1.46583 0
M  V30 2524 N 237.974 -0.419461 -1.51915 0
M  V30 2525 C 239.22 0.145505 -2.02879 0
M  V30 2526 C 239.575 1.41926 -1.29903 0
M  V30 2527 O 238.868 1.87383 -0.399782 0
M  V30 2528 C 239.062 0.437067 -3.54717 0
M  V30 2529 C 238.891 -0.806877 -4.42402 0
M  V30 2530 C 237.661 -1.33514 -4.87342 0
M  V30 2531 C 239.859 -1.68796 -4.85811 0
M  V30 2532 N 237.841 -2.53349 -5.59185 0
M  V30 2533 C 239.212 -2.73247 -5.56539 0
M  V30 2534 C 241.267 -1.70449 -4.67816 0
M  V30 2535 C 239.97 -3.79276 -6.11181 0
M  V30 2536 C 241.996 -2.75403 -5.23361 0
M  V30 2537 C 241.358 -3.78575 -5.9402 0
M  V30 2538 H 237.457 0.0145424 -0.781865 0
M  V30 2539 H 240.041 -0.576126 -1.85981 0
M  V30 2540 H 238.212 1.12774 -3.71667 0
M  V30 2541 H 239.944 0.99182 -3.92358 0
M  V30 2542 H 236.699 -0.891657 -4.65131 0
M  V30 2543 H 237.123 -3.14066 -5.99743 0
M  V30 2544 H 241.765 -0.920209 -4.12664 0
M  V30 2545 H 239.483 -4.58554 -6.65397 0
M  V30 2546 H 243.069 -2.77603 -5.113 0
M  V30 2547 H 241.949 -4.58453 -6.36231 0
M  V30 2548 N 239.452 1.56882 -0.150215 0
M  V30 2549 C 240.415 2.1573 0.774157 0
M  V30 2550 C 241.415 1.0999 1.17298 0
M  V30 2551 O 242.605 1.35613 1.09338 0
M  V30 2552 C 239.737 2.72302 2.05096 0
M  V30 2553 H 240.93 2.98752 0.262201 0
M  V30 2554 H 238.483 1.55985 0.099248 0
M  V30 2555 H 239.218 1.92956 2.6065 0
M  V30 2556 H 239.003 3.49665 1.77416 0
M  V30 2557 H 240.493 3.17632 2.71109 0
M  V30 2558 N 240.93 -0.123565 1.57115 0
M  V30 2559 C 241.86 -1.15309 2.03042 0
M  V30 2560 C 242.841 -1.43454 0.914061 0
M  V30 2561 O 244.026 -1.53973 1.18347 0
M  V30 2562 C 241.156 -2.48043 2.43089 0
M  V30 2563 C 240.11 -2.3437 3.58127 0
M  V30 2564 C 239.436 -3.72026 3.84059 0
M  V30 2565 C 240.736 -1.80804 4.90007 0
M  V30 2566 H 242.43 -0.771102 2.893 0
M  V30 2567 H 239.976 -0.369479 1.39179 0
M  V30 2568 H 241.929 -3.20311 2.73823 0
M  V30 2569 H 240.653 -2.88122 1.53796 0
M  V30 2570 H 239.312 -1.64551 3.27595 0
M  V30 2571 H 238.96 -4.09582 2.91979 0
M  V30 2572 H 238.66 -3.63732 4.6149 0
M  V30 2573 H 240.184 -4.45806 4.1724 0
M  V30 2574 H 241.598 -2.42886 5.19307 0
M  V30 2575 H 239.995 -1.83343 5.71407 0
M  V30 2576 H 241.065 -0.76528 4.78823 0
M  V30 2577 N 242.408 -1.52605 -0.393616 0
M  V30 2578 C 243.358 -1.73436 -1.48 0
M  V30 2579 C 244.342 -0.588386 -1.49756 0
M  V30 2580 O 245.534 -0.846047 -1.5547 0
M  V30 2581 C 242.663 -1.90247 -2.85764 0
M  V30 2582 C 241.749 -3.10763 -2.88595 0
M  V30 2583 N 242.14 -4.33196 -2.61103 0
M  V30 2584 C 240.438 -3.10914 -3.19763 0
M  V30 2585 C 241.139 -5.1477 -2.70899 0
M  V30 2586 N 240.115 -4.50356 -3.04435 0
M  V30 2587 H 243.917 -2.65727 -1.25563 0
M  V30 2588 H 241.431 -1.5085 -0.601513 0
M  V30 2589 H 243.428 -2.03291 -3.63976 0
M  V30 2590 H 242.088 -0.991663 -3.09186 0
M  V30 2591 H 243.099 -4.61408 -2.35209 0
M  V30 2592 H 239.776 -2.29626 -3.4868 0
M  V30 2593 H 241.166 -6.22355 -2.53227 0
M  V30 2594 N 243.887 0.651787 -1.4349 0
M  V30 2595 C 245.117 1.43728 -1.48411 0
M  V30 2596 C 245.525 1.8893 -0.10103 0
M  V30 2597 O 244.868 1.60182 0.899307 0
M  V30 2598 C 244.93 2.70411 -2.36893 0
M  V30 2599 C 244.594 2.4714 -3.8441 0
M  V30 2600 C 245.591 2.10271 -4.75481 0
M  V30 2601 C 243.276 2.6142 -4.28912 0
M  V30 2602 C 245.27 1.87982 -6.0905 0
M  V30 2603 C 242.957 2.38746 -5.62533 0
M  V30 2604 C 243.955 2.02083 -6.5242 0
M  V30 2605 O 243.643 1.79647 -7.8357 0
M  V30 2606 H 243.375 0.447962 -0.506267 0
M  V30 2607 H 245.929 0.80624 -1.88915 0
M  V30 2608 H 244.159 3.36079 -1.91278 0
M  V30 2609 H 245.848 3.32364 -2.33 0
M  V30 2610 H 246.614 1.98814 -4.42378 0
M  V30 2611 H 242.493 2.88931 -3.59222 0
M  V30 2612 H 246.037 1.5929 -6.7917 0
M  V30 2613 H 241.934 2.49806 -5.95203 0
M  V30 2614 H 242.702 1.9406 -7.95162 0
M  V30 2615 N 245.365 1.30045 0.890287 0
M  V30 2616 C 246.295 1.18541 2.01172 0
M  V30 2617 C 247.276 0.0773356 1.69924 0
M  V30 2618 O 248.461 0.25845 1.92473 0
M  V30 2619 C 245.591 0.870941 3.36202 0
M  V30 2620 C 244.545 1.93637 3.81692 0
M  V30 2621 C 243.871 1.475 5.13953 0
M  V30 2622 C 245.171 3.34666 4.00994 0
M  V30 2623 H 246.865 2.12359 2.11054 0
M  V30 2624 H 244.411 1.02238 1.01407 0
M  V30 2625 H 246.364 0.777141 4.14172 0
M  V30 2626 H 245.088 -0.102926 3.26438 0
M  V30 2627 H 243.747 2.01972 3.05946 0
M  V30 2628 H 243.395 0.489551 5.00612 0
M  V30 2629 H 243.095 2.1876 5.4536 0
M  V30 2630 H 244.619 1.39489 5.94454 0
M  V30 2631 H 246.033 3.2912 4.69417 0
M  V30 2632 H 244.43 4.03966 4.43769 0
M  V30 2633 H 245.5 3.76949 3.05021 0
M  V30 2634 N 246.843 -1.10192 1.12674 0
M  V30 2635 C 248.09 -1.82205 0.883606 0
M  V30 2636 C 248.418 -1.8532 -0.590492 0
M  V30 2637 O 247.673 -1.31137 -1.45264 0
M  V30 2638 C 247.972 -3.28552 1.4067 0
M  V30 2639 C 247.638 -3.45582 2.89627 0
M  V30 2640 C 246.3 -3.49937 3.30299 0
M  V30 2641 C 248.652 -3.50768 3.85501 0
M  V30 2642 C 245.98 -3.57049 4.65546 0
M  V30 2643 C 248.332 -3.59414 5.20581 0
M  V30 2644 C 246.996 -3.62034 5.60792 0
M  V30 2645 H 246.266 -0.666735 0.323334 0
M  V30 2646 H 248.913 -1.29868 1.40736 0
M  V30 2647 H 247.218 -3.83473 0.80347 0
M  V30 2648 H 248.915 -3.82788 1.19475 0
M  V30 2649 H 245.505 -3.42871 2.57172 0
M  V30 2650 H 249.689 -3.46651 3.55171 0
M  V30 2651 H 244.945 -3.57361 4.96088 0
M  V30 2652 H 249.119 -3.62371 5.94693 0
M  V30 2653 H 246.746 -3.67298 6.6558 0
M  V30 2654 N 248.321 -0.919034 -1.28029 0
M  V30 2655 C 249.546 -0.570357 -1.99403 0
M  V30 2656 C 249.971 0.842486 -1.68178 0
M  V30 2657 O 249.329 1.56391 -0.917141 0
M  V30 2658 C 249.377 -0.792541 -3.51783 0
M  V30 2659 O 248.481 0.145988 -4.12142 0
M  V30 2660 H 247.822 -0.220555 -0.6263 0
M  V30 2661 H 250.352 -1.23592 -1.63053 0
M  V30 2662 H 250.362 -0.704708 -4.01868 0
M  V30 2663 H 249.037 -1.82247 -3.73844 0
M  V30 2664 H 247.614 0.00897528 -3.72899 0
M  V30 2665 N 249.799 1.42003 -0.683588 0
M  V30 2666 C 251.024 2.06265 -0.216647 0
M  V30 2667 C 251.449 1.51059 1.12083 0
M  V30 2668 O 250.807 0.632638 1.69904 0
M  V30 2669 C 250.855 3.60191 -0.171759 0
M  V30 2670 O 249.959 4.03396 0.857069 0
M  V30 2671 H 249.3 0.65502 -0.108834 0
M  V30 2672 H 251.83 1.81982 -0.935077 0
M  V30 2673 H 251.84 4.08 0.0014303 0
M  V30 2674 H 250.515 3.99743 -1.14796 0
M  V30 2675 H 249.092 3.67117 0.654208 0
M  V30 2676 N 251.277 0.427512 1.51691 0
M  V30 2677 C 252.524 -0.142229 2.02 0
M  V30 2678 C 252.852 -1.43566 1.31221 0
M  V30 2679 O 252.107 -1.91298 0.412744 0
M  V30 2680 C 252.406 -0.418249 3.54944 0
M  V30 2681 C 252.072 0.788187 4.43958 0
M  V30 2682 C 250.734 1.11906 4.68007 0
M  V30 2683 C 253.086 1.59347 4.96244 0
M  V30 2684 C 250.414 2.25608 5.41588 0
M  V30 2685 C 252.766 2.7214 5.71072 0
M  V30 2686 C 251.43 3.05692 5.93387 0
M  V30 2687 H 250.7 -0.0520451 0.73917 0
M  V30 2688 H 253.347 0.572697 1.82736 0
M  V30 2689 H 251.652 -1.21496 3.72486 0
M  V30 2690 H 253.349 -0.872339 3.91397 0
M  V30 2691 H 249.939 0.520344 4.2543 0
M  V30 2692 H 254.123 1.35106 4.77556 0
M  V30 2693 H 249.379 2.51929 5.57083 0
M  V30 2694 H 253.553 3.34914 6.10578 0
M  V30 2695 H 251.18 3.9391 6.50184 0
M  V30 2696 N 252.755 -1.56801 0.158532 0
M  V30 2697 C 253.983 -2.00859 -0.496303 0
M  V30 2698 C 254.398 -1.03871 -1.57659 0
M  V30 2699 O 253.755 -0.0375165 -1.82461 0
M  V30 2700 C 253.806 -3.4479 -1.08638 0
M  V30 2701 O 253.527 -4.38072 -0.0492322 0
M  V30 2702 C 255.028 -4.04185 -1.8207 0
M  V30 2703 H 252.248 -0.65864 -0.128199 0
M  V30 2704 H 254.792 -2.02885 0.256506 0
M  V30 2705 H 252.947 -3.43579 -1.78975 0
M  V30 2706 H 253.361 -5.2227 -0.483102 0
M  V30 2707 H 254.835 -5.06857 -2.18633 0
M  V30 2708 H 255.312 -3.45549 -2.71095 0
M  V30 2709 H 255.918 -4.0906 -1.16405 0
M  V30 2710 N 254.233 0.115231 -1.57178 0
M  V30 2711 C 255.461 0.836437 -1.89239 0
M  V30 2712 C 255.876 1.73256 -0.750175 0
M  V30 2713 O 255.233 1.80357 0.278832 0
M  V30 2714 C 255.284 1.66671 -3.20785 0
M  V30 2715 O 255.005 0.806652 -4.3061 0
M  V30 2716 C 256.506 2.49274 -3.66575 0
M  V30 2717 H 253.726 0.240253 -0.626514 0
M  V30 2718 H 256.27 0.0984932 -2.04263 0
M  V30 2719 H 254.425 2.35737 -3.0742 0
M  V30 2720 H 254.839 1.37969 -5.06028 0
M  V30 2721 H 256.313 3.03055 -4.6137 0
M  V30 2722 H 256.79 3.26807 -2.93417 0
M  V30 2723 H 257.396 1.85443 -3.82741 0
M  V30 2724 N 255.711 1.52812 0.385517 0
M  V30 2725 C 256.621 1.80766 1.49535 0
M  V30 2726 C 257.637 0.694651 1.59532 0
M  V30 2727 O 258.813 0.982611 1.75803 0
M  V30 2728 C 255.878 1.97381 2.85029 0
M  V30 2729 C 254.939 3.21295 2.84724 0
M  V30 2730 C 254.172 3.37108 4.13756 0
M  V30 2731 O 254.395 2.5765 5.08893 0
M  V30 2732 O 253.329 4.30378 4.20783 0
M  V30 2733 H 257.155 2.75015 1.28842 0
M  V30 2734 H 254.74 1.37946 0.573697 0
M  V30 2735 H 256.622 2.09996 3.65349 0
M  V30 2736 H 255.297 1.06322 3.05741 0
M  V30 2737 H 254.204 3.1412 2.03174 0
M  V30 2738 H 255.537 4.12212 2.68965 0
M  V30 2739 N 257.189 -0.644168 1.43834 0
M  V30 2740 C 258.119 -1.76814 1.52509 0
M  V30 2741 C 259.1 -1.65823 0.379052 0
M  V30 2742 O 260.285 -1.84781 0.597466 0
M  V30 2743 C 257.415 -3.15288 1.4564 0
M  V30 2744 C 256.369 -3.41053 2.58586 0
M  V30 2745 C 255.695 -4.79421 2.36769 0
M  V30 2746 C 256.995 -3.34902 4.00797 0
M  V30 2747 H 258.689 -1.69812 2.46586 0
M  V30 2748 H 256.235 -0.815542 1.1868 0
M  V30 2749 H 258.188 -3.93681 1.50311 0
M  V30 2750 H 256.912 -3.23043 0.480725 0
M  V30 2751 H 255.571 -2.65035 2.53282 0
M  V30 2752 H 255.219 -4.83863 1.37424 0
M  V30 2753 H 254.919 -4.9762 3.12487 0
M  V30 2754 H 256.443 -5.6006 2.43238 0
M  V30 2755 H 257.857 -4.03218 4.07539 0
M  V30 2756 H 256.254 -3.64637 4.76613 0
M  V30 2757 H 257.324 -2.32928 4.25291 0
M  V30 2758 N 258.668 -1.30515 -0.883378 0
M  V30 2759 C 260.079 -1.17509 -1.45081 0
M  V30 2760 C 260.43 0.223605 -1.94922 0
M  V30 2761 O 259.555 1.12041 -1.85137 0
M  V30 2762 C 260.15 -2.12715 -2.63701 0
M  V30 2763 C 258.709 -2.03682 -3.16529 0
M  V30 2764 C 257.856 -2.02706 -1.89224 0
M  V30 2765 H 260.807 -1.42762 -0.693165 0
M  V30 2766 H 260.828 -1.70891 -3.39965 0
M  V30 2767 H 260.34 -3.14505 -2.27395 0
M  V30 2768 H 258.441 -1.05039 -3.57488 0
M  V30 2769 H 258.554 -2.92146 -3.7972 0
M  V30 2770 H 256.918 -1.4753 -2.07622 0
M  V30 2771 H 257.701 -3.06229 -1.55174 0
M  V30 2772 N 260.146 1.09593 -1.13257 0
M  V30 2773 C 261.392 1.82181 -0.904521 0
M  V30 2774 C 261.747 1.83967 0.563358 0
M  V30 2775 O 261.04 1.29566 1.41149 0
M  V30 2776 C 261.234 3.27802 -1.42411 0
M  V30 2777 C 261.063 3.40201 -2.94097 0
M  V30 2778 C 259.833 3.52104 -3.62424 0
M  V30 2779 C 262.031 3.32875 -3.92044 0
M  V30 2780 N 260.013 3.53169 -5.0214 0
M  V30 2781 C 261.384 3.40789 -5.17941 0
M  V30 2782 C 263.439 3.16531 -3.84334 0
M  V30 2783 C 262.142 3.34042 -6.37031 0
M  V30 2784 C 264.168 3.11109 -5.02956 0
M  V30 2785 C 263.53 3.19614 -6.27715 0
M  V30 2786 H 259.629 0.681015 -0.384373 0
M  V30 2787 H 262.213 1.3099 -1.44048 0
M  V30 2788 H 260.384 3.77466 -0.915086 0
M  V30 2789 H 262.116 3.88393 -1.13722 0
M  V30 2790 H 258.871 3.5548 -3.12939 0
M  V30 2791 H 259.295 3.57291 -5.75041 0
M  V30 2792 H 263.937 3.08827 -2.88766 0
M  V30 2793 H 261.655 3.4051 -7.32857 0
M  V30 2794 H 265.241 2.99601 -4.98729 0
M  V30 2795 H 264.121 3.15432 -7.17964 0
M  V30 2796 N 261.624 0.925811 1.2754 0
M  V30 2797 C 262.873 0.561084 1.93739 0
M  V30 2798 C 263.186 -0.901685 1.73577 0
M  V30 2799 O 264.392 -1.37511 2.34101 0
M  V30 2800 C 262.848 0.952668 3.47062 0
M  V30 2801 C 262.456 2.43599 3.75983 0
M  V30 2802 C 264.2 0.659103 4.19352 0
M  V30 2803 C 262.107 2.76707 5.22673 0
M  V30 2804 H 261.037 0.206122 0.725279 0
M  V30 2805 H 263.688 1.12637 1.44863 0
M  V30 2806 H 262.07 0.316053 3.94737 0
M  V30 2807 H 263.244 3.12035 3.39073 0
M  V30 2808 H 261.559 2.70125 3.16893 0
M  V30 2809 H 264.156 0.882985 5.27359 0
M  V30 2810 H 264.499 -0.403607 4.14339 0
M  V30 2811 H 265.032 1.25473 3.77494 0
M  V30 2812 H 261.771 3.8188 5.32774 0
M  V30 2813 H 261.291 2.12919 5.60737 0
M  V30 2814 H 262.97 2.6435 5.90532 0
M  V30 2815 N 263.102 -1.41638 0.69111 0
M  V30 2816 C 264.052 -2.28 -0.000107832 0
M  V30 2817 C 265.036 -1.41964 -0.757304 0
M  V30 2818 O 266.228 -1.65274 -0.633532 0
M  V30 2819 C 263.357 -3.30209 -0.938983 0
M  V30 2820 C 262.443 -4.23725 -0.17827 0
M  V30 2821 N 262.834 -4.99017 0.825563 0
M  V30 2822 C 261.132 -4.44071 -0.414392 0
M  V30 2823 C 261.833 -5.67431 1.28052 0
M  V30 2824 N 260.809 -5.40197 0.607304 0
M  V30 2825 H 264.611 -2.83644 0.769617 0
M  V30 2826 H 262.125 -1.53797 0.521562 0
M  V30 2827 H 264.122 -3.90898 -1.44929 0
M  V30 2828 H 262.782 -2.76126 -1.70836 0
M  V30 2829 H 263.793 -5.03671 1.20566 0
M  V30 2830 H 260.47 -4.01004 -1.162 0
M  V30 2831 H 261.86 -6.37801 2.11327 0
M  V30 2832 N 264.58 -0.43555 -1.51462 0
M  V30 2833 C 265.82 0.130708 -2.03982 0
M  V30 2834 C 266.184 1.40117 -1.31268 0
M  V30 2835 O 267.385 2.04755 -1.74152 0
M  V30 2836 C 265.656 0.346102 -3.5572 0
M  V30 2837 S 267.215 0.876022 -4.29967 0
M  V30 2838 H 264.033 0.0326881 -0.710248 0
M  V30 2839 H 266.635 -0.594544 -1.8624 0
M  V30 2840 H 265.339 -0.584911 -4.0621 0
M  V30 2841 H 264.87 1.09849 -3.77752 0
M  V30 2842 H 266.885 2.15379 -4.47019 0
M  V30 2843 N 266.058 1.56714 -0.166846 0
M  V30 2844 C 267.006 2.19056 0.782123 0
M  V30 2845 C 268 1.15328 1.24079 0
M  V30 2846 O 269.206 1.33537 1.20697 0
M  V30 2847 H 265.581 0.70167 0.270486 0
M  V30 2848 H 267.552 2.97494 0.232322 0
M  V30 2849 C 266.301 2.84206 2.00306 0
M  V30 2850 H 265.624 3.63748 1.65914 0
M  V30 2851 H 267.064 3.31302 2.64604 0
M  V30 2852 C 265.523 1.83744 2.82382 0
M  V30 2853 O 266.053 1.32014 3.79388 0
M  V30 2854 N 264.259 1.52601 2.47308 0
M  V30 2855 H 263.806 1.9486 1.68485 0
M  V30 2856 H 263.764 0.856351 3.02513 0
M  V30 2857 N 267.536 -0.106894 1.57237 0
M  V30 2858 C 268.484 -1.14944 2.02215 0
M  V30 2859 C 269.478 -1.42167 0.92114 0
M  V30 2860 O 270.684 -1.41987 1.10634 0
M  V30 2861 H 267.059 -0.387841 0.64427 0
M  V30 2862 H 269.03 -0.743683 2.88984 0
M  V30 2863 C 267.779 -2.4647 2.4525 0
M  V30 2864 H 267.102 -2.26363 3.29545 0
M  V30 2865 H 268.542 -3.17948 2.80508 0
M  V30 2866 C 267.001 -3.09921 1.321 0
M  V30 2867 O 267.531 -3.9651 0.643622 0
M  V30 2868 N 265.737 -2.69986 1.07497 0
M  V30 2869 H 265.284 -1.99667 1.62761 0
M  V30 2870 H 265.242 -3.12769 0.319876 0
M  V30 2871 N 269.014 -1.53014 -0.377408 0
M  V30 2872 C 270.239 -1.72818 -1.14668 0
M  V30 2873 C 270.664 -0.450725 -1.8262 0
M  V30 2874 O 270.022 0.59439 -1.7128 0
M  V30 2875 C 270.07 -2.88627 -2.16164 0
M  V30 2876 O 269.174 -2.56409 -3.22998 0
M  V30 2877 H 268.515 -0.574301 -0.333278 0
M  V30 2878 H 271.045 -1.99853 -0.438152 0
M  V30 2879 H 271.055 -3.14455 -2.59966 0
M  V30 2880 H 269.73 -3.81294 -1.66095 0
M  V30 2881 H 268.307 -2.4136 -2.84253 0
M  V30 2882 N 270.492 0.636531 -1.44174 0
M  V30 2883 C 271.738 1.39649 -1.47884 0
M  V30 2884 C 272.093 1.92098 -0.107747 0
M  V30 2885 O 271.386 1.70391 0.876208 0
M  V30 2886 C 271.58 2.58309 -2.47005 0
M  V30 2887 C 271.409 2.17476 -3.93617 0
M  V30 2888 C 270.179 2.0501 -4.61843 0
M  V30 2889 C 272.377 1.76722 -4.82984 0
M  V30 2890 N 270.359 1.57683 -5.93304 0
M  V30 2891 C 271.73 1.40601 -6.03847 0
M  V30 2892 C 273.785 1.64054 -4.70096 0
M  V30 2893 C 272.488 0.930787 -7.13252 0
M  V30 2894 C 274.514 1.17937 -5.79521 0
M  V30 2895 C 273.876 0.827625 -6.99521 0
M  V30 2896 H 269.975 0.506027 -0.596205 0
M  V30 2897 H 272.559 0.730791 -1.80465 0
M  V30 2898 H 270.73 3.22514 -2.16423 0
M  V30 2899 H 272.462 3.25083 -2.41045 0
M  V30 2900 H 269.217 2.25294 -4.16581 0
M  V30 2901 H 269.641 1.36334 -6.63131 0
M  V30 2902 H 274.283 1.89882 -3.77762 0
M  V30 2903 H 272.001 0.660012 -8.054 0
M  V30 2904 H 275.587 1.08601 -5.71574 0
M  V30 2905 H 274.467 0.476231 -7.82753 0
M  V30 2906 N 271.97 1.30982 0.876444 0
M  V30 2907 C 272.918 1.18006 2.00443 0
M  V30 2908 C 273.912 0.0898871 1.69161 0
M  V30 2909 O 275.118 0.251333 1.78237 0
M  V30 2910 H 271.493 0.365196 0.65737 0
M  V30 2911 H 273.464 2.13453 2.0852 0
M  V30 2912 C 272.213 0.897521 3.35916 0
M  V30 2913 H 271.536 1.7285 3.60504 0
M  V30 2914 H 272.976 0.846874 4.15456 0
M  V30 2915 C 271.435 -0.399674 3.34521 0
M  V30 2916 O 271.965 -1.41852 3.7582 0
M  V30 2917 N 270.171 -0.413893 2.87637 0
M  V30 2918 H 269.718 0.41571 2.54224 0
M  V30 2919 H 269.676 -1.28175 2.87086 0
M  V30 2920 N 273.449 -1.08991 1.13837 0
M  V30 2921 C 274.674 -1.85551 0.926585 0
M  V30 2922 C 275.099 -1.80782 -0.519566 0
M  V30 2923 O 274.457 -1.18855 -1.36906 0
M  V30 2924 C 274.505 -3.31266 1.42462 0
M  V30 2925 O 273.609 -4.07822 0.612789 0
M  V30 2926 H 272.95 -0.575192 0.331738 0
M  V30 2927 H 275.48 -1.37604 1.51414 0
M  V30 2928 H 275.49 -3.82112 1.43019 0
M  V30 2929 H 274.165 -3.34052 2.47754 0
M  V30 2930 H 272.742 -3.66731 0.675463 0
M  V30 2931 N 274.927 -0.932562 -1.27047 0
M  V30 2932 C 276.338 -0.619451 -1.76124 0
M  V30 2933 C 276.689 0.865397 -1.76083 0
M  V30 2934 O 275.814 1.67722 -1.36742 0
M  V30 2935 C 276.409 -1.11771 -3.19832 0
M  V30 2936 C 274.968 -0.855174 -3.66557 0
M  V30 2937 C 274.115 -1.27362 -2.46321 0
M  V30 2938 H 277.066 -1.11181 -1.13245 0
M  V30 2939 H 277.087 -0.46759 -3.77616 0
M  V30 2940 H 276.599 -2.19842 -3.1983 0
M  V30 2941 H 274.7 0.211524 -3.71999 0
M  V30 2942 H 274.813 -1.47613 -4.55793 0
M  V30 2943 H 273.177 -0.692119 -2.45116 0
M  V30 2944 H 273.96 -2.36307 -2.49025 0
M  V30 2945 N 276.405 1.4127 -0.698611 0
M  V30 2946 C 277.353 2.32588 -0.023855 0
M  V30 2947 C 278.347 1.51128 0.765292 0
M  V30 2948 O 279.553 1.67043 0.670571 0
M  V30 2949 H 275.928 0.751918 0.0110871 0
M  V30 2950 H 277.899 2.87167 -0.811031 0
M  V30 2951 C 276.648 3.35947 0.896369 0
M  V30 2952 H 275.971 3.98684 0.298548 0
M  V30 2953 H 277.411 4.02376 1.33676 0
M  V30 2954 C 275.87 2.70076 2.01396 0
M  V30 2955 O 276.4 2.55093 3.10307 0
M  V30 2956 N 274.606 2.28724 1.79259 0
M  V30 2957 H 274.153 2.4111 0.906841 0
M  V30 2958 H 274.111 1.84986 2.54219 0
M  V30 2959 N 277.883 0.443576 1.51229 0
M  V30 2960 C 279.123 -0.119889 2.04048 0
M  V30 2961 C 279.487 -1.39418 1.32009 0
M  V30 2962 O 280.688 -2.03829 1.75235 0
M  V30 2963 C 278.959 -0.327233 3.55899 0
M  V30 2964 S 280.518 -0.853208 4.30425 0
M  V30 2965 H 277.336 -0.028921 0.710412 0
M  V30 2966 H 279.938 0.604413 1.85922 0
M  V30 2967 H 278.642 0.606445 4.05895 0
M  V30 2968 H 278.173 -1.07844 3.7833 0
M  V30 2969 H 280.188 -2.13005 4.48155 0
M  V30 2970 N 279.361 -1.56624 0.175154 0
M  V30 2971 C 280.586 -2.01813 -0.478137 0
M  V30 2972 C 281.011 -1.05457 -1.55757 0
M  V30 2973 O 280.369 -0.0347439 -1.81267 0
M  V30 2974 C 280.417 -3.45581 -1.02987 0
M  V30 2975 O 279.521 -3.52305 -2.14371 0
M  V30 2976 H 278.862 -0.65413 -0.114059 0
M  V30 2977 H 281.392 -2.02673 0.280173 0
M  V30 2978 H 281.402 -3.84965 -1.35151 0
M  V30 2979 H 280.077 -4.1521 -0.239556 0
M  V30 2980 H 278.654 -3.24783 -1.83222 0
M  V30 2981 N 280.839 0.0985539 -1.57292 0
M  V30 2982 C 282.116 0.834155 -1.76921 0
M  V30 2983 C 282.496 1.97101 -0.755928 0
M  V30 2984 O 281.844 2.27474 0.216245 0
M  V30 2985 C 282.054 1.33194 -3.22584 0
M  V30 2986 C 283.402 1.77611 -3.85668 0
M  V30 2987 O 284.426 1.42825 -3.26312 0
M  V30 2988 O 283.285 2.4192 -4.90038 0
M  V30 2989 H 280.379 0.397628 -0.725135 0
M  V30 2990 H 282.925 0.0807044 -1.69508 0
M  V30 2991 H 281.697 0.517248 -3.87866 0
M  V30 2992 H 281.32 2.1475 -3.34616 0
M  V30 2993 N 282.317 1.53212 0.369288 0
M  V30 2994 C 283.28 1.7872 1.43498 0
M  V30 2995 C 284.28 0.657554 1.46741 0
M  V30 2996 O 285.47 0.925736 1.47566 0
M  V30 2997 C 282.602 1.90591 2.82645 0
M  V30 2998 H 283.795 2.73894 1.22156 0
M  V30 2999 H 281.348 1.44233 0.602203 0
M  V30 3000 H 282.083 0.974709 3.09306 0
M  V30 3001 H 281.868 2.72751 2.8169 0
M  V30 3002 H 283.358 2.11931 3.59826 0
M  V30 3003 N 283.795 -0.628877 1.44509 0
M  V30 3004 C 284.745 -1.7345 1.47983 0
M  V30 3005 C 285.729 -1.5715 0.345373 0
M  V30 3006 O 286.921 -1.66848 0.590829 0
M  V30 3007 C 284.05 -3.12143 1.42904 0
M  V30 3008 C 283.136 -3.33906 2.61472 0
M  V30 3009 N 283.527 -3.26024 3.86706 0
M  V30 3010 C 281.825 -3.64709 2.56716 0
M  V30 3011 C 282.526 -3.48536 4.65722 0
M  V30 3012 N 281.502 -3.71517 3.96832 0
M  V30 3013 H 285.304 -1.65818 2.42655 0
M  V30 3014 H 282.818 -0.831419 1.39503 0
M  V30 3015 H 284.815 -3.91433 1.43476 0
M  V30 3016 H 283.475 -3.2094 0.492717 0
M  V30 3017 H 284.486 -3.04893 4.18641 0
M  V30 3018 H 281.163 -3.80473 1.71891 0
M  V30 3019 H 282.553 -3.48016 5.74747 0
M  V30 3020 N 285.273 -1.31445 -0.869486 0
M  V30 3021 C 286.684 -1.19042 -1.43826 0
M  V30 3022 C 287.035 0.202919 -1.95148 0
M  V30 3023 O 286.16 1.10071 -1.86315 0
M  V30 3024 C 286.755 -2.15499 -2.6143 0
M  V30 3025 C 285.314 -2.07028 -3.14351 0
M  V30 3026 C 284.461 -2.04701 -1.87063 0
M  V30 3027 H 287.412 -1.43489 -0.677984 0
M  V30 3028 H 287.433 -1.74488 -3.38134 0
M  V30 3029 H 286.945 -3.16899 -2.24046 0
M  V30 3030 H 285.046 -1.08825 -3.56354 0
M  V30 3031 H 285.159 -2.96157 -3.766 0
M  V30 3032 H 283.523 -1.49724 -2.06046 0
M  V30 3033 H 284.306 -3.07857 -1.51917 0
M  V30 3034 N 286.751 1.08385 -1.14413 0
M  V30 3035 C 287.999 1.80419 -0.910679 0
M  V30 3036 C 288.32 1.86658 0.564243 0
M  V30 3037 O 287.59 1.35985 1.41014 0
M  V30 3038 H 286.17 0.668204 -0.333934 0
M  V30 3039 H 288.832 1.31037 -1.44275 0
M  V30 3040 H 287.928 2.83238 -1.31082 0
M  V30 3041 N 288.23 0.939286 1.26551 0
M  V30 3042 C 289.507 0.5038 1.89001 0
M  V30 3043 C 289.887 -1.01854 1.84903 0
M  V30 3044 O 289.235 -1.87773 1.30206 0
M  V30 3045 C 289.445 1.063 3.32417 0
M  V30 3046 C 290.793 1.13051 4.09273 0
M  V30 3047 O 291.817 1.01345 3.41479 0
M  V30 3048 O 290.676 1.31233 5.30509 0
M  V30 3049 H 287.77 0.163897 0.810597 0
M  V30 3050 H 290.316 1.03173 1.34735 0
M  V30 3051 H 289.088 2.10665 3.29752 0
M  V30 3052 H 288.711 0.517408 3.94219 0
M  V30 3053 N 289.708 -1.40897 0.706093 0
M  V30 3054 C 290.933 -2.05895 0.249435 0
M  V30 3055 C 291.358 -1.52823 -1.09666 0
M  V30 3056 O 290.716 -0.659589 -1.68876 0
M  V30 3057 C 290.764 -3.59872 0.22904 0
M  V30 3058 O 289.868 -4.04708 -0.792784 0
M  V30 3059 H 289.209 -0.653206 0.119241 0
M  V30 3060 H 291.739 -1.80471 0.96391 0
M  V30 3061 H 291.749 -4.07951 0.0634791 0
M  V30 3062 H 290.424 -3.97866 1.21141 0
M  V30 3063 H 289.001 -3.68111 -0.59572 0
M  V30 3064 N 291.186 -0.45159 -1.50991 0
M  V30 3065 C 292.411 0.110667 -2.07105 0
M  V30 3066 C 292.836 1.3446 -1.31538 0
M  V30 3067 O 292.194 1.77743 -0.357365 0
M  V30 3068 C 292.242 0.397238 -3.58405 0
M  V30 3069 O 291.346 1.48124 -3.84881 0
M  V30 3070 H 290.687 -0.00439271 -0.663985 0
M  V30 3071 H 293.217 -0.637026 -1.9443 0
M  V30 3072 H 293.227 0.64351 -4.02893 0
M  V30 3073 H 291.902 -0.504553 -4.12828 0
M  V30 3074 H 290.479 1.22381 -3.52246 0
M  V30 3075 N 292.664 1.56529 -0.183458 0
M  V30 3076 C 293.912 1.96855 0.457452 0
M  V30 3077 C 294.233 1.07104 1.62953 0
M  V30 3078 O 293.503 0.139887 1.954 0
M  V30 3079 H 292.083 0.72693 0.171992 0
M  V30 3080 H 294.745 1.93056 -0.267476 0
M  V30 3081 H 293.841 3.01423 0.809368 0
M  V30 3082 N 294.142 -0.090211 1.57342 0
M  V30 3083 C 295.419 -0.824761 1.77361 0
M  V30 3084 C 295.799 -1.96698 0.76637 0
M  V30 3085 O 295.147 -2.27586 -0.204179 0
M  V30 3086 C 295.357 -1.31481 3.23286 0
M  V30 3087 C 296.705 -1.75563 3.86604 0
M  V30 3088 O 297.729 -1.41093 3.27065 0
M  V30 3089 O 296.588 -2.39317 4.91314 0
M  V30 3090 H 293.682 -0.393776 0.727234 0
M  V30 3091 H 296.228 -0.0717138 1.69548 0
M  V30 3092 H 295 -0.496671 3.88135 0
M  V30 3093 H 294.623 -2.12973 3.35751 0
M  V30 3094 N 295.62 -1.53406 -0.361157 0
M  V30 3095 C 296.845 -1.74024 -1.12829 0
M  V30 3096 C 297.27 -0.470069 -1.82132 0
M  V30 3097 O 296.628 0.57619 -1.719 0
M  V30 3098 C 296.676 -2.90903 -2.13091 0
M  V30 3099 O 295.78 -2.59821 -3.20261 0
M  V30 3100 H 295.121 -0.577804 -0.327168 0
M  V30 3101 H 297.651 -2.00307 -0.41693 0
M  V30 3102 H 297.661 -3.17194 -2.56616 0
M  V30 3103 H 296.336 -3.83034 -1.62042 0
M  V30 3104 H 294.913 -2.44362 -2.81677 0
M  V30 3105 N 297.098 0.621204 -1.44841 0
M  V30 3106 C 298.323 1.41244 -1.51871 0
M  V30 3107 C 298.748 1.87519 -0.147764 0
M  V30 3108 O 298.106 1.59334 0.865 0
M  V30 3109 C 298.154 2.60221 -2.49634 0
M  V30 3110 O 297.258 3.60395 -2.00473 0
M  V30 3111 H 296.599 0.42223 -0.512463 0
M  V30 3112 H 299.129 0.757305 -1.90069 0
M  V30 3113 H 299.139 3.0764 -2.67996 0
M  V30 3114 H 297.814 2.25887 -3.4921 0
M  V30 3115 H 296.391 3.19717 -1.91925 0
M  V30 3116 N 298.576 1.31904 0.862503 0
M  V30 3117 C 299.824 1.21776 1.61292 0
M  V30 3118 C 300.145 -0.222413 1.93727 0
M  V30 3119 O 299.415 -1.1451 1.58947 0
M  V30 3120 H 297.995 0.447717 0.597962 0
M  V30 3121 H 300.657 1.65326 1.03215 0
M  V30 3122 H 299.753 1.7948 2.5533 0
M  V30 3123 N 300.054 -1.07777 1.14986 0
M  V30 3124 C 300.984 -2.16865 0.865557 0
M  V30 3125 C 301.965 -1.69123 -0.182083 0
M  V30 3126 O 303.15 -1.94164 -0.0373815 0
M  V30 3127 C 300.28 -3.45539 0.349313 0
M  V30 3128 C 299.234 -4.06708 1.33313 0
M  V30 3129 C 298.56 -5.30411 0.675918 0
M  V30 3130 C 299.86 -4.47241 2.69764 0
M  V30 3131 H 301.554 -2.40905 1.77778 0
M  V30 3132 H 299.1 -1.15781 0.856203 0
M  V30 3133 H 301.053 -4.21174 0.137983 0
M  V30 3134 H 299.777 -3.21072 -0.598362 0
M  V30 3135 H 298.436 -3.33112 1.53075 0
M  V30 3136 H 298.084 -5.02232 -0.277767 0
M  V30 3137 H 297.784 -5.72293 1.33244 0
M  V30 3138 H 299.308 -6.08755 0.474262 0
M  V30 3139 H 300.722 -5.14025 2.53873 0
M  V30 3140 H 299.119 -5.00062 3.3175 0
M  V30 3141 H 300.189 -3.58818 3.26156 0
M  V30 3142 N 301.532 -0.945985 -1.26051 0
M  V30 3143 C 302.48 -0.450259 -2.282 0
M  V30 3144 C 303.474 0.47497 -1.62605 0
M  V30 3145 O 304.68 0.352653 -1.76512 0
M  V30 3146 H 301.055 -0.127081 -0.741184 0
M  V30 3147 H 303.026 -1.32422 -2.67408 0
M  V30 3148 C 301.775 0.26467 -3.46691 0
M  V30 3149 H 301.098 -0.438123 -3.97392 0
M  V30 3150 H 302.538 0.575678 -4.20074 0
M  V30 3151 C 300.997 1.48416 -3.02447 0
M  V30 3152 O 301.527 2.58227 -3.07704 0
M  V30 3153 N 299.733 1.34243 -2.57735 0
M  V30 3154 H 299.28 0.448994 -2.53657 0
M  V30 3155 H 299.238 2.15957 -2.28495 0
M  V30 3156 N 303.011 1.40521 -0.713556 0
M  V30 3157 C 304.288 1.94775 -0.17943 0
M  V30 3158 C 304.668 1.65184 1.31444 0
M  V30 3159 O 304.016 0.968429 2.06963 0
M  V30 3160 C 304.226 3.45543 -0.489986 0
M  V30 3161 C 305.574 4.22442 -0.427536 0
M  V30 3162 O 306.598 3.53644 -0.425929 0
M  V30 3163 O 305.457 5.4501 -0.403292 0
M  V30 3164 H 302.551 0.826606 -0.0255192 0
M  V30 3165 H 305.097 1.5014 -0.790949 0
M  V30 3166 H 303.869 3.60432 -1.5233 0
M  V30 3167 H 303.492 3.97311 0.151598 0
M  V30 3168 N 304.489 0.459591 1.5075 0
M  V30 3169 C 305.717 -0.0973749 2.06671 0
M  V30 3170 C 306.132 -1.34524 1.32472 0
M  V30 3171 O 305.489 -1.7827 0.390634 0
M  V30 3172 C 305.54 -0.39714 3.59312 0
M  V30 3173 O 305.261 0.801214 4.30711 0
M  V30 3174 C 306.762 -1.00234 4.31819 0
M  V30 3175 H 303.982 0.00195854 0.670997 0
M  V30 3176 H 306.526 0.645072 1.94059 0
M  V30 3177 H 304.681 -1.08951 3.71764 0
M  V30 3178 H 305.095 0.538857 5.21725 0
M  V30 3179 H 306.569 -1.16193 5.39632 0
M  V30 3180 H 307.046 -1.98939 3.91561 0
M  V30 3181 H 307.652 -0.348699 4.23868 0
M  V30 3182 N 305.967 -1.56429 0.191757 0
M  V30 3183 C 307.214 -1.97485 -0.447891 0
M  V30 3184 C 307.542 -1.07852 -1.61859 0
M  V30 3185 O 306.797 -0.116903 -1.95351 0
M  V30 3186 C 307.096 -3.44449 -0.953384 0
M  V30 3187 C 306.762 -4.50781 0.103586 0
M  V30 3188 C 305.424 -4.79584 0.394023 0
M  V30 3189 C 307.776 -5.1471 0.819946 0
M  V30 3190 C 305.104 -5.69607 1.40585 0
M  V30 3191 C 307.456 -6.05827 1.8209 0
M  V30 3192 C 306.12 -6.32987 2.11857 0
M  V30 3193 H 305.39 -0.722648 -0.163895 0
M  V30 3194 H 308.037 -1.89322 0.28802 0
M  V30 3195 H 306.342 -3.49666 -1.76751 0
M  V30 3196 H 308.039 -3.73569 -1.45765 0
M  V30 3197 H 304.629 -4.28394 -0.132951 0
M  V30 3198 H 308.813 -4.92552 0.608789 0
M  V30 3199 H 304.069 -5.88926 1.64243 0
M  V30 3200 H 308.243 -6.54424 2.38123 0
M  V30 3201 H 305.87 -7.02544 2.90407 0
M  V30 3202 N 307.445 0.0818655 -1.57387 0
M  V30 3203 C 308.693 0.781368 -1.86384 0
M  V30 3204 C 309.014 1.78618 -0.782342 0
M  V30 3205 O 308.284 1.94976 0.190061 0
M  V30 3206 H 306.864 0.291562 -0.687751 0
M  V30 3207 H 309.526 0.060348 -1.94807 0
M  V30 3208 H 308.622 1.3038 -2.83562 0
M  V30 3209 N 308.923 1.53595 0.353017 0
M  V30 3210 C 310.151 1.74311 1.1146 0
M  V30 3211 C 310.566 0.477854 1.82653 0
M  V30 3212 O 309.923 -0.549977 1.74016 0
M  V30 3213 C 309.974 2.91694 2.13534 0
M  V30 3214 O 309.695 4.13325 1.45238 0
M  V30 3215 C 311.196 3.24384 3.02142 0
M  V30 3216 H 308.416 0.582669 0.332773 0
M  V30 3217 H 310.96 2.00386 0.408107 0
M  V30 3218 H 309.115 2.67977 2.79763 0
M  V30 3219 H 309.529 4.79148 2.13349 0
M  V30 3220 H 311.003 4.09893 3.69718 0
M  V30 3221 H 311.48 2.40282 3.67643 0
M  V30 3222 H 312.086 3.50073 2.41514 0
M  V30 3223 N 310.401 -0.613514 1.45168 0
M  V30 3224 C 311.629 -1.39946 1.5239 0
M  V30 3225 C 312.044 -1.88167 0.154531 0
M  V30 3226 O 311.401 -1.61872 -0.842843 0
M  V30 3227 C 311.452 -2.60795 2.50337 0
M  V30 3228 O 311.173 -2.1458 3.81952 0
M  V30 3229 C 312.674 -3.53723 2.67198 0
M  V30 3230 H 309.894 -0.428593 0.516284 0
M  V30 3231 H 312.438 -0.748753 1.903 0
M  V30 3232 H 310.593 -3.21919 2.15515 0
M  V30 3233 H 311.007 -2.93055 4.34993 0
M  V30 3234 H 312.481 -4.35079 3.39721 0
M  V30 3235 H 312.958 -4.0368 1.73029 0
M  V30 3236 H 313.564 -2.98456 3.02992 0
M  V30 3237 N 311.879 -1.3236 -0.855495 0
M  V30 3238 C 313.29 -1.2056 -1.42556 0
M  V30 3239 C 313.641 0.182209 -1.95352 0
M  V30 3240 O 312.766 1.08088 -1.87472 0
M  V30 3241 C 313.361 -2.1826 -2.59129 0
M  V30 3242 C 311.92 -2.10351 -3.12137 0
M  V30 3243 C 311.067 -2.06674 -1.84882 0
M  V30 3244 H 314.018 -1.442 -0.662727 0
M  V30 3245 H 314.039 -1.78064 -3.36264 0
M  V30 3246 H 313.551 -3.19257 -2.20673 0
M  V30 3247 H 311.652 -1.12599 -3.55179 0
M  V30 3248 H 311.765 -3.00135 -3.73438 0
M  V30 3249 H 310.129 -1.51901 -2.04446 0
M  V30 3250 H 310.912 -3.09451 -1.48643 0
M  V30 3251 N 313.357 1.07166 -1.15556 0
M  V30 3252 C 314.32 2.12589 -0.856644 0
M  V30 3253 C 315.32 1.6015 0.14444 0
M  V30 3254 O 316.51 1.7399 -0.0854163 0
M  V30 3255 C 313.642 3.39753 -0.279405 0
M  V30 3256 H 314.835 2.40539 -1.79112 0
M  V30 3257 H 312.388 1.23086 -0.963298 0
M  V30 3258 H 313.123 3.17447 0.663174 0
M  V30 3259 H 312.908 3.79117 -1.00063 0
M  V30 3260 H 314.398 4.17507 -0.0879113 0
M  V30 3261 N 314.835 0.952656 1.25548 0
M  V30 3262 C 315.798 0.475794 2.24207 0
M  V30 3263 C 316.798 -0.419428 1.55234 0
M  V30 3264 O 317.988 -0.216994 1.72843 0
M  V30 3265 C 315.12 -0.312814 3.39462 0
M  V30 3266 H 316.313 1.34779 2.67908 0
M  V30 3267 H 313.866 0.735739 1.37901 0
M  V30 3268 H 314.601 -1.20257 3.01179 0
M  V30 3269 H 314.386 0.329404 3.90714 0
M  V30 3270 H 315.876 -0.635986 4.12729 0
M  V30 3271 N 316.313 -1.40141 0.720998 0
M  V30 3272 C 317.223 -2.34486 0.0731031 0
M  V30 3273 C 318.239 -1.57587 -0.737723 0
M  V30 3274 O 319.415 -1.89949 -0.669429 0
M  V30 3275 C 316.48 -3.36528 -0.833656 0
M  V30 3276 C 315.541 -4.29298 -0.0121673 0
M  V30 3277 C 314.774 -5.26466 -0.875742 0
M  V30 3278 O 314.997 -5.29745 -2.11485 0
M  V30 3279 O 313.931 -6.01092 -0.31185 0
M  V30 3280 H 317.757 -2.9152 0.851444 0
M  V30 3281 H 315.342 -1.41427 0.481527 0
M  V30 3282 H 317.224 -3.99093 -1.35289 0
M  V30 3283 H 315.899 -2.81899 -1.59105 0
M  V30 3284 H 314.806 -3.70001 0.552262 0
M  V30 3285 H 316.139 -4.87094 0.707129 0
M  V30 3286 N 317.792 -0.46758 -1.50504 0
M  V30 3287 C 319.022 0.086288 -2.0642 0
M  V30 3288 C 319.43 1.34369 -1.33197 0
M  V30 3289 O 318.773 1.79431 -0.393747 0
M  V30 3290 C 318.835 0.443846 -3.5675 0
M  V30 3291 C 318.499 -0.711035 -4.51435 0
M  V30 3292 C 319.496 -1.59205 -4.94924 0
M  V30 3293 C 317.181 -0.900363 -4.94165 0
M  V30 3294 C 319.175 -2.64683 -5.79846 0
M  V30 3295 C 316.862 -1.95837 -5.7887 0
M  V30 3296 C 317.86 -2.82997 -6.21612 0
M  V30 3297 O 317.548 -3.86977 -7.0463 0
M  V30 3298 H 317.28 -0.00217814 -0.675996 0
M  V30 3299 H 319.834 -0.654346 -1.94698 0
M  V30 3300 H 318.064 1.23762 -3.6636 0
M  V30 3301 H 319.753 0.932386 -3.95046 0
M  V30 3302 H 320.519 -1.45745 -4.62583 0
M  V30 3303 H 316.398 -0.231427 -4.60419 0
M  V30 3304 H 319.942 -3.32745 -6.13128 0
M  V30 3305 H 315.839 -2.09305 -6.10624 0
M  V30 3306 H 316.607 -3.83923 -7.22873 0
M  V30 3307 N 319.27 1.56325 -0.20005 0
M  V30 3308 C 320.517 1.97719 0.437411 0
M  V30 3309 C 320.845 1.08709 1.61284 0
M  V30 3310 O 320.1 0.127261 1.95286 0
M  V30 3311 C 320.399 3.4495 0.935103 0
M  V30 3312 C 320.065 4.5072 -0.12749 0
M  V30 3313 C 318.727 4.79368 -0.419451 0
M  V30 3314 C 321.079 5.14268 -0.847231 0
M  V30 3315 C 318.407 5.68854 -1.43604 0
M  V30 3316 C 320.759 6.04852 -1.85301 0
M  V30 3317 C 319.423 6.31855 -2.15211 0
M  V30 3318 H 318.693 0.723507 0.16006 0
M  V30 3319 H 321.34 1.89166 -0.298056 0
M  V30 3320 H 319.645 3.50599 1.74894 0
M  V30 3321 H 321.342 3.74337 1.43781 0
M  V30 3322 H 317.932 4.28458 0.11023 0
M  V30 3323 H 322.116 4.92222 -0.634901 0
M  V30 3324 H 317.372 5.88047 -1.67364 0
M  V30 3325 H 321.546 6.53152 -2.41591 0
M  V30 3326 H 319.173 7.00994 -2.94129 0
M  V30 3327 N 320.748 -0.0735177 1.57428 0
M  V30 3328 C 321.658 -1.10547 2.06922 0
M  V30 3329 C 322.674 -1.42506 0.998402 0
M  V30 3330 O 323.85 -1.52717 1.31299 0
M  V30 3331 C 320.915 -2.40019 2.50184 0
M  V30 3332 C 319.976 -2.15046 3.71556 0
M  V30 3333 C 319.209 -3.38345 4.12745 0
M  V30 3334 O 319.432 -4.47399 3.53822 0
M  V30 3335 O 318.366 -3.2666 5.05546 0
M  V30 3336 H 322.192 -0.715013 2.95163 0
M  V30 3337 H 319.777 -0.287531 1.46607 0
M  V30 3338 H 321.659 -3.16218 2.78539 0
M  V30 3339 H 320.334 -2.78447 1.65072 0
M  V30 3340 H 319.241 -1.36558 3.48285 0
M  V30 3341 H 320.574 -1.81499 4.57514 0
M  V30 3342 N 322.226 -1.5378 -0.344866 0
M  V30 3343 C 323.642 -1.44015 -0.687888 0
M  V30 3344 C 323.842 -0.595834 -1.92489 0
M  V30 3345 O 322.898 -0.0863064 -2.52352 0
M  V30 3346 C 324.211 -2.87481 -0.881758 0
M  V30 3347 C 325.759 -2.97247 -0.980459 0
M  V30 3348 C 326.234 -4.41819 -1.20665 0
M  V30 3349 N 327.725 -4.45339 -1.27389 0
M  V30 3350 C 328.46 -5.54333 -1.46639 0
M  V30 3351 N 327.956 -6.73335 -1.63071 0
M  V30 3352 N 329.749 -5.41944 -1.49176 0
M  V30 3353 H 321.9 -2.07169 0.468475 0
M  V30 3354 H 324.163 -0.93643 0.147655 0
M  V30 3355 H 323.869 -3.51672 -0.0443444 0
M  V30 3356 H 323.743 -3.32352 -1.78388 0
M  V30 3357 H 326.13 -2.33197 -1.8084 0
M  V30 3358 H 326.211 -2.5574 -0.0552713 0
M  V30 3359 H 325.855 -5.06449 -0.383652 0
M  V30 3360 H 325.785 -4.80917 -2.14539 0
M  V30 3361 H 328.276 -3.59585 -1.1622 0
M  V30 3362 H 328.589 -7.52165 -1.77391 0
M  V30 3363 H 326.934 -6.76282 -1.60209 0
M  V30 3364 H 330.125 -4.47932 -1.3592 0
M  V30 3365 H 330.298 -6.26946 -1.63837 0
M  V30 3366 N 323.704 0.605807 -1.45491 0
M  V30 3367 C 324.952 1.36207 -1.49305 0
M  V30 3368 C 325.273 1.94519 -0.136863 0
M  V30 3369 O 324.543 1.77261 0.833983 0
M  V30 3370 H 323.123 0.50565 -0.549843 0
M  V30 3371 H 325.785 0.711239 -1.81459 0
M  V30 3372 H 324.881 2.18058 -2.23287 0
M  V30 3373 N 325.182 1.32811 0.848464 0
M  V30 3374 C 326.428 1.23907 1.60546 0
M  V30 3375 C 326.761 -0.197161 1.93197 0
M  V30 3376 O 326.036 -1.13596 1.5788 0
M  V30 3377 C 326.319 2.10489 2.92175 0
M  V30 3378 C 326.172 3.62522 2.66266 0
M  V30 3379 C 327.491 1.97075 3.93509 0
M  V30 3380 H 324.61 0.451459 0.58254 0
M  V30 3381 H 327.252 1.62818 0.979296 0
M  V30 3382 H 325.402 1.77434 3.45614 0
M  V30 3383 H 327.074 4.05821 2.19334 0
M  V30 3384 H 325.317 3.84879 2.00126 0
M  V30 3385 H 325.988 4.18437 3.6002 0
M  V30 3386 H 328.464 2.26045 3.49346 0
M  V30 3387 H 327.34 2.59923 4.83457 0
M  V30 3388 H 327.601 0.940186 4.31987 0
M  V30 3389 N 326.66 -1.06551 1.16123 0
M  V30 3390 C 327.59 -2.15935 0.88851 0
M  V30 3391 C 328.571 -1.69306 -0.164135 0
M  V30 3392 O 329.756 -1.94193 -0.0167857 0
M  V30 3393 C 326.886 -3.45149 0.385942 0
M  V30 3394 C 325.84 -4.05271 1.3762 0
M  V30 3395 C 325.166 -5.29664 0.732137 0
M  V30 3396 C 326.466 -4.44355 2.74493 0
M  V30 3397 H 328.16 -2.39006 1.80323 0
M  V30 3398 H 325.706 -1.14866 0.868435 0
M  V30 3399 H 327.659 -4.21004 0.182647 0
M  V30 3400 H 326.383 -3.21689 -0.564274 0
M  V30 3401 H 325.042 -3.3147 1.56599 0
M  V30 3402 H 324.69 -5.02499 -0.224483 0
M  V30 3403 H 324.39 -5.70848 1.39307 0
M  V30 3404 H 325.914 -6.08218 0.538802 0
M  V30 3405 H 327.328 -5.11303 2.59311 0
M  V30 3406 H 325.725 -4.96515 3.37035 0
M  V30 3407 H 326.795 -3.55339 3.29943 0
M  V30 3408 N 328.138 -0.959301 -1.25041 0
M  V30 3409 C 329.088 -0.453888 -2.23436 0
M  V30 3410 C 330.072 0.459461 -1.542 0
M  V30 3411 O 331.264 0.291752 -1.74579 0
M  V30 3412 C 328.393 0.262667 -3.42294 0
M  V30 3413 C 327.479 -0.669022 -4.1879 0
M  V30 3414 N 327.87 -1.80267 -4.72586 0
M  V30 3415 C 326.168 -0.47814 -4.4343 0
M  V30 3416 C 326.869 -2.38475 -5.3057 0
M  V30 3417 N 325.845 -1.67078 -5.17287 0
M  V30 3418 H 329.647 -1.319 -2.6264 0
M  V30 3419 H 327.161 -0.817358 -1.40332 0
M  V30 3420 H 329.158 0.641911 -4.11929 0
M  V30 3421 H 327.818 1.12432 -3.04613 0
M  V30 3422 H 328.829 -2.18442 -4.69578 0
M  V30 3423 H 325.506 0.340249 -4.16111 0
M  V30 3424 H 326.896 -3.34094 -5.8295 0
M  V30 3425 N 329.616 1.39756 -0.72842 0
M  V30 3426 C 330.546 2.33289 -0.0991354 0
M  V30 3427 C 331.527 1.53568 0.731489 0
M  V30 3428 O 332.712 1.81987 0.677807 0
M  V30 3429 C 329.842 3.3763 0.813834 0
M  V30 3430 C 328.796 4.2791 0.0878663 0
M  V30 3431 C 328.122 5.22894 1.11741 0
M  V30 3432 C 329.422 5.11314 -1.06563 0
M  V30 3433 H 331.116 2.86163 -0.880408 0
M  V30 3434 H 328.662 1.37591 -0.424819 0
M  V30 3435 H 330.615 4.0201 1.26355 0
M  V30 3436 H 329.339 2.83181 1.62715 0
M  V30 3437 H 327.998 3.65 -0.342159 0
M  V30 3438 H 327.646 4.64744 1.92412 0
M  V30 3439 H 327.346 5.84143 0.636477 0
M  V30 3440 H 328.87 5.90151 1.56697 0
M  V30 3441 H 330.284 5.69076 -0.694671 0
M  V30 3442 H 328.681 5.81671 -1.47577 0
M  V30 3443 H 329.751 4.46534 -1.89038 0
M  V30 3444 N 331.094 0.475555 1.50254 0
M  V30 3445 C 332.044 -0.335025 2.25525 0
M  V30 3446 C 333.028 -0.957625 1.29299 0
M  V30 3447 O 334.22 -0.869436 1.54175 0
M  V30 3448 C 331.349 -1.41385 3.12834 0
M  V30 3449 C 330.435 -0.798762 4.1651 0
M  V30 3450 N 330.826 0.0835815 5.05731 0
M  V30 3451 C 329.124 -1.06221 4.33166 0
M  V30 3452 C 329.825 0.433113 5.80085 0
M  V30 3453 N 328.801 -0.1928 5.43258 0
M  V30 3454 H 332.603 0.344612 2.91873 0
M  V30 3455 H 330.117 0.289986 1.5979 0
M  V30 3456 H 332.114 -2.00777 3.65368 0
M  V30 3457 H 330.774 -2.09543 2.48036 0
M  V30 3458 H 331.785 0.452715 5.15918 0
M  V30 3459 H 328.462 -1.73844 3.79585 0
M  V30 3460 H 329.852 1.15346 6.61925 0
M  V30 3461 N 332.573 -1.56217 0.208337 0
M  V30 3462 C 333.505 -2.1695 -0.739276 0
M  V30 3463 C 334.518 -1.13492 -1.1672 0
M  V30 3464 O 335.707 -1.40529 -1.10063 0
M  V30 3465 C 332.807 -2.72755 -2.01142 0
M  V30 3466 C 331.98 -4.0125 -1.74118 0
M  V30 3467 C 331.039 -4.41749 -2.85909 0
M  V30 3468 O 330.065 -5.08912 -2.54946 0
M  V30 3469 N 331.267 -4.06342 -4.14568 0
M  V30 3470 H 334.032 -2.98893 -0.219837 0
M  V30 3471 H 331.593 -1.61878 0.0268445 0
M  V30 3472 H 333.585 -2.96826 -2.75094 0
M  V30 3473 H 332.155 -1.95191 -2.4417 0
M  V30 3474 H 331.375 -3.85173 -0.838775 0
M  V30 3475 H 332.663 -4.851 -1.53477 0
M  V30 3476 H 332.061 -3.52345 -4.42571 0
M  V30 3477 H 330.618 -4.35335 -4.85105 0
M  V30 3478 N 334.051 0.0651679 -1.57465 0
M  V30 3479 C 335.276 0.779605 -1.9219 0
M  V30 3480 C 335.701 1.69988 -0.805333 0
M  V30 3481 O 335.059 1.79685 0.241435 0
M  V30 3482 C 335.107 1.54364 -3.2589 0
M  V30 3483 O 334.211 2.65474 -3.1559 0
M  V30 3484 H 333.552 0.212249 -0.629163 0
M  V30 3485 H 336.082 0.0314294 -2.04576 0
M  V30 3486 H 336.092 1.92146 -3.59922 0
M  V30 3487 H 334.767 0.868457 -4.06732 0
M  V30 3488 H 333.344 2.30501 -2.93128 0
M  V30 3489 N 335.529 1.53961 0.336706 0
M  V30 3490 C 336.479 1.7881 1.41461 0
M  V30 3491 C 337.463 0.643561 1.47469 0
M  V30 3492 O 338.655 0.903166 1.52223 0
M  V30 3493 C 335.784 2.00722 2.78506 0
M  V30 3494 C 334.87 3.2126 2.76862 0
M  V30 3495 N 335.261 4.42588 2.44845 0
M  V30 3496 C 333.559 3.22568 3.08004 0
M  V30 3497 C 334.26 5.2447 2.51607 0
M  V30 3498 N 333.236 4.61344 2.87511 0
M  V30 3499 H 337.038 2.70205 1.15615 0
M  V30 3500 H 334.552 1.52978 0.545112 0
M  V30 3501 H 336.549 2.1666 3.5618 0
M  V30 3502 H 335.209 1.10573 3.05293 0
M  V30 3503 H 336.22 4.69819 2.17922 0
M  V30 3504 H 332.897 2.42409 3.39918 0
M  V30 3505 H 334.287 6.31324 2.29955 0
M  V30 3506 N 337.007 -0.598083 1.45811 0
M  V30 3507 C 338.255 -1.35413 1.50026 0
M  V30 3508 C 338.576 -1.94444 0.147177 0
M  V30 3509 O 337.846 -1.77701 -0.824571 0
M  V30 3510 H 336.426 -0.502727 0.552517 0
M  V30 3511 H 339.088 -0.701606 1.81834 0
M  V30 3512 H 338.184 -2.16871 2.2444 0
M  V30 3513 N 338.485 -1.33259 -0.841409 0
M  V30 3514 C 339.734 -1.23921 -1.59143 0
M  V30 3515 C 340.047 0.1941 -1.94635 0
M  V30 3516 O 341.253 0.409474 -2.68394 0
M  V30 3517 C 339.709 -2.17119 -2.87032 0
M  V30 3518 C 339.317 -3.65606 -2.58914 0
M  V30 3519 C 341.061 -2.16648 -3.65053 0
M  V30 3520 C 338.968 -4.50726 -3.82884 0
M  V30 3521 H 337.898 -0.460264 -0.597221 0
M  V30 3522 H 340.549 -1.58307 -0.927959 0
M  V30 3523 H 338.931 -1.75663 -3.54906 0
M  V30 3524 H 340.105 -4.15487 -1.99267 0
M  V30 3525 H 338.42 -3.68341 -1.942 0
M  V30 3526 H 341.017 -2.77474 -4.57069 0
M  V30 3527 H 341.36 -1.16088 -3.99787 0
M  V30 3528 H 341.893 -2.56453 -3.041 0
M  V30 3529 H 338.632 -5.52151 -3.53283 0
M  V30 3530 H 338.152 -4.0559 -4.41879 0
M  V30 3531 H 339.831 -4.64401 -4.50489 0
M  V30 3532 N 339.963 1.05934 -1.16686 0
M  V30 3533 C 341.24 1.75643 -0.860747 0
M  V30 3534 C 341.62 2.01144 0.640641 0
M  V30 3535 O 340.968 1.64147 1.58959 0
M  V30 3536 C 341.178 3.05493 -1.68745 0
M  V30 3537 C 342.526 3.79581 -1.90271 0
M  V30 3538 O 343.55 3.15344 -1.65641 0
M  V30 3539 O 342.409 4.9499 -2.31618 0
M  V30 3540 H 339.503 0.763426 -0.317977 0
M  V30 3541 H 342.049 1.1217 -1.27342 0
M  V30 3542 H 340.821 2.8264 -2.70611 0
M  V30 3543 H 340.444 3.76702 -1.27206 0
M  V30 3544 N 341.441 0.965919 1.2453 0
M  V30 3545 C 342.718 0.543777 1.87889 0
M  V30 3546 C 343.098 -0.97909 1.87021 0
M  V30 3547 O 342.446 -1.84969 1.3416 0
M  V30 3548 C 342.656 1.13327 3.30088 0
M  V30 3549 C 344.004 1.21707 4.06783 0
M  V30 3550 O 345.028 1.08566 3.39252 0
M  V30 3551 O 343.887 1.42456 5.27606 0
M  V30 3552 H 340.981 0.181054 0.806938 0
M  V30 3553 H 343.527 1.06007 1.32516 0
M  V30 3554 H 342.299 2.17612 3.25209 0
M  V30 3555 H 341.922 0.600911 3.93033 0
M  V30 3556 N 342.919 -1.39368 0.735821 0
M  V30 3557 C 343.849 -2.33234 0.111506 0
M  V30 3558 C 344.83 -1.53954 -0.723334 0
M  V30 3559 O 346.015 -1.82344 -0.668147 0
M  V30 3560 C 343.145 -3.38057 -0.795917 0
M  V30 3561 C 342.099 -4.2795 -0.065172 0
M  V30 3562 C 341.425 -5.23479 -1.08967 0
M  V30 3563 C 342.725 -5.10741 1.09273 0
M  V30 3564 H 344.419 -2.85692 0.895571 0
M  V30 3565 H 341.965 -1.37364 0.432109 0
M  V30 3566 H 343.918 -4.02675 -1.24221 0
M  V30 3567 H 342.642 -2.8404 -1.61211 0
M  V30 3568 H 341.301 -3.64813 0.361511 0
M  V30 3569 H 340.949 -4.65758 -1.89944 0
M  V30 3570 H 340.649 -5.84472 -0.605489 0
M  V30 3571 H 342.173 -5.90974 -1.53565 0
M  V30 3572 H 343.587 -5.68699 0.724841 0
M  V30 3573 H 341.984 -5.8088 1.50659 0
M  V30 3574 H 343.054 -4.45525 1.91404 0
M  V30 3575 N 344.397 -0.483516 -1.5 0
M  V30 3576 C 345.645 0.067027 -2.01989 0
M  V30 3577 C 345.966 1.3909 -1.36671 0
M  V30 3578 O 345.236 1.88978 -0.516152 0
M  V30 3579 H 343.816 0.0277606 -0.746484 0
M  V30 3580 H 346.478 -0.636773 -1.84204 0
M  V30 3581 H 345.574 0.209484 -3.11396 0
M  V30 3582 N 345.875 1.56104 -0.216619 0
M  V30 3583 C 347.286 1.844 0.292128 0
M  V30 3584 C 347.637 1.13788 1.59833 0
M  V30 3585 O 346.762 0.405888 2.12559 0
M  V30 3586 C 347.357 3.3452 0.53681 0
M  V30 3587 C 345.916 3.63151 0.989876 0
M  V30 3588 C 345.063 2.77255 0.0502302 0
M  V30 3589 H 348.014 1.52481 -0.439926 0
M  V30 3590 H 348.035 3.54459 1.38345 0
M  V30 3591 H 347.547 3.85885 -0.414031 0
M  V30 3592 H 345.648 3.17238 1.95425 0
M  V30 3593 H 345.761 4.71177 0.867698 0
M  V30 3594 H 344.125 2.48555 0.556117 0
M  V30 3595 H 344.908 3.31416 -0.89544 0
M  V30 3596 N 347.353 -0.0568162 1.57498 0
M  V30 3597 C 348.764 -0.606858 1.76562 0
M  V30 3598 C 349.115 -1.77114 0.844094 0
M  V30 3599 O 348.24 -2.16376 0.0318911 0
M  V30 3600 C 348.835 -1.10766 3.20182 0
M  V30 3601 C 347.394 -1.60344 3.40539 0
M  V30 3602 C 346.541 -0.529311 2.72201 0
M  V30 3603 H 349.492 0.169393 1.57793 0
M  V30 3604 H 349.513 -1.97602 3.25167 0
M  V30 3605 H 349.025 -0.26006 3.87228 0
M  V30 3606 H 347.126 -2.47379 2.78629 0
M  V30 3607 H 347.239 -1.67006 4.4905 0
M  V30 3608 H 345.603 -0.977893 2.35179 0
M  V30 3609 H 346.386 0.308352 3.41912 0
M  V30 3610 N 348.832 -1.54138 -0.328536 0
M  V30 3611 C 350.248 -1.44736 -0.672574 0
M  V30 3612 C 350.448 -0.616217 -1.91846 0
M  V30 3613 O 349.504 -0.113067 -2.52247 0
M  V30 3614 C 350.817 -2.884 -0.851217 0
M  V30 3615 C 352.365 -2.98271 -0.948877 0
M  V30 3616 C 352.84 -4.43074 -1.15973 0
M  V30 3617 N 354.331 -4.46665 -1.22658 0
M  V30 3618 C 355.066 -5.55857 -1.40751 0
M  V30 3619 N 354.562 -6.75026 -1.5592 0
M  V30 3620 N 356.355 -5.43495 -1.4342 0
M  V30 3621 H 348.506 -2.06661 0.490421 0
M  V30 3622 H 350.769 -0.934812 0.157579 0
M  V30 3623 H 350.475 -3.51699 -0.00704236 0
M  V30 3624 H 350.349 -3.34225 -1.74853 0
M  V30 3625 H 352.736 -2.35102 -1.78356 0
M  V30 3626 H 352.817 -2.55785 -0.0281435 0
M  V30 3627 H 352.461 -5.06827 -0.329915 0
M  V30 3628 H 352.391 -4.83165 -2.09426 0
M  V30 3629 H 354.882 -3.60797 -1.124 0
M  V30 3630 H 355.195 -7.54004 -1.69404 0
M  V30 3631 H 353.54 -6.77944 -1.53027 0
M  V30 3632 H 356.731 -4.49349 -1.31162 0
M  V30 3633 H 356.904 -6.28649 -1.57178 0
M  V30 3634 N 350.31 0.590341 -1.46126 0
M  V30 3635 C 351.556 1.34874 -1.52252 0
M  V30 3636 C 351.911 1.91658 -0.168807 0
M  V30 3637 O 351.204 1.73093 0.821556 0
M  V30 3638 C 351.398 2.5032 -2.55097 0
M  V30 3639 C 351.227 2.04843 -4.00337 0
M  V30 3640 C 349.997 1.90213 -4.68132 0
M  V30 3641 C 352.195 1.61267 -4.88362 0
M  V30 3642 N 350.177 1.38727 -5.9802 0
M  V30 3643 C 351.548 1.21319 -6.08015 0
M  V30 3644 C 353.603 1.49015 -4.75078 0
M  V30 3645 C 352.306 0.7034 -7.15852 0
M  V30 3646 C 354.332 0.994401 -5.8298 0
M  V30 3647 C 353.694 0.604659 -7.018 0
M  V30 3648 H 349.793 0.486803 -0.612002 0
M  V30 3649 H 352.377 0.673007 -1.82698 0
M  V30 3650 H 350.548 3.15466 -2.26574 0
M  V30 3651 H 352.28 3.1725 -2.51266 0
M  V30 3652 H 349.035 2.11927 -4.23537 0
M  V30 3653 H 349.459 1.15168 -6.67132 0
M  V30 3654 H 354.101 1.77768 -3.83612 0
M  V30 3655 H 351.819 0.403446 -8.07092 0
M  V30 3656 H 355.405 0.903621 -5.7474 0
M  V30 3657 H 354.285 0.226963 -7.83871 0
M  V30 3658 N 351.788 1.33704 0.83433 0
M  V30 3659 C 352.72 1.20172 1.9517 0
M  V30 3660 C 353.733 0.131572 1.62267 0
M  V30 3661 O 354.922 0.382406 1.74356 0
M  V30 3662 C 352.022 0.821716 3.28787 0
M  V30 3663 C 351.195 1.98446 3.89792 0
M  V30 3664 C 350.254 1.58469 5.01771 0
M  V30 3665 O 349.28 2.29968 5.20676 0
M  V30 3666 N 350.482 0.492291 5.78409 0
M  V30 3667 H 353.247 2.16429 2.07313 0
M  V30 3668 H 350.808 1.26509 1.0103 0
M  V30 3669 H 352.8 0.536291 4.01131 0
M  V30 3670 H 351.37 -0.0503058 3.1256 0
M  V30 3671 H 350.59 2.43526 3.09982 0
M  V30 3672 H 351.878 2.76236 4.27283 0
M  V30 3673 H 351.276 -0.102349 5.65607 0
M  V30 3674 H 349.833 0.266555 6.51255 0
M  V30 3675 N 353.266 -1.05314 1.17247 0
M  V30 3676 C 354.196 -2.1498 0.911362 0
M  V30 3677 C 355.177 -1.69471 -0.146169 0
M  V30 3678 O 356.362 -1.942 0.003812 0
M  V30 3679 C 353.492 -3.4472 0.422528 0
M  V30 3680 C 352.446 -4.03789 1.4191 0
M  V30 3681 C 351.772 -5.28858 0.788274 0
M  V30 3682 C 353.072 -4.41418 2.7919 0
M  V30 3683 H 354.766 -2.3708 1.82848 0
M  V30 3684 H 352.312 -1.13938 0.880569 0
M  V30 3685 H 354.265 -4.20787 0.227289 0
M  V30 3686 H 352.989 -3.22269 -0.530123 0
M  V30 3687 H 351.648 -3.2979 1.60106 0
M  V30 3688 H 351.296 -5.02709 -0.171173 0
M  V30 3689 H 350.996 -5.69338 1.45353 0
M  V30 3690 H 352.52 -6.07612 0.603282 0
M  V30 3691 H 353.934 -5.08524 2.64719 0
M  V30 3692 H 352.331 -4.92913 3.42282 0
M  V30 3693 H 353.401 -3.51819 3.33693 0
M  V30 3694 N 354.744 -0.972509 -1.24016 0
M  V30 3695 C 355.972 -0.654803 -1.96265 0
M  V30 3696 C 356.387 0.776708 -1.72083 0
M  V30 3697 O 355.744 1.52171 -1.00748 0
M  V30 3698 C 355.795 -0.92592 -3.49441 0
M  V30 3699 O 355.516 -2.30116 -3.72798 0
M  V30 3700 C 357.017 -0.623068 -4.38899 0
M  V30 3701 H 354.237 -0.243907 -0.6251 0
M  V30 3702 H 356.781 -1.30175 -1.57717 0
M  V30 3703 H 354.936 -0.325108 -3.86033 0
M  V30 3704 H 355.35 -2.38483 -4.67147 0
M  V30 3705 H 356.824 -0.863189 -5.45209 0
M  V30 3706 H 357.301 0.442754 -4.36963 0
M  V30 3707 H 357.907 -1.204 -4.07902 0
M  V30 3708 N 356.222 1.38976 -0.743202 0
M  V30 3709 C 357.185 2.28901 -0.117014 0
M  V30 3710 C 358.185 1.46698 0.658503 0
M  V30 3711 O 359.375 1.67274 0.486305 0
M  V30 3712 C 356.507 3.30309 0.84315 0
M  V30 3713 H 357.7 2.8578 -0.909373 0
M  V30 3714 H 355.253 1.47761 -0.509547 0
M  V30 3715 H 355.988 2.785 1.66157 0
M  V30 3716 H 355.773 3.91029 0.289594 0
M  V30 3717 H 357.263 3.97577 1.2776 0
M  V30 3718 N 357.7 0.491464 1.49741 0
M  V30 3719 C 358.94 -0.0549118 2.04326 0
M  V30 3720 C 359.304 -1.35148 1.36378 0
M  V30 3721 O 360.505 -1.9815 1.81631 0
M  V30 3722 C 358.776 -0.213841 3.5676 0
M  V30 3723 S 360.335 -0.715839 4.32922 0
M  V30 3724 H 357.153 -0.00630513 0.710972 0
M  V30 3725 H 359.755 0.663257 1.83905 0
M  V30 3726 H 358.459 0.73527 4.0376 0
M  V30 3727 H 357.99 -0.957529 3.81569 0
M  V30 3728 H 360.005 -1.9864 4.54705 0
M  V30 3729 N 359.178 -1.55987 0.224894 0
M  V30 3730 C 360.108 -2.23426 -0.678457 0
M  V30 3731 C 361.089 -1.20709 -1.19847 0
M  V30 3732 O 362.274 -1.49304 -1.24186 0
M  V30 3733 C 359.404 -2.91676 -1.88527 0
M  V30 3734 C 358.358 -4.00893 -1.49896 0
M  V30 3735 C 357.684 -4.56455 -2.78483 0
M  V30 3736 C 358.984 -5.17769 -0.686461 0
M  V30 3737 H 360.678 -2.99175 -0.116173 0
M  V30 3738 H 358.224 -1.43897 -0.054436 0
M  V30 3739 H 360.177 -3.37547 -2.5227 0
M  V30 3740 H 358.901 -2.1338 -2.47258 0
M  V30 3741 H 357.56 -3.55758 -0.884985 0
M  V30 3742 H 357.208 -3.74886 -3.35365 0
M  V30 3743 H 356.908 -5.30169 -2.53368 0
M  V30 3744 H 358.432 -5.05047 -3.43162 0
M  V30 3745 H 359.846 -5.60001 -1.22767 0
M  V30 3746 H 358.243 -5.97735 -0.532259 0
M  V30 3747 H 359.313 -4.83932 0.306196 0
M  V30 3748 N 360.656 0.0484629 -1.57525 0
M  V30 3749 C 361.902 0.744226 -1.88651 0
M  V30 3750 C 362.235 1.76029 -0.820212 0
M  V30 3751 O 361.51 1.93782 0.166985 0
M  V30 3752 C 361.793 1.43128 -3.30434 0
M  V30 3753 C 361.646 0.43005 -4.47739 0
M  V30 3754 C 362.965 2.37031 -3.70816 0
M  V30 3755 H 360.084 0.269089 -0.68612 0
M  V30 3756 H 362.726 0.00713532 -1.89999 0
M  V30 3757 H 360.876 2.05956 -3.29415 0
M  V30 3758 H 362.548 -0.194816 -4.60888 0
M  V30 3759 H 360.791 -0.252522 -4.33064 0
M  V30 3760 H 361.462 0.948874 -5.43783 0
M  V30 3761 H 363.938 1.84263 -3.73077 0
M  V30 3762 H 362.814 2.82094 -4.70865 0
M  V30 3763 H 363.075 3.22864 -3.02012 0
M  V30 3764 N 362.134 1.5431 0.320358 0
M  V30 3765 C 363.064 1.86912 1.3995 0
M  V30 3766 C 364.045 0.726211 1.53819 0
M  V30 3767 O 365.23 0.980233 1.67646 0
M  V30 3768 C 362.36 2.09932 2.7667 0
M  V30 3769 C 361.314 3.25776 2.77586 0
M  V30 3770 C 360.64 3.34173 4.17412 0
M  V30 3771 C 361.94 4.6335 2.41048 0
M  V30 3772 H 363.634 2.77292 1.12914 0
M  V30 3773 H 361.18 1.33421 0.541738 0
M  V30 3774 H 363.133 2.31324 3.52232 0
M  V30 3775 H 361.857 1.16304 3.0519 0
M  V30 3776 H 360.516 3.04276 2.04479 0
M  V30 3777 H 360.164 2.38098 4.43078 0
M  V30 3778 H 359.864 4.12033 4.18931 0
M  V30 3779 H 361.388 3.57803 4.94782 0
M  V30 3780 H 362.802 4.84602 3.06324 0
M  V30 3781 H 361.199 5.43782 2.53813 0
M  V30 3782 H 362.269 4.65381 1.36193 0
M  V30 3783 N 363.613 -0.582584 1.46437 0
M  V30 3784 C 364.859 -1.34278 1.51978 0
M  V30 3785 C 365.192 -1.93446 0.170973 0
M  V30 3786 O 364.467 -1.76481 -0.817608 0
M  V30 3787 C 364.75 -2.47203 2.61845 0
M  V30 3788 C 364.603 -1.93069 4.06257 0
M  V30 3789 C 365.922 -3.49247 2.67795 0
M  V30 3790 H 363.041 -0.486876 0.553282 0
M  V30 3791 H 365.683 -0.654437 1.78374 0
M  V30 3792 H 363.833 -3.0592 2.39469 0
M  V30 3793 H 365.505 -1.38808 4.3992 0
M  V30 3794 H 363.748 -1.23898 4.1573 0
M  V30 3795 H 364.419 -2.74586 4.7886 0
M  V30 3796 H 366.895 -3.00411 2.8791 0
M  V30 3797 H 365.771 -4.25719 3.46489 0
M  V30 3798 H 366.032 -4.06482 1.73852 0
M  V30 3799 N 365.091 -1.34144 -0.827227 0
M  V30 3800 C 366.34 -1.25602 -1.5782 0
M  V30 3801 C 366.653 0.173445 -1.94829 0
M  V30 3802 O 367.859 0.380984 -2.68814 0
M  V30 3803 C 366.315 -2.20151 -2.84713 0
M  V30 3804 C 365.923 -3.68331 -2.55021 0
M  V30 3805 C 367.667 -2.20508 -3.62735 0
M  V30 3806 C 365.574 -4.54762 -3.78082 0
M  V30 3807 H 364.504 -0.466573 -0.592306 0
M  V30 3808 H 367.155 -1.59283 -0.911116 0
M  V30 3809 H 365.537 -1.79417 -3.53023 0
M  V30 3810 H 366.711 -4.17577 -1.94849 0
M  V30 3811 H 365.026 -3.7038 -1.90283 0
M  V30 3812 H 367.623 -2.82306 -4.54101 0
M  V30 3813 H 367.966 -1.20322 -3.98533 0
M  V30 3814 H 368.499 -2.59664 -3.01362 0
M  V30 3815 H 365.238 -5.55867 -3.47407 0
M  V30 3816 H 364.758 -4.10254 -4.37552 0
M  V30 3817 H 366.437 -4.69153 -4.45538 0
M  V30 3818 N 366.569 1.04691 -1.17803 0
M  V30 3819 C 367.815 1.78045 -0.970969 0
M  V30 3820 C 368.148 1.87686 0.498751 0
M  V30 3821 O 367.423 1.38035 1.37027 0
M  V30 3822 C 367.706 3.2166 -1.61884 0
M  V30 3823 C 367.559 3.20001 -3.161 0
M  V30 3824 C 368.878 4.1962 -1.3269 0
M  V30 3825 H 365.997 0.64633 -0.354155 0
M  V30 3826 H 368.639 1.22333 -1.45378 0
M  V30 3827 H 366.789 3.69232 -1.20831 0
M  V30 3828 H 368.461 2.80467 -3.66246 0
M  V30 3829 H 366.704 2.58203 -3.48588 0
M  V30 3830 H 367.375 4.21386 -3.56564 0
M  V30 3831 H 369.851 3.80567 -1.68249 0
M  V30 3832 H 368.727 5.18339 -1.80599 0
M  V30 3833 H 368.988 4.414 -0.248622 0
M  V30 3834 N 368.047 0.979072 1.23499 0
M  V30 3835 C 368.977 0.537606 2.27227 0
M  V30 3836 C 369.958 -0.428539 1.64613 0
M  V30 3837 O 371.143 -0.322191 1.91509 0
M  V30 3838 C 368.273 -0.162052 3.46922 0
M  V30 3839 C 367.227 0.721242 4.21879 0
M  V30 3840 C 366.553 -0.110555 5.34586 0
M  V30 3841 C 367.853 2.01141 4.82016 0
M  V30 3842 H 369.547 1.40462 2.64406 0
M  V30 3843 H 367.093 0.67684 1.27102 0
M  V30 3844 H 369.046 -0.482192 4.18632 0
M  V30 3845 H 367.77 -1.06351 3.08799 0
M  V30 3846 H 366.429 1.02482 3.51984 0
M  V30 3847 H 366.077 -1.0125 4.92704 0
M  V30 3848 H 365.777 0.477325 5.85658 0
M  V30 3849 H 367.301 -0.425107 6.09118 0
M  V30 3850 H 368.715 1.75612 5.45741 0
M  V30 3851 H 367.112 2.54695 5.43369 0
M  V30 3852 H 368.182 2.69909 4.02836 0
M  V30 3853 N 369.525 -1.3858 0.750561 0
M  V30 3854 C 370.455 -2.33102 0.136237 0
M  V30 3855 C 371.436 -1.54713 -0.706965 0
M  V30 3856 O 372.621 -1.83043 -0.648769 0
M  V30 3857 C 369.751 -3.38882 -0.760017 0
M  V30 3858 C 368.705 -4.27995 -0.0197785 0
M  V30 3859 C 368.031 -5.24605 -1.03408 0
M  V30 3860 C 369.331 -5.09554 1.14684 0
M  V30 3861 H 371.025 -2.84726 0.925822 0
M  V30 3862 H 368.571 -1.36898 0.446654 0
M  V30 3863 H 370.524 -4.0397 -1.19943 0
M  V30 3864 H 369.248 -2.85734 -1.58189 0
M  V30 3865 H 367.907 -3.64409 0.400184 0
M  V30 3866 H 367.555 -4.67746 -1.84994 0
M  V30 3867 H 367.255 -5.85081 -0.543464 0
M  V30 3868 H 368.779 -5.9257 -1.47288 0
M  V30 3869 H 370.193 -5.67899 0.785118 0
M  V30 3870 H 368.59 -5.7925 1.56812 0
M  V30 3871 H 369.66 -4.4347 1.96118 0
M  V30 3872 N 371.003 -0.499398 -1.49478 0
M  V30 3873 C 372.233 0.0424839 -2.06556 0
M  V30 3874 C 372.641 1.31514 -1.36018 0
M  V30 3875 O 371.984 1.78555 -0.431718 0
M  V30 3876 C 372.046 0.368074 -3.57611 0
M  V30 3877 C 371.71 -0.806631 -4.49825 0
M  V30 3878 C 372.707 -1.69667 -4.91436 0
M  V30 3879 C 370.392 -1.00498 -4.92144 0
M  V30 3880 C 372.386 -2.76923 -5.74101 0
M  V30 3881 C 370.073 -2.08072 -5.74586 0
M  V30 3882 C 371.071 -2.96119 -6.15469 0
M  V30 3883 O 370.759 -4.01836 -6.96264 0
M  V30 3884 H 370.491 -0.0165165 -0.675798 0
M  V30 3885 H 373.045 -0.695497 -1.93267 0
M  V30 3886 H 371.275 1.15963 -3.68903 0
M  V30 3887 H 372.964 0.848381 -3.96935 0
M  V30 3888 H 373.73 -1.55524 -4.59388 0
M  V30 3889 H 369.609 -0.329036 -4.59824 0
M  V30 3890 H 373.153 -3.45676 -6.05932 0
M  V30 3891 H 369.05 -2.22211 -6.06047 0
M  V30 3892 H 369.818 -3.9917 -7.14567 0
M  V30 3893 N 372.481 1.55866 -0.233164 0
M  V30 3894 C 373.728 1.98603 0.395374 0
M  V30 3895 C 374.056 1.12105 1.58942 0
M  V30 3896 O 373.311 0.168656 1.94972 0
M  V30 3897 C 373.61 3.46856 0.861724 0
M  V30 3898 C 373.276 4.50348 -0.223066 0
M  V30 3899 C 371.938 4.78371 -0.521038 0
M  V30 3900 C 374.29 5.12355 -0.956124 0
M  V30 3901 C 371.618 5.6568 -1.55638 0
M  V30 3902 C 373.97 6.00786 -1.98089 0
M  V30 3903 C 372.634 6.27148 -2.28565 0
M  V30 3904 H 371.904 0.726739 0.144677 0
M  V30 3905 H 374.551 1.88491 -0.338114 0
M  V30 3906 H 372.856 3.5423 1.67418 0
M  V30 3907 H 374.553 3.77302 1.35809 0
M  V30 3908 H 371.143 4.28596 0.0193234 0
M  V30 3909 H 375.327 4.90765 -0.739166 0
M  V30 3910 H 370.583 5.84365 -1.798 0
M  V30 3911 H 374.757 6.4788 -2.55391 0
M  V30 3912 H 372.384 6.94597 -3.08932 0
M  V30 3913 N 373.959 -0.0401083 1.57549 0
M  V30 3914 C 375.184 -0.748931 1.93406 0
M  V30 3915 C 375.609 -1.68686 0.832274 0
M  V30 3916 O 374.967 -1.80047 -0.212818 0
M  V30 3917 C 375.015 -1.4916 3.28304 0
M  V30 3918 O 374.119 -2.6042 3.19774 0
M  V30 3919 H 373.46 -0.202212 0.63246 0
M  V30 3920 H 375.99 0.00112086 2.046 0
M  V30 3921 H 376 -1.86395 3.62934 0
M  V30 3922 H 374.675 -0.80364 4.08062 0
M  V30 3923 H 373.252 -2.25808 2.96758 0
M  V30 3924 N 375.437 -1.54477 -0.31217 0
M  V30 3925 C 376.367 -1.87652 -1.38957 0
M  V30 3926 C 377.348 -0.734358 -1.53431 0
M  V30 3927 O 378.533 -0.98911 -1.67123 0
M  V30 3928 C 375.663 -2.11396 -2.75552 0
M  V30 3929 C 374.617 -3.27243 -2.75855 0
M  V30 3930 C 373.943 -3.36382 -4.15633 0
M  V30 3931 C 375.243 -4.64622 -2.38587 0
M  V30 3932 H 376.937 -2.77887 -1.11442 0
M  V30 3933 H 374.483 -1.33707 -0.534655 0
M  V30 3934 H 376.436 -2.33189 -3.51 0
M  V30 3935 H 375.16 -1.17921 -3.04569 0
M  V30 3936 H 373.819 -3.05356 -2.02863 0
M  V30 3937 H 373.467 -2.40445 -4.41809 0
M  V30 3938 H 373.167 -4.14249 -4.1674 0
M  V30 3939 H 374.691 -3.60422 -4.92877 0
M  V30 3940 H 376.105 -4.86219 -3.03749 0
M  V30 3941 H 374.502 -5.45121 -2.50925 0
M  V30 3942 H 375.572 -4.66097 -1.33723 0
M  V30 3943 N 376.915 0.57481 -1.46744 0
M  V30 3944 C 378.161 1.33251 -1.53674 0
M  V30 3945 C 378.516 1.91468 -0.189125 0
M  V30 3946 O 377.809 1.73954 0.803151 0
M  V30 3947 C 378.003 2.476 -2.57738 0
M  V30 3948 C 377.832 2.00586 -4.02487 0
M  V30 3949 C 376.602 1.85237 -4.70123 0
M  V30 3950 C 378.8 1.56078 -4.90045 0
M  V30 3951 N 376.782 1.32377 -5.99458 0
M  V30 3952 C 378.153 1.14863 -6.09267 0
M  V30 3953 C 380.208 1.43968 -4.76632 0
M  V30 3954 C 378.911 0.627435 -7.16558 0
M  V30 3955 C 380.937 0.932512 -5.84002 0
M  V30 3956 C 380.299 0.53019 -7.02402 0
M  V30 3957 H 376.398 0.480284 -0.617131 0
M  V30 3958 H 378.982 0.653592 -1.83402 0
M  V30 3959 H 377.153 3.13045 -2.29907 0
M  V30 3960 H 378.885 3.14567 -2.54616 0
M  V30 3961 H 375.64 2.07423 -4.25761 0
M  V30 3962 H 376.064 1.08085 -6.68316 0
M  V30 3963 H 380.706 1.73689 -3.85476 0
M  V30 3964 H 378.424 0.317821 -8.07475 0
M  V30 3965 H 382.01 0.842611 -5.75666 0
M  V30 3966 H 380.89 0.14381 -7.84068 0
M  V30 3967 N 378.394 1.34581 0.820102 0
M  V30 3968 C 379.341 1.2639 1.93117 0
M  V30 3969 C 380.311 0.138554 1.65521 0
M  V30 3970 O 381.496 0.320004 1.88097 0
M  V30 3971 C 378.636 1.02812 3.29429 0
M  V30 3972 C 377.749 2.24146 3.693 0
M  V30 3973 C 376.884 1.93829 4.94574 0
M  V30 3974 C 375.923 3.1129 5.27034 0
M  V30 3975 N 375.06 2.80838 6.43486 0
M  V30 3976 H 379.9 2.21408 1.99455 0
M  V30 3977 H 377.437 1.10077 0.975784 0
M  V30 3978 H 379.395 0.871788 4.0799 0
M  V30 3979 H 378.025 0.114612 3.22596 0
M  V30 3980 H 377.077 2.50691 2.86109 0
M  V30 3981 H 378.389 3.11899 3.89257 0
M  V30 3982 H 377.543 1.74948 5.80929 0
M  V30 3983 H 376.282 1.03341 4.76626 0
M  V30 3984 H 375.287 3.30764 4.39175 0
M  V30 3985 H 376.512 4.02561 5.4692 0
M  V30 3986 H 374.458 1.92929 6.26988 0
M  V30 3987 H 374.375 3.62123 6.63629 0
M  V30 3988 H 375.643 2.65467 7.32903 0
M  V30 3989 N 379.872 -1.04064 1.18357 0
M  V30 3990 C 381.12 -1.76915 0.977013 0
M  V30 3991 C 381.441 -1.88624 -0.494577 0
M  V30 3992 O 380.711 -1.41125 -1.3587 0
M  V30 3993 H 379.291 -0.65535 0.358504 0
M  V30 3994 H 381.953 -1.25592 1.49039 0
M  V30 3995 H 381.049 -2.78178 1.41504 0
M  V30 3996 N 381.35 -0.985608 -1.22978 0
M  V30 3997 C 382.596 -0.65836 -1.91816 0
M  V30 3998 C 382.929 0.806692 -1.76653 0
M  V30 3999 O 382.204 1.58252 -1.13078 0
M  V30 4000 C 382.487 -1.056 -3.44268 0
M  V30 4001 C 382.34 -2.57906 -3.68516 0
M  V30 4002 C 383.659 -0.603781 -4.35939 0
M  V30 4003 H 380.778 -0.24065 -0.696604 0
M  V30 4004 H 383.42 -1.22783 -1.44998 0
M  V30 4005 H 381.57 -0.571445 -3.84274 0
M  V30 4006 H 383.242 -3.13976 -3.3796 0
M  V30 4007 H 381.485 -3.00305 -3.13048 0
M  V30 4008 H 382.156 -2.80779 -4.75255 0
M  V30 4009 H 384.632 -1.01987 -4.03408 0
M  V30 4010 H 383.508 -0.910383 -5.41298 0
M  V30 4011 H 383.769 0.495761 -4.39312 0
M  V30 4012 N 382.828 1.3818 -0.7579 0
M  V30 4013 C 383.775 2.30416 -0.133057 0
M  V30 4014 C 384.745 1.50398 0.704957 0
M  V30 4015 O 385.93 1.79014 0.660192 0
M  V30 4016 C 383.07 3.36834 0.750813 0
M  V30 4017 C 382.183 4.31879 -0.102297 0
M  V30 4018 C 381.318 5.25368 0.784979 0
M  V30 4019 C 380.357 6.12058 -0.0715046 0
M  V30 4020 N 379.494 6.97832 0.772972 0
M  V30 4021 H 384.334 2.83274 -0.925186 0
M  V30 4022 H 381.871 1.39461 -0.467866 0
M  V30 4023 H 383.829 3.97145 1.27794 0
M  V30 4024 H 382.459 2.85374 1.50868 0
M  V30 4025 H 381.511 3.72991 -0.747095 0
M  V30 4026 H 382.823 4.92921 -0.763552 0
M  V30 4027 H 381.977 5.90818 1.37911 0
M  V30 4028 H 380.716 4.64703 1.47996 0
M  V30 4029 H 379.721 5.456 -0.678272 0
M  V30 4030 H 380.946 6.74793 -0.763606 0
M  V30 4031 H 378.892 6.3971 1.45282 0
M  V30 4032 H 378.809 7.55812 0.168709 0
M  V30 4033 H 380.077 7.67687 1.35194 0
M  V30 4034 N 384.306 0.507319 1.49211 0
M  V30 4035 C 385.534 -0.0315749 2.06876 0
M  V30 4036 C 385.949 -1.30241 1.36685 0
M  V30 4037 O 385.306 -1.76937 0.447152 0
M  V30 4038 C 385.357 -0.282627 3.60393 0
M  V30 4039 O 385.078 0.937835 4.27944 0
M  V30 4040 C 386.579 -0.864453 4.3479 0
M  V30 4041 H 383.799 0.0233048 0.670595 0
M  V30 4042 H 386.343 0.706484 1.91909 0
M  V30 4043 H 384.498 -0.97068 3.75042 0
M  V30 4044 H 384.912 0.704567 5.19746 0
M  V30 4045 H 386.386 -0.989664 5.43056 0
M  V30 4046 H 386.863 -1.86382 3.97692 0
M  V30 4047 H 387.469 -0.213672 4.24763 0
M  V30 4048 N 385.784 -1.5574 0.241426 0
M  V30 4049 C 387.009 -2.0366 -0.392111 0
M  V30 4050 C 387.434 -1.11969 -1.51144 0
M  V30 4051 O 386.792 -0.111594 -1.80956 0
M  V30 4052 C 386.84 -3.49638 -0.882371 0
M  V30 4053 O 385.944 -3.6108 -1.99235 0
M  V30 4054 H 385.285 -0.658379 -0.0862122 0
M  V30 4055 H 387.815 -2.01302 0.365881 0
M  V30 4056 H 387.825 -3.90351 -1.18702 0
M  V30 4057 H 386.5 -4.15852 -0.0632361 0
M  V30 4058 H 385.077 -3.32262 -1.69282 0
M  V30 4059 N 387.262 0.0317525 -1.57568 0
M  V30 4060 C 388.51 0.721676 -1.88776 0
M  V30 4061 C 388.831 1.76039 -0.838772 0
M  V30 4062 O 388.101 1.95482 0.127935 0
M  V30 4063 H 386.681 0.269534 -0.696678 0
M  V30 4064 H 389.343 -0.00165879 -1.949 0
M  V30 4065 H 388.439 1.21293 -2.87566 0
M  V30 4066 N 388.74 1.54641 0.303973 0
M  V30 4067 C 389.687 1.85386 1.37479 0
M  V30 4068 C 390.657 0.702528 1.50512 0
M  V30 4069 O 391.842 0.950867 1.65418 0
M  V30 4070 C 388.982 2.10413 2.73533 0
M  V30 4071 C 388.095 3.38049 2.68974 0
M  V30 4072 C 387.23 3.52934 3.97002 0
M  V30 4073 C 386.269 4.74373 3.86829 0
M  V30 4074 N 385.406 4.8608 5.06627 0
M  V30 4075 H 390.246 2.76732 1.1056 0
M  V30 4076 H 387.783 1.37034 0.534805 0
M  V30 4077 H 389.741 2.22919 3.52652 0
M  V30 4078 H 388.371 1.22338 2.98719 0
M  V30 4079 H 387.423 3.3418 1.81736 0
M  V30 4080 H 388.735 4.27288 2.57346 0
M  V30 4081 H 387.889 3.65088 4.84557 0
M  V30 4082 H 386.628 2.61824 4.1146 0
M  V30 4083 H 385.633 4.62255 2.97658 0
M  V30 4084 H 386.858 5.66888 3.73918 0
M  V30 4085 H 384.804 3.97891 5.21554 0
M  V30 4086 H 384.721 5.69315 4.9741 0
M  V30 4087 H 385.989 5.02587 5.95841 0
M  V30 4088 N 390.218 -0.567019 1.47046 0
M  V30 4089 C 391.464 -1.32658 1.53394 0
M  V30 4090 C 391.797 -1.93254 0.19148 0
M  V30 4091 O 391.072 -1.77338 -0.798844 0
M  V30 4092 C 391.355 -2.44412 2.64452 0
M  V30 4093 C 391.208 -1.88749 4.08282 0
M  V30 4094 C 392.527 -3.46387 2.71485 0
M  V30 4095 H 389.646 -0.48098 0.558415 0
M  V30 4096 H 392.288 -0.635481 1.79058 0
M  V30 4097 H 390.438 -3.03363 2.427 0
M  V30 4098 H 392.11 -1.34134 4.41368 0
M  V30 4099 H 390.353 -1.19481 4.17021 0
M  V30 4100 H 391.024 -2.69491 4.81745 0
M  V30 4101 H 393.5 -2.9734 2.91081 0
M  V30 4102 H 392.376 -4.2202 3.50985 0
M  V30 4103 H 392.637 -4.04616 1.78153 0
M  V30 4104 N 391.696 -1.35014 -0.812953 0
M  V30 4105 C 392.942 -1.2812 -1.57204 0
M  V30 4106 C 393.275 0.145869 -1.93651 0
M  V30 4107 O 392.55 1.0937 -1.60836 0
M  V30 4108 C 392.833 -2.18162 -2.86492 0
M  V30 4109 C 392.686 -3.69454 -2.56561 0
M  V30 4110 C 394.005 -2.07439 -3.88145 0
M  V30 4111 H 391.124 -0.466746 -0.570366 0
M  V30 4112 H 393.766 -1.65357 -0.935783 0
M  V30 4113 H 391.916 -1.86535 -3.40789 0
M  V30 4114 H 393.588 -4.11493 -2.08497 0
M  V30 4115 H 391.831 -3.9005 -1.89851 0
M  V30 4116 H 392.502 -4.27835 -3.48799 0
M  V30 4117 H 394.978 -2.35228 -3.4323 0
M  V30 4118 H 393.854 -2.7265 -4.76396 0
M  V30 4119 H 394.115 -1.05439 -4.29343 0
M  V30 4120 N 393.175 1.03435 -1.18907 0
M  V30 4121 C 394.421 1.7713 -0.99982 0
M  V30 4122 C 394.776 1.86695 0.465049 0
M  V30 4123 O 394.069 1.36866 1.34083 0
M  V30 4124 C 394.263 3.19792 -1.59586 0
M  V30 4125 C 394.092 3.24134 -3.11717 0
M  V30 4126 C 392.862 3.32398 -3.80578 0
M  V30 4127 C 395.06 3.11625 -4.09138 0
M  V30 4128 N 393.042 3.26055 -5.20155 0
M  V30 4129 C 394.413 3.12855 -5.35277 0
M  V30 4130 C 396.468 2.95713 -4.00572 0
M  V30 4131 C 395.171 2.99805 -6.53842 0
M  V30 4132 C 397.197 2.84011 -5.1874 0
M  V30 4133 C 396.559 2.8589 -6.43775 0
M  V30 4134 H 392.658 0.659683 -0.419931 0
M  V30 4135 H 395.242 1.2317 -1.50789 0
M  V30 4136 H 393.413 3.72085 -1.11389 0
M  V30 4137 H 395.145 3.81819 -1.3415 0
M  V30 4138 H 391.9 3.38392 -3.31342 0
M  V30 4139 H 392.324 3.26307 -5.93172 0
M  V30 4140 H 396.966 2.93086 -3.0473 0
M  V30 4141 H 394.684 3.01184 -7.49876 0
M  V30 4142 H 398.27 2.72744 -5.13909 0
M  V30 4143 H 397.15 2.76931 -7.33675 0
M  V30 4144 N 394.653 0.992116 1.22453 0
M  V30 4145 C 395.902 0.662992 1.90492 0
M  V30 4146 C 396.215 -0.808407 1.78113 0
M  V30 4147 O 397.421 -1.24908 2.41061 0
M  V30 4148 C 395.877 1.1353 3.41524 0
M  V30 4149 C 395.485 2.63187 3.62542 0
M  V30 4150 C 397.229 0.880465 4.15269 0
M  V30 4151 C 395.136 3.04024 5.0727 0
M  V30 4152 H 394.066 0.244278 0.713333 0
M  V30 4153 H 396.717 1.20157 1.38688 0
M  V30 4154 H 395.099 0.52485 3.92506 0
M  V30 4155 H 396.273 3.2957 3.22056 0
M  V30 4156 H 394.588 2.86543 3.02129 0
M  V30 4157 H 397.185 1.16128 5.21937 0
M  V30 4158 H 397.528 -0.183408 4.15896 0
M  V30 4159 H 398.061 1.45307 3.70312 0
M  V30 4160 H 394.8 4.09584 5.11782 0
M  V30 4161 H 394.32 2.42343 5.48662 0
M  V30 4162 H 395.999 2.95282 5.75689 0
M  V30 4163 N 396.131 -1.37776 0.765217 0
M  V30 4164 C 397.359 -2.04124 0.337767 0
M  V30 4165 C 397.774 -1.57715 -1.03785 0
M  V30 4166 O 397.131 -0.755447 -1.6613 0
M  V30 4167 C 397.182 -3.59658 0.364442 0
M  V30 4168 O 396.903 -4.04367 1.68579 0
M  V30 4169 C 398.404 -4.43236 -0.0754221 0
M  V30 4170 H 395.624 -0.655696 0.142491 0
M  V30 4171 H 398.168 -1.76238 1.03732 0
M  V30 4172 H 396.323 -3.86339 -0.286471 0
M  V30 4173 H 396.737 -4.98857 1.61993 0
M  V30 4174 H 398.211 -5.52 -0.00560067 0
M  V30 4175 H 398.688 -4.2455 -1.12491 0
M  V30 4176 H 399.294 -4.21767 0.547055 0
M  V30 4177 N 397.609 -0.515225 -1.4894 0
M  V30 4178 C 398.572 0.244681 -2.2789 0
M  V30 4179 C 399.572 0.881166 -1.34507 0
M  V30 4180 O 400.762 0.743497 -1.57537 0
M  V30 4181 C 397.894 1.35247 -3.12923 0
M  V30 4182 H 399.087 -0.448289 -2.96531 0
M  V30 4183 H 396.64 -0.270656 -1.53939 0
M  V30 4184 H 397.375 2.07916 -2.48881 0
M  V30 4185 H 397.16 0.901374 -3.81599 0
M  V30 4186 H 398.65 1.88737 -3.72516 0
M  V30 4187 N 399.087 1.5561 -0.249682 0
M  V30 4188 C 400.315 2.03411 0.378352 0
M  V30 4189 C 400.73 1.12886 1.51335 0
M  V30 4190 O 400.087 0.143833 1.81932 0
M  V30 4191 C 400.138 3.50537 0.88351 0
M  V30 4192 O 399.859 4.37614 -0.20626 0
M  V30 4193 C 401.36 4.14113 1.58195 0
M  V30 4194 H 398.58 0.664994 0.08958 0
M  V30 4195 H 401.124 2.01044 -0.374357 0
M  V30 4196 H 399.279 3.5343 1.58639 0
M  V30 4197 H 399.693 5.24199 0.177782 0
M  V30 4198 H 401.167 5.18741 1.8871 0
M  V30 4199 H 401.644 3.60767 2.50487 0
M  V30 4200 H 402.25 4.15151 0.923573 0
M  V30 4201 N 400.565 -0.0233959 1.57583 0
M  V30 4202 C 401.498 -1.05549 2.02323 0
M  V30 4203 C 402.476 -1.34843 0.908626 0
M  V30 4204 O 403.66 -1.47404 1.17491 0
M  V30 4205 C 400.787 -2.38885 2.40108 0
M  V30 4206 C 399.833 -2.2541 3.62067 0
M  V30 4207 S 400.666 -1.60217 5.1097 0
M  V30 4208 C 401.822 -2.95032 5.52003 0
M  V30 4209 H 402.055 -0.674435 2.89549 0
M  V30 4210 H 399.588 -0.23355 1.52623 0
M  V30 4211 H 401.546 -3.15562 2.62547 0
M  V30 4212 H 400.207 -2.74137 1.53323 0
M  V30 4213 H 399.4 -3.23854 3.86179 0
M  V30 4214 H 399.002 -1.56876 3.39508 0
M  V30 4215 H 401.294 -3.91357 5.53033 0
M  V30 4216 H 402.237 -2.75646 6.52246 0
M  V30 4217 H 402.645 -2.97865 4.79517 0
M  V30 4218 N 402.043 -1.548 -0.295768 0
M  V30 4219 C 403.454 -1.65274 -0.868411 0
M  V30 4220 C 403.805 -0.56481 -1.87894 0
M  V30 4221 O 402.93 0.29767 -2.14343 0
M  V30 4222 C 403.525 -2.99603 -1.58188 0
M  V30 4223 C 402.084 -3.12181 -2.10286 0
M  V30 4224 C 401.231 -2.6098 -0.93727 0
M  V30 4225 H 404.182 -1.58534 -0.0726422 0
M  V30 4226 H 404.203 -2.91319 -2.44772 0
M  V30 4227 H 403.715 -3.78764 -0.846151 0
M  V30 4228 H 401.816 -2.3775 -2.8689 0
M  V30 4229 H 401.929 -4.18415 -2.33379 0
M  V30 4230 H 400.293 -2.17564 -1.32431 0
M  V30 4231 H 401.076 -3.42623 -0.215414 0
M  V30 4232 N 403.521 0.559213 -1.47345 0
M  V30 4233 C 404.751 1.33999 -1.57251 0
M  V30 4234 C 405.159 1.87905 -0.220978 0
M  V30 4235 O 404.502 1.65577 0.795617 0
M  V30 4236 C 404.564 2.54798 -2.53611 0
M  V30 4237 C 404.228 2.22192 -3.99349 0
M  V30 4238 C 405.225 1.79607 -4.87891 0
M  V30 4239 C 402.91 2.33613 -4.44669 0
M  V30 4240 C 404.904 1.48868 -6.19772 0
M  V30 4241 C 402.591 2.02487 -5.76578 0
M  V30 4242 C 403.589 1.60183 -6.63951 0
M  V30 4243 O 403.277 1.29451 -7.93409 0
M  V30 4244 H 403.009 0.414858 -0.533731 0
M  V30 4245 H 405.563 0.684465 -1.9366 0
M  V30 4246 H 403.793 3.23235 -2.12265 0
M  V30 4247 H 405.482 3.16873 -2.53666 0
M  V30 4248 H 406.248 1.70278 -4.54126 0
M  V30 4249 H 402.127 2.65501 -3.76869 0
M  V30 4250 H 405.671 1.15775 -6.87926 0
M  V30 4251 H 401.568 2.11448 -6.09885 0
M  V30 4252 H 402.336 1.43098 -8.05894 0
M  V30 4253 N 404.999 1.35443 0.805782 0
M  V30 4254 C 406.245 1.28952 1.56522 0
M  V30 4255 C 406.578 -0.135597 1.93726 0
M  V30 4256 O 405.853 -1.08516 1.61414 0
M  V30 4257 C 406.136 2.19678 2.85331 0
M  V30 4258 C 405.989 3.7081 2.54598 0
M  V30 4259 C 407.308 2.09495 3.8704 0
M  V30 4260 H 404.427 0.469764 0.567883 0
M  V30 4261 H 407.069 1.65851 0.927001 0
M  V30 4262 H 405.219 1.8834 3.39795 0
M  V30 4263 H 406.891 4.12593 2.06312 0
M  V30 4264 H 405.134 3.91051 1.8778 0
M  V30 4265 H 405.805 4.29679 3.46525 0
M  V30 4266 H 408.281 2.37045 3.41978 0
M  V30 4267 H 407.157 2.75173 4.74943 0
M  V30 4268 H 407.418 1.07714 4.28777 0
M  V30 4269 N 406.477 -1.02803 1.19454 0
M  V30 4270 C 407.723 -1.76478 0.999171 0
M  V30 4271 C 408.056 -1.88456 -0.468828 0
M  V30 4272 O 407.331 -1.40198 -1.34814 0
M  V30 4273 C 407.614 -3.19044 1.66981 0
M  V30 4274 C 407.467 -3.14932 3.21151 0
M  V30 4275 C 408.786 -4.17456 1.39349 0
M  V30 4276 H 405.905 -0.640614 0.364393 0
M  V30 4277 H 408.547 -1.20005 1.47305 0
M  V30 4278 H 406.697 -3.67263 1.2669 0
M  V30 4279 H 408.369 -2.74605 3.70661 0
M  V30 4280 H 406.612 -2.52625 3.52652 0
M  V30 4281 H 407.283 -4.1566 3.63223 0
M  V30 4282 H 409.759 -3.77842 1.74283 0
M  V30 4283 H 408.635 -5.154 1.88823 0
M  V30 4284 H 408.896 -4.40949 0.318813 0
M  V30 4285 N 407.956 -0.998596 -1.21925 0
M  V30 4286 C 408.886 -0.573688 -2.26343 0
M  V30 4287 C 409.867 0.402296 -1.65274 0
M  V30 4288 O 411.052 0.291683 -1.91997 0
M  V30 4289 C 408.182 0.106839 -3.47136 0
M  V30 4290 C 407.136 -0.788269 -4.20678 0
M  V30 4291 C 406.462 0.0254927 -5.34694 0
M  V30 4292 C 407.762 -2.08784 -4.78755 0
M  V30 4293 H 409.456 -1.44651 -2.62138 0
M  V30 4294 H 407.002 -0.696975 -1.26009 0
M  V30 4295 H 408.955 0.415531 -4.19346 0
M  V30 4296 H 407.679 1.01424 -3.10452 0
M  V30 4297 H 406.338 -1.08069 -3.50309 0
M  V30 4298 H 405.986 0.933989 -4.94253 0
M  V30 4299 H 405.686 -0.570437 -5.84825 0
M  V30 4300 H 407.21 0.328147 -6.09718 0
M  V30 4301 H 408.624 -1.84272 -5.42878 0
M  V30 4302 H 407.021 -2.63307 -5.39249 0
M  V30 4303 H 408.091 -2.76284 -3.98491 0
M  V30 4304 N 409.434 1.37368 -0.772513 0
M  V30 4305 C 410.662 2.03942 -0.348588 0
M  V30 4306 C 411.077 1.58264 1.02947 0
M  V30 4307 O 410.434 0.764246 1.65727 0
M  V30 4308 C 410.485 3.5946 -0.38351 0
M  V30 4309 O 410.206 4.03468 -1.70721 0
M  V30 4310 C 411.707 4.4327 0.0519152 0
M  V30 4311 H 408.927 0.654931 -0.145966 0
M  V30 4312 H 411.471 1.75686 -1.04665 0
M  V30 4313 H 409.626 3.86486 0.265978 0
M  V30 4314 H 410.04 4.97991 -1.64636 0
M  V30 4315 H 411.514 5.51995 -0.0236733 0
M  V30 4316 H 411.991 4.2514 1.10238 0
M  V30 4317 H 412.597 4.21471 -0.569415 0
M  V30 4318 N 410.912 0.523116 1.48665 0
M  V30 4319 C 411.875 -0.232592 2.28017 0
M  V30 4320 C 412.875 -0.874021 1.34972 0
M  V30 4321 O 414.065 -0.735132 1.57929 0
M  V30 4322 C 411.197 -1.33586 3.13636 0
M  V30 4323 H 412.39 0.464008 2.96289 0
M  V30 4324 H 409.943 0.278816 1.53793 0
M  V30 4325 H 410.678 -2.06593 2.4998 0
M  V30 4326 H 410.463 -0.881125 3.82071 0
M  V30 4327 H 411.953 -1.86759 3.73511 0
M  V30 4328 N 412.39 -1.55475 0.257931 0
M  V30 4329 C 413.32 -2.24815 -0.630912 0
M  V30 4330 C 414.301 -1.23224 -1.17259 0
M  V30 4331 O 415.486 -1.51904 -1.20991 0
M  V30 4332 C 412.616 -2.95609 -1.82298 0
M  V30 4333 C 411.57 -4.03982 -1.41359 0
M  V30 4334 C 410.896 -4.6226 -2.68738 0
M  V30 4335 C 412.196 -5.19109 -0.57648 0
M  V30 4336 H 413.89 -2.99354 -0.0526878 0
M  V30 4337 H 411.436 -1.4398 -0.023901 0
M  V30 4338 H 413.389 -3.42822 -2.45054 0
M  V30 4339 H 412.113 -2.18577 -2.42676 0
M  V30 4340 H 410.772 -3.57555 -0.809324 0
M  V30 4341 H 410.42 -3.81915 -3.27338 0
M  V30 4342 H 410.12 -5.35424 -2.42065 0
M  V30 4343 H 411.644 -5.12212 -3.32372 0
M  V30 4344 H 413.058 -5.62479 -1.10861 0
M  V30 4345 H 411.455 -5.98729 -0.405351 0
M  V30 4346 H 412.525 -4.83174 0.408776 0
M  V30 4347 N 413.868 0.0150385 -1.57593 0
M  V30 4348 C 414.798 1.01047 -2.10503 0
M  V30 4349 C 415.779 1.36816 -1.01071 0
M  V30 4350 O 416.964 1.45455 -1.28672 0
M  V30 4351 C 414.094 2.30708 -2.59598 0
M  V30 4352 C 413.048 2.09142 -3.73421 0
M  V30 4353 C 412.374 3.44685 -4.08774 0
M  V30 4354 C 413.674 1.46619 -5.01298 0
M  V30 4355 H 415.368 0.569978 -2.93925 0
M  V30 4356 H 412.914 0.272724 -1.41394 0
M  V30 4357 H 414.867 3.00687 -2.95238 0
M  V30 4358 H 413.591 2.76843 -1.73279 0
M  V30 4359 H 412.25 1.41592 -3.38153 0
M  V30 4360 H 411.898 3.88495 -3.195 0
M  V30 4361 H 411.598 3.31077 -4.8545 0
M  V30 4362 H 413.122 4.16004 -4.4696 0
M  V30 4363 H 414.536 2.06535 -5.34805 0
M  V30 4364 H 412.933 1.43544 -5.82679 0
M  V30 4365 H 414.003 0.433611 -4.82957 0
M  V30 4366 N 415.346 1.54954 0.287554 0
M  V30 4367 C 416.276 1.89839 1.35954 0
M  V30 4368 C 417.257 0.758675 1.52244 0
M  V30 4369 O 418.442 1.01557 1.65529 0
M  V30 4370 C 415.572 2.15753 2.72154 0
M  V30 4371 C 414.526 3.3159 2.70614 0
M  V30 4372 C 413.852 3.42952 4.10229 0
M  V30 4373 C 415.152 4.68359 2.31165 0
M  V30 4374 H 416.846 2.79625 1.07007 0
M  V30 4375 H 414.392 1.3454 0.513316 0
M  V30 4376 H 416.345 2.38743 3.47246 0
M  V30 4377 H 415.069 1.22752 3.02654 0
M  V30 4378 H 413.728 3.08545 1.97979 0
M  V30 4379 H 413.376 2.47443 4.37928 0
M  V30 4380 H 413.076 4.20826 4.10097 0
M  V30 4381 H 414.6 3.68218 4.87081 0
M  V30 4382 H 416.014 4.9099 2.95976 0
M  V30 4383 H 414.411 5.49044 2.42221 0
M  V30 4384 H 415.481 4.68165 1.26291 0
M  V30 4385 N 416.824 -0.551391 1.4764 0
M  V30 4386 C 418.24 -0.877887 1.33287 0
M  V30 4387 C 418.44 -1.98817 0.327721 0
M  V30 4388 O 417.496 -2.51171 -0.258695 0
M  V30 4389 C 418.809 -1.26563 2.72768 0
M  V30 4390 C 420.357 -1.37673 2.81097 0
M  V30 4391 C 420.832 -1.79799 4.21232 0
M  V30 4392 N 422.323 -1.8694 4.23802 0
M  V30 4393 C 423.058 -2.20876 5.29151 0
M  V30 4394 N 422.554 -2.53386 6.448 0
M  V30 4395 N 424.347 -2.217 5.16532 0
M  V30 4396 H 416.498 0.18153 2.11623 0
M  V30 4397 H 418.761 0.0185514 0.947818 0
M  V30 4398 H 418.467 -0.523591 3.47781 0
M  V30 4399 H 418.341 -2.22052 3.04915 0
M  V30 4400 H 420.728 -2.10956 2.06353 0
M  V30 4401 H 420.809 -0.40357 2.52596 0
M  V30 4402 H 420.453 -1.07083 4.96483 0
M  V30 4403 H 420.383 -2.78128 4.4716 0
M  V30 4404 H 422.874 -1.64179 3.40373 0
M  V30 4405 H 423.187 -2.78325 7.20941 0
M  V30 4406 H 421.532 -2.50953 6.48111 0
M  V30 4407 H 424.723 -1.95745 4.25207 0
M  V30 4408 H 424.896 -2.47818 5.98741 0
M  V30 4409 N 418.302 -1.35869 -0.798587 0
M  V30 4410 C 419.55 -1.29332 -1.55298 0
M  V30 4411 C 419.871 0.129729 -1.94568 0
M  V30 4412 O 419.141 1.06796 -1.6423 0
M  V30 4413 H 417.721 -0.475737 -0.57592 0
M  V30 4414 H 420.383 -1.70062 -0.952093 0
M  V30 4415 H 419.479 -1.91458 -2.46476 0
M  V30 4416 N 419.78 1.02168 -1.19998 0
M  V30 4417 C 421.026 1.75945 -1.00852 0
M  V30 4418 C 421.359 1.88702 0.458828 0
M  V30 4419 O 420.634 1.40911 1.34069 0
M  V30 4420 C 420.917 3.18154 -1.68671 0
M  V30 4421 C 420.77 3.13224 -3.22817 0
M  V30 4422 C 422.089 4.16711 -1.41561 0
M  V30 4423 H 419.208 0.638673 -0.367785 0
M  V30 4424 H 421.85 1.19222 -1.4794 0
M  V30 4425 H 420 3.66586 -1.28636 0
M  V30 4426 H 421.672 2.72635 -3.72112 0
M  V30 4427 H 419.915 2.50751 -3.53986 0
M  V30 4428 H 420.586 4.13728 -3.65422 0
M  V30 4429 H 423.062 3.76913 -1.76284 0
M  V30 4430 H 421.938 5.14391 -1.91553 0
M  V30 4431 H 422.199 4.40774 -0.342193 0
M  V30 4432 N 421.258 1.00505 1.21394 0
M  V30 4433 C 422.486 0.706609 1.9446 0
M  V30 4434 C 422.901 -0.73081 1.74082 0
M  V30 4435 O 422.258 -1.49446 1.04747 0
M  V30 4436 C 422.309 1.01824 3.46863 0
M  V30 4437 O 422.03 2.39919 3.66566 0
M  V30 4438 C 423.531 0.739216 4.37093 0
M  V30 4439 H 420.751 0.260394 0.618414 0
M  V30 4440 H 423.295 1.34311 1.54211 0
M  V30 4441 H 421.45 0.427343 3.85036 0
M  V30 4442 H 421.864 2.50784 4.6066 0
M  V30 4443 H 423.338 1.00744 5.42729 0
M  V30 4444 H 423.815 -0.326746 4.37983 0
M  V30 4445 H 424.421 1.31173 4.04566 0
M  V30 4446 N 422.737 -1.36956 0.779787 0
M  V30 4447 C 423.667 -2.32761 0.185651 0
M  V30 4448 C 424.648 -1.56177 -0.673989 0
M  V30 4449 O 425.833 -1.84378 -0.609797 0
M  V30 4450 C 422.963 -3.40418 -0.687964 0
M  V30 4451 C 421.917 -4.27941 0.0710102 0
M  V30 4452 C 421.243 -5.26681 -0.922573 0
M  V30 4453 C 422.543 -5.07006 1.25467 0
M  V30 4454 H 424.237 -2.82698 0.986008 0
M  V30 4455 H 421.783 -1.3592 0.475592 0
M  V30 4456 H 423.736 -4.06423 -1.11348 0
M  V30 4457 H 422.46 -2.89025 -1.52093 0
M  V30 4458 H 421.119 -3.63478 0.47739 0
M  V30 4459 H 420.767 -4.71565 -1.7503 0
M  V30 4460 H 420.467 -5.86103 -0.419237 0
M  V30 4461 H 421.991 -5.9556 -1.34686 0
M  V30 4462 H 423.405 -5.66105 0.905401 0
M  V30 4463 H 421.802 -5.75793 1.69063 0
M  V30 4464 H 422.872 -4.3921 2.05481 0
M  V30 4465 N 424.215 -0.530993 -1.48385 0
M  V30 4466 C 425.626 -0.0907905 -1.86479 0
M  V30 4467 C 425.977 1.33213 -1.44044 0
M  V30 4468 O 425.102 1.99783 -0.831615 0
M  V30 4469 C 425.697 -0.157987 -3.38431 0
M  V30 4470 C 424.256 0.227026 -3.75715 0
M  V30 4471 C 423.403 -0.5173 -2.72432 0
M  V30 4472 H 426.354 -0.742186 -1.40276 0
M  V30 4473 H 426.375 0.630053 -3.75247 0
M  V30 4474 H 425.887 -1.19372 -3.69286 0
M  V30 4475 H 423.988 1.26486 -3.50474 0
M  V30 4476 H 424.101 -0.113288 -4.78966 0
M  V30 4477 H 422.465 0.0365527 -2.54674 0
M  V30 4478 H 423.248 -1.55368 -3.0613 0
M  V30 4479 N 425.693 1.55336 -0.266172 0
M  V30 4480 C 426.941 1.99003 0.35246 0
M  V30 4481 C 427.262 1.15591 1.57047 0
M  V30 4482 O 426.532 0.243268 1.94384 0
M  V30 4483 H 425.112 0.735025 0.133217 0
M  V30 4484 H 427.774 1.91367 -0.369434 0
M  V30 4485 H 426.87 3.05289 0.648453 0
M  V30 4486 N 427.171 -0.0066808 1.57599 0
M  V30 4487 C 428.134 -0.985035 2.06953 0
M  V30 4488 C 429.134 -1.27663 0.977687 0
M  V30 4489 O 430.324 -1.22293 1.24057 0
M  V30 4490 C 427.456 -2.3118 2.50536 0
M  V30 4491 H 428.649 -0.558255 2.94658 0
M  V30 4492 H 426.202 -0.254011 1.54222 0
M  V30 4493 H 426.937 -2.78561 1.66054 0
M  V30 4494 H 426.722 -2.11338 3.3027 0
M  V30 4495 H 428.212 -3.01377 2.8907 0
M  V30 4496 N 428.649 -1.55105 -0.279332 0
M  V30 4497 C 429.898 -1.74618 -1.00952 0
M  V30 4498 C 430.211 -0.551096 -1.87676 0
M  V30 4499 O 431.417 -0.628507 -2.64125 0
M  V30 4500 C 429.873 -3.09025 -1.84476 0
M  V30 4501 C 429.481 -4.36081 -1.0265 0
M  V30 4502 C 431.225 -3.37891 -2.56963 0
M  V30 4503 C 429.132 -5.6153 -1.85576 0
M  V30 4504 H 428.062 -0.650868 -0.38064 0
M  V30 4505 H 430.713 -1.81569 -0.265475 0
M  V30 4506 H 429.095 -2.96095 -2.62952 0
M  V30 4507 H 430.269 -4.59909 -0.286354 0
M  V30 4508 H 428.584 -4.14312 -0.416464 0
M  V30 4509 H 431.181 -4.28822 -3.19399 0
M  V30 4510 H 431.524 -2.57737 -3.26921 0
M  V30 4511 H 432.057 -3.5189 -1.85522 0
M  V30 4512 H 428.796 -6.44413 -1.2005 0
M  V30 4513 H 428.316 -5.41854 -2.57204 0
M  V30 4514 H 429.995 -5.99594 -2.43096 0
M  V30 4515 N 430.127 0.543554 -1.4793 0
M  V30 4516 C 431.404 1.30458 -1.4574 0
M  V30 4517 C 431.784 2.1048 -0.161692 0
M  V30 4518 O 431.132 2.11831 0.856734 0
M  V30 4519 C 431.342 2.19754 -2.71126 0
M  V30 4520 C 432.69 2.80334 -3.18901 0
M  V30 4521 O 433.714 2.30049 -2.71948 0
M  V30 4522 O 432.573 3.71766 -4.00565 0
M  V30 4523 H 429.667 0.588117 -0.581418 0
M  V30 4524 H 432.213 0.561328 -1.60147 0
M  V30 4525 H 430.985 1.60316 -3.56952 0
M  V30 4526 H 430.608 3.01351 -2.59371 0
M  V30 4527 N 431.605 1.3629 0.791371 0
M  V30 4528 C 432.853 1.30154 1.5461 0
M  V30 4529 C 433.174 -0.119409 1.94634 0
M  V30 4530 O 432.444 -1.05924 1.64794 0
M  V30 4531 H 431.024 0.478784 0.573389 0
M  V30 4532 H 433.686 1.70565 0.94306 0
M  V30 4533 H 432.782 1.92762 2.45457 0
M  V30 4534 N 433.083 -1.0153 1.20538 0
M  V30 4535 C 434.332 -1.74558 1.01057 0
M  V30 4536 C 434.645 -1.90168 -0.457756 0
M  V30 4537 O 435.851 -2.60301 -0.771722 0
M  V30 4538 C 434.307 -3.13963 1.75941 0
M  V30 4539 C 433.915 -3.06361 3.26875 0
M  V30 4540 C 435.659 -3.91191 1.64832 0
M  V30 4541 C 433.566 -4.40782 3.94291 0
M  V30 4542 H 432.496 -0.654417 0.374505 0
M  V30 4543 H 435.147 -1.13521 1.44171 0
M  V30 4544 H 433.529 -3.75549 1.25614 0
M  V30 4545 H 434.703 -2.54074 3.84425 0
M  V30 4546 H 433.018 -2.42625 3.38411 0
M  V30 4547 H 435.615 -4.90644 2.12539 0
M  V30 4548 H 435.958 -4.11884 0.604745 0
M  V30 4549 H 436.491 -3.36236 2.12579 0
M  V30 4550 H 433.23 -4.25292 4.98805 0
M  V30 4551 H 432.75 -4.9307 3.41529 0
M  V30 4552 H 434.429 -5.09621 3.98617 0
M  V30 4553 N 434.561 -1.01147 -1.20859 0
M  V30 4554 C 435.977 -0.725422 -1.42161 0
M  V30 4555 C 436.177 0.696919 -1.89064 0
M  V30 4556 O 435.233 1.46539 -2.05627 0
M  V30 4557 C 436.546 -1.74678 -2.44761 0
M  V30 4558 C 438.094 -1.76433 -2.58535 0
M  V30 4559 C 438.569 -2.77481 -3.64374 0
M  V30 4560 N 440.06 -2.76189 -3.71852 0
M  V30 4561 C 440.795 -3.51035 -4.53389 0
M  V30 4562 N 440.291 -4.35541 -5.38773 0
M  V30 4563 N 442.084 -3.39655 -4.47873 0
M  V30 4564 H 434.235 -1.92979 -0.887282 0
M  V30 4565 H 436.498 -0.833327 -0.451962 0
M  V30 4566 H 436.204 -2.76551 -2.17285 0
M  V30 4567 H 436.078 -1.55472 -3.43669 0
M  V30 4568 H 438.465 -0.75248 -2.85345 0
M  V30 4569 H 438.546 -1.99712 -1.5984 0
M  V30 4570 H 438.19 -3.78827 -3.38308 0
M  V30 4571 H 438.12 -2.51466 -4.6268 0
M  V30 4572 H 440.611 -2.14885 -3.10858 0
M  V30 4573 H 440.924 -4.89432 -5.98061 0
M  V30 4574 H 439.269 -4.39621 -5.38292 0
M  V30 4575 H 442.46 -2.73063 -3.80203 0
M  V30 4576 H 442.633 -3.9824 -5.11184 0
M  V30 4577 N 436.039 1.36541 -0.78704 0
M  V30 4578 C 437.002 2.28413 -0.189778 0
M  V30 4579 C 438.002 1.48719 0.611499 0
M  V30 4580 O 439.192 1.68737 0.432842 0
M  V30 4581 C 436.324 3.32824 0.737638 0
M  V30 4582 H 437.517 2.82743 -0.999831 0
M  V30 4583 H 435.07 1.46065 -0.556298 0
M  V30 4584 H 435.805 2.83646 1.57212 0
M  V30 4585 H 435.59 3.91752 0.165044 0
M  V30 4586 H 437.08 4.0144 1.15047 0
M  V30 4587 N 437.518 0.538854 1.48102 0
M  V30 4588 C 438.748 0.0122958 2.06596 0
M  V30 4589 C 439.156 -1.27861 1.39457 0
M  V30 4590 O 438.499 -1.77348 0.478907 0
M  V30 4591 C 438.561 -0.273131 3.58461 0
M  V30 4592 C 438.225 0.92561 4.47528 0
M  V30 4593 C 439.222 1.82637 4.86765 0
M  V30 4594 C 436.907 1.13511 4.89306 0
M  V30 4595 C 438.901 2.92047 5.66558 0
M  V30 4596 C 436.588 2.23233 5.68868 0
M  V30 4597 C 437.586 3.12333 6.07402 0
M  V30 4598 O 437.274 4.20155 6.85365 0
M  V30 4599 H 437.006 0.0344283 0.675123 0
M  V30 4600 H 439.56 0.746494 1.91355 0
M  V30 4601 H 437.79 -1.06141 3.71848 0
M  V30 4602 H 439.479 -0.742842 3.99045 0
M  V30 4603 H 440.245 1.67649 4.55103 0
M  V30 4604 H 436.124 0.450835 4.5879 0
M  V30 4605 H 439.668 3.6162 5.96554 0
M  V30 4606 H 435.565 2.38201 5.99942 0
M  V30 4607 H 436.333 4.17975 7.03732 0
M  V30 4608 N 438.996 -1.55193 0.274407 0
M  V30 4609 C 439.926 -2.25471 -0.607032 0
M  V30 4610 C 440.907 -1.24461 -1.15946 0
M  V30 4611 O 442.092 -1.53179 -1.19373 0
M  V30 4612 C 439.222 -2.97526 -1.79153 0
M  V30 4613 C 438.176 -4.05459 -1.37067 0
M  V30 4614 C 437.502 -4.65084 -2.6382 0
M  V30 4615 C 438.802 -5.19691 -0.521389 0
M  V30 4616 H 440.496 -2.99393 -0.0209343 0
M  V30 4617 H 438.042 -1.43997 -0.00862866 0
M  V30 4618 H 439.995 -3.45402 -2.41404 0
M  V30 4619 H 438.719 -2.21138 -2.40344 0
M  V30 4620 H 437.378 -3.58393 -0.771355 0
M  V30 4621 H 437.026 -3.85365 -3.23268 0
M  V30 4622 H 436.726 -5.37961 -2.36372 0
M  V30 4623 H 438.25 -5.15708 -3.26921 0
M  V30 4624 H 439.664 -5.63623 -1.04889 0
M  V30 4625 H 438.061 -5.99126 -0.341825 0
M  V30 4626 H 439.131 -4.82713 0.46 0
M  V30 4627 N 440.474 -0.00167713 -1.576 0
M  V30 4628 C 441.699 0.69739 -1.95323 0
M  V30 4629 C 442.124 1.6642 -0.876706 0
M  V30 4630 O 441.482 1.80548 0.165007 0
M  V30 4631 C 441.53 1.40403 -3.32144 0
M  V30 4632 O 440.634 2.5185 -3.26566 0
M  V30 4633 H 439.975 0.185373 -0.637599 0
M  V30 4634 H 442.505 -0.0553665 -2.04525 0
M  V30 4635 H 442.515 1.76707 -3.67748 0
M  V30 4636 H 441.19 0.695167 -4.10049 0
M  V30 4637 H 439.767 2.17861 -3.0264 0
M  V30 4638 N 441.952 1.55251 0.271103 0
M  V30 4639 C 443.198 1.76207 1.00394 0
M  V30 4640 C 443.531 0.562604 1.85872 0
M  V30 4641 O 442.806 -0.439785 1.89463 0
M  V30 4642 C 443.089 3.06828 1.8849 0
M  V30 4643 C 442.942 4.37134 1.05992 0
M  V30 4644 C 444.261 3.33503 2.87165 0
M  V30 4645 H 441.38 0.641086 0.363562 0
M  V30 4646 H 444.022 1.87982 0.276189 0
M  V30 4647 H 442.172 2.96921 2.5054 0
M  V30 4648 H 443.844 4.59001 0.459978 0
M  V30 4649 H 442.087 4.32275 0.363443 0
M  V30 4650 H 442.758 5.2486 1.70955 0
M  V30 4651 H 445.234 3.43215 2.3525 0
M  V30 4652 H 444.11 4.2616 3.45946 0
M  V30 4653 H 444.371 2.53235 3.62387 0
M  V30 4654 N 443.43 -0.535701 1.48216 0
M  V30 4655 C 444.707 -1.29683 1.46429 0
M  V30 4656 C 445.087 -2.10391 0.172852 0
M  V30 4657 O 444.435 -2.12282 -0.845488 0
M  V30 4658 C 444.645 -2.18313 2.72287 0
M  V30 4659 C 445.993 -2.78639 3.20383 0
M  V30 4660 O 447.017 -2.28604 2.73164 0
M  V30 4661 O 445.876 -3.69636 4.02531 0
M  V30 4662 H 442.97 -0.585026 0.584529 0
M  V30 4663 H 445.516 -0.552827 1.60443 0
M  V30 4664 H 444.288 -1.58421 3.57797 0
M  V30 4665 H 443.911 -2.99971 2.60966 0
M  V30 4666 N 444.908 -1.36708 -0.784132 0
M  V30 4667 C 446.155 -1.31231 -1.54222 0
M  V30 4668 C 446.483 0.106864 -1.94206 0
M  V30 4669 O 445.738 1.07734 -1.63376 0
M  V30 4670 C 446.037 -2.18571 -2.82774 0
M  V30 4671 C 445.703 -3.67039 -2.61903 0
M  V30 4672 C 444.365 -4.07503 -2.55919 0
M  V30 4673 C 446.717 -4.61149 -2.4288 0
M  V30 4674 C 444.045 -5.40211 -2.28886 0
M  V30 4675 C 446.397 -5.94081 -2.17373 0
M  V30 4676 C 445.061 -6.33664 -2.09825 0
M  V30 4677 H 444.331 -0.48021 -0.56434 0
M  V30 4678 H 446.978 -1.68807 -0.904233 0
M  V30 4679 H 445.283 -1.73949 -3.51068 0
M  V30 4680 H 446.98 -2.11655 -3.40592 0
M  V30 4681 H 443.57 -3.34941 -2.67418 0
M  V30 4682 H 447.754 -4.30756 -2.46501 0
M  V30 4683 H 443.01 -5.69855 -2.21529 0
M  V30 4684 H 447.184 -6.66566 -2.01649 0
M  V30 4685 H 444.811 -7.36423 -1.88641 0
M  V30 4686 N 446.386 1.0089 -1.21074 0
M  V30 4687 C 447.616 1.77933 -1.04993 0
M  V30 4688 C 448.024 1.84847 0.403495 0
M  V30 4689 O 447.367 1.30606 1.29181 0
M  V30 4690 C 447.429 3.23541 -1.56722 0
M  V30 4691 C 447.093 3.40214 -3.05129 0
M  V30 4692 C 448.09 3.2881 -4.02716 0
M  V30 4693 C 445.775 3.65781 -3.44252 0
M  V30 4694 C 447.769 3.42732 -5.37414 0
M  V30 4695 C 445.456 3.79346 -4.79103 0
M  V30 4696 C 446.454 3.67827 -5.75493 0
M  V30 4697 O 446.142 3.80965 -7.07899 0
M  V30 4698 H 445.874 0.566157 -0.369381 0
M  V30 4699 H 448.428 1.27826 -1.60779 0
M  V30 4700 H 446.658 3.74766 -0.953285 0
M  V30 4701 H 448.347 3.82245 -1.36543 0
M  V30 4702 H 449.113 3.08986 -3.73835 0
M  V30 4703 H 444.992 3.73831 -2.69762 0
M  V30 4704 H 448.536 3.33658 -6.12632 0
M  V30 4705 H 444.433 3.98672 -5.07672 0
M  V30 4706 H 445.201 3.97937 -7.15254 0
M  V30 4707 N 447.864 1.01787 1.20321 0
M  V30 4708 C 449.28 0.732951 1.41774 0
M  V30 4709 C 449.48 -0.686883 1.89431 0
M  V30 4710 O 448.536 -1.45446 2.06402 0
M  V30 4711 C 449.849 1.75973 2.43832 0
M  V30 4712 C 451.397 1.77802 2.57596 0
M  V30 4713 C 451.872 2.7941 3.62897 0
M  V30 4714 N 453.363 2.78157 3.70382 0
M  V30 4715 C 454.098 3.53434 4.51521 0
M  V30 4716 N 453.594 4.38392 5.36455 0
M  V30 4717 N 455.387 3.42026 4.46066 0
M  V30 4718 H 447.538 1.93447 0.877035 0
M  V30 4719 H 449.801 0.835712 0.447536 0
M  V30 4720 H 449.507 2.77699 2.15815 0
M  V30 4721 H 449.381 1.57292 3.4284 0
M  V30 4722 H 451.768 0.767602 2.84942 0
M  V30 4723 H 451.849 2.00557 1.58779 0
M  V30 4724 H 451.493 3.80616 3.36295 0
M  V30 4725 H 451.423 2.53916 4.61339 0
M  V30 4726 H 453.914 2.16531 3.09714 0
M  V30 4727 H 454.227 4.92596 5.95457 0
M  V30 4728 H 452.572 4.4247 5.35953 0
M  V30 4729 H 455.763 2.75075 3.78749 0
M  V30 4730 H 455.936 4.00946 5.09064 0
M  V30 4731 N 449.342 -1.36122 0.79427 0
M  V30 4732 C 450.272 -2.32551 0.210328 0
M  V30 4733 C 451.253 -1.56884 -0.657386 0
M  V30 4734 O 452.438 -1.85014 -0.590207 0
M  V30 4735 C 449.568 -3.41128 -0.651819 0
M  V30 4736 C 448.522 -4.27842 0.116395 0
M  V30 4737 C 447.848 -5.2763 -0.86666 0
M  V30 4738 C 449.148 -5.05647 1.30837 0
M  V30 4739 H 450.842 -2.81636 1.01594 0
M  V30 4740 H 448.388 -1.35407 0.489981 0
M  V30 4741 H 450.341 -4.07581 -1.07031 0
M  V30 4742 H 449.065 -2.90622 -1.49019 0
M  V30 4743 H 447.724 -3.62952 0.515915 0
M  V30 4744 H 447.372 -4.73395 -1.70019 0
M  V30 4745 H 447.072 -5.86514 -0.35705 0
M  V30 4746 H 448.596 -5.96955 -1.28361 0
M  V30 4747 H 450.01 -5.65113 0.965393 0
M  V30 4748 H 448.407 -5.73967 1.75161 0
M  V30 4749 H 449.477 -4.37006 2.10128 0
M  V30 4750 N 450.82 -0.546701 -1.47814 0
M  V30 4751 C 452.06 -0.0209604 -2.04389 0
M  V30 4752 C 452.424 1.29993 -1.413 0
M  V30 4753 O 453.625 1.91273 -1.8886 0
M  V30 4754 C 451.896 0.0812844 -3.57308 0
M  V30 4755 S 453.455 0.55467 -4.3528 0
M  V30 4756 H 450.273 -0.0200865 -0.710716 0
M  V30 4757 H 452.875 -0.731055 -1.81317 0
M  V30 4758 H 451.579 -0.884616 -4.00753 0
M  V30 4759 H 451.11 0.815253 -3.8486 0
M  V30 4760 H 453.125 1.81627 -4.61764 0
M  V30 4761 N 452.299 1.55045 -0.282633 0
M  V30 4762 C 453.209 2.26491 0.61147 0
M  V30 4763 C 454.225 1.29348 1.16384 0
M  V30 4764 O 455.401 1.62298 1.19253 0
M  V30 4765 C 452.466 2.97779 1.77563 0
M  V30 4766 C 451.527 4.10418 1.25919 0
M  V30 4767 C 450.76 4.78297 2.36786 0
M  V30 4768 O 450.983 4.45426 3.56303 0
M  V30 4769 O 449.917 5.66089 2.04517 0
M  V30 4770 H 453.743 3.03683 0.0324615 0
M  V30 4771 H 451.328 1.49317 -0.0497576 0
M  V30 4772 H 453.21 3.42554 2.45427 0
M  V30 4773 H 451.885 2.23498 2.34159 0
M  V30 4774 H 450.792 3.70082 0.546797 0
M  V30 4775 H 452.125 4.86622 0.738887 0
M  V30 4776 N 453.777 0.010035 1.57597 0
M  V30 4777 C 454.74 -0.963029 2.07986 0
M  V30 4778 C 455.74 -1.26619 0.991173 0
M  V30 4779 O 456.93 -1.2097 1.25347 0
M  V30 4780 C 454.062 -2.2851 2.52974 0
M  V30 4781 H 455.255 -0.526971 2.95234 0
M  V30 4782 H 452.808 -0.237639 1.54483 0
M  V30 4783 H 453.543 -2.76784 1.69 0
M  V30 4784 H 453.328 -2.07824 3.32493 0
M  V30 4785 H 454.818 -2.98294 2.9225 0
M  V30 4786 N 455.255 -1.55392 -0.262866 0
M  V30 4787 C 456.48 -1.80847 -1.01533 0
M  V30 4788 C 456.905 -0.584946 -1.78774 0
M  V30 4789 O 456.263 0.465701 -1.75217 0
M  V30 4790 C 456.311 -3.03866 -1.94159 0
M  V30 4791 O 455.415 -2.79662 -3.03089 0
M  V30 4792 H 454.756 -0.597441 -0.289759 0
M  V30 4793 H 457.286 -2.02553 -0.288698 0
M  V30 4794 H 457.296 -3.32872 -2.35924 0
M  V30 4795 H 455.971 -3.92564 -1.37354 0
M  V30 4796 H 454.548 -2.61781 -2.65566 0
M  V30 4797 N 456.733 0.527833 -1.48498 0
M  V30 4798 C 457.979 1.28545 -1.56857 0
M  V30 4799 C 458.312 1.92678 -0.242651 0
M  V30 4800 O 457.587 1.79394 0.751545 0
M  V30 4801 C 457.87 2.37314 -2.70839 0
M  V30 4802 C 457.723 1.77858 -4.13142 0
M  V30 4803 C 459.042 3.39068 -2.80573 0
M  V30 4804 H 456.161 0.466006 -0.570971 0
M  V30 4805 H 458.803 0.587784 -1.8068 0
M  V30 4806 H 456.953 2.96821 -2.50658 0
M  V30 4807 H 458.625 1.22385 -4.44769 0
M  V30 4808 H 456.868 1.08383 -4.20042 0
M  V30 4809 H 457.539 2.56624 -4.88721 0
M  V30 4810 H 460.015 2.89518 -2.98862 0
M  V30 4811 H 458.891 4.12566 -3.6205 0
M  V30 4812 H 459.152 3.9975 -1.88818 0
M  V30 4813 N 458.211 1.37122 0.776871 0
M  V30 4814 C 459.457 1.3325 1.53675 0
M  V30 4815 C 459.812 -0.0839891 1.92217 0
M  V30 4816 O 459.105 -1.04145 1.60824 0
M  V30 4817 C 459.299 2.20068 2.81611 0
M  V30 4818 C 459.128 3.70016 2.55574 0
M  V30 4819 C 457.898 4.39144 2.4996 0
M  V30 4820 C 460.096 4.62996 2.23917 0
M  V30 4821 N 458.078 5.74663 2.15953 0
M  V30 4822 C 459.449 5.86854 2.00005 0
M  V30 4823 C 461.504 4.51433 2.1003 0
M  V30 4824 C 460.207 7.00446 1.63609 0
M  V30 4825 C 462.233 5.64905 1.75033 0
M  V30 4826 C 461.595 6.8781 1.51977 0
M  V30 4827 H 457.694 0.542878 0.562856 0
M  V30 4828 H 460.278 1.72295 0.906784 0
M  V30 4829 H 458.449 1.83248 3.42454 0
M  V30 4830 H 460.181 2.07492 3.47461 0
M  V30 4831 H 456.936 3.92088 2.65639 0
M  V30 4832 H 457.36 6.46268 2.0166 0
M  V30 4833 H 462.002 3.56987 2.26539 0
M  V30 4834 H 459.72 7.94831 1.45837 0
M  V30 4835 H 463.306 5.57926 1.64952 0
M  V30 4836 H 462.186 7.74126 1.25296 0
M  V30 4837 N 459.689 -1.00246 1.21608 0
M  V30 4838 C 460.938 -1.73476 1.02902 0
M  V30 4839 C 461.251 -1.90643 -0.437561 0
M  V30 4840 O 462.457 -2.61105 -0.74407 0
M  V30 4841 C 460.913 -3.12079 1.79261 0
M  V30 4842 C 460.521 -3.02877 3.30106 0
M  V30 4843 C 462.265 -3.89421 1.68972 0
M  V30 4844 C 460.172 -4.36575 3.98944 0
M  V30 4845 H 459.102 -0.650408 0.381425 0
M  V30 4846 H 461.753 -1.11985 1.45367 0
M  V30 4847 H 460.135 -3.74196 1.2959 0
M  V30 4848 H 461.309 -2.49983 3.87098 0
M  V30 4849 H 459.624 -2.39022 3.40965 0
M  V30 4850 H 462.221 -4.88362 2.17731 0
M  V30 4851 H 462.564 -4.1122 0.648397 0
M  V30 4852 H 463.097 -3.33963 2.16133 0
M  V30 4853 H 459.836 -4.19978 5.03288 0
M  V30 4854 H 459.356 -4.8942 3.4674 0
M  V30 4855 H 461.035 -5.05364 4.04 0
M  V30 4856 N 461.167 -1.02423 -1.1978 0
M  V30 4857 C 462.444 -0.632802 -1.85081 0
M  V30 4858 C 462.824 0.888745 -1.9148 0
M  V30 4859 O 462.172 1.78357 -1.42832 0
M  V30 4860 C 462.382 -1.28947 -3.24305 0
M  V30 4861 C 463.73 -1.40976 -4.00513 0
M  V30 4862 O 464.754 -1.24628 -3.33686 0
M  V30 4863 O 463.613 -1.67467 -5.20209 0
M  V30 4864 H 460.707 -0.219348 -0.79738 0
M  V30 4865 H 463.253 -1.12209 -1.27307 0
M  V30 4866 H 462.025 -2.3288 -3.14456 0
M  V30 4867 H 461.648 -0.787748 -3.89718 0
M  V30 4868 N 462.645 1.35699 -0.801477 0
M  V30 4869 C 463.608 2.28199 -0.213994 0
M  V30 4870 C 464.608 1.49359 0.595691 0
M  V30 4871 O 465.798 1.69186 0.414921 0
M  V30 4872 C 462.93 3.33587 0.702297 0
M  V30 4873 H 464.123 2.81666 -1.02976 0
M  V30 4874 H 461.676 1.45467 -0.571759 0
M  V30 4875 H 462.411 2.85297 1.54195 0
M  V30 4876 H 462.196 3.91906 0.123484 0
M  V30 4877 H 463.686 4.02638 1.10783 0
M  V30 4878 N 464.123 0.554532 1.47522 0
M  V30 4879 C 465.086 -0.184174 2.28459 0
M  V30 4880 C 466.086 -0.845195 1.36796 0
M  V30 4881 O 467.276 -0.701467 1.59452 0
M  V30 4882 C 464.408 -1.26903 3.16399 0
M  V30 4883 H 465.601 0.526751 2.95238 0
M  V30 4884 H 463.154 0.311375 1.53167 0
M  V30 4885 H 463.889 -2.01244 2.54306 0
M  V30 4886 H 463.674 -0.799883 3.83854 0
M  V30 4887 H 465.164 -1.78794 3.77389 0
M  V30 4888 N 465.601 -1.54893 0.290851 0
M  V30 4889 C 466.829 -2.04343 -0.324288 0
M  V30 4890 C 467.244 -1.16859 -1.48289 0
M  V30 4891 O 466.601 -0.192018 -1.81487 0
M  V30 4892 C 466.652 -3.52756 -0.79026 0
M  V30 4893 O 466.373 -4.36913 0.322213 0
M  V30 4894 C 467.874 -4.18161 -1.4716 0
M  V30 4895 H 465.094 -0.667135 -0.0719173 0
M  V30 4896 H 467.638 -1.99981 0.427529 0
M  V30 4897 H 465.793 -3.57511 -1.49213 0
M  V30 4898 H 466.207 -5.24486 -0.0387372 0
M  V30 4899 H 467.681 -5.23562 -1.7489 0
M  V30 4900 H 468.158 -3.67282 -2.40834 0
M  V30 4901 H 468.764 -4.17454 -0.813178 0
M  V30 4902 N 467.08 -0.0183926 -1.57589 0
M  V30 4903 C 468.012 0.995557 -2.06449 0
M  V30 4904 C 469.025 1.29556 -0.985849 0
M  V30 4905 O 470.214 1.2621 -1.26227 0
M  V30 4906 C 467.314 2.32572 -2.46502 0
M  V30 4907 C 466.487 2.21245 -3.77319 0
M  V30 4908 C 465.546 3.37104 -4.04039 0
M  V30 4909 O 464.572 3.14468 -4.74445 0
M  V30 4910 N 465.774 4.60553 -3.53372 0
M  V30 4911 H 468.539 0.578746 -2.94059 0
M  V30 4912 H 466.1 0.168603 -1.6102 0
M  V30 4913 H 468.092 3.08887 -2.61478 0
M  V30 4914 H 466.662 2.65931 -1.64315 0
M  V30 4915 H 465.882 1.29723 -3.72244 0
M  V30 4916 H 467.17 2.10868 -4.63047 0
M  V30 4917 H 466.568 4.81839 -2.96391 0
M  V30 4918 H 465.125 5.34072 -3.73644 0
M  V30 4919 N 468.558 1.5553 0.254621 0
M  V30 4920 C 469.804 1.77262 0.985193 0
M  V30 4921 C 470.137 0.582286 1.85265 0
M  V30 4922 O 469.412 -0.419666 1.89919 0
M  V30 4923 C 469.695 3.0881 1.85225 0
M  V30 4924 C 469.548 4.38233 1.0135 0
M  V30 4925 C 470.867 3.3653 2.83612 0
M  V30 4926 H 467.986 0.644906 0.356742 0
M  V30 4927 H 470.628 1.88264 0.256236 0
M  V30 4928 H 468.778 2.99562 2.47376 0
M  V30 4929 H 470.45 4.59463 0.411269 0
M  V30 4930 H 468.693 4.32636 0.317574 0
M  V30 4931 H 469.364 5.26644 1.65379 0
M  V30 4932 H 471.84 3.45691 2.31596 0
M  V30 4933 H 470.716 4.29805 3.41407 0
M  V30 4934 H 470.977 2.57064 3.59681 0
M  V30 4935 N 470.036 -0.519951 1.48776 0
M  V30 4936 C 471.276 -1.2856 1.58908 0
M  V30 4937 C 471.64 -1.90212 0.261418 0
M  V30 4938 O 472.841 -2.67746 0.237791 0
M  V30 4939 C 471.112 -2.33836 2.70288 0
M  V30 4940 S 472.671 -3.19992 3.0025 0
M  V30 4941 H 469.489 -0.43717 0.560717 0
M  V30 4942 H 472.091 -0.591205 1.86346 0
M  V30 4943 H 470.795 -1.87041 3.653 0
M  V30 4944 H 470.326 -3.07969 2.44783 0
M  V30 4945 H 472.341 -4.34122 2.40317 0
M  V30 4946 N 471.514 -1.37532 -0.769588 0
M  V30 4947 C 472.761 -1.3286 -1.52822 0
M  V30 4948 C 473.089 0.0862597 -1.94309 0
M  V30 4949 O 472.344 1.05995 -1.6451 0
M  V30 4950 C 472.643 -2.21558 -2.8044 0
M  V30 4951 C 472.309 -3.69796 -2.57996 0
M  V30 4952 C 470.971 -4.10194 -2.51583 0
M  V30 4953 C 473.323 -4.63699 -2.37976 0
M  V30 4954 C 470.651 -5.42608 -2.23144 0
M  V30 4955 C 473.003 -5.96353 -2.1106 0
M  V30 4956 C 471.667 -6.35853 -2.03093 0
M  V30 4957 H 470.937 -0.486168 -0.559215 0
M  V30 4958 H 473.584 -1.69757 -0.886277 0
M  V30 4959 H 471.889 -1.77663 -3.49204 0
M  V30 4960 H 473.586 -2.15256 -3.38328 0
M  V30 4961 H 470.176 -3.37759 -2.63851 0
M  V30 4962 H 474.36 -4.33346 -2.41919 0
M  V30 4963 H 469.616 -5.72173 -2.15472 0
M  V30 4964 H 473.79 -6.68667 -1.94568 0
M  V30 4965 H 471.417 -7.38382 -1.8082 0
M  V30 4966 N 472.992 0.995999 -1.22138 0
M  V30 4967 C 474.217 1.77601 -1.0711 0
M  V30 4968 C 474.642 1.84339 0.374264 0
M  V30 4969 O 474 1.29359 1.27028 0
M  V30 4970 C 474.048 3.18897 -1.68336 0
M  V30 4971 O 473.152 4.01663 -0.934928 0
M  V30 4972 H 472.493 0.547011 -0.376397 0
M  V30 4973 H 475.023 1.25137 -1.6187 0
M  V30 4974 H 475.033 3.69539 -1.72931 0
M  V30 4975 H 473.708 3.13308 -2.73516 0
M  V30 4976 H 472.285 3.60204 -0.964751 0
M  V30 4977 N 474.47 1.03057 1.19235 0
M  V30 4978 C 475.4 0.633497 2.24742 0
M  V30 4979 C 476.381 -0.358335 1.66283 0
M  V30 4980 O 477.566 -0.240676 1.92703 0
M  V30 4981 C 474.696 -0.0147648 3.47297 0
M  V30 4982 C 473.65 0.899527 4.18441 0
M  V30 4983 C 472.976 0.116281 5.34574 0
M  V30 4984 C 474.276 2.21404 4.73051 0
M  V30 4985 H 475.97 1.5155 2.58211 0
M  V30 4986 H 473.516 0.73014 1.24117 0
M  V30 4987 H 475.469 -0.304202 4.20301 0
M  V30 4988 H 474.193 -0.931577 3.13032 0
M  V30 4989 H 472.852 1.17319 3.47321 0
M  V30 4990 H 472.5 -0.802619 4.96555 0
M  V30 4991 H 472.2 0.725293 5.83107 0
M  V30 4992 H 473.724 -0.166376 6.10373 0
M  V30 4993 H 475.138 1.98601 5.37802 0
M  V30 4994 H 473.535 2.77512 5.32078 0
M  V30 4995 H 474.605 2.86752 3.91026 0
M  V30 4996 N 475.948 -1.35272 0.808662 0
M  V30 4997 C 477.196 -1.98316 0.389233 0
M  V30 4998 C 477.517 -1.64465 -1.04767 0
M  V30 4999 O 476.787 -0.928175 -1.72516 0
M  V30 5000 H 475.367 -0.733585 0.140935 0
M  V30 5001 H 478.029 -1.6515 1.03496 0
M  V30 5002 H 477.125 -3.08123 0.496631 0
M  V30 5003 N 477.426 -0.562348 -1.47226 0
M  V30 5004 C 478.672 -0.0402761 -2.0276 0
M  V30 5005 C 479.005 1.30823 -1.43523 0
M  V30 5006 O 478.28 1.85249 -0.592705 0
M  V30 5007 C 478.563 0.047311 -3.60069 0
M  V30 5008 C 478.416 -1.32865 -4.29729 0
M  V30 5009 C 479.735 0.758182 -4.3352 0
M  V30 5010 H 476.854 -0.0161105 -0.736824 0
M  V30 5011 H 479.496 -0.725628 -1.75598 0
M  V30 5012 H 477.646 0.630986 -3.83342 0
M  V30 5013 H 479.318 -1.95593 -4.17781 0
M  V30 5014 H 477.561 -1.90195 -3.89882 0
M  V30 5015 H 478.232 -1.22004 -5.38349 0
M  V30 5016 H 480.708 0.262546 -4.15271 0
M  V30 5017 H 479.584 0.78844 -5.43208 0
M  V30 5018 H 479.845 1.81537 -4.03109 0
M  V30 5019 N 478.904 1.54736 -0.299062 0
M  V30 5020 C 480.152 1.99706 0.31017 0
M  V30 5021 C 480.473 1.18896 1.54559 0
M  V30 5022 O 479.743 0.284445 1.93824 0
M  V30 5023 H 478.323 0.737686 0.117596 0
M  V30 5024 H 480.985 1.9054 -0.409943 0
M  V30 5025 H 480.081 3.06596 0.58355 0
M  V30 5026 N 480.382 0.0267497 1.57577 0
M  V30 5027 C 481.629 -0.652404 1.91703 0
M  V30 5028 C 481.957 -1.72271 0.902936 0
M  V30 5029 O 481.212 -1.955 -0.0884843 0
M  V30 5030 C 481.511 -1.30914 3.3256 0
M  V30 5031 C 481.177 -0.369441 4.49384 0
M  V30 5032 C 479.839 -0.110791 4.81072 0
M  V30 5033 C 482.191 0.275971 5.20469 0
M  V30 5034 C 479.519 0.801116 5.81205 0
M  V30 5035 C 481.871 1.17592 6.21575 0
M  V30 5036 C 480.535 1.44348 6.51705 0
M  V30 5037 H 479.805 -0.238732 0.70149 0
M  V30 5038 H 482.452 0.0880091 1.91298 0
M  V30 5039 H 480.757 -2.12425 3.29216 0
M  V30 5040 H 482.454 -1.84115 3.56234 0
M  V30 5041 H 479.044 -0.581211 4.24641 0
M  V30 5042 H 483.228 0.0892 4.9622 0
M  V30 5043 H 478.484 1.01614 6.02897 0
M  V30 5044 H 482.658 1.68223 6.75777 0
M  V30 5045 H 480.285 2.15176 7.29111 0
M  V30 5046 N 481.861 -1.55662 -0.24637 0
M  V30 5047 C 483.109 -1.77168 -0.972411 0
M  V30 5048 C 483.43 -0.590827 -1.85834 0
M  V30 5049 O 482.7 0.393365 -1.9191 0
M  V30 5050 H 481.28 -0.653405 -0.362038 0
M  V30 5051 H 483.942 -1.93101 -0.264189 0
M  V30 5052 H 483.038 -2.68335 -1.59382 0
M  V30 5053 N 483.339 0.512053 -1.4905 0
M  V30 5054 C 484.585 1.26874 -1.58212 0
M  V30 5055 C 484.918 1.9241 -0.263073 0
M  V30 5056 O 484.193 1.80181 0.732476 0
M  V30 5057 C 484.476 2.34428 -2.73341 0
M  V30 5058 C 484.329 1.73466 -4.15006 0
M  V30 5059 C 485.648 3.36073 -2.84154 0
M  V30 5060 H 482.767 0.459924 -0.575881 0
M  V30 5061 H 485.409 0.568587 -1.81293 0
M  V30 5062 H 483.559 2.94146 -2.53792 0
M  V30 5063 H 485.231 1.17661 -4.46042 0
M  V30 5064 H 483.474 1.03921 -4.21168 0
M  V30 5065 H 484.145 2.51426 -4.91415 0
M  V30 5066 H 486.621 2.86332 -3.01916 0
M  V30 5067 H 485.497 4.08703 -3.66406 0
M  V30 5068 H 485.758 3.97725 -1.93048 0
M  V30 5069 N 484.817 1.37938 0.762283 0
M  V30 5070 C 485.747 1.37176 1.88958 0
M  V30 5071 C 486.728 0.238945 1.68413 0
M  V30 5072 O 487.913 0.440726 1.89133 0
M  V30 5073 C 485.043 1.18742 3.2637 0
M  V30 5074 C 483.997 2.29136 3.61498 0
M  V30 5075 C 483.323 1.95816 4.97554 0
M  V30 5076 C 484.623 3.71363 3.6727 0
M  V30 5077 H 486.317 2.31509 1.89853 0
M  V30 5078 H 483.863 1.11438 0.912005 0
M  V30 5079 H 485.816 1.16837 4.04879 0
M  V30 5080 H 484.54 0.208683 3.25933 0
M  V30 5081 H 483.199 2.30213 2.85303 0
M  V30 5082 H 482.847 0.964475 4.93667 0
M  V30 5083 H 482.547 2.69745 5.22026 0
M  V30 5084 H 484.071 1.95513 5.78452 0
M  V30 5085 H 485.485 3.72364 4.35911 0
M  V30 5086 H 483.882 4.44425 4.03245 0
M  V30 5087 H 484.952 4.04305 2.67704 0
M  V30 5088 N 486.295 -0.989507 1.22664 0
M  V30 5089 C 487.544 -1.72375 1.04737 0
M  V30 5090 C 487.857 -1.91096 -0.417316 0
M  V30 5091 O 489.063 -2.6188 -0.716334 0
M  V30 5092 C 487.519 -3.10161 1.82561 0
M  V30 5093 C 487.127 -2.99358 3.333 0
M  V30 5094 C 488.871 -3.87607 1.73093 0
M  V30 5095 C 486.778 -4.32319 4.03552 0
M  V30 5096 H 485.708 -0.646326 0.388302 0
M  V30 5097 H 488.359 -1.10437 1.46546 0
M  V30 5098 H 486.741 -3.728 1.33552 0
M  V30 5099 H 487.915 -2.45863 3.89728 0
M  V30 5100 H 486.23 -2.35392 3.43481 0
M  V30 5101 H 488.827 -4.86025 2.22899 0
M  V30 5102 H 489.17 -4.10509 0.691976 0
M  V30 5103 H 489.703 -3.31652 2.19663 0
M  V30 5104 H 486.442 -4.14616 5.07714 0
M  V30 5105 H 485.962 -4.85714 3.51911 0
M  V30 5106 H 487.641 -5.01051 4.09337 0
M  V30 5107 N 487.773 -1.03688 -1.18687 0
M  V30 5108 C 488.736 -0.629115 -2.20397 0
M  V30 5109 C 489.736 0.311495 -1.57754 0
M  V30 5110 O 490.926 0.0974107 -1.73927 0
M  V30 5111 C 488.058 0.0782231 -3.4081 0
M  V30 5112 H 489.251 -1.52915 -2.57987 0
M  V30 5113 H 486.804 -0.828988 -1.32505 0
M  V30 5114 H 487.539 0.992233 -3.08748 0
M  V30 5115 H 487.324 -0.597776 -3.87517 0
M  V30 5116 H 488.814 0.350156 -4.16129 0
M  V30 5117 N 489.251 1.34841 -0.815825 0
M  V30 5118 C 490.498 1.98499 -0.400535 0
M  V30 5119 C 490.826 1.64699 1.03463 0
M  V30 5120 O 490.081 0.907006 1.73412 0
M  V30 5121 C 490.38 3.53273 -0.541541 0
M  V30 5122 C 490.046 4.06966 -1.94138 0
M  V30 5123 C 488.708 4.21341 -2.32433 0
M  V30 5124 C 491.06 4.35933 -2.85677 0
M  V30 5125 C 488.388 4.62007 -3.61617 0
M  V30 5126 C 490.74 4.78042 -4.14317 0
M  V30 5127 C 489.404 4.90622 -4.52599 0
M  V30 5128 H 488.674 0.72636 -0.146566 0
M  V30 5129 H 491.321 1.60902 -1.0384 0
M  V30 5130 H 489.626 3.91387 0.179741 0
M  V30 5131 H 491.323 4.00497 -0.20085 0
M  V30 5132 H 487.913 3.96235 -1.63388 0
M  V30 5133 H 492.097 4.24372 -2.57337 0
M  V30 5134 H 487.353 4.69937 -3.91113 0
M  V30 5135 H 491.527 4.99415 -4.85342 0
M  V30 5136 H 489.154 5.2189 -5.52752 0
M  V30 5137 N 490.729 0.570148 1.46925 0
M  V30 5138 C 491.954 0.0542592 2.07329 0
M  V30 5139 C 492.379 -1.23582 1.41806 0
M  V30 5140 O 491.737 -1.74341 0.497479 0
M  V30 5141 C 491.785 -0.111175 3.60429 0
M  V30 5142 O 490.889 -1.17071 3.95434 0
M  V30 5143 H 490.23 0.0571425 0.661537 0
M  V30 5144 H 492.76 0.789516 1.88753 0
M  V30 5145 H 492.77 -0.321315 4.06733 0
M  V30 5146 H 491.445 0.831012 4.07513 0
M  V30 5147 H 490.022 -0.940029 3.60857 0
M  V30 5148 N 492.207 -1.54576 0.307264 0
M  V30 5149 C 493.432 -2.05139 -0.305379 0
M  V30 5150 C 493.857 -1.18278 -1.46259 0
M  V30 5151 O 493.215 -0.188243 -1.8032 0
M  V30 5152 C 493.263 -3.53066 -0.733283 0
M  V30 5153 O 492.367 -3.69206 -1.83741 0
M  V30 5154 H 491.708 -0.661444 -0.0582105 0
M  V30 5155 H 494.238 -1.99569 0.450931 0
M  V30 5156 H 494.248 -3.95034 -1.02039 0
M  V30 5157 H 492.923 -4.15746 0.113198 0
M  V30 5158 H 491.5 -3.39143 -1.55037 0
M  V30 5159 N 493.685 -0.035106 -1.57561 0
M  V30 5160 C 494.915 0.651312 -1.96065 0
M  V30 5161 C 495.323 1.6585 -0.910514 0
M  V30 5162 O 494.666 1.83336 0.11552 0
M  V30 5163 C 494.728 1.40897 -3.30739 0
M  V30 5164 C 494.392 0.559436 -4.53563 0
M  V30 5165 C 495.389 -0.16778 -5.19629 0
M  V30 5166 C 493.074 0.495079 -4.99854 0
M  V30 5167 C 495.068 -0.947963 -6.30311 0
M  V30 5168 C 492.755 -0.288804 -6.10417 0
M  V30 5169 C 493.753 -1.00903 -6.75505 0
M  V30 5170 O 493.441 -1.78005 -7.83945 0
M  V30 5171 H 493.173 0.184036 -0.650467 0
M  V30 5172 H 495.727 -0.0929677 -2.05189 0
M  V30 5173 H 493.957 2.19852 -3.18123 0
M  V30 5174 H 495.646 1.98407 -3.54104 0
M  V30 5175 H 496.412 -0.12743 -4.84833 0
M  V30 5176 H 492.291 1.04524 -4.48994 0
M  V30 5177 H 495.835 -1.51064 -6.81047 0
M  V30 5178 H 491.732 -0.33085 -6.44652 0
M  V30 5179 H 492.5 -1.70046 -8.00641 0
M  V30 5180 N 495.163 1.55791 0.238111 0
M  V30 5181 C 496.111 1.91885 1.31464 0
M  V30 5182 C 497.105 0.798929 1.49377 0
M  V30 5183 O 498.311 0.983626 1.50747 0
M  V30 5184 H 494.686 0.609551 0.440399 0
M  V30 5185 H 496.657 2.81747 0.982925 0
M  V30 5186 C 495.406 2.23763 2.6613 0
M  V30 5187 H 494.729 3.09444 2.53149 0
M  V30 5188 H 496.169 2.52915 3.40309 0
M  V30 5189 C 494.628 1.05699 3.1989 0
M  V30 5190 O 495.158 0.309524 4.00506 0
M  V30 5191 N 493.364 0.845251 2.78036 0
M  V30 5192 H 492.911 1.4548 2.12588 0
M  V30 5193 H 492.869 0.0569973 3.14348 0
M  V30 5194 N 496.642 -0.504142 1.49319 0
M  V30 5195 C 497.589 -1.60603 1.65756 0
M  V30 5196 C 498.559 -1.58425 0.499082 0
M  V30 5197 O 499.744 -1.76459 0.725728 0
M  V30 5198 C 496.884 -2.98764 1.72726 0
M  V30 5199 C 495.997 -3.10982 2.99857 0
M  V30 5200 C 495.132 -4.39857 2.97824 0
M  V30 5201 C 494.171 -4.45697 4.19548 0
M  V30 5202 N 493.308 -5.65995 4.15444 0
M  V30 5203 H 498.148 -1.45895 2.59843 0
M  V30 5204 H 495.685 -0.709891 1.28837 0
M  V30 5205 H 497.643 -3.78839 1.74747 0
M  V30 5206 H 496.273 -3.12183 0.821075 0
M  V30 5207 H 495.325 -2.23991 3.07461 0
M  V30 5208 H 496.637 -3.11157 3.89849 0
M  V30 5209 H 495.791 -5.2825 2.98391 0
M  V30 5210 H 494.53 -4.42242 2.05604 0
M  V30 5211 H 493.535 -3.55707 4.19229 0
M  V30 5212 H 494.76 -4.4503 5.12957 0
M  V30 5213 H 492.706 -5.69229 3.26059 0
M  V30 5214 H 492.623 -5.67773 4.99169 0
M  V30 5215 H 493.891 -6.56604 4.20109 0
M  V30 5216 N 498.12 -1.38341 -0.754957 0
M  V30 5217 C 499.367 -1.34473 -1.51404 0
M  V30 5218 C 499.695 0.0656458 -1.94389 0
M  V30 5219 O 498.95 1.04244 -1.65625 0
M  V30 5220 C 499.249 -2.2452 -2.78075 0
M  V30 5221 C 498.915 -3.72512 -2.54059 0
M  V30 5222 C 497.577 -4.1284 -2.47218 0
M  V30 5223 C 499.929 -4.66197 -2.33044 0
M  V30 5224 C 497.257 -5.44945 -2.17376 0
M  V30 5225 C 499.609 -5.98558 -2.04723 0
M  V30 5226 C 498.273 -6.37972 -1.96337 0
M  V30 5227 H 497.543 -0.492072 -0.554027 0
M  V30 5228 H 500.19 -1.70687 -0.868223 0
M  V30 5229 H 498.495 -1.81357 -3.473 0
M  V30 5230 H 500.192 -2.18832 -3.36026 0
M  V30 5231 H 496.782 -3.40538 -2.60253 0
M  V30 5232 H 500.966 -4.35888 -2.37309 0
M  V30 5233 H 496.222 -5.74426 -2.09391 0
M  V30 5234 H 500.396 -6.70693 -1.87465 0
M  V30 5235 H 498.023 -7.40258 -1.72978 0
M  V30 5236 N 499.598 0.982988 -1.23187 0
M  V30 5237 C 500.826 1.75921 -1.08901 0
M  V30 5238 C 501.241 1.85341 0.359719 0
M  V30 5239 O 500.598 1.33072 1.24892 0
M  V30 5240 C 500.649 3.18742 -1.70545 0
M  V30 5241 O 500.37 3.09814 -3.09753 0
M  V30 5242 C 501.871 4.1277 -1.61667 0
M  V30 5243 H 499.091 0.552166 -0.381252 0
M  V30 5244 H 501.635 1.23516 -1.62985 0
M  V30 5245 H 499.79 3.68182 -1.20501 0
M  V30 5246 H 500.204 3.99703 -3.39614 0
M  V30 5247 H 501.678 5.10697 -2.09506 0
M  V30 5248 H 502.155 4.3542 -0.575009 0
M  V30 5249 H 502.761 3.69232 -2.11064 0
M  V30 5250 N 501.076 1.04316 1.18135 0
M  V30 5251 C 502.024 0.630175 2.23901 0
M  V30 5252 C 503.018 -0.344254 1.65865 0
M  V30 5253 O 504.224 -0.211273 1.78756 0
M  V30 5254 H 500.599 0.185578 0.728742 0
M  V30 5255 H 502.57 1.53253 2.56039 0
M  V30 5256 C 501.319 0.011666 3.47698 0
M  V30 5257 H 500.642 0.752526 3.92654 0
M  V30 5258 H 502.082 -0.240046 4.2332 0
M  V30 5259 C 500.541 -1.23913 3.13285 0
M  V30 5260 O 501.071 -2.32959 3.27251 0
M  V30 5261 N 499.277 -1.13338 2.67587 0
M  V30 5262 H 498.824 -0.246006 2.56423 0
M  V30 5263 H 498.782 -1.97116 2.44934 0
M  V30 5264 N 502.554 -1.34406 0.822964 0
M  V30 5265 C 503.502 -2.31428 0.233165 0
M  V30 5266 C 504.496 -1.57404 -0.626118 0
M  V30 5267 O 505.702 -1.72402 -0.517453 0
M  V30 5268 H 502.077 -0.749863 0.0566557 0
M  V30 5269 H 504.048 -2.78699 1.06628 0
M  V30 5270 C 502.797 -3.42653 -0.590264 0
M  V30 5271 H 502.12 -3.99753 0.0616129 0
M  V30 5272 H 503.56 -4.12778 -0.969054 0
M  V30 5273 C 502.019 -2.87112 -1.76262 0
M  V30 5274 O 502.549 -2.81995 -2.8608 0
M  V30 5275 N 500.755 -2.43934 -1.57938 0
M  V30 5276 H 500.302 -2.48296 -0.686078 0
M  V30 5277 H 500.26 -2.07123 -2.36532 0
M  V30 5278 N 504.032 -0.577932 -1.46621 0
M  V30 5279 C 505.272 -0.0643097 -2.04299 0
M  V30 5280 C 505.636 1.26967 -1.44026 0
M  V30 5281 O 506.837 1.87224 -1.92875 0
M  V30 5282 C 505.108 0.00547588 -3.574 0
M  V30 5283 S 506.667 0.462216 -4.36359 0
M  V30 5284 H 503.485 -0.0351573 -0.71013 0
M  V30 5285 H 506.087 -0.76935 -1.79725 0
M  V30 5286 H 504.791 -0.969423 -3.98786 0
M  V30 5287 H 504.322 0.733435 -3.86503 0
M  V30 5288 H 506.337 1.71791 -4.65513 0
M  V30 5289 N 505.51 1.54411 -0.315457 0
M  V30 5290 C 506.74 2.04536 0.291315 0
M  V30 5291 C 507.148 1.19162 1.4696 0
M  V30 5292 O 506.491 0.213199 1.82459 0
M  V30 5293 C 506.553 3.5056 0.796725 0
M  V30 5294 C 506.217 4.5627 -0.258178 0
M  V30 5295 C 507.214 5.08312 -1.09153 0
M  V30 5296 C 504.899 5.00672 -0.404036 0
M  V30 5297 C 506.893 6.03312 -2.05655 0
M  V30 5298 C 504.58 5.95488 -1.37248 0
M  V30 5299 C 505.578 6.46693 -2.19721 0
M  V30 5300 O 505.266 7.39648 -3.14921 0
M  V30 5301 H 504.998 0.672856 0.0651165 0
M  V30 5302 H 507.552 2.00244 -0.457308 0
M  V30 5303 H 505.782 3.52223 1.59612 0
M  V30 5304 H 507.471 3.83804 1.32096 0
M  V30 5305 H 508.237 4.74793 -0.98979 0
M  V30 5306 H 504.116 4.60436 0.22799 0
M  V30 5307 H 507.66 6.43203 -2.70067 0
M  V30 5308 H 503.557 6.28424 -1.47489 0
M  V30 5309 H 504.325 7.57496 -3.10067 0
M  V30 5310 N 506.988 0.0434614 1.5754 0
M  V30 5311 C 508.404 -0.313039 1.565 0
M  V30 5312 C 508.604 -1.71954 1.05043 0
M  V30 5313 O 507.66 -2.425 0.703564 0
M  V30 5314 C 508.973 -0.148544 3.00333 0
M  V30 5315 C 510.521 -0.220231 3.12224 0
M  V30 5316 C 510.996 -0.0843565 4.57922 0
M  V30 5317 N 512.487 -0.140881 4.62986 0
M  V30 5318 C 513.222 -0.0597443 5.73369 0
M  V30 5319 N 512.718 0.0733004 6.92761 0
M  V30 5320 N 514.511 -0.11477 5.61983 0
M  V30 5321 H 506.662 0.96303 1.89313 0
M  V30 5322 H 508.925 0.373164 0.871466 0
M  V30 5323 H 508.631 0.820894 3.41986 0
M  V30 5324 H 508.505 -0.912798 3.65989 0
M  V30 5325 H 510.892 -1.18014 2.70475 0
M  V30 5326 H 510.973 0.574646 2.49262 0
M  V30 5327 H 510.617 0.872192 5.00355 0
M  V30 5328 H 510.547 -0.898281 5.18882 0
M  V30 5329 H 513.038 -0.243273 3.77116 0
M  V30 5330 H 513.351 0.128128 7.72694 0
M  V30 5331 H 511.696 0.10828 6.94916 0
M  V30 5332 H 514.887 -0.217212 4.67596 0
M  V30 5333 H 515.06 -0.0480779 6.47982 0
M  V30 5334 N 508.466 -1.55915 -0.229846 0
M  V30 5335 C 509.743 -1.6932 -0.979295 0
M  V30 5336 C 510.123 -0.588321 -2.02736 0
M  V30 5337 O 509.471 0.40586 -2.24867 0
M  V30 5338 C 509.681 -3.10305 -1.59724 0
M  V30 5339 C 511.029 -3.6945 -2.09264 0
M  V30 5340 O 512.053 -3.13214 -1.69633 0
M  V30 5341 O 510.912 -4.68072 -2.82082 0
M  V30 5342 H 508.006 -0.689314 -0.456919 0
M  V30 5343 H 510.552 -1.68238 -0.222283 0
M  V30 5344 H 509.324 -3.82177 -0.840039 0
M  V30 5345 H 508.947 -3.1547 -2.42001 0
M  V30 5346 N 509.944 0.496216 -1.49584 0
M  V30 5347 C 510.907 1.57952 -1.66084 0
M  V30 5348 C 511.907 1.51729 -0.53244 0
M  V30 5349 O 513.097 1.54796 -0.79899 0
M  V30 5350 C 510.229 2.97604 -1.66268 0
M  V30 5351 H 511.422 1.44649 -2.6271 0
M  V30 5352 H 508.975 0.7208 -1.38687 0
M  V30 5353 H 509.71 3.16378 -0.712432 0
M  V30 5354 H 509.495 3.03528 -2.4822 0
M  V30 5355 H 510.985 3.76301 -1.81073 0
M  V30 5356 N 511.423 1.38739 0.74761 0
M  V30 5357 C 512.672 1.3459 1.50228 0
M  V30 5358 C 512.985 -0.0595592 1.95509 0
M  V30 5359 O 514.191 -0.22361 2.70578 0
M  V30 5360 C 512.647 2.36377 2.71393 0
M  V30 5361 C 512.255 3.82573 2.33113 0
M  V30 5362 C 513.999 2.41281 3.49262 0
M  V30 5363 C 511.906 4.76032 3.50924 0
M  V30 5364 H 510.836 0.500312 0.564096 0
M  V30 5365 H 513.487 1.64324 0.8167 0
M  V30 5366 H 511.869 1.99694 3.41962 0
M  V30 5367 H 513.043 4.28227 1.70171 0
M  V30 5368 H 511.358 3.80844 1.68365 0
M  V30 5369 H 513.955 3.08301 4.36869 0
M  V30 5370 H 514.298 1.43353 3.9084 0
M  V30 5371 H 514.831 2.76793 2.85711 0
M  V30 5372 H 511.57 5.75177 3.14408 0
M  V30 5373 H 511.09 4.35066 4.12889 0
M  V30 5374 H 512.769 4.94331 4.17427 0
M  V30 5375 N 512.901 -0.976442 1.23707 0
M  V30 5376 C 514.147 -1.72081 1.07312 0
M  V30 5377 C 514.48 -1.90275 -0.388476 0
M  V30 5378 O 513.755 -1.4579 -1.28746 0
M  V30 5379 C 514.038 -3.11675 1.80363 0
M  V30 5380 C 513.891 -3.01027 3.3422 0
M  V30 5381 C 515.21 -4.1117 1.5693 0
M  V30 5382 H 512.329 -0.624583 0.391236 0
M  V30 5383 H 514.971 -1.13649 1.52263 0
M  V30 5384 H 513.121 -3.61559 1.42153 0
M  V30 5385 H 514.793 -2.58637 3.81975 0
M  V30 5386 H 513.036 -2.3744 3.63049 0
M  V30 5387 H 513.707 -3.9988 3.80525 0
M  V30 5388 H 516.183 -3.7011 1.90151 0
M  V30 5389 H 515.059 -5.06928 2.10513 0
M  V30 5390 H 515.32 -4.392 0.505548 0
M  V30 5391 N 514.379 -1.04941 -1.1758 0
M  V30 5392 C 515.607 -0.778294 -1.91703 0
M  V30 5393 C 516.022 0.665697 -1.76675 0
M  V30 5394 O 515.379 1.45456 -1.10222 0
M  V30 5395 C 515.43 -1.14628 -3.42845 0
M  V30 5396 O 515.151 -2.53359 -3.57409 0
M  V30 5397 C 516.652 -0.900931 -4.34049 0
M  V30 5398 H 513.872 -0.283167 -0.608323 0
M  V30 5399 H 516.416 -1.39942 -1.49119 0
M  V30 5400 H 514.571 -0.569953 -3.83184 0
M  V30 5401 H 514.985 -2.67709 -4.51035 0
M  V30 5402 H 516.459 -1.20817 -5.38616 0
M  V30 5403 H 516.936 0.163966 -4.38894 0
M  V30 5404 H 517.542 -1.46097 -3.99419 0
M  V30 5405 N 515.857 1.33968 -0.830081 0
M  V30 5406 C 517.085 2.0228 -0.434773 0
M  V30 5407 C 517.5 1.62487 0.961419 0
M  V30 5408 O 516.857 0.833849 1.62337 0
M  V30 5409 C 516.908 3.5751 -0.535625 0
M  V30 5410 O 516.629 3.95864 -1.87679 0
M  V30 5411 C 518.13 4.43091 -0.136137 0
M  V30 5412 H 515.35 0.648151 -0.173613 0
M  V30 5413 H 517.894 1.71089 -1.12022 0
M  V30 5414 H 516.049 3.87266 0.101817 0
M  V30 5415 H 516.463 4.9056 -1.85609 0
M  V30 5416 H 517.937 5.51398 -0.257772 0
M  V30 5417 H 518.414 4.29433 0.921076 0
M  V30 5418 H 519.02 4.18677 -0.747662 0
M  V30 5419 N 517.335 0.585699 1.46312 0
M  V30 5420 C 518.56 0.0762461 2.0726 0
M  V30 5421 C 518.985 -1.22071 1.43109 0
M  V30 5422 O 518.343 -1.73804 0.515942 0
M  V30 5423 C 518.391 -0.0729404 3.60526 0
M  V30 5424 O 517.495 -1.1287 3.96654 0
M  V30 5425 H 516.836 0.0641558 0.660893 0
M  V30 5426 H 519.366 0.809492 1.87905 0
M  V30 5427 H 519.376 -0.278158 4.07051 0
M  V30 5428 H 518.051 0.874188 4.06609 0
M  V30 5429 H 516.628 -0.901703 3.61834 0
M  V30 5430 N 518.813 -1.54241 0.323641 0
M  V30 5431 C 520.062 -1.9975 -0.279806 0
M  V30 5432 C 520.375 -1.2156 -1.5324 0
M  V30 5433 O 521.581 -1.57447 -2.21185 0
M  V30 5434 C 520.037 -3.55686 -0.549115 0
M  V30 5435 C 519.645 -4.4271 0.686432 0
M  V30 5436 C 521.389 -4.09663 -1.11251 0
M  V30 5437 C 519.296 -5.90119 0.389022 0
M  V30 5438 H 518.226 -0.746177 -0.10833 0
M  V30 5439 H 520.877 -1.78248 0.435877 0
M  V30 5440 H 519.259 -3.73176 -1.32499 0
M  V30 5441 H 520.433 -4.36996 1.46188 0
M  V30 5442 H 518.748 -3.99623 1.17005 0
M  V30 5443 H 521.345 -5.17386 -1.34965 0
M  V30 5444 H 521.688 -3.61651 -2.06191 0
M  V30 5445 H 522.221 -3.95806 -0.39782 0
M  V30 5446 H 518.96 -6.42326 1.30759 0
M  V30 5447 H 518.48 -5.98785 -0.348722 0
M  V30 5448 H 520.159 -6.47 -0.0011164 0
M  V30 5449 N 520.291 -0.0518155 -1.57515 0
M  V30 5450 C 521.239 0.940195 -2.12751 0
M  V30 5451 C 522.233 1.3218 -1.05948 0
M  V30 5452 O 523.439 1.30138 -1.24355 0
M  V30 5453 H 519.814 0.321066 -0.680015 0
M  V30 5454 H 521.785 0.449217 -2.94999 0
M  V30 5455 C 520.534 2.2055 -2.68799 0
M  V30 5456 H 519.857 1.92066 -3.50643 0
M  V30 5457 H 521.297 2.88119 -3.11068 0
M  V30 5458 C 519.756 2.95061 -1.62605 0
M  V30 5459 O 520.286 3.88025 -1.03921 0
M  V30 5460 N 518.492 2.57804 -1.34111 0
M  V30 5461 H 518.039 1.82281 -1.8202 0
M  V30 5462 H 517.997 3.07964 -0.632872 0
M  V30 5463 N 521.769 1.56035 0.221574 0
M  V30 5464 C 522.994 1.83476 0.967026 0
M  V30 5465 C 523.419 0.632139 1.7716 0
M  V30 5466 O 522.777 -0.419082 1.7639 0
M  V30 5467 C 522.825 3.08907 1.86034 0
M  V30 5468 O 521.929 2.876 2.95567 0
M  V30 5469 H 521.27 0.604913 0.273817 0
M  V30 5470 H 523.8 2.03247 0.234893 0
M  V30 5471 H 523.81 3.3901 2.27016 0
M  V30 5472 H 522.485 3.96068 1.26898 0
M  V30 5473 H 521.062 2.6873 2.58532 0
M  V30 5474 N 523.247 -0.488276 1.49845 0
M  V30 5475 C 524.177 -1.59675 1.70371 0
M  V30 5476 C 525.158 -1.60878 0.552473 0
M  V30 5477 O 526.343 -1.77417 0.78973 0
M  V30 5478 C 523.473 -2.98098 1.782 0
M  V30 5479 C 522.427 -3.11761 2.93239 0
M  V30 5480 C 521.753 -4.51661 2.86193 0
M  V30 5481 C 523.053 -2.90589 4.33999 0
M  V30 5482 H 524.747 -1.42752 2.63177 0
M  V30 5483 H 522.293 -0.685317 1.26647 0
M  V30 5484 H 524.246 -3.75555 1.91144 0
M  V30 5485 H 522.97 -3.16138 0.820018 0
M  V30 5486 H 521.629 -2.36732 2.79917 0
M  V30 5487 H 521.277 -4.66595 1.87877 0
M  V30 5488 H 520.977 -4.61742 3.63412 0
M  V30 5489 H 522.501 -5.31162 3.01163 0
M  V30 5490 H 523.915 -3.57807 4.47936 0
M  V30 5491 H 522.312 -3.1213 5.12538 0
M  V30 5492 H 523.382 -1.86595 4.4756 0
M  V30 5493 N 524.725 -1.39134 -0.740242 0
M  V30 5494 C 525.953 -1.39334 -1.5295 0
M  V30 5495 C 526.368 0.0135008 -1.88795 0
M  V30 5496 O 525.725 0.983524 -1.5373 0
M  V30 5497 C 525.776 -2.2614 -2.82034 0
M  V30 5498 O 525.497 -3.61345 -2.47712 0
M  V30 5499 C 526.998 -2.34666 -3.76094 0
M  V30 5500 H 524.218 -0.476103 -0.472828 0
M  V30 5501 H 526.762 -1.82883 -0.9151 0
M  V30 5502 H 524.917 -1.86018 -3.39818 0
M  V30 5503 H 525.331 -4.07194 -3.30595 0
M  V30 5504 H 526.805 -2.99663 -4.63579 0
M  V30 5505 H 527.282 -1.36426 -4.17474 0
M  V30 5506 H 527.888 -2.75236 -3.2423 0
M  V30 5507 N 526.204 0.969867 -1.24223 0
M  V30 5508 C 527.429 1.75289 -1.10853 0
M  V30 5509 C 527.854 1.85091 0.335079 0
M  V30 5510 O 527.212 1.32024 1.24255 0
M  V30 5511 C 527.26 3.15255 -1.75062 0
M  V30 5512 O 526.364 3.99589 -1.01992 0
M  V30 5513 H 525.705 0.538904 -0.387915 0
M  V30 5514 H 528.235 1.21675 -1.64488 0
M  V30 5515 H 528.245 3.65787 -1.80731 0
M  V30 5516 H 526.92 3.07436 -2.801 0
M  V30 5517 H 525.497 3.58077 -1.04094 0
M  V30 5518 N 527.682 1.05563 1.17022 0
M  V30 5519 C 528.929 0.767937 1.87374 0
M  V30 5520 C 529.257 -0.705224 1.81265 0
M  V30 5521 O 528.512 -1.5318 1.21796 0
M  V30 5522 C 528.811 1.19849 3.36706 0
M  V30 5523 C 528.477 2.6745 3.63017 0
M  V30 5524 C 527.139 3.0777 3.69907 0
M  V30 5525 C 529.491 3.62811 3.74189 0
M  V30 5526 C 526.819 4.42307 3.85463 0
M  V30 5527 C 529.171 4.97087 3.91264 0
M  V30 5528 C 527.835 5.37055 3.96394 0
M  V30 5529 H 527.105 0.281008 0.68565 0
M  V30 5530 H 529.752 1.32339 1.38415 0
M  V30 5531 H 528.057 0.562096 3.87747 0
M  V30 5532 H 529.754 0.953038 3.8951 0
M  V30 5533 H 526.344 2.35228 3.58282 0
M  V30 5534 H 530.528 3.32798 3.68183 0
M  V30 5535 H 525.784 4.72769 3.87684 0
M  V30 5536 H 529.958 5.70869 3.9885 0
M  V30 5537 H 527.585 6.41308 4.082 0
M  V30 5538 N 529.16 -1.33526 0.837174 0
M  V30 5539 C 530.385 -2.0258 0.444545 0
M  V30 5540 C 530.81 -1.6258 -0.946006 0
M  V30 5541 O 530.168 -0.817548 -1.6182 0
M  V30 5542 C 530.216 -3.5605 0.571006 0
M  V30 5543 O 529.32 -4.10422 -0.403431 0
M  V30 5544 H 528.661 -0.638866 0.180958 0
M  V30 5545 H 531.191 -1.70462 1.13154 0
M  V30 5546 H 531.201 -4.05488 0.452024 0
M  V30 5547 H 529.876 -3.84509 1.58512 0
M  V30 5548 H 528.453 -3.72113 -0.242147 0
M  V30 5549 N 530.638 -0.59345 -1.46 0
M  V30 5550 C 531.863 -0.0872365 -2.07216 0
M  V30 5551 C 532.288 1.2131 -1.43755 0
M  V30 5552 O 531.646 1.73528 -0.525152 0
M  V30 5553 C 531.694 0.0538197 -3.6056 0
M  V30 5554 O 530.798 1.10765 -3.97247 0
M  V30 5555 H 530.139 -0.0676598 -0.660544 0
M  V30 5556 H 532.669 -0.819445 -1.87473 0
M  V30 5557 H 532.679 0.256567 -4.07193 0
M  V30 5558 H 531.354 -0.895739 -4.0614 0
M  V30 5559 H 529.931 0.882501 -3.62307 0
M  V30 5560 N 532.116 1.54067 -0.331816 0
M  V30 5561 C 533.364 2.00319 0.267739 0
M  V30 5562 C 533.685 1.22148 1.52003 0
M  V30 5563 O 532.955 0.325494 1.93177 0
M  V30 5564 H 531.535 0.740014 0.101922 0
M  V30 5565 H 534.197 1.89628 -0.450267 0
M  V30 5566 H 533.293 3.07765 0.518385 0
M  V30 5567 N 533.594 0.0601682 1.57485 0
M  V30 5568 C 534.841 -0.611594 1.93043 0
M  V30 5569 C 535.169 -1.70317 0.939274 0
M  V30 5570 O 534.424 -1.95644 -0.046996 0
M  V30 5571 C 534.723 -1.23831 3.35262 0
M  V30 5572 C 534.389 -0.274037 4.50066 0
M  V30 5573 C 533.051 -0.00872394 4.81199 0
M  V30 5574 C 535.403 0.386308 5.19766 0
M  V30 5575 C 532.731 0.924218 5.79375 0
M  V30 5576 C 535.083 1.3075 6.1894 0
M  V30 5577 C 533.747 1.58139 6.48497 0
M  V30 5578 H 533.017 -0.223798 0.706396 0
M  V30 5579 H 535.664 0.128566 1.91068 0
M  V30 5580 H 533.969 -2.05394 3.33647 0
M  V30 5581 H 535.666 -1.76517 3.60059 0
M  V30 5582 H 532.256 -0.491008 4.25778 0
M  V30 5583 H 536.44 0.194436 4.95919 0
M  V30 5584 H 531.696 1.1438 6.00606 0
M  V30 5585 H 535.87 1.82519 6.72056 0
M  V30 5586 H 533.497 2.30593 7.24383 0
M  V30 5587 N 535.072 -1.5615 -0.213296 0
M  V30 5588 C 536.318 -1.79812 -0.937849 0
M  V30 5589 C 536.651 -0.631201 -1.83656 0
M  V30 5590 O 535.926 0.369165 -1.90964 0
M  V30 5591 C 536.209 -3.13613 -1.76972 0
M  V30 5592 C 536.062 -4.40766 -0.89695 0
M  V30 5593 C 537.381 -3.43931 -2.7459 0
M  V30 5594 H 534.5 -0.654138 -0.339518 0
M  V30 5595 H 537.142 -1.88877 -0.20623 0
M  V30 5596 H 535.292 -3.06015 -2.39347 0
M  V30 5597 H 536.964 -4.60392 -0.289306 0
M  V30 5598 H 535.207 -4.33326 -0.202756 0
M  V30 5599 H 535.878 -5.30843 -1.51358 0
M  V30 5600 H 538.354 -3.5171 -2.22349 0
M  V30 5601 H 537.23 -4.38706 -3.29891 0
M  V30 5602 H 537.491 -2.6651 -3.52739 0
M  V30 5603 N 536.55 0.480323 -1.50102 0
M  V30 5604 C 537.796 1.23489 -1.60867 0
M  V30 5605 C 538.129 1.91809 -0.303827 0
M  V30 5606 O 537.404 1.81694 0.694092 0
M  V30 5607 C 537.687 2.28578 -2.78252 0
M  V30 5608 C 537.54 1.64624 -4.18592 0
M  V30 5609 C 538.859 3.2997 -2.91218 0
M  V30 5610 H 535.978 0.447605 -0.585507 0
M  V30 5611 H 538.62 0.530005 -1.82458 0
M  V30 5612 H 536.77 2.88697 -2.59974 0
M  V30 5613 H 538.442 1.08173 -4.48438 0
M  V30 5614 H 536.685 0.949645 -4.23278 0
M  V30 5615 H 537.356 2.40946 -4.96638 0
M  V30 5616 H 539.832 2.79864 -3.07921 0
M  V30 5617 H 538.708 4.00839 -3.74993 0
M  V30 5618 H 538.969 3.93541 -2.0144 0
M  V30 5619 N 538.028 1.39524 0.732853 0
M  V30 5620 C 539.275 1.36865 1.49246 0
M  V30 5621 C 539.603 -0.0347118 1.94469 0
M  V30 5622 O 538.858 -1.01596 1.67262 0
M  V30 5623 C 539.157 2.28916 2.74468 0
M  V30 5624 C 538.823 3.76506 2.481 0
M  V30 5625 C 537.485 4.16721 2.40619 0
M  V30 5626 C 539.837 4.69846 2.25598 0
M  V30 5627 C 537.165 5.48334 2.08679 0
M  V30 5628 C 539.517 6.01739 1.95174 0
M  V30 5629 C 538.181 6.41015 1.86163 0
M  V30 5630 H 537.451 0.500824 0.546129 0
M  V30 5631 H 540.098 1.72047 0.840958 0
M  V30 5632 H 538.403 1.86859 3.4437 0
M  V30 5633 H 540.1 2.2415 3.32502 0
M  V30 5634 H 536.69 3.44635 2.54803 0
M  V30 5635 H 540.874 4.39608 2.30344 0
M  V30 5636 H 536.13 5.77685 2.00226 0
M  V30 5637 H 540.304 6.73591 1.76771 0
M  V30 5638 H 537.931 7.42917 1.61179 0
M  V30 5639 N 539.506 -0.963266 1.24736 0
M  V30 5640 C 540.731 -1.74699 1.11781 0
M  V30 5641 C 541.156 -1.85267 -0.325258 0
M  V30 5642 O 540.514 -1.32681 -1.23553 0
M  V30 5643 C 540.562 -3.14322 1.76731 0
M  V30 5644 O 539.666 -3.99043 1.04109 0
M  V30 5645 H 539.007 -0.53684 0.390767 0
M  V30 5646 H 541.537 -1.20801 1.65131 0
M  V30 5647 H 541.547 -3.64824 1.82668 0
M  V30 5648 H 540.222 -3.05946 2.81726 0
M  V30 5649 H 538.799 -3.5752 1.05991 0
M  V30 5650 N 540.985 -1.06182 -1.16461 0
M  V30 5651 C 542.232 -0.777863 -1.86964 0
M  V30 5652 C 542.56 0.695602 -1.81636 0
M  V30 5653 O 541.815 1.52532 -1.22607 0
M  V30 5654 C 542.114 -1.21633 -3.36066 0
M  V30 5655 C 541.78 -2.69371 -3.61594 0
M  V30 5656 C 540.442 -3.09727 -3.6827 0
M  V30 5657 C 542.794 -3.64791 -3.7226 0
M  V30 5658 C 540.122 -4.44345 -3.83112 0
M  V30 5659 C 542.474 -4.99155 -3.88623 0
M  V30 5660 C 541.138 -5.39149 -3.93541 0
M  V30 5661 H 540.408 -0.28464 -0.68415 0
M  V30 5662 H 543.055 -1.33071 -1.37711 0
M  V30 5663 H 541.36 -0.582651 -3.87443 0
M  V30 5664 H 543.057 -0.973682 -3.88999 0
M  V30 5665 H 539.647 -2.37124 -3.57029 0
M  V30 5666 H 543.831 -3.34746 -3.66413 0
M  V30 5667 H 539.087 -4.74819 -3.85172 0
M  V30 5668 H 543.261 -5.72976 -3.95817 0
M  V30 5669 H 540.888 -6.43464 -4.04794 0
M  V30 5670 N 542.463 1.3308 -0.844243 0
M  V30 5671 C 543.393 2.3161 -0.296493 0
M  V30 5672 C 544.374 1.59215 0.598707 0
M  V30 5673 O 545.559 1.87077 0.521134 0
M  V30 5674 C 542.689 3.43313 0.524762 0
M  V30 5675 C 541.643 4.27115 -0.275106 0
M  V30 5676 C 540.969 5.30483 0.670236 0
M  V30 5677 C 542.269 5.00443 -1.49514 0
M  V30 5678 H 543.963 2.77672 -1.11976 0
M  V30 5679 H 541.509 1.33496 -0.539899 0
M  V30 5680 H 543.462 4.11273 0.918298 0
M  V30 5681 H 542.186 2.95952 1.3813 0
M  V30 5682 H 540.845 3.60787 -0.650267 0
M  V30 5683 H 540.493 4.79379 1.52332 0
M  V30 5684 H 540.193 5.87435 0.139123 0
M  V30 5685 H 541.717 6.01308 1.06117 0
M  V30 5686 H 543.131 5.61141 -1.17447 0
M  V30 5687 H 541.528 5.67071 -1.96343 0
M  V30 5688 H 542.598 4.28906 -2.26202 0
M  V30 5689 N 543.941 0.601185 1.45683 0
M  V30 5690 C 545.189 0.0936957 2.01883 0
M  V30 5691 C 545.51 -1.2779 1.47291 0
M  V30 5692 O 544.78 -1.84279 0.664691 0
M  V30 5693 H 543.36 0.0316466 0.746329 0
M  V30 5694 H 546.022 0.781137 1.78562 0
M  V30 5695 H 545.118 0.0386297 3.12076 0
M  V30 5696 N 545.419 -1.53889 0.339982 0
M  V30 5697 C 546.649 -2.04973 -0.258738 0
M  V30 5698 C 547.057 -1.21485 -1.45045 0
M  V30 5699 O 546.4 -0.2422 -1.82096 0
M  V30 5700 C 546.462 -3.51783 -0.740853 0
M  V30 5701 C 546.126 -4.55802 0.330734 0
M  V30 5702 C 547.123 -5.06512 1.17226 0
M  V30 5703 C 544.808 -4.99966 0.483637 0
M  V30 5704 C 546.802 -5.99963 2.15227 0
M  V30 5705 C 544.489 -5.93229 1.46704 0
M  V30 5706 C 545.487 -6.43115 2.29981 0
M  V30 5707 O 545.175 -7.34545 3.26649 0
M  V30 5708 H 544.907 -0.673807 -0.0544037 0
M  V30 5709 H 547.461 -1.99492 0.489107 0
M  V30 5710 H 545.691 -3.54717 -1.53988 0
M  V30 5711 H 547.38 -3.85857 -1.25973 0
M  V30 5712 H 548.146 -4.73158 1.0652 0
M  V30 5713 H 544.025 -4.6074 -0.15471 0
M  V30 5714 H 547.569 -6.38825 2.80265 0
M  V30 5715 H 543.466 -6.25998 1.57468 0
M  V30 5716 H 544.234 -7.52468 3.22078 0
M  V30 5717 N 546.897 -0.0685191 -1.57451 0
M  V30 5718 C 547.83 0.935736 -2.08133 0
M  V30 5719 C 548.808 1.29317 -0.985698 0
M  V30 5720 O 549.992 1.40304 -1.25886 0
M  V30 5721 C 547.119 2.2448 -2.53627 0
M  V30 5722 C 546.165 2.03917 -3.74593 0
M  V30 5723 S 546.998 1.30154 -5.19442 0
M  V30 5724 C 548.154 2.62346 -5.68265 0
M  V30 5725 H 548.387 0.504473 -2.92989 0
M  V30 5726 H 545.92 0.144169 -1.53725 0
M  V30 5727 H 547.878 2.99718 -2.80499 0
M  V30 5728 H 546.539 2.64731 -1.69045 0
M  V30 5729 H 545.732 3.00788 -4.04404 0
M  V30 5730 H 545.334 1.36815 -3.48077 0
M  V30 5731 H 547.626 3.58448 -5.7491 0
M  V30 5732 H 548.569 2.3715 -6.67207 0
M  V30 5733 H 548.977 2.69401 -4.96068 0
M  V30 5734 N 548.375 1.56261 0.205012 0
M  V30 5735 C 549.338 1.92908 1.23771 0
M  V30 5736 C 550.338 0.809208 1.38955 0
M  V30 5737 O 551.528 1.07676 1.36936 0
M  V30 5738 C 548.66 2.19442 2.60879 0
M  V30 5739 H 549.853 2.85287 0.924728 0
M  V30 5740 H 547.406 1.49798 0.446125 0
M  V30 5741 H 548.141 1.29668 2.97248 0
M  V30 5742 H 547.926 3.0104 2.51232 0
M  V30 5743 H 549.416 2.48833 3.35368 0
M  V30 5744 N 549.853 -0.472356 1.50355 0
M  V30 5745 C 550.785 -1.58795 1.65278 0
M  V30 5746 C 551.798 -1.53782 0.534313 0
M  V30 5747 O 552.987 -1.59193 0.807446 0
M  V30 5748 C 550.087 -2.97672 1.62001 0
M  V30 5749 C 549.26 -3.27568 2.89859 0
M  V30 5750 C 548.319 -4.45993 2.79242 0
M  V30 5751 O 547.345 -4.46364 3.53197 0
M  V30 5752 N 548.547 -5.47578 1.92713 0
M  V30 5753 H 551.312 -1.46411 2.61503 0
M  V30 5754 H 548.873 -0.660751 1.47803 0
M  V30 5755 H 550.865 -3.74862 1.52513 0
M  V30 5756 H 549.435 -3.03832 0.735159 0
M  V30 5757 H 548.655 -2.39003 3.13483 0
M  V30 5758 H 549.943 -3.44352 3.74565 0
M  V30 5759 H 549.341 -5.50099 1.31939 0
M  V30 5760 H 547.898 -6.23757 1.8913 0
M  V30 5761 N 551.331 -1.39911 -0.725443 0
M  V30 5762 C 552.278 -1.39393 -1.83952 0
M  V30 5763 C 553.248 -0.252249 -1.64173 0
M  V30 5764 O 554.433 -0.44882 -1.85446 0
M  V30 5765 C 551.573 -1.25262 -3.21564 0
M  V30 5766 C 550.686 -2.49054 -3.52982 0
M  V30 5767 C 549.821 -2.27439 -4.80047 0
M  V30 5768 C 548.86 -3.46857 -5.04338 0
M  V30 5769 N 547.997 -3.24499 -6.22611 0
M  V30 5770 H 552.837 -2.34622 -1.83729 0
M  V30 5771 H 550.374 -1.16537 -0.897636 0
M  V30 5772 H 552.332 -1.15077 -4.01015 0
M  V30 5773 H 550.962 -0.33657 -3.21041 0
M  V30 5774 H 550.014 -2.69805 -2.6816 0
M  V30 5775 H 551.326 -3.37973 -3.66846 0
M  V30 5776 H 550.48 -2.14551 -5.67497 0
M  V30 5777 H 549.219 -1.35929 -4.68374 0
M  V30 5778 H 548.224 -3.60232 -4.15346 0
M  V30 5779 H 549.449 -4.3928 -5.17889 0
M  V30 5780 H 547.395 -2.35663 -6.12208 0
M  V30 5781 H 547.312 -4.06978 -6.37106 0
M  V30 5782 H 548.58 -3.15325 -7.12875 0
M  V30 5783 N 552.809 0.956637 -1.25245 0
M  V30 5784 C 553.759 2.03841 -1.02141 0
M  V30 5785 C 554.743 1.60848 0.0410058 0
M  V30 5786 O 555.935 1.76142 -0.174084 0
M  V30 5787 C 553.064 3.37282 -0.639963 0
M  V30 5788 C 552.15 3.86805 -1.73903 0
M  V30 5789 N 552.541 4.09143 -2.97381 0
M  V30 5790 C 550.839 4.15574 -1.61909 0
M  V30 5791 C 551.54 4.49923 -3.68707 0
M  V30 5792 N 550.516 4.55737 -2.96318 0
M  V30 5793 H 554.318 2.19102 -1.95886 0
M  V30 5794 H 551.832 1.1413 -1.15534 0
M  V30 5795 H 553.829 4.14403 -0.455643 0
M  V30 5796 H 552.489 3.23401 0.29018 0
M  V30 5797 H 553.5 3.96275 -3.33447 0
M  V30 5798 H 550.177 4.10566 -0.757764 0
M  V30 5799 H 551.567 4.75526 -4.74684 0
M  V30 5800 N 554.287 1.06798 1.15896 0
M  V30 5801 C 555.512 0.808739 1.90982 0
M  V30 5802 C 555.937 -0.6316 1.77179 0
M  V30 5803 O 555.295 -1.4407 1.10061 0
M  V30 5804 C 555.343 1.21468 3.39526 0
M  V30 5805 O 554.447 0.356562 4.10856 0
M  V30 5806 H 553.788 0.29512 0.594811 0
M  V30 5807 H 556.318 1.42513 1.46804 0
M  V30 5808 H 556.328 1.18844 3.90308 0
M  V30 5809 H 555.003 2.26379 3.48891 0
M  V30 5810 H 553.58 0.444808 3.70238 0
M  V30 5811 N 555.766 -1.3263 0.851289 0
M  V30 5812 C 557.012 -1.9766 0.453694 0
M  V30 5813 C 557.345 -1.67225 -0.987396 0
M  V30 5814 O 556.62 -0.958693 -1.69232 0
M  V30 5815 C 556.903 -3.5344 0.68936 0
M  V30 5816 C 556.756 -3.93517 2.17862 0
M  V30 5817 C 558.075 -4.39866 0.143555 0
M  V30 5818 H 555.194 -0.717989 0.166314 0
M  V30 5819 H 557.836 -1.57068 1.06909 0
M  V30 5820 H 555.986 -3.88147 0.165546 0
M  V30 5821 H 557.658 -3.69006 2.76826 0
M  V30 5822 H 555.901 -3.42798 2.65841 0
M  V30 5823 H 556.572 -5.02065 2.29422 0
M  V30 5824 H 559.048 -4.11875 0.591451 0
M  V30 5825 H 557.924 -5.47858 0.338043 0
M  V30 5826 H 558.185 -4.31696 -0.953466 0
M  V30 5827 N 557.244 -0.608902 -1.45362 0
M  V30 5828 C 558.655 -0.189511 -1.85736 0
M  V30 5829 C 559.006 1.2539 -1.50903 0
M  V30 5830 O 558.131 1.95094 -0.936347 0
M  V30 5831 C 558.726 -0.33716 -3.37118 0
M  V30 5832 C 557.285 0.0275487 -3.7639 0
M  V30 5833 C 556.432 -0.660983 -2.69307 0
M  V30 5834 H 559.383 -0.815499 -1.36144 0
M  V30 5835 H 559.404 0.430257 -3.7806 0
M  V30 5836 H 558.916 -1.38779 -3.62439 0
M  V30 5837 H 557.017 1.0773 -3.56686 0
M  V30 5838 H 557.13 -0.367018 -4.77692 0
M  V30 5839 H 555.494 -0.0984958 -2.54509 0
M  V30 5840 H 556.277 -1.71377 -2.97464 0
M  V30 5841 N 558.722 1.53707 -0.348139 0
M  V30 5842 C 559.971 2.0017 0.247992 0
M  V30 5843 C 560.284 1.23983 1.51286 0
M  V30 5844 O 561.49 1.60946 2.18652 0
M  V30 5845 C 559.946 3.56515 0.492459 0
M  V30 5846 C 559.554 4.41562 -0.756777 0
M  V30 5847 C 561.298 4.11381 1.0472 0
M  V30 5848 C 559.205 5.89426 -0.482856 0
M  V30 5849 H 558.135 0.747806 0.0964452 0
M  V30 5850 H 560.786 1.77532 -0.464179 0
M  V30 5851 H 559.168 3.75236 1.26545 0
M  V30 5852 H 560.342 4.34615 -1.53122 0
M  V30 5853 H 558.657 3.97711 -1.23348 0
M  V30 5854 H 561.254 5.19468 1.26717 0
M  V30 5855 H 561.597 3.64885 2.00411 0
M  V30 5856 H 562.13 3.96389 0.334801 0
M  V30 5857 H 558.869 6.40164 -1.40962 0
M  V30 5858 H 558.389 5.99264 0.253416 0
M  V30 5859 H 560.068 6.4692 -0.101816 0
M  V30 5860 N 560.2 0.0768682 1.57412 0
M  V30 5861 C 561.448 -0.589918 1.93299 0
M  V30 5862 C 561.769 -1.69842 0.958049 0
M  V30 5863 O 561.039 -1.95899 0.00703261 0
M  V30 5864 H 559.619 -0.220901 0.713591 0
M  V30 5865 H 562.281 0.135917 1.94425 0
M  V30 5866 H 561.377 -1.01195 2.95239 0
M  V30 5867 N 561.678 -1.56367 -0.196722 0
M  V30 5868 C 562.955 -1.71359 -0.943159 0
M  V30 5869 C 563.335 -0.631192 -2.01443 0
M  V30 5870 O 562.683 0.358071 -2.25677 0
M  V30 5871 C 562.893 -3.13623 -1.53106 0
M  V30 5872 C 564.241 -3.73806 -2.01381 0
M  V30 5873 O 565.265 -3.16742 -1.62951 0
M  V30 5874 O 564.124 -4.73951 -2.7209 0
M  V30 5875 H 561.218 -0.698851 -0.442195 0
M  V30 5876 H 563.764 -1.68672 -0.186547 0
M  V30 5877 H 562.536 -3.83873 -0.758785 0
M  V30 5878 H 562.159 -3.20532 -2.35255 0
M  V30 5879 N 563.156 0.464375 -1.50603 0
M  V30 5880 C 564.402 1.21776 -1.62168 0
M  V30 5881 C 564.735 1.91476 -0.324154 0
M  V30 5882 O 564.01 1.8242 0.674782 0
M  V30 5883 C 564.293 2.25614 -2.80661 0
M  V30 5884 C 564.146 1.60175 -4.20314 0
M  V30 5885 C 565.465 3.26862 -2.94702 0
M  V30 5886 H 562.584 0.44137 -0.590222 0
M  V30 5887 H 565.226 0.510623 -1.8301 0
M  V30 5888 H 563.376 2.85923 -2.63021 0
M  V30 5889 H 565.048 1.03411 -4.4956 0
M  V30 5890 H 563.291 0.904697 -4.24261 0
M  V30 5891 H 563.962 2.35665 -4.99165 0
M  V30 5892 H 566.438 2.76582 -3.10872 0
M  V30 5893 H 565.314 3.96839 -3.79223 0
M  V30 5894 H 565.575 3.91382 -2.05603 0
M  V30 5895 N 564.634 1.40294 0.718013 0
M  V30 5896 C 565.597 1.4012 1.81381 0
M  V30 5897 C 566.597 0.295405 1.58063 0
M  V30 5898 O 567.787 0.554187 1.6515 0
M  V30 5899 C 564.919 1.19056 3.19435 0
M  V30 5900 H 566.112 2.37645 1.82933 0
M  V30 5901 H 563.665 1.26107 0.923405 0
M  V30 5902 H 564.4 0.222809 3.23534 0
M  V30 5903 H 564.185 1.99152 3.37758 0
M  V30 5904 H 565.675 1.21716 3.99468 0
M  V30 5905 N 566.112 -0.949982 1.2575 0
M  V30 5906 C 567.059 -2.04738 1.06541 0
M  V30 5907 C 568.029 -1.66078 -0.0268818 0
M  V30 5908 O 569.214 -1.90348 0.131196 0
M  V30 5909 C 566.354 -3.38027 0.695127 0
M  V30 5910 C 565.467 -3.89776 1.86276 0
M  V30 5911 C 564.602 -5.11411 1.4364 0
M  V30 5912 C 563.641 -5.554 2.57287 0
M  V30 5913 N 562.778 -6.68244 2.15395 0
M  V30 5914 H 567.618 -2.20502 2.00457 0
M  V30 5915 H 565.155 -1.0805 0.998178 0
M  V30 5916 H 567.113 -4.14641 0.461375 0
M  V30 5917 H 565.743 -3.22135 -0.207046 0
M  V30 5918 H 564.795 -3.0964 2.20969 0
M  V30 5919 H 566.107 -4.18368 2.71606 0
M  V30 5920 H 565.261 -5.95457 1.16257 0
M  V30 5921 H 564 -4.84545 0.553879 0
M  V30 5922 H 563.005 -4.69916 2.85409 0
M  V30 5923 H 564.23 -5.84272 3.46125 0
M  V30 5924 H 562.176 -6.43078 1.29565 0
M  V30 5925 H 562.093 -6.96377 2.94272 0
M  V30 5926 H 563.361 -7.55687 1.91201 0
M  V30 5927 N 567.59 -1.07411 -1.15328 0
M  V30 5928 C 568.867 -0.710732 -1.82231 0
M  V30 5929 C 569.247 0.806732 -1.95077 0
M  V30 5930 O 568.595 1.72139 -1.50268 0
M  V30 5931 C 568.805 -1.42586 -3.18544 0
M  V30 5932 C 570.153 -1.57836 -3.94174 0
M  V30 5933 O 571.177 -1.38669 -3.281 0
M  V30 5934 O 570.036 -1.8938 -5.12638 0
M  V30 5935 H 567.13 -0.25297 -0.78736 0
M  V30 5936 H 569.676 -1.17508 -1.22434 0
M  V30 5937 H 568.448 -2.46008 -3.04296 0
M  V30 5938 H 568.071 -0.952332 -3.86026 0
M  V30 5939 N 569.068 1.32177 -0.85831 0
M  V30 5940 C 570.316 1.96735 -0.462568 0
M  V30 5941 C 570.637 1.6824 0.985911 0
M  V30 5942 O 569.907 0.991564 1.68952 0
M  V30 5943 H 568.487 0.727849 -0.168064 0
M  V30 5944 H 571.149 1.61195 -1.09554 0
M  V30 5945 H 570.245 3.06068 -0.610647 0
M  V30 5946 N 570.547 0.616602 1.45037 0
M  V30 5947 C 571.958 0.199359 1.85633 0
M  V30 5948 C 572.309 -1.24588 1.51566 0
M  V30 5949 O 571.434 -1.94594 0.94668 0
M  V30 5950 C 572.029 0.355033 3.36935 0
M  V30 5951 C 570.588 -0.00758748 3.76399 0
M  V30 5952 C 569.735 0.675256 2.68953 0
M  V30 5953 H 572.686 0.822708 1.3571 0
M  V30 5954 H 572.707 -0.410201 3.78282 0
M  V30 5955 H 572.219 1.40699 3.61698 0
M  V30 5956 H 570.32 -1.05837 3.57252 0
M  V30 5957 H 570.433 0.392346 4.77491 0
M  V30 5958 H 568.797 0.111992 2.54454 0
M  V30 5959 H 569.58 1.72952 2.96551 0
M  V30 5960 N 572.025 -1.5352 0.356285 0
M  V30 5961 C 573.273 -2.00719 -0.235837 0
M  V30 5962 C 573.594 -1.24551 -1.5004 0
M  V30 5963 O 572.864 -0.356185 -1.92635 0
M  V30 5964 H 571.444 -0.741542 -0.0901366 0
M  V30 5965 H 574.106 -1.88887 0.480378 0
M  V30 5966 H 573.202 -3.08551 -0.469357 0
M  V30 5967 N 573.503 -0.0852151 -1.57369 0
M  V30 5968 C 574.433 0.874556 -2.16503 0
M  V30 5969 C 575.414 1.30111 -1.09568 0
M  V30 5970 O 576.599 1.36977 -1.37662 0
M  V30 5971 C 573.729 2.13731 -2.73745 0
M  V30 5972 C 572.683 1.84971 -3.85966 0
M  V30 5973 C 572.009 3.17991 -4.29867 0
M  V30 5974 C 573.309 1.14442 -5.09608 0
M  V30 5975 H 575.003 0.381899 -2.96954 0
M  V30 5976 H 572.549 0.18225 -1.42842 0
M  V30 5977 H 574.502 2.81302 -3.13763 0
M  V30 5978 H 573.226 2.65263 -1.90534 0
M  V30 5979 H 571.885 1.19801 -3.46473 0
M  V30 5980 H 571.533 3.6739 -3.4356 0
M  V30 5981 H 571.233 2.99534 -5.05523 0
M  V30 5982 H 572.757 3.86737 -4.72511 0
M  V30 5983 H 574.171 1.72105 -5.46857 0
M  V30 5984 H 572.568 1.06197 -5.90629 0
M  V30 5985 H 573.638 0.12559 -4.84737 0
M  V30 5986 N 574.981 1.5647 0.188427 0
M  V30 5987 C 576.23 1.80207 0.905995 0
M  V30 5988 C 576.543 0.659579 1.84144 0
M  V30 5989 O 577.749 0.781431 2.60011 0
M  V30 5990 C 576.205 3.19255 1.66145 0
M  V30 5991 C 575.813 4.41324 0.770504 0
M  V30 5992 C 577.557 3.52298 2.36826 0
M  V30 5993 C 575.464 5.71394 1.52521 0
M  V30 5994 H 574.394 0.671953 0.342045 0
M  V30 5995 H 577.045 1.82808 0.159164 0
M  V30 5996 H 575.427 3.10922 2.45242 0
M  V30 5997 H 576.601 4.60797 0.0177261 0
M  V30 5998 H 574.916 4.16035 0.174199 0
M  V30 5999 H 577.513 4.46715 2.93854 0
M  V30 6000 H 577.856 2.76359 3.11338 0
M  V30 6001 H 578.389 3.62108 1.6469 0
M  V30 6002 H 575.128 6.50316 0.82275 0
M  V30 6003 H 574.648 5.55928 2.25175 0
M  V30 6004 H 576.327 6.12747 2.07725 0
M  V30 6005 N 576.459 -0.456382 1.50847 0
M  V30 6006 C 577.706 -1.20736 1.62571 0
M  V30 6007 C 578.034 -1.9163 0.332904 0
M  V30 6008 O 577.289 -1.8343 -0.682058 0
M  V30 6009 C 577.588 -2.26336 2.76599 0
M  V30 6010 C 577.254 -1.7259 4.16562 0
M  V30 6011 C 575.916 -1.57654 4.54641 0
M  V30 6012 C 578.268 -1.32877 5.03977 0
M  V30 6013 C 575.596 -1.0145 5.77862 0
M  V30 6014 C 577.948 -0.7811 6.27759 0
M  V30 6015 C 576.612 -0.618488 6.64628 0
M  V30 6016 H 575.882 -0.441803 0.594888 0
M  V30 6017 H 578.529 -0.501169 1.84826 0
M  V30 6018 H 576.834 -3.0292 2.48489 0
M  V30 6019 H 578.531 -2.84227 2.82871 0
M  V30 6020 H 575.121 -1.85187 3.86528 0
M  V30 6021 H 579.305 -1.43245 4.75179 0
M  V30 6022 H 574.561 -0.876109 6.0509 0
M  V30 6023 H 578.735 -0.464783 6.94847 0
M  V30 6024 H 576.362 -0.180838 7.59985 0
M  V30 6025 N 577.937 -1.40673 -0.710563 0
M  V30 6026 C 579.186 -1.38525 -1.46607 0
M  V30 6027 C 579.499 0.0077024 -1.95598 0
M  V30 6028 O 580.705 0.151792 -2.71075 0
M  V30 6029 C 579.161 -2.43489 -2.6503 0
M  V30 6030 C 578.769 -3.88619 -2.22888 0
M  V30 6031 C 580.513 -2.50456 -3.42742 0
M  V30 6032 C 578.42 -4.85168 -3.3818 0
M  V30 6033 H 577.35 -0.515092 -0.550632 0
M  V30 6034 H 580.001 -1.66431 -0.772846 0
M  V30 6035 H 578.383 -2.0869 -3.36548 0
M  V30 6036 H 579.557 -4.32588 -1.58758 0
M  V30 6037 H 577.872 -3.85174 -1.58208 0
M  V30 6038 H 580.469 -3.19776 -4.28541 0
M  V30 6039 H 580.812 -1.53665 -3.86902 0
M  V30 6040 H 581.345 -2.84271 -2.78271 0
M  V30 6041 H 578.084 -5.8331 -2.99047 0
M  V30 6042 H 577.604 -4.4586 -4.01209 0
M  V30 6043 H 579.283 -5.05225 -4.04174 0
M  V30 6044 N 579.415 0.9433 -1.26252 0
M  V30 6045 C 580.664 1.68369 -1.11062 0
M  V30 6046 C 580.977 1.92514 0.346104 0
M  V30 6047 O 582.183 2.64358 0.618646 0
M  V30 6048 C 580.639 3.03171 -1.93946 0
M  V30 6049 C 580.247 2.86782 -3.4418 0
M  V30 6050 C 581.991 3.80916 -1.87359 0
M  V30 6051 C 579.898 4.17044 -4.19319 0
M  V30 6052 H 578.828 0.631469 -0.412023 0
M  V30 6053 H 581.479 1.04922 -1.50544 0
M  V30 6054 H 579.861 3.67587 -1.47296 0
M  V30 6055 H 581.035 2.31229 -3.98585 0
M  V30 6056 H 579.35 2.22482 -3.51981 0
M  V30 6057 H 581.947 4.77417 -2.40784 0
M  V30 6058 H 582.29 4.07658 -0.843857 0
M  V30 6059 H 582.823 3.2327 -2.31821 0
M  V30 6060 H 579.562 3.95487 -5.22753 0
M  V30 6061 H 579.082 4.72319 -3.69696 0
M  V30 6062 H 580.761 4.85513 -4.27651 0
M  V30 6063 N 580.893 1.08022 1.14757 0
M  V30 6064 C 582.123 0.827646 1.89298 0
M  V30 6065 C 582.531 -0.623506 1.78631 0
M  V30 6066 O 581.874 -1.43991 1.14071 0
M  V30 6067 C 581.936 1.16553 3.40082 0
M  V30 6068 C 581.6 2.61866 3.74533 0
M  V30 6069 C 582.597 3.60116 3.74984 0
M  V30 6070 C 580.282 2.97619 4.04633 0
M  V30 6071 C 582.276 4.92151 4.05051 0
M  V30 6072 C 579.963 4.2985 4.34364 0
M  V30 6073 C 580.961 5.26926 4.34555 0
M  V30 6074 O 580.649 6.5678 4.63568 0
M  V30 6075 H 580.381 0.298396 0.606577 0
M  V30 6076 H 582.935 1.44187 1.46285 0
M  V30 6077 H 581.165 0.494296 3.83528 0
M  V30 6078 H 582.854 0.894407 3.95923 0
M  V30 6079 H 583.62 3.33837 3.51821 0
M  V30 6080 H 579.499 2.22702 4.03639 0
M  V30 6081 H 583.043 5.67915 4.05115 0
M  V30 6082 H 578.94 4.55879 4.56995 0
M  V30 6083 H 579.708 6.62035 4.81303 0
M  V30 6084 N 582.371 -1.3172 0.865308 0
M  V30 6085 C 583.782 -1.79104 0.527126 0
M  V30 6086 C 584.133 -1.7135 -0.955695 0
M  V30 6087 O 583.258 -1.27845 -1.74598 0
M  V30 6088 C 583.853 -3.25207 0.950061 0
M  V30 6089 C 582.412 -3.70504 0.663611 0
M  V30 6090 C 581.559 -2.52605 1.14395 0
M  V30 6091 H 584.51 -1.18868 1.05148 0
M  V30 6092 H 584.531 -3.79535 0.270805 0
M  V30 6093 H 584.043 -3.30818 2.02931 0
M  V30 6094 H 582.144 -3.70398 -0.404474 0
M  V30 6095 H 582.257 -4.62845 1.23737 0
M  V30 6096 H 580.621 -2.4838 0.563859 0
M  V30 6097 H 581.404 -2.60964 2.23053 0
M  V30 6098 N 583.85 -0.624285 -1.44708 0
M  V30 6099 C 584.76 0.0861083 -2.34442 0
M  V30 6100 C 585.776 0.84291 -1.5222 0
M  V30 6101 O 586.952 0.796723 -1.84971 0
M  V30 6102 C 584.017 1.05999 -3.30099 0
M  V30 6103 C 583.077 0.303316 -4.28227 0
M  V30 6104 C 582.311 1.23081 -5.19314 0
M  V30 6105 O 582.534 2.46929 -5.14181 0
M  V30 6106 O 581.468 0.71883 -5.97592 0
M  V30 6107 H 585.293 -0.651756 -2.96624 0
M  V30 6108 H 582.879 -0.384493 -1.44368 0
M  V30 6109 H 584.76 1.62046 -3.88997 0
M  V30 6110 H 583.436 1.77859 -2.70459 0
M  V30 6111 H 582.343 -0.300033 -3.72895 0
M  V30 6112 H 583.676 -0.375123 -4.90768 0
M  V30 6113 N 585.328 1.53329 -0.364422 0
M  V30 6114 C 586.291 2.24323 0.470292 0
M  V30 6115 C 587.291 1.25068 1.01067 0
M  V30 6116 O 588.481 1.49354 0.896605 0
M  V30 6117 C 585.613 2.97908 1.65722 0
M  V30 6118 H 586.806 2.9952 -0.150917 0
M  V30 6119 H 584.359 1.55868 -0.116092 0
M  V30 6120 H 585.094 2.2695 2.31655 0
M  V30 6121 H 584.879 3.70732 1.27671 0
M  V30 6122 H 586.369 3.5188 2.24878 0
M  V30 6123 N 586.806 0.0935595 1.57322 0
M  V30 6124 C 588.055 -0.570191 1.93473 0
M  V30 6125 C 588.368 -1.69434 0.977318 0
M  V30 6126 O 589.574 -2.41914 1.23248 0
M  V30 6127 C 588.03 -1.06564 3.43762 0
M  V30 6128 C 587.638 0.0286723 4.47991 0
M  V30 6129 C 589.382 -1.70221 3.88877 0
M  V30 6130 C 587.289 -0.482046 5.89432 0
M  V30 6131 H 586.219 -0.216764 0.72217 0
M  V30 6132 H 588.87 0.169313 1.82717 0
M  V30 6133 H 587.252 -1.85878 3.49664 0
M  V30 6134 H 588.426 0.804106 4.5373 0
M  V30 6135 H 586.741 0.570336 4.12476 0
M  V30 6136 H 589.338 -2.09502 4.91948 0
M  V30 6137 H 589.681 -2.57078 3.27439 0
M  V30 6138 H 590.214 -0.974919 3.85668 0
M  V30 6139 H 586.953 0.349871 6.54566 0
M  V30 6140 H 586.473 -1.22452 5.87167 0
M  V30 6141 H 588.152 -0.951508 6.39965 0
M  V30 6142 N 588.284 -1.56567 -0.180126 0
M  V30 6143 C 589.247 -1.94852 -1.20686 0
M  V30 6144 C 590.247 -0.831212 -1.3765 0
M  V30 6145 O 591.437 -1.09841 -1.35206 0
M  V30 6146 C 588.569 -2.23565 -2.57355 0
M  V30 6147 H 589.762 -2.86722 -0.879225 0
M  V30 6148 H 587.315 -1.50489 -0.422237 0
M  V30 6149 H 588.05 -1.34381 -2.95148 0
M  V30 6150 H 587.835 -3.04999 -2.46411 0
M  V30 6151 H 589.325 -2.54137 -3.31367 0
M  V30 6152 N 589.762 0.448376 -1.51087 0
M  V30 6153 C 590.99 1.22143 -1.66999 0
M  V30 6154 C 591.405 1.85283 -0.362699 0
M  V30 6155 O 590.762 1.70236 0.65772 0
M  V30 6156 C 590.813 2.31357 -2.7777 0
M  V30 6157 O 590.534 1.70801 -4.03434 0
M  V30 6158 C 592.035 3.21836 -3.04855 0
M  V30 6159 H 589.255 0.368558 -0.560719 0
M  V30 6160 H 591.799 0.532618 -1.97442 0
M  V30 6161 H 589.954 2.95973 -2.49958 0
M  V30 6162 H 590.368 2.42895 -4.64868 0
M  V30 6163 H 591.842 3.94627 -3.85971 0
M  V30 6164 H 592.319 3.81949 -2.16821 0
M  V30 6165 H 592.925 2.62933 -3.34285 0
M  V30 6166 N 591.24 1.41047 0.703093 0
M  V30 6167 C 592.17 1.45067 1.82969 0
M  V30 6168 C 593.151 0.31016 1.67248 0
M  V30 6169 O 594.336 0.520548 1.87093 0
M  V30 6170 C 591.466 1.32478 3.2104 0
M  V30 6171 C 590.42 2.44262 3.51454 0
M  V30 6172 C 589.746 2.16742 4.88801 0
M  V30 6173 C 591.046 3.86606 3.51189 0
M  V30 6174 H 592.74 2.39353 1.79863 0
M  V30 6175 H 590.286 1.15206 0.863919 0
M  V30 6176 H 592.239 1.33904 3.99559 0
M  V30 6177 H 590.963 0.346735 3.24754 0
M  V30 6178 H 589.622 2.42107 2.75282 0
M  V30 6179 H 589.27 1.17299 4.89132 0
M  V30 6180 H 588.97 2.91643 5.10116 0
M  V30 6181 H 590.494 2.19872 5.69639 0
M  V30 6182 H 591.908 3.90517 4.19725 0
M  V30 6183 H 590.305 4.61128 3.84033 0
M  V30 6184 H 591.375 4.15296 2.50315 0
M  V30 6185 N 592.718 -0.936591 1.26751 0
M  V30 6186 C 594.129 -1.49816 1.1141 0
M  V30 6187 C 594.48 -1.9383 -0.304015 0
M  V30 6188 O 593.605 -1.80346 -1.196 0
M  V30 6189 C 594.2 -2.72271 2.01629 0
M  V30 6190 C 592.759 -3.2468 1.9042 0
M  V30 6191 C 591.906 -1.97444 1.94708 0
M  V30 6192 H 594.857 -0.751604 1.39773 0
M  V30 6193 H 594.878 -3.46741 1.56688 0
M  V30 6194 H 594.39 -2.40205 3.04833 0
M  V30 6195 H 592.491 -3.61525 0.901674 0
M  V30 6196 H 592.604 -3.91476 2.76195 0
M  V30 6197 H 590.968 -2.13545 1.38818 0
M  V30 6198 H 591.751 -1.67703 2.9955 0
M  V30 6199 N 594.196 -1.08629 -1.14182 0
M  V30 6200 C 595.126 -0.740003 -2.21464 0
M  V30 6201 C 596.107 0.278591 -1.67803 0
M  V30 6202 O 597.292 0.148461 -1.93632 0
M  V30 6203 C 594.422 -0.150952 -3.46972 0
M  V30 6204 C 593.376 -1.09815 -4.13672 0
M  V30 6205 C 592.702 -0.3712 -5.3341 0
M  V30 6206 C 594.002 -2.43722 -4.61949 0
M  V30 6207 H 595.696 -1.63697 -2.50686 0
M  V30 6208 H 593.242 -0.788526 -1.20492 0
M  V30 6209 H 595.195 0.103325 -4.21273 0
M  V30 6210 H 593.919 0.781164 -3.1712 0
M  V30 6211 H 592.578 -1.33756 -3.41328 0
M  V30 6212 H 592.226 0.564792 -4.99819 0
M  V30 6213 H 591.926 -1.00267 -5.78982 0
M  V30 6214 H 593.45 -0.12503 -6.10472 0
M  V30 6215 H 594.864 -2.24034 -5.27714 0
M  V30 6216 H 593.261 -3.02582 -5.18232 0
M  V30 6217 H 594.331 -3.05082 -3.76899 0
M  V30 6218 N 595.674 1.31259 -0.872281 0
M  V30 6219 C 596.899 2.0133 -0.498099 0
M  V30 6220 C 597.324 1.65031 0.902568 0
M  V30 6221 O 596.682 0.860164 1.59596 0
M  V30 6222 C 596.73 3.54411 -0.665205 0
M  V30 6223 O 595.834 4.11347 0.294473 0
M  V30 6224 H 595.175 0.633844 -0.197832 0
M  V30 6225 H 597.705 1.67402 -1.17633 0
M  V30 6226 H 597.715 4.04147 -0.559373 0
M  V30 6227 H 596.39 3.80171 -1.68651 0
M  V30 6228 H 594.967 3.72624 0.143403 0
M  V30 6229 N 597.152 0.631951 1.44375 0
M  V30 6230 C 598.377 0.142146 2.06912 0
M  V30 6231 C 598.802 -1.17456 1.4692 0
M  V30 6232 O 598.16 -1.72074 0.570975 0
M  V30 6233 C 598.208 0.0417952 3.60576 0
M  V30 6234 O 597.312 -1.00194 4.00044 0
M  V30 6235 H 596.653 0.0851491 0.658518 0
M  V30 6236 H 599.183 0.868863 1.85235 0
M  V30 6237 H 599.193 -0.148517 4.0773 0
M  V30 6238 H 597.868 1.0031 4.03622 0
M  V30 6239 H 596.445 -0.786131 3.64519 0
M  V30 6240 N 598.631 -1.53133 0.372548 0
M  V30 6241 C 599.594 -2.24569 -0.458389 0
M  V30 6242 C 600.594 -1.25603 -1.00402 0
M  V30 6243 O 601.784 -1.49827 -0.888672 0
M  V30 6244 C 598.916 -2.98783 -1.6414 0
M  V30 6245 H 600.109 -2.99436 0.166799 0
M  V30 6246 H 597.662 -1.55805 0.124357 0
M  V30 6247 H 598.397 -2.28176 -2.30448 0
M  V30 6248 H 598.182 -3.71404 -1.25704 0
M  V30 6249 H 599.672 -3.53068 -2.23008 0
M  V30 6250 N 600.109 -0.101901 -1.5727 0
M  V30 6251 C 601.355 0.554864 -1.95686 0
M  V30 6252 C 601.71 1.65368 -0.983415 0
M  V30 6253 O 601.003 1.91597 -0.0105374 0
M  V30 6254 C 601.197 1.14898 -3.38427 0
M  V30 6255 C 601.026 0.109251 -4.49567 0
M  V30 6256 C 599.796 -0.316633 -5.04307 0
M  V30 6257 C 601.994 -0.665196 -5.0998 0
M  V30 6258 N 599.976 -1.34393 -5.99009 0
M  V30 6259 C 601.347 -1.54413 -6.00464 0
M  V30 6260 C 603.402 -0.717966 -4.92696 0
M  V30 6261 C 602.105 -2.47122 -6.75517 0
M  V30 6262 C 604.131 -1.63268 -5.68417 0
M  V30 6263 C 603.493 -2.49923 -6.58572 0
M  V30 6264 H 599.592 0.17317 -0.762585 0
M  V30 6265 H 602.176 -0.18605 -1.93809 0
M  V30 6266 H 600.347 1.85969 -3.40984 0
M  V30 6267 H 602.079 1.76867 -3.64006 0
M  V30 6268 H 598.834 0.0724419 -4.73545 0
M  V30 6269 H 599.258 -1.85598 -6.51062 0
M  V30 6270 H 603.9 -0.0621637 -4.22754 0
M  V30 6271 H 601.618 -3.13724 -7.44717 0
M  V30 6272 H 605.204 -1.67874 -5.57054 0
M  V30 6273 H 604.084 -3.19553 -7.16139 0
M  V30 6274 N 601.587 1.56661 0.17182 0
M  V30 6275 C 602.55 1.9549 1.19651 0
M  V30 6276 C 603.55 0.838501 1.37207 0
M  V30 6277 O 604.74 1.10556 1.34622 0
M  V30 6278 C 601.872 2.24927 2.56166 0
M  V30 6279 H 603.065 2.87184 0.864007 0
M  V30 6280 H 600.618 1.50711 0.41425 0
M  V30 6281 H 601.353 1.35944 2.94431 0
M  V30 6282 H 601.138 3.06301 2.4479 0
M  V30 6283 H 602.628 2.55891 3.30014 0
M  V30 6284 N 603.065 -0.440357 1.51323 0
M  V30 6285 C 604.311 -1.19181 1.64085 0
M  V30 6286 C 604.644 -1.90936 0.354575 0
M  V30 6287 O 603.919 -1.8347 -0.645675 0
M  V30 6288 C 604.202 -2.2112 2.84215 0
M  V30 6289 C 604.055 -1.53468 4.22809 0
M  V30 6290 C 605.374 -3.22133 2.99864 0
M  V30 6291 H 602.493 -0.431924 0.597169 0
M  V30 6292 H 605.135 -0.481443 1.83799 0
M  V30 6293 H 603.285 -2.81703 2.67537 0
M  V30 6294 H 604.957 -0.962455 4.51148 0
M  V30 6295 H 603.2 -0.837086 4.25647 0
M  V30 6296 H 603.871 -2.27694 5.02852 0
M  V30 6297 H 606.347 -2.71601 3.15233 0
M  V30 6298 H 605.223 -3.90756 3.85488 0
M  V30 6299 H 605.484 -3.88061 2.11804 0
M  V30 6300 N 604.543 -1.41418 -0.695603 0
M  V30 6301 C 605.789 -1.40982 -1.4578 0
M  V30 6302 C 606.122 -0.0187763 -1.94191 0
M  V30 6303 O 605.397 0.95346 -1.69527 0
M  V30 6304 C 605.68 -2.41657 -2.66972 0
M  V30 6305 C 605.533 -3.89869 -2.24327 0
M  V30 6306 C 606.852 -2.39589 -3.69168 0
M  V30 6307 H 603.971 -0.513405 -0.528757 0
M  V30 6308 H 606.613 -1.72693 -0.792275 0
M  V30 6309 H 604.763 -2.14746 -3.23754 0
M  V30 6310 H 606.435 -4.27683 -1.72872 0
M  V30 6311 H 604.678 -4.04737 -1.56111 0
M  V30 6312 H 605.349 -4.55857 -3.11285 0
M  V30 6313 H 607.825 -2.63471 -3.2206 0
M  V30 6314 H 606.701 -3.12044 -4.51575 0
M  V30 6315 H 606.962 -1.41447 -4.18862 0
M  V30 6316 N 606.021 0.929856 -1.27246 0
M  V30 6317 C 607.268 1.67731 -1.13457 0
M  V30 6318 C 607.596 1.9185 0.319998 0
M  V30 6319 O 606.851 1.50524 1.25064 0
M  V30 6320 C 607.15 3.05116 -1.86115 0
M  V30 6321 C 606.816 3.00715 -3.35978 0
M  V30 6322 C 605.478 2.99222 -3.76855 0
M  V30 6323 C 607.83 2.92168 -4.3161 0
M  V30 6324 C 605.158 2.86962 -5.11732 0
M  V30 6325 C 607.51 2.81449 -5.66542 0
M  V30 6326 C 606.174 2.78305 -6.06715 0
M  V30 6327 H 605.444 0.613772 -0.415168 0
M  V30 6328 H 608.091 1.08456 -1.57827 0
M  V30 6329 H 606.396 3.68083 -1.34246 0
M  V30 6330 H 608.093 3.61822 -1.72876 0
M  V30 6331 H 604.683 3.02664 -3.03468 0
M  V30 6332 H 608.867 2.92421 -4.01003 0
M  V30 6333 H 604.123 2.82913 -5.42006 0
M  V30 6334 H 608.297 2.738 -6.40317 0
M  V30 6335 H 605.924 2.68561 -7.11181 0
M  V30 6336 N 607.499 1.09233 1.13605 0
M  V30 6337 C 608.746 0.827159 1.84836 0
M  V30 6338 C 609.074 -0.647199 1.83416 0
M  V30 6339 O 608.329 -1.49228 1.26608 0
M  V30 6340 C 608.628 1.305 3.32723 0
M  V30 6341 C 608.294 2.78864 3.54325 0
M  V30 6342 C 606.956 3.19382 3.59928 0
M  V30 6343 C 609.308 3.74532 3.62457 0
M  V30 6344 C 606.636 4.54346 3.71196 0
M  V30 6345 C 608.988 5.09283 3.75252 0
M  V30 6346 C 607.652 5.49394 3.79108 0
M  V30 6347 H 606.922 0.302679 0.676363 0
M  V30 6348 H 609.569 1.36676 1.34134 0
M  V30 6349 H 607.874 0.68517 3.85762 0
M  V30 6350 H 609.571 1.07648 3.86281 0
M  V30 6351 H 606.161 2.46507 3.50617 0
M  V30 6352 H 610.345 3.44343 3.57409 0
M  V30 6353 H 605.601 4.84864 3.72447 0
M  V30 6354 H 609.775 5.83269 3.80487 0
M  V30 6355 H 607.402 6.5397 3.87591 0
M  V30 6356 N 608.977 -1.30795 0.87923 0
M  V30 6357 C 610.226 -1.95636 0.490875 0
M  V30 6358 C 610.539 -1.70214 -0.963674 0
M  V30 6359 O 611.745 -2.28991 -1.45861 0
M  V30 6360 C 610.201 -3.50271 0.826929 0
M  V30 6361 C 609.809 -3.84521 2.29886 0
M  V30 6362 C 611.553 -4.21456 0.507494 0
M  V30 6363 C 609.46 -5.32309 2.57685 0
M  V30 6364 H 608.39 -0.732238 0.179841 0
M  V30 6365 H 611.041 -1.48829 1.07341 0
M  V30 6366 H 609.423 -3.9562 0.173542 0
M  V30 6367 H 610.597 -3.50102 2.99609 0
M  V30 6368 H 608.912 -3.26425 2.58526 0
M  V30 6369 H 611.509 -5.30199 0.692293 0
M  V30 6370 H 611.852 -4.12614 -0.552718 0
M  V30 6371 H 612.385 -3.81772 1.11782 0
M  V30 6372 H 609.124 -5.46195 3.62424 0
M  V30 6373 H 608.644 -5.68048 1.92566 0
M  V30 6374 H 610.323 -5.99678 2.42889 0
M  V30 6375 N 610.455 -0.639598 -1.44038 0
M  V30 6376 C 611.388 0.109736 -2.27936 0
M  V30 6377 C 612.366 0.843095 -1.39035 0
M  V30 6378 O 613.55 0.845456 -1.68476 0
M  V30 6379 C 610.677 1.16173 -3.18153 0
M  V30 6380 C 609.723 0.527954 -4.2322 0
M  V30 6381 S 610.556 -0.688318 -5.31058 0
M  V30 6382 C 611.712 0.363481 -6.24844 0
M  V30 6383 H 611.945 -0.601986 -2.91142 0
M  V30 6384 H 609.478 -0.42802 -1.48349 0
M  V30 6385 H 611.436 1.76372 -3.7068 0
M  V30 6386 H 610.097 1.84569 -2.54151 0
M  V30 6387 H 609.29 1.32054 -4.86393 0
M  V30 6388 H 608.892 0.000396444 -3.74 0
M  V30 6389 H 611.184 1.23362 -6.66174 0
M  V30 6390 H 612.127 -0.23288 -7.07717 0
M  V30 6391 H 612.535 0.693179 -5.60228 0
M  V30 6392 N 611.933 1.52934 -0.380664 0
M  V30 6393 C 612.863 2.29118 0.450268 0
M  V30 6394 C 613.844 1.32153 1.07096 0
M  V30 6395 O 615.029 1.61038 1.08537 0
M  V30 6396 C 612.159 3.09161 1.58231 0
M  V30 6397 C 611.113 4.13938 1.0881 0
M  V30 6398 C 610.439 4.82153 2.31155 0
M  V30 6399 C 611.739 5.22048 0.162146 0
M  V30 6400 H 613.433 2.98826 -0.185361 0
M  V30 6401 H 610.979 1.43715 -0.0905886 0
M  V30 6402 H 612.932 3.61211 2.17036 0
M  V30 6403 H 611.656 2.3717 2.2454 0
M  V30 6404 H 610.315 3.62855 0.522633 0
M  V30 6405 H 609.963 4.06719 2.95953 0
M  V30 6406 H 609.663 5.52966 1.98752 0
M  V30 6407 H 611.187 5.37004 2.90618 0
M  V30 6408 H 612.601 5.6951 0.658126 0
M  V30 6409 H 610.998 6.00057 -0.0717122 0
M  V30 6410 H 612.068 4.78398 -0.791438 0
M  V30 6411 N 613.412 0.11024 1.57214 0
M  V30 6412 C 614.342 -0.840002 2.17867 0
M  V30 6413 C 615.323 -1.28352 1.11624 0
M  V30 6414 O 616.508 -1.3477 1.39824 0
M  V30 6415 C 613.638 -2.09349 2.77111 0
M  V30 6416 C 612.592 -1.78807 3.8886 0
M  V30 6417 C 611.918 -3.11112 4.34872 0
M  V30 6418 C 613.218 -1.0632 5.11364 0
M  V30 6419 H 614.912 -0.334608 2.97524 0
M  V30 6420 H 612.458 -0.159502 1.43114 0
M  V30 6421 H 614.411 -2.76275 3.18198 0
M  V30 6422 H 613.135 -2.62198 1.9473 0
M  V30 6423 H 611.794 -1.14273 3.48335 0
M  V30 6424 H 611.442 -3.61877 3.49362 0
M  V30 6425 H 611.142 -2.91453 5.10224 0
M  V30 6426 H 612.666 -3.79171 4.78604 0
M  V30 6427 H 614.08 -1.63383 5.49526 0
M  V30 6428 H 612.477 -0.967876 5.92243 0
M  V30 6429 H 613.547 -0.0484569 4.84876 0
M  V30 6430 N 614.89 -1.56749 -0.16351 0
M  V30 6431 C 616.118 -1.86577 -0.894233 0
M  V30 6432 C 616.533 -0.696543 -1.75481 0
M  V30 6433 O 615.89 0.334161 -1.79415 0
M  V30 6434 C 615.941 -3.15508 -1.76456 0
M  V30 6435 O 615.662 -4.27926 -0.938685 0
M  V30 6436 C 617.163 -3.58737 -2.60428 0
M  V30 6437 H 614.383 -0.618829 -0.259405 0
M  V30 6438 H 616.927 -2.03863 -0.161259 0
M  V30 6439 H 615.082 -3.00025 -2.45079 0
M  V30 6440 H 615.496 -5.01546 -1.53465 0
M  V30 6441 H 616.97 -4.51832 -3.17099 0
M  V30 6442 H 617.447 -2.83229 -3.35675 0
M  V30 6443 H 618.053 -3.76858 -1.97125 0
M  V30 6444 N 616.368 0.432326 -1.51554 0
M  V30 6445 C 617.298 1.53242 -1.76179 0
M  V30 6446 C 618.279 1.58717 -0.611801 0
M  V30 6447 O 619.464 1.74364 -0.855033 0
M  V30 6448 C 616.594 2.91278 -1.89141 0
M  V30 6449 C 615.548 3.00663 -3.04608 0
M  V30 6450 C 614.874 4.40728 -3.02759 0
M  V30 6451 C 616.174 2.74281 -4.44485 0
M  V30 6452 H 617.868 1.32886 -2.68294 0
M  V30 6453 H 615.414 0.637841 -1.29103 0
M  V30 6454 H 617.367 3.68203 -2.04951 0
M  V30 6455 H 616.091 3.12877 -0.936785 0
M  V30 6456 H 614.75 2.26179 -2.88511 0
M  V30 6457 H 614.398 4.59301 -2.05065 0
M  V30 6458 H 614.098 4.47936 -3.80299 0
M  V30 6459 H 615.622 5.19619 -3.20669 0
M  V30 6460 H 617.036 3.40936 -4.60907 0
M  V30 6461 H 615.433 2.92893 -5.23769 0
M  V30 6462 H 616.503 1.69856 -4.54177 0
M  V30 6463 N 617.846 1.41785 0.688094 0
M  V30 6464 C 619.094 1.41264 1.4453 0
M  V30 6465 C 619.415 0.0252946 1.94984 0
M  V30 6466 O 618.685 -0.934081 1.72197 0
M  V30 6467 H 617.265 0.519998 0.536294 0
M  V30 6468 H 619.927 1.7709 0.813941 0
M  V30 6469 H 619.023 2.10439 2.30482 0
M  V30 6470 N 619.324 -0.923095 1.27737 0
M  V30 6471 C 620.573 -1.66581 1.13727 0
M  V30 6472 C 620.886 -1.9304 -0.315433 0
M  V30 6473 O 622.092 -2.65309 -0.57651 0
M  V30 6474 C 620.548 -3.00047 1.98745 0
M  V30 6475 C 620.156 -2.8127 3.48699 0
M  V30 6476 C 621.9 -3.77887 1.93395 0
M  V30 6477 C 619.807 -4.1032 4.25901 0
M  V30 6478 H 618.737 -0.624834 0.422017 0
M  V30 6479 H 621.388 -1.02514 1.52194 0
M  V30 6480 H 619.77 -3.65197 1.53125 0
M  V30 6481 H 620.944 -2.24859 4.02213 0
M  V30 6482 H 619.259 -2.16854 3.55476 0
M  V30 6483 H 621.856 -4.73526 2.48348 0
M  V30 6484 H 622.199 -4.06264 0.908605 0
M  V30 6485 H 622.732 -3.19541 2.36935 0
M  V30 6486 H 619.471 -3.8712 5.28978 0
M  V30 6487 H 618.991 -4.66377 3.77163 0
M  V30 6488 H 620.67 -4.78648 4.35321 0
M  V30 6489 N 620.802 -1.09834 -1.13024 0
M  V30 6490 C 622.079 -0.749225 -1.80682 0
M  V30 6491 C 622.459 0.765171 -1.96744 0
M  V30 6492 O 621.807 1.68912 -1.53886 0
M  V30 6493 C 622.017 -1.49311 -3.15448 0
M  V30 6494 C 623.365 -1.66162 -3.90737 0
M  V30 6495 O 624.389 -1.45597 -3.25085 0
M  V30 6496 O 623.248 -2.00211 -5.08505 0
M  V30 6497 H 620.342 -0.269614 -0.781817 0
M  V30 6498 H 622.888 -1.20078 -1.19914 0
M  V30 6499 H 621.66 -2.52407 -2.99009 0
M  V30 6500 H 621.283 -1.034 -3.8392 0
M  V30 6501 N 622.28 1.30327 -0.886154 0
M  V30 6502 C 623.505 2.0079 -0.519425 0
M  V30 6503 C 623.93 1.65979 0.885013 0
M  V30 6504 O 623.288 0.877043 1.58675 0
M  V30 6505 C 623.336 3.53686 -0.702758 0
M  V30 6506 O 622.44 4.11637 0.250828 0
M  V30 6507 H 621.781 0.63171 -0.204544 0
M  V30 6508 H 624.311 1.66145 -1.19402 0
M  V30 6509 H 624.321 4.03531 -0.602207 0
M  V30 6510 H 622.996 3.78361 -1.72673 0
M  V30 6511 H 621.573 3.72755 0.103873 0
M  V30 6512 N 623.758 0.647228 1.43697 0
M  V30 6513 C 624.721 -0.0385101 2.29168 0
M  V30 6514 C 625.721 -0.756487 1.41894 0
M  V30 6515 O 626.911 -0.598641 1.63591 0
M  V30 6516 C 624.043 -1.06524 3.23829 0
M  V30 6517 H 625.236 0.713445 2.9129 0
M  V30 6518 H 622.789 0.408153 1.50877 0
M  V30 6519 H 623.524 -1.84664 2.66589 0
M  V30 6520 H 623.309 -0.554147 3.88164 0
M  V30 6521 H 624.799 -1.54432 3.87996 0
M  V30 6522 N 625.236 -1.5273 0.388769 0
M  V30 6523 C 626.169 -2.22861 -0.490752 0
M  V30 6524 C 627.147 -1.22912 -1.06449 0
M  V30 6525 O 628.331 -1.51896 -1.11624 0
M  V30 6526 C 625.458 -2.94141 -1.67925 0
M  V30 6527 C 624.504 -4.08355 -1.23081 0
M  V30 6528 S 625.337 -5.35077 -0.212786 0
M  V30 6529 C 626.493 -6.09879 -1.40708 0
M  V30 6530 H 626.726 -2.97115 0.104787 0
M  V30 6531 H 624.259 -1.53428 0.172956 0
M  V30 6532 H 626.217 -3.35818 -2.36085 0
M  V30 6533 H 624.878 -2.19568 -2.24608 0
M  V30 6534 H 624.071 -4.57328 -2.11818 0
M  V30 6535 H 623.673 -3.68688 -0.628121 0
M  V30 6536 H 625.965 -6.36018 -2.33424 0
M  V30 6537 H 626.908 -7.01586 -0.958271 0
M  V30 6538 H 627.316 -5.40646 -1.62364 0
M  V30 6539 N 626.714 -0.118576 -1.57153 0
M  V30 6540 C 627.962 0.538461 -1.94795 0
M  V30 6541 C 628.283 1.67243 -1.00274 0
M  V30 6542 O 627.553 1.95811 -0.0589692 0
M  V30 6543 H 626.133 0.201904 -0.719197 0
M  V30 6544 H 628.795 -0.187418 -1.93997 0
M  V30 6545 H 627.891 0.933315 -2.97818 0
M  V30 6546 N 628.193 1.56834 0.155195 0
M  V30 6547 C 629.441 1.82536 0.867462 0
M  V30 6548 C 629.762 0.698168 1.82073 0
M  V30 6549 O 629.032 -0.280807 1.93877 0
M  V30 6550 H 627.612 0.673401 0.323327 0
M  V30 6551 H 630.274 1.94313 0.151156 0
M  V30 6552 H 629.37 2.77171 1.43466 0
M  V30 6553 N 629.671 -0.424282 1.51781 0
M  V30 6554 C 630.604 -1.53633 1.68737 0
M  V30 6555 C 631.582 -1.53549 0.534915 0
M  V30 6556 O 632.766 -1.72483 0.760391 0
M  V30 6557 C 629.893 -2.92195 1.71288 0
M  V30 6558 C 628.939 -3.10251 2.92654 0
M  V30 6559 S 629.772 -2.85166 4.53256 0
M  V30 6560 C 630.928 -4.25986 4.58571 0
M  V30 6561 H 631.161 -1.39018 2.62795 0
M  V30 6562 H 628.694 -0.614854 1.41629 0
M  V30 6563 H 630.652 -3.72059 1.73443 0
M  V30 6564 H 629.313 -3.04162 0.783847 0
M  V30 6565 H 628.506 -4.1159 2.90877 0
M  V30 6566 H 628.108 -2.38231 2.88308 0
M  V30 6567 H 630.4 -5.19392 4.35015 0
M  V30 6568 H 631.343 -4.32792 5.60444 0
M  V30 6569 H 631.751 -4.1025 3.87757 0
M  V30 6570 N 631.149 -1.42148 -0.680565 0
M  V30 6571 C 632.059 -1.47565 -1.82378 0
M  V30 6572 C 633.075 -0.36489 -1.70131 0
M  V30 6573 O 634.251 -0.614916 -1.91783 0
M  V30 6574 C 631.316 -1.37013 -3.18478 0
M  V30 6575 C 630.377 -2.58532 -3.42724 0
M  V30 6576 C 629.61 -2.48473 -4.72331 0
M  V30 6577 O 629.833 -1.51745 -5.49845 0
M  V30 6578 O 628.767 -3.38503 -4.97694 0
M  V30 6579 H 632.593 -2.44045 -1.80764 0
M  V30 6580 H 630.178 -1.23849 -0.835569 0
M  V30 6581 H 632.06 -1.33468 -3.99705 0
M  V30 6582 H 630.735 -0.436552 -3.20743 0
M  V30 6583 H 629.642 -2.67652 -2.61368 0
M  V30 6584 H 630.975 -3.50769 -3.45286 0
M  V30 6585 N 632.627 0.916307 -1.28225 0
M  V30 6586 C 633.852 1.7043 -1.18188 0
M  V30 6587 C 634.277 1.86346 0.256274 0
M  V30 6588 O 633.635 1.37175 1.18544 0
M  V30 6589 C 633.683 3.07546 -1.88275 0
M  V30 6590 O 632.787 3.94904 -1.18848 0
M  V30 6591 H 632.128 0.521967 -0.410423 0
M  V30 6592 H 634.658 1.14589 -1.69501 0
M  V30 6593 H 634.668 3.57793 -1.96082 0
M  V30 6594 H 633.343 2.95279 -2.92887 0
M  V30 6595 H 631.92 3.53339 -1.19187 0
M  V30 6596 N 634.105 1.10431 1.1244 0
M  V30 6597 C 635.351 0.847972 1.84221 0
M  V30 6598 C 635.684 -0.624903 1.83871 0
M  V30 6599 O 634.959 -1.46074 1.28423 0
M  V30 6600 C 635.242 1.39695 3.319 0
M  V30 6601 C 635.095 2.93668 3.40704 0
M  V30 6602 C 636.414 1.03924 4.27654 0
M  V30 6603 H 633.533 0.309502 0.668863 0
M  V30 6604 H 636.175 1.36745 1.31912 0
M  V30 6605 H 634.325 0.955095 3.76577 0
M  V30 6606 H 635.997 3.46379 3.04662 0
M  V30 6607 H 634.24 3.30272 2.81252 0
M  V30 6608 H 634.911 3.27162 4.446 0
M  V30 6609 H 637.387 1.42049 3.91102 0
M  V30 6610 H 636.263 1.45027 5.29394 0
M  V30 6611 H 636.524 -0.051336 4.4207 0
M  V30 6612 N 635.583 -1.29855 0.893053 0
M  V30 6613 C 636.832 -1.95104 0.511597 0
M  V30 6614 C 637.145 -1.71226 -0.945567 0
M  V30 6615 O 638.351 -2.30525 -1.43424 0
M  V30 6616 C 636.807 -3.49374 0.864034 0
M  V30 6617 C 636.415 -3.82061 2.33952 0
M  V30 6618 C 638.159 -4.20894 0.552167 0
M  V30 6619 C 636.066 -5.29546 2.63316 0
M  V30 6620 H 634.996 -0.73029 0.187597 0
M  V30 6621 H 637.647 -1.47682 1.08914 0
M  V30 6622 H 636.029 -3.95413 0.215493 0
M  V30 6623 H 637.203 -3.46904 3.03305 0
M  V30 6624 H 635.518 -3.23665 2.61973 0
M  V30 6625 H 638.115 -5.29435 0.748489 0
M  V30 6626 H 638.458 -4.13178 -0.508924 0
M  V30 6627 H 638.991 -3.80564 1.15825 0
M  V30 6628 H 635.73 -5.4232 3.68197 0
M  V30 6629 H 635.25 -5.65974 1.9858 0
M  V30 6630 H 636.929 -5.97068 2.49236 0
M  V30 6631 N 637.061 -0.65484 -1.43351 0
M  V30 6632 C 638.289 -0.176685 -2.06144 0
M  V30 6633 C 638.704 1.15831 -1.49093 0
M  V30 6634 O 638.061 1.71542 -0.622868 0
M  V30 6635 C 638.112 -0.0813326 -3.61408 0
M  V30 6636 O 637.833 -1.36355 -4.1634 0
M  V30 6637 C 639.334 0.422706 -4.4128 0
M  V30 6638 H 636.554 -0.0906429 -0.66485 0
M  V30 6639 H 639.098 -0.895945 -1.83829 0
M  V30 6640 H 637.253 0.588496 -3.82904 0
M  V30 6641 H 637.667 -1.22381 -5.10023 0
M  V30 6642 H 639.141 0.438375 -5.50257 0
M  V30 6643 H 639.618 1.45432 -4.14423 0
M  V30 6644 H 640.224 -0.214687 -4.24758 0
M  V30 6645 N 638.539 1.52521 -0.396863 0
M  V30 6646 C 639.787 2.01274 0.182536 0
M  V30 6647 C 640.108 1.28485 1.46685 0
M  V30 6648 O 639.378 0.407134 1.91623 0
M  V30 6649 H 637.958 0.743671 0.0704442 0
M  V30 6650 H 640.62 1.87547 -0.530289 0
M  V30 6651 H 639.716 3.09687 0.387385 0
M  V30 6652 N 640.017 0.126909 1.57088 0
M  V30 6653 C 640.947 -0.816847 2.18746 0
M  V30 6654 C 641.928 -1.27161 1.12979 0
M  V30 6655 O 643.113 -1.33279 1.41246 0
M  V30 6656 C 640.243 -2.06398 2.79315 0
M  V30 6657 C 639.197 -1.74673 3.90735 0
M  V30 6658 C 638.523 -3.06482 4.38147 0
M  V30 6659 C 639.823 -1.0089 5.12463 0
M  V30 6660 H 641.517 -0.303032 2.97863 0
M  V30 6661 H 639.063 -0.144314 1.43275 0
M  V30 6662 H 641.016 -2.72885 3.2111 0
M  V30 6663 H 639.74 -2.60118 1.975 0
M  V30 6664 H 638.399 -1.10572 3.49527 0
M  V30 6665 H 638.047 -3.58152 3.5318 0
M  V30 6666 H 637.747 -2.86025 5.13287 0
M  V30 6667 H 639.271 -3.74073 4.82599 0
M  V30 6668 H 640.685 -1.57546 5.51228 0
M  V30 6669 H 639.082 -0.905006 5.93237 0
M  V30 6670 H 640.152 0.00297335 4.849 0
M  V30 6671 N 641.495 -1.56914 -0.146875 0
M  V30 6672 C 642.744 -1.82546 -0.857898 0
M  V30 6673 C 643.057 -0.708169 -1.8233 0
M  V30 6674 O 644.263 -0.850093 -2.57848 0
M  V30 6675 C 642.719 -3.23548 -1.57623 0
M  V30 6676 C 642.327 -4.43212 -0.653224 0
M  V30 6677 C 644.071 -3.58453 -2.27402 0
M  V30 6678 C 641.978 -5.75237 -1.37318 0
M  V30 6679 H 640.908 -0.680786 -0.32411 0
M  V30 6680 H 643.559 -1.83166 -0.110639 0
M  V30 6681 H 641.941 -3.17315 -2.36912 0
M  V30 6682 H 643.115 -4.60682 0.104452 0
M  V30 6683 H 641.43 -4.16351 -0.0638336 0
M  V30 6684 H 644.027 -4.54349 -2.81907 0
M  V30 6685 H 644.37 -2.84516 -3.03901 0
M  V30 6686 H 644.903 -3.66347 -1.55032 0
M  V30 6687 H 641.642 -6.52269 -0.650041 0
M  V30 6688 H 641.162 -5.61703 -2.10357 0
M  V30 6689 H 642.841 -6.18039 -1.91406 0
M  V30 6690 N 642.974 0.416227 -1.52004 0
M  V30 6691 C 644.251 1.17637 -1.56272 0
M  V30 6692 C 644.631 2.08352 -0.339493 0
M  V30 6693 O 643.979 2.1833 0.674124 0
M  V30 6694 C 644.189 1.95986 -2.88774 0
M  V30 6695 C 645.537 2.52299 -3.41512 0
M  V30 6696 O 646.561 2.06174 -2.90467 0
M  V30 6697 O 645.42 3.3648 -4.30631 0
M  V30 6698 H 642.514 0.536726 -0.629169 0
M  V30 6699 H 645.06 0.423583 -1.64329 0
M  V30 6700 H 643.832 1.29487 -3.69254 0
M  V30 6701 H 643.455 2.78285 -2.83978 0
M  V30 6702 N 644.452 1.42507 0.673017 0
M  V30 6703 C 645.362 1.4853 1.81593 0
M  V30 6704 C 646.378 0.373907 1.69935 0
M  V30 6705 O 647.554 0.625078 1.91454 0
M  V30 6706 C 644.619 1.387 3.17747 0
M  V30 6707 C 643.68 2.60346 3.41348 0
M  V30 6708 C 642.913 2.50975 4.71007 0
M  V30 6709 O 643.136 1.54659 5.49033 0
M  V30 6710 O 642.07 3.41138 4.95892 0
M  V30 6711 H 645.896 2.45001 1.79467 0
M  V30 6712 H 643.481 1.2429 0.82899 0
M  V30 6713 H 645.363 1.35586 3.98992 0
M  V30 6714 H 644.038 0.453555 3.20507 0
M  V30 6715 H 642.945 2.69034 2.59945 0
M  V30 6716 H 644.278 3.52595 3.43421 0
M  V30 6717 N 645.93 -0.909495 1.28709 0
M  V30 6718 C 647.177 -1.65905 1.16111 0
M  V30 6719 C 647.505 -1.92334 -0.289436 0
M  V30 6720 O 646.76 -1.52495 -1.22653 0
M  V30 6721 C 647.059 -3.02117 1.90945 0
M  V30 6722 C 646.725 -2.95332 3.40719 0
M  V30 6723 C 645.387 -2.93189 3.81567 0
M  V30 6724 C 647.739 -2.85264 4.36204 0
M  V30 6725 C 645.067 -2.78784 5.16233 0
M  V30 6726 C 647.419 -2.724 5.70948 0
M  V30 6727 C 646.083 -2.68617 6.11066 0
M  V30 6728 H 645.353 -0.60709 0.42488 0
M  V30 6729 H 648 -1.05932 1.59533 0
M  V30 6730 H 646.305 -3.65901 1.40085 0
M  V30 6731 H 648.002 -3.59026 1.7861 0
M  V30 6732 H 644.592 -2.97797 3.08245 0
M  V30 6733 H 648.776 -2.86005 4.05605 0
M  V30 6734 H 644.032 -2.74254 5.46438 0
M  V30 6735 H 648.206 -2.63579 6.44592 0
M  V30 6736 H 645.833 -2.57213 7.15364 0
M  V30 6737 N 647.408 -1.11026 -1.11852 0
M  V30 6738 C 648.34 -0.72249 -2.17515 0
M  V30 6739 C 649.353 0.243782 -1.60964 0
M  V30 6740 O 650.542 0.0273252 -1.78479 0
M  V30 6741 C 647.642 -0.0463979 -3.38868 0
M  V30 6742 C 646.815 -1.0384 -4.24895 0
M  V30 6743 C 645.874 -0.392659 -5.24733 0
M  V30 6744 O 644.9 -1.0453 -5.5952 0
M  V30 6745 N 646.102 0.846296 -5.74298 0
M  V30 6746 H 648.867 -1.63161 -2.51393 0
M  V30 6747 H 646.428 -0.999899 -1.27333 0
M  V30 6748 H 648.42 0.397215 -4.02746 0
M  V30 6749 H 646.99 0.765231 -3.03089 0
M  V30 6750 H 646.21 -1.6601 -3.57539 0
M  V30 6751 H 647.498 -1.70968 -4.79215 0
M  V30 6752 H 646.896 1.39578 -5.4821 0
M  V30 6753 H 645.453 1.23296 -6.40032 0
M  V30 6754 N 648.886 1.2938 -0.899927 0
M  V30 6755 C 649.816 2.30144 -0.39446 0
M  V30 6756 C 650.797 1.61611 0.530639 0
M  V30 6757 O 651.982 1.89119 0.441319 0
M  V30 6758 C 649.112 3.45229 0.37868 0
M  V30 6759 C 648.066 4.25564 -0.456012 0
M  V30 6760 C 647.392 5.32848 0.444637 0
M  V30 6761 C 648.692 4.93651 -1.70605 0
M  V30 6762 H 650.386 2.72673 -1.23653 0
M  V30 6763 H 647.932 1.31086 -0.596034 0
M  V30 6764 H 649.885 4.14797 0.743037 0
M  V30 6765 H 648.609 3.01545 1.25453 0
M  V30 6766 H 647.268 3.57704 -0.802704 0
M  V30 6767 H 646.916 4.85408 1.31863 0
M  V30 6768 H 646.616 5.87497 -0.110154 0
M  V30 6769 H 648.14 6.05268 0.805182 0
M  V30 6770 H 649.554 5.55655 -1.41141 0
M  V30 6771 H 647.951 5.58233 -2.20217 0
M  V30 6772 H 649.021 4.18926 -2.4419 0
M  V30 6773 N 650.364 0.662433 1.43002 0
M  V30 6774 C 651.294 -0.00979809 2.33498 0
M  V30 6775 C 652.275 -0.802329 1.49989 0
M  V30 6776 O 653.46 -0.761964 1.78627 0
M  V30 6777 C 650.59 -0.970446 3.33466 0
M  V30 6778 C 649.544 -0.287383 4.27034 0
M  V30 6779 C 648.87 -1.36012 5.17112 0
M  V30 6780 C 650.17 0.82595 5.15728 0
M  V30 6781 H 651.864 0.745959 2.89958 0
M  V30 6782 H 649.41 0.360172 1.39423 0
M  V30 6783 H 651.363 -1.44971 3.95679 0
M  V30 6784 H 650.087 -1.75748 2.75282 0
M  V30 6785 H 648.746 0.17152 3.66199 0
M  V30 6786 H 648.394 -2.13882 4.55262 0
M  V30 6787 H 648.094 -0.908276 5.80538 0
M  V30 6788 H 649.618 -1.84056 5.82199 0
M  V30 6789 H 651.032 0.42845 5.71697 0
M  V30 6790 H 649.429 1.20282 5.87922 0
M  V30 6791 H 650.499 1.68003 4.54866 0
M  V30 6792 N 651.842 -1.52309 0.404946 0
M  V30 6793 C 652.792 -2.23717 -0.439864 0
M  V30 6794 C 653.776 -1.24692 -1.0169 0
M  V30 6795 O 654.968 -1.49951 -0.940409 0
M  V30 6796 C 652.097 -3.05898 -1.55825 0
M  V30 6797 C 651.183 -4.12331 -0.992188 0
M  V30 6798 N 651.574 -5.0557 -0.152424 0
M  V30 6799 C 649.872 -4.2774 -1.26312 0
M  V30 6800 C 650.573 -5.81474 0.162041 0
M  V30 6801 N 649.549 -5.41767 -0.44601 0
M  V30 6802 H 653.351 -2.93162 0.208084 0
M  V30 6803 H 650.865 -1.60969 0.215131 0
M  V30 6804 H 652.862 -3.55605 -2.17603 0
M  V30 6805 H 651.522 -2.37991 -2.20886 0
M  V30 6806 H 652.533 -5.17468 0.211556 0
M  V30 6807 H 649.21 -3.71062 -1.91362 0
M  V30 6808 H 650.6 -6.66585 0.843423 0
M  V30 6809 N 653.32 -0.135238 -1.57019 0
M  V30 6810 C 654.736 0.221262 -1.58059 0
M  V30 6811 C 654.936 1.65538 -1.14889 0
M  V30 6812 O 653.992 2.37985 -0.843751 0
M  V30 6813 C 655.305 -0.0268114 -3.00688 0
M  V30 6814 C 656.853 0.0378206 -3.12977 0
M  V30 6815 C 657.328 -0.182769 -4.57635 0
M  V30 6816 N 658.819 -0.129292 -4.6302 0
M  V30 6817 C 659.554 -0.274648 -5.72742 0
M  V30 6818 N 659.05 -0.477075 -6.91155 0
M  V30 6819 N 660.843 -0.213077 -5.61696 0
M  V30 6820 H 652.994 -1.07177 -1.83376 0
M  V30 6821 H 655.257 -0.423338 -0.848227 0
M  V30 6822 H 654.963 -1.01889 -3.36618 0
M  V30 6823 H 654.837 0.697863 -3.70688 0
M  V30 6824 H 657.224 1.02043 -2.76896 0
M  V30 6825 H 657.305 -0.718996 -2.45487 0
M  V30 6826 H 656.949 -1.16243 -4.94419 0
M  V30 6827 H 656.879 0.59423 -5.23237 0
M  V30 6828 H 659.37 0.0229896 -3.77893 0
M  V30 6829 H 659.683 -0.578413 -7.70632 0
M  V30 6830 H 658.028 -0.513252 -6.93102 0
M  V30 6831 H 661.219 -0.0557796 -4.68067 0
M  V30 6832 H 661.392 -0.329796 -6.4716 0
M  V30 6833 N 654.798 1.5699 0.138552 0
M  V30 6834 C 655.748 1.9532 1.17619 0
M  V30 6835 C 656.732 0.825545 1.38107 0
M  V30 6836 O 657.924 1.08908 1.39528 0
M  V30 6837 C 655.053 2.34451 2.50774 0
M  V30 6838 C 654.139 3.53805 2.33844 0
M  V30 6839 N 654.53 4.70088 1.86685 0
M  V30 6840 C 652.828 3.59055 2.64567 0
M  V30 6841 C 653.529 5.52165 1.82998 0
M  V30 6842 N 652.505 4.94108 2.26624 0
M  V30 6843 H 656.307 2.82694 0.803809 0
M  V30 6844 H 653.821 1.5866 0.346519 0
M  V30 6845 H 655.818 2.60119 3.25797 0
M  V30 6846 H 654.478 1.48431 2.88788 0
M  V30 6847 H 655.489 4.93681 1.56523 0
M  V30 6848 H 652.166 2.83596 3.06398 0
M  V30 6849 H 653.556 6.55407 1.47957 0
M  V30 6850 N 656.276 -0.40816 1.52223 0
M  V30 6851 C 657.692 -0.74685 1.41047 0
M  V30 6852 C 657.892 -1.94788 0.51573 0
M  V30 6853 O 656.948 -2.52494 -0.0181156 0
M  V30 6854 C 658.261 -0.999878 2.83589 0
M  V30 6855 C 659.809 -1.10253 2.92939 0
M  V30 6856 C 660.284 -1.38832 4.36451 0
M  V30 6857 N 661.775 -1.45694 4.3969 0
M  V30 6858 C 662.51 -1.69435 5.47795 0
M  V30 6859 N 662.006 -1.90774 6.66016 0
M  V30 6860 N 663.799 -1.71458 5.35312 0
M  V30 6861 H 655.95 0.382409 2.08929 0
M  V30 6862 H 658.213 0.108807 0.941735 0
M  V30 6863 H 657.919 -0.189723 3.51188 0
M  V30 6864 H 657.793 -1.91978 3.24691 0
M  V30 6865 H 660.18 -1.90328 2.2552 0
M  V30 6866 H 660.261 -0.160973 2.55293 0
M  V30 6867 H 659.905 -0.592741 5.04429 0
M  V30 6868 H 659.835 -2.34241 4.71634 0
M  V30 6869 H 662.326 -1.3099 3.54472 0
M  V30 6870 H 662.639 -2.08342 7.44186 0
M  V30 6871 H 660.984 -1.88037 6.69079 0
M  V30 6872 H 664.175 -1.54326 4.41929 0
M  V30 6873 H 664.348 -1.89621 6.19635 0
M  V30 6874 N 657.755 -1.42862 -0.66545 0
M  V30 6875 C 658.665 -1.49491 -1.80803 0
M  V30 6876 C 659.681 -0.382914 -1.69734 0
M  V30 6877 O 660.857 -0.635223 -1.9112 0
M  V30 6878 C 657.922 -1.40383 -3.17007 0
M  V30 6879 C 656.983 -2.62152 -3.39963 0
M  V30 6880 C 656.216 -2.53469 -4.69669 0
M  V30 6881 O 656.439 -1.57568 -5.48205 0
M  V30 6882 O 655.373 -3.43763 -4.94075 0
M  V30 6883 H 659.199 -2.45949 -1.78165 0
M  V30 6884 H 656.784 -1.24728 -0.822387 0
M  V30 6885 H 658.666 -1.377 -3.98267 0
M  V30 6886 H 657.341 -0.470546 -3.20262 0
M  V30 6887 H 656.248 -2.70409 -2.58515 0
M  V30 6888 H 657.581 -3.54411 -3.41546 0
M  V30 6889 N 659.233 0.902656 -1.29189 0
M  V30 6890 C 660.163 2.02294 -1.16616 0
M  V30 6891 C 661.144 1.6999 -0.0611175 0
M  V30 6892 O 662.329 1.9271 -0.240072 0
M  V30 6893 C 659.459 3.37018 -0.83882 0
M  V30 6894 C 658.413 3.83522 -1.89986 0
M  V30 6895 C 657.739 5.15337 -1.42589 0
M  V30 6896 C 659.039 4.04169 -3.30824 0
M  V30 6897 H 660.733 2.13071 -2.10336 0
M  V30 6898 H 658.279 1.02378 -1.01266 0
M  V30 6899 H 660.232 4.14895 -0.737584 0
M  V30 6900 H 658.956 3.26325 0.134071 0
M  V30 6901 H 657.615 3.07859 -1.99043 0
M  V30 6902 H 657.263 5.01056 -0.441759 0
M  V30 6903 H 656.963 5.47423 -2.13547 0
M  V30 6904 H 658.487 5.95758 -1.3381 0
M  V30 6905 H 659.901 4.72537 -3.24626 0
M  V30 6906 H 658.298 4.47604 -3.99713 0
M  V30 6907 H 659.368 3.08604 -3.74021 0
M  V30 6908 N 660.711 1.11618 1.11262 0
M  V30 6909 C 661.958 0.86618 1.8304 0
M  V30 6910 C 662.286 -0.608149 1.84748 0
M  V30 6911 O 661.541 -1.46508 1.29745 0
M  V30 6912 C 661.84 1.37529 3.2988 0
M  V30 6913 C 661.506 2.86317 3.4833 0
M  V30 6914 C 660.168 3.26945 3.53073 0
M  V30 6915 C 662.52 3.82136 3.54431 0
M  V30 6916 C 659.848 4.62117 3.61475 0
M  V30 6917 C 662.2 5.17128 3.64365 0
M  V30 6918 C 660.864 5.57312 3.67369 0
M  V30 6919 H 660.134 0.316958 0.66979 0
M  V30 6920 H 662.781 1.3949 1.31205 0
M  V30 6921 H 661.086 0.766842 3.84222 0
M  V30 6922 H 662.783 1.15817 3.83911 0
M  V30 6923 H 659.373 2.53889 3.45309 0
M  V30 6924 H 663.557 3.51847 3.50025 0
M  V30 6925 H 658.813 4.92655 3.62079 0
M  V30 6926 H 662.987 5.91208 3.68029 0
M  V30 6927 H 660.614 6.62045 3.73632 0
M  V30 6928 N 662.189 -1.289 0.906776 0
M  V30 6929 C 663.417 -1.99401 0.551969 0
M  V30 6930 C 663.832 -1.67816 -0.865048 0
M  V30 6931 O 663.189 -0.927078 -1.57199 0
M  V30 6932 C 663.24 -3.53779 0.743152 0
M  V30 6933 O 662.961 -3.84248 2.1044 0
M  V30 6934 C 664.462 -4.41543 0.39424 0
M  V30 6935 H 661.682 -0.636926 0.211106 0
M  V30 6936 H 664.226 -1.64266 1.21807 0
M  V30 6937 H 662.381 -3.87201 0.124143 0
M  V30 6938 H 662.795 -4.78904 2.13895 0
M  V30 6939 H 664.269 -5.48957 0.578814 0
M  V30 6940 H 664.746 -4.34073 -0.669137 0
M  V30 6941 H 665.352 -4.13605 0.990491 0
M  V30 6942 N 663.667 -0.670007 -1.42649 0
M  V30 6943 C 664.597 -0.00258501 -2.335 0
M  V30 6944 C 665.578 0.794364 -1.50412 0
M  V30 6945 O 666.763 0.75248 -1.79029 0
M  V30 6946 C 663.893 0.952748 -3.33976 0
M  V30 6947 C 662.847 0.264733 -4.2718 0
M  V30 6948 C 662.173 1.33267 -5.17826 0
M  V30 6949 C 663.473 -0.853289 -5.15283 0
M  V30 6950 H 665.167 -0.761326 -2.89559 0
M  V30 6951 H 662.713 -0.367561 -1.3923 0
M  V30 6952 H 664.666 1.4287 -3.96442 0
M  V30 6953 H 663.39 1.74285 -2.7621 0
M  V30 6954 H 662.049 -0.190938 -3.66102 0
M  V30 6955 H 661.697 2.11464 -4.5639 0
M  V30 6956 H 661.397 0.877476 -5.81011 0
M  V30 6957 H 662.921 1.80965 -5.83167 0
M  V30 6958 H 664.335 -0.458763 -5.71462 0
M  V30 6959 H 662.732 -1.23398 -5.87276 0
M  V30 6960 H 663.802 -1.70412 -4.53969 0
M  V30 6961 N 665.145 1.52092 -0.413018 0
M  V30 6962 C 666.392 2.01855 0.161497 0
M  V30 6963 C 666.72 1.29845 1.44812 0
M  V30 6964 O 665.975 0.394471 1.91683 0
M  V30 6965 C 666.274 3.54529 0.4521 0
M  V30 6966 C 665.94 4.4469 -0.745788 0
M  V30 6967 C 664.602 4.69053 -1.07435 0
M  V30 6968 C 666.954 4.97742 -1.54604 0
M  V30 6969 C 664.282 5.43717 -2.20429 0
M  V30 6970 C 666.634 5.73642 -2.66678 0
M  V30 6971 C 665.298 5.96277 -3.00016 0
M  V30 6972 H 664.568 0.73864 0.0590961 0
M  V30 6973 H 667.215 1.83274 -0.555234 0
M  V30 6974 H 665.52 3.7131 1.25045 0
M  V30 6975 H 667.217 3.90546 0.909647 0
M  V30 6976 H 663.807 4.25907 -0.479725 0
M  V30 6977 H 667.991 4.78824 -1.30543 0
M  V30 6978 H 663.247 5.59462 -2.46602 0
M  V30 6979 H 667.421 6.13746 -3.29072 0
M  V30 6980 H 665.048 6.53913 -3.87688 0
M  V30 6981 N 666.623 0.143563 1.56945 0
M  V30 6982 C 667.872 -0.50835 1.95189 0
M  V30 6983 C 668.185 -1.66239 1.03073 0
M  V30 6984 O 669.391 -2.3787 1.30882 0
M  V30 6985 C 667.847 -0.955735 3.46978 0
M  V30 6986 C 667.455 0.171183 4.47673 0
M  V30 6987 C 669.199 -1.57763 3.94095 0
M  V30 6988 C 667.106 -0.294279 5.90667 0
M  V30 6989 H 666.036 -0.193679 0.728701 0
M  V30 6990 H 668.687 0.227357 1.82086 0
M  V30 6991 H 667.069 -1.7466 3.55401 0
M  V30 6992 H 668.243 0.948049 4.50942 0
M  V30 6993 H 666.558 0.701273 4.10452 0
M  V30 6994 H 669.155 -1.93745 4.98364 0
M  V30 6995 H 669.498 -2.46531 3.35452 0
M  V30 6996 H 670.031 -0.851728 3.88575 0
M  V30 6997 H 666.77 0.557939 6.53121 0
M  V30 6998 H 666.29 -1.0371 5.90766 0
M  V30 6999 H 667.969 -0.747426 6.42668 0
M  V30 7000 N 668.101 -1.57061 -0.130224 0
M  V30 7001 C 669.347 -1.8453 -0.841216 0
M  V30 7002 C 669.68 -0.727666 -1.80052 0
M  V30 7003 O 668.955 0.267419 -1.92653 0
M  V30 7004 C 669.238 -3.22553 -1.60099 0
M  V30 7005 C 669.091 -4.44901 -0.662048 0
M  V30 7006 C 670.41 -3.58003 -2.55973 0
M  V30 7007 H 667.529 -0.671215 -0.304366 0
M  V30 7008 H 670.171 -1.89705 -0.105821 0
M  V30 7009 H 668.321 -3.18272 -2.22789 0
M  V30 7010 H 669.993 -4.61278 -0.0448559 0
M  V30 7011 H 668.236 -4.33791 0.0272253 0
M  V30 7012 H 668.907 -5.3812 -1.23006 0
M  V30 7013 H 671.383 -3.63002 -2.03393 0
M  V30 7014 H 670.259 -4.55576 -3.06172 0
M  V30 7015 H 670.52 -2.84833 -3.38116 0
M  V30 7016 N 669.579 0.400081 -1.52437 0
M  V30 7017 C 670.509 1.4947 -1.7939 0
M  V30 7018 C 671.49 1.57383 -0.645329 0
M  V30 7019 O 672.675 1.72511 -0.891826 0
M  V30 7020 C 669.805 2.87201 -1.95276 0
M  V30 7021 C 668.759 2.94134 -3.10917 0
M  V30 7022 C 668.085 4.34207 -3.1204 0
M  V30 7023 C 669.385 2.64791 -4.50203 0
M  V30 7024 H 671.079 1.27165 -2.71052 0
M  V30 7025 H 668.625 0.610312 -1.30427 0
M  V30 7026 H 670.578 3.63772 -2.12715 0
M  V30 7027 H 669.302 3.10819 -1.00294 0
M  V30 7028 H 667.961 2.20009 -2.93243 0
M  V30 7029 H 667.609 4.54848 -2.14761 0
M  V30 7030 H 667.309 4.39768 -3.89715 0
M  V30 7031 H 668.833 5.127 -3.31619 0
M  V30 7032 H 670.247 3.31083 -4.68035 0
M  V30 7033 H 668.644 2.81717 -5.29864 0
M  V30 7034 H 669.714 1.60184 -4.57678 0
M  V30 7035 N 671.057 1.43213 0.657864 0
M  V30 7036 C 672.02 1.47687 1.75275 0
M  V30 7037 C 673.02 0.362179 1.56668 0
M  V30 7038 O 674.21 0.623734 1.62651 0
M  V30 7039 C 671.342 1.32497 3.14098 0
M  V30 7040 H 672.535 2.4519 1.7269 0
M  V30 7041 H 670.088 1.2991 0.869087 0
M  V30 7042 H 670.823 0.359831 3.22298 0
M  V30 7043 H 670.608 2.13299 3.29008 0
M  V30 7044 H 672.098 1.38549 3.93946 0
M  V30 7045 N 672.536 -0.895792 1.29666 0
M  V30 7046 C 673.764 -1.68001 1.20761 0
M  V30 7047 C 674.179 -1.87379 -0.231187 0
M  V30 7048 O 673.536 -1.41359 -1.15429 0
M  V30 7049 C 673.587 -3.06236 1.92098 0
M  V30 7050 O 673.308 -2.8774 3.30359 0
M  V30 7051 C 674.809 -4.00652 1.89717 0
M  V30 7052 H 672.029 -0.524591 0.418384 0
M  V30 7053 H 674.573 -1.11995 1.71106 0
M  V30 7054 H 672.728 -3.59007 1.45578 0
M  V30 7055 H 673.142 -3.75359 3.66342 0
M  V30 7056 H 674.616 -4.95051 2.44189 0
M  V30 7057 H 675.093 -4.30424 0.873595 0
M  V30 7058 H 675.699 -3.53815 2.35998 0
M  V30 7059 N 674.014 -1.12206 -1.10668 0
M  V30 7060 C 675.261 -0.875875 -1.82578 0
M  V30 7061 C 675.589 0.598342 -1.85068 0
M  V30 7062 O 674.844 1.45818 -1.3052 0
M  V30 7063 C 675.143 -1.39276 -3.29146 0
M  V30 7064 C 674.809 -2.8816 -3.46806 0
M  V30 7065 C 673.471 -3.28813 -3.51334 0
M  V30 7066 C 675.823 -3.8401 -3.52399 0
M  V30 7067 C 673.151 -4.64028 -3.59019 0
M  V30 7068 C 675.503 -5.19053 -3.61617 0
M  V30 7069 C 674.167 -5.59252 -3.64408 0
M  V30 7070 H 673.437 -0.320505 -0.6681 0
M  V30 7071 H 676.084 -1.40184 -1.30464 0
M  V30 7072 H 674.389 -0.787207 -3.8381 0
M  V30 7073 H 676.086 -1.17851 -3.83291 0
M  V30 7074 H 672.676 -2.55716 -3.43958 0
M  V30 7075 H 676.86 -3.53698 -3.48154 0
M  V30 7076 H 672.116 -4.94568 -3.59461 0
M  V30 7077 H 676.29 -5.93152 -3.64889 0
M  V30 7078 H 673.917 -6.64017 -3.70116 0
M  V30 7079 N 675.492 1.28418 -0.913599 0
M  V30 7080 C 676.422 2.29713 -0.418847 0
M  V30 7081 C 677.403 1.62165 0.513469 0
M  V30 7082 O 678.588 1.89576 0.421235 0
M  V30 7083 C 675.718 3.45612 0.342042 0
M  V30 7084 C 674.672 4.25056 -0.501123 0
M  V30 7085 C 673.998 5.3329 0.388097 0
M  V30 7086 C 675.298 4.91814 -1.75831 0
M  V30 7087 H 676.992 2.71346 -1.26538 0
M  V30 7088 H 674.538 1.30446 -0.609903 0
M  V30 7089 H 676.491 4.15562 0.699 0
M  V30 7090 H 675.215 3.02858 1.22248 0
M  V30 7091 H 673.874 3.56833 -0.840598 0
M  V30 7092 H 673.522 4.8678 1.26707 0
M  V30 7093 H 673.222 5.87347 -0.172459 0
M  V30 7094 H 674.746 6.06088 0.74094 0
M  V30 7095 H 676.16 5.54126 -1.47026 0
M  V30 7096 H 674.557 5.55866 -2.26126 0
M  V30 7097 H 675.627 4.16313 -2.4862 0
M  V30 7098 N 676.97 0.677563 1.42291 0
M  V30 7099 C 677.9 0.014968 2.33495 0
M  V30 7100 C 678.881 -0.786376 1.50831 0
M  V30 7101 O 680.066 -0.742975 1.79426 0
M  V30 7102 C 677.196 -0.935023 3.34477 0
M  V30 7103 C 676.15 -0.242074 4.27315 0
M  V30 7104 C 675.476 -1.30519 5.18526 0
M  V30 7105 C 676.776 0.880604 5.14823 0
M  V30 7106 H 678.47 0.776671 2.89151 0
M  V30 7107 H 676.016 0.37494 1.39033 0
M  V30 7108 H 677.969 -1.40766 3.97194 0
M  V30 7109 H 676.693 -1.72818 2.77131 0
M  V30 7110 H 675.352 0.210351 3.65996 0
M  V30 7111 H 675 -2.09041 4.57505 0
M  V30 7112 H 674.7 -0.846652 5.81468 0
M  V30 7113 H 676.224 -1.7787 5.84119 0
M  V30 7114 H 677.638 0.489062 5.7121 0
M  V30 7115 H 676.035 1.26511 5.86613 0
M  V30 7116 H 677.105 1.72818 4.53059 0
M  V30 7117 N 678.448 -1.51871 0.421078 0
M  V30 7118 C 679.673 -2.0684 -0.152371 0
M  V30 7119 C 680.098 -1.28802 -1.37083 0
M  V30 7120 O 679.456 -0.321482 -1.78427 0
M  V30 7121 C 679.504 -3.57532 -0.469368 0
M  V30 7122 O 678.608 -3.81818 -1.55848 0
M  V30 7123 H 677.949 -0.663939 -0.00898586 0
M  V30 7124 H 680.479 -1.95674 0.597724 0
M  V30 7125 H 680.489 -4.01515 -0.724553 0
M  V30 7126 H 679.164 -4.13761 0.421276 0
M  V30 7127 H 677.741 -3.49709 -1.29453 0
M  V30 7128 N 679.926 -0.151884 -1.56866 0
M  V30 7129 C 680.856 0.781943 -2.20018 0
M  V30 7130 C 681.837 1.25347 -1.14987 0
M  V30 7131 O 683.022 1.31015 -1.43348 0
M  V30 7132 C 680.152 2.01928 -2.82564 0
M  V30 7133 C 679.106 1.68434 -3.93464 0
M  V30 7134 C 678.432 2.99472 -4.42968 0
M  V30 7135 C 679.732 0.927244 -5.14003 0
M  V30 7136 H 681.426 0.255607 -2.98307 0
M  V30 7137 H 678.972 0.121502 -1.43486 0
M  V30 7138 H 680.925 2.67741 -3.25411 0
M  V30 7139 H 679.649 2.56943 -2.01614 0
M  V30 7140 H 678.308 1.04998 -3.51242 0
M  V30 7141 H 677.956 3.52488 -3.58834 0
M  V30 7142 H 677.656 2.77823 -5.17772 0
M  V30 7143 H 679.18 3.66348 -4.88489 0
M  V30 7144 H 680.594 1.48756 -5.53665 0
M  V30 7145 H 678.991 0.810513 -5.94601 0
M  V30 7146 H 680.061 -0.0801163 -4.84834 0
M  V30 7147 N 681.404 1.57128 0.121893 0
M  V30 7148 C 682.651 1.847 0.830188 0
M  V30 7149 C 682.979 0.736543 1.80015 0
M  V30 7150 O 682.234 -0.272358 1.93796 0
M  V30 7151 C 682.533 3.1874 1.61677 0
M  V30 7152 C 682.199 4.43901 0.791361 0
M  V30 7153 C 680.861 4.77887 0.563731 0
M  V30 7154 C 683.213 5.20753 0.215823 0
M  V30 7155 C 680.541 5.86168 -0.249737 0
M  V30 7156 C 682.893 6.29891 -0.584821 0
M  V30 7157 C 681.557 6.6241 -0.822794 0
M  V30 7158 H 680.827 0.675866 0.303787 0
M  V30 7159 H 683.474 1.91276 0.0926894 0
M  V30 7160 H 681.779 3.07728 2.42509 0
M  V30 7161 H 683.476 3.37295 2.16872 0
M  V30 7162 H 680.066 4.17272 0.978867 0
M  V30 7163 H 684.25 4.94851 0.378907 0
M  V30 7164 H 679.506 6.0979 -0.44336 0
M  V30 7165 H 683.68 6.88624 -1.03779 0
M  V30 7166 H 681.307 7.46147 -1.45496 0
M  V30 7167 N 682.882 -0.391992 1.52647 0
M  V30 7168 C 684.122 -1.1463 1.69232 0
M  V30 7169 C 684.486 -1.87312 0.421684 0
M  V30 7170 O 685.687 -2.64768 0.463852 0
M  V30 7171 C 683.958 -2.10088 2.89133 0
M  V30 7172 S 685.517 -2.93395 3.2629 0
M  V30 7173 H 682.335 -0.388076 0.59575 0
M  V30 7174 H 684.937 -0.431149 1.90687 0
M  V30 7175 H 683.641 -1.55408 3.79837 0
M  V30 7176 H 683.172 -2.86116 2.70003 0
M  V30 7177 H 685.187 -4.12193 2.76244 0
M  V30 7178 N 684.36 -1.4356 -0.65026 0
M  V30 7179 C 685.606 -1.45549 -1.41221 0
M  V30 7180 C 685.939 -0.0805472 -1.94033 0
M  V30 7181 O 685.214 0.899043 -1.72475 0
M  V30 7182 C 685.497 -2.50028 -2.59148 0
M  V30 7183 C 685.35 -3.96808 -2.1181 0
M  V30 7184 C 686.669 -2.51212 -3.61359 0
M  V30 7185 H 683.788 -0.529967 -0.512156 0
M  V30 7186 H 686.43 -1.75127 -0.736933 0
M  V30 7187 H 684.58 -2.24937 -3.16758 0
M  V30 7188 H 686.252 -4.32966 -1.59178 0
M  V30 7189 H 684.495 -4.09498 -1.43156 0
M  V30 7190 H 685.166 -4.6553 -2.96625 0
M  V30 7191 H 687.642 -2.73583 -3.13515 0
M  V30 7192 H 686.518 -3.26252 -4.41419 0
M  V30 7193 H 686.779 -1.54701 -4.1415 0
M  V30 7194 N 685.838 0.888903 -1.30139 0
M  V30 7195 C 687.066 1.67358 -1.21651 0
M  V30 7196 C 687.481 1.87499 0.221246 0
M  V30 7197 O 686.838 1.41969 1.14677 0
M  V30 7198 C 686.889 3.05213 -1.93719 0
M  V30 7199 O 686.61 2.85984 -3.31881 0
M  V30 7200 C 688.111 3.9964 -1.9184 0
M  V30 7201 H 685.331 0.522365 -0.42116 0
M  V30 7202 H 687.875 1.11086 -1.71698 0
M  V30 7203 H 686.03 3.5823 -1.4748 0
M  V30 7204 H 686.444 3.73411 -3.68327 0
M  V30 7205 H 687.918 4.93749 -2.46811 0
M  V30 7206 H 688.395 4.29955 -0.896409 0
M  V30 7207 H 689.001 3.52558 -2.37872 0
M  V30 7208 N 687.317 1.12792 1.10072 0
M  V30 7209 C 688.265 0.794523 2.18609 0
M  V30 7210 C 689.259 -0.220271 1.67962 0
M  V30 7211 O 690.465 -0.0780938 1.79831 0
M  V30 7212 H 686.84 0.239123 0.712969 0
M  V30 7213 H 688.811 1.71823 2.43966 0
M  V30 7214 C 687.56 0.269548 3.46654 0
M  V30 7215 H 686.883 1.04171 3.8599 0
M  V30 7216 H 688.323 0.0746242 4.23934 0
M  V30 7217 C 686.782 -1.00333 3.21613 0
M  V30 7218 O 687.312 -2.08042 3.4363 0
M  V30 7219 N 685.518 -0.931763 2.75257 0
M  V30 7220 H 685.065 -0.0551197 2.57541 0
M  V30 7221 H 685.023 -1.78405 2.58881 0
M  V30 7222 N 688.795 -1.27931 0.920396 0
M  V30 7223 C 690.043 -1.94304 0.555906 0
M  V30 7224 C 690.364 -1.72753 -0.904519 0
M  V30 7225 O 689.634 -1.07104 -1.64029 0
M  V30 7226 H 688.214 -0.719001 0.202599 0
M  V30 7227 H 690.876 -1.55785 1.1712 0
M  V30 7228 H 689.972 -3.02806 0.755981 0
M  V30 7229 N 690.273 -0.685099 -1.4193 0
M  V30 7230 C 691.521 -0.21124 -2.00993 0
M  V30 7231 C 691.842 1.18985 -1.54491 0
M  V30 7232 O 691.112 1.8009 -0.771 0
M  V30 7233 H 689.692 -0.0751059 -0.743215 0
M  V30 7234 H 692.354 -0.883915 -1.73704 0
M  V30 7235 H 691.45 -0.220513 -3.1132 0
M  V30 7236 N 691.751 1.51645 -0.429126 0
M  V30 7237 C 693 2.01203 0.141538 0
M  V30 7238 C 693.313 1.31828 1.44502 0
M  V30 7239 O 694.519 1.7231 2.09813 0
M  V30 7240 C 692.975 3.58624 0.302786 0
M  V30 7241 C 692.583 4.3693 -0.989775 0
M  V30 7242 C 694.327 4.16353 0.827661 0
M  V30 7243 C 692.234 5.86037 -0.794619 0
M  V30 7244 H 691.164 0.751867 0.05667 0
M  V30 7245 H 693.815 1.74822 -0.557633 0
M  V30 7246 H 692.197 3.81417 1.06476 0
M  V30 7247 H 693.371 4.25887 -1.75945 0
M  V30 7248 H 691.686 3.90614 -1.44256 0
M  V30 7249 H 694.283 5.25455 0.990026 0
M  V30 7250 H 694.626 3.74995 1.80787 0
M  V30 7251 H 695.159 3.97606 0.124213 0
M  V30 7252 H 691.898 6.31792 -1.74697 0
M  V30 7253 H 691.418 5.99765 -0.0645968 0
M  V30 7254 H 693.097 6.45471 -0.444591 0
M  V30 7255 N 693.229 0.160201 1.56784 0
M  V30 7256 C 694.459 -0.493449 2.00621 0
M  V30 7257 C 694.867 -1.5809 1.03943 0
M  V30 7258 O 694.21 -1.83675 0.0305343 0
M  V30 7259 C 694.272 -1.14169 3.4089 0
M  V30 7260 C 693.936 -0.197243 4.56574 0
M  V30 7261 C 694.933 0.580174 5.16653 0
M  V30 7262 C 692.618 -0.0963038 5.02208 0
M  V30 7263 C 694.612 1.44584 6.20785 0
M  V30 7264 C 692.299 0.772959 6.06192 0
M  V30 7265 C 693.297 1.54263 6.65351 0
M  V30 7266 O 692.985 2.39738 7.67321 0
M  V30 7267 H 692.717 -0.131764 0.663034 0
M  V30 7268 H 695.271 0.255728 2.03802 0
M  V30 7269 H 693.501 -1.93877 3.34587 0
M  V30 7270 H 695.19 -1.69641 3.6875 0
M  V30 7271 H 695.956 0.5123 4.82287 0
M  V30 7272 H 691.835 -0.685143 4.5588 0
M  V30 7273 H 695.379 2.04706 6.66889 0
M  V30 7274 H 691.276 0.842077 6.39984 0
M  V30 7275 H 692.044 2.33131 7.84597 0
M  V30 7276 N 694.707 -1.5719 -0.113559 0
M  V30 7277 C 695.953 -1.85412 -0.821597 0
M  V30 7278 C 696.286 -0.746722 -1.7927 0
M  V30 7279 O 695.561 0.246971 -1.92926 0
M  V30 7280 C 695.844 -3.24233 -1.56669 0
M  V30 7281 C 695.697 -4.45578 -0.614823 0
M  V30 7282 C 697.016 -3.60697 -2.52161 0
M  V30 7283 H 694.135 -0.674406 -0.29723 0
M  V30 7284 H 696.777 -1.89807 -0.085694 0
M  V30 7285 H 694.927 -3.20617 -2.19401 0
M  V30 7286 H 696.599 -4.613 0.00407137 0
M  V30 7287 H 694.842 -4.33738 0.0732332 0
M  V30 7288 H 695.513 -5.39395 -1.17292 0
M  V30 7289 H 697.989 -3.65139 -1.99532 0
M  V30 7290 H 696.865 -4.58798 -3.01323 0
M  V30 7291 H 697.126 -2.88403 -3.35076 0
M  V30 7292 N 696.185 0.383891 -1.52853 0
M  V30 7293 C 697.432 1.12842 -1.68146 0
M  V30 7294 C 697.76 1.89823 -0.423954 0
M  V30 7295 O 697.015 1.86475 0.593765 0
M  V30 7296 C 697.314 2.12881 -2.87082 0
M  V30 7297 C 696.98 1.52519 -4.24322 0
M  V30 7298 C 695.642 1.35783 -4.61645 0
M  V30 7299 C 697.994 1.0868 -5.09743 0
M  V30 7300 C 695.322 0.737643 -5.82044 0
M  V30 7301 C 697.674 0.480699 -6.30771 0
M  V30 7302 C 696.338 0.300681 -6.66822 0
M  V30 7303 H 695.608 0.412917 -0.615289 0
M  V30 7304 H 698.255 0.412416 -1.87006 0
M  V30 7305 H 696.56 2.90719 -2.62659 0
M  V30 7306 H 698.257 2.70408 -2.96109 0
M  V30 7307 H 694.847 1.66534 -3.94923 0
M  V30 7308 H 699.031 1.2041 -4.81472 0
M  V30 7309 H 694.287 0.586415 -6.08581 0
M  V30 7310 H 698.461 0.132733 -6.96273 0
M  V30 7311 H 696.088 -0.181966 -7.59982 0
M  V30 7312 N 697.663 1.43903 0.642637 0
M  V30 7313 C 698.891 1.4954 1.42988 0
M  V30 7314 C 699.306 0.116588 1.8844 0
M  V30 7315 O 698.663 -0.875285 1.60141 0
M  V30 7316 C 698.714 2.45031 2.65785 0
M  V30 7317 O 698.435 3.77551 2.22232 0
M  V30 7318 C 699.936 2.60017 3.59035 0
M  V30 7319 H 697.156 0.507544 0.438907 0
M  V30 7320 H 699.7 1.88752 0.786942 0
M  V30 7321 H 697.855 2.08985 3.26196 0
M  V30 7322 H 698.269 4.29001 3.01759 0
M  V30 7323 H 699.743 3.30887 4.41835 0
M  V30 7324 H 700.22 1.64861 4.07084 0
M  V30 7325 H 700.826 2.96918 3.045 0
M  V30 7326 N 699.141 -0.881989 1.30609 0
M  V30 7327 C 700.071 -2.00413 1.1982 0
M  V30 7328 C 701.052 -1.69871 0.0881538 0
M  V30 7329 O 702.237 -1.92304 0.2707 0
M  V30 7330 C 699.367 -3.35641 0.89233 0
M  V30 7331 C 698.321 -3.80451 1.96064 0
M  V30 7332 C 697.647 -5.13003 1.5077 0
M  V30 7333 C 698.947 -3.98855 3.37213 0
M  V30 7334 H 700.641 -2.09698 2.13699 0
M  V30 7335 H 698.187 -1.00754 1.02882 0
M  V30 7336 H 700.14 -4.13669 0.803497 0
M  V30 7337 H 698.864 -3.26497 -0.0821381 0
M  V30 7338 H 697.523 -3.04654 2.03916 0
M  V30 7339 H 697.171 -5.0029 0.521417 0
M  V30 7340 H 696.871 -5.43956 2.22229 0
M  V30 7341 H 698.395 -5.93554 1.43271 0
M  V30 7342 H 699.809 -4.67312 3.32103 0
M  V30 7343 H 698.206 -4.41188 4.06784 0
M  V30 7344 H 699.276 -3.02614 3.78883 0
M  V30 7345 N 700.619 -1.13374 -1.09472 0
M  V30 7346 C 701.549 -0.833268 -2.18126 0
M  V30 7347 C 702.53 0.207169 -1.68834 0
M  V30 7348 O 703.715 0.0662012 -1.94087 0
M  V30 7349 C 700.845 -0.297979 -3.46019 0
M  V30 7350 C 699.799 -1.27261 -4.08642 0
M  V30 7351 C 699.125 -0.597104 -5.31356 0
M  V30 7352 C 700.425 -2.63095 -4.51197 0
M  V30 7353 H 702.119 -1.74182 -2.43518 0
M  V30 7354 H 699.665 -0.838921 -1.17039 0
M  V30 7355 H 701.618 -0.0754444 -4.21332 0
M  V30 7356 H 700.342 0.645959 -3.20148 0
M  V30 7357 H 699.001 -1.48113 -3.35348 0
M  V30 7358 H 698.649 0.352293 -5.01765 0
M  V30 7359 H 698.349 -1.24734 -5.74208 0
M  V30 7360 H 699.873 -0.38384 -6.09392 0
M  V30 7361 H 701.287 -2.46214 -5.17737 0
M  V30 7362 H 699.684 -3.2429 -5.04932 0
M  V30 7363 H 700.754 -3.20793 -3.6362 0
M  V30 7364 N 702.098 1.27442 -0.927168 0
M  V30 7365 C 703.375 1.89473 -0.485742 0
M  V30 7366 C 703.755 1.83922 1.03614 0
M  V30 7367 O 703.103 1.28409 1.89007 0
M  V30 7368 C 703.313 3.33417 -1.03123 0
M  V30 7369 C 704.661 4.10333 -1.0914 0
M  V30 7370 O 705.685 3.4243 -0.98082 0
M  V30 7371 O 704.544 5.31737 -1.26165 0
M  V30 7372 H 701.638 0.812124 -0.156154 0
M  V30 7373 H 704.184 1.35713 -1.01882 0
M  V30 7374 H 702.956 3.31747 -2.07508 0
M  V30 7375 H 702.579 3.94695 -0.479767 0
M  V30 7376 N 703.576 0.692616 1.41565 0
M  V30 7377 C 704.526 0.00231847 2.28 0
M  V30 7378 C 705.51 -0.755793 1.42044 0
M  V30 7379 O 706.702 -0.631772 1.65341 0
M  V30 7380 C 703.831 -0.935468 3.30309 0
M  V30 7381 C 702.917 -0.173761 4.23744 0
M  V30 7382 N 703.308 0.830872 4.98929 0
M  V30 7383 C 701.606 -0.409666 4.44115 0
M  V30 7384 C 702.307 1.28656 5.67294 0
M  V30 7385 N 701.283 0.613053 5.40132 0
M  V30 7386 H 705.085 0.772635 2.83562 0
M  V30 7387 H 702.599 0.523198 1.53741 0
M  V30 7388 H 704.596 -1.44513 3.91052 0
M  V30 7389 H 703.256 -1.70542 2.76307 0
M  V30 7390 H 704.267 1.21101 5.03542 0
M  V30 7391 H 700.944 -1.15773 4.01127 0
M  V30 7392 H 702.334 2.12006 6.37576 0
M  V30 7393 N 705.054 -1.51416 0.437162 0
M  V30 7394 C 706.301 -2.02086 -0.129364 0
M  V30 7395 C 706.629 -1.32133 -1.42728 0
M  V30 7396 O 705.884 -0.424916 -1.91031 0
M  V30 7397 C 706.183 -3.55203 -0.39564 0
M  V30 7398 C 705.849 -4.43447 0.81644 0
M  V30 7399 C 704.511 -4.67285 1.14884 0
M  V30 7400 C 706.863 -4.95219 1.62503 0
M  V30 7401 C 704.191 -5.40141 2.29052 0
M  V30 7402 C 706.543 -5.69327 2.7577 0
M  V30 7403 C 705.207 -5.91429 3.09464 0
M  V30 7404 H 704.477 -0.739486 -0.0473375 0
M  V30 7405 H 707.124 -1.82368 0.584321 0
M  V30 7406 H 705.429 -3.73252 -1.19121 0
M  V30 7407 H 707.126 -3.91944 -0.847399 0
M  V30 7408 H 703.716 -4.2509 0.547422 0
M  V30 7409 H 707.9 -4.76686 1.38144 0
M  V30 7410 H 703.156 -5.55468 2.55471 0
M  V30 7411 H 707.33 -6.08433 3.38795 0
M  V30 7412 H 704.957 -6.47662 3.98042 0
M  V30 7413 N 706.532 -0.168513 -1.56696 0
M  V30 7414 C 707.495 0.748928 -2.16619 0
M  V30 7415 C 708.495 1.16007 -1.11351 0
M  V30 7416 O 709.685 1.07748 -1.3688 0
M  V30 7417 C 706.817 2.01904 -2.74677 0
M  V30 7418 H 708.01 0.227317 -2.99037 0
M  V30 7419 H 705.563 0.0810372 -1.5609 0
M  V30 7420 H 706.298 2.58381 -1.95985 0
M  V30 7421 H 706.083 1.73323 -3.51712 0
M  V30 7422 H 707.573 2.67383 -3.20774 0
M  V30 7423 N 708.01 1.57248 0.105221 0
M  V30 7424 C 708.973 2.00388 1.11252 0
M  V30 7425 C 709.973 0.89594 1.33527 0
M  V30 7426 O 711.163 1.16166 1.29811 0
M  V30 7427 C 708.295 2.35589 2.46395 0
M  V30 7428 H 709.488 2.90591 0.741424 0
M  V30 7429 H 707.041 1.52332 0.349956 0
M  V30 7430 H 707.776 1.4831 2.884 0
M  V30 7431 H 707.561 3.16408 2.31578 0
M  V30 7432 H 709.051 2.69658 3.18864 0
M  V30 7433 N 709.488 -0.375779 1.53054 0
M  V30 7434 C 710.736 -1.11727 1.68409 0
M  V30 7435 C 711.057 -1.90127 0.43323 0
M  V30 7436 O 710.327 -1.87945 -0.552595 0
M  V30 7437 H 708.907 -0.415451 0.620813 0
M  V30 7438 H 711.569 -0.424869 1.90213 0
M  V30 7439 H 710.665 -1.8128 2.54055 0
M  V30 7440 N 710.966 -1.44241 -0.634997 0
M  V30 7441 C 712.194 -1.50296 -1.42193 0
M  V30 7442 C 712.609 -0.12658 -1.88375 0
M  V30 7443 O 711.966 0.86678 -1.60603 0
M  V30 7444 C 712.017 -2.46437 -2.64482 0
M  V30 7445 O 711.738 -3.78724 -2.20226 0
M  V30 7446 C 713.239 -2.61918 -3.57651 0
M  V30 7447 H 710.459 -0.509865 -0.43621 0
M  V30 7448 H 713.003 -1.89167 -0.776921 0
M  V30 7449 H 711.158 -2.10712 -3.25083 0
M  V30 7450 H 711.572 -4.30595 -2.9948 0
M  V30 7451 H 713.046 -3.33225 -4.40074 0
M  V30 7452 H 713.523 -1.67017 -4.06204 0
M  V30 7453 H 714.129 -2.98528 -3.02921 0
M  V30 7454 N 712.444 0.87505 -1.31075 0
M  V30 7455 C 713.669 1.66583 -1.23551 0
M  V30 7456 C 714.094 1.87067 0.19686 0
M  V30 7457 O 713.452 1.40877 1.1412 0
M  V30 7458 C 713.5 3.01401 -1.97965 0
M  V30 7459 O 712.604 3.90923 -1.31351 0
M  V30 7460 H 711.945 0.508645 -0.426821 0
M  V30 7461 H 714.475 1.09139 -1.7306 0
M  V30 7462 H 714.485 3.51374 -2.07366 0
M  V30 7463 H 713.16 2.85812 -3.02133 0
M  V30 7464 H 711.737 3.49369 -1.30368 0
M  V30 7465 N 713.922 1.13953 1.08869 0
M  V30 7466 C 715.171 0.899431 1.80536 0
M  V30 7467 C 715.484 -0.575781 1.86933 0
M  V30 7468 O 716.69 -0.932988 2.54966 0
M  V30 7469 C 715.146 1.55963 3.24351 0
M  V30 7470 C 714.754 3.07077 3.26202 0
M  V30 7471 C 716.498 1.40046 4.00733 0
M  V30 7472 C 714.405 3.65955 4.64576 0
M  V30 7473 H 713.335 0.332849 0.676556 0
M  V30 7474 H 715.986 1.3679 1.22314 0
M  V30 7475 H 714.368 1.01883 3.82669 0
M  V30 7476 H 715.542 3.67785 2.77617 0
M  V30 7477 H 713.857 3.22576 2.63312 0
M  V30 7478 H 716.454 1.81441 5.02974 0
M  V30 7479 H 716.797 0.345993 4.1486 0
M  V30 7480 H 717.33 1.91137 3.48872 0
M  V30 7481 H 714.069 4.71234 4.55652 0
M  V30 7482 H 713.589 3.10027 5.13462 0
M  V30 7483 H 715.268 3.65968 5.33551 0
M  V30 7484 N 715.4 -1.26948 0.933913 0
M  V30 7485 C 716.33 -2.29017 0.45534 0
M  V30 7486 C 717.311 -1.62961 -0.487605 0
M  V30 7487 O 718.496 -1.90223 -0.391022 0
M  V30 7488 C 715.626 -3.46112 -0.287015 0
M  V30 7489 C 714.58 -4.24205 0.568682 0
M  V30 7490 C 713.906 -5.3384 -0.303206 0
M  V30 7491 C 715.206 -4.88954 1.83633 0
M  V30 7492 H 716.9 -2.69298 1.30839 0
M  V30 7493 H 714.446 -1.29459 0.630579 0
M  V30 7494 H 716.399 -4.16622 -0.6328 0
M  V30 7495 H 715.123 -3.04765 -1.17414 0
M  V30 7496 H 713.782 -3.5545 0.897261 0
M  V30 7497 H 713.43 -4.88734 -1.18947 0
M  V30 7498 H 713.13 -5.86998 0.265879 0
M  V30 7499 H 714.654 -6.0719 -0.644423 0
M  V30 7500 H 716.068 -5.51717 1.55823 0
M  V30 7501 H 714.465 -5.52198 2.34941 0
M  V30 7502 H 715.535 -4.12305 2.55211 0
M  V30 7503 N 716.879 -0.700114 -1.41195 0
M  V30 7504 C 718.126 -0.233006 -2.01155 0
M  V30 7505 C 718.454 1.16883 -1.55462 0
M  V30 7506 O 717.709 1.80395 -0.758695 0
M  V30 7507 C 718.008 -0.243986 -3.56566 0
M  V30 7508 C 717.674 -1.59397 -4.21786 0
M  V30 7509 C 716.336 -1.96355 -4.39316 0
M  V30 7510 C 718.688 -2.48192 -4.58312 0
M  V30 7511 C 716.016 -3.21683 -4.9065 0
M  V30 7512 C 718.368 -3.72857 -5.11039 0
M  V30 7513 C 717.032 -4.09951 -5.26779 0
M  V30 7514 H 716.302 -0.085263 -0.736078 0
M  V30 7515 H 718.949 -0.9001 -1.69028 0
M  V30 7516 H 717.254 0.506663 -3.8851 0
M  V30 7517 H 718.951 0.135031 -4.00773 0
M  V30 7518 H 715.541 -1.29654 -4.08519 0
M  V30 7519 H 719.725 -2.20918 -4.4442 0
M  V30 7520 H 714.981 -3.50412 -5.01021 0
M  V30 7521 H 719.155 -4.41844 -5.38282 0
M  V30 7522 H 716.782 -5.07136 -5.66319 0
M  V30 7523 N 718.357 1.51182 -0.445186 0
M  V30 7524 C 719.605 2.01753 0.11841 0
M  V30 7525 C 719.926 1.33087 1.42523 0
M  V30 7526 O 719.196 0.467891 1.9023 0
M  V30 7527 H 717.776 0.745536 0.0467492 0
M  V30 7528 H 720.438 1.85765 -0.589688 0
M  V30 7529 H 719.534 3.10762 0.288665 0
M  V30 7530 N 719.835 0.176821 1.56605 0
M  V30 7531 C 721.081 -0.467406 1.9734 0
M  V30 7532 C 721.414 -1.62523 1.06301 0
M  V30 7533 O 720.689 -1.94182 0.11125 0
M  V30 7534 C 720.972 -0.945106 3.47476 0
M  V30 7535 C 720.825 0.213273 4.49294 0
M  V30 7536 C 722.144 -1.8169 4.00845 0
M  V30 7537 H 719.263 -0.168426 0.717497 0
M  V30 7538 H 721.905 0.264065 1.88156 0
M  V30 7539 H 720.055 -1.56841 3.55434 0
M  V30 7540 H 721.727 0.850508 4.53392 0
M  V30 7541 H 719.97 0.867918 4.25029 0
M  V30 7542 H 720.641 -0.163187 5.51759 0
M  V30 7543 H 723.117 -1.29139 3.95553 0
M  V30 7544 H 721.993 -2.12015 5.06301 0
M  V30 7545 H 722.254 -2.76463 3.44994 0
M  V30 7546 N 721.313 -1.57302 -0.09688 0
M  V30 7547 C 722.243 -2.0497 -1.11846 0
M  V30 7548 C 723.224 -0.938278 -1.41882 0
M  V30 7549 O 724.409 -1.20943 -1.51942 0
M  V30 7550 C 721.539 -2.47264 -2.43881 0
M  V30 7551 C 720.493 -3.62053 -2.28257 0
M  V30 7552 C 719.819 -3.90318 -3.65453 0
M  V30 7553 C 721.119 -4.93005 -1.72461 0
M  V30 7554 H 722.813 -2.90567 -0.721888 0
M  V30 7555 H 720.359 -1.39786 -0.345803 0
M  V30 7556 H 722.312 -2.7922 -3.15617 0
M  V30 7557 H 721.036 -1.58664 -2.8547 0
M  V30 7558 H 719.695 -3.30341 -1.58967 0
M  V30 7559 H 719.343 -2.98889 -4.04567 0
M  V30 7560 H 719.043 -4.67597 -3.55846 0
M  V30 7561 H 720.567 -4.24747 -4.3866 0
M  V30 7562 H 721.981 -5.23354 -2.34036 0
M  V30 7563 H 720.378 -5.74436 -1.73618 0
M  V30 7564 H 721.448 -4.80053 -0.683898 0
M  V30 7565 N 722.791 0.367657 -1.53252 0
M  V30 7566 C 724.04 1.10782 -1.68554 0
M  V30 7567 C 724.353 1.90523 -0.442765 0
M  V30 7568 O 725.559 2.6729 -0.47629 0
M  V30 7569 C 724.015 2.01863 -2.97959 0
M  V30 7570 C 723.623 1.27443 -4.29491 0
M  V30 7571 C 725.367 2.75883 -3.22628 0
M  V30 7572 C 723.274 2.17414 -5.49987 0
M  V30 7573 H 722.204 0.417272 -0.628013 0
M  V30 7574 H 724.855 0.368971 -1.79752 0
M  V30 7575 H 723.237 2.7947 -2.80558 0
M  V30 7576 H 724.411 0.549138 -4.57516 0
M  V30 7577 H 722.726 0.652935 -4.11249 0
M  V30 7578 H 725.323 3.43421 -4.09837 0
M  V30 7579 H 725.666 3.41138 -2.38601 0
M  V30 7580 H 726.199 2.0536 -3.40693 0
M  V30 7581 H 722.938 1.5674 -6.36485 0
M  V30 7582 H 722.458 2.87799 -5.26243 0
M  V30 7583 H 724.137 2.77019 -5.84696 0
M  V30 7584 N 724.269 1.44576 0.627338 0
M  V30 7585 C 725.179 1.54232 1.76776 0
M  V30 7586 C 726.195 0.427782 1.6866 0
M  V30 7587 O 727.371 0.685671 1.89369 0
M  V30 7588 C 724.436 1.48738 3.13174 0
M  V30 7589 C 723.497 2.71074 3.32893 0
M  V30 7590 C 722.73 2.65832 4.62784 0
M  V30 7591 O 722.953 1.72048 5.43834 0
M  V30 7592 O 721.887 3.56742 4.84787 0
M  V30 7593 H 725.713 2.50586 1.71582 0
M  V30 7594 H 723.298 1.26865 0.789028 0
M  V30 7595 H 725.18 1.48211 3.94476 0
M  V30 7596 H 723.855 0.555292 3.18902 0
M  V30 7597 H 722.762 2.77168 2.51254 0
M  V30 7598 H 724.095 3.63342 3.32029 0
M  V30 7599 N 725.747 -0.868086 1.31537 0
M  V30 7600 C 726.71 -1.95703 1.19302 0
M  V30 7601 C 727.71 -1.60355 0.119612 0
M  V30 7602 O 728.9 -1.70247 0.36902 0
M  V30 7603 C 726.032 -3.30599 0.831684 0
M  V30 7604 H 727.225 -2.07982 2.16064 0
M  V30 7605 H 724.778 -1.05661 1.15176 0
M  V30 7606 H 725.513 -3.2402 -0.134694 0
M  V30 7607 H 725.298 -3.57629 1.60761 0
M  V30 7608 H 726.788 -4.10439 0.770026 0
M  V30 7609 N 727.225 -1.14528 -1.08264 0
M  V30 7610 C 728.474 -0.908992 -1.80056 0
M  V30 7611 C 728.787 0.565859 -1.87236 0
M  V30 7612 O 729.993 0.919454 -2.55457 0
M  V30 7613 C 728.449 -1.57681 -3.23519 0
M  V30 7614 C 728.057 -3.08803 -3.24569 0
M  V30 7615 C 729.801 -1.4217 -3.99985 0
M  V30 7616 C 727.708 -3.68414 -4.62629 0
M  V30 7617 H 726.638 -0.336432 -0.674781 0
M  V30 7618 H 729.289 -1.37437 -1.21587 0
M  V30 7619 H 727.671 -1.03911 -3.82124 0
M  V30 7620 H 728.845 -3.69252 -2.75663 0
M  V30 7621 H 727.16 -3.23968 -2.61598 0
M  V30 7622 H 729.757 -1.84106 -5.02005 0
M  V30 7623 H 730.1 -0.367989 -4.1467 0
M  V30 7624 H 730.633 -1.92984 -3.47853 0
M  V30 7625 H 727.372 -4.73644 -4.53147 0
M  V30 7626 H 726.892 -3.12746 -5.11811 0
M  V30 7627 H 728.571 -3.68793 -5.31602 0
M  V30 7628 N 728.703 1.26451 -0.940633 0
M  V30 7629 C 729.951 1.93395 -0.586748 0
M  V30 7630 C 730.272 1.7417 0.876921 0
M  V30 7631 O 729.542 1.097 1.62304 0
M  V30 7632 H 728.122 0.715687 -0.214012 0
M  V30 7633 H 730.784 1.53902 -1.19584 0
M  V30 7634 H 729.88 3.01565 -0.804059 0
M  V30 7635 N 730.181 0.707592 1.40822 0
M  V30 7636 C 731.427 0.244031 2.01326 0
M  V30 7637 C 731.76 -1.15722 1.55955 0
M  V30 7638 O 731.035 -1.78347 0.776044 0
M  V30 7639 C 731.318 0.315128 3.58718 0
M  V30 7640 C 731.171 1.75419 4.14184 0
M  V30 7641 C 732.49 -0.318251 4.38948 0
M  V30 7642 H 729.609 0.0901471 0.731466 0
M  V30 7643 H 732.251 0.898584 1.67408 0
M  V30 7644 H 730.401 -0.242176 3.87744 0
M  V30 7645 H 732.073 2.36626 3.95987 0
M  V30 7646 H 730.316 2.28449 3.68773 0
M  V30 7647 H 730.987 1.75538 5.23345 0
M  V30 7648 H 733.463 0.156514 4.15806 0
M  V30 7649 H 732.339 -0.238019 5.48384 0
M  V30 7650 H 732.6 -1.40067 4.19325 0
M  V30 7651 N 731.66 -1.50943 0.453197 0
M  V30 7652 C 732.623 -2.26684 -0.338705 0
M  V30 7653 C 733.623 -1.30748 -0.936032 0
M  V30 7654 O 734.813 -1.54327 -0.808002 0
M  V30 7655 C 731.945 -3.07063 -1.48071 0
M  V30 7656 H 733.138 -2.98131 0.325289 0
M  V30 7657 H 730.691 -1.54926 0.206771 0
M  V30 7658 H 731.426 -2.4007 -2.18029 0
M  V30 7659 H 731.211 -3.77545 -1.0584 0
M  V30 7660 H 732.701 -3.64393 -2.0398 0
M  V30 7661 N 733.138 -0.185124 -1.56509 0
M  V30 7662 C 734.384 0.450356 -1.98352 0
M  V30 7663 C 734.739 1.59923 -1.06969 0
M  V30 7664 O 734.032 1.91272 -0.112084 0
M  V30 7665 C 734.226 0.967977 -3.44042 0
M  V30 7666 C 734.055 -0.129208 -4.49514 0
M  V30 7667 C 732.825 -0.58351 -5.0192 0
M  V30 7668 C 735.023 -0.93459 -5.05737 0
M  V30 7669 N 733.005 -1.65956 -5.91043 0
M  V30 7670 C 734.376 -1.86026 -5.91434 0
M  V30 7671 C 736.431 -0.978125 -4.88198 0
M  V30 7672 C 735.134 -2.82582 -6.61468 0
M  V30 7673 C 737.16 -1.93169 -5.58963 0
M  V30 7674 C 736.522 -2.84481 -6.44399 0
M  V30 7675 H 732.621 0.132504 -0.770692 0
M  V30 7676 H 735.205 -0.288523 -1.9255 0
M  V30 7677 H 733.376 1.67633 -3.50362 0
M  V30 7678 H 735.108 1.57323 -3.72869 0
M  V30 7679 H 731.863 -0.178676 -4.73263 0
M  V30 7680 H 732.287 -2.19848 -6.40309 0
M  V30 7681 H 736.929 -0.286169 -4.2183 0
M  V30 7682 H 734.647 -3.52758 -7.2704 0
M  V30 7683 H 738.233 -1.97166 -5.47373 0
M  V30 7684 H 737.113 -3.57065 -6.98194 0
M  V30 7685 N 734.616 1.57351 0.0885366 0
M  V30 7686 C 735.863 1.86419 0.790824 0
M  V30 7687 C 736.191 0.774561 1.78412 0
M  V30 7688 O 735.446 -0.23119 1.9433 0
M  V30 7689 C 735.745 3.22098 1.5488 0
M  V30 7690 C 735.411 4.4548 0.697025 0
M  V30 7691 C 734.073 4.78975 0.462237 0
M  V30 7692 C 736.425 5.21094 0.105315 0
M  V30 7693 C 733.753 5.85507 -0.374016 0
M  V30 7694 C 736.105 6.28509 -0.718298 0
M  V30 7695 C 734.769 6.60515 -0.963116 0
M  V30 7696 H 734.039 0.682157 0.289383 0
M  V30 7697 H 736.686 1.91429 0.0520961 0
M  V30 7698 H 734.991 3.12803 2.35927 0
M  V30 7699 H 736.688 3.41819 2.09669 0
M  V30 7700 H 733.278 4.19255 0.890137 0
M  V30 7701 H 737.462 4.95544 0.273856 0
M  V30 7702 H 732.718 6.08713 -0.572606 0
M  V30 7703 H 736.892 6.86268 -1.18362 0
M  V30 7704 H 734.519 7.42893 -1.6129 0
M  V30 7705 N 736.094 -0.359525 1.53444 0
M  V30 7706 C 737.324 -1.12036 1.73585 0
M  V30 7707 C 737.732 -1.83335 0.467438 0
M  V30 7708 O 737.075 -1.74641 -0.569753 0
M  V30 7709 C 737.137 -2.19036 2.85068 0
M  V30 7710 C 736.801 -1.67451 4.25217 0
M  V30 7711 C 737.798 -1.13534 5.07352 0
M  V30 7712 C 735.483 -1.72781 4.71648 0
M  V30 7713 C 737.477 -0.656321 6.34012 0
M  V30 7714 C 735.164 -1.2449 5.98285 0
M  V30 7715 C 736.162 -0.710068 6.79299 0
M  V30 7716 O 735.85 -0.234314 8.03558 0
M  V30 7717 H 735.582 -0.340662 0.583888 0
M  V30 7718 H 738.136 -0.422452 2.01009 0
M  V30 7719 H 736.366 -2.92338 2.53131 0
M  V30 7720 H 738.055 -2.80559 2.93328 0
M  V30 7721 H 738.821 -1.08751 4.7265 0
M  V30 7722 H 734.7 -2.13351 4.08659 0
M  V30 7723 H 738.244 -0.238193 6.97193 0
M  V30 7724 H 734.141 -1.28969 6.32485 0
M  V30 7725 H 734.909 -0.353084 8.17738 0
M  V30 7726 N 737.572 -1.44907 -0.619662 0
M  V30 7727 C 738.82 -1.47999 -1.37625 0
M  V30 7728 C 739.141 -0.118295 -1.94641 0
M  V30 7729 O 738.411 0.85086 -1.76457 0
M  V30 7730 H 736.991 -0.544993 -0.510873 0
M  V30 7731 H 739.653 -1.80772 -0.728522 0
M  V30 7732 H 738.749 -2.21196 -2.20179 0
M  V30 7733 N 739.05 0.861098 -1.31996 0
M  V30 7734 C 740.296 1.61721 -1.22369 0
M  V30 7735 C 740.629 1.93 0.215587 0
M  V30 7736 O 739.904 1.56789 1.15098 0
M  V30 7737 C 740.187 2.9417 -2.07691 0
M  V30 7738 C 740.04 2.69714 -3.59965 0
M  V30 7739 C 741.359 3.95372 -1.93312 0
M  V30 7740 H 738.478 0.586822 -0.44588 0
M  V30 7741 H 741.12 0.994788 -1.61876 0
M  V30 7742 H 739.27 3.47292 -1.74128 0
M  V30 7743 H 740.942 2.23196 -4.03709 0
M  V30 7744 H 739.185 2.03789 -3.82952 0
M  V30 7745 H 739.856 3.63996 -4.14983 0
M  V30 7746 H 742.332 3.51487 -2.22701 0
M  V30 7747 H 741.208 4.85916 -2.55298 0
M  V30 7748 H 741.469 4.32865 -0.898922 0
M  V30 7749 N 740.528 1.15101 1.07655 0
M  V30 7750 C 741.776 0.922149 1.79836 0
M  V30 7751 C 742.097 -0.552346 1.87014 0
M  V30 7752 O 741.367 -1.40145 1.3688 0
M  V30 7753 H 739.947 0.338182 0.666064 0
M  V30 7754 H 742.609 1.45107 1.30115 0
M  V30 7755 H 741.705 1.32883 2.82398 0
M  V30 7756 N 742.006 -1.2595 0.947325 0
M  V30 7757 C 742.938 -2.25336 0.41906 0
M  V30 7758 C 743.951 -1.56135 -0.461051 0
M  V30 7759 O 745.14 -1.76438 -0.270505 0
M  V30 7760 C 742.24 -3.36334 -0.416233 0
M  V30 7761 C 741.413 -4.35088 0.449162 0
M  V30 7762 C 740.472 -5.25185 -0.326716 0
M  V30 7763 O 739.498 -5.68548 0.272374 0
M  V30 7764 N 740.7 -5.57388 -1.6217 0
M  V30 7765 H 743.465 -2.71298 1.27348 0
M  V30 7766 H 741.026 -1.39781 0.81688 0
M  V30 7767 H 743.018 -3.93564 -0.942826 0
M  V30 7768 H 741.588 -2.89819 -1.17148 0
M  V30 7769 H 740.808 -3.76841 1.15692 0
M  V30 7770 H 742.096 -4.98056 1.04008 0
M  V30 7771 H 741.494 -5.2405 -2.13046 0
M  V30 7772 H 740.051 -6.17234 -2.0944 0
M  V30 7773 N 743.484 -0.715051 -1.40445 0
M  V30 7774 C 744.731 -0.254328 -2.00897 0
M  V30 7775 C 745.059 1.15228 -1.56693 0
M  V30 7776 O 744.314 1.7958 -0.777786 0
M  V30 7777 C 744.613 -0.281791 -3.56287 0
M  V30 7778 C 744.279 -1.63862 -4.20071 0
M  V30 7779 C 742.941 -2.01003 -4.37208 0
M  V30 7780 C 745.293 -2.53039 -4.55654 0
M  V30 7781 C 742.621 -3.26869 -4.8721 0
M  V30 7782 C 744.973 -3.78256 -5.07055 0
M  V30 7783 C 743.637 -4.15515 -5.22401 0
M  V30 7784 H 742.907 -0.0930652 -0.735133 0
M  V30 7785 H 745.554 -0.917977 -1.68064 0
M  V30 7786 H 743.859 0.465428 -3.89026 0
M  V30 7787 H 745.556 0.0925158 -4.00893 0
M  V30 7788 H 742.146 -1.33979 -4.07121 0
M  V30 7789 H 746.33 -2.2562 -4.42051 0
M  V30 7790 H 741.586 -3.55706 -4.97276 0
M  V30 7791 H 745.76 -4.47528 -5.33565 0
M  V30 7792 H 743.387 -5.13114 -5.60909 0
M  V30 7793 N 744.962 1.50701 -0.461195 0
M  V30 7794 C 746.187 2.07171 0.0974773 0
M  V30 7795 C 746.612 1.32391 1.3362 0
M  V30 7796 O 745.97 0.368676 1.77512 0
M  V30 7797 C 746.018 3.58651 0.374409 0
M  V30 7798 O 745.122 3.85816 1.4567 0
M  V30 7799 H 744.463 0.663944 -0.00862047 0
M  V30 7800 H 746.993 1.94021 -0.649394 0
M  V30 7801 H 747.003 4.03295 0.617843 0
M  V30 7802 H 745.678 4.12498 -0.530829 0
M  V30 7803 H 744.255 3.53018 1.20136 0
M  V30 7804 N 746.441 0.193421 1.56409 0
M  V30 7805 C 747.718 -0.493318 1.89277 0
M  V30 7806 C 748.098 -1.79765 1.10669 0
M  V30 7807 O 747.446 -2.27558 0.207274 0
M  V30 7808 C 747.656 -0.713732 3.41624 0
M  V30 7809 C 749.004 -1.03385 4.11821 0
M  V30 7810 O 750.028 -0.801511 3.47065 0
M  V30 7811 O 748.887 -1.47327 5.26267 0
M  V30 7812 H 745.981 -0.256973 0.786062 0
M  V30 7813 H 748.527 0.23351 1.68086 0
M  V30 7814 H 747.299 0.207446 3.9075 0
M  V30 7815 H 746.922 -1.49308 3.68501 0
M  V30 7816 N 747.919 -1.57396 -0.0801906 0
M  V30 7817 C 749.196 -1.77883 -0.813451 0
M  V30 7818 C 749.576 -0.778879 -1.96206 0
M  V30 7819 O 748.924 0.189683 -2.27711 0
M  V30 7820 C 749.134 -3.24116 -1.2942 0
M  V30 7821 C 750.482 -3.87714 -1.73098 0
M  V30 7822 O 751.506 -3.27956 -1.39007 0
M  V30 7823 O 750.365 -4.92828 -2.36184 0
M  V30 7824 H 747.459 -0.729727 -0.389138 0
M  V30 7825 H 750.005 -1.69591 -0.0609166 0
M  V30 7826 H 748.777 -3.88443 -0.471947 0
M  V30 7827 H 748.4 -3.371 -2.1083 0
M  V30 7828 N 749.397 0.351382 -1.53633 0
M  V30 7829 C 750.646 1.08988 -1.69719 0
M  V30 7830 C 750.959 1.90043 -0.462948 0
M  V30 7831 O 752.165 2.66769 -0.504613 0
M  V30 7832 C 750.621 1.98691 -3.00083 0
M  V30 7833 C 750.229 1.22881 -4.30818 0
M  V30 7834 C 751.973 2.72446 -3.25536 0
M  V30 7835 C 749.88 2.11568 -5.52262 0
M  V30 7836 H 748.81 0.410588 -0.632403 0
M  V30 7837 H 751.461 0.349886 -1.80133 0
M  V30 7838 H 749.843 2.76478 -2.83506 0
M  V30 7839 H 751.017 0.500582 -4.58073 0
M  V30 7840 H 749.332 0.60928 -4.11918 0
M  V30 7841 H 751.929 3.39055 -4.13456 0
M  V30 7842 H 752.272 3.38588 -2.42206 0
M  V30 7843 H 752.805 2.01735 -3.42852 0
M  V30 7844 H 749.544 1.4998 -6.38111 0
M  V30 7845 H 749.064 2.82201 -5.29266 0
M  V30 7846 H 750.743 2.70802 -5.87601 0
M  V30 7847 N 750.875 1.45233 0.611969 0
M  V30 7848 C 751.807 1.49575 1.73666 0
M  V30 7849 C 752.82 0.386987 1.58134 0
M  V30 7850 O 754.009 0.653804 1.66095 0
M  V30 7851 C 751.109 1.33223 3.11617 0
M  V30 7852 C 750.282 2.57694 3.5343 0
M  V30 7853 C 749.341 2.35962 4.70328 0
M  V30 7854 O 748.367 3.09553 4.77667 0
M  V30 7855 N 749.569 1.40243 5.63305 0
M  V30 7856 H 752.334 2.46539 1.70407 0
M  V30 7857 H 749.895 1.40917 0.79712 0
M  V30 7858 H 751.887 1.16502 3.87569 0
M  V30 7859 H 750.457 0.44551 3.09409 0
M  V30 7860 H 749.677 2.8956 2.67486 0
M  V30 7861 H 750.965 3.40441 3.78124 0
M  V30 7862 H 750.363 0.795023 5.60086 0
M  V30 7863 H 748.92 1.29496 6.38807 0
M  V30 7864 N 752.353 -0.854086 1.3245 0
M  V30 7865 C 753.285 -1.96932 1.17262 0
M  V30 7866 C 754.298 -1.62445 0.107469 0
M  V30 7867 O 755.487 -1.74904 0.356481 0
M  V30 7868 C 752.587 -3.29971 0.772817 0
M  V30 7869 C 751.76 -3.92695 1.92638 0
M  V30 7870 C 750.819 -5.04068 1.51003 0
M  V30 7871 O 749.845 -5.24032 2.22213 0
M  V30 7872 N 751.047 -5.79076 0.406371 0
M  V30 7873 H 753.812 -2.10503 2.13327 0
M  V30 7874 H 751.373 -1.02897 1.24995 0
M  V30 7875 H 753.365 -4.01883 0.476684 0
M  V30 7876 H 751.935 -3.1245 -0.0967 0
M  V30 7877 H 751.155 -3.13563 2.38897 0
M  V30 7878 H 752.443 -4.31337 2.69863 0
M  V30 7879 H 751.841 -5.65393 -0.186302 0
M  V30 7880 H 750.398 -6.51579 0.169846 0
M  V30 7881 N 753.831 -1.1567 -1.07043 0
M  V30 7882 C 754.764 -0.799867 -2.13723 0
M  V30 7883 C 755.742 0.225098 -1.61034 0
M  V30 7884 O 756.926 0.11093 -1.88173 0
M  V30 7885 C 754.053 -0.18997 -3.38167 0
M  V30 7886 C 753.099 -1.18733 -4.0964 0
M  V30 7887 S 753.932 -2.73074 -4.60642 0
M  V30 7888 C 755.088 -2.13512 -5.88356 0
M  V30 7889 H 755.321 -1.70342 -2.43661 0
M  V30 7890 H 752.854 -0.979377 -1.19363 0
M  V30 7891 H 754.812 0.155471 -4.10205 0
M  V30 7892 H 753.473 0.691229 -3.064 0
M  V30 7893 H 752.666 -0.708873 -4.9899 0
M  V30 7894 H 752.268 -1.47747 -3.43579 0
M  V30 7895 H 754.56 -1.49911 -6.60706 0
M  V30 7896 H 755.503 -3.01042 -6.40921 0
M  V30 7897 H 755.911 -1.57693 -5.42027 0
M  V30 7898 N 755.309 1.25446 -0.953992 0
M  V30 7899 C 756.537 1.97215 -0.625595 0
M  V30 7900 C 756.952 1.70911 0.802168 0
M  V30 7901 O 756.309 0.984782 1.5365 0
M  V30 7902 C 756.36 3.50777 -0.873943 0
M  V30 7903 O 756.081 3.76173 -2.24556 0
M  V30 7904 C 757.582 4.39776 -0.557845 0
M  V30 7905 H 754.802 0.628652 -0.2346 0
M  V30 7906 H 757.346 1.59632 -1.27819 0
M  V30 7907 H 755.501 3.86474 -0.267765 0
M  V30 7908 H 755.915 4.70636 -2.31522 0
M  V30 7909 H 757.389 5.46431 -0.782157 0
M  V30 7910 H 757.866 4.36257 0.507573 0
M  V30 7911 H 758.472 4.09644 -1.14332 0
M  V30 7912 N 756.787 0.722489 1.40064 0
M  V30 7913 C 758.035 0.264455 2.00362 0
M  V30 7914 C 758.356 -1.14847 1.57592 0
M  V30 7915 O 757.626 -1.77982 0.818477 0
M  V30 7916 H 756.206 0.0947846 0.740962 0
M  V30 7917 H 758.868 0.929659 1.71299 0
M  V30 7918 H 757.964 0.302977 3.10626 0
M  V30 7919 N 758.265 -1.50454 0.469181 0
M  V30 7920 C 759.197 -2.26319 -0.362247 0
M  V30 7921 C 760.21 -1.31574 -0.958751 0
M  V30 7922 O 761.399 -1.57099 -0.847482 0
M  V30 7923 C 758.499 -3.02808 -1.52187 0
M  V30 7924 C 757.672 -4.24893 -1.03849 0
M  V30 7925 C 756.731 -4.83691 -2.07194 0
M  V30 7926 O 755.757 -5.44659 -1.65333 0
M  V30 7927 N 756.959 -4.70522 -3.39985 0
M  V30 7928 H 759.724 -2.98312 0.288124 0
M  V30 7929 H 757.285 -1.59099 0.299856 0
M  V30 7930 H 759.277 -3.39023 -2.21011 0
M  V30 7931 H 757.847 -2.33625 -2.07697 0
M  V30 7932 H 757.067 -3.93806 -0.176203 0
M  V30 7933 H 758.355 -5.04053 -0.693435 0
M  V30 7934 H 757.753 -4.2203 -3.76706 0
M  V30 7935 H 756.31 -5.11011 -4.04612 0
M  V30 7936 N 759.743 -0.201713 -1.56304 0
M  V30 7937 C 761.159 0.154025 -1.58855 0
M  V30 7938 C 761.359 1.60516 -1.21807 0
M  V30 7939 O 760.415 2.34193 -0.94393 0
M  V30 7940 C 761.728 -0.154319 -3.00304 0
M  V30 7941 C 763.276 -0.0949578 -3.12856 0
M  V30 7942 C 763.751 -0.376703 -4.56448 0
M  V30 7943 N 765.242 -0.325558 -4.62054 0
M  V30 7944 C 765.977 -0.51732 -5.71062 0
M  V30 7945 N 765.473 -0.769789 -6.8851 0
M  V30 7946 N 767.266 -0.45112 -5.60287 0
M  V30 7947 H 759.417 -1.14858 -1.78666 0
M  V30 7948 H 761.68 -0.458934 -0.829508 0
M  V30 7949 H 761.386 -1.16074 -3.31994 0
M  V30 7950 H 761.26 0.540014 -3.73314 0
M  V30 7951 H 763.647 0.902075 -2.80974 0
M  V30 7952 H 763.728 -0.822468 -2.42217 0
M  V30 7953 H 763.372 -1.37108 -4.89044 0
M  V30 7954 H 763.302 0.371772 -5.25286 0
M  V30 7955 H 765.793 -0.137308 -3.7765 0
M  V30 7956 H 766.106 -0.904744 -7.67486 0
M  V30 7957 H 764.451 -0.806758 -6.90302 0
M  V30 7958 H 767.642 -0.254253 -4.67409 0
M  V30 7959 H 767.815 -0.603982 -6.45179 0
M  V30 7960 N 761.222 1.57436 0.0718424 0
M  V30 7961 C 762.633 1.75975 0.623678 0
M  V30 7962 C 762.984 0.827155 1.77912 0
M  V30 7963 O 762.109 0.0112425 2.16397 0
M  V30 7964 C 762.704 3.1911 1.13816 0
M  V30 7965 C 761.263 3.38994 1.63586 0
M  V30 7966 C 760.41 2.71684 0.555261 0
M  V30 7967 H 763.361 1.57948 -0.154328 0
M  V30 7968 H 763.382 3.23267 2.00696 0
M  V30 7969 H 762.894 3.86962 0.296998 0
M  V30 7970 H 760.995 2.76256 2.50027 0
M  V30 7971 H 761.108 4.47436 1.71283 0
M  V30 7972 H 759.472 2.34236 1.00029 0
M  V30 7973 H 760.255 3.42191 -0.275712 0
M  V30 7974 N 762.7 -0.34323 1.53817 0
M  V30 7975 C 763.925 -1.1079 1.75329 0
M  V30 7976 C 764.35 -1.81571 0.491293 0
M  V30 7977 O 763.708 -1.72561 -0.556089 0
M  V30 7978 C 763.756 -2.09681 2.9337 0
M  V30 7979 O 762.86 -3.17207 2.63541 0
M  V30 7980 H 762.201 -0.320402 0.581583 0
M  V30 7981 H 764.731 -0.393525 2.0078 0
M  V30 7982 H 764.741 -2.52897 3.20168 0
M  V30 7983 H 763.416 -1.5756 3.84899 0
M  V30 7984 H 761.993 -2.78806 2.47632 0
M  V30 7985 N 764.178 -1.45556 -0.604258 0
M  V30 7986 C 765.108 -1.57327 -1.72541 0
M  V30 7987 C 766.089 -0.424637 -1.64714 0
M  V30 7988 O 767.274 -0.648196 -1.83063 0
M  V30 7989 C 764.404 -1.54279 -3.11152 0
M  V30 7990 C 763.358 -2.67893 -3.33792 0
M  V30 7991 C 762.684 -2.499 -4.72709 0
M  V30 7992 C 763.984 -4.0988 -3.23722 0
M  V30 7993 H 765.678 -2.51175 -1.62947 0
M  V30 7994 H 763.224 -1.20884 -0.782504 0
M  V30 7995 H 765.177 -1.6111 -3.89386 0
M  V30 7996 H 763.901 -0.569627 -3.21594 0
M  V30 7997 H 762.56 -2.60495 -2.57949 0
M  V30 7998 H 762.208 -1.50715 -4.79889 0
M  V30 7999 H 761.908 -3.26091 -4.88813 0
M  V30 8000 H 763.432 -2.5859 -5.5314 0
M  V30 8001 H 764.846 -4.18503 -3.91826 0
M  V30 8002 H 763.243 -4.86487 -3.51355 0
M  V30 8003 H 764.313 -4.31553 -2.21111 0
M  V30 8004 N 765.656 0.84705 -1.32902 0
M  V30 8005 C 766.886 1.63166 -1.26729 0
M  V30 8006 C 767.294 1.88474 0.165595 0
M  V30 8007 O 766.637 1.45947 1.11558 0
M  V30 8008 C 766.699 3.0103 -1.96522 0
M  V30 8009 C 766.363 2.9873 -3.45846 0
M  V30 8010 C 767.36 2.75032 -4.41196 0
M  V30 8011 C 765.045 3.19125 -3.87898 0
M  V30 8012 C 767.039 2.71743 -5.76571 0
M  V30 8013 C 764.726 3.15462 -5.2338 0
M  V30 8014 C 765.724 2.91801 -6.17528 0
M  V30 8015 O 765.412 2.88027 -7.5053 0
M  V30 8016 H 765.144 0.51469 -0.438258 0
M  V30 8017 H 767.698 1.06383 -1.75704 0
M  V30 8018 H 765.928 3.59634 -1.42128 0
M  V30 8019 H 767.617 3.61821 -1.83958 0
M  V30 8020 H 768.383 2.59034 -4.10032 0
M  V30 8021 H 764.262 3.36565 -3.15032 0
M  V30 8022 H 767.806 2.53194 -6.5003 0
M  V30 8023 H 763.703 3.31006 -5.54171 0
M  V30 8024 H 764.471 3.03927 -7.59981 0
M  V30 8025 N 767.134 1.16236 1.06428 0
M  V30 8026 C 768.38 0.954417 1.79617 0
M  V30 8027 C 768.735 -0.512411 1.85451 0
M  V30 8028 O 768.028 -1.37523 1.33409 0
M  V30 8029 C 768.222 1.51396 3.2375 0
M  V30 8030 C 768.051 3.03367 3.31962 0
M  V30 8031 C 766.821 3.71996 3.41975 0
M  V30 8032 C 769.019 4.01075 3.21937 0
M  V30 8033 N 767.001 5.11688 3.39187 0
M  V30 8034 C 768.372 5.27142 3.26376 0
M  V30 8035 C 770.427 3.92917 3.05812 0
M  V30 8036 C 769.13 6.46 3.16348 0
M  V30 8037 C 771.156 5.11344 2.97121 0
M  V30 8038 C 770.518 6.36291 3.02181 0
M  V30 8039 H 766.617 0.403007 0.670156 0
M  V30 8040 H 769.201 1.47605 1.26968 0
M  V30 8041 H 767.372 1.01883 3.74799 0
M  V30 8042 H 769.104 1.2439 3.85109 0
M  V30 8043 H 765.859 3.22623 3.46715 0
M  V30 8044 H 766.283 5.84676 3.41297 0
M  V30 8045 H 770.925 2.97172 3.00746 0
M  V30 8046 H 768.643 7.41968 3.2017 0
M  V30 8047 H 772.229 5.06801 2.85734 0
M  V30 8048 H 771.109 7.26389 2.95513 0
M  V30 8049 N 768.612 -1.24939 0.960631 0
M  V30 8050 C 770.028 -1.45039 0.666018 0
M  V30 8051 C 770.228 -1.86021 -0.774501 0
M  V30 8052 O 769.284 -1.99392 -1.54916 0
M  V30 8053 C 770.597 -2.51775 1.64408 0
M  V30 8054 C 772.145 -2.6561 1.65592 0
M  V30 8055 C 772.62 -3.75536 2.62177 0
M  V30 8056 N 774.111 -3.82954 2.60577 0
M  V30 8057 C 774.846 -4.67517 3.31987 0
M  V30 8058 N 774.342 -5.56321 4.1289 0
M  V30 8059 N 776.135 -4.61535 3.20845 0
M  V30 8060 H 768.286 -0.96632 1.89145 0
M  V30 8061 H 770.549 -0.486034 0.813926 0
M  V30 8062 H 770.255 -2.28534 2.67329 0
M  V30 8063 H 770.129 -3.49804 1.41128 0
M  V30 8064 H 772.516 -2.88212 0.633846 0
M  V30 8065 H 772.597 -1.67962 1.92931 0
M  V30 8066 H 772.241 -3.53684 3.64514 0
M  V30 8067 H 772.171 -4.72682 2.32119 0
M  V30 8068 H 774.662 -3.19478 2.01847 0
M  V30 8069 H 774.975 -6.17787 4.64283 0
M  V30 8070 H 773.32 -5.5601 4.16987 0
M  V30 8071 H 776.511 -3.91169 2.57108 0
M  V30 8072 H 776.684 -5.27214 3.76762 0
M  V30 8073 N 770.09 -0.729906 -1.39679 0
M  V30 8074 C 771.02 -0.101618 -2.33279 0
M  V30 8075 C 772.001 0.729854 -1.53646 0
M  V30 8076 O 773.186 0.67587 -1.82059 0
M  V30 8077 C 770.316 0.81024 -3.37716 0
M  V30 8078 C 769.27 0.0833126 -4.27919 0
M  V30 8079 C 768.596 1.11185 -5.23012 0
M  V30 8080 C 769.896 -1.07107 -5.112 0
M  V30 8081 H 771.59 -0.883452 -2.86069 0
M  V30 8082 H 769.136 -0.426283 -1.37546 0
M  V30 8083 H 771.089 1.25927 -4.02145 0
M  V30 8084 H 769.813 1.62413 -2.83354 0
M  V30 8085 H 768.472 -0.346043 -3.64963 0
M  V30 8086 H 768.12 1.91917 -4.64948 0
M  V30 8087 H 767.82 0.63026 -5.8421 0
M  V30 8088 H 769.344 1.56068 -5.90318 0
M  V30 8089 H 770.758 -0.700726 -5.69002 0
M  V30 8090 H 769.155 -1.48196 -5.81514 0
M  V30 8091 H 770.225 -1.89513 -4.46332 0
M  V30 8092 N 771.568 1.50203 -0.477153 0
M  V30 8093 C 772.808 2.04265 0.0744065 0
M  V30 8094 C 773.172 1.35082 1.36443 0
M  V30 8095 O 774.373 1.79732 1.99875 0
M  V30 8096 C 772.644 3.56539 0.247874 0
M  V30 8097 S 774.203 4.32219 0.757117 0
M  V30 8098 H 771.021 0.71088 0.0130891 0
M  V30 8099 H 773.623 1.8453 -0.645678 0
M  V30 8100 H 772.327 4.04443 -0.696709 0
M  V30 8101 H 771.858 3.80638 0.993896 0
M  V30 8102 H 773.873 4.52789 2.0297 0
M  V30 8103 N 773.046 0.209999 1.56195 0
M  V30 8104 C 774.292 -0.418742 1.99043 0
M  V30 8105 C 774.647 -1.58201 1.095 0
M  V30 8106 O 773.94 -1.91069 0.1425 0
M  V30 8107 C 774.134 -0.91312 3.45539 0
M  V30 8108 C 773.963 0.200706 4.49252 0
M  V30 8109 C 772.733 0.663287 5.00928 0
M  V30 8110 C 774.931 1.01493 5.04186 0
M  V30 8111 N 772.913 1.75338 5.88328 0
M  V30 8112 C 774.284 1.95411 5.884 0
M  V30 8113 C 776.339 1.05567 4.8658 0
M  V30 8114 C 775.042 2.93069 6.56889 0
M  V30 8115 C 777.068 2.02037 5.55819 0
M  V30 8116 C 776.43 2.94697 6.39791 0
M  V30 8117 H 772.529 -0.120226 0.772703 0
M  V30 8118 H 775.113 0.319119 1.92067 0
M  V30 8119 H 773.284 -1.62038 3.52985 0
M  V30 8120 H 775.016 -1.51371 3.75325 0
M  V30 8121 H 771.771 0.253945 4.72919 0
M  V30 8122 H 772.195 2.30007 6.3673 0
M  V30 8123 H 776.837 0.353242 4.21322 0
M  V30 8124 H 774.555 3.6428 7.21336 0
M  V30 8125 H 778.141 2.05849 5.44167 0
M  V30 8126 H 777.021 3.68128 6.92425 0
M  V30 8127 N 774.524 -1.57472 -0.0634922 0
M  V30 8128 C 775.471 -2.04258 -1.07457 0
M  V30 8129 C 776.441 -0.924804 -1.37973 0
M  V30 8130 O 777.626 -1.19305 -1.48899 0
M  V30 8131 C 774.766 -2.49832 -2.38071 0
M  V30 8132 C 773.879 -3.75263 -2.14014 0
M  V30 8133 C 773.014 -4.09585 -3.38251 0
M  V30 8134 C 772.053 -5.28032 -3.09594 0
M  V30 8135 N 771.19 -5.57953 -4.26185 0
M  V30 8136 H 776.03 -2.90402 -0.668626 0
M  V30 8137 H 773.567 -1.43609 -0.318572 0
M  V30 8138 H 775.525 -2.7431 -3.14341 0
M  V30 8139 H 774.155 -1.66654 -2.76453 0
M  V30 8140 H 773.207 -3.58075 -1.28399 0
M  V30 8141 H 774.519 -4.61667 -1.88852 0
M  V30 8142 H 773.673 -4.35008 -4.2291 0
M  V30 8143 H 772.412 -3.21765 -3.66495 0
M  V30 8144 H 771.417 -5.02397 -2.23332 0
M  V30 8145 H 772.642 -6.17477 -2.82663 0
M  V30 8146 H 770.588 -4.73092 -4.54445 0
M  V30 8147 H 770.505 -6.38793 -4.04326 0
M  V30 8148 H 771.773 -5.87931 -5.11817 0
M  V30 8149 N 776.003 0.335068 -1.53997 0
M  V30 8150 C 776.933 1.41727 -1.85568 0
M  V30 8151 C 777.914 1.54505 -0.7115 0
M  V30 8152 O 779.099 1.68573 -0.964191 0
M  V30 8153 C 776.229 2.7866 -2.07282 0
M  V30 8154 C 775.183 2.80682 -3.23112 0
M  V30 8155 C 774.509 4.20581 -3.30175 0
M  V30 8156 C 775.809 2.45458 -4.61029 0
M  V30 8157 H 777.503 1.15555 -2.76202 0
M  V30 8158 H 775.049 0.554445 -1.32898 0
M  V30 8159 H 777.002 3.54423 -2.27952 0
M  V30 8160 H 775.726 3.06286 -1.13387 0
M  V30 8161 H 774.385 2.07373 -3.02311 0
M  V30 8162 H 774.033 4.4533 -2.33859 0
M  V30 8163 H 773.733 4.22843 -4.08016 0
M  V30 8164 H 775.257 4.98174 -3.53066 0
M  V30 8165 H 776.671 3.10934 -4.81656 0
M  V30 8166 H 775.068 2.5899 -5.41336 0
M  V30 8167 H 776.138 1.40628 -4.6406 0
M  V30 8168 N 777.481 1.45874 0.596531 0
M  V30 8169 C 778.727 1.5069 1.35722 0
M  V30 8170 C 779.06 0.152506 1.936 0
M  V30 8171 O 778.335 -0.834411 1.75692 0
M  V30 8172 C 778.618 2.59474 2.4969 0
M  V30 8173 C 778.471 4.04396 1.96937 0
M  V30 8174 C 779.79 2.64451 3.51787 0
M  V30 8175 H 776.909 0.548611 0.492133 0
M  V30 8176 H 779.551 1.77741 0.671428 0
M  V30 8177 H 777.701 2.36539 3.08191 0
M  V30 8178 H 779.373 4.38576 1.43 0
M  V30 8179 H 777.616 4.14529 1.27859 0
M  V30 8180 H 778.287 4.76218 2.79143 0
M  V30 8181 H 780.763 2.85031 3.03145 0
M  V30 8182 H 779.639 3.42411 4.29006 0
M  V30 8183 H 779.9 1.69965 4.08123 0
M  V30 8184 N 778.959 -0.83999 1.33349 0
M  V30 8185 C 780.184 -1.63249 1.27924 0
M  V30 8186 C 780.609 -1.87523 -0.147193 0
M  V30 8187 O 779.967 -1.43853 -1.10345 0
M  V30 8188 C 780.015 -2.96046 2.05886 0
M  V30 8189 O 779.119 -3.87303 1.4167 0
M  V30 8190 H 778.46 -0.49715 0.440157 0
M  V30 8191 H 780.99 -1.04512 1.75893 0
M  V30 8192 H 781 -3.45752 2.16609 0
M  V30 8193 H 779.675 -2.77701 3.09605 0
M  V30 8194 H 778.252 -3.45789 1.39585 0
M  V30 8195 N 780.437 -1.16799 -1.0581 0
M  V30 8196 C 781.848 -0.95945 -1.60161 0
M  V30 8197 C 782.199 0.49543 -1.89842 0
M  V30 8198 O 781.324 1.36957 -1.67546 0
M  V30 8199 C 781.919 -1.73527 -2.90987 0
M  V30 8200 C 780.478 -1.57158 -3.42021 0
M  V30 8201 C 779.625 -1.74089 -2.15843 0
M  V30 8202 H 782.576 -1.31598 -0.886992 0
M  V30 8203 H 782.597 -1.21397 -3.60615 0
M  V30 8204 H 782.109 -2.79411 -2.69353 0
M  V30 8205 H 780.21 -0.537361 -3.68705 0
M  V30 8206 H 780.323 -2.35858 -4.17022 0
M  V30 8207 H 778.687 -1.16874 -2.26302 0
M  V30 8208 H 779.47 -2.81371 -1.96686 0
M  V30 8209 N 781.915 1.24427 -0.967243 0
M  V30 8210 C 783.155 1.9423 -0.636723 0
M  V30 8211 C 783.519 1.73939 0.812971 0
M  V30 8212 O 784.72 2.37773 1.25369 0
M  V30 8213 C 782.991 3.43105 -1.00067 0
M  V30 8214 S 784.55 4.31728 -0.784633 0
M  V30 8215 H 781.368 0.671527 -0.233607 0
M  V30 8216 H 783.97 1.50806 -1.2441 0
M  V30 8217 H 782.674 3.5538 -2.05264 0
M  V30 8218 H 782.205 3.91521 -0.384054 0
M  V30 8219 H 784.22 4.95046 0.338244 0
M  V30 8220 N 783.393 0.737304 1.3929 0
M  V30 8221 C 784.64 0.286257 2.00467 0
M  V30 8222 C 784.968 -1.1272 1.58507 0
M  V30 8223 O 784.223 -1.7832 0.806257 0
M  V30 8224 C 784.522 0.338438 3.55794 0
M  V30 8225 C 784.188 1.70524 4.17411 0
M  V30 8226 C 782.85 2.07934 4.33955 0
M  V30 8227 C 785.202 2.60256 4.51571 0
M  V30 8228 C 782.53 3.34578 4.81948 0
M  V30 8229 C 784.882 3.86275 5.00974 0
M  V30 8230 C 783.546 4.23774 5.15725 0
M  V30 8231 H 782.816 0.104749 0.733559 0
M  V30 8232 H 785.463 0.944598 1.66582 0
M  V30 8233 H 783.768 -0.403478 3.89717 0
M  V30 8234 H 785.465 -0.0287255 4.0099 0
M  V30 8235 H 782.055 1.40439 4.04938 0
M  V30 8236 H 786.239 2.32624 4.38406 0
M  V30 8237 H 781.495 3.63572 4.91554 0
M  V30 8238 H 785.669 4.5596 5.26378 0
M  V30 8239 H 783.296 5.21972 5.52674 0
M  V30 8240 N 784.871 -1.49948 0.485112 0
M  V30 8241 C 785.801 -2.31675 -0.291364 0
M  V30 8242 C 786.782 -1.39216 -0.977383 0
M  V30 8243 O 787.967 -1.68133 -0.971855 0
M  V30 8244 C 785.097 -3.19326 -1.36558 0
M  V30 8245 C 784.051 -4.2045 -0.800359 0
M  V30 8246 C 783.377 -4.96931 -1.97391 0
M  V30 8247 C 784.677 -5.21925 0.197867 0
M  V30 8248 H 786.371 -2.96839 0.390775 0
M  V30 8249 H 783.917 -1.42749 0.189375 0
M  V30 8250 H 785.87 -3.75304 -1.91638 0
M  V30 8251 H 784.594 -2.52074 -2.07668 0
M  V30 8252 H 783.253 -3.65594 -0.271428 0
M  V30 8253 H 782.901 -4.26141 -2.67232 0
M  V30 8254 H 782.601 -5.65344 -1.60187 0
M  V30 8255 H 784.125 -5.55749 -2.52935 0
M  V30 8256 H 785.539 -5.72691 -0.264239 0
M  V30 8257 H 783.936 -5.98138 0.484908 0
M  V30 8258 H 785.006 -4.71809 1.11912 0
M  V30 8259 N 786.349 -0.21828 -1.56081 0
M  V30 8260 C 787.279 0.687922 -2.23136 0
M  V30 8261 C 788.26 1.20357 -1.202 0
M  V30 8262 O 789.445 1.24817 -1.48776 0
M  V30 8263 C 786.575 1.89762 -2.90874 0
M  V30 8264 C 785.529 1.51595 -4.00254 0
M  V30 8265 C 784.855 2.80415 -4.55271 0
M  V30 8266 C 786.155 0.708404 -5.17474 0
M  V30 8267 H 787.849 0.128854 -2.99123 0
M  V30 8268 H 785.395 0.0605354 -1.43873 0
M  V30 8269 H 787.348 2.53699 -3.36474 0
M  V30 8270 H 786.072 2.4816 -2.1233 0
M  V30 8271 H 784.731 0.900058 -3.55379 0
M  V30 8272 H 784.379 3.36951 -3.73461 0
M  V30 8273 H 784.079 2.55613 -5.2909 0
M  V30 8274 H 785.603 3.453 -5.03587 0
M  V30 8275 H 787.017 1.2514 -5.59476 0
M  V30 8276 H 785.414 0.557593 -5.97504 0
M  V30 8277 H 786.484 -0.285679 -4.84058 0
M  V30 8278 N 787.827 1.57504 0.0551401 0
M  V30 8279 C 789.074 1.88055 0.751104 0
M  V30 8280 C 789.402 0.812231 1.76729 0
M  V30 8281 O 788.657 -0.189918 1.94776 0
M  V30 8282 C 788.956 3.25311 1.48013 0
M  V30 8283 C 788.622 4.46858 0.602375 0
M  V30 8284 C 787.284 4.79847 0.360536 0
M  V30 8285 C 789.636 5.212 -0.00524047 0
M  V30 8286 C 786.964 5.84582 -0.498127 0
M  V30 8287 C 789.316 6.26844 -0.851453 0
M  V30 8288 C 787.98 6.58324 -1.103 0
M  V30 8289 H 787.25 0.688142 0.274848 0
M  V30 8290 H 789.897 1.91497 0.0114795 0
M  V30 8291 H 788.202 3.17737 2.29239 0
M  V30 8292 H 789.899 3.46189 2.02371 0
M  V30 8293 H 786.489 4.21049 0.801007 0
M  V30 8294 H 790.673 4.96013 0.168682 0
M  V30 8295 H 785.929 6.07361 -0.701594 0
M  V30 8296 H 790.103 6.83603 -1.32893 0
M  V30 8297 H 787.73 7.39304 -1.77011 0
M  V30 8298 N 789.305 -0.326896 1.54172 0
M  V30 8299 C 790.551 -1.06681 1.72473 0
M  V30 8300 C 790.884 -1.87779 0.49523 0
M  V30 8301 O 790.159 -1.87754 -0.507803 0
M  V30 8302 C 790.442 -1.99429 2.99834 0
M  V30 8303 C 790.295 -1.21682 4.33028 0
M  V30 8304 C 791.614 -2.99002 3.22933 0
M  V30 8305 H 788.733 -0.386438 0.627563 0
M  V30 8306 H 791.375 -0.343779 1.86864 0
M  V30 8307 H 789.525 -2.61081 2.87696 0
M  V30 8308 H 791.197 -0.625153 4.57044 0
M  V30 8309 H 789.44 -0.519045 4.30684 0
M  V30 8310 H 790.111 -1.89766 5.18356 0
M  V30 8311 H 792.587 -2.4747 3.34511 0
M  V30 8312 H 791.463 -3.61085 4.13412 0
M  V30 8313 H 791.724 -3.71281 2.40006 0
M  V30 8314 N 790.784 -1.46188 -0.588786 0
M  V30 8315 C 792.03 -1.51407 -1.34921 0
M  V30 8316 C 792.363 -0.162771 -1.93517 0
M  V30 8317 O 791.638 0.825082 -1.76132 0
M  V30 8318 C 791.921 -2.60795 -2.48311 0
M  V30 8319 C 791.774 -4.05435 -1.94789 0
M  V30 8320 C 793.093 -2.66313 -3.50379 0
M  V30 8321 H 790.212 -0.551213 -0.489217 0
M  V30 8322 H 792.854 -1.78095 -0.661993 0
M  V30 8323 H 791.004 -2.3817 -3.06932 0
M  V30 8324 H 792.676 -4.39328 -1.40672 0
M  V30 8325 H 790.919 -4.15202 -1.25659 0
M  V30 8326 H 791.59 -4.77691 -2.76613 0
M  V30 8327 H 794.066 -2.86634 -3.01629 0
M  V30 8328 H 792.942 -3.44681 -4.27184 0
M  V30 8329 H 793.203 -1.72127 -4.07216 0
M  V30 8330 N 792.262 0.832906 -1.33792 0
M  V30 8331 C 793.508 1.59089 -1.25772 0
M  V30 8332 C 793.841 1.93414 0.174601 0
M  V30 8333 O 793.116 1.59195 1.11746 0
M  V30 8334 C 793.399 2.89699 -2.13885 0
M  V30 8335 C 793.252 2.62017 -3.65605 0
M  V30 8336 C 794.571 3.91182 -2.01654 0
M  V30 8337 H 791.69 0.577232 -0.458227 0
M  V30 8338 H 794.332 0.960227 -1.6395 0
M  V30 8339 H 792.482 3.4352 -1.81456 0
M  V30 8340 H 794.154 2.14582 -4.08353 0
M  V30 8341 H 792.397 1.95621 -3.87189 0
M  V30 8342 H 793.068 3.55112 -4.2261 0
M  V30 8343 H 795.544 3.46684 -2.30107 0
M  V30 8344 H 794.42 4.80391 -2.65548 0
M  V30 8345 H 794.681 4.30861 -0.990536 0
M  V30 8346 N 793.74 1.17359 1.05189 0
M  V30 8347 C 794.986 0.963413 1.78455 0
M  V30 8348 C 795.319 -0.506703 1.87473 0
M  V30 8349 O 794.594 -1.37611 1.37453 0
M  V30 8350 C 794.877 1.60519 3.22344 0
M  V30 8351 C 794.73 3.14741 3.21338 0
M  V30 8352 C 796.049 1.3091 4.20179 0
M  V30 8353 H 793.168 0.351412 0.647826 0
M  V30 8354 H 795.81 1.44858 1.22948 0
M  V30 8355 H 793.96 1.19265 3.69741 0
M  V30 8356 H 795.632 3.65053 2.82017 0
M  V30 8357 H 793.875 3.4749 2.59679 0
M  V30 8358 H 794.546 3.54775 4.22894 0
M  V30 8359 H 797.022 1.66635 3.81277 0
M  V30 8360 H 795.898 1.784 5.191 0
M  V30 8361 H 796.159 0.229908 4.41502 0
M  V30 8362 N 795.218 -1.23913 0.973828 0
M  V30 8363 C 796.443 -1.96735 0.656511 0
M  V30 8364 C 796.868 -1.71682 -0.768571 0
M  V30 8365 O 796.226 -0.984267 -1.52256 0
M  V30 8366 C 796.274 -3.48004 0.944735 0
M  V30 8367 O 795.378 -4.12387 0.0333357 0
M  V30 8368 H 794.719 -0.616119 0.247575 0
M  V30 8369 H 797.249 -1.57525 1.30564 0
M  V30 8370 H 797.259 -3.98424 0.87876 0
M  V30 8371 H 795.934 -3.65567 1.98328 0
M  V30 8372 H 794.511 -3.72585 0.153157 0
M  V30 8373 N 796.696 -0.74468 -1.38897 0
M  V30 8374 C 797.945 -0.293716 -1.9955 0
M  V30 8375 C 798.258 1.12831 -1.59777 0
M  V30 8376 O 799.464 1.67929 -2.13336 0
M  V30 8377 C 797.92 -0.474188 -3.56762 0
M  V30 8378 C 797.528 -1.90472 -4.05493 0
M  V30 8379 C 799.272 -0.0854875 -4.24414 0
M  V30 8380 C 797.179 -2.03423 -5.55314 0
M  V30 8381 H 796.109 -0.106066 -0.746502 0
M  V30 8382 H 798.76 -0.919948 -1.58774 0
M  V30 8383 H 797.142 0.221092 -3.95382 0
M  V30 8384 H 798.316 -2.63274 -3.78184 0
M  V30 8385 H 796.631 -2.24752 -3.50536 0
M  V30 8386 H 799.228 -0.161133 -5.34457 0
M  V30 8387 H 799.571 0.96066 -4.05064 0
M  V30 8388 H 800.104 -0.732286 -3.91002 0
M  V30 8389 H 796.843 -3.0626 -5.79556 0
M  V30 8390 H 796.363 -1.3507 -5.84394 0
M  V30 8391 H 798.042 -1.81996 -6.20876 0
M  V30 8392 N 798.174 1.49689 -0.493057 0
M  V30 8393 C 799.42 2.02727 0.0543518 0
M  V30 8394 C 799.753 1.37264 1.37376 0
M  V30 8395 O 799.028 0.505644 1.87812 0
M  V30 8396 C 799.311 3.59456 0.215226 0
M  V30 8397 C 799.164 4.35459 -1.12675 0
M  V30 8398 C 800.483 4.29511 0.959586 0
M  V30 8399 H 797.602 0.736773 0.0182786 0
M  V30 8400 H 800.244 1.78792 -0.642924 0
M  V30 8401 H 798.394 3.79981 0.809122 0
M  V30 8402 H 800.066 4.2645 -1.75891 0
M  V30 8403 H 798.309 3.9833 -1.71801 0
M  V30 8404 H 798.98 5.43454 -0.967578 0
M  V30 8405 H 801.456 4.13594 0.455977 0
M  V30 8406 H 800.332 5.38939 1.04098 0
M  V30 8407 H 800.593 3.94202 2.00144 0
M  V30 8408 N 799.652 0.226554 1.55963 0
M  V30 8409 C 800.88 -0.408507 2.02827 0
M  V30 8410 C 801.295 -1.52994 1.10627 0
M  V30 8411 O 800.652 -1.82126 0.116809 0
M  V30 8412 C 800.703 -0.93545 3.49187 0
M  V30 8413 O 800.424 0.141273 4.37872 0
M  V30 8414 C 801.925 -1.64325 4.11719 0
M  V30 8415 H 799.145 -0.099442 0.66359 0
M  V30 8416 H 801.689 0.344471 2.01578 0
M  V30 8417 H 799.844 -1.63868 3.51036 0
M  V30 8418 H 800.258 -0.25558 5.23877 0
M  V30 8419 H 801.732 -1.9639 5.15883 0
M  V30 8420 H 802.209 -2.55815 3.57009 0
M  V30 8421 H 802.815 -0.9851 4.13734 0
M  V30 8422 N 801.13 -1.57531 -0.0467866 0
M  V30 8423 C 802.377 -1.88451 -0.74112 0
M  V30 8424 C 802.705 -0.821592 -1.76296 0
M  V30 8425 O 801.96 0.179585 -1.94874 0
M  V30 8426 C 802.259 -3.26091 -1.46285 0
M  V30 8427 C 801.925 -4.47171 -0.578669 0
M  V30 8428 C 800.587 -4.80032 -0.335083 0
M  V30 8429 C 802.939 -5.2119 0.0328809 0
M  V30 8430 C 800.267 -5.84309 0.529121 0
M  V30 8431 C 802.619 -6.26383 0.884684 0
M  V30 8432 C 801.283 -6.57729 1.1379 0
M  V30 8433 H 800.553 -0.68959 -0.271195 0
M  V30 8434 H 803.2 -1.915 -0.00132378 0
M  V30 8435 H 801.505 -3.18948 -2.27551 0
M  V30 8436 H 803.202 -3.47258 -2.00532 0
M  V30 8437 H 799.792 -4.21467 -0.778666 0
M  V30 8438 H 803.976 -4.96096 -0.142375 0
M  V30 8439 H 799.232 -6.06981 0.733794 0
M  V30 8440 H 803.406 -6.82888 1.36516 0
M  V30 8441 H 801.033 -7.38355 1.80929 0
M  V30 8442 N 802.608 0.318715 -1.54344 0
M  V30 8443 C 804.024 0.663345 -1.45162 0
M  V30 8444 C 804.224 1.9145 -0.62842 0
M  V30 8445 O 803.28 2.5217 -0.129126 0
M  V30 8446 C 804.593 0.832836 -2.88937 0
M  V30 8447 C 806.141 0.929866 -2.98869 0
M  V30 8448 C 806.616 1.13149 -4.43803 0
M  V30 8449 N 808.107 1.19811 -4.47437 0
M  V30 8450 C 808.842 1.37209 -5.56742 0
M  V30 8451 N 808.338 1.51619 -6.76006 0
M  V30 8452 N 810.131 1.39956 -5.44398 0
M  V30 8453 H 802.282 -0.50357 -2.06344 0
M  V30 8454 H 804.545 -0.163528 -0.933789 0
M  V30 8455 H 804.251 -0.0153519 -3.51697 0
M  V30 8456 H 804.125 1.72721 -3.35332 0
M  V30 8457 H 806.512 1.76855 -2.36233 0
M  V30 8458 H 806.593 0.0118561 -2.55797 0
M  V30 8459 H 806.237 0.297636 -5.07027 0
M  V30 8460 H 806.167 2.06345 -4.84489 0
M  V30 8461 H 808.658 1.101 -3.61506 0
M  V30 8462 H 808.971 1.64599 -7.55067 0
M  V30 8463 H 807.316 1.48708 -6.78904 0
M  V30 8464 H 810.507 1.28298 -4.50175 0
M  V30 8465 H 810.68 1.53172 -6.29637 0
M  V30 8466 N 804.086 1.46499 0.581025 0
M  V30 8467 C 805.497 1.4604 1.16315 0
M  V30 8468 C 805.848 0.202154 1.95156 0
M  V30 8469 O 804.973 -0.694638 2.04948 0
M  V30 8470 C 805.568 2.64593 2.11604 0
M  V30 8471 C 804.127 2.6717 2.65136 0
M  V30 8472 C 803.274 2.38753 1.4104 0
M  V30 8473 H 806.225 1.54354 0.368871 0
M  V30 8474 H 806.246 2.40207 2.95095 0
M  V30 8475 H 805.758 3.56154 1.54194 0
M  V30 8476 H 803.859 1.79685 3.26411 0
M  V30 8477 H 803.972 3.67182 3.07757 0
M  V30 8478 H 802.336 1.88845 1.70908 0
M  V30 8479 H 803.119 3.32493 0.854588 0
M  V30 8480 N 805.565 -0.825799 1.34232 0
M  V30 8481 C 806.976 -1.39835 1.23706 0
M  V30 8482 C 807.327 -1.95709 -0.138649 0
M  V30 8483 O 806.452 -1.89833 -1.03886 0
M  V30 8484 C 807.047 -2.54203 2.23978 0
M  V30 8485 C 805.606 -3.07374 2.17251 0
M  V30 8486 C 804.753 -1.80232 2.10741 0
M  V30 8487 H 807.704 -0.630442 1.4564 0
M  V30 8488 H 807.725 -3.32214 1.8551 0
M  V30 8489 H 807.237 -2.13506 3.24094 0
M  V30 8490 H 805.338 -3.52583 1.20483 0
M  V30 8491 H 805.451 -3.6666 3.08379 0
M  V30 8492 H 803.815 -2.01012 1.56417 0
M  V30 8493 H 804.598 -1.41713 3.12686 0
M  V30 8494 N 807.043 -1.17915 -1.04565 0
M  V30 8495 C 807.993 -0.869634 -2.10764 0
M  V30 8496 C 808.977 0.158502 -1.60117 0
M  V30 8497 O 810.169 -0.04483 -1.76943 0
M  V30 8498 C 807.298 -0.391642 -3.41059 0
M  V30 8499 C 806.384 -1.45156 -3.98485 0
M  V30 8500 N 806.775 -2.6667 -4.29792 0
M  V30 8501 C 805.073 -1.3109 -4.263 0
M  V30 8502 C 805.774 -3.34823 -4.75677 0
M  V30 8503 N 804.75 -2.62203 -4.76183 0
M  V30 8504 H 808.552 -1.79342 -2.32838 0
M  V30 8505 H 806.066 -1.0688 -1.22272 0
M  V30 8506 H 808.063 -0.151428 -4.16625 0
M  V30 8507 H 806.723 0.525862 -3.20413 0
M  V30 8508 H 807.734 -3.0358 -4.19594 0
M  V30 8509 H 804.411 -0.455545 -4.15007 0
M  V30 8510 H 805.801 -4.38645 -5.0896 0
M  V30 8511 N 808.521 1.23394 -0.980386 0
M  V30 8512 C 809.751 1.9556 -0.666319 0
M  V30 8513 C 810.159 1.72786 0.770815 0
M  V30 8514 O 809.502 1.0162 1.53033 0
M  V30 8515 C 809.564 3.48643 -0.876825 0
M  V30 8516 C 809.228 3.95135 -2.29602 0
M  V30 8517 C 810.225 4.03806 -3.2747 0
M  V30 8518 C 807.91 4.28122 -2.62711 0
M  V30 8519 C 809.904 4.44818 -4.56526 0
M  V30 8520 C 807.591 4.68814 -3.9199 0
M  V30 8521 C 808.589 4.77129 -4.88709 0
M  V30 8522 O 808.277 5.16908 -6.15679 0
M  V30 8523 H 808.009 0.629422 -0.246585 0
M  V30 8524 H 810.563 1.57839 -1.31438 0
M  V30 8525 H 808.793 3.86319 -0.171587 0
M  V30 8526 H 810.482 4.0202 -0.55992 0
M  V30 8527 H 811.248 3.78526 -3.03222 0
M  V30 8528 H 807.127 4.20861 -1.8814 0
M  V30 8529 H 810.671 4.51223 -5.32018 0
M  V30 8530 H 806.568 4.93545 -4.16033 0
M  V30 8531 H 807.336 5.3502 -6.19432 0
M  V30 8532 N 809.999 0.752036 1.385 0
M  V30 8533 C 811.247 0.306895 1.99756 0
M  V30 8534 C 811.568 -1.11478 1.59992 0
M  V30 8535 O 810.838 -1.76206 0.856045 0
M  V30 8536 H 809.418 0.11048 0.738785 0
M  V30 8537 H 812.08 0.965785 1.69289 0
M  V30 8538 H 811.176 0.368797 3.09913 0
M  V30 8539 N 811.477 -1.49425 0.500989 0
M  V30 8540 C 812.44 -2.27646 -0.266416 0
M  V30 8541 C 813.44 -1.3366 -0.893961 0
M  V30 8542 O 814.63 -1.5682 -0.758495 0
M  V30 8543 C 811.762 -3.11618 -1.38227 0
M  V30 8544 H 812.955 -2.96945 0.419973 0
M  V30 8545 H 810.508 -1.5419 0.255954 0
M  V30 8546 H 811.243 -2.46885 -2.10281 0
M  V30 8547 H 811.028 -3.80721 -0.937746 0
M  V30 8548 H 812.518 -3.70698 -1.92283 0
M  V30 8549 N 812.955 -0.234822 -1.55841 0
M  V30 8550 C 814.185 0.397168 -2.02746 0
M  V30 8551 C 814.593 1.52951 -1.11367 0
M  V30 8552 O 813.936 1.8332 -0.118133 0
M  V30 8553 C 813.998 0.977748 -3.45948 0
M  V30 8554 C 813.662 -0.0208193 -4.56995 0
M  V30 8555 C 814.659 -0.826015 -5.13296 0
M  V30 8556 C 812.344 -0.143416 -5.02095 0
M  V30 8557 C 814.338 -1.74038 -6.1318 0
M  V30 8558 C 812.025 -1.0613 -6.01814 0
M  V30 8559 C 813.023 -1.85832 -6.57233 0
M  V30 8560 O 812.711 -2.76075 -7.55008 0
M  V30 8561 H 812.443 0.0999802 -0.668566 0
M  V30 8562 H 814.997 -0.352673 -2.0235 0
M  V30 8563 H 813.227 1.77693 -3.43456 0
M  V30 8564 H 814.916 1.51854 -3.76424 0
M  V30 8565 H 815.682 -0.741822 -4.79293 0
M  V30 8566 H 811.561 0.466857 -4.5863 0
M  V30 8567 H 815.105 -2.36291 -6.56363 0
M  V30 8568 H 811.002 -1.14646 -6.35237 0
M  V30 8569 H 811.77 -2.703 -7.7258 0
M  V30 8570 N 814.433 1.57553 0.0384317 0
M  V30 8571 C 815.682 1.88022 0.730108 0
M  V30 8572 C 815.995 0.83209 1.77019 0
M  V30 8573 O 817.201 1.0257 2.51379 0
M  V30 8574 C 815.657 3.33637 1.3496 0
M  V30 8575 C 815.265 4.46659 0.346352 0
M  V30 8576 C 817.009 3.73266 2.02169 0
M  V30 8577 C 814.916 5.8333 0.973652 0
M  V30 8578 H 813.846 0.701496 0.276442 0
M  V30 8579 H 816.497 1.83493 -0.0158028 0
M  V30 8580 H 814.879 3.32882 2.1449 0
M  V30 8581 H 816.053 4.58868 -0.421558 0
M  V30 8582 H 814.368 4.15802 -0.223133 0
M  V30 8583 H 816.965 4.72689 2.49938 0
M  V30 8584 H 817.308 3.04776 2.8358 0
M  V30 8585 H 817.841 3.76156 1.29427 0
M  V30 8586 H 814.58 6.55197 0.199163 0
M  V30 8587 H 814.1 5.7486 1.71162 0
M  V30 8588 H 815.779 6.29757 1.48376 0
M  V30 8589 N 815.911 -0.310526 1.54511 0
M  V30 8590 C 817.158 -1.04691 1.73338 0
M  V30 8591 C 817.486 -1.87584 0.514038 0
M  V30 8592 O 816.741 -1.89096 -0.504119 0
M  V30 8593 C 817.04 -1.98942 2.96912 0
M  V30 8594 C 816.706 -1.321 4.31115 0
M  V30 8595 C 815.368 -1.13603 4.67598 0
M  V30 8596 C 817.72 -0.842362 5.14348 0
M  V30 8597 C 815.048 -0.459102 5.84901 0
M  V30 8598 C 817.4 -0.179202 6.32346 0
M  V30 8599 C 816.064 0.0178111 6.67498 0
M  V30 8600 H 815.334 -0.38309 0.634289 0
M  V30 8601 H 817.981 -0.322723 1.88761 0
M  V30 8602 H 816.286 -2.77856 2.76231 0
M  V30 8603 H 817.983 -2.55972 3.08674 0
M  V30 8604 H 814.573 -1.47502 4.02419 0
M  V30 8605 H 818.757 -0.973013 4.86668 0
M  V30 8606 H 814.013 -0.295385 6.10686 0
M  V30 8607 H 818.187 0.199619 6.96114 0
M  V30 8608 H 815.814 0.544356 7.58249 0
M  V30 8609 N 817.389 -1.46805 -0.573248 0
M  V30 8610 C 818.8 -1.46655 -1.15539 0
M  V30 8611 C 819.151 -0.2125 -1.95046 0
M  V30 8612 O 818.276 0.683759 -2.05314 0
M  V30 8613 C 818.871 -2.65711 -2.10198 0
M  V30 8614 C 817.43 -2.68572 -2.63716 0
M  V30 8615 C 816.577 -2.39498 -1.39772 0
M  V30 8616 H 819.528 -1.54547 -0.36068 0
M  V30 8617 H 819.549 -2.41768 -2.93817 0
M  V30 8618 H 819.061 -3.56967 -1.52303 0
M  V30 8619 H 817.162 -1.81414 -3.25453 0
M  V30 8620 H 817.275 -3.68809 -3.05805 0
M  V30 8621 H 815.639 -1.89749 -1.69904 0
M  V30 8622 H 816.422 -3.32942 -0.836943 0
M  V30 8623 N 818.867 0.818669 -1.34668 0
M  V30 8624 C 820.144 1.56118 -1.17841 0
M  V30 8625 C 820.524 2.09646 0.24731 0
M  V30 8626 O 819.872 1.91329 1.24922 0
M  V30 8627 C 820.082 2.67922 -2.23649 0
M  V30 8628 C 821.43 3.36579 -2.58843 0
M  V30 8629 O 822.454 2.78182 -2.22471 0
M  V30 8630 O 821.313 4.42045 -3.21339 0
M  V30 8631 H 818.407 0.689216 -0.457067 0
M  V30 8632 H 820.953 0.859674 -1.46314 0
M  V30 8633 H 819.725 2.26153 -3.19328 0
M  V30 8634 H 819.348 3.45719 -1.96377 0
M  V30 8635 N 820.346 1.18468 1.03938 0
M  V30 8636 C 821.592 0.992302 1.77553 0
M  V30 8637 C 821.947 -0.472959 1.86496 0
M  V30 8638 O 821.24 -1.34662 1.36296 0
M  V30 8639 C 821.434 1.58229 3.20466 0
M  V30 8640 C 821.263 3.1034 3.25452 0
M  V30 8641 C 820.033 3.79166 3.34008 0
M  V30 8642 C 822.231 4.07814 3.13357 0
M  V30 8643 N 820.213 5.18768 3.28258 0
M  V30 8644 C 821.584 5.33946 3.15121 0
M  V30 8645 C 823.639 3.99315 2.97409 0
M  V30 8646 C 822.342 6.52565 3.02574 0
M  V30 8647 C 824.368 5.17532 2.86208 0
M  V30 8648 C 823.73 6.42557 2.88617 0
M  V30 8649 H 819.829 0.417131 0.661457 0
M  V30 8650 H 822.413 1.50265 1.23808 0
M  V30 8651 H 820.584 1.0981 3.72554 0
M  V30 8652 H 822.316 1.32531 3.82384 0
M  V30 8653 H 819.071 3.29905 3.39794 0
M  V30 8654 H 819.495 5.91783 3.28818 0
M  V30 8655 H 824.137 3.03485 2.94375 0
M  V30 8656 H 821.855 7.48592 3.0436 0
M  V30 8657 H 825.441 5.12748 2.7492 0
M  V30 8658 H 824.321 7.32494 2.80039 0
M  V30 8659 N 821.824 -1.22873 0.986916 0
M  V30 8660 C 822.787 -2.2281 0.537442 0
M  V30 8661 C 823.787 -1.56331 -0.37646 0
M  V30 8662 O 824.977 -1.73376 -0.169247 0
M  V30 8663 C 822.109 -3.40195 -0.219082 0
M  V30 8664 H 823.302 -2.64089 1.42116 0
M  V30 8665 H 820.855 -1.35819 0.773488 0
M  V30 8666 H 821.59 -3.04381 -1.11905 0
M  V30 8667 H 821.375 -3.89657 0.437026 0
M  V30 8668 H 822.865 -4.14326 -0.521926 0
M  V30 8669 N 823.302 -0.75937 -1.38099 0
M  V30 8670 C 824.25 -0.124954 -2.32264 0
M  V30 8671 C 825.244 0.698863 -1.54312 0
M  V30 8672 O 826.45 0.597312 -1.698 0
M  V30 8673 H 822.825 -0.0216142 -0.751689 0
M  V30 8674 H 824.796 -0.935115 -2.83369 0
M  V30 8675 C 823.545 0.749463 -3.39527 0
M  V30 8676 H 822.868 0.124932 -3.99605 0
M  V30 8677 H 824.308 1.16055 -4.07808 0
M  V30 8678 C 822.767 1.89464 -2.78577 0
M  V30 8679 O 823.297 2.98923 -2.68343 0
M  V30 8680 N 821.503 1.69145 -2.36301 0
M  V30 8681 H 821.05 0.801157 -2.44825 0
M  V30 8682 H 821.008 2.45936 -1.95864 0
M  V30 8683 N 824.78 1.49157 -0.508906 0
M  V30 8684 C 825.743 2.27784 0.25434 0
M  V30 8685 C 826.743 1.34132 0.88686 0
M  V30 8686 O 827.933 1.5722 0.750168 0
M  V30 8687 C 825.065 3.12347 1.36573 0
M  V30 8688 H 826.258 2.96718 -0.435714 0
M  V30 8689 H 823.811 1.54052 -0.264128 0
M  V30 8690 H 824.546 2.47997 2.08969 0
M  V30 8691 H 824.331 3.81213 0.917543 0
M  V30 8692 H 825.821 3.71712 1.90315 0
M  V30 8693 N 826.258 0.243083 1.55714 0
M  V30 8694 C 827.188 -0.652336 2.24203 0
M  V30 8695 C 828.169 -1.1843 1.221 0
M  V30 8696 O 829.354 -1.22435 1.50743 0
M  V30 8697 C 826.484 -1.85111 2.93856 0
M  V30 8698 C 825.438 -1.45208 4.02615 0
M  V30 8699 C 824.764 -2.73137 4.59674 0
M  V30 8700 C 826.064 -0.625988 5.18535 0
M  V30 8701 H 827.758 -0.0812504 2.9929 0
M  V30 8702 H 825.304 -0.0376388 1.43951 0
M  V30 8703 H 827.257 -2.48314 3.40468 0
M  V30 8704 H 825.981 -2.44751 2.16251 0
M  V30 8705 H 824.64 -0.843406 3.56766 0
M  V30 8706 H 824.288 -3.30967 3.78774 0
M  V30 8707 H 823.988 -2.47163 5.33089 0
M  V30 8708 H 825.512 -3.37245 5.09017 0
M  V30 8709 H 826.926 -1.16223 5.61396 0
M  V30 8710 H 825.323 -0.462465 5.98315 0
M  V30 8711 H 826.393 0.362652 4.83542 0
M  V30 8712 N 827.736 -1.57571 -0.0300757 0
M  V30 8713 C 828.984 -1.88852 -0.719666 0
M  V30 8714 C 829.305 -0.840645 -1.75949 0
M  V30 8715 O 828.575 0.125854 -1.95495 0
M  V30 8716 H 827.155 -0.696965 -0.268792 0
M  V30 8717 H 829.817 -1.949 0.00373285 0
M  V30 8718 H 828.913 -2.87695 -1.20987 0
M  V30 8719 N 829.214 0.302327 -1.54673 0
M  V30 8720 C 830.46 1.03532 -1.75079 0
M  V30 8721 C 830.815 1.84972 -0.52943 0
M  V30 8722 O 830.108 1.85537 0.478169 0
M  V30 8723 C 830.302 1.97365 -2.97963 0
M  V30 8724 C 830.131 1.25154 -4.31934 0
M  V30 8725 C 828.901 0.979243 -4.95721 0
M  V30 8726 C 831.099 0.656653 -5.10091 0
M  V30 8727 N 829.081 0.227265 -6.13479 0
M  V30 8728 C 830.452 0.0373759 -6.19989 0
M  V30 8729 C 832.507 0.561571 -4.94723 0
M  V30 8730 C 831.21 -0.667782 -7.16194 0
M  V30 8731 C 833.236 -0.12993 -5.91257 0
M  V30 8732 C 832.598 -0.738063 -7.00523 0
M  V30 8733 H 828.697 0.361824 -0.693258 0
M  V30 8734 H 831.281 0.314091 -1.9215 0
M  V30 8735 H 829.452 2.66739 -2.8232 0
M  V30 8736 H 831.184 2.63806 -3.06902 0
M  V30 8737 H 827.939 1.27706 -4.56057 0
M  V30 8738 H 828.363 -0.135199 -6.76865 0
M  V30 8739 H 833.005 1.01744 -4.10375 0
M  V30 8740 H 830.723 -1.13542 -8.00084 0
M  V30 8741 H 834.309 -0.203423 -5.81444 0
M  V30 8742 H 833.189 -1.26463 -7.73936 0
M  V30 8743 N 830.692 1.47107 0.565454 0
M  V30 8744 C 831.938 1.53535 1.32495 0
M  V30 8745 C 832.271 0.193537 1.93233 0
M  V30 8746 O 831.546 -0.796956 1.77423 0
M  V30 8747 C 831.829 2.64712 2.4413 0
M  V30 8748 C 831.682 4.08482 1.88314 0
M  V30 8749 C 833.001 2.71853 3.46098 0
M  V30 8750 H 830.12 0.558926 0.480386 0
M  V30 8751 H 832.762 1.79125 0.633575 0
M  V30 8752 H 830.912 2.43023 3.03104 0
M  V30 8753 H 832.584 4.4151 1.33665 0
M  V30 8754 H 830.827 4.17148 1.19037 0
M  V30 8755 H 831.498 4.82032 2.68978 0
M  V30 8756 H 833.974 2.91397 2.97031 0
M  V30 8757 H 832.85 3.51433 4.21646 0
M  V30 8758 H 833.111 1.78584 4.04426 0
M  V30 8759 N 832.17 -0.811516 1.35101 0
M  V30 8760 C 833.419 -1.56343 1.27435 0
M  V30 8761 C 833.732 -1.95019 -0.150696 0
M  V30 8762 O 834.938 -2.6924 -0.349586 0
M  V30 8763 C 833.394 -2.82124 2.23459 0
M  V30 8764 C 833.002 -2.50706 3.71283 0
M  V30 8765 C 834.746 -3.60137 2.24726 0
M  V30 8766 C 832.653 -3.72748 4.59143 0
M  V30 8767 H 831.583 -0.58682 0.473453 0
M  V30 8768 H 834.234 -0.892465 1.60335 0
M  V30 8769 H 832.616 -3.50905 1.83525 0
M  V30 8770 H 833.79 -1.89962 4.19823 0
M  V30 8771 H 832.105 -1.85947 3.72576 0
M  V30 8772 H 834.702 -4.50775 2.87587 0
M  V30 8773 H 835.045 -3.97101 1.24965 0
M  V30 8774 H 835.578 -2.98311 2.63164 0
M  V30 8775 H 832.317 -3.40896 5.59884 0
M  V30 8776 H 831.837 -4.32735 4.15332 0
M  V30 8777 H 833.516 -4.40033 4.74321 0
M  V30 8778 N 833.648 -1.19017 -1.03309 0
M  V30 8779 C 834.611 -0.926076 -2.09658 0
M  V30 8780 C 835.611 0.0917077 -1.60538 0
M  V30 8781 O 836.801 -0.142574 -1.73616 0
M  V30 8782 C 833.933 -0.390958 -3.38651 0
M  V30 8783 H 835.126 -1.86923 -2.3452 0
M  V30 8784 H 832.679 -1.00325 -1.19853 0
M  V30 8785 H 833.414 0.558446 -3.19456 0
M  V30 8786 H 833.199 -1.12474 -3.75622 0
M  V30 8787 H 834.689 -0.225131 -4.16993 0
M  V30 8788 N 835.127 1.22348 -0.993418 0
M  V30 8789 C 836.355 1.95125 -0.688021 0
M  V30 8790 C 836.77 1.73377 0.747388 0
M  V30 8791 O 836.127 1.03317 1.50439 0
M  V30 8792 C 836.178 3.47819 -0.985097 0
M  V30 8793 O 835.899 3.68838 -2.3641 0
M  V30 8794 C 837.4 4.37779 -0.697474 0
M  V30 8795 H 834.62 0.62087 -0.254481 0
M  V30 8796 H 837.164 1.55485 -1.32833 0
M  V30 8797 H 835.319 3.85426 -0.390583 0
M  V30 8798 H 835.733 4.63032 -2.46377 0
M  V30 8799 H 837.207 5.43666 -0.955604 0
M  V30 8800 H 837.684 4.37651 0.368524 0
M  V30 8801 H 838.29 4.05799 -1.27306 0
M  V30 8802 N 836.605 0.766683 1.37694 0
M  V30 8803 C 837.83 0.338715 2.04615 0
M  V30 8804 C 838.255 -1.02918 1.57447 0
M  V30 8805 O 837.613 -1.65849 0.732386 0
M  V30 8806 C 837.661 0.385284 3.58536 0
M  V30 8807 O 836.765 -0.616081 4.07772 0
M  V30 8808 H 836.106 0.147527 0.647404 0
M  V30 8809 H 838.636 1.04146 1.7611 0
M  V30 8810 H 838.646 0.240782 4.07289 0
M  V30 8811 H 837.321 1.38325 3.92223 0
M  V30 8812 H 835.898 -0.435115 3.70353 0
M  V30 8813 N 838.083 -1.48885 0.516809 0
M  V30 8814 C 839.308 -2.0739 -0.0205201 0
M  V30 8815 C 839.733 -1.37259 -1.28614 0
M  V30 8816 O 839.091 -0.434304 -1.76021 0
M  V30 8817 C 839.139 -3.59793 -0.24104 0
M  V30 8818 O 838.243 -3.90957 -1.31251 0
M  V30 8819 H 837.584 -0.663167 0.0332564 0
M  V30 8820 H 840.114 -1.91477 0.720956 0
M  V30 8821 H 840.124 -4.0531 -0.467737 0
M  V30 8822 H 838.799 -4.10244 0.68356 0
M  V30 8823 H 837.376 -3.57234 -1.06951 0
M  V30 8824 N 839.561 -0.251338 -1.55583 0
M  V30 8825 C 840.494 0.687092 -2.1761 0
M  V30 8826 C 841.472 1.16963 -1.12953 0
M  V30 8827 O 842.656 1.24696 -1.41362 0
M  V30 8828 C 839.783 1.93429 -2.78034 0
M  V30 8829 C 838.829 1.58925 -3.95784 0
M  V30 8830 S 839.662 0.688019 -5.31062 0
M  V30 8831 C 840.818 1.94413 -5.94941 0
M  V30 8832 H 841.051 0.159982 -2.96869 0
M  V30 8833 H 838.584 -0.0357593 -1.54359 0
M  V30 8834 H 840.542 2.65028 -3.13481 0
M  V30 8835 H 839.203 2.43253 -1.98713 0
M  V30 8836 H 838.396 2.51668 -4.36668 0
M  V30 8837 H 837.998 0.953664 -3.61637 0
M  V30 8838 H 840.29 2.89087 -6.12727 0
M  V30 8839 H 841.233 1.5787 -6.90277 0
M  V30 8840 H 841.641 2.09824 -5.24056 0
M  V30 8841 N 841.039 1.57585 0.0217189 0
M  V30 8842 C 842.002 2.06004 1.00474 0
M  V30 8843 C 843.002 0.965461 1.2859 0
M  V30 8844 O 844.192 1.22884 1.23471 0
M  V30 8845 C 841.324 2.48319 2.33561 0
M  V30 8846 H 842.517 2.94112 0.586346 0
M  V30 8847 H 840.07 1.53973 0.268716 0
M  V30 8848 H 840.805 1.63389 2.80133 0
M  V30 8849 H 840.59 3.28239 2.1448 0
M  V30 8850 H 842.08 2.86181 3.04122 0
M  V30 8851 N 842.517 -0.29412 1.54831 0
M  V30 8852 C 843.45 -1.38779 1.81151 0
M  V30 8853 C 844.428 -1.48464 0.663124 0
M  V30 8854 O 845.612 -1.65418 0.903835 0
M  V30 8855 C 842.739 -2.76627 1.95436 0
M  V30 8856 C 841.785 -2.84333 3.17895 0
M  V30 8857 S 842.618 -2.45726 4.75793 0
M  V30 8858 C 843.774 -3.85589 4.93023 0
M  V30 8859 H 844.007 -1.16246 2.73631 0
M  V30 8860 H 841.54 -0.492611 1.46331 0
M  V30 8861 H 843.498 -3.56021 2.04351 0
M  V30 8862 H 842.159 -2.96425 1.03881 0
M  V30 8863 H 841.352 -3.85457 3.24713 0
M  V30 8864 H 840.954 -2.1294 3.07461 0
M  V30 8865 H 843.246 -4.80656 4.77468 0
M  V30 8866 H 844.189 -3.83737 5.95107 0
M  V30 8867 H 844.597 -3.75911 4.21131 0
M  V30 8868 N 843.995 -1.47404 -0.557645 0
M  V30 8869 C 845.241 -1.54235 -1.31679 0
M  V30 8870 C 845.574 -0.203782 -1.93128 0
M  V30 8871 O 844.849 0.787536 -1.77843 0
M  V30 8872 C 845.132 -2.66003 -2.42723 0
M  V30 8873 C 844.985 -4.09475 -1.86145 0
M  V30 8874 C 846.304 -2.73685 -3.44652 0
M  V30 8875 H 843.423 -0.561466 -0.477415 0
M  V30 8876 H 846.065 -1.79459 -0.624067 0
M  V30 8877 H 844.215 -2.44627 -3.01811 0
M  V30 8878 H 845.887 -4.42213 -1.31321 0
M  V30 8879 H 844.13 -4.17774 -1.16823 0
M  V30 8880 H 844.801 -4.83451 -2.66418 0
M  V30 8881 H 847.277 -2.92968 -2.95481 0
M  V30 8882 H 846.153 -3.53665 -4.19777 0
M  V30 8883 H 846.414 -1.80726 -4.03473 0
M  V30 8884 N 845.473 0.80434 -1.35529 0
M  V30 8885 C 846.884 1.37849 -1.25915 0
M  V30 8886 C 847.235 1.95905 0.107495 0
M  V30 8887 O 846.36 1.91462 1.00852 0
M  V30 8888 C 846.955 2.50608 -2.27994 0
M  V30 8889 C 845.514 3.03879 -2.22114 0
M  V30 8890 C 844.661 1.76856 -2.13582 0
M  V30 8891 H 847.612 0.607192 -1.46625 0
M  V30 8892 H 847.633 3.29221 -1.90772 0
M  V30 8893 H 847.145 2.08323 -3.27449 0
M  V30 8894 H 845.246 3.50622 -1.26077 0
M  V30 8895 H 845.359 3.61707 -3.14173 0
M  V30 8896 H 843.723 1.98498 -1.59595 0
M  V30 8897 H 844.506 1.36721 -3.14901 0
M  V30 8898 N 846.951 1.19563 1.02676 0
M  V30 8899 C 848.2 0.993864 1.75514 0
M  V30 8900 C 848.513 -0.475882 1.89723 0
M  V30 8901 O 849.719 -0.796525 2.59553 0
M  V30 8902 C 848.175 1.72937 3.15628 0
M  V30 8903 C 847.783 3.23937 3.09466 0
M  V30 8904 C 849.527 1.61092 3.92746 0
M  V30 8905 C 847.434 3.90067 4.44524 0
M  V30 8906 H 846.364 0.368244 0.657961 0
M  V30 8907 H 849.015 1.43081 1.14891 0
M  V30 8908 H 847.397 1.22025 3.76731 0
M  V30 8909 H 848.571 3.81983 2.57731 0
M  V30 8910 H 846.886 3.3608 2.45843 0
M  V30 8911 H 849.483 2.07848 4.92649 0
M  V30 8912 H 849.826 0.565415 4.12442 0
M  V30 8913 H 850.359 2.09361 3.3825 0
M  V30 8914 H 847.098 4.94725 4.30032 0
M  V30 8915 H 846.618 3.36809 4.96306 0
M  V30 8916 H 848.297 3.93736 5.13401 0
M  V30 8917 N 848.429 -1.21819 0.999893 0
M  V30 8918 C 849.659 -1.94475 0.697346 0
M  V30 8919 C 850.067 -1.73991 -0.743228 0
M  V30 8920 O 849.41 -1.04042 -1.51397 0
M  V30 8921 C 849.472 -3.47204 0.932181 0
M  V30 8922 C 849.136 -3.91432 2.3586 0
M  V30 8923 C 850.133 -3.98545 3.33853 0
M  V30 8924 C 847.818 -4.23888 2.69489 0
M  V30 8925 C 849.812 -4.37499 4.63545 0
M  V30 8926 C 847.499 -4.62519 3.99399 0
M  V30 8927 C 848.497 -4.69294 4.96238 0
M  V30 8928 O 848.185 -5.07048 6.23825 0
M  V30 8929 H 847.917 -0.625419 0.256567 0
M  V30 8930 H 850.471 -1.55728 1.33933 0
M  V30 8931 H 848.701 -3.85997 0.233025 0
M  V30 8932 H 850.39 -4.01078 0.623807 0
M  V30 8933 H 851.156 -3.73654 3.09205 0
M  V30 8934 H 847.035 -4.17815 1.94812 0
M  V30 8935 H 850.579 -4.42702 5.3913 0
M  V30 8936 H 846.476 -4.86864 4.23833 0
M  V30 8937 H 847.244 -5.25098 6.27865 0
M  V30 8938 N 849.908 -0.773975 -1.37286 0
M  V30 8939 C 850.871 -0.167974 -2.28584 0
M  V30 8940 C 851.871 0.625662 -1.48129 0
M  V30 8941 O 853.061 0.448924 -1.68316 0
M  V30 8942 C 850.193 0.769364 -3.32105 0
M  V30 8943 H 851.386 -0.972806 -2.83684 0
M  V30 8944 H 848.939 -0.542335 -1.46589 0
M  V30 8945 H 849.674 1.59912 -2.82132 0
M  V30 8946 H 849.459 0.202419 -3.91577 0
M  V30 8947 H 850.949 1.18872 -4.00324 0
M  V30 8948 N 851.386 1.48609 -0.524698 0
M  V30 8949 C 852.349 2.28041 0.230166 0
M  V30 8950 C 853.349 1.35065 0.872584 0
M  V30 8951 O 854.539 1.58007 0.73345 0
M  V30 8952 C 851.671 3.13778 1.33252 0
M  V30 8953 H 852.864 2.96239 -0.467161 0
M  V30 8954 H 850.417 1.53763 -0.280452 0
M  V30 8955 H 851.152 2.502 2.06327 0
M  V30 8956 H 850.937 3.82165 0.877058 0
M  V30 8957 H 852.427 3.7371 1.86362 0
M  V30 8958 N 852.864 0.259585 1.55447 0
M  V30 8959 C 854.094 -0.364863 2.03353 0
M  V30 8960 C 854.502 -1.5116 1.13786 0
M  V30 8961 O 853.845 -1.83109 0.147283 0
M  V30 8962 C 853.907 -0.922587 3.4746 0
M  V30 8963 C 853.571 0.0935207 4.56904 0
M  V30 8964 C 854.568 0.907571 5.11917 0
M  V30 8965 C 852.253 0.223276 5.01804 0
M  V30 8966 C 854.247 1.83771 6.10333 0
M  V30 8967 C 851.934 1.15691 6.00049 0
M  V30 8968 C 852.932 1.96264 6.54194 0
M  V30 8969 O 852.62 2.88052 7.50521 0
M  V30 8970 H 852.352 -0.0893313 0.670072 0
M  V30 8971 H 854.906 0.384821 2.01763 0
M  V30 8972 H 853.136 -1.72206 3.4624 0
M  V30 8973 H 854.825 -1.45846 3.78792 0
M  V30 8974 H 855.591 0.817979 4.78052 0
M  V30 8975 H 851.47 -0.393834 4.59315 0
M  V30 8976 H 855.014 2.46703 6.52521 0
M  V30 8977 H 850.911 1.24738 6.33333 0
M  V30 8978 H 851.679 2.82557 7.68182 0
M  V30 8979 N 854.342 -1.57594 -0.0133615 0
M  V30 8980 C 855.289 -2.07574 -1.00905 0
M  V30 8981 C 856.259 -0.968231 -1.34961 0
M  V30 8982 O 857.444 -1.23981 -1.45028 0
M  V30 8983 C 854.584 -2.5728 -2.30002 0
M  V30 8984 C 853.697 -3.81881 -2.01967 0
M  V30 8985 C 852.832 -4.20139 -3.25049 0
M  V30 8986 C 851.871 -5.37614 -2.92639 0
M  V30 8987 N 851.008 -5.71229 -4.08218 0
M  V30 8988 H 855.848 -2.92382 -0.575899 0
M  V30 8989 H 853.385 -1.4455 -0.272722 0
M  V30 8990 H 855.343 -2.84171 -3.05454 0
M  V30 8991 H 853.973 -1.75365 -2.71011 0
M  V30 8992 H 853.025 -3.61979 -1.16942 0
M  V30 8993 H 854.337 -4.67441 -1.74069 0
M  V30 8994 H 853.491 -4.48242 -4.08857 0
M  V30 8995 H 852.23 -3.33262 -3.56073 0
M  V30 8996 H 851.235 -5.09248 -2.07235 0
M  V30 8997 H 852.46 -6.26157 -2.62876 0
M  V30 8998 H 850.406 -4.8731 -4.39164 0
M  V30 8999 H 850.323 -6.51333 -3.83799 0
M  V30 9000 H 851.591 -6.03917 -4.92854 0
M  V30 9001 N 855.82 0.285905 -1.54985 0
M  V30 9002 C 857.067 1.0192 -1.74982 0
M  V30 9003 C 857.395 1.86743 -0.543816 0
M  V30 9004 O 856.65 1.89874 0.473972 0
M  V30 9005 C 856.949 1.94193 -3.0004 0
M  V30 9006 C 856.615 1.25225 -4.33162 0
M  V30 9007 C 855.277 1.06149 -4.69346 0
M  V30 9008 C 857.629 0.760427 -5.15623 0
M  V30 9009 C 854.957 0.365991 -5.85557 0
M  V30 9010 C 857.309 0.0785787 -6.32551 0
M  V30 9011 C 855.973 -0.124002 -6.67385 0
M  V30 9012 H 855.243 0.372951 -0.640304 0
M  V30 9013 H 857.89 0.292652 -1.89251 0
M  V30 9014 H 856.195 2.73426 -2.80616 0
M  V30 9015 H 857.892 2.51029 -3.12707 0
M  V30 9016 H 854.482 1.41081 -4.04715 0
M  V30 9017 H 858.666 0.895466 -4.88155 0
M  V30 9018 H 853.922 0.198193 -6.11079 0
M  V30 9019 H 858.096 -0.310339 -6.95708 0
M  V30 9020 H 855.723 -0.664918 -7.57287 0
M  V30 9021 N 857.298 1.47698 0.54982 0
M  V30 9022 C 858.538 1.56286 1.31735 0
M  V30 9023 C 858.902 0.223042 1.907 0
M  V30 9024 O 860.103 0.183798 2.68171 0
M  V30 9025 C 858.374 2.65522 2.39234 0
M  V30 9026 S 859.933 2.93742 3.25977 0
M  V30 9027 H 856.751 0.551795 0.448378 0
M  V30 9028 H 859.353 1.85118 0.628629 0
M  V30 9029 H 858.057 3.61457 1.94362 0
M  V30 9030 H 857.588 2.38528 3.12838 0
M  V30 9031 H 859.603 2.31522 4.38876 0
M  V30 9032 N 858.776 -0.797141 1.35954 0
M  V30 9033 C 860.001 -1.59097 1.33053 0
M  V30 9034 C 860.426 -1.87897 -0.0874592 0
M  V30 9035 O 859.784 -1.47291 -1.05712 0
M  V30 9036 C 859.832 -2.89346 2.152 0
M  V30 9037 O 858.936 -3.826 1.5392 0
M  V30 9038 H 858.277 -0.482895 0.45575 0
M  V30 9039 H 860.807 -0.988633 1.79129 0
M  V30 9040 H 860.817 -3.38686 2.27499 0
M  V30 9041 H 859.492 -2.6771 3.18283 0
M  V30 9042 H 858.069 -3.41174 1.50516 0
M  V30 9043 N 860.254 -1.20106 -1.0204 0
M  V30 9044 C 861.184 -0.970301 -2.12385 0
M  V30 9045 C 862.165 0.099378 -1.69809 0
M  V30 9046 O 863.35 -0.057365 -1.94115 0
M  V30 9047 C 860.48 -0.517431 -3.43424 0
M  V30 9048 C 859.434 -1.52992 -3.99722 0
M  V30 9049 C 858.76 -0.933817 -5.26483 0
M  V30 9050 C 860.06 -2.91257 -4.33551 0
M  V30 9051 H 861.754 -1.89316 -2.31948 0
M  V30 9052 H 859.3 -0.911655 -1.11467 0
M  V30 9053 H 861.253 -0.343243 -4.2 0
M  V30 9054 H 859.977 0.441049 -3.23608 0
M  V30 9055 H 858.636 -1.6914 -3.2525 0
M  V30 9056 H 858.284 0.0324763 -5.0299 0
M  V30 9057 H 857.984 -1.60999 -5.65113 0
M  V30 9058 H 859.508 -0.770614 -6.05718 0
M  V30 9059 H 860.922 -2.78642 -5.0103 0
M  V30 9060 H 859.319 -3.55745 -4.83286 0
M  V30 9061 H 860.389 -3.43269 -3.42483 0
M  V30 9062 N 861.732 1.21287 -1.00634 0
M  V30 9063 C 863.143 1.72136 -0.722914 0
M  V30 9064 C 863.494 1.8091 0.759338 0
M  V30 9065 O 862.619 1.46458 1.59308 0
M  V30 9066 C 863.214 3.12633 -1.30561 0
M  V30 9067 C 861.773 3.60833 -1.07127 0
M  V30 9068 C 860.92 2.38326 -1.4176 0
M  V30 9069 H 863.871 1.06445 -1.17708 0
M  V30 9070 H 863.892 3.74174 -0.690937 0
M  V30 9071 H 863.404 3.06215 -2.38441 0
M  V30 9072 H 861.505 3.72599 -0.00968671 0
M  V30 9073 H 861.618 4.46226 -1.74411 0
M  V30 9074 H 859.982 2.40575 -0.836412 0
M  V30 9075 H 860.765 2.34558 -2.50674 0
M  V30 9076 N 863.21 0.781244 1.36873 0
M  V30 9077 C 864.458 0.349198 1.9906 0
M  V30 9078 C 864.779 -1.0806 1.62321 0
M  V30 9079 O 864.049 -1.74351 0.893229 0
M  V30 9080 H 862.629 0.126126 0.736275 0
M  V30 9081 H 865.291 1.00148 1.67202 0
M  V30 9082 H 864.387 0.434451 3.09061 0
M  V30 9083 N 864.689 -1.48329 0.532571 0
M  V30 9084 C 865.914 -2.074 0.00147755 0
M  V30 9085 C 866.339 -1.38615 -1.27151 0
M  V30 9086 O 865.697 -0.452949 -1.75551 0
M  V30 9087 C 865.745 -3.60029 -0.202866 0
M  V30 9088 O 864.849 -3.92327 -1.27097 0
M  V30 9089 H 864.19 -0.662777 0.0402883 0
M  V30 9090 H 866.72 -1.90701 0.741224 0
M  V30 9091 H 866.73 -4.05783 -0.424722 0
M  V30 9092 H 865.405 -4.09496 0.727033 0
M  V30 9093 H 863.982 -3.58348 -1.03156 0
M  V30 9094 N 866.167 -0.267825 -1.55308 0
M  V30 9095 C 867.414 0.351036 -1.99434 0
M  V30 9096 C 867.742 1.56406 -1.15618 0
M  V30 9097 O 866.997 1.94548 -0.212045 0
M  V30 9098 C 867.296 0.784247 -3.48689 0
M  V30 9099 C 866.962 -0.323328 -4.49739 0
M  V30 9100 C 865.624 -0.627467 -4.77091 0
M  V30 9101 C 867.976 -1.07002 -5.10098 0
M  V30 9102 C 865.304 -1.682 -5.62073 0
M  V30 9103 C 867.656 -2.11422 -5.96224 0
M  V30 9104 C 866.32 -2.42479 -6.21901 0
M  V30 9105 H 865.59 0.128453 -0.729781 0
M  V30 9106 H 868.237 -0.380018 -1.87692 0
M  V30 9107 H 866.542 1.59485 -3.57871 0
M  V30 9108 H 868.239 1.2737 -3.80234 0
M  V30 9109 H 864.829 -0.0761528 -4.28532 0
M  V30 9110 H 869.013 -0.848302 -4.88996 0
M  V30 9111 H 864.269 -1.92772 -5.80215 0
M  V30 9112 H 868.443 -2.69759 -6.4203 0
M  V30 9113 H 866.07 -3.24328 -6.87543 0
M  V30 9114 N 867.645 1.57599 0.00500368 0
M  V30 9115 C 869.061 1.55463 0.361015 0
M  V30 9116 C 869.261 0.997051 1.75103 0
M  V30 9117 O 868.317 0.628661 2.44549 0
M  V30 9118 C 869.63 2.99734 0.240828 0
M  V30 9119 C 871.178 3.11399 0.316138 0
M  V30 9120 C 871.653 4.57446 0.22513 0
M  V30 9121 N 873.144 4.62334 0.283186 0
M  V30 9122 C 873.879 5.72914 0.23603 0
M  V30 9123 N 873.375 6.92659 0.139762 0
M  V30 9124 N 875.168 5.61364 0.287529 0
M  V30 9125 H 867.319 1.92185 -0.904359 0
M  V30 9126 H 869.582 0.882529 -0.34619 0
M  V30 9127 H 869.288 3.44348 -0.715343 0
M  V30 9128 H 869.162 3.63009 1.02491 0
M  V30 9129 H 871.549 2.66718 1.26275 0
M  V30 9130 H 871.63 2.50911 -0.497725 0
M  V30 9131 H 871.274 5.02801 -0.717917 0
M  V30 9132 H 871.204 5.15874 1.05742 0
M  V30 9133 H 873.695 3.7619 0.359123 0
M  V30 9134 H 874.008 7.72722 0.10954 0
M  V30 9135 H 872.353 6.9492 0.105462 0
M  V30 9136 H 875.544 4.66707 0.360897 0
M  V30 9137 H 875.717 6.47528 0.247313 0
M  V30 9138 N 869.123 -0.277682 1.55134 0
M  V30 9139 C 870.033 -1.36524 1.90783 0
M  V30 9140 C 871.049 -1.54283 0.804542 0
M  V30 9141 O 872.225 -1.68499 1.10318 0
M  V30 9142 C 869.29 -2.70524 2.16835 0
M  V30 9143 C 868.351 -2.61552 3.40424 0
M  V30 9144 C 867.584 -3.89162 3.65224 0
M  V30 9145 O 867.807 -4.89624 2.92616 0
M  V30 9146 O 866.741 -3.89647 4.58758 0
M  V30 9147 H 870.567 -1.0929 2.83354 0
M  V30 9148 H 868.152 -0.475799 1.41621 0
M  V30 9149 H 870.034 -3.49765 2.35038 0
M  V30 9150 H 868.709 -2.97555 1.27448 0
M  V30 9151 H 867.616 -1.80704 3.27562 0
M  V30 9152 H 868.949 -2.39472 4.30016 0
M  V30 9153 N 870.601 -1.47988 -0.541979 0
M  V30 9154 C 871.548 -1.61615 -1.6477 0
M  V30 9155 C 872.518 -0.458602 -1.59644 0
M  V30 9156 O 873.703 -0.680585 -1.78249 0
M  V30 9157 C 870.843 -1.65066 -3.03063 0
M  V30 9158 C 869.956 -2.91845 -3.18513 0
M  V30 9159 C 869.091 -2.86534 -4.47294 0
M  V30 9160 C 868.13 -4.0807 -4.5623 0
M  V30 9161 N 867.267 -4.00905 -5.76385 0
M  V30 9162 H 872.107 -2.56046 -1.52461 0
M  V30 9163 H 869.644 -1.26989 -0.742449 0
M  V30 9164 H 871.602 -1.65049 -3.83164 0
M  V30 9165 H 870.232 -0.74136 -3.14171 0
M  V30 9166 H 869.284 -3.01661 -2.31743 0
M  V30 9167 H 870.596 -3.81804 -3.20978 0
M  V30 9168 H 869.75 -2.84851 -5.35672 0
M  V30 9169 H 868.489 -1.94283 -4.47332 0
M  V30 9170 H 867.494 -4.10041 -3.66261 0
M  V30 9171 H 868.719 -5.01465 -4.5794 0
M  V30 9172 H 866.665 -3.11467 -5.77342 0
M  V30 9173 H 866.582 -4.84557 -5.80293 0
M  V30 9174 H 867.85 -4.03263 -6.67083 0
M  V30 9175 N 872.079 0.78992 -1.36375 0
M  V30 9176 C 873.009 1.91683 -1.33341 0
M  V30 9177 C 873.99 1.68861 -0.204965 0
M  V30 9178 O 875.175 1.89982 -0.402531 0
M  V30 9179 C 872.305 3.28696 -1.12143 0
M  V30 9180 C 871.259 3.66041 -2.21806 0
M  V30 9181 C 870.585 5.01399 -1.85751 0
M  V30 9182 C 871.885 3.74677 -3.63888 0
M  V30 9183 H 873.579 1.94478 -2.27637 0
M  V30 9184 H 871.125 0.934271 -1.09578 0
M  V30 9185 H 873.078 4.07151 -1.08656 0
M  V30 9186 H 871.802 3.26287 -0.142974 0
M  V30 9187 H 870.461 2.89883 -2.24418 0
M  V30 9188 H 870.109 4.9551 -0.864817 0
M  V30 9189 H 869.809 5.27355 -2.59173 0
M  V30 9190 H 871.333 5.82274 -1.83819 0
M  V30 9191 H 872.747 4.43324 -3.63506 0
M  V30 9192 H 871.144 4.12118 -4.3621 0
M  V30 9193 H 872.214 2.75795 -3.9883 0
M  V30 9194 N 873.557 1.20646 1.01402 0
M  V30 9195 C 874.52 0.959314 2.08158 0
M  V30 9196 C 875.52 -0.0661558 1.60664 0
M  V30 9197 O 876.71 0.170177 1.73367 0
M  V30 9198 C 873.842 0.444785 3.37986 0
M  V30 9199 H 875.035 1.90631 2.31517 0
M  V30 9200 H 872.588 1.02219 1.18241 0
M  V30 9201 H 873.323 -0.507553 3.20304 0
M  V30 9202 H 873.108 1.18435 3.73785 0
M  V30 9203 H 874.598 0.291443 4.16582 0
M  V30 9204 N 875.035 -1.20752 1.01276 0
M  V30 9205 C 876.265 -1.93725 0.717934 0
M  V30 9206 C 876.673 -1.74769 -0.724732 0
M  V30 9207 O 876.016 -1.05642 -1.50285 0
M  V30 9208 C 876.078 -3.46196 0.968954 0
M  V30 9209 C 875.742 -3.88909 2.39998 0
M  V30 9210 C 876.739 -3.94982 3.38061 0
M  V30 9211 C 874.424 -4.21006 2.7397 0
M  V30 9212 C 876.418 -4.32558 4.68159 0
M  V30 9213 C 874.105 -4.58257 4.04282 0
M  V30 9214 C 875.103 -4.64004 5.01187 0
M  V30 9215 O 874.791 -5.00403 6.29168 0
M  V30 9216 H 874.523 -0.622663 0.263186 0
M  V30 9217 H 877.077 -1.54299 1.35577 0
M  V30 9218 H 875.307 -3.85728 0.273952 0
M  V30 9219 H 876.996 -4.00394 0.666312 0
M  V30 9220 H 877.762 -3.70353 3.13151 0
M  V30 9221 H 873.641 -4.15725 1.99233 0
M  V30 9222 H 877.185 -4.36959 5.43795 0
M  V30 9223 H 873.082 -4.82341 4.28973 0
M  V30 9224 H 873.85 -5.18409 6.33399 0
M  V30 9225 N 876.513 -0.788492 -1.36457 0
M  V30 9226 C 877.476 -0.192209 -2.28393 0
M  V30 9227 C 878.476 0.609916 -1.48784 0
M  V30 9228 O 879.666 0.431046 -1.68783 0
M  V30 9229 C 876.798 0.734096 -3.32902 0
M  V30 9230 H 877.991 -1.00284 -2.82636 0
M  V30 9231 H 875.544 -0.557852 -1.46006 0
M  V30 9232 H 876.279 1.5691 -2.83813 0
M  V30 9233 H 876.064 0.160875 -3.9177 0
M  V30 9234 H 877.554 1.1462 -4.01562 0
M  V30 9235 N 877.991 1.48044 -0.54043 0
M  V30 9236 C 879.24 2.01698 -0.00809961 0
M  V30 9237 C 879.553 1.42184 1.34325 0
M  V30 9238 O 880.759 1.87398 1.96454 0
M  V30 9239 C 879.215 3.59882 0.035933 0
M  V30 9240 C 878.823 4.28384 -1.31115 0
M  V30 9241 C 880.567 4.21346 0.51654 0
M  V30 9242 C 878.474 5.78529 -1.22714 0
M  V30 9243 H 877.404 0.754 0.000742174 0
M  V30 9244 H 880.055 1.70204 -0.685775 0
M  V30 9245 H 878.437 3.88264 0.778906 0
M  V30 9246 H 879.611 4.11663 -2.07051 0
M  V30 9247 H 877.926 3.78837 -1.72834 0
M  V30 9248 H 880.523 5.31351 0.597529 0
M  V30 9249 H 880.866 3.87373 1.52473 0
M  V30 9250 H 881.399 3.97432 -0.171064 0
M  V30 9251 H 878.138 6.17093 -2.21081 0
M  V30 9252 H 877.658 5.97634 -0.50931 0
M  V30 9253 H 879.337 6.40395 -0.92216 0
M  V30 9254 N 879.47 0.276058 1.55163 0
M  V30 9255 C 880.433 -0.597924 2.21263 0
M  V30 9256 C 881.433 -1.0806 1.19078 0
M  V30 9257 O 882.623 -0.980626 1.43977 0
M  V30 9258 C 879.755 -1.82503 2.87933 0
M  V30 9259 H 880.948 -0.0207769 2.99893 0
M  V30 9260 H 878.501 0.0266823 1.56277 0
M  V30 9261 H 879.236 -2.44266 2.13318 0
M  V30 9262 H 879.021 -1.48683 3.62816 0
M  V30 9263 H 880.511 -2.44651 3.38431 0
M  V30 9264 N 880.948 -1.576 0.00335426 0
M  V30 9265 C 882.359 -1.7875 -0.539008 0
M  V30 9266 C 882.71 -0.911097 -1.73763 0
M  V30 9267 O 881.835 -0.114476 -2.16097 0
M  V30 9268 C 882.43 -3.24177 -0.984611 0
M  V30 9269 C 880.989 -3.46412 -1.47226 0
M  V30 9270 C 880.136 -2.74024 -0.425004 0
M  V30 9271 H 883.087 -1.57032 0.229511 0
M  V30 9272 H 883.108 -3.32474 -1.85044 0
M  V30 9273 H 882.62 -3.87938 -0.112035 0
M  V30 9274 H 880.721 -2.8787 -2.36562 0
M  V30 9275 H 880.834 -4.55098 -1.49741 0
M  V30 9276 H 879.198 -2.38741 -0.887394 0
M  V30 9277 H 879.981 -3.40486 0.438662 0
M  V30 9278 N 882.426 0.269451 -1.5528 0
M  V30 9279 C 883.336 1.35511 -1.91505 0
M  V30 9280 C 884.352 1.53854 -0.812712 0
M  V30 9281 O 885.528 1.67912 -1.1121 0
M  V30 9282 C 882.593 2.6937 -2.18267 0
M  V30 9283 C 881.654 2.59743 -3.41807 0
M  V30 9284 C 880.887 3.87219 -3.67283 0
M  V30 9285 O 881.11 4.88066 -2.95208 0
M  V30 9286 O 880.044 3.87209 -4.60818 0
M  V30 9287 H 883.87 1.07785 -2.8393 0
M  V30 9288 H 881.455 0.468282 -1.41871 0
M  V30 9289 H 883.337 3.48513 -2.36889 0
M  V30 9290 H 882.012 2.96874 -1.29024 0
M  V30 9291 H 880.919 1.78964 -3.28516 0
M  V30 9292 H 882.252 2.37188 -4.3128 0
M  V30 9293 N 883.904 1.48273 0.534124 0
M  V30 9294 C 884.851 1.62487 1.6391 0
M  V30 9295 C 885.821 0.467062 1.59398 0
M  V30 9296 O 887.006 0.690029 1.77885 0
M  V30 9297 C 884.146 1.66671 3.02183 0
M  V30 9298 C 883.259 2.9353 3.16961 0
M  V30 9299 C 882.394 2.88902 4.45768 0
M  V30 9300 C 881.433 4.10483 4.54059 0
M  V30 9301 N 880.57 4.03956 5.74251 0
M  V30 9302 H 885.41 2.56851 1.51101 0
M  V30 9303 H 882.947 1.27381 0.735704 0
M  V30 9304 H 884.905 1.67079 3.82283 0
M  V30 9305 H 883.535 0.758011 3.13774 0
M  V30 9306 H 882.587 3.02886 2.3014 0
M  V30 9307 H 883.899 3.83501 3.18949 0
M  V30 9308 H 883.053 2.87688 5.34154 0
M  V30 9309 H 881.792 1.96652 4.46295 0
M  V30 9310 H 880.797 4.11977 3.64081 0
M  V30 9311 H 882.022 5.03887 4.55274 0
M  V30 9312 H 879.968 3.14525 5.75682 0
M  V30 9313 H 879.885 4.87628 5.77715 0
M  V30 9314 H 881.153 4.06795 6.64935 0
M  V30 9315 N 885.382 -0.782676 1.36792 0
M  V30 9316 C 886.659 -1.52939 1.21939 0
M  V30 9317 C 887.039 -2.10228 -0.191639 0
M  V30 9318 O 886.387 -1.94574 -1.19805 0
M  V30 9319 C 886.597 -2.61898 2.30674 0
M  V30 9320 C 887.945 -3.29598 2.67676 0
M  V30 9321 O 888.969 -2.72186 2.29768 0
M  V30 9322 O 887.828 -4.3337 3.32946 0
M  V30 9323 H 884.922 -0.676856 0.47518 0
M  V30 9324 H 887.468 -0.82058 1.48542 0
M  V30 9325 H 886.24 -2.17607 3.25212 0
M  V30 9326 H 885.863 -3.40391 2.05475 0
M  V30 9327 N 886.86 -1.21182 -1.00761 0
M  V30 9328 C 888.276 -0.968607 -1.26847 0
M  V30 9329 C 888.476 0.346561 -1.98497 0
M  V30 9330 O 887.532 1.07287 -2.28573 0
M  V30 9331 C 888.845 -2.1574 -2.09467 0
M  V30 9332 C 890.393 -2.19937 -2.22703 0
M  V30 9333 C 890.868 -3.38328 -3.08704 0
M  V30 9334 N 892.359 -3.38398 -3.16293 0
M  V30 9335 C 893.094 -4.26653 -3.83086 0
M  V30 9336 N 892.59 -5.25101 -4.5193 0
M  V30 9337 N 894.383 -4.14469 -3.797 0
M  V30 9338 H 886.534 -2.05763 -0.526816 0
M  V30 9339 H 888.797 -0.90087 -0.29519 0
M  V30 9340 H 888.503 -3.11034 -1.64167 0
M  V30 9341 H 888.377 -2.14584 -3.10216 0
M  V30 9342 H 890.764 -1.25201 -2.67224 0
M  V30 9343 H 890.845 -2.25139 -1.21433 0
M  V30 9344 H 890.489 -4.33356 -2.64886 0
M  V30 9345 H 890.419 -3.30364 -4.10082 0
M  V30 9346 H 892.91 -2.67149 -2.67282 0
M  V30 9347 H 893.223 -5.8875 -5.00592 0
M  V30 9348 H 891.568 -5.29029 -4.50726 0
M  V30 9349 H 894.759 -3.3682 -3.25069 0
M  V30 9350 H 894.932 -4.83458 -4.31477 0
M  V30 9351 N 888.338 1.20213 -1.01915 0
M  V30 9352 C 889.248 2.26763 -0.601311 0
M  V30 9353 C 890.264 1.70185 0.362369 0
M  V30 9354 O 891.44 2.00165 0.222682 0
M  V30 9355 C 888.505 3.46662 0.0512879 0
M  V30 9356 C 887.566 4.18459 -0.958659 0
M  V30 9357 C 886.799 5.32634 -0.337107 0
M  V30 9358 O 887.022 5.63841 0.86251 0
M  V30 9359 O 885.956 5.9258 -1.05511 0
M  V30 9360 H 889.782 2.64725 -1.48844 0
M  V30 9361 H 887.367 1.2688 -0.788784 0
M  V30 9362 H 889.249 4.19345 0.41564 0
M  V30 9363 H 887.924 3.1057 0.912572 0
M  V30 9364 H 886.831 3.47937 -1.37442 0
M  V30 9365 H 888.164 4.58498 -1.78999 0
M  V30 9366 N 889.816 0.795718 1.36037 0
M  V30 9367 C 890.746 0.212803 2.32528 0
M  V30 9368 C 891.727 -0.655716 1.56953 0
M  V30 9369 O 892.912 -0.588238 1.85077 0
M  V30 9370 C 890.042 -0.648189 3.41198 0
M  V30 9371 C 888.996 0.120948 4.27829 0
M  V30 9372 C 888.322 -0.861044 5.27722 0
M  V30 9373 C 889.622 1.31375 5.05508 0
M  V30 9374 H 891.316 1.01893 2.81528 0
M  V30 9375 H 888.862 0.491422 1.35355 0
M  V30 9376 H 890.815 -1.06597 4.07695 0
M  V30 9377 H 889.539 -1.48709 2.9078 0
M  V30 9378 H 888.198 0.519777 3.62897 0
M  V30 9379 H 887.846 -1.69515 4.73575 0
M  V30 9380 H 887.546 -0.350808 5.86552 0
M  V30 9381 H 889.07 -1.27726 5.97092 0
M  V30 9382 H 890.484 0.971406 5.6501 0
M  V30 9383 H 888.881 1.75772 5.73781 0
M  V30 9384 H 889.951 2.10593 4.36782 0
M  V30 9385 N 891.294 -1.47756 0.548274 0
M  V30 9386 C 892.54 -2.02789 0.0209265 0
M  V30 9387 C 892.873 -1.42268 -1.32187 0
M  V30 9388 O 892.148 -0.575001 -1.85806 0
M  V30 9389 C 892.431 -3.60007 -0.0816674 0
M  V30 9390 C 892.284 -4.30977 1.28759 0
M  V30 9391 C 893.603 -4.32777 -0.799515 0
M  V30 9392 H 890.722 -0.736944 0.00907884 0
M  V30 9393 H 893.364 -1.76282 0.708839 0
M  V30 9394 H 891.514 -3.82722 -0.667537 0
M  V30 9395 H 893.186 -4.19629 1.91597 0
M  V30 9396 H 891.429 -3.9168 1.86466 0
M  V30 9397 H 892.1 -5.39488 1.16861 0
M  V30 9398 H 894.576 -4.15001 -0.30216 0
M  V30 9399 H 893.452 -5.42431 -0.840239 0
M  V30 9400 H 893.713 -4.01358 -1.85375 0
M  V30 9401 N 892.772 -0.284283 -1.55015 0
M  V30 9402 C 894.049 0.382125 -1.91831 0
M  V30 9403 C 894.429 1.73007 -1.20962 0
M  V30 9404 O 893.777 2.25962 -0.339594 0
M  V30 9405 C 893.987 0.513341 -3.45204 0
M  V30 9406 C 895.335 0.791989 -4.17148 0
M  V30 9407 O 896.359 0.597799 -3.51148 0
M  V30 9408 O 895.218 1.16394 -5.33961 0
M  V30 9409 H 892.312 0.210707 -0.799707 0
M  V30 9410 H 894.858 -0.331111 -1.66438 0
M  V30 9411 H 893.63 -0.434911 -3.88876 0
M  V30 9412 H 893.253 1.27569 -3.76579 0
M  V30 9413 N 894.251 1.57596 -0.0117121 0
M  V30 9414 C 895.667 1.55837 0.344506 0
M  V30 9415 C 895.867 1.01557 1.74036 0
M  V30 9416 O 894.923 0.654563 2.43868 0
M  V30 9417 C 896.236 2.99973 0.209023 0
M  V30 9418 C 897.784 3.11717 0.283092 0
M  V30 9419 C 898.259 4.57659 0.176599 0
M  V30 9420 N 899.75 4.62608 0.234133 0
M  V30 9421 C 900.485 5.73132 0.175252 0
M  V30 9422 N 899.981 6.92768 0.0662888 0
M  V30 9423 N 901.774 5.61638 0.227972 0
M  V30 9424 H 893.925 1.91215 -0.924692 0
M  V30 9425 H 896.188 0.878807 -0.355531 0
M  V30 9426 H 895.894 3.4357 -0.751826 0
M  V30 9427 H 895.768 3.64075 0.98635 0
M  V30 9428 H 898.155 2.68043 1.23439 0
M  V30 9429 H 898.236 2.50369 -0.52431 0
M  V30 9430 H 897.88 5.02011 -0.771205 0
M  V30 9431 H 897.81 5.16967 1.00264 0
M  V30 9432 H 900.301 3.76549 0.319203 0
M  V30 9433 H 900.614 7.72795 0.0275765 0
M  V30 9434 H 898.959 6.94993 0.0317502 0
M  V30 9435 H 902.15 4.67063 0.311377 0
M  V30 9436 H 902.323 6.47754 0.178621 0
M  V30 9437 N 895.729 -0.261212 1.5542 0
M  V30 9438 C 896.977 -0.989272 1.76232 0
M  V30 9439 C 897.298 -1.86389 0.573067 0
M  V30 9440 O 896.568 -1.91526 -0.41166 0
M  V30 9441 H 895.148 -0.368256 0.64992 0
M  V30 9442 H 897.81 -0.282603 1.9284 0
M  V30 9443 H 896.906 -1.61935 2.66802 0
M  V30 9444 N 897.207 -1.48554 -0.526253 0
M  V30 9445 C 898.117 -1.66044 -1.65731 0
M  V30 9446 C 899.133 -0.542951 -1.65312 0
M  V30 9447 O 900.309 -0.814495 -1.84195 0
M  V30 9448 C 897.374 -1.69959 -3.02184 0
M  V30 9449 C 896.435 -2.93362 -3.13428 0
M  V30 9450 C 895.668 -2.97081 -4.43372 0
M  V30 9451 O 895.891 -2.09103 -5.3069 0
M  V30 9452 O 894.825 -3.8929 -4.59061 0
M  V30 9453 H 898.651 -2.61811 -1.53912 0
M  V30 9454 H 896.236 -1.31999 -0.699759 0
M  V30 9455 H 898.118 -1.75033 -3.83329 0
M  V30 9456 H 896.793 -0.773658 -3.14319 0
M  V30 9457 H 895.7 -2.93818 -2.31564 0
M  V30 9458 H 897.033 -3.85352 -3.06211 0
M  V30 9459 N 898.685 0.775411 -1.37205 0
M  V30 9460 C 899.931 1.53611 -1.32407 0
M  V30 9461 C 900.264 1.9398 0.0924103 0
M  V30 9462 O 899.539 1.63791 1.04893 0
M  V30 9463 C 899.822 2.80367 -2.25979 0
M  V30 9464 C 899.675 2.46275 -3.76389 0
M  V30 9465 C 900.994 3.82277 -2.18064 0
M  V30 9466 H 898.113 0.557278 -0.482297 0
M  V30 9467 H 900.755 0.889826 -1.67875 0
M  V30 9468 H 898.905 3.35515 -1.95862 0
M  V30 9469 H 900.577 1.9707 -4.17087 0
M  V30 9470 H 898.82 1.79023 -3.95137 0
M  V30 9471 H 899.491 3.36868 -4.37291 0
M  V30 9472 H 901.967 3.36613 -2.44604 0
M  V30 9473 H 900.843 4.68696 -2.85684 0
M  V30 9474 H 901.104 4.26272 -1.17239 0
M  V30 9475 N 900.163 1.21714 1.00117 0
M  V30 9476 C 901.579 0.97532 1.26332 0
M  V30 9477 C 901.779 -0.336029 1.98678 0
M  V30 9478 O 900.835 -1.06073 2.29139 0
M  V30 9479 C 902.148 2.16848 2.0832 0
M  V30 9480 C 903.696 2.21115 2.21533 0
M  V30 9481 C 904.171 3.3996 3.06906 0
M  V30 9482 N 905.662 3.40071 3.14494 0
M  V30 9483 C 906.397 4.28678 3.80818 0
M  V30 9484 N 905.893 5.2749 4.49139 0
M  V30 9485 N 907.686 4.16476 3.77497 0
M  V30 9486 H 899.837 2.06039 0.515897 0
M  V30 9487 H 902.1 0.902423 0.290408 0
M  V30 9488 H 901.806 3.119 1.62515 0
M  V30 9489 H 901.68 2.16226 3.09073 0
M  V30 9490 H 904.067 1.26616 2.66557 0
M  V30 9491 H 904.148 2.2578 1.20238 0
M  V30 9492 H 903.792 4.34755 2.62585 0
M  V30 9493 H 903.722 3.32534 4.08324 0
M  V30 9494 H 906.213 2.68563 2.65861 0
M  V30 9495 H 906.526 5.91397 4.97463 0
M  V30 9496 H 904.871 5.31412 4.47914 0
M  V30 9497 H 908.062 3.38539 3.23278 0
M  V30 9498 H 908.235 4.85739 4.28908 0
M  V30 9499 N 901.641 -1.19671 1.02551 0
M  V30 9500 C 902.573 -2.22215 0.561517 0
M  V30 9501 C 903.586 -1.58751 -0.360821 0
M  V30 9502 O 904.775 -1.77802 -0.157749 0
M  V30 9503 C 901.875 -3.383 -0.201494 0
M  V30 9504 C 901.048 -4.3135 0.724952 0
M  V30 9505 C 900.107 -5.26199 0.00794334 0
M  V30 9506 O 899.133 -5.65665 0.633398 0
M  V30 9507 N 900.335 -5.66573 -1.26394 0
M  V30 9508 H 903.1 -2.6265 1.44343 0
M  V30 9509 H 900.661 -1.34303 0.904122 0
M  V30 9510 H 902.653 -3.98764 -0.690625 0
M  V30 9511 H 901.223 -2.96683 -0.98479 0
M  V30 9512 H 900.443 -3.6872 1.39423 0
M  V30 9513 H 901.731 -4.90433 1.35472 0
M  V30 9514 H 901.129 -5.36538 -1.79287 0
M  V30 9515 H 899.686 -6.29304 -1.69763 0
M  V30 9516 N 903.119 -0.802921 -1.35613 0
M  V30 9517 C 904.366 -0.381576 -1.98872 0
M  V30 9518 C 904.694 1.0503 -1.63704 0
M  V30 9519 O 903.949 1.7427 -0.890418 0
M  V30 9520 C 904.248 -0.507806 -3.53774 0
M  V30 9521 C 903.914 -1.90245 -4.088 0
M  V30 9522 C 902.576 -2.28401 -4.2354 0
M  V30 9523 C 904.928 -2.81504 -4.3864 0
M  V30 9524 C 902.256 -3.57192 -4.65436 0
M  V30 9525 C 904.608 -4.09737 -4.81973 0
M  V30 9526 C 903.272 -4.47897 -4.94919 0
M  V30 9527 H 902.542 -0.139629 -0.727726 0
M  V30 9528 H 905.189 -1.023 -1.61886 0
M  V30 9529 H 903.494 0.21708 -3.91198 0
M  V30 9530 H 905.191 -0.162625 -4.0067 0
M  V30 9531 H 901.781 -1.596 -3.97776 0
M  V30 9532 H 905.965 -2.53276 -4.26808 0
M  V30 9533 H 901.221 -3.86611 -4.73648 0
M  V30 9534 H 905.395 -4.80555 -5.04024 0
M  V30 9535 H 903.022 -5.47747 -5.27141 0
M  V30 9536 N 904.597 1.47463 -0.556102 0
M  V30 9537 C 905.825 2.06868 -0.0364585 0
M  V30 9538 C 906.24 1.40893 1.25677 0
M  V30 9539 O 905.597 0.505083 1.75371 0
M  V30 9540 C 905.648 3.61128 0.163984 0
M  V30 9541 O 905.369 4.24629 -1.07803 0
M  V30 9542 C 906.87 4.37397 0.721036 0
M  V30 9543 H 904.09 0.669466 -0.0453399 0
M  V30 9544 H 906.634 1.89482 -0.769198 0
M  V30 9545 H 904.789 3.78031 0.84685 0
M  V30 9546 H 905.203 5.17149 -0.875067 0
M  V30 9547 H 906.677 5.46016 0.810584 0
M  V30 9548 H 907.154 4.03604 1.73206 0
M  V30 9549 H 907.76 4.25236 0.073904 0
M  V30 9550 N 906.075 0.2925 1.54862 0
M  V30 9551 C 907.005 -0.580677 2.26165 0
M  V30 9552 C 907.986 -1.14485 1.25806 0
M  V30 9553 O 909.171 -1.17577 1.54562 0
M  V30 9554 C 906.301 -1.75668 2.99596 0
M  V30 9555 C 905.255 -1.32325 4.07031 0
M  V30 9556 C 904.581 -2.58374 4.68131 0
M  V30 9557 C 905.881 -0.460703 5.20264 0
M  V30 9558 H 907.575 0.0140075 2.99397 0
M  V30 9559 H 905.121 0.00817706 1.43998 0
M  V30 9560 H 907.074 -2.37356 3.48195 0
M  V30 9561 H 905.798 -2.37747 2.23928 0
M  V30 9562 H 904.457 -0.729477 3.59269 0
M  V30 9563 H 904.105 -3.18749 3.89112 0
M  V30 9564 H 903.805 -2.30078 5.40683 0
M  V30 9565 H 905.329 -3.2088 5.19489 0
M  V30 9566 H 906.743 -0.983037 5.64809 0
M  V30 9567 H 905.14 -0.271881 5.99484 0
M  V30 9568 H 906.21 0.516304 4.82143 0
M  V30 9569 N 907.553 -1.57587 0.0200696 0
M  V30 9570 C 908.969 -1.56018 -0.336237 0
M  V30 9571 C 909.169 -1.02478 -1.73495 0
M  V30 9572 O 908.225 -0.667487 -2.43518 0
M  V30 9573 C 909.538 -3.00079 -0.193112 0
M  V30 9574 C 911.086 -3.11863 -0.266557 0
M  V30 9575 C 911.561 -4.57747 -0.152326 0
M  V30 9576 N 913.052 -4.62726 -0.209596 0
M  V30 9577 C 913.787 -5.73217 -0.144855 0
M  V30 9578 N 913.283 -6.92794 -0.0295487 0
M  V30 9579 N 915.076 -5.61751 -0.198184 0
M  V30 9580 H 907.227 -1.90722 0.93482 0
M  V30 9581 H 909.49 -0.876909 0.360186 0
M  V30 9582 H 909.196 -3.43167 0.770036 0
M  V30 9583 H 909.07 -3.64593 -0.967029 0
M  V30 9584 H 911.457 -2.68693 -1.22016 0
M  V30 9585 H 911.538 -2.50087 0.53758 0
M  V30 9586 H 911.182 -5.01595 0.797817 0
M  V30 9587 H 911.112 -5.17491 -0.97521 0
M  V30 9588 H 913.603 -3.76713 -0.299229 0
M  V30 9589 H 913.916 -7.72799 0.0134071 0
M  V30 9590 H 912.261 -6.95 0.00510737 0
M  V30 9591 H 915.452 -4.67222 -0.286603 0
M  V30 9592 H 915.625 -6.47839 -0.144266 0
M  V30 9593 N 909.032 0.252966 -1.55557 0
M  V30 9594 C 909.982 1.31585 -1.86197 0
M  V30 9595 C 910.966 1.43773 -0.722357 0
M  V30 9596 O 912.158 1.47117 -0.984152 0
M  V30 9597 C 909.287 2.67245 -2.15487 0
M  V30 9598 C 908.373 2.59087 -3.3576 0
M  V30 9599 N 908.764 2.20556 -4.5518 0
M  V30 9600 C 907.062 2.90112 -3.3875 0
M  V30 9601 C 907.763 2.22881 -5.37307 0
M  V30 9602 N 906.739 2.62145 -4.76215 0
M  V30 9603 H 910.541 1.00835 -2.76061 0
M  V30 9604 H 908.055 0.461598 -1.55702 0
M  V30 9605 H 910.052 3.43944 -2.35602 0
M  V30 9606 H 908.712 2.98867 -1.26919 0
M  V30 9607 H 909.723 1.922 -4.80915 0
M  V30 9608 H 906.4 3.26313 -2.60434 0
M  V30 9609 H 907.79 1.95482 -6.42835 0
M  V30 9610 N 910.51 1.48831 0.518367 0
M  V30 9611 C 911.756 1.58649 1.27287 0
M  V30 9612 C 912.111 0.262085 1.90607 0
M  V30 9613 O 911.404 -0.736154 1.76894 0
M  V30 9614 C 911.598 2.67003 2.3758 0
M  V30 9615 C 911.427 4.09851 1.85073 0
M  V30 9616 C 910.197 4.76852 1.67154 0
M  V30 9617 C 912.395 4.95646 1.37256 0
M  V30 9618 N 910.377 6.04075 1.09394 0
M  V30 9619 C 911.748 6.13208 0.915189 0
M  V30 9620 C 913.803 4.8178 1.25666 0
M  V30 9621 C 912.506 7.18431 0.353411 0
M  V30 9622 C 914.532 5.87136 0.708873 0
M  V30 9623 C 913.894 7.03914 0.261642 0
M  V30 9624 H 909.993 0.635017 0.456374 0
M  V30 9625 H 912.577 1.85763 0.583097 0
M  V30 9626 H 910.748 2.41691 3.04039 0
M  V30 9627 H 912.48 2.6644 3.04617 0
M  V30 9628 H 909.235 4.3337 1.91017 0
M  V30 9629 H 909.659 6.71955 0.824917 0
M  V30 9630 H 914.301 3.91826 1.58846 0
M  V30 9631 H 912.019 8.08099 0.00931313 0
M  V30 9632 H 915.605 5.78463 0.622221 0
M  V30 9633 H 914.485 7.84046 -0.155634 0
M  V30 9634 N 911.988 -0.768124 1.37614 0
M  V30 9635 C 912.918 -1.89537 1.36374 0
M  V30 9636 C 913.899 -1.68513 0.231803 0
M  V30 9637 O 915.084 -1.89318 0.432705 0
M  V30 9638 C 912.214 -3.26871 1.17358 0
M  V30 9639 C 911.168 -3.62466 2.27602 0
M  V30 9640 C 910.494 -4.9838 1.93705 0
M  V30 9641 C 911.794 -3.68841 3.69802 0
M  V30 9642 H 913.488 -1.90832 2.30702 0
M  V30 9643 H 911.034 -0.91672 1.11051 0
M  V30 9644 H 912.987 -4.05371 1.15119 0
M  V30 9645 H 911.711 -3.26018 0.194865 0
M  V30 9646 H 910.37 -2.86276 2.29002 0
M  V30 9647 H 910.018 -4.94071 0.943539 0
M  V30 9648 H 909.718 -5.23165 2.6753 0
M  V30 9649 H 911.242 -5.79276 1.93059 0
M  V30 9650 H 912.656 -4.37485 3.70513 0
M  V30 9651 H 911.053 -4.05126 4.42711 0
M  V30 9652 H 912.123 -2.69415 4.03167 0
M  V30 9653 N 913.466 -1.22244 -0.994698 0
M  V30 9654 C 914.413 -0.990906 -2.08446 0
M  V30 9655 C 915.383 0.086737 -1.65873 0
M  V30 9656 O 916.568 -0.0624882 -1.90698 0
M  V30 9657 C 913.708 -0.572813 -3.40313 0
M  V30 9658 C 912.821 -1.72103 -3.96238 0
M  V30 9659 C 911.956 -1.2511 -5.16257 0
M  V30 9660 C 910.995 -2.37098 -5.64315 0
M  V30 9661 N 910.132 -1.91164 -6.75574 0
M  V30 9662 H 914.972 -1.92377 -2.27585 0
M  V30 9663 H 912.509 -0.958576 -1.11578 0
M  V30 9664 H 914.467 -0.311594 -4.16035 0
M  V30 9665 H 913.097 0.323044 -3.21179 0
M  V30 9666 H 912.149 -2.09662 -3.17405 0
M  V30 9667 H 913.461 -2.56347 -4.27888 0
M  V30 9668 H 912.615 -0.947152 -5.99261 0
M  V30 9669 H 911.354 -0.378836 -4.86226 0
M  V30 9670 H 910.359 -2.68283 -4.799 0
M  V30 9671 H 911.584 -3.24837 -5.96371 0
M  V30 9672 H 909.53 -1.06298 -6.47331 0
M  V30 9673 H 909.447 -2.68975 -7.06533 0
M  V30 9674 H 910.715 -1.63833 -7.62088 0
M  V30 9675 N 914.944 1.19125 -1.03184 0
M  V30 9676 C 916.19 1.89163 -0.731111 0
M  V30 9677 C 916.523 1.79604 0.738662 0
M  V30 9678 O 915.798 1.19037 1.53819 0
M  V30 9679 C 916.081 3.39986 -1.18666 0
M  V30 9680 C 915.934 3.58401 -2.71788 0
M  V30 9681 C 917.253 4.33316 -0.769772 0
M  V30 9682 H 914.372 0.686908 -0.267069 0
M  V30 9683 H 917.014 1.40205 -1.28229 0
M  V30 9684 H 915.164 3.81813 -0.717736 0
M  V30 9685 H 916.836 3.25727 -3.26649 0
M  V30 9686 H 915.079 3.01355 -3.12038 0
M  V30 9687 H 915.75 4.64189 -2.98719 0
M  V30 9688 H 918.226 3.9922 -1.17314 0
M  V30 9689 H 917.102 5.37427 -1.11637 0
M  V30 9690 H 917.363 4.40884 0.327681 0
M  V30 9691 O 916.461 0.94573 1.30913 0
M  V30 9692 H 917.152 0.5754 1.84956 0
M  V30 END ATOM
M  V30 BEGIN BOND
M  V30 END BOND
M  V30 END CTAB
M  END
$$$$
