drugbank_target|Q14697 Neutral alpha-glucosidase AB (DB00491)
 OpenBabel12092120573D

  0  0  0     0  0            999 V3000
M  V30 BEGIN CTAB
M  V30 COUNTS 14872 15090 0 0 0
M  V30 BEGIN ATOM
M  V30 1 H -0.908 1.98254 -0.117106 0
M  V30 2 N 0 1.576 0 0
M  V30 3 C 0.933 2.03868 1.02534 0
M  V30 4 C 1.911 0.928543 1.3348 0
M  V30 5 O 3.095 1.19667 1.45644 0
M  V30 6 C 0.222 2.43627 2.35294 0
M  V30 7 C -0.732 3.65373 2.2001 0
M  V30 8 S 0.101 5.13292 1.52614 0
M  V30 9 C 1.257 5.56322 2.86805 0
M  V30 10 H 1.49 2.90518 0.631377 0
M  V30 11 H -0.977 1.52953 0.210867 0
M  V30 12 H 0.981 2.67203 3.11629 0
M  V30 13 H -0.358 1.57376 2.7183 0
M  V30 14 H -1.165 3.90944 3.18086 0
M  V30 15 H -1.563 3.418 1.51819 0
M  V30 16 H 0.729 5.58782 3.83104 0
M  V30 17 H 1.672 6.56266 2.65933 0
M  V30 18 H 2.08 4.83886 2.90714 0
M  V30 19 N 1.4781 -0.272755 1.55222 0
M  V30 20 C 2.4411 -1.32041 1.87344 0
M  V30 21 C 3.4411 -1.42342 0.74803 0
M  V30 22 O 4.6311 -1.41488 1.0162 0
M  V30 23 C 1.7631 -2.70173 2.07893 0
M  V30 24 H 2.9561 -1.04789 2.80997 0
M  V30 25 H 0.5091 -0.51083 1.47717 0
M  V30 26 H 1.2441 -3.02605 1.16622 0
M  V30 27 H 1.0291 -2.64082 2.89833 0
M  V30 28 H 2.5191 -3.45869 2.34017 0
M  V30 29 N 2.9562 -1.48159 -0.537278 0
M  V30 30 C 3.9192 -1.61665 -1.62472 0
M  V30 31 C 4.9192 -0.490395 -1.5314 0
M  V30 32 O 6.1092 -0.755998 -1.5694 0
M  V30 33 C 3.2412 -1.57997 -3.02076 0
M  V30 34 H 4.4342 -2.58621 -1.51839 0
M  V30 35 H 1.9872 -1.36647 -0.758771 0
M  V30 36 H 2.7222 -0.624913 -3.18222 0
M  V30 37 H 2.5072 -2.39755 -3.10258 0
M  V30 38 H 3.9972 -1.70627 -3.81151 0
M  V30 39 N 4.4343 0.785586 -1.36625 0
M  V30 40 C 5.6803 1.54591 -1.31261 0
M  V30 41 C 6.0133 1.93906 0.106823 0
M  V30 42 O 5.2883 1.63007 1.06108 0
M  V30 43 C 5.5713 2.82038 -2.23889 0
M  V30 44 C 5.4243 2.49066 -3.74548 0
M  V30 45 C 6.7433 3.83887 -2.15217 0
M  V30 46 H 3.8623 0.560846 -0.478143 0
M  V30 47 H 6.5043 0.902278 -1.67209 0
M  V30 48 H 4.6543 3.36961 -1.93363 0
M  V30 49 H 6.3263 2.00164 -4.15611 0
M  V30 50 H 4.5693 1.81954 -3.93796 0
M  V30 51 H 5.2403 3.40109 -4.34776 0
M  V30 52 H 7.7163 3.38421 -2.42096 0
M  V30 53 H 6.5923 4.70806 -2.82193 0
M  V30 54 H 6.8533 4.27131 -1.14068 0
M  V30 55 N 5.9124 1.20967 1.01018 0
M  V30 56 C 6.8754 0.965918 2.07853 0
M  V30 57 C 7.8754 -0.0610545 1.60684 0
M  V30 58 O 9.0654 0.175681 1.73312 0
M  V30 59 C 6.1974 0.455513 3.37843 0
M  V30 60 H 7.3904 1.91365 2.3091 0
M  V30 61 H 4.9434 1.02594 1.17916 0
M  V30 62 H 5.6784 -0.497381 3.20463 0
M  V30 63 H 5.4634 1.19622 3.73407 0
M  V30 64 H 6.9534 0.304667 4.16487 0
M  V30 65 N 7.3905 -1.2043 1.01659 0
M  V30 66 C 8.3535 -2.21433 0.591616 0
M  V30 67 C 9.3535 -1.57203 -0.338226 0
M  V30 68 O 10.5435 -1.73737 -0.126918 0
M  V30 69 C 7.6755 -3.40628 -0.136058 0
M  V30 70 H 8.8685 -2.60545 1.48514 0
M  V30 71 H 6.4215 -1.33893 0.806379 0
M  V30 72 H 7.1565 -3.07019 -1.04449 0
M  V30 73 H 6.9415 -3.88475 0.531917 0
M  V30 74 H 8.4315 -4.15475 -0.420735 0
M  V30 75 N 8.8686 -0.792821 -1.36206 0
M  V30 76 C 10.1146 -0.36733 -1.99446 0
M  V30 77 C 10.4476 1.05917 -1.62774 0
M  V30 78 O 9.7226 1.7324 -0.88421 0
M  V30 79 C 10.0056 -0.535044 -3.56103 0
M  V30 80 C 9.8586 -2.00548 -4.02617 0
M  V30 81 C 11.1776 0.0478191 -4.40074 0
M  V30 82 H 8.2966 -0.134941 -0.724541 0
M  V30 83 H 10.9386 -0.999794 -1.61568 0
M  V30 84 H 9.0886 0.00336329 -3.885 0
M  V30 85 H 10.7606 -2.60521 -3.80692 0
M  V30 86 H 9.0036 -2.50686 -3.54032 0
M  V30 87 H 9.6746 -2.07377 -5.11565 0
M  V30 88 H 12.1506 -0.411822 -4.14057 0
M  V30 89 H 11.0266 -0.0995336 -5.4881 0
M  V30 90 H 11.2876 1.14025 -4.27142 0
M  V30 91 N 10.3467 1.47872 -0.545128 0
M  V30 92 C 11.3097 2.28337 0.198717 0
M  V30 93 C 12.3097 1.36255 0.853888 0
M  V30 94 O 13.4997 1.59003 0.711606 0
M  V30 95 C 10.6317 3.15585 1.28915 0
M  V30 96 H 11.8247 2.95567 -0.507941 0
M  V30 97 H 9.3777 1.53362 -0.301616 0
M  V30 98 H 10.1127 2.53019 2.02859 0
M  V30 99 H 9.8977 3.83337 0.824309 0
M  V30 100 H 11.3877 3.76243 1.81194 0
M  V30 101 N 11.8248 0.280983 1.55075 0
M  V30 102 C 12.7878 -0.590896 2.21452 0
M  V30 103 C 13.7878 -1.07682 1.19421 0
M  V30 104 O 14.9778 -0.97605 1.44288 0
M  V30 105 C 12.1098 -1.81587 2.88511 0
M  V30 106 H 13.3028 -0.0112554 2.99898 0
M  V30 107 H 10.8558 0.0316438 1.56268 0
M  V30 108 H 11.5908 -2.43587 2.14093 0
M  V30 109 H 11.3758 -1.4753 3.63287 0
M  V30 110 H 12.8658 -2.43575 3.39206 0
M  V30 111 N 13.3029 -1.57598 0.00835791 0
M  V30 112 C 14.7189 -1.55764 -0.347822 0
M  V30 113 C 14.9189 -1.01186 -1.74252 0
M  V30 114 O 13.9749 -0.649371 -2.44007 0
M  V30 115 C 15.2879 -2.99927 -0.215407 0
M  V30 116 C 16.8359 -3.11656 -0.289725 0
M  V30 117 C 17.3109 -4.57621 -0.18634 0
M  V30 118 N 18.8019 -4.62557 -0.243978 0
M  V30 119 C 19.5369 -5.73094 -0.18745 0
M  V30 120 N 19.0329 -6.92753 -0.0810331 0
M  V30 121 N 20.8259 -5.61588 -0.239925 0
M  V30 122 H 12.9769 -1.91411 0.92062 0
M  V30 123 H 15.2399 -0.879562 0.353659 0
M  V30 124 H 14.9459 -3.43729 0.744512 0
M  V30 125 H 14.8199 -3.63865 -0.994097 0
M  V30 126 H 17.2069 -2.67779 -1.24009 0
M  V30 127 H 17.2879 -2.5048 0.51898 0
M  V30 128 H 16.9319 -5.02174 0.760519 0
M  V30 129 H 16.8619 -5.16752 -1.01364 0
M  V30 130 H 19.3529 -3.76481 -0.327217 0
M  V30 131 H 19.6659 -7.72787 -0.0440241 0
M  V30 132 H 18.0109 -6.94984 -0.0465419 0
M  V30 133 H 21.2019 -4.66996 -0.321317 0
M  V30 134 H 21.3749 -6.47714 -0.192407 0
M  V30 135 N 14.781 0.264519 -1.55364 0
M  V30 136 C 16.197 0.61215 -1.47394 0
M  V30 137 C 16.397 1.89134 -0.695018 0
M  V30 138 O 15.453 2.51563 -0.217275 0
M  V30 139 C 16.766 0.731235 -2.91674 0
M  V30 140 C 18.314 0.82473 -3.01939 0
M  V30 141 C 18.789 0.975522 -4.4749 0
M  V30 142 N 20.28 1.04083 -4.51354 0
M  V30 143 C 21.015 1.17646 -5.61201 0
M  V30 144 N 20.511 1.27874 -6.80896 0
M  V30 145 N 22.304 1.20823 -5.48961 0
M  V30 146 H 14.455 -0.575456 -2.04456 0
M  V30 147 H 16.718 -0.196099 -0.927496 0
M  V30 148 H 16.424 -0.138392 -3.51428 0
M  V30 149 H 16.298 1.60883 -3.41169 0
M  V30 150 H 18.685 1.68482 -2.42276 0
M  V30 151 H 18.766 -0.0776479 -2.55682 0
M  V30 152 H 18.41 0.120058 -5.07758 0
M  V30 153 H 18.34 1.89268 -4.91412 0
M  V30 154 H 20.831 0.973846 -3.65136 0
M  V30 155 H 21.144 1.38081 -7.60364 0
M  V30 156 H 19.489 1.24863 -6.83692 0
M  V30 157 H 22.68 1.12469 -4.54388 0
M  V30 158 H 22.853 1.31049 -6.3461 0
M  V30 159 N 16.2591 1.48442 0.529413 0
M  V30 160 C 17.6751 1.34575 0.858004 0
M  V30 161 C 17.8751 0.3572 1.98309 0
M  V30 162 O 16.9311 -0.221379 2.51528 0
M  V30 163 C 18.2441 2.74617 1.22499 0
M  V30 164 C 19.7921 2.83109 1.33484 0
M  V30 165 C 20.2671 4.23854 1.73526 0
M  V30 166 N 21.7581 4.2653 1.80628 0
M  V30 167 C 22.4931 5.32372 2.12997 0
M  V30 168 N 21.9891 6.48491 2.43786 0
M  V30 169 N 23.7821 5.19766 2.14008 0
M  V30 170 H 15.9331 2.1133 -0.212925 0
M  V30 171 H 18.1961 0.947439 -0.0326199 0
M  V30 172 H 17.9021 3.4852 0.471905 0
M  V30 173 H 17.7761 3.08177 2.17501 0
M  V30 174 H 20.1631 2.09462 2.0787 0
M  V30 175 H 20.2441 2.53168 0.366027 0
M  V30 176 H 19.8881 4.98018 0.997013 0
M  V30 177 H 19.8181 4.5124 2.71459 0
M  V30 178 H 22.3091 3.42772 1.59108 0
M  V30 179 H 22.6221 7.24993 2.67592 0
M  V30 180 H 20.9671 6.51765 2.41304 0
M  V30 181 H 24.1581 4.28066 1.89412 0
M  V30 182 H 24.3311 6.02354 2.38902 0
M  V30 183 N 17.7372 -0.778329 1.37039 0
M  V30 184 C 19.1532 -1.07796 1.17695 0
M  V30 185 C 19.3532 -2.01498 0.00860115 0
M  V30 186 O 18.4092 -2.43901 -0.653352 0
M  V30 187 C 19.7222 -1.68178 2.49272 0
M  V30 188 C 21.2702 -1.80467 2.55735 0
M  V30 189 C 21.7452 -2.44263 3.87427 0
M  V30 190 N 23.2362 -2.51721 3.88833 0
M  V30 191 C 23.9712 -3.01919 4.87476 0
M  V30 192 N 23.4672 -3.5234 5.96513 0
M  V30 193 N 25.2602 -3.00733 4.74885 0
M  V30 194 H 17.4112 -0.156032 2.11826 0
M  V30 195 H 19.6742 -0.131844 0.938787 0
M  V30 196 H 19.3802 -1.06796 3.35093 0
M  V30 197 H 19.2542 -2.67554 2.65885 0
M  V30 198 H 21.6412 -2.40984 1.70325 0
M  V30 199 H 21.7222 -0.798656 2.43013 0
M  V30 200 H 21.3662 -1.84388 4.73248 0
M  V30 201 H 21.2962 -3.45458 3.9745 0
M  V30 202 H 23.7872 -2.1603 3.10063 0
M  V30 203 H 24.1002 -3.89027 6.67741 0
M  V30 204 H 22.4452 -3.50462 6.00168 0
M  V30 205 H 25.6362 -2.60638 3.88826 0
M  V30 206 H 25.8092 -3.39545 5.51918 0
M  V30 207 N 19.2153 -1.21501 -1.00376 0
M  V30 208 C 20.4403 -1.05977 -1.78279 0
M  V30 209 C 20.8653 0.385994 -1.84097 0
M  V30 210 O 20.2233 1.27849 -1.28547 0
M  V30 211 C 20.2713 -1.66302 -3.19963 0
M  V30 212 O 19.3753 -0.909333 -4.0225 0
M  V30 213 H 18.7163 -0.372906 -0.549397 0
M  V30 214 H 21.2463 -1.6107 -1.26165 0
M  V30 215 H 21.2563 -1.70574 -3.70632 0
M  V30 216 H 19.9313 -2.71515 -3.15043 0
M  V30 217 H 18.5083 -0.941795 -3.60811 0
M  V30 218 N 20.6934 1.19889 -1.02296 0
M  V30 219 C 21.9394 1.89973 -0.726759 0
M  V30 220 C 22.2944 1.7776 0.73614 0
M  V30 221 O 21.5874 1.15523 1.52856 0
M  V30 222 C 21.7814 3.39883 -1.10518 0
M  V30 223 C 21.6104 3.66684 -2.60332 0
M  V30 224 C 20.3804 3.85045 -3.27213 0
M  V30 225 C 22.5784 3.68727 -3.58532 0
M  V30 226 N 20.5604 3.99422 -4.66192 0
M  V30 227 C 21.9314 3.88604 -4.83101 0
M  V30 228 C 23.9864 3.51722 -3.52414 0
M  V30 229 C 22.6894 3.9324 -6.02292 0
M  V30 230 C 24.7154 3.57632 -4.71013 0
M  V30 231 C 24.0774 3.77988 -5.94394 0
M  V30 232 H 20.1764 0.714551 -0.317712 0
M  V30 233 H 22.7604 1.44123 -1.30907 0
M  V30 234 H 20.9314 3.8447 -0.551142 0
M  V30 235 H 22.6634 3.97464 -0.761853 0
M  V30 236 H 19.4184 3.83689 -2.77632 0
M  V30 237 H 19.8424 4.10473 -5.38368 0
M  V30 238 H 24.4844 3.34945 -2.58015 0
M  V30 239 H 22.2024 4.08811 -6.97065 0
M  V30 240 H 25.7884 3.45773 -4.67902 0
M  V30 241 H 24.6684 3.82428 -6.8463 0
M  V30 242 N 22.1715 0.800033 1.35784 0
M  V30 243 C 23.1345 0.211565 2.28221 0
M  V30 244 C 24.1345 -0.59728 1.49296 0
M  V30 245 O 25.3245 -0.416721 1.69142 0
M  V30 246 C 22.4565 -0.705846 3.33513 0
M  V30 247 H 23.6495 1.02677 2.81776 0
M  V30 248 H 21.2025 0.570211 1.45528 0
M  V30 249 H 21.9375 -1.54498 2.85133 0
M  V30 250 H 21.7225 -0.127655 3.91892 0
M  V30 251 H 23.2125 -1.11211 4.02519 0
M  V30 252 N 23.6496 -1.47581 0.552962 0
M  V30 253 C 24.8746 -2.07378 0.0300593 0
M  V30 254 C 25.2996 -1.40355 -1.25229 0
M  V30 255 O 24.6576 -0.477099 -1.7491 0
M  V30 256 C 24.7056 -3.60274 -0.153231 0
M  V30 257 O 23.8096 -3.94041 -1.21678 0
M  V30 258 H 23.1506 -0.662158 0.0494182 0
M  V30 259 H 25.6806 -1.89662 0.767434 0
M  V30 260 H 25.6906 -4.0633 -0.368761 0
M  V30 261 H 24.3656 -4.08455 0.783397 0
M  V30 262 H 22.9426 -3.59735 -0.982079 0
M  V30 263 N 25.1277 -0.289203 -1.54924 0
M  V30 264 C 26.0577 0.58549 -2.2604 0
M  V30 265 C 27.0387 1.14753 -1.25562 0
M  V30 266 O 28.2237 1.17906 -1.54311 0
M  V30 267 C 25.3537 1.76305 -2.99222 0
M  V30 268 C 24.3077 1.33191 -4.06748 0
M  V30 269 C 23.6337 2.5937 -4.6758 0
M  V30 270 C 24.9337 0.471775 -5.20165 0
M  V30 271 H 26.6277 -0.00763532 -2.99399 0
M  V30 272 H 24.1737 -0.00511229 -1.43999 0
M  V30 273 H 26.1267 2.38097 -3.47689 0
M  V30 274 H 24.8507 2.38223 -2.23422 0
M  V30 275 H 23.5097 0.737121 -3.59113 0
M  V30 276 H 23.1577 3.19576 -3.88433 0
M  V30 277 H 22.8577 2.31228 -5.40192 0
M  V30 278 H 24.3817 3.21985 -5.18804 0
M  V30 279 H 25.7957 0.995056 -5.64599 0
M  V30 280 H 24.1927 0.284639 -5.99425 0
M  V30 281 H 25.2627 -0.506041 -4.82252 0
M  V30 282 N 26.6058 1.57591 -0.0167156 0
M  V30 283 C 27.8518 1.91567 0.665582 0
M  V30 284 C 28.1848 0.892298 1.72487 0
M  V30 285 O 27.4598 -0.0867127 1.94307 0
M  V30 286 C 27.7428 3.36069 1.29342 0
M  V30 287 C 27.5958 4.49135 0.244541 0
M  V30 288 C 28.9148 3.803 2.21495 0
M  V30 289 H 26.0338 0.69666 0.240488 0
M  V30 290 H 28.6758 1.89866 -0.0714356 0
M  V30 291 H 26.8258 3.3765 1.92158 0
M  V30 292 H 28.4978 4.59689 -0.385228 0
M  V30 293 H 26.7408 4.3165 -0.431379 0
M  V30 294 H 27.4118 5.47242 0.723207 0
M  V30 295 H 29.8878 3.80377 1.68678 0
M  V30 296 H 28.7638 4.82127 2.62382 0
M  V30 297 H 29.0248 3.15104 3.101 0
M  V30 298 N 28.0839 -0.256276 1.55502 0
M  V30 299 C 29.0139 -1.32102 1.92539 0
M  V30 300 C 29.9949 -1.50684 0.789194 0
M  V30 301 O 31.1799 -1.63449 1.04872 0
M  V30 302 C 28.3099 -2.67752 2.21192 0
M  V30 303 C 27.2639 -2.63878 3.36975 0
M  V30 304 C 26.5899 -4.03236 3.51147 0
M  V30 305 C 27.8899 -2.21682 4.72921 0
M  V30 306 H 29.5839 -1.01351 2.81724 0
M  V30 307 H 27.1299 -0.486105 1.35547 0
M  V30 308 H 29.0829 -3.42365 2.45691 0
M  V30 309 H 27.8069 -3.0012 1.28824 0
M  V30 310 H 26.4659 -1.91722 3.12471 0
M  V30 311 H 26.1139 -4.32854 2.56216 0
M  V30 312 H 25.8139 -4.01535 4.29003 0
M  V30 313 H 27.3379 -4.79563 3.77957 0
M  V30 314 H 28.7519 -2.86023 4.96854 0
M  V30 315 H 27.1489 -2.3111 5.53812 0
M  V30 316 H 28.2189 -1.16833 4.70615 0
M  V30 317 N 29.562 -1.4872 -0.521534 0
M  V30 318 C 30.525 -1.63379 -1.60748 0
M  V30 319 C 31.525 -0.50661 -1.52611 0
M  V30 320 O 32.715 -0.772601 -1.5613 0
M  V30 321 C 29.847 -1.61192 -3.00383 0
M  V30 322 H 31.04 -2.60217 -1.49087 0
M  V30 323 H 28.593 -1.37444 -0.744235 0
M  V30 324 H 29.328 -0.65863 -3.17541 0
M  V30 325 H 29.113 -2.43032 -3.07698 0
M  V30 326 H 30.603 -1.7466 -3.7932 0
M  V30 327 N 31.0401 0.771051 -1.3745 0
M  V30 328 C 32.2871 1.52963 -1.32697 0
M  V30 329 C 32.6151 1.94299 0.0883274 0
M  V30 330 O 31.8701 1.64397 1.0617 0
M  V30 331 C 32.1691 2.80676 -2.2126 0
M  V30 332 C 31.8351 2.58389 -3.69521 0
M  V30 333 C 30.4971 2.52019 -4.09927 0
M  V30 334 C 32.8491 2.38469 -4.63446 0
M  V30 335 C 30.1771 2.23721 -5.42371 0
M  V30 336 C 32.5291 2.11694 -5.96128 0
M  V30 337 C 31.1931 2.03769 -6.35637 0
M  V30 338 H 30.4631 0.559732 -0.485573 0
M  V30 339 H 33.1101 0.888083 -1.69662 0
M  V30 340 H 31.4151 3.49392 -1.77291 0
M  V30 341 H 33.1121 3.38557 -2.14895 0
M  V30 342 H 29.7021 2.6421 -3.37478 0
M  V30 343 H 33.8861 2.4238 -4.33089 0
M  V30 344 H 29.1421 2.16081 -5.71943 0
M  V30 345 H 33.3161 1.9528 -6.6846 0
M  V30 346 H 30.9431 1.81606 -7.38189 0
M  V30 347 N 32.5182 1.22032 0.997298 0
M  V30 348 C 33.4482 1.01065 2.10495 0
M  V30 349 C 34.4292 -0.0669542 1.69968 0
M  V30 350 O 35.6142 0.0943987 1.9397 0
M  V30 351 C 32.7442 0.582874 3.42374 0
M  V30 352 C 31.6982 1.60592 3.96729 0
M  V30 353 C 31.0242 1.03412 5.24605 0
M  V30 354 C 32.3242 2.99478 4.27914 0
M  V30 355 H 34.0182 1.93708 2.28292 0
M  V30 356 H 31.5642 0.932761 1.09707 0
M  V30 357 H 33.5172 0.423332 4.19268 0
M  V30 358 H 32.2412 -0.379213 3.24391 0
M  V30 359 H 30.9002 1.75316 3.21963 0
M  V30 360 H 30.5482 0.063518 5.0296 0
M  V30 361 H 30.2482 1.71754 5.61938 0
M  V30 362 H 31.7722 0.886066 6.04137 0
M  V30 363 H 33.1862 2.88153 4.95622 0
M  V30 364 H 31.5832 3.64903 4.76409 0
M  V30 365 H 32.6532 3.49742 3.3587 0
M  V30 366 N 33.9963 -1.19345 1.0293 0
M  V30 367 C 35.2443 -1.88665 0.724574 0
M  V30 368 C 35.5653 -1.80036 -0.749144 0
M  V30 369 O 34.8353 -1.2111 -1.53978 0
M  V30 370 H 33.4153 -0.698406 0.265025 0
M  V30 371 H 36.0773 -1.44885 1.30362 0
M  V30 372 H 35.1733 -2.94987 1.01926 0
M  V30 373 N 35.4744 -0.807222 -1.35358 0
M  V30 374 C 36.7204 -0.388463 -1.99045 0
M  V30 375 C 37.0534 1.04184 -1.63888 0
M  V30 376 O 36.3284 1.72292 -0.902535 0
M  V30 377 C 36.6114 -0.572783 -3.55515 0
M  V30 378 C 36.4644 -2.04807 -4.00468 0
M  V30 379 C 37.7834 0.00114064 -4.401 0
M  V30 380 H 34.9024 -0.142619 -0.723069 0
M  V30 381 H 37.5444 -1.01687 -1.60498 0
M  V30 382 H 35.6944 -0.0378425 -3.88482 0
M  V30 383 H 37.3664 -2.64544 -3.77908 0
M  V30 384 H 35.6094 -2.54427 -3.51353 0
M  V30 385 H 36.2804 -2.12792 -5.09337 0
M  V30 386 H 38.7564 -0.455716 -4.13597 0
M  V30 387 H 37.6324 -0.157737 -5.48673 0
M  V30 388 H 37.8934 1.09488 -4.28328 0
M  V30 389 N 36.9525 1.47285 -0.560781 0
M  V30 390 C 38.1925 2.0436 -0.0404627 0
M  V30 391 C 38.5565 1.42534 1.28639 0
M  V30 392 O 39.7575 1.90677 1.89462 0
M  V30 393 C 38.0285 3.57369 0.0471856 0
M  V30 394 S 39.5875 4.3579 0.513109 0
M  V30 395 H 36.4055 0.710492 -0.0268674 0
M  V30 396 H 39.0075 1.80611 -0.748323 0
M  V30 397 H 37.7115 3.9989 -0.922817 0
M  V30 398 H 37.2425 3.8562 0.778491 0
M  V30 399 H 39.2575 4.63476 1.77212 0
M  V30 400 N 38.4306 0.297415 1.54768 0
M  V30 401 C 39.3606 -0.573494 2.26348 0
M  V30 402 C 40.3416 -1.14085 1.26169 0
M  V30 403 O 41.5266 -1.17086 1.54934 0
M  V30 404 C 38.6566 -1.74716 3.00153 0
M  V30 405 C 37.6106 -1.31032 4.07449 0
M  V30 406 C 36.9366 -2.56887 4.68949 0
M  V30 407 C 38.2366 -0.444183 5.20408 0
M  V30 408 H 39.9306 0.0235131 2.99391 0
M  V30 409 H 37.4766 0.0127488 1.43994 0
M  V30 410 H 39.4296 -2.3625 3.48947 0
M  V30 411 H 38.1536 -2.37035 2.24682 0
M  V30 412 H 36.8126 -0.718066 3.59499 0
M  V30 413 H 36.4606 -3.17512 3.90122 0
M  V30 414 H 36.1606 -2.2836 5.41411 0
M  V30 415 H 37.6846 -3.19229 5.20505 0
M  V30 416 H 39.0986 -0.9651 5.65118 0
M  V30 417 H 37.4956 -0.252846 5.99567 0
M  V30 418 H 38.5656 0.531609 4.81977 0
M  V30 419 N 39.9087 -1.5758 0.0250728 0
M  V30 420 C 41.1567 -1.91255 -0.653151 0
M  V30 421 C 41.4777 -0.901691 -1.729 0
M  V30 422 O 40.7477 0.0573785 -1.95816 0
M  V30 423 H 39.3277 -0.705942 -0.244243 0
M  V30 424 H 41.9897 -1.94767 0.0719209 0
M  V30 425 H 41.0857 -2.91752 -1.10847 0
M  V30 426 N 41.3868 0.248026 -1.55636 0
M  V30 427 C 42.6358 0.974134 -1.76617 0
M  V30 428 C 42.9488 1.86528 -0.588796 0
M  V30 429 O 44.1548 2.62805 -0.681594 0
M  V30 430 C 42.6108 1.78213 -3.12679 0
M  V30 431 C 42.2188 0.93843 -4.38061 0
M  V30 432 C 43.9628 2.50104 -3.42999 0
M  V30 433 C 41.8698 1.74225 -5.65155 0
M  V30 434 H 40.7998 0.36745 -0.658405 0
M  V30 435 H 43.4508 0.22884 -1.82067 0
M  V30 436 H 41.8328 2.56933 -3.01333 0
M  V30 437 H 43.0068 0.193635 -4.60393 0
M  V30 438 H 41.3218 0.332905 -4.15067 0
M  V30 439 H 43.9188 3.10694 -4.3517 0
M  V30 440 H 44.2618 3.21662 -2.64271 0
M  V30 441 H 44.7948 1.78395 -3.55556 0
M  V30 442 H 41.5338 1.07043 -6.46701 0
M  V30 443 H 41.0538 2.46235 -5.46926 0
M  V30 444 H 42.7328 2.30967 -6.0437 0
M  V30 445 N 42.8649 1.48995 0.513639 0
M  V30 446 C 44.0929 1.61531 1.29288 0
M  V30 447 C 44.5079 0.281801 1.86685 0
M  V30 448 O 43.8649 -0.731111 1.67215 0
M  V30 449 C 43.9159 2.67449 2.43215 0
M  V30 450 O 43.6369 3.95626 1.88179 0
M  V30 451 C 45.1379 2.90575 3.34785 0
M  V30 452 H 42.3579 0.544165 0.392588 0
M  V30 453 H 44.9019 1.9494 0.617956 0
M  V30 454 H 43.0569 2.36853 3.0656 0
M  V30 455 H 43.4709 4.53868 2.62876 0
M  V30 456 H 44.9449 3.68449 4.11035 0
M  V30 457 H 45.4219 2.00011 3.91015 0
M  V30 458 H 46.0279 3.22538 2.77218 0
M  V30 459 N 44.343 -0.763751 1.37857 0
M  V30 460 C 45.273 -1.89103 1.36975 0
M  V30 461 C 46.254 -1.68439 0.237152 0
M  V30 462 O 47.439 -1.8918 0.438713 0
M  V30 463 C 44.569 -3.26496 1.18395 0
M  V30 464 C 43.523 -3.61741 2.28751 0
M  V30 465 C 42.849 -4.97762 1.95286 0
M  V30 466 C 44.149 -3.67665 3.70972 0
M  V30 467 H 45.843 -1.90099 2.31307 0
M  V30 468 H 43.389 -0.91319 1.11341 0
M  V30 469 H 45.342 -4.05003 1.16406 0
M  V30 470 H 44.066 -3.25955 0.205215 0
M  V30 471 H 42.725 -2.85547 2.29909 0
M  V30 472 H 42.373 -4.93769 0.959221 0
M  V30 473 H 42.073 -5.22313 2.69189 0
M  V30 474 H 43.597 -5.7866 1.94898 0
M  V30 475 H 45.011 -4.36307 3.719 0
M  V30 476 H 43.408 -4.03718 4.43995 0
M  V30 477 H 44.478 -2.68134 4.0402 0
M  V30 478 N 45.8211 -1.22559 -0.990812 0
M  V30 479 C 46.7841 -0.998863 -2.0629 0
M  V30 480 C 47.7841 0.0354834 -1.60761 0
M  V30 481 O 48.9741 -0.203231 -1.7301 0
M  V30 482 C 46.1061 -0.509203 -3.37076 0
M  V30 483 H 47.2991 -1.95014 -2.27837 0
M  V30 484 H 44.8521 -1.04456 -1.16269 0
M  V30 485 H 45.5871 0.446335 -3.21214 0
M  V30 486 H 45.3721 -1.25547 -3.71457 0
M  V30 487 H 46.8621 -0.370888 -4.1595 0
M  V30 488 N 47.2992 1.18797 -1.03562 0
M  V30 489 C 48.5452 1.8893 -0.737113 0
M  V30 490 C 48.8782 1.79837 0.732956 0
M  V30 491 O 48.1532 1.19525 1.5344 0
M  V30 492 C 48.4362 3.39607 -1.19745 0
M  V30 493 C 48.2892 3.57537 -2.72924 0
M  V30 494 C 49.6082 4.33069 -0.783526 0
M  V30 495 H 46.7272 0.686057 -0.269249 0
M  V30 496 H 49.3692 1.39797 -1.28673 0
M  V30 497 H 47.5192 3.81583 -0.729855 0
M  V30 498 H 49.1912 3.24688 -3.27682 0
M  V30 499 H 47.4342 3.00363 -3.12993 0
M  V30 500 H 48.1052 4.63238 -3.00191 0
M  V30 501 H 50.5812 3.98846 -1.18581 0
M  V30 502 H 49.4572 5.3707 -1.13343 0
M  V30 503 H 49.7182 4.40986 0.313681 0
M  V30 504 N 48.7773 0.814389 1.34928 0
M  V30 505 C 50.0543 0.321363 1.92942 0
M  V30 506 C 50.4343 -1.19014 1.74353 0
M  V30 507 O 49.7823 -1.99328 1.11716 0
M  V30 508 C 49.9923 0.741323 3.41036 0
M  V30 509 C 51.3403 0.735266 4.18185 0
M  V30 510 O 52.3643 0.68336 3.49584 0
M  V30 511 O 51.2233 0.800703 5.40602 0
M  V30 512 H 48.3173 0.0858893 0.822528 0
M  V30 513 H 50.8633 0.898609 1.43955 0
M  V30 514 H 49.6353 1.78276 3.4833 0
M  V30 515 H 49.2583 0.139307 3.97356 0
M  V30 516 N 50.2554 -1.46986 0.568584 0
M  V30 517 C 51.6714 -1.57946 0.229189 0
M  V30 518 C 51.8714 -1.56567 -1.26843 0
M  V30 519 O 50.9274 -1.47511 -2.04931 0
M  V30 520 C 52.2404 -2.87963 0.865909 0
M  V30 521 C 53.7884 -3.01568 0.838188 0
M  V30 522 C 54.2634 -4.34301 1.45419 0
M  V30 523 N 55.7544 -4.40965 1.41788 0
M  V30 524 C 56.4894 -5.42256 1.86403 0
M  V30 525 N 55.9854 -6.50297 2.38926 0
M  V30 526 N 57.7784 -5.3337 1.77405 0
M  V30 527 H 49.9294 -1.46126 1.54146 0
M  V30 528 H 52.1924 -0.696156 0.643484 0
M  V30 529 H 51.8984 -2.94742 1.91886 0
M  V30 530 H 51.7724 -3.75423 0.365687 0
M  V30 531 H 54.1594 -2.94379 -0.206106 0
M  V30 532 H 54.2404 -2.1562 1.37629 0
M  V30 533 H 53.8844 -4.42247 2.49761 0
M  V30 534 H 53.8144 -5.19 0.891435 0
M  V30 535 H 56.3054 -3.63484 1.03381 0
M  V30 536 H 56.6184 -7.23777 2.70863 0
M  V30 537 H 54.9634 -6.51155 2.42944 0
M  V30 538 H 58.1544 -4.47865 1.3614 0
M  V30 539 H 58.3274 -6.12169 2.12492 0
M  V30 540 N 51.7335 -0.305618 -1.54608 0
M  V30 541 C 52.9585 0.307562 -2.05107 0
M  V30 542 C 53.3835 1.46385 -1.18123 0
M  V30 543 O 52.7415 1.8034 -0.186324 0
M  V30 544 C 52.7895 0.73704 -3.52987 0
M  V30 545 O 51.8935 1.84134 -3.6901 0
M  V30 546 H 51.2345 0.0589143 -0.661381 0
M  V30 547 H 53.7645 -0.448807 -1.99617 0
M  V30 548 H 53.7745 1.02459 -3.94925 0
M  V30 549 H 52.4495 -0.108773 -4.15758 0
M  V30 550 H 51.0265 1.55398 -3.38978 0
M  V30 551 N 53.2116 1.57565 -0.0334293 0
M  V30 552 C 54.1596 2.1164 0.96496 0
M  V30 553 C 55.1536 1.04398 1.33407 0
M  V30 554 O 56.3596 1.22828 1.3158 0
M  V30 555 H 52.7346 0.676222 0.32898 0
M  V30 556 H 54.7056 2.94455 0.483614 0
M  V30 557 C 53.4546 2.66207 2.23672 0
M  V30 558 H 52.7776 3.48378 1.96145 0
M  V30 559 H 54.2176 3.07685 2.9173 0
M  V30 560 C 52.6766 1.59151 2.96939 0
M  V30 561 O 53.2066 0.993858 3.89211 0
M  V30 562 N 51.4126 1.31093 2.59351 0
M  V30 563 H 50.9596 1.7988 1.84393 0
M  V30 564 H 50.9176 0.596889 3.08682 0
M  V30 565 N 54.6897 -0.239769 1.55765 0
M  V30 566 C 55.9367 -0.966801 1.7793 0
M  V30 567 C 56.2647 -1.85046 0.599015 0
M  V30 568 O 55.5197 -1.91197 -0.417395 0
M  V30 569 C 55.8187 -1.852 3.05672 0
M  V30 570 C 55.4847 -1.1231 4.36689 0
M  V30 571 C 54.1467 -0.921689 4.72291 0
M  V30 572 C 56.4987 -0.607019 5.17653 0
M  V30 573 C 53.8267 -0.191996 5.86386 0
M  V30 574 C 56.1787 0.109241 6.32506 0
M  V30 575 C 54.8427 0.322073 6.66723 0
M  V30 576 H 54.1127 -0.353778 0.651093 0
M  V30 577 H 56.7597 -0.23634 1.90036 0
M  V30 578 H 55.0647 -2.64975 2.8861 0
M  V30 579 H 56.7617 -2.41635 3.20021 0
M  V30 580 H 53.3517 -1.29004 4.08725 0
M  V30 581 H 57.5357 -0.750153 4.90598 0
M  V30 582 H 52.7917 -0.0166949 6.11398 0
M  V30 583 H 56.9657 0.516737 6.9448 0
M  V30 584 H 54.5927 0.88944 7.54979 0
M  V30 585 N 56.1678 -1.49265 -0.50573 0
M  V30 586 C 57.1148 -1.65585 -1.6078 0
M  V30 587 C 58.0848 -0.497396 -1.58478 0
M  V30 588 O 59.2698 -0.72385 -1.76536 0
M  V30 589 C 56.4098 -1.72408 -2.98948 0
M  V30 590 C 55.5228 -2.99525 -3.11301 0
M  V30 591 C 54.6578 -2.97356 -4.40174 0
M  V30 592 C 53.6968 -4.19074 -4.46143 0
M  V30 593 N 52.8338 -4.14841 -5.66437 0
M  V30 594 H 57.6738 -2.59688 -1.46172 0
M  V30 595 H 55.2108 -1.28761 -0.711261 0
M  V30 596 H 57.1688 -1.74344 -3.79025 0
M  V30 597 H 55.7988 -0.817753 -3.1227 0
M  V30 598 H 54.8508 -3.07222 -2.24318 0
M  V30 599 H 56.1628 -3.89518 -3.11572 0
M  V30 600 H 55.3168 -2.97829 -5.28567 0
M  V30 601 H 54.0558 -2.05133 -4.42461 0
M  V30 602 H 53.0608 -4.1885 -3.56153 0
M  V30 603 H 54.2858 -5.12483 -4.45575 0
M  V30 604 H 52.2318 -3.25453 -5.69575 0
M  V30 605 H 52.1488 -4.98564 -5.68304 0
M  V30 606 H 53.4168 -4.1941 -6.57051 0
M  V30 607 N 57.6459 0.756429 -1.3826 0
M  V30 608 C 58.8739 1.54565 -1.3754 0
M  V30 609 C 59.2889 1.88767 0.0355331 0
M  V30 610 O 58.6459 1.52572 1.0014 0
M  V30 611 C 58.6969 2.84654 -2.22833 0
M  V30 612 O 58.4179 2.51912 -3.5843 0
M  V30 613 C 59.9189 3.78807 -2.30261 0
M  V30 614 H 57.1389 0.478353 -0.470553 0
M  V30 615 H 59.6829 0.936381 -1.81803 0
M  V30 616 H 57.8379 3.41965 -1.8204 0
M  V30 617 H 58.2519 3.35325 -4.03308 0
M  V30 618 H 59.7259 4.67045 -2.94233 0
M  V30 619 H 60.2029 4.19038 -1.31545 0
M  V30 620 H 60.8089 3.2742 -2.71433 0
M  V30 621 N 59.124 1.23083 0.984299 0
M  V30 622 C 60.364 1.07226 1.74017 0
M  V30 623 C 60.728 -0.384766 1.88105 0
M  V30 624 O 61.929 -0.664411 2.60459 0
M  V30 625 C 60.2 1.77348 3.10294 0
M  V30 626 S 61.759 1.77014 4.01512 0
M  V30 627 H 58.577 0.383819 0.598502 0
M  V30 628 H 61.179 1.56158 1.17622 0
M  V30 629 H 59.883 2.82506 2.97689 0
M  V30 630 H 59.414 1.28682 3.71759 0
M  V30 631 H 61.429 0.825956 4.89277 0
M  V30 632 N 60.6021 -1.18246 1.0419 0
M  V30 633 C 61.5121 -2.25574 0.644476 0
M  V30 634 C 62.5281 -1.70845 -0.329826 0
M  V30 635 O 63.7041 -2.00554 -0.184443 0
M  V30 636 C 60.7691 -3.46697 0.014877 0
M  V30 637 C 59.8301 -4.16554 1.03834 0
M  V30 638 C 59.0631 -5.31894 0.438692 0
M  V30 639 O 59.2861 -5.65385 -0.754752 0
M  V30 640 O 58.2201 -5.90459 1.168 0
M  V30 641 H 62.0461 -2.61836 1.53869 0
M  V30 642 H 59.6311 -1.25352 0.812854 0
M  V30 643 H 61.5131 -4.20062 -0.335538 0
M  V30 644 H 60.1881 -3.12255 -0.853138 0
M  V30 645 H 59.0951 -3.45251 1.44057 0
M  V30 646 H 60.4281 -4.54998 1.87716 0
M  V30 647 N 62.0802 -0.821533 -1.34494 0
M  V30 648 C 62.9902 -0.244355 -2.33324 0
M  V30 649 C 64.0062 0.620527 -1.62559 0
M  V30 650 O 65.1822 0.528754 -1.94335 0
M  V30 651 C 62.2472 0.585368 -3.41723 0
M  V30 652 C 61.3082 -0.301752 -4.28238 0
M  V30 653 C 60.5412 0.488466 -5.3146 0
M  V30 654 O 60.7642 1.72186 -5.4379 0
M  V30 655 O 59.6982 -0.12848 -6.01763 0
M  V30 656 H 63.5242 -1.06231 -2.84515 0
M  V30 657 H 61.1092 -0.583645 -1.37528 0
M  V30 658 H 62.9912 1.05747 -4.07916 0
M  V30 659 H 61.6662 1.38068 -2.92778 0
M  V30 660 H 60.5732 -0.821315 -3.64973 0
M  V30 661 H 61.9062 -1.06138 -4.8062 0
M  V30 662 N 63.5583 1.46682 -0.576371 0
M  V30 663 C 64.7833 2.07304 -0.0630475 0
M  V30 664 C 65.2083 1.42329 1.2298 0
M  V30 665 O 64.5663 0.504865 1.74129 0
M  V30 666 C 64.6143 3.60472 0.095895 0
M  V30 667 O 63.7183 3.95927 1.15394 0
M  V30 668 H 63.0593 0.661288 -0.0599463 0
M  V30 669 H 65.5893 1.88417 -0.797511 0
M  V30 670 H 65.5993 4.06865 0.304071 0
M  V30 671 H 64.2743 4.07157 -0.84828 0
M  V30 672 H 62.8513 3.61252 0.924724 0
M  V30 673 N 65.0364 0.313813 1.54444 0
M  V30 674 C 66.2614 -0.296681 2.05267 0
M  V30 675 C 66.6864 -1.45757 1.18897 0
M  V30 676 O 66.0444 -1.80239 0.195886 0
M  V30 677 C 66.0924 -0.71831 3.53373 0
M  V30 678 O 65.1964 -1.82175 3.69981 0
M  V30 679 H 64.5374 -0.0554061 0.661684 0
M  V30 680 H 67.0674 0.459387 1.99376 0
M  V30 681 H 67.0774 -1.00364 3.95463 0
M  V30 682 H 65.7524 0.130821 4.15694 0
M  V30 683 H 64.3294 -1.53598 3.39797 0
M  V30 684 N 66.5145 -1.57545 0.0417849 0
M  V30 685 C 67.7615 -1.92317 -0.634082 0
M  V30 686 C 68.0895 -0.919334 -1.71402 0
M  V30 687 O 67.3445 0.0698253 -1.95575 0
M  V30 688 C 67.6435 -3.33794 -1.27735 0
M  V30 689 C 67.3095 -4.49716 -0.326543 0
M  V30 690 C 65.9715 -4.81156 -0.0648814 0
M  V30 691 C 68.3235 -5.20182 0.325623 0
M  V30 692 C 65.6515 -5.80414 0.856539 0
M  V30 693 C 68.0035 -6.20424 1.23518 0
M  V30 694 C 66.6675 -6.50298 1.5056 0
M  V30 695 H 65.9375 -0.703736 -0.232027 0
M  V30 696 H 68.5845 -1.91205 0.106259 0
M  V30 697 H 66.8895 -3.31228 -2.09274 0
M  V30 698 H 68.5865 -3.57975 -1.80707 0
M  V30 699 H 65.1765 -4.25176 -0.540665 0
M  V30 700 H 69.3605 -4.96112 0.136546 0
M  V30 701 H 64.6165 -6.019 1.07363 0
M  V30 702 H 68.7905 -6.74141 1.74664 0
M  V30 703 H 66.4175 -7.27025 2.22123 0
M  V30 704 N 67.9926 0.231505 -1.5589 0
M  V30 705 C 69.2326 0.964533 -1.80211 0
M  V30 706 C 69.5966 1.81926 -0.613744 0
M  V30 707 O 70.7976 2.58526 -0.736045 0
M  V30 708 C 69.0686 1.78956 -3.09369 0
M  V30 709 S 70.6276 2.57959 -3.54969 0
M  V30 710 H 67.4456 0.324173 -0.632798 0
M  V30 711 H 70.0476 0.230985 -1.94131 0
M  V30 712 H 68.7516 1.15161 -3.93911 0
M  V30 713 H 68.2826 2.56559 -2.9823 0
M  V30 714 H 70.2976 3.81309 -3.17519 0
M  V30 715 N 69.4707 1.49531 0.497807 0
M  V30 716 C 70.4177 1.66436 1.59899 0
M  V30 717 C 71.3877 0.505793 1.58212 0
M  V30 718 O 72.5727 0.733202 1.7615 0
M  V30 719 C 69.7127 1.7399 2.98029 0
M  V30 720 C 68.8257 3.01172 3.09708 0
M  V30 721 C 67.9607 2.99686 4.38591 0
M  V30 722 C 66.9997 4.21434 4.43914 0
M  V30 723 N 66.1367 4.1784 5.64229 0
M  V30 724 H 70.9767 2.60459 1.44793 0
M  V30 725 H 68.5137 1.29137 0.704423 0
M  V30 726 H 70.4717 1.76352 3.78095 0
M  V30 727 H 69.1017 0.834301 3.11832 0
M  V30 728 H 68.1537 3.08408 2.22685 0
M  V30 729 H 69.4657 3.91165 3.09502 0
M  V30 730 H 68.6197 3.00628 5.2698 0
M  V30 731 H 67.3587 2.07477 4.41367 0
M  V30 732 H 66.3637 4.20733 3.53926 0
M  V30 733 H 67.5887 5.14839 4.42851 0
M  V30 734 H 65.5347 3.28469 5.67841 0
M  V30 735 H 65.4517 5.01571 5.65652 0
M  V30 736 H 66.7197 4.22889 6.54817 0
M  V30 737 N 70.9488 -0.749086 1.3866 0
M  V30 738 C 72.3648 -1.05276 1.19955 0
M  V30 739 C 72.5648 -2.01435 0.05134 0
M  V30 740 O 71.6208 -2.45232 -0.60147 0
M  V30 741 C 72.9338 -1.62853 2.52783 0
M  V30 742 C 74.4818 -1.75002 2.59506 0
M  V30 743 C 74.9568 -2.35991 3.92521 0
M  V30 744 N 76.4478 -2.43416 3.94085 0
M  V30 745 C 77.1828 -2.91511 4.9377 0
M  V30 746 N 76.6788 -3.39608 6.03853 0
M  V30 747 N 78.4718 -2.90592 4.81157 0
M  V30 748 H 70.6228 -0.111066 2.12109 0
M  V30 749 H 72.8858 -0.111901 0.941373 0
M  V30 750 H 72.5918 -0.99664 3.37283 0
M  V30 751 H 72.4658 -2.61854 2.715 0
M  V30 752 H 74.8528 -2.37317 1.75398 0
M  V30 753 H 74.9338 -0.74693 2.44652 0
M  V30 754 H 74.5778 -1.74308 4.77053 0
M  V30 755 H 74.5078 -3.3695 4.04688 0
M  V30 756 H 76.9988 -2.09405 3.14576 0
M  V30 757 H 77.3118 -3.74775 6.75843 0
M  V30 758 H 75.6568 -3.37653 6.07466 0
M  V30 759 H 78.8478 -2.52332 3.94267 0
M  V30 760 H 79.0208 -3.27762 5.58996 0
M  V30 761 N 72.4269 -1.23603 -0.977757 0
M  V30 762 C 73.3589 -0.977369 -2.07317 0
M  V30 763 C 74.3719 0.0495845 -1.62724 0
M  V30 764 O 75.5609 -0.186261 -1.77526 0
M  V30 765 C 72.6609 -0.451216 -3.35883 0
M  V30 766 C 71.8339 -1.53896 -4.09432 0
M  V30 767 C 70.8929 -1.01721 -5.16274 0
M  V30 768 O 69.9189 -1.70676 -5.43009 0
M  V30 769 N 71.1209 0.153594 -5.80297 0
M  V30 770 H 73.8859 -1.92047 -2.30082 0
M  V30 771 H 71.4469 -1.14497 -1.14465 0
M  V30 772 H 73.4389 -0.0871574 -4.04606 0
M  V30 773 H 72.0089 0.397368 -3.10064 0
M  V30 774 H 71.2289 -2.07566 -3.35127 0
M  V30 775 H 72.5169 -2.27037 -4.55337 0
M  V30 776 H 71.9149 0.730323 -5.60966 0
M  V30 777 H 70.4719 0.458892 -6.50183 0
M  V30 778 N 73.905 1.17692 -1.04816 0
M  V30 779 C 75.321 1.39863 -0.768794 0
M  V30 780 C 75.521 1.91118 0.638451 0
M  V30 781 O 74.577 2.10036 1.40146 0
M  V30 782 C 75.89 2.39274 -1.82122 0
M  V30 783 C 77.438 2.52987 -1.843 0
M  V30 784 C 77.913 3.55669 -2.88555 0
M  V30 785 N 79.404 3.63183 -2.87493 0
M  V30 786 C 80.139 4.42381 -3.64811 0
M  V30 787 N 79.635 5.25125 -4.51903 0
M  V30 788 N 81.428 4.37217 -3.53267 0
M  V30 789 H 73.579 0.82752 -1.95617 0
M  V30 790 H 75.842 0.426123 -0.846831 0
M  V30 791 H 75.548 2.08678 -2.83102 0
M  V30 792 H 75.422 3.38725 -1.65967 0
M  V30 793 H 77.809 2.82896 -0.839869 0
M  V30 794 H 77.89 1.53623 -2.04532 0
M  V30 795 H 77.534 3.26499 -3.89051 0
M  V30 796 H 77.464 4.54728 -2.65575 0
M  V30 797 H 79.955 3.04103 -2.24343 0
M  V30 798 H 80.268 5.82728 -5.07591 0
M  V30 799 H 78.613 5.24519 -4.55966 0
M  V30 800 H 81.804 3.71626 -2.84625 0
M  V30 801 H 81.977 4.98696 -4.13771 0
M  V30 802 N 75.3831 0.828654 1.34056 0
M  V30 803 C 76.6081 0.431637 2.02859 0
M  V30 804 C 77.0331 -0.956339 1.61975 0
M  V30 805 O 76.3911 -1.62338 0.807228 0
M  V30 806 C 76.4391 0.548323 3.56407 0
M  V30 807 O 75.5431 -0.429556 4.10157 0
M  V30 808 H 74.8841 0.176886 0.640006 0
M  V30 809 H 77.4141 1.12066 1.71179 0
M  V30 810 H 77.4241 0.426196 4.05768 0
M  V30 811 H 76.0991 1.5606 3.8551 0
M  V30 812 H 74.6761 -0.265836 3.71951 0
M  V30 813 N 76.8612 -1.46375 0.584142 0
M  V30 814 C 78.1102 -2.01585 0.0679741 0
M  V30 815 C 78.4232 -1.46109 -1.30045 0
M  V30 816 O 79.6292 -1.93148 -1.90804 0
M  V30 817 C 78.0852 -3.5983 0.0709207 0
M  V30 818 C 77.6932 -4.24303 1.43775 0
M  V30 819 C 79.4372 -4.22693 -0.391228 0
M  V30 820 C 77.3442 -5.74631 1.39834 0
M  V30 821 H 76.2742 -0.753689 0.0216421 0
M  V30 822 H 78.9252 -1.68093 0.736001 0
M  V30 823 H 77.3072 -3.90405 -0.663299 0
M  V30 824 H 78.4812 -4.05335 2.19181 0
M  V30 825 H 76.7962 -3.73539 1.84004 0
M  V30 826 H 79.3932 -5.3289 -0.439524 0
M  V30 827 H 79.7362 -3.91728 -1.40906 0
M  V30 828 H 80.2692 -3.96749 0.288974 0
M  V30 829 H 77.0082 -6.10258 2.39303 0
M  V30 830 H 76.5282 -5.95858 0.686505 0
M  V30 831 H 78.2072 -6.37375 1.11187 0
M  V30 832 N 78.3393 -0.321999 -1.54275 0
M  V30 833 C 79.7553 0.0306999 -1.5957 0
M  V30 834 C 79.9553 1.50614 -1.33857 0
M  V30 835 O 79.0113 2.2619 -1.12223 0
M  V30 836 C 80.3243 -0.386122 -2.98211 0
M  V30 837 C 81.8723 -0.336647 -3.11184 0
M  V30 838 C 82.3473 -0.728607 -4.52167 0
M  V30 839 N 83.8383 -0.681952 -4.58152 0
M  V30 840 C 84.5733 -0.957449 -5.6535 0
M  V30 841 N 84.0693 -1.3 -6.80494 0
M  V30 842 N 85.8623 -0.883113 -5.55119 0
M  V30 843 H 78.0133 -1.28332 -1.69247 0
M  V30 844 H 80.2763 -0.521716 -0.791528 0
M  V30 845 H 79.9823 -1.41404 -3.22022 0
M  V30 846 H 79.8563 0.249662 -3.76373 0
M  V30 847 H 82.2433 0.682058 -2.8711 0
M  V30 848 H 82.3243 -1.00734 -2.3513 0
M  V30 849 H 81.9683 -1.74522 -4.76974 0
M  V30 850 H 81.8983 -0.0356152 -5.26588 0
M  V30 851 H 84.3893 -0.428985 -3.75457 0
M  V30 852 H 84.7023 -1.49563 -7.58189 0
M  V30 853 H 83.0473 -1.33824 -6.81994 0
M  V30 854 H 86.2383 -0.615001 -4.64042 0
M  V30 855 H 86.4113 -1.10118 -6.38575 0
M  V30 856 N 79.8174 1.5752 -0.0501392 0
M  V30 857 C 81.2284 1.80271 0.485705 0
M  V30 858 C 81.5794 0.96228 1.70981 0
M  V30 859 O 80.7044 0.178578 2.15662 0
M  V30 860 C 81.2994 3.26957 0.887938 0
M  V30 861 C 79.8584 3.5063 1.36877 0
M  V30 862 C 79.0054 2.75165 0.343468 0
M  V30 863 H 81.9564 1.56281 -0.276028 0
M  V30 864 H 81.9774 3.37821 1.75093 0
M  V30 865 H 81.4894 3.881 -0.0031809 0
M  V30 866 H 79.5904 2.94766 2.27911 0
M  V30 867 H 79.7034 4.59343 1.36164 0
M  V30 868 H 78.0674 2.4127 0.816128 0
M  V30 869 H 78.8504 3.39034 -0.539548 0
M  V30 870 N 81.2955 -0.223234 1.56011 0
M  V30 871 C 82.5435 -0.946003 1.78592 0
M  V30 872 C 82.8645 -1.84936 0.618349 0
M  V30 873 O 82.1345 -1.92473 -0.364833 0
M  V30 874 H 80.7145 -0.352298 0.658707 0
M  V30 875 H 83.3765 -0.235494 1.93472 0
M  V30 876 H 82.4725 -1.55381 2.70672 0
M  V30 877 N 82.7736 -1.49793 -0.48987 0
M  V30 878 C 83.7036 -1.70201 -1.59856 0
M  V30 879 C 84.6846 -0.55076 -1.60937 0
M  V30 880 O 85.8696 -0.787841 -1.77501 0
M  V30 881 C 82.9996 -1.77882 -2.98287 0
M  V30 882 C 81.9536 -2.92907 -3.12073 0
M  V30 883 C 81.2796 -2.85712 -4.51965 0
M  V30 884 C 82.5796 -4.3369 -2.91051 0
M  V30 885 H 84.2736 -2.63025 -1.43032 0
M  V30 886 H 81.8196 -1.26574 -0.686664 0
M  V30 887 H 83.7726 -1.90744 -3.75759 0
M  V30 888 H 82.4966 -0.816653 -3.16225 0
M  V30 889 H 81.1556 -2.79665 -2.37029 0
M  V30 890 H 80.8036 -1.8738 -4.66795 0
M  V30 891 H 80.5036 -3.62921 -4.62128 0
M  V30 892 H 82.0276 -3.00598 -5.31482 0
M  V30 893 H 83.4416 -4.47555 -3.58284 0
M  V30 894 H 81.8386 -5.12205 -3.12675 0
M  V30 895 H 82.9086 -4.47362 -1.87071 0
M  V30 896 N 84.2517 0.741722 -1.39055 0
M  V30 897 C 85.4767 1.53607 -1.39354 0
M  V30 898 C 85.9017 1.88096 0.0116905 0
M  V30 899 O 85.2597 1.5143 0.996924 0
M  V30 900 C 85.3077 2.80441 -2.26682 0
M  V30 901 O 84.4117 3.76088 -1.69208 0
M  V30 902 H 83.7527 0.464142 -0.474835 0
M  V30 903 H 86.2827 0.915665 -1.82967 0
M  V30 904 H 86.2927 3.29246 -2.40959 0
M  V30 905 H 84.9677 2.5467 -3.2881 0
M  V30 906 H 83.5447 3.34833 -1.64138 0
M  V30 907 N 85.7298 1.2412 0.971189 0
M  V30 908 C 87.1408 1.07236 1.52831 0
M  V30 909 C 87.4918 -0.357352 1.92918 0
M  V30 910 O 86.6168 -1.24528 1.76979 0
M  V30 911 C 87.2118 1.94043 2.77728 0
M  V30 912 C 85.7708 1.81394 3.29808 0
M  V30 913 C 84.9178 1.89189 2.02738 0
M  V30 914 H 87.8688 1.37648 0.789864 0
M  V30 915 H 87.8898 1.47066 3.5093 0
M  V30 916 H 87.4018 2.98093 2.4852 0
M  V30 917 H 85.5028 0.801634 3.63874 0
M  V30 918 H 85.6158 2.65294 3.98944 0
M  V30 919 H 83.9798 1.32877 2.17292 0
M  V30 920 H 84.7628 2.94812 1.759 0
M  V30 921 N 87.2079 -1.17134 1.05439 0
M  V30 922 C 88.4379 -1.91094 0.785274 0
M  V30 923 C 88.8459 -1.77198 -0.663142 0
M  V30 924 O 88.1889 -1.10835 -1.46497 0
M  V30 925 C 88.2509 -3.42594 1.08949 0
M  V30 926 C 87.9149 -3.80274 2.53458 0
M  V30 927 C 88.9119 -3.82912 3.51673 0
M  V30 928 C 86.5969 -4.11162 2.88532 0
M  V30 929 C 88.5909 -4.15913 4.83006 0
M  V30 930 C 86.2779 -4.43831 4.20068 0
M  V30 931 C 87.2759 -4.46185 5.17115 0
M  V30 932 O 86.9639 -4.78083 6.46291 0
M  V30 933 H 86.6959 -0.613073 0.284811 0
M  V30 934 H 89.2499 -1.49461 1.40893 0
M  V30 935 H 87.4799 -3.84534 0.408741 0
M  V30 936 H 89.1689 -3.97817 0.805991 0
M  V30 937 H 89.9349 -3.5917 3.25917 0
M  V30 938 H 85.8139 -4.085 2.13656 0
M  V30 939 H 89.3579 -4.17665 5.5875 0
M  V30 940 H 85.2549 -4.67037 4.45586 0
M  V30 941 H 86.0229 -4.9593 6.51149 0
M  V30 942 N 88.686 -0.835752 -1.33615 0
M  V30 943 C 90.102 -0.523139 -1.50783 0
M  V30 944 C 90.302 0.950171 -1.77691 0
M  V30 945 O 89.358 1.73411 -1.83534 0
M  V30 946 C 90.671 -1.39378 -2.66448 0
M  V30 947 C 92.219 -1.39223 -2.80332 0
M  V30 948 C 92.694 -2.24765 -3.99055 0
M  V30 949 N 94.185 -2.22458 -4.06284 0
M  V30 950 C 94.92 -2.85386 -4.97336 0
M  V30 951 N 94.416 -3.57354 -5.93523 0
M  V30 952 N 96.209 -2.74872 -4.90308 0
M  V30 953 H 88.36 -1.78952 -1.14411 0
M  V30 954 H 90.623 -0.763297 -0.562212 0
M  V30 955 H 90.329 -2.44061 -2.53234 0
M  V30 956 H 90.203 -1.0676 -3.61776 0
M  V30 957 H 92.59 -0.353136 -2.92979 0
M  V30 958 H 92.671 -1.75846 -1.85773 0
M  V30 959 H 92.315 -3.28732 -3.87167 0
M  V30 960 H 92.245 -1.85485 -4.92852 0
M  V30 961 H 94.736 -1.70119 -3.37443 0
M  V30 962 H 95.049 -4.02584 -6.59656 0
M  V30 963 H 93.394 -3.61461 -5.93608 0
M  V30 964 H 96.585 -2.18213 -4.14126 0
M  V30 965 H 96.758 -3.24199 -5.61069 0
M  V30 966 N 90.1641 1.46063 -0.591896 0
M  V30 967 C 91.1271 2.28854 0.125973 0
M  V30 968 C 92.1271 1.38903 0.810107 0
M  V30 969 O 93.3171 1.61186 0.66066 0
M  V30 970 C 90.4491 3.19526 1.1881 0
M  V30 971 H 91.6421 2.93802 -0.601717 0
M  V30 972 H 89.1951 1.52325 -0.350254 0
M  V30 973 H 89.9301 2.59345 1.94707 0
M  V30 974 H 89.7151 3.85766 0.701936 0
M  V30 975 H 91.2051 3.81817 1.69132 0
M  V30 976 N 91.6422 0.330177 1.54103 0
M  V30 977 C 92.5722 -0.525353 2.27513 0
M  V30 978 C 93.5532 -1.11383 1.2856 0
M  V30 979 O 94.7382 -1.13773 1.57383 0
M  V30 980 C 91.8682 -1.6831 3.03791 0
M  V30 981 C 90.8222 -1.2236 4.10137 0
M  V30 982 C 90.1482 -2.46882 4.74293 0
M  V30 983 C 91.4482 -0.333697 5.21233 0
M  V30 984 H 93.1422 0.087013 2.99274 0
M  V30 985 H 90.6882 0.0432893 1.43935 0
M  V30 986 H 92.6412 -2.28795 3.5388 0
M  V30 987 H 91.3652 -2.32216 2.29659 0
M  V30 988 H 90.0242 -0.64165 3.60941 0
M  V30 989 H 89.6722 -3.09165 3.96769 0
M  V30 990 H 89.3722 -2.16825 5.46133 0
M  V30 991 H 90.8962 -3.08117 5.27159 0
M  V30 992 H 92.3102 -0.845013 5.67038 0
M  V30 993 H 90.7072 -0.125612 5.99969 0
M  V30 994 H 91.7772 0.633724 4.80741 0
M  V30 995 N 93.1203 -1.57491 0.0584922 0
M  V30 996 C 94.0503 -2.14988 -0.911178 0
M  V30 997 C 95.0313 -1.07343 -1.31952 0
M  V30 998 O 96.2163 -1.35318 -1.39294 0
M  V30 999 C 93.3463 -2.70078 -2.18347 0
M  V30 1000 C 92.3003 -3.82771 -1.91495 0
M  V30 1001 C 91.6263 -4.24408 -3.25241 0
M  V30 1002 C 92.9263 -5.07592 -1.23075 0
M  V30 1003 H 94.6203 -2.96263 -0.432246 0
M  V30 1004 H 92.1663 -1.42512 -0.206469 0
M  V30 1005 H 94.1193 -3.08943 -2.86587 0
M  V30 1006 H 92.8433 -1.86005 -2.68458 0
M  V30 1007 H 91.5023 -3.44389 -1.25664 0
M  V30 1008 H 91.1503 -3.37275 -3.73168 0
M  V30 1009 H 90.8503 -5.00366 -3.08071 0
M  V30 1010 H 92.3743 -4.65879 -3.94701 0
M  V30 1011 H 93.7883 -5.43857 -1.81362 0
M  V30 1012 H 92.1853 -5.88741 -1.16207 0
M  V30 1013 H 93.2553 -4.84454 -0.207847 0
M  V30 1014 N 94.5984 0.214957 -1.56127 0
M  V30 1015 C 95.8754 0.963093 -1.70247 0
M  V30 1016 C 96.2554 2.02166 -0.60764 0
M  V30 1017 O 95.6034 2.25244 0.384385 0
M  V30 1018 C 95.8134 1.56756 -3.11815 0
M  V30 1019 C 97.1614 2.0573 -3.7143 0
M  V30 1020 O 98.1854 1.66637 -3.14818 0
M  V30 1021 O 97.0444 2.77603 -4.70743 0
M  V30 1022 H 94.1384 0.450321 -0.693643 0
M  V30 1023 H 96.6844 0.206219 -1.68442 0
M  V30 1024 H 95.4564 0.803533 -3.82961 0
M  V30 1025 H 95.0794 2.3898 -3.17765 0
M  V30 1026 N 96.0765 1.50051 0.48192 0
M  V30 1027 C 97.3015 1.64508 1.26301 0
M  V30 1028 C 97.7265 0.323851 1.85291 0
M  V30 1029 O 97.0845 -0.710969 1.66778 0
M  V30 1030 C 97.1325 2.7305 2.35533 0
M  V30 1031 O 96.2365 2.3355 3.39895 0
M  V30 1032 H 95.5775 0.549978 0.372048 0
M  V30 1033 H 98.1075 1.9636 0.574786 0
M  V30 1034 H 98.1175 2.95799 2.8101 0
M  V30 1035 H 96.7925 3.68946 1.91967 0
M  V30 1036 H 95.3695 2.21205 3.00204 0
M  V30 1037 N 97.5546 -0.734337 1.39446 0
M  V30 1038 C 98.4846 -1.86155 1.40955 0
M  V30 1039 C 99.4656 -1.67898 0.272827 0
M  V30 1040 O 100.651 -1.88207 0.478743 0
M  V30 1041 C 97.7806 -3.23912 1.25294 0
M  V30 1042 C 96.7346 -3.56808 2.36373 0
M  V30 1043 C 96.0606 -4.93508 2.058 0
M  V30 1044 C 97.3606 -3.59713 3.78687 0
M  V30 1045 H 99.0546 -1.8515 2.35287 0
M  V30 1046 H 96.6006 -0.889367 1.13253 0
M  V30 1047 H 98.5536 -4.02443 1.2497 0
M  V30 1048 H 97.2776 -3.25446 0.274308 0
M  V30 1049 H 95.9366 -2.80606 2.35914 0
M  V30 1050 H 95.5846 -4.91623 1.06374 0
M  V30 1051 H 95.2846 -5.16486 2.80208 0
M  V30 1052 H 96.8086 -5.74396 2.07128 0
M  V30 1053 H 98.2226 -4.2832 3.81071 0
M  V30 1054 H 96.6196 -3.94209 4.52459 0
M  V30 1055 H 97.6896 -2.59504 4.09617 0
M  V30 1056 N 99.0327 -1.24633 -0.964593 0
M  V30 1057 C 99.9647 -0.999302 -2.06268 0
M  V30 1058 C 100.978 0.0323226 -1.62768 0
M  V30 1059 O 102.167 -0.205079 -1.77318 0
M  V30 1060 C 99.2667 -0.486816 -3.35385 0
M  V30 1061 C 98.4397 -1.5823 -4.07777 0
M  V30 1062 C 97.4987 -1.07191 -5.15166 0
M  V30 1063 O 96.5247 -1.76426 -5.41168 0
M  V30 1064 N 97.7267 0.0920373 -5.80427 0
M  V30 1065 H 100.492 -1.94477 -2.28033 0
M  V30 1066 H 98.0527 -1.15704 -1.13244 0
M  V30 1067 H 100.045 -0.130066 -4.04491 0
M  V30 1068 H 98.6147 0.364459 -3.10468 0
M  V30 1069 H 97.8347 -2.11109 -3.32906 0
M  V30 1070 H 99.1227 -2.31854 -4.52903 0
M  V30 1071 H 98.5207 0.670784 -5.61709 0
M  V30 1072 H 97.0777 0.389905 -6.50633 0
M  V30 1073 N 100.511 1.16574 -1.06058 0
M  V30 1074 C 101.441 2.23057 -0.690488 0
M  V30 1075 C 102.422 1.67141 0.315901 0
M  V30 1076 O 103.607 1.93253 0.191556 0
M  V30 1077 C 100.737 3.47222 -0.073625 0
M  V30 1078 C 99.6908 4.16016 -1.00573 0
M  V30 1079 C 99.0168 5.34104 -0.252289 0
M  V30 1080 C 100.317 4.67264 -2.33371 0
M  V30 1081 H 102.011 2.54271 -1.58072 0
M  V30 1082 H 99.5568 1.22218 -0.76149 0
M  V30 1083 H 101.51 4.20939 0.19714 0
M  V30 1084 H 100.234 3.15302 0.85161 0
M  V30 1085 H 98.8928 3.44223 -1.2612 0
M  V30 1086 H 98.5408 4.98437 0.675988 0
M  V30 1087 H 98.2408 5.81072 -0.873455 0
M  V30 1088 H 99.7648 6.10599 0.0109857 0
M  V30 1089 H 101.179 5.32573 -2.12223 0
M  V30 1090 H 99.5758 5.24843 -2.90963 0
M  V30 1091 H 100.646 3.83602 -2.96611 0
M  V30 1092 N 101.989 0.842826 1.3317 0
M  V30 1093 C 103.237 0.439577 1.97262 0
M  V30 1094 C 103.558 -1.00548 1.67078 0
M  V30 1095 O 102.828 -1.70098 0.971779 0
M  V30 1096 H 101.408 0.159558 0.72976 0
M  V30 1097 H 104.07 1.07665 1.62463 0
M  V30 1098 H 103.166 0.574886 3.0676 0
M  V30 1099 N 103.467 -1.45747 0.599634 0
M  V30 1100 C 104.878 -1.85853 0.177681 0
M  V30 1101 C 105.229 -1.50102 -1.26348 0
M  V30 1102 O 104.354 -0.923905 -1.95686 0
M  V30 1103 C 104.949 -3.37326 0.315688 0
M  V30 1104 C 103.508 -3.76365 -0.0515144 0
M  V30 1105 C 102.655 -2.69722 0.643822 0
M  V30 1106 H 105.606 -1.36661 0.806814 0
M  V30 1107 H 105.627 -3.77778 -0.454321 0
M  V30 1108 H 105.139 -3.63315 1.36468 0
M  V30 1109 H 103.24 -3.55993 -1.09999 0
M  V30 1110 H 103.353 -4.77916 0.336594 0
M  V30 1111 H 101.717 -2.54567 0.0822881 0
M  V30 1112 H 102.5 -2.98549 1.6948 0
M  V30 1113 N 104.945 -0.338344 -1.53925 0
M  V30 1114 C 106.222 0.314774 -1.93051 0
M  V30 1115 C 106.602 1.68669 -1.26941 0
M  V30 1116 O 105.95 2.24636 -0.418445 0
M  V30 1117 C 106.16 0.392249 -3.46789 0
M  V30 1118 C 107.508 0.645554 -4.19664 0
M  V30 1119 O 108.532 0.474575 -3.53024 0
M  V30 1120 O 107.391 0.976408 -5.37707 0
M  V30 1121 H 104.485 0.182598 -0.80659 0
M  V30 1122 H 107.031 -0.389141 -1.65178 0
M  V30 1123 H 105.803 -0.570702 -3.87116 0
M  V30 1124 H 105.426 1.14316 -3.80812 0
M  V30 1125 N 106.423 1.57458 -0.0668435 0
M  V30 1126 C 107.648 1.9804 0.616027 0
M  V30 1127 C 108.073 0.944771 1.62652 0
M  V30 1128 O 107.431 -0.0902094 1.81075 0
M  V30 1129 C 107.479 3.37665 1.26549 0
M  V30 1130 O 106.583 3.36701 2.38131 0
M  V30 1131 H 105.924 0.644719 0.158849 0
M  V30 1132 H 108.454 2.04121 -0.139891 0
M  V30 1133 H 108.464 3.7474 1.6135 0
M  V30 1134 H 107.139 4.12573 0.525016 0
M  V30 1135 H 105.716 3.1139 2.0516 0
M  V30 1136 N 107.901 -0.206675 1.56239 0
M  V30 1137 C 108.831 -1.25909 1.96645 0
M  V30 1138 C 109.812 -1.48097 0.836734 0
M  V30 1139 O 110.997 -1.6003 1.10019 0
M  V30 1140 C 108.127 -2.6058 2.29599 0
M  V30 1141 C 107.081 -2.53024 3.452 0
M  V30 1142 C 106.407 -3.91861 3.63798 0
M  V30 1143 C 107.707 -2.06524 4.79734 0
M  V30 1144 H 109.401 -0.923369 2.84806 0
M  V30 1145 H 106.947 -0.442735 1.37025 0
M  V30 1146 H 108.9 -3.34375 2.56459 0
M  V30 1147 H 107.624 -2.95869 1.38307 0
M  V30 1148 H 106.283 -1.81684 3.18412 0
M  V30 1149 H 105.931 -4.24483 2.69857 0
M  V30 1150 H 105.631 -3.87683 4.4156 0
M  V30 1151 H 107.155 -4.67296 3.93022 0
M  V30 1152 H 108.569 -2.70072 5.05702 0
M  V30 1153 H 106.966 -2.13374 5.60885 0
M  V30 1154 H 108.036 -1.01802 4.74093 0
M  V30 1155 N 109.379 -1.50304 -0.473955 0
M  V30 1156 C 110.607 -1.64902 -1.24959 0
M  V30 1157 C 111.022 -0.331198 -1.85872 0
M  V30 1158 O 110.379 0.68652 -1.69095 0
M  V30 1159 C 110.43 -2.73803 -2.36038 0
M  V30 1160 O 110.151 -4.00477 -1.77624 0
M  V30 1161 C 111.652 -2.99349 -3.26964 0
M  V30 1162 H 108.872 -0.554383 -0.378022 0
M  V30 1163 H 111.416 -1.9651 -0.566054 0
M  V30 1164 H 109.571 -2.44898 -3.00173 0
M  V30 1165 H 109.985 -4.60678 -2.5075 0
M  V30 1166 H 111.459 -3.79217 -4.01121 0
M  V30 1167 H 111.936 -2.10307 -3.85574 0
M  V30 1168 H 112.542 -3.29774 -2.68569 0
M  V30 1169 N 110.857 0.726932 -1.39834 0
M  V30 1170 C 112.103 1.48884 -1.377 0
M  V30 1171 C 112.436 1.94185 0.0244852 0
M  V30 1172 O 111.711 1.67361 0.990986 0
M  V30 1173 C 111.994 2.72288 -2.3565 0
M  V30 1174 C 111.847 2.32956 -3.84775 0
M  V30 1175 C 113.166 3.74414 -2.31306 0
M  V30 1176 H 110.285 0.540062 -0.5015 0
M  V30 1177 H 112.927 0.830547 -1.70886 0
M  V30 1178 H 111.077 3.28457 -2.07481 0
M  V30 1179 H 112.749 1.82356 -4.23726 0
M  V30 1180 H 110.992 1.65088 -4.01159 0
M  V30 1181 H 111.663 3.21362 -4.4881 0
M  V30 1182 H 114.139 3.27849 -2.56231 0
M  V30 1183 H 113.015 4.58414 -3.01907 0
M  V30 1184 H 113.276 4.21909 -1.32081 0
M  V30 1185 N 112.336 1.25143 0.95797 0
M  V30 1186 C 113.286 1.01924 2.0395 0
M  V30 1187 C 114.27 -0.0427175 1.60843 0
M  V30 1188 O 115.462 0.17221 1.7616 0
M  V30 1189 C 112.591 0.636373 3.3735 0
M  V30 1190 C 111.677 1.73492 3.8699 0
M  V30 1191 N 112.068 2.96945 4.0946 0
M  V30 1192 C 110.366 1.61467 4.15746 0
M  V30 1193 C 111.067 3.68228 4.50315 0
M  V30 1194 N 110.043 2.95833 4.56053 0
M  V30 1195 H 113.845 1.95653 2.19311 0
M  V30 1196 H 111.359 1.15413 1.14253 0
M  V30 1197 H 113.356 0.451233 4.14451 0
M  V30 1198 H 112.016 -0.293621 3.2337 0
M  V30 1199 H 113.027 3.33025 3.96629 0
M  V30 1200 H 109.704 0.753394 4.10646 0
M  V30 1201 H 111.094 4.74178 4.76031 0
M  V30 1202 N 113.814 -1.1601 1.06675 0
M  V30 1203 C 114.744 -2.22688 0.702307 0
M  V30 1204 C 115.725 -1.67306 -0.307032 0
M  V30 1205 O 116.91 -1.93352 -0.181305 0
M  V30 1206 C 114.04 -3.47178 0.092038 0
M  V30 1207 C 112.994 -4.15477 1.02777 0
M  V30 1208 C 112.32 -5.33963 0.28061 0
M  V30 1209 C 113.62 -4.66019 2.35846 0
M  V30 1210 H 115.314 -2.53429 1.59419 0
M  V30 1211 H 112.86 -1.21813 0.767961 0
M  V30 1212 H 114.813 -4.21037 -0.174814 0
M  V30 1213 H 113.537 -3.15749 -0.834877 0
M  V30 1214 H 112.196 -3.43549 1.27944 0
M  V30 1215 H 111.844 -4.98788 -0.649545 0
M  V30 1216 H 111.544 -5.806 0.904258 0
M  V30 1217 H 113.068 -6.10596 0.021396 0
M  V30 1218 H 114.482 -5.3144 2.15045 0
M  V30 1219 H 112.879 -5.23293 2.93743 0
M  V30 1220 H 113.949 -3.82023 2.98641 0
M  V30 1221 N 115.292 -0.849877 -1.32721 0
M  V30 1222 C 116.541 -0.447175 -1.96681 0
M  V30 1223 C 116.854 1.00135 -1.68025 0
M  V30 1224 O 118.06 1.50926 -2.25685 0
M  V30 1225 C 116.516 -0.7487 -3.52026 0
M  V30 1226 C 116.124 -2.21264 -3.89546 0
M  V30 1227 C 117.868 -0.413487 -4.22481 0
M  V30 1228 C 115.775 -2.45763 -5.37917 0
M  V30 1229 H 114.705 -0.163486 -0.736063 0
M  V30 1230 H 117.356 -1.03999 -1.51183 0
M  V30 1231 H 115.738 -0.0853727 -3.95908 0
M  V30 1232 H 116.912 -2.91736 -3.56689 0
M  V30 1233 H 115.227 -2.5119 -3.32103 0
M  V30 1234 H 117.824 -0.574017 -5.3161 0
M  V30 1235 H 118.167 0.644492 -4.11281 0
M  V30 1236 H 118.7 -1.03251 -3.84167 0
M  V30 1237 H 115.439 -3.50168 -5.54132 0
M  V30 1238 H 114.959 -1.79864 -5.72197 0
M  V30 1239 H 116.638 -2.29471 -6.0494 0
M  V30 1240 N 116.77 1.45427 -0.607355 0
M  V30 1241 C 117.72 2.27612 0.133038 0
M  V30 1242 C 118.704 1.37307 0.838785 0
M  V30 1243 O 119.896 1.61299 0.728813 0
M  V30 1244 C 117.025 3.24173 1.12991 0
M  V30 1245 C 116.111 4.21965 0.425011 0
M  V30 1246 N 116.502 5.02982 -0.533217 0
M  V30 1247 C 114.8 4.40899 0.672593 0
M  V30 1248 C 115.501 5.73931 -0.947518 0
M  V30 1249 N 114.477 5.42819 -0.291321 0
M  V30 1250 H 118.279 2.87649 -0.602935 0
M  V30 1251 H 115.793 1.56576 -0.431006 0
M  V30 1252 H 117.79 3.81783 1.67473 0
M  V30 1253 H 116.45 2.65696 1.86644 0
M  V30 1254 H 117.461 5.09843 -0.90995 0
M  V30 1255 H 114.138 3.93547 1.39382 0
M  V30 1256 H 115.528 6.49037 -1.73782 0
M  V30 1257 N 118.248 0.346503 1.53744 0
M  V30 1258 C 119.158 -0.517293 2.28826 0
M  V30 1259 C 120.174 -1.10935 1.3405 0
M  V30 1260 O 121.35 -1.1244 1.6709 0
M  V30 1261 C 118.415 -1.65098 3.04866 0
M  V30 1262 C 117.476 -1.0884 4.15274 0
M  V30 1263 C 116.709 -2.16806 4.87679 0
M  V30 1264 O 116.932 -3.3758 4.59778 0
M  V30 1265 O 115.866 -1.80934 5.74061 0
M  V30 1266 H 119.692 0.0931396 3.03557 0
M  V30 1267 H 117.277 0.111458 1.48984 0
M  V30 1268 H 119.159 -2.31053 3.5241 0
M  V30 1269 H 117.834 -2.24717 2.32989 0
M  V30 1270 H 116.741 -0.3933 3.72027 0
M  V30 1271 H 118.074 -0.537036 4.89261 0
M  V30 1272 N 119.726 -1.57421 0.075193 0
M  V30 1273 C 120.972 -1.93905 -0.594025 0
M  V30 1274 C 121.305 -0.955701 -1.69056 0
M  V30 1275 O 120.58 0.0145373 -1.94495 0
M  V30 1276 C 120.863 -3.40638 -1.1678 0
M  V30 1277 C 120.716 -4.49733 -0.0776792 0
M  V30 1278 C 122.035 -3.88259 -2.07228 0
M  V30 1279 H 119.154 -0.705105 -0.214466 0
M  V30 1280 H 121.796 -1.8947 0.141854 0
M  V30 1281 H 119.946 -3.44549 -1.79494 0
M  V30 1282 H 121.618 -4.57942 0.555573 0
M  V30 1283 H 119.861 -4.29751 0.591286 0
M  V30 1284 H 120.532 -5.49549 -0.519603 0
M  V30 1285 H 123.008 -3.86376 -1.54445 0
M  V30 1286 H 121.884 -4.91533 -2.44308 0
M  V30 1287 H 122.145 -3.26396 -2.98191 0
M  V30 1288 N 121.204 0.198386 -1.56346 0
M  V30 1289 C 122.432 0.935572 -1.84539 0
M  V30 1290 C 122.847 1.76989 -0.657281 0
M  V30 1291 O 122.204 1.78626 0.374043 0
M  V30 1292 C 122.255 1.8344 -3.11499 0
M  V30 1293 O 121.976 1.03377 -4.25728 0
M  V30 1294 C 123.477 2.68355 -3.52846 0
M  V30 1295 H 120.697 0.273126 -0.612897 0
M  V30 1296 H 123.241 0.20663 -2.03453 0
M  V30 1297 H 121.396 2.51701 -2.94492 0
M  V30 1298 H 121.81 1.64599 -4.98003 0
M  V30 1299 H 123.284 3.27085 -4.44657 0
M  V30 1300 H 123.761 3.41901 -2.75681 0
M  V30 1301 H 124.367 2.05471 -3.72373 0
M  V30 1302 N 122.682 1.50554 0.465978 0
M  V30 1303 C 123.629 1.6979 1.56333 0
M  V30 1304 C 124.599 0.539239 1.57103 0
M  V30 1305 O 125.784 0.770401 1.74555 0
M  V30 1306 C 122.924 1.80273 2.94271 0
M  V30 1307 C 122.037 3.07674 3.0325 0
M  V30 1308 C 121.172 3.08922 4.32135 0
M  V30 1309 C 120.211 4.30755 4.34875 0
M  V30 1310 N 119.348 4.29714 5.55239 0
M  V30 1311 H 124.188 2.63472 1.39235 0
M  V30 1312 H 121.725 1.30602 0.676873 0
M  V30 1313 H 123.683 1.84332 3.74269 0
M  V30 1314 H 122.313 0.900258 3.09992 0
M  V30 1315 H 121.365 3.13062 2.16094 0
M  V30 1316 H 122.677 3.97642 3.01135 0
M  V30 1317 H 121.831 3.11738 5.20485 0
M  V30 1318 H 120.57 2.16792 4.36866 0
M  V30 1319 H 119.575 4.28146 3.44922 0
M  V30 1320 H 120.8 5.24117 4.31831 0
M  V30 1321 H 118.746 3.4044 5.60746 0
M  V30 1322 H 118.663 5.13456 5.54886 0
M  V30 1323 H 119.931 4.36683 6.457 0
M  V30 1324 N 124.16 -0.719506 1.40217 0
M  V30 1325 C 125.406 -1.48152 1.38488 0
M  V30 1326 C 125.739 -1.94195 -0.0141867 0
M  V30 1327 O 125.014 -1.67884 -0.982096 0
M  V30 1328 C 125.297 -2.71035 2.37091 0
M  V30 1329 C 125.15 -2.30912 3.86005 0
M  V30 1330 C 126.469 -3.73182 2.33288 0
M  V30 1331 H 123.588 -0.537395 0.504357 0
M  V30 1332 H 126.23 -0.821472 1.71324 0
M  V30 1333 H 124.38 -3.27352 2.0922 0
M  V30 1334 H 126.052 -1.80107 4.24687 0
M  V30 1335 H 124.295 -1.62958 4.02029 0
M  V30 1336 H 124.966 -3.18978 4.50508 0
M  V30 1337 H 127.442 -3.26485 2.57966 0
M  V30 1338 H 126.318 -4.56806 3.04334 0
M  V30 1339 H 126.579 -4.21202 1.34317 0
M  V30 1340 N 125.638 -1.25649 -0.95132 0
M  V30 1341 C 126.568 -1.08808 -2.06599 0
M  V30 1342 C 127.549 0.00382547 -1.701 0
M  V30 1343 O 128.734 -0.166325 -1.93486 0
M  V30 1344 C 125.864 -0.709542 -3.39975 0
M  V30 1345 C 124.818 -1.75206 -3.90496 0
M  V30 1346 C 124.144 -1.22811 -5.20405 0
M  V30 1347 C 125.444 -3.15153 -4.16504 0
M  V30 1348 H 127.138 -2.02048 -2.20946 0
M  V30 1349 H 124.684 -0.972835 -1.06169 0
M  V30 1350 H 126.637 -0.578649 -4.17408 0
M  V30 1351 H 125.361 0.258556 -3.25575 0
M  V30 1352 H 124.02 -1.87145 -3.15234 0
M  V30 1353 H 123.668 -0.250145 -5.02378 0
M  V30 1354 H 123.368 -1.92492 -5.55176 0
M  V30 1355 H 124.892 -1.10968 -6.00432 0
M  V30 1356 H 126.306 -3.06349 -4.84586 0
M  V30 1357 H 124.703 -3.82333 -4.62538 0
M  V30 1358 H 125.773 -3.61966 -3.22658 0
M  V30 1359 N 127.117 1.15442 -1.07289 0
M  V30 1360 C 128.047 2.22312 -0.714107 0
M  V30 1361 C 129.028 1.67467 0.298155 0
M  V30 1362 O 130.213 1.93445 0.171048 0
M  V30 1363 C 127.343 3.47124 -0.110448 0
M  V30 1364 C 126.297 4.14926 -1.04979 0
M  V30 1365 C 125.623 5.33807 -0.308924 0
M  V30 1366 C 126.923 4.64762 -2.38314 0
M  V30 1367 H 128.617 2.5258 -1.6076 0
M  V30 1368 H 126.163 1.21404 -0.77441 0
M  V30 1369 H 128.116 4.21124 0.152482 0
M  V30 1370 H 126.84 3.16187 0.81812 0
M  V30 1371 H 125.499 3.42866 -1.29764 0
M  V30 1372 H 125.147 4.99126 0.623084 0
M  V30 1373 H 124.847 5.80113 -0.935036 0
M  V30 1374 H 126.371 6.10576 -0.0537771 0
M  V30 1375 H 127.785 5.30292 -2.1786 0
M  V30 1376 H 126.182 5.21728 -2.96514 0
M  V30 1377 H 127.252 3.80434 -3.00663 0
M  V30 1378 N 128.595 0.856903 1.32268 0
M  V30 1379 C 129.841 0.462069 1.97466 0
M  V30 1380 C 130.174 -0.980298 1.67642 0
M  V30 1381 O 129.449 -1.68824 0.965858 0
M  V30 1382 C 129.732 0.704336 3.53145 0
M  V30 1383 C 129.585 2.19529 3.9259 0
M  V30 1384 C 130.904 0.1622 4.39801 0
M  V30 1385 H 128.023 0.169357 0.717278 0
M  V30 1386 H 130.665 1.07574 1.56614 0
M  V30 1387 H 128.815 0.181999 3.88073 0
M  V30 1388 H 130.487 2.78387 3.67829 0
M  V30 1389 H 128.73 2.67292 3.41668 0
M  V30 1390 H 129.401 2.31549 5.01088 0
M  V30 1391 H 131.877 0.608905 4.11621 0
M  V30 1392 H 130.753 0.361265 5.4771 0
M  V30 1393 H 131.014 -0.935158 4.32096 0
M  V30 1394 N 130.073 -1.45103 0.615059 0
M  V30 1395 C 131.003 -2.33339 -0.0865619 0
M  V30 1396 C 131.984 -1.4727 -0.851209 0
M  V30 1397 O 133.169 -1.76026 -0.820281 0
M  V30 1398 C 130.299 -3.30095 -1.07956 0
M  V30 1399 C 129.253 -4.25858 -0.427628 0
M  V30 1400 C 128.579 -5.12361 -1.5294 0
M  V30 1401 C 129.879 -5.18165 0.655944 0
M  V30 1402 H 131.573 -2.92254 0.650224 0
M  V30 1403 H 129.119 -1.40532 0.314138 0
M  V30 1404 H 131.072 -3.90698 -1.57901 0
M  V30 1405 H 129.796 -2.69355 -1.84703 0
M  V30 1406 H 128.455 -3.66564 0.0510292 0
M  V30 1407 H 128.103 -4.47984 -2.28734 0
M  V30 1408 H 127.803 -5.77238 -1.09865 0
M  V30 1409 H 129.327 -5.75833 -2.03098 0
M  V30 1410 H 130.741 -5.72796 0.240257 0
M  V30 1411 H 129.138 -5.91559 1.00888 0
M  V30 1412 H 130.208 -4.60144 1.52957 0
M  V30 1413 N 131.551 -0.354651 -1.53558 0
M  V30 1414 C 132.461 0.50515 -2.29097 0
M  V30 1415 C 133.477 1.10223 -1.34636 0
M  V30 1416 O 134.653 1.11553 -1.67684 0
M  V30 1417 C 131.718 1.63479 -3.05738 0
M  V30 1418 C 130.779 1.06636 -4.15845 0
M  V30 1419 C 130.012 2.14217 -4.88822 0
M  V30 1420 O 130.235 3.35137 -4.61562 0
M  V30 1421 O 129.169 1.77887 -5.75013 0
M  V30 1422 H 132.995 -0.109237 -3.03503 0
M  V30 1423 H 130.58 -0.119357 -1.48922 0
M  V30 1424 H 132.462 2.2918 -3.5363 0
M  V30 1425 H 131.137 2.23478 -2.34178 0
M  V30 1426 H 130.044 0.373565 -3.7223 0
M  V30 1427 H 131.377 0.511081 -4.89539 0
M  V30 1428 N 133.029 1.57378 -0.0835403 0
M  V30 1429 C 133.959 2.1641 0.87686 0
M  V30 1430 C 134.94 1.09429 1.30228 0
M  V30 1431 O 136.125 1.37516 1.37124 0
M  V30 1432 C 133.255 2.73517 2.14022 0
M  V30 1433 C 132.209 3.85769 1.85381 0
M  V30 1434 C 131.535 4.29529 3.18448 0
M  V30 1435 C 132.835 5.09486 1.14984 0
M  V30 1436 H 134.529 2.96914 0.385059 0
M  V30 1437 H 132.075 1.42823 0.18377 0
M  V30 1438 H 134.028 3.13463 2.81636 0
M  V30 1439 H 132.752 1.90252 2.65465 0
M  V30 1440 H 131.411 3.46345 1.20169 0
M  V30 1441 H 131.059 3.43169 3.67755 0
M  V30 1442 H 130.759 5.05204 3.00071 0
M  V30 1443 H 132.283 4.72099 3.8724 0
M  V30 1444 H 133.697 5.46674 1.72687 0
M  V30 1445 H 132.094 5.90515 1.06826 0
M  V30 1446 H 133.164 4.84724 0.130749 0
M  V30 1447 N 134.507 -0.190092 1.56449 0
M  V30 1448 C 135.439 -1.25973 1.91477 0
M  V30 1449 C 136.452 -1.41452 0.805931 0
M  V30 1450 O 137.641 -1.41789 1.08435 0
M  V30 1451 C 134.741 -2.63117 2.13594 0
M  V30 1452 C 133.914 -2.69182 3.4476 0
M  V30 1453 C 132.973 -3.87557 3.5593 0
M  V30 1454 O 131.999 -3.74427 4.28711 0
M  V30 1455 N 133.201 -5.03224 2.89388 0
M  V30 1456 H 135.966 -0.962394 2.83828 0
M  V30 1457 H 133.527 -0.379981 1.57378 0
M  V30 1458 H 135.519 -3.40742 2.1835 0
M  V30 1459 H 134.089 -2.85319 1.27719 0
M  V30 1460 H 133.309 -1.77793 3.51828 0
M  V30 1461 H 134.597 -2.70229 4.31107 0
M  V30 1462 H 133.995 -5.16791 2.30094 0
M  V30 1463 H 132.552 -5.78778 2.99764 0
M  V30 1464 N 135.985 -1.50799 -0.457987 0
M  V30 1465 C 137.233 -1.62121 -1.2067 0
M  V30 1466 C 137.554 -0.329793 -1.92191 0
M  V30 1467 O 136.824 0.653409 -1.84682 0
M  V30 1468 H 135.404 -0.597441 -0.448411 0
M  V30 1469 H 138.066 -1.87637 -0.527096 0
M  V30 1470 H 137.162 -2.43882 -1.94751 0
M  V30 1471 N 137.463 0.71206 -1.40597 0
M  V30 1472 C 138.393 1.83889 -1.43899 0
M  V30 1473 C 139.374 1.67442 -0.299504 0
M  V30 1474 O 140.559 1.87421 -0.508624 0
M  V30 1475 C 137.689 3.21877 -1.30431 0
M  V30 1476 C 136.643 3.53002 -2.42019 0
M  V30 1477 C 135.969 4.90172 -2.13626 0
M  V30 1478 C 137.269 3.53643 -3.84362 0
M  V30 1479 H 138.963 1.81383 -2.38203 0
M  V30 1480 H 136.509 0.871237 -1.14654 0
M  V30 1481 H 138.462 4.00404 -1.31357 0
M  V30 1482 H 137.186 3.24968 -0.326049 0
M  V30 1483 H 135.845 2.76818 -2.40349 0
M  V30 1484 H 135.493 4.89869 -1.14182 0
M  V30 1485 H 135.193 5.11962 -2.88389 0
M  V30 1486 H 136.717 5.71028 -2.1624 0
M  V30 1487 H 138.131 4.22203 -3.87837 0
M  V30 1488 H 136.528 3.86961 -4.58673 0
M  V30 1489 H 137.598 2.52954 -4.13693 0
M  V30 1490 N 138.941 1.26152 0.944643 0
M  V30 1491 C 139.873 1.03199 2.04652 0
M  V30 1492 C 140.886 -0.00642356 1.62799 0
M  V30 1493 O 142.075 0.233263 1.76969 0
M  V30 1494 C 139.175 0.540111 3.34568 0
M  V30 1495 C 138.348 1.64697 4.05208 0
M  V30 1496 C 137.407 1.15374 5.13396 0
M  V30 1497 O 136.433 1.85013 5.38293 0
M  V30 1498 N 137.635 0.00031529 5.805 0
M  V30 1499 H 140.4 1.9808 2.2491 0
M  V30 1500 H 137.961 1.17491 1.11389 0
M  V30 1501 H 139.953 0.194401 4.04233 0
M  V30 1502 H 138.523 -0.315021 3.11009 0
M  V30 1503 H 137.743 2.16379 3.29506 0
M  V30 1504 H 139.031 2.3903 4.49157 0
M  V30 1505 H 138.429 -0.581336 5.62705 0
M  V30 1506 H 136.986 -0.286346 6.51171 0
M  V30 1507 N 140.419 -1.14872 1.07899 0
M  V30 1508 C 141.366 -2.19791 0.704319 0
M  V30 1509 C 142.336 -1.63238 -0.306987 0
M  V30 1510 O 143.521 -1.8983 -0.192171 0
M  V30 1511 C 140.661 -3.44911 0.114244 0
M  V30 1512 C 139.774 -4.15637 1.1777 0
M  V30 1513 C 138.909 -5.28324 0.552037 0
M  V30 1514 C 137.948 -5.90875 1.59789 0
M  V30 1515 N 137.085 -6.95022 0.994404 0
M  V30 1516 H 141.925 -2.5119 1.60336 0
M  V30 1517 H 139.462 -1.23356 0.801352 0
M  V30 1518 H 141.42 -4.16477 -0.245544 0
M  V30 1519 H 140.05 -3.14011 -0.74813 0
M  V30 1520 H 139.102 -3.42512 1.65499 0
M  V30 1521 H 140.414 -4.5823 1.97046 0
M  V30 1522 H 139.568 -6.06538 0.1402 0
M  V30 1523 H 138.307 -4.86939 -0.272431 0
M  V30 1524 H 137.312 -5.11369 2.01945 0
M  V30 1525 H 138.537 -6.34337 2.42474 0
M  V30 1526 H 136.483 -6.55722 0.190939 0
M  V30 1527 H 136.4 -7.36073 1.72432 0
M  V30 1528 H 137.668 -7.77123 0.608253 0
M  V30 1529 N 141.898 -0.863906 -1.31812 0
M  V30 1530 C 142.846 -0.30422 -2.30602 0
M  V30 1531 C 143.84 0.577419 -1.59255 0
M  V30 1532 O 145.046 0.464194 -1.73912 0
M  V30 1533 H 141.421 -0.0796877 -0.747766 0
M  V30 1534 H 143.392 -1.15148 -2.75288 0
M  V30 1535 C 142.141 0.484617 -3.44306 0
M  V30 1536 H 141.464 -0.18451 -3.99374 0
M  V30 1537 H 142.904 0.841664 -4.15562 0
M  V30 1538 C 141.363 1.6735 -2.92396 0
M  V30 1539 O 141.893 2.77273 -2.90659 0
M  V30 1540 N 140.099 1.50362 -2.48676 0
M  V30 1541 H 139.646 0.609402 -2.50288 0
M  V30 1542 H 139.604 2.30051 -2.14299 0
M  V30 1543 N 143.376 1.44774 -0.622745 0
M  V30 1544 C 144.309 2.27792 0.136329 0
M  V30 1545 C 145.287 1.38041 0.859264 0
M  V30 1546 O 146.471 1.67478 0.86506 0
M  V30 1547 C 143.598 3.16776 1.19878 0
M  V30 1548 C 142.644 4.22575 0.57731 0
M  V30 1549 S 143.477 5.31825 -0.626294 0
M  V30 1550 C 144.633 6.24377 0.436378 0
M  V30 1551 H 144.866 2.91824 -0.567967 0
M  V30 1552 H 142.399 1.48838 -0.410677 0
M  V30 1553 H 144.357 3.68596 1.80686 0
M  V30 1554 H 143.018 2.5198 1.87523 0
M  V30 1555 H 142.211 4.84818 1.37721 0
M  V30 1556 H 141.813 3.73974 0.0440439 0
M  V30 1557 H 144.105 6.64689 1.31128 0
M  V30 1558 H 145.048 7.07941 -0.150271 0
M  V30 1559 H 145.456 5.59381 0.758513 0
M  V30 1560 N 144.854 0.36279 1.53368 0
M  V30 1561 C 146.082 -0.228613 2.05633 0
M  V30 1562 C 146.497 -1.42676 1.23649 0
M  V30 1563 O 145.854 -1.80394 0.27647 0
M  V30 1564 C 145.905 -0.624845 3.56059 0
M  V30 1565 O 145.626 0.525675 4.34935 0
M  V30 1566 C 147.127 -1.27493 4.24571 0
M  V30 1567 H 144.347 -0.0407183 0.669763 0
M  V30 1568 H 146.891 0.520352 1.97769 0
M  V30 1569 H 145.046 -1.32373 3.64083 0
M  V30 1570 H 145.46 0.205969 5.24095 0
M  V30 1571 H 146.934 -1.50277 5.31151 0
M  V30 1572 H 147.411 -2.23439 3.78116 0
M  V30 1573 H 148.017 -0.617558 4.20792 0
M  V30 1574 N 146.332 -1.57332 0.0918853 0
M  V30 1575 C 147.748 -1.57389 -0.264766 0
M  V30 1576 C 147.948 -1.10281 -1.68643 0
M  V30 1577 O 147.004 -0.777801 -2.40222 0
M  V30 1578 C 148.317 -3.00648 -0.0561195 0
M  V30 1579 C 149.865 -3.12754 -0.124116 0
M  V30 1580 C 150.34 -4.57965 0.0564972 0
M  V30 1581 N 151.831 -4.632 0.00155611 0
M  V30 1582 C 152.566 -5.73281 0.116598 0
M  V30 1583 N 152.062 -6.92208 0.286294 0
M  V30 1584 N 153.855 -5.6207 0.0580973 0
M  V30 1585 H 146.006 -1.86262 1.02079 0
M  V30 1586 H 148.269 -0.859579 0.399786 0
M  V30 1587 H 147.975 -3.393 0.925669 0
M  V30 1588 H 147.849 -3.68623 -0.799823 0
M  V30 1589 H 150.236 -2.73976 -1.09641 0
M  V30 1590 H 150.317 -2.47377 0.651024 0
M  V30 1591 H 149.961 -4.97436 1.02564 0
M  V30 1592 H 149.891 -5.21399 -0.738297 0
M  V30 1593 H 152.382 -3.77686 -0.127192 0
M  V30 1594 H 152.695 -7.71934 0.365676 0
M  V30 1595 H 151.04 -6.94254 0.32192 0
M  V30 1596 H 154.231 -4.68043 -0.0733204 0
M  V30 1597 H 154.404 -6.47824 0.151203 0
M  V30 1598 N 147.81 0.181792 -1.56548 0
M  V30 1599 C 149.057 0.900097 -1.81396 0
M  V30 1600 C 149.385 1.82695 -0.667281 0
M  V30 1601 O 148.64 1.92614 0.346146 0
M  V30 1602 C 148.939 1.73728 -3.12335 0
M  V30 1603 C 148.605 0.960255 -4.40556 0
M  V30 1604 C 147.267 0.745766 -4.75386 0
M  V30 1605 C 149.619 0.414477 -5.19549 0
M  V30 1606 C 146.947 -0.0257694 -5.86694 0
M  V30 1607 C 149.299 -0.343916 -6.31664 0
M  V30 1608 C 147.963 -0.569301 -6.65068 0
M  V30 1609 H 147.233 0.329369 -0.663775 0
M  V30 1610 H 149.88 0.165647 -1.90782 0
M  V30 1611 H 148.185 2.54081 -2.98245 0
M  V30 1612 H 149.882 2.29591 -3.28769 0
M  V30 1613 H 146.472 1.13746 -4.13231 0
M  V30 1614 H 150.656 0.567554 -4.93044 0
M  V30 1615 H 145.912 -0.210233 -6.11038 0
M  V30 1616 H 150.086 -0.774133 -6.92084 0
M  V30 1617 H 147.713 -1.16903 -7.51158 0
M  V30 1618 N 149.288 1.51039 0.449983 0
M  V30 1619 C 150.704 1.38934 0.785462 0
M  V30 1620 C 150.904 0.461817 1.96136 0
M  V30 1621 O 149.96 -0.0877389 2.52348 0
M  V30 1622 C 151.273 2.80724 1.0777 0
M  V30 1623 C 152.821 2.89787 1.1829 0
M  V30 1624 C 153.296 4.32457 1.50815 0
M  V30 1625 N 154.787 4.35505 1.57764 0
M  V30 1626 C 155.522 5.42914 1.84477 0
M  V30 1627 N 155.018 6.60502 2.09068 0
M  V30 1628 N 156.811 5.3038 1.86155 0
M  V30 1629 H 148.962 2.09904 -0.324647 0
M  V30 1630 H 151.225 0.944378 -0.0827957 0
M  V30 1631 H 150.931 3.50531 0.286498 0
M  V30 1632 H 150.805 3.19273 2.00859 0
M  V30 1633 H 153.192 2.20186 1.96474 0
M  V30 1634 H 153.273 2.54752 0.231314 0
M  V30 1635 H 152.917 5.02603 0.731622 0
M  V30 1636 H 152.847 4.64995 2.47158 0
M  V30 1637 H 155.338 3.50724 1.40715 0
M  V30 1638 H 155.651 7.38158 2.28785 0
M  V30 1639 H 153.996 6.63639 2.06416 0
M  V30 1640 H 157.187 4.37505 1.66454 0
M  V30 1641 H 157.36 6.1417 2.06637 0
M  V30 1642 N 150.766 -0.704594 1.40972 0
M  V30 1643 C 152.015 -1.46018 1.39146 0
M  V30 1644 C 152.328 -1.956 0.000589254 0
M  V30 1645 O 153.534 -2.71137 -0.1403 0
M  V30 1646 C 151.99 -2.63996 2.4461 0
M  V30 1647 C 151.598 -2.21238 3.89561 0
M  V30 1648 C 153.342 -3.41677 2.51907 0
M  V30 1649 C 151.249 -3.3612 4.86598 0
M  V30 1650 H 150.179 -0.548444 0.517422 0
M  V30 1651 H 152.83 -0.765784 1.66757 0
M  V30 1652 H 151.212 -3.3566 2.10115 0
M  V30 1653 H 152.386 -1.56923 4.33257 0
M  V30 1654 H 150.701 -1.56574 3.85841 0
M  V30 1655 H 153.298 -4.27182 3.2159 0
M  V30 1656 H 153.641 -3.86247 1.55303 0
M  V30 1657 H 154.174 -2.77064 2.85448 0
M  V30 1658 H 150.913 -2.96572 5.84573 0
M  V30 1659 H 150.433 -3.99315 4.47557 0
M  V30 1660 H 152.112 -4.02029 5.06934 0
M  V30 1661 N 152.244 -1.26651 -0.937939 0
M  V30 1662 C 153.521 -1.0313 -1.66204 0
M  V30 1663 C 153.901 0.437256 -2.06522 0
M  V30 1664 O 153.249 1.41831 -1.79154 0
M  V30 1665 C 153.459 -1.98314 -2.87181 0
M  V30 1666 C 154.807 -2.27107 -3.58758 0
M  V30 1667 O 155.831 -1.96205 -2.97291 0
M  V30 1668 O 154.69 -2.79736 -4.69479 0
M  V30 1669 H 151.784 -0.392384 -0.727986 0
M  V30 1670 H 154.33 -1.37874 -0.989382 0
M  V30 1671 H 153.102 -2.97399 -2.54302 0
M  V30 1672 H 152.725 -1.64068 -3.6217 0
M  V30 1673 N 153.722 1.14298 -1.08507 0
M  V30 1674 C 154.632 2.23027 -0.727753 0
M  V30 1675 C 155.648 1.71952 0.26619 0
M  V30 1676 O 156.824 2.011 0.109882 0
M  V30 1677 C 153.889 3.46403 -0.143541 0
M  V30 1678 C 152.95 4.12413 -1.19223 0
M  V30 1679 C 152.183 5.29899 -0.635798 0
M  V30 1680 O 152.406 5.67796 0.544393 0
M  V30 1681 O 151.34 5.85717 -1.38634 0
M  V30 1682 H 155.166 2.55945 -1.63481 0
M  V30 1683 H 152.751 1.22248 -0.858817 0
M  V30 1684 H 154.633 4.21018 0.179404 0
M  V30 1685 H 153.308 3.15206 0.736659 0
M  V30 1686 H 152.215 3.39667 -1.56772 0
M  V30 1687 H 153.548 4.47718 -2.04474 0
M  V30 1688 N 155.201 0.870884 1.31352 0
M  V30 1689 C 156.131 0.343096 2.30966 0
M  V30 1690 C 157.112 -0.566507 1.60389 0
M  V30 1691 O 158.297 -0.483336 1.88089 0
M  V30 1692 C 155.427 -0.455487 3.443 0
M  V30 1693 C 154.381 0.361103 4.26474 0
M  V30 1694 C 153.707 -0.563221 5.31725 0
M  V30 1695 C 155.007 1.59566 4.97329 0
M  V30 1696 H 156.701 1.17548 2.75359 0
M  V30 1697 H 154.247 0.566686 1.32381 0
M  V30 1698 H 156.2 -0.83525 4.13039 0
M  V30 1699 H 154.924 -1.32139 2.98675 0
M  V30 1700 H 153.583 0.722825 3.59403 0
M  V30 1701 H 153.231 -1.42643 4.82351 0
M  V30 1702 H 152.931 -0.0207409 5.87596 0
M  V30 1703 H 154.455 -0.939808 6.03324 0
M  V30 1704 H 155.869 1.28728 5.58661 0
M  V30 1705 H 154.266 2.07728 5.63 0
M  V30 1706 H 155.336 2.34798 4.24262 0
M  V30 1707 N 156.679 -1.44442 0.630414 0
M  V30 1708 C 157.589 -2.34476 -0.0761693 0
M  V30 1709 C 158.605 -1.52576 -0.836449 0
M  V30 1710 O 159.781 -1.85307 -0.788874 0
M  V30 1711 C 156.846 -3.30545 -1.04599 0
M  V30 1712 C 155.907 -4.28352 -0.28516 0
M  V30 1713 C 155.14 -5.19831 -1.20878 0
M  V30 1714 O 155.363 -5.15223 -2.44747 0
M  V30 1715 O 154.297 -5.97892 -0.693491 0
M  V30 1716 H 158.123 -2.96345 0.664324 0
M  V30 1717 H 155.708 -1.44203 0.39061 0
M  V30 1718 H 157.59 -3.89681 -1.60396 0
M  V30 1719 H 156.265 -2.7121 -1.76711 0
M  V30 1720 H 155.172 -3.72764 0.315837 0
M  V30 1721 H 156.505 -4.90605 0.395924 0
M  V30 1722 N 158.157 -0.370918 -1.53173 0
M  V30 1723 C 159.568 0.107139 -1.86392 0
M  V30 1724 C 159.919 1.47714 -1.29132 0
M  V30 1725 O 159.044 2.07464 -0.615439 0
M  V30 1726 C 159.639 0.201187 -3.38202 0
M  V30 1727 C 158.198 0.623507 -3.712 0
M  V30 1728 C 157.345 -0.225978 -2.76378 0
M  V30 1729 H 160.296 -0.58951 -1.47345 0
M  V30 1730 H 160.317 1.02377 -3.66468 0
M  V30 1731 H 159.829 -0.796058 -3.79848 0
M  V30 1732 H 157.93 1.62879 -3.35114 0
M  V30 1733 H 158.043 0.394414 -4.77474 0
M  V30 1734 H 156.407 0.305962 -2.52856 0
M  V30 1735 H 157.19 -1.22086 -3.20858 0
M  V30 1736 N 159.635 1.57281 -0.100228 0
M  V30 1737 C 161.051 1.57527 0.256416 0
M  V30 1738 C 161.251 1.11173 1.68056 0
M  V30 1739 O 160.307 0.79053 2.39806 0
M  V30 1740 C 161.62 3.00673 0.0401747 0
M  V30 1741 C 163.168 3.12815 0.107528 0
M  V30 1742 C 163.643 4.57929 -0.0807834 0
M  V30 1743 N 165.134 4.63193 -0.0261207 0
M  V30 1744 C 165.869 5.73212 -0.146999 0
M  V30 1745 N 165.365 6.92047 -0.322999 0
M  V30 1746 N 167.158 5.62031 -0.0879044 0
M  V30 1747 H 159.309 1.85718 -1.03065 0
M  V30 1748 H 161.572 0.857446 -0.404339 0
M  V30 1749 H 161.278 3.38804 -0.943649 0
M  V30 1750 H 161.152 3.69042 0.780262 0
M  V30 1751 H 163.539 2.74554 1.08186 0
M  V30 1752 H 163.62 2.47028 -0.664134 0
M  V30 1753 H 163.264 4.96886 -1.05201 0
M  V30 1754 H 163.194 5.21783 0.710635 0
M  V30 1755 H 165.685 3.77748 0.107161 0
M  V30 1756 H 165.998 7.7173 -0.406608 0
M  V30 1757 H 164.343 6.94074 -0.358733 0
M  V30 1758 H 167.534 4.68075 0.048498 0
M  V30 1759 H 167.707 6.47734 -0.185557 0
M  V30 1760 N 161.113 -0.173488 1.56642 0
M  V30 1761 C 162.529 -0.525174 1.50712 0
M  V30 1762 C 162.729 -1.8476 0.804107 0
M  V30 1763 O 161.785 -2.49869 0.363574 0
M  V30 1764 C 163.098 -0.559937 2.95441 0
M  V30 1765 C 164.646 -0.647288 3.06234 0
M  V30 1766 C 165.121 -0.712963 4.52417 0
M  V30 1767 N 166.612 -0.775911 4.56655 0
M  V30 1768 C 167.347 -0.847264 5.67106 0
M  V30 1769 N 166.843 -0.879585 6.87194 0
M  V30 1770 N 168.636 -0.886117 5.55071 0
M  V30 1771 H 160.787 0.693681 2.00753 0
M  V30 1772 H 163.05 0.249841 0.914485 0
M  V30 1773 H 162.756 0.343049 3.50023 0
M  V30 1774 H 162.63 -1.40718 3.49969 0
M  V30 1775 H 165.017 -1.5407 2.51687 0
M  V30 1776 H 165.098 0.226586 2.54794 0
M  V30 1777 H 164.742 0.176183 5.07594 0
M  V30 1778 H 164.672 -1.60295 5.0161 0
M  V30 1779 H 167.163 -0.759304 3.70193 0
M  V30 1780 H 167.476 -0.935144 7.67121 0
M  V30 1781 H 165.821 -0.847898 6.89808 0
M  V30 1782 H 169.012 -0.857853 4.60172 0
M  V30 1783 H 169.185 -0.938263 6.41171 0
M  V30 1784 N 162.591 -1.51276 -0.441967 0
M  V30 1785 C 164.002 -1.56244 -1.02199 0
M  V30 1786 C 164.353 -0.383149 -1.92422 0
M  V30 1787 O 163.478 0.500613 -2.1053 0
M  V30 1788 C 164.073 -2.83162 -1.86024 0
M  V30 1789 C 162.632 -2.90716 -2.39084 0
M  V30 1790 C 161.779 -2.50858 -1.18175 0
M  V30 1791 H 164.73 -1.5712 -0.223416 0
M  V30 1792 H 164.751 -2.66663 -2.71425 0
M  V30 1793 H 164.263 -3.68974 -1.20331 0
M  V30 1794 H 162.364 -2.09323 -3.08244 0
M  V30 1795 H 162.477 -3.94266 -2.72198 0
M  V30 1796 H 160.841 -2.03951 -1.52565 0
M  V30 1797 H 161.624 -3.3901 -0.541001 0
M  V30 1798 N 164.069 0.697108 -1.41344 0
M  V30 1799 C 165.485 1.00751 -1.2378 0
M  V30 1800 C 165.685 2.01105 -0.126066 0
M  V30 1801 O 164.741 2.47295 0.51004 0
M  V30 1802 C 166.054 1.53359 -2.58653 0
M  V30 1803 C 167.602 1.6525 -2.65822 0
M  V30 1804 C 168.077 2.2126 -4.01009 0
M  V30 1805 N 169.568 2.28622 -4.02847 0
M  V30 1806 C 170.303 2.72984 -5.04249 0
M  V30 1807 N 169.799 3.16962 -6.16041 0
M  V30 1808 N 171.592 2.72534 -4.91611 0
M  V30 1809 H 163.743 0.0322662 -2.12375 0
M  V30 1810 H 166.006 0.0768853 -0.944877 0
M  V30 1811 H 165.712 0.870773 -3.4075 0
M  V30 1812 H 165.586 2.51597 -2.81032 0
M  V30 1813 H 167.973 2.30644 -1.84086 0
M  V30 1814 H 168.054 0.655614 -2.47256 0
M  V30 1815 H 167.698 1.56482 -4.83193 0
M  V30 1816 H 167.628 3.21698 -4.16915 0
M  V30 1817 H 170.119 1.97585 -3.22131 0
M  V30 1818 H 170.432 3.49434 -6.89287 0
M  V30 1819 H 168.777 3.14875 -6.1958 0
M  V30 1820 H 171.968 2.37525 -4.0336 0
M  V30 1821 H 172.141 3.06789 -5.70775 0
M  V30 1822 N 165.547 1.27147 0.931209 0
M  V30 1823 C 166.777 1.15914 1.71019 0
M  V30 1824 C 167.185 -0.287112 1.87009 0
M  V30 1825 O 166.528 -1.20761 1.38429 0
M  V30 1826 C 166.59 1.76647 3.13107 0
M  V30 1827 C 166.254 3.25807 3.20467 0
M  V30 1828 C 167.251 4.22489 3.02983 0
M  V30 1829 C 164.936 3.66452 3.43538 0
M  V30 1830 C 166.93 5.57794 3.08454 0
M  V30 1831 C 164.617 5.01888 3.48643 0
M  V30 1832 C 165.615 5.97369 3.31119 0
M  V30 1833 O 165.303 7.30337 3.35952 0
M  V30 1834 H 165.035 0.404062 0.54195 0
M  V30 1835 H 167.589 1.68457 1.17521 0
M  V30 1836 H 165.819 1.18578 3.68071 0
M  V30 1837 H 167.508 1.60179 3.72958 0
M  V30 1838 H 168.274 3.92425 2.85004 0
M  V30 1839 H 164.153 2.92611 3.5623 0
M  V30 1840 H 167.697 6.32298 2.94694 0
M  V30 1841 H 163.594 5.31609 3.66145 0
M  V30 1842 H 164.362 7.38739 3.5243 0
M  V30 1843 N 167.025 -1.13721 1.09112 0
M  V30 1844 C 168.441 -1.36914 0.820174 0
M  V30 1845 C 168.641 -1.93356 -0.567079 0
M  V30 1846 O 167.697 -2.15093 -1.32255 0
M  V30 1847 C 169.01 -2.3235 1.90877 0
M  V30 1848 C 170.558 -2.45973 1.93562 0
M  V30 1849 C 171.033 -3.44714 3.01556 0
M  V30 1850 N 172.524 -3.52263 3.00775 0
M  V30 1851 C 173.259 -4.28536 3.80978 0
M  V30 1852 N 172.755 -5.07991 4.71081 0
M  V30 1853 N 174.548 -4.23804 3.69251 0
M  V30 1854 H 166.699 -0.754348 1.98553 0
M  V30 1855 H 168.962 -0.3944 0.862063 0
M  V30 1856 H 168.668 -1.98027 2.90651 0
M  V30 1857 H 168.542 -3.32332 1.78424 0
M  V30 1858 H 170.929 -2.79584 0.944286 0
M  V30 1859 H 171.01 -1.45926 2.10093 0
M  V30 1860 H 170.654 -3.11835 4.00901 0
M  V30 1861 H 170.584 -4.44558 2.82269 0
M  V30 1862 H 173.075 -2.95567 2.35475 0
M  V30 1863 H 173.388 -5.63487 5.28869 0
M  V30 1864 H 171.733 -5.07235 4.75119 0
M  V30 1865 H 174.924 -3.60806 2.98222 0
M  V30 1866 H 175.097 -4.82995 4.31995 0
M  V30 1867 N 168.503 -0.877838 -1.30888 0
M  V30 1868 C 169.749 -0.493426 -1.96706 0
M  V30 1869 C 170.082 0.953504 -1.6918 0
M  V30 1870 O 169.357 1.67266 -0.992594 0
M  V30 1871 C 169.64 -0.760429 -3.51979 0
M  V30 1872 C 169.493 -2.25747 -3.89048 0
M  V30 1873 C 170.812 -0.232148 -4.39487 0
M  V30 1874 H 167.931 -0.180746 -0.714493 0
M  V30 1875 H 170.573 -1.10052 -1.54882 0
M  V30 1876 H 168.723 -0.243715 -3.87735 0
M  V30 1877 H 170.395 -2.84204 -3.63354 0
M  V30 1878 H 168.638 -2.72694 -3.37373 0
M  V30 1879 H 169.309 -2.39491 -4.97341 0
M  V30 1880 H 171.785 -0.674314 -4.106 0
M  V30 1881 H 170.661 -0.448355 -5.47066 0
M  V30 1882 H 170.922 0.866297 -4.33529 0
M  V30 1883 N 169.982 1.44106 -0.638065 0
M  V30 1884 C 171.393 1.85316 -0.226894 0
M  V30 1885 C 171.744 1.53399 1.22324 0
M  V30 1886 O 170.869 0.975463 1.93167 0
M  V30 1887 C 171.464 3.3637 -0.405013 0
M  V30 1888 C 170.023 3.76369 -0.0482902 0
M  V30 1889 C 169.17 2.67921 -0.715108 0
M  V30 1890 H 172.121 1.34474 -0.842764 0
M  V30 1891 H 172.142 3.7885 0.354 0
M  V30 1892 H 171.654 3.59569 -1.46053 0
M  V30 1893 H 169.755 3.58784 1.00522 0
M  V30 1894 H 169.868 4.76856 -0.463187 0
M  V30 1895 H 168.232 2.54259 -0.149753 0
M  V30 1896 H 169.015 2.93951 -1.77335 0
M  V30 1897 N 171.46 0.379036 1.52974 0
M  V30 1898 C 172.737 -0.263479 1.93817 0
M  V30 1899 C 173.117 -1.65244 1.31368 0
M  V30 1900 O 172.465 -2.23448 0.477856 0
M  V30 1901 C 172.675 -0.300166 3.47707 0
M  V30 1902 C 174.023 -0.534061 4.21228 0
M  V30 1903 O 175.047 -0.38081 3.54159 0
M  V30 1904 O 173.906 -0.833501 5.40106 0
M  V30 1905 H 171 -0.161149 0.811147 0
M  V30 1906 H 173.546 0.432798 1.64088 0
M  V30 1907 H 172.318 0.673138 3.85467 0
M  V30 1908 H 171.941 -1.04179 3.83709 0
M  V30 1909 N 172.938 -1.57226 0.108567 0
M  V30 1910 C 174.184 -1.95121 -0.552761 0
M  V30 1911 C 174.517 -0.991345 -1.66991 0
M  V30 1912 O 173.792 -0.0267211 -1.94482 0
M  V30 1913 C 174.075 -3.43039 -1.09528 0
M  V30 1914 C 173.928 -4.49797 0.0177332 0
M  V30 1915 C 175.247 -3.92567 -1.98945 0
M  V30 1916 H 172.366 -0.709496 -0.199461 0
M  V30 1917 H 175.008 -1.89126 0.182011 0
M  V30 1918 H 173.158 -3.48279 -1.72146 0
M  V30 1919 H 174.83 -4.56661 0.652584 0
M  V30 1920 H 173.073 -4.284 0.682309 0
M  V30 1921 H 173.744 -5.50528 -0.402919 0
M  V30 1922 H 176.22 -3.89565 -1.46214 0
M  V30 1923 H 175.096 -4.96605 -2.33827 0
M  V30 1924 H 175.357 -3.32648 -2.91201 0
M  V30 1925 N 174.416 0.165178 -1.56732 0
M  V30 1926 C 175.346 1.20651 -1.99914 0
M  V30 1927 C 176.327 1.45827 -0.875705 0
M  V30 1928 O 177.512 1.57057 -1.14223 0
M  V30 1929 C 174.642 2.54401 -2.36427 0
M  V30 1930 C 173.596 2.43782 -3.51787 0
M  V30 1931 C 172.922 3.82078 -3.7406 0
M  V30 1932 C 174.222 1.93732 -4.85041 0
M  V30 1933 H 175.916 0.847534 -2.87154 0
M  V30 1934 H 173.462 0.40625 -1.38151 0
M  V30 1935 H 175.415 3.27458 -2.65234 0
M  V30 1936 H 174.139 2.92098 -1.46103 0
M  V30 1937 H 172.798 1.73178 -3.23117 0
M  V30 1938 H 172.446 4.17179 -2.81017 0
M  V30 1939 H 172.146 3.7584 -4.51684 0
M  V30 1940 H 173.67 4.56712 -4.05274 0
M  V30 1941 H 175.084 2.56569 -5.12684 0
M  V30 1942 H 173.481 1.98428 -5.66345 0
M  V30 1943 H 174.551 0.891962 -4.76626 0
M  V30 1944 N 175.894 1.51508 0.433938 0
M  V30 1945 C 177.14 1.64588 1.18484 0
M  V30 1946 C 177.473 0.362666 1.90784 0
M  V30 1947 O 176.748 -0.637892 1.83742 0
M  V30 1948 C 177.031 2.85149 2.19913 0
M  V30 1949 C 176.884 4.23456 1.51674 0
M  V30 1950 C 178.203 3.01227 3.20858 0
M  V30 1951 H 175.322 0.598994 0.429389 0
M  V30 1952 H 177.964 1.84002 0.473647 0
M  V30 1953 H 176.114 2.68729 2.80566 0
M  V30 1954 H 177.786 4.51552 0.943322 0
M  V30 1955 H 176.029 4.25998 0.819035 0
M  V30 1956 H 176.7 5.03812 2.2556 0
M  V30 1957 H 179.176 3.16382 2.70263 0
M  V30 1958 H 178.052 3.87141 3.89118 0
M  V30 1959 H 178.313 2.13447 3.8716 0
M  V30 1960 N 177.372 -0.689602 1.41712 0
M  V30 1961 C 178.335 -1.78521 1.43746 0
M  V30 1962 C 179.335 -1.57436 0.327191 0
M  V30 1963 O 180.525 -1.64 0.587348 0
M  V30 1964 C 177.657 -3.16971 1.25467 0
M  V30 1965 H 178.85 -1.78108 2.41283 0
M  V30 1966 H 176.403 -0.89781 1.27942 0
M  V30 1967 H 177.138 -3.23019 0.287948 0
M  V30 1968 H 176.923 -3.33678 2.05917 0
M  V30 1969 H 178.413 -3.96935 1.2974 0
M  V30 1970 N 178.85 -1.27639 -0.924453 0
M  V30 1971 C 180.127 -1.04887 -1.651 0
M  V30 1972 C 180.507 0.415327 -2.06974 0
M  V30 1973 O 179.855 1.39923 -1.80648 0
M  V30 1974 C 180.065 -2.01348 -2.85061 0
M  V30 1975 C 181.413 -2.30899 -3.56329 0
M  V30 1976 O 182.437 -1.99348 -2.95193 0
M  V30 1977 O 181.296 -2.84699 -4.66485 0
M  V30 1978 H 178.39 -0.400083 -0.723784 0
M  V30 1979 H 180.936 -1.38916 -0.974703 0
M  V30 1980 H 179.708 -3.0008 -2.51133 0
M  V30 1981 H 179.331 -1.679 -3.6041 0
M  V30 1982 N 180.328 1.1314 -1.09713 0
M  V30 1983 C 181.739 1.66029 -0.853885 0
M  V30 1984 C 182.09 1.86241 0.617142 0
M  V30 1985 O 181.215 1.5834 1.47503 0
M  V30 1986 C 181.81 3.01599 -1.5435 0
M  V30 1987 C 180.369 3.51467 -1.34714 0
M  V30 1988 C 179.516 2.26648 -1.59769 0
M  V30 1989 H 182.467 0.970226 -1.25588 0
M  V30 1990 H 182.488 3.67709 -0.978267 0
M  V30 1991 H 182 2.86856 -2.6141 0
M  V30 1992 H 180.101 3.71408 -0.297838 0
M  V30 1993 H 180.214 4.314 -2.08401 0
M  V30 1994 H 178.578 2.33385 -1.01998 0
M  V30 1995 H 179.361 2.14467 -2.68065 0
M  V30 1996 N 181.806 0.884767 1.30421 0
M  V30 1997 C 183.217 0.553656 1.78302 0
M  V30 1998 C 183.568 -0.930153 1.7275 0
M  V30 1999 O 182.693 -1.72681 1.30423 0
M  V30 2000 C 183.288 0.998234 3.2376 0
M  V30 2001 C 181.847 0.71854 3.69478 0
M  V30 2002 C 180.994 1.18132 2.50879 0
M  V30 2003 H 183.945 1.06901 1.17294 0
M  V30 2004 H 183.966 0.327118 3.79091 0
M  V30 2005 H 183.478 2.0782 3.27769 0
M  V30 2006 H 181.579 -0.349444 3.70958 0
M  V30 2007 H 181.692 1.30595 4.60958 0
M  V30 2008 H 180.056 0.600669 2.47516 0
M  V30 2009 H 180.839 2.26902 2.57624 0
M  V30 2010 N 183.284 -1.43765 0.645699 0
M  V30 2011 C 184.533 -2.01116 0.153412 0
M  V30 2012 C 184.846 -1.51493 -1.23731 0
M  V30 2013 O 186.052 -2.01067 -1.8244 0
M  V30 2014 C 184.508 -3.59206 0.223473 0
M  V30 2015 C 184.116 -4.17823 1.61642 0
M  V30 2016 C 185.86 -4.23972 -0.211597 0
M  V30 2017 C 183.767 -5.68183 1.64081 0
M  V30 2018 H 182.697 -0.752093 0.0535891 0
M  V30 2019 H 185.348 -1.6482 0.806633 0
M  V30 2020 H 183.73 -3.92867 -0.497118 0
M  V30 2021 H 184.904 -3.95674 2.36176 0
M  V30 2022 H 183.219 -3.65399 1.99681 0
M  V30 2023 H 185.816 -5.34275 -0.213112 0
M  V30 2024 H 186.159 -3.97352 -1.24165 0
M  V30 2025 H 186.692 -3.95166 0.456988 0
M  V30 2026 H 183.431 -5.99559 2.64971 0
M  V30 2027 H 182.951 -5.9241 0.938611 0
M  V30 2028 H 184.63 -6.32085 1.3812 0
M  V30 2029 N 184.763 -0.387143 -1.52771 0
M  V30 2030 C 185.726 0.436939 -2.24997 0
M  V30 2031 C 186.726 0.991991 -1.26555 0
M  V30 2032 O 187.916 0.874335 -1.50669 0
M  V30 2033 C 185.048 1.61281 -3.00335 0
M  V30 2034 H 186.241 -0.195365 -2.99263 0
M  V30 2035 H 183.794 -0.139218 -1.55679 0
M  V30 2036 H 184.529 2.2826 -2.30364 0
M  V30 2037 H 184.314 1.22154 -3.72587 0
M  V30 2038 H 185.804 2.19629 -3.5518 0
M  V30 2039 N 186.241 1.57166 -0.116904 0
M  V30 2040 C 187.657 1.5779 0.239693 0
M  V30 2041 C 187.857 1.1295 1.66867 0
M  V30 2042 O 186.913 0.81592 2.38954 0
M  V30 2043 C 188.226 3.00699 0.00828202 0
M  V30 2044 C 189.774 3.12912 0.0743438 0
M  V30 2045 C 190.249 4.57817 -0.129348 0
M  V30 2046 N 191.74 4.63139 -0.075247 0
M  V30 2047 C 192.475 5.73023 -0.207788 0
M  V30 2048 N 191.971 6.91665 -0.396382 0
M  V30 2049 N 193.764 5.61906 -0.14751 0
M  V30 2050 H 185.915 1.84615 -1.05029 0
M  V30 2051 H 188.178 0.85311 -0.41341 0
M  V30 2052 H 187.884 3.37784 -0.979531 0
M  V30 2053 H 187.758 3.69848 0.741077 0
M  V30 2054 H 190.145 2.75686 1.05268 0
M  V30 2055 H 190.226 2.4631 -0.690297 0
M  V30 2056 H 189.87 4.95742 -1.10465 0
M  V30 2057 H 189.8 5.22507 0.655253 0
M  V30 2058 H 192.291 3.7784 0.0670898 0
M  V30 2059 H 192.604 7.71255 -0.488437 0
M  V30 2060 H 190.949 6.93654 -0.432329 0
M  V30 2061 H 194.14 4.681 -0.00115036 0
M  V30 2062 H 194.313 6.47501 -0.254247 0
M  V30 2063 N 187.719 -0.156864 1.56817 0
M  V30 2064 C 188.649 -1.19589 2.00551 0
M  V30 2065 C 189.63 -1.4536 0.883426 0
M  V30 2066 O 190.815 -1.56449 1.15054 0
M  V30 2067 C 187.945 -2.53143 2.37773 0
M  V30 2068 C 186.899 -2.41913 3.53075 0
M  V30 2069 C 186.225 -3.80088 3.76081 0
M  V30 2070 C 187.525 -1.91157 4.86062 0
M  V30 2071 H 189.219 -0.832293 2.87599 0
M  V30 2072 H 186.765 -0.398918 1.38364 0
M  V30 2073 H 188.718 -3.26047 2.66967 0
M  V30 2074 H 187.442 -2.91319 1.4765 0
M  V30 2075 H 186.101 -1.71462 3.24031 0
M  V30 2076 H 185.749 -4.15683 2.83225 0
M  V30 2077 H 185.449 -3.73439 4.53671 0
M  V30 2078 H 186.973 -4.54556 4.0769 0
M  V30 2079 H 188.387 -2.53846 5.14038 0
M  V30 2080 H 186.784 -1.95422 5.67389 0
M  V30 2081 H 187.854 -0.866673 4.77092 0
M  V30 2082 N 189.197 -1.51736 -0.425897 0
M  V30 2083 C 190.422 -1.69082 -1.20108 0
M  V30 2084 C 190.847 -0.392398 -1.83962 0
M  V30 2085 O 190.205 0.64858 -1.69302 0
M  V30 2086 C 190.253 -2.81604 -2.25237 0
M  V30 2087 O 189.357 -2.46004 -3.30992 0
M  V30 2088 H 188.698 -0.563408 -0.35138 0
M  V30 2089 H 191.228 -1.98358 -0.501512 0
M  V30 2090 H 191.238 -3.06025 -2.69838 0
M  V30 2091 H 189.913 -3.75817 -1.78142 0
M  V30 2092 H 188.49 -2.32195 -2.91787 0
M  V30 2093 N 190.675 0.682077 -1.42076 0
M  V30 2094 C 191.921 1.44428 -1.42367 0
M  V30 2095 C 192.254 1.94164 -0.0373056 0
M  V30 2096 O 191.529 1.70429 0.937239 0
M  V30 2097 C 191.812 2.64654 -2.44194 0
M  V30 2098 C 191.665 2.20596 -3.91991 0
M  V30 2099 C 192.984 3.66865 -2.431 0
M  V30 2100 H 190.103 0.523834 -0.518428 0
M  V30 2101 H 192.745 0.77576 -1.73442 0
M  V30 2102 H 190.895 3.2169 -2.17826 0
M  V30 2103 H 192.567 1.68783 -4.29313 0
M  V30 2104 H 190.81 1.52242 -4.06208 0
M  V30 2105 H 191.481 3.06921 -4.58807 0
M  V30 2106 H 193.957 3.19531 -2.66532 0
M  V30 2107 H 192.833 4.48577 -3.16339 0
M  V30 2108 H 193.094 4.17493 -1.45437 0
M  V30 2109 N 192.153 1.28127 0.917671 0
M  V30 2110 C 193.378 1.18007 1.70555 0
M  V30 2111 C 193.803 -0.258257 1.86319 0
M  V30 2112 O 193.161 -1.1869 1.37049 0
M  V30 2113 C 193.209 1.87948 3.07746 0
M  V30 2114 O 192.313 1.18427 3.9503 0
M  V30 2115 H 191.654 0.409867 0.522403 0
M  V30 2116 H 194.184 1.69379 1.1477 0
M  V30 2117 H 194.194 1.95701 3.58001 0
M  V30 2118 H 192.869 2.92573 2.95591 0
M  V30 2119 H 191.446 1.18811 3.53466 0
M  V30 2120 N 193.631 -1.12557 1.10312 0
M  V30 2121 C 194.879 -1.83675 0.843091 0
M  V30 2122 C 195.2 -1.84435 -0.633131 0
M  V30 2123 O 194.47 -1.30657 -1.45964 0
M  V30 2124 H 193.05 -0.680138 0.308904 0
M  V30 2125 H 195.712 -1.36301 1.39313 0
M  V30 2126 H 194.808 -2.87908 1.2048 0
M  V30 2127 N 195.109 -0.891671 -1.2995 0
M  V30 2128 C 196.525 -0.58662 -1.48428 0
M  V30 2129 C 196.725 0.873951 -1.81561 0
M  V30 2130 O 195.781 1.65471 -1.90724 0
M  V30 2131 C 197.094 -1.50553 -2.60296 0
M  V30 2132 C 198.642 -1.50988 -2.74175 0
M  V30 2133 C 199.117 -2.41488 -3.89163 0
M  V30 2134 N 200.608 -2.39489 -3.96483 0
M  V30 2135 C 201.343 -3.06223 -4.84784 0
M  V30 2136 N 200.839 -3.82206 -5.77833 0
M  V30 2137 N 202.632 -2.95421 -4.78208 0
M  V30 2138 H 194.783 -1.83644 -1.06718 0
M  V30 2139 H 197.046 -0.786455 -0.529332 0
M  V30 2140 H 196.752 -2.54581 -2.42654 0
M  V30 2141 H 196.626 -1.22008 -3.56923 0
M  V30 2142 H 199.013 -0.47708 -2.91218 0
M  V30 2143 H 199.094 -1.83567 -1.78148 0
M  V30 2144 H 198.738 -3.44857 -3.72876 0
M  V30 2145 H 198.668 -2.06222 -4.84541 0
M  V30 2146 H 201.159 -1.84278 -3.29924 0
M  V30 2147 H 201.472 -4.302 -6.41988 0
M  V30 2148 H 199.817 -3.86313 -5.77743 0
M  V30 2149 H 203.008 -2.35581 -4.04499 0
M  V30 2150 H 203.181 -3.47704 -5.46814 0
M  V30 2151 N 196.587 1.43421 -0.653314 0
M  V30 2152 C 197.864 1.95361 -0.0966581 0
M  V30 2153 C 198.244 1.59461 1.38331 0
M  V30 2154 O 197.592 0.879777 2.10884 0
M  V30 2155 C 197.802 3.47311 -0.342988 0
M  V30 2156 C 199.15 4.23875 -0.24798 0
M  V30 2157 O 200.174 3.55133 -0.275553 0
M  V30 2158 O 199.033 5.4623 -0.171771 0
M  V30 2159 H 196.127 0.826945 0.00956291 0
M  V30 2160 H 198.673 1.5336 -0.726558 0
M  V30 2161 H 197.445 3.66569 -1.36906 0
M  V30 2162 H 197.068 3.9631 0.319975 0
M  V30 2163 N 198.065 0.39524 1.52563 0
M  V30 2164 C 198.975 -0.444232 2.30356 0
M  V30 2165 C 199.991 -1.06615 1.37511 0
M  V30 2166 O 201.167 -1.07067 1.70583 0
M  V30 2167 C 198.232 -1.55315 3.09964 0
M  V30 2168 C 197.293 -0.955734 4.18526 0
M  V30 2169 C 196.526 -2.01181 4.9433 0
M  V30 2170 O 196.749 -3.22781 4.70285 0
M  V30 2171 O 195.683 -1.62579 5.79527 0
M  V30 2172 H 199.509 0.189667 3.03107 0
M  V30 2173 H 197.094 0.1588 1.48554 0
M  V30 2174 H 198.976 -2.19724 3.59582 0
M  V30 2175 H 197.651 -2.17191 2.4002 0
M  V30 2176 H 196.558 -0.274743 3.7309 0
M  V30 2177 H 197.891 -0.381109 4.90722 0
M  V30 2178 N 199.544 -1.57102 0.125237 0
M  V30 2179 C 200.492 -2.16905 -0.839927 0
M  V30 2180 C 201.486 -1.11998 -1.27094 0
M  V30 2181 O 202.692 -1.3029 -1.24195 0
M  V30 2182 H 199.067 -0.694252 -0.288995 0
M  V30 2183 H 201.038 -2.96774 -0.311115 0
M  V30 2184 C 199.787 -2.78795 -2.07771 0
M  V30 2185 H 199.11 -3.59221 -1.755 0
M  V30 2186 H 200.55 -3.2417 -2.73295 0
M  V30 2187 C 199.009 -1.76193 -2.87155 0
M  V30 2188 O 199.539 -1.21909 -3.82755 0
M  V30 2189 N 197.745 -1.45991 -2.51267 0
M  V30 2190 H 197.292 -1.90325 -1.73592 0
M  V30 2191 H 197.25 -0.775844 -3.04677 0
M  V30 2192 N 201.022 0.148545 -1.56898 0
M  V30 2193 C 202.247 0.880385 -1.87787 0
M  V30 2194 C 202.672 1.74018 -0.714093 0
M  V30 2195 O 202.03 1.78153 0.336343 0
M  V30 2196 C 202.078 1.71422 -3.17249 0
M  V30 2197 O 201.182 2.8183 -3.01074 0
M  V30 2198 H 200.523 0.245301 -0.617028 0
M  V30 2199 H 203.053 0.139826 -2.04122 0
M  V30 2200 H 203.063 2.10954 -3.49231 0
M  V30 2201 H 201.738 1.08284 -4.01556 0
M  V30 2202 H 200.315 2.45715 -2.80497 0
M  V30 2203 N 202.5 1.5196 0.417844 0
M  V30 2204 C 203.746 1.65836 1.16732 0
M  V30 2205 C 204.079 0.382881 1.90388 0
M  V30 2206 O 203.354 -0.618368 1.84408 0
M  V30 2207 C 203.637 2.87466 2.16876 0
M  V30 2208 C 203.49 4.25041 1.47174 0
M  V30 2209 C 204.809 3.04613 3.17646 0
M  V30 2210 H 201.928 0.603515 0.423011 0
M  V30 2211 H 204.57 1.84494 0.454105 0
M  V30 2212 H 202.72 2.71689 2.777 0
M  V30 2213 H 204.392 4.52527 0.895376 0
M  V30 2214 H 202.635 4.26843 0.773806 0
M  V30 2215 H 203.306 5.06176 2.20204 0
M  V30 2216 H 205.782 3.1923 2.66892 0
M  V30 2217 H 204.658 3.91247 3.8499 0
M  V30 2218 H 204.919 2.17541 3.84874 0
M  V30 2219 N 203.978 -0.674533 1.42435 0
M  V30 2220 C 204.888 -1.81751 1.48337 0
M  V30 2221 C 205.904 -1.69975 0.372099 0
M  V30 2222 O 207.08 -1.91521 0.62304 0
M  V30 2223 C 204.145 -3.17895 1.38361 0
M  V30 2224 C 203.206 -3.41625 2.59982 0
M  V30 2225 C 202.439 -4.71274 2.50473 0
M  V30 2226 O 202.662 -5.49197 1.54075 0
M  V30 2227 O 201.596 -4.96254 3.4061 0
M  V30 2228 H 205.422 -1.79728 2.44809 0
M  V30 2229 H 203.007 -0.830312 1.24202 0
M  V30 2230 H 204.889 -3.99136 1.35161 0
M  V30 2231 H 203.564 -3.20555 0.450144 0
M  V30 2232 H 202.471 -2.60231 2.68757 0
M  V30 2233 H 203.804 -3.43796 3.52229 0
M  V30 2234 N 205.456 -1.28612 -0.910864 0
M  V30 2235 C 206.386 -1.15326 -2.03032 0
M  V30 2236 C 207.367 -0.0502924 -1.70026 0
M  V30 2237 O 208.552 -0.227797 -1.92859 0
M  V30 2238 C 205.682 -0.817343 -3.37545 0
M  V30 2239 C 204.636 -1.8754 -3.84724 0
M  V30 2240 C 203.962 -1.39305 -5.16235 0
M  V30 2241 C 205.262 -3.28244 -4.06267 0
M  V30 2242 H 206.956 -2.08975 -2.14406 0
M  V30 2243 H 204.502 -1.00612 -1.03021 0
M  V30 2244 H 206.455 -0.711151 -4.15356 0
M  V30 2245 H 205.179 0.154846 -3.26233 0
M  V30 2246 H 203.838 -1.97079 -3.09121 0
M  V30 2247 H 203.486 -0.409846 -5.01328 0
M  V30 2248 H 203.186 -2.10057 -5.48771 0
M  V30 2249 H 204.71 -1.30014 -5.96598 0
M  V30 2250 H 206.124 -3.21611 -4.74594 0
M  V30 2251 H 204.521 -3.96855 -4.5014 0
M  V30 2252 H 205.591 -3.72048 -3.10979 0
M  V30 2253 N 206.934 1.1197 -1.10907 0
M  V30 2254 C 208.162 1.87402 -0.876824 0
M  V30 2255 C 208.577 1.79894 0.573025 0
M  V30 2256 O 207.934 1.17629 1.39534 0
M  V30 2257 C 207.985 3.36428 -1.32282 0
M  V30 2258 O 207.706 3.43765 -2.71582 0
M  V30 2259 C 209.207 4.28783 -1.12518 0
M  V30 2260 H 206.427 0.592793 -0.314384 0
M  V30 2261 H 208.971 1.41649 -1.47499 0
M  V30 2262 H 207.126 3.79706 -0.768229 0
M  V30 2263 H 207.54 4.3652 -2.90776 0
M  V30 2264 H 209.014 5.31613 -1.48633 0
M  V30 2265 H 209.491 4.39153 -0.0642394 0
M  V30 2266 H 210.097 3.91291 -1.66648 0
M  V30 2267 N 208.412 0.89855 1.29475 0
M  V30 2268 C 209.345 0.319981 2.25945 0
M  V30 2269 C 210.323 -0.567189 1.52387 0
M  V30 2270 O 211.507 -0.514254 1.8135 0
M  V30 2271 C 208.634 -0.544013 3.34303 0
M  V30 2272 C 207.68 0.275682 4.25608 0
M  V30 2273 S 208.513 1.67272 5.08704 0
M  V30 2274 C 209.669 0.815621 6.20563 0
M  V30 2275 H 209.902 1.13767 2.74671 0
M  V30 2276 H 207.435 0.69882 1.3768 0
M  V30 2277 H 209.393 -1.03673 3.97193 0
M  V30 2278 H 208.054 -1.33593 2.84274 0
M  V30 2279 H 207.247 -0.384263 5.02533 0
M  V30 2280 H 206.849 0.701496 3.67362 0
M  V30 2281 H 209.141 0.0385042 6.77489 0
M  V30 2282 H 210.084 1.55691 6.90772 0
M  V30 2283 H 210.492 0.370516 5.63283 0
M  V30 2284 N 209.89 -1.43072 0.660911 0
M  V30 2285 C 210.853 -2.29194 -0.0166406 0
M  V30 2286 C 211.853 -1.42609 -0.742912 0
M  V30 2287 O 213.043 -1.64155 -0.583004 0
M  V30 2288 C 210.175 -3.24831 -1.0343 0
M  V30 2289 H 211.368 -2.90596 0.741208 0
M  V30 2290 H 208.921 -1.5048 0.422532 0
M  V30 2291 H 209.656 -2.68339 -1.82111 0
M  V30 2292 H 209.441 -3.88676 -0.517082 0
M  V30 2293 H 210.931 -3.89451 -1.50723 0
M  V30 2294 N 211.368 -0.403325 -1.52352 0
M  V30 2295 C 212.278 0.432009 -2.30588 0
M  V30 2296 C 213.294 1.05884 -1.38075 0
M  V30 2297 O 214.47 1.06161 -1.71148 0
M  V30 2298 C 211.535 1.53669 -3.10784 0
M  V30 2299 C 210.596 0.933525 -4.19027 0
M  V30 2300 C 209.829 1.98557 -4.9539 0
M  V30 2301 O 210.052 3.20283 -4.71991 0
M  V30 2302 O 208.986 1.59504 -5.80381 0
M  V30 2303 H 212.812 -0.205739 -3.03002 0
M  V30 2304 H 210.397 -0.166675 -1.48467 0
M  V30 2305 H 212.279 2.17814 -3.60742 0
M  V30 2306 H 210.954 2.15915 -2.41169 0
M  V30 2307 H 209.861 0.254954 -3.7323 0
M  V30 2308 H 211.194 0.35508 -4.90918 0
M  V30 2309 N 212.846 1.57033 -0.133567 0
M  V30 2310 C 214.094 1.953 0.519848 0
M  V30 2311 C 214.415 1.01866 1.66278 0
M  V30 2312 O 213.685 0.0776513 1.95746 0
M  V30 2313 H 212.265 0.721091 0.195032 0
M  V30 2314 H 214.927 1.93809 -0.205921 0
M  V30 2315 H 214.023 2.98695 0.904854 0
M  V30 2316 N 214.325 -0.140222 1.56975 0
M  V30 2317 C 215.736 -0.699596 1.73097 0
M  V30 2318 C 216.087 -1.8134 0.749022 0
M  V30 2319 O 215.212 -2.16241 -0.0828503 0
M  V30 2320 C 215.807 -1.27582 3.1386 0
M  V30 2321 C 214.366 -1.78169 3.31561 0
M  V30 2322 C 213.513 -0.672855 2.69013 0
M  V30 2323 H 216.464 0.0855115 1.58469 0
M  V30 2324 H 216.485 -2.14561 3.14235 0
M  V30 2325 H 215.997 -0.464955 3.85305 0
M  V30 2326 H 214.098 -2.61801 2.65124 0
M  V30 2327 H 214.211 -1.90574 4.39566 0
M  V30 2328 H 212.575 -1.10118 2.29665 0
M  V30 2329 H 213.358 0.126679 3.43066 0
M  V30 2330 N 215.803 -1.52179 -0.40978 0
M  V30 2331 C 217.033 -1.69807 -1.17682 0
M  V30 2332 C 217.441 -0.406908 -1.84773 0
M  V30 2333 O 216.784 0.626863 -1.72673 0
M  V30 2334 C 216.846 -2.77712 -2.2829 0
M  V30 2335 C 216.51 -4.19481 -1.81341 0
M  V30 2336 C 217.507 -5.03345 -1.30154 0
M  V30 2337 C 215.192 -4.65713 -1.88194 0
M  V30 2338 C 217.186 -6.31511 -0.864416 0
M  V30 2339 C 214.873 -5.93869 -1.44093 0
M  V30 2340 C 215.871 -6.76597 -0.933023 0
M  V30 2341 O 215.559 -8.02354 -0.49838 0
M  V30 2342 H 215.291 -0.572372 -0.359675 0
M  V30 2343 H 217.845 -1.99511 -0.488311 0
M  V30 2344 H 216.075 -2.43383 -3.00502 0
M  V30 2345 H 217.764 -2.83946 -2.90051 0
M  V30 2346 H 218.53 -4.68819 -1.24232 0
M  V30 2347 H 214.409 -4.01424 -2.26671 0
M  V30 2348 H 217.953 -6.96033 -0.467286 0
M  V30 2349 H 213.85 -6.27903 -1.49694 0
M  V30 2350 H 214.618 -8.16135 -0.621747 0
M  V30 2351 N 217.281 0.66697 -1.42791 0
M  V30 2352 C 218.228 1.7803 -1.4688 0
M  V30 2353 C 219.198 1.6299 -0.319919 0
M  V30 2354 O 220.383 1.83432 -0.525118 0
M  V30 2355 C 217.523 3.1611 -1.38451 0
M  V30 2356 C 216.636 3.42381 -2.63437 0
M  V30 2357 C 215.771 4.70232 -2.47094 0
M  V30 2358 C 214.81 4.89564 -3.67415 0
M  V30 2359 N 213.947 6.08661 -3.49966 0
M  V30 2360 H 218.787 1.7387 -2.42019 0
M  V30 2361 H 216.324 0.84868 -1.20149 0
M  V30 2362 H 218.282 3.95914 -1.31561 0
M  V30 2363 H 216.912 3.19374 -0.469033 0
M  V30 2364 H 215.964 2.56774 -2.80662 0
M  V30 2365 H 217.276 3.52557 -3.52853 0
M  V30 2366 H 216.43 5.5814 -2.37834 0
M  V30 2367 H 215.169 4.62353 -1.5518 0
M  V30 2368 H 214.174 4.00096 -3.77099 0
M  V30 2369 H 215.399 4.99282 -4.6032 0
M  V30 2370 H 213.345 6.0194 -2.60776 0
M  V30 2371 H 213.262 6.19733 -4.32975 0
M  V30 2372 H 214.53 6.99226 -3.44532 0
M  V30 2373 N 218.759 1.29093 0.90403 0
M  V30 2374 C 220.008 1.16187 1.64874 0
M  V30 2375 C 220.321 -0.286742 1.93487 0
M  V30 2376 O 221.527 -0.537062 2.66135 0
M  V30 2377 C 219.983 2.03177 2.97064 0
M  V30 2378 C 219.591 3.52836 2.76062 0
M  V30 2379 C 221.335 1.98984 3.74974 0
M  V30 2380 C 219.242 4.31945 4.03952 0
M  V30 2381 H 218.172 0.431246 0.618501 0
M  V30 2382 H 220.823 1.53699 1.00243 0
M  V30 2383 H 219.205 1.5853 3.62883 0
M  V30 2384 H 220.379 4.05507 2.18863 0
M  V30 2385 H 218.694 3.58656 2.11553 0
M  V30 2386 H 221.291 2.55351 4.69787 0
M  V30 2387 H 221.634 0.968815 4.0487 0
M  V30 2388 H 222.167 2.41652 3.15989 0
M  V30 2389 H 218.906 5.34667 3.79225 0
M  V30 2390 H 218.426 3.84045 4.60727 0
M  V30 2391 H 220.105 4.42379 4.72133 0
M  V30 2392 N 220.237 -1.11381 1.11499 0
M  V30 2393 C 221.486 -1.82494 0.858993 0
M  V30 2394 C 221.799 -1.85605 -0.617278 0
M  V30 2395 O 223.005 -2.52824 -0.989552 0
M  V30 2396 C 221.461 -3.27745 1.48699 0
M  V30 2397 C 221.069 -3.32961 2.99735 0
M  V30 2398 C 222.813 -4.03754 1.31085 0
M  V30 2399 C 220.72 -4.72612 3.55516 0
M  V30 2400 H 219.65 -0.683802 0.317696 0
M  V30 2401 H 222.301 -1.25331 1.34031 0
M  V30 2402 H 220.683 -3.84844 0.933339 0
M  V30 2403 H 221.857 -2.85741 3.61509 0
M  V30 2404 H 220.172 -2.70433 3.16631 0
M  V30 2405 H 222.769 -5.06891 1.70192 0
M  V30 2406 H 223.112 -4.15527 0.253496 0
M  V30 2407 H 223.645 -3.53043 1.83318 0
M  V30 2408 H 220.384 -4.66036 4.60967 0
M  V30 2409 H 219.904 -5.2024 2.98513 0
M  V30 2410 H 221.583 -5.4157 3.53992 0
M  V30 2411 N 221.715 -0.905404 -1.28997 0
M  V30 2412 C 222.645 -0.404212 -2.29975 0
M  V30 2413 C 223.626 0.523784 -1.61835 0
M  V30 2414 O 224.811 0.433298 -1.89304 0
M  V30 2415 C 221.941 0.364042 -3.45387 0
M  V30 2416 C 220.895 -0.474048 -4.25367 0
M  V30 2417 C 220.221 0.422045 -5.33032 0
M  V30 2418 C 221.521 -1.72696 -4.92923 0
M  V30 2419 H 223.215 -1.24807 -2.72146 0
M  V30 2420 H 220.761 -0.601585 -1.30832 0
M  V30 2421 H 222.714 0.725447 -4.15109 0
M  V30 2422 H 221.438 1.24174 -3.02074 0
M  V30 2423 H 220.097 -0.81786 -3.57361 0
M  V30 2424 H 219.745 1.29804 -4.85963 0
M  V30 2425 H 219.445 -0.135057 -5.87445 0
M  V30 2426 H 220.969 0.779517 -6.05604 0
M  V30 2427 H 222.383 -1.43495 -5.55051 0
M  V30 2428 H 220.78 -2.22582 -5.57295 0
M  V30 2429 H 221.85 -2.45964 -4.17887 0
M  V30 2430 N 223.193 1.4272 -0.668489 0
M  V30 2431 C 224.421 2.05966 -0.196348 0
M  V30 2432 C 224.836 1.50191 1.14403 0
M  V30 2433 O 224.193 0.639208 1.7094 0
M  V30 2434 C 224.244 3.61314 -0.115815 0
M  V30 2435 O 223.965 4.1502 -1.40322 0
M  V30 2436 C 225.466 4.41663 0.380579 0
M  V30 2437 H 222.686 0.663954 -0.0969829 0
M  V30 2438 H 225.23 1.82966 -0.913446 0
M  V30 2439 H 223.385 3.83448 0.551931 0
M  V30 2440 H 223.799 5.08832 -1.27243 0
M  V30 2441 H 225.273 5.5065 0.385848 0
M  V30 2442 H 225.75 4.15792 1.41471 0
M  V30 2443 H 226.356 4.24534 -0.255209 0
M  V30 2444 N 224.671 0.411399 1.52136 0
M  V30 2445 C 225.634 -0.401089 2.25663 0
M  V30 2446 C 226.634 -0.971732 1.28117 0
M  V30 2447 O 227.824 -0.850254 1.52041 0
M  V30 2448 C 224.956 -1.56483 3.02863 0
M  V30 2449 H 226.149 0.24295 2.98914 0
M  V30 2450 H 223.702 0.163968 1.55438 0
M  V30 2451 H 224.437 -2.24567 2.33967 0
M  V30 2452 H 224.222 -1.16211 3.74483 0
M  V30 2453 H 225.712 -2.13951 3.58629 0
M  V30 2454 N 226.149 -1.5696 0.141893 0
M  V30 2455 C 227.565 -1.58151 -0.21456 0
M  V30 2456 C 227.765 -1.1559 -1.65049 0
M  V30 2457 O 226.821 -0.853832 -2.37626 0
M  V30 2458 C 228.134 -3.00674 0.0395576 0
M  V30 2459 C 229.682 -3.1299 -0.0245529 0
M  V30 2460 C 230.157 -4.57554 0.202167 0
M  V30 2461 N 231.648 -4.62961 0.148919 0
M  V30 2462 C 232.383 -5.7262 0.298924 0
M  V30 2463 N 231.879 -6.90947 0.50637 0
M  V30 2464 N 233.672 -5.61601 0.236886 0
M  V30 2465 H 225.823 -1.8292 1.07953 0
M  V30 2466 H 228.086 -0.846425 0.42693 0
M  V30 2467 H 227.792 -3.36183 1.03315 0
M  V30 2468 H 227.666 -3.70981 -0.682143 0
M  V30 2469 H 230.053 -2.77326 -1.00869 0
M  V30 2470 H 230.134 -2.4518 0.729396 0
M  V30 2471 H 229.778 -4.93922 1.18338 0
M  V30 2472 H 229.708 -5.23484 -0.572044 0
M  V30 2473 H 232.199 -3.77899 -0.00697015 0
M  V30 2474 H 232.512 -7.7038 0.611076 0
M  V30 2475 H 230.857 -6.92878 0.542628 0
M  V30 2476 H 234.048 -4.68039 0.0756209 0
M  V30 2477 H 234.221 -6.47015 0.357227 0
M  V30 2478 N 227.627 0.131896 -1.57047 0
M  V30 2479 C 229.038 0.690407 -1.73465 0
M  V30 2480 C 229.389 1.8094 -0.758629 0
M  V30 2481 O 228.514 2.16282 0.0713813 0
M  V30 2482 C 229.109 1.25916 -3.14532 0
M  V30 2483 C 227.668 1.76409 -3.32501 0
M  V30 2484 C 226.815 0.658579 -2.69366 0
M  V30 2485 H 229.766 -0.0939144 -1.58422 0
M  V30 2486 H 229.787 2.12892 -3.15369 0
M  V30 2487 H 229.299 0.444515 -3.85546 0
M  V30 2488 H 227.4 2.60391 -2.66509 0
M  V30 2489 H 227.513 1.88241 -4.4057 0
M  V30 2490 H 225.877 1.08899 -2.30246 0
M  V30 2491 H 226.66 -0.14487 -3.42994 0
M  V30 2492 N 229.106 1.52395 0.401703 0
M  V30 2493 C 230.353 1.66817 1.14796 0
M  V30 2494 C 230.681 0.401772 1.90305 0
M  V30 2495 O 229.936 -0.615487 1.85769 0
M  V30 2496 C 230.235 2.84578 2.16217 0
M  V30 2497 C 229.901 4.22513 1.5746 0
M  V30 2498 C 228.563 4.60029 1.41161 0
M  V30 2499 C 230.915 5.0844 1.14622 0
M  V30 2500 C 228.243 5.81144 0.80552 0
M  V30 2501 C 230.595 6.30167 0.55428 0
M  V30 2502 C 229.259 6.66426 0.378482 0
M  V30 2503 H 228.529 0.610428 0.420069 0
M  V30 2504 H 231.176 1.86512 0.434212 0
M  V30 2505 H 229.481 2.59248 2.93764 0
M  V30 2506 H 231.178 2.92933 2.73845 0
M  V30 2507 H 227.768 3.92953 1.71132 0
M  V30 2508 H 231.952 4.80034 1.26021 0
M  V30 2509 H 227.208 6.07855 0.657399 0
M  V30 2510 H 231.382 6.96071 0.213983 0
M  V30 2511 H 229.009 7.60143 -0.0932606 0
M  V30 2512 N 230.584 -0.659388 1.43143 0
M  V30 2513 C 232 -0.974337 1.26407 0
M  V30 2514 C 232.2 -2.007 0.179341 0
M  V30 2515 O 231.256 -2.4856 -0.444295 0
M  V30 2516 C 232.569 -1.46447 2.62628 0
M  V30 2517 C 234.117 -1.58144 2.7011 0
M  V30 2518 C 234.592 -2.1055 4.06734 0
M  V30 2519 N 236.083 -2.17861 4.08767 0
M  V30 2520 C 236.818 -2.59519 5.1131 0
M  V30 2521 N 236.314 -3.00518 6.24228 0
M  V30 2522 N 238.107 -2.59404 4.98664 0
M  V30 2523 H 230.258 0.0240528 2.12386 0
M  V30 2524 H 232.521 -0.0518065 0.946583 0
M  V30 2525 H 232.227 -0.780123 3.42939 0
M  V30 2526 H 232.101 -2.44058 2.87603 0
M  V30 2527 H 234.488 -2.25682 1.90136 0
M  V30 2528 H 234.569 -0.589828 2.48907 0
M  V30 2529 H 234.213 -1.43616 4.87172 0
M  V30 2530 H 234.143 -3.10531 4.25298 0
M  V30 2531 H 236.634 -1.88975 3.27257 0
M  V30 2532 H 236.947 -3.31036 6.98309 0
M  V30 2533 H 235.292 -2.98337 6.2771 0
M  V30 2534 H 238.483 -2.26747 4.09516 0
M  V30 2535 H 238.656 -2.91548 5.78709 0
M  V30 2536 N 232.062 -1.29571 -0.897171 0
M  V30 2537 C 232.992 -1.17473 -2.01798 0
M  V30 2538 C 233.973 -0.068323 -1.69963 0
M  V30 2539 O 235.158 -0.248239 -1.92607 0
M  V30 2540 C 232.288 -0.853099 -3.36659 0
M  V30 2541 C 231.242 -1.9161 -3.82713 0
M  V30 2542 C 230.568 -1.44773 -5.14728 0
M  V30 2543 C 231.868 -3.32535 -4.02763 0
M  V30 2544 H 233.562 -2.11237 -2.12177 0
M  V30 2545 H 231.108 -1.01699 -1.01948 0
M  V30 2546 H 233.061 -0.755165 -4.14578 0
M  V30 2547 H 231.785 0.120236 -3.26379 0
M  V30 2548 H 230.444 -2.00346 -3.07013 0
M  V30 2549 H 230.092 -0.462995 -5.00865 0
M  V30 2550 H 229.792 -2.15865 -5.46513 0
M  V30 2551 H 231.316 -1.36334 -5.95185 0
M  V30 2552 H 232.73 -3.26626 -4.71156 0
M  V30 2553 H 231.127 -4.01607 -4.45905 0
M  V30 2554 H 232.197 -3.75326 -3.07016 0
M  V30 2555 N 233.54 1.10788 -1.12088 0
M  V30 2556 C 234.817 1.79136 -0.785476 0
M  V30 2557 C 235.197 1.98246 0.725377 0
M  V30 2558 O 234.545 1.57258 1.65778 0
M  V30 2559 C 234.755 3.12375 -1.55636 0
M  V30 2560 C 236.103 3.8731 -1.74001 0
M  V30 2561 O 237.127 3.22085 -1.52117 0
M  V30 2562 O 235.986 5.04369 -2.10415 0
M  V30 2563 H 233.08 0.776226 -0.285311 0
M  V30 2564 H 235.626 1.1747 -1.2247 0
M  V30 2565 H 234.398 2.93863 -2.5838 0
M  V30 2566 H 234.021 3.81758 -1.11114 0
M  V30 2567 N 235.018 0.912232 1.28515 0
M  V30 2568 C 235.948 0.416403 2.29757 0
M  V30 2569 C 236.929 -0.515194 1.6211 0
M  V30 2570 O 238.114 -0.423253 1.89532 0
M  V30 2571 C 235.244 -0.34572 3.45575 0
M  V30 2572 C 234.198 0.496599 4.25109 0
M  V30 2573 C 233.524 -0.393771 5.33248 0
M  V30 2574 C 234.824 1.75307 4.92001 0
M  V30 2575 H 236.518 1.26249 2.7148 0
M  V30 2576 H 234.064 0.608515 1.30511 0
M  V30 2577 H 236.017 -0.703422 4.15488 0
M  V30 2578 H 234.741 -1.2257 3.02728 0
M  V30 2579 H 233.4 0.8368 3.56922 0
M  V30 2580 H 233.048 -1.27225 4.86644 0
M  V30 2581 H 232.748 0.166209 5.87365 0
M  V30 2582 H 234.272 -0.747389 6.06009 0
M  V30 2583 H 235.686 1.46437 5.54283 0
M  V30 2584 H 234.083 2.25534 5.56106 0
M  V30 2585 H 235.153 2.48176 4.16577 0
M  V30 2586 N 236.496 -1.42363 0.676048 0
M  V30 2587 C 237.426 -2.33497 0.0124832 0
M  V30 2588 C 238.407 -1.50748 -0.787981 0
M  V30 2589 O 239.592 -1.79346 -0.744884 0
M  V30 2590 C 236.722 -3.34377 -0.938582 0
M  V30 2591 C 235.676 -4.27289 -0.246622 0
M  V30 2592 C 235.002 -5.18386 -1.31071 0
M  V30 2593 C 236.302 -5.14916 0.875125 0
M  V30 2594 H 237.996 -2.89233 0.773593 0
M  V30 2595 H 235.542 -1.39073 0.37346 0
M  V30 2596 H 237.495 -3.97044 -1.41188 0
M  V30 2597 H 236.219 -2.76947 -1.73113 0
M  V30 2598 H 234.878 -3.66018 0.206456 0
M  V30 2599 H 234.526 -4.57282 -2.09528 0
M  V30 2600 H 234.226 -5.81378 -0.852839 0
M  V30 2601 H 235.75 -5.83929 -1.78492 0
M  V30 2602 H 237.164 -5.71262 0.482983 0
M  V30 2603 H 235.561 -5.86747 1.25887 0
M  V30 2604 H 236.631 -4.53242 1.72335 0
M  V30 2605 N 237.974 -0.419461 -1.51915 0
M  V30 2606 C 238.884 0.407528 -2.31033 0
M  V30 2607 C 239.9 1.04413 -1.3919 0
M  V30 2608 O 241.076 1.0434 -1.72265 0
M  V30 2609 C 238.141 1.50365 -3.12396 0
M  V30 2610 C 237.202 0.889029 -4.19994 0
M  V30 2611 C 236.435 1.93291 -4.97468 0
M  V30 2612 O 236.658 3.15259 -4.75361 0
M  V30 2613 O 235.592 1.53339 -5.8204 0
M  V30 2614 H 239.418 -0.237865 -3.02767 0
M  V30 2615 H 237.003 -0.182413 -1.48282 0
M  V30 2616 H 238.885 2.13975 -3.63032 0
M  V30 2617 H 237.56 2.13345 -2.43445 0
M  V30 2618 H 236.467 0.215353 -3.7348 0
M  V30 2619 H 237.8 0.302991 -4.91267 0
M  V30 2620 N 239.452 1.56882 -0.150215 0
M  V30 2621 C 240.729 1.87844 0.545327 0
M  V30 2622 C 241.109 1.0567 1.82749 0
M  V30 2623 O 240.457 0.144442 2.28043 0
M  V30 2624 C 240.667 3.39526 0.80767 0
M  V30 2625 C 242.015 4.08814 1.14703 0
M  V30 2626 O 243.039 3.44723 0.896917 0
M  V30 2627 O 241.898 5.22004 1.61784 0
M  V30 2628 H 238.992 0.778677 0.278553 0
M  V30 2629 H 241.538 1.68666 -0.187068 0
M  V30 2630 H 240.31 3.91173 -0.0996096 0
M  V30 2631 H 239.933 3.64243 1.59413 0
M  V30 2632 N 240.93 -0.123565 1.57115 0
M  V30 2633 C 242.346 -0.476961 1.52306 0
M  V30 2634 C 242.546 -1.82109 0.86248 0
M  V30 2635 O 241.602 -2.48586 0.442884 0
M  V30 2636 C 242.915 -0.465661 2.97073 0
M  V30 2637 C 244.463 -0.549534 3.08138 0
M  V30 2638 C 244.938 -0.568669 4.54456 0
M  V30 2639 N 246.429 -0.630237 4.58892 0
M  V30 2640 C 247.164 -0.666415 5.69514 0
M  V30 2641 N 246.66 -0.660514 6.89644 0
M  V30 2642 N 248.453 -0.709077 5.5761 0
M  V30 2643 H 240.604 0.757198 1.98445 0
M  V30 2644 H 242.867 0.278808 0.906074 0
M  V30 2645 H 242.573 0.454232 3.48754 0
M  V30 2646 H 242.447 -1.29513 3.54269 0
M  V30 2647 H 244.834 -1.45985 2.56461 0
M  V30 2648 H 244.915 0.307532 2.53945 0
M  V30 2649 H 244.559 0.337581 5.06777 0
M  V30 2650 H 244.489 -1.44256 5.06456 0
M  V30 2651 H 246.98 -0.641146 3.72421 0
M  V30 2652 H 247.293 -0.690616 7.69708 0
M  V30 2653 H 245.638 -0.628012 6.92157 0
M  V30 2654 H 248.829 -0.711019 4.62668 0
M  V30 2655 H 249.002 -0.733804 6.43832 0
M  V30 2656 N 242.408 -1.52605 -0.393616 0
M  V30 2657 C 243.633 -1.71592 -1.16495 0
M  V30 2658 C 244.058 -0.43133 -1.83088 0
M  V30 2659 O 243.416 0.612523 -1.7064 0
M  V30 2660 C 243.464 -2.86318 -2.19213 0
M  V30 2661 O 242.568 -2.52969 -3.257 0
M  V30 2662 H 241.909 -0.570734 -0.33935 0
M  V30 2663 H 244.439 -1.99377 -0.459324 0
M  V30 2664 H 244.449 -3.1168 -2.63286 0
M  V30 2665 H 243.124 -3.79511 -1.7013 0
M  V30 2666 H 241.701 -2.38332 -2.86797 0
M  V30 2667 N 243.887 0.651787 -1.4349 0
M  V30 2668 C 244.817 1.77621 -1.51569 0
M  V30 2669 C 245.798 1.66022 -0.370253 0
M  V30 2670 O 246.983 1.85095 -0.587658 0
M  V30 2671 C 244.113 3.16056 -1.43966 0
M  V30 2672 C 243.067 3.4242 -2.56774 0
M  V30 2673 C 242.393 4.8067 -2.34223 0
M  V30 2674 C 243.693 3.37023 -3.99015 0
M  V30 2675 H 245.387 1.71117 -2.45681 0
M  V30 2676 H 242.933 0.821825 -1.18246 0
M  V30 2677 H 244.886 3.94472 -1.48221 0
M  V30 2678 H 243.61 3.23293 -0.463586 0
M  V30 2679 H 242.269 2.66375 -2.51873 0
M  V30 2680 H 241.917 4.84585 -1.34856 0
M  V30 2681 H 241.617 4.9927 -3.09844 0
M  V30 2682 H 243.141 5.61342 -2.40265 0
M  V30 2683 H 244.555 4.05374 -4.05395 0
M  V30 2684 H 242.952 3.67159 -4.74673 0
M  V30 2685 H 244.022 2.3518 -4.2405 0
M  V30 2686 N 245.365 1.30045 0.890287 0
M  V30 2687 C 246.295 1.18541 2.01172 0
M  V30 2688 C 247.276 0.0773356 1.69924 0
M  V30 2689 O 248.461 0.25845 1.92473 0
M  V30 2690 C 245.591 0.870941 3.36202 0
M  V30 2691 C 244.545 1.93637 3.81692 0
M  V30 2692 C 243.871 1.475 5.13953 0
M  V30 2693 C 245.171 3.34666 4.00994 0
M  V30 2694 H 246.865 2.12359 2.11054 0
M  V30 2695 H 244.411 1.02238 1.01407 0
M  V30 2696 H 246.364 0.777141 4.14172 0
M  V30 2697 H 245.088 -0.102926 3.26438 0
M  V30 2698 H 243.747 2.01972 3.05946 0
M  V30 2699 H 243.395 0.489551 5.00612 0
M  V30 2700 H 243.095 2.1876 5.4536 0
M  V30 2701 H 244.619 1.39489 5.94454 0
M  V30 2702 H 246.033 3.2912 4.69417 0
M  V30 2703 H 244.43 4.03966 4.43769 0
M  V30 2704 H 245.5 3.76949 3.05021 0
M  V30 2705 N 246.843 -1.10192 1.12674 0
M  V30 2706 C 247.773 -2.18652 0.819362 0
M  V30 2707 C 248.754 -1.68698 -0.217915 0
M  V30 2708 O 249.939 -1.94041 -0.0785581 0
M  V30 2709 C 247.069 -3.46202 0.27594 0
M  V30 2710 C 246.023 -4.09444 1.24656 0
M  V30 2711 C 245.349 -5.31725 0.563258 0
M  V30 2712 C 246.649 -4.52863 2.60217 0
M  V30 2713 H 248.343 -2.44622 1.72628 0
M  V30 2714 H 245.889 -1.17571 0.831451 0
M  V30 2715 H 247.842 -4.21372 0.0486149 0
M  V30 2716 H 246.566 -3.1973 -0.666331 0
M  V30 2717 H 245.225 -3.36284 1.45974 0
M  V30 2718 H 244.873 -5.0153 -0.384235 0
M  V30 2719 H 244.573 -5.74991 1.21075 0
M  V30 2720 H 246.097 -6.09624 0.34503 0
M  V30 2721 H 247.511 -5.19294 2.42913 0
M  V30 2722 H 245.908 -5.06986 3.21068 0
M  V30 2723 H 246.978 -3.65656 3.18471 0
M  V30 2724 N 248.321 -0.919034 -1.28029 0
M  V30 2725 C 249.546 -0.570357 -1.99403 0
M  V30 2726 C 249.971 0.842486 -1.68178 0
M  V30 2727 O 249.329 1.56391 -0.917141 0
M  V30 2728 C 249.377 -0.792541 -3.51783 0
M  V30 2729 O 248.481 0.145988 -4.12142 0
M  V30 2730 H 247.822 -0.220555 -0.6263 0
M  V30 2731 H 250.352 -1.23592 -1.63053 0
M  V30 2732 H 250.362 -0.704708 -4.01868 0
M  V30 2733 H 249.037 -1.82247 -3.73844 0
M  V30 2734 H 247.614 0.00897528 -3.72899 0
M  V30 2735 N 249.799 1.42003 -0.683588 0
M  V30 2736 C 251.045 2.01712 -0.209825 0
M  V30 2737 C 251.378 1.53968 1.18353 0
M  V30 2738 O 250.653 0.745661 1.79639 0
M  V30 2739 C 250.936 3.59202 -0.254197 0
M  V30 2740 C 250.789 4.17102 -1.68363 0
M  V30 2741 C 252.108 4.38344 0.392709 0
M  V30 2742 H 249.227 0.732891 -0.0777189 0
M  V30 2743 H 251.869 1.68909 -0.87004 0
M  V30 2744 H 250.019 3.87278 0.307954 0
M  V30 2745 H 251.691 3.99946 -2.29871 0
M  V30 2746 H 249.934 3.72597 -2.22157 0
M  V30 2747 H 250.605 5.26249 -1.6663 0
M  V30 2748 H 253.081 4.16011 -0.0859162 0
M  V30 2749 H 251.957 5.47901 0.331063 0
M  V30 2750 H 252.218 4.16887 1.47164 0
M  V30 2751 N 251.277 0.427512 1.51691 0
M  V30 2752 C 252.225 -0.403359 2.29076 0
M  V30 2753 C 253.219 -1.02962 1.34518 0
M  V30 2754 O 254.425 -0.965715 1.51901 0
M  V30 2755 H 250.8 -0.148879 0.737115 0
M  V30 2756 H 252.771 0.270295 2.97173 0
M  V30 2757 C 251.52 -1.49763 3.13794 0
M  V30 2758 H 250.843 -1.02508 3.86435 0
M  V30 2759 H 252.283 -2.05244 3.71014 0
M  V30 2760 C 250.742 -2.47536 2.28533 0
M  V30 2761 O 251.272 -3.51848 1.93819 0
M  V30 2762 N 249.478 -2.18187 1.91945 0
M  V30 2763 H 249.025 -1.33389 2.20375 0
M  V30 2764 H 248.983 -2.83848 1.35195 0
M  V30 2765 N 252.755 -1.56801 0.158532 0
M  V30 2766 C 253.718 -2.16138 -0.762705 0
M  V30 2767 C 254.718 -1.1061 -1.16713 0
M  V30 2768 O 255.908 -1.36191 -1.08617 0
M  V30 2769 C 253.04 -2.73386 -2.03649 0
M  V30 2770 H 254.233 -2.98886 -0.246354 0
M  V30 2771 H 251.786 -1.56035 -0.0909744 0
M  V30 2772 H 252.521 -1.94335 -2.59623 0
M  V30 2773 H 252.306 -3.50601 -1.75559 0
M  V30 2774 H 253.796 -3.19065 -2.6942 0
M  V30 2775 N 254.233 0.115231 -1.57178 0
M  V30 2776 C 255.649 0.468877 -1.52557 0
M  V30 2777 C 255.849 1.81649 -0.872125 0
M  V30 2778 O 254.905 2.48347 -0.45606 0
M  V30 2779 C 256.218 0.4499 -2.97315 0
M  V30 2780 C 257.766 0.533185 -3.08425 0
M  V30 2781 C 258.241 0.54456 -4.54751 0
M  V30 2782 N 259.732 0.605892 -4.5922 0
M  V30 2783 C 260.467 0.636203 -5.6986 0
M  V30 2784 N 259.963 0.623931 -6.89985 0
M  V30 2785 N 261.756 0.679496 -5.57978 0
M  V30 2786 H 253.907 -0.767712 -1.9804 0
M  V30 2787 H 256.17 -0.283609 -0.904583 0
M  V30 2788 H 255.876 -0.472721 -3.48509 0
M  V30 2789 H 255.75 1.27632 -3.5495 0
M  V30 2790 H 258.137 1.44623 -2.57232 0
M  V30 2791 H 258.218 -0.320995 -2.53778 0
M  V30 2792 H 257.862 -0.364452 -5.06591 0
M  V30 2793 H 257.792 1.41568 -5.07214 0
M  V30 2794 H 260.283 0.621386 -3.72756 0
M  V30 2795 H 260.596 0.649787 -7.70063 0
M  V30 2796 H 258.941 0.591296 -6.9248 0
M  V30 2797 H 262.132 0.686472 -4.63039 0
M  V30 2798 H 262.305 0.69965 -6.44212 0
M  V30 2799 N 255.711 1.52812 0.385517 0
M  V30 2800 C 256.959 1.67694 1.12797 0
M  V30 2801 C 257.28 0.421115 1.90399 0
M  V30 2802 O 256.55 -0.564551 1.87589 0
M  V30 2803 H 255.13 0.618155 0.419396 0
M  V30 2804 H 257.792 1.89938 0.436972 0
M  V30 2805 H 256.888 2.52896 1.82894 0
M  V30 2806 N 257.189 -0.644168 1.43834 0
M  V30 2807 C 258.119 -1.76814 1.52509 0
M  V30 2808 C 259.1 -1.65823 0.379052 0
M  V30 2809 O 260.285 -1.84781 0.597466 0
M  V30 2810 C 257.415 -3.15288 1.4564 0
M  V30 2811 C 256.369 -3.41053 2.58586 0
M  V30 2812 C 255.695 -4.79421 2.36769 0
M  V30 2813 C 256.995 -3.34902 4.00797 0
M  V30 2814 H 258.689 -1.69812 2.46586 0
M  V30 2815 H 256.235 -0.815542 1.1868 0
M  V30 2816 H 258.188 -3.93681 1.50311 0
M  V30 2817 H 256.912 -3.23043 0.480725 0
M  V30 2818 H 255.571 -2.65035 2.53282 0
M  V30 2819 H 255.219 -4.83863 1.37424 0
M  V30 2820 H 254.919 -4.9762 3.12487 0
M  V30 2821 H 256.443 -5.6006 2.43238 0
M  V30 2822 H 257.857 -4.03218 4.07539 0
M  V30 2823 H 256.254 -3.64637 4.76613 0
M  V30 2824 H 257.324 -2.32928 4.25291 0
M  V30 2825 N 258.668 -1.30515 -0.883378 0
M  V30 2826 C 259.598 -1.19607 -2.00541 0
M  V30 2827 C 260.579 -0.086346 -1.69881 0
M  V30 2828 O 261.764 -0.268654 -1.92333 0
M  V30 2829 C 258.894 -0.888758 -3.35736 0
M  V30 2830 C 257.848 -1.95659 -3.8066 0
M  V30 2831 C 257.174 -1.50224 -5.13164 0
M  V30 2832 C 258.474 -3.36788 -3.99213 0
M  V30 2833 H 260.168 -2.13476 -2.09925 0
M  V30 2834 H 257.714 -1.02775 -1.00863 0
M  V30 2835 H 259.667 -0.799094 -4.13754 0
M  V30 2836 H 258.391 0.0856125 -3.26488 0
M  V30 2837 H 257.05 -2.03591 -3.04871 0
M  V30 2838 H 256.698 -0.516092 -5.00345 0
M  V30 2839 H 256.398 -2.2165 -5.44192 0
M  V30 2840 H 257.922 -1.42639 -5.93706 0
M  V30 2841 H 259.336 -3.31605 -4.67665 0
M  V30 2842 H 257.733 -4.06314 -4.41621 0
M  V30 2843 H 258.803 -3.78561 -3.03017 0
M  V30 2844 N 260.146 1.09593 -1.13257 0
M  V30 2845 C 261.056 2.19739 -0.821691 0
M  V30 2846 C 262.072 1.72926 0.19302 0
M  V30 2847 O 263.248 2.01385 0.0244895 0
M  V30 2848 C 260.313 3.45482 -0.290333 0
M  V30 2849 C 259.374 4.06985 -1.36607 0
M  V30 2850 C 258.607 5.26726 -0.859975 0
M  V30 2851 O 258.83 5.69594 0.303082 0
M  V30 2852 O 257.764 5.7931 -1.63351 0
M  V30 2853 H 261.59 2.48781 -1.74189 0
M  V30 2854 H 259.175 1.18496 -0.909894 0
M  V30 2855 H 261.057 4.214 0.000674022 0
M  V30 2856 H 259.732 3.18047 0.602306 0
M  V30 2857 H 258.639 3.32712 -1.71037 0
M  V30 2858 H 259.972 4.38643 -2.23279 0
M  V30 2859 N 261.624 0.925811 1.2754 0
M  V30 2860 C 262.871 0.565255 1.94451 0
M  V30 2861 C 263.199 -0.89316 1.7278 0
M  V30 2862 O 262.454 -1.65213 1.04895 0
M  V30 2863 C 262.753 0.835296 3.47502 0
M  V30 2864 C 262.419 2.27515 3.89291 0
M  V30 2865 C 261.081 2.66879 4.00411 0
M  V30 2866 C 263.433 3.21158 4.10496 0
M  V30 2867 C 260.761 3.99014 4.30122 0
M  V30 2868 C 263.113 4.52871 4.4169 0
M  V30 2869 C 261.777 4.92072 4.51023 0
M  V30 2870 H 261.047 0.206841 0.711546 0
M  V30 2871 H 263.694 1.16942 1.51647 0
M  V30 2872 H 261.999 0.148442 3.91519 0
M  V30 2873 H 263.696 0.535322 3.97411 0
M  V30 2874 H 260.286 1.95976 3.81171 0
M  V30 2875 H 264.47 2.9195 4.01346 0
M  V30 2876 H 259.726 4.2907 4.35556 0
M  V30 2877 H 263.9 5.25436 4.57045 0
M  V30 2878 H 261.527 5.9449 4.738 0
M  V30 2879 N 263.102 -1.41638 0.69111 0
M  V30 2880 C 264.012 -2.34588 0.0233487 0
M  V30 2881 C 265.028 -1.55987 -0.770984 0
M  V30 2882 O 266.204 -1.88486 -0.709569 0
M  V30 2883 C 263.269 -3.34684 -0.904851 0
M  V30 2884 C 262.33 -4.29176 -0.103225 0
M  V30 2885 C 261.563 -5.2449 -0.987216 0
M  V30 2886 O 261.786 -5.2514 -2.22674 0
M  V30 2887 O 260.72 -6.00295 -0.439281 0
M  V30 2888 H 264.546 -2.93261 0.789416 0
M  V30 2889 H 262.131 -1.42417 0.45142 0
M  V30 2890 H 264.013 -3.96133 -1.43724 0
M  V30 2891 H 262.688 -2.78461 -1.65049 0
M  V30 2892 H 261.595 -3.71089 0.473655 0
M  V30 2893 H 262.928 -4.88484 0.60365 0
M  V30 2894 N 264.58 -0.43555 -1.51462 0
M  V30 2895 C 265.53 0.394701 -2.24558 0
M  V30 2896 C 266.514 0.99157 -1.26715 0
M  V30 2897 O 267.706 0.910007 -1.51815 0
M  V30 2898 C 264.835 1.4963 -3.08975 0
M  V30 2899 C 263.921 0.908912 -4.14246 0
M  V30 2900 N 264.312 0.0505335 -5.05775 0
M  V30 2901 C 262.61 1.17668 -4.30198 0
M  V30 2902 C 263.311 -0.279161 -5.8103 0
M  V30 2903 N 262.287 0.336767 -5.42556 0
M  V30 2904 H 266.089 -0.267106 -2.92684 0
M  V30 2905 H 263.603 -0.247518 -1.60503 0
M  V30 2906 H 265.6 2.10394 -3.59917 0
M  V30 2907 H 264.26 2.16046 -2.42393 0
M  V30 2908 H 265.271 -0.31577 -5.16936 0
M  V30 2909 H 261.948 1.83847 -3.74842 0
M  V30 2910 H 263.338 -0.977553 -6.64751 0
M  V30 2911 N 266.058 1.56714 -0.166846 0
M  V30 2912 C 266.99 2.14914 0.796537 0
M  V30 2913 C 268.003 1.10357 1.19688 0
M  V30 2914 O 269.192 1.37561 1.13751 0
M  V30 2915 C 266.292 2.67326 2.08303 0
M  V30 2916 C 265.465 3.96493 1.84696 0
M  V30 2917 C 264.524 4.34014 2.97521 0
M  V30 2918 O 263.55 5.01973 2.6835 0
M  V30 2919 N 264.752 3.95208 4.25196 0
M  V30 2920 H 267.517 2.98205 0.299006 0
M  V30 2921 H 265.078 1.61892 0.0160839 0
M  V30 2922 H 267.07 2.89428 2.82867 0
M  V30 2923 H 265.64 1.88649 2.4926 0
M  V30 2924 H 264.86 3.82814 0.940602 0
M  V30 2925 H 266.148 4.8086 1.66285 0
M  V30 2926 H 265.546 3.40487 4.51758 0
M  V30 2927 H 264.103 4.2232 4.96477 0
M  V30 2928 N 267.536 -0.106894 1.57237 0
M  V30 2929 C 268.952 -0.46078 1.52804 0
M  V30 2930 C 269.152 -1.81184 0.881746 0
M  V30 2931 O 268.208 -2.48102 0.469224 0
M  V30 2932 C 269.521 -0.434127 2.9755 0
M  V30 2933 C 271.069 -0.516821 3.08704 0
M  V30 2934 C 271.544 -0.520436 4.55033 0
M  V30 2935 N 273.035 -0.58153 4.59535 0
M  V30 2936 C 273.77 -0.605973 5.70189 0
M  V30 2937 N 273.266 -0.587331 6.90306 0
M  V30 2938 N 275.059 -0.649895 5.5833 0
M  V30 2939 H 267.21 0.778203 1.9763 0
M  V30 2940 H 269.473 0.288403 0.903066 0
M  V30 2941 H 269.179 0.491197 3.48253 0
M  V30 2942 H 269.053 -1.25748 3.55622 0
M  V30 2943 H 271.44 -1.43256 2.57995 0
M  V30 2944 H 271.521 0.334449 2.53604 0
M  V30 2945 H 271.165 0.391313 5.0639 0
M  V30 2946 H 271.095 -1.38876 5.07958 0
M  V30 2947 H 273.586 -0.60161 3.73081 0
M  V30 2948 H 273.899 -0.60894 7.70397 0
M  V30 2949 H 272.244 -0.554564 6.92784 0
M  V30 2950 H 275.435 -0.661907 4.63397 0
M  V30 2951 H 275.608 -0.665476 6.44574 0
M  V30 2952 N 269.014 -1.53014 -0.377408 0
M  V30 2953 C 269.977 -1.77957 -1.44444 0
M  V30 2954 C 270.977 -0.649763 -1.47087 0
M  V30 2955 O 272.167 -0.917897 -1.48055 0
M  V30 2956 C 269.299 -1.89089 -2.83651 0
M  V30 2957 H 270.492 -2.73243 -1.23606 0
M  V30 2958 H 268.045 -1.43912 -0.609844 0
M  V30 2959 H 268.78 -0.958293 -3.09818 0
M  V30 2960 H 268.565 -2.71254 -2.83132 0
M  V30 2961 H 270.055 -2.1002 -3.60945 0
M  V30 2962 N 270.492 0.636531 -1.44174 0
M  V30 2963 C 271.903 1.21806 -1.41493 0
M  V30 2964 C 272.254 1.95785 -0.1275 0
M  V30 2965 O 271.379 2.02147 0.772376 0
M  V30 2966 C 271.974 2.21551 -2.56321 0
M  V30 2967 C 270.533 2.75143 -2.56853 0
M  V30 2968 C 269.68 1.50052 -2.33195 0
M  V30 2969 H 272.631 0.427531 -1.52833 0
M  V30 2970 H 272.652 3.0405 -2.28765 0
M  V30 2971 H 272.164 1.67679 -3.50008 0
M  V30 2972 H 270.265 3.33033 -1.67093 0
M  V30 2973 H 270.378 3.2155 -3.55165 0
M  V30 2974 H 268.742 1.77993 -1.82183 0
M  V30 2975 H 269.525 0.980903 -3.28988 0
M  V30 2976 N 271.97 1.30982 0.876444 0
M  V30 2977 C 273.386 1.09498 1.16113 0
M  V30 2978 C 273.586 -0.13875 2.01022 0
M  V30 2979 O 272.642 -0.829935 2.38471 0
M  V30 2980 C 273.955 2.36308 1.85954 0
M  V30 2981 C 275.503 2.41856 1.98683 0
M  V30 2982 C 275.978 3.6853 2.71937 0
M  V30 2983 N 277.469 3.69387 2.79477 0
M  V30 2984 C 278.204 4.64096 3.36753 0
M  V30 2985 N 277.7 5.69155 3.95012 0
M  V30 2986 N 279.493 4.51626 3.3465 0
M  V30 2987 H 271.644 2.10118 0.310494 0
M  V30 2988 H 273.907 0.926634 0.200131 0
M  V30 2989 H 273.613 3.26388 1.31011 0
M  V30 2990 H 273.487 2.4561 2.86278 0
M  V30 2991 H 275.874 1.52249 2.52793 0
M  V30 2992 H 275.955 2.36523 0.9742 0
M  V30 2993 H 275.599 4.58499 2.18496 0
M  V30 2994 H 275.529 3.71127 3.73593 0
M  V30 2995 H 278.02 2.93438 2.38123 0
M  V30 2996 H 278.333 6.3751 4.36808 0
M  V30 2997 H 276.678 5.72937 3.93406 0
M  V30 2998 H 279.869 3.68728 2.8837 0
M  V30 2999 H 280.042 5.25614 3.7899 0
M  V30 3000 N 273.449 -1.08991 1.13837 0
M  V30 3001 C 274.695 -1.81526 0.90422 0
M  V30 3002 C 275.028 -1.85706 -0.568066 0
M  V30 3003 O 274.303 -1.32855 -1.42056 0
M  V30 3004 C 274.586 -3.27447 1.49835 0
M  V30 3005 C 274.439 -3.31512 3.04006 0
M  V30 3006 C 275.758 -4.24256 1.17025 0
M  V30 3007 H 272.877 -0.659029 0.329923 0
M  V30 3008 H 275.519 -1.27644 1.40737 0
M  V30 3009 H 273.669 -3.73462 1.07044 0
M  V30 3010 H 275.341 -2.93867 3.55584 0
M  V30 3011 H 273.584 -2.70963 3.38765 0
M  V30 3012 H 274.255 -4.34329 3.40679 0
M  V30 3013 H 276.731 -3.86549 1.54009 0
M  V30 3014 H 275.607 -5.24684 1.61237 0
M  V30 3015 H 275.868 -4.42019 0.0846274 0
M  V30 3016 N 274.927 -0.932562 -1.27047 0
M  V30 3017 C 276.152 -0.591474 -1.98787 0
M  V30 3018 C 276.577 0.824601 -1.69062 0
M  V30 3019 O 275.935 1.5541 -0.933677 0
M  V30 3020 C 275.983 -0.829808 -3.50922 0
M  V30 3021 O 275.087 0.102266 -4.12273 0
M  V30 3022 H 274.428 -0.227185 -0.623926 0
M  V30 3023 H 276.958 -1.25314 -1.61733 0
M  V30 3024 H 276.968 -0.747292 -4.01098 0
M  V30 3025 H 275.643 -1.86201 -3.7189 0
M  V30 3026 H 274.22 -0.0305761 -3.72887 0
M  V30 3027 N 276.405 1.4127 -0.698611 0
M  V30 3028 C 277.337 2.292 0.00399731 0
M  V30 3029 C 278.35 1.44944 0.741279 0
M  V30 3030 O 279.539 1.68416 0.591477 0
M  V30 3031 C 276.639 3.22875 1.02979 0
M  V30 3032 C 275.812 4.35904 0.36151 0
M  V30 3033 C 274.871 5.10134 1.29033 0
M  V30 3034 O 273.897 5.63809 0.781562 0
M  V30 3035 N 275.099 5.17885 2.6225 0
M  V30 3036 H 277.864 2.9014 -0.750921 0
M  V30 3037 H 275.425 1.52455 -0.544882 0
M  V30 3038 H 277.417 3.69404 1.65296 0
M  V30 3039 H 275.987 2.63221 1.68622 0
M  V30 3040 H 275.207 3.91719 -0.441584 0
M  V30 3041 H 276.495 5.08696 -0.103055 0
M  V30 3042 H 275.893 4.7573 3.061 0
M  V30 3043 H 274.45 5.6798 3.19754 0
M  V30 3044 N 277.883 0.443576 1.51229 0
M  V30 3045 C 279.131 -0.120557 2.0174 0
M  V30 3046 C 279.452 -1.42665 1.32935 0
M  V30 3047 O 278.722 -1.9028 0.465866 0
M  V30 3048 H 277.302 -0.0475426 0.745486 0
M  V30 3049 H 279.964 0.587711 1.85828 0
M  V30 3050 H 279.06 -0.291972 3.10731 0
M  V30 3051 N 279.361 -1.56624 0.175154 0
M  V30 3052 C 280.586 -2.01813 -0.478137 0
M  V30 3053 C 281.011 -1.05457 -1.55757 0
M  V30 3054 O 280.369 -0.0347439 -1.81267 0
M  V30 3055 C 280.417 -3.45581 -1.02987 0
M  V30 3056 O 279.521 -3.52305 -2.14371 0
M  V30 3057 H 278.862 -0.65413 -0.114059 0
M  V30 3058 H 281.392 -2.02673 0.280173 0
M  V30 3059 H 281.402 -3.84965 -1.35151 0
M  V30 3060 H 280.077 -4.1521 -0.239556 0
M  V30 3061 H 278.654 -3.24783 -1.83222 0
M  V30 3062 N 280.839 0.0985539 -1.57292 0
M  V30 3063 C 281.786 1.11981 -2.01814 0
M  V30 3064 C 282.756 1.39999 -0.89384 0
M  V30 3065 O 283.941 1.5152 -1.15958 0
M  V30 3066 C 281.081 2.43577 -2.44467 0
M  V30 3067 C 280.194 2.2232 -3.70402 0
M  V30 3068 C 279.329 3.4729 -4.01949 0
M  V30 3069 C 278.368 3.2128 -5.21005 0
M  V30 3070 N 277.505 4.38507 -5.48321 0
M  V30 3071 H 282.345 0.733149 -2.88841 0
M  V30 3072 H 279.882 0.350482 -1.42864 0
M  V30 3073 H 281.84 3.20373 -2.6724 0
M  V30 3074 H 280.47 2.80097 -1.60455 0
M  V30 3075 H 279.522 1.36343 -3.55126 0
M  V30 3076 H 280.834 1.99089 -4.57345 0
M  V30 3077 H 279.988 4.32495 -4.25479 0
M  V30 3078 H 278.727 3.73572 -3.13521 0
M  V30 3079 H 277.732 2.34468 -4.97298 0
M  V30 3080 H 278.957 2.96348 -6.11028 0
M  V30 3081 H 276.903 4.64871 -4.62851 0
M  V30 3082 H 276.82 4.18455 -6.29628 0
M  V30 3083 H 278.088 5.24787 -5.76385 0
M  V30 3084 N 282.317 1.53212 0.369288 0
M  V30 3085 C 283.594 1.59815 1.12776 0
M  V30 3086 C 283.974 0.403402 2.0721 0
M  V30 3087 O 283.322 -0.606667 2.20299 0
M  V30 3088 C 283.532 2.94664 1.87013 0
M  V30 3089 C 284.88 3.49109 2.41677 0
M  V30 3090 O 285.904 2.96669 1.97144 0
M  V30 3091 O 284.763 4.40775 3.23079 0
M  V30 3092 H 281.857 0.645376 0.517125 0
M  V30 3093 H 284.403 1.65553 0.37285 0
M  V30 3094 H 283.175 3.73061 1.18071 0
M  V30 3095 H 282.798 2.92401 2.69421 0
M  V30 3096 N 283.795 -0.628877 1.44509 0
M  V30 3097 C 285.206 -1.21054 1.42137 0
M  V30 3098 C 285.557 -1.95715 0.137881 0
M  V30 3099 O 284.682 -2.02554 -0.761645 0
M  V30 3100 C 285.277 -2.20189 2.57493 0
M  V30 3101 C 283.836 -2.73777 2.58308 0
M  V30 3102 C 282.983 -1.48813 2.33987 0
M  V30 3103 H 285.934 -0.41942 1.53057 0
M  V30 3104 H 285.955 -3.02833 2.30375 0
M  V30 3105 H 285.467 -1.6582 3.50892 0
M  V30 3106 H 283.568 -3.32142 1.68856 0
M  V30 3107 H 283.681 -3.19662 3.56865 0
M  V30 3108 H 282.045 -1.77024 1.83124 0
M  V30 3109 H 282.828 -0.963442 3.29504 0
M  V30 3110 N 285.273 -1.31445 -0.869486 0
M  V30 3111 C 286.236 -1.19094 -1.9583 0
M  V30 3112 C 287.236 -0.117906 -1.60367 0
M  V30 3113 O 288.426 -0.367208 -1.70286 0
M  V30 3114 C 285.558 -0.828165 -3.30688 0
M  V30 3115 H 286.751 -2.15842 -2.08212 0
M  V30 3116 H 284.304 -1.15063 -1.05784 0
M  V30 3117 H 285.039 0.138142 -3.24006 0
M  V30 3118 H 284.824 -1.6038 -3.578 0
M  V30 3119 H 286.314 -0.765658 -4.10521 0
M  V30 3120 N 286.751 1.08385 -1.14413 0
M  V30 3121 C 287.661 2.18856 -0.844951 0
M  V30 3122 C 288.677 1.73121 0.174668 0
M  V30 3123 O 289.853 2.014 0.00312857 0
M  V30 3124 C 286.918 3.45155 -0.32696 0
M  V30 3125 C 285.979 4.05513 -1.40916 0
M  V30 3126 C 285.212 5.25784 -0.915793 0
M  V30 3127 O 285.435 5.69884 0.242651 0
M  V30 3128 O 284.369 5.77545 -1.69487 0
M  V30 3129 H 288.195 2.46919 -1.76818 0
M  V30 3130 H 285.78 1.17524 -0.922411 0
M  V30 3131 H 287.662 4.21377 -0.0440211 0
M  V30 3132 H 286.337 3.18668 0.568539 0
M  V30 3133 H 285.244 3.30879 -1.74556 0
M  V30 3134 H 286.577 4.3625 -2.27919 0
M  V30 3135 N 288.23 0.939286 1.26551 0
M  V30 3136 C 289.478 0.58469 1.93457 0
M  V30 3137 C 289.799 -0.878774 1.74076 0
M  V30 3138 O 289.069 -1.62421 1.09528 0
M  V30 3139 H 287.649 0.21325 0.715914 0
M  V30 3140 H 290.311 1.1942 1.54029 0
M  V30 3141 H 289.407 0.800849 3.0165 0
M  V30 3142 N 289.708 -1.40897 0.706093 0
M  V30 3143 C 290.985 -1.94868 0.169099 0
M  V30 3144 C 291.365 -1.64485 -1.32318 0
M  V30 3145 O 290.713 -0.95744 -2.07474 0
M  V30 3146 C 290.923 -3.45798 0.471654 0
M  V30 3147 C 292.271 -4.22663 0.405127 0
M  V30 3148 O 293.295 -3.53865 0.407168 0
M  V30 3149 O 292.154 -5.45216 0.374383 0
M  V30 3150 H 289.248 -0.82673 0.0211352 0
M  V30 3151 H 291.794 -1.50558 0.782976 0
M  V30 3152 H 290.566 -3.61235 1.50416 0
M  V30 3153 H 290.189 -3.97225 -0.172666 0
M  V30 3154 N 291.186 -0.45159 -1.50991 0
M  V30 3155 C 292.434 0.109857 -2.01801 0
M  V30 3156 C 292.755 1.41958 -1.3369 0
M  V30 3157 O 292.025 1.9003 -0.475951 0
M  V30 3158 H 290.605 0.0435884 -0.745727 0
M  V30 3159 H 293.267 -0.597557 -1.85514 0
M  V30 3160 H 292.363 0.275489 -3.10882 0
M  V30 3161 N 292.664 1.56529 -0.183458 0
M  V30 3162 C 293.627 2.17324 0.728223 0
M  V30 3163 C 294.627 1.12453 1.14939 0
M  V30 3164 O 295.817 1.37902 1.06437 0
M  V30 3165 C 292.949 2.76591 1.99274 0
M  V30 3166 H 294.142 2.99241 0.198772 0
M  V30 3167 H 291.695 1.5616 0.0661391 0
M  V30 3168 H 292.43 1.98441 2.56499 0
M  V30 3169 H 292.215 3.5335 1.69959 0
M  V30 3170 H 293.705 3.23311 2.6431 0
M  V30 3171 N 294.142 -0.090211 1.57342 0
M  V30 3172 C 295.074 -1.13541 1.99101 0
M  V30 3173 C 296.087 -1.3604 0.894258 0
M  V30 3174 O 297.276 -1.34606 1.17233 0
M  V30 3175 C 294.376 -2.49001 2.29895 0
M  V30 3176 C 293.549 -2.46712 3.61182 0
M  V30 3177 C 292.608 -3.64136 3.79857 0
M  V30 3178 O 291.634 -3.46405 4.51655 0
M  V30 3179 N 292.836 -4.83802 3.20806 0
M  V30 3180 H 295.601 -0.779942 2.89373 0
M  V30 3181 H 293.162 -0.279125 1.59476 0
M  V30 3182 H 295.154 -3.26166 2.39578 0
M  V30 3183 H 293.724 -2.76619 1.45605 0
M  V30 3184 H 292.944 -1.55058 3.62423 0
M  V30 3185 H 294.232 -2.42265 4.4742 0
M  V30 3186 H 293.63 -5.01112 2.62494 0
M  V30 3187 H 292.187 -5.58543 3.35966 0
M  V30 3188 N 295.62 -1.53406 -0.361157 0
M  V30 3189 C 297.031 -1.61442 -0.937728 0
M  V30 3190 C 297.382 -0.48461 -1.90121 0
M  V30 3191 O 296.507 0.388312 -2.12888 0
M  V30 3192 C 297.102 -2.92624 -1.70753 0
M  V30 3193 C 295.661 -3.02981 -2.23337 0
M  V30 3194 C 294.808 -2.5677 -1.04712 0
M  V30 3195 H 297.759 -1.58083 -0.139816 0
M  V30 3196 H 297.78 -2.80675 -2.56908 0
M  V30 3197 H 297.292 -3.74834 -1.00604 0
M  V30 3198 H 295.393 -2.25368 -2.96715 0
M  V30 3199 H 295.506 -4.0814 -2.50916 0
M  V30 3200 H 293.87 -2.11752 -1.41539 0
M  V30 3201 H 294.653 -3.41402 -0.360539 0
M  V30 3202 N 297.098 0.621204 -1.44841 0
M  V30 3203 C 298.008 1.7612 -1.5498 0
M  V30 3204 C 299.024 1.68477 -0.434927 0
M  V30 3205 O 300.2 1.89076 -0.693693 0
M  V30 3206 C 297.265 3.1254 -1.50065 0
M  V30 3207 C 296.326 3.31741 -2.72482 0
M  V30 3208 C 295.559 4.61653 -2.67792 0
M  V30 3209 O 295.782 5.431 -1.74352 0
M  V30 3210 O 294.716 4.83271 -3.58794 0
M  V30 3211 H 298.542 1.70518 -2.51311 0
M  V30 3212 H 296.127 0.783643 -1.27198 0
M  V30 3213 H 298.009 3.93844 -1.49882 0
M  V30 3214 H 296.684 3.18663 -0.568806 0
M  V30 3215 H 295.591 2.50077 -2.7823 0
M  V30 3216 H 296.924 3.30486 -3.64746 0
M  V30 3217 N 298.576 1.31904 0.862503 0
M  V30 3218 C 299.486 1.22161 2.00285 0
M  V30 3219 C 300.502 0.136785 1.73462 0
M  V30 3220 O 301.678 0.355994 1.98229 0
M  V30 3221 C 298.743 0.937093 3.33796 0
M  V30 3222 C 297.804 2.10957 3.73893 0
M  V30 3223 C 297.037 1.83853 5.01033 0
M  V30 3224 O 297.26 0.777274 5.65079 0
M  V30 3225 O 296.194 2.69741 5.38074 0
M  V30 3226 H 300.02 2.18008 2.11439 0
M  V30 3227 H 297.605 1.11716 0.991957 0
M  V30 3228 H 299.487 0.794583 4.13841 0
M  V30 3229 H 298.162 0.00871894 3.23699 0
M  V30 3230 H 297.069 2.30752 2.94456 0
M  V30 3231 H 298.402 3.02046 3.88625 0
M  V30 3232 N 300.054 -1.07777 1.14986 0
M  V30 3233 C 301.282 -1.84018 0.945773 0
M  V30 3234 C 301.697 -1.81897 -0.505863 0
M  V30 3235 O 301.054 -1.22726 -1.35072 0
M  V30 3236 C 301.105 -3.31287 1.44677 0
M  V30 3237 O 300.826 -3.33449 2.84154 0
M  V30 3238 C 302.327 -4.24311 1.28355 0
M  V30 3239 H 299.547 -0.580716 0.336169 0
M  V30 3240 H 302.091 -1.36077 1.52654 0
M  V30 3241 H 300.246 -3.76594 0.908625 0
M  V30 3242 H 300.66 -4.25427 3.06777 0
M  V30 3243 H 302.134 -5.2573 1.68261 0
M  V30 3244 H 302.611 -4.38612 0.227184 0
M  V30 3245 H 303.217 -3.84836 1.81056 0
M  V30 3246 N 301.532 -0.945985 -1.26051 0
M  V30 3247 C 302.943 -0.638096 -1.75457 0
M  V30 3248 C 303.294 0.846672 -1.76991 0
M  V30 3249 O 302.419 1.66262 -1.38513 0
M  V30 3250 C 303.014 -1.15157 -3.18629 0
M  V30 3251 C 301.573 -0.894004 -3.65629 0
M  V30 3252 C 300.72 -1.29967 -2.44957 0
M  V30 3253 H 303.671 -1.12376 -1.1206 0
M  V30 3254 H 303.692 -0.507615 -3.77099 0
M  V30 3255 H 303.204 -2.23222 -3.1748 0
M  V30 3256 H 301.305 0.172057 -3.72203 0
M  V30 3257 H 301.418 -1.52439 -4.54202 0
M  V30 3258 H 299.782 -0.718078 -2.44368 0
M  V30 3259 H 300.565 -2.38935 -2.46505 0
M  V30 3260 N 303.011 1.40521 -0.713556 0
M  V30 3261 C 304.427 1.54839 -0.386907 0
M  V30 3262 C 304.627 1.68532 1.1045 0
M  V30 3263 O 303.683 1.67377 1.89053 0
M  V30 3264 C 304.996 2.77792 -1.15118 0
M  V30 3265 C 306.544 2.91607 -1.13729 0
M  V30 3266 C 307.019 4.1747 -1.88368 0
M  V30 3267 N 308.51 4.24466 -1.85427 0
M  V30 3268 C 309.245 5.20755 -2.40004 0
M  V30 3269 N 308.741 6.22965 -3.03129 0
M  V30 3270 N 310.534 5.1282 -2.30158 0
M  V30 3271 H 302.685 1.29879 -1.68063 0
M  V30 3272 H 304.948 0.627896 -0.710247 0
M  V30 3273 H 304.654 2.73944 -2.20561 0
M  V30 3274 H 304.528 3.6984 -0.741477 0
M  V30 3275 H 306.915 2.94959 -0.0910608 0
M  V30 3276 H 306.996 2.00682 -1.5862 0
M  V30 3277 H 306.64 4.1488 -2.9298 0
M  V30 3278 H 306.57 5.074 -1.40898 0
M  V30 3279 H 309.061 3.51241 -1.3942 0
M  V30 3280 H 309.374 6.92859 -3.42295 0
M  V30 3281 H 307.719 6.23415 -3.07212 0
M  V30 3282 H 310.91 4.31899 -1.80501 0
M  V30 3283 H 311.083 5.87689 -2.72993 0
M  V30 3284 N 304.489 0.459591 1.5075 0
M  V30 3285 C 305.766 -0.160371 1.94941 0
M  V30 3286 C 306.146 -1.58048 1.39943 0
M  V30 3287 O 305.494 -2.206 0.595629 0
M  V30 3288 C 305.704 -0.115432 3.48809 0
M  V30 3289 C 307.052 -0.310026 4.23467 0
M  V30 3290 O 308.076 -0.192543 3.55679 0
M  V30 3291 O 306.935 -0.546031 5.43765 0
M  V30 3292 H 304.029 -0.117925 0.818549 0
M  V30 3293 H 306.575 0.519169 1.61563 0
M  V30 3294 H 305.347 0.87652 3.81357 0
M  V30 3295 H 304.97 -0.836928 3.88692 0
M  V30 3296 N 305.967 -1.56429 0.191757 0
M  V30 3297 C 307.215 -1.97095 -0.447006 0
M  V30 3298 C 307.536 -1.07967 -1.62383 0
M  V30 3299 O 306.806 -0.150248 -1.95323 0
M  V30 3300 H 305.386 -0.727832 -0.168135 0
M  V30 3301 H 308.048 -1.92911 0.27771 0
M  V30 3302 H 307.144 -3.01848 -0.793371 0
M  V30 3303 N 307.445 0.0818655 -1.57387 0
M  V30 3304 C 308.722 0.815343 -1.77796 0
M  V30 3305 C 309.102 1.96289 -0.77679 0
M  V30 3306 O 308.45 2.27691 0.192106 0
M  V30 3307 C 308.66 1.29765 -3.23978 0
M  V30 3308 C 310.008 1.7351 -3.8753 0
M  V30 3309 O 311.032 1.39356 -3.27808 0
M  V30 3310 O 309.891 2.36708 -4.92576 0
M  V30 3311 H 306.985 0.389914 -0.729312 0
M  V30 3312 H 309.531 0.0627213 -1.69584 0
M  V30 3313 H 308.303 0.47608 -3.88393 0
M  V30 3314 H 307.926 2.11189 -3.36875 0
M  V30 3315 N 308.923 1.53595 0.353017 0
M  V30 3316 C 309.87 1.80919 1.43308 0
M  V30 3317 C 310.84 0.654288 1.5267 0
M  V30 3318 O 312.025 0.897759 1.6836 0
M  V30 3319 C 309.165 2.01605 2.80089 0
M  V30 3320 C 308.278 3.29321 2.79593 0
M  V30 3321 C 307.413 3.40125 4.0803 0
M  V30 3322 C 306.452 4.61826 4.01725 0
M  V30 3323 N 305.589 4.69716 5.21834 0
M  V30 3324 H 310.429 2.73074 1.19308 0
M  V30 3325 H 307.966 1.35263 0.578131 0
M  V30 3326 H 309.924 2.11586 3.59565 0
M  V30 3327 H 308.554 1.12772 3.0246 0
M  V30 3328 H 307.606 3.28229 1.92276 0
M  V30 3329 H 308.918 4.18884 2.70809 0
M  V30 3330 H 308.072 3.49488 4.95927 0
M  V30 3331 H 306.811 2.48601 4.19582 0
M  V30 3332 H 305.816 4.52552 3.12213 0
M  V30 3333 H 307.041 5.54705 3.91764 0
M  V30 3334 H 304.987 3.81097 5.33948 0
M  V30 3335 H 304.904 5.53202 5.1527 0
M  V30 3336 H 306.172 4.83376 6.11529 0
M  V30 3337 N 310.401 -0.613514 1.45168 0
M  V30 3338 C 311.812 -1.19539 1.43413 0
M  V30 3339 C 312.163 -1.95558 0.158632 0
M  V30 3340 O 311.288 -2.0335 -0.740119 0
M  V30 3341 C 311.883 -2.17445 2.59813 0
M  V30 3342 C 310.442 -2.71022 2.61197 0
M  V30 3343 C 309.589 -1.46323 2.35552 0
M  V30 3344 H 312.54 -0.403163 1.53494 0
M  V30 3345 H 312.561 -3.00373 2.33574 0
M  V30 3346 H 312.073 -1.62089 3.52631 0
M  V30 3347 H 310.174 -3.30332 1.7237 0
M  V30 3348 H 310.287 -3.15859 3.60236 0
M  V30 3349 H 308.651 -1.75072 1.84992 0
M  V30 3350 H 309.434 -0.92844 3.30507 0
M  V30 3351 N 311.879 -1.3236 -0.855495 0
M  V30 3352 C 312.789 -1.23221 -1.99634 0
M  V30 3353 C 313.805 -0.145983 -1.73387 0
M  V30 3354 O 314.981 -0.366502 -1.98037 0
M  V30 3355 C 312.046 -0.954782 -3.33294 0
M  V30 3356 C 311.107 -2.12937 -3.72769 0
M  V30 3357 C 310.34 -1.86508 -5.00051 0
M  V30 3358 O 310.563 -0.807231 -5.64659 0
M  V30 3359 O 309.497 -2.72591 -5.36636 0
M  V30 3360 H 313.323 -2.19126 -2.1028 0
M  V30 3361 H 310.908 -1.12241 -0.986018 0
M  V30 3362 H 312.79 -0.816519 -4.13414 0
M  V30 3363 H 311.465 -0.0258854 -3.2369 0
M  V30 3364 H 310.372 -2.3231 -2.93228 0
M  V30 3365 H 311.705 -3.04102 -3.87018 0
M  V30 3366 N 313.357 1.07166 -1.15556 0
M  V30 3367 C 314.267 2.17947 -0.868116 0
M  V30 3368 C 315.283 1.73297 0.156297 0
M  V30 3369 O 316.459 2.01392 -0.0182327 0
M  V30 3370 C 313.524 3.44789 -0.36355 0
M  V30 3371 C 312.585 4.03996 -1.45209 0
M  V30 3372 C 311.818 5.24783 -0.971508 0
M  V30 3373 O 312.041 5.70109 0.182194 0
M  V30 3374 O 310.975 5.75715 -1.75603 0
M  V30 3375 H 314.801 2.4503 -1.79427 0
M  V30 3376 H 312.386 1.16539 -0.934824 0
M  V30 3377 H 314.268 4.21307 -0.0887113 0
M  V30 3378 H 312.943 3.19253 0.534708 0
M  V30 3379 H 311.85 3.29009 -1.78056 0
M  V30 3380 H 313.183 4.33808 -2.32533 0
M  V30 3381 N 314.835 0.952656 1.25548 0
M  V30 3382 C 316.063 0.623496 1.97282 0
M  V30 3383 C 316.478 -0.803987 1.70826 0
M  V30 3384 O 315.835 -1.53755 0.983147 0
M  V30 3385 C 315.886 0.870209 3.5087 0
M  V30 3386 O 315.607 2.24156 3.76412 0
M  V30 3387 C 317.108 0.553164 4.39835 0
M  V30 3388 H 314.328 0.233931 0.628902 0
M  V30 3389 H 316.872 1.27649 1.59768 0
M  V30 3390 H 315.027 0.263652 3.86502 0
M  V30 3391 H 315.441 2.31021 4.70882 0
M  V30 3392 H 316.915 0.776342 5.46513 0
M  V30 3393 H 317.392 -0.512215 4.36203 0
M  V30 3394 H 317.998 1.13896 4.09766 0
M  V30 3395 N 316.313 -1.40141 0.720998 0
M  V30 3396 C 317.245 -2.29177 0.0324669 0
M  V30 3397 C 318.258 -1.46105 -0.718126 0
M  V30 3398 O 319.447 -1.69335 -0.564608 0
M  V30 3399 C 316.547 -3.24473 -0.978292 0
M  V30 3400 C 315.72 -4.36423 -0.292115 0
M  V30 3401 C 314.779 -5.12122 -1.20901 0
M  V30 3402 O 313.805 -5.64981 -0.691766 0
M  V30 3403 N 315.007 -5.21992 -2.53978 0
M  V30 3404 H 317.772 -2.88909 0.796984 0
M  V30 3405 H 315.333 -1.51569 0.569068 0
M  V30 3406 H 317.325 -3.71987 -1.59398 0
M  V30 3407 H 315.895 -2.65871 -1.64413 0
M  V30 3408 H 315.115 -3.90967 0.503847 0
M  V30 3409 H 316.403 -5.08467 0.183971 0
M  V30 3410 H 315.801 -4.8054 -2.98493 0
M  V30 3411 H 314.358 -5.72995 -3.10677 0
M  V30 3412 N 317.792 -0.46758 -1.50504 0
M  V30 3413 C 319.04 0.0884469 -2.01906 0
M  V30 3414 C 319.361 1.40532 -1.35188 0
M  V30 3415 O 318.631 1.89515 -0.496079 0
M  V30 3416 H 317.211 0.0356765 -0.746148 0
M  V30 3417 H 319.873 -0.6172 -1.84869 0
M  V30 3418 H 318.969 0.2425 -3.11156 0
M  V30 3419 N 319.27 1.56325 -0.20005 0
M  V30 3420 C 320.217 2.1932 0.718833 0
M  V30 3421 C 321.187 1.14198 1.20615 0
M  V30 3422 O 322.372 1.42469 1.26914 0
M  V30 3423 C 319.512 2.86041 1.93066 0
M  V30 3424 C 318.625 4.05702 1.48425 0
M  V30 3425 C 317.76 4.60266 2.65196 0
M  V30 3426 C 316.799 5.72273 2.17185 0
M  V30 3427 N 315.936 6.21221 3.27152 0
M  V30 3428 H 320.776 2.97486 0.17489 0
M  V30 3429 H 318.313 1.46911 0.0745794 0
M  V30 3430 H 320.271 3.22897 2.64184 0
M  V30 3431 H 318.901 2.1043 2.44783 0
M  V30 3432 H 317.953 3.74475 0.668755 0
M  V30 3433 H 319.265 4.86699 1.09204 0
M  V30 3434 H 318.419 4.99453 3.4443 0
M  V30 3435 H 317.158 3.78386 3.07693 0
M  V30 3436 H 316.163 5.3261 1.36407 0
M  V30 3437 H 317.388 6.55974 1.75713 0
M  V30 3438 H 315.334 5.42263 3.69171 0
M  V30 3439 H 315.251 6.97284 2.92116 0
M  V30 3440 H 316.519 6.65063 4.06585 0
M  V30 3441 N 320.748 -0.0735177 1.57428 0
M  V30 3442 C 321.711 -1.07192 2.02589 0
M  V30 3443 C 322.711 -1.31695 0.922661 0
M  V30 3444 O 323.901 -1.27445 1.18758 0
M  V30 3445 C 321.033 -2.41599 2.40506 0
M  V30 3446 H 322.226 -0.682727 2.92025 0
M  V30 3447 H 319.779 -0.319193 1.53006 0
M  V30 3448 H 320.514 -2.85354 1.5409 0
M  V30 3449 H 320.299 -2.25156 3.21009 0
M  V30 3450 H 321.789 -3.13367 2.76027 0
M  V30 3451 N 322.226 -1.5378 -0.344866 0
M  V30 3452 C 323.136 -1.84667 -1.4469 0
M  V30 3453 C 324.152 -0.736704 -1.57635 0
M  V30 3454 O 325.328 -1.02888 -1.73136 0
M  V30 3455 C 322.393 -2.04869 -2.79696 0
M  V30 3456 C 321.454 -3.28731 -2.76106 0
M  V30 3457 C 320.687 -3.4796 -4.04673 0
M  V30 3458 O 320.91 -2.71052 -5.01883 0
M  V30 3459 O 319.844 -4.41383 -4.09224 0
M  V30 3460 H 323.67 -2.78334 -1.21506 0
M  V30 3461 H 321.255 -1.39418 -0.536921 0
M  V30 3462 H 323.137 -2.19609 -3.59652 0
M  V30 3463 H 321.812 -1.14391 -3.02814 0
M  V30 3464 H 320.719 -3.19396 -1.94774 0
M  V30 3465 H 322.052 -4.19198 -2.57941 0
M  V30 3466 N 323.704 0.605807 -1.45491 0
M  V30 3467 C 324.651 1.7164 -1.54299 0
M  V30 3468 C 325.621 1.61486 -0.388761 0
M  V30 3469 O 326.806 1.81039 -0.602445 0
M  V30 3470 C 323.946 3.09953 -1.51734 0
M  V30 3471 C 323.059 3.309 -2.77721 0
M  V30 3472 C 322.194 4.59329 -2.66816 0
M  V30 3473 C 321.233 4.7354 -3.87848 0
M  V30 3474 N 320.37 5.9327 -3.75467 0
M  V30 3475 H 325.21 1.63449 -2.49176 0
M  V30 3476 H 322.747 0.796957 -1.23641 0
M  V30 3477 H 324.705 3.89977 -1.48235 0
M  V30 3478 H 323.335 3.17098 -0.604068 0
M  V30 3479 H 322.387 2.44639 -2.913 0
M  V30 3480 H 323.699 3.37274 -3.67488 0
M  V30 3481 H 322.853 5.4755 -2.61292 0
M  V30 3482 H 321.592 4.55355 -1.74651 0
M  V30 3483 H 320.597 3.83741 -3.93729 0
M  V30 3484 H 321.822 4.79309 -4.81082 0
M  V30 3485 H 319.768 5.90338 -2.86072 0
M  V30 3486 H 319.685 6.00811 -4.5887 0
M  V30 3487 H 320.953 6.83984 -3.73879 0
M  V30 3488 N 325.182 1.32811 0.848464 0
M  V30 3489 C 326.459 1.14334 1.58704 0
M  V30 3490 C 326.839 -0.293948 2.09043 0
M  V30 3491 O 326.187 -1.29153 1.88499 0
M  V30 3492 C 326.397 2.17626 2.72837 0
M  V30 3493 C 327.745 2.51282 3.42261 0
M  V30 3494 O 328.769 2.16219 2.83068 0
M  V30 3495 O 327.628 3.11413 4.49093 0
M  V30 3496 H 324.722 0.441601 0.699226 0
M  V30 3497 H 327.268 1.44362 0.892053 0
M  V30 3498 H 326.04 3.14211 2.3321 0
M  V30 3499 H 325.663 1.88628 3.50008 0
M  V30 3500 N 326.66 -1.06551 1.16123 0
M  V30 3501 C 327.57 -2.17484 0.879662 0
M  V30 3502 C 328.586 -1.73377 -0.147104 0
M  V30 3503 O 329.762 -2.01379 0.0289128 0
M  V30 3504 C 326.827 -3.44591 0.381829 0
M  V30 3505 C 325.888 -4.0322 1.4735 0
M  V30 3506 C 325.121 -5.24261 0.999324 0
M  V30 3507 O 325.344 -5.70198 -0.151957 0
M  V30 3508 O 324.278 -5.74775 1.78653 0
M  V30 3509 H 328.104 -2.44075 1.80724 0
M  V30 3510 H 325.689 -1.16042 0.940992 0
M  V30 3511 H 327.571 -4.21254 0.111053 0
M  V30 3512 H 326.246 -3.19532 -0.51777 0
M  V30 3513 H 325.153 -3.2806 1.79798 0
M  V30 3514 H 326.486 -4.32568 2.34831 0
M  V30 3515 N 328.138 -0.959301 -1.25041 0
M  V30 3516 C 329.549 -0.65667 -1.74771 0
M  V30 3517 C 329.9 0.827852 -1.77879 0
M  V30 3518 O 329.025 1.64783 -1.40269 0
M  V30 3519 C 329.62 -1.1853 -3.1739 0
M  V30 3520 C 328.179 -0.932734 -3.6466 0
M  V30 3521 C 327.326 -1.32558 -2.43564 0
M  V30 3522 H 330.277 -1.13558 -1.10862 0
M  V30 3523 H 330.298 -0.547582 -3.76539 0
M  V30 3524 H 329.81 -2.26576 -3.15095 0
M  V30 3525 H 327.911 0.13257 -3.72364 0
M  V30 3526 H 328.024 -1.57248 -4.52559 0
M  V30 3527 H 326.388 -0.743956 -2.43593 0
M  V30 3528 H 327.171 -2.41537 -2.43957 0
M  V30 3529 N 329.616 1.39756 -0.72842 0
M  V30 3530 C 330.864 2.00248 -0.272946 0
M  V30 3531 C 331.185 1.58077 1.14178 0
M  V30 3532 O 330.455 0.826014 1.77634 0
M  V30 3533 H 329.035 0.740554 -0.0979247 0
M  V30 3534 H 331.697 1.70903 -0.936912 0
M  V30 3535 H 330.793 3.10495 -0.316142 0
M  V30 3536 N 331.094 0.475555 1.50254 0
M  V30 3537 C 332.057 -0.305016 2.27161 0
M  V30 3538 C 333.057 -0.916519 1.32123 0
M  V30 3539 O 334.247 -0.785003 1.5551 0
M  V30 3540 C 331.379 -1.43496 3.09227 0
M  V30 3541 H 332.572 0.369511 2.97615 0
M  V30 3542 H 330.125 0.229747 1.54602 0
M  V30 3543 H 330.86 -2.14441 2.43281 0
M  V30 3544 H 330.645 -1.00223 3.79075 0
M  V30 3545 H 332.135 -1.98548 3.67381 0
M  V30 3546 N 332.573 -1.56217 0.208337 0
M  V30 3547 C 333.819 -1.98998 -0.42086 0
M  V30 3548 C 334.174 -1.09331 -1.58317 0
M  V30 3549 O 333.467 -0.140466 -1.91084 0
M  V30 3550 C 333.661 -3.45441 -0.916797 0
M  V30 3551 C 333.49 -4.49273 0.195925 0
M  V30 3552 C 332.26 -5.00998 0.657956 0
M  V30 3553 C 334.458 -5.04294 1.00956 0
M  V30 3554 N 332.44 -5.88514 1.74712 0
M  V30 3555 C 333.811 -5.88607 1.94785 0
M  V30 3556 C 335.866 -4.86692 1.05049 0
M  V30 3557 C 334.569 -6.572 2.9237 0
M  V30 3558 C 336.595 -5.56034 2.01446 0
M  V30 3559 C 335.957 -6.40105 2.94016 0
M  V30 3560 H 332.056 -0.772574 -0.121048 0
M  V30 3561 H 334.64 -1.92101 0.317075 0
M  V30 3562 H 332.811 -3.52812 -1.62413 0
M  V30 3563 H 334.543 -3.75164 -1.51771 0
M  V30 3564 H 331.298 -4.72945 0.248912 0
M  V30 3565 H 331.722 -6.36975 2.2933 0
M  V30 3566 H 336.364 -4.21359 0.348759 0
M  V30 3567 H 334.082 -7.21723 3.63512 0
M  V30 3568 H 337.668 -5.44385 2.0527 0
M  V30 3569 H 336.548 -6.92816 3.6739 0
M  V30 3570 N 334.051 0.0651679 -1.57465 0
M  V30 3571 C 334.961 1.09448 -2.07505 0
M  V30 3572 C 335.977 1.41974 -1.00595 0
M  V30 3573 O 337.153 1.52018 -1.32107 0
M  V30 3574 C 334.218 2.38689 -2.51453 0
M  V30 3575 C 333.279 2.13073 -3.72691 0
M  V30 3576 C 332.512 3.36152 -4.14533 0
M  V30 3577 O 332.735 4.45517 -3.56189 0
M  V30 3578 O 331.669 3.23974 -5.07272 0
M  V30 3579 H 335.495 0.69935 -2.95538 0
M  V30 3580 H 333.08 0.279752 -1.46757 0
M  V30 3581 H 334.962 3.14736 -2.80212 0
M  V30 3582 H 333.637 2.77568 -1.66546 0
M  V30 3583 H 332.544 1.34709 -3.49005 0
M  V30 3584 H 333.877 1.79071 -4.5847 0
M  V30 3585 N 335.529 1.53961 0.336706 0
M  V30 3586 C 336.439 1.85432 1.43708 0
M  V30 3587 C 337.455 0.745053 1.57242 0
M  V30 3588 O 338.631 1.03804 1.72588 0
M  V30 3589 C 335.696 2.06349 2.78605 0
M  V30 3590 C 334.757 3.30191 2.74358 0
M  V30 3591 C 333.99 3.50101 4.02822 0
M  V30 3592 O 334.213 2.7371 5.00439 0
M  V30 3593 O 333.147 4.43547 4.06878 0
M  V30 3594 H 336.973 2.78975 1.20028 0
M  V30 3595 H 334.558 1.39701 0.52952 0
M  V30 3596 H 336.44 2.21513 3.58483 0
M  V30 3597 H 335.115 1.15995 3.02203 0
M  V30 3598 H 334.022 3.20425 1.93078 0
M  V30 3599 H 335.355 4.2056 2.55715 0
M  V30 3600 N 337.007 -0.598083 1.45811 0
M  V30 3601 C 338.235 -1.38322 1.53866 0
M  V30 3602 C 338.65 -1.87992 0.174479 0
M  V30 3603 O 338.007 -1.62756 -0.825627 0
M  V30 3604 C 338.058 -2.58125 2.53089 0
M  V30 3605 O 337.779 -2.10516 3.84206 0
M  V30 3606 C 339.28 -3.50869 2.70935 0
M  V30 3607 H 336.5 -0.423093 0.520801 0
M  V30 3608 H 339.044 -0.728527 1.91083 0
M  V30 3609 H 337.199 -3.19615 2.18917 0
M  V30 3610 H 337.613 -2.88425 4.38077 0
M  V30 3611 H 339.087 -4.31451 3.44317 0
M  V30 3612 H 339.564 -4.01822 1.77301 0
M  V30 3613 H 340.17 -2.95225 3.06141 0
M  V30 3614 N 338.485 -1.33259 -0.841409 0
M  V30 3615 C 339.732 -1.24572 -1.5965 0
M  V30 3616 C 340.06 0.189137 -1.93578 0
M  V30 3617 O 339.315 1.14566 -1.5866 0
M  V30 3618 C 339.614 -2.06381 -2.9179 0
M  V30 3619 C 339.28 -3.556 -2.77235 0
M  V30 3620 C 337.942 -3.96282 -2.72973 0
M  V30 3621 C 340.294 -4.50433 -2.62221 0
M  V30 3622 C 337.622 -5.30017 -2.51592 0
M  V30 3623 C 339.974 -5.84327 -2.42374 0
M  V30 3624 C 338.638 -6.24194 -2.36512 0
M  V30 3625 H 337.908 -0.455842 -0.5842 0
M  V30 3626 H 340.555 -1.6482 -0.975016 0
M  V30 3627 H 338.86 -1.58903 -3.5813 0
M  V30 3628 H 340.557 -1.97019 -3.49263 0
M  V30 3629 H 337.147 -3.23298 -2.81384 0
M  V30 3630 H 341.331 -4.19914 -2.64549 0
M  V30 3631 H 336.587 -5.59947 -2.45499 0
M  V30 3632 H 340.761 -6.57414 -2.29739 0
M  V30 3633 H 338.388 -7.27759 -2.19706 0
M  V30 3634 N 339.963 1.05934 -1.16686 0
M  V30 3635 C 340.91 2.13499 -0.876748 0
M  V30 3636 C 341.88 1.65162 0.176299 0
M  V30 3637 O 343.065 1.90757 0.0407143 0
M  V30 3638 C 340.205 3.42912 -0.387967 0
M  V30 3639 C 339.318 4.04964 -1.50426 0
M  V30 3640 C 338.453 5.22266 -0.970125 0
M  V30 3641 C 337.492 5.76309 -2.06238 0
M  V30 3642 N 336.629 6.84922 -1.54356 0
M  V30 3643 H 341.469 2.37654 -1.7979 0
M  V30 3644 H 339.006 1.16598 -0.896843 0
M  V30 3645 H 340.964 4.17111 -0.086186 0
M  V30 3646 H 339.594 3.18963 0.496235 0
M  V30 3647 H 338.646 3.28277 -1.92193 0
M  V30 3648 H 339.958 4.41122 -2.32836 0
M  V30 3649 H 339.112 6.03506 -0.621743 0
M  V30 3650 H 337.851 4.87564 -0.115377 0
M  V30 3651 H 336.856 4.93704 -2.41942 0
M  V30 3652 H 338.081 6.13062 -2.92115 0
M  V30 3653 H 336.027 6.52131 -0.711406 0
M  V30 3654 H 335.944 7.20043 -2.30379 0
M  V30 3655 H 337.212 7.69832 -1.22387 0
M  V30 3656 N 341.441 0.965919 1.2453 0
M  V30 3657 C 342.669 0.644385 1.96609 0
M  V30 3658 C 343.084 -0.785823 1.71669 0
M  V30 3659 O 342.441 -1.52703 0.999399 0
M  V30 3660 C 342.492 0.907375 3.49927 0
M  V30 3661 O 342.213 2.28136 3.74013 0
M  V30 3662 C 343.714 0.599784 4.39224 0
M  V30 3663 H 340.934 0.240588 0.626385 0
M  V30 3664 H 343.478 1.29337 1.58405 0
M  V30 3665 H 341.633 0.304631 3.862 0
M  V30 3666 H 342.047 2.36002 4.68405 0
M  V30 3667 H 343.521 0.834263 5.45659 0
M  V30 3668 H 343.998 -0.465921 4.36722 0
M  V30 3669 H 344.604 1.18235 4.08535 0
M  V30 3670 N 342.919 -1.39368 0.735821 0
M  V30 3671 C 343.869 -2.27885 0.0724287 0
M  V30 3672 C 344.853 -1.44301 -0.711756 0
M  V30 3673 O 346.045 -1.67206 -0.58063 0
M  V30 3674 C 343.174 -3.33029 -0.833454 0
M  V30 3675 C 342.26 -4.24078 -0.0433749 0
M  V30 3676 N 342.651 -4.96138 0.983903 0
M  V30 3677 C 340.949 -4.45164 -0.272905 0
M  V30 3678 C 341.65 -5.63069 1.4604 0
M  V30 3679 N 340.626 -5.37991 0.778857 0
M  V30 3680 H 344.428 -2.81052 0.859467 0
M  V30 3681 H 341.942 -1.5206 0.570227 0
M  V30 3682 H 343.939 -3.95311 -1.32419 0
M  V30 3683 H 342.599 -2.81421 -1.61964 0
M  V30 3684 H 343.61 -4.9958 1.36528 0
M  V30 3685 H 340.287 -4.04497 -1.03383 0
M  V30 3686 H 341.677 -6.30755 2.31511 0
M  V30 3687 N 344.397 -0.483516 -1.5 0
M  V30 3688 C 345.622 0.0667119 -2.07293 0
M  V30 3689 C 346.047 1.3164 -1.3436 0
M  V30 3690 O 345.405 1.76945 -0.394987 0
M  V30 3691 C 345.453 0.321126 -3.59167 0
M  V30 3692 O 344.557 1.39927 -3.87936 0
M  V30 3693 H 343.898 -0.0184758 -0.663743 0
M  V30 3694 H 346.428 -0.678125 -1.93035 0
M  V30 3695 H 346.438 0.557906 -4.04168 0
M  V30 3696 H 345.113 -0.592007 -4.11665 0
M  V30 3697 H 343.69 1.14882 -3.54763 0
M  V30 3698 N 345.875 1.56104 -0.216619 0
M  V30 3699 C 347.152 1.89988 0.465165 0
M  V30 3700 C 347.532 1.13326 1.78102 0
M  V30 3701 O 346.88 0.241033 2.27225 0
M  V30 3702 C 347.09 3.42646 0.662939 0
M  V30 3703 C 348.438 4.13311 0.972602 0
M  V30 3704 O 349.462 3.48217 0.749901 0
M  V30 3705 O 348.321 5.28396 1.39499 0
M  V30 3706 H 345.415 0.78979 0.245276 0
M  V30 3707 H 347.961 1.67721 -0.258436 0
M  V30 3708 H 346.733 3.90399 -0.26543 0
M  V30 3709 H 346.356 3.70677 1.43821 0
M  V30 3710 N 347.353 -0.0568162 1.57498 0
M  V30 3711 C 348.578 -0.769402 1.92601 0
M  V30 3712 C 349.003 -1.69559 0.814336 0
M  V30 3713 O 348.361 -1.79811 -0.231903 0
M  V30 3714 C 348.409 -1.52634 3.26704 0
M  V30 3715 O 347.513 -2.63797 3.16994 0
M  V30 3716 H 346.854 -0.208909 0.63028 0
M  V30 3717 H 349.384 -0.0205798 2.0459 0
M  V30 3718 H 349.394 -1.90234 3.60936 0
M  V30 3719 H 348.069 -0.846875 4.07186 0
M  V30 3720 H 346.646 -2.28943 2.94346 0
M  V30 3721 N 348.832 -1.54138 -0.328536 0
M  V30 3722 C 349.779 -1.83176 -1.40411 0
M  V30 3723 C 350.749 -0.678494 -1.5161 0
M  V30 3724 O 351.934 -0.92443 -1.6691 0
M  V30 3725 C 349.074 -2.06035 -2.76846 0
M  V30 3726 C 348.187 -3.33727 -2.74318 0
M  V30 3727 C 347.322 -3.46574 -4.02567 0
M  V30 3728 C 346.361 -4.68159 -3.94327 0
M  V30 3729 N 345.498 -4.77959 -5.14296 0
M  V30 3730 H 350.338 -2.74938 -1.14948 0
M  V30 3731 H 347.875 -1.36166 -0.556538 0
M  V30 3732 H 349.833 -2.1728 -3.56153 0
M  V30 3733 H 348.463 -1.1757 -3.00628 0
M  V30 3734 H 347.515 -3.31246 -1.8703 0
M  V30 3735 H 348.827 -4.23139 -2.64111 0
M  V30 3736 H 347.981 -3.57333 -4.90304 0
M  V30 3737 H 346.72 -2.55245 -4.15574 0
M  V30 3738 H 345.725 -4.57461 -3.04974 0
M  V30 3739 H 346.95 -5.60868 -3.82889 0
M  V30 3740 H 344.896 -3.89544 -5.27818 0
M  V30 3741 H 344.813 -5.6133 -5.06404 0
M  V30 3742 H 346.081 -4.93044 -6.03761 0
M  V30 3743 N 350.31 0.590341 -1.46126 0
M  V30 3744 C 351.721 1.17243 -1.45296 0
M  V30 3745 C 352.072 1.95281 -0.189723 0
M  V30 3746 O 351.197 2.04502 0.707674 0
M  V30 3747 C 351.792 2.13284 -2.6324 0
M  V30 3748 C 350.351 2.66832 -2.65476 0
M  V30 3749 C 349.498 1.42557 -2.3785 0
M  V30 3750 H 352.449 0.378692 -1.54116 0
M  V30 3751 H 352.47 2.96619 -2.38323 0
M  V30 3752 H 351.982 1.56459 -3.55165 0
M  V30 3753 H 350.083 3.27548 -1.77603 0
M  V30 3754 H 350.196 3.10088 -3.65215 0
M  V30 3755 H 348.56 1.72107 -1.87753 0
M  V30 3756 H 349.343 0.875741 -3.31942 0
M  V30 3757 N 351.788 1.33704 0.83433 0
M  V30 3758 C 353.018 1.28281 1.6195 0
M  V30 3759 C 353.426 -0.147603 1.88623 0
M  V30 3760 O 352.769 -1.1016 1.47005 0
M  V30 3761 C 352.831 1.99386 2.99141 0
M  V30 3762 C 352.495 3.48681 2.95416 0
M  V30 3763 C 353.492 4.438 2.70809 0
M  V30 3764 C 351.177 3.90925 3.15409 0
M  V30 3765 C 353.171 5.79138 2.66229 0
M  V30 3766 C 350.858 5.26366 3.10454 0
M  V30 3767 C 351.856 6.20284 2.85895 0
M  V30 3768 O 351.544 7.53245 2.80852 0
M  V30 3769 H 351.276 0.44315 0.510484 0
M  V30 3770 H 353.83 1.76711 1.04702 0
M  V30 3771 H 352.06 1.45554 3.58261 0
M  V30 3772 H 353.749 1.87403 3.60049 0
M  V30 3773 H 354.515 4.12485 2.5511 0
M  V30 3774 H 350.394 3.18229 3.33543 0
M  V30 3775 H 353.938 6.52416 2.4698 0
M  V30 3776 H 349.835 5.57304 3.25703 0
M  V30 3777 H 350.603 7.62846 2.96661 0
M  V30 3778 N 353.266 -1.05314 1.17247 0
M  V30 3779 C 354.514 -1.77941 0.958194 0
M  V30 3780 C 354.835 -1.88089 -0.514556 0
M  V30 3781 O 354.105 -1.39676 -1.37359 0
M  V30 3782 H 352.685 -0.659116 0.351533 0
M  V30 3783 H 355.347 -1.27166 1.47699 0
M  V30 3784 H 354.443 -2.79663 1.38546 0
M  V30 3785 N 354.744 -0.972509 -1.24016 0
M  V30 3786 C 356.155 -0.67517 -1.74064 0
M  V30 3787 C 356.506 0.808939 -1.78747 0
M  V30 3788 O 355.631 1.63286 -1.42009 0
M  V30 3789 C 356.226 -1.21889 -3.16115 0
M  V30 3790 C 354.785 -0.971358 -3.6365 0
M  V30 3791 C 353.932 -1.35134 -2.42145 0
M  V30 3792 H 356.883 -1.14727 -1.09651 0
M  V30 3793 H 356.904 -0.587489 -3.75937 0
M  V30 3794 H 356.416 -2.29906 -3.12674 0
M  V30 3795 H 354.517 0.0930686 -3.72484 0
M  V30 3796 H 354.63 -1.62039 -4.50866 0
M  V30 3797 H 352.994 -0.769751 -2.4279 0
M  V30 3798 H 353.777 -2.4411 -2.41381 0
M  V30 3799 N 356.222 1.38976 -0.743202 0
M  V30 3800 C 357.155 2.28128 -0.0572165 0
M  V30 3801 C 358.133 1.44827 0.739182 0
M  V30 3802 O 359.317 1.74207 0.720009 0
M  V30 3803 C 356.444 3.25796 0.926001 0
M  V30 3804 C 355.49 4.25947 0.217099 0
M  V30 3805 S 356.323 5.24604 -1.07477 0
M  V30 3806 C 357.479 6.25829 -0.0943545 0
M  V30 3807 H 357.712 2.85961 -0.813246 0
M  V30 3808 H 355.245 1.44822 -0.535341 0
M  V30 3809 H 357.203 3.82583 1.48797 0
M  V30 3810 H 355.864 2.66966 1.65493 0
M  V30 3811 H 355.057 4.94746 0.961372 0
M  V30 3812 H 354.659 3.73002 -0.273059 0
M  V30 3813 H 356.951 6.73411 0.743239 0
M  V30 3814 H 357.894 7.0412 -0.749713 0
M  V30 3815 H 358.302 5.63797 0.281706 0
M  V30 3816 N 357.7 0.491464 1.49741 0
M  V30 3817 C 358.925 -0.0557177 2.07325 0
M  V30 3818 C 359.35 -1.30925 1.35056 0
M  V30 3819 O 358.708 -1.76733 0.404365 0
M  V30 3820 C 358.756 -0.302074 3.59333 0
M  V30 3821 O 357.86 -1.37868 3.88672 0
M  V30 3822 H 357.201 0.0219956 0.663636 0
M  V30 3823 H 359.731 0.688352 1.92673 0
M  V30 3824 H 359.741 -0.536464 4.04458 0
M  V30 3825 H 358.416 0.61383 4.11345 0
M  V30 3826 H 356.993 -1.12999 3.55367 0
M  V30 3827 N 359.178 -1.55987 0.224894 0
M  V30 3828 C 360.424 -1.98684 -0.406502 0
M  V30 3829 C 360.757 -1.11248 -1.59177 0
M  V30 3830 O 360.032 -0.170909 -1.93748 0
M  V30 3831 C 360.315 -3.50218 -0.837808 0
M  V30 3832 C 360.168 -4.48426 0.351332 0
M  V30 3833 C 361.487 -4.06243 -1.69278 0
M  V30 3834 H 358.606 -0.722337 -0.146283 0
M  V30 3835 H 361.248 -1.87255 0.321799 0
M  V30 3836 H 359.398 -3.60089 -1.45837 0
M  V30 3837 H 361.07 -4.50562 0.989526 0
M  V30 3838 H 359.313 -4.22159 0.998207 0
M  V30 3839 H 359.984 -5.52 0.00655905 0
M  V30 3840 H 362.46 -3.99337 -1.16914 0
M  V30 3841 H 361.336 -5.12581 -1.96346 0
M  V30 3842 H 361.597 -3.53332 -2.65723 0
M  V30 3843 N 360.656 0.0484629 -1.57525 0
M  V30 3844 C 361.904 0.741657 -1.88 0
M  V30 3845 C 362.225 1.76918 -0.820054 0
M  V30 3846 O 361.495 1.95335 0.148661 0
M  V30 3847 H 360.075 0.276908 -0.69378 0
M  V30 3848 H 362.737 0.019013 -1.94891 0
M  V30 3849 H 361.833 1.24336 -2.86264 0
M  V30 3850 N 362.134 1.5431 0.320358 0
M  V30 3851 C 363.064 1.86912 1.3995 0
M  V30 3852 C 364.045 0.726211 1.53819 0
M  V30 3853 O 365.23 0.980233 1.67646 0
M  V30 3854 C 362.36 2.09932 2.7667 0
M  V30 3855 C 361.314 3.25776 2.77586 0
M  V30 3856 C 360.64 3.34173 4.17412 0
M  V30 3857 C 361.94 4.6335 2.41048 0
M  V30 3858 H 363.634 2.77292 1.12914 0
M  V30 3859 H 361.18 1.33421 0.541738 0
M  V30 3860 H 363.133 2.31324 3.52232 0
M  V30 3861 H 361.857 1.16304 3.0519 0
M  V30 3862 H 360.516 3.04276 2.04479 0
M  V30 3863 H 360.164 2.38098 4.43078 0
M  V30 3864 H 359.864 4.12033 4.18931 0
M  V30 3865 H 361.388 3.57803 4.94782 0
M  V30 3866 H 362.802 4.84602 3.06324 0
M  V30 3867 H 361.199 5.43782 2.53813 0
M  V30 3868 H 362.269 4.65381 1.36193 0
M  V30 3869 N 363.613 -0.582584 1.46437 0
M  V30 3870 C 364.89 -1.34276 1.4223 0
M  V30 3871 C 365.27 -2.10835 0.10583 0
M  V30 3872 O 364.618 -2.09485 -0.912596 0
M  V30 3873 C 364.828 -2.26865 2.65204 0
M  V30 3874 C 366.176 -2.88691 3.11356 0
M  V30 3875 O 367.2 -2.37178 2.65753 0
M  V30 3876 O 366.059 -3.82255 3.90568 0
M  V30 3877 H 363.153 -0.603326 0.565621 0
M  V30 3878 H 365.699 -0.603591 1.58603 0
M  V30 3879 H 364.471 -1.69724 3.52576 0
M  V30 3880 H 364.094 -3.08122 2.5129 0
M  V30 3881 N 365.091 -1.34144 -0.827227 0
M  V30 3882 C 366.338 -1.26258 -1.58319 0
M  V30 3883 C 366.666 0.168595 -1.93768 0
M  V30 3884 O 365.921 1.12877 -1.59866 0
M  V30 3885 C 366.22 -2.09464 -2.89585 0
M  V30 3886 C 365.886 -3.58521 -2.73448 0
M  V30 3887 C 364.548 -3.99155 -2.68754 0
M  V30 3888 C 366.9 -4.53189 -2.57428 0
M  V30 3889 C 364.228 -5.32656 -2.45957 0
M  V30 3890 C 366.58 -5.86864 -2.36163 0
M  V30 3891 C 365.244 -6.26667 -2.29879 0
M  V30 3892 H 364.514 -0.462013 -0.579332 0
M  V30 3893 H 367.161 -1.65845 -0.95748 0
M  V30 3894 H 365.466 -1.62692 -3.56425 0
M  V30 3895 H 367.163 -2.00712 -3.47154 0
M  V30 3896 H 363.753 -3.26264 -2.77939 0
M  V30 3897 H 367.937 -4.22696 -2.60081 0
M  V30 3898 H 363.193 -5.62519 -2.39546 0
M  V30 3899 H 367.367 -6.59813 -2.22754 0
M  V30 3900 H 364.994 -7.30049 -2.11975 0
M  V30 3901 N 366.569 1.04691 -1.17803 0
M  V30 3902 C 367.794 1.81984 -0.994813 0
M  V30 3903 C 368.219 1.82586 0.452112 0
M  V30 3904 O 367.577 1.23854 1.324 0
M  V30 3905 C 367.625 3.2575 -1.54659 0
M  V30 3906 O 366.729 4.05267 -0.763728 0
M  V30 3907 H 366.07 0.562483 -0.352857 0
M  V30 3908 H 368.6 1.3189 -1.56417 0
M  V30 3909 H 368.61 3.76541 -1.57102 0
M  V30 3910 H 367.285 3.24627 -2.59981 0
M  V30 3911 H 365.862 3.63972 -0.811108 0
M  V30 3912 N 368.047 0.979072 1.23499 0
M  V30 3913 C 368.977 0.537606 2.27227 0
M  V30 3914 C 369.958 -0.428539 1.64613 0
M  V30 3915 O 371.143 -0.322191 1.91509 0
M  V30 3916 C 368.273 -0.162052 3.46922 0
M  V30 3917 C 367.227 0.721242 4.21879 0
M  V30 3918 C 366.553 -0.110555 5.34586 0
M  V30 3919 C 367.853 2.01141 4.82016 0
M  V30 3920 H 369.547 1.40462 2.64406 0
M  V30 3921 H 367.093 0.67684 1.27102 0
M  V30 3922 H 369.046 -0.482192 4.18632 0
M  V30 3923 H 367.77 -1.06351 3.08799 0
M  V30 3924 H 366.429 1.02482 3.51984 0
M  V30 3925 H 366.077 -1.0125 4.92704 0
M  V30 3926 H 365.777 0.477325 5.85658 0
M  V30 3927 H 367.301 -0.425107 6.09118 0
M  V30 3928 H 368.715 1.75612 5.45741 0
M  V30 3929 H 367.112 2.54695 5.43369 0
M  V30 3930 H 368.182 2.69909 4.02836 0
M  V30 3931 N 369.525 -1.3858 0.750561 0
M  V30 3932 C 370.936 -1.82927 0.373438 0
M  V30 3933 C 371.287 -1.62634 -1.09748 0
M  V30 3934 O 370.412 -1.12588 -1.84805 0
M  V30 3935 C 371.007 -3.32088 0.671029 0
M  V30 3936 C 369.566 -3.74795 0.34722 0
M  V30 3937 C 368.713 -2.61391 0.92575 0
M  V30 3938 H 371.664 -1.27351 0.946958 0
M  V30 3939 H 371.685 -3.80465 -0.0518269 0
M  V30 3940 H 371.197 -3.46826 1.74164 0
M  V30 3941 H 369.298 -3.65638 -0.716933 0
M  V30 3942 H 369.411 -4.71667 0.840656 0
M  V30 3943 H 367.775 -2.52265 0.351327 0
M  V30 3944 H 368.558 -2.78929 2.00133 0
M  V30 3945 N 371.003 -0.499398 -1.49478 0
M  V30 3946 C 372.251 0.0455996 -2.02049 0
M  V30 3947 C 372.572 1.37633 -1.38138 0
M  V30 3948 O 371.842 1.8842 -0.536166 0
M  V30 3949 H 370.422 0.0198416 -0.746736 0
M  V30 3950 H 373.084 -0.656274 -1.83519 0
M  V30 3951 H 372.18 0.176445 -3.11601 0
M  V30 3952 N 372.481 1.55866 -0.233164 0
M  V30 3953 C 373.414 2.16794 0.712442 0
M  V30 3954 C 374.392 1.1158 1.18273 0
M  V30 3955 O 375.576 1.39897 1.26337 0
M  V30 3956 C 372.703 2.75757 1.96661 0
M  V30 3957 C 371.749 3.93902 1.63533 0
M  V30 3958 S 372.582 5.30223 0.74995 0
M  V30 3959 C 373.738 5.92631 2.01343 0
M  V30 3960 H 373.971 2.96662 0.194617 0
M  V30 3961 H 371.504 1.5439 -0.0177425 0
M  V30 3962 H 373.462 3.10367 2.68668 0
M  V30 3963 H 372.123 1.9586 2.45556 0
M  V30 3964 H 371.316 4.33702 2.56747 0
M  V30 3965 H 370.918 3.60499 0.995804 0
M  V30 3966 H 373.21 6.09312 2.96219 0
M  V30 3967 H 374.153 6.88388 1.65915 0
M  V30 3968 H 374.561 5.21571 2.15925 0
M  V30 3969 N 373.959 -0.0401083 1.57549 0
M  V30 3970 C 374.869 -1.06133 2.0922 0
M  V30 3971 C 375.885 -1.40356 1.0284 0
M  V30 3972 O 377.061 -1.49897 1.34509 0
M  V30 3973 C 374.126 -2.34658 2.55218 0
M  V30 3974 C 373.187 -2.07117 3.76033 0
M  V30 3975 C 372.42 -3.29514 4.19829 0
M  V30 3976 O 372.643 -4.39794 3.63232 0
M  V30 3977 O 371.577 -3.15863 5.12362 0
M  V30 3978 H 375.403 -0.652244 2.96613 0
M  V30 3979 H 372.988 -0.256368 1.47184 0
M  V30 3980 H 374.87 -3.10239 2.85184 0
M  V30 3981 H 373.545 -2.74883 1.70941 0
M  V30 3982 H 372.452 -1.29139 3.51104 0
M  V30 3983 H 373.785 -1.71754 4.61261 0
M  V30 3984 N 375.437 -1.54477 -0.31217 0
M  V30 3985 C 376.387 -1.81037 -1.38598 0
M  V30 3986 C 377.371 -0.666941 -1.46426 0
M  V30 3987 O 378.563 -0.927269 -1.50767 0
M  V30 3988 C 375.692 -2.05127 -2.75277 0
M  V30 3989 C 374.778 -3.25624 -2.71716 0
M  V30 3990 N 375.169 -4.46428 -2.37773 0
M  V30 3991 C 373.467 -3.27427 -3.02833 0
M  V30 3992 C 374.168 -5.28406 -2.43232 0
M  V30 3993 N 373.144 -4.6586 -2.80135 0
M  V30 3994 H 376.946 -2.7201 -1.11301 0
M  V30 3995 H 374.46 -1.53826 -0.520705 0
M  V30 3996 H 376.457 -2.22299 -3.52688 0
M  V30 3997 H 375.117 -1.15416 -3.03495 0
M  V30 3998 H 376.128 -4.73227 -2.1042 0
M  V30 3999 H 372.805 -2.47786 -3.36018 0
M  V30 4000 H 374.195 -6.34903 -2.19882 0
M  V30 4001 N 376.915 0.57481 -1.46744 0
M  V30 4002 C 378.161 1.3347 -1.52688 0
M  V30 4003 C 378.494 1.93353 -0.181229 0
M  V30 4004 O 377.769 1.76912 0.808237 0
M  V30 4005 C 378.052 2.45811 -2.63152 0
M  V30 4006 C 377.905 1.90912 -4.07275 0
M  V30 4007 C 379.224 3.47822 -2.69644 0
M  V30 4008 H 376.343 0.483935 -0.555856 0
M  V30 4009 H 378.985 0.644968 -1.78718 0
M  V30 4010 H 377.135 3.04646 -2.41088 0
M  V30 4011 H 378.807 1.36473 -4.4065 0
M  V30 4012 H 377.05 1.21691 -4.16382 0
M  V30 4013 H 377.721 2.72042 -4.80309 0
M  V30 4014 H 380.197 2.9888 -2.895 0
M  V30 4015 H 379.073 4.23876 -3.48742 0
M  V30 4016 H 379.334 4.05555 -1.76005 0
M  V30 4017 N 378.394 1.34581 0.820102 0
M  V30 4018 C 379.624 1.29991 1.6058 0
M  V30 4019 C 380.032 -0.127588 1.88769 0
M  V30 4020 O 379.375 -1.08595 1.48165 0
M  V30 4021 C 379.437 2.02548 2.9701 0
M  V30 4022 C 379.101 3.51794 2.91701 0
M  V30 4023 C 380.098 4.46647 2.66087 0
M  V30 4024 C 377.783 3.94249 3.11245 0
M  V30 4025 C 379.777 5.81929 2.60071 0
M  V30 4026 C 377.464 5.2963 3.04853 0
M  V30 4027 C 378.462 6.23282 2.793 0
M  V30 4028 O 378.15 7.56181 2.72847 0
M  V30 4029 H 377.882 0.448539 0.505756 0
M  V30 4030 H 380.436 1.77811 1.02822 0
M  V30 4031 H 378.666 1.49345 3.56697 0
M  V30 4032 H 380.355 1.91211 3.58041 0
M  V30 4033 H 381.121 4.15168 2.5072 0
M  V30 4034 H 377 3.21749 3.30149 0
M  V30 4035 H 380.544 6.54999 2.40046 0
M  V30 4036 H 376.441 5.60727 3.19774 0
M  V30 4037 H 377.209 7.6595 2.88553 0
M  V30 4038 N 379.872 -1.04064 1.18357 0
M  V30 4039 C 381.12 -1.76915 0.977013 0
M  V30 4040 C 381.441 -1.88624 -0.494577 0
M  V30 4041 O 380.711 -1.41125 -1.3587 0
M  V30 4042 H 379.291 -0.65535 0.358504 0
M  V30 4043 H 381.953 -1.25592 1.49039 0
M  V30 4044 H 381.049 -2.78178 1.41504 0
M  V30 4045 N 381.35 -0.985608 -1.22978 0
M  V30 4046 C 382.599 -0.652881 -1.90841 0
M  V30 4047 C 382.912 0.817842 -1.77681 0
M  V30 4048 O 384.118 1.26185 -2.40395 0
M  V30 4049 C 382.574 -1.11717 -3.42122 0
M  V30 4050 C 382.182 -2.6126 -3.63933 0
M  V30 4051 C 383.926 -0.85843 -4.1573 0
M  V30 4052 C 381.833 -3.0133 -5.08876 0
M  V30 4053 H 380.763 -0.240491 -0.714619 0
M  V30 4054 H 383.414 -1.1942 -1.39324 0
M  V30 4055 H 381.796 -0.504027 -3.92779 0
M  V30 4056 H 382.97 -3.27858 -3.23799 0
M  V30 4057 H 381.285 -2.84937 -3.03644 0
M  V30 4058 H 383.882 -1.13359 -5.22546 0
M  V30 4059 H 384.225 0.205461 -4.15793 0
M  V30 4060 H 384.758 -1.43341 -3.71077 0
M  V30 4061 H 381.497 -4.06864 -5.13947 0
M  V30 4062 H 381.017 -2.3943 -5.49939 0
M  V30 4063 H 382.696 -2.92224 -5.77247 0
M  V30 4064 N 382.828 1.3818 -0.7579 0
M  V30 4065 C 384.239 1.82726 -0.383134 0
M  V30 4066 C 384.59 1.63214 1.08884 0
M  V30 4067 O 383.715 1.13566 1.84205 0
M  V30 4068 C 384.31 3.31728 -0.688631 0
M  V30 4069 C 382.869 3.74606 -0.367091 0
M  V30 4070 C 382.016 2.60896 -0.939599 0
M  V30 4071 H 384.967 1.26847 -0.953699 0
M  V30 4072 H 384.988 3.80487 0.0316492 0
M  V30 4073 H 384.5 3.45898 -1.76001 0
M  V30 4074 H 382.601 3.66013 0.697532 0
M  V30 4075 H 382.714 4.71215 -0.865658 0
M  V30 4076 H 381.078 2.52075 -0.3647 0
M  V30 4077 H 381.861 2.77864 -2.0161 0
M  V30 4078 N 384.306 0.507319 1.49211 0
M  V30 4079 C 385.216 -0.272136 2.33016 0
M  V30 4080 C 386.232 -0.961206 1.45041 0
M  V30 4081 O 387.408 -0.941191 1.78055 0
M  V30 4082 C 384.473 -1.31895 3.20631 0
M  V30 4083 C 383.534 -0.642648 4.24463 0
M  V30 4084 C 382.767 -1.63959 5.07891 0
M  V30 4085 O 382.99 -2.87007 4.92933 0
M  V30 4086 O 381.924 -1.19143 5.8999 0
M  V30 4087 H 385.75 0.413982 3.00865 0
M  V30 4088 H 383.335 0.268556 1.46966 0
M  V30 4089 H 385.217 -1.92446 3.7489 0
M  V30 4090 H 383.892 -1.98788 2.5547 0
M  V30 4091 H 382.799 0.00276252 3.741 0
M  V30 4092 H 384.132 -0.0160534 4.92197 0
M  V30 4093 N 385.784 -1.5574 0.241426 0
M  V30 4094 C 386.734 -2.17803 -0.674233 0
M  V30 4095 C 387.718 -1.13225 -1.14319 0
M  V30 4096 O 388.91 -1.39153 -1.09387 0
M  V30 4097 C 386.039 -2.87682 -1.87333 0
M  V30 4098 C 385.125 -3.99509 -1.42313 0
M  V30 4099 N 385.516 -5.01115 -0.686798 0
M  V30 4100 C 383.814 -4.11964 -1.70885 0
M  V30 4101 C 384.515 -5.79922 -0.454456 0
M  V30 4102 N 383.491 -5.34001 -1.01705 0
M  V30 4103 H 387.293 -2.93718 -0.103447 0
M  V30 4104 H 384.807 -1.62342 0.0435095 0
M  V30 4105 H 386.804 -3.3057 -2.54026 0
M  V30 4106 H 385.464 -2.13269 -2.4484 0
M  V30 4107 H 386.475 -5.16799 -0.337459 0
M  V30 4108 H 383.152 -3.48718 -2.2957 0
M  V30 4109 H 384.542 -6.71768 0.132992 0
M  V30 4110 N 387.262 0.0317525 -1.57568 0
M  V30 4111 C 388.225 1.01783 -2.0536 0
M  V30 4112 C 389.225 1.29203 -0.957253 0
M  V30 4113 O 390.415 1.24251 -1.22095 0
M  V30 4114 C 387.547 2.35137 -2.46827 0
M  V30 4115 H 388.74 0.605062 -2.93733 0
M  V30 4116 H 386.293 0.278514 -1.53799 0
M  V30 4117 H 387.028 2.81168 -1.61602 0
M  V30 4118 H 386.813 2.16566 -3.26866 0
M  V30 4119 H 388.303 3.05938 -2.84239 0
M  V30 4120 N 388.74 1.54641 0.303973 0
M  V30 4121 C 390.017 1.64455 1.05896 0
M  V30 4122 C 390.397 0.490923 2.05312 0
M  V30 4123 O 389.745 -0.512685 2.22674 0
M  V30 4124 C 389.955 3.02331 1.74347 0
M  V30 4125 C 391.303 3.59045 2.26653 0
M  V30 4126 O 392.327 3.04764 1.84384 0
M  V30 4127 O 391.186 4.54081 3.04093 0
M  V30 4128 H 388.28 0.666729 0.489287 0
M  V30 4129 H 390.826 1.66986 0.302298 0
M  V30 4130 H 389.598 3.77734 1.02142 0
M  V30 4131 H 389.221 3.03565 2.56777 0
M  V30 4132 N 390.218 -0.567019 1.47046 0
M  V30 4133 C 391.166 -1.69593 1.59188 0
M  V30 4134 C 392.16 -1.63046 0.459609 0
M  V30 4135 O 393.366 -1.6835 0.637058 0
M  V30 4136 H 389.741 -0.560993 0.500791 0
M  V30 4137 H 391.712 -1.56488 2.54075 0
M  V30 4138 C 390.461 -3.07964 1.61411 0
M  V30 4139 H 389.784 -3.13679 2.47881 0
M  V30 4140 H 391.224 -3.86671 1.73958 0
M  V30 4141 C 389.683 -3.35123 0.34559 0
M  V30 4142 O 390.213 -3.97812 -0.557521 0
M  V30 4143 N 388.419 -2.89699 0.22864 0
M  V30 4144 H 387.966 -2.38863 0.964479 0
M  V30 4145 H 387.924 -3.08242 -0.619192 0
M  V30 4146 N 391.696 -1.35014 -0.812953 0
M  V30 4147 C 392.626 -1.30069 -1.93919 0
M  V30 4148 C 393.607 -0.176275 -1.69184 0
M  V30 4149 O 394.792 -0.370227 -1.90638 0
M  V30 4150 C 391.922 -1.06547 -3.30552 0
M  V30 4151 C 390.876 -2.15561 -3.69753 0
M  V30 4152 C 390.202 -1.77214 -5.04479 0
M  V30 4153 C 391.502 -3.57476 -3.808 0
M  V30 4154 H 393.196 -2.24303 -1.98314 0
M  V30 4155 H 390.742 -1.07977 -0.952736 0
M  V30 4156 H 392.695 -1.01729 -4.08937 0
M  V30 4157 H 391.419 -0.0875719 -3.26483 0
M  V30 4158 H 390.078 -2.19466 -2.9365 0
M  V30 4159 H 389.726 -0.780589 -4.96906 0
M  V30 4160 H 389.426 -2.50184 -5.31678 0
M  V30 4161 H 390.95 -1.7391 -5.8531 0
M  V30 4162 H 392.364 -3.55929 -4.4943 0
M  V30 4163 H 390.761 -4.29152 -4.19462 0
M  V30 4164 H 391.831 -3.94091 -2.82525 0
M  V30 4165 N 393.175 1.03435 -1.18907 0
M  V30 4166 C 394.591 1.28973 -0.940111 0
M  V30 4167 C 394.791 1.97676 0.390691 0
M  V30 4168 O 393.847 2.26127 1.12352 0
M  V30 4169 C 395.16 2.14221 -2.11021 0
M  V30 4170 C 396.708 2.27547 -2.14922 0
M  V30 4171 C 397.183 3.16164 -3.31367 0
M  V30 4172 N 398.674 3.23752 -3.31269 0
M  V30 4173 C 399.409 3.92495 -4.18014 0
M  V30 4174 N 398.905 4.63515 -5.14904 0
M  V30 4175 N 400.698 3.88838 -4.05908 0
M  V30 4176 H 392.849 0.57252 -2.04538 0
M  V30 4177 H 395.112 0.315184 -0.894071 0
M  V30 4178 H 394.818 1.71054 -3.073 0
M  V30 4179 H 394.692 3.14919 -2.0762 0
M  V30 4180 H 397.079 2.69947 -1.19217 0
M  V30 4181 H 397.16 1.26418 -2.22378 0
M  V30 4182 H 396.804 2.74474 -4.27348 0
M  V30 4183 H 396.734 4.17339 -3.21148 0
M  V30 4184 H 399.225 2.73167 -2.61129 0
M  V30 4185 H 399.538 5.13583 -5.77453 0
M  V30 4186 H 397.883 4.62398 -5.18857 0
M  V30 4187 H 401.074 3.32491 -3.29495 0
M  V30 4188 H 401.247 4.4214 -4.73726 0
M  V30 4189 N 394.653 0.992116 1.22453 0
M  V30 4190 C 395.583 0.561677 2.26644 0
M  V30 4191 C 396.564 -0.411055 1.65059 0
M  V30 4192 O 397.749 -0.301861 1.9184 0
M  V30 4193 C 394.879 -0.125247 3.47074 0
M  V30 4194 C 393.833 0.765948 4.21091 0
M  V30 4195 C 393.159 -0.0538484 5.34673 0
M  V30 4196 C 394.459 2.06242 4.79856 0
M  V30 4197 H 396.153 1.43259 2.62902 0
M  V30 4198 H 393.699 0.690283 1.26377 0
M  V30 4199 H 395.652 -0.437764 4.1912 0
M  V30 4200 H 394.376 -1.03069 3.0991 0
M  V30 4201 H 393.035 1.0621 3.50878 0
M  V30 4202 H 392.683 -0.960188 4.9375 0
M  V30 4203 H 392.383 0.539415 5.85119 0
M  V30 4204 H 393.907 -0.360477 6.09535 0
M  V30 4205 H 395.321 1.8139 5.43848 0
M  V30 4206 H 393.718 2.60444 5.40638 0
M  V30 4207 H 394.788 2.74167 3.99951 0
M  V30 4208 N 396.131 -1.37776 0.765217 0
M  V30 4209 C 397.078 -2.30342 0.145274 0
M  V30 4210 C 398.048 -1.5077 -0.696971 0
M  V30 4211 O 399.233 -1.79362 -0.650689 0
M  V30 4212 C 396.373 -3.37227 -0.732939 0
M  V30 4213 C 395.486 -4.31819 0.125199 0
M  V30 4214 C 394.621 -5.25777 -0.757107 0
M  V30 4215 C 393.66 -6.12012 0.103963 0
M  V30 4216 N 392.797 -6.98232 -0.735953 0
M  V30 4217 H 397.637 -2.8278 0.940195 0
M  V30 4218 H 395.174 -1.39211 0.475255 0
M  V30 4219 H 397.132 -3.97818 -1.25686 0
M  V30 4220 H 395.762 -2.86171 -1.49353 0
M  V30 4221 H 394.814 -3.7259 0.766865 0
M  V30 4222 H 396.126 -4.92509 0.789683 0
M  V30 4223 H 395.28 -5.91541 -1.34776 0
M  V30 4224 H 394.019 -4.65481 -1.45529 0
M  V30 4225 H 393.024 -5.45233 0.707197 0
M  V30 4226 H 394.249 -6.74379 0.799381 0
M  V30 4227 H 392.195 -6.40472 -1.41887 0
M  V30 4228 H 392.112 -7.55891 -0.128624 0
M  V30 4229 H 393.38 -7.68393 -1.31121 0
M  V30 4230 N 397.609 -0.515225 -1.4894 0
M  V30 4231 C 398.855 0.0242508 -2.02785 0
M  V30 4232 C 399.188 1.35323 -1.39289 0
M  V30 4233 O 398.463 1.87041 -0.533469 0
M  V30 4234 C 398.746 0.16184 -3.59736 0
M  V30 4235 C 398.599 -1.19127 -4.33738 0
M  V30 4236 C 399.918 0.895719 -4.30888 0
M  V30 4237 H 397.037 0.00733914 -0.736963 0
M  V30 4238 H 399.679 -0.669395 -1.77818 0
M  V30 4239 H 397.829 0.752624 -3.8114 0
M  V30 4240 H 399.501 -1.82202 -4.23792 0
M  V30 4241 H 397.744 -1.77695 -3.95736 0
M  V30 4242 H 398.415 -1.04815 -5.41957 0
M  V30 4243 H 400.891 0.394528 -4.14225 0
M  V30 4244 H 399.767 0.960859 -5.40425 0
M  V30 4245 H 400.028 1.9427 -3.97129 0
M  V30 4246 N 399.087 1.5561 -0.249682 0
M  V30 4247 C 400.315 2.03411 0.378352 0
M  V30 4248 C 400.73 1.12886 1.51335 0
M  V30 4249 O 400.087 0.143833 1.81932 0
M  V30 4250 C 400.138 3.50537 0.88351 0
M  V30 4251 O 399.859 4.37614 -0.20626 0
M  V30 4252 C 401.36 4.14113 1.58195 0
M  V30 4253 H 398.58 0.664994 0.08958 0
M  V30 4254 H 401.124 2.01044 -0.374357 0
M  V30 4255 H 399.279 3.5343 1.58639 0
M  V30 4256 H 399.693 5.24199 0.177782 0
M  V30 4257 H 401.167 5.18741 1.8871 0
M  V30 4258 H 401.644 3.60767 2.50487 0
M  V30 4259 H 402.25 4.15151 0.923573 0
M  V30 4260 N 400.565 -0.0233959 1.57583 0
M  V30 4261 C 401.475 -1.03907 2.10334 0
M  V30 4262 C 402.491 -1.39257 1.04323 0
M  V30 4263 O 403.667 -1.48462 1.36091 0
M  V30 4264 C 400.732 -2.31938 2.57693 0
M  V30 4265 C 399.793 -2.03117 3.78209 0
M  V30 4266 C 399.026 -3.25043 4.233 0
M  V30 4267 O 399.249 -4.35916 3.67876 0
M  V30 4268 O 398.183 -3.10411 5.15683 0
M  V30 4269 H 402.009 -0.620748 2.97288 0
M  V30 4270 H 399.594 -0.240743 1.47448 0
M  V30 4271 H 401.476 -3.07196 2.88458 0
M  V30 4272 H 400.151 -2.73055 1.73847 0
M  V30 4273 H 399.058 -1.25408 3.52454 0
M  V30 4274 H 400.391 -1.66852 4.63056 0
M  V30 4275 N 402.043 -1.548 -0.295768 0
M  V30 4276 C 403.291 -1.73985 -1.02828 0
M  V30 4277 C 403.612 -0.531406 -1.87619 0
M  V30 4278 O 402.882 0.454221 -1.90561 0
M  V30 4279 H 401.462 -0.641556 -0.382642 0
M  V30 4280 H 404.124 -1.92163 -0.325489 0
M  V30 4281 H 403.22 -2.63129 -1.67838 0
M  V30 4282 N 403.521 0.559213 -1.47345 0
M  V30 4283 C 404.769 1.31388 -1.53563 0
M  V30 4284 C 405.09 1.93985 -0.198678 0
M  V30 4285 O 404.36 1.79825 0.777167 0
M  V30 4286 H 402.94 0.487901 -0.565652 0
M  V30 4287 H 405.602 0.65315 -1.8363 0
M  V30 4288 H 404.698 2.10844 -2.30111 0
M  V30 4289 N 404.999 1.35443 0.805782 0
M  V30 4290 C 405.909 1.30546 1.94923 0
M  V30 4291 C 406.925 0.210233 1.72725 0
M  V30 4292 O 408.101 0.43975 1.9654 0
M  V30 4293 C 405.166 1.07782 3.29521 0
M  V30 4294 C 404.227 2.26625 3.64609 0
M  V30 4295 C 403.46 2.04938 4.92784 0
M  V30 4296 O 403.683 1.01624 5.61274 0
M  V30 4297 O 402.617 2.9232 5.26149 0
M  V30 4298 H 406.443 2.26779 2.02002 0
M  V30 4299 H 404.028 1.15823 0.943682 0
M  V30 4300 H 405.91 0.969392 4.10098 0
M  V30 4301 H 404.585 0.146003 3.23371 0
M  V30 4302 H 403.492 2.43033 2.84404 0
M  V30 4303 H 404.825 3.18257 3.75464 0
M  V30 4304 N 406.477 -1.02803 1.19454 0
M  V30 4305 C 407.888 -1.57667 0.999899 0
M  V30 4306 C 408.239 -1.91041 -0.446956 0
M  V30 4307 O 407.364 -1.70978 -1.32648 0
M  V30 4308 C 407.959 -2.86477 1.80877 0
M  V30 4309 C 406.518 -3.37911 1.65811 0
M  V30 4310 C 405.665 -2.11343 1.79526 0
M  V30 4311 H 408.616 -0.853214 1.33813 0
M  V30 4312 H 408.637 -3.57408 1.30536 0
M  V30 4313 H 408.149 -2.62155 2.86175 0
M  V30 4314 H 406.25 -3.67218 0.63102 0
M  V30 4315 H 406.363 -4.10885 2.46395 0
M  V30 4316 H 404.727 -2.23254 1.22596 0
M  V30 4317 H 405.51 -1.89461 2.86285 0
M  V30 4318 N 407.956 -0.998596 -1.21925 0
M  V30 4319 C 409.186 -0.695276 -1.94549 0
M  V30 4320 C 409.594 0.745079 -1.73911 0
M  V30 4321 O 408.937 1.51507 -1.03881 0
M  V30 4322 C 408.999 -0.928485 -3.47303 0
M  V30 4323 C 408.663 -2.35443 -3.91683 0
M  V30 4324 C 409.66 -3.33428 -3.98901 0
M  V30 4325 C 407.345 -2.69038 -4.24174 0
M  V30 4326 C 409.339 -4.63079 -4.37992 0
M  V30 4327 C 407.026 -3.98906 -4.62944 0
M  V30 4328 C 408.024 -4.95738 -4.69822 0
M  V30 4329 O 407.712 -6.23285 -5.07711 0
M  V30 4330 H 407.444 -0.255902 -0.625692 0
M  V30 4331 H 409.998 -1.33767 -1.5587 0
M  V30 4332 H 408.228 -0.228917 -3.86022 0
M  V30 4333 H 409.917 -0.619539 -4.01144 0
M  V30 4334 H 410.683 -3.08807 -3.73983 0
M  V30 4335 H 406.562 -1.94367 -4.18022 0
M  V30 4336 H 410.106 -5.38658 -4.43275 0
M  V30 4337 H 406.003 -4.23314 -4.87314 0
M  V30 4338 H 406.771 -6.27306 -5.25766 0
M  V30 4339 N 409.434 1.37368 -0.772513 0
M  V30 4340 C 410.85 1.53059 -0.452231 0
M  V30 4341 C 411.05 1.73065 1.03203 0
M  V30 4342 O 410.106 1.75245 1.81784 0
M  V30 4343 C 411.419 2.72659 -1.26797 0
M  V30 4344 C 412.967 2.86521 -1.25995 0
M  V30 4345 C 413.442 4.09105 -2.05905 0
M  V30 4346 N 414.933 4.16219 -2.03263 0
M  V30 4347 C 415.668 5.10107 -2.61875 0
M  V30 4348 N 415.164 6.09547 -3.29278 0
M  V30 4349 N 416.957 5.02596 -2.51701 0
M  V30 4350 H 409.108 1.22634 -1.7342 0
M  V30 4351 H 411.371 0.597206 -0.736239 0
M  V30 4352 H 411.077 2.64343 -2.31982 0
M  V30 4353 H 410.951 3.66363 -0.897672 0
M  V30 4354 H 413.338 2.94308 -0.216081 0
M  V30 4355 H 413.419 1.93774 -1.66989 0
M  V30 4356 H 413.063 4.0208 -3.10313 0
M  V30 4357 H 412.993 5.00968 -1.62292 0
M  V30 4358 H 415.484 3.45012 -1.54192 0
M  V30 4359 H 415.797 6.77718 -3.71374 0
M  V30 4360 H 414.142 6.09824 -3.33377 0
M  V30 4361 H 417.333 4.23855 -1.98657 0
M  V30 4362 H 417.506 5.75582 -2.97673 0
M  V30 4363 N 410.912 0.523116 1.48665 0
M  V30 4364 C 411.842 -0.23231 2.32342 0
M  V30 4365 C 412.823 -0.941637 1.41659 0
M  V30 4366 O 414.008 -0.928751 1.70552 0
M  V30 4367 C 411.138 -1.28387 3.22698 0
M  V30 4368 C 410.092 -0.693098 4.22351 0
M  V30 4369 C 409.418 -1.8468 5.01794 0
M  V30 4370 C 410.718 0.33063 5.21252 0
M  V30 4371 H 412.412 0.466192 2.95748 0
M  V30 4372 H 409.958 0.225643 1.42221 0
M  V30 4373 H 411.911 -1.82024 3.80059 0
M  V30 4374 H 410.635 -2.01186 2.57278 0
M  V30 4375 H 409.294 -0.178299 3.66166 0
M  V30 4376 H 408.942 -2.56301 4.32804 0
M  V30 4377 H 408.642 -1.45747 5.69238 0
M  V30 4378 H 410.166 -2.38709 5.62006 0
M  V30 4379 H 411.58 -0.118407 5.73178 0
M  V30 4380 H 409.977 0.636974 5.9671 0
M  V30 4381 H 411.047 1.23883 4.68808 0
M  V30 4382 N 412.39 -1.55475 0.257931 0
M  V30 4383 C 413.62 -2.03314 -0.367026 0
M  V30 4384 C 414.028 -1.13625 -1.51281 0
M  V30 4385 O 413.371 -0.145334 -1.83124 0
M  V30 4386 C 413.433 -3.47362 -0.926284 0
M  V30 4387 C 413.097 -4.56914 0.0886584 0
M  V30 4388 C 414.094 -5.12013 0.902123 0
M  V30 4389 C 411.779 -5.01827 0.217936 0
M  V30 4390 C 413.773 -6.10529 1.83122 0
M  V30 4391 C 411.46 -6.00172 1.15052 0
M  V30 4392 C 412.458 -6.54402 1.95568 0
M  V30 4393 O 412.146 -7.50827 2.87253 0
M  V30 4394 H 411.878 -0.669976 -0.0900443 0
M  V30 4395 H 414.432 -2.01804 0.382673 0
M  V30 4396 H 412.662 -3.46056 -1.72575 0
M  V30 4397 H 414.351 -3.78637 -1.46249 0
M  V30 4398 H 415.117 -4.78139 0.812891 0
M  V30 4399 H 410.996 -4.59272 -0.398721 0
M  V30 4400 H 414.54 -6.52783 2.46008 0
M  V30 4401 H 410.437 -6.33465 1.24064 0
M  V30 4402 H 411.205 -7.68483 2.81739 0
M  V30 4403 N 413.868 0.0150385 -1.57593 0
M  V30 4404 C 414.816 1.02958 -2.08572 0
M  V30 4405 C 415.81 1.36554 -1.00246 0
M  V30 4406 O 417.016 1.35295 -1.18724 0
M  V30 4407 H 413.391 0.349619 -0.665786 0
M  V30 4408 H 415.362 0.573932 -2.92829 0
M  V30 4409 C 414.111 2.31752 -2.59203 0
M  V30 4410 H 413.434 2.06765 -3.42182 0
M  V30 4411 H 414.874 3.01053 -2.98568 0
M  V30 4412 C 413.333 3.01692 -1.49945 0
M  V30 4413 O 413.863 3.92083 -0.873704 0
M  V30 4414 N 412.069 2.6326 -1.23056 0
M  V30 4415 H 411.616 1.89838 -1.74125 0
M  V30 4416 H 411.574 3.10372 -0.501685 0
M  V30 4417 N 415.346 1.54954 0.287554 0
M  V30 4418 C 416.276 1.89839 1.35954 0
M  V30 4419 C 417.257 0.758675 1.52244 0
M  V30 4420 O 418.442 1.01557 1.65529 0
M  V30 4421 C 415.572 2.15753 2.72154 0
M  V30 4422 C 414.526 3.3159 2.70614 0
M  V30 4423 C 413.852 3.42952 4.10229 0
M  V30 4424 C 415.152 4.68359 2.31165 0
M  V30 4425 H 416.846 2.79625 1.07007 0
M  V30 4426 H 414.392 1.3454 0.513316 0
M  V30 4427 H 416.345 2.38743 3.47246 0
M  V30 4428 H 415.069 1.22752 3.02654 0
M  V30 4429 H 413.728 3.08545 1.97979 0
M  V30 4430 H 413.376 2.47443 4.37928 0
M  V30 4431 H 413.076 4.20826 4.10097 0
M  V30 4432 H 414.6 3.68218 4.87081 0
M  V30 4433 H 416.014 4.9099 2.95976 0
M  V30 4434 H 414.411 5.49044 2.42221 0
M  V30 4435 H 415.481 4.68165 1.26291 0
M  V30 4436 N 416.824 -0.551391 1.4764 0
M  V30 4437 C 418.101 -1.31229 1.45046 0
M  V30 4438 C 418.481 -2.10563 0.150527 0
M  V30 4439 O 417.829 -2.11374 -0.867956 0
M  V30 4440 C 418.039 -2.21189 2.69956 0
M  V30 4441 C 419.387 -2.82021 3.1741 0
M  V30 4442 O 420.411 -2.31488 2.70724 0
M  V30 4443 O 419.27 -3.73885 3.98588 0
M  V30 4444 H 416.364 -0.591193 0.578291 0
M  V30 4445 H 418.91 -0.569813 1.59847 0
M  V30 4446 H 417.682 -1.62207 3.56096 0
M  V30 4447 H 417.305 -3.02722 2.57769 0
M  V30 4448 N 418.302 -1.35869 -0.798587 0
M  V30 4449 C 419.548 -1.2978 -1.55836 0
M  V30 4450 C 419.881 0.125322 -1.93795 0
M  V30 4451 O 419.156 1.07658 -1.61987 0
M  V30 4452 C 419.439 -2.21188 -2.84162 0
M  V30 4453 C 419.292 -3.72155 -2.52628 0
M  V30 4454 C 420.611 -2.11545 -3.85923 0
M  V30 4455 H 417.73 -0.472769 -0.565383 0
M  V30 4456 H 420.372 -1.66341 -0.918192 0
M  V30 4457 H 418.522 -1.90139 -3.38791 0
M  V30 4458 H 420.194 -4.13682 -2.04121 0
M  V30 4459 H 418.437 -3.92042 -1.85704 0
M  V30 4460 H 419.108 -4.31511 -3.44242 0
M  V30 4461 H 421.584 -2.38855 -3.40716 0
M  V30 4462 H 420.46 -2.77688 -4.73477 0
M  V30 4463 H 420.721 -1.09987 -4.282 0
M  V30 4464 N 419.78 1.02168 -1.19998 0
M  V30 4465 C 421.027 1.75685 -1.00702 0
M  V30 4466 C 421.355 1.88947 0.461426 0
M  V30 4467 O 420.61 1.40832 1.35885 0
M  V30 4468 C 420.909 3.18081 -1.62969 0
M  V30 4469 C 420.575 3.24809 -3.12746 0
M  V30 4470 C 419.237 3.26352 -3.53621 0
M  V30 4471 C 421.589 3.23379 -4.08749 0
M  V30 4472 C 418.917 3.2413 -4.89036 0
M  V30 4473 C 421.269 3.22698 -5.44104 0
M  V30 4474 C 419.933 3.22542 -5.84399 0
M  V30 4475 H 419.203 0.642877 -0.368496 0
M  V30 4476 H 421.85 1.19865 -1.49348 0
M  V30 4477 H 420.155 3.77027 -1.06573 0
M  V30 4478 H 421.852 3.73648 -1.45561 0
M  V30 4479 H 418.442 3.2434 -2.80181 0
M  V30 4480 H 422.626 3.21361 -3.78207 0
M  V30 4481 H 417.882 3.22338 -5.19527 0
M  V30 4482 H 422.056 3.20543 -6.18244 0
M  V30 4483 H 419.683 3.20575 -6.89301 0
M  V30 4484 N 421.258 1.00505 1.21394 0
M  V30 4485 C 422.19 0.52372 2.23136 0
M  V30 4486 C 423.203 -0.387714 1.58116 0
M  V30 4487 O 424.392 -0.187905 1.77508 0
M  V30 4488 C 421.492 -0.258885 3.3791 0
M  V30 4489 C 420.665 0.651634 4.32519 0
M  V30 4490 C 419.724 -0.0813705 5.26137 0
M  V30 4491 O 418.75 0.537295 5.66658 0
M  V30 4492 N 419.952 -1.35992 5.64346 0
M  V30 4493 H 422.717 1.39865 2.65062 0
M  V30 4494 H 420.278 0.881196 1.35818 0
M  V30 4495 H 422.27 -0.758208 3.97534 0
M  V30 4496 H 420.84 -1.035 2.94968 0
M  V30 4497 H 420.06 1.33145 3.71034 0
M  V30 4498 H 421.348 1.27129 4.92662 0
M  V30 4499 H 420.746 -1.88368 5.33417 0
M  V30 4500 H 419.303 -1.8042 6.26332 0
M  V30 4501 N 422.737 -1.36956 0.779787 0
M  V30 4502 C 423.967 -2.03459 0.358877 0
M  V30 4503 C 424.375 -1.58939 -1.02641 0
M  V30 4504 O 423.718 -0.769777 -1.66794 0
M  V30 4505 C 423.78 -3.5796 0.332393 0
M  V30 4506 C 423.444 -4.25644 1.66362 0
M  V30 4507 C 424.441 -4.49205 2.61746 0
M  V30 4508 C 422.126 -4.63313 1.94027 0
M  V30 4509 C 424.12 -5.09503 3.82996 0
M  V30 4510 C 421.807 -5.2333 3.15546 0
M  V30 4511 C 422.805 -5.46363 4.0985 0
M  V30 4512 O 422.493 -6.05122 5.29228 0
M  V30 4513 H 422.225 -0.659767 0.147254 0
M  V30 4514 H 424.779 -1.76111 1.05708 0
M  V30 4515 H 423.009 -3.84388 -0.422237 0
M  V30 4516 H 424.698 -4.05852 -0.0625389 0
M  V30 4517 H 425.464 -4.20508 2.41657 0
M  V30 4518 H 421.343 -4.44715 1.21448 0
M  V30 4519 H 424.887 -5.27397 4.56617 0
M  V30 4520 H 420.784 -5.51451 3.35517 0
M  V30 4521 H 421.552 -6.23595 5.30161 0
M  V30 4522 N 424.215 -0.530993 -1.48385 0
M  V30 4523 C 425.125 0.23503 -2.3342 0
M  V30 4524 C 426.141 0.93801 -1.46552 0
M  V30 4525 O 427.317 0.912745 -1.7953 0
M  V30 4526 C 424.382 1.26778 -3.22689 0
M  V30 4527 C 423.443 0.575038 -4.25431 0
M  V30 4528 C 422.676 1.55858 -5.10435 0
M  V30 4529 O 422.899 2.79129 -4.97437 0
M  V30 4530 O 421.833 1.09742 -5.91811 0
M  V30 4531 H 425.659 -0.461794 -3.00169 0
M  V30 4532 H 423.244 -0.291903 -1.46521 0
M  V30 4533 H 425.126 1.86457 -3.77904 0
M  V30 4534 H 423.801 1.94699 -2.586 0
M  V30 4535 H 422.708 -0.0622782 -3.74048 0
M  V30 4536 H 424.041 -0.062253 -4.92161 0
M  V30 4537 N 425.693 1.55336 -0.266172 0
M  V30 4538 C 426.623 2.25146 0.618981 0
M  V30 4539 C 427.604 1.23845 1.16604 0
M  V30 4540 O 428.789 1.52544 1.20183 0
M  V30 4541 C 425.919 2.96572 1.80728 0
M  V30 4542 C 424.873 4.04726 1.39215 0
M  V30 4543 C 424.199 4.63678 2.66283 0
M  V30 4544 C 425.499 5.19407 0.548942 0
M  V30 4545 H 427.193 2.99377 0.0368116 0
M  V30 4546 H 424.739 1.43991 0.0162651 0
M  V30 4547 H 426.692 3.44116 2.43232 0
M  V30 4548 H 425.416 2.19861 2.41514 0
M  V30 4549 H 424.075 3.57979 0.790351 0
M  V30 4550 H 423.723 3.83646 3.25308 0
M  V30 4551 H 423.423 5.367 2.39222 0
M  V30 4552 H 424.947 5.13967 3.29651 0
M  V30 4553 H 426.361 5.63059 1.07876 0
M  V30 4554 H 424.758 5.98936 0.373593 0
M  V30 4555 H 425.828 4.8295 -0.434394 0
M  V30 4556 N 427.171 -0.0066808 1.57599 0
M  V30 4557 C 428.401 -0.703066 1.94269 0
M  V30 4558 C 428.809 -1.68206 0.866222 0
M  V30 4559 O 428.152 -1.82966 -0.164087 0
M  V30 4560 C 428.214 -1.49616 3.26887 0
M  V30 4561 C 427.878 -0.679494 4.5192 0
M  V30 4562 C 428.875 0.0299508 5.19891 0
M  V30 4563 C 426.56 -0.627433 4.98366 0
M  V30 4564 C 428.554 0.780514 6.32603 0
M  V30 4565 C 426.241 0.126861 6.10968 0
M  V30 4566 C 427.239 0.829574 6.77943 0
M  V30 4567 O 426.927 1.57157 7.88389 0
M  V30 4568 H 426.659 -0.201217 0.645359 0
M  V30 4569 H 429.213 0.0385326 2.05364 0
M  V30 4570 H 427.443 -2.28209 3.12182 0
M  V30 4571 H 429.132 -2.07726 3.48719 0
M  V30 4572 H 429.898 -0.00115963 4.85 0
M  V30 4573 H 425.777 -1.16392 4.46065 0
M  V30 4574 H 429.321 1.32954 6.84813 0
M  V30 4575 H 425.218 0.159815 6.45302 0
M  V30 4576 H 425.986 1.48758 8.04868 0
M  V30 4577 N 428.649 -1.55105 -0.279332 0
M  V30 4578 C 429.597 -1.88333 -1.36505 0
M  V30 4579 C 430.591 -0.759043 -1.51443 0
M  V30 4580 O 431.797 -0.943312 -1.53302 0
M  V30 4581 H 428.172 -0.59766 -0.456406 0
M  V30 4582 H 430.143 -2.79041 -1.05728 0
M  V30 4583 C 428.892 -2.16628 -2.7197 0
M  V30 4584 H 428.215 -3.02624 -2.61264 0
M  V30 4585 H 429.655 -2.43803 -3.46895 0
M  V30 4586 C 428.114 -0.971807 -3.22579 0
M  V30 4587 O 428.644 -0.203228 -4.01186 0
M  V30 4588 N 426.85 -0.771238 -2.80179 0
M  V30 4589 H 426.397 -1.39792 -2.1637 0
M  V30 4590 H 426.355 0.0263667 -3.14389 0
M  V30 4591 N 430.127 0.543554 -1.4793 0
M  V30 4592 C 431.538 1.12561 -1.48953 0
M  V30 4593 C 431.889 1.94578 -0.251754 0
M  V30 4594 O 431.014 2.0665 0.642255 0
M  V30 4595 C 431.609 2.04801 -2.69892 0
M  V30 4596 C 430.168 2.58251 -2.73831 0
M  V30 4597 C 429.315 1.34918 -2.42265 0
M  V30 4598 H 432.266 0.32947 -1.55242 0
M  V30 4599 H 432.287 2.88886 -2.47639 0
M  V30 4600 H 431.799 1.4508 -3.59963 0
M  V30 4601 H 429.9 3.21732 -1.87934 0
M  V30 4602 H 430.013 2.98312 -3.74895 0
M  V30 4603 H 428.377 1.66046 -1.93134 0
M  V30 4604 H 429.16 0.769693 -3.3456 0
M  V30 4605 N 431.605 1.3629 0.791371 0
M  V30 4606 C 432.538 1.24816 1.9104 0
M  V30 4607 C 433.516 0.132739 1.62057 0
M  V30 4608 O 434.7 0.303527 1.8604 0
M  V30 4609 C 431.827 0.925355 3.25814 0
M  V30 4610 C 430.873 2.05495 3.7373 0
M  V30 4611 S 431.706 3.67255 3.89723 0
M  V30 4612 C 432.862 3.37084 5.27376 0
M  V30 4613 H 433.095 2.19533 2.00481 0
M  V30 4614 H 430.628 1.21684 0.950393 0
M  V30 4615 H 432.586 0.745924 4.03666 0
M  V30 4616 H 431.247 -0.00400098 3.141 0
M  V30 4617 H 430.44 1.7836 4.71385 0
M  V30 4618 H 430.042 2.1935 3.02922 0
M  V30 4619 H 432.334 2.90856 6.1189 0
M  V30 4620 H 433.277 4.33995 5.59512 0
M  V30 4621 H 433.685 2.7248 4.94383 0
M  V30 4622 N 433.083 -1.0153 1.20538 0
M  V30 4623 C 434.046 -2.0826 0.957098 0
M  V30 4624 C 435.046 -1.60657 -0.0678655 0
M  V30 4625 O 436.236 -1.73385 0.168332 0
M  V30 4626 C 433.368 -3.38033 0.441188 0
M  V30 4627 H 434.561 -2.31719 1.90384 0
M  V30 4628 H 432.114 -1.1835 1.02093 0
M  V30 4629 H 432.849 -3.20249 -0.510961 0
M  V30 4630 H 432.634 -3.73911 1.18038 0
M  V30 4631 H 434.124 -4.16613 0.287009 0
M  V30 4632 N 434.561 -1.01147 -1.20859 0
M  V30 4633 C 435.491 -0.597663 -2.25722 0
M  V30 4634 C 436.472 0.384744 -1.65692 0
M  V30 4635 O 437.657 0.271303 -1.92296 0
M  V30 4636 C 434.787 0.0700149 -3.47229 0
M  V30 4637 C 433.741 -0.832843 -4.19819 0
M  V30 4638 C 433.067 -0.0312202 -5.34691 0
M  V30 4639 C 434.367 -2.1385 -4.76514 0
M  V30 4640 H 436.061 -1.47423 -2.60589 0
M  V30 4641 H 433.607 -0.710301 -1.25263 0
M  V30 4642 H 435.56 0.37103 -4.19763 0
M  V30 4643 H 434.284 0.981259 -3.11511 0
M  V30 4644 H 432.943 -1.11778 -3.49144 0
M  V30 4645 H 432.591 0.881515 -4.95215 0
M  V30 4646 H 432.291 -0.632434 -5.84187 0
M  V30 4647 H 433.815 0.26346 -6.10031 0
M  V30 4648 H 435.229 -1.9002 -5.40893 0
M  V30 4649 H 433.626 -2.69012 -5.36426 0
M  V30 4650 H 434.696 -2.80495 -3.95538 0
M  V30 4651 N 436.039 1.36541 -0.78704 0
M  V30 4652 C 437.269 2.03266 -0.369662 0
M  V30 4653 C 437.677 1.59481 1.01796 0
M  V30 4654 O 437.02 0.778612 1.66383 0
M  V30 4655 C 437.082 3.57779 -0.351371 0
M  V30 4656 C 436.746 4.24756 -1.68617 0
M  V30 4657 C 437.743 4.47811 -2.64124 0
M  V30 4658 C 435.428 4.62277 -1.96481 0
M  V30 4659 C 437.422 5.07464 -3.85693 0
M  V30 4660 C 435.109 5.21649 -3.18317 0
M  V30 4661 C 436.107 5.44182 -4.12741 0
M  V30 4662 O 435.795 6.02307 -5.32429 0
M  V30 4663 H 435.527 0.658977 -0.150751 0
M  V30 4664 H 438.081 1.75548 -1.0664 0
M  V30 4665 H 436.311 3.84606 0.401847 0
M  V30 4666 H 438 4.05879 0.0410147 0
M  V30 4667 H 438.766 4.19221 -2.43883 0
M  V30 4668 H 434.645 4.44065 -1.23805 0
M  V30 4669 H 438.189 5.24968 -4.59407 0
M  V30 4670 H 434.086 5.49664 -3.38437 0
M  V30 4671 H 434.854 6.20775 -5.33461 0
M  V30 4672 N 437.518 0.538854 1.48102 0
M  V30 4673 C 438.766 0.00798599 2.02098 0
M  V30 4674 C 439.087 -1.33922 1.41739 0
M  V30 4675 O 438.357 -1.86932 0.585934 0
M  V30 4676 H 436.937 -3.62179e-05 0.747 0
M  V30 4677 H 439.599 0.7047 1.81714 0
M  V30 4678 H 438.695 -0.0937672 3.11959 0
M  V30 4679 N 438.996 -1.55193 0.274407 0
M  V30 4680 C 440.221 -2.04446 -0.348824 0
M  V30 4681 C 440.646 -1.15149 -1.48735 0
M  V30 4682 O 440.004 -0.149952 -1.80679 0
M  V30 4683 C 440.052 -3.51431 -0.808009 0
M  V30 4684 O 439.156 -3.65225 -1.91531 0
M  V30 4685 H 438.497 -0.66006 -0.0722276 0
M  V30 4686 H 441.027 -2.00481 0.408498 0
M  V30 4687 H 441.037 -3.92781 -1.10395 0
M  V30 4688 H 439.712 -4.15892 0.0249865 0
M  V30 4689 H 438.289 -3.35778 -1.62196 0
M  V30 4690 N 440.474 -0.00167713 -1.576 0
M  V30 4691 C 441.72 0.683832 -1.90923 0
M  V30 4692 C 442.053 1.7333 -0.875799 0
M  V30 4693 O 441.328 1.94215 0.10525 0
M  V30 4694 C 441.611 1.32543 -3.3482 0
M  V30 4695 C 441.464 0.287387 -4.48881 0
M  V30 4696 C 442.783 2.25114 -3.78169 0
M  V30 4697 H 439.902 0.247125 -0.694333 0
M  V30 4698 H 442.544 -0.0533149 -1.89925 0
M  V30 4699 H 440.694 1.95372 -3.35801 0
M  V30 4700 H 442.366 -0.341346 -4.60035 0
M  V30 4701 H 440.609 -0.39017 -4.32042 0
M  V30 4702 H 441.28 0.775393 -5.46527 0
M  V30 4703 H 443.756 1.723 -3.7875 0
M  V30 4704 H 442.632 2.66971 -4.79602 0
M  V30 4705 H 442.893 3.13092 -3.12131 0
M  V30 4706 N 441.952 1.55251 0.271103 0
M  V30 4707 C 443.363 1.66635 0.842007 0
M  V30 4708 C 443.714 0.594631 1.86972 0
M  V30 4709 O 442.839 -0.263532 2.14789 0
M  V30 4710 C 443.434 3.02082 1.53401 0
M  V30 4711 C 441.993 3.15487 2.05293 0
M  V30 4712 C 441.14 2.62438 0.895631 0
M  V30 4713 H 444.091 1.58629 0.0474117 0
M  V30 4714 H 444.112 2.95176 2.40107 0
M  V30 4715 H 443.624 3.80062 0.785786 0
M  V30 4716 H 441.725 2.42284 2.83071 0
M  V30 4717 H 441.838 4.22075 2.26693 0
M  V30 4718 H 440.202 2.19644 1.28953 0
M  V30 4719 H 440.985 3.42923 0.160878 0
M  V30 4720 N 443.43 -0.535701 1.48216 0
M  V30 4721 C 444.676 -1.29375 1.56173 0
M  V30 4722 C 445.009 -1.92804 0.232429 0
M  V30 4723 O 444.284 -1.78992 -0.761048 0
M  V30 4724 C 444.567 -2.38747 2.69577 0
M  V30 4725 C 444.42 -1.80046 4.12193 0
M  V30 4726 C 445.739 -3.40551 2.78771 0
M  V30 4727 H 442.858 -0.469027 0.568491 0
M  V30 4728 H 445.5 -0.597358 1.80365 0
M  V30 4729 H 443.65 -2.98147 2.4908 0
M  V30 4730 H 445.322 -1.24742 4.44114 0
M  V30 4731 H 443.565 -1.10609 4.19462 0
M  V30 4732 H 444.236 -2.59212 4.87353 0
M  V30 4733 H 446.712 -2.91099 2.97322 0
M  V30 4734 H 445.588 -4.1448 3.59857 0
M  V30 4735 H 445.849 -4.00746 1.86696 0
M  V30 4736 N 444.908 -1.36708 -0.784132 0
M  V30 4737 C 445.838 -1.34153 -1.91116 0
M  V30 4738 C 446.819 -0.212121 -1.68772 0
M  V30 4739 O 448.004 -0.410581 -1.8981 0
M  V30 4740 C 445.134 -1.13535 -3.28218 0
M  V30 4741 C 444.088 -2.23356 -3.65097 0
M  V30 4742 C 443.414 -1.87875 -5.00607 0
M  V30 4743 C 444.714 -3.65473 -3.73131 0
M  V30 4744 H 446.408 -2.28459 -1.93512 0
M  V30 4745 H 443.954 -1.09973 -0.929618 0
M  V30 4746 H 445.907 -1.10381 -4.06687 0
M  V30 4747 H 444.631 -0.156804 -3.26223 0
M  V30 4748 H 443.29 -2.25645 -2.88929 0
M  V30 4749 H 442.938 -0.885814 -4.95139 0
M  V30 4750 H 442.638 -2.61406 -5.26252 0
M  V30 4751 H 444.162 -1.86286 -5.81489 0
M  V30 4752 H 445.576 -3.65382 -4.41779 0
M  V30 4753 H 443.973 -4.37953 -4.10265 0
M  V30 4754 H 445.043 -3.99995 -2.74102 0
M  V30 4755 N 446.386 1.0089 -1.21074 0
M  V30 4756 C 447.316 2.1145 -0.990523 0
M  V30 4757 C 448.297 1.69897 0.0831699 0
M  V30 4758 O 449.482 1.94052 -0.0758853 0
M  V30 4759 C 446.612 3.42914 -0.550177 0
M  V30 4760 C 445.566 3.98244 -1.56799 0
M  V30 4761 C 444.892 5.25568 -0.984013 0
M  V30 4762 C 446.192 4.30752 -2.95381 0
M  V30 4763 H 447.886 2.3013 -1.91521 0
M  V30 4764 H 445.432 1.10592 -0.92225 0
M  V30 4765 H 447.385 4.19653 -0.383305 0
M  V30 4766 H 446.109 3.24014 0.41015 0
M  V30 4767 H 444.768 3.23621 -1.72236 0
M  V30 4768 H 444.416 5.02998 -0.0155216 0
M  V30 4769 H 444.116 5.63551 -1.66384 0
M  V30 4770 H 445.64 6.04955 -0.828378 0
M  V30 4771 H 447.054 4.98349 -2.8341 0
M  V30 4772 H 445.451 4.79869 -3.60341 0
M  V30 4773 H 446.521 3.39192 -3.46521 0
M  V30 4774 N 447.864 1.01787 1.20321 0
M  V30 4775 C 448.827 0.593972 2.2137 0
M  V30 4776 C 449.827 -0.336553 1.57239 0
M  V30 4777 O 451.017 -0.125069 1.7375 0
M  V30 4778 C 448.149 -0.132433 3.40643 0
M  V30 4779 H 449.342 1.48791 2.60387 0
M  V30 4780 H 446.895 0.807803 1.33807 0
M  V30 4781 H 447.63 -1.04123 3.0713 0
M  V30 4782 H 447.415 0.53605 3.88418 0
M  V30 4783 H 448.905 -0.416314 4.1552 0
M  V30 4784 N 449.342 -1.36122 0.79427 0
M  V30 4785 C 450.292 -2.27373 0.169017 0
M  V30 4786 C 451.276 -1.4719 -0.649913 0
M  V30 4787 O 452.468 -1.69518 -0.50919 0
M  V30 4788 C 449.597 -3.36264 -0.691455 0
M  V30 4789 C 448.683 -4.2388 0.13653 0
M  V30 4790 N 449.074 -4.91519 1.19345 0
M  V30 4791 C 447.372 -4.45921 -0.0838499 0
M  V30 4792 C 448.073 -5.56369 1.6979 0
M  V30 4793 N 447.049 -5.34204 1.00634 0
M  V30 4794 H 450.851 -2.77154 0.977897 0
M  V30 4795 H 448.365 -1.49504 0.634208 0
M  V30 4796 H 450.362 -4.00572 -1.15534 0
M  V30 4797 H 449.022 -2.88037 -1.49883 0
M  V30 4798 H 450.033 -4.9334 1.57594 0
M  V30 4799 H 446.71 -4.08518 -0.861341 0
M  V30 4800 H 448.1 -6.20368 2.58055 0
M  V30 4801 N 450.82 -0.546701 -1.47814 0
M  V30 4802 C 451.768 0.220048 -2.31557 0
M  V30 4803 C 452.762 0.919472 -1.42275 0
M  V30 4804 O 453.968 0.841953 -1.59095 0
M  V30 4805 H 450.343 0.0898334 -0.746615 0
M  V30 4806 H 452.314 -0.505589 -2.94086 0
M  V30 4807 C 451.063 1.24353 -3.24702 0
M  V30 4808 H 450.386 0.714758 -3.93359 0
M  V30 4809 H 451.826 1.75112 -3.8615 0
M  V30 4810 C 450.285 2.28593 -2.47481 0
M  V30 4811 O 450.815 3.35334 -2.21165 0
M  V30 4812 N 449.021 2.02244 -2.08676 0
M  V30 4813 H 448.568 1.15455 -2.30278 0
M  V30 4814 H 448.526 2.72207 -1.57323 0
M  V30 4815 N 452.299 1.55045 -0.282633 0
M  V30 4816 C 453.71 1.85473 0.213655 0
M  V30 4817 C 454.061 1.20465 1.54863 0
M  V30 4818 O 453.186 0.495676 2.10647 0
M  V30 4819 C 453.781 3.36496 0.394445 0
M  V30 4820 C 452.34 3.67022 0.834961 0
M  V30 4821 C 451.487 2.77218 -0.0674081 0
M  V30 4822 H 454.438 1.50478 -0.504202 0
M  V30 4823 H 454.459 3.60007 1.23186 0
M  V30 4824 H 453.971 3.83782 -0.577326 0
M  V30 4825 H 452.072 3.25241 1.81794 0
M  V30 4826 H 452.185 4.74433 0.667075 0
M  V30 4827 H 450.549 2.5069 0.450196 0
M  V30 4828 H 451.332 3.2732 -1.0352 0
M  V30 4829 N 453.777 0.010035 1.57597 0
M  V30 4830 C 454.727 -0.986858 2.05536 0
M  V30 4831 C 455.711 -1.29711 0.952042 0
M  V30 4832 O 456.903 -1.28641 1.21575 0
M  V30 4833 C 454.032 -2.2756 2.57043 0
M  V30 4834 C 453.118 -1.99455 3.74271 0
M  V30 4835 N 453.509 -1.41546 4.85591 0
M  V30 4836 C 451.807 -2.29547 3.82393 0
M  V30 4837 C 452.508 -1.3014 5.66956 0
M  V30 4838 N 451.484 -1.79044 5.13268 0
M  V30 4839 H 455.286 -0.533778 2.89012 0
M  V30 4840 H 452.8 -0.195432 1.6122 0
M  V30 4841 H 454.797 -2.99829 2.89669 0
M  V30 4842 H 453.457 -2.73512 1.7499 0
M  V30 4843 H 454.468 -1.09294 5.06236 0
M  V30 4844 H 451.145 -2.78304 3.11213 0
M  V30 4845 H 452.535 -0.855237 6.66435 0
M  V30 4846 N 455.255 -1.55392 -0.262866 0
M  V30 4847 C 456.671 -1.47459 -0.610582 0
M  V30 4848 C 456.871 -0.697031 -1.8906 0
M  V30 4849 O 455.927 -0.219952 -2.5154 0
M  V30 4850 C 457.24 -2.91751 -0.728131 0
M  V30 4851 C 458.788 -3.02027 -0.821517 0
M  V30 4852 C 459.263 -4.47594 -0.97076 0
M  V30 4853 N 460.754 -4.51465 -1.03603 0
M  V30 4854 C 461.489 -5.61326 -1.17049 0
M  V30 4855 N 460.985 -6.81032 -1.2715 0
M  V30 4856 N 462.778 -5.49089 -1.20239 0
M  V30 4857 H 454.929 -2.04395 0.577632 0
M  V30 4858 H 457.192 -0.927287 0.197086 0
M  V30 4859 H 456.898 -3.51413 0.142132 0
M  V30 4860 H 456.772 -3.4134 -1.6052 0
M  V30 4861 H 459.159 -2.42456 -1.68224 0
M  V30 4862 H 459.24 -2.55674 0.0803688 0
M  V30 4863 H 458.884 -5.07771 -0.114655 0
M  V30 4864 H 458.814 -4.91613 -1.88745 0
M  V30 4865 H 461.305 -3.6524 -0.96996 0
M  V30 4866 H 461.618 -7.60511 -1.37271 0
M  V30 4867 H 459.963 -6.83824 -1.24136 0
M  V30 4868 H 463.154 -4.54507 -1.11985 0
M  V30 4869 H 463.327 -6.34749 -1.30373 0
M  V30 4870 N 456.733 0.527833 -1.48498 0
M  V30 4871 C 458.01 1.28905 -1.47115 0
M  V30 4872 C 458.39 2.10297 -0.184007 0
M  V30 4873 O 457.738 2.12728 0.834218 0
M  V30 4874 C 457.948 2.16866 -2.73441 0
M  V30 4875 C 459.296 2.76936 -3.21857 0
M  V30 4876 O 460.32 2.27152 -2.74373 0
M  V30 4877 O 459.179 3.67496 -4.04486 0
M  V30 4878 H 456.273 0.581918 -0.587623 0
M  V30 4879 H 458.819 0.544311 -1.60734 0
M  V30 4880 H 457.591 1.56521 -3.58632 0
M  V30 4881 H 457.214 2.98583 -2.62553 0
M  V30 4882 N 458.211 1.37122 0.776871 0
M  V30 4883 C 459.141 1.35164 1.90402 0
M  V30 4884 C 460.122 0.221069 1.68657 0
M  V30 4885 O 461.307 0.420642 1.8959 0
M  V30 4886 C 458.437 1.15274 3.27611 0
M  V30 4887 C 457.391 2.25289 3.63908 0
M  V30 4888 C 456.717 1.90527 4.99603 0
M  V30 4889 C 458.017 3.67446 3.71188 0
M  V30 4890 H 459.711 2.29482 1.92297 0
M  V30 4891 H 457.257 1.10465 0.923773 0
M  V30 4892 H 459.21 1.12536 4.06096 0
M  V30 4893 H 457.934 0.174102 3.26136 0
M  V30 4894 H 456.593 2.27174 2.87728 0
M  V30 4895 H 456.241 0.91206 4.94662 0
M  V30 4896 H 455.941 2.64193 5.24858 0
M  V30 4897 H 457.465 1.89367 5.80493 0
M  V30 4898 H 458.879 3.67719 4.39836 0
M  V30 4899 H 457.276 4.40123 4.07936 0
M  V30 4900 H 458.346 4.01443 2.71977 0
M  V30 4901 N 459.689 -1.00246 1.21608 0
M  V30 4902 C 460.937 -1.73717 1.0328 0
M  V30 4903 C 461.258 -1.90102 -0.434318 0
M  V30 4904 O 460.528 -1.45376 -1.31311 0
M  V30 4905 H 459.108 -0.643613 0.379172 0
M  V30 4906 H 461.77 -1.20787 1.52959 0
M  V30 4907 H 460.866 -2.73535 1.50283 0
M  V30 4908 N 461.167 -1.02423 -1.1978 0
M  V30 4909 C 462.416 -0.713265 -1.88667 0
M  V30 4910 C 462.729 0.7609 -1.80193 0
M  V30 4911 O 463.935 1.18473 -2.44288 0
M  V30 4912 C 462.391 -1.22545 -3.38394 0
M  V30 4913 C 461.999 -2.72706 -3.55437 0
M  V30 4914 C 463.743 -0.990257 -4.12788 0
M  V30 4915 C 461.65 -3.17367 -4.99031 0
M  V30 4916 H 460.58 -0.263105 -0.706606 0
M  V30 4917 H 463.231 -1.23792 -1.35454 0
M  V30 4918 H 461.613 -0.628732 -3.90977 0
M  V30 4919 H 462.787 -3.37993 -3.13205 0
M  V30 4920 H 461.102 -2.94453 -2.94425 0
M  V30 4921 H 463.699 -1.29926 -5.18675 0
M  V30 4922 H 464.042 0.0730761 -4.16236 0
M  V30 4923 H 464.575 -1.55074 -3.66329 0
M  V30 4924 H 461.314 -4.23009 -5.00743 0
M  V30 4925 H 460.834 -2.56805 -5.42044 0
M  V30 4926 H 462.513 -3.10441 -5.67658 0
M  V30 4927 N 462.645 1.35699 -0.801477 0
M  V30 4928 C 463.892 1.98913 -0.379459 0
M  V30 4929 C 464.22 1.63592 1.05204 0
M  V30 4930 O 463.475 0.888563 1.74365 0
M  V30 4931 C 463.774 3.53828 -0.504041 0
M  V30 4932 C 463.44 4.09002 -1.8981 0
M  V30 4933 C 462.102 4.23783 -2.27951 0
M  V30 4934 C 464.454 4.38939 -2.81038 0
M  V30 4935 C 461.782 4.65816 -3.56696 0
M  V30 4936 C 464.134 4.82409 -4.09224 0
M  V30 4937 C 462.798 4.95395 -4.4737 0
M  V30 4938 H 462.068 0.727874 -0.138854 0
M  V30 4939 H 464.715 1.61994 -1.02128 0
M  V30 4940 H 463.02 3.91175 0.221242 0
M  V30 4941 H 464.717 4.00687 -0.158361 0
M  V30 4942 H 461.307 3.97946 -1.59176 0
M  V30 4943 H 465.491 4.27077 -2.52821 0
M  V30 4944 H 460.747 4.74059 -3.86106 0
M  V30 4945 H 464.921 5.04535 -4.80018 0
M  V30 4946 H 462.548 5.27724 -5.47185 0
M  V30 4947 N 464.123 0.554532 1.47522 0
M  V30 4948 C 465.369 0.0377449 2.03365 0
M  V30 4949 C 465.724 -1.29654 1.42154 0
M  V30 4950 O 465.017 -1.83022 0.566865 0
M  V30 4951 C 465.211 -0.115927 3.57212 0
M  V30 4952 C 465.04 1.20191 4.33341 0
M  V30 4953 C 463.81 1.76849 4.73342 0
M  V30 4954 C 466.008 2.11849 4.68641 0
M  V30 4955 N 463.99 3.02665 5.34104 0
M  V30 4956 C 465.361 3.22245 5.29677 0
M  V30 4957 C 467.416 2.11876 4.5057 0
M  V30 4958 C 466.119 4.32763 5.74551 0
M  V30 4959 C 468.145 3.21405 4.9644 0
M  V30 4960 C 467.507 4.30519 5.57523 0
M  V30 4961 H 463.606 0.0559107 0.779999 0
M  V30 4962 H 466.19 0.741232 1.80038 0
M  V30 4963 H 464.361 -0.788533 3.80311 0
M  V30 4964 H 466.093 -0.634538 3.99695 0
M  V30 4965 H 462.848 1.30681 4.55214 0
M  V30 4966 H 463.272 3.66788 5.69031 0
M  V30 4967 H 467.914 1.28801 4.02704 0
M  V30 4968 H 465.632 5.166 6.2141 0
M  V30 4969 H 469.218 3.22509 4.8423 0
M  V30 4970 H 468.098 5.13873 5.92371 0
M  V30 4971 N 465.601 -1.54893 0.290851 0
M  V30 4972 C 466.531 -2.26103 -0.583084 0
M  V30 4973 C 467.512 -1.25684 -1.14619 0
M  V30 4974 O 468.697 -1.54436 -1.17741 0
M  V30 4975 C 465.827 -2.99409 -1.75987 0
M  V30 4976 C 464.781 -4.0689 -1.32758 0
M  V30 4977 C 464.107 -4.67856 -2.58872 0
M  V30 4978 C 465.407 -5.20215 -0.46624 0
M  V30 4979 H 467.101 -2.99398 0.0108214 0
M  V30 4980 H 464.647 -1.43998 0.00664468 0
M  V30 4981 H 466.6 -3.47943 -2.37727 0
M  V30 4982 H 465.324 -2.23675 -2.37985 0
M  V30 4983 H 463.983 -3.59191 -0.733299 0
M  V30 4984 H 463.631 -3.88772 -3.19163 0
M  V30 4985 H 463.331 -5.40438 -2.30653 0
M  V30 4986 H 464.855 -5.19147 -3.21433 0
M  V30 4987 H 466.269 -5.64704 -0.989047 0
M  V30 4988 H 464.666 -5.99455 -0.27826 0
M  V30 4989 H 465.736 -4.82198 0.511173 0
M  V30 4990 N 467.08 -0.0183926 -1.57589 0
M  V30 4991 C 468.028 0.985111 -2.10709 0
M  V30 4992 C 469.022 1.34397 -1.0312 0
M  V30 4993 O 470.228 1.32746 -1.21567 0
M  V30 4994 H 466.603 0.335418 -0.673052 0
M  V30 4995 H 468.574 0.511689 -2.9398 0
M  V30 4996 C 467.323 2.26202 -2.64061 0
M  V30 4997 H 466.646 1.9946 -3.4649 0
M  V30 4998 H 468.086 2.94652 -3.04887 0
M  V30 4999 C 466.545 2.98444 -1.5631 0
M  V30 5000 O 467.075 3.90142 -0.956674 0
M  V30 5001 N 465.281 2.6059 -1.28612 0
M  V30 5002 H 464.828 1.86101 -1.78112 0
M  V30 5003 H 464.786 3.09238 -0.567406 0
M  V30 5004 N 468.558 1.5553 0.254621 0
M  V30 5005 C 469.521 1.88872 1.29846 0
M  V30 5006 C 470.521 0.764591 1.41459 0
M  V30 5007 O 471.711 1.03265 1.40293 0
M  V30 5008 C 468.843 2.11032 2.67728 0
M  V30 5009 H 470.036 2.82201 1.01502 0
M  V30 5010 H 467.589 1.48303 0.493556 0
M  V30 5011 H 468.324 1.20146 3.01223 0
M  V30 5012 H 468.109 2.92895 2.60682 0
M  V30 5013 H 469.599 2.38038 3.43115 0
M  V30 5014 N 470.036 -0.519951 1.48776 0
M  V30 5015 C 470.999 -1.60574 1.6355 0
M  V30 5016 C 471.999 -1.52557 0.508234 0
M  V30 5017 O 473.189 -1.56047 0.774262 0
M  V30 5018 C 470.321 -3.00211 1.61512 0
M  V30 5019 H 471.514 -1.4881 2.60376 0
M  V30 5020 H 469.067 -0.742772 1.37523 0
M  V30 5021 H 469.802 -3.17471 0.662009 0
M  V30 5022 H 469.587 -3.07439 2.43359 0
M  V30 5023 H 471.077 -3.79134 1.75064 0
M  V30 5024 N 471.514 -1.37532 -0.769588 0
M  V30 5025 C 472.424 -1.35668 -1.91393 0
M  V30 5026 C 473.44 -0.255954 -1.72107 0
M  V30 5027 O 474.616 -0.491704 -1.95305 0
M  V30 5028 C 471.681 -1.16481 -3.26547 0
M  V30 5029 C 470.742 -2.36212 -3.58472 0
M  V30 5030 C 469.975 -2.17932 -4.87177 0
M  V30 5031 O 470.198 -1.1647 -5.58382 0
M  V30 5032 O 469.132 -3.06167 -5.18214 0
M  V30 5033 H 472.958 -2.32055 -1.95918 0
M  V30 5034 H 470.543 -1.18284 -0.912641 0
M  V30 5035 H 472.425 -1.07778 -4.07384 0
M  V30 5036 H 471.1 -0.231687 -3.2287 0
M  V30 5037 H 470.007 -2.50488 -2.77861 0
M  V30 5038 H 471.34 -3.281 -3.66894 0
M  V30 5039 N 472.992 0.995999 -1.22138 0
M  V30 5040 C 474.22 1.77066 -1.07029 0
M  V30 5041 C 474.635 1.8495 0.379357 0
M  V30 5042 O 473.992 1.3174 1.26297 0
M  V30 5043 C 474.043 3.20533 -1.67155 0
M  V30 5044 O 473.764 3.13082 -3.06449 0
M  V30 5045 C 475.265 4.14461 -1.5728 0
M  V30 5046 H 472.485 0.556179 -0.375374 0
M  V30 5047 H 475.029 1.25238 -1.61666 0
M  V30 5048 H 473.184 3.6944 -1.16589 0
M  V30 5049 H 473.598 4.03283 -3.35355 0
M  V30 5050 H 475.072 5.1289 -2.04078 0
M  V30 5051 H 475.549 4.36005 -0.528795 0
M  V30 5052 H 476.155 3.71449 -2.07136 0
M  V30 5053 N 474.47 1.03057 1.19235 0
M  V30 5054 C 475.716 0.738841 1.89506 0
M  V30 5055 C 476.071 -0.724807 1.78225 0
M  V30 5056 O 475.364 -1.52118 1.16494 0
M  V30 5057 C 475.558 1.1268 3.39172 0
M  V30 5058 C 475.387 2.62662 3.65019 0
M  V30 5059 C 474.157 3.29658 3.82954 0
M  V30 5060 C 476.355 3.60873 3.66436 0
M  V30 5061 N 474.337 4.68726 3.96446 0
M  V30 5062 C 475.708 4.85566 3.8552 0
M  V30 5063 C 477.763 3.54647 3.49471 0
M  V30 5064 C 476.466 6.04783 3.89397 0
M  V30 5065 C 478.492 4.73281 3.54625 0
M  V30 5066 C 477.854 5.96789 3.74196 0
M  V30 5067 H 473.953 0.322256 0.712513 0
M  V30 5068 H 476.537 1.31822 1.43287 0
M  V30 5069 H 474.708 0.575612 3.84111 0
M  V30 5070 H 476.44 0.787145 3.96971 0
M  V30 5071 H 473.195 2.8007 3.81913 0
M  V30 5072 H 473.619 5.40971 4.07037 0
M  V30 5073 H 478.261 2.60143 3.33295 0
M  V30 5074 H 475.979 6.99654 4.04364 0
M  V30 5075 H 479.565 4.70094 3.42787 0
M  V30 5076 H 478.445 6.87051 3.78061 0
M  V30 5077 N 475.948 -1.35272 0.808662 0
M  V30 5078 C 477.194 -1.99003 0.390581 0
M  V30 5079 C 477.527 -1.63999 -1.0401 0
M  V30 5080 O 476.802 -0.904368 -1.72196 0
M  V30 5081 C 477.085 -3.55454 0.576566 0
M  V30 5082 C 476.938 -4.00249 2.05233 0
M  V30 5083 C 478.257 -4.401 0.00354277 0
M  V30 5084 H 475.376 -0.722917 0.143388 0
M  V30 5085 H 478.018 -1.6039 1.01858 0
M  V30 5086 H 476.168 -3.88477 0.0419766 0
M  V30 5087 H 477.84 -3.77626 2.64946 0
M  V30 5088 H 476.083 -3.51082 2.54801 0
M  V30 5089 H 476.754 -5.0911 2.13333 0
M  V30 5090 H 479.23 -4.13548 0.460117 0
M  V30 5091 H 478.106 -5.48656 0.163575 0
M  V30 5092 H 478.367 -4.28444 -1.09032 0
M  V30 5093 N 477.426 -0.562348 -1.47226 0
M  V30 5094 C 478.703 0.0256985 -1.95583 0
M  V30 5095 C 479.083 1.48032 -1.50498 0
M  V30 5096 O 478.431 2.15973 -0.746181 0
M  V30 5097 C 478.641 -0.125129 -3.48776 0
M  V30 5098 C 479.989 0.0175728 -4.24596 0
M  V30 5099 O 481.013 -0.0529341 -3.56161 0
M  V30 5100 O 479.872 0.170145 -5.46235 0
M  V30 5101 H 476.966 0.0612565 -0.824728 0
M  V30 5102 H 479.512 -0.629233 -1.57603 0
M  V30 5103 H 478.284 -1.13715 -3.74412 0
M  V30 5104 H 477.907 0.567178 -3.93534 0
M  V30 5105 N 478.904 1.54736 -0.299062 0
M  V30 5106 C 480.153 1.99279 0.311549 0
M  V30 5107 C 480.466 1.19107 1.55154 0
M  V30 5108 O 481.672 1.53908 2.23662 0
M  V30 5109 C 480.128 3.54768 0.605632 0
M  V30 5110 C 479.736 4.43746 -0.615914 0
M  V30 5111 C 481.48 4.07841 1.17754 0
M  V30 5112 C 479.387 5.90663 -0.29509 0
M  V30 5113 H 478.317 0.744359 0.120187 0
M  V30 5114 H 480.968 1.78919 -0.407464 0
M  V30 5115 H 479.35 3.71021 1.38419 0
M  V30 5116 H 480.524 4.39267 -1.39218 0
M  V30 5117 H 478.839 4.01434 -1.10633 0
M  V30 5118 H 481.436 5.15174 1.43179 0
M  V30 5119 H 481.779 3.58324 2.11918 0
M  V30 5120 H 482.312 3.95123 0.460739 0
M  V30 5121 H 479.051 6.44325 -1.20524 0
M  V30 5122 H 478.571 5.98155 0.44394 0
M  V30 5123 H 480.25 6.46916 0.104048 0
M  V30 5124 N 480.382 0.0267497 1.57577 0
M  V30 5125 C 481.607 -0.666227 1.96408 0
M  V30 5126 C 482.032 -1.65004 0.903071 0
M  V30 5127 O 481.39 -1.80787 -0.136263 0
M  V30 5128 C 481.438 -1.35101 3.34335 0
M  V30 5129 O 480.542 -2.46623 3.30531 0
M  V30 5130 H 479.883 -0.175206 0.640468 0
M  V30 5131 H 482.413 0.0878977 2.04411 0
M  V30 5132 H 482.423 -1.70834 3.70513 0
M  V30 5133 H 481.098 -0.629844 4.11103 0
M  V30 5134 H 479.675 -2.13019 3.06068 0
M  V30 5135 N 481.861 -1.55662 -0.24637 0
M  V30 5136 C 483.086 -1.81914 -0.996093 0
M  V30 5137 C 483.511 -0.603875 -1.78143 0
M  V30 5138 O 482.869 0.447091 -1.75701 0
M  V30 5139 C 482.917 -3.05908 -1.90925 0
M  V30 5140 O 482.021 -2.82861 -3.00105 0
M  V30 5141 H 481.362 -0.600481 -0.283406 0
M  V30 5142 H 483.892 -2.02848 -0.267199 0
M  V30 5143 H 483.902 -3.35356 -2.3238 0
M  V30 5144 H 482.577 -3.93999 -1.33183 0
M  V30 5145 H 481.154 -2.64583 -2.62775 0
M  V30 5146 N 483.339 0.512053 -1.4905 0
M  V30 5147 C 484.287 1.63568 -1.65373 0
M  V30 5148 C 485.281 1.61228 -0.519806 0
M  V30 5149 O 486.487 1.65869 -0.699101 0
M  V30 5150 H 482.862 0.542019 -0.521267 0
M  V30 5151 H 484.833 1.4695 -2.59708 0
M  V30 5152 C 483.582 3.01761 -1.7273 0
M  V30 5153 H 482.905 3.04263 -2.59353 0
M  V30 5154 H 484.345 3.79948 -1.8819 0
M  V30 5155 C 482.804 3.33609 -0.46973 0
M  V30 5156 O 483.334 3.99607 0.409492 0
M  V30 5157 N 481.54 2.88651 -0.336003 0
M  V30 5158 H 481.087 2.35119 -1.05247 0
M  V30 5159 H 481.045 3.10328 0.504363 0
M  V30 5160 N 484.817 1.37938 0.762283 0
M  V30 5161 C 486.045 1.36883 1.55147 0
M  V30 5162 C 486.46 -0.0435348 1.8875 0
M  V30 5163 O 485.817 -1.00786 1.52146 0
M  V30 5164 C 485.868 2.21624 2.85596 0
M  V30 5165 O 485.589 3.57358 2.5343 0
M  V30 5166 C 487.09 2.28653 3.7978 0
M  V30 5167 H 484.31 0.468521 0.480343 0
M  V30 5168 H 486.854 1.81404 0.944079 0
M  V30 5169 H 485.009 1.80588 3.42734 0
M  V30 5170 H 485.423 4.01883 3.37032 0
M  V30 5171 H 486.897 2.9225 4.68288 0
M  V30 5172 H 487.374 1.29767 4.19592 0
M  V30 5173 H 487.98 2.70043 3.28568 0
M  V30 5174 N 486.295 -0.989507 1.22664 0
M  V30 5175 C 487.258 -2.06183 1.00106 0
M  V30 5176 C 488.258 -1.60765 -0.0337726 0
M  V30 5177 O 489.448 -1.72989 0.205072 0
M  V30 5178 C 486.58 -3.37021 0.51279 0
M  V30 5179 H 487.773 -2.27629 1.95256 0
M  V30 5180 H 485.326 -1.16158 1.0458 0
M  V30 5181 H 486.061 -3.21261 -0.442917 0
M  V30 5182 H 485.846 -3.71323 1.25942 0
M  V30 5183 H 487.336 -4.1591 0.375315 0
M  V30 5184 N 487.773 -1.03688 -1.18687 0
M  V30 5185 C 489.021 -0.736572 -1.88199 0
M  V30 5186 C 489.342 0.737665 -1.80509 0
M  V30 5187 O 488.612 1.53204 -1.22088 0
M  V30 5188 H 487.192 -0.269466 -0.696704 0
M  V30 5189 H 489.854 -1.31282 -1.44052 0
M  V30 5190 H 488.95 -1.03802 -2.94332 0
M  V30 5191 N 489.251 1.34841 -0.815825 0
M  V30 5192 C 490.198 2.29644 -0.230664 0
M  V30 5193 C 491.168 1.53253 0.640533 0
M  V30 5194 O 492.353 1.81653 0.583672 0
M  V30 5195 C 489.493 3.39715 0.607275 0
M  V30 5196 C 488.606 4.31056 -0.28538 0
M  V30 5197 C 487.741 5.28225 0.561446 0
M  V30 5198 C 486.78 6.11204 -0.331035 0
M  V30 5199 N 485.917 7.00483 0.476302 0
M  V30 5200 H 490.757 2.79095 -1.0445 0
M  V30 5201 H 488.294 1.37351 -0.526595 0
M  V30 5202 H 490.252 4.02208 1.10835 0
M  V30 5203 H 488.882 2.91517 1.38629 0
M  V30 5204 H 487.934 3.69487 -0.904621 0
M  V30 5205 H 489.246 4.89239 -0.97193 0
M  V30 5206 H 488.4 5.96135 1.12728 0
M  V30 5207 H 487.139 4.70562 1.28153 0
M  V30 5208 H 486.144 5.42232 -0.909069 0
M  V30 5209 H 487.369 6.70947 -1.04912 0
M  V30 5210 H 485.315 6.45296 1.18019 0
M  V30 5211 H 485.232 7.55847 -0.152008 0
M  V30 5212 H 486.5 7.7273 1.02512 0
M  V30 5213 N 490.729 0.570148 1.46925 0
M  V30 5214 C 491.957 0.0561966 2.06824 0
M  V30 5215 C 492.372 -1.24326 1.42086 0
M  V30 5216 O 491.729 -1.74882 0.521794 0
M  V30 5217 C 491.78 -0.129517 3.61268 0
M  V30 5218 O 491.501 1.1185 4.23581 0
M  V30 5219 C 493.002 -0.679266 4.38065 0
M  V30 5220 H 490.222 0.0517261 0.669003 0
M  V30 5221 H 492.766 0.787243 1.8874 0
M  V30 5222 H 490.921 -0.810739 3.78822 0
M  V30 5223 H 491.335 0.924375 5.1629 0
M  V30 5224 H 492.809 -0.758445 5.46765 0
M  V30 5225 H 493.286 -1.69346 4.05239 0
M  V30 5226 H 493.892 -0.0333237 4.25287 0
M  V30 5227 N 492.207 -1.54576 0.307264 0
M  V30 5228 C 493.137 -2.26708 -0.55907 0
M  V30 5229 C 494.118 -1.26893 -1.1328 0
M  V30 5230 O 495.303 -1.55677 -1.16097 0
M  V30 5231 C 492.433 -3.01259 -1.72801 0
M  V30 5232 C 491.387 -4.08275 -1.28435 0
M  V30 5233 C 490.713 -4.70575 -2.53895 0
M  V30 5234 C 492.013 -5.2068 -0.411038 0
M  V30 5235 H 493.707 -2.9937 0.042576 0
M  V30 5236 H 491.253 -1.43983 0.0219173 0
M  V30 5237 H 493.206 -3.50444 -2.34023 0
M  V30 5238 H 491.93 -2.26187 -2.356 0
M  V30 5239 H 490.589 -3.59949 -0.695161 0
M  V30 5240 H 490.237 -3.92136 -3.15021 0
M  V30 5241 H 489.937 -5.42854 -2.24908 0
M  V30 5242 H 491.461 -5.22527 -3.15908 0
M  V30 5243 H 492.875 -5.65721 -0.929097 0
M  V30 5244 H 491.272 -5.99716 -0.214664 0
M  V30 5245 H 492.342 -4.81629 0.562287 0
M  V30 5246 N 493.685 -0.035106 -1.57561 0
M  V30 5247 C 494.932 0.642229 -1.92046 0
M  V30 5248 C 495.26 1.7179 -0.91206 0
M  V30 5249 O 494.515 1.95544 0.0781153 0
M  V30 5250 C 494.814 1.29149 -3.3325 0
M  V30 5251 C 494.48 0.345604 -4.49574 0
M  V30 5252 C 493.142 0.0852775 -4.81124 0
M  V30 5253 C 495.494 -0.303569 -5.20315 0
M  V30 5254 C 492.822 -0.831927 -5.80772 0
M  V30 5255 C 495.174 -1.20886 -6.20942 0
M  V30 5256 C 493.838 -1.47802 -6.50931 0
M  V30 5257 H 493.108 0.235008 -0.702746 0
M  V30 5258 H 495.755 -0.0981529 -1.91248 0
M  V30 5259 H 494.06 2.10676 -3.30337 0
M  V30 5260 H 495.757 1.82223 -3.57205 0
M  V30 5261 H 492.347 0.558683 -4.24943 0
M  V30 5262 H 496.531 -0.115515 -4.96166 0
M  V30 5263 H 491.787 -1.0481 -6.02349 0
M  V30 5264 H 495.961 -1.71804 -6.74875 0
M  V30 5265 H 493.588 -2.19039 -7.2796 0
M  V30 5266 N 495.163 1.55791 0.238111 0
M  V30 5267 C 496.411 1.77681 0.963001 0
M  V30 5268 C 496.732 0.600674 1.85518 0
M  V30 5269 O 496.002 -0.383182 1.92116 0
M  V30 5270 H 494.582 0.655315 0.358568 0
M  V30 5271 H 497.244 1.93239 0.253945 0
M  V30 5272 H 496.34 2.69177 1.57956 0
M  V30 5273 N 496.642 -0.504142 1.49319 0
M  V30 5274 C 497.589 -1.60603 1.65756 0
M  V30 5275 C 498.559 -1.58425 0.499082 0
M  V30 5276 O 499.744 -1.76459 0.725728 0
M  V30 5277 C 496.884 -2.98764 1.72726 0
M  V30 5278 C 495.997 -3.10982 2.99857 0
M  V30 5279 C 495.132 -4.39857 2.97824 0
M  V30 5280 C 494.171 -4.45697 4.19548 0
M  V30 5281 N 493.308 -5.65995 4.15444 0
M  V30 5282 H 498.148 -1.45895 2.59843 0
M  V30 5283 H 495.685 -0.709891 1.28837 0
M  V30 5284 H 497.643 -3.78839 1.74747 0
M  V30 5285 H 496.273 -3.12183 0.821075 0
M  V30 5286 H 495.325 -2.23991 3.07461 0
M  V30 5287 H 496.637 -3.11157 3.89849 0
M  V30 5288 H 495.791 -5.2825 2.98391 0
M  V30 5289 H 494.53 -4.42242 2.05604 0
M  V30 5290 H 493.535 -3.55707 4.19229 0
M  V30 5291 H 494.76 -4.4503 5.12957 0
M  V30 5292 H 492.706 -5.69229 3.26059 0
M  V30 5293 H 492.623 -5.67773 4.99169 0
M  V30 5294 H 493.891 -6.56604 4.20109 0
M  V30 5295 N 498.12 -1.38341 -0.754957 0
M  V30 5296 C 499.053 -1.29837 -1.87663 0
M  V30 5297 C 500.031 -0.175659 -1.61648 0
M  V30 5298 O 501.215 -0.352745 -1.8517 0
M  V30 5299 C 498.342 -1.01141 -3.23246 0
M  V30 5300 C 497.388 -2.15331 -3.6815 0
M  V30 5301 S 498.221 -3.77459 -3.79849 0
M  V30 5302 C 499.377 -3.50948 -5.18253 0
M  V30 5303 H 499.61 -2.24771 -1.9459 0
M  V30 5304 H 497.143 -1.24161 -0.917796 0
M  V30 5305 H 499.101 -0.852687 -4.01546 0
M  V30 5306 H 497.762 -0.0792784 -3.14 0
M  V30 5307 H 496.955 -1.90795 -4.6649 0
M  V30 5308 H 496.557 -2.27304 -2.97 0
M  V30 5309 H 498.849 -3.06977 -6.03963 0
M  V30 5310 H 499.792 -4.48677 -5.47809 0
M  V30 5311 H 500.2 -2.85492 -4.86985 0
M  V30 5312 N 499.598 0.982988 -1.23187 0
M  V30 5313 C 500.531 2.07302 -0.953993 0
M  V30 5314 C 501.509 1.62249 0.106753 0
M  V30 5315 O 502.693 1.88481 -0.0269525 0
M  V30 5316 C 499.82 3.35873 -0.436716 0
M  V30 5317 C 498.866 3.99862 -1.48367 0
M  V30 5318 S 499.699 4.39443 -3.06023 0
M  V30 5319 C 500.855 5.7117 -2.55959 0
M  V30 5320 H 501.088 2.30554 -1.87702 0
M  V30 5321 H 498.621 1.11883 -1.06403 0
M  V30 5322 H 500.579 4.10244 -0.144872 0
M  V30 5323 H 499.24 3.10634 0.465351 0
M  V30 5324 H 498.433 4.92471 -1.07182 0
M  V30 5325 H 498.035 3.31857 -1.72473 0
M  V30 5326 H 500.327 6.47977 -1.97818 0
M  V30 5327 H 501.27 6.17194 -3.47098 0
M  V30 5328 H 501.678 5.29046 -1.96902 0
M  V30 5329 N 501.076 1.04316 1.18135 0
M  V30 5330 C 502.353 0.662166 1.84051 0
M  V30 5331 C 502.733 -0.858169 1.9287 0
M  V30 5332 O 502.081 -1.76062 1.45652 0
M  V30 5333 C 502.291 1.3409 3.22212 0
M  V30 5334 C 503.639 1.4733 3.9822 0
M  V30 5335 O 504.663 1.29921 3.31661 0
M  V30 5336 O 503.522 1.75722 5.17479 0
M  V30 5337 H 500.616 0.232005 0.79379 0
M  V30 5338 H 503.162 1.1422 1.25506 0
M  V30 5339 H 501.934 2.37853 3.10711 0
M  V30 5340 H 501.557 0.849649 3.88416 0
M  V30 5341 N 502.554 -1.34406 0.822964 0
M  V30 5342 C 503.784 -2.02214 0.423424 0
M  V30 5343 C 504.192 -1.62124 -0.975322 0
M  V30 5344 O 503.535 -0.822452 -1.6426 0
M  V30 5345 C 503.597 -3.56721 0.446107 0
M  V30 5346 C 503.261 -4.20136 1.79819 0
M  V30 5347 C 504.258 -4.4065 2.75904 0
M  V30 5348 C 501.943 -4.56906 2.08669 0
M  V30 5349 C 503.937 -4.9706 3.99012 0
M  V30 5350 C 501.624 -5.13026 3.32036 0
M  V30 5351 C 502.622 -5.33047 4.27024 0
M  V30 5352 O 502.31 -5.87979 5.48211 0
M  V30 5353 H 502.042 -0.654748 0.168169 0
M  V30 5354 H 504.596 -1.72659 1.11257 0
M  V30 5355 H 502.826 -3.85537 -0.299734 0
M  V30 5356 H 504.515 -4.05845 0.0666114 0
M  V30 5357 H 505.281 -4.12607 2.54912 0
M  V30 5358 H 501.16 -4.40626 1.35535 0
M  V30 5359 H 504.704 -5.12603 4.73164 0
M  V30 5360 H 500.601 -5.40498 3.52891 0
M  V30 5361 H 501.369 -6.06413 5.49732 0
M  V30 5362 N 504.032 -0.577932 -1.46621 0
M  V30 5363 C 504.962 0.145917 -2.33044 0
M  V30 5364 C 505.943 0.888412 -1.45056 0
M  V30 5365 O 507.128 0.864812 -1.73881 0
M  V30 5366 C 504.258 1.16322 -3.27241 0
M  V30 5367 C 503.212 0.535868 -4.24632 0
M  V30 5368 C 502.538 1.65929 -5.08303 0
M  V30 5369 C 503.838 -0.523861 -5.19666 0
M  V30 5370 H 505.532 -0.575636 -2.93814 0
M  V30 5371 H 503.078 -0.278272 -1.41286 0
M  V30 5372 H 505.031 1.67793 -3.86553 0
M  V30 5373 H 503.755 1.91498 -2.64567 0
M  V30 5374 H 502.414 0.0422759 -3.66576 0
M  V30 5375 H 502.062 2.40061 -4.42018 0
M  V30 5376 H 501.762 1.2452 -5.74255 0
M  V30 5377 H 503.286 2.17686 -5.70478 0
M  V30 5378 H 504.7 -0.0944059 -5.73222 0
M  V30 5379 H 503.097 -0.858 -5.93935 0
M  V30 5380 H 504.167 -1.41197 -4.63887 0
M  V30 5381 N 505.51 1.54411 -0.315457 0
M  V30 5382 C 506.442 2.21527 0.588067 0
M  V30 5383 C 507.455 1.21263 1.08624 0
M  V30 5384 O 508.644 1.47777 1.00121 0
M  V30 5385 C 505.744 2.85963 1.81875 0
M  V30 5386 C 504.917 4.12291 1.46063 0
M  V30 5387 C 503.976 4.60396 2.54799 0
M  V30 5388 O 503.002 5.25265 2.19283 0
M  V30 5389 N 504.204 4.33935 3.85591 0
M  V30 5390 H 506.969 2.99697 0.013414 0
M  V30 5391 H 504.53 1.61308 -0.138295 0
M  V30 5392 H 506.522 3.15071 2.53993 0
M  V30 5393 H 505.092 2.11548 2.30144 0
M  V30 5394 H 504.312 3.90036 0.571445 0
M  V30 5395 H 505.6 4.9452 1.19695 0
M  V30 5396 H 504.998 3.81996 4.17248 0
M  V30 5397 H 503.555 4.67718 4.53964 0
M  V30 5398 N 506.988 0.0434614 1.5754 0
M  V30 5399 C 508.236 -0.630786 1.92004 0
M  V30 5400 C 508.557 -1.71836 0.921807 0
M  V30 5401 O 507.827 -1.9587 -0.034522 0
M  V30 5402 H 506.407 -0.235988 0.708745 0
M  V30 5403 H 509.069 0.0946462 1.9467 0
M  V30 5404 H 508.165 -1.07434 2.93026 0
M  V30 5405 N 508.466 -1.55915 -0.229846 0
M  V30 5406 C 509.691 -1.8296 -0.976743 0
M  V30 5407 C 510.116 -0.622735 -1.77493 0
M  V30 5408 O 509.474 0.428431 -1.76165 0
M  V30 5409 C 509.522 -3.07916 -1.8767 0
M  V30 5410 O 508.626 -2.86028 -2.97088 0
M  V30 5411 H 507.967 -0.603453 -0.277021 0
M  V30 5412 H 510.497 -2.0312 -0.245669 0
M  V30 5413 H 510.507 -3.37802 -2.2881 0
M  V30 5414 H 509.182 -3.95389 -1.28996 0
M  V30 5415 H 507.759 -2.67355 -2.59954 0
M  V30 5416 N 509.944 0.496216 -1.49584 0
M  V30 5417 C 511.192 1.24756 -1.58998 0
M  V30 5418 C 511.513 1.92968 -0.280775 0
M  V30 5419 O 510.783 1.82959 0.700198 0
M  V30 5420 H 509.363 0.463471 -0.585836 0
M  V30 5421 H 512.025 0.574678 -1.86235 0
M  V30 5422 H 511.121 2.00895 -2.38847 0
M  V30 5423 N 511.423 1.38739 0.74761 0
M  V30 5424 C 512.333 1.38696 1.89211 0
M  V30 5425 C 513.349 0.283303 1.71678 0
M  V30 5426 O 514.525 0.522713 1.94498 0
M  V30 5427 C 511.59 1.21662 3.24653 0
M  V30 5428 C 510.651 2.41886 3.54669 0
M  V30 5429 C 509.884 2.25655 4.83648 0
M  V30 5430 O 510.107 1.25339 5.56459 0
M  V30 5431 O 509.041 3.14372 5.13277 0
M  V30 5432 H 512.867 2.35143 1.92202 0
M  V30 5433 H 510.452 1.19721 0.893708 0
M  V30 5434 H 512.334 1.14246 4.05618 0
M  V30 5435 H 511.009 0.283024 3.2246 0
M  V30 5436 H 509.916 2.54877 2.73841 0
M  V30 5437 H 511.249 3.33895 3.61628 0
M  V30 5438 N 512.901 -0.976442 1.23707 0
M  V30 5439 C 514.129 -1.75341 1.09833 0
M  V30 5440 C 514.544 -1.8553 -0.349885 0
M  V30 5441 O 513.901 -1.33732 -1.24185 0
M  V30 5442 C 513.952 -3.17833 1.72233 0
M  V30 5443 O 513.673 -3.08167 3.11391 0
M  V30 5444 C 515.174 -4.11906 1.63853 0
M  V30 5445 H 512.394 -0.550137 0.384175 0
M  V30 5446 H 514.938 -1.2265 1.63638 0
M  V30 5447 H 513.093 -3.67538 1.22452 0
M  V30 5448 H 513.507 -3.97897 3.41729 0
M  V30 5449 H 514.981 -5.09579 2.12211 0
M  V30 5450 H 515.458 -4.35109 0.598092 0
M  V30 5451 H 516.064 -3.68107 2.13019 0
M  V30 5452 N 514.379 -1.04941 -1.1758 0
M  V30 5453 C 515.79 -0.784501 -1.69418 0
M  V30 5454 C 516.141 0.693625 -1.8353 0
M  V30 5455 O 515.266 1.53925 -1.52106 0
M  V30 5456 C 515.861 -1.41746 -3.07723 0
M  V30 5457 C 514.42 -1.20066 -3.56737 0
M  V30 5458 C 513.567 -1.5026 -2.33061 0
M  V30 5459 H 516.518 -1.21469 -1.02133 0
M  V30 5460 H 516.539 -0.825381 -3.7144 0
M  V30 5461 H 516.051 -2.49325 -2.9742 0
M  V30 5462 H 514.152 -0.144006 -3.72322 0
M  V30 5463 H 514.265 -1.90384 -4.39648 0
M  V30 5464 H 512.629 -0.922598 -2.37403 0
M  V30 5465 H 513.412 -2.58967 -2.25368 0
M  V30 5466 N 515.857 1.33968 -0.830081 0
M  V30 5467 C 516.789 2.28194 -0.21448 0
M  V30 5468 C 517.802 1.5135 0.599752 0
M  V30 5469 O 518.991 1.73286 0.42826 0
M  V30 5470 C 516.091 3.31221 0.717356 0
M  V30 5471 C 515.264 4.37365 -0.055613 0
M  V30 5472 C 514.323 5.2011 0.798231 0
M  V30 5473 O 513.349 5.68691 0.240616 0
M  V30 5474 N 514.551 5.40523 2.11695 0
M  V30 5475 H 517.316 2.81662 -1.02405 0
M  V30 5476 H 514.877 1.46568 -0.687713 0
M  V30 5477 H 516.869 3.83477 1.29334 0
M  V30 5478 H 515.439 2.78095 1.42765 0
M  V30 5479 H 514.659 3.85727 -0.812936 0
M  V30 5480 H 515.947 5.05397 -0.587444 0
M  V30 5481 H 515.345 5.0274 2.59363 0
M  V30 5482 H 513.902 5.95871 2.64162 0
M  V30 5483 N 517.335 0.585699 1.46312 0
M  V30 5484 C 518.563 0.0781299 2.06752 0
M  V30 5485 C 518.978 -1.22812 1.43396 0
M  V30 5486 O 518.335 -1.74318 0.540314 0
M  V30 5487 C 518.386 -0.0911927 3.61385 0
M  V30 5488 O 518.107 1.16336 4.22371 0
M  V30 5489 C 519.608 -0.632765 4.38761 0
M  V30 5490 H 516.828 0.0588188 0.668417 0
M  V30 5491 H 519.372 0.807218 1.87894 0
M  V30 5492 H 517.527 -0.770514 3.7966 0
M  V30 5493 H 517.941 0.979082 5.15281 0
M  V30 5494 H 519.415 -0.70041 5.47538 0
M  V30 5495 H 519.892 -1.65039 4.07012 0
M  V30 5496 H 520.498 0.0117856 4.25298 0
M  V30 5497 N 518.813 -1.54241 0.323641 0
M  V30 5498 C 520.09 -1.92741 -0.333181 0
M  V30 5499 C 520.47 -1.25326 -1.69872 0
M  V30 5500 O 519.818 -0.396991 -2.25025 0
M  V30 5501 C 520.028 -3.46399 -0.425322 0
M  V30 5502 C 521.376 -4.19029 -0.68557 0
M  V30 5503 O 522.4 -3.52555 -0.50824 0
M  V30 5504 O 521.259 -5.36751 -1.02767 0
M  V30 5505 H 518.353 -0.804811 -0.190286 0
M  V30 5506 H 520.899 -1.65542 0.373361 0
M  V30 5507 H 519.671 -3.87643 0.533737 0
M  V30 5508 H 519.294 -3.79704 -1.17944 0
M  V30 5509 N 520.291 -0.0518155 -1.57515 0
M  V30 5510 C 521.537 0.622745 -1.93002 0
M  V30 5511 C 521.87 1.70456 -0.930499 0
M  V30 5512 O 521.145 1.94452 0.0434086 0
M  V30 5513 C 521.428 1.21824 -3.38867 0
M  V30 5514 C 521.281 0.144434 -4.49568 0
M  V30 5515 C 522.6 2.12968 -3.8514 0
M  V30 5516 H 519.719 0.22491 -0.701844 0
M  V30 5517 H 522.361 -0.113711 -1.89659 0
M  V30 5518 H 520.511 1.8459 -3.41846 0
M  V30 5519 H 522.183 -0.48753 -4.58717 0
M  V30 5520 H 520.426 -0.527424 -4.30582 0
M  V30 5521 H 521.097 0.601127 -5.48717 0
M  V30 5522 H 523.573 1.60163 -3.8404 0
M  V30 5523 H 522.449 2.51578 -4.87852 0
M  V30 5524 H 522.71 3.03004 -3.21934 0
M  V30 5525 N 521.769 1.56035 0.221574 0
M  V30 5526 C 523.185 1.49026 0.571271 0
M  V30 5527 C 523.385 0.746912 1.87146 0
M  V30 5528 O 522.441 0.286566 2.50869 0
M  V30 5529 C 523.754 2.93579 0.650522 0
M  V30 5530 C 525.302 3.04099 0.741151 0
M  V30 5531 C 525.777 4.5001 0.851747 0
M  V30 5532 N 527.268 4.54053 0.915968 0
M  V30 5533 C 528.003 5.64232 1.02125 0
M  V30 5534 N 527.499 6.84164 1.09049 0
M  V30 5535 N 529.292 5.52084 1.05639 0
M  V30 5536 H 521.443 2.02791 -0.63162 0
M  V30 5537 H 523.706 0.921736 -0.221602 0
M  V30 5538 H 523.412 3.50912 -0.235253 0
M  V30 5539 H 523.286 3.45476 1.51413 0
M  V30 5540 H 525.673 2.4683 1.61737 0
M  V30 5541 H 525.754 2.55371 -0.148128 0
M  V30 5542 H 525.398 5.07896 -0.0200117 0
M  V30 5543 H 525.328 4.96444 1.75644 0
M  V30 5544 H 527.819 3.67683 0.872782 0
M  V30 5545 H 528.132 7.63883 1.1706 0
M  V30 5546 H 526.477 6.86875 1.05962 0
M  V30 5547 H 529.668 4.57317 0.998953 0
M  V30 5548 H 529.841 6.37983 1.13498 0
M  V30 5549 N 523.247 -0.488276 1.49845 0
M  V30 5550 C 524.493 -1.24065 1.61182 0
M  V30 5551 C 524.848 -1.9004 0.300435 0
M  V30 5552 O 524.141 -1.78341 -0.700365 0
M  V30 5553 C 524.335 -2.32152 2.71735 0
M  V30 5554 C 524.164 -1.76778 4.13497 0
M  V30 5555 C 522.934 -1.57513 4.80123 0
M  V30 5556 C 525.132 -1.27242 4.98311 0
M  V30 5557 N 523.114 -0.972015 6.06156 0
M  V30 5558 C 524.485 -0.791457 6.14928 0
M  V30 5559 C 526.54 -1.15934 4.84214 0
M  V30 5560 C 525.243 -0.208593 7.18997 0
M  V30 5561 C 527.269 -0.590436 5.88445 0
M  V30 5562 C 526.631 -0.119767 7.04298 0
M  V30 5563 H 522.73 -0.443487 0.644083 0
M  V30 5564 H 525.314 -0.545551 1.86901 0
M  V30 5565 H 523.485 -2.99108 2.47768 0
M  V30 5566 H 525.217 -2.99187 2.72523 0
M  V30 5567 H 521.972 -1.82247 4.37131 0
M  V30 5568 H 522.396 -0.689367 6.73481 0
M  V30 5569 H 527.038 -1.5092 3.94947 0
M  V30 5570 H 524.756 0.153501 8.07954 0
M  V30 5571 H 528.342 -0.505548 5.79599 0
M  V30 5572 H 527.222 0.313568 7.83573 0
M  V30 5573 N 524.725 -1.39134 -0.740242 0
M  V30 5574 C 525.658 -1.3182 -1.86276 0
M  V30 5575 C 526.636 -0.192794 -1.61453 0
M  V30 5576 O 527.82 -0.372365 -1.84786 0
M  V30 5577 C 524.947 -1.04564 -3.22155 0
M  V30 5578 C 523.993 -2.19224 -3.65846 0
M  V30 5579 S 524.826 -3.81466 -3.75824 0
M  V30 5580 C 525.982 -3.56425 -5.14502 0
M  V30 5581 H 526.215 -2.26822 -1.92195 0
M  V30 5582 H 523.748 -1.25127 -0.904576 0
M  V30 5583 H 525.706 -0.895228 -4.00619 0
M  V30 5584 H 524.367 -0.112578 -3.13898 0
M  V30 5585 H 523.56 -1.95732 -4.6444 0
M  V30 5586 H 523.162 -2.30441 -2.94572 0
M  V30 5587 H 525.454 -3.13366 -6.00673 0
M  V30 5588 H 526.397 -4.54462 -5.43019 0
M  V30 5589 H 526.805 -2.90641 -4.8393 0
M  V30 5590 N 526.204 0.969867 -1.24223 0
M  V30 5591 C 527.429 1.75289 -1.10853 0
M  V30 5592 C 527.854 1.85091 0.335079 0
M  V30 5593 O 527.212 1.32024 1.24255 0
M  V30 5594 C 527.26 3.15255 -1.75062 0
M  V30 5595 O 526.364 3.99589 -1.01992 0
M  V30 5596 H 525.705 0.538904 -0.387915 0
M  V30 5597 H 528.235 1.21675 -1.64488 0
M  V30 5598 H 528.245 3.65787 -1.80731 0
M  V30 5599 H 526.92 3.07436 -2.801 0
M  V30 5600 H 525.497 3.58077 -1.04094 0
M  V30 5601 N 527.682 1.05563 1.17022 0
M  V30 5602 C 528.592 0.670758 2.24807 0
M  V30 5603 C 529.608 -0.309865 1.71219 0
M  V30 5604 O 530.784 -0.161025 2.00755 0
M  V30 5605 C 527.849 0.055337 3.46656 0
M  V30 5606 C 526.91 1.08688 4.15314 0
M  V30 5607 C 526.143 0.500736 5.31346 0
M  V30 5608 O 526.366 -0.688718 5.66227 0
M  V30 5609 O 525.3 1.23683 5.89055 0
M  V30 5610 H 529.126 1.56914 2.60023 0
M  V30 5611 H 526.711 0.827428 1.24395 0
M  V30 5612 H 528.593 -0.286492 4.20425 0
M  V30 5613 H 527.268 -0.816638 3.13229 0
M  V30 5614 H 526.175 1.48077 3.43546 0
M  V30 5615 H 527.508 1.93014 4.52777 0
M  V30 5616 N 529.16 -1.33526 0.837174 0
M  V30 5617 C 530.388 -2.02047 0.445494 0
M  V30 5618 C 530.803 -1.62995 -0.952788 0
M  V30 5619 O 530.16 -0.842447 -1.61892 0
M  V30 5620 C 530.211 -3.57221 0.554577 0
M  V30 5621 O 529.932 -3.94863 1.89776 0
M  V30 5622 C 531.433 -4.43012 0.159634 0
M  V30 5623 H 528.653 -0.647221 0.177048 0
M  V30 5624 H 531.197 -1.70492 1.12928 0
M  V30 5625 H 529.352 -3.87315 -0.0812781 0
M  V30 5626 H 529.766 -4.89569 1.88208 0
M  V30 5627 H 531.24 -5.51253 0.28701 0
M  V30 5628 H 531.717 -4.29916 -0.898289 0
M  V30 5629 H 532.323 -4.18274 0.769855 0
M  V30 5630 N 530.638 -0.59345 -1.46 0
M  V30 5631 C 531.886 -0.082988 -2.0193 0
M  V30 5632 C 532.207 1.28569 -1.46612 0
M  V30 5633 O 531.477 1.84629 -0.654909 0
M  V30 5634 H 530.057 -0.0276882 -0.746487 0
M  V30 5635 H 532.719 -0.771657 -1.78973 0
M  V30 5636 H 531.815 -0.022079 -3.12092 0
M  V30 5637 N 532.116 1.54067 -0.331816 0
M  V30 5638 C 533.365 1.99895 0.269209 0
M  V30 5639 C 533.678 1.22371 1.52593 0
M  V30 5640 O 534.884 1.58618 2.20347 0
M  V30 5641 C 533.34 3.55972 0.530244 0
M  V30 5642 C 532.948 4.4234 -0.709901 0
M  V30 5643 C 534.692 4.10247 1.09077 0
M  V30 5644 C 532.599 5.89905 -0.420312 0
M  V30 5645 H 531.529 0.746741 0.104371 0
M  V30 5646 H 534.18 1.78014 -0.445324 0
M  V30 5647 H 532.562 3.73873 1.30518 0
M  V30 5648 H 533.736 4.36215 -1.48504 0
M  V30 5649 H 532.051 3.98997 -1.19123 0
M  V30 5650 H 534.648 5.18095 1.32219 0
M  V30 5651 H 534.991 3.62739 2.0427 0
M  V30 5652 H 535.524 3.96011 0.376824 0
M  V30 5653 H 532.263 6.41623 -1.34164 0
M  V30 5654 H 531.783 5.98962 0.316962 0
M  V30 5655 H 533.462 6.46991 -0.0331956 0
M  V30 5656 N 533.594 0.0601682 1.57485 0
M  V30 5657 C 534.843 -0.611101 1.9222 0
M  V30 5658 C 535.156 -1.71469 0.941159 0
M  V30 5659 O 536.362 -2.44473 1.18089 0
M  V30 5660 C 534.818 -1.13832 3.41424 0
M  V30 5661 C 534.426 -0.0663596 4.47951 0
M  V30 5662 C 536.17 -1.78432 3.85178 0
M  V30 5663 C 534.077 -0.606965 5.88277 0
M  V30 5664 H 533.007 -0.232033 0.71741 0
M  V30 5665 H 535.658 0.130518 1.83035 0
M  V30 5666 H 534.04 -1.93254 3.45643 0
M  V30 5667 H 535.214 0.707682 4.55333 0
M  V30 5668 H 533.529 0.482715 4.13593 0
M  V30 5669 H 536.126 -2.1989 4.87394 0
M  V30 5670 H 536.469 -2.63966 3.21913 0
M  V30 5671 H 537.002 -1.05651 3.83514 0
M  V30 5672 H 533.741 0.21095 6.5516 0
M  V30 5673 H 533.261 -1.34879 5.84438 0
M  V30 5674 H 534.94 -1.08704 6.37803 0
M  V30 5675 N 535.072 -1.5615 -0.213296 0
M  V30 5676 C 536.349 -1.70349 -0.961281 0
M  V30 5677 C 536.729 -0.609791 -2.02101 0
M  V30 5678 O 536.077 0.381987 -2.25285 0
M  V30 5679 C 536.287 -3.11982 -1.56424 0
M  V30 5680 C 537.635 -3.71649 -2.05334 0
M  V30 5681 O 538.659 -3.14995 -1.66302 0
M  V30 5682 O 537.518 -4.71038 -2.77102 0
M  V30 5683 H 534.612 -0.694121 -0.449582 0
M  V30 5684 H 537.158 -1.68464 -0.204426 0
M  V30 5685 H 535.93 -3.83046 -0.799457 0
M  V30 5686 H 535.553 -3.18019 -2.38641 0
M  V30 5687 N 536.55 0.480323 -1.50102 0
M  V30 5688 C 537.796 1.23489 -1.60867 0
M  V30 5689 C 538.129 1.91809 -0.303827 0
M  V30 5690 O 537.404 1.81694 0.694092 0
M  V30 5691 C 537.687 2.28578 -2.78252 0
M  V30 5692 C 537.54 1.64624 -4.18592 0
M  V30 5693 C 538.859 3.2997 -2.91218 0
M  V30 5694 H 535.978 0.447605 -0.585507 0
M  V30 5695 H 538.62 0.530005 -1.82458 0
M  V30 5696 H 536.77 2.88697 -2.59974 0
M  V30 5697 H 538.442 1.08173 -4.48438 0
M  V30 5698 H 536.685 0.949645 -4.23278 0
M  V30 5699 H 537.356 2.40946 -4.96638 0
M  V30 5700 H 539.832 2.79864 -3.07921 0
M  V30 5701 H 538.708 4.00839 -3.74993 0
M  V30 5702 H 538.969 3.93541 -2.0144 0
M  V30 5703 N 538.028 1.39524 0.732853 0
M  V30 5704 C 539.275 1.36865 1.49246 0
M  V30 5705 C 539.603 -0.0347118 1.94469 0
M  V30 5706 O 538.858 -1.01596 1.67262 0
M  V30 5707 C 539.157 2.28916 2.74468 0
M  V30 5708 C 538.823 3.76506 2.481 0
M  V30 5709 C 537.485 4.16721 2.40619 0
M  V30 5710 C 539.837 4.69846 2.25598 0
M  V30 5711 C 537.165 5.48334 2.08679 0
M  V30 5712 C 539.517 6.01739 1.95174 0
M  V30 5713 C 538.181 6.41015 1.86163 0
M  V30 5714 H 537.451 0.500824 0.546129 0
M  V30 5715 H 540.098 1.72047 0.840958 0
M  V30 5716 H 538.403 1.86859 3.4437 0
M  V30 5717 H 540.1 2.2415 3.32502 0
M  V30 5718 H 536.69 3.44635 2.54803 0
M  V30 5719 H 540.874 4.39608 2.30344 0
M  V30 5720 H 536.13 5.77685 2.00226 0
M  V30 5721 H 540.304 6.73591 1.76771 0
M  V30 5722 H 537.931 7.42917 1.61179 0
M  V30 5723 N 539.506 -0.963266 1.24736 0
M  V30 5724 C 540.436 -2.07628 1.06832 0
M  V30 5725 C 541.417 -1.70088 -0.0200566 0
M  V30 5726 O 542.602 -1.93636 0.147854 0
M  V30 5727 C 539.732 -3.40636 0.677069 0
M  V30 5728 C 538.686 -3.9215 1.71471 0
M  V30 5729 C 538.012 -5.21553 1.1784 0
M  V30 5730 C 539.312 -4.19493 3.11164 0
M  V30 5731 H 541.006 -2.22864 1.9993 0
M  V30 5732 H 538.552 -1.07093 0.96266 0
M  V30 5733 H 540.505 -4.17941 0.538792 0
M  V30 5734 H 539.229 -3.25313 -0.289612 0
M  V30 5735 H 537.888 -3.17005 1.84128 0
M  V30 5736 H 537.536 -5.02593 0.202195 0
M  V30 5737 H 537.236 -5.56988 1.87185 0
M  V30 5738 H 538.76 -6.01463 1.05233 0
M  V30 5739 H 540.174 -4.87487 3.01711 0
M  V30 5740 H 538.571 -4.66165 3.77902 0
M  V30 5741 H 539.641 -3.26097 3.58871 0
M  V30 5742 N 540.985 -1.06182 -1.16461 0
M  V30 5743 C 541.915 -0.692861 -2.22984 0
M  V30 5744 C 542.896 0.314122 -1.67174 0
M  V30 5745 O 544.081 0.189499 -1.93273 0
M  V30 5746 C 541.211 -0.07732 -3.47214 0
M  V30 5747 C 540.165 -1.01015 -4.15909 0
M  V30 5748 C 539.491 -0.257973 -5.34077 0
M  V30 5749 C 540.791 -2.33868 -4.67015 0
M  V30 5750 H 542.485 -1.58343 -2.54102 0
M  V30 5751 H 540.031 -0.76279 -1.22137 0
M  V30 5752 H 541.984 0.19266 -4.20959 0
M  V30 5753 H 540.708 0.848254 -3.15392 0
M  V30 5754 H 539.367 -1.26486 -3.44088 0
M  V30 5755 H 539.015 0.670684 -4.98509 0
M  V30 5756 H 538.715 -0.879638 -5.80979 0
M  V30 5757 H 540.239 0.00448788 -6.106 0
M  V30 5758 H 541.653 -2.1279 -5.32347 0
M  V30 5759 H 540.05 -2.91522 -5.24533 0
M  V30 5760 H 541.12 -2.97019 -3.83286 0
M  V30 5761 N 542.463 1.3308 -0.844243 0
M  V30 5762 C 543.393 2.3161 -0.296493 0
M  V30 5763 C 544.374 1.59215 0.598707 0
M  V30 5764 O 545.559 1.87077 0.521134 0
M  V30 5765 C 542.689 3.43313 0.524762 0
M  V30 5766 C 541.643 4.27115 -0.275106 0
M  V30 5767 C 540.969 5.30483 0.670236 0
M  V30 5768 C 542.269 5.00443 -1.49514 0
M  V30 5769 H 543.963 2.77672 -1.11976 0
M  V30 5770 H 541.509 1.33496 -0.539899 0
M  V30 5771 H 543.462 4.11273 0.918298 0
M  V30 5772 H 542.186 2.95952 1.3813 0
M  V30 5773 H 540.845 3.60787 -0.650267 0
M  V30 5774 H 540.493 4.79379 1.52332 0
M  V30 5775 H 540.193 5.87435 0.139123 0
M  V30 5776 H 541.717 6.01308 1.06117 0
M  V30 5777 H 543.131 5.61141 -1.17447 0
M  V30 5778 H 541.528 5.67071 -1.96343 0
M  V30 5779 H 542.598 4.28906 -2.26202 0
M  V30 5780 N 543.941 0.601185 1.45683 0
M  V30 5781 C 545.189 0.0936957 2.01883 0
M  V30 5782 C 545.51 -1.2779 1.47291 0
M  V30 5783 O 544.78 -1.84279 0.664691 0
M  V30 5784 H 543.36 0.0316466 0.746329 0
M  V30 5785 H 546.022 0.781137 1.78562 0
M  V30 5786 H 545.118 0.0386297 3.12076 0
M  V30 5787 N 545.419 -1.53889 0.339982 0
M  V30 5788 C 546.83 -1.86139 -0.144671 0
M  V30 5789 C 547.181 -1.2613 -1.50285 0
M  V30 5790 O 546.306 -0.573515 -2.08662 0
M  V30 5791 C 546.901 -3.37728 -0.269285 0
M  V30 5792 C 545.46 -3.69868 -0.698168 0
M  V30 5793 C 544.607 -2.76777 0.170249 0
M  V30 5794 H 547.558 -1.48503 0.559704 0
M  V30 5795 H 547.579 -3.64331 -1.0974 0
M  V30 5796 H 547.091 -3.81375 0.719366 0
M  V30 5797 H 545.192 -3.31764 -1.69597 0
M  V30 5798 H 545.305 -4.76582 -0.490533 0
M  V30 5799 H 543.669 -2.52188 -0.356844 0
M  V30 5800 H 544.452 -3.23253 1.15597 0
M  V30 5801 N 546.897 -0.0685191 -1.57451 0
M  V30 5802 C 548.122 0.613919 -1.98106 0
M  V30 5803 C 548.547 1.62551 -0.946501 0
M  V30 5804 O 547.905 1.81085 0.0882824 0
M  V30 5805 C 547.953 1.26189 -3.378 0
M  V30 5806 O 547.057 2.37773 -3.36954 0
M  V30 5807 H 546.398 0.158163 -0.644888 0
M  V30 5808 H 548.928 -0.142063 -2.04106 0
M  V30 5809 H 548.938 1.60951 -3.74912 0
M  V30 5810 H 547.613 0.520625 -4.12629 0
M  V30 5811 H 546.19 2.04829 -3.11608 0
M  V30 5812 N 548.375 1.56261 0.205012 0
M  V30 5813 C 549.624 1.79236 0.925058 0
M  V30 5814 C 549.937 0.640011 1.84833 0
M  V30 5815 O 551.143 0.753809 2.60826 0
M  V30 5816 C 549.599 3.17475 1.69522 0
M  V30 5817 C 549.207 4.40482 0.817269 0
M  V30 5818 C 550.951 3.49766 2.4055 0
M  V30 5819 C 548.858 5.69744 1.58573 0
M  V30 5820 H 547.788 0.668287 0.349153 0
M  V30 5821 H 550.439 1.82629 0.178544 0
M  V30 5822 H 548.821 3.08304 2.48526 0
M  V30 5823 H 549.995 4.60752 0.0665988 0
M  V30 5824 H 548.31 4.15827 0.218316 0
M  V30 5825 H 550.907 4.43573 2.98575 0
M  V30 5826 H 551.25 2.73041 3.14252 0
M  V30 5827 H 551.783 3.60341 1.68522 0
M  V30 5828 H 548.522 6.49407 0.891679 0
M  V30 5829 H 548.042 5.53509 2.31059 0
M  V30 5830 H 549.721 6.1051 2.14212 0
M  V30 5831 N 549.853 -0.472356 1.50355 0
M  V30 5832 C 551.078 -1.25251 1.65309 0
M  V30 5833 C 551.503 -1.85081 0.335643 0
M  V30 5834 O 550.861 -1.67227 -0.700335 0
M  V30 5835 C 550.909 -2.3379 2.74544 0
M  V30 5836 O 550.013 -3.38401 2.35709 0
M  V30 5837 H 549.354 -0.368539 0.552336 0
M  V30 5838 H 551.884 -0.562271 1.96722 0
M  V30 5839 H 551.894 -2.79121 2.97583 0
M  V30 5840 H 550.569 -1.89614 3.70161 0
M  V30 5841 H 549.146 -2.9879 2.23112 0
M  V30 5842 N 551.331 -1.39911 -0.725443 0
M  V30 5843 C 552.608 -1.28158 -1.47766 0
M  V30 5844 C 552.988 0.104545 -2.10841 0
M  V30 5845 O 552.336 1.11657 -1.99361 0
M  V30 5846 C 552.546 -2.41306 -2.52135 0
M  V30 5847 C 553.894 -2.81076 -3.18247 0
M  V30 5848 O 554.918 -2.40827 -2.62452 0
M  V30 5849 O 553.777 -3.50581 -4.19231 0
M  V30 5850 H 550.871 -0.502761 -0.656628 0
M  V30 5851 H 553.417 -1.51808 -0.758456 0
M  V30 5852 H 552.189 -3.33932 -2.03974 0
M  V30 5853 H 551.812 -2.19374 -3.31603 0
M  V30 5854 N 552.809 0.956637 -1.25245 0
M  V30 5855 C 554.055 1.70352 -1.10036 0
M  V30 5856 C 554.388 1.90869 0.358156 0
M  V30 5857 O 553.663 1.47819 1.26411 0
M  V30 5858 C 553.946 3.08766 -1.85298 0
M  V30 5859 C 553.799 2.95672 -3.38966 0
M  V30 5860 C 555.118 4.08622 -1.63451 0
M  V30 5861 H 552.237 0.618279 -0.401123 0
M  V30 5862 H 554.879 1.11212 -1.54051 0
M  V30 5863 H 553.029 3.59252 -1.47887 0
M  V30 5864 H 554.701 2.52527 -3.86041 0
M  V30 5865 H 552.944 2.31634 -3.6678 0
M  V30 5866 H 553.615 3.93776 -3.86839 0
M  V30 5867 H 556.091 3.67038 -1.96015 0
M  V30 5868 H 554.967 5.03514 -2.18551 0
M  V30 5869 H 555.228 4.3834 -0.575357 0
M  V30 5870 N 554.287 1.06798 1.15896 0
M  V30 5871 C 555.534 0.787767 1.86549 0
M  V30 5872 C 555.862 -0.685959 1.82002 0
M  V30 5873 O 555.117 -1.5188 1.23414 0
M  V30 5874 C 555.416 1.23414 3.35416 0
M  V30 5875 C 555.082 2.71285 3.6016 0
M  V30 5876 C 553.744 3.11676 3.66622 0
M  V30 5877 C 556.096 3.6676 3.7032 0
M  V30 5878 C 553.424 4.4637 3.8075 0
M  V30 5879 C 555.776 5.01209 3.8597 0
M  V30 5880 C 554.44 5.41229 3.90676 0
M  V30 5881 H 553.71 0.288264 0.682631 0
M  V30 5882 H 556.357 1.338 1.37003 0
M  V30 5883 H 554.662 0.60319 3.87129 0
M  V30 5884 H 556.359 0.994298 3.88477 0
M  V30 5885 H 552.949 2.39015 3.55767 0
M  V30 5886 H 557.133 3.36685 3.64633 0
M  V30 5887 H 552.389 4.76855 3.82648 0
M  V30 5888 H 556.563 5.75067 3.92773 0
M  V30 5889 H 554.19 6.45602 4.01375 0
M  V30 5890 N 555.766 -1.3263 0.851289 0
M  V30 5891 C 557.182 -1.50162 0.5407 0
M  V30 5892 C 557.382 -1.78788 -0.929369 0
M  V30 5893 O 556.438 -1.85545 -1.71258 0
M  V30 5894 C 557.751 -2.64803 1.42478 0
M  V30 5895 C 559.299 -2.78688 1.42485 0
M  V30 5896 C 559.774 -3.96405 2.29407 0
M  V30 5897 N 561.265 -4.0366 2.27184 0
M  V30 5898 C 562 -4.93971 2.9117 0
M  V30 5899 N 561.496 -5.89313 3.64256 0
M  V30 5900 N 563.289 -4.87066 2.80576 0
M  V30 5901 H 555.44 -1.12315 1.80275 0
M  V30 5902 H 557.703 -0.553266 0.769806 0
M  V30 5903 H 557.409 -2.50368 2.46999 0
M  V30 5904 H 557.283 -3.60506 1.10974 0
M  V30 5905 H 559.67 -2.92547 0.387304 0
M  V30 5906 H 559.751 -1.83708 1.78002 0
M  V30 5907 H 559.395 -3.83304 3.33228 0
M  V30 5908 H 559.325 -4.90654 1.91224 0
M  V30 5909 H 561.816 -3.35435 1.74045 0
M  V30 5910 H 562.129 -6.54913 4.10255 0
M  V30 5911 H 560.474 -5.8935 3.68364 0
M  V30 5912 H 563.665 -4.11552 2.23031 0
M  V30 5913 H 563.838 -5.57248 3.30725 0
M  V30 5914 N 557.244 -0.608902 -1.45362 0
M  V30 5915 C 558.176 0.147318 -2.28726 0
M  V30 5916 C 559.189 0.830468 -1.40025 0
M  V30 5917 O 560.378 0.695636 -1.64387 0
M  V30 5918 C 557.478 1.22968 -3.15804 0
M  V30 5919 C 556.651 0.633391 -4.3279 0
M  V30 5920 C 555.71 1.60682 -5.01067 0
M  V30 5921 O 554.736 1.13261 -5.57818 0
M  V30 5922 N 555.938 2.94123 -5.00472 0
M  V30 5923 H 558.703 -0.568014 -2.94268 0
M  V30 5924 H 556.264 -0.448479 -1.55564 0
M  V30 5925 H 558.256 1.88072 -3.58345 0
M  V30 5926 H 556.826 1.84752 -2.52162 0
M  V30 5927 H 556.046 -0.195762 -3.93714 0
M  V30 5928 H 557.334 0.215255 -5.08344 0
M  V30 5929 H 556.732 3.3525 -4.55657 0
M  V30 5930 H 555.289 3.54646 -5.46872 0
M  V30 5931 N 558.722 1.53707 -0.348139 0
M  V30 5932 C 559.952 2.05108 0.247864 0
M  V30 5933 C 560.36 1.22252 1.44399 0
M  V30 5934 O 559.703 0.251853 1.81965 0
M  V30 5935 C 559.765 3.52171 0.722187 0
M  V30 5936 C 559.429 4.5562 -0.354902 0
M  V30 5937 C 560.426 5.05883 -1.19911 0
M  V30 5938 C 558.111 4.99703 -0.510145 0
M  V30 5939 C 560.105 5.98814 -2.18406 0
M  V30 5940 C 557.792 5.92443 -1.49848 0
M  V30 5941 C 558.79 6.41887 -2.33389 0
M  V30 5942 O 558.478 7.32802 -3.3054 0
M  V30 5943 H 558.21 0.674086 0.0508296 0
M  V30 5944 H 560.764 1.99229 -0.49968 0
M  V30 5945 H 558.994 3.55529 1.52105 0
M  V30 5946 H 560.683 3.8652 1.23925 0
M  V30 5947 H 561.449 4.72586 -1.09028 0
M  V30 5948 H 557.328 4.60816 0.130274 0
M  V30 5949 H 560.872 6.3733 -2.83649 0
M  V30 5950 H 556.769 6.25155 -1.60786 0
M  V30 5951 H 557.537 7.50749 -3.26064 0
M  V30 5952 N 560.2 0.0768682 1.57412 0
M  V30 5953 C 561.163 -0.873949 2.11884 0
M  V30 5954 C 562.163 -1.22301 1.04398 0
M  V30 5955 O 563.353 -1.15545 1.30365 0
M  V30 5956 C 560.485 -2.17575 2.62438 0
M  V30 5957 H 561.678 -0.401278 2.97203 0
M  V30 5958 H 559.231 -0.171904 1.55352 0
M  V30 5959 H 559.966 -2.69368 1.80587 0
M  V30 5960 H 559.751 -1.93534 3.41009 0
M  V30 5961 H 561.241 -2.85631 3.04639 0
M  V30 5962 N 561.678 -1.56367 -0.196722 0
M  V30 5963 C 562.903 -1.84991 -0.937714 0
M  V30 5964 C 563.328 -0.660244 -1.76132 0
M  V30 5965 O 562.686 0.390967 -1.77034 0
M  V30 5966 C 562.734 -3.11828 -1.81096 0
M  V30 5967 O 561.838 -2.92266 -2.90955 0
M  V30 5968 H 561.179 -0.609193 -0.264159 0
M  V30 5969 H 563.709 -2.03595 -0.202529 0
M  V30 5970 H 563.719 -3.42579 -2.21594 0
M  V30 5971 H 562.394 -3.98037 -1.2058 0
M  V30 5972 H 560.971 -2.72809 -2.54224 0
M  V30 5973 N 563.156 0.464375 -1.50603 0
M  V30 5974 C 564.086 1.56944 -1.72889 0
M  V30 5975 C 565.067 1.59979 -0.577997 0
M  V30 5976 O 566.252 1.76138 -0.817855 0
M  V30 5977 C 563.382 2.95225 -1.8292 0
M  V30 5978 C 562.336 3.07056 -2.98162 0
M  V30 5979 C 561.662 4.47051 -2.93343 0
M  V30 5980 C 562.962 2.83648 -4.38567 0
M  V30 5981 H 564.656 1.38547 -2.65415 0
M  V30 5982 H 562.202 0.665082 -1.27721 0
M  V30 5983 H 564.155 3.72467 -1.97095 0
M  V30 5984 H 562.879 3.14793 -0.870209 0
M  V30 5985 H 561.538 2.32248 -2.83648 0
M  V30 5986 H 561.186 4.63547 -1.95276 0
M  V30 5987 H 560.886 4.55902 -3.70712 0
M  V30 5988 H 562.41 5.26304 -3.09575 0
M  V30 5989 H 563.824 3.50636 -4.53572 0
M  V30 5990 H 562.221 3.03937 -5.17438 0
M  V30 5991 H 563.291 1.79451 -4.50472 0
M  V30 5992 N 564.634 1.40294 0.718013 0
M  V30 5993 C 565.862 1.4175 1.50714 0
M  V30 5994 C 566.277 0.0165366 1.88793 0
M  V30 5995 O 565.634 -0.958942 1.55276 0
M  V30 5996 C 565.685 2.30598 2.784 0
M  V30 5997 O 565.406 3.6524 2.41932 0
M  V30 5998 C 566.907 2.4062 3.72313 0
M  V30 5999 H 564.127 0.483565 0.465194 0
M  V30 6000 H 566.671 1.84316 0.885889 0
M  V30 6001 H 564.826 1.91401 3.36815 0
M  V30 6002 H 565.24 4.12402 3.24076 0
M  V30 6003 H 566.714 3.07001 4.58753 0
M  V30 6004 H 567.191 1.4305 4.15251 0
M  V30 6005 H 567.797 2.80359 3.19811 0
M  V30 6006 N 566.112 -0.949982 1.2575 0
M  V30 6007 C 567.36 -1.6918 1.10555 0
M  V30 6008 C 567.681 -1.91773 -0.353298 0
M  V30 6009 O 566.951 -1.50814 -1.25027 0
M  V30 6010 H 565.531 -0.626952 0.406129 0
M  V30 6011 H 568.193 -1.1419 1.57945 0
M  V30 6012 H 567.289 -2.66915 1.61749 0
M  V30 6013 N 567.59 -1.07411 -1.15328 0
M  V30 6014 C 568.818 -0.818782 -1.90009 0
M  V30 6015 C 569.233 0.628072 -1.78047 0
M  V30 6016 O 568.59 1.43085 -1.13282 0
M  V30 6017 C 568.641 -1.21874 -3.40337 0
M  V30 6018 O 568.362 -2.60883 -3.51954 0
M  V30 6019 C 569.863 -0.992796 -4.3204 0
M  V30 6020 H 567.083 -0.296007 -0.60218 0
M  V30 6021 H 569.627 -1.43073 -1.46117 0
M  V30 6022 H 567.782 -0.651103 -3.81889 0
M  V30 6023 H 568.196 -2.77216 -4.45255 0
M  V30 6024 H 569.67 -1.32215 -5.35932 0
M  V30 6025 H 570.147 0.0708331 -4.39143 0
M  V30 6026 H 570.753 -1.54537 -3.9623 0
M  V30 6027 N 569.068 1.32177 -0.85831 0
M  V30 6028 C 570 2.27688 -0.262835 0
M  V30 6029 C 571.013 1.52588 0.567513 0
M  V30 6030 O 572.202 1.74156 0.391407 0
M  V30 6031 C 569.302 3.32668 0.646937 0
M  V30 6032 C 568.475 4.37148 -0.148372 0
M  V30 6033 C 567.534 5.21686 0.687728 0
M  V30 6034 O 566.56 5.69074 0.119934 0
M  V30 6035 N 567.762 5.44892 2.00182 0
M  V30 6036 H 570.527 2.79426 -1.08356 0
M  V30 6037 H 568.088 1.45076 -0.718647 0
M  V30 6038 H 570.08 3.86134 1.2117 0
M  V30 6039 H 568.65 2.81061 1.36834 0
M  V30 6040 H 567.87 3.83915 -0.894572 0
M  V30 6041 H 569.158 5.04038 -0.694514 0
M  V30 6042 H 568.556 5.08128 2.4864 0
M  V30 6043 H 567.113 6.0134 2.51463 0
M  V30 6044 N 570.547 0.616602 1.45037 0
M  V30 6045 C 571.51 -0.0871112 2.29034 0
M  V30 6046 C 572.51 -0.786414 1.40258 0
M  V30 6047 O 573.7 -0.633207 1.62284 0
M  V30 6048 C 570.832 -1.13369 3.21497 0
M  V30 6049 H 572.025 0.651497 2.92738 0
M  V30 6050 H 569.578 0.376058 1.51709 0
M  V30 6051 H 570.313 -1.90277 2.62612 0
M  V30 6052 H 570.098 -0.636358 3.86902 0
M  V30 6053 H 571.588 -1.62627 3.84633 0
M  V30 6054 N 572.025 -1.5352 0.356285 0
M  V30 6055 C 572.955 -2.28372 -0.486661 0
M  V30 6056 C 573.936 -1.30432 -1.09185 0
M  V30 6057 O 575.121 -1.59291 -1.11085 0
M  V30 6058 C 572.251 -3.06604 -1.63129 0
M  V30 6059 C 571.205 -4.12154 -1.15381 0
M  V30 6060 C 570.531 -4.78415 -2.38796 0
M  V30 6061 C 571.831 -5.21724 -0.245179 0
M  V30 6062 H 573.525 -2.99083 0.137797 0
M  V30 6063 H 571.071 -1.43841 0.0677134 0
M  V30 6064 H 573.024 -3.57712 -2.22755 0
M  V30 6065 H 571.748 -2.33568 -2.28284 0
M  V30 6066 H 570.407 -3.61978 -0.580294 0
M  V30 6067 H 570.055 -4.01959 -3.02387 0
M  V30 6068 H 569.755 -5.49734 -2.07524 0
M  V30 6069 H 571.279 -5.32313 -2.99125 0
M  V30 6070 H 572.693 -5.68391 -0.748646 0
M  V30 6071 H 571.09 -6.00095 -0.0237608 0
M  V30 6072 H 572.16 -4.79596 0.715229 0
M  V30 6073 N 573.503 -0.0852151 -1.57369 0
M  V30 6074 C 574.914 0.445428 -1.81309 0
M  V30 6075 C 575.265 1.68795 -1.00013 0
M  V30 6076 O 574.39 2.15211 -0.226573 0
M  V30 6077 C 574.985 0.814887 -3.28854 0
M  V30 6078 C 573.544 1.29032 -3.53592 0
M  V30 6079 C 572.691 0.282089 -2.75861 0
M  V30 6080 H 575.642 -0.310771 -1.55627 0
M  V30 6081 H 575.663 1.67524 -3.41637 0
M  V30 6082 H 575.175 -0.0896309 -3.87996 0
M  V30 6083 H 573.276 2.21289 -2.9977 0
M  V30 6084 H 573.389 1.25898 -4.62262 0
M  V30 6085 H 571.753 0.762182 -2.43029 0
M  V30 6086 H 572.536 -0.614936 -3.37748 0
M  V30 6087 N 574.981 1.5647 0.188427 0
M  V30 6088 C 576.392 1.70864 0.752494 0
M  V30 6089 C 576.743 0.692905 1.83557 0
M  V30 6090 O 575.868 -0.149307 2.15884 0
M  V30 6091 C 576.463 3.09789 1.37173 0
M  V30 6092 C 575.022 3.25925 1.88281 0
M  V30 6093 C 574.169 2.66817 0.755259 0
M  V30 6094 H 577.12 1.58657 -0.0367408 0
M  V30 6095 H 577.141 3.07489 2.24122 0
M  V30 6096 H 576.653 3.83693 0.583219 0
M  V30 6097 H 574.754 2.56948 2.6983 0
M  V30 6098 H 574.867 4.33498 2.04001 0
M  V30 6099 H 573.231 2.2617 1.17128 0
M  V30 6100 H 574.014 3.43294 -0.0211237 0
M  V30 6101 N 576.459 -0.456382 1.50847 0
M  V30 6102 C 577.389 -1.56025 1.73719 0
M  V30 6103 C 578.37 -1.5967 0.586473 0
M  V30 6104 O 579.555 -1.75702 0.827185 0
M  V30 6105 C 576.685 -2.94251 1.84483 0
M  V30 6106 C 575.639 -3.05471 2.99786 0
M  V30 6107 C 574.965 -4.45489 2.95709 0
M  V30 6108 C 576.265 -2.81318 4.40065 0
M  V30 6109 H 577.959 -1.37138 2.66146 0
M  V30 6110 H 575.505 -0.658299 1.28072 0
M  V30 6111 H 577.458 -3.71417 1.99067 0
M  V30 6112 H 576.182 -3.14328 0.886891 0
M  V30 6113 H 574.841 -2.30741 2.84876 0
M  V30 6114 H 574.489 -4.62505 1.97732 0
M  V30 6115 H 574.189 -4.53929 3.73125 0
M  V30 6116 H 575.713 -5.24655 3.12362 0
M  V30 6117 H 577.127 -3.48226 4.55425 0
M  V30 6118 H 575.524 -3.01188 5.19043 0
M  V30 6119 H 576.594 -1.7706 4.51418 0
M  V30 6120 N 577.937 -1.40673 -0.710563 0
M  V30 6121 C 579.184 -1.39222 -1.47049 0
M  V30 6122 C 579.512 0.0037691 -1.945 0
M  V30 6123 O 578.767 0.989224 -1.68857 0
M  V30 6124 C 579.066 -2.33253 -2.70791 0
M  V30 6125 C 578.732 -3.80406 -2.42079 0
M  V30 6126 C 577.394 -4.20496 -2.33959 0
M  V30 6127 C 579.746 -4.73375 -2.18094 0
M  V30 6128 C 577.074 -5.51584 -1.99929 0
M  V30 6129 C 579.426 -6.04768 -1.85576 0
M  V30 6130 C 578.09 -6.43895 -1.75941 0
M  V30 6131 H 577.36 -0.509449 -0.538092 0
M  V30 6132 H 580.007 -1.73363 -0.81348 0
M  V30 6133 H 578.312 -1.92314 -3.41354 0
M  V30 6134 H 580.009 -2.29412 -3.28894 0
M  V30 6135 H 576.599 -3.48645 -2.49288 0
M  V30 6136 H 580.783 -4.43217 -2.23321 0
M  V30 6137 H 576.039 -5.80797 -1.91011 0
M  V30 6138 H 580.213 -6.76318 -1.66033 0
M  V30 6139 H 577.84 -7.45387 -1.4934 0
M  V30 6140 N 579.415 0.9433 -1.26252 0
M  V30 6141 C 580.64 1.72898 -1.14547 0
M  V30 6142 C 581.065 1.85761 0.295743 0
M  V30 6143 O 580.423 1.3463 1.21427 0
M  V30 6144 C 580.471 3.11471 -1.8171 0
M  V30 6145 O 579.575 3.97336 -1.10445 0
M  V30 6146 H 578.916 0.530555 -0.399259 0
M  V30 6147 H 581.446 1.18159 -1.67032 0
M  V30 6148 H 581.456 3.61872 -1.88449 0
M  V30 6149 H 580.131 3.01425 -2.86558 0
M  V30 6150 H 578.708 3.55788 -1.11666 0
M  V30 6151 N 580.893 1.08022 1.14757 0
M  V30 6152 C 581.823 0.728248 2.21853 0
M  V30 6153 C 582.804 -0.287486 1.67653 0
M  V30 6154 O 583.989 -0.158727 1.9355 0
M  V30 6155 C 581.119 0.132549 3.47047 0
M  V30 6156 C 580.073 1.07619 4.14249 0
M  V30 6157 C 579.399 0.342907 5.33599 0
M  V30 6158 C 580.699 2.41268 4.63235 0
M  V30 6159 H 582.393 1.62365 2.51551 0
M  V30 6160 H 579.939 0.782125 1.20908 0
M  V30 6161 H 581.892 -0.125665 4.21213 0
M  V30 6162 H 580.616 -0.797971 3.16702 0
M  V30 6163 H 579.275 1.31944 3.42033 0
M  V30 6164 H 578.923 -0.59129 4.99513 0
M  V30 6165 H 578.623 0.971955 5.79506 0
M  V30 6166 H 580.147 0.0926538 6.1053 0
M  V30 6167 H 581.561 2.21232 5.28894 0
M  V30 6168 H 579.958 2.9983 5.19829 0
M  V30 6169 H 581.028 3.03079 3.78512 0
M  V30 6170 N 582.371 -1.3172 0.865308 0
M  V30 6171 C 583.619 -1.96487 0.472995 0
M  V30 6172 C 583.94 -1.68761 -0.976975 0
M  V30 6173 O 583.21 -1.00051 -1.68424 0
M  V30 6174 H 581.79 -0.726947 0.171922 0
M  V30 6175 H 584.452 -1.60612 1.10407 0
M  V30 6176 H 583.548 -3.0574 0.62687 0
M  V30 6177 N 583.85 -0.624285 -1.44708 0
M  V30 6178 C 585.08 -0.132726 -2.06173 0
M  V30 6179 C 585.488 1.19513 -1.46674 0
M  V30 6180 O 584.831 1.74254 -0.581491 0
M  V30 6181 C 584.893 0.0636732 -3.59444 0
M  V30 6182 C 584.557 -1.18496 -4.4137 0
M  V30 6183 C 585.553 -2.10706 -4.75288 0
M  V30 6184 C 583.239 -1.41846 -4.81856 0
M  V30 6185 C 585.233 -3.24582 -5.48567 0
M  V30 6186 C 582.92 -2.5602 -5.54885 0
M  V30 6187 C 583.918 -3.47215 -5.88159 0
M  V30 6188 O 583.606 -4.59399 -6.59703 0
M  V30 6189 H 583.338 -0.0737313 -0.671967 0
M  V30 6190 H 585.892 -0.856789 -1.86677 0
M  V30 6191 H 584.122 0.842809 -3.77404 0
M  V30 6192 H 585.811 0.508924 -4.02697 0
M  V30 6193 H 586.577 -1.93898 -4.44554 0
M  V30 6194 H 582.456 -0.717556 -4.55381 0
M  V30 6195 H 586 -3.95785 -5.74456 0
M  V30 6196 H 581.897 -2.72774 -5.85034 0
M  V30 6197 H 582.665 -4.58293 -6.78166 0
M  V30 6198 N 585.328 1.53329 -0.364422 0
M  V30 6199 C 586.278 2.22472 0.499024 0
M  V30 6200 C 587.262 1.21952 1.0496 0
M  V30 6201 O 588.454 1.47405 0.979836 0
M  V30 6202 C 585.583 3.01659 1.6388 0
M  V30 6203 C 584.669 4.09555 1.10116 0
M  V30 6204 N 585.06 5.04988 0.286414 0
M  V30 6205 C 583.358 4.2424 1.37608 0
M  V30 6206 C 584.059 5.81699 -0.00781682 0
M  V30 6207 N 583.035 5.40394 0.589494 0
M  V30 6208 H 586.837 2.93611 -0.130284 0
M  V30 6209 H 584.351 1.61483 -0.172377 0
M  V30 6210 H 586.348 3.4971 2.26954 0
M  V30 6211 H 585.008 2.32051 2.27118 0
M  V30 6212 H 586.019 5.17847 -0.0742839 0
M  V30 6213 H 582.696 3.65858 2.01133 0
M  V30 6214 H 584.086 6.68587 -0.666394 0
M  V30 6215 N 586.806 0.0935595 1.57322 0
M  V30 6216 C 587.738 -0.895923 2.10964 0
M  V30 6217 C 588.751 -1.24705 1.04654 0
M  V30 6218 O 589.94 -1.20044 1.32105 0
M  V30 6219 C 587.04 -2.20546 2.57318 0
M  V30 6220 C 586.213 -2.0299 3.87445 0
M  V30 6221 C 585.272 -3.17443 4.19662 0
M  V30 6222 O 584.298 -2.91474 4.88909 0
M  V30 6223 N 585.5 -4.43168 3.74943 0
M  V30 6224 H 588.265 -0.437788 2.96485 0
M  V30 6225 H 585.826 -0.0915863 1.61641 0
M  V30 6226 H 587.818 -2.9606 2.75917 0
M  V30 6227 H 586.388 -2.57789 1.76816 0
M  V30 6228 H 585.608 -1.11815 3.78009 0
M  V30 6229 H 586.896 -1.88535 4.7258 0
M  V30 6230 H 586.294 -4.67149 3.19043 0
M  V30 6231 H 584.851 -5.15637 3.987 0
M  V30 6232 N 588.284 -1.56567 -0.180126 0
M  V30 6233 C 589.509 -1.85975 -0.918041 0
M  V30 6234 C 589.934 -0.678888 -1.75422 0
M  V30 6235 O 589.292 0.372168 -1.77439 0
M  V30 6236 C 589.34 -3.13731 -1.77779 0
M  V30 6237 O 588.444 -2.95335 -2.87838 0
M  V30 6238 H 587.785 -0.61196 -0.257683 0
M  V30 6239 H 590.315 -2.03798 -0.180923 0
M  V30 6240 H 590.325 -3.4491 -2.17948 0
M  V30 6241 H 589 -3.99293 -1.16352 0
M  V30 6242 H 587.577 -2.7549 -2.51316 0
M  V30 6243 N 589.762 0.448376 -1.51087 0
M  V30 6244 C 591.178 0.783984 -1.39017 0
M  V30 6245 C 591.378 1.96087 -0.463904 0
M  V30 6246 O 590.434 2.52357 0.0850534 0
M  V30 6247 C 591.747 1.07471 -2.80839 0
M  V30 6248 C 593.295 1.17981 -2.89913 0
M  V30 6249 C 593.77 1.50354 -4.32617 0
M  V30 6250 N 595.261 1.57301 -4.35673 0
M  V30 6251 C 595.996 1.839 -5.4311 0
M  V30 6252 N 595.492 2.08365 -6.60724 0
M  V30 6253 N 597.285 1.8559 -5.30578 0
M  V30 6254 H 589.436 -0.326881 -2.0987 0
M  V30 6255 H 591.699 -0.0838006 -0.944289 0
M  V30 6256 H 591.405 0.282768 -3.50561 0
M  V30 6257 H 591.279 2.00519 -3.19487 0
M  V30 6258 H 593.666 1.9624 -2.20395 0
M  V30 6259 H 593.747 0.228603 -2.54776 0
M  V30 6260 H 593.391 0.726273 -5.0268 0
M  V30 6261 H 593.321 2.46663 -4.65258 0
M  V30 6262 H 595.812 1.40342 -3.50874 0
M  V30 6263 H 596.125 2.27999 -7.38401 0
M  V30 6264 H 594.47 2.0571 -6.63859 0
M  V30 6265 H 597.661 1.65989 -4.37682 0
M  V30 6266 H 597.834 2.05983 -6.1439 0
M  V30 6267 N 591.24 1.41047 0.703093 0
M  V30 6268 C 592.486 1.41209 1.46396 0
M  V30 6269 C 592.841 0.0180188 1.92392 0
M  V30 6270 O 592.134 -0.954739 1.66118 0
M  V30 6271 C 592.328 2.34686 2.6955 0
M  V30 6272 C 592.157 3.83044 2.35601 0
M  V30 6273 C 590.927 4.51777 2.26331 0
M  V30 6274 C 593.125 4.74215 1.9906 0
M  V30 6275 N 591.107 5.85302 1.85188 0
M  V30 6276 C 592.478 5.96631 1.68616 0
M  V30 6277 C 594.533 4.61932 1.85805 0
M  V30 6278 C 593.236 7.08134 1.26249 0
M  V30 6279 C 595.262 5.73389 1.44842 0
M  V30 6280 C 594.624 6.94899 1.15304 0
M  V30 6281 H 590.723 0.571951 0.533288 0
M  V30 6282 H 593.307 1.76859 0.814179 0
M  V30 6283 H 591.478 2.01143 3.32259 0
M  V30 6284 H 593.21 2.25618 3.35974 0
M  V30 6285 H 589.965 4.05618 2.44482 0
M  V30 6286 H 590.389 6.56049 1.67119 0
M  V30 6287 H 595.031 3.68494 2.07298 0
M  V30 6288 H 592.749 8.01445 1.035 0
M  V30 6289 H 596.335 5.65886 1.35146 0
M  V30 6290 H 595.215 7.79679 0.840854 0
M  V30 6291 N 592.718 -0.936591 1.26751 0
M  V30 6292 C 593.666 -2.0573 1.08527 0
M  V30 6293 C 594.66 -1.69397 0.0108784 0
M  V30 6294 O 595.866 -1.79215 0.167915 0
M  V30 6295 H 592.241 -0.673691 0.334133 0
M  V30 6296 H 594.212 -2.1825 2.03493 0
M  V30 6297 C 592.961 -3.39738 0.739845 0
M  V30 6298 H 592.284 -3.68174 1.55845 0
M  V30 6299 H 593.724 -4.18955 0.652149 0
M  V30 6300 C 592.183 -3.32292 -0.555288 0
M  V30 6301 O 592.713 -3.68794 -1.59229 0
M  V30 6302 N 590.919 -2.85394 -0.54762 0
M  V30 6303 H 590.466 -2.55886 0.296667 0
M  V30 6304 H 590.424 -2.80795 -1.41427 0
M  V30 6305 N 594.196 -1.08629 -1.14182 0
M  V30 6306 C 595.426 -0.837673 -1.88856 0
M  V30 6307 C 595.834 0.614024 -1.78959 0
M  V30 6308 O 595.177 1.43384 -1.14833 0
M  V30 6309 C 595.239 -1.18355 -3.39459 0
M  V30 6310 C 594.903 -2.63848 -3.73139 0
M  V30 6311 C 595.9 -3.62099 -3.73069 0
M  V30 6312 C 593.585 -2.99761 -4.03049 0
M  V30 6313 C 595.579 -4.94292 -4.02435 0
M  V30 6314 C 593.266 -4.32147 -4.32078 0
M  V30 6315 C 594.264 -5.29223 -4.31755 0
M  V30 6316 O 593.952 -6.59229 -4.60079 0
M  V30 6317 H 593.684 -0.301609 -0.604986 0
M  V30 6318 H 596.238 -1.44961 -1.45518 0
M  V30 6319 H 594.468 -0.514628 -3.8326 0
M  V30 6320 H 596.157 -0.915391 -3.95443 0
M  V30 6321 H 596.923 -3.35698 -3.50046 0
M  V30 6322 H 592.802 -2.2484 -4.02453 0
M  V30 6323 H 596.346 -5.70055 -4.02098 0
M  V30 6324 H 592.243 -4.58296 -4.54571 0
M  V30 6325 H 593.011 -6.64578 -4.77785 0
M  V30 6326 N 595.674 1.31259 -0.872281 0
M  V30 6327 C 597.09 1.49283 -0.564521 0
M  V30 6328 C 597.29 1.80243 0.900807 0
M  V30 6329 O 596.346 1.88246 1.68284 0
M  V30 6330 C 597.659 2.62503 -1.46673 0
M  V30 6331 C 599.207 2.76386 -1.46901 0
M  V30 6332 C 599.682 3.92705 -2.35684 0
M  V30 6333 N 601.173 3.99995 -2.33577 0
M  V30 6334 C 601.908 4.89276 -2.98992 0
M  V30 6335 N 601.404 5.83443 -3.73585 0
M  V30 6336 N 603.197 4.82541 -2.88289 0
M  V30 6337 H 595.348 1.09432 -1.82039 0
M  V30 6338 H 597.611 0.540949 -0.77851 0
M  V30 6339 H 597.317 2.46407 -2.50951 0
M  V30 6340 H 597.191 3.58695 -1.16696 0
M  V30 6341 H 599.578 2.91894 -0.433796 0
M  V30 6342 H 599.659 1.80853 -1.80903 0
M  V30 6343 H 599.303 3.77954 -3.39283 0
M  V30 6344 H 599.233 4.87549 -1.99006 0
M  V30 6345 H 601.724 3.32624 -1.7936 0
M  V30 6346 H 602.037 6.48303 -4.20622 0
M  V30 6347 H 600.382 5.83415 -3.77694 0
M  V30 6348 H 603.573 4.07951 -2.2955 0
M  V30 6349 H 603.746 5.51916 -3.39549 0
M  V30 6350 N 597.152 0.631951 1.44375 0
M  V30 6351 C 598.429 0.067646 1.95483 0
M  V30 6352 C 598.809 -1.40683 1.57389 0
M  V30 6353 O 598.157 -2.12167 0.848375 0
M  V30 6354 C 598.367 0.291392 3.47781 0
M  V30 6355 C 599.715 0.185028 4.24197 0
M  V30 6356 O 600.739 0.222803 3.55503 0
M  V30 6357 O 599.598 0.0906642 5.46425 0
M  V30 6358 H 596.692 -0.0218379 0.826712 0
M  V30 6359 H 599.238 0.703711 1.54421 0
M  V30 6360 H 598.01 1.31449 3.68561 0
M  V30 6361 H 597.633 -0.378772 3.95792 0
M  V30 6362 N 598.631 -1.53133 0.372548 0
M  V30 6363 C 599.541 -2.29671 -0.478379 0
M  V30 6364 C 600.557 -1.35913 -1.08644 0
M  V30 6365 O 601.733 -1.68975 -1.09588 0
M  V30 6366 C 598.798 -3.07625 -1.599 0
M  V30 6367 C 597.859 -4.17061 -1.01776 0
M  V30 6368 C 597.092 -4.91289 -2.08497 0
M  V30 6369 O 597.315 -4.65442 -3.29727 0
M  V30 6370 O 596.249 -5.7705 -1.71164 0
M  V30 6371 H 600.075 -3.03355 0.144649 0
M  V30 6372 H 597.66 -1.48773 0.136729 0
M  V30 6373 H 599.542 -3.56281 -2.25038 0
M  V30 6374 H 598.217 -2.3677 -2.2073 0
M  V30 6375 H 597.124 -3.72641 -0.330098 0
M  V30 6376 H 598.457 -4.90102 -0.453915 0
M  V30 6377 N 600.109 -0.101901 -1.5727 0
M  V30 6378 C 601.072 0.840129 -2.13247 0
M  V30 6379 C 602.072 1.20625 -1.06331 0
M  V30 6380 O 603.262 1.13456 -1.32186 0
M  V30 6381 C 600.394 2.13372 -2.65867 0
M  V30 6382 H 601.587 0.353945 -2.97804 0
M  V30 6383 H 599.14 0.147167 -1.55606 0
M  V30 6384 H 599.875 2.66461 -1.84849 0
M  V30 6385 H 599.66 1.88085 -3.44044 0
M  V30 6386 H 601.15 2.80748 -3.09145 0
M  V30 6387 N 601.587 1.56661 0.17182 0
M  V30 6388 C 602.864 1.72838 0.915778 0
M  V30 6389 C 603.244 0.66316 2.00413 0
M  V30 6390 O 602.592 -0.322123 2.26218 0
M  V30 6391 C 602.802 3.16019 1.48097 0
M  V30 6392 C 604.15 3.76962 1.95408 0
M  V30 6393 O 605.174 3.19294 1.57892 0
M  V30 6394 O 604.033 4.78219 2.64516 0
M  V30 6395 H 601.127 0.705797 0.431021 0
M  V30 6396 H 603.673 1.68947 0.159689 0
M  V30 6397 H 602.445 3.85031 0.697618 0
M  V30 6398 H 602.068 3.24234 2.30126 0
M  V30 6399 N 603.065 -0.440357 1.51323 0
M  V30 6400 C 604.311 -1.19181 1.64085 0
M  V30 6401 C 604.644 -1.90936 0.354575 0
M  V30 6402 O 603.919 -1.8347 -0.645675 0
M  V30 6403 C 604.202 -2.2112 2.84215 0
M  V30 6404 C 604.055 -1.53468 4.22809 0
M  V30 6405 C 605.374 -3.22133 2.99864 0
M  V30 6406 H 602.493 -0.431924 0.597169 0
M  V30 6407 H 605.135 -0.481443 1.83799 0
M  V30 6408 H 603.285 -2.81703 2.67537 0
M  V30 6409 H 604.957 -0.962455 4.51148 0
M  V30 6410 H 603.2 -0.837086 4.25647 0
M  V30 6411 H 603.871 -2.27694 5.02852 0
M  V30 6412 H 606.347 -2.71601 3.15233 0
M  V30 6413 H 605.223 -3.90756 3.85488 0
M  V30 6414 H 605.484 -3.88061 2.11804 0
M  V30 6415 N 604.543 -1.41418 -0.695603 0
M  V30 6416 C 605.473 -1.46035 -1.82197 0
M  V30 6417 C 606.454 -0.319025 -1.67082 0
M  V30 6418 O 607.639 -0.530462 -1.86815 0
M  V30 6419 C 604.769 -1.34179 -3.20333 0
M  V30 6420 C 603.723 -2.46123 -3.50154 0
M  V30 6421 C 603.049 -2.19332 -4.87645 0
M  V30 6422 C 604.349 -3.88463 -3.49133 0
M  V30 6423 H 606.043 -2.40303 -1.78591 0
M  V30 6424 H 603.589 -1.15663 -0.857797 0
M  V30 6425 H 605.542 -1.36021 -3.98844 0
M  V30 6426 H 604.266 -0.363952 -3.24566 0
M  V30 6427 H 602.925 -2.43563 -2.73994 0
M  V30 6428 H 602.573 -1.19891 -4.88503 0
M  V30 6429 H 602.273 -2.94344 -5.08562 0
M  V30 6430 H 603.797 -2.22889 -5.68465 0
M  V30 6431 H 605.211 -3.92738 -4.17648 0
M  V30 6432 H 603.608 -4.63158 -3.81582 0
M  V30 6433 H 604.678 -4.16617 -2.48109 0
M  V30 6434 N 606.021 0.929856 -1.27246 0
M  V30 6435 C 606.931 2.0636 -1.11592 0
M  V30 6436 C 607.947 1.73938 -0.046496 0
M  V30 6437 O 609.123 1.9981 -0.252544 0
M  V30 6438 C 606.188 3.38213 -0.762437 0
M  V30 6439 C 605.249 3.84346 -1.9125 0
M  V30 6440 C 604.482 5.09906 -1.57579 0
M  V30 6441 O 604.705 5.68354 -0.482694 0
M  V30 6442 O 603.639 5.51359 -2.41426 0
M  V30 6443 H 607.465 2.22478 -2.0673 0
M  V30 6444 H 605.05 1.04865 -1.06413 0
M  V30 6445 H 606.932 4.1741 -0.57854 0
M  V30 6446 H 605.607 3.23307 0.159439 0
M  V30 6447 H 604.514 3.06045 -2.15144 0
M  V30 6448 H 605.847 4.0379 -2.81451 0
M  V30 6449 N 607.499 1.09233 1.13605 0
M  V30 6450 C 608.745 0.828385 1.8511 0
M  V30 6451 C 609.078 -0.64437 1.83198 0
M  V30 6452 O 608.353 -1.47428 1.26867 0
M  V30 6453 C 608.636 1.36167 3.33363 0
M  V30 6454 C 608.489 2.90038 3.438 0
M  V30 6455 C 609.808 0.993819 4.28732 0
M  V30 6456 H 606.927 0.30239 0.672108 0
M  V30 6457 H 609.569 1.35339 1.33355 0
M  V30 6458 H 607.719 0.9151 3.77569 0
M  V30 6459 H 609.391 3.43128 3.08319 0
M  V30 6460 H 607.634 3.27271 2.84739 0
M  V30 6461 H 608.305 3.22428 4.48045 0
M  V30 6462 H 610.781 1.37893 3.92587 0
M  V30 6463 H 609.657 1.39403 5.30903 0
M  V30 6464 H 609.918 -0.0982206 4.41991 0
M  V30 6465 N 608.977 -1.30795 0.87923 0
M  V30 6466 C 610.254 -1.91145 0.415086 0
M  V30 6467 C 610.634 -1.7995 -1.10368 0
M  V30 6468 O 609.982 -1.21305 -1.93642 0
M  V30 6469 C 610.192 -3.37014 0.906778 0
M  V30 6470 C 611.54 -4.14101 0.938358 0
M  V30 6471 O 612.564 -3.45834 0.853053 0
M  V30 6472 O 611.423 -5.36054 1.06342 0
M  V30 6473 H 608.517 -0.81736 0.125905 0
M  V30 6474 H 611.063 -1.39401 0.967753 0
M  V30 6475 H 609.835 -3.3922 1.95053 0
M  V30 6476 H 609.458 -3.96204 0.332948 0
M  V30 6477 N 610.455 -0.639598 -1.44038 0
M  V30 6478 C 611.387 0.0987684 -2.28987 0
M  V30 6479 C 612.4 0.80058 -1.41755 0
M  V30 6480 O 613.589 0.660611 -1.65826 0
M  V30 6481 C 610.689 1.16242 -3.18341 0
M  V30 6482 C 609.862 0.541447 -4.34036 0
M  V30 6483 C 608.921 1.50017 -5.04362 0
M  V30 6484 O 607.947 1.01403 -5.60095 0
M  V30 6485 N 609.149 2.83441 -5.06598 0
M  V30 6486 H 611.914 -0.630305 -2.92997 0
M  V30 6487 H 609.475 -0.481376 -1.54578 0
M  V30 6488 H 611.467 1.80429 -3.62253 0
M  V30 6489 H 610.037 1.79362 -2.56024 0
M  V30 6490 H 609.257 -0.27923 -3.9321 0
M  V30 6491 H 610.545 0.107379 -5.08687 0
M  V30 6492 H 609.943 3.2551 -4.62666 0
M  V30 6493 H 608.5 3.42966 -5.54272 0
M  V30 6494 N 611.933 1.52934 -0.380664 0
M  V30 6495 C 613.181 2.01069 0.203874 0
M  V30 6496 C 613.502 1.26922 1.4804 0
M  V30 6497 O 612.772 0.386787 1.92044 0
M  V30 6498 H 611.352 0.742882 0.0783279 0
M  V30 6499 H 614.014 1.88099 -0.510368 0
M  V30 6500 H 613.11 3.09258 0.42021 0
M  V30 6501 N 613.412 0.11024 1.57214 0
M  V30 6502 C 614.659 -0.54987 1.94891 0
M  V30 6503 C 614.987 -1.67243 0.992984 0
M  V30 6504 O 614.242 -1.95694 0.0152703 0
M  V30 6505 C 614.541 -1.13102 3.39032 0
M  V30 6506 C 614.207 -0.130713 4.5071 0
M  V30 6507 C 612.869 0.14437 4.80983 0
M  V30 6508 C 615.221 0.551472 5.18274 0
M  V30 6509 C 612.549 1.10807 5.76141 0
M  V30 6510 C 614.901 1.50375 6.14467 0
M  V30 6511 C 613.565 1.78691 6.43138 0
M  V30 6512 H 612.835 -0.201212 0.713158 0
M  V30 6513 H 615.482 0.189288 1.90562 0
M  V30 6514 H 613.787 -1.94675 3.40013 0
M  V30 6515 H 615.484 -1.64973 3.65493 0
M  V30 6516 H 612.074 -0.355301 4.27125 0
M  V30 6517 H 616.258 0.35211 4.95049 0
M  V30 6518 H 611.514 1.3343 5.96663 0
M  V30 6519 H 615.688 2.03808 6.65909 0
M  V30 6520 H 613.315 2.53522 7.1668 0
M  V30 6521 N 614.89 -1.56749 -0.16351 0
M  V30 6522 C 616.167 -1.73321 -0.906599 0
M  V30 6523 C 616.547 -0.673779 -2.00059 0
M  V30 6524 O 615.895 0.310121 -2.26386 0
M  V30 6525 C 616.105 -3.168 -1.46419 0
M  V30 6526 C 617.453 -3.77993 -1.93407 0
M  V30 6527 O 618.477 -3.20127 -1.56196 0
M  V30 6528 O 617.336 -4.79615 -2.61976 0
M  V30 6529 H 614.43 -0.708073 -0.427272 0
M  V30 6530 H 616.976 -1.69029 -0.150727 0
M  V30 6531 H 615.748 -3.85396 -0.677189 0
M  V30 6532 H 615.371 -3.2545 -2.28403 0
M  V30 6533 N 616.368 0.432326 -1.51554 0
M  V30 6534 C 617.645 1.19288 -1.55015 0
M  V30 6535 C 618.025 2.08701 -0.317375 0
M  V30 6536 O 617.373 2.17602 0.697243 0
M  V30 6537 C 617.583 1.99037 -2.86679 0
M  V30 6538 C 618.931 2.55907 -3.38817 0
M  V30 6539 O 619.955 2.09243 -2.88263 0
M  V30 6540 O 618.814 3.41029 -4.27038 0
M  V30 6541 H 615.908 0.543369 -0.623441 0
M  V30 6542 H 618.454 0.440988 -1.6387 0
M  V30 6543 H 617.226 1.33397 -3.6786 0
M  V30 6544 H 616.849 2.81281 -2.8101 0
M  V30 6545 N 617.846 1.41785 0.688094 0
M  V30 6546 C 618.796 1.40684 1.79421 0
M  V30 6547 C 619.78 0.280096 1.58443 0
M  V30 6548 O 620.972 0.521332 1.69148 0
M  V30 6549 C 618.101 1.29874 3.17785 0
M  V30 6550 C 617.187 2.47442 3.44432 0
M  V30 6551 N 617.578 3.72895 3.41736 0
M  V30 6552 C 615.876 2.41416 3.75013 0
M  V30 6553 C 616.577 4.50912 3.67496 0
M  V30 6554 N 615.553 3.81131 3.87608 0
M  V30 6555 H 619.355 2.35591 1.7571 0
M  V30 6556 H 616.869 1.35946 0.888393 0
M  V30 6557 H 618.866 1.27168 3.97031 0
M  V30 6558 H 617.526 0.359587 3.22703 0
M  V30 6559 H 618.537 4.05676 3.21943 0
M  V30 6560 H 615.214 1.56011 3.87256 0
M  V30 6561 H 616.604 5.59865 3.71484 0
M  V30 6562 N 619.324 -0.923095 1.27737 0
M  V30 6563 C 620.272 -2.04567 1.10703 0
M  V30 6564 C 621.266 -1.69375 0.0288445 0
M  V30 6565 O 622.472 -1.79027 0.186913 0
M  V30 6566 H 618.847 -0.670109 0.34126 0
M  V30 6567 H 620.818 -2.1608 2.05796 0
M  V30 6568 C 619.567 -3.38934 0.775837 0
M  V30 6569 H 618.89 -3.66501 1.59741 0
M  V30 6570 H 620.33 -4.18239 0.696548 0
M  V30 6571 C 618.789 -3.32863 -0.520012 0
M  V30 6572 O 619.319 -3.70462 -1.55308 0
M  V30 6573 N 617.525 -2.85958 -0.51732 0
M  V30 6574 H 617.072 -2.55557 0.32379 0
M  V30 6575 H 617.03 -2.82279 -1.38441 0
M  V30 6576 N 620.802 -1.09834 -1.13024 0
M  V30 6577 C 621.732 -0.763451 -2.20666 0
M  V30 6578 C 622.713 0.260778 -1.68089 0
M  V30 6579 O 623.898 0.127915 -1.93778 0
M  V30 6580 C 621.028 -0.187744 -3.46792 0
M  V30 6581 C 619.982 -1.14196 -4.12484 0
M  V30 6582 C 619.308 -0.427755 -5.32986 0
M  V30 6583 C 620.608 -2.48607 -4.59338 0
M  V30 6584 H 622.302 -1.66347 -2.48936 0
M  V30 6585 H 619.848 -0.801261 -1.19649 0
M  V30 6586 H 621.801 0.0586375 -4.21359 0
M  V30 6587 H 620.525 0.747485 -3.17931 0
M  V30 6588 H 619.184 -1.37369 -3.3989 0
M  V30 6589 H 618.832 0.511747 -5.0039 0
M  V30 6590 H 618.532 -1.06403 -5.77886 0
M  V30 6591 H 620.056 -0.189772 -6.10305 0
M  V30 6592 H 621.47 -2.29618 -5.25308 0
M  V30 6593 H 619.867 -3.08062 -5.14993 0
M  V30 6594 H 620.937 -3.09062 -3.73642 0
M  V30 6595 N 622.28 1.30327 -0.886154 0
M  V30 6596 C 623.691 1.78243 -0.555554 0
M  V30 6597 C 624.042 1.72849 0.928314 0
M  V30 6598 O 623.167 1.30607 1.72542 0
M  V30 6599 C 623.762 3.23654 -1.00168 0
M  V30 6600 C 622.321 3.69401 -0.722471 0
M  V30 6601 C 621.468 2.50753 -1.18399 0
M  V30 6602 H 624.419 1.1718 -1.07026 0
M  V30 6603 H 624.44 3.79056 -0.331152 0
M  V30 6604 H 623.952 3.27548 -2.08169 0
M  V30 6605 H 622.053 3.70995 0.345496 0
M  V30 6606 H 622.166 4.60818 -1.31085 0
M  V30 6607 H 620.53 2.47452 -0.603303 0
M  V30 6608 H 621.313 2.57383 -2.27176 0
M  V30 6609 N 623.758 0.647228 1.43697 0
M  V30 6610 C 624.998 0.16171 2.03759 0
M  V30 6611 C 625.362 -1.19951 1.49919 0
M  V30 6612 O 626.563 -1.77808 2.01588 0
M  V30 6613 C 624.834 0.16505 3.57019 0
M  V30 6614 S 626.393 -0.253497 4.38067 0
M  V30 6615 H 623.211 0.0689985 0.707644 0
M  V30 6616 H 625.813 0.854224 1.7585 0
M  V30 6617 H 624.517 1.15858 3.93707 0
M  V30 6618 H 624.048 -0.548194 3.89562 0
M  V30 6619 H 626.063 -1.49385 4.73179 0
M  V30 6620 N 625.236 -1.5273 0.388769 0
M  V30 6621 C 626.513 -1.93981 -0.251133 0
M  V30 6622 C 626.893 -1.32418 -1.64404 0
M  V30 6623 O 626.241 -0.492074 -2.23139 0
M  V30 6624 C 626.451 -3.47891 -0.27802 0
M  V30 6625 C 627.799 -4.21559 -0.507229 0
M  V30 6626 O 628.823 -3.54394 -0.358252 0
M  V30 6627 O 627.682 -5.40626 -0.799094 0
M  V30 6628 H 624.776 -0.812157 -0.15598 0
M  V30 6629 H 627.322 -1.63809 0.443237 0
M  V30 6630 H 626.094 -3.8503 0.697669 0
M  V30 6631 H 625.717 -3.84364 -1.01733 0
M  V30 6632 N 626.714 -0.118576 -1.57153 0
M  V30 6633 C 627.96 0.540326 -1.95469 0
M  V30 6634 C 628.293 1.66356 -1.00196 0
M  V30 6635 O 627.568 1.94461 -0.039104 0
M  V30 6636 C 627.851 1.07342 -3.43729 0
M  V30 6637 C 627.704 -0.0463732 -4.49776 0
M  V30 6638 C 629.023 1.96442 -3.93826 0
M  V30 6639 H 626.142 0.19494 -0.710751 0
M  V30 6640 H 628.784 -0.19405 -1.89006 0
M  V30 6641 H 626.934 1.69925 -3.49368 0
M  V30 6642 H 628.606 -0.681648 -4.56236 0
M  V30 6643 H 626.849 -0.709574 -4.27957 0
M  V30 6644 H 627.52 0.367856 -5.50773 0
M  V30 6645 H 629.996 1.43731 -3.90488 0
M  V30 6646 H 628.872 2.3066 -4.98084 0
M  V30 6647 H 629.133 2.89077 -3.34495 0
M  V30 6648 N 628.193 1.56834 0.155195 0
M  V30 6649 C 629.442 1.82088 0.867567 0
M  V30 6650 C 629.755 0.69849 1.82703 0
M  V30 6651 O 630.961 0.836407 2.58295 0
M  V30 6652 C 629.417 3.22707 1.59336 0
M  V30 6653 C 629.025 4.42859 0.676719 0
M  V30 6654 C 630.769 3.57242 2.293 0
M  V30 6655 C 628.676 5.74501 1.40367 0
M  V30 6656 H 627.606 0.679057 0.327715 0
M  V30 6657 H 630.257 1.83105 0.120351 0
M  V30 6658 H 628.639 3.16054 2.38591 0
M  V30 6659 H 629.813 4.60731 -0.0800196 0
M  V30 6660 H 628.128 4.16311 0.0859129 0
M  V30 6661 H 630.725 4.52847 2.84312 0
M  V30 6662 H 631.068 2.82901 3.05406 0
M  V30 6663 H 631.601 3.6552 1.56972 0
M  V30 6664 H 628.34 6.51915 0.684623 0
M  V30 6665 H 627.86 5.60579 2.13332 0
M  V30 6666 H 629.539 6.17016 1.94681 0
M  V30 6667 N 629.671 -0.424282 1.51781 0
M  V30 6668 C 630.917 -1.17117 1.66298 0
M  V30 6669 C 631.272 -1.88595 0.380767 0
M  V30 6670 O 630.565 -1.81151 -0.624094 0
M  V30 6671 C 630.759 -2.20418 2.81337 0
M  V30 6672 C 630.588 -1.59081 4.20622 0
M  V30 6673 C 629.358 -1.37007 4.86371 0
M  V30 6674 C 631.556 -1.05992 5.0326 0
M  V30 6675 N 629.538 -0.714049 6.09733 0
M  V30 6676 C 630.909 -0.529933 6.17731 0
M  V30 6677 C 632.964 -0.952927 4.88696 0
M  V30 6678 C 631.667 0.0965457 7.19235 0
M  V30 6679 C 633.693 -0.340325 5.9042 0
M  V30 6680 C 633.055 0.179057 7.04172 0
M  V30 6681 H 629.154 -0.41577 0.662314 0
M  V30 6682 H 631.738 -0.46579 1.89046 0
M  V30 6683 H 629.909 -2.8833 2.60231 0
M  V30 6684 H 631.641 -2.8736 2.84968 0
M  V30 6685 H 628.396 -1.63543 4.44467 0
M  V30 6686 H 628.82 -0.403101 6.75799 0
M  V30 6687 H 633.462 -1.34033 4.00993 0
M  V30 6688 H 631.18 0.496044 8.06576 0
M  V30 6689 H 634.766 -0.259266 5.81222 0
M  V30 6690 H 633.646 0.645626 7.81538 0
M  V30 6691 N 631.149 -1.42148 -0.680565 0
M  V30 6692 C 632.079 -1.4796 -1.80638 0
M  V30 6693 C 633.06 -0.336728 -1.66734 0
M  V30 6694 O 634.245 -0.550247 -1.86242 0
M  V30 6695 C 631.375 -1.37569 -3.18892 0
M  V30 6696 C 630.329 -2.49823 -3.47524 0
M  V30 6697 C 629.655 -2.24491 -4.85291 0
M  V30 6698 C 630.955 -3.92144 -3.44994 0
M  V30 6699 H 632.649 -2.42184 -1.76032 0
M  V30 6700 H 630.195 -1.16566 -0.845481 0
M  V30 6701 H 632.148 -1.40243 -3.97379 0
M  V30 6702 H 630.872 -0.398357 -3.24162 0
M  V30 6703 H 629.531 -2.46455 -2.71395 0
M  V30 6704 H 629.179 -1.25066 -4.87204 0
M  V30 6705 H 628.879 -2.99722 -5.05411 0
M  V30 6706 H 630.403 -2.28906 -5.66069 0
M  V30 6707 H 631.817 -3.97145 -4.13459 0
M  V30 6708 H 630.214 -4.67179 -3.76648 0
M  V30 6709 H 631.284 -4.19225 -2.43676 0
M  V30 6710 N 632.627 0.916307 -1.28225 0
M  V30 6711 C 633.904 1.64429 -1.05936 0
M  V30 6712 C 634.284 2.07234 0.402139 0
M  V30 6713 O 633.632 1.81535 1.3877 0
M  V30 6714 C 633.842 2.83773 -2.03159 0
M  V30 6715 C 635.19 3.54852 -2.33164 0
M  V30 6716 O 636.214 2.93918 -2.01223 0
M  V30 6717 O 635.073 4.64663 -2.87664 0
M  V30 6718 H 632.167 0.721221 -0.404683 0
M  V30 6719 H 634.713 0.965838 -1.39534 0
M  V30 6720 H 633.485 2.49217 -3.01673 0
M  V30 6721 H 633.108 3.59333 -1.70192 0
M  V30 6722 N 634.105 1.10431 1.1244 0
M  V30 6723 C 635.354 0.841539 1.83306 0
M  V30 6724 C 635.667 -0.634961 1.85007 0
M  V30 6725 O 636.873 -1.01363 2.51869 0
M  V30 6726 C 635.329 1.45565 3.29149 0
M  V30 6727 C 634.937 2.96544 3.35806 0
M  V30 6728 C 636.681 1.27227 4.04986 0
M  V30 6729 C 634.588 3.5099 4.75983 0
M  V30 6730 H 633.518 0.311156 0.686803 0
M  V30 6731 H 636.169 1.32829 1.26604 0
M  V30 6732 H 634.551 0.896574 3.85717 0
M  V30 6733 H 635.725 3.58766 2.89177 0
M  V30 6734 H 634.04 3.14036 2.73442 0
M  V30 6735 H 636.637 1.65348 5.08492 0
M  V30 6736 H 636.98 0.213834 4.1575 0
M  V30 6737 H 637.513 1.79941 3.54776 0
M  V30 6738 H 634.252 4.56499 4.70413 0
M  V30 6739 H 633.772 2.93535 5.23065 0
M  V30 6740 H 635.451 3.48808 5.44924 0
M  V30 6741 N 635.583 -1.29855 0.893053 0
M  V30 6742 C 636.493 -2.31661 0.370157 0
M  V30 6743 C 637.509 -1.65677 -0.531723 0
M  V30 6744 O 638.685 -1.9691 -0.422902 0
M  V30 6745 C 635.75 -3.44388 -0.399741 0
M  V30 6746 C 634.811 -4.2598 0.532861 0
M  V30 6747 C 634.044 -5.33324 -0.200388 0
M  V30 6748 O 634.267 -5.52305 -1.42531 0
M  V30 6749 O 633.201 -6.00188 0.453668 0
M  V30 6750 H 637.027 -2.78354 1.2146 0
M  V30 6751 H 634.612 -1.34171 0.657153 0
M  V30 6752 H 636.494 -4.13037 -0.835358 0
M  V30 6753 H 635.169 -2.99815 -1.22035 0
M  V30 6754 H 634.076 -3.59998 1.01746 0
M  V30 6755 H 635.409 -4.74178 1.3197 0
M  V30 6756 N 637.061 -0.65484 -1.43351 0
M  V30 6757 C 638.011 0.0581325 -2.27926 0
M  V30 6758 C 638.995 0.793188 -1.3999 0
M  V30 6759 O 640.187 0.675387 -1.63608 0
M  V30 6760 C 637.316 1.02272 -3.27712 0
M  V30 6761 C 636.402 0.286048 -4.23134 0
M  V30 6762 N 636.793 -0.698298 -5.00957 0
M  V30 6763 C 635.091 0.527272 -4.42872 0
M  V30 6764 C 635.792 -1.1357 -5.70506 0
M  V30 6765 N 634.768 -0.469631 -5.41568 0
M  V30 6766 H 638.57 -0.697182 -2.85511 0
M  V30 6767 H 636.084 -0.482252 -1.55074 0
M  V30 6768 H 638.081 1.5483 -3.87083 0
M  V30 6769 H 636.741 1.77807 -2.71688 0
M  V30 6770 H 637.752 -1.07708 -5.06576 0
M  V30 6771 H 634.429 1.26367 -3.97916 0
M  V30 6772 H 635.819 -1.95027 -6.42973 0
M  V30 6773 N 638.539 1.52521 -0.396863 0
M  V30 6774 C 639.502 2.2527 0.422604 0
M  V30 6775 C 640.502 1.27184 0.983913 0
M  V30 6776 O 641.692 1.51222 0.864723 0
M  V30 6777 C 638.824 3.01356 1.59365 0
M  V30 6778 H 640.017 2.99133 -0.214416 0
M  V30 6779 H 637.57 1.55587 -0.149128 0
M  V30 6780 H 638.305 2.31813 2.26789 0
M  V30 6781 H 638.09 3.73357 1.19779 0
M  V30 6782 H 639.58 3.56571 2.17363 0
M  V30 6783 N 640.017 0.126909 1.57088 0
M  V30 6784 C 641.294 -0.573152 1.87014 0
M  V30 6785 C 641.674 -1.84297 1.02945 0
M  V30 6786 O 641.022 -2.28232 0.110573 0
M  V30 6787 C 641.232 -0.857984 3.38289 0
M  V30 6788 C 642.58 -1.20759 4.07066 0
M  V30 6789 O 643.604 -0.947992 3.43353 0
M  V30 6790 O 642.463 -1.69516 5.19545 0
M  V30 6791 H 639.557 -0.290082 0.774456 0
M  V30 6792 H 642.103 0.162008 1.68925 0
M  V30 6793 H 640.875 0.0415286 3.91278 0
M  V30 6794 H 640.498 -1.64803 3.61837 0
M  V30 6795 N 641.495 -1.56914 -0.146875 0
M  V30 6796 C 642.743 -1.82994 -0.85777 0
M  V30 6797 C 643.064 -0.707814 -1.817 0
M  V30 6798 O 642.334 0.270521 -1.94023 0
M  V30 6799 H 640.914 -0.675106 -0.319751 0
M  V30 6800 H 643.576 -1.9439 -0.140849 0
M  V30 6801 H 642.672 -2.77928 -1.41994 0
M  V30 6802 N 642.974 0.416227 -1.52004 0
M  V30 6803 C 643.921 1.50666 -1.74838 0
M  V30 6804 C 644.891 1.55245 -0.590599 0
M  V30 6805 O 646.076 1.71928 -0.827374 0
M  V30 6806 C 643.216 2.88185 -1.89851 0
M  V30 6807 C 642.329 2.92971 -3.17478 0
M  V30 6808 C 641.464 4.21745 -3.22962 0
M  V30 6809 C 640.503 4.20478 -4.4482 0
M  V30 6810 N 639.64 5.40811 -4.47736 0
M  V30 6811 H 644.48 1.30498 -2.67907 0
M  V30 6812 H 642.017 0.633568 -1.32757 0
M  V30 6813 H 643.975 3.68007 -1.96537 0
M  V30 6814 H 642.605 3.06865 -1.00169 0
M  V30 6815 H 641.657 2.05684 -3.19997 0
M  V30 6816 H 642.969 2.87899 -4.07328 0
M  V30 6817 H 642.123 5.09954 -3.28682 0
M  V30 6818 H 640.862 4.29503 -2.31038 0
M  V30 6819 H 639.867 3.30659 -4.39254 0
M  V30 6820 H 641.092 4.14366 -5.38031 0
M  V30 6821 H 639.038 5.4925 -3.58692 0
M  V30 6822 H 638.955 5.37705 -5.31422 0
M  V30 6823 H 640.223 6.30993 -4.57676 0
M  V30 6824 N 644.452 1.42507 0.673017 0
M  V30 6825 C 645.868 1.25472 0.986355 0
M  V30 6826 C 646.068 0.160181 2.00862 0
M  V30 6827 O 645.124 -0.467993 2.48125 0
M  V30 6828 C 646.437 2.61219 1.48947 0
M  V30 6829 C 647.985 2.68589 1.60715 0
M  V30 6830 C 648.46 4.04707 2.14422 0
M  V30 6831 N 649.951 4.0667 2.21752 0
M  V30 6832 C 650.686 5.0881 2.64386 0
M  V30 6833 N 650.182 6.21332 3.0646 0
M  V30 6834 N 651.975 4.96166 2.64151 0
M  V30 6835 H 644.126 2.124 -0.00378532 0
M  V30 6836 H 646.389 0.946046 0.0608367 0
M  V30 6837 H 646.095 3.42179 0.812812 0
M  V30 6838 H 645.969 2.85261 2.46791 0
M  V30 6839 H 648.356 1.87974 2.27486 0
M  V30 6840 H 648.437 2.48333 0.613552 0
M  V30 6841 H 648.081 4.8578 1.48258 0
M  V30 6842 H 648.011 4.22315 3.14575 0
M  V30 6843 H 650.502 3.25438 1.92089 0
M  V30 6844 H 650.815 6.95118 3.37684 0
M  V30 6845 H 649.16 6.24835 3.04313 0
M  V30 6846 H 652.351 4.07334 2.30644 0
M  V30 6847 H 652.524 5.759 2.97057 0
M  V30 6848 N 645.93 -0.909495 1.28709 0
M  V30 6849 C 647.16 -1.69027 1.188 0
M  V30 6850 C 647.568 -1.87469 -0.255329 0
M  V30 6851 O 646.911 -1.40458 -1.18394 0
M  V30 6852 C 646.973 -3.10064 1.81936 0
M  V30 6853 C 646.637 -3.14891 3.31199 0
M  V30 6854 C 647.634 -2.95768 4.27571 0
M  V30 6855 C 645.319 -3.37269 3.7223 0
M  V30 6856 C 647.313 -2.98942 5.6295 0
M  V30 6857 C 645 -3.40074 5.07733 0
M  V30 6858 C 645.998 -3.20932 6.02903 0
M  V30 6859 O 645.686 -3.23507 7.35934 0
M  V30 6860 H 645.418 -0.535014 0.413203 0
M  V30 6861 H 647.972 -1.14645 1.70428 0
M  V30 6862 H 646.202 -3.66005 1.24808 0
M  V30 6863 H 647.891 -3.70185 1.66486 0
M  V30 6864 H 648.657 -2.78302 3.97206 0
M  V30 6865 H 644.536 -3.51212 2.98615 0
M  V30 6866 H 648.08 -2.83919 6.37209 0
M  V30 6867 H 643.977 -3.5707 5.37747 0
M  V30 6868 H 644.745 -3.3984 7.44615 0
M  V30 6869 N 647.408 -1.11026 -1.11852 0
M  V30 6870 C 648.655 -0.85646 -1.83497 0
M  V30 6871 C 648.983 0.617938 -1.84423 0
M  V30 6872 O 648.238 1.47194 -1.28966 0
M  V30 6873 C 648.537 -1.35777 -3.30604 0
M  V30 6874 C 648.203 -2.84465 -3.49843 0
M  V30 6875 C 646.865 -3.25068 -3.54802 0
M  V30 6876 C 649.217 -3.80251 -3.56453 0
M  V30 6877 C 646.545 -4.60194 -3.63921 0
M  V30 6878 C 648.897 -5.15188 -3.67102 0
M  V30 6879 C 647.561 -5.55356 -3.70319 0
M  V30 6880 H 646.831 -0.313401 -0.671462 0
M  V30 6881 H 649.478 -1.38792 -1.31943 0
M  V30 6882 H 647.783 -0.746455 -3.84624 0
M  V30 6883 H 649.48 -1.13779 -3.8452 0
M  V30 6884 H 646.07 -2.52054 -3.46651 0
M  V30 6885 H 650.254 -3.49986 -3.51886 0
M  V30 6886 H 645.51 -4.90728 -3.64686 0
M  V30 6887 H 649.684 -5.89248 -3.71159 0
M  V30 6888 H 647.311 -6.60054 -3.77138 0
M  V30 6889 N 648.886 1.2938 -0.899927 0
M  V30 6890 C 650.114 1.99691 -0.541386 0
M  V30 6891 C 650.529 1.67355 0.873936 0
M  V30 6892 O 649.886 0.918728 1.57688 0
M  V30 6893 C 649.937 3.54168 -0.72438 0
M  V30 6894 O 649.658 3.85359 -2.08399 0
M  V30 6895 C 651.159 4.41746 -0.370819 0
M  V30 6896 H 648.379 0.638037 -0.207726 0
M  V30 6897 H 650.923 1.6491 -1.20934 0
M  V30 6898 H 649.078 3.87261 -0.103607 0
M  V30 6899 H 649.492 4.80032 -2.11352 0
M  V30 6900 H 650.966 5.49256 -0.549693 0
M  V30 6901 H 651.443 4.33712 0.692148 0
M  V30 6902 H 652.049 4.14125 -0.968543 0
M  V30 6903 N 650.364 0.662433 1.43002 0
M  V30 6904 C 651.61 0.188492 2.02525 0
M  V30 6905 C 651.965 -1.18752 1.51379 0
M  V30 6906 O 651.258 -1.78313 0.701065 0
M  V30 6907 C 651.452 0.149363 3.57088 0
M  V30 6908 C 651.281 1.52004 4.23231 0
M  V30 6909 C 650.051 2.11473 4.5892 0
M  V30 6910 C 652.249 2.46028 4.51635 0
M  V30 6911 N 650.231 3.4145 5.10181 0
M  V30 6912 C 651.602 3.60647 5.04315 0
M  V30 6913 C 653.657 2.44715 4.33612 0
M  V30 6914 C 652.36 4.74189 5.40867 0
M  V30 6915 C 654.386 3.57344 4.71232 0
M  V30 6916 C 653.748 4.70689 5.24053 0
M  V30 6917 H 649.847 0.113615 0.773703 0
M  V30 6918 H 652.431 0.872738 1.74044 0
M  V30 6919 H 650.602 -0.504255 3.85113 0
M  V30 6920 H 652.334 -0.336307 4.033 0
M  V30 6921 H 649.089 1.64087 4.44266 0
M  V30 6922 H 649.513 4.07987 5.40255 0
M  V30 6923 H 654.155 1.58318 3.9204 0
M  V30 6924 H 651.873 5.61271 5.81378 0
M  V30 6925 H 655.459 3.5754 4.58973 0
M  V30 6926 H 654.339 5.56398 5.52621 0
M  V30 6927 N 651.842 -1.52309 0.404946 0
M  V30 6928 C 653.119 -1.94237 -0.230544 0
M  V30 6929 C 653.499 -1.34154 -1.6299 0
M  V30 6930 O 652.847 -0.515713 -2.22604 0
M  V30 6931 C 653.057 -3.48166 -0.241106 0
M  V30 6932 C 654.405 -4.22074 -0.462488 0
M  V30 6933 O 655.429 -3.54754 -0.320644 0
M  V30 6934 O 654.288 -5.41443 -0.741708 0
M  V30 6935 H 651.382 -0.813766 -0.147358 0
M  V30 6936 H 653.928 -1.6333 0.460587 0
M  V30 6937 H 652.7 -3.84269 0.738467 0
M  V30 6938 H 652.323 -3.85422 -0.97651 0
M  V30 6939 N 653.32 -0.135238 -1.57019 0
M  V30 6940 C 654.731 0.387521 -1.82634 0
M  V30 6941 C 655.082 1.65528 -1.05332 0
M  V30 6942 O 654.207 2.14381 -0.294926 0
M  V30 6943 C 654.802 0.709852 -3.3128 0
M  V30 6944 C 653.361 1.17718 -3.57518 0
M  V30 6945 C 652.508 0.194183 -2.76619 0
M  V30 6946 H 655.459 -0.360126 -1.5456 0
M  V30 6947 H 655.48 1.5657 -3.46794 0
M  V30 6948 H 654.992 -0.213024 -3.87515 0
M  V30 6949 H 653.093 2.1164 -3.06658 0
M  V30 6950 H 653.206 1.11128 -4.66034 0
M  V30 6951 H 651.57 0.684478 -2.4533 0
M  V30 6952 H 652.353 -0.722076 -3.3562 0
M  V30 6953 N 654.798 1.5699 0.138552 0
M  V30 6954 C 656.023 1.88344 0.86841 0
M  V30 6955 C 656.448 0.725159 1.7356 0
M  V30 6956 O 655.806 -0.324992 1.78363 0
M  V30 6957 C 655.854 3.18334 1.69398 0
M  V30 6958 O 654.958 3.02863 2.79907 0
M  V30 6959 H 654.299 0.618577 0.241367 0
M  V30 6960 H 656.829 2.04207 0.126826 0
M  V30 6961 H 656.839 3.50567 2.08726 0
M  V30 6962 H 655.514 4.02238 1.05725 0
M  V30 6963 H 654.091 2.82056 2.43924 0
M  V30 6964 N 656.276 -0.40816 1.52223 0
M  V30 6965 C 657.692 -0.74685 1.41047 0
M  V30 6966 C 657.892 -1.94788 0.51573 0
M  V30 6967 O 656.948 -2.52494 -0.0181156 0
M  V30 6968 C 658.261 -0.999878 2.83589 0
M  V30 6969 C 659.809 -1.10253 2.92939 0
M  V30 6970 C 660.284 -1.38832 4.36451 0
M  V30 6971 N 661.775 -1.45694 4.3969 0
M  V30 6972 C 662.51 -1.69435 5.47795 0
M  V30 6973 N 662.006 -1.90774 6.66016 0
M  V30 6974 N 663.799 -1.71458 5.35312 0
M  V30 6975 H 655.95 0.382409 2.08929 0
M  V30 6976 H 658.213 0.108807 0.941735 0
M  V30 6977 H 657.919 -0.189723 3.51188 0
M  V30 6978 H 657.793 -1.91978 3.24691 0
M  V30 6979 H 660.18 -1.90328 2.2552 0
M  V30 6980 H 660.261 -0.160973 2.55293 0
M  V30 6981 H 659.905 -0.592741 5.04429 0
M  V30 6982 H 659.835 -2.34241 4.71634 0
M  V30 6983 H 662.326 -1.3099 3.54472 0
M  V30 6984 H 662.639 -2.08342 7.44186 0
M  V30 6985 H 660.984 -1.88037 6.69079 0
M  V30 6986 H 664.175 -1.54326 4.41929 0
M  V30 6987 H 664.348 -1.89621 6.19635 0
M  V30 6988 N 657.755 -1.42862 -0.66545 0
M  V30 6989 C 659.002 -1.4383 -1.42546 0
M  V30 6990 C 659.33 -0.0581114 -1.94413 0
M  V30 6991 O 658.585 0.935002 -1.71919 0
M  V30 6992 C 658.884 -2.4175 -2.63233 0
M  V30 6993 C 658.55 -3.87915 -2.29854 0
M  V30 6994 C 657.212 -4.27726 -2.20463 0
M  V30 6995 C 659.564 -4.80074 -2.02924 0
M  V30 6996 C 656.892 -5.57666 -1.82279 0
M  V30 6997 C 659.244 -6.10366 -1.66242 0
M  V30 6998 C 657.908 -6.49167 -1.55367 0
M  V30 6999 H 657.178 -0.52631 -0.521612 0
M  V30 7000 H 659.825 -1.75863 -0.757914 0
M  V30 7001 H 658.13 -2.03077 -3.35063 0
M  V30 7002 H 659.827 -2.39759 -3.21429 0
M  V30 7003 H 656.417 -3.564 -2.3807 0
M  V30 7004 H 660.601 -4.50097 -2.09108 0
M  V30 7005 H 655.857 -5.8658 -1.72436 0
M  V30 7006 H 660.031 -6.81258 -1.44432 0
M  V30 7007 H 657.658 -7.49761 -1.2555 0
M  V30 7008 N 659.233 0.902656 -1.29189 0
M  V30 7009 C 660.644 1.46809 -1.15343 0
M  V30 7010 C 660.995 1.94568 0.252517 0
M  V30 7011 O 660.12 1.83454 1.14777 0
M  V30 7012 C 660.715 2.66829 -2.08776 0
M  V30 7013 C 659.274 3.19518 -1.98961 0
M  V30 7014 C 658.421 1.92212 -1.99874 0
M  V30 7015 H 661.372 0.714282 -1.41717 0
M  V30 7016 H 661.393 3.42465 -1.65826 0
M  V30 7017 H 660.905 2.32039 -3.11094 0
M  V30 7018 H 659.006 3.59008 -0.99721 0
M  V30 7019 H 659.119 3.84016 -2.86477 0
M  V30 7020 H 657.483 2.0979 -1.44431 0
M  V30 7021 H 658.266 1.59702 -3.03891 0
M  V30 7022 N 660.711 1.11618 1.11262 0
M  V30 7023 C 661.643 0.734015 2.17129 0
M  V30 7024 C 662.656 -0.235243 1.61091 0
M  V30 7025 O 663.845 -0.0178597 1.78491 0
M  V30 7026 C 660.945 0.0643682 3.38839 0
M  V30 7027 C 660.118 1.06092 4.24339 0
M  V30 7028 C 659.177 0.420482 5.24517 0
M  V30 7029 O 658.203 1.07495 5.58957 0
M  V30 7030 N 659.405 -0.815828 5.74739 0
M  V30 7031 H 662.17 1.64492 2.50524 0
M  V30 7032 H 659.731 1.00664 1.26801 0
M  V30 7033 H 661.723 -0.375851 4.02951 0
M  V30 7034 H 660.293 -0.749147 3.03491 0
M  V30 7035 H 659.513 1.67903 3.56654 0
M  V30 7036 H 660.801 1.73507 4.78302 0
M  V30 7037 H 660.199 -1.36668 5.48943 0
M  V30 7038 H 658.756 -1.199 6.40677 0
M  V30 7039 N 662.189 -1.289 0.906776 0
M  V30 7040 C 663.6 -1.77336 0.58384 0
M  V30 7041 C 663.951 -1.74304 -0.900697 0
M  V30 7042 O 663.076 -1.33335 -1.70443 0
M  V30 7043 C 663.671 -3.22019 1.05304 0
M  V30 7044 C 662.23 -3.68205 0.781148 0
M  V30 7045 C 661.377 -2.48837 1.22373 0
M  V30 7046 H 664.328 -1.15462 1.08877 0
M  V30 7047 H 664.349 -3.78481 0.391414 0
M  V30 7048 H 663.861 -3.24194 2.13353 0
M  V30 7049 H 661.962 -3.71497 -0.28643 0
M  V30 7050 H 662.075 -4.58675 1.384 0
M  V30 7051 H 660.439 -2.46461 0.642594 0
M  V30 7052 H 661.222 -2.53736 2.31242 0
M  V30 7053 N 663.667 -0.670007 -1.42649 0
M  V30 7054 C 665.083 -0.33911 -1.55956 0
M  V30 7055 C 665.283 1.1558 -1.65056 0
M  V30 7056 O 664.339 1.94111 -1.61485 0
M  V30 7057 C 665.652 -1.06522 -2.812 0
M  V30 7058 C 667.2 -1.04708 -2.94966 0
M  V30 7059 C 667.675 -1.75442 -4.23065 0
M  V30 7060 N 669.166 -1.72286 -4.29967 0
M  V30 7061 C 669.901 -2.23877 -5.27889 0
M  V30 7062 N 669.397 -2.83829 -6.31991 0
M  V30 7063 N 671.19 -2.14279 -5.19654 0
M  V30 7064 H 663.341 -1.6399 -1.34986 0
M  V30 7065 H 665.604 -0.690603 -0.649439 0
M  V30 7066 H 665.31 -2.12033 -2.80597 0
M  V30 7067 H 665.184 -0.627398 -3.71946 0
M  V30 7068 H 667.571 -0.000315966 -2.951 0
M  V30 7069 H 667.652 -1.52374 -2.05465 0
M  V30 7070 H 667.296 -2.80084 -4.23693 0
M  V30 7071 H 667.226 -1.25229 -5.11493 0
M  V30 7072 H 669.717 -1.28554 -3.55362 0
M  V30 7073 H 670.03 -3.20827 -7.03057 0
M  V30 7074 H 668.375 -2.87896 -6.32567 0
M  V30 7075 H 671.566 -1.67135 -4.37245 0
M  V30 7076 H 671.739 -2.54792 -5.95806 0
M  V30 7077 N 665.145 1.52092 -0.413018 0
M  V30 7078 C 666.373 2.06274 0.160881 0
M  V30 7079 C 666.788 1.28273 1.38533 0
M  V30 7080 O 666.145 0.33563 1.79387 0
M  V30 7081 C 666.196 3.57921 0.507443 0
M  V30 7082 O 665.917 4.32971 -0.668388 0
M  V30 7083 C 667.418 4.28533 1.13465 0
M  V30 7084 H 664.638 0.67074 0.0186759 0
M  V30 7085 H 667.182 1.95951 -0.585092 0
M  V30 7086 H 665.337 3.68238 1.20331 0
M  V30 7087 H 665.751 5.23135 -0.378169 0
M  V30 7088 H 667.225 5.35804 1.32732 0
M  V30 7089 H 667.702 3.85258 2.10886 0
M  V30 7090 H 668.308 4.22595 0.478876 0
M  V30 7091 N 666.623 0.143563 1.56945 0
M  V30 7092 C 667.556 -0.835367 2.1236 0
M  V30 7093 C 668.534 -1.24466 1.04627 0
M  V30 7094 O 669.718 -1.34138 1.32436 0
M  V30 7095 C 666.845 -2.12123 2.64048 0
M  V30 7096 C 665.891 -1.85812 3.83896 0
M  V30 7097 S 666.724 -1.05222 5.25061 0
M  V30 7098 C 667.88 -2.34935 5.80135 0
M  V30 7099 H 668.113 -0.364109 2.95062 0
M  V30 7100 H 665.646 -0.0706601 1.54238 0
M  V30 7101 H 667.604 -2.85993 2.94479 0
M  V30 7102 H 666.265 -2.56364 1.81483 0
M  V30 7103 H 665.458 -2.81151 4.18294 0
M  V30 7104 H 665.06 -1.20052 3.54208 0
M  V30 7105 H 667.352 -3.3061 5.91357 0
M  V30 7106 H 668.295 -2.05046 6.77762 0
M  V30 7107 H 668.703 -2.45426 5.08356 0
M  V30 7108 N 668.101 -1.57061 -0.130224 0
M  V30 7109 C 669.031 -2.02552 -1.16168 0
M  V30 7110 C 670.012 -0.907971 -1.4384 0
M  V30 7111 O 671.197 -1.17693 -1.54473 0
M  V30 7112 C 668.327 -2.42035 -2.49071 0
M  V30 7113 C 667.281 -3.5713 -2.35886 0
M  V30 7114 C 666.607 -3.82478 -3.7365 0
M  V30 7115 C 667.907 -4.89236 -1.8288 0
M  V30 7116 H 669.601 -2.8897 -0.783359 0
M  V30 7117 H 667.147 -1.39021 -0.375376 0
M  V30 7118 H 669.1 -2.72462 -3.21469 0
M  V30 7119 H 667.824 -1.52573 -2.88771 0
M  V30 7120 H 666.483 -3.26895 -1.65938 0
M  V30 7121 H 666.131 -2.9024 -4.10816 0
M  V30 7122 H 665.831 -4.59944 -3.65685 0
M  V30 7123 H 667.355 -4.15347 -4.47571 0
M  V30 7124 H 668.769 -5.18272 -2.45085 0
M  V30 7125 H 667.166 -5.70624 -1.85763 0
M  V30 7126 H 668.236 -4.78494 -0.785571 0
M  V30 7127 N 669.579 0.400081 -1.52437 0
M  V30 7128 C 670.489 1.51253 -1.79331 0
M  V30 7129 C 671.505 1.60188 -0.679396 0
M  V30 7130 O 672.681 1.76733 -0.965791 0
M  V30 7131 C 669.746 2.869 -1.94652 0
M  V30 7132 C 668.807 2.87777 -3.18564 0
M  V30 7133 C 668.04 4.16954 -3.33145 0
M  V30 7134 O 668.263 5.11329 -2.52783 0
M  V30 7135 O 667.197 4.2487 -4.26343 0
M  V30 7136 H 671.023 1.31461 -2.73773 0
M  V30 7137 H 668.608 0.586834 -1.37392 0
M  V30 7138 H 670.49 3.67336 -2.065 0
M  V30 7139 H 669.165 3.06741 -1.034 0
M  V30 7140 H 668.072 2.06162 -3.12167 0
M  V30 7141 H 669.405 2.72886 -4.09627 0
M  V30 7142 N 671.057 1.43213 0.657864 0
M  V30 7143 C 672.473 1.26511 0.972992 0
M  V30 7144 C 672.673 0.181477 2.00681 0
M  V30 7145 O 671.729 -0.441649 2.48608 0
M  V30 7146 C 673.042 2.62784 1.46168 0
M  V30 7147 C 674.59 2.70278 1.57857 0
M  V30 7148 C 675.065 4.06958 2.10117 0
M  V30 7149 N 676.556 4.08999 2.17426 0
M  V30 7150 C 677.291 5.11585 2.58975 0
M  V30 7151 N 676.787 6.24548 2.99853 0
M  V30 7152 N 678.58 4.9894 2.58873 0
M  V30 7153 H 670.731 2.12384 -0.0263129 0
M  V30 7154 H 672.994 0.946638 0.0507992 0
M  V30 7155 H 672.7 3.43022 0.776474 0
M  V30 7156 H 672.574 2.87863 2.43751 0
M  V30 7157 H 674.961 1.90376 2.25479 0
M  V30 7158 H 675.042 2.4897 0.587179 0
M  V30 7159 H 674.686 4.87325 1.43098 0
M  V30 7160 H 674.616 4.25628 3.10078 0
M  V30 7161 H 677.107 3.27457 1.88627 0
M  V30 7162 H 677.42 6.98661 3.30292 0
M  V30 7163 H 675.765 6.28027 2.97669 0
M  V30 7164 H 678.956 4.09757 2.26311 0
M  V30 7165 H 679.129 5.79019 2.90932 0
M  V30 7166 N 672.536 -0.895792 1.29666 0
M  V30 7167 C 673.466 -2.01673 1.17688 0
M  V30 7168 C 674.447 -1.69955 0.0701317 0
M  V30 7169 O 675.632 -1.9258 0.250289 0
M  V30 7170 C 672.762 -3.36568 0.856681 0
M  V30 7171 C 671.716 -3.82509 1.92017 0
M  V30 7172 C 671.042 -5.14574 1.4532 0
M  V30 7173 C 672.342 -4.02409 3.32963 0
M  V30 7174 H 674.036 -2.11953 2.11463 0
M  V30 7175 H 671.582 -1.01839 1.01807 0
M  V30 7176 H 673.535 -4.14498 0.759577 0
M  V30 7177 H 672.259 -3.26391 -0.116763 0
M  V30 7178 H 670.918 -3.068 2.00673 0
M  V30 7179 H 670.566 -5.00815 0.468325 0
M  V30 7180 H 670.266 -5.46283 2.16447 0
M  V30 7181 H 671.79 -5.9504 1.36968 0
M  V30 7182 H 673.204 -4.70808 3.27127 0
M  V30 7183 H 671.601 -4.45478 4.02082 0
M  V30 7184 H 672.671 -3.06616 3.75652 0
M  V30 7185 N 674.014 -1.12206 -1.10668 0
M  V30 7186 C 674.977 -0.790867 -2.15123 0
M  V30 7187 C 675.977 0.193618 -1.5963 0
M  V30 7188 O 677.167 -0.0318728 -1.74171 0
M  V30 7189 C 674.299 -0.174797 -3.40452 0
M  V30 7190 H 675.492 -1.7163 -2.45933 0
M  V30 7191 H 673.045 -0.924993 -1.2599 0
M  V30 7192 H 673.78 0.760478 -3.15257 0
M  V30 7193 H 673.565 -0.88358 -3.82015 0
M  V30 7194 H 675.055 0.0405162 -4.1758 0
M  V30 7195 N 675.492 1.28418 -0.913599 0
M  V30 7196 C 676.717 1.99643 -0.561899 0
M  V30 7197 C 677.142 1.67819 0.849608 0
M  V30 7198 O 676.5 0.910503 1.56779 0
M  V30 7199 C 676.548 3.52116 -0.777622 0
M  V30 7200 O 675.652 4.12076 0.163457 0
M  V30 7201 H 674.993 0.627229 -0.217898 0
M  V30 7202 H 677.523 1.63575 -1.229 0
M  V30 7203 H 677.533 4.02163 -0.687666 0
M  V30 7204 H 676.208 3.74613 -1.8066 0
M  V30 7205 H 674.785 3.72892 0.0247827 0
M  V30 7206 N 676.97 0.677563 1.42291 0
M  V30 7207 C 677.917 0.000947061 2.308 0
M  V30 7208 C 678.887 -0.789889 1.46116 0
M  V30 7209 O 680.072 -0.761578 1.74942 0
M  V30 7210 C 677.212 -0.942387 3.31984 0
M  V30 7211 C 676.325 -0.14508 4.31756 0
M  V30 7212 C 675.46 -1.08442 5.20013 0
M  V30 7213 C 674.499 -0.278958 6.11464 0
M  V30 7214 N 673.636 -1.17115 6.92263 0
M  V30 7215 H 678.476 0.761521 2.88106 0
M  V30 7216 H 676.013 0.38727 1.41911 0
M  V30 7217 H 677.971 -1.50317 3.89179 0
M  V30 7218 H 676.601 -1.66956 2.76271 0
M  V30 7219 H 675.653 0.532368 3.76656 0
M  V30 7220 H 676.965 0.48015 4.96484 0
M  V30 7221 H 676.119 -1.71504 5.81955 0
M  V30 7222 H 674.858 -1.74353 4.55469 0
M  V30 7223 H 673.863 0.364856 5.48588 0
M  V30 7224 H 675.088 0.376099 6.78058 0
M  V30 7225 H 673.034 -1.81661 6.30345 0
M  V30 7226 H 672.951 -0.601063 7.53607 0
M  V30 7227 H 674.219 -1.78915 7.58689 0
M  V30 7228 N 678.448 -1.51871 0.421078 0
M  V30 7229 C 679.864 -1.59435 0.0725398 0
M  V30 7230 C 680.064 -1.43315 -1.41644 0
M  V30 7231 O 679.12 -1.26614 -2.18461 0
M  V30 7232 C 680.433 -2.9509 0.578132 0
M  V30 7233 C 681.981 -3.08356 0.537149 0
M  V30 7234 C 682.456 -4.4651 1.01945 0
M  V30 7235 N 683.947 -4.52784 0.976758 0
M  V30 7236 C 684.682 -5.57976 1.32099 0
M  V30 7237 N 684.178 -6.70664 1.73727 0
M  V30 7238 N 685.971 -5.48248 1.2402 0
M  V30 7239 H 678.122 -1.60595 1.39007 0
M  V30 7240 H 680.385 -0.756138 0.571803 0
M  V30 7241 H 680.091 -3.12205 1.61929 0
M  V30 7242 H 679.965 -3.772 -0.00578374 0
M  V30 7243 H 682.352 -2.90919 -0.494991 0
M  V30 7244 H 682.433 -2.28125 1.15727 0
M  V30 7245 H 682.077 -4.64692 2.04997 0
M  V30 7246 H 682.007 -5.25256 0.376023 0
M  V30 7247 H 684.498 -3.71898 0.670851 0
M  V30 7248 H 684.811 -7.46932 1.98274 0
M  V30 7249 H 683.156 -6.71914 1.77641 0
M  V30 7250 H 686.347 -4.59095 0.913756 0
M  V30 7251 H 686.52 -6.30119 1.51176 0
M  V30 7252 N 679.926 -0.151884 -1.56866 0
M  V30 7253 C 681.342 0.204486 -1.58285 0
M  V30 7254 C 681.542 1.6431 -1.16639 0
M  V30 7255 O 680.598 2.37077 -0.868946 0
M  V30 7256 C 681.911 -0.0587019 -3.00643 0
M  V30 7257 C 683.459 0.00462303 -3.13 0
M  V30 7258 C 683.934 -0.231297 -4.57416 0
M  V30 7259 N 685.425 -0.178394 -4.62856 0
M  V30 7260 C 686.16 -0.335379 -5.72418 0
M  V30 7261 N 685.656 -0.550355 -6.90611 0
M  V30 7262 N 687.449 -0.272641 -5.61438 0
M  V30 7263 H 679.6 -1.09116 -1.82229 0
M  V30 7264 H 681.863 -0.432311 -0.843689 0
M  V30 7265 H 681.569 -1.05453 -3.35518 0
M  V30 7266 H 681.443 0.658508 -3.71407 0
M  V30 7267 H 683.83 0.991009 -2.77962 0
M  V30 7268 H 683.911 -0.744992 -2.44711 0
M  V30 7269 H 683.555 -1.2148 -4.93158 0
M  V30 7270 H 683.485 0.5387 -5.23837 0
M  V30 7271 H 685.976 -0.0170923 -3.77896 0
M  V30 7272 H 686.289 -0.660116 -7.69976 0
M  V30 7273 H 684.634 -0.586736 -6.92519 0
M  V30 7274 H 687.825 -0.105421 -4.67981 0
M  V30 7275 H 687.998 -0.398418 -6.46774 0
M  V30 7276 N 681.404 1.57128 0.121893 0
M  V30 7277 C 682.351 2.0013 1.14964 0
M  V30 7278 C 683.321 0.872959 1.4131 0
M  V30 7279 O 684.506 1.13696 1.53225 0
M  V30 7280 C 681.646 2.40824 2.4718 0
M  V30 7281 C 680.759 3.67061 2.27794 0
M  V30 7282 C 679.894 3.96749 3.53219 0
M  V30 7283 C 678.933 5.16178 3.28978 0
M  V30 7284 N 678.07 5.41751 4.46599 0
M  V30 7285 H 682.91 2.8772 0.775947 0
M  V30 7286 H 680.447 1.42328 0.371652 0
M  V30 7287 H 682.405 2.62454 3.24305 0
M  V30 7288 H 681.035 1.56279 2.82448 0
M  V30 7289 H 680.087 3.53063 1.416 0
M  V30 7290 H 681.399 4.5434 2.05857 0
M  V30 7291 H 680.553 4.19012 4.38764 0
M  V30 7292 H 679.292 3.07941 3.78185 0
M  V30 7293 H 678.297 4.93762 2.41824 0
M  V30 7294 H 679.522 6.06561 3.05386 0
M  V30 7295 H 677.468 4.55899 4.71691 0
M  V30 7296 H 677.385 6.23347 4.27756 0
M  V30 7297 H 678.653 5.68531 5.33285 0
M  V30 7298 N 682.882 -0.391992 1.52647 0
M  V30 7299 C 683.812 -1.48517 1.8018 0
M  V30 7300 C 684.793 -1.57039 0.653667 0
M  V30 7301 O 685.978 -1.72036 0.900962 0
M  V30 7302 C 683.108 -2.86161 1.96797 0
M  V30 7303 C 682.062 -2.92481 3.12472 0
M  V30 7304 C 681.388 -4.32546 3.14338 0
M  V30 7305 C 682.688 -2.624 4.51601 0
M  V30 7306 H 684.382 -1.25726 2.71723 0
M  V30 7307 H 681.928 -0.603387 1.30749 0
M  V30 7308 H 683.881 -3.62639 2.14641 0
M  V30 7309 H 682.605 -3.10283 1.01941 0
M  V30 7310 H 681.264 -2.18451 2.94406 0
M  V30 7311 H 680.912 -4.53703 2.1717 0
M  V30 7312 H 680.612 -4.37695 3.92042 0
M  V30 7313 H 682.136 -5.10934 3.34333 0
M  V30 7314 H 683.55 -3.28596 4.69785 0
M  V30 7315 H 681.947 -2.78903 5.3135 0
M  V30 7316 H 683.017 -1.57754 4.58521 0
M  V30 7317 N 684.36 -1.4356 -0.65026 0
M  V30 7318 C 685.606 -1.45549 -1.41221 0
M  V30 7319 C 685.939 -0.0805472 -1.94033 0
M  V30 7320 O 685.214 0.899043 -1.72475 0
M  V30 7321 C 685.497 -2.50028 -2.59148 0
M  V30 7322 C 685.35 -3.96808 -2.1181 0
M  V30 7323 C 686.669 -2.51212 -3.61359 0
M  V30 7324 H 683.788 -0.529967 -0.512156 0
M  V30 7325 H 686.43 -1.75127 -0.736933 0
M  V30 7326 H 684.58 -2.24937 -3.16758 0
M  V30 7327 H 686.252 -4.32966 -1.59178 0
M  V30 7328 H 684.495 -4.09498 -1.43156 0
M  V30 7329 H 685.166 -4.6553 -2.96625 0
M  V30 7330 H 687.642 -2.73583 -3.13515 0
M  V30 7331 H 686.518 -3.26252 -4.41419 0
M  V30 7332 H 686.779 -1.54701 -4.1415 0
M  V30 7333 N 685.838 0.888903 -1.30139 0
M  V30 7334 C 686.801 1.97576 -1.16174 0
M  V30 7335 C 687.801 1.60525 -0.094086 0
M  V30 7336 O 688.991 1.70812 -0.341889 0
M  V30 7337 C 686.123 3.3188 -0.778983 0
M  V30 7338 H 687.316 2.11393 -2.12728 0
M  V30 7339 H 684.869 1.0748 -1.1348 0
M  V30 7340 H 685.604 3.23765 0.186225 0
M  V30 7341 H 685.389 3.60141 -1.55051 0
M  V30 7342 H 686.879 4.11612 -0.704631 0
M  V30 7343 N 687.317 1.12792 1.10072 0
M  V30 7344 C 688.566 0.880232 1.81479 0
M  V30 7345 C 688.879 -0.595575 1.86312 0
M  V30 7346 O 690.085 -0.959979 2.53962 0
M  V30 7347 C 688.541 1.52514 3.25987 0
M  V30 7348 C 688.149 3.036 3.29441 0
M  V30 7349 C 689.893 1.35788 4.02196 0
M  V30 7350 C 687.8 3.61007 4.68431 0
M  V30 7351 H 686.73 0.325654 0.680048 0
M  V30 7352 H 689.381 1.35485 1.23758 0
M  V30 7353 H 687.763 0.978188 3.83728 0
M  V30 7354 H 688.937 3.64819 2.81502 0
M  V30 7355 H 687.252 3.19765 2.66719 0
M  V30 7356 H 689.849 1.76096 5.0487 0
M  V30 7357 H 690.192 0.301972 4.15203 0
M  V30 7358 H 690.725 1.87426 3.50879 0
M  V30 7359 H 687.464 4.66375 4.60625 0
M  V30 7360 H 686.984 3.04564 5.16721 0
M  V30 7361 H 688.663 3.60289 5.37402 0
M  V30 7362 N 688.795 -1.27931 0.920396 0
M  V30 7363 C 690.041 -1.94977 0.557832 0
M  V30 7364 C 690.374 -1.72224 -0.897365 0
M  V30 7365 O 689.649 -1.04705 -1.63912 0
M  V30 7366 C 689.932 -3.49289 0.875741 0
M  V30 7367 C 689.785 -3.81416 2.38416 0
M  V30 7368 C 691.104 -4.38486 0.376517 0
M  V30 7369 H 688.223 -0.708164 0.20414 0
M  V30 7370 H 690.865 -1.5118 1.15085 0
M  V30 7371 H 689.015 -3.86724 0.371062 0
M  V30 7372 H 690.687 -3.53813 2.95997 0
M  V30 7373 H 688.93 -3.28225 2.83639 0
M  V30 7374 H 689.601 -4.89198 2.55713 0
M  V30 7375 H 692.077 -4.08161 0.808945 0
M  V30 7376 H 690.953 -5.45296 0.627976 0
M  V30 7377 H 691.214 -4.36143 -0.723293 0
M  V30 7378 N 690.273 -0.685099 -1.4193 0
M  V30 7379 C 691.55 -0.140152 -1.95097 0
M  V30 7380 C 691.93 1.34745 -1.62502 0
M  V30 7381 O 691.278 2.08872 -0.926534 0
M  V30 7382 C 691.488 -0.420268 -3.4646 0
M  V30 7383 C 692.836 -0.342338 -4.23218 0
M  V30 7384 O 693.86 -0.354592 -3.54431 0
M  V30 7385 O 692.719 -0.293404 -5.45712 0
M  V30 7386 H 689.813 -0.00885998 -0.826953 0
M  V30 7387 H 692.359 -0.760539 -1.51703 0
M  V30 7388 H 691.131 -1.45037 -3.63428 0
M  V30 7389 H 690.754 0.231616 -3.96925 0
M  V30 7390 N 691.751 1.51645 -0.429126 0
M  V30 7391 C 693.162 1.86665 0.0359003 0
M  V30 7392 C 693.513 1.34677 1.42676 0
M  V30 7393 O 692.638 0.694195 2.04963 0
M  V30 7394 C 693.233 3.38724 0.0719221 0
M  V30 7395 C 691.792 3.7331 0.481336 0
M  V30 7396 C 690.939 2.75313 -0.331329 0
M  V30 7397 H 693.89 1.44987 -0.645333 0
M  V30 7398 H 693.911 3.7011 0.883118 0
M  V30 7399 H 693.423 3.76532 -0.940495 0
M  V30 7400 H 691.524 3.41088 1.49966 0
M  V30 7401 H 691.637 4.78631 0.211837 0
M  V30 7402 H 690.001 2.53839 0.209204 0
M  V30 7403 H 690.784 3.15963 -1.34247 0
M  V30 7404 N 693.229 0.160201 1.56784 0
M  V30 7405 C 694.179 -0.786461 2.14007 0
M  V30 7406 C 695.163 -1.20046 1.07134 0
M  V30 7407 O 696.355 -1.16468 1.33283 0
M  V30 7408 C 693.484 -2.02024 2.77563 0
M  V30 7409 C 692.57 -1.62874 3.91578 0
M  V30 7410 N 692.961 -0.946176 4.96871 0
M  V30 7411 C 691.259 -1.92054 4.02531 0
M  V30 7412 C 691.96 -0.755084 5.76778 0
M  V30 7413 N 690.936 -1.29307 5.27997 0
M  V30 7414 H 694.738 -0.255879 2.92784 0
M  V30 7415 H 692.252 -0.0408778 1.62349 0
M  V30 7416 H 694.249 -2.70855 3.16928 0
M  V30 7417 H 692.909 -2.55587 2.00263 0
M  V30 7418 H 693.92 -0.605455 5.14349 0
M  V30 7419 H 690.597 -2.47374 3.36322 0
M  V30 7420 H 691.987 -0.216138 6.71552 0
M  V30 7421 N 694.707 -1.5719 -0.113559 0
M  V30 7422 C 695.956 -1.84325 -0.818984 0
M  V30 7423 C 696.269 -0.746685 -1.80787 0
M  V30 7424 O 697.475 -0.904596 -2.55987 0
M  V30 7425 C 695.931 -3.26818 -1.50724 0
M  V30 7426 C 695.539 -4.44498 -0.559065 0
M  V30 7427 C 697.283 -3.63196 -2.19748 0
M  V30 7428 C 695.19 -5.7802 -1.25086 0
M  V30 7429 H 694.12 -0.687507 -0.309596 0
M  V30 7430 H 696.771 -1.8336 -0.0717621 0
M  V30 7431 H 695.153 -3.22269 -2.30128 0
M  V30 7432 H 696.327 -4.60356 0.202146 0
M  V30 7433 H 694.642 -4.16393 0.024495 0
M  V30 7434 H 697.239 -4.60226 -2.72206 0
M  V30 7435 H 697.582 -2.90899 -2.97798 0
M  V30 7436 H 698.115 -3.69553 -1.47226 0
M  V30 7437 H 694.854 -6.53501 -0.511539 0
M  V30 7438 H 694.374 -5.66038 -1.98395 0
M  V30 7439 H 696.053 -6.2196 -1.78253 0
M  V30 7440 N 696.185 0.383891 -1.52853 0
M  V30 7441 C 697.132 1.46924 -1.77995 0
M  V30 7442 C 698.102 1.53958 -0.623396 0
M  V30 7443 O 699.287 1.70134 -0.863657 0
M  V30 7444 C 696.427 2.84093 -1.95921 0
M  V30 7445 C 695.54 2.86171 -3.23621 0
M  V30 7446 C 694.675 4.14799 -3.31836 0
M  V30 7447 C 693.714 4.10948 -4.53639 0
M  V30 7448 N 692.851 5.31192 -4.59107 0
M  V30 7449 H 697.691 1.24786 -2.70615 0
M  V30 7450 H 695.228 0.605265 -1.34071 0
M  V30 7451 H 697.186 3.63755 -2.04299 0
M  V30 7452 H 695.816 3.04671 -1.06656 0
M  V30 7453 H 694.868 1.9885 -3.24288 0
M  V30 7454 H 696.18 2.79194 -4.13343 0
M  V30 7455 H 695.334 5.02867 -3.39425 0
M  V30 7456 H 694.073 4.24505 -2.40097 0
M  V30 7457 H 693.078 3.21268 -4.46169 0
M  V30 7458 H 694.303 4.0286 -5.467 0
M  V30 7459 H 692.249 5.41518 -3.70262 0
M  V30 7460 H 692.166 5.26311 -5.42708 0
M  V30 7461 H 693.434 6.21143 -4.70958 0
M  V30 7462 N 697.663 1.43903 0.642637 0
M  V30 7463 C 698.909 1.46296 1.40447 0
M  V30 7464 C 699.242 0.0908361 1.93987 0
M  V30 7465 O 698.517 -0.889884 1.72949 0
M  V30 7466 C 698.8 2.51399 2.57819 0
M  V30 7467 C 698.653 3.97926 2.09702 0
M  V30 7468 C 699.972 2.53125 3.60022 0
M  V30 7469 H 697.091 0.532676 0.509338 0
M  V30 7470 H 699.733 1.75515 0.727635 0
M  V30 7471 H 697.883 2.26614 3.1556 0
M  V30 7472 H 699.555 4.33804 1.5688 0
M  V30 7473 H 697.798 4.10252 1.40982 0
M  V30 7474 H 698.469 4.67096 2.94152 0
M  V30 7475 H 700.945 2.75242 3.12059 0
M  V30 7476 H 699.821 3.28589 4.39682 0
M  V30 7477 H 700.082 1.56895 4.13324 0
M  V30 7478 N 699.141 -0.881989 1.30609 0
M  V30 7479 C 700.418 -1.61563 1.10258 0
M  V30 7480 C 700.798 -2.08228 -0.347053 0
M  V30 7481 O 700.146 -1.85151 -1.33908 0
M  V30 7482 C 700.356 -2.78287 2.10612 0
M  V30 7483 C 701.704 -3.48545 2.4249 0
M  V30 7484 O 702.728 -2.88479 2.08945 0
M  V30 7485 O 701.587 -4.56873 2.99883 0
M  V30 7486 H 698.681 -0.710238 0.423663 0
M  V30 7487 H 701.227 -0.928503 1.42045 0
M  V30 7488 H 699.999 -2.41131 3.08174 0
M  V30 7489 H 699.622 -3.54695 1.79659 0
M  V30 7490 N 700.619 -1.13374 -1.09472 0
M  V30 7491 C 701.844 -0.918711 -1.85942 0
M  V30 7492 C 702.269 0.527225 -1.8056 0
M  V30 7493 O 701.627 1.37408 -1.18274 0
M  V30 7494 C 701.675 -1.41056 -3.31867 0
M  V30 7495 O 700.779 -0.595496 -4.08078 0
M  V30 7496 H 700.12 -0.329297 -0.576593 0
M  V30 7497 H 702.65 -1.50829 -1.38245 0
M  V30 7498 H 702.66 -1.41398 -3.82715 0
M  V30 7499 H 701.335 -2.46335 -3.35099 0
M  V30 7500 H 699.912 -0.659911 -3.67014 0
M  V30 7501 N 702.098 1.27442 -0.927168 0
M  V30 7502 C 703.346 1.94007 -0.566203 0
M  V30 7503 C 703.667 1.7323 0.895345 0
M  V30 7504 O 702.937 1.07973 1.63459 0
M  V30 7505 H 701.517 0.717917 -0.206409 0
M  V30 7506 H 704.179 1.55161 -1.17945 0
M  V30 7507 H 703.275 3.02401 -0.772028 0
M  V30 7508 N 703.576 0.692616 1.41565 0
M  V30 7509 C 704.806 0.230943 2.05305 0
M  V30 7510 C 705.214 -1.12379 1.52209 0
M  V30 7511 O 704.557 -1.71281 0.663968 0
M  V30 7512 C 704.619 0.107894 3.59338 0
M  V30 7513 C 704.283 1.39419 4.35214 0
M  V30 7514 C 705.28 2.33143 4.64694 0
M  V30 7515 C 702.965 1.64674 4.74539 0
M  V30 7516 C 704.959 3.50385 5.32456 0
M  V30 7517 C 702.646 2.82202 5.42038 0
M  V30 7518 C 703.644 3.74881 5.70923 0
M  V30 7519 O 703.332 4.90351 6.37033 0
M  V30 7520 H 703.064 0.105708 0.667684 0
M  V30 7521 H 705.618 0.94488 1.82376 0
M  V30 7522 H 703.848 -0.661785 3.80995 0
M  V30 7523 H 705.537 -0.316213 4.04666 0
M  V30 7524 H 706.303 2.14887 4.34797 0
M  V30 7525 H 702.182 0.934007 4.51439 0
M  V30 7526 H 705.726 4.22743 5.54918 0
M  V30 7527 H 701.623 3.00376 5.71353 0
M  V30 7528 H 702.391 4.90128 6.55528 0
M  V30 7529 N 705.054 -1.51416 0.437162 0
M  V30 7530 C 706.47 -1.59349 0.0894459 0
M  V30 7531 C 706.67 -1.44809 -1.40116 0
M  V30 7532 O 705.726 -1.28924 -2.17106 0
M  V30 7533 C 707.039 -2.9446 0.609398 0
M  V30 7534 C 708.587 -3.07769 0.569824 0
M  V30 7535 C 709.062 -4.45404 1.06675 0
M  V30 7536 N 710.553 -4.51723 1.02473 0
M  V30 7537 C 711.288 -5.56544 1.3801 0
M  V30 7538 N 710.784 -6.68784 1.80831 0
M  V30 7539 N 712.577 -5.46901 1.29828 0
M  V30 7540 H 704.728 -1.59112 1.40703 0
M  V30 7541 H 706.991 -0.750031 0.579791 0
M  V30 7542 H 706.697 -3.1047 1.65231 0
M  V30 7543 H 706.571 -3.77184 0.0342236 0
M  V30 7544 H 708.958 -2.91428 -0.464107 0
M  V30 7545 H 709.039 -2.26885 1.1814 0
M  V30 7546 H 708.683 -4.62492 2.09914 0
M  V30 7547 H 708.613 -5.24827 0.431712 0
M  V30 7548 H 711.104 -3.71165 0.710258 0
M  V30 7549 H 711.417 -7.44787 2.06185 0
M  V30 7550 H 709.762 -6.69992 1.84757 0
M  V30 7551 H 712.953 -4.581 0.962397 0
M  V30 7552 H 713.126 -6.2848 1.57851 0
M  V30 7553 N 706.532 -0.168513 -1.56696 0
M  V30 7554 C 707.778 0.477865 -1.9709 0
M  V30 7555 C 708.111 1.63084 -1.05438 0
M  V30 7556 O 707.386 1.94238 -0.10095 0
M  V30 7557 C 707.669 0.963521 -3.4697 0
M  V30 7558 C 707.522 -0.189443 -4.49401 0
M  V30 7559 C 708.841 1.83813 -3.99876 0
M  V30 7560 H 705.96 0.172229 -0.716593 0
M  V30 7561 H 708.602 -0.254083 -1.88293 0
M  V30 7562 H 706.752 1.58724 -3.54597 0
M  V30 7563 H 708.424 -0.826451 -4.53836 0
M  V30 7564 H 706.667 -0.845366 -4.25483 0
M  V30 7565 H 707.338 0.192446 -5.51664 0
M  V30 7566 H 709.814 1.31235 -3.94863 0
M  V30 7567 H 708.69 2.14697 -5.0517 0
M  V30 7568 H 708.951 2.78289 -3.43523 0
M  V30 7569 N 708.01 1.57248 0.105221 0
M  V30 7570 C 708.96 1.9777 1.1345 0
M  V30 7571 C 709.944 0.854654 1.36325 0
M  V30 7572 O 711.136 1.11844 1.37186 0
M  V30 7573 C 708.265 2.39717 2.45745 0
M  V30 7574 C 707.351 3.58686 2.26286 0
M  V30 7575 N 707.742 4.73942 1.76671 0
M  V30 7576 C 706.04 3.64586 2.56891 0
M  V30 7577 C 706.741 5.55923 1.71245 0
M  V30 7578 N 705.717 4.98803 2.16093 0
M  V30 7579 H 709.519 2.84336 0.743664 0
M  V30 7580 H 707.033 1.59359 0.312787 0
M  V30 7581 H 709.03 2.66971 3.20206 0
M  V30 7582 H 707.69 1.54523 2.85574 0
M  V30 7583 H 708.701 4.9689 1.46016 0
M  V30 7584 H 705.378 2.90031 3.00314 0
M  V30 7585 H 706.768 6.58398 1.34022 0
M  V30 7586 N 709.488 -0.375779 1.53054 0
M  V30 7587 C 710.398 -1.48381 1.81715 0
M  V30 7588 C 711.414 -1.59087 0.704795 0
M  V30 7589 O 712.59 -1.75174 0.993785 0
M  V30 7590 C 709.655 -2.83767 1.99192 0
M  V30 7591 C 708.716 -2.82673 3.23102 0
M  V30 7592 C 707.949 -4.11601 3.39736 0
M  V30 7593 O 708.172 -5.07243 2.60885 0
M  V30 7594 O 707.106 -4.18034 4.33049 0
M  V30 7595 H 710.932 -1.27089 2.7583 0
M  V30 7596 H 708.517 -0.564902 1.38308 0
M  V30 7597 H 710.399 -3.64004 2.12318 0
M  V30 7598 H 709.074 -3.05057 1.08267 0
M  V30 7599 H 707.981 -2.0117 3.15407 0
M  V30 7600 H 709.314 -2.66335 4.13916 0
M  V30 7601 N 710.966 -1.44241 -0.634997 0
M  V30 7602 C 711.876 -1.53293 -1.77591 0
M  V30 7603 C 712.892 -0.418831 -1.68884 0
M  V30 7604 O 714.068 -0.675619 -1.8973 0
M  V30 7605 C 711.133 -1.47075 -3.13958 0
M  V30 7606 C 710.194 -2.69304 -3.34326 0
M  V30 7607 C 709.427 -2.63374 -4.64187 0
M  V30 7608 O 709.65 -1.69161 -5.44739 0
M  V30 7609 O 708.584 -3.54166 -4.86673 0
M  V30 7610 H 712.41 -2.49673 -1.72908 0
M  V30 7611 H 709.995 -1.26445 -0.795745 0
M  V30 7612 H 711.877 -1.46117 -3.95257 0
M  V30 7613 H 710.552 -0.538373 -3.19192 0
M  V30 7614 H 709.459 -2.75831 -2.52721 0
M  V30 7615 H 710.792 -3.61576 -3.33951 0
M  V30 7616 N 712.444 0.87505 -1.31075 0
M  V30 7617 C 713.374 1.99775 -1.20881 0
M  V30 7618 C 714.355 1.69822 -0.0971612 0
M  V30 7619 O 715.54 1.92158 -0.280895 0
M  V30 7620 C 712.67 3.35163 -0.910118 0
M  V30 7621 C 711.624 3.79406 -1.98078 0
M  V30 7622 C 710.95 5.12197 -1.53488 0
M  V30 7623 C 712.25 3.97061 -3.39323 0
M  V30 7624 H 713.944 2.08562 -2.14808 0
M  V30 7625 H 711.49 1.00207 -1.03415 0
M  V30 7626 H 713.443 4.13237 -0.825423 0
M  V30 7627 H 712.167 3.26536 0.064822 0
M  V30 7628 H 710.826 3.03568 -2.05528 0
M  V30 7629 H 710.474 5.00007 -0.547941 0
M  V30 7630 H 710.174 5.4277 -2.2511 0
M  V30 7631 H 711.698 5.92785 -1.46417 0
M  V30 7632 H 713.112 4.65545 -3.34576 0
M  V30 7633 H 711.509 4.39025 -4.09118 0
M  V30 7634 H 712.579 3.00601 -3.80483 0
M  V30 7635 N 713.922 1.13953 1.08869 0
M  V30 7636 C 715.338 0.878924 1.33218 0
M  V30 7637 C 715.538 -0.482478 1.95638 0
M  V30 7638 O 714.594 -1.22778 2.2064 0
M  V30 7639 C 715.907 2.00798 2.23832 0
M  V30 7640 C 717.455 2.04073 2.37325 0
M  V30 7641 C 717.93 3.16258 3.31278 0
M  V30 7642 N 719.421 3.15805 3.38853 0
M  V30 7643 C 720.156 3.99249 4.11567 0
M  V30 7644 N 719.652 4.92721 4.87029 0
M  V30 7645 N 721.445 3.87327 4.0735 0
M  V30 7646 H 713.596 2.01645 0.66731 0
M  V30 7647 H 715.859 0.878395 0.356547 0
M  V30 7648 H 715.565 2.98986 1.85203 0
M  V30 7649 H 715.439 1.92704 3.24261 0
M  V30 7650 H 717.826 1.06495 2.75214 0
M  V30 7651 H 717.907 2.16239 1.36654 0
M  V30 7652 H 717.551 4.14079 2.9411 0
M  V30 7653 H 717.481 3.0133 4.31866 0
M  V30 7654 H 719.972 2.48102 2.8505 0
M  V30 7655 H 720.285 5.52867 5.39961 0
M  V30 7656 H 718.63 4.96723 4.86098 0
M  V30 7657 H 721.821 3.13627 3.475 0
M  V30 7658 H 721.994 4.52585 4.63757 0
M  V30 7659 N 715.4 -1.26948 0.933913 0
M  V30 7660 C 716.348 -2.2862 0.428463 0
M  V30 7661 C 717.342 -1.62144 -0.490464 0
M  V30 7662 O 718.548 -1.76167 -0.36948 0
M  V30 7663 H 714.923 -0.742363 0.120003 0
M  V30 7664 H 716.894 -2.68659 1.29865 0
M  V30 7665 C 715.643 -3.46423 -0.29774 0
M  V30 7666 H 714.966 -3.97792 0.400183 0
M  V30 7667 H 716.406 -4.19505 -0.615736 0
M  V30 7668 C 714.865 -3.01017 -1.51295 0
M  V30 7669 O 715.395 -3.05226 -2.61151 0
M  V30 7670 N 713.601 -2.56442 -1.36696 0
M  V30 7671 H 713.148 -2.53217 -0.473178 0
M  V30 7672 H 713.106 -2.26424 -2.18127 0
M  V30 7673 N 716.879 -0.700114 -1.41195 0
M  V30 7674 C 717.809 -0.0521132 -2.33442 0
M  V30 7675 C 718.79 0.76228 -1.52063 0
M  V30 7676 O 719.975 0.714336 -1.80585 0
M  V30 7677 C 717.105 0.881693 -3.35922 0
M  V30 7678 C 716.059 0.174062 -4.27646 0
M  V30 7679 C 715.385 1.22254 -5.20536 0
M  V30 7680 C 716.685 -0.962396 -5.13357 0
M  V30 7681 H 718.379 -0.822574 -2.87879 0
M  V30 7682 H 715.925 -0.397011 -1.38419 0
M  V30 7683 H 717.878 1.34429 -3.99383 0
M  V30 7684 H 716.602 1.68387 -2.79845 0
M  V30 7685 H 715.261 -0.268551 -3.65615 0
M  V30 7686 H 714.909 2.01736 -4.60773 0
M  V30 7687 H 714.609 0.754038 -5.82742 0
M  V30 7688 H 716.133 1.68555 -5.86874 0
M  V30 7689 H 717.547 -0.579875 -5.7036 0
M  V30 7690 H 715.944 -1.35828 -5.84526 0
M  V30 7691 H 717.014 -1.80003 -4.50252 0
M  V30 7692 N 718.357 1.51182 -0.445186 0
M  V30 7693 C 719.605 2.01753 0.11841 0
M  V30 7694 C 719.926 1.33087 1.42523 0
M  V30 7695 O 719.196 0.467891 1.9023 0
M  V30 7696 H 717.776 0.745536 0.0467492 0
M  V30 7697 H 720.438 1.85765 -0.589688 0
M  V30 7698 H 719.534 3.10762 0.288665 0
M  V30 7699 N 719.835 0.176821 1.56605 0
M  V30 7700 C 720.765 -0.746841 2.21234 0
M  V30 7701 C 721.746 -1.23502 1.16967 0
M  V30 7702 O 722.931 -1.28718 1.45414 0
M  V30 7703 C 720.061 -1.97407 2.8574 0
M  V30 7704 C 719.015 -1.62153 3.96094 0
M  V30 7705 C 718.341 -2.92387 4.47676 0
M  V30 7706 C 719.641 -0.845353 5.15413 0
M  V30 7707 H 721.335 -0.208116 2.98676 0
M  V30 7708 H 718.881 -0.0986594 1.43662 0
M  V30 7709 H 720.834 -2.62531 3.2963 0
M  V30 7710 H 719.558 -2.53703 2.05676 0
M  V30 7711 H 718.217 -0.993964 3.52868 0
M  V30 7712 H 717.865 -3.46734 3.64396 0
M  V30 7713 H 717.565 -2.69551 5.22127 0
M  V30 7714 H 719.089 -3.5853 4.94255 0
M  V30 7715 H 720.503 -1.39929 5.55961 0
M  V30 7716 H 718.9 -0.715814 5.95815 0
M  V30 7717 H 719.97 0.157239 4.84645 0
M  V30 7718 N 721.313 -1.57302 -0.09688 0
M  V30 7719 C 722.543 -1.89926 -0.813114 0
M  V30 7720 C 722.951 -0.76852 -1.72888 0
M  V30 7721 O 722.294 0.268549 -1.81726 0
M  V30 7722 C 722.356 -3.17787 -1.68082 0
M  V30 7723 C 722.02 -4.4729 -0.937061 0
M  V30 7724 C 723.017 -5.1921 -0.267687 0
M  V30 7725 C 720.702 -4.93957 -0.911671 0
M  V30 7726 C 722.696 -6.36034 0.417129 0
M  V30 7727 C 720.383 -6.10693 -0.223068 0
M  V30 7728 C 721.381 -6.8158 0.440155 0
M  V30 7729 O 721.069 -7.96092 1.11772 0
M  V30 7730 H 720.801 -0.632783 -0.237828 0
M  V30 7731 H 723.355 -2.05248 -0.0790818 0
M  V30 7732 H 721.585 -2.98607 -2.45705 0
M  V30 7733 H 723.274 -3.36257 -2.27346 0
M  V30 7734 H 724.04 -4.84198 -0.278774 0
M  V30 7735 H 719.919 -4.38671 -1.41734 0
M  V30 7736 H 723.463 -6.91301 0.93537 0
M  V30 7737 H 719.36 -6.45159 -0.209821 0
M  V30 7738 H 720.128 -8.12064 1.02443 0
M  V30 7739 N 722.791 0.367657 -1.53252 0
M  V30 7740 C 724.037 1.11216 -1.69584 0
M  V30 7741 C 724.37 1.89026 -0.445269 0
M  V30 7742 O 723.645 1.86342 0.557404 0
M  V30 7743 C 723.928 2.07308 -2.94441 0
M  V30 7744 C 723.781 1.3312 -4.2965 0
M  V30 7745 C 725.1 3.07459 -3.14892 0
M  V30 7746 H 722.219 0.40294 -0.617096 0
M  V30 7747 H 724.861 0.393201 -1.85887 0
M  V30 7748 H 723.011 2.68617 -2.80673 0
M  V30 7749 H 724.683 0.746111 -4.55226 0
M  V30 7750 H 722.926 0.633051 -4.29156 0
M  V30 7751 H 723.597 2.03443 -5.13142 0
M  V30 7752 H 726.073 2.56252 -3.27832 0
M  V30 7753 H 724.949 3.71919 -4.03693 0
M  V30 7754 H 725.21 3.77514 -2.30077 0
M  V30 7755 N 724.269 1.44576 0.627338 0
M  V30 7756 C 725.216 1.51734 1.73912 0
M  V30 7757 C 726.186 0.364745 1.62046 0
M  V30 7758 O 727.371 0.575503 1.81914 0
M  V30 7759 C 724.511 1.47116 3.12171 0
M  V30 7760 C 723.624 2.72778 3.34986 0
M  V30 7761 C 722.759 2.59968 4.63239 0
M  V30 7762 C 721.798 3.80776 4.79245 0
M  V30 7763 N 720.935 3.66618 5.98778 0
M  V30 7764 H 725.775 2.46722 1.6713 0
M  V30 7765 H 723.312 1.22444 0.815224 0
M  V30 7766 H 725.27 1.42429 3.92135 0
M  V30 7767 H 723.9 0.556928 3.17959 0
M  V30 7768 H 722.952 2.87637 2.48936 0
M  V30 7769 H 724.264 3.62441 3.42692 0
M  V30 7770 H 723.418 2.53135 5.51369 0
M  V30 7771 H 722.157 1.67872 4.57898 0
M  V30 7772 H 721.162 3.87989 3.89544 0
M  V30 7773 H 722.387 4.73913 4.86398 0
M  V30 7774 H 720.333 2.77277 5.9452 0
M  V30 7775 H 720.25 4.499 6.07557 0
M  V30 7776 H 721.518 3.63684 6.89459 0
M  V30 7777 N 725.747 -0.868086 1.31537 0
M  V30 7778 C 726.975 -1.65402 1.24298 0
M  V30 7779 C 727.39 -1.87827 -0.191389 0
M  V30 7780 O 726.747 -1.43776 -1.12404 0
M  V30 7781 C 726.798 -3.02093 1.9855 0
M  V30 7782 O 726.519 -2.80668 3.36388 0
M  V30 7783 C 728.02 -3.96538 1.98173 0
M  V30 7784 H 725.24 -0.515598 0.429417 0
M  V30 7785 H 727.784 -1.0834 1.73444 0
M  V30 7786 H 725.939 -3.55838 1.53161 0
M  V30 7787 H 726.353 -3.67504 3.74221 0
M  V30 7788 H 727.827 -4.8976 2.54635 0
M  V30 7789 H 728.304 -4.28474 0.964697 0
M  V30 7790 H 728.91 -3.48729 2.4345 0
M  V30 7791 N 727.225 -1.14528 -1.08264 0
M  V30 7792 C 728.641 -0.885976 -1.3275 0
M  V30 7793 C 728.841 0.472096 -1.95892 0
M  V30 7794 O 727.897 1.21606 -2.21288 0
M  V30 7795 C 729.21 -2.01982 -2.22764 0
M  V30 7796 C 730.758 -2.05329 -2.36239 0
M  V30 7797 C 731.233 -3.1801 -3.29596 0
M  V30 7798 N 732.724 -3.17598 -3.37173 0
M  V30 7799 C 733.459 -4.01426 -4.09444 0
M  V30 7800 N 732.955 -4.95297 -4.8441 0
M  V30 7801 N 734.748 -3.89482 -4.0529 0
M  V30 7802 H 726.899 -2.01996 -0.656607 0
M  V30 7803 H 729.162 -0.880274 -0.351884 0
M  V30 7804 H 728.868 -2.99964 -1.83615 0
M  V30 7805 H 728.742 -1.94421 -3.23234 0
M  V30 7806 H 731.129 -1.07953 -2.74646 0
M  V30 7807 H 731.21 -2.1696 -1.35506 0
M  V30 7808 H 730.854 -4.15633 -2.9191 0
M  V30 7809 H 730.784 -3.03616 -4.30261 0
M  V30 7810 H 733.275 -2.4961 -2.83731 0
M  V30 7811 H 733.588 -5.55723 -5.37021 0
M  V30 7812 H 731.933 -4.99293 -4.83457 0
M  V30 7813 H 735.124 -3.15465 -3.45832 0
M  V30 7814 H 735.297 -4.55039 -4.6135 0
M  V30 7815 N 728.703 1.26451 -0.940633 0
M  V30 7816 C 729.98 1.88947 -0.505811 0
M  V30 7817 C 730.36 1.85011 1.01657 0
M  V30 7818 O 729.708 1.30406 1.87634 0
M  V30 7819 C 729.918 3.32304 -1.06654 0
M  V30 7820 C 731.266 4.09153 -1.13486 0
M  V30 7821 O 732.29 3.41371 -1.01708 0
M  V30 7822 O 731.149 5.30369 -1.31797 0
M  V30 7823 H 728.243 0.810422 -0.164759 0
M  V30 7824 H 730.789 1.34625 -1.03316 0
M  V30 7825 H 729.561 3.29527 -2.11015 0
M  V30 7826 H 729.184 3.94164 -0.521603 0
M  V30 7827 N 730.181 0.707592 1.40822 0
M  V30 7828 C 731.429 0.243189 2.00632 0
M  V30 7829 C 731.75 -1.16512 1.56365 0
M  V30 7830 O 731.02 -1.78841 0.799553 0
M  V30 7831 H 729.6 0.0869203 0.741926 0
M  V30 7832 H 732.262 0.911438 1.72275 0
M  V30 7833 H 731.358 0.270014 3.1093 0
M  V30 7834 N 731.66 -1.50943 0.453197 0
M  V30 7835 C 732.885 -2.07116 -0.108463 0
M  V30 7836 C 733.31 -1.31681 -1.3432 0
M  V30 7837 O 732.668 -0.359256 -1.77705 0
M  V30 7838 C 732.716 -3.58447 -0.393424 0
M  V30 7839 O 731.82 -3.85038 -1.47714 0
M  V30 7840 H 731.161 -0.66398 0.0050993 0
M  V30 7841 H 733.691 -1.94362 0.639095 0
M  V30 7842 H 733.701 -4.02961 -0.639222 0
M  V30 7843 H 732.376 -4.12774 0.508946 0
M  V30 7844 H 730.953 -3.52376 -1.22006 0
M  V30 7845 N 733.138 -0.185124 -1.56509 0
M  V30 7846 C 734.415 0.503348 -1.89013 0
M  V30 7847 C 734.795 1.80349 -1.09715 0
M  V30 7848 O 734.143 2.27665 -0.195203 0
M  V30 7849 C 734.353 0.731839 -3.41241 0
M  V30 7850 C 735.701 1.05568 -4.11267 0
M  V30 7851 O 736.725 0.819906 -3.46635 0
M  V30 7852 O 735.584 1.50116 -5.25478 0
M  V30 7853 H 732.678 0.261139 -0.784688 0
M  V30 7854 H 735.224 -0.224592 -1.68207 0
M  V30 7855 H 733.996 -0.18672 -3.90854 0
M  V30 7856 H 733.619 1.5126 -3.67704 0
M  V30 7857 N 734.616 1.57351 0.0885366 0
M  V30 7858 C 735.846 1.90355 0.80303 0
M  V30 7859 C 736.254 0.777678 1.72478 0
M  V30 7860 O 735.597 -0.258908 1.81866 0
M  V30 7861 C 735.659 3.18674 1.66395 0
M  V30 7862 C 735.323 4.4778 0.913327 0
M  V30 7863 C 736.32 5.19345 0.240148 0
M  V30 7864 C 734.005 4.94434 0.885462 0
M  V30 7865 C 735.999 6.35803 -0.450854 0
M  V30 7866 C 733.686 6.10802 0.190679 0
M  V30 7867 C 734.684 6.81337 -0.476295 0
M  V30 7868 O 734.372 7.95488 -1.15992 0
M  V30 7869 H 734.104 0.634035 0.234469 0
M  V30 7870 H 736.658 2.05287 0.0681959 0
M  V30 7871 H 734.888 2.99906 2.44117 0
M  V30 7872 H 736.577 3.37458 2.2556 0
M  V30 7873 H 737.343 4.84339 0.253092 0
M  V30 7874 H 733.222 4.39417 1.39406 0
M  V30 7875 H 736.766 6.90795 -0.972019 0
M  V30 7876 H 732.663 6.45261 0.175603 0
M  V30 7877 H 733.431 8.11509 -1.06749 0
M  V30 7878 N 736.094 -0.359525 1.53444 0
M  V30 7879 C 737.004 -1.46445 1.83278 0
M  V30 7880 C 738.02 -1.5833 0.721629 0
M  V30 7881 O 739.196 -1.7411 1.01231 0
M  V30 7882 C 736.261 -2.81638 2.02191 0
M  V30 7883 C 735.322 -2.7923 3.26082 0
M  V30 7884 C 734.555 -4.07974 3.44082 0
M  V30 7885 O 734.778 -5.04447 2.66251 0
M  V30 7886 O 733.712 -4.13417 4.37458 0
M  V30 7887 H 737.538 -1.24156 2.77162 0
M  V30 7888 H 735.123 -0.550201 1.389 0
M  V30 7889 H 737.005 -3.61732 2.16167 0
M  V30 7890 H 735.68 -3.03892 1.11496 0
M  V30 7891 H 734.587 -1.97813 3.17523 0
M  V30 7892 H 735.92 -2.6193 4.16718 0
M  V30 7893 N 737.572 -1.44907 -0.619662 0
M  V30 7894 C 738.82 -1.47999 -1.37625 0
M  V30 7895 C 739.141 -0.118295 -1.94641 0
M  V30 7896 O 738.411 0.85086 -1.76457 0
M  V30 7897 H 736.991 -0.544993 -0.510873 0
M  V30 7898 H 739.653 -1.80772 -0.728522 0
M  V30 7899 H 738.749 -2.21196 -2.20179 0
M  V30 7900 N 739.05 0.861098 -1.31996 0
M  V30 7901 C 740.296 1.61707 -1.23379 0
M  V30 7902 C 740.651 1.91315 0.204026 0
M  V30 7903 O 739.944 1.53997 1.13998 0
M  V30 7904 C 740.138 2.94822 -2.02027 0
M  V30 7905 C 739.967 2.78212 -3.5331 0
M  V30 7906 C 738.737 2.76933 -4.22654 0
M  V30 7907 C 740.935 2.52432 -4.48088 0
M  V30 7908 N 738.917 2.51466 -5.60034 0
M  V30 7909 C 740.288 2.36312 -5.73198 0
M  V30 7910 C 742.343 2.37848 -4.37416 0
M  V30 7911 C 741.046 2.0709 -6.88844 0
M  V30 7912 C 743.072 2.10016 -5.52854 0
M  V30 7913 C 742.434 1.94691 -6.7696 0
M  V30 7914 H 738.533 0.595703 -0.506618 0
M  V30 7915 H 741.117 1.01275 -1.66287 0
M  V30 7916 H 739.288 3.53243 -1.61474 0
M  V30 7917 H 741.02 3.59756 -1.85358 0
M  V30 7918 H 737.775 2.89638 -3.74709 0
M  V30 7919 H 738.199 2.41679 -6.32392 0
M  V30 7920 H 742.841 2.4842 -3.42122 0
M  V30 7921 H 740.559 1.95256 -7.84156 0
M  V30 7922 H 744.145 1.99519 -5.46519 0
M  V30 7923 H 743.025 1.7346 -7.64775 0
M  V30 7924 N 740.528 1.15101 1.07655 0
M  V30 7925 C 741.768 0.934462 1.81789 0
M  V30 7926 C 742.132 -0.529101 1.84566 0
M  V30 7927 O 743.333 -0.863868 2.5454 0
M  V30 7928 C 741.604 1.52817 3.23082 0
M  V30 7929 S 743.163 1.45429 4.14 0
M  V30 7930 H 739.981 0.336379 0.626395 0
M  V30 7931 H 742.583 1.46593 1.29347 0
M  V30 7932 H 741.287 2.58635 3.18647 0
M  V30 7933 H 740.818 0.995432 3.80598 0
M  V30 7934 H 742.833 0.445058 4.942 0
M  V30 7935 N 742.006 -1.2595 0.947325 0
M  V30 7936 C 743.252 -1.94081 0.608604 0
M  V30 7937 C 743.607 -1.72899 -0.844021 0
M  V30 7938 O 742.9 -1.05908 -1.59669 0
M  V30 7939 C 743.094 -3.46034 0.894158 0
M  V30 7940 C 742.923 -3.81994 2.37299 0
M  V30 7941 C 741.693 -4.04431 3.02925 0
M  V30 7942 C 743.891 -3.90069 3.35188 0
M  V30 7943 N 741.873 -4.27325 4.40757 0
M  V30 7944 C 743.244 -4.17567 4.58299 0
M  V30 7945 C 745.299 -3.72721 3.30127 0
M  V30 7946 C 744.002 -4.2952 5.76979 0
M  V30 7947 C 746.028 -3.8591 4.48138 0
M  V30 7948 C 745.39 -4.13812 5.70034 0
M  V30 7949 H 741.489 -0.73273 0.273187 0
M  V30 7950 H 744.073 -1.51898 1.218 0
M  V30 7951 H 742.244 -3.87131 0.313758 0
M  V30 7952 H 743.976 -4.01396 0.516082 0
M  V30 7953 H 740.731 -4.0003 2.53521 0
M  V30 7954 H 741.155 -4.42792 5.12118 0
M  V30 7955 H 745.797 -3.50172 2.36938 0
M  V30 7956 H 743.515 -4.50888 6.70616 0
M  V30 7957 H 747.101 -3.73882 4.45762 0
M  V30 7958 H 745.981 -4.23791 6.59827 0
M  V30 7959 N 743.484 -0.715051 -1.40445 0
M  V30 7960 C 744.895 -0.326763 -1.83818 0
M  V30 7961 C 745.246 1.13851 -1.59789 0
M  V30 7962 O 744.371 1.87611 -1.07848 0
M  V30 7963 C 744.966 -0.586297 -3.33688 0
M  V30 7964 C 743.525 -0.251724 -3.75557 0
M  V30 7965 C 742.672 -0.858928 -2.63662 0
M  V30 7966 H 745.623 -0.914241 -1.2972 0
M  V30 7967 H 745.644 0.148636 -3.8021 0
M  V30 7968 H 745.156 -1.65281 -3.51146 0
M  V30 7969 H 743.257 0.809754 -3.63695 0
M  V30 7970 H 743.37 -0.720348 -4.73654 0
M  V30 7971 H 741.734 -0.287013 -2.53078 0
M  V30 7972 H 742.517 -1.9297 -2.83932 0
M  V30 7973 N 744.962 1.50701 -0.461195 0
M  V30 7974 C 746.21 2.01867 0.0970051 0
M  V30 7975 C 746.531 1.34591 1.41104 0
M  V30 7976 O 745.801 0.488041 1.89723 0
M  V30 7977 H 744.381 0.74599 0.0388392 0
M  V30 7978 H 747.043 1.85129 -0.609357 0
M  V30 7979 H 746.139 3.11051 0.255688 0
M  V30 7980 N 746.441 0.193421 1.56409 0
M  V30 7981 C 747.666 -0.454552 2.02358 0
M  V30 7982 C 748.091 -1.54516 1.07268 0
M  V30 7983 O 747.449 -1.81214 0.0558962 0
M  V30 7984 C 747.497 -0.989469 3.46759 0
M  V30 7985 O 746.601 -2.10244 3.54783 0
M  V30 7986 H 745.942 -0.106417 0.655417 0
M  V30 7987 H 748.472 0.303807 2.02332 0
M  V30 7988 H 748.482 -1.30649 3.86516 0
M  V30 7989 H 747.157 -0.191083 4.15461 0
M  V30 7990 H 745.734 -1.79419 3.26899 0
M  V30 7991 N 747.919 -1.57396 -0.0801906 0
M  V30 7992 C 748.882 -2.02133 -1.0805 0
M  V30 7993 C 749.882 -0.91707 -1.32085 0
M  V30 7994 O 751.072 -1.18217 -1.27947 0
M  V30 7995 C 748.204 -2.39479 -2.42616 0
M  V30 7996 H 749.397 -2.91733 -0.6951 0
M  V30 7997 H 746.95 -1.52869 -0.325677 0
M  V30 7998 H 747.685 -1.52879 -2.86004 0
M  V30 7999 H 747.47 -3.20052 -2.26515 0
M  V30 8000 H 748.96 -2.74697 -3.14534 0
M  V30 8001 N 749.397 0.351382 -1.53633 0
M  V30 8002 C 750.645 1.09034 -1.70165 0
M  V30 8003 C 750.966 1.89413 -0.463422 0
M  V30 8004 O 750.236 1.888 0.522624 0
M  V30 8005 H 748.816 0.405522 -0.627344 0
M  V30 8006 H 751.478 0.394554 -1.90865 0
M  V30 8007 H 750.574 1.77215 -2.56907 0
M  V30 8008 N 750.875 1.45233 0.611969 0
M  V30 8009 C 752.105 1.52318 1.39581 0
M  V30 8010 C 752.513 0.153093 1.8858 0
M  V30 8011 O 751.856 -0.854792 1.62601 0
M  V30 8012 C 751.918 2.4426 2.63775 0
M  V30 8013 C 751.582 3.91079 2.36445 0
M  V30 8014 C 752.579 4.81099 1.97079 0
M  V30 8015 C 750.264 4.35958 2.49492 0
M  V30 8016 C 752.258 6.14002 1.71115 0
M  V30 8017 C 749.945 5.68903 2.23142 0
M  V30 8018 C 750.943 6.57744 1.84015 0
M  V30 8019 O 750.631 7.88226 1.5797 0
M  V30 8020 H 750.363 0.518428 0.43383 0
M  V30 8021 H 752.917 1.91067 0.753837 0
M  V30 8022 H 751.147 2.00474 3.30677 0
M  V30 8023 H 752.836 2.42077 3.25812 0
M  V30 8024 H 753.602 4.47692 1.86539 0
M  V30 8025 H 749.481 3.67053 2.78914 0
M  V30 8026 H 753.025 6.83305 1.405 0
M  V30 8027 H 748.922 6.01866 2.33297 0
M  V30 8028 H 749.69 8.00211 1.72058 0
M  V30 8029 N 752.353 -0.854086 1.3245 0
M  V30 8030 C 753.764 -1.42427 1.20712 0
M  V30 8031 C 754.115 -1.95371 -0.18013 0
M  V30 8032 O 753.24 -1.87587 -1.07889 0
M  V30 8033 C 753.835 -2.58897 2.18536 0
M  V30 8034 C 752.394 -3.11913 2.10683 0
M  V30 8035 C 751.541 -1.84661 2.06871 0
M  V30 8036 H 754.492 -0.661192 1.4427 0
M  V30 8037 H 754.513 -3.36074 1.78422 0
M  V30 8038 H 754.025 -2.20333 3.19492 0
M  V30 8039 H 752.126 -3.55059 1.12977 0
M  V30 8040 H 752.239 -3.73119 3.00532 0
M  V30 8041 H 750.603 -2.04285 1.52118 0
M  V30 8042 H 751.386 -1.48314 3.09609 0
M  V30 8043 N 753.831 -1.1567 -1.07043 0
M  V30 8044 C 755.108 -0.843948 -1.76456 0
M  V30 8045 C 755.488 0.659806 -2.00524 0
M  V30 8046 O 754.836 1.60518 -1.62623 0
M  V30 8047 C 755.046 -1.65822 -3.0709 0
M  V30 8048 C 756.394 -1.8664 -3.8138 0
M  V30 8049 O 757.418 -1.62624 -3.1691 0
M  V30 8050 O 756.277 -2.26884 -4.97178 0
M  V30 8051 H 753.371 -0.310677 -0.766426 0
M  V30 8052 H 755.917 -1.26266 -1.1338 0
M  V30 8053 H 754.689 -2.67902 -2.85209 0
M  V30 8054 H 754.312 -1.23605 -3.77899 0
M  V30 8055 N 755.309 1.25446 -0.953992 0
M  V30 8056 C 756.556 1.93143 -0.608429 0
M  V30 8057 C 756.884 1.74727 0.854451 0
M  V30 8058 O 756.139 1.0855 1.62836 0
M  V30 8059 C 756.438 3.45555 -0.912496 0
M  V30 8060 C 756.104 3.84126 -2.36131 0
M  V30 8061 C 754.766 3.94367 -2.75732 0
M  V30 8062 C 757.118 4.0324 -3.30223 0
M  V30 8063 C 754.446 4.21127 -4.08496 0
M  V30 8064 C 756.798 4.31493 -4.62598 0
M  V30 8065 C 755.462 4.3995 -5.01996 0
M  V30 8066 H 754.732 0.706762 -0.22264 0
M  V30 8067 H 757.379 1.49005 -1.20291 0
M  V30 8068 H 755.684 3.91091 -0.235618 0
M  V30 8069 H 757.381 3.9612 -0.623714 0
M  V30 8070 H 753.971 3.76711 -2.04418 0
M  V30 8071 H 758.155 3.94744 -3.00817 0
M  V30 8072 H 753.411 4.2589 -4.38665 0
M  V30 8073 H 757.585 4.45227 -5.35486 0
M  V30 8074 H 755.212 4.60439 -6.04896 0
M  V30 8075 N 756.787 0.722489 1.40064 0
M  V30 8076 C 758.015 0.274838 2.05066 0
M  V30 8077 C 758.43 -1.08586 1.54449 0
M  V30 8078 O 757.787 -1.68375 0.704003 0
M  V30 8079 C 757.838 0.253673 3.60609 0
M  V30 8080 O 757.559 1.56064 4.0936 0
M  V30 8081 C 759.06 -0.211684 4.42794 0
M  V30 8082 H 756.28 0.12226 0.659768 0
M  V30 8083 H 758.824 0.982632 1.79345 0
M  V30 8084 H 756.979 -0.405137 3.85276 0
M  V30 8085 H 757.393 1.46576 5.03603 0
M  V30 8086 H 758.867 -0.175341 5.51721 0
M  V30 8087 H 759.344 -1.25493 4.2089 0
M  V30 8088 H 759.95 0.4171 4.2325 0
M  V30 8089 N 758.265 -1.50454 0.469181 0
M  V30 8090 C 759.213 -2.30101 -0.340033 0
M  V30 8091 C 760.207 -1.37306 -0.992135 0
M  V30 8092 O 761.413 -1.54506 -0.923458 0
M  V30 8093 H 757.788 -0.740941 -0.128495 0
M  V30 8094 H 759.759 -2.96315 0.352144 0
M  V30 8095 C 758.508 -3.17804 -1.41052 0
M  V30 8096 H 757.831 -3.89115 -0.918124 0
M  V30 8097 H 759.271 -3.76533 -1.94934 0
M  V30 8098 C 757.73 -2.35272 -2.4114 0
M  V30 8099 O 758.26 -2.03448 -3.4637 0
M  V30 8100 N 756.466 -1.97889 -2.1281 0
M  V30 8101 H 756.013 -2.2397 -1.27261 0
M  V30 8102 H 755.971 -1.42971 -2.80012 0
M  V30 8103 N 759.743 -0.201713 -1.56304 0
M  V30 8104 C 761.154 0.309711 -1.84113 0
M  V30 8105 C 761.505 1.60912 -1.12258 0
M  V30 8106 O 760.63 2.12937 -0.385587 0
M  V30 8107 C 761.225 0.568706 -3.33993 0
M  V30 8108 C 759.784 1.02448 -3.6219 0
M  V30 8109 C 758.931 0.0766842 -2.77194 0
M  V30 8110 H 761.882 -0.425356 -1.52893 0
M  V30 8111 H 761.903 1.41721 -3.53122 0
M  V30 8112 H 761.415 -0.37719 -3.86263 0
M  V30 8113 H 759.516 1.98443 -3.15359 0
M  V30 8114 H 759.629 0.912619 -4.70328 0
M  V30 8115 H 757.993 0.579809 -2.48013 0
M  V30 8116 H 758.776 -0.863774 -3.32256 0
M  V30 8117 N 761.222 1.57436 0.0718424 0
M  V30 8118 C 762.45 1.91474 0.783932 0
M  V30 8119 C 762.865 0.797669 1.71122 0
M  V30 8120 O 762.222 -0.228989 1.81058 0
M  V30 8121 C 762.273 3.25259 1.57761 0
M  V30 8122 O 761.994 4.3267 0.687596 0
M  V30 8123 C 763.495 3.7331 2.3907 0
M  V30 8124 H 760.715 0.632901 0.222885 0
M  V30 8125 H 763.259 2.04457 0.0421262 0
M  V30 8126 H 761.414 3.13804 2.27169 0
M  V30 8127 H 761.828 5.09641 1.23962 0
M  V30 8128 H 763.302 4.69551 2.90216 0
M  V30 8129 H 763.779 3.02318 3.18591 0
M  V30 8130 H 764.385 3.8771 1.74818 0
M  V30 8131 N 762.7 -0.34323 1.53817 0
M  V30 8132 C 763.633 -1.44472 1.76644 0
M  V30 8133 C 764.611 -1.50498 0.615556 0
M  V30 8134 O 765.795 -1.6821 0.850751 0
M  V30 8135 C 762.922 -2.82705 1.86536 0
M  V30 8136 C 761.968 -2.94302 3.08688 0
M  V30 8137 S 762.801 -2.60739 4.67735 0
M  V30 8138 C 763.957 -4.01079 4.80506 0
M  V30 8139 H 764.19 -1.24893 2.69794 0
M  V30 8140 H 761.723 -0.538915 1.4469 0
M  V30 8141 H 763.681 -3.62342 1.92921 0
M  V30 8142 H 762.342 -2.9958 0.943975 0
M  V30 8143 H 761.535 -3.95593 3.12286 0
M  V30 8144 H 761.137 -2.22614 3.00531 0
M  V30 8145 H 763.429 -4.95603 4.61935 0
M  V30 8146 H 764.372 -4.02475 5.82597 0
M  V30 8147 H 764.78 -3.89119 4.08958 0
M  V30 8148 N 764.178 -1.45556 -0.604258 0
M  V30 8149 C 765.594 -1.30035 -0.925368 0
M  V30 8150 C 765.794 -0.255833 -1.99869 0
M  V30 8151 O 764.85 0.349076 -2.50075 0
M  V30 8152 C 766.163 -2.68028 -1.36314 0
M  V30 8153 C 767.711 -2.75951 -1.47717 0
M  V30 8154 C 768.186 -4.14476 -1.94868 0
M  V30 8155 N 769.677 -4.16787 -2.02097 0
M  V30 8156 C 770.412 -5.20845 -2.39809 0
M  V30 8157 N 769.908 -6.35246 -2.76467 0
M  V30 8158 N 771.701 -5.08204 -2.40177 0
M  V30 8159 H 763.852 -2.1214 0.10512 0
M  V30 8160 H 766.115 -0.947871 -0.0156303 0
M  V30 8161 H 765.821 -3.45667 -0.648628 0
M  V30 8162 H 765.695 -2.96711 -2.329 0
M  V30 8163 H 768.082 -1.98613 -2.18258 0
M  V30 8164 H 768.163 -2.50977 -0.494371 0
M  V30 8165 H 767.807 -4.923 -1.24912 0
M  V30 8166 H 767.737 -4.36843 -2.94068 0
M  V30 8167 H 770.228 -3.34233 -1.76343 0
M  V30 8168 H 770.541 -7.10438 -3.04134 0
M  V30 8169 H 768.886 -6.38642 -2.74155 0
M  V30 8170 H 772.077 -4.17874 -2.10947 0
M  V30 8171 H 772.25 -5.89417 -2.69242 0
M  V30 8172 N 765.656 0.84705 -1.32902 0
M  V30 8173 C 766.619 1.9378 -1.224 0
M  V30 8174 C 767.619 1.60144 -0.145108 0
M  V30 8175 O 768.809 1.69638 -0.396058 0
M  V30 8176 C 765.941 3.29234 -0.884174 0
M  V30 8177 H 767.134 2.04518 -2.19345 0
M  V30 8178 H 764.687 1.03816 -1.16842 0
M  V30 8179 H 765.422 3.24193 0.0831277 0
M  V30 8180 H 765.207 3.55026 -1.6643 0
M  V30 8181 H 766.697 4.09162 -0.835226 0
M  V30 8182 N 767.134 1.16236 1.06428 0
M  V30 8183 C 768.38 0.954417 1.79617 0
M  V30 8184 C 768.735 -0.512411 1.85451 0
M  V30 8185 O 768.028 -1.37523 1.33409 0
M  V30 8186 C 768.222 1.51396 3.2375 0
M  V30 8187 C 768.051 3.03367 3.31962 0
M  V30 8188 C 766.821 3.71996 3.41975 0
M  V30 8189 C 769.019 4.01075 3.21937 0
M  V30 8190 N 767.001 5.11688 3.39187 0
M  V30 8191 C 768.372 5.27142 3.26376 0
M  V30 8192 C 770.427 3.92917 3.05812 0
M  V30 8193 C 769.13 6.46 3.16348 0
M  V30 8194 C 771.156 5.11344 2.97121 0
M  V30 8195 C 770.518 6.36291 3.02181 0
M  V30 8196 H 766.617 0.403007 0.670156 0
M  V30 8197 H 769.201 1.47605 1.26968 0
M  V30 8198 H 767.372 1.01883 3.74799 0
M  V30 8199 H 769.104 1.2439 3.85109 0
M  V30 8200 H 765.859 3.22623 3.46715 0
M  V30 8201 H 766.283 5.84676 3.41297 0
M  V30 8202 H 770.925 2.97172 3.00746 0
M  V30 8203 H 768.643 7.41968 3.2017 0
M  V30 8204 H 772.229 5.06801 2.85734 0
M  V30 8205 H 771.109 7.26389 2.95513 0
M  V30 8206 N 768.612 -1.24939 0.960631 0
M  V30 8207 C 769.858 -1.93425 0.629155 0
M  V30 8208 C 770.213 -1.73784 -0.825635 0
M  V30 8209 O 769.506 -1.07595 -1.58536 0
M  V30 8210 C 769.7 -3.45066 0.930809 0
M  V30 8211 C 769.529 -3.79455 2.41337 0
M  V30 8212 C 768.299 -4.01195 3.07197 0
M  V30 8213 C 770.497 -3.86492 3.39306 0
M  V30 8214 N 768.479 -4.22626 4.45265 0
M  V30 8215 C 769.85 -4.12682 4.62702 0
M  V30 8216 C 771.905 -3.69198 3.34061 0
M  V30 8217 C 770.608 -4.23376 5.81502 0
M  V30 8218 C 772.634 -3.81135 4.52206 0
M  V30 8219 C 771.996 -4.07743 5.74391 0
M  V30 8220 H 768.095 -0.729791 0.280943 0
M  V30 8221 H 770.679 -1.50597 1.23404 0
M  V30 8222 H 768.85 -3.86776 0.354801 0
M  V30 8223 H 770.582 -4.00826 0.558627 0
M  V30 8224 H 767.337 -3.97319 2.5775 0
M  V30 8225 H 767.761 -4.37335 5.16785 0
M  V30 8226 H 772.403 -3.47639 2.40638 0
M  V30 8227 H 770.121 -4.4375 6.75361 0
M  V30 8228 H 773.707 -3.69133 4.49702 0
M  V30 8229 H 772.587 -4.16768 6.64284 0
M  V30 8230 N 770.09 -0.729906 -1.39679 0
M  V30 8231 C 771.053 -0.0951668 -2.29002 0
M  V30 8232 C 772.053 0.672471 -1.46063 0
M  V30 8233 O 773.243 0.502245 -1.66803 0
M  V30 8234 C 770.375 0.874631 -3.29489 0
M  V30 8235 H 771.568 -0.882062 -2.86635 0
M  V30 8236 H 769.121 -0.495424 -1.4824 0
M  V30 8237 H 769.856 1.68807 -2.76902 0
M  V30 8238 H 769.641 0.326893 -3.90735 0
M  V30 8239 H 771.131 1.31548 -3.96339 0
M  V30 8240 N 771.568 1.50203 -0.477153 0
M  V30 8241 C 772.516 2.30278 0.327826 0
M  V30 8242 C 773.51 1.37831 0.984839 0
M  V30 8243 O 774.716 1.54994 0.915251 0
M  V30 8244 H 771.091 0.741612 0.124564 0
M  V30 8245 H 773.062 2.96124 -0.367853 0
M  V30 8246 C 771.811 3.18548 1.39365 0
M  V30 8247 H 771.134 3.89596 0.897475 0
M  V30 8248 H 772.574 3.77561 1.92934 0
M  V30 8249 C 771.033 2.36548 2.39889 0
M  V30 8250 O 771.563 2.05282 3.45286 0
M  V30 8251 N 769.769 1.99015 2.11758 0
M  V30 8252 H 769.316 2.24641 1.26071 0
M  V30 8253 H 769.274 1.44454 2.7925 0
M  V30 8254 N 773.046 0.209999 1.56195 0
M  V30 8255 C 773.979 -0.744546 2.15712 0
M  V30 8256 C 774.957 -1.19917 1.09812 0
M  V30 8257 O 776.141 -1.284 1.38006 0
M  V30 8258 C 773.268 -2.00733 2.72807 0
M  V30 8259 C 772.314 -1.69363 3.91431 0
M  V30 8260 S 773.147 -0.828579 5.29051 0
M  V30 8261 C 774.303 -2.10118 5.89577 0
M  V30 8262 H 774.536 -0.238636 2.96341 0
M  V30 8263 H 772.069 -0.00517877 1.54399 0
M  V30 8264 H 774.027 -2.73246 3.06344 0
M  V30 8265 H 772.688 -2.48436 1.92193 0
M  V30 8266 H 771.881 -2.63157 4.29842 0
M  V30 8267 H 771.483 -1.04921 3.58981 0
M  V30 8268 H 773.775 -3.05231 6.04847 0
M  V30 8269 H 774.718 -1.76116 6.85849 0
M  V30 8270 H 775.126 -2.23644 5.18308 0
M  V30 8271 N 774.524 -1.57472 -0.0634922 0
M  V30 8272 C 775.771 -1.87654 -0.761066 0
M  V30 8273 C 776.099 -0.802847 -1.77157 0
M  V30 8274 O 775.354 0.200244 -1.94673 0
M  V30 8275 C 775.653 -3.24521 -1.49736 0
M  V30 8276 C 775.319 -4.46532 -0.626065 0
M  V30 8277 C 773.981 -4.7965 -0.385978 0
M  V30 8278 C 776.333 -5.21195 -0.0224001 0
M  V30 8279 C 773.661 -5.84837 0.467118 0
M  V30 8280 C 776.013 -6.27286 0.818198 0
M  V30 8281 C 774.677 -6.58899 1.06808 0
M  V30 8282 H 773.947 -0.686675 -0.278494 0
M  V30 8283 H 776.594 -1.91488 -0.0216348 0
M  V30 8284 H 774.899 -3.16516 -2.30921 0
M  V30 8285 H 776.596 -3.45111 -2.04204 0
M  V30 8286 H 773.186 -4.20618 -0.823325 0
M  V30 8287 H 777.37 -4.95917 -0.194985 0
M  V30 8288 H 772.626 -6.07725 0.669375 0
M  V30 8289 H 776.8 -6.84298 1.29265 0
M  V30 8290 H 774.427 -7.40233 1.73088 0
M  V30 8291 N 776.003 0.335068 -1.53997 0
M  V30 8292 C 777.228 1.09859 -1.75914 0
M  V30 8293 C 777.653 1.81308 -0.500915 0
M  V30 8294 O 777.011 1.72854 0.54693 0
M  V30 8295 C 777.059 2.08122 -2.94478 0
M  V30 8296 O 776.163 3.15805 -2.65219 0
M  V30 8297 H 775.504 0.317313 -0.583274 0
M  V30 8298 H 778.034 0.382872 -2.00986 0
M  V30 8299 H 778.044 2.51195 -3.21504 0
M  V30 8300 H 776.719 1.55517 -3.8573 0
M  V30 8301 H 775.296 2.77489 -2.49107 0
M  V30 8302 N 777.481 1.45874 0.596531 0
M  V30 8303 C 778.711 1.5379 1.37958 0
M  V30 8304 C 779.119 0.173086 1.88407 0
M  V30 8305 O 778.462 -0.837498 1.63498 0
M  V30 8306 C 778.524 2.47044 2.61169 0
M  V30 8307 C 778.188 3.93565 2.32283 0
M  V30 8308 C 779.185 4.83162 1.91965 0
M  V30 8309 C 776.87 4.38579 2.44854 0
M  V30 8310 C 778.864 6.15782 1.64593 0
M  V30 8311 C 776.551 5.71238 2.17095 0
M  V30 8312 C 777.549 6.59659 1.77028 0
M  V30 8313 O 777.237 7.89857 1.49601 0
M  V30 8314 H 776.969 0.523 0.428307 0
M  V30 8315 H 779.523 1.91855 0.733529 0
M  V30 8316 H 777.753 2.0397 3.28532 0
M  V30 8317 H 779.442 2.4552 3.23226 0
M  V30 8318 H 780.208 4.49646 1.8178 0
M  V30 8319 H 776.087 3.6999 2.75006 0
M  V30 8320 H 779.631 6.84757 1.33245 0
M  V30 8321 H 775.528 6.04306 2.26901 0
M  V30 8322 H 776.296 8.01991 1.63561 0
M  V30 8323 N 778.959 -0.83999 1.33349 0
M  V30 8324 C 780.236 -1.57973 1.15342 0
M  V30 8325 C 780.616 -2.09226 -0.280632 0
M  V30 8326 O 779.964 -1.89317 -1.2795 0
M  V30 8327 C 780.174 -2.71446 2.19359 0
M  V30 8328 C 781.522 -3.40654 2.53456 0
M  V30 8329 O 782.546 -2.81686 2.18017 0
M  V30 8330 O 781.405 -4.47101 3.14266 0
M  V30 8331 H 778.499 -0.6964 0.446044 0
M  V30 8332 H 781.045 -0.882843 1.44927 0
M  V30 8333 H 779.817 -2.31205 3.1569 0
M  V30 8334 H 779.44 -3.488 1.90852 0
M  V30 8335 N 780.437 -1.16799 -1.0581 0
M  V30 8336 C 781.385 -0.875111 -2.1551 0
M  V30 8337 C 782.379 0.157781 -1.68664 0
M  V30 8338 O 783.585 0.011297 -1.79996 0
M  V30 8339 H 779.96 -0.26542 -0.703602 0
M  V30 8340 H 781.931 -1.8076 -2.37421 0
M  V30 8341 C 780.68 -0.39802 -3.45414 0
M  V30 8342 H 780.003 -1.18425 -3.81858 0
M  V30 8343 H 781.443 -0.231913 -4.23365 0
M  V30 8344 C 779.902 0.88327 -3.25115 0
M  V30 8345 O 780.432 1.95145 -3.51114 0
M  V30 8346 N 778.638 0.828961 -2.78526 0
M  V30 8347 H 778.185 -0.0405029 -2.57568 0
M  V30 8348 H 778.143 1.68673 -2.65324 0
M  V30 8349 N 781.915 1.24427 -0.967243 0
M  V30 8350 C 783.145 1.96256 -0.64554 0
M  V30 8351 C 783.553 1.71959 0.789098 0
M  V30 8352 O 782.896 0.999913 1.54102 0
M  V30 8353 C 782.958 3.49553 -0.839798 0
M  V30 8354 C 782.622 3.97548 -2.25399 0
M  V30 8355 C 783.619 4.07257 -3.23168 0
M  V30 8356 C 781.304 4.30884 -2.58156 0
M  V30 8357 C 783.298 4.49635 -4.51782 0
M  V30 8358 C 780.985 4.72946 -3.86996 0
M  V30 8359 C 781.983 4.82286 -4.83621 0
M  V30 8360 O 781.671 5.23409 -6.10162 0
M  V30 8361 H 781.403 0.632002 -0.239895 0
M  V30 8362 H 783.957 1.59224 -1.29757 0
M  V30 8363 H 782.187 3.86479 -0.130603 0
M  V30 8364 H 783.876 4.02591 -0.517249 0
M  V30 8365 H 784.642 3.8172 -2.9919 0
M  V30 8366 H 780.521 4.22833 -1.83666 0
M  V30 8367 H 784.065 4.5684 -5.27203 0
M  V30 8368 H 779.962 4.9793 -4.10775 0
M  V30 8369 H 780.73 5.4156 -6.13722 0
M  V30 8370 N 783.393 0.737304 1.3929 0
M  V30 8371 C 784.303 0.100464 2.34385 0
M  V30 8372 C 785.319 -0.719282 1.58437 0
M  V30 8373 O 786.495 -0.647216 1.90717 0
M  V30 8374 C 783.56 -0.794325 3.37478 0
M  V30 8375 C 782.621 0.0379345 4.29283 0
M  V30 8376 C 781.854 -0.814241 5.27452 0
M  V30 8377 O 782.077 -2.05288 5.32177 0
M  V30 8378 O 781.011 -0.241679 6.01415 0
M  V30 8379 H 784.837 0.885407 2.90507 0
M  V30 8380 H 782.422 0.497999 1.40856 0
M  V30 8381 H 784.304 -1.30622 4.00644 0
M  V30 8382 H 782.979 -1.55804 2.83737 0
M  V30 8383 H 781.886 0.595405 3.69331 0
M  V30 8384 H 783.219 0.763926 4.86236 0
M  V30 8385 N 784.871 -1.49948 0.485112 0
M  V30 8386 C 786.119 -2.01996 -0.0648775 0
M  V30 8387 C 786.44 -1.36819 -1.38945 0
M  V30 8388 O 785.71 -0.518163 -1.88923 0
M  V30 8389 H 784.29 -0.746513 -0.0269662 0
M  V30 8390 H 786.952 -1.84136 0.638733 0
M  V30 8391 H 786.048 -3.11418 -0.20617 0
M  V30 8392 N 786.349 -0.21828 -1.56081 0
M  V30 8393 C 787.574 0.422302 -2.03055 0
M  V30 8394 C 787.999 1.5279 -1.09713 0
M  V30 8395 O 787.357 1.81102 -0.0847187 0
M  V30 8396 C 787.405 0.934177 -3.48289 0
M  V30 8397 O 786.509 2.04574 -3.58083 0
M  V30 8398 H 785.85 0.0959764 -0.657027 0
M  V30 8399 H 788.38 -0.335958 -2.01823 0
M  V30 8400 H 788.39 1.24484 -3.88546 0
M  V30 8401 H 787.065 0.124963 -4.15712 0
M  V30 8402 H 785.642 1.74196 -3.29712 0
M  V30 8403 N 787.827 1.57504 0.0551401 0
M  V30 8404 C 788.79 2.03826 1.04821 0
M  V30 8405 C 789.79 0.937968 1.30609 0
M  V30 8406 O 790.98 1.20237 1.2605 0
M  V30 8407 C 788.112 2.43309 2.38775 0
M  V30 8408 H 789.305 2.92802 0.6486 0
M  V30 8409 H 786.858 1.53368 0.301315 0
M  V30 8410 H 787.593 1.5741 2.83536 0
M  V30 8411 H 787.378 3.23615 2.21395 0
M  V30 8412 H 788.868 2.79666 3.10124 0
M  V30 8413 N 789.305 -0.326896 1.54172 0
M  V30 8414 C 790.716 -0.901533 1.63491 0
M  V30 8415 C 791.067 -1.88994 0.52684 0
M  V30 8416 O 790.192 -2.137 -0.340794 0
M  V30 8417 C 790.787 -1.64192 2.96355 0
M  V30 8418 C 789.346 -2.16533 3.07881 0
M  V30 8419 C 788.493 -0.98966 2.59039 0
M  V30 8420 H 791.444 -0.104568 1.58355 0
M  V30 8421 H 791.465 -2.50592 2.86328 0
M  V30 8422 H 790.977 -0.922291 3.76982 0
M  V30 8423 H 789.078 -2.91622 2.31922 0
M  V30 8424 H 789.191 -2.41762 4.13628 0
M  V30 8425 H 787.555 -1.36787 2.14852 0
M  V30 8426 H 788.338 -0.284401 3.4212 0
M  V30 8427 N 790.784 -1.46188 -0.588786 0
M  V30 8428 C 791.732 -1.56653 -1.71938 0
M  V30 8429 C 792.726 -0.435354 -1.6371 0
M  V30 8430 O 793.932 -0.611996 -1.69277 0
M  V30 8431 H 790.307 -0.492408 -0.568365 0
M  V30 8432 H 792.278 -2.51724 -1.60242 0
M  V30 8433 C 791.027 -1.56822 -3.10326 0
M  V30 8434 H 790.35 -2.43198 -3.17325 0
M  V30 8435 H 791.79 -1.68199 -3.89211 0
M  V30 8436 C 790.249 -0.295802 -3.35599 0
M  V30 8437 O 790.779 0.616515 -3.96941 0
M  V30 8438 N 788.985 -0.185609 -2.90007 0
M  V30 8439 H 788.532 -0.928914 -2.40269 0
M  V30 8440 H 788.49 0.664883 -3.07289 0
M  V30 8441 N 792.262 0.832906 -1.33792 0
M  V30 8442 C 793.192 1.95828 -1.27176 0
M  V30 8443 C 794.173 1.69427 -0.15114 0
M  V30 8444 O 795.358 1.91167 -0.341886 0
M  V30 8445 C 792.488 3.32098 -1.01629 0
M  V30 8446 C 791.442 3.72912 -2.10049 0
M  V30 8447 C 790.768 5.07054 -1.69706 0
M  V30 8448 C 792.068 3.86064 -3.51783 0
M  V30 8449 H 793.762 2.01622 -2.21334 0
M  V30 8450 H 791.308 0.96866 -1.0655 0
M  V30 8451 H 793.261 4.10402 -0.956474 0
M  V30 8452 H 791.985 3.26577 -0.0390956 0
M  V30 8453 H 790.644 2.96876 -2.15082 0
M  V30 8454 H 790.292 4.9801 -0.706737 0
M  V30 8455 H 789.992 5.35333 -2.42264 0
M  V30 8456 H 791.516 5.87827 -1.65202 0
M  V30 8457 H 792.93 4.54665 -3.49218 0
M  V30 8458 H 791.327 4.25787 -4.22878 0
M  V30 8459 H 792.397 2.88344 -3.89854 0
M  V30 8460 N 793.74 1.17359 1.05189 0
M  V30 8461 C 794.987 0.961987 1.78191 0
M  V30 8462 C 795.315 -0.509363 1.87712 0
M  V30 8463 O 794.57 -1.39425 1.37329 0
M  V30 8464 C 794.869 1.54821 3.22126 0
M  V30 8465 C 794.535 3.04378 3.32663 0
M  V30 8466 C 793.197 3.45201 3.35246 0
M  V30 8467 C 795.549 4.00387 3.33677 0
M  V30 8468 C 792.877 4.80629 3.36471 0
M  V30 8469 C 795.229 5.35715 3.36441 0
M  V30 8470 C 793.893 5.76002 3.37311 0
M  V30 8471 H 793.163 0.352016 0.652047 0
M  V30 8472 H 795.81 1.46249 1.23627 0
M  V30 8473 H 794.115 0.969432 3.79617 0
M  V30 8474 H 795.812 1.36004 3.77232 0
M  V30 8475 H 792.402 2.71836 3.31366 0
M  V30 8476 H 796.586 3.69906 3.30882 0
M  V30 8477 H 791.842 5.11155 3.35455 0
M  V30 8478 H 796.016 6.09886 3.36173 0
M  V30 8479 H 793.643 6.80919 3.38013 0
M  V30 8480 N 795.218 -1.23913 0.973828 0
M  V30 8481 C 796.464 -1.92436 0.640026 0
M  V30 8482 C 796.797 -1.75875 -0.823512 0
M  V30 8483 O 796.072 -1.11563 -1.59323 0
M  V30 8484 C 796.355 -3.4526 1.0231 0
M  V30 8485 C 796.208 -3.70961 2.54378 0
M  V30 8486 C 797.527 -4.36495 0.562155 0
M  V30 8487 H 794.646 -0.698868 0.233992 0
M  V30 8488 H 797.288 -1.46163 1.21393 0
M  V30 8489 H 795.438 -3.84802 0.534751 0
M  V30 8490 H 797.11 -3.40941 3.10737 0
M  V30 8491 H 795.353 -3.15899 2.97305 0
M  V30 8492 H 796.024 -4.77912 2.76232 0
M  V30 8493 H 798.5 -4.04363 0.981333 0
M  V30 8494 H 797.376 -5.42142 0.858689 0
M  V30 8495 H 797.637 -4.38818 -0.537659 0
M  V30 8496 N 796.696 -0.74468 -1.38897 0
M  V30 8497 C 797.942 -0.306249 -2.01081 0
M  V30 8498 C 798.297 1.09724 -1.58046 0
M  V30 8499 O 797.59 1.73923 -0.803834 0
M  V30 8500 C 797.784 -0.357302 -3.55609 0
M  V30 8501 C 797.613 -1.76421 -4.13649 0
M  V30 8502 C 796.383 -2.3787 -4.4581 0
M  V30 8503 C 798.581 -2.71942 -4.36523 0
M  V30 8504 N 796.563 -3.70614 -4.89406 0
M  V30 8505 C 797.934 -3.89437 -4.8243 0
M  V30 8506 C 799.989 -2.69579 -4.18607 0
M  V30 8507 C 798.692 -5.04917 -5.123 0
M  V30 8508 C 800.718 -3.8421 -4.49596 0
M  V30 8509 C 800.08 -5.00442 -4.95719 0
M  V30 8510 H 796.179 -0.158531 -0.765762 0
M  V30 8511 H 798.763 -0.972726 -1.6866 0
M  V30 8512 H 796.934 0.278865 -3.87398 0
M  V30 8513 H 798.666 0.100599 -4.04575 0
M  V30 8514 H 795.421 -1.8971 -4.33943 0
M  V30 8515 H 795.845 -4.38791 -5.1555 0
M  V30 8516 H 800.487 -1.80905 -3.82143 0
M  V30 8517 H 798.205 -5.94213 -5.47665 0
M  V30 8518 H 801.791 -3.83691 -4.37347 0
M  V30 8519 H 800.671 -5.87671 -5.19242 0
M  V30 8520 N 798.174 1.49689 -0.493057 0
M  V30 8521 C 799.122 2.30613 0.303383 0
M  V30 8522 C 800.116 1.38867 0.970165 0
M  V30 8523 O 801.322 1.55956 0.898761 0
M  V30 8524 H 797.697 0.742891 0.116691 0
M  V30 8525 H 799.668 2.95717 -0.39924 0
M  V30 8526 C 798.417 3.20008 1.35978 0
M  V30 8527 H 797.74 3.90526 0.856103 0
M  V30 8528 H 799.18 3.79586 1.88919 0
M  V30 8529 C 797.639 2.39079 2.37367 0
M  V30 8530 O 798.169 2.08933 3.43089 0
M  V30 8531 N 796.375 2.0125 2.09635 0
M  V30 8532 H 795.922 2.25966 1.23682 0
M  V30 8533 H 795.88 1.47408 2.77702 0
M  V30 8534 N 799.652 0.226554 1.55963 0
M  V30 8535 C 800.929 -0.453058 1.90281 0
M  V30 8536 C 801.309 -1.77377 1.14458 0
M  V30 8537 O 800.657 -2.27067 0.255496 0
M  V30 8538 C 800.867 -0.641108 3.43061 0
M  V30 8539 C 802.215 -0.946265 4.13921 0
M  V30 8540 O 803.239 -0.727713 3.48687 0
M  V30 8541 O 802.098 -1.36131 5.29274 0
M  V30 8542 H 799.192 -0.240242 0.791336 0
M  V30 8543 H 801.738 0.26911 1.67553 0
M  V30 8544 H 800.51 0.290283 3.90222 0
M  V30 8545 H 800.133 -1.41458 3.71585 0
M  V30 8546 N 801.13 -1.57531 -0.0467866 0
M  V30 8547 C 802.063 -2.00734 -1.08541 0
M  V30 8548 C 803.041 -0.888508 -1.36177 0
M  V30 8549 O 804.225 -1.1529 -1.49132 0
M  V30 8550 C 801.352 -2.36535 -2.42423 0
M  V30 8551 C 800.398 -3.58681 -2.3076 0
M  V30 8552 S 801.231 -5.08536 -1.67785 0
M  V30 8553 C 802.387 -5.47562 -3.03194 0
M  V30 8554 H 802.62 -2.88516 -0.717345 0
M  V30 8555 H 800.153 -1.5226 -0.256181 0
M  V30 8556 H 802.111 -2.57834 -3.19424 0
M  V30 8557 H 800.772 -1.49236 -2.76382 0
M  V30 8558 H 799.965 -3.81329 -3.29552 0
M  V30 8559 H 799.567 -3.37142 -1.61899 0
M  V30 8560 H 801.859 -5.47163 -3.99524 0
M  V30 8561 H 802.802 -6.48082 -2.85299 0
M  V30 8562 H 803.21 -4.75042 -3.04951 0
M  V30 8563 N 802.608 0.318715 -1.54344 0
M  V30 8564 C 803.556 1.41254 -1.84798 0
M  V30 8565 C 804.55 1.53325 -0.720256 0
M  V30 8566 O 805.756 1.55653 -0.903992 0
M  V30 8567 H 802.131 0.471468 -0.585851 0
M  V30 8568 H 804.102 1.12795 -2.7626 0
M  V30 8569 C 802.851 2.77395 -2.09637 0
M  V30 8570 H 802.174 2.68881 -2.95876 0
M  V30 8571 H 803.614 3.52987 -2.34896 0
M  V30 8572 C 802.073 3.24948 -0.889398 0
M  V30 8573 O 802.603 4.01573 -0.101063 0
M  V30 8574 N 800.809 2.82051 -0.699684 0
M  V30 8575 H 800.356 2.19858 -1.3424 0
M  V30 8576 H 800.314 3.1422 0.106368 0
M  V30 8577 N 804.086 1.46499 0.581025 0
M  V30 8578 C 804.996 1.59778 1.71779 0
M  V30 8579 C 806.012 0.481223 1.67213 0
M  V30 8580 O 807.188 0.74557 1.87091 0
M  V30 8581 C 804.253 1.58626 3.08283 0
M  V30 8582 C 803.314 2.81527 3.241 0
M  V30 8583 C 802.547 2.80421 4.54092 0
M  V30 8584 O 802.77 1.89262 5.38085 0
M  V30 8585 O 801.704 3.71984 4.73193 0
M  V30 8586 H 805.53 2.55918 1.63523 0
M  V30 8587 H 803.115 1.29311 0.748267 0
M  V30 8588 H 804.997 1.60686 3.89561 0
M  V30 8589 H 803.672 0.656467 3.16973 0
M  V30 8590 H 802.579 2.85021 2.42309 0
M  V30 8591 H 803.912 3.73721 3.20302 0
M  V30 8592 N 805.565 -0.825799 1.34232 0
M  V30 8593 C 806.976 -1.39835 1.23706 0
M  V30 8594 C 807.327 -1.95709 -0.138649 0
M  V30 8595 O 806.452 -1.89833 -1.03886 0
M  V30 8596 C 807.047 -2.54203 2.23978 0
M  V30 8597 C 805.606 -3.07374 2.17251 0
M  V30 8598 C 804.753 -1.80232 2.10741 0
M  V30 8599 H 807.704 -0.630442 1.4564 0
M  V30 8600 H 807.725 -3.32214 1.8551 0
M  V30 8601 H 807.237 -2.13506 3.24094 0
M  V30 8602 H 805.338 -3.52583 1.20483 0
M  V30 8603 H 805.451 -3.6666 3.08379 0
M  V30 8604 H 803.815 -2.01012 1.56417 0
M  V30 8605 H 804.598 -1.41713 3.12686 0
M  V30 8606 N 807.043 -1.17915 -1.04565 0
M  V30 8607 C 808.268 -0.996749 -1.81878 0
M  V30 8608 C 808.693 0.450169 -1.82634 0
M  V30 8609 O 808.051 1.32268 -1.23995 0
M  V30 8610 C 808.099 -1.55005 -3.25585 0
M  V30 8611 O 807.203 -0.76804 -4.05185 0
M  V30 8612 H 806.544 -0.353456 -0.562108 0
M  V30 8613 H 809.074 -1.56557 -1.31723 0
M  V30 8614 H 809.084 -1.57503 -3.76373 0
M  V30 8615 H 807.759 -2.60327 -3.2435 0
M  V30 8616 H 806.336 -0.81498 -3.63885 0
M  V30 8617 N 808.521 1.23394 -0.980386 0
M  V30 8618 C 809.767 1.92094 -0.650223 0
M  V30 8619 C 810.1 1.76309 0.814173 0
M  V30 8620 O 809.375 1.12406 1.5873 0
M  V30 8621 C 809.658 3.44713 -1.04139 0
M  V30 8622 C 809.511 3.69606 -2.56342 0
M  V30 8623 C 810.83 4.36191 -0.585296 0
M  V30 8624 H 807.949 0.697618 -0.237695 0
M  V30 8625 H 810.591 1.45517 -1.22167 0
M  V30 8626 H 808.741 3.84513 -0.55515 0
M  V30 8627 H 810.413 3.39288 -3.1254 0
M  V30 8628 H 808.656 3.14318 -2.98976 0
M  V30 8629 H 809.327 4.76441 -2.78762 0
M  V30 8630 H 811.803 4.03836 -1.00276 0
M  V30 8631 H 810.679 5.41679 -0.887428 0
M  V30 8632 H 810.94 4.39097 0.51438 0
M  V30 8633 N 809.999 0.752036 1.385 0
M  V30 8634 C 811.246 0.307503 2.00152 0
M  V30 8635 C 811.574 -1.11033 1.59693 0
M  V30 8636 O 810.829 -1.77455 0.825125 0
M  V30 8637 C 811.128 0.376155 3.55415 0
M  V30 8638 C 810.794 1.74942 4.15579 0
M  V30 8639 C 809.456 2.12525 4.31725 0
M  V30 8640 C 811.808 2.65031 4.48785 0
M  V30 8641 C 809.136 3.39671 4.78373 0
M  V30 8642 C 811.488 3.91567 4.96848 0
M  V30 8643 C 810.152 4.2922 5.11201 0
M  V30 8644 H 809.422 0.112523 0.732407 0
M  V30 8645 H 812.069 0.962213 1.65571 0
M  V30 8646 H 810.374 -0.362121 3.90123 0
M  V30 8647 H 812.071 0.0138065 4.00998 0
M  V30 8648 H 808.661 1.44726 4.03426 0
M  V30 8649 H 812.845 2.3726 4.35914 0
M  V30 8650 H 808.101 3.68765 4.8767 0
M  V30 8651 H 812.275 4.61517 5.21512 0
M  V30 8652 H 809.902 5.27805 5.47107 0
M  V30 8653 N 811.477 -1.49425 0.500989 0
M  V30 8654 C 812.425 -2.30771 -0.291149 0
M  V30 8655 C 813.419 -1.3938 -0.962787 0
M  V30 8656 O 814.625 -1.56431 -0.890477 0
M  V30 8657 H 811 -0.743499 -0.11275 0
M  V30 8658 H 812.971 -2.95501 0.414917 0
M  V30 8659 C 811.72 -3.20725 -1.34279 0
M  V30 8660 H 811.043 -3.90975 -0.83538 0
M  V30 8661 H 812.483 -3.80583 -1.86903 0
M  V30 8662 C 810.942 -2.40334 -2.36095 0
M  V30 8663 O 811.472 -2.10749 -3.41976 0
M  V30 8664 N 809.678 -2.02359 -2.08565 0
M  V30 8665 H 809.225 -2.26619 -1.22482 0
M  V30 8666 H 809.183 -1.48878 -2.76916 0
M  V30 8667 N 812.955 -0.234822 -1.55841 0
M  V30 8668 C 814.203 0.392483 -1.98252 0
M  V30 8669 C 814.524 1.59344 -1.12404 0
M  V30 8670 O 813.794 1.94834 -0.204055 0
M  V30 8671 H 812.374 0.147999 -0.732192 0
M  V30 8672 H 815.036 -0.330804 -1.92072 0
M  V30 8673 H 814.132 0.709829 -3.03921 0
M  V30 8674 N 814.433 1.57553 0.0384317 0
M  V30 8675 C 815.844 1.77258 0.586211 0
M  V30 8676 C 816.195 0.864706 1.76117 0
M  V30 8677 O 815.32 0.057141 2.16325 0
M  V30 8678 C 815.915 3.21453 1.07021 0
M  V30 8679 C 814.474 3.42387 1.56358 0
M  V30 8680 C 813.621 2.72801 0.497508 0
M  V30 8681 H 816.572 1.57585 -0.187796 0
M  V30 8682 H 816.593 3.27451 1.93794 0
M  V30 8683 H 816.105 3.87505 0.214851 0
M  V30 8684 H 814.206 2.81497 2.44111 0
M  V30 8685 H 814.319 4.50968 1.61754 0
M  V30 8686 H 812.683 2.36305 0.95038 0
M  V30 8687 H 813.466 3.41529 -0.348234 0
M  V30 8688 N 815.911 -0.310526 1.54511 0
M  V30 8689 C 816.821 -1.4054 1.87844 0
M  V30 8690 C 817.837 -1.55954 0.771635 0
M  V30 8691 O 819.013 -1.70801 1.06719 0
M  V30 8692 C 816.078 -2.75063 2.11048 0
M  V30 8693 C 815.139 -2.68715 3.348 0
M  V30 8694 C 814.372 -3.96821 3.56887 0
M  V30 8695 O 814.595 -4.95721 2.82165 0
M  V30 8696 O 813.529 -3.99291 4.50389 0
M  V30 8697 H 817.355 -1.15275 2.80972 0
M  V30 8698 H 814.94 -0.505732 1.4058 0
M  V30 8699 H 816.822 -3.54671 2.27566 0
M  V30 8700 H 815.497 -3.00191 1.21108 0
M  V30 8701 H 814.404 -1.87611 3.23655 0
M  V30 8702 H 815.737 -2.4854 4.2484 0
M  V30 8703 N 817.389 -1.46805 -0.573248 0
M  V30 8704 C 818.635 -1.5283 -1.33307 0
M  V30 8705 C 818.968 -0.183287 -1.93333 0
M  V30 8706 O 818.243 0.806354 -1.76998 0
M  V30 8707 C 818.526 -2.63414 -2.45531 0
M  V30 8708 C 818.379 -4.07478 -1.90478 0
M  V30 8709 C 819.698 -2.70014 -3.47535 0
M  V30 8710 H 816.817 -0.556371 -0.483343 0
M  V30 8711 H 819.459 -1.78787 -0.643066 0
M  V30 8712 H 817.609 -2.41412 -3.04389 0
M  V30 8713 H 819.281 -4.40795 -1.36004 0
M  V30 8714 H 817.524 -4.16511 -1.21248 0
M  V30 8715 H 818.195 -4.80598 -2.71531 0
M  V30 8716 H 820.671 -2.89817 -2.98572 0
M  V30 8717 H 819.547 -3.49192 -4.23504 0
M  V30 8718 H 819.808 -1.76436 -4.05367 0
M  V30 8719 N 818.867 0.818669 -1.34668 0
M  V30 8720 C 820.095 1.60674 -1.30351 0
M  V30 8721 C 820.51 1.88408 0.121546 0
M  V30 8722 O 819.867 1.47849 1.06991 0
M  V30 8723 C 819.918 2.94516 -2.09625 0
M  V30 8724 O 819.639 2.6799 -3.46573 0
M  V30 8725 C 821.14 3.8891 -2.12754 0
M  V30 8726 H 818.36 0.499306 -0.448258 0
M  V30 8727 H 820.904 1.01828 -1.77345 0
M  V30 8728 H 819.059 3.49908 -1.66262 0
M  V30 8729 H 819.473 3.53361 -3.87603 0
M  V30 8730 H 820.947 4.79972 -2.72637 0
M  V30 8731 H 821.424 4.24599 -1.12306 0
M  V30 8732 H 822.03 3.39453 -2.56225 0
M  V30 8733 N 820.346 1.18468 1.03938 0
M  V30 8734 C 821.279 0.856251 2.11527 0
M  V30 8735 C 822.257 -0.182323 1.61575 0
M  V30 8736 O 823.441 -0.061 1.88401 0
M  V30 8737 C 820.568 0.279562 3.37544 0
M  V30 8738 C 819.614 1.29552 4.06348 0
M  V30 8739 S 820.447 2.85191 4.5324 0
M  V30 8740 C 821.603 2.29037 5.82489 0
M  V30 8741 H 821.836 1.76742 2.39059 0
M  V30 8742 H 819.369 1.01068 1.16725 0
M  V30 8743 H 821.327 -0.0466579 4.10473 0
M  V30 8744 H 819.988 -0.60975 3.08125 0
M  V30 8745 H 819.181 0.840922 4.96935 0
M  V30 8746 H 818.783 1.56804 3.39541 0
M  V30 8747 H 821.075 1.67376 6.565 0
M  V30 8748 H 822.018 3.17929 6.32714 0
M  V30 8749 H 822.426 1.72009 5.37655 0
M  V30 8750 N 821.824 -1.22873 0.986916 0
M  V30 8751 C 822.754 -2.2688 0.552064 0
M  V30 8752 C 823.735 -1.64883 -0.418048 0
M  V30 8753 O 824.92 -1.9171 -0.30999 0
M  V30 8754 C 822.05 -3.47018 -0.139959 0
M  V30 8755 C 821.004 -4.21411 0.748091 0
M  V30 8756 C 820.33 -5.34645 -0.0765132 0
M  V30 8757 C 821.63 -4.80726 2.04206 0
M  V30 8758 H 823.324 -2.63507 1.42143 0
M  V30 8759 H 820.87 -1.26668 0.68492 0
M  V30 8760 H 822.823 -4.18931 -0.455527 0
M  V30 8761 H 821.547 -3.0947 -1.04382 0
M  V30 8762 H 820.206 -3.51325 1.04721 0
M  V30 8763 H 819.854 -4.93339 -0.981109 0
M  V30 8764 H 819.554 -5.85342 0.514606 0
M  V30 8765 H 821.078 -6.09377 -0.386313 0
M  V30 8766 H 822.492 -5.44612 1.79083 0
M  V30 8767 H 820.889 -5.41737 2.5815 0
M  V30 8768 H 821.959 -4.01109 2.72469 0
M  V30 8769 N 823.302 -0.75937 -1.38099 0
M  V30 8770 C 824.249 -0.135508 -2.30402 0
M  V30 8771 C 825.219 0.703356 -1.50473 0
M  V30 8772 O 826.404 0.658287 -1.79084 0
M  V30 8773 C 823.544 0.747228 -3.36913 0
M  V30 8774 C 822.657 -0.106893 -4.31868 0
M  V30 8775 C 821.792 0.779388 -5.25451 0
M  V30 8776 C 820.831 -0.0780179 -6.1205 0
M  V30 8777 N 819.968 0.765545 -6.97914 0
M  V30 8778 H 824.808 -0.9282 -2.83176 0
M  V30 8779 H 822.345 -0.46935 -1.39411 0
M  V30 8780 H 824.303 1.27371 -3.97281 0
M  V30 8781 H 822.933 1.50565 -2.85535 0
M  V30 8782 H 821.985 -0.751063 -3.72912 0
M  V30 8783 H 823.297 -0.768798 -4.9284 0
M  V30 8784 H 822.451 1.37282 -5.90964 0
M  V30 8785 H 821.19 1.47501 -4.6486 0
M  V30 8786 H 820.195 -0.684078 -5.45528 0
M  V30 8787 H 821.42 -0.770786 -6.74712 0
M  V30 8788 H 819.366 1.44601 -6.39864 0
M  V30 8789 H 819.283 0.160666 -7.55829 0
M  V30 8790 H 820.551 1.34377 -7.6783 0
M  V30 8791 N 824.78 1.49157 -0.508906 0
M  V30 8792 C 826.057 1.95363 0.0961913 0
M  V30 8793 C 826.437 1.45064 1.53362 0
M  V30 8794 O 825.785 0.667835 2.18523 0
M  V30 8795 C 825.995 3.49 0.000688881 0
M  V30 8796 C 827.343 4.24257 0.170632 0
M  V30 8797 O 828.367 3.5612 0.0754994 0
M  V30 8798 O 827.226 5.45267 0.366957 0
M  V30 8799 H 824.32 0.821984 0.0909489 0
M  V30 8800 H 826.866 1.59769 -0.572007 0
M  V30 8801 H 825.638 3.78269 -1.00143 0
M  V30 8802 H 825.261 3.91233 0.708682 0
M  V30 8803 N 826.258 0.243083 1.55714 0
M  V30 8804 C 827.221 -0.644723 2.19945 0
M  V30 8805 C 828.221 -1.10562 1.16759 0
M  V30 8806 O 829.411 -1.01095 1.41865 0
M  V30 8807 C 826.543 -1.88569 2.83997 0
M  V30 8808 H 827.736 -0.0843839 2.99781 0
M  V30 8809 H 825.289 -0.00647246 1.56299 0
M  V30 8810 H 826.024 -2.48736 2.08089 0
M  V30 8811 H 825.809 -1.56345 3.59581 0
M  V30 8812 H 827.299 -2.51774 3.33166 0
M  V30 8813 N 827.736 -1.57571 -0.0300757 0
M  V30 8814 C 828.668 -2.0329 -1.05857 0
M  V30 8815 C 829.681 -0.945543 -1.32527 0
M  V30 8816 O 830.87 -1.22287 -1.30032 0
M  V30 8817 C 827.97 -2.39234 -2.40042 0
M  V30 8818 C 827.143 -3.70337 -2.32743 0
M  V30 8819 C 826.202 -3.93482 -3.49369 0
M  V30 8820 O 825.228 -4.64551 -3.28909 0
M  V30 8821 N 826.43 -3.39042 -4.71201 0
M  V30 8822 H 829.195 -2.9214 -0.668897 0
M  V30 8823 H 826.756 -1.60425 -0.218038 0
M  V30 8824 H 828.748 -2.51856 -3.16782 0
M  V30 8825 H 827.318 -1.5606 -2.70858 0
M  V30 8826 H 826.538 -3.68079 -1.41109 0
M  V30 8827 H 827.826 -4.56343 -2.25007 0
M  V30 8828 H 827.224 -2.81434 -4.90725 0
M  V30 8829 H 825.781 -3.57045 -5.45309 0
M  V30 8830 N 829.214 0.302327 -1.54673 0
M  V30 8831 C 830.164 1.37443 -1.81916 0
M  V30 8832 C 831.148 1.45999 -0.676251 0
M  V30 8833 O 832.34 1.50174 -0.93685 0
M  V30 8834 C 829.469 2.73966 -2.06876 0
M  V30 8835 C 828.555 2.69637 -3.27348 0
M  V30 8836 N 828.946 2.34926 -4.47933 0
M  V30 8837 C 827.244 3.00742 -3.29348 0
M  V30 8838 C 827.945 2.39862 -5.29944 0
M  V30 8839 N 826.921 2.77163 -4.67634 0
M  V30 8840 H 830.723 1.09567 -2.72713 0
M  V30 8841 H 828.237 0.5109 -1.54154 0
M  V30 8842 H 830.234 3.51265 -2.2454 0
M  V30 8843 H 828.894 3.02754 -1.17346 0
M  V30 8844 H 829.905 2.07403 -4.74557 0
M  V30 8845 H 826.582 3.34434 -2.49921 0
M  V30 8846 H 827.972 2.15835 -6.3629 0
M  V30 8847 N 830.692 1.47107 0.565454 0
M  V30 8848 C 831.922 1.56681 1.34664 0
M  V30 8849 C 832.33 0.213011 1.87997 0
M  V30 8850 O 831.673 -0.802629 1.65238 0
M  V30 8851 C 831.735 2.52528 2.55871 0
M  V30 8852 C 831.399 3.98403 2.23883 0
M  V30 8853 C 832.396 4.87125 1.81673 0
M  V30 8854 C 830.081 4.43674 2.35496 0
M  V30 8855 C 832.075 6.19135 1.51494 0
M  V30 8856 C 829.762 5.75714 2.0493 0
M  V30 8857 C 830.76 6.63266 1.62996 0
M  V30 8858 O 830.448 7.92853 1.32813 0
M  V30 8859 H 830.18 0.531967 0.417117 0
M  V30 8860 H 832.734 1.93368 0.692669 0
M  V30 8861 H 830.964 2.10893 3.24131 0
M  V30 8862 H 832.653 2.5232 3.17945 0
M  V30 8863 H 833.419 4.534 1.72201 0
M  V30 8864 H 829.298 3.7574 2.67096 0
M  V30 8865 H 832.842 6.87429 1.1869 0
M  V30 8866 H 828.739 6.08983 2.14031 0
M  V30 8867 H 829.507 8.0528 1.46513 0
M  V30 8868 N 832.17 -0.811516 1.35101 0
M  V30 8869 C 833.418 -1.56525 1.27845 0
M  V30 8870 C 833.739 -1.94435 -0.14829 0
M  V30 8871 O 833.009 -1.63203 -1.08359 0
M  V30 8872 H 831.589 -0.580433 0.47022 0
M  V30 8873 H 834.251 -0.968277 1.69146 0
M  V30 8874 H 833.347 -2.48291 1.89097 0
M  V30 8875 N 833.648 -1.19017 -1.03309 0
M  V30 8876 C 834.896 -0.988258 -1.76289 0
M  V30 8877 C 835.217 0.482557 -1.88935 0
M  V30 8878 O 834.487 1.34969 -1.41987 0
M  V30 8879 H 833.067 -0.36267 -0.653054 0
M  V30 8880 H 835.729 -1.49836 -1.2464 0
M  V30 8881 H 834.825 -1.43273 -2.77271 0
M  V30 8882 N 835.127 1.22348 -0.993418 0
M  V30 8883 C 836.373 1.91689 -0.680217 0
M  V30 8884 C 836.728 1.75912 0.779269 0
M  V30 8885 O 836.021 1.11761 1.55628 0
M  V30 8886 C 836.215 3.42477 -1.02197 0
M  V30 8887 C 836.044 3.72923 -2.51313 0
M  V30 8888 C 834.814 3.9291 -3.17726 0
M  V30 8889 C 837.012 3.7736 -3.49434 0
M  V30 8890 N 834.994 4.10672 -4.56313 0
M  V30 8891 C 836.365 4.00269 -4.73481 0
M  V30 8892 C 838.42 3.60211 -3.43733 0
M  V30 8893 C 837.123 4.0781 -5.92523 0
M  V30 8894 C 839.149 3.69011 -4.62152 0
M  V30 8895 C 838.511 3.92371 -5.85 0
M  V30 8896 H 834.61 0.722086 -0.300193 0
M  V30 8897 H 837.194 1.47273 -1.27353 0
M  V30 8898 H 835.365 3.85699 -0.457223 0
M  V30 8899 H 837.097 3.99204 -0.664702 0
M  V30 8900 H 833.852 3.90345 -2.68193 0
M  V30 8901 H 834.276 4.2348 -5.28199 0
M  V30 8902 H 838.918 3.41137 -2.49771 0
M  V30 8903 H 836.636 4.25688 -6.86888 0
M  V30 8904 H 840.222 3.5708 -4.59331 0
M  V30 8905 H 839.102 3.9901 -6.75101 0
M  V30 8906 N 836.605 0.766683 1.37694 0
M  V30 8907 C 837.515 0.150158 2.34119 0
M  V30 8908 C 838.531 -0.685513 1.59927 0
M  V30 8909 O 839.707 -0.606616 1.92047 0
M  V30 8910 C 836.772 -0.722562 3.39087 0
M  V30 8911 C 835.833 0.128983 4.29106 0
M  V30 8912 C 835.066 -0.702178 5.29061 0
M  V30 8913 O 835.289 -1.93954 5.36412 0
M  V30 8914 O 834.223 -0.114056 6.01792 0
M  V30 8915 H 838.049 0.946829 2.88563 0
M  V30 8916 H 835.634 0.527765 1.39768 0
M  V30 8917 H 837.516 -1.22095 4.03325 0
M  V30 8918 H 836.191 -1.49751 2.86978 0
M  V30 8919 H 835.098 0.673612 3.67985 0
M  V30 8920 H 836.431 0.866892 4.84506 0
M  V30 8921 N 838.083 -1.48885 0.516809 0
M  V30 8922 C 839.033 -2.26363 -0.272704 0
M  V30 8923 C 840.017 -1.31891 -0.921604 0
M  V30 8924 O 841.209 -1.56514 -0.826589 0
M  V30 8925 C 838.338 -3.16614 -1.32705 0
M  V30 8926 C 837.424 -4.18554 -0.683598 0
M  V30 8927 N 837.815 -5.05308 0.223015 0
M  V30 8928 C 836.113 -4.35931 -0.942351 0
M  V30 8929 C 836.814 -5.7867 0.592918 0
M  V30 8930 N 835.79 -5.43583 -0.042912 0
M  V30 8931 H 839.592 -2.90811 0.424971 0
M  V30 8932 H 837.106 -1.5893 0.333941 0
M  V30 8933 H 839.103 -3.70766 -1.90625 0
M  V30 8934 H 837.763 -2.5372 -2.02624 0
M  V30 8935 H 838.774 -5.14473 0.594818 0
M  V30 8936 H 835.451 -3.84234 -1.6331 0
M  V30 8937 H 836.841 -6.58493 1.33556 0
M  V30 8938 N 839.561 -0.251338 -1.55583 0
M  V30 8939 C 840.977 0.103409 -1.59265 0
M  V30 8940 C 841.177 1.56559 -1.26852 0
M  V30 8941 O 840.233 2.31071 -1.01796 0
M  V30 8942 C 841.546 -0.249781 -2.99661 0
M  V30 8943 C 843.094 -0.194442 -3.12395 0
M  V30 8944 C 843.569 -0.521728 -4.55019 0
M  V30 8945 N 845.06 -0.472393 -4.60785 0
M  V30 8946 C 845.795 -0.698737 -5.69127 0
M  V30 8947 N 845.291 -0.988443 -6.85713 0
M  V30 8948 N 847.084 -0.629143 -5.58568 0
M  V30 8949 H 839.235 -1.20484 -1.74921 0
M  V30 8950 H 841.498 -0.485092 -0.814488 0
M  V30 8951 H 841.204 -1.26577 -3.28133 0
M  V30 8952 H 841.078 0.420973 -3.74844 0
M  V30 8953 H 843.465 0.812229 -2.83702 0
M  V30 8954 H 843.546 -0.899111 -2.39478 0
M  V30 8955 H 843.19 -1.52597 -4.84434 0
M  V30 8956 H 843.12 0.204468 -5.26203 0
M  V30 8957 H 845.611 -0.257386 -3.77022 0
M  V30 8958 H 845.924 -1.14846 -7.64219 0
M  V30 8959 H 844.269 -1.02596 -6.87386 0
M  V30 8960 H 847.46 -0.402826 -4.66364 0
M  V30 8961 H 847.633 -0.808935 -6.42931 0
M  V30 8962 N 841.039 1.57585 0.0217189 0
M  V30 8963 C 842.316 1.80779 0.74687 0
M  V30 8964 C 842.696 0.851163 1.9318 0
M  V30 8965 O 842.044 -0.105039 2.28258 0
M  V30 8966 C 842.254 3.28696 1.17302 0
M  V30 8967 C 843.602 3.93871 1.58589 0
M  V30 8968 O 844.626 3.3289 1.2674 0
M  V30 8969 O 843.485 5.01254 2.1773 0
M  V30 8970 H 840.579 0.743666 0.361786 0
M  V30 8971 H 843.125 1.697 -0.00206785 0
M  V30 8972 H 841.897 3.89927 0.327453 0
M  V30 8973 H 841.52 3.44692 1.98174 0
M  V30 8974 N 842.517 -0.29412 1.54831 0
M  V30 8975 C 843.763 -1.02999 1.74697 0
M  V30 8976 C 844.096 -1.86687 0.534949 0
M  V30 8977 O 843.371 -1.88789 -0.467863 0
M  V30 8978 C 843.654 -1.93024 3.03996 0
M  V30 8979 C 843.507 -1.1247 4.35512 0
M  V30 8980 C 844.826 -2.92085 3.29203 0
M  V30 8981 H 841.945 -0.373039 0.635618 0
M  V30 8982 H 844.587 -0.304065 1.87551 0
M  V30 8983 H 842.737 -2.5492 2.93169 0
M  V30 8984 H 844.409 -0.528067 4.58268 0
M  V30 8985 H 842.652 -0.427574 4.31688 0
M  V30 8986 H 843.323 -1.78728 5.22265 0
M  V30 8987 H 845.799 -2.40319 3.39685 0
M  V30 8988 H 844.675 -3.52234 4.20978 0
M  V30 8989 H 844.936 -3.66107 2.47827 0
M  V30 8990 N 843.995 -1.47404 -0.557645 0
M  V30 8991 C 844.945 -1.56267 -1.66026 0
M  V30 8992 C 845.929 -0.42161 -1.55278 0
M  V30 8993 O 847.121 -0.671505 -1.63768 0
M  V30 8994 C 844.25 -1.57958 -3.04802 0
M  V30 8995 C 843.336 -2.77447 -3.20755 0
M  V30 8996 N 843.727 -4.02148 -3.06775 0
M  V30 8997 C 842.025 -2.74199 -3.51754 0
M  V30 8998 C 842.726 -4.82168 -3.25406 0
M  V30 8999 N 841.702 -4.14481 -3.5172 0
M  V30 9000 H 845.504 -2.50454 -1.53785 0
M  V30 9001 H 843.018 -1.43392 -0.762388 0
M  V30 9002 H 845.015 -1.62397 -3.8397 0
M  V30 9003 H 843.675 -0.648667 -3.18155 0
M  V30 9004 H 844.686 -4.33014 -2.84111 0
M  V30 9005 H 841.363 -1.90243 -3.71637 0
M  V30 9006 H 842.753 -5.91037 -3.19569 0
M  V30 9007 N 845.473 0.80434 -1.35529 0
M  V30 9008 C 846.421 1.93769 -1.28671 0
M  V30 9009 C 847.415 1.68428 -0.181222 0
M  V30 9010 O 848.621 1.76617 -0.347338 0
M  V30 9011 H 844.996 0.636663 -0.400206 0
M  V30 9012 H 846.967 1.96673 -2.24415 0
M  V30 9013 C 845.716 3.30572 -1.07784 0
M  V30 9014 H 845.039 3.5063 -1.9209 0
M  V30 9015 H 846.479 4.1027 -1.07027 0
M  V30 9016 C 844.938 3.36193 0.218213 0
M  V30 9017 O 845.468 3.82941 1.21323 0
M  V30 9018 N 843.674 2.89455 0.257761 0
M  V30 9019 H 843.221 2.51604 -0.552562 0
M  V30 9020 H 843.179 2.93597 1.12465 0
M  V30 9021 N 846.951 1.19563 1.02676 0
M  V30 9022 C 848.2 0.993864 1.75514 0
M  V30 9023 C 848.513 -0.475882 1.89723 0
M  V30 9024 O 849.719 -0.796525 2.59553 0
M  V30 9025 C 848.175 1.72937 3.15628 0
M  V30 9026 C 847.783 3.23937 3.09466 0
M  V30 9027 C 849.527 1.61092 3.92746 0
M  V30 9028 C 847.434 3.90067 4.44524 0
M  V30 9029 H 846.364 0.368244 0.657961 0
M  V30 9030 H 849.015 1.43081 1.14891 0
M  V30 9031 H 847.397 1.22025 3.76731 0
M  V30 9032 H 848.571 3.81983 2.57731 0
M  V30 9033 H 846.886 3.3608 2.45843 0
M  V30 9034 H 849.483 2.07848 4.92649 0
M  V30 9035 H 849.826 0.565415 4.12442 0
M  V30 9036 H 850.359 2.09361 3.3825 0
M  V30 9037 H 847.098 4.94725 4.30032 0
M  V30 9038 H 846.618 3.36809 4.96306 0
M  V30 9039 H 848.297 3.93736 5.13401 0
M  V30 9040 N 848.429 -1.21819 0.999893 0
M  V30 9041 C 849.659 -1.94475 0.697346 0
M  V30 9042 C 850.067 -1.73991 -0.743228 0
M  V30 9043 O 849.41 -1.04042 -1.51397 0
M  V30 9044 C 849.472 -3.47204 0.932181 0
M  V30 9045 C 849.136 -3.91432 2.3586 0
M  V30 9046 C 850.133 -3.98545 3.33853 0
M  V30 9047 C 847.818 -4.23888 2.69489 0
M  V30 9048 C 849.812 -4.37499 4.63545 0
M  V30 9049 C 847.499 -4.62519 3.99399 0
M  V30 9050 C 848.497 -4.69294 4.96238 0
M  V30 9051 O 848.185 -5.07048 6.23825 0
M  V30 9052 H 847.917 -0.625419 0.256567 0
M  V30 9053 H 850.471 -1.55728 1.33933 0
M  V30 9054 H 848.701 -3.85997 0.233025 0
M  V30 9055 H 850.39 -4.01078 0.623807 0
M  V30 9056 H 851.156 -3.73654 3.09205 0
M  V30 9057 H 847.035 -4.17815 1.94812 0
M  V30 9058 H 850.579 -4.42702 5.3913 0
M  V30 9059 H 846.476 -4.86864 4.23833 0
M  V30 9060 H 847.244 -5.25098 6.27865 0
M  V30 9061 N 849.908 -0.773975 -1.37286 0
M  V30 9062 C 851.156 -0.338636 -1.99243 0
M  V30 9063 C 851.477 1.08919 -1.61746 0
M  V30 9064 O 850.747 1.74822 -0.88397 0
M  V30 9065 H 849.327 -0.12222 -0.736934 0
M  V30 9066 H 851.989 -0.992595 -1.67731 0
M  V30 9067 H 851.085 -0.418055 -3.09287 0
M  V30 9068 N 851.386 1.48609 -0.524698 0
M  V30 9069 C 852.316 2.32366 0.229837 0
M  V30 9070 C 853.297 1.41759 0.940129 0
M  V30 9071 O 854.482 1.7065 0.926936 0
M  V30 9072 C 851.612 3.22835 1.28043 0
M  V30 9073 C 850.566 4.22424 0.688603 0
M  V30 9074 C 849.892 5.0199 1.84146 0
M  V30 9075 C 851.192 5.21217 -0.336176 0
M  V30 9076 H 852.886 2.95698 -0.469339 0
M  V30 9077 H 850.432 1.42197 -0.227156 0
M  V30 9078 H 852.385 3.80253 1.8162 0
M  V30 9079 H 851.109 2.57492 2.00912 0
M  V30 9080 H 849.768 3.66185 0.174402 0
M  V30 9081 H 849.416 4.33076 2.5584 0
M  V30 9082 H 849.116 5.69392 1.45142 0
M  V30 9083 H 850.64 5.62259 2.38111 0
M  V30 9084 H 852.054 5.7319 0.112307 0
M  V30 9085 H 850.451 5.96642 -0.643324 0
M  V30 9086 H 851.521 4.68676 -1.24381 0
M  V30 9087 N 852.864 0.259585 1.55447 0
M  V30 9088 C 854.094 -0.364863 2.03353 0
M  V30 9089 C 854.502 -1.5116 1.13786 0
M  V30 9090 O 853.845 -1.83109 0.147283 0
M  V30 9091 C 853.907 -0.922587 3.4746 0
M  V30 9092 C 853.571 0.0935207 4.56904 0
M  V30 9093 C 854.568 0.907571 5.11917 0
M  V30 9094 C 852.253 0.223276 5.01804 0
M  V30 9095 C 854.247 1.83771 6.10333 0
M  V30 9096 C 851.934 1.15691 6.00049 0
M  V30 9097 C 852.932 1.96264 6.54194 0
M  V30 9098 O 852.62 2.88052 7.50521 0
M  V30 9099 H 852.352 -0.0893313 0.670072 0
M  V30 9100 H 854.906 0.384821 2.01763 0
M  V30 9101 H 853.136 -1.72206 3.4624 0
M  V30 9102 H 854.825 -1.45846 3.78792 0
M  V30 9103 H 855.591 0.817979 4.78052 0
M  V30 9104 H 851.47 -0.393834 4.59315 0
M  V30 9105 H 855.014 2.46703 6.52521 0
M  V30 9106 H 850.911 1.24738 6.33333 0
M  V30 9107 H 851.679 2.82557 7.68182 0
M  V30 9108 N 854.342 -1.57594 -0.0133615 0
M  V30 9109 C 855.588 -1.90262 -0.702019 0
M  V30 9110 C 855.921 -0.859219 -1.74158 0
M  V30 9111 O 855.196 0.123778 -1.94106 0
M  V30 9112 C 855.479 -3.3354 -1.35732 0
M  V30 9113 C 855.332 -4.48586 -0.330208 0
M  V30 9114 C 856.651 -3.76004 -2.28712 0
M  V30 9115 H 853.77 -0.691943 -0.253739 0
M  V30 9116 H 856.412 -1.89967 0.0351894 0
M  V30 9117 H 854.562 -3.33921 -1.98567 0
M  V30 9118 H 856.234 -4.6034 0.297433 0
M  V30 9119 H 854.477 -4.32394 0.348926 0
M  V30 9120 H 855.148 -5.45762 -0.827508 0
M  V30 9121 H 857.624 -3.77089 -1.75906 0
M  V30 9122 H 856.5 -4.77032 -2.71535 0
M  V30 9123 H 856.761 -3.09129 -3.16056 0
M  V30 9124 N 855.82 0.285905 -1.54985 0
M  V30 9125 C 856.77 1.35505 -1.83364 0
M  V30 9126 C 857.754 1.45273 -0.691698 0
M  V30 9127 O 858.946 1.49172 -0.952725 0
M  V30 9128 C 856.075 2.71756 -2.0977 0
M  V30 9129 C 855.161 2.6615 -3.30189 0
M  V30 9130 N 855.552 2.30161 -4.50399 0
M  V30 9131 C 853.85 2.97232 -3.3252 0
M  V30 9132 C 854.551 2.34228 -5.32459 0
M  V30 9133 N 853.527 2.72187 -4.70548 0
M  V30 9134 H 857.329 1.06668 -2.7386 0
M  V30 9135 H 854.843 0.494521 -1.54688 0
M  V30 9136 H 856.84 3.48864 -2.28253 0
M  V30 9137 H 855.5 3.01492 -1.20551 0
M  V30 9138 H 856.511 2.02358 -4.7673 0
M  V30 9139 H 853.188 3.31764 -2.53454 0
M  V30 9140 H 854.578 2.09074 -6.38543 0
M  V30 9141 N 857.298 1.47698 0.54982 0
M  V30 9142 C 858.231 1.55288 1.67215 0
M  V30 9143 C 859.209 0.404533 1.57487 0
M  V30 9144 O 860.393 0.613372 1.78241 0
M  V30 9145 C 857.52 1.46233 3.05505 0
M  V30 9146 C 856.566 2.65662 3.33655 0
M  V30 9147 S 857.399 4.278 3.22098 0
M  V30 9148 C 858.555 4.21311 4.62869 0
M  V30 9149 H 858.788 2.50238 1.60524 0
M  V30 9150 H 856.321 1.35987 0.731227 0
M  V30 9151 H 858.279 1.41696 3.85269 0
M  V30 9152 H 856.94 0.526543 3.09655 0
M  V30 9153 H 856.133 2.55411 4.3449 0
M  V30 9154 H 855.735 2.67359 2.61524 0
M  V30 9155 H 858.027 3.90021 5.53977 0
M  V30 9156 H 858.97 5.22257 4.78177 0
M  V30 9157 H 859.378 3.52063 4.41262 0
M  V30 9158 N 858.776 -0.797141 1.35954 0
M  V30 9159 C 859.739 -1.89104 1.29508 0
M  V30 9160 C 860.739 -1.59495 0.204444 0
M  V30 9161 O 861.929 -1.68051 0.458746 0
M  V30 9162 C 859.061 -3.25726 1.00576 0
M  V30 9163 H 860.254 -1.96237 2.26785 0
M  V30 9164 H 857.807 -0.994075 1.20614 0
M  V30 9165 H 858.542 -3.24279 0.0372519 0
M  V30 9166 H 858.327 -3.48604 1.79492 0
M  V30 9167 H 859.817 -4.0578 0.986508 0
M  V30 9168 N 860.254 -1.20106 -1.0204 0
M  V30 9169 C 861.482 -1.0344 -1.79186 0
M  V30 9170 C 861.897 0.416542 -1.84148 0
M  V30 9171 O 861.254 1.28925 -1.29168 0
M  V30 9172 C 861.305 -1.60663 -3.23836 0
M  V30 9173 O 861.026 -3.00079 -3.19193 0
M  V30 9174 C 862.527 -1.48897 -4.17546 0
M  V30 9175 H 859.747 -0.364093 -0.563629 0
M  V30 9176 H 862.291 -1.5911 -1.28469 0
M  V30 9177 H 860.446 -1.09122 -3.71714 0
M  V30 9178 H 860.86 -3.27162 -4.09958 0
M  V30 9179 H 862.334 -1.93703 -5.16898 0
M  V30 9180 H 862.811 -0.440843 -4.36982 0
M  V30 9181 H 863.417 -1.9961 -3.75547 0
M  V30 9182 N 861.732 1.21287 -1.00634 0
M  V30 9183 C 862.695 2.21927 -0.572821 0
M  V30 9184 C 863.695 1.5691 0.351541 0
M  V30 9185 O 864.885 1.73623 0.141643 0
M  V30 9186 C 862.017 3.40501 0.164932 0
M  V30 9187 H 863.21 2.61795 -1.463 0
M  V30 9188 H 860.763 1.34571 -0.794998 0
M  V30 9189 H 861.498 3.06123 1.07049 0
M  V30 9190 H 861.283 3.88912 -0.498962 0
M  V30 9191 H 862.773 4.15103 0.455945 0
M  V30 9192 N 863.21 0.781244 1.36873 0
M  V30 9193 C 864.487 0.274217 1.93668 0
M  V30 9194 C 864.867 -1.2323 1.71399 0
M  V30 9195 O 864.215 -2.01993 1.06822 0
M  V30 9196 C 864.425 0.657939 3.42742 0
M  V30 9197 C 865.773 0.63307 4.19854 0
M  V30 9198 O 866.797 0.597909 3.51146 0
M  V30 9199 O 865.656 0.668636 5.42394 0
M  V30 9200 H 862.75 0.0658059 0.824378 0
M  V30 9201 H 865.296 0.863238 1.46104 0
M  V30 9202 H 864.068 1.69728 3.52573 0
M  V30 9203 H 863.691 0.0423678 3.97577 0
M  V30 9204 N 864.689 -1.48329 0.532571 0
M  V30 9205 C 865.937 -2.021 -0.000581206 0
M  V30 9206 C 866.258 -1.4117 -1.34522 0
M  V30 9207 O 865.528 -0.578005 -1.87179 0
M  V30 9208 H 864.108 -0.746993 -0.00320281 0
M  V30 9209 H 866.77 -1.82011 0.696991 0
M  V30 9210 H 865.866 -3.11917 -0.106991 0
M  V30 9211 N 866.167 -0.267825 -1.55308 0
M  V30 9212 C 867.097 0.616585 -2.25212 0
M  V30 9213 C 868.078 1.16472 -1.23969 0
M  V30 9214 O 869.263 1.20021 -1.52672 0
M  V30 9215 C 866.393 1.80412 -2.96764 0
M  V30 9216 C 865.347 1.38784 -4.04874 0
M  V30 9217 C 864.673 2.65789 -4.63961 0
M  V30 9218 C 865.973 0.543415 -5.19465 0
M  V30 9219 H 867.667 0.0336257 -2.99381 0
M  V30 9220 H 865.213 0.0147328 -1.43992 0
M  V30 9221 H 867.166 2.42866 -3.44375 0
M  V30 9222 H 865.89 2.4128 -2.20118 0
M  V30 9223 H 864.549 0.786541 -3.58063 0
M  V30 9224 H 864.197 3.24899 -3.83992 0
M  V30 9225 H 863.897 2.38651 -5.36954 0
M  V30 9226 H 865.421 3.29104 -5.14318 0
M  V30 9227 H 866.835 1.07277 -5.63174 0
M  V30 9228 H 865.232 0.367219 -5.98975 0
M  V30 9229 H 866.302 -0.439534 -4.82904 0
M  V30 9230 N 867.645 1.57599 0.00500368 0
M  V30 9231 C 869.061 1.55463 0.361015 0
M  V30 9232 C 869.261 0.997051 1.75103 0
M  V30 9233 O 868.317 0.628661 2.44549 0
M  V30 9234 C 869.63 2.99734 0.240828 0
M  V30 9235 C 871.178 3.11399 0.316138 0
M  V30 9236 C 871.653 4.57446 0.22513 0
M  V30 9237 N 873.144 4.62334 0.283186 0
M  V30 9238 C 873.879 5.72914 0.23603 0
M  V30 9239 N 873.375 6.92659 0.139762 0
M  V30 9240 N 875.168 5.61364 0.287529 0
M  V30 9241 H 867.319 1.92185 -0.904359 0
M  V30 9242 H 869.582 0.882529 -0.34619 0
M  V30 9243 H 869.288 3.44348 -0.715343 0
M  V30 9244 H 869.162 3.63009 1.02491 0
M  V30 9245 H 871.549 2.66718 1.26275 0
M  V30 9246 H 871.63 2.50911 -0.497725 0
M  V30 9247 H 871.274 5.02801 -0.717917 0
M  V30 9248 H 871.204 5.15874 1.05742 0
M  V30 9249 H 873.695 3.7619 0.359123 0
M  V30 9250 H 874.008 7.72722 0.10954 0
M  V30 9251 H 872.353 6.9492 0.105462 0
M  V30 9252 H 875.544 4.66707 0.360897 0
M  V30 9253 H 875.717 6.47528 0.247313 0
M  V30 9254 N 869.123 -0.277682 1.55134 0
M  V30 9255 C 870.055 -1.36531 1.84098 0
M  V30 9256 C 871.068 -1.45756 0.725194 0
M  V30 9257 O 872.257 -1.47656 1.00299 0
M  V30 9258 C 869.357 -2.74701 1.98476 0
M  V30 9259 C 868.53 -2.88125 3.29094 0
M  V30 9260 C 867.589 -4.0694 3.33596 0
M  V30 9261 O 866.615 -3.9792 4.06999 0
M  V30 9262 N 867.817 -5.18687 2.60661 0
M  V30 9263 H 870.582 -1.12032 2.77973 0
M  V30 9264 H 868.143 -0.467793 1.54995 0
M  V30 9265 H 870.135 -3.52471 1.98863 0
M  V30 9266 H 868.705 -2.92043 1.11488 0
M  V30 9267 H 867.925 -1.97277 3.41285 0
M  V30 9268 H 869.213 -2.94021 4.15246 0
M  V30 9269 H 868.611 -5.28901 2.00699 0
M  V30 9270 H 867.168 -5.94705 2.66776 0
M  V30 9271 N 870.601 -1.47988 -0.541979 0
M  V30 9272 C 872.017 -1.33843 -0.869383 0
M  V30 9273 C 872.217 -0.340374 -1.98604 0
M  V30 9274 O 871.273 0.242696 -2.51331 0
M  V30 9275 C 872.586 -2.73568 -1.24823 0
M  V30 9276 C 874.134 -2.81967 -1.3588 0
M  V30 9277 C 874.609 -4.22368 -1.77114 0
M  V30 9278 N 876.1 -4.24983 -1.84237 0
M  V30 9279 C 876.835 -5.30547 -2.17503 0
M  V30 9280 N 876.331 -6.46401 -2.49275 0
M  V30 9281 N 878.124 -5.17933 -2.18406 0
M  V30 9282 H 870.275 -2.11503 0.195001 0
M  V30 9283 H 872.538 -0.947681 0.0245862 0
M  V30 9284 H 872.244 -3.48107 -0.501435 0
M  V30 9285 H 872.118 -3.06322 -2.20106 0
M  V30 9286 H 874.505 -2.07692 -2.09638 0
M  V30 9287 H 874.586 -2.52848 -0.387478 0
M  V30 9288 H 874.23 -4.97155 -1.0392 0
M  V30 9289 H 874.16 -4.48922 -2.75275 0
M  V30 9290 H 876.651 -3.41411 -1.62009 0
M  V30 9291 H 876.964 -7.22698 -2.73729 0
M  V30 9292 H 875.309 -6.49696 -2.46821 0
M  V30 9293 H 878.5 -4.26445 -1.93034 0
M  V30 9294 H 878.673 -6.00307 -2.44 0
M  V30 9295 N 872.079 0.78992 -1.36375 0
M  V30 9296 C 873.304 1.58389 -1.33895 0
M  V30 9297 C 873.729 1.8794 0.0774934 0
M  V30 9298 O 873.087 1.4785 1.0493 0
M  V30 9299 C 873.135 2.88201 -2.16732 0
M  V30 9300 O 872.239 3.81778 -1.55946 0
M  V30 9301 H 871.58 0.480471 -0.458305 0
M  V30 9302 H 874.11 0.979119 -1.79651 0
M  V30 9303 H 874.12 3.37475 -2.29292 0
M  V30 9304 H 872.795 2.66019 -3.19698 0
M  V30 9305 H 871.372 3.40371 -1.52323 0
M  V30 9306 N 873.557 1.20646 1.01402 0
M  V30 9307 C 874.805 1.01618 1.74695 0
M  V30 9308 C 875.126 -0.452438 1.89679 0
M  V30 9309 O 874.396 -1.32693 1.44116 0
M  V30 9310 H 872.976 0.373013 0.647202 0
M  V30 9311 H 875.638 1.518 1.22241 0
M  V30 9312 H 874.734 1.47666 2.74957 0
M  V30 9313 N 875.035 -1.20752 1.01276 0
M  V30 9314 C 876.283 -1.89645 0.698505 0
M  V30 9315 C 876.604 -1.78986 -0.773883 0
M  V30 9316 O 875.874 -1.18977 -1.55632 0
M  V30 9317 H 874.454 -0.701992 0.255375 0
M  V30 9318 H 877.116 -1.46668 1.28353 0
M  V30 9319 H 876.212 -2.96364 0.978512 0
M  V30 9320 N 876.513 -0.788492 -1.36457 0
M  V30 9321 C 877.446 -0.132189 -2.27817 0
M  V30 9322 C 878.424 0.691166 -1.47179 0
M  V30 9323 O 879.608 0.662344 -1.7648 0
M  V30 9324 C 876.735 0.818386 -3.28664 0
M  V30 9325 C 875.781 0.0769392 -4.26431 0
M  V30 9326 S 876.614 -1.24666 -5.20786 0
M  V30 9327 C 877.77 -0.300063 -6.2518 0
M  V30 9328 H 878.003 -0.906824 -2.83132 0
M  V30 9329 H 875.536 -0.582666 -1.42984 0
M  V30 9330 H 877.494 1.36138 -3.87268 0
M  V30 9331 H 876.155 1.56626 -2.72263 0
M  V30 9332 H 875.348 0.79819 -4.97639 0
M  V30 9333 H 874.95 -0.395547 -3.71902 0
M  V30 9334 H 877.242 0.521434 -6.7549 0
M  V30 9335 H 878.185 -0.980808 -7.01274 0
M  V30 9336 H 878.593 0.0961898 -5.64418 0
M  V30 9337 N 877.991 1.48044 -0.54043 0
M  V30 9338 C 878.901 2.33565 0.220163 0
M  V30 9339 C 879.917 1.47146 0.928659 0
M  V30 9340 O 881.093 1.80107 0.901295 0
M  V30 9341 C 878.158 3.2349 1.2472 0
M  V30 9342 C 877.219 4.25789 0.547938 0
M  V30 9343 C 876.452 5.11417 1.52605 0
M  V30 9344 O 876.675 4.99204 2.75956 0
M  V30 9345 O 875.609 5.92498 1.05972 0
M  V30 9346 H 879.435 2.99868 -0.480898 0
M  V30 9347 H 877.02 1.46332 -0.301226 0
M  V30 9348 H 878.902 3.79084 1.84047 0
M  V30 9349 H 877.577 2.59835 1.93048 0
M  V30 9350 H 876.484 3.74001 -0.0860941 0
M  V30 9351 H 877.817 4.92111 -0.0935896 0
M  V30 9352 N 879.47 0.276058 1.55163 0
M  V30 9353 C 880.886 -0.0780579 1.59409 0
M  V30 9354 C 881.086 -1.54521 1.29327 0
M  V30 9355 O 880.142 -2.29422 1.05459 0
M  V30 9356 C 881.455 0.297422 2.99225 0
M  V30 9357 C 883.003 0.244117 3.12047 0
M  V30 9358 C 883.478 0.594051 4.54131 0
M  V30 9359 N 884.969 0.54564 4.59975 0
M  V30 9360 C 885.704 0.789192 5.67943 0
M  V30 9361 N 885.2 1.09741 6.84053 0
M  V30 9362 N 886.993 0.717926 5.57496 0
M  V30 9363 H 879.144 1.23251 1.72982 0
M  V30 9364 H 881.407 0.497988 0.806667 0
M  V30 9365 H 881.113 1.31782 3.26077 0
M  V30 9366 H 880.987 -0.361286 3.75466 0
M  V30 9367 H 883.374 -0.766992 2.84958 0
M  V30 9368 H 883.455 0.937097 2.38017 0
M  V30 9369 H 883.099 1.60285 4.81945 0
M  V30 9370 H 883.029 -0.120728 5.26462 0
M  V30 9371 H 885.52 0.317334 3.76565 0
M  V30 9372 H 885.833 1.26989 7.62295 0
M  V30 9373 H 884.178 1.13519 6.85666 0
M  V30 9374 H 887.369 0.47697 4.65664 0
M  V30 9375 H 887.542 0.911118 6.41563 0
M  V30 9376 N 880.948 -1.576 0.00335426 0
M  V30 9377 C 882.359 -1.7875 -0.539008 0
M  V30 9378 C 882.71 -0.911097 -1.73763 0
M  V30 9379 O 881.835 -0.114476 -2.16097 0
M  V30 9380 C 882.43 -3.24177 -0.984611 0
M  V30 9381 C 880.989 -3.46412 -1.47226 0
M  V30 9382 C 880.136 -2.74024 -0.425004 0
M  V30 9383 H 883.087 -1.57032 0.229511 0
M  V30 9384 H 883.108 -3.32474 -1.85044 0
M  V30 9385 H 882.62 -3.87938 -0.112035 0
M  V30 9386 H 880.721 -2.8787 -2.36562 0
M  V30 9387 H 880.834 -4.55098 -1.49741 0
M  V30 9388 H 879.198 -2.38741 -0.887394 0
M  V30 9389 H 879.981 -3.40486 0.438662 0
M  V30 9390 N 882.426 0.269451 -1.5528 0
M  V30 9391 C 883.673 1.00058 -1.76053 0
M  V30 9392 C 884.001 1.86156 -0.563592 0
M  V30 9393 O 883.256 1.90366 0.453806 0
M  V30 9394 C 883.555 1.91 -3.02082 0
M  V30 9395 C 883.221 1.20623 -4.34466 0
M  V30 9396 C 881.883 1.01165 -4.70446 0
M  V30 9397 C 884.235 0.705695 -5.164 0
M  V30 9398 C 881.563 0.303865 -5.85913 0
M  V30 9399 C 883.915 0.0114838 -6.32599 0
M  V30 9400 C 882.579 -0.19478 -6.67216 0
M  V30 9401 H 881.849 0.366138 -0.644223 0
M  V30 9402 H 884.496 0.272563 -1.8955 0
M  V30 9403 H 882.801 2.70435 -2.835 0
M  V30 9404 H 884.498 2.47698 -3.15352 0
M  V30 9405 H 881.088 1.36781 -4.06188 0
M  V30 9406 H 885.272 0.84364 -4.89077 0
M  V30 9407 H 880.528 0.133368 -6.11255 0
M  V30 9408 H 884.702 -0.384111 -6.9534 0
M  V30 9409 H 882.329 -0.745201 -7.56539 0
M  V30 9410 N 883.904 1.48273 0.534124 0
M  V30 9411 C 885.15 1.56311 1.29208 0
M  V30 9412 C 885.483 0.234481 1.92779 0
M  V30 9413 O 884.758 -0.759143 1.79073 0
M  V30 9414 C 885.041 2.69831 2.3846 0
M  V30 9415 C 884.894 4.12385 1.79608 0
M  V30 9416 C 886.213 2.79133 3.40254 0
M  V30 9417 H 883.332 0.56899 0.468422 0
M  V30 9418 H 885.974 1.80429 0.595438 0
M  V30 9419 H 884.124 2.49397 2.97881 0
M  V30 9420 H 885.796 4.44246 1.24269 0
M  V30 9421 H 884.039 4.19579 1.10162 0
M  V30 9422 H 884.71 4.87629 2.58693 0
M  V30 9423 H 887.186 2.97632 2.90783 0
M  V30 9424 H 886.062 3.60298 4.14097 0
M  V30 9425 H 886.323 1.87122 4.00547 0
M  V30 9426 N 885.382 -0.782676 1.36792 0
M  V30 9427 C 886.312 -1.90973 1.34356 0
M  V30 9428 C 887.293 -1.6875 0.213917 0
M  V30 9429 O 888.478 -1.89766 0.412601 0
M  V30 9430 C 885.608 -3.28097 1.13884 0
M  V30 9431 C 884.562 -3.6486 2.23744 0
M  V30 9432 C 883.888 -5.00406 1.88408 0
M  V30 9433 C 885.188 -3.72742 3.6587 0
M  V30 9434 H 886.882 -1.93268 2.28665 0
M  V30 9435 H 884.428 -0.928447 1.10072 0
M  V30 9436 H 886.381 -4.06569 1.10813 0
M  V30 9437 H 885.105 -3.26206 0.160275 0
M  V30 9438 H 883.764 -2.88689 2.25952 0
M  V30 9439 H 883.412 -4.95044 0.891083 0
M  V30 9440 H 883.112 -5.25973 2.61966 0
M  V30 9441 H 884.636 -5.81291 1.86905 0
M  V30 9442 H 886.05 -4.4139 3.65852 0
M  V30 9443 H 884.447 -4.09798 4.38389 0
M  V30 9444 H 885.517 -2.73676 4.00287 0
M  V30 9445 N 886.86 -1.21182 -1.00761 0
M  V30 9446 C 887.823 -0.970339 -2.07646 0
M  V30 9447 C 888.823 0.0576345 -1.60697 0
M  V30 9448 O 890.013 -0.179369 -1.73274 0
M  V30 9449 C 887.145 -0.462703 -3.37745 0
M  V30 9450 H 888.338 -1.91856 -2.30502 0
M  V30 9451 H 885.891 -1.02844 -1.17698 0
M  V30 9452 H 886.626 0.490559 -3.20568 0
M  V30 9453 H 886.411 -1.20416 -3.73152 0
M  V30 9454 H 887.901 -0.313531 -4.16421 0
M  V30 9455 N 888.338 1.20213 -1.01915 0
M  V30 9456 C 889.754 1.41696 -0.734459 0
M  V30 9457 C 889.954 1.89504 0.684867 0
M  V30 9458 O 889.01 2.06556 1.45227 0
M  V30 9459 C 890.323 2.43644 -1.76233 0
M  V30 9460 C 891.871 2.57406 -1.78076 0
M  V30 9461 C 892.346 3.626 -2.79796 0
M  V30 9462 N 893.837 3.70086 -2.78551 0
M  V30 9463 C 894.572 4.51145 -3.53915 0
M  V30 9464 N 894.068 5.35988 -4.38963 0
M  V30 9465 N 895.861 4.45702 -3.425 0
M  V30 9466 H 888.012 0.874976 -1.93541 0
M  V30 9467 H 890.275 0.446647 -0.836188 0
M  V30 9468 H 889.981 2.15519 -2.77929 0
M  V30 9469 H 889.855 3.42672 -1.57657 0
M  V30 9470 H 892.242 2.8486 -0.770634 0
M  V30 9471 H 892.323 1.58565 -2.00725 0
M  V30 9472 H 891.967 3.35889 -3.80973 0
M  V30 9473 H 891.897 4.61069 -2.54407 0
M  V30 9474 H 894.388 3.09484 -2.1686 0
M  V30 9475 H 894.701 5.94932 -4.9323 0
M  V30 9476 H 893.046 5.35482 -4.4304 0
M  V30 9477 H 896.237 3.78456 -2.75478 0
M  V30 9478 H 896.41 5.08637 -4.01487 0
M  V30 9479 N 889.816 0.795718 1.36037 0
M  V30 9480 C 890.779 0.204318 2.28287 0
M  V30 9481 C 891.779 -0.602017 1.49105 0
M  V30 9482 O 892.969 -0.422089 1.69009 0
M  V30 9483 C 890.101 -0.716431 3.33287 0
M  V30 9484 H 891.294 1.01781 2.821 0
M  V30 9485 H 888.847 0.565588 1.45708 0
M  V30 9486 H 889.582 -1.55403 2.84641 0
M  V30 9487 H 889.367 -0.140096 3.9185 0
M  V30 9488 H 890.857 -1.12488 4.02164 0
M  V30 9489 N 891.294 -1.47756 0.548274 0
M  V30 9490 C 892.541 -2.02489 0.0208955 0
M  V30 9491 C 892.869 -1.42356 -1.32533 0
M  V30 9492 O 892.124 -0.565448 -1.87353 0
M  V30 9493 C 892.423 -3.5716 -0.131069 0
M  V30 9494 C 892.089 -4.36169 1.14313 0
M  V30 9495 C 890.751 -4.57476 1.4923 0
M  V30 9496 C 893.103 -4.81801 1.9879 0
M  V30 9497 C 890.431 -5.21662 2.68487 0
M  V30 9498 C 892.783 -5.47303 3.17242 0
M  V30 9499 C 891.447 -5.66844 3.52483 0
M  V30 9500 H 890.717 -0.740961 0.00764621 0
M  V30 9501 H 893.364 -1.77531 0.717987 0
M  V30 9502 H 891.669 -3.8106 -0.911063 0
M  V30 9503 H 893.366 -3.9715 -0.55433 0
M  V30 9504 H 889.956 -4.19858 0.861235 0
M  V30 9505 H 894.14 -4.65126 1.73123 0
M  V30 9506 H 889.396 -5.34987 2.95971 0
M  V30 9507 H 893.57 -5.81626 3.82994 0
M  V30 9508 H 891.197 -6.16352 4.44988 0
M  V30 9509 N 892.772 -0.284283 -1.55015 0
M  V30 9510 C 894.019 0.329864 -1.99795 0
M  V30 9511 C 894.347 1.55171 -1.1727 0
M  V30 9512 O 893.602 1.94312 -0.232667 0
M  V30 9513 C 893.901 0.747219 -3.49502 0
M  V30 9514 C 893.567 -0.37101 -4.49371 0
M  V30 9515 C 892.229 -0.678034 -4.76399 0
M  V30 9516 C 894.581 -1.12406 -5.08935 0
M  V30 9517 C 891.909 -1.74152 -5.60257 0
M  V30 9518 C 894.261 -2.17734 -5.93948 0
M  V30 9519 C 892.925 -2.49061 -6.19294 0
M  V30 9520 H 892.195 0.120706 -0.731103 0
M  V30 9521 H 894.842 -0.399904 -1.87278 0
M  V30 9522 H 893.147 1.55681 -3.59542 0
M  V30 9523 H 894.844 1.2333 -3.81563 0
M  V30 9524 H 891.434 -0.1216 -4.28427 0
M  V30 9525 H 895.618 -0.900119 -4.88069 0
M  V30 9526 H 890.874 -1.98915 -5.78137 0
M  V30 9527 H 895.048 -2.76553 -6.39133 0
M  V30 9528 H 892.675 -3.31602 -6.84064 0
M  V30 9529 N 894.251 1.57596 -0.0117121 0
M  V30 9530 C 895.214 2.08089 0.960816 0
M  V30 9531 C 896.214 0.992519 1.26514 0
M  V30 9532 O 897.404 1.25475 1.20837 0
M  V30 9533 C 894.536 2.53217 2.28241 0
M  V30 9534 H 895.729 2.9529 0.523829 0
M  V30 9535 H 893.282 1.54508 0.235995 0
M  V30 9536 H 894.017 1.69294 2.76604 0
M  V30 9537 H 893.802 3.32714 2.0747 0
M  V30 9538 H 895.292 2.92568 2.97983 0
M  V30 9539 N 895.729 -0.261212 1.5542 0
M  V30 9540 C 896.977 -0.989272 1.76232 0
M  V30 9541 C 897.298 -1.86389 0.573067 0
M  V30 9542 O 896.568 -1.91526 -0.41166 0
M  V30 9543 H 895.148 -0.368256 0.64992 0
M  V30 9544 H 897.81 -0.282603 1.9284 0
M  V30 9545 H 896.906 -1.61935 2.66802 0
M  V30 9546 N 897.207 -1.48554 -0.526253 0
M  V30 9547 C 898.432 -1.60686 -1.31129 0
M  V30 9548 C 898.857 -0.268701 -1.86171 0
M  V30 9549 O 898.215 0.760167 -1.64594 0
M  V30 9550 C 898.263 -2.65938 -2.43536 0
M  V30 9551 O 897.367 -2.23356 -3.46678 0
M  V30 9552 H 896.708 -0.538691 -0.388211 0
M  V30 9553 H 899.238 -1.94567 -0.632826 0
M  V30 9554 H 899.248 -2.87327 -2.89668 0
M  V30 9555 H 897.923 -3.63085 -2.02835 0
M  V30 9556 H 896.5 -2.12196 -3.06639 0
M  V30 9557 N 898.685 0.775411 -1.37205 0
M  V30 9558 C 899.617 1.89761 -1.28544 0
M  V30 9559 C 900.63 1.61542 -0.201996 0
M  V30 9560 O 901.819 1.72528 -0.457848 0
M  V30 9561 C 898.919 3.24904 -0.963885 0
M  V30 9562 C 898.092 3.80796 -2.15205 0
M  V30 9563 C 897.151 4.94407 -1.80135 0
M  V30 9564 O 896.177 5.10185 -2.52388 0
M  V30 9565 N 897.379 5.75722 -0.743298 0
M  V30 9566 H 900.144 1.97708 -2.25237 0
M  V30 9567 H 897.705 0.954348 -1.30782 0
M  V30 9568 H 899.697 3.9842 -0.710182 0
M  V30 9569 H 898.267 3.12483 -0.085632 0
M  V30 9570 H 897.487 2.99101 -2.56773 0
M  V30 9571 H 898.775 4.1487 -2.94552 0
M  V30 9572 H 898.173 5.65518 -0.143655 0
M  V30 9573 H 896.73 6.4948 -0.549446 0
M  V30 9574 N 900.163 1.21714 1.00117 0
M  V30 9575 C 901.579 0.97532 1.26332 0
M  V30 9576 C 901.779 -0.336029 1.98678 0
M  V30 9577 O 900.835 -1.06073 2.29139 0
M  V30 9578 C 902.148 2.16848 2.0832 0
M  V30 9579 C 903.696 2.21115 2.21533 0
M  V30 9580 C 904.171 3.3996 3.06906 0
M  V30 9581 N 905.662 3.40071 3.14494 0
M  V30 9582 C 906.397 4.28678 3.80818 0
M  V30 9583 N 905.893 5.2749 4.49139 0
M  V30 9584 N 907.686 4.16476 3.77497 0
M  V30 9585 H 899.837 2.06039 0.515897 0
M  V30 9586 H 902.1 0.902423 0.290408 0
M  V30 9587 H 901.806 3.119 1.62515 0
M  V30 9588 H 901.68 2.16226 3.09073 0
M  V30 9589 H 904.067 1.26616 2.66557 0
M  V30 9590 H 904.148 2.2578 1.20238 0
M  V30 9591 H 903.792 4.34755 2.62585 0
M  V30 9592 H 903.722 3.32534 4.08324 0
M  V30 9593 H 906.213 2.68563 2.65861 0
M  V30 9594 H 906.526 5.91397 4.97463 0
M  V30 9595 H 904.871 5.31412 4.47914 0
M  V30 9596 H 908.062 3.38539 3.23278 0
M  V30 9597 H 908.235 4.85739 4.28908 0
M  V30 9598 N 901.641 -1.19671 1.02551 0
M  V30 9599 C 902.888 -1.89268 0.720002 0
M  V30 9600 C 903.216 -1.79411 -0.751127 0
M  V30 9601 O 902.471 -1.17859 -1.5623 0
M  V30 9602 C 902.77 -3.39647 1.11241 0
M  V30 9603 C 902.436 -3.69706 2.58125 0
M  V30 9604 C 901.098 -3.7762 2.98256 0
M  V30 9605 C 903.45 -3.83301 3.53171 0
M  V30 9606 C 900.778 -3.96594 4.32354 0
M  V30 9607 C 903.13 -4.03788 4.86968 0
M  V30 9608 C 901.794 -4.09934 5.26793 0
M  V30 9609 H 901.064 -0.692579 0.263467 0
M  V30 9610 H 903.711 -1.41738 1.28774 0
M  V30 9611 H 902.016 -3.89052 0.463234 0
M  V30 9612 H 903.713 -3.91809 0.853602 0
M  V30 9613 H 900.303 -3.64152 2.26033 0
M  V30 9614 H 904.487 -3.76534 3.2332 0
M  V30 9615 H 899.743 -3.9959 4.6275 0
M  V30 9616 H 903.917 -4.1325 5.60533 0
M  V30 9617 H 901.544 -4.24389 6.30712 0
M  V30 9618 N 903.119 -0.802921 -1.35613 0
M  V30 9619 C 904.367 -0.380822 -1.9848 0
M  V30 9620 C 904.688 1.05464 -1.6402 0
M  V30 9621 O 903.958 1.72908 -0.920854 0
M  V30 9622 H 902.538 -0.137824 -0.734176 0
M  V30 9623 H 905.2 -1.02795 -1.65587 0
M  V30 9624 H 904.296 -0.483565 -3.08331 0
M  V30 9625 N 904.597 1.47463 -0.556102 0
M  V30 9626 C 905.56 2.28478 0.181743 0
M  V30 9627 C 906.56 1.36886 0.843738 0
M  V30 9628 O 907.75 1.59527 0.69977 0
M  V30 9629 C 904.882 3.16534 1.26566 0
M  V30 9630 H 906.075 2.95182 -0.529892 0
M  V30 9631 H 903.628 1.53134 -0.313005 0
M  V30 9632 H 904.363 2.5452 2.00973 0
M  V30 9633 H 904.148 3.83939 0.795798 0
M  V30 9634 H 905.638 3.77579 1.78393 0
M  V30 9635 N 906.075 0.2925 1.54862 0
M  V30 9636 C 907.321 -0.319736 2.00264 0
M  V30 9637 C 907.654 -1.5419 1.18064 0
M  V30 9638 O 906.929 -1.92821 0.254983 0
M  V30 9639 C 907.212 -0.684753 3.5353 0
M  V30 9640 C 907.065 0.545961 4.46474 0
M  V30 9641 C 908.384 -1.51456 4.13218 0
M  V30 9642 H 905.503 -0.11474 0.728014 0
M  V30 9643 H 908.145 0.402907 1.85679 0
M  V30 9644 H 906.295 -1.30044 3.66089 0
M  V30 9645 H 907.967 1.18448 4.45834 0
M  V30 9646 H 906.21 1.1808 4.1742 0
M  V30 9647 H 906.881 0.246544 5.51449 0
M  V30 9648 H 909.357 -0.994421 4.04043 0
M  V30 9649 H 908.233 -1.73875 5.20633 0
M  V30 9650 H 908.494 -2.5011 3.64551 0
M  V30 9651 N 907.553 -1.57587 0.0200696 0
M  V30 9652 C 908.799 -1.92539 -0.655764 0
M  V30 9653 C 909.154 -0.896187 -1.70253 0
M  V30 9654 O 908.447 0.0890022 -1.91393 0
M  V30 9655 C 908.641 -3.32002 -1.32323 0
M  V30 9656 C 908.47 -4.48393 -0.342632 0
M  V30 9657 C 907.24 -5.05271 0.0542423 0
M  V30 9658 C 909.438 -5.12747 0.399388 0
M  V30 9659 N 907.42 -6.05181 1.03095 0
M  V30 9660 C 908.791 -6.07674 1.23014 0
M  V30 9661 C 910.846 -4.95761 0.461065 0
M  V30 9662 C 909.549 -6.87442 2.11698 0
M  V30 9663 C 911.575 -5.7613 1.33521 0
M  V30 9664 C 910.937 -6.70666 2.15376 0
M  V30 9665 H 907.036 -0.75256 -0.212549 0
M  V30 9666 H 909.62 -1.94514 0.0851247 0
M  V30 9667 H 907.791 -3.30863 -2.0343 0
M  V30 9668 H 909.523 -3.54327 -1.95537 0
M  V30 9669 H 906.278 -4.72529 -0.318327 0
M  V30 9670 H 906.702 -6.59824 1.51528 0
M  V30 9671 H 911.344 -4.22506 -0.15752 0
M  V30 9672 H 909.062 -7.60008 2.74616 0
M  V30 9673 H 912.648 -5.65023 1.38711 0
M  V30 9674 H 911.528 -7.31772 2.81922 0
M  V30 9675 N 909.032 0.252966 -1.55557 0
M  V30 9676 C 910.26 0.999565 -1.81153 0
M  V30 9677 C 910.675 1.79181 -0.594955 0
M  V30 9678 O 910.032 1.77208 0.436311 0
M  V30 9679 C 910.083 1.94227 -3.04891 0
M  V30 9680 O 909.804 1.18209 -4.21851 0
M  V30 9681 C 911.305 2.80536 -3.43241 0
M  V30 9682 H 908.525 0.294402 -0.602966 0
M  V30 9683 H 911.069 0.277686 -2.02606 0
M  V30 9684 H 909.224 2.6185 -2.85505 0
M  V30 9685 H 909.638 1.81922 -4.9194 0
M  V30 9686 H 911.112 3.42442 -4.32941 0
M  V30 9687 H 911.589 3.51337 -2.6355 0
M  V30 9688 H 912.195 2.18373 -3.64956 0
M  V30 9689 N 910.51 1.48831 0.518367 0
M  V30 9690 C 911.758 1.57128 1.27103 0
M  V30 9691 C 912.079 0.252098 1.93364 0
M  V30 9692 O 911.349 -0.727281 1.819 0
M  V30 9693 H 909.929 0.578891 0.472116 0
M  V30 9694 H 912.591 1.85361 0.602262 0
M  V30 9695 H 911.687 2.35838 2.04418 0
M  V30 9696 N 911.988 -0.768124 1.37614 0
M  V30 9697 C 913.265 -1.51637 1.23554 0
M  V30 9698 C 913.645 -2.1042 -0.169331 0
M  V30 9699 O 912.993 -1.95834 -1.17735 0
M  V30 9700 C 913.203 -2.59436 2.33439 0
M  V30 9701 C 914.551 -3.2674 2.71157 0
M  V30 9702 O 915.575 -2.69733 2.32642 0
M  V30 9703 O 914.434 -4.29814 3.37524 0
M  V30 9704 H 911.528 -0.671778 0.482332 0
M  V30 9705 H 914.074 -0.804779 1.49403 0
M  V30 9706 H 912.846 -2.14146 3.27502 0
M  V30 9707 H 912.469 -3.38192 2.09073 0
M  V30 9708 N 913.466 -1.22244 -0.994698 0
M  V30 9709 C 914.414 -0.988118 -2.10568 0
M  V30 9710 C 915.408 0.0681541 -1.69263 0
M  V30 9711 O 916.614 -0.0841311 -1.79803 0
M  V30 9712 H 912.989 -0.302343 -0.688544 0
M  V30 9713 H 914.96 -1.93091 -2.27505 0
M  V30 9714 C 913.709 -0.580557 -3.42819 0
M  V30 9715 H 913.032 -1.385 -3.75044 0
M  V30 9716 H 914.472 -0.456004 -4.21541 0
M  V30 9717 C 912.931 0.709692 -3.2934 0
M  V30 9718 O 913.461 1.76259 -3.60965 0
M  V30 9719 N 911.667 0.680155 -2.82528 0
M  V30 9720 H 911.214 -0.176977 -2.56991 0
M  V30 9721 H 911.172 1.54372 -2.73892 0
M  V30 9722 N 914.944 1.19125 -1.03184 0
M  V30 9723 C 916.172 1.92838 -0.74975 0
M  V30 9724 C 916.587 1.75667 0.691851 0
M  V30 9725 O 915.944 1.0805 1.47076 0
M  V30 9726 C 915.995 3.44509 -1.09525 0
M  V30 9727 O 915.716 3.6113 -2.48025 0
M  V30 9728 C 917.217 4.35338 -0.836397 0
M  V30 9729 H 914.437 0.61246 -0.274105 0
M  V30 9730 H 916.981 1.5118 -1.37712 0
M  V30 9731 H 915.136 3.83988 -0.513006 0
M  V30 9732 H 915.55 4.54959 -2.60984 0
M  V30 9733 H 917.024 5.4035 -1.12808 0
M  V30 9734 H 917.501 4.38602 0.229102 0
M  V30 9735 H 918.107 4.01544 -1.40152 0
M  V30 9736 N 916.422 0.810101 1.35185 0
M  V30 9737 C 917.385 0.22852 2.28058 0
M  V30 9738 C 918.385 -0.586168 1.49735 0
M  V30 9739 O 919.575 -0.40414 1.69447 0
M  V30 9740 C 916.707 -0.681041 3.34028 0
M  V30 9741 H 917.9 1.04768 2.81005 0
M  V30 9742 H 915.453 0.58101 1.451 0
M  V30 9743 H 916.188 -1.52375 2.86273 0
M  V30 9744 H 915.973 -0.0985276 3.91976 0
M  V30 9745 H 917.463 -1.08217 4.03335 0
M  V30 9746 N 917.9 -1.47166 0.563914 0
M  V30 9747 C 918.81 -2.33885 -0.182977 0
M  V30 9748 C 919.826 -1.48605 -0.905132 0
M  V30 9749 O 921.002 -1.81518 -0.872527 0
M  V30 9750 C 918.067 -3.25433 -1.19558 0
M  V30 9751 C 917.128 -4.26607 -0.480129 0
M  V30 9752 C 916.361 -5.1378 -1.44449 0
M  V30 9753 O 916.584 -5.03531 -2.67979 0
M  V30 9754 O 915.518 -5.94109 -0.965321 0
M  V30 9755 H 919.344 -2.99065 0.528544 0
M  V30 9756 H 916.929 -1.45834 0.324468 0
M  V30 9757 H 918.811 -3.81964 -1.77993 0
M  V30 9758 H 917.486 -2.62873 -1.8889 0
M  V30 9759 H 916.393 -3.73817 0.145583 0
M  V30 9760 H 917.726 -4.919 0.171868 0
M  V30 9761 N 919.378 -0.300708 -1.54705 0
M  V30 9762 C 920.624 0.301982 -2.01146 0
M  V30 9763 C 920.979 1.51548 -1.18537 0
M  V30 9764 O 920.272 1.89914 -0.253656 0
M  V30 9765 C 920.466 0.710108 -3.50275 0
M  V30 9766 C 920.295 -0.462291 -4.47318 0
M  V30 9767 C 919.065 -0.954214 -4.96208 0
M  V30 9768 C 921.263 -1.30716 -4.97411 0
M  V30 9769 N 919.245 -2.09341 -5.77105 0
M  V30 9770 C 920.616 -2.29384 -5.76006 0
M  V30 9771 C 922.671 -1.33756 -4.79597 0
M  V30 9772 C 921.374 -3.30869 -6.38685 0
M  V30 9773 C 923.4 -2.34099 -5.43094 0
M  V30 9774 C 922.762 -3.31498 -6.21521 0
M  V30 9775 H 918.861 0.0749709 -0.778398 0
M  V30 9776 H 921.445 -0.430557 -1.8988 0
M  V30 9777 H 919.616 1.41182 -3.61832 0
M  V30 9778 H 921.348 1.29231 -3.83512 0
M  V30 9779 H 918.103 -0.529238 -4.70634 0
M  V30 9780 H 918.527 -2.66739 -6.22237 0
M  V30 9781 H 923.169 -0.598284 -4.18546 0
M  V30 9782 H 920.887 -4.05717 -6.9887 0
M  V30 9783 H 924.473 -2.37225 -5.31239 0
M  V30 9784 H 923.353 -4.07872 -6.69784 0
M  V30 9785 N 920.856 1.57574 -0.0284266 0
M  V30 9786 C 922.133 1.83064 0.688979 0
M  V30 9787 C 922.513 0.91219 1.90374 0
M  V30 9788 O 921.861 -0.0323672 2.28477 0
M  V30 9789 C 922.071 3.32262 1.06785 0
M  V30 9790 C 923.419 3.98717 1.45978 0
M  V30 9791 O 924.443 3.36753 1.16085 0
M  V30 9792 O 923.302 5.07927 2.01673 0
M  V30 9793 H 920.396 0.7548 0.337944 0
M  V30 9794 H 922.942 1.69607 -0.0560555 0
M  V30 9795 H 921.714 3.90772 0.203235 0
M  V30 9796 H 921.337 3.50823 1.87107 0
M  V30 9797 N 922.334 -0.244713 1.55689 0
M  V30 9798 C 923.284 -1.30596 1.86892 0
M  V30 9799 C 924.268 -1.43388 0.729972 0
M  V30 9800 O 925.46 -1.46593 0.99194 0
M  V30 9801 C 922.589 -2.66099 2.16902 0
M  V30 9802 C 921.675 -2.57302 3.37129 0
M  V30 9803 N 922.066 -2.18139 4.56343 0
M  V30 9804 C 920.364 -2.88311 3.40283 0
M  V30 9805 C 921.065 -2.20028 5.38482 0
M  V30 9806 N 920.041 -2.59616 4.77599 0
M  V30 9807 H 923.843 -0.993699 2.76591 0
M  V30 9808 H 921.357 -0.453334 1.55944 0
M  V30 9809 H 923.354 -3.4269 2.37422 0
M  V30 9810 H 922.014 -2.9819 1.28502 0
M  V30 9811 H 923.025 -1.89647 4.81928 0
M  V30 9812 H 919.702 -3.24928 2.62161 0
M  V30 9813 H 921.092 -1.9207 6.43862 0
M  V30 9814 N 923.813 -1.49104 -0.510467 0
M  V30 9815 C 924.743 -1.67981 -1.62187 0
M  V30 9816 C 925.724 -0.528529 -1.6168 0
M  V30 9817 O 926.909 -0.763305 -1.7857 0
M  V30 9818 C 924.039 -1.73755 -3.0071 0
M  V30 9819 C 922.993 -2.88579 -3.1608 0
M  V30 9820 C 922.319 -2.79457 -4.5586 0
M  V30 9821 C 923.619 -4.29638 -2.97 0
M  V30 9822 H 925.313 -2.61029 -1.46643 0
M  V30 9823 H 922.859 -1.25615 -0.704042 0
M  V30 9824 H 924.812 -1.85548 -3.78352 0
M  V30 9825 H 923.536 -0.772996 -3.17321 0
M  V30 9826 H 922.195 -2.76372 -2.40861 0
M  V30 9827 H 921.843 -1.80929 -4.69333 0
M  V30 9828 H 921.543 -3.56518 -4.67086 0
M  V30 9829 H 923.067 -2.93245 -5.35574 0
M  V30 9830 H 924.481 -4.42575 -3.64418 0
M  V30 9831 H 922.878 -5.07847 -3.19704 0
M  V30 9832 H 923.948 -4.44741 -1.93219 0
M  V30 9833 N 925.291 0.760815 -1.38019 0
M  V30 9834 C 926.238 1.8744 -1.34666 0
M  V30 9835 C 927.208 1.64762 -0.210386 0
M  V30 9836 O 928.393 1.86528 -0.401479 0
M  V30 9837 C 925.533 3.24648 -1.17037 0
M  V30 9838 C 924.646 3.59206 -2.3999 0
M  V30 9839 C 923.781 4.8568 -2.15148 0
M  V30 9840 C 922.82 5.13002 -3.3391 0
M  V30 9841 N 921.957 6.30668 -3.08549 0
M  V30 9842 H 926.797 1.8964 -2.29871 0
M  V30 9843 H 924.334 0.927004 -1.14215 0
M  V30 9844 H 926.292 4.03814 -1.04834 0
M  V30 9845 H 924.922 3.21793 -0.254758 0
M  V30 9846 H 923.974 2.74939 -2.62893 0
M  V30 9847 H 925.286 3.75328 -3.28527 0
M  V30 9848 H 924.44 5.72773 -2.00039 0
M  V30 9849 H 923.179 4.71682 -1.23965 0
M  V30 9850 H 922.184 4.2438 -3.49545 0
M  V30 9851 H 923.409 5.28901 -4.25958 0
M  V30 9852 H 921.355 6.18008 -2.20006 0
M  V30 9853 H 921.272 6.47257 -3.90633 0
M  V30 9854 H 922.54 7.20669 -2.9708 0
M  V30 9855 N 926.769 1.22769 0.988202 0
M  V30 9856 C 928.018 1.0492 1.72263 0
M  V30 9857 C 928.331 -0.415282 1.91141 0
M  V30 9858 O 929.537 -0.713547 2.61956 0
M  V30 9859 C 927.993 1.82891 3.09966 0
M  V30 9860 C 927.601 3.33618 2.99003 0
M  V30 9861 C 929.345 1.73505 3.87423 0
M  V30 9862 C 927.252 4.04012 4.3189 0
M  V30 9863 H 926.182 0.38899 0.645912 0
M  V30 9864 H 928.833 1.46664 1.10281 0
M  V30 9865 H 927.215 1.33948 3.72658 0
M  V30 9866 H 928.389 3.8999 2.45448 0
M  V30 9867 H 926.704 3.43732 2.35027 0
M  V30 9868 H 929.301 2.23416 4.85787 0
M  V30 9869 H 929.644 0.696344 4.10435 0
M  V30 9870 H 930.177 2.20016 3.31418 0
M  V30 9871 H 926.916 5.08155 4.14075 0
M  V30 9872 H 926.436 3.52428 4.8534 0
M  V30 9873 H 928.115 4.0987 5.00615 0
M  V30 9874 N 928.247 -1.18576 1.03814 0
M  V30 9875 C 929.472 -1.92978 0.759873 0
M  V30 9876 C 929.897 -1.75514 -0.676486 0
M  V30 9877 O 929.255 -1.06359 -1.46824 0
M  V30 9878 C 929.303 -3.42507 1.12788 0
M  V30 9879 O 928.407 -4.1163 0.251886 0
M  V30 9880 H 927.748 -0.602129 0.279886 0
M  V30 9881 H 930.278 -1.50383 1.3873 0
M  V30 9882 H 930.288 -3.93206 1.08872 0
M  V30 9883 H 928.963 -3.5454 2.17427 0
M  V30 9884 H 927.54 -3.7125 0.350441 0
M  V30 9885 N 929.725 -0.817259 -1.34754 0
M  V30 9886 C 930.974 -0.39908 -1.97713 0
M  V30 9887 C 931.287 1.04203 -1.65533 0
M  V30 9888 O 932.493 1.56384 -2.21937 0
M  V30 9889 C 930.949 -0.662634 -3.53747 0
M  V30 9890 C 930.557 -2.11699 -3.94826 0
M  V30 9891 C 932.301 -0.31034 -4.23364 0
M  V30 9892 C 930.208 -2.32573 -5.4375 0
M  V30 9893 H 929.138 -0.145488 -0.739831 0
M  V30 9894 H 931.789 -1.00282 -1.53674 0
M  V30 9895 H 930.171 0.0111972 -3.95998 0
M  V30 9896 H 931.345 -2.82951 -3.63697 0
M  V30 9897 H 929.66 -2.43017 -3.3813 0
M  V30 9898 H 932.257 -0.44421 -5.32852 0
M  V30 9899 H 932.6 0.744594 -4.09587 0
M  V30 9900 H 933.133 -0.938518 -3.8657 0
M  V30 9901 H 929.872 -3.36551 -5.62507 0
M  V30 9902 H 929.392 -1.65858 -5.76412 0
M  V30 9903 H 931.071 -2.14651 -6.10356 0
M  V30 9904 N 931.203 1.46865 -0.571711 0
M  V30 9905 C 932.614 1.86158 -0.142181 0
M  V30 9906 C 932.965 1.47663 1.2919 0
M  V30 9907 O 932.09 0.886393 1.97413 0
M  V30 9908 C 932.685 3.37867 -0.251256 0
M  V30 9909 C 931.244 3.76198 0.123329 0
M  V30 9910 C 930.391 2.70902 -0.592232 0
M  V30 9911 H 933.342 1.38176 -0.780587 0
M  V30 9912 H 933.363 3.76842 0.526331 0
M  V30 9913 H 932.875 3.65853 -1.2951 0
M  V30 9914 H 930.976 3.53829 1.16773 0
M  V30 9915 H 931.089 4.78471 -0.24533 0
M  V30 9916 H 929.453 2.54678 -0.0336927 0
M  V30 9917 H 930.236 3.01729 -1.63751 0
M  V30 9918 N 932.681 0.308908 1.54543 0
M  V30 9919 C 933.614 -0.605854 2.20011 0
M  V30 9920 C 934.592 -1.1269 1.17216 0
M  V30 9921 O 935.776 -1.19363 1.45893 0
M  V30 9922 C 932.903 -1.82977 2.85021 0
M  V30 9923 C 931.949 -1.44126 4.0141 0
M  V30 9924 S 932.782 -0.490445 5.33249 0
M  V30 9925 C 933.938 -1.72198 6.01746 0
M  V30 9926 H 934.171 -0.0496911 2.97258 0
M  V30 9927 H 931.704 0.0930238 1.5412 0
M  V30 9928 H 933.662 -2.53211 3.23102 0
M  V30 9929 H 932.323 -2.35711 2.07604 0
M  V30 9930 H 931.516 -2.35288 4.45708 0
M  V30 9931 H 931.118 -0.818788 3.64927 0
M  V30 9932 H 933.41 -2.66147 6.23034 0
M  V30 9933 H 934.353 -1.32142 6.95661 0
M  V30 9934 H 934.761 -1.90229 5.31482 0
M  V30 9935 N 934.159 -1.57557 0.0367827 0
M  V30 9936 C 935.399 -1.93981 -0.644252 0
M  V30 9937 C 935.763 -0.913982 -1.6885 0
M  V30 9938 O 936.964 -1.16468 -2.42257 0
M  V30 9939 C 935.235 -3.35281 -1.23779 0
M  V30 9940 S 936.794 -3.93643 -1.93883 0
M  V30 9941 H 933.612 -0.678683 -0.21192 0
M  V30 9942 H 936.214 -1.95232 0.102281 0
M  V30 9943 H 934.918 -4.07752 -0.465451 0
M  V30 9944 H 934.449 -3.37492 -2.02146 0
M  V30 9945 H 936.464 -3.777 -3.21803 0
M  V30 9946 N 935.637 0.236453 -1.55816 0
M  V30 9947 C 936.567 1.29639 -1.94206 0
M  V30 9948 C 937.548 1.49667 -0.808319 0
M  V30 9949 O 938.733 1.621 -1.06945 0
M  V30 9950 C 935.863 2.64914 -2.24584 0
M  V30 9951 C 934.817 2.59565 -3.40308 0
M  V30 9952 C 934.143 3.98732 -3.56254 0
M  V30 9953 C 935.443 2.15642 -4.75706 0
M  V30 9954 H 937.137 0.977552 -2.82992 0
M  V30 9955 H 934.683 0.468804 -1.36155 0
M  V30 9956 H 936.636 3.39209 -2.50031 0
M  V30 9957 H 935.36 2.98455 -1.32636 0
M  V30 9958 H 934.019 1.87728 -3.14887 0
M  V30 9959 H 933.667 4.29556 -2.61707 0
M  V30 9960 H 933.367 3.96039 -4.34082 0
M  V30 9961 H 934.891 4.74711 -3.84033 0
M  V30 9962 H 936.305 2.79673 -5.00456 0
M  V30 9963 H 934.702 2.24039 -5.56711 0
M  V30 9964 H 935.772 1.10831 -4.72064 0
M  V30 9965 N 937.115 1.49373 0.502552 0
M  V30 9966 C 938.34 1.62752 1.28556 0
M  V30 9967 C 938.765 0.298285 1.8572 0
M  V30 9968 O 938.123 -0.733885 1.65782 0
M  V30 9969 C 938.171 2.69778 2.39274 0
M  V30 9970 O 937.275 2.28843 3.43081 0
M  V30 9971 H 936.616 0.544799 0.379592 0
M  V30 9972 H 939.146 1.9555 0.601792 0
M  V30 9973 H 939.156 2.91899 2.8506 0
M  V30 9974 H 937.831 3.66266 1.97033 0
M  V30 9975 H 936.408 2.17047 3.03224 0
M  V30 9976 N 938.594 -0.753485 1.38421 0
M  V30 9977 C 939.524 -1.8808 1.38377 0
M  V30 9978 C 940.505 -1.68258 0.249664 0
M  V30 9979 O 941.69 -1.88848 0.45276 0
M  V30 9980 C 938.82 -3.25608 1.20818 0
M  V30 9981 C 937.774 -3.60032 2.31433 0
M  V30 9982 C 937.1 -4.96297 1.9898 0
M  V30 9983 C 938.4 -3.64898 3.73694 0
M  V30 9984 H 940.094 -1.88375 2.32713 0
M  V30 9985 H 937.64 -0.90489 1.12017 0
M  V30 9986 H 939.593 -4.04127 1.19412 0
M  V30 9987 H 938.317 -3.25793 0.229433 0
M  V30 9988 H 936.976 -2.83831 2.32025 0
M  V30 9989 H 936.624 -4.93043 0.995889 0
M  V30 9990 H 936.324 -5.20298 2.73063 0
M  V30 9991 H 937.848 -5.77196 1.99193 0
M  V30 9992 H 939.262 -4.33531 3.75132 0
M  V30 9993 H 937.659 -4.00407 4.46983 0
M  V30 9994 H 938.729 -2.65124 4.06002 0
M  V30 9995 N 940.072 -1.23292 -0.981677 0
M  V30 9996 C 941.32 -1.06214 -1.71939 0
M  V30 9997 C 941.641 0.401989 -1.90812 0
M  V30 9998 O 940.911 1.28825 -1.47584 0
M  V30 9999 H 939.491 -0.390042 -0.637084 0
M  V30 10000 H 942.153 -1.54988 -1.18173 0
M  V30 10001 H 941.249 -1.54904 -2.70945 0
M  V30 10002 N 941.55 1.18024 -1.04442 0
M  V30 10003 C 942.48 2.23988 -0.659683 0
M  V30 10004 C 943.461 1.6669 0.338904 0
M  V30 10005 O 944.646 1.92971 0.21817 0
M  V30 10006 C 941.776 3.4729 -0.0257672 0
M  V30 10007 C 940.73 4.17362 -0.948299 0
M  V30 10008 C 940.056 5.34401 -0.17866 0
M  V30 10009 C 941.356 4.70435 -2.26909 0
M  V30 10010 H 943.05 2.56425 -1.54553 0
M  V30 10011 H 940.596 1.23256 -0.744575 0
M  V30 10012 H 942.549 4.20627 0.255131 0
M  V30 10013 H 941.273 3.14098 0.894981 0
M  V30 10014 H 939.932 3.45928 -1.21364 0
M  V30 10015 H 939.58 4.97458 0.744614 0
M  V30 10016 H 939.28 5.8222 -0.793294 0
M  V30 10017 H 940.804 6.10526 0.0951315 0
M  V30 10018 H 942.218 5.35447 -2.04864 0
M  V30 10019 H 940.615 5.28803 -2.83703 0
M  V30 10020 H 941.685 3.87653 -2.91296 0
M  V30 10021 N 943.028 0.824394 1.34319 0
M  V30 10022 C 944.274 0.413779 1.98534 0
M  V30 10023 C 944.607 -1.02089 1.65201 0
M  V30 10024 O 943.882 -1.71129 0.924402 0
M  V30 10025 C 944.165 0.61801 3.54757 0
M  V30 10026 C 944.018 2.0989 3.97827 0
M  V30 10027 C 945.337 0.0549041 4.40066 0
M  V30 10028 H 942.456 0.151815 0.721194 0
M  V30 10029 H 945.098 1.03723 1.5919 0
M  V30 10030 H 943.248 0.0873107 3.88402 0
M  V30 10031 H 944.92 2.69335 3.74508 0
M  V30 10032 H 943.163 2.58881 3.48085 0
M  V30 10033 H 943.834 2.1926 5.06586 0
M  V30 10034 H 946.31 0.508348 4.12983 0
M  V30 10035 H 945.186 0.227595 5.48428 0
M  V30 10036 H 945.447 -1.04025 4.29687 0
M  V30 10037 N 944.506 -1.46559 0.579492 0
M  V30 10038 C 945.754 -2.02 0.0637157 0
M  V30 10039 C 946.075 -1.45378 -1.29962 0
M  V30 10040 O 945.345 -0.637262 -1.85245 0
M  V30 10041 H 943.925 -0.746717 0.0205638 0
M  V30 10042 H 946.587 -1.79702 0.754544 0
M  V30 10043 H 945.683 -3.12099 -0.00770254 0
M  V30 10044 N 945.984 -0.3171 -1.54377 0
M  V30 10045 C 946.914 0.544623 -2.2706 0
M  V30 10046 C 947.895 1.12469 -1.27611 0
M  V30 10047 O 949.08 1.15103 -1.56413 0
M  V30 10048 C 946.21 1.70879 -3.02353 0
M  V30 10049 C 945.164 1.25833 -4.09084 0
M  V30 10050 C 944.49 2.50894 -4.72182 0
M  V30 10051 C 945.79 0.377876 -5.20931 0
M  V30 10052 H 947.484 -0.0616372 -2.99337 0
M  V30 10053 H 945.03 -0.0310848 -1.43966 0
M  V30 10054 H 946.983 2.31787 -3.51927 0
M  V30 10055 H 945.707 2.34155 -2.27682 0
M  V30 10056 H 944.366 0.672228 -3.60384 0
M  V30 10057 H 944.014 3.12518 -3.94134 0
M  V30 10058 H 943.714 2.21447 -5.44275 0
M  V30 10059 H 945.238 3.12575 -5.24528 0
M  V30 10060 H 946.652 0.893056 -5.66302 0
M  V30 10061 H 945.049 0.176474 -5.9984 0
M  V30 10062 H 946.119 -0.592943 -4.81261 0
M  V30 10063 N 947.462 1.57535 -0.0451378 0
M  V30 10064 C 948.687 1.97172 0.64326 0
M  V30 10065 C 949.112 0.922266 1.63939 0
M  V30 10066 O 948.47 -0.115155 1.80934 0
M  V30 10067 C 948.518 3.35889 1.3119 0
M  V30 10068 O 947.622 3.33387 2.42748 0
M  V30 10069 H 946.963 0.642469 0.167719 0
M  V30 10070 H 949.493 2.04295 -0.111747 0
M  V30 10071 H 949.503 3.72481 1.66499 0
M  V30 10072 H 948.178 4.1181 0.581823 0
M  V30 10073 H 946.755 3.08533 2.09432 0
M  V30 10074 N 948.94 -0.228186 1.55939 0
M  V30 10075 C 950.187 -0.953552 1.78644 0
M  V30 10076 C 950.515 -1.84596 0.61275 0
M  V30 10077 O 949.77 -1.91502 -0.403175 0
M  V30 10078 C 950.069 -1.82924 3.0704 0
M  V30 10079 C 949.735 -1.09062 4.37511 0
M  V30 10080 C 948.397 -0.886565 4.72962 0
M  V30 10081 C 950.749 -0.568533 5.1809 0
M  V30 10082 C 948.077 -0.148413 5.86512 0
M  V30 10083 C 950.429 0.156243 6.32407 0
M  V30 10084 C 949.093 0.371612 6.66465 0
M  V30 10085 H 948.363 -0.348929 0.653704 0
M  V30 10086 H 951.01 -0.222211 1.90206 0
M  V30 10087 H 949.315 -2.62823 2.90571 0
M  V30 10088 H 951.012 -2.3925 3.21808 0
M  V30 10089 H 947.602 -1.25963 4.09672 0
M  V30 10090 H 951.786 -0.713673 4.91142 0
M  V30 10091 H 947.042 0.0287418 6.11393 0
M  V30 10092 H 951.216 0.568333 6.94077 0
M  V30 10093 H 948.843 0.945522 7.54297 0
M  V30 10094 N 950.418 -1.49637 -0.494624 0
M  V30 10095 C 951.658 -1.61067 -1.25844 0
M  V30 10096 C 952.022 -0.293666 -1.89741 0
M  V30 10097 O 953.223 -0.283202 -2.67304 0
M  V30 10098 C 951.494 -2.74218 -2.29215 0
M  V30 10099 S 953.053 -3.05639 -3.1485 0
M  V30 10100 H 949.871 -0.568056 -0.42759 0
M  V30 10101 H 952.473 -1.87323 -0.559491 0
M  V30 10102 H 951.177 -3.68422 -1.80813 0
M  V30 10103 H 950.708 -2.49975 -3.0377 0
M  V30 10104 H 952.723 -2.47651 -4.29981 0
M  V30 10105 N 951.896 0.746133 -1.38819 0
M  V30 10106 C 953.144 1.50247 -1.35167 0
M  V30 10107 C 953.465 1.94921 0.0553531 0
M  V30 10108 O 952.735 1.68187 1.00449 0
M  V30 10109 H 951.315 0.557337 -0.497377 0
M  V30 10110 H 953.977 0.886472 -1.73573 0
M  V30 10111 H 953.073 2.38986 -2.00728 0
M  V30 10112 N 953.375 1.23811 0.975125 0
M  V30 10113 C 954.338 1.02505 2.05001 0
M  V30 10114 C 955.338 -0.0150084 1.60793 0
M  V30 10115 O 956.528 0.225246 1.72738 0
M  V30 10116 C 953.66 0.552087 3.364 0
M  V30 10117 H 954.853 1.979 2.25335 0
M  V30 10118 H 952.406 1.05929 1.1493 0
M  V30 10119 H 953.141 -0.405394 3.21756 0
M  V30 10120 H 952.926 1.30267 3.69828 0
M  V30 10121 H 954.416 0.423828 4.15444 0
M  V30 10122 N 954.853 -1.17469 1.05066 0
M  V30 10123 C 956.13 -1.83625 0.673872 0
M  V30 10124 C 956.51 -1.93412 -0.845871 0
M  V30 10125 O 955.858 -1.4677 -1.75131 0
M  V30 10126 C 956.068 -3.21352 1.36139 0
M  V30 10127 C 957.416 -3.97274 1.49863 0
M  V30 10128 O 958.44 -3.30827 1.3203 0
M  V30 10129 O 957.299 -5.16349 1.79013 0
M  V30 10130 H 954.393 -0.792297 0.237055 0
M  V30 10131 H 956.939 -1.24776 1.15017 0
M  V30 10132 H 955.711 -3.0919 2.39827 0
M  V30 10133 H 955.334 -3.87867 0.874364 0
M  V30 10134 N 956.331 -0.831506 -1.3388 0
M  V30 10135 C 957.577 -0.424302 -1.98312 0
M  V30 10136 C 957.91 1.01211 -1.65741 0
M  V30 10137 O 957.185 1.70636 -0.933464 0
M  V30 10138 C 957.468 -0.636815 -3.54424 0
M  V30 10139 C 957.321 -2.11997 -3.96708 0
M  V30 10140 C 958.64 -0.0782411 -4.4003 0
M  V30 10141 H 955.759 -0.155637 -0.720379 0
M  V30 10142 H 958.401 -1.04566 -1.58638 0
M  V30 10143 H 956.551 -0.107907 -3.8835 0
M  V30 10144 H 958.223 -2.71317 -3.73075 0
M  V30 10145 H 956.466 -2.60723 -3.46707 0
M  V30 10146 H 957.137 -2.21944 -5.05416 0
M  V30 10147 H 959.613 -0.530243 -4.12708 0
M  V30 10148 H 958.489 -0.256676 -5.483 0
M  V30 10149 H 958.75 1.01745 -4.30233 0
M  V30 10150 N 957.809 1.4625 -0.587256 0
M  V30 10151 C 959.057 2.01963 -0.0744273 0
M  V30 10152 C 959.378 1.46065 1.29189 0
M  V30 10153 O 958.648 0.647077 1.84905 0
M  V30 10154 H 957.228 0.746597 -0.0245236 0
M  V30 10155 H 959.89 1.79299 -0.764063 0
M  V30 10156 H 958.986 3.12099 -0.00884894 0
M  V30 10157 N 959.287 0.325282 1.54207 0
M  V30 10158 C 960.535 -0.276229 2.00203 0
M  V30 10159 C 960.856 -1.52519 1.21503 0
M  V30 10160 O 960.126 -1.93313 0.317302 0
M  V30 10161 H 958.706 -0.105059 0.739575 0
M  V30 10162 H 961.368 0.442225 1.89817 0
M  V30 10163 H 960.464 -0.531427 3.07542 0
M  V30 10164 N 960.765 -1.57509 0.0534917 0
M  V30 10165 C 962.012 -1.92782 -0.619772 0
M  V30 10166 C 962.34 -0.932046 -1.70714 0
M  V30 10167 O 961.595 0.0552891 -1.95622 0
M  V30 10168 C 961.894 -3.34734 -1.25251 0
M  V30 10169 C 961.56 -4.49946 -0.293113 0
M  V30 10170 C 960.222 -4.81191 -0.0291223 0
M  V30 10171 C 962.574 -5.19925 0.364271 0
M  V30 10172 C 959.902 -5.79761 0.899649 0
M  V30 10173 C 962.254 -6.19489 1.28125 0
M  V30 10174 C 960.918 -6.49161 1.55389 0
M  V30 10175 H 960.188 -0.705441 -0.226791 0
M  V30 10176 H 962.835 -1.91121 0.120466 0
M  V30 10177 H 961.14 -3.32774 -2.06807 0
M  V30 10178 H 962.837 -3.59308 -1.78042 0
M  V30 10179 H 959.427 -4.25566 -0.509053 0
M  V30 10180 H 963.611 -4.95997 0.173411 0
M  V30 10181 H 958.867 -6.01085 1.11833 0
M  V30 10182 H 963.041 -6.72824 1.79669 0
M  V30 10183 H 960.668 -7.25354 2.2752 0
M  V30 10184 N 962.243 0.219913 -1.56058 0
M  V30 10185 C 963.49 0.944064 -1.79147 0
M  V30 10186 C 963.818 1.84268 -0.622531 0
M  V30 10187 O 963.073 1.91713 0.393013 0
M  V30 10188 C 963.372 1.81293 -3.08006 0
M  V30 10189 C 963.038 1.0674 -4.38084 0
M  V30 10190 C 961.7 0.86147 -4.73426 0
M  V30 10191 C 964.052 0.541049 -5.18384 0
M  V30 10192 C 961.38 0.117307 -5.86583 0
M  V30 10193 C 963.732 -0.189779 -6.32315 0
M  V30 10194 C 962.396 -0.406951 -6.66258 0
M  V30 10195 H 961.666 0.345458 -0.655546 0
M  V30 10196 H 964.313 0.212121 -1.90322 0
M  V30 10197 H 962.618 2.61278 -2.9196 0
M  V30 10198 H 964.315 2.3754 -3.23072 0
M  V30 10199 H 960.905 1.23789 -4.10334 0
M  V30 10200 H 965.089 0.687617 -4.91514 0
M  V30 10201 H 960.345 -0.0611651 -6.11369 0
M  V30 10202 H 964.519 -0.605134 -6.93766 0
M  V30 10203 H 962.146 -0.985511 -7.53785 0
M  V30 10204 N 963.721 1.49897 0.486681 0
M  V30 10205 C 964.668 1.67619 1.58658 0
M  V30 10206 C 965.638 0.517537 1.57831 0
M  V30 10207 O 966.823 0.746272 1.756 0
M  V30 10208 C 963.963 1.762 2.96728 0
M  V30 10209 C 963.076 3.03465 3.07462 0
M  V30 10210 C 962.211 3.02937 4.36351 0
M  V30 10211 C 961.25 4.24721 4.4077 0
M  V30 10212 N 960.387 4.22021 5.61108 0
M  V30 10213 H 965.227 2.61528 1.42853 0
M  V30 10214 H 962.764 1.29657 0.694807 0
M  V30 10215 H 964.722 1.79156 3.76774 0
M  V30 10216 H 963.352 0.857452 3.11203 0
M  V30 10217 H 962.404 3.10054 2.20387 0
M  V30 10218 H 963.716 3.93454 3.06586 0
M  V30 10219 H 962.87 3.04536 5.24731 0
M  V30 10220 H 961.609 2.10751 4.39813 0
M  V30 10221 H 960.614 4.23352 3.5079 0
M  V30 10222 H 961.839 5.18116 4.39013 0
M  V30 10223 H 959.785 3.3268 5.65385 0
M  V30 10224 H 959.702 5.05761 5.61909 0
M  V30 10225 H 960.97 4.27743 6.51656 0
M  V30 10226 N 965.199 -0.738761 1.39212 0
M  V30 10227 C 966.147 -1.8741 1.3777 0
M  V30 10228 C 967.141 -1.67371 0.261375 0
M  V30 10229 O 968.347 -1.74759 0.431209 0
M  V30 10230 H 964.722 -0.616843 0.430126 0
M  V30 10231 H 966.693 -1.85742 2.33543 0
M  V30 10232 C 965.442 -3.25053 1.23433 0
M  V30 10233 H 964.765 -3.41066 2.086 0
M  V30 10234 H 966.205 -4.04696 1.2648 0
M  V30 10235 C 964.664 -3.36851 -0.0575624 0
M  V30 10236 O 965.194 -3.88293 -1.02915 0
M  V30 10237 N 963.4 -2.90355 -0.119364 0
M  V30 10238 H 962.947 -2.48681 0.671976 0
M  V30 10239 H 962.905 -2.98628 -0.983286 0
M  V30 10240 N 966.677 -1.24326 -0.968545 0
M  V30 10241 C 968.088 -1.07561 -1.52603 0
M  V30 10242 C 968.439 0.353245 -1.92994 0
M  V30 10243 O 967.564 1.24151 -1.77244 0
M  V30 10244 C 968.159 -1.94634 -2.77314 0
M  V30 10245 C 966.718 -1.82095 -3.29421 0
M  V30 10246 C 965.865 -1.8962 -2.02335 0
M  V30 10247 H 968.816 -1.37815 -0.786932 0
M  V30 10248 H 968.837 -1.47812 -3.50616 0
M  V30 10249 H 968.349 -2.98621 -2.47885 0
M  V30 10250 H 966.45 -0.809376 -3.63703 0
M  V30 10251 H 966.563 -2.66142 -3.98378 0
M  V30 10252 H 964.927 -1.33339 -2.17009 0
M  V30 10253 H 965.71 -2.95185 -1.75273 0
M  V30 10254 N 968.156 1.1691 -1.05688 0
M  V30 10255 C 969.066 2.24735 -0.67315 0
M  V30 10256 C 970.082 1.71252 0.308043 0
M  V30 10257 O 971.258 2.00772 0.158889 0
M  V30 10258 C 968.323 3.4665 -0.059026 0
M  V30 10259 C 967.384 4.15198 -1.0913 0
M  V30 10260 C 966.617 5.31292 -0.50639 0
M  V30 10261 O 966.84 5.663 0.682692 0
M  V30 10262 O 965.774 5.88923 -1.2431 0
M  V30 10263 H 969.6 2.59855 -1.57191 0
M  V30 10264 H 967.185 1.24306 -0.828751 0
M  V30 10265 H 969.067 4.20455 0.282018 0
M  V30 10266 H 967.742 3.13316 0.813304 0
M  V30 10267 H 966.649 3.43389 -1.48442 0
M  V30 10268 H 967.982 4.52571 -1.93495 0
M  V30 10269 N 969.634 0.838594 1.33437 0
M  V30 10270 C 971.045 0.490934 1.8013 0
M  V30 10271 C 971.396 -0.990024 1.6939 0
M  V30 10272 O 970.521 -1.77139 1.24302 0
M  V30 10273 C 971.116 0.884347 3.27055 0
M  V30 10274 C 969.675 0.588829 3.71766 0
M  V30 10275 C 968.822 1.09282 2.54858 0
M  V30 10276 H 971.773 1.02732 1.20962 0
M  V30 10277 H 971.794 0.194283 3.80004 0
M  V30 10278 H 971.306 1.96225 3.34839 0
M  V30 10279 H 969.407 -0.479018 3.69508 0
M  V30 10280 H 969.52 1.14387 4.65245 0
M  V30 10281 H 967.884 0.513702 2.49466 0
M  V30 10282 H 968.667 2.1775 2.65405 0
M  V30 10283 N 971.112 -1.45937 0.595003 0
M  V30 10284 C 972.022 -2.34221 -0.133325 0
M  V30 10285 C 973.038 -1.50491 -0.873407 0
M  V30 10286 O 974.214 -1.83328 -0.833828 0
M  V30 10287 C 971.279 -3.27896 -1.12628 0
M  V30 10288 C 970.34 -4.27529 -0.389532 0
M  V30 10289 C 969.573 -5.16729 -1.33519 0
M  V30 10290 O 969.796 -5.09102 -2.57238 0
M  V30 10291 O 968.73 -5.96023 -0.839084 0
M  V30 10292 H 972.556 -2.97877 0.591861 0
M  V30 10293 H 970.141 -1.45113 0.355329 0
M  V30 10294 H 972.023 -3.85654 -1.69851 0
M  V30 10295 H 970.698 -2.6682 -1.83272 0
M  V30 10296 H 969.605 -3.73424 0.224843 0
M  V30 10297 H 970.938 -4.91425 0.276169 0
M  V30 10298 N 972.59 -0.333456 -1.54032 0
M  V30 10299 C 973.52 0.52051 -2.27625 0
M  V30 10300 C 974.501 1.1111 -1.28797 0
M  V30 10301 O 975.686 1.13438 -1.57625 0
M  V30 10302 C 972.816 1.67663 -3.04149 0
M  V30 10303 C 971.77 1.21487 -4.10396 0
M  V30 10304 C 971.096 2.45872 -4.74817 0
M  V30 10305 C 972.396 0.322603 -5.21303 0
M  V30 10306 H 974.09 -0.0933823 -2.99254 0
M  V30 10307 H 971.636 -0.0463526 -1.43925 0
M  V30 10308 H 973.589 2.28041 -3.54366 0
M  V30 10309 H 972.313 2.31727 -2.30153 0
M  V30 10310 H 970.972 0.633966 -3.61077 0
M  V30 10311 H 970.62 3.0832 -3.97426 0
M  V30 10312 H 970.32 2.15662 -5.46593 0
M  V30 10313 H 971.844 3.06994 -5.27814 0
M  V30 10314 H 973.258 0.832942 -5.67217 0
M  V30 10315 H 971.655 0.112843 -5.99994 0
M  V30 10316 H 972.725 -0.643954 -4.80605 0
M  V30 10317 N 974.068 1.57479 -0.061844 0
M  V30 10318 C 974.998 2.15181 0.9066 0
M  V30 10319 C 975.979 1.07624 1.31724 0
M  V30 10320 O 977.164 1.35614 1.39006 0
M  V30 10321 C 974.294 2.70542 2.17771 0
M  V30 10322 C 973.248 3.83178 1.9068 0
M  V30 10323 C 972.574 4.25099 3.24337 0
M  V30 10324 C 973.874 5.07853 1.21994 0
M  V30 10325 H 975.568 2.96355 0.42594 0
M  V30 10326 H 973.114 1.42556 0.203435 0
M  V30 10327 H 975.067 3.09552 2.85929 0
M  V30 10328 H 973.791 1.86575 2.68062 0
M  V30 10329 H 972.45 3.44656 1.24931 0
M  V30 10330 H 972.098 3.38069 3.72449 0
M  V30 10331 H 971.798 5.01021 3.07005 0
M  V30 10332 H 973.322 4.66718 3.93709 0
M  V30 10333 H 974.736 5.44242 1.80204 0
M  V30 10334 H 973.133 5.88987 1.14954 0
M  V30 10335 H 974.203 4.84497 0.197536 0
M  V30 10336 N 975.546 -0.211634 1.56173 0
M  V30 10337 C 976.792 -0.935935 1.79911 0
M  V30 10338 C 977.125 -1.83589 0.633155 0
M  V30 10339 O 976.4 -1.91004 -0.367132 0
M  V30 10340 C 976.683 -1.76638 3.13801 0
M  V30 10341 C 976.536 -0.892259 4.40861 0
M  V30 10342 C 977.855 -2.74224 3.44223 0
M  V30 10343 H 974.974 -0.338822 0.654499 0
M  V30 10344 H 977.616 -0.20422 1.88899 0
M  V30 10345 H 975.766 -2.39021 3.0627 0
M  V30 10346 H 977.438 -0.284407 4.60422 0
M  V30 10347 H 975.681 -0.198145 4.33347 0
M  V30 10348 H 976.352 -1.50793 5.31004 0
M  V30 10349 H 978.828 -2.21975 3.51946 0
M  V30 10350 H 977.704 -3.29424 4.39057 0
M  V30 10351 H 977.965 -3.52455 2.66885 0
M  V30 10352 N 977.024 -1.50153 -0.478725 0
M  V30 10353 C 978.44 -1.3741 -0.811833 0
M  V30 10354 C 978.64 -0.424303 -1.96982 0
M  V30 10355 O 977.696 0.13588 -2.52134 0
M  V30 10356 C 979.009 -2.78616 -1.13108 0
M  V30 10357 C 980.557 -2.87477 -1.23798 0
M  V30 10358 C 981.032 -4.295 -1.5904 0
M  V30 10359 N 982.523 -4.32415 -1.66047 0
M  V30 10360 C 983.258 -5.39295 -1.94805 0
M  V30 10361 N 982.754 -6.56392 -2.21635 0
M  V30 10362 N 984.547 -5.26731 -1.96243 0
M  V30 10363 H 976.698 -2.10486 0.284531 0
M  V30 10364 H 978.961 -0.945786 0.0647585 0
M  V30 10365 H 978.667 -3.49921 -0.35334 0
M  V30 10366 H 978.541 -3.15382 -2.06915 0
M  V30 10367 H 980.928 -2.16396 -2.00641 0
M  V30 10368 H 981.009 -2.54264 -0.279888 0
M  V30 10369 H 980.653 -5.01115 -0.827404 0
M  V30 10370 H 980.583 -4.60194 -2.55987 0
M  V30 10371 H 983.074 -3.47975 -1.47383 0
M  V30 10372 H 983.387 -7.33658 -2.4283 0
M  V30 10373 H 981.732 -6.59579 -2.19043 0
M  V30 10374 H 984.923 -4.34249 -1.74773 0
M  V30 10375 H 985.096 -6.10115 -2.1832 0
M  V30 10376 N 978.502 0.731368 -1.39602 0
M  V30 10377 C 979.748 1.49211 -1.38231 0
M  V30 10378 C 980.103 1.92389 0.020747 0
M  V30 10379 O 979.396 1.64161 0.988014 0
M  V30 10380 C 979.59 2.74224 -2.29208 0
M  V30 10381 C 979.419 2.4327 -3.78219 0
M  V30 10382 C 978.189 2.35387 -4.47125 0
M  V30 10383 C 980.387 2.08574 -4.70108 0
M  V30 10384 N 978.369 1.96942 -5.81452 0
M  V30 10385 C 979.74 1.80603 -5.93113 0
M  V30 10386 C 981.795 1.95074 -4.58095 0
M  V30 10387 C 980.498 1.40491 -7.05447 0
M  V30 10388 C 982.524 1.56365 -5.70354 0
M  V30 10389 C 981.886 1.29281 -6.92435 0
M  V30 10390 H 977.985 0.544703 -0.56109 0
M  V30 10391 H 980.569 0.849647 -1.75183 0
M  V30 10392 H 978.74 3.36244 -1.94408 0
M  V30 10393 H 980.472 3.40451 -2.18803 0
M  V30 10394 H 977.227 2.52604 -4.0061 0
M  V30 10395 H 977.651 1.80303 -6.52549 0
M  V30 10396 H 982.293 2.1468 -3.64242 0
M  V30 10397 H 980.011 1.19626 -7.99197 0
M  V30 10398 H 983.597 1.4652 -5.63048 0
M  V30 10399 H 982.477 0.997769 -7.77827 0
M  V30 10400 N 979.98 1.24838 0.961938 0
M  V30 10401 C 981.21 1.11709 1.73795 0
M  V30 10402 C 981.618 -0.33263 1.86253 0
M  V30 10403 O 980.961 -1.24101 1.35443 0
M  V30 10404 C 981.023 1.68959 3.17322 0
M  V30 10405 C 980.687 3.17895 3.28316 0
M  V30 10406 C 981.684 4.14975 3.13196 0
M  V30 10407 C 979.369 3.57966 3.52372 0
M  V30 10408 C 981.363 5.50107 3.21965 0
M  V30 10409 C 979.05 4.93237 3.60778 0
M  V30 10410 C 980.048 5.89116 3.45588 0
M  V30 10411 O 979.736 7.21927 3.53662 0
M  V30 10412 H 979.468 0.390726 0.551642 0
M  V30 10413 H 982.022 1.65541 1.21594 0
M  V30 10414 H 980.252 1.09567 3.70853 0
M  V30 10415 H 981.941 1.51036 3.76753 0
M  V30 10416 H 982.707 3.85359 2.94489 0
M  V30 10417 H 978.586 2.83837 3.63259 0
M  V30 10418 H 982.13 6.24924 3.10025 0
M  V30 10419 H 978.027 5.22522 3.79 0
M  V30 10420 H 978.795 7.29925 3.7034 0
M  V30 10421 N 981.458 -1.16348 1.06306 0
M  V30 10422 C 982.39 -2.20316 0.631929 0
M  V30 10423 C 983.403 -1.59819 -0.310133 0
M  V30 10424 O 984.592 -1.78213 -0.101103 0
M  V30 10425 C 981.692 -3.3877 -0.0937645 0
M  V30 10426 C 980.865 -4.28826 0.861816 0
M  V30 10427 C 979.924 -5.25908 0.175346 0
M  V30 10428 O 978.95 -5.63363 0.813039 0
M  V30 10429 N 980.152 -5.70307 -1.08305 0
M  V30 10430 H 982.917 -2.57925 1.52626 0
M  V30 10431 H 980.478 -1.31358 0.946392 0
M  V30 10432 H 982.47 -4.00759 -0.563412 0
M  V30 10433 H 981.04 -2.99666 -0.889904 0
M  V30 10434 H 980.26 -3.64098 1.51083 0
M  V30 10435 H 981.548 -4.85875 1.51007 0
M  V30 10436 H 980.946 -5.4197 -1.62127 0
M  V30 10437 H 979.503 -6.34387 -1.49656 0
M  V30 10438 N 982.937 -0.845659 -1.3299 0
M  V30 10439 C 983.87 -0.228695 -2.27051 0
M  V30 10440 C 984.848 0.62812 -1.49978 0
M  V30 10441 O 986.032 0.586897 -1.79131 0
M  V30 10442 C 983.159 0.678251 -3.31839 0
M  V30 10443 C 982.205 -0.103994 -4.26373 0
M  V30 10444 S 983.038 -1.46642 -5.1503 0
M  V30 10445 C 984.194 -0.564953 -6.23345 0
M  V30 10446 H 984.427 -1.02609 -2.79032 0
M  V30 10447 H 981.96 -0.642786 -1.40384 0
M  V30 10448 H 983.918 1.1959 -3.92694 0
M  V30 10449 H 982.579 1.44937 -2.78661 0
M  V30 10450 H 981.772 0.586406 -5.00577 0
M  V30 10451 H 981.374 -0.552927 -3.6989 0
M  V30 10452 H 983.666 0.234466 -6.77094 0
M  V30 10453 H 984.609 -1.27736 -6.96483 0
M  V30 10454 H 985.017 -0.143286 -5.64318 0
M  V30 10455 N 984.415 1.45619 -0.602734 0
M  V30 10456 C 985.663 2.01873 -0.095844 0
M  V30 10457 C 985.984 1.47427 1.27633 0
M  V30 10458 O 985.254 0.666652 1.84208 0
M  V30 10459 H 983.834 0.746295 -0.0324408 0
M  V30 10460 H 986.496 1.78478 -0.783037 0
M  V30 10461 H 985.592 3.12072 -0.0419507 0
M  V30 10462 N 985.893 0.34162 1.53853 0
M  V30 10463 C 986.856 -0.503541 2.236 0
M  V30 10464 C 987.856 -1.02912 1.23554 0
M  V30 10465 O 989.046 -0.918678 1.48007 0
M  V30 10466 C 986.178 -1.70126 2.95415 0
M  V30 10467 H 987.371 0.106437 2.99711 0
M  V30 10468 H 984.924 0.0929408 1.56023 0
M  V30 10469 H 985.659 -2.34999 2.23486 0
M  V30 10470 H 985.444 -1.33161 3.68796 0
M  V30 10471 H 986.934 -2.30077 3.48503 0
M  V30 10472 N 987.371 -1.57444 0.0701946 0
M  V30 10473 C 988.601 -1.97467 -0.607476 0
M  V30 10474 C 989.009 -0.947232 -1.63781 0
M  V30 10475 O 988.352 0.074652 -1.83548 0
M  V30 10476 C 988.414 -3.33795 -1.33495 0
M  V30 10477 C 988.078 -4.54697 -0.458265 0
M  V30 10478 C 989.075 -5.19127 0.283488 0
M  V30 10479 C 986.76 -5.00833 -0.383612 0
M  V30 10480 C 988.754 -6.28043 1.08813 0
M  V30 10481 C 986.441 -6.09622 0.424705 0
M  V30 10482 C 987.439 -6.7309 1.15925 0
M  V30 10483 O 987.127 -7.79785 1.95423 0
M  V30 10484 H 986.859 -0.654405 -0.169501 0
M  V30 10485 H 989.413 -2.04931 0.138651 0
M  V30 10486 H 987.643 -3.22941 -2.12711 0
M  V30 10487 H 989.332 -3.58435 -1.9047 0
M  V30 10488 H 990.098 -4.84428 0.235397 0
M  V30 10489 H 985.977 -4.51211 -0.944968 0
M  V30 10490 H 989.521 -6.77513 1.66197 0
M  V30 10491 H 985.418 -6.43755 0.474366 0
M  V30 10492 H 986.186 -7.96655 1.87838 0
M  V30 10493 N 988.849 0.203349 -1.56283 0
M  V30 10494 C 989.781 1.27592 -1.90402 0
M  V30 10495 C 990.794 1.4213 -0.79391 0
M  V30 10496 O 991.983 1.42703 -1.07229 0
M  V30 10497 C 989.083 2.64919 -2.11356 0
M  V30 10498 C 988.256 2.72095 -3.42466 0
M  V30 10499 C 987.315 3.9056 -3.52631 0
M  V30 10500 O 986.341 3.78048 -4.25521 0
M  V30 10501 N 987.543 5.0566 -2.85111 0
M  V30 10502 H 990.308 0.986423 -2.83001 0
M  V30 10503 H 987.869 0.39331 -1.5705 0
M  V30 10504 H 989.861 3.42581 -2.15453 0
M  V30 10505 H 988.431 2.86391 -1.25295 0
M  V30 10506 H 987.651 1.8077 -3.50308 0
M  V30 10507 H 988.939 2.73874 -4.28801 0
M  V30 10508 H 988.337 5.18723 -2.25705 0
M  V30 10509 H 986.894 5.81299 -2.94847 0
M  V30 10510 N 990.327 1.50405 0.470755 0
M  V30 10511 C 991.738 1.54266 1.05162 0
M  V30 10512 C 992.089 0.346359 1.93119 0
M  V30 10513 O 991.214 -0.540699 2.09536 0
M  V30 10514 C 991.809 2.7956 1.91394 0
M  V30 10515 C 990.368 2.86101 2.44588 0
M  V30 10516 C 989.515 2.48557 1.22941 0
M  V30 10517 H 992.466 1.56665 0.253359 0
M  V30 10518 H 992.487 2.61434 2.76464 0
M  V30 10519 H 991.999 3.66611 1.27351 0
M  V30 10520 H 990.1 2.03403 3.12183 0
M  V30 10521 H 990.213 3.88999 2.79672 0
M  V30 10522 H 988.577 2.01003 1.56429 0
M  V30 10523 H 989.36 3.37916 0.605598 0
M  V30 10524 N 991.805 -0.723954 1.39988 0
M  V30 10525 C 993.052 -1.48371 1.37812 0
M  V30 10526 C 993.38 -1.94487 -0.0223285 0
M  V30 10527 O 992.635 -1.67906 -1.00529 0
M  V30 10528 C 992.934 -2.73004 2.30659 0
M  V30 10529 C 992.6 -2.45698 3.78078 0
M  V30 10530 C 991.262 -2.37961 4.18244 0
M  V30 10531 C 993.614 -2.22601 4.71273 0
M  V30 10532 C 990.942 -2.05183 5.49652 0
M  V30 10533 C 993.294 -1.91339 6.0297 0
M  V30 10534 C 991.958 -1.82078 6.42187 0
M  V30 10535 H 991.228 -0.542929 0.504291 0
M  V30 10536 H 993.875 -0.829986 1.72579 0
M  V30 10537 H 992.18 -3.43174 1.89048 0
M  V30 10538 H 993.877 -3.31068 2.26263 0
M  V30 10539 H 990.467 -2.52603 3.46251 0
M  V30 10540 H 994.651 -2.2754 4.41066 0
M  V30 10541 H 989.907 -1.96544 5.78948 0
M  V30 10542 H 994.081 -1.72479 6.74703 0
M  V30 10543 H 991.708 -1.56446 7.43928 0
M  V30 10544 N 993.283 -1.25346 -0.955304 0
M  V30 10545 C 994.53 -1.10055 -1.69983 0
M  V30 10546 C 994.858 0.358586 -1.91166 0
M  V30 10547 O 994.113 1.28071 -1.47974 0
M  V30 10548 C 994.412 -1.7993 -3.08804 0
M  V30 10549 C 994.078 -3.29851 -3.07424 0
M  V30 10550 C 992.74 -3.7075 -3.06754 0
M  V30 10551 C 995.092 -4.25636 -3.00805 0
M  V30 10552 C 992.42 -5.05847 -2.97214 0
M  V30 10553 C 994.772 -5.60756 -2.92806 0
M  V30 10554 C 993.436 -6.00984 -2.90472 0
M  V30 10555 H 992.706 -0.402718 -0.622012 0
M  V30 10556 H 995.353 -1.5561 -1.11614 0
M  V30 10557 H 993.658 -1.26803 -3.70713 0
M  V30 10558 H 995.355 -1.65551 -3.65231 0
M  V30 10559 H 991.945 -2.97308 -3.08716 0
M  V30 10560 H 996.129 -3.9503 -3.00441 0
M  V30 10561 H 991.385 -5.36196 -2.93775 0
M  V30 10562 H 995.559 -6.34671 -2.86645 0
M  V30 10563 H 993.186 -7.05626 -2.82835 0
M  V30 10564 N 994.761 1.15782 -1.06922 0
M  V30 10565 C 996.177 1.38454 -0.793896 0
M  V30 10566 C 996.377 1.92238 0.603875 0
M  V30 10567 O 995.433 2.1253 1.36335 0
M  V30 10568 C 996.746 2.3595 -1.86408 0
M  V30 10569 C 998.294 2.49622 -1.88833 0
M  V30 10570 C 998.769 3.50406 -2.94923 0
M  V30 10571 N 1000.26 3.57938 -2.93997 0
M  V30 10572 C 1001 4.35728 -3.72731 0
M  V30 10573 N 1000.49 5.16888 -4.61301 0
M  V30 10574 N 1002.28 4.30774 -3.61096 0
M  V30 10575 H 994.435 0.792101 -1.97077 0
M  V30 10576 H 996.698 0.410779 -0.85438 0
M  V30 10577 H 996.404 2.03537 -2.86819 0
M  V30 10578 H 996.278 3.35677 -1.72049 0
M  V30 10579 H 998.665 2.81335 -0.890759 0
M  V30 10580 H 998.746 1.49909 -2.0727 0
M  V30 10581 H 998.39 3.19429 -3.94877 0
M  V30 10582 H 998.32 4.49864 -2.73734 0
M  V30 10583 H 1000.81 3.00007 -2.29791 0
M  V30 10584 H 1001.12 5.73477 -5.18019 0
M  V30 10585 H 999.469 5.16209 -4.65353 0
M  V30 10586 H 1002.66 3.66432 -2.91282 0
M  V30 10587 H 1002.83 4.91151 -4.22699 0
M  V30 10588 N 996.239 0.8527 1.3254 0
M  V30 10589 C 997.202 0.300959 2.27215 0
M  V30 10590 C 998.202 -0.538235 1.51525 0
M  V30 10591 O 999.392 -0.350027 1.70647 0
M  V30 10592 C 996.524 -0.574428 3.36025 0
M  V30 10593 H 997.717 1.13655 2.77529 0
M  V30 10594 H 995.27 0.626878 1.43178 0
M  V30 10595 H 996.005 -1.43191 2.90976 0
M  V30 10596 H 995.79 0.0262265 3.92091 0
M  V30 10597 H 997.28 -0.9533 4.06573 0
M  V30 10598 N 997.718 -1.45297 0.610449 0
M  V30 10599 C 998.668 -2.27639 -0.128194 0
M  V30 10600 C 999.652 -1.37485 -0.835861 0
M  V30 10601 O 1000.84 -1.61454 -0.725378 0
M  V30 10602 C 997.973 -3.24413 -1.123 0
M  V30 10603 C 997.059 -4.22055 -0.416029 0
M  V30 10604 N 997.45 -5.02867 0.543921 0
M  V30 10605 C 995.748 -4.41041 -0.663208 0
M  V30 10606 C 996.449 -5.73728 0.959731 0
M  V30 10607 N 995.425 -5.42756 0.302873 0
M  V30 10608 H 999.227 -2.8752 0.609056 0
M  V30 10609 H 996.741 -1.56484 0.434338 0
M  V30 10610 H 998.738 -3.82139 -1.6666 0
M  V30 10611 H 997.398 -2.66092 -1.86078 0
M  V30 10612 H 998.409 -5.09649 0.920799 0
M  V30 10613 H 995.086 -3.93842 -1.38544 0
M  V30 10614 H 996.476 -6.48666 1.75163 0
M  V30 10615 N 999.196 -0.349774 -1.5367 0
M  V30 10616 C 1000.16 0.491676 -2.23864 0
M  V30 10617 C 1001.16 1.02256 -1.24098 0
M  V30 10618 O 1002.35 0.910816 -1.48492 0
M  V30 10619 C 999.481 1.68557 -2.96313 0
M  V30 10620 H 1000.67 -0.12233 -2.9965 0
M  V30 10621 H 998.227 -0.101214 -1.55972 0
M  V30 10622 H 998.962 2.3381 -2.2473 0
M  V30 10623 H 998.747 1.31203 -3.69497 0
M  V30 10624 H 1000.24 2.28225 -3.49718 0
M  V30 10625 N 1000.67 1.57404 -0.0785433 0
M  V30 10626 C 1001.62 2.09632 0.896565 0
M  V30 10627 C 1002.61 1.00754 1.25449 0
M  V30 10628 O 1003.8 1.27053 1.23234 0
M  V30 10629 C 1000.93 2.66694 2.16169 0
M  V30 10630 C 1000.01 3.82588 1.82994 0
M  V30 10631 N 1000.41 4.91286 1.203 0
M  V30 10632 C 998.704 3.92011 2.12704 0
M  V30 10633 C 999.405 5.72077 1.05367 0
M  V30 10634 N 998.381 5.20567 1.56559 0
M  V30 10635 H 1002.18 2.9106 0.407621 0
M  V30 10636 H 999.697 1.61917 0.125155 0
M  V30 10637 H 1001.69 3.0243 2.86952 0
M  V30 10638 H 1000.35 1.86716 2.65645 0
M  V30 10639 H 1001.36 5.10509 0.871817 0
M  V30 10640 H 998.042 3.23018 2.6451 0
M  V30 10641 H 999.432 6.69523 0.564685 0
M  V30 10642 N 1002.15 -0.195058 1.56388 0
M  V30 10643 C 1003.08 -1.24444 1.97575 0
M  V30 10644 C 1004.06 -1.47471 0.847717 0
M  V30 10645 O 1005.25 -1.59208 1.11205 0
M  V30 10646 C 1002.38 -2.58866 2.31529 0
M  V30 10647 C 1001.33 -2.50451 3.47071 0
M  V30 10648 C 1000.66 -3.89146 3.667 0
M  V30 10649 C 1001.96 -2.02953 4.81256 0
M  V30 10650 H 1003.65 -0.902178 2.85484 0
M  V30 10651 H 1001.2 -0.43254 1.3735 0
M  V30 10652 H 1003.15 -3.3246 2.58936 0
M  V30 10653 H 1001.87 -2.94833 1.40502 0
M  V30 10654 H 1000.53 -1.79313 3.19754 0
M  V30 10655 H 1000.18 -4.22466 2.73004 0
M  V30 10656 H 999.882 -3.84391 4.44429 0
M  V30 10657 H 1001.41 -4.64363 3.96484 0
M  V30 10658 H 1002.82 -2.66306 5.07695 0
M  V30 10659 H 1001.22 -2.092 5.62455 0
M  V30 10660 H 1002.29 -0.982757 4.74837 0
M  V30 10661 N 1003.63 -1.50653 -0.462772 0
M  V30 10662 C 1004.91 -1.5258 -1.22387 0
M  V30 10663 C 1005.29 -0.275263 -2.09298 0
M  V30 10664 O 1004.63 0.740943 -2.16153 0
M  V30 10665 C 1004.84 -2.82611 -2.04773 0
M  V30 10666 C 1006.19 -3.33592 -2.62681 0
M  V30 10667 O 1007.22 -2.83989 -2.15008 0
M  V30 10668 O 1006.08 -4.20081 -3.49563 0
M  V30 10669 H 1003.17 -0.612367 -0.55582 0
M  V30 10670 H 1005.72 -1.62948 -0.473914 0
M  V30 10671 H 1004.49 -3.65098 -1.40781 0
M  V30 10672 H 1004.11 -2.75286 -2.86886 0
M  V30 10673 N 1005.11 0.71652 -1.4037 0
M  V30 10674 C 1006.34 1.50563 -1.4191 0
M  V30 10675 C 1006.75 1.88791 -0.0185456 0
M  V30 10676 O 1006.11 1.55378 0.957289 0
M  V30 10677 C 1006.16 2.78155 -2.30894 0
M  V30 10678 O 1005.88 2.41543 -3.65497 0
M  V30 10679 C 1007.38 3.72057 -2.41016 0
M  V30 10680 H 1004.6 0.464679 -0.48406 0
M  V30 10681 H 1007.15 0.883927 -1.8441 0
M  V30 10682 H 1005.3 3.36611 -1.91759 0
M  V30 10683 H 1005.71 3.23636 -4.12747 0
M  V30 10684 H 1007.19 4.58426 -3.07489 0
M  V30 10685 H 1007.67 4.15098 -1.43492 0
M  V30 10686 H 1008.27 3.19512 -2.80699 0
M  V30 10687 N 1006.59 1.25851 0.948643 0
M  V30 10688 C 1007.83 1.10735 1.69062 0
M  V30 10689 C 1008.16 -0.351257 1.9181 0
M  V30 10690 O 1007.43 -1.24867 1.50947 0
M  V30 10691 H 1006.01 0.406796 0.626519 0
M  V30 10692 H 1008.67 1.58066 1.14022 0
M  V30 10693 H 1007.76 1.62033 2.66743 0
M  V30 10694 N 1008.06 -1.15214 1.07534 0
M  V30 10695 C 1009.48 -1.38031 0.801228 0
M  V30 10696 C 1009.68 -1.92556 -0.593672 0
M  V30 10697 O 1008.74 -2.1325 -1.35206 0
M  V30 10698 C 1010.05 -2.34958 1.87657 0
M  V30 10699 C 1011.6 -2.48617 1.90154 0
M  V30 10700 C 1012.07 -3.48837 2.96777 0
M  V30 10701 N 1013.56 -3.56374 2.95892 0
M  V30 10702 C 1014.3 -4.33746 3.75036 0
M  V30 10703 N 1013.79 -5.14435 4.64036 0
M  V30 10704 N 1015.59 -4.28853 3.63375 0
M  V30 10705 H 1007.74 -0.781639 1.97495 0
M  V30 10706 H 1010 -0.406243 0.856546 0
M  V30 10707 H 1009.71 -2.02013 2.87895 0
M  V30 10708 H 1009.58 -3.3476 1.73827 0
M  V30 10709 H 1011.97 -2.80859 0.905666 0
M  V30 10710 H 1012.05 -1.48808 2.08062 0
M  V30 10711 H 1011.69 -3.1733 3.96565 0
M  V30 10712 H 1011.62 -4.48406 2.76116 0
M  V30 10713 H 1014.11 -2.98784 2.31379 0
M  V30 10714 H 1014.43 -5.70722 5.21053 0
M  V30 10715 H 1012.77 -5.13734 4.68084 0
M  V30 10716 H 1015.96 -3.64882 2.93221 0
M  V30 10717 H 1016.14 -4.88903 4.25298 0
M  V30 10718 N 1009.54 -0.859717 -1.32086 0
M  V30 10719 C 1010.96 -0.55025 -1.49815 0
M  V30 10720 C 1011.16 0.917966 -1.79376 0
M  V30 10721 O 1010.21 1.70073 -1.86632 0
M  V30 10722 C 1011.53 -1.44161 -2.6389 0
M  V30 10723 C 1013.08 -1.44257 -2.77775 0
M  V30 10724 C 1013.55 -2.31926 -3.94936 0
M  V30 10725 N 1015.04 -2.2975 -4.02206 0
M  V30 10726 C 1015.78 -2.9431 -4.92107 0
M  V30 10727 N 1015.27 -3.68001 -5.86981 0
M  V30 10728 N 1017.07 -2.83671 -4.8527 0
M  V30 10729 H 1009.22 -1.80987 -1.11164 0
M  V30 10730 H 1011.48 -0.773313 -0.548353 0
M  V30 10731 H 1011.19 -2.48588 -2.4879 0
M  V30 10732 H 1011.06 -1.13268 -3.59792 0
M  V30 10733 H 1013.45 -0.405923 -2.92295 0
M  V30 10734 H 1013.53 -1.79169 -1.82571 0
M  V30 10735 H 1013.17 -3.35661 -3.81174 0
M  V30 10736 H 1013.1 -1.94344 -4.89426 0
M  V30 10737 H 1015.59 -1.76177 -3.3432 0
M  V30 10738 H 1015.91 -4.14417 -6.52287 0
M  V30 10739 H 1014.25 -3.72109 -5.86992 0
M  V30 10740 H 1017.44 -2.25647 -4.10123 0
M  V30 10741 H 1017.61 -3.34267 -5.5513 0
M  V30 10742 N 1011.02 1.44971 -0.618145 0
M  V30 10743 C 1011.93 2.34403 0.0960457 0
M  V30 10744 C 1012.95 1.51862 0.849355 0
M  V30 10745 O 1014.12 1.84632 0.804557 0
M  V30 10746 C 1011.19 3.29646 1.07397 0
M  V30 10747 C 1010.25 4.28095 0.321466 0
M  V30 10748 C 1009.48 5.18787 1.25281 0
M  V30 10749 O 1009.7 5.1313 2.49106 0
M  V30 10750 O 1008.64 5.97282 0.744156 0
M  V30 10751 H 1012.46 2.96898 -0.639176 0
M  V30 10752 H 1010.05 1.44529 -0.37837 0
M  V30 10753 H 1011.93 3.88307 1.63694 0
M  V30 10754 H 1010.61 2.69702 1.79004 0
M  V30 10755 H 1009.51 3.73019 -0.284223 0
M  V30 10756 H 1010.85 4.90923 -0.354315 0
M  V30 10757 N 1012.5 0.357919 1.53482 0
M  V30 10758 C 1013.91 -0.122938 1.86295 0
M  V30 10759 C 1014.26 -1.48803 1.27875 0
M  V30 10760 O 1013.39 -2.07978 0.597828 0
M  V30 10761 C 1013.98 -0.229853 3.38019 0
M  V30 10762 C 1012.54 -0.654955 3.70658 0
M  V30 10763 C 1011.69 0.202539 2.76559 0
M  V30 10764 H 1014.64 0.576997 1.47839 0
M  V30 10765 H 1014.66 -1.05481 3.65587 0
M  V30 10766 H 1014.17 0.763825 3.80509 0
M  V30 10767 H 1012.27 -1.65714 3.33721 0
M  V30 10768 H 1012.38 -0.43488 4.77122 0
M  V30 10769 H 1010.75 -0.327388 2.52587 0
M  V30 10770 H 1011.53 1.19361 3.21882 0
M  V30 10771 N 1013.98 -1.5736 0.0868897 0
M  V30 10772 C 1015.22 -1.95147 -0.573512 0
M  V30 10773 C 1015.58 -0.967591 -1.66299 0
M  V30 10774 O 1014.87 0.00774571 -1.91598 0
M  V30 10775 C 1015.06 -3.37316 -1.18123 0
M  V30 10776 C 1014.89 -4.49443 -0.152145 0
M  V30 10777 C 1013.66 -5.04586 0.268496 0
M  V30 10778 C 1015.86 -5.10592 0.616502 0
M  V30 10779 N 1013.84 -6.00264 1.28671 0
M  V30 10780 C 1015.21 -6.0191 1.48677 0
M  V30 10781 C 1017.27 -4.93359 0.67092 0
M  V30 10782 C 1015.97 -6.77844 2.40664 0
M  V30 10783 C 1018 -5.69949 1.57837 0
M  V30 10784 C 1017.36 -6.60927 2.43628 0
M  V30 10785 H 1013.46 -0.760898 -0.180439 0
M  V30 10786 H 1016.04 -1.93978 0.167548 0
M  V30 10787 H 1014.21 -3.39194 -1.89214 0
M  V30 10788 H 1015.95 -3.62301 -1.80332 0
M  V30 10789 H 1012.7 -4.73454 -0.117625 0
M  V30 10790 H 1013.13 -6.52804 1.79377 0
M  V30 10791 H 1017.77 -4.22794 0.0218207 0
M  V30 10792 H 1015.49 -7.47677 3.06603 0
M  V30 10793 H 1019.07 -5.58631 1.6255 0
M  V30 10794 H 1017.95 -7.19156 3.12705 0
M  V30 10795 N 1015.45 0.186762 -1.56489 0
M  V30 10796 C 1016.38 1.23395 -1.98232 0
M  V30 10797 C 1017.37 1.4702 -0.855526 0
M  V30 10798 O 1018.55 1.58616 -1.12048 0
M  V30 10799 C 1015.68 2.57635 -2.32898 0
M  V30 10800 C 1014.63 2.48607 -3.48394 0
M  V30 10801 C 1013.96 3.87196 -3.68759 0
M  V30 10802 C 1015.26 2.00398 -4.82325 0
M  V30 10803 H 1016.95 0.887026 -2.85958 0
M  V30 10804 H 1014.5 0.42525 -1.37578 0
M  V30 10805 H 1016.45 3.31082 -2.60696 0
M  V30 10806 H 1015.18 2.94084 -1.42064 0
M  V30 10807 H 1013.84 1.77615 -3.207 0
M  V30 10808 H 1013.48 4.21012 -2.75241 0
M  V30 10809 H 1013.18 3.82029 -4.46462 0
M  V30 10810 H 1014.71 4.62253 -3.98941 0
M  V30 10811 H 1016.12 2.6361 -5.091 0
M  V30 10812 H 1014.52 2.06214 -5.63556 0
M  V30 10813 H 1015.59 0.957562 -4.75351 0
M  V30 10814 N 1016.93 1.50896 0.454776 0
M  V30 10815 C 1017.86 1.73885 1.5584 0
M  V30 10816 C 1018.84 0.588172 1.59607 0
M  V30 10817 O 1020.03 0.829054 1.75614 0
M  V30 10818 C 1017.16 1.84796 2.94054 0
M  V30 10819 C 1016.11 3.00111 3.05152 0
M  V30 10820 C 1015.44 2.96183 4.45174 0
M  V30 10821 C 1016.74 4.40365 2.80849 0
M  V30 10822 H 1018.43 2.66292 1.36854 0
M  V30 10823 H 1015.98 1.28142 0.656936 0
M  V30 10824 H 1017.93 1.99462 3.71204 0
M  V30 10825 H 1016.66 0.890235 3.14233 0
M  V30 10826 H 1015.31 2.85121 2.30438 0
M  V30 10827 H 1014.96 1.98224 4.62295 0
M  V30 10828 H 1014.66 3.73608 4.53532 0
M  V30 10829 H 1016.19 3.1292 5.24322 0
M  V30 10830 H 1017.6 4.55795 3.47741 0
M  V30 10831 H 1016 5.19363 3.00636 0
M  V30 10832 H 1017.07 4.51606 1.76579 0
M  V30 10833 N 1018.41 -0.709066 1.40748 0
M  V30 10834 C 1019.82 -1.28847 1.35112 0
M  V30 10835 C 1020.17 -1.9618 0.0277149 0
M  V30 10836 O 1019.3 -1.97955 -0.874233 0
M  V30 10837 C 1019.89 -2.34306 2.44716 0
M  V30 10838 C 1018.45 -2.87856 2.4252 0
M  V30 10839 C 1017.6 -1.61723 2.25257 0
M  V30 10840 H 1020.55 -0.504742 1.50459 0
M  V30 10841 H 1020.57 -3.15297 2.12998 0
M  V30 10842 H 1020.08 -1.85271 3.41022 0
M  V30 10843 H 1018.18 -3.41103 1.49931 0
M  V30 10844 H 1018.3 -3.39205 3.38344 0
M  V30 10845 H 1016.66 -1.87032 1.7289 0
M  V30 10846 H 1017.44 -1.14703 3.23571 0
M  V30 10847 N 1019.89 -1.26353 -0.941956 0
M  V30 10848 C 1021.11 -1.14731 -1.72776 0
M  V30 10849 C 1021.54 0.293766 -1.85792 0
M  V30 10850 O 1020.9 1.21284 -1.34759 0
M  V30 10851 C 1020.95 -1.82041 -3.11277 0
M  V30 10852 O 1020.05 -1.10867 -3.97218 0
M  V30 10853 H 1019.39 -0.399823 -0.53013 0
M  V30 10854 H 1021.92 -1.67157 -1.17981 0
M  V30 10855 H 1021.93 -1.88834 -3.61671 0
M  V30 10856 H 1020.61 -2.86879 -3.0112 0
M  V30 10857 H 1019.18 -1.12044 -3.55669 0
M  V30 10858 N 1021.37 1.14642 -1.08144 0
M  V30 10859 C 1022.3 2.19283 -0.6669 0
M  V30 10860 C 1023.31 1.60292 0.284668 0
M  V30 10861 O 1024.5 1.78352 0.0727383 0
M  V30 10862 C 1021.6 3.38877 0.0398572 0
M  V30 10863 C 1020.77 4.274 -0.929929 0
M  V30 10864 C 1019.83 5.25562 -0.258991 0
M  V30 10865 O 1018.86 5.61999 -0.902563 0
M  V30 10866 N 1020.06 5.71958 0.992177 0
M  V30 10867 H 1022.83 2.55464 -1.5671 0
M  V30 10868 H 1020.39 1.29836 -0.96717 0
M  V30 10869 H 1022.38 4.01605 0.499583 0
M  V30 10870 H 1020.95 3.01043 0.842118 0
M  V30 10871 H 1020.17 3.61649 -1.56857 0
M  V30 10872 H 1021.46 4.83411 -1.58717 0
M  V30 10873 H 1020.86 5.44481 1.53484 0
M  V30 10874 H 1019.41 6.36687 1.39544 0
M  V30 10875 N 1022.85 0.866709 1.31628 0
M  V30 10876 C 1023.8 0.291712 2.26126 0
M  V30 10877 C 1024.78 -0.569375 1.50489 0
M  V30 10878 O 1025.97 -0.416786 1.72023 0
M  V30 10879 C 1023.1 -0.508624 3.39511 0
M  V30 10880 C 1022.19 0.365524 4.22522 0
M  V30 10881 N 1022.58 1.45747 4.84346 0
M  V30 10882 C 1020.88 0.157384 4.45722 0
M  V30 10883 C 1021.58 1.99625 5.46374 0
M  V30 10884 N 1020.55 1.29371 5.27981 0
M  V30 10885 H 1024.35 1.12633 2.71461 0
M  V30 10886 H 1021.87 0.714118 1.45857 0
M  V30 10887 H 1023.87 -0.937057 4.06233 0
M  V30 10888 H 1022.53 -1.34089 2.9572 0
M  V30 10889 H 1023.54 1.84039 4.84097 0
M  V30 10890 H 1020.21 -0.639193 4.12578 0
M  V30 10891 H 1021.6 2.91222 6.05508 0
M  V30 10892 N 1024.32 -1.44642 0.625825 0
M  V30 10893 C 1025.27 -2.32408 -0.0945221 0
M  V30 10894 C 1026.27 -1.47038 -0.841198 0
M  V30 10895 O 1027.47 -1.63415 -0.754698 0
M  V30 10896 H 1023.85 -0.75038 -0.0493321 0
M  V30 10897 H 1025.82 -2.90922 0.663863 0
M  V30 10898 C 1024.57 -3.30951 -1.06615 0
M  V30 10899 H 1023.89 -3.96648 -0.501021 0
M  V30 10900 H 1025.33 -3.95054 -1.53976 0
M  V30 10901 C 1023.79 -2.59479 -2.14877 0
M  V30 10902 O 1024.32 -2.38974 -3.22885 0
M  V30 10903 N 1022.52 -2.19307 -1.90665 0
M  V30 10904 H 1022.07 -2.36184 -1.02835 0
M  V30 10905 H 1022.03 -1.71811 -2.63303 0
M  V30 10906 N 1025.8 -0.366053 -1.5329 0
M  V30 10907 C 1027.08 0.279902 -1.93587 0
M  V30 10908 C 1027.46 1.66352 -1.29963 0
M  V30 10909 O 1026.81 2.23845 -0.458895 0
M  V30 10910 C 1027.02 0.329634 -3.4744 0
M  V30 10911 C 1028.36 0.569754 -4.2076 0
M  V30 10912 O 1029.39 0.410823 -3.53823 0
M  V30 10913 O 1028.25 0.879262 -5.3938 0
M  V30 10914 H 1025.34 0.16802 -0.809752 0
M  V30 10915 H 1027.89 -0.418871 -1.64449 0
M  V30 10916 H 1026.66 -0.640434 -3.86023 0
M  V30 10917 H 1026.28 1.07428 -3.82812 0
M  V30 10918 N 1027.28 1.57312 -0.0952337 0
M  V30 10919 C 1028.53 1.93533 0.568131 0
M  V30 10920 C 1028.84 0.979121 1.6933 0
M  V30 10921 O 1030.05 1.23506 2.41782 0
M  V30 10922 C 1028.5 3.43875 1.06198 0
M  V30 10923 C 1028.11 4.47988 -0.0334397 0
M  V30 10924 C 1029.86 3.89057 1.69807 0
M  V30 10925 C 1027.76 5.89483 0.475774 0
M  V30 10926 H 1026.69 0.7224 0.215995 0
M  V30 10927 H 1029.34 1.82699 -0.171257 0
M  V30 10928 H 1027.73 3.49862 1.85506 0
M  V30 10929 H 1028.9 4.53644 -0.808934 0
M  V30 10930 H 1027.21 4.12415 -0.574725 0
M  V30 10931 H 1029.81 4.92171 2.08978 0
M  V30 10932 H 1030.15 3.27713 2.5673 0
M  V30 10933 H 1030.69 3.85772 0.970815 0
M  V30 10934 H 1027.43 6.54528 -0.356837 0
M  V30 10935 H 1026.95 5.87297 1.21827 0
M  V30 10936 H 1028.63 6.40066 0.944697 0
M  V30 10937 N 1028.76 -0.17846 1.56586 0
M  V30 10938 C 1030.01 -0.894502 1.8078 0
M  V30 10939 C 1030.32 -1.8372 0.67129 0
M  V30 10940 O 1031.53 -2.59509 0.797971 0
M  V30 10941 C 1029.98 -1.64109 3.20306 0
M  V30 10942 C 1029.59 -0.742387 4.41806 0
M  V30 10943 C 1031.33 -2.34578 3.53798 0
M  V30 10944 C 1029.24 -1.4888 5.72354 0
M  V30 10945 H 1028.17 -0.33776 0.674117 0
M  V30 10946 H 1030.82 -0.14752 1.82906 0
M  V30 10947 H 1029.2 -2.43257 3.12477 0
M  V30 10948 H 1030.38 0.011615 4.60799 0
M  V30 10949 H 1028.69 -0.147705 4.16138 0
M  V30 10950 H 1031.29 -2.91004 4.48577 0
M  V30 10951 H 1031.63 -3.09572 2.78336 0
M  V30 10952 H 1032.17 -1.62381 3.63149 0
M  V30 10953 H 1028.9 -0.781325 6.50827 0
M  V30 10954 H 1028.42 -2.21631 5.57351 0
M  V30 10955 H 1030.1 -2.03819 6.14058 0
M  V30 10956 N 1030.24 -1.51135 -0.446768 0
M  V30 10957 C 1031.65 -1.39101 -0.782504 0
M  V30 10958 C 1031.85 -0.46599 -1.96038 0
M  V30 10959 O 1030.91 0.0823679 -2.52366 0
M  V30 10960 C 1032.22 -2.80953 -1.07173 0
M  V30 10961 C 1033.77 -2.90038 -1.17673 0
M  V30 10962 C 1034.24 -4.32777 -1.49894 0
M  V30 10963 N 1035.73 -4.3584 -1.56837 0
M  V30 10964 C 1036.47 -5.43305 -1.83322 0
M  V30 10965 N 1035.97 -6.60945 -2.07662 0
M  V30 10966 N 1037.76 -5.30775 -1.85026 0
M  V30 10967 H 1029.91 -2.09835 0.329114 0
M  V30 10968 H 1032.17 -0.944199 0.0848054 0
M  V30 10969 H 1031.88 -3.50591 -0.279037 0
M  V30 10970 H 1031.75 -3.197 -2.00179 0
M  V30 10971 H 1034.14 -2.20603 -1.96005 0
M  V30 10972 H 1034.22 -2.54801 -0.225892 0
M  V30 10973 H 1033.86 -5.02757 -0.720924 0
M  V30 10974 H 1033.79 -4.6552 -2.46168 0
M  V30 10975 H 1036.29 -3.51023 -1.39968 0
M  V30 10976 H 1036.6 -7.38643 -2.27214 0
M  V30 10977 H 1034.94 -6.64077 -2.05003 0
M  V30 10978 H 1038.13 -4.37858 -1.65523 0
M  V30 10979 H 1038.31 -6.14609 -2.05329 0
M  V30 10980 N 1031.71 0.701592 -1.41122 0
M  V30 10981 C 1032.99 1.45569 -1.30648 0
M  V30 10982 C 1033.37 2.10988 0.068744 0
M  V30 10983 O 1032.72 2.01228 1.08257 0
M  V30 10984 C 1032.93 2.48003 -2.45551 0
M  V30 10985 C 1034.28 3.13431 -2.86437 0
M  V30 10986 O 1035.3 2.58327 -2.45247 0
M  V30 10987 O 1034.16 4.13221 -3.57646 0
M  V30 10988 H 1031.25 0.648 -0.513834 0
M  V30 10989 H 1033.8 0.73258 -1.53073 0
M  V30 10990 H 1032.57 1.98276 -3.37346 0
M  V30 10991 H 1032.19 3.27832 -2.24971 0
M  V30 10992 N 1033.19 1.2685 0.935242 0
M  V30 10993 C 1034.15 1.08975 2.01636 0
M  V30 10994 C 1035.15 0.0361543 1.60759 0
M  V30 10995 O 1036.34 0.280087 1.71934 0
M  V30 10996 C 1033.48 0.658831 3.34473 0
M  V30 10997 H 1034.67 2.04968 2.18925 0
M  V30 10998 H 1032.22 1.09531 1.11501 0
M  V30 10999 H 1032.96 -0.302824 3.22883 0
M  V30 11000 H 1032.74 1.41967 3.65497 0
M  V30 11001 H 1034.23 0.555783 4.13885 0
M  V30 11002 N 1034.67 -1.14067 1.0875 0
M  V30 11003 C 1035.6 -2.21385 0.74236 0
M  V30 11004 C 1036.58 -1.67833 -0.276805 0
M  V30 11005 O 1037.77 -1.93647 -0.1464 0
M  V30 11006 C 1034.9 -3.46956 0.154644 0
M  V30 11007 C 1033.85 -4.13555 1.10255 0
M  V30 11008 C 1033.18 -5.3337 0.376877 0
M  V30 11009 C 1034.48 -4.6169 2.44213 0
M  V30 11010 H 1036.17 -2.50512 1.63964 0
M  V30 11011 H 1033.72 -1.20408 0.789807 0
M  V30 11012 H 1035.67 -4.21284 -0.0988419 0
M  V30 11013 H 1034.39 -3.17203 -0.777789 0
M  V30 11014 H 1033.05 -3.41186 1.34119 0
M  V30 11015 H 1032.7 -4.99879 -0.559472 0
M  V30 11016 H 1032.4 -5.78875 1.00884 0
M  V30 11017 H 1033.92 -6.10458 0.131527 0
M  V30 11018 H 1035.34 -5.27475 2.24595 0
M  V30 11019 H 1033.74 -5.17909 3.03134 0
M  V30 11020 H 1034.81 -3.76574 3.05483 0
M  V30 11021 N 1036.15 -0.873678 -1.31166 0
M  V30 11022 C 1037.4 -0.485497 -1.96182 0
M  V30 11023 C 1037.72 0.96621 -1.69379 0
M  V30 11024 O 1036.99 1.67783 -1.01121 0
M  V30 11025 H 1035.57 -0.176547 -0.725838 0
M  V30 11026 H 1038.23 -1.11428 -1.59906 0
M  V30 11027 H 1037.33 -0.646325 -3.05334 0
M  V30 11028 N 1037.63 1.44308 -0.633487 0
M  V30 11029 C 1038.56 2.28943 0.108474 0
M  V30 11030 C 1039.57 1.41415 0.806582 0
M  V30 11031 O 1040.76 1.65544 0.667634 0
M  V30 11032 C 1037.86 3.17845 1.1759 0
M  V30 11033 C 1037.03 4.33802 0.559842 0
M  V30 11034 C 1036.09 5.03722 1.52154 0
M  V30 11035 O 1035.12 5.5966 1.03776 0
M  V30 11036 N 1036.32 5.05392 2.85586 0
M  V30 11037 H 1039.09 2.93262 -0.617879 0
M  V30 11038 H 1036.65 1.54781 -0.474819 0
M  V30 11039 H 1038.64 3.61485 1.81963 0
M  V30 11040 H 1037.21 2.55261 1.80445 0
M  V30 11041 H 1036.43 3.93325 -0.262559 0
M  V30 11042 H 1037.72 5.08637 0.128942 0
M  V30 11043 H 1037.11 4.61282 3.27468 0
M  V30 11044 H 1035.67 5.52813 3.45313 0
M  V30 11045 N 1039.1 0.374177 1.53094 0
M  V30 11046 C 1040.52 0.0234783 1.59583 0
M  V30 11047 C 1040.72 -1.45984 1.38892 0
M  V30 11048 O 1039.78 -2.22251 1.19836 0
M  V30 11049 C 1041.09 0.487117 2.96728 0
M  V30 11050 C 1042.64 0.442073 3.09862 0
M  V30 11051 C 1043.11 0.881659 4.49434 0
M  V30 11052 N 1044.6 0.837062 4.55574 0
M  V30 11053 C 1045.34 1.14878 5.61774 0
M  V30 11054 N 1044.83 1.53022 6.75689 0
M  V30 11055 N 1046.63 1.07102 5.51802 0
M  V30 11056 H 1038.78 1.34003 1.64794 0
M  V30 11057 H 1041.04 0.548281 0.773364 0
M  V30 11058 H 1040.75 1.52252 3.17037 0
M  V30 11059 H 1040.62 -0.121772 3.77003 0
M  V30 11060 H 1043.01 -0.584216 2.89259 0
M  V30 11061 H 1043.09 1.08657 2.31576 0
M  V30 11062 H 1042.73 1.90611 4.70776 0
M  V30 11063 H 1042.66 0.214326 5.26164 0
M  V30 11064 H 1045.15 0.556173 3.73785 0
M  V30 11065 H 1045.47 1.75211 7.52676 0
M  V30 11066 H 1043.81 1.56895 6.77059 0
M  V30 11067 H 1047 0.772149 4.61688 0
M  V30 11068 H 1047.18 1.31728 6.3447 0
M  V30 11069 N 1040.58 -1.57259 0.103575 0
M  V30 11070 C 1041.81 -1.98711 -0.565454 0
M  V30 11071 C 1042.22 -0.981759 -1.61735 0
M  V30 11072 O 1041.56 0.0357019 -1.83665 0
M  V30 11073 C 1041.63 -3.36552 -1.26384 0
M  V30 11074 C 1041.29 -4.55566 -0.361714 0
M  V30 11075 C 1042.29 -5.18408 0.393539 0
M  V30 11076 C 1039.97 -5.01534 -0.277292 0
M  V30 11077 C 1041.97 -6.25594 1.2211 0
M  V30 11078 C 1039.65 -6.08584 0.553919 0
M  V30 11079 C 1040.65 -6.7048 1.30176 0
M  V30 11080 O 1040.34 -7.75464 2.1192 0
M  V30 11081 H 1040.07 -0.657853 -0.155582 0
M  V30 11082 H 1042.62 -2.04591 0.182089 0
M  V30 11083 H 1040.85 -3.2738 -2.05813 0
M  V30 11084 H 1042.54 -3.62395 -1.82824 0
M  V30 11085 H 1043.31 -4.8382 0.338098 0
M  V30 11086 H 1039.19 -4.53114 -0.849047 0
M  V30 11087 H 1042.73 -6.73836 1.80531 0
M  V30 11088 H 1038.63 -6.42604 0.610809 0
M  V30 11089 H 1039.4 -7.92491 2.04694 0
M  V30 11090 N 1042.06 0.170153 -1.56679 0
M  V30 11091 C 1043.29 0.90618 -1.86556 0
M  V30 11092 C 1043.71 1.74986 -0.690044 0
M  V30 11093 O 1043.07 1.77672 0.360862 0
M  V30 11094 C 1043.12 1.75777 -3.14857 0
M  V30 11095 O 1042.22 2.85952 -2.97162 0
M  V30 11096 H 1041.56 0.253781 -0.613589 0
M  V30 11097 H 1044.09 0.167943 -2.0391 0
M  V30 11098 H 1044.1 2.15747 -3.46291 0
M  V30 11099 H 1042.78 1.13807 -4.00026 0
M  V30 11100 H 1041.35 2.49557 -2.77084 0
M  V30 11101 N 1043.54 1.5137 0.438746 0
M  V30 11102 C 1044.47 1.75528 1.53987 0
M  V30 11103 C 1045.45 0.605067 1.58975 0
M  V30 11104 O 1046.63 0.847634 1.74725 0
M  V30 11105 C 1043.76 1.87904 2.92078 0
M  V30 11106 C 1042.72 3.0333 3.01951 0
M  V30 11107 C 1042.04 3.00888 4.42007 0
M  V30 11108 C 1043.34 4.43319 2.76163 0
M  V30 11109 H 1045.04 2.67728 1.34022 0
M  V30 11110 H 1042.58 1.28831 0.643308 0
M  V30 11111 H 1044.54 2.03388 3.69068 0
M  V30 11112 H 1043.26 0.923514 3.13271 0
M  V30 11113 H 1041.92 2.87549 2.274 0
M  V30 11114 H 1041.57 2.03116 4.60166 0
M  V30 11115 H 1041.27 3.78397 4.49544 0
M  V30 11116 H 1042.79 3.18464 5.20973 0
M  V30 11117 H 1044.21 4.59458 3.42887 0
M  V30 11118 H 1042.6 5.22523 2.9511 0
M  V30 11119 H 1043.67 4.53453 1.71779 0
M  V30 11120 N 1045.02 -0.694098 1.41492 0
M  V30 11121 C 1045.95 -1.82042 1.46229 0
M  V30 11122 C 1046.93 -1.67047 0.320803 0
M  V30 11123 O 1048.11 -1.86758 0.53245 0
M  V30 11124 C 1045.24 -3.2019 1.34519 0
M  V30 11125 C 1044.2 -3.49892 2.46495 0
M  V30 11126 C 1043.52 -4.87411 2.1985 0
M  V30 11127 C 1044.82 -3.4872 3.88834 0
M  V30 11128 H 1046.52 -1.78335 2.40493 0
M  V30 11129 H 1044.06 -0.856566 1.15754 0
M  V30 11130 H 1046.02 -3.98699 1.36445 0
M  V30 11131 H 1044.74 -3.24527 0.367406 0
M  V30 11132 H 1043.4 -2.73734 2.43854 0
M  V30 11133 H 1043.05 -4.88375 1.20411 0
M  V30 11134 H 1042.75 -5.08248 2.94885 0
M  V30 11135 H 1044.27 -5.68228 2.23494 0
M  V30 11136 H 1045.68 -4.1723 3.93182 0
M  V30 11137 H 1044.08 -3.81089 4.63564 0
M  V30 11138 H 1045.15 -2.47665 4.16881 0
M  V30 11139 N 1046.49 -1.27344 -0.928501 0
M  V30 11140 C 1047.91 -1.12361 -1.49103 0
M  V30 11141 C 1048.26 0.291667 -1.9402 0
M  V30 11142 O 1047.38 1.18449 -1.81104 0
M  V30 11143 C 1047.98 -2.03358 -2.70981 0
M  V30 11144 C 1046.54 -1.92483 -3.23461 0
M  V30 11145 C 1045.68 -1.95961 -1.962 0
M  V30 11146 H 1048.63 -1.40249 -0.742689 0
M  V30 11147 H 1048.65 -1.58892 -3.45736 0
M  V30 11148 H 1048.17 -3.06356 -2.38259 0
M  V30 11149 H 1046.27 -0.924676 -3.60944 0
M  V30 11150 H 1046.38 -2.78682 -3.89709 0
M  V30 11151 H 1044.74 -1.40175 -2.12657 0
M  V30 11152 H 1045.53 -3.00612 -1.65793 0
M  V30 11153 N 1047.97 1.13488 -1.09353 0
M  V30 11154 C 1049.22 1.84748 -0.829126 0
M  V30 11155 C 1049.55 1.83485 0.645247 0
M  V30 11156 O 1048.8 1.26767 1.49093 0
M  V30 11157 C 1049.1 3.32584 -1.30854 0
M  V30 11158 C 1048.77 3.54028 -2.7924 0
M  V30 11159 C 1047.43 3.59588 -3.19765 0
M  V30 11160 C 1049.78 3.62058 -3.74918 0
M  V30 11161 C 1047.11 3.70712 -4.54741 0
M  V30 11162 C 1049.46 3.7471 -5.09682 0
M  V30 11163 C 1048.13 3.78523 -5.49797 0
M  V30 11164 H 1047.4 0.67604 -0.303399 0
M  V30 11165 H 1050.04 1.33989 -1.36818 0
M  V30 11166 H 1048.35 3.85689 -0.689275 0
M  V30 11167 H 1050.04 3.86166 -1.08059 0
M  V30 11168 H 1046.63 3.50354 -2.4688 0
M  V30 11169 H 1050.82 3.57043 -3.44723 0
M  V30 11170 H 1046.07 3.71931 -4.8526 0
M  V30 11171 H 1050.25 3.79866 -5.83674 0
M  V30 11172 H 1047.88 3.86895 -6.54382 0
M  V30 11173 N 1049.45 0.880621 1.30701 0
M  V30 11174 C 1050.7 0.506967 1.96981 0
M  V30 11175 C 1051.05 -0.932694 1.68281 0
M  V30 11176 O 1050.35 -1.64954 0.974709 0
M  V30 11177 C 1050.54 0.713203 3.50212 0
M  V30 11178 C 1050.37 2.17136 3.93805 0
M  V30 11179 C 1049.14 2.81508 4.19621 0
M  V30 11180 C 1051.34 3.14473 4.06954 0
M  V30 11181 N 1049.32 4.17965 4.49643 0
M  V30 11182 C 1050.69 4.3599 4.40809 0
M  V30 11183 C 1052.74 3.1032 3.89366 0
M  V30 11184 C 1051.45 5.53889 4.58911 0
M  V30 11185 C 1053.47 4.27487 4.08667 0
M  V30 11186 C 1052.84 5.47769 4.42864 0
M  V30 11187 H 1048.93 0.234756 0.745931 0
M  V30 11188 H 1051.52 1.13745 1.5802 0
M  V30 11189 H 1049.69 0.112239 3.88238 0
M  V30 11190 H 1051.42 0.30688 4.03535 0
M  V30 11191 H 1048.18 2.32399 4.12659 0
M  V30 11192 H 1048.6 4.88425 4.68796 0
M  V30 11193 H 1053.24 2.18428 3.62007 0
M  V30 11194 H 1050.96 6.46289 4.85114 0
M  V30 11195 H 1054.55 4.25738 3.96533 0
M  V30 11196 H 1053.43 6.36922 4.57493 0
M  V30 11197 N 1050.93 -1.4397 0.641131 0
M  V30 11198 C 1052.16 -2.06004 0.156779 0
M  V30 11199 C 1052.57 -1.48059 -1.17793 0
M  V30 11200 O 1051.91 -0.601788 -1.73563 0
M  V30 11201 C 1051.97 -3.59493 -0.0217203 0
M  V30 11202 C 1051.64 -4.39957 1.23639 0
M  V30 11203 C 1052.63 -4.72797 2.16239 0
M  V30 11204 C 1050.32 -4.80168 1.4746 0
M  V30 11205 C 1052.31 -5.44741 3.30962 0
M  V30 11206 C 1050 -5.51859 2.62478 0
M  V30 11207 C 1051 -5.84067 3.54055 0
M  V30 11208 O 1050.69 -6.54296 4.67067 0
M  V30 11209 H 1050.42 -0.671061 0.0815685 0
M  V30 11210 H 1052.97 -1.85664 0.878517 0
M  V30 11211 H 1051.2 -3.78362 -0.798707 0
M  V30 11212 H 1052.89 -4.03263 -0.461893 0
M  V30 11213 H 1053.66 -4.42261 1.99073 0
M  V30 11214 H 1049.54 -4.54513 0.770652 0
M  V30 11215 H 1053.08 -5.69798 4.02462 0
M  V30 11216 H 1048.98 -5.81811 2.79583 0
M  V30 11217 H 1049.74 -6.72772 4.66177 0
M  V30 11218 N 1052.41 -0.382291 -1.52893 0
M  V30 11219 C 1053.64 0.202408 -2.05908 0
M  V30 11220 C 1054.05 1.4109 -1.25456 0
M  V30 11221 O 1053.41 1.80027 -0.29942 0
M  V30 11222 C 1053.46 0.579452 -3.56826 0
M  V30 11223 O 1053.18 -0.58102 -4.3423 0
M  V30 11224 C 1054.68 1.22076 -4.2616 0
M  V30 11225 H 1051.9 0.0321859 -0.670228 0
M  V30 11226 H 1054.44 -0.545494 -1.9709 0
M  V30 11227 H 1052.6 1.27726 -3.65739 0
M  V30 11228 H 1053.01 -0.272693 -5.23791 0
M  V30 11229 H 1054.49 1.435 -5.33021 0
M  V30 11230 H 1054.96 2.18605 -3.80931 0
M  V30 11231 H 1055.57 0.563922 -4.21545 0
M  V30 11232 N 1053.89 1.57202 -0.111913 0
M  V30 11233 C 1054.82 2.17957 0.837683 0
M  V30 11234 C 1055.8 1.1176 1.28233 0
M  V30 11235 O 1056.98 1.39967 1.34621 0
M  V30 11236 C 1054.11 2.77333 2.09054 0
M  V30 11237 C 1053.07 3.8905 1.78393 0
M  V30 11238 C 1052.39 4.35203 3.10649 0
M  V30 11239 C 1053.69 5.11477 1.05775 0
M  V30 11240 H 1055.39 2.9756 0.331441 0
M  V30 11241 H 1052.93 1.43131 0.157979 0
M  V30 11242 H 1054.88 3.18492 2.75936 0
M  V30 11243 H 1053.61 1.95009 2.6199 0
M  V30 11244 H 1052.27 3.48456 1.13903 0
M  V30 11245 H 1051.92 3.49747 3.61506 0
M  V30 11246 H 1051.62 5.10534 2.9091 0
M  V30 11247 H 1053.14 4.79007 3.78661 0
M  V30 11248 H 1054.55 5.497 1.62798 0
M  V30 11249 H 1052.95 5.92346 0.961573 0
M  V30 11250 H 1054.02 4.84881 0.043297 0
M  V30 11251 N 1055.36 -0.161842 1.56767 0
M  V30 11252 C 1056.29 -1.20226 2.0017 0
M  V30 11253 C 1057.27 -1.4564 0.878807 0
M  V30 11254 O 1058.46 -1.56813 1.14557 0
M  V30 11255 C 1055.59 -2.53897 2.36968 0
M  V30 11256 C 1054.54 -2.43033 3.52305 0
M  V30 11257 C 1053.87 -3.81281 3.74872 0
M  V30 11258 C 1055.17 -1.927 4.85453 0
M  V30 11259 H 1056.86 -0.84142 2.87333 0
M  V30 11260 H 1054.41 -0.403309 1.38237 0
M  V30 11261 H 1056.36 -3.26893 2.6593 0
M  V30 11262 H 1055.09 -2.91787 1.46724 0
M  V30 11263 H 1053.75 -1.7249 3.23485 0
M  V30 11264 H 1053.39 -4.1658 2.81904 0
M  V30 11265 H 1053.09 -3.74877 4.52483 0
M  V30 11266 H 1054.62 -4.55848 4.06245 0
M  V30 11267 H 1056.03 -2.55477 5.13229 0
M  V30 11268 H 1054.43 -1.97222 5.66766 0
M  V30 11269 H 1055.5 -0.881816 4.76814 0
M  V30 11270 N 1056.84 -1.516 -0.430713 0
M  V30 11271 C 1058.07 -1.68169 -1.20011 0
M  V30 11272 C 1058.48 -0.381406 -1.85316 0
M  V30 11273 O 1057.82 0.6506 -1.71793 0
M  V30 11274 C 1057.88 -2.7454 -2.32095 0
M  V30 11275 C 1057.55 -4.16942 -1.87104 0
M  V30 11276 C 1058.55 -5.01503 -1.37078 0
M  V30 11277 C 1056.23 -4.63075 -1.94594 0
M  V30 11278 C 1058.22 -6.3026 -0.951362 0
M  V30 11279 C 1055.91 -5.91827 -1.52264 0
M  V30 11280 C 1056.91 -6.75247 -1.02618 0
M  V30 11281 O 1056.6 -8.01591 -0.608905 0
M  V30 11282 H 1056.33 -0.567361 -0.367528 0
M  V30 11283 H 1058.88 -1.98819 -0.515759 0
M  V30 11284 H 1057.11 -2.39219 -3.03828 0
M  V30 11285 H 1058.8 -2.79921 -2.93937 0
M  V30 11286 H 1059.57 -4.67063 -1.30681 0
M  V30 11287 H 1055.45 -3.98262 -2.32182 0
M  V30 11288 H 1058.99 -6.95323 -0.563163 0
M  V30 11289 H 1054.89 -6.2578 -1.58333 0
M  V30 11290 H 1055.66 -8.15201 -0.73416 0
M  V30 11291 N 1058.32 0.686584 -1.41858 0
M  V30 11292 C 1059.25 1.81202 -1.40352 0
M  V30 11293 C 1060.26 1.5993 -0.304322 0
M  V30 11294 O 1061.45 1.69267 -0.566643 0
M  V30 11295 C 1058.55 3.18116 -1.16856 0
M  V30 11296 C 1057.73 3.66339 -2.38987 0
M  V30 11297 C 1056.79 4.8195 -2.11212 0
M  V30 11298 O 1055.81 4.93102 -2.84323 0
M  V30 11299 N 1057.01 5.69829 -1.10793 0
M  V30 11300 H 1059.78 1.82983 -2.37355 0
M  V30 11301 H 1057.34 0.869244 -1.36586 0
M  V30 11302 H 1059.33 3.93097 -0.962125 0
M  V30 11303 H 1057.9 3.11306 -0.284186 0
M  V30 11304 H 1057.12 2.82166 -2.75274 0
M  V30 11305 H 1058.41 3.95297 -3.2034 0
M  V30 11306 H 1057.81 5.63459 -0.503012 0
M  V30 11307 H 1056.36 6.44671 -0.961379 0
M  V30 11308 N 1059.8 1.27835 0.921735 0
M  V30 11309 C 1060.76 1.11108 2.00469 0
M  V30 11310 C 1061.76 0.053203 1.60712 0
M  V30 11311 O 1062.95 0.298308 1.71627 0
M  V30 11312 C 1060.08 0.694269 3.33755 0
M  V30 11313 H 1061.28 2.07279 2.16738 0
M  V30 11314 H 1058.83 1.10708 1.10333 0
M  V30 11315 H 1059.56 -0.268561 3.23186 0
M  V30 11316 H 1059.35 1.45836 3.6397 0
M  V30 11317 H 1060.84 0.59965 4.13272 0
M  V30 11318 N 1061.28 -1.12907 1.09954 0
M  V30 11319 C 1062.23 -2.16558 0.713204 0
M  V30 11320 C 1063.21 -1.5853 -0.27515 0
M  V30 11321 O 1064.4 -1.76797 -0.0846643 0
M  V30 11322 C 1061.53 -3.43009 0.141224 0
M  V30 11323 C 1060.62 -4.08032 1.15632 0
M  V30 11324 N 1061.01 -4.48139 2.34531 0
M  V30 11325 C 1059.31 -4.34743 0.995701 0
M  V30 11326 C 1060.01 -4.98885 2.99147 0
M  V30 11327 N 1058.98 -4.9408 2.26684 0
M  V30 11328 H 1062.78 -2.45328 1.61838 0
M  V30 11329 H 1060.3 -1.29759 0.976539 0
M  V30 11330 H 1062.3 -4.16617 -0.153598 0
M  V30 11331 H 1060.96 -3.15711 -0.758729 0
M  V30 11332 H 1061.97 -4.40668 2.72089 0
M  V30 11333 H 1058.64 -4.17227 0.150888 0
M  V30 11334 H 1060.03 -5.3967 4.00257 0
M  V30 11335 N 1062.75 -0.88754 -1.30232 0
M  V30 11336 C 1064.17 -0.581904 -1.48614 0
M  V30 11337 C 1064.37 0.879711 -1.81282 0
M  V30 11338 O 1063.43 1.66076 -1.90198 0
M  V30 11339 C 1064.74 -1.49726 -2.60773 0
M  V30 11340 C 1066.29 -1.50117 -2.74653 0
M  V30 11341 C 1066.76 -2.40251 -3.89927 0
M  V30 11342 N 1068.25 -2.38229 -3.97242 0
M  V30 11343 C 1068.99 -3.04682 -4.85754 0
M  V30 11344 N 1068.48 -3.80369 -5.79043 0
M  V30 11345 N 1070.28 -2.93901 -4.79144 0
M  V30 11346 H 1062.43 -1.83304 -1.073 0
M  V30 11347 H 1064.69 -0.78477 -0.531826 0
M  V30 11348 H 1064.4 -2.5381 -2.43462 0
M  V30 11349 H 1064.27 -1.20874 -3.57308 0
M  V30 11350 H 1066.66 -0.467832 -2.91368 0
M  V30 11351 H 1066.74 -1.83001 -1.7873 0
M  V30 11352 H 1066.38 -3.43671 -3.73969 0
M  V30 11353 H 1066.31 -2.04682 -4.85194 0
M  V30 11354 H 1068.8 -1.83229 -3.30508 0
M  V30 11355 H 1069.12 -4.28159 -6.4335 0
M  V30 11356 H 1067.46 -3.84477 -5.78967 0
M  V30 11357 H 1070.65 -2.34296 -4.05245 0
M  V30 11358 H 1070.83 -3.45967 -5.47915 0
M  V30 11359 N 1064.23 1.43628 -0.648757 0
M  V30 11360 C 1065.14 2.34554 0.0463037 0
M  V30 11361 C 1066.16 1.53629 0.816952 0
M  V30 11362 O 1067.33 1.86297 0.765212 0
M  V30 11363 C 1064.4 3.3185 1.00381 0
M  V30 11364 C 1063.46 4.2868 0.230589 0
M  V30 11365 C 1062.69 5.21328 1.14249 0
M  V30 11366 O 1062.92 5.18298 2.38166 0
M  V30 11367 O 1061.85 5.98726 0.617296 0
M  V30 11368 H 1065.68 2.95475 -0.702008 0
M  V30 11369 H 1063.26 1.43694 -0.408942 0
M  V30 11370 H 1065.14 3.91692 1.5542 0
M  V30 11371 H 1063.82 2.73439 1.73243 0
M  V30 11372 H 1062.73 3.72332 -0.363282 0
M  V30 11373 H 1064.06 4.90061 -0.458368 0
M  V30 11374 N 1065.71 0.390394 1.52688 0
M  V30 11375 C 1066.96 -0.191067 2.01195 0
M  V30 11376 C 1067.28 -1.47229 1.27862 0
M  V30 11377 O 1066.55 -1.91793 0.399007 0
M  V30 11378 H 1065.13 -0.073596 0.743366 0
M  V30 11379 H 1067.79 0.522334 1.8777 0
M  V30 11380 H 1066.89 -0.40051 3.0952 0
M  V30 11381 N 1067.19 -1.57141 0.120249 0
M  V30 11382 C 1068.44 -1.94413 -0.53727 0
M  V30 11383 C 1068.75 -1.00594 -1.67751 0
M  V30 11384 O 1069.96 -1.27336 -2.39787 0
M  V30 11385 C 1068.41 -3.45521 -1.00714 0
M  V30 11386 C 1068.02 -4.47878 0.104706 0
M  V30 11387 C 1069.76 -3.9171 -1.63596 0
M  V30 11388 C 1067.67 -5.90165 -0.381932 0
M  V30 11389 H 1066.6 -0.725745 -0.204475 0
M  V30 11390 H 1069.25 -1.82404 0.200302 0
M  V30 11391 H 1067.63 -3.52769 -1.79917 0
M  V30 11392 H 1068.81 -4.523 0.881002 0
M  V30 11393 H 1067.12 -4.11448 0.640264 0
M  V30 11394 H 1069.72 -4.95433 -2.01122 0
M  V30 11395 H 1070.06 -3.31756 -2.51483 0
M  V30 11396 H 1070.6 -3.87268 -0.909319 0
M  V30 11397 H 1067.34 -6.53877 0.460921 0
M  V30 11398 H 1066.86 -5.89161 -1.12468 0
M  V30 11399 H 1068.53 -6.41488 -0.842748 0
M  V30 11400 N 1068.67 0.153526 -1.5685 0
M  V30 11401 C 1070.08 0.714247 -1.72498 0
M  V30 11402 C 1070.43 1.81968 -0.733621 0
M  V30 11403 O 1069.55 2.16163 0.10118 0
M  V30 11404 C 1070.15 1.30238 -3.12767 0
M  V30 11405 C 1068.71 1.80974 -3.30038 0
M  V30 11406 C 1067.85 0.695638 -2.68433 0
M  V30 11407 H 1070.81 -0.0720733 -1.58536 0
M  V30 11408 H 1070.83 2.17217 -3.12405 0
M  V30 11409 H 1070.34 0.497605 -3.84897 0
M  V30 11410 H 1068.44 2.64039 -2.62895 0
M  V30 11411 H 1068.55 1.94294 -4.37934 0
M  V30 11412 H 1066.92 1.12061 -2.28723 0
M  V30 11413 H 1067.7 -0.0975885 -3.43161 0
M  V30 11414 N 1070.14 1.51827 0.422667 0
M  V30 11415 C 1071.39 1.65464 1.17258 0
M  V30 11416 C 1071.72 0.376834 1.90509 0
M  V30 11417 O 1071 -0.624219 1.84211 0
M  V30 11418 C 1071.28 2.86776 2.17788 0
M  V30 11419 C 1071.13 4.24571 1.48523 0
M  V30 11420 C 1072.45 3.03603 3.18611 0
M  V30 11421 H 1069.57 0.602169 0.424925 0
M  V30 11422 H 1072.21 1.84349 0.45996 0
M  V30 11423 H 1070.36 2.70806 2.78561 0
M  V30 11424 H 1072.04 4.5224 0.909739 0
M  V30 11425 H 1070.28 4.26595 0.787354 0
M  V30 11426 H 1070.95 5.05475 2.2181 0
M  V30 11427 H 1073.43 3.18381 2.67904 0
M  V30 11428 H 1072.3 3.90022 3.8623 0
M  V30 11429 H 1072.56 2.16318 3.85563 0
M  V30 11430 N 1071.62 -0.679052 1.4222 0
M  V30 11431 C 1072.56 -1.80369 1.39794 0
M  V30 11432 C 1073.53 -1.60462 0.262806 0
M  V30 11433 O 1074.72 -1.82992 0.452352 0
M  V30 11434 C 1071.84 -3.17305 1.18471 0
M  V30 11435 C 1070.89 -3.55969 2.34922 0
M  V30 11436 S 1071.72 -3.58884 3.97445 0
M  V30 11437 C 1072.88 -4.98519 3.78457 0
M  V30 11438 H 1073.11 -1.82152 2.34964 0
M  V30 11439 H 1070.65 -0.84932 1.28942 0
M  V30 11440 H 1072.6 -3.96348 1.06856 0
M  V30 11441 H 1071.26 -3.13112 0.248944 0
M  V30 11442 H 1070.46 -4.55491 2.1574 0
M  V30 11443 H 1070.06 -2.84275 2.4303 0
M  V30 11444 H 1072.35 -5.86481 3.39184 0
M  V30 11445 H 1073.29 -5.22748 4.77641 0
M  V30 11446 H 1073.7 -4.70836 3.11406 0
M  V30 11447 N 1073.1 -1.28322 -0.914942 0
M  V30 11448 C 1074.52 -1.06003 -1.19313 0
M  V30 11449 C 1074.72 0.198366 -2.00521 0
M  V30 11450 O 1073.77 0.900364 -2.35902 0
M  V30 11451 C 1075.09 -2.30684 -1.92887 0
M  V30 11452 C 1076.63 -2.35851 -2.05775 0
M  V30 11453 C 1077.11 -3.60295 -2.82757 0
M  V30 11454 N 1078.6 -3.60928 -2.9032 0
M  V30 11455 C 1079.33 -4.53894 -3.50383 0
M  V30 11456 N 1078.83 -5.57178 -4.11734 0
M  V30 11457 N 1080.62 -4.41492 -3.4791 0
M  V30 11458 H 1072.77 -2.09104 -0.372735 0
M  V30 11459 H 1075.04 -0.920285 -0.227552 0
M  V30 11460 H 1074.74 -3.22355 -1.40643 0
M  V30 11461 H 1074.62 -2.37003 -2.93444 0
M  V30 11462 H 1077 -1.44678 -2.57201 0
M  V30 11463 H 1077.09 -2.33526 -1.04399 0
M  V30 11464 H 1076.73 -4.51811 -2.32011 0
M  V30 11465 H 1076.66 -3.59873 -3.84446 0
M  V30 11466 H 1079.15 -2.8624 -2.46729 0
M  V30 11467 H 1079.46 -6.24261 -4.55541 0
M  V30 11468 H 1077.81 -5.61005 -4.10242 0
M  V30 11469 H 1081 -3.60005 -2.99189 0
M  V30 11470 H 1081.17 -5.14132 -3.94427 0
M  V30 11471 N 1074.58 1.12322 -1.10551 0
M  V30 11472 C 1075.99 1.6539 -0.8662 0
M  V30 11473 C 1076.34 1.86695 0.603284 0
M  V30 11474 O 1075.47 1.59432 1.46323 0
M  V30 11475 C 1076.06 3.00443 -1.56587 0
M  V30 11476 C 1074.62 3.50456 -1.37323 0
M  V30 11477 C 1073.77 2.25454 -1.61449 0
M  V30 11478 H 1076.72 0.960866 -1.26305 0
M  V30 11479 H 1076.74 3.66972 -1.00557 0
M  V30 11480 H 1076.25 2.84905 -2.63535 0
M  V30 11481 H 1074.35 3.71176 -0.325431 0
M  V30 11482 H 1074.46 4.29839 -2.11601 0
M  V30 11483 H 1072.83 2.32621 -1.03729 0
M  V30 11484 H 1073.61 2.12469 -2.69651 0
M  V30 11485 N 1076.06 0.894434 1.2976 0
M  V30 11486 C 1076.99 0.3847 2.30309 0
M  V30 11487 C 1077.97 -0.537486 1.61385 0
M  V30 11488 O 1079.15 -0.449332 1.8893 0
M  V30 11489 C 1076.28 -0.393311 3.45066 0
M  V30 11490 C 1075.24 0.437968 4.25753 0
M  V30 11491 C 1074.56 -0.467221 5.32655 0
M  V30 11492 C 1075.86 1.6851 4.9437 0
M  V30 11493 H 1077.56 1.22496 2.73194 0
M  V30 11494 H 1075.1 0.590471 1.31337 0
M  V30 11495 H 1077.06 -0.760614 4.14479 0
M  V30 11496 H 1075.78 -1.2673 3.0101 0
M  V30 11497 H 1074.44 0.787533 3.58041 0
M  V30 11498 H 1074.09 -1.33919 4.84845 0
M  V30 11499 H 1073.79 0.0852482 5.87538 0
M  V30 11500 H 1075.31 -0.830833 6.04921 0
M  V30 11501 H 1076.72 1.38784 5.56248 0
M  V30 11502 H 1075.12 2.17849 5.59162 0
M  V30 11503 H 1076.19 2.42412 4.19958 0
M  V30 11504 N 1077.53 -1.43282 0.656365 0
M  V30 11505 C 1078.78 -2.02603 0.179905 0
M  V30 11506 C 1079.14 -1.50875 -1.19393 0
M  V30 11507 O 1078.43 -0.6935 -1.78609 0
M  V30 11508 C 1078.62 -3.57148 0.134225 0
M  V30 11509 C 1078.45 -4.23872 1.50209 0
M  V30 11510 C 1077.22 -4.59812 2.09526 0
M  V30 11511 C 1079.42 -4.52674 2.44112 0
M  V30 11512 N 1077.4 -5.11624 3.39284 0
M  V30 11513 C 1078.77 -5.05839 3.58506 0
M  V30 11514 C 1080.83 -4.34645 2.42874 0
M  V30 11515 C 1079.53 -5.42872 4.71892 0
M  V30 11516 C 1081.56 -4.72742 3.55343 0
M  V30 11517 C 1080.92 -5.26043 4.68463 0
M  V30 11518 H 1077.02 -0.774177 0.110334 0
M  V30 11519 H 1079.6 -1.74413 0.865352 0
M  V30 11520 H 1077.77 -3.84896 -0.520575 0
M  V30 11521 H 1079.5 -4.03154 -0.3534 0
M  V30 11522 H 1076.26 -4.44958 1.62203 0
M  V30 11523 H 1076.68 -5.4198 4.05693 0
M  V30 11524 H 1081.33 -3.92708 1.56654 0
M  V30 11525 H 1079.04 -5.83752 5.58802 0
M  V30 11526 H 1082.63 -4.60485 3.55591 0
M  V30 11527 H 1081.51 -5.54975 5.54051 0
M  V30 11528 N 1079.01 -0.398486 -1.52479 0
M  V30 11529 C 1080.26 0.181019 -2.0199 0
M  V30 11530 C 1080.59 1.45691 -1.28405 0
M  V30 11531 O 1079.87 1.90607 -0.387207 0
M  V30 11532 C 1080.15 0.439587 -3.57407 0
M  V30 11533 C 1080 -0.85223 -4.41653 0
M  V30 11534 C 1081.32 1.2263 -4.2267 0
M  V30 11535 H 1078.44 0.0643164 -0.734188 0
M  V30 11536 H 1081.08 -0.52986 -1.82462 0
M  V30 11537 H 1079.23 1.04516 -3.74177 0
M  V30 11538 H 1080.91 -1.48879 -4.36615 0
M  V30 11539 H 1079.15 -1.46555 -4.08294 0
M  V30 11540 H 1079.82 -0.625839 -5.48441 0
M  V30 11541 H 1082.3 0.713722 -4.09933 0
M  V30 11542 H 1081.17 1.37596 -5.31374 0
M  V30 11543 H 1081.43 2.24403 -3.80914 0
M  V30 11544 N 1080.49 1.57075 -0.12858 0
M  V30 11545 C 1081.42 2.12907 0.848708 0
M  V30 11546 C 1082.44 1.07406 1.22343 0
M  V30 11547 O 1083.63 1.34746 1.17071 0
M  V30 11548 C 1080.73 2.62167 2.1476 0
M  V30 11549 C 1079.9 3.91871 1.94309 0
M  V30 11550 C 1078.96 4.26629 3.08016 0
M  V30 11551 O 1077.98 4.9528 2.80511 0
M  V30 11552 N 1079.19 3.84721 4.34706 0
M  V30 11553 H 1081.95 2.97387 0.371636 0
M  V30 11554 H 1079.51 1.61805 0.0555574 0
M  V30 11555 H 1081.5 2.82444 2.89841 0
M  V30 11556 H 1080.07 1.82514 2.53786 0
M  V30 11557 H 1079.29 3.80406 1.03367 0
M  V30 11558 H 1080.58 4.76662 1.77962 0
M  V30 11559 H 1079.98 3.2937 4.59926 0
M  V30 11560 H 1078.54 4.10087 5.06628 0
M  V30 11561 N 1081.97 -0.145205 1.5693 0
M  V30 11562 C 1083.2 -0.871133 1.87336 0
M  V30 11563 C 1083.61 -1.7517 0.714992 0
M  V30 11564 O 1082.95 -1.80815 -0.324304 0
M  V30 11565 C 1083.01 -1.77775 3.12468 0
M  V30 11566 C 1082.68 -1.07416 4.44197 0
M  V30 11567 C 1083.67 -0.42722 5.18142 0
M  V30 11568 C 1081.36 -1.06313 4.9092 0
M  V30 11569 C 1083.35 0.221348 6.37016 0
M  V30 11570 C 1081.04 -0.410755 6.09718 0
M  V30 11571 C 1082.04 0.230357 6.82611 0
M  V30 11572 O 1081.73 0.872389 7.99152 0
M  V30 11573 H 1081.46 -0.257174 0.62517 0
M  V30 11574 H 1084.01 -0.142159 2.04907 0
M  V30 11575 H 1082.24 -2.54771 2.9091 0
M  V30 11576 H 1083.93 -2.37579 3.29107 0
M  V30 11577 H 1084.7 -0.427536 4.83112 0
M  V30 11578 H 1080.58 -1.55156 4.34105 0
M  V30 11579 H 1084.12 0.722349 6.9385 0
M  V30 11580 H 1080.02 -0.408112 6.44209 0
M  V30 11581 H 1080.78 0.774236 8.1483 0
M  V30 11582 N 1083.45 -1.52049 -0.414609 0
M  V30 11583 C 1084.86 -1.58062 -0.993638 0
M  V30 11584 C 1085.21 -0.417795 -1.917 0
M  V30 11585 O 1084.33 0.462558 -2.11399 0
M  V30 11586 C 1084.93 -2.86471 -1.80886 0
M  V30 11587 C 1083.49 -2.94981 -2.33801 0
M  V30 11588 C 1082.64 -2.52949 -1.13631 0
M  V30 11589 H 1085.59 -1.57497 -0.19504 0
M  V30 11590 H 1085.61 -2.71515 -2.66571 0
M  V30 11591 H 1085.12 -3.71085 -1.13657 0
M  V30 11592 H 1083.22 -2.14849 -3.04419 0
M  V30 11593 H 1083.33 -3.99111 -2.65042 0
M  V30 11594 H 1081.7 -2.0667 -1.48861 0
M  V30 11595 H 1082.48 -3.39931 -0.479765 0
M  V30 11596 N 1084.93 0.6715 -1.42579 0
M  V30 11597 C 1085.86 1.79703 -1.42266 0
M  V30 11598 C 1086.87 1.59599 -0.321268 0
M  V30 11599 O 1088.06 1.68657 -0.584564 0
M  V30 11600 C 1085.16 3.16859 -1.20224 0
M  V30 11601 C 1084.33 3.63783 -2.42859 0
M  V30 11602 C 1083.39 4.79683 -2.16312 0
M  V30 11603 O 1082.42 4.90058 -2.89537 0
M  V30 11604 N 1083.62 5.68622 -1.16831 0
M  V30 11605 H 1086.38 1.80455 -2.39282 0
M  V30 11606 H 1083.95 0.854708 -1.375 0
M  V30 11607 H 1085.94 3.92054 -1.00376 0
M  V30 11608 H 1084.51 3.10987 -0.317188 0
M  V30 11609 H 1083.73 2.7923 -2.78252 0
M  V30 11610 H 1085.02 3.91877 -3.24514 0
M  V30 11611 H 1084.41 5.62894 -0.562746 0
M  V30 11612 H 1082.97 6.43615 -1.0297 0
M  V30 11613 N 1086.4 1.28806 0.908124 0
M  V30 11614 C 1087.68 1.06981 1.63751 0
M  V30 11615 C 1088.06 -0.388936 2.07486 0
M  V30 11616 O 1087.41 -1.37611 1.82415 0
M  V30 11617 C 1087.62 2.04962 2.82474 0
M  V30 11618 C 1088.97 2.35418 3.5336 0
M  V30 11619 O 1089.99 2.03091 2.92631 0
M  V30 11620 O 1088.85 2.90617 4.62822 0
M  V30 11621 H 1085.94 0.409267 0.71863 0
M  V30 11622 H 1088.49 1.40146 0.956934 0
M  V30 11623 H 1087.26 3.03254 2.47291 0
M  V30 11624 H 1086.88 1.72476 3.58242 0
M  V30 11625 N 1087.88 -1.11734 1.11145 0
M  V30 11626 C 1089.13 -1.83677 0.859684 0
M  V30 11627 C 1089.46 -1.84265 -0.613182 0
M  V30 11628 O 1088.74 -1.29351 -1.45254 0
M  V30 11629 C 1089.02 -3.31003 1.41805 0
M  V30 11630 C 1088.87 -3.38827 2.95831 0
M  V30 11631 C 1090.19 -4.26984 1.06645 0
M  V30 11632 H 1087.31 -0.666879 0.313754 0
M  V30 11633 H 1089.95 -1.31038 1.37583 0
M  V30 11634 H 1088.1 -3.75961 0.979054 0
M  V30 11635 H 1089.77 -3.02451 3.48312 0
M  V30 11636 H 1088.02 -2.79143 3.32056 0
M  V30 11637 H 1088.69 -4.42508 3.29986 0
M  V30 11638 H 1091.16 -3.9019 1.44537 0
M  V30 11639 H 1090.04 -5.2846 1.48394 0
M  V30 11640 H 1090.3 -4.42094 -0.0231866 0
M  V30 11641 N 1089.36 -0.901303 -1.29284 0
M  V30 11642 C 1090.59 -0.543511 -1.99634 0
M  V30 11643 C 1091 0.872154 -1.67448 0
M  V30 11644 O 1090.36 1.57591 -0.920406 0
M  V30 11645 C 1090.41 -0.728148 -3.54091 0
M  V30 11646 O 1090.13 -2.08809 -3.85137 0
M  V30 11647 C 1091.63 -0.375519 -4.41707 0
M  V30 11648 H 1088.85 -0.208405 -0.637815 0
M  V30 11649 H 1091.4 -1.21109 -1.64781 0
M  V30 11650 H 1089.55 -0.107728 -3.8725 0
M  V30 11651 H 1089.97 -2.11863 -4.79807 0
M  V30 11652 H 1091.44 -0.555538 -5.49197 0
M  V30 11653 H 1091.92 0.687532 -4.33785 0
M  V30 11654 H 1092.52 -0.972949 -4.14021 0
M  V30 11655 N 1090.84 1.42931 -0.663954 0
M  V30 11656 C 1092.07 2.06028 -0.189808 0
M  V30 11657 C 1092.48 1.49827 1.14879 0
M  V30 11658 O 1091.84 0.633778 1.71142 0
M  V30 11659 C 1091.89 3.61349 -0.104343 0
M  V30 11660 O 1091.61 4.15463 -1.39004 0
M  V30 11661 C 1093.11 4.4154 0.394599 0
M  V30 11662 H 1090.33 0.664259 -0.0948744 0
M  V30 11663 H 1092.87 1.83255 -0.907632 0
M  V30 11664 H 1091.03 3.83271 0.564103 0
M  V30 11665 H 1091.44 5.09233 -1.25626 0
M  V30 11666 H 1092.92 5.50525 0.403329 0
M  V30 11667 H 1093.39 4.1534 1.4279 0
M  V30 11668 H 1094 4.24612 -0.241729 0
M  V30 11669 N 1092.32 0.406567 1.52266 0
M  V30 11670 C 1093.56 -0.170053 2.01785 0
M  V30 11671 C 1093.89 -1.45361 1.2923 0
M  V30 11672 O 1093.15 -1.91849 0.386342 0
M  V30 11673 C 1093.44 -0.467124 3.54334 0
M  V30 11674 C 1093.11 0.72693 4.45002 0
M  V30 11675 C 1091.77 1.05446 4.69505 0
M  V30 11676 C 1094.12 1.52493 4.98393 0
M  V30 11677 C 1091.45 2.18123 5.44646 0
M  V30 11678 C 1093.8 2.64244 5.74768 0
M  V30 11679 C 1092.47 2.97486 5.97544 0
M  V30 11680 H 1091.74 -0.0622267 0.738383 0
M  V30 11681 H 1094.39 0.54746 1.83508 0
M  V30 11682 H 1092.69 -1.26617 3.70777 0
M  V30 11683 H 1094.39 -0.926194 3.90157 0
M  V30 11684 H 1090.98 0.461666 4.26106 0
M  V30 11685 H 1095.16 1.28512 4.79373 0
M  V30 11686 H 1090.42 2.44228 5.60502 0
M  V30 11687 H 1094.59 3.26468 6.15136 0
M  V30 11688 H 1092.22 3.84913 6.5555 0
M  V30 11689 N 1093.79 -1.57004 0.136909 0
M  V30 11690 C 1094.74 -2.17524 -0.823784 0
M  V30 11691 C 1095.74 -1.1294 -1.26258 0
M  V30 11692 O 1096.94 -1.3121 -1.23223 0
M  V30 11693 H 1093.32 -0.696381 -0.283827 0
M  V30 11694 H 1095.29 -2.96997 -0.289052 0
M  V30 11695 C 1094.04 -2.80331 -2.05693 0
M  V30 11696 H 1093.36 -3.60515 -1.72825 0
M  V30 11697 H 1094.8 -3.26192 -2.70878 0
M  V30 11698 C 1093.26 -1.78322 -2.85837 0
M  V30 11699 O 1093.79 -1.2475 -3.81838 0
M  V30 11700 N 1092 -1.47854 -2.50175 0
M  V30 11701 H 1091.54 -1.9161 -1.72173 0
M  V30 11702 H 1091.5 -0.798464 -3.04092 0
M  V30 11703 N 1095.27 0.136881 -1.57004 0
M  V30 11704 C 1096.52 0.846257 -1.83088 0
M  V30 11705 C 1096.83 1.81876 -0.719765 0
M  V30 11706 O 1098.04 2.57302 -0.866494 0
M  V30 11707 C 1096.5 1.55559 -3.24545 0
M  V30 11708 C 1096.1 0.624989 -4.43619 0
M  V30 11709 C 1097.85 2.25115 -3.59893 0
M  V30 11710 C 1095.76 1.33653 -5.761 0
M  V30 11711 H 1094.69 0.319768 -0.682836 0
M  V30 11712 H 1097.34 0.0989741 -1.83233 0
M  V30 11713 H 1095.72 2.34887 -3.18817 0
M  V30 11714 H 1096.89 -0.133783 -4.60606 0
M  V30 11715 H 1095.21 0.0373216 -4.16383 0
M  V30 11716 H 1097.8 2.79008 -4.56134 0
M  V30 11717 H 1098.15 3.02084 -2.86446 0
M  V30 11718 H 1098.68 1.52696 -3.67327 0
M  V30 11719 H 1095.42 0.608495 -6.5267 0
M  V30 11720 H 1094.94 2.06776 -5.63031 0
M  V30 11721 H 1096.62 1.87467 -6.19246 0
M  V30 11722 N 1096.75 1.52266 0.40654 0
M  V30 11723 C 1098.03 1.57018 1.1664 0
M  V30 11724 C 1098.41 0.352752 2.08132 0
M  V30 11725 O 1097.76 -0.660208 2.18754 0
M  V30 11726 C 1097.97 2.90016 1.94143 0
M  V30 11727 C 1099.31 3.43112 2.50119 0
M  V30 11728 O 1100.34 2.91773 2.0432 0
M  V30 11729 O 1099.2 4.32765 3.33731 0
M  V30 11730 H 1096.29 0.632574 0.532709 0
M  V30 11731 H 1098.84 1.64595 0.413111 0
M  V30 11732 H 1097.61 3.70071 1.27134 0
M  V30 11733 H 1097.23 2.85744 2.76471 0
M  V30 11734 N 1098.23 -0.663929 1.42933 0
M  V30 11735 C 1099.51 -1.42054 1.34462 0
M  V30 11736 C 1099.89 -2.11096 -0.0127801 0
M  V30 11737 O 1099.23 -2.04027 -1.02884 0
M  V30 11738 C 1099.44 -2.41406 2.5204 0
M  V30 11739 C 1100.79 -3.05726 2.94647 0
M  V30 11740 O 1101.82 -2.51733 2.52009 0
M  V30 11741 O 1100.67 -4.03593 3.68477 0
M  V30 11742 H 1097.77 -0.634149 0.530834 0
M  V30 11743 H 1100.31 -0.691738 1.54962 0
M  V30 11744 H 1099.09 -1.89263 3.42484 0
M  V30 11745 H 1098.71 -3.21752 2.33584 0
M  V30 11746 N 1099.71 -1.29285 -0.901281 0
M  V30 11747 C 1100.64 -1.10086 -2.01032 0
M  V30 11748 C 1101.65 -0.0488364 -1.62727 0
M  V30 11749 O 1102.84 -0.293194 -1.76076 0
M  V30 11750 C 1099.94 -0.653357 -3.32542 0
M  V30 11751 C 1099.11 -1.78355 -3.99385 0
M  V30 11752 C 1098.17 -1.32733 -5.09184 0
M  V30 11753 O 1097.2 -2.03177 -5.31703 0
M  V30 11754 N 1098.4 -0.197345 -5.80164 0
M  V30 11755 H 1101.17 -2.056 -2.18057 0
M  V30 11756 H 1098.73 -1.21204 -1.07337 0
M  V30 11757 H 1100.72 -0.331491 -4.0334 0
M  V30 11758 H 1099.29 0.209278 -3.11899 0
M  V30 11759 H 1098.51 -2.27438 -3.21972 0
M  V30 11760 H 1099.8 -2.54137 -4.40785 0
M  V30 11761 H 1099.19 0.390011 -5.64354 0
M  V30 11762 H 1097.75 0.0651642 -6.51767 0
M  V30 11763 N 1101.18 1.11143 -1.11736 0
M  V30 11764 C 1102.41 1.86474 -0.889435 0
M  V30 11765 C 1102.82 1.80584 0.564438 0
M  V30 11766 O 1102.17 1.18743 1.40163 0
M  V30 11767 C 1102.23 3.36066 -1.27671 0
M  V30 11768 C 1101.89 3.65721 -2.74038 0
M  V30 11769 C 1102.89 3.62941 -3.7225 0
M  V30 11770 C 1100.57 3.94629 -3.10762 0
M  V30 11771 C 1102.57 3.88651 -5.05202 0
M  V30 11772 C 1100.25 4.19997 -4.43899 0
M  V30 11773 C 1101.25 4.16996 -5.40928 0
M  V30 11774 O 1100.94 4.41724 -6.71666 0
M  V30 11775 H 1100.67 0.596438 -0.318178 0
M  V30 11776 H 1103.23 1.41465 -1.48918 0
M  V30 11777 H 1101.46 3.81695 -0.620124 0
M  V30 11778 H 1103.15 3.92769 -1.02409 0
M  V30 11779 H 1103.91 3.40655 -3.45223 0
M  V30 11780 H 1099.79 3.96099 -2.35853 0
M  V30 11781 H 1103.33 3.86224 -5.80927 0
M  V30 11782 H 1099.23 4.4176 -4.70657 0
M  V30 11783 H 1100 4.59276 -6.77501 0
M  V30 11784 N 1102.66 0.908147 1.28804 0
M  V30 11785 C 1103.59 0.409106 2.29888 0
M  V30 11786 C 1104.57 -0.520338 1.61946 0
M  V30 11787 O 1105.76 -0.429268 1.89396 0
M  V30 11788 C 1102.89 -0.35669 3.45463 0
M  V30 11789 C 1101.84 0.4831 4.25265 0
M  V30 11790 C 1101.17 -0.4107 5.3312 0
M  V30 11791 C 1102.47 1.73744 4.92555 0
M  V30 11792 H 1104.16 1.25386 2.7188 0
M  V30 11793 H 1101.71 0.604368 1.30703 0
M  V30 11794 H 1103.66 -0.71661 4.15262 0
M  V30 11795 H 1102.39 -1.2353 3.02337 0
M  V30 11796 H 1101.04 0.825464 3.57186 0
M  V30 11797 H 1100.69 -1.28769 4.86238 0
M  V30 11798 H 1100.39 0.14756 5.87415 0
M  V30 11799 H 1101.92 -0.766626 6.05768 0
M  V30 11800 H 1103.33 1.44676 5.54745 0
M  V30 11801 H 1101.73 2.23767 5.5682 0
M  V30 11802 H 1102.8 2.46853 4.17363 0
M  V30 11803 N 1104.14 -1.42577 0.671525 0
M  V30 11804 C 1105.07 -2.33499 0.00506984 0
M  V30 11805 C 1106.05 -1.50497 -0.792763 0
M  V30 11806 O 1107.24 -1.79109 -0.750574 0
M  V30 11807 C 1104.37 -3.34077 -0.949194 0
M  V30 11808 C 1103.32 -4.27208 -0.260187 0
M  V30 11809 C 1102.65 -5.17968 -1.32716 0
M  V30 11810 C 1103.95 -5.15192 0.858772 0
M  V30 11811 H 1105.64 -2.89477 0.764407 0
M  V30 11812 H 1103.19 -1.39191 0.369043 0
M  V30 11813 H 1105.14 -3.96594 -1.42448 0
M  V30 11814 H 1103.86 -2.76396 -1.73991 0
M  V30 11815 H 1102.52 -3.66082 0.194834 0
M  V30 11816 H 1102.17 -4.56615 -2.10979 0
M  V30 11817 H 1101.87 -5.81104 -0.871293 0
M  V30 11818 H 1103.39 -5.83359 -1.80345 0
M  V30 11819 H 1104.81 -5.71412 0.464844 0
M  V30 11820 H 1103.21 -5.87144 1.24023 0
M  V30 11821 H 1104.28 -4.53787 1.70895 0
M  V30 11822 N 1105.62 -0.414636 -1.52048 0
M  V30 11823 C 1106.87 0.159034 -2.01473 0
M  V30 11824 C 1107.19 1.45176 -1.30188 0
M  V30 11825 O 1106.46 1.91134 -0.429469 0
M  V30 11826 H 1105.04 0.0617604 -0.744443 0
M  V30 11827 H 1107.7 -0.552141 -1.86916 0
M  V30 11828 H 1106.8 0.351217 -3.10118 0
M  V30 11829 N 1107.1 1.56929 -0.145233 0
M  V30 11830 C 1108.37 1.8767 0.551288 0
M  V30 11831 C 1108.75 1.05089 1.83083 0
M  V30 11832 O 1108.1 0.137201 2.28088 0
M  V30 11833 C 1108.31 3.39268 0.818445 0
M  V30 11834 C 1109.66 4.08447 1.16 0
M  V30 11835 O 1110.68 3.44436 0.907857 0
M  V30 11836 O 1109.54 5.21488 1.63441 0
M  V30 11837 H 1106.64 0.777788 0.281024 0
M  V30 11838 H 1109.18 1.68724 -0.181712 0
M  V30 11839 H 1107.95 3.91203 -0.0871897 0
M  V30 11840 H 1107.58 3.63735 1.60569 0
M  V30 11841 N 1108.58 -0.128553 1.57075 0
M  V30 11842 C 1109.54 -1.14215 1.98715 0
M  V30 11843 C 1110.54 -1.34843 0.876019 0
M  V30 11844 O 1111.73 -1.31522 1.14227 0
M  V30 11845 C 1108.86 -2.49865 2.31905 0
M  V30 11846 H 1110.05 -0.784481 2.89458 0
M  V30 11847 H 1107.61 -0.372531 1.51796 0
M  V30 11848 H 1108.34 -2.9057 1.44012 0
M  V30 11849 H 1108.13 -2.3625 3.12935 0
M  V30 11850 H 1109.62 -3.22832 2.64895 0
M  V30 11851 N 1110.05 -1.5248 -0.398459 0
M  V30 11852 C 1110.98 -1.79549 -1.49279 0
M  V30 11853 C 1111.96 -0.647004 -1.57315 0
M  V30 11854 O 1113.15 -0.893661 -1.72416 0
M  V30 11855 C 1110.28 -1.95582 -2.86993 0
M  V30 11856 C 1109.23 -3.1123 -2.93803 0
M  V30 11857 C 1108.56 -3.12501 -4.33874 0
M  V30 11858 C 1109.86 -4.50485 -2.64312 0
M  V30 11859 H 1111.55 -2.71187 -1.26877 0
M  V30 11860 H 1109.1 -1.30492 -0.608924 0
M  V30 11861 H 1111.05 -2.13102 -3.63546 0
M  V30 11862 H 1109.78 -1.00625 -3.10712 0
M  V30 11863 H 1108.44 -2.93477 -2.19697 0
M  V30 11864 H 1108.08 -2.15245 -4.54619 0
M  V30 11865 H 1107.78 -3.90183 -4.39353 0
M  V30 11866 H 1109.31 -3.32164 -5.12347 0
M  V30 11867 H 1110.72 -4.68387 -3.30585 0
M  V30 11868 H 1109.12 -5.30163 -2.81153 0
M  V30 11869 H 1110.19 -4.57848 -1.59696 0
M  V30 11870 N 1111.53 0.65634 -1.43283 0
M  V30 11871 C 1112.46 1.78101 -1.51004 0
M  V30 11872 C 1113.44 1.66138 -0.36498 0
M  V30 11873 O 1114.63 1.85281 -0.581778 0
M  V30 11874 C 1111.76 3.16511 -1.42961 0
M  V30 11875 C 1110.71 3.43233 -2.55685 0
M  V30 11876 C 1110.04 4.81411 -2.32696 0
M  V30 11877 C 1111.34 3.38288 -3.97943 0
M  V30 11878 H 1113.03 1.71896 -2.45137 0
M  V30 11879 H 1110.58 0.825575 -1.17984 0
M  V30 11880 H 1112.53 3.94941 -1.46968 0
M  V30 11881 H 1111.25 3.23439 -0.45332 0
M  V30 11882 H 1109.91 2.67173 -2.51026 0
M  V30 11883 H 1109.56 4.85011 -1.33317 0
M  V30 11884 H 1109.26 5.00251 -3.08257 0
M  V30 11885 H 1110.79 5.62102 -2.38481 0
M  V30 11886 H 1112.2 4.06659 -4.04106 0
M  V30 11887 H 1110.6 3.68664 -4.73505 0
M  V30 11888 H 1111.67 2.36525 -4.23301 0
M  V30 11889 N 1113.01 1.29761 0.894412 0
M  V30 11890 C 1114.26 1.18214 1.64782 0
M  V30 11891 C 1114.59 -0.264635 1.92388 0
M  V30 11892 O 1113.86 -1.19051 1.53809 0
M  V30 11893 C 1114.15 2.00138 2.99361 0
M  V30 11894 C 1114 3.52984 2.78787 0
M  V30 11895 C 1115.32 1.83187 4.00163 0
M  V30 11896 H 1112.44 0.430802 0.597979 0
M  V30 11897 H 1115.08 1.59292 1.03566 0
M  V30 11898 H 1113.23 1.65233 3.51611 0
M  V30 11899 H 1114.9 3.97898 2.33398 0
M  V30 11900 H 1113.14 3.77642 2.13469 0
M  V30 11901 H 1113.82 4.05585 3.7444 0
M  V30 11902 H 1116.29 2.13684 3.57041 0
M  V30 11903 H 1115.17 2.42849 4.92255 0
M  V30 11904 H 1115.43 0.788469 4.35012 0
M  V30 11905 N 1114.49 -1.10549 1.12324 0
M  V30 11906 C 1115.44 -2.14997 0.758979 0
M  V30 11907 C 1116.42 -1.59078 -0.241461 0
M  V30 11908 O 1117.61 -1.76937 -0.0471439 0
M  V30 11909 C 1114.74 -3.42633 0.21395 0
M  V30 11910 C 1113.83 -4.05487 1.24261 0
M  V30 11911 N 1114.22 -4.43064 2.43984 0
M  V30 11912 C 1112.52 -4.32534 1.08769 0
M  V30 11913 C 1113.22 -4.92427 3.09662 0
M  V30 11914 N 1112.19 -4.89161 2.37114 0
M  V30 11915 H 1116 -2.4184 1.67005 0
M  V30 11916 H 1113.51 -1.27659 1.00384 0
M  V30 11917 H 1115.51 -4.16849 -0.0651928 0
M  V30 11918 H 1114.17 -3.17249 -0.691591 0
M  V30 11919 H 1115.18 -4.34797 2.81375 0
M  V30 11920 H 1111.86 -4.16813 0.239354 0
M  V30 11921 H 1113.25 -5.31059 4.11614 0
M  V30 11922 N 1115.97 -0.914965 -1.28321 0
M  V30 11923 C 1117.38 -0.59512 -1.76961 0
M  V30 11924 C 1117.73 0.88958 -1.74874 0
M  V30 11925 O 1116.85 1.6959 -1.34418 0
M  V30 11926 C 1117.45 -1.07353 -3.21342 0
M  V30 11927 C 1116.01 -0.804577 -3.677 0
M  V30 11928 C 1115.15 -1.23955 -2.48053 0
M  V30 11929 H 1118.1 -1.0961 -1.14767 0
M  V30 11930 H 1118.13 -0.415506 -3.78225 0
M  V30 11931 H 1117.64 -2.15413 -3.22829 0
M  V30 11932 H 1115.74 0.26277 -3.71672 0
M  V30 11933 H 1115.85 -1.41317 -4.57784 0
M  V30 11934 H 1114.22 -0.658274 -2.46046 0
M  V30 11935 H 1115 -2.32853 -2.52258 0
M  V30 11936 N 1117.44 1.42219 -0.679077 0
M  V30 11937 C 1118.69 2.01777 -0.20342 0
M  V30 11938 C 1119.02 1.53592 1.18841 0
M  V30 11939 O 1118.3 0.739954 1.79875 0
M  V30 11940 C 1118.58 3.59281 -0.242791 0
M  V30 11941 C 1118.43 4.17634 -1.67038 0
M  V30 11942 C 1119.75 4.38218 0.406624 0
M  V30 11943 H 1116.87 0.733134 -0.0753916 0
M  V30 11944 H 1119.51 1.69185 -0.864673 0
M  V30 11945 H 1117.66 3.87178 0.320248 0
M  V30 11946 H 1119.34 4.00674 -2.286 0
M  V30 11947 H 1117.58 3.73301 -2.20973 0
M  V30 11948 H 1118.25 5.26776 -1.64958 0
M  V30 11949 H 1120.73 4.16036 -0.0727077 0
M  V30 11950 H 1119.6 5.47793 0.348457 0
M  V30 11951 H 1119.86 4.16418 1.48487 0
M  V30 11952 N 1118.92 0.422693 1.51826 0
M  V30 11953 C 1120.15 -0.15017 2.06856 0
M  V30 11954 C 1120.57 -1.36946 1.28948 0
M  V30 11955 O 1119.93 -1.78393 0.32338 0
M  V30 11956 C 1119.98 -0.465563 3.57582 0
M  V30 11957 O 1119.08 -1.55442 3.81984 0
M  V30 11958 H 1118.42 -0.00827931 0.663948 0
M  V30 11959 H 1120.95 0.599806 1.95611 0
M  V30 11960 H 1120.96 -0.720279 4.01592 0
M  V30 11961 H 1119.64 0.425679 4.13716 0
M  V30 11962 H 1118.21 -1.29081 3.49846 0
M  V30 11963 N 1120.4 -1.5685 0.153553 0
M  V30 11964 C 1121.68 -1.8796 -0.541328 0
M  V30 11965 C 1122.06 -1.06059 -1.82523 0
M  V30 11966 O 1121.4 -0.149295 -2.28012 0
M  V30 11967 C 1121.61 -3.39697 -0.800442 0
M  V30 11968 C 1122.96 -4.09057 -1.13832 0
M  V30 11969 O 1123.99 -3.44913 -0.889578 0
M  V30 11970 O 1122.85 -5.22347 -1.60673 0
M  V30 11971 H 1119.94 -0.779268 -0.276895 0
M  V30 11972 H 1122.49 -1.68626 0.190657 0
M  V30 11973 H 1121.26 -3.91151 0.107935 0
M  V30 11974 H 1120.88 -3.64582 -1.58638 0
M  V30 11975 N 1121.88 0.120221 -1.57141 0
M  V30 11976 C 1123.1 0.84637 -1.89344 0
M  V30 11977 C 1123.53 1.72702 -0.745365 0
M  V30 11978 O 1122.89 1.7873 0.304155 0
M  V30 11979 C 1122.93 1.65671 -3.20289 0
M  V30 11980 O 1122.04 2.76353 -3.06109 0
M  V30 11981 H 1121.38 0.234132 -0.621352 0
M  V30 11982 H 1123.91 0.102986 -2.04341 0
M  V30 11983 H 1123.92 2.04621 -3.52979 0
M  V30 11984 H 1122.59 1.01023 -4.03444 0
M  V30 11985 H 1121.17 2.40615 -2.84884 0
M  V30 11986 N 1123.36 1.52689 0.390367 0
M  V30 11987 C 1124.6 1.67335 1.13329 0
M  V30 11988 C 1124.93 0.415068 1.90531 0
M  V30 11989 O 1124.2 -0.570504 1.87409 0
M  V30 11990 H 1122.78 0.616821 0.421356 0
M  V30 11991 H 1125.44 1.89799 0.443 0
M  V30 11992 H 1124.53 2.52314 1.83696 0
M  V30 11993 N 1124.83 -0.648732 1.43629 0
M  V30 11994 C 1125.8 -1.74331 1.488 0
M  V30 11995 C 1126.8 -1.56434 0.372147 0
M  V30 11996 O 1127.99 -1.6225 0.634078 0
M  V30 11997 C 1125.12 -3.13248 1.34494 0
M  V30 11998 H 1126.31 -1.71125 2.46285 0
M  V30 11999 H 1123.87 -0.860798 1.30461 0
M  V30 12000 H 1124.6 -3.22062 0.380345 0
M  V30 12001 H 1124.39 -3.27643 2.15389 0
M  V30 12002 H 1125.88 -3.93056 1.41055 0
M  V30 12003 N 1126.31 -1.30234 -0.887518 0
M  V30 12004 C 1127.26 -1.13013 -1.9802 0
M  V30 12005 C 1128.25 -0.0460253 -1.60834 0
M  V30 12006 O 1129.44 -0.26907 -1.74943 0
M  V30 12007 C 1126.57 -0.821397 -3.33329 0
M  V30 12008 C 1125.65 -1.94564 -3.76837 0
M  V30 12009 N 1126.04 -3.19068 -3.92465 0
M  V30 12010 C 1124.34 -1.84142 -4.06211 0
M  V30 12011 C 1125.04 -3.92495 -4.29328 0
M  V30 12012 N 1124.02 -3.20526 -4.39049 0
M  V30 12013 H 1127.82 -2.07446 -2.0819 0
M  V30 12014 H 1125.34 -1.21536 -1.07716 0
M  V30 12015 H 1127.33 -0.679046 -4.11333 0
M  V30 12016 H 1125.99 0.114891 -3.24497 0
M  V30 12017 H 1127 -3.54386 -3.77665 0
M  V30 12018 H 1123.68 -0.97865 -4.05868 0
M  V30 12019 H 1125.07 -4.99701 -4.49164 0
M  V30 12020 N 1127.79 1.09952 -1.12909 0
M  V30 12021 C 1129.04 1.81657 -0.885729 0
M  V30 12022 C 1129.36 1.85863 0.589913 0
M  V30 12023 O 1128.63 1.34028 1.42875 0
M  V30 12024 H 1127.21 0.672743 -0.324694 0
M  V30 12025 H 1129.87 1.33013 -1.42456 0
M  V30 12026 H 1128.97 2.85018 -1.27167 0
M  V30 12027 N 1129.27 0.921757 1.27833 0
M  V30 12028 C 1130.51 0.559906 1.94918 0
M  V30 12029 C 1130.85 -0.895532 1.72319 0
M  V30 12030 O 1130.12 -1.638 1.04879 0
M  V30 12031 C 1130.41 0.879458 3.49196 0
M  V30 12032 C 1130.26 2.38821 3.81162 0
M  V30 12033 C 1131.58 0.381183 4.38446 0
M  V30 12034 H 1128.7 0.204893 0.707946 0
M  V30 12035 H 1131.34 1.15246 1.51058 0
M  V30 12036 H 1129.49 0.375177 3.86684 0
M  V30 12037 H 1131.16 2.96373 3.53498 0
M  V30 12038 H 1129.4 2.83988 3.27923 0
M  V30 12039 H 1130.07 2.56234 4.88926 0
M  V30 12040 H 1132.55 0.813289 4.08075 0
M  V30 12041 H 1131.43 0.633778 5.45229 0
M  V30 12042 H 1131.69 -0.718651 4.3622 0
M  V30 12043 N 1130.75 -1.41857 0.686609 0
M  V30 12044 C 1131.68 -2.29188 -0.0234289 0
M  V30 12045 C 1132.69 -1.44311 -0.753541 0
M  V30 12046 O 1133.88 -1.67908 -0.605734 0
M  V30 12047 C 1130.98 -3.21991 -1.05713 0
M  V30 12048 C 1130.15 -4.35581 -0.398453 0
M  V30 12049 C 1129.21 -5.09022 -1.33354 0
M  V30 12050 O 1128.24 -5.63126 -0.829334 0
M  V30 12051 N 1129.44 -5.15643 -2.66632 0
M  V30 12052 H 1132.21 -2.90766 0.726295 0
M  V30 12053 H 1129.77 -1.52912 0.531937 0
M  V30 12054 H 1131.76 -3.6799 -1.68421 0
M  V30 12055 H 1130.33 -2.61782 -1.70847 0
M  V30 12056 H 1129.55 -3.92079 0.408358 0
M  V30 12057 H 1130.84 -5.08765 0.0599239 0
M  V30 12058 H 1130.23 -4.73118 -3.10122 0
M  V30 12059 H 1128.79 -5.65248 -3.24558 0
M  V30 12060 N 1132.22 -0.430739 -1.51599 0
M  V30 12061 C 1133.47 0.138133 -2.02329 0
M  V30 12062 C 1133.8 1.42934 -1.31466 0
M  V30 12063 O 1133.08 1.89743 -0.427551 0
M  V30 12064 C 1133.36 0.363677 -3.58259 0
M  V30 12065 C 1133.21 -0.94572 -4.39746 0
M  V30 12066 C 1134.53 1.13637 -4.25176 0
M  V30 12067 H 1131.65 0.0487287 -0.735387 0
M  V30 12068 H 1134.29 -0.568444 -1.81297 0
M  V30 12069 H 1132.44 0.965552 -3.7631 0
M  V30 12070 H 1134.12 -1.58107 -4.33359 0
M  V30 12071 H 1132.36 -1.55183 -4.05094 0
M  V30 12072 H 1133.03 -0.742031 -5.4699 0
M  V30 12073 H 1135.51 0.626608 -4.11355 0
M  V30 12074 H 1134.38 1.26294 -5.34173 0
M  V30 12075 H 1134.64 2.16273 -3.85588 0
M  V30 12076 N 1133.7 1.56767 -0.161869 0
M  V30 12077 C 1134.93 2.00673 0.491314 0
M  V30 12078 C 1135.34 1.04111 1.5798 0
M  V30 12079 O 1134.68 0.0324889 1.83671 0
M  V30 12080 C 1134.75 3.41011 1.13806 0
M  V30 12081 C 1134.41 4.56595 0.192384 0
M  V30 12082 C 1135.41 5.16591 -0.585671 0
M  V30 12083 C 1133.09 5.02218 0.0909594 0
M  V30 12084 C 1135.09 6.20631 -1.45245 0
M  V30 12085 C 1132.77 6.06109 -0.77941 0
M  V30 12086 C 1133.77 6.65187 -1.54971 0
M  V30 12087 O 1133.46 7.67065 -2.40555 0
M  V30 12088 H 1133.19 0.663174 0.131059 0
M  V30 12089 H 1135.74 2.03775 -0.257896 0
M  V30 12090 H 1133.97 3.34793 1.93521 0
M  V30 12091 H 1135.66 3.68931 1.69248 0
M  V30 12092 H 1136.43 4.82232 -0.517432 0
M  V30 12093 H 1132.31 4.55953 0.680292 0
M  V30 12094 H 1135.85 6.66671 -2.05415 0
M  V30 12095 H 1131.75 6.39894 -0.848887 0
M  V30 12096 H 1132.52 7.84348 -2.33966 0
M  V30 12097 N 1135.18 -0.111886 1.57202 0
M  V30 12098 C 1136.11 -1.13796 2.03894 0
M  V30 12099 C 1137.09 -1.4277 0.924696 0
M  V30 12100 O 1138.28 -1.53089 1.19488 0
M  V30 12101 C 1135.41 -2.46229 2.44925 0
M  V30 12102 C 1134.36 -2.31702 3.59859 0
M  V30 12103 C 1133.69 -3.69161 3.86813 0
M  V30 12104 C 1134.99 -1.77158 4.91337 0
M  V30 12105 H 1136.68 -0.749581 2.89865 0
M  V30 12106 H 1134.23 -0.359126 1.3945 0
M  V30 12107 H 1136.18 -3.18267 2.76195 0
M  V30 12108 H 1134.9 -2.86971 1.55933 0
M  V30 12109 H 1133.56 -1.62112 3.28809 0
M  V30 12110 H 1133.21 -4.07401 2.95015 0
M  V30 12111 H 1132.91 -3.60292 4.6418 0
M  V30 12112 H 1134.43 -4.42693 4.20542 0
M  V30 12113 H 1135.85 -2.3902 5.21097 0
M  V30 12114 H 1134.25 -1.79091 5.72753 0
M  V30 12115 H 1135.32 -0.729675 4.79379 0
M  V30 12116 N 1136.66 -1.52894 -0.382264 0
M  V30 12117 C 1138.07 -1.60135 -0.959887 0
M  V30 12118 C 1138.42 -0.458363 -1.90771 0
M  V30 12119 O 1137.55 0.417614 -2.12332 0
M  V30 12120 C 1138.14 -2.90243 -1.74769 0
M  V30 12121 C 1136.7 -2.99874 -2.27491 0
M  V30 12122 C 1135.85 -2.55302 -1.0824 0
M  V30 12123 H 1138.8 -1.57875 -0.161589 0
M  V30 12124 H 1138.82 -2.77108 -2.60751 0
M  V30 12125 H 1138.33 -3.73412 -1.0576 0
M  V30 12126 H 1136.43 -2.21258 -2.99793 0
M  V30 12127 H 1136.54 -4.04643 -2.56516 0
M  V30 12128 H 1134.91 -2.09781 -1.44444 0
M  V30 12129 H 1135.69 -3.40872 -0.407553 0
M  V30 12130 N 1138.14 0.641106 -1.43971 0
M  V30 12131 C 1139.39 1.39807 -1.4594 0
M  V30 12132 C 1139.71 1.94795 -0.0893874 0
M  V30 12133 O 1138.98 1.75175 0.876962 0
M  V30 12134 H 1137.56 0.518908 -0.537349 0
M  V30 12135 H 1140.22 0.755278 -1.79671 0
M  V30 12136 H 1139.31 2.23439 -2.17903 0
M  V30 12137 N 1139.62 1.30703 0.880598 0
M  V30 12138 C 1140.55 1.1327 1.99255 0
M  V30 12139 C 1141.56 0.0747186 1.62628 0
M  V30 12140 O 1142.75 0.321169 1.75587 0
M  V30 12141 C 1139.85 0.706179 3.31461 0
M  V30 12142 C 1139.02 1.84687 3.96497 0
M  V30 12143 C 1138.08 1.40817 5.07008 0
M  V30 12144 O 1137.11 2.1161 5.28403 0
M  V30 12145 N 1138.31 0.289619 5.79777 0
M  V30 12146 H 1141.07 2.09043 2.14759 0
M  V30 12147 H 1138.64 1.22896 1.05395 0
M  V30 12148 H 1140.63 0.395617 4.02762 0
M  V30 12149 H 1139.2 -0.159631 3.12192 0
M  V30 12150 H 1138.42 2.32531 3.18312 0
M  V30 12151 H 1139.71 2.61117 4.36687 0
M  V30 12152 H 1139.1 -0.300177 5.64903 0
M  V30 12153 H 1137.66 0.0385346 6.51789 0
M  V30 12154 N 1141.09 -1.09351 1.1349 0
M  V30 12155 C 1142.34 -1.81185 0.89535 0
M  V30 12156 C 1142.66 -1.86173 -0.580048 0
M  V30 12157 O 1141.93 -1.34784 -1.42162 0
M  V30 12158 H 1140.51 -0.671011 0.328257 0
M  V30 12159 H 1143.17 -1.32255 1.43159 0
M  V30 12160 H 1142.27 -2.84339 1.28676 0
M  V30 12161 N 1142.57 -0.928524 -1.27343 0
M  V30 12162 C 1143.48 -0.433901 -2.30553 0
M  V30 12163 C 1144.5 0.485832 -1.6708 0
M  V30 12164 O 1145.67 0.36844 -1.98001 0
M  V30 12165 C 1142.74 0.304617 -3.45359 0
M  V30 12166 C 1141.8 -0.650131 -4.24349 0
M  V30 12167 C 1141.03 0.0532372 -5.33673 0
M  V30 12168 O 1141.26 1.27246 -5.56026 0
M  V30 12169 O 1140.19 -0.619009 -5.98709 0
M  V30 12170 H 1144.02 -1.2909 -2.74899 0
M  V30 12171 H 1141.6 -0.693903 -1.32308 0
M  V30 12172 H 1143.48 0.721137 -4.15184 0
M  V30 12173 H 1142.16 1.13721 -3.03066 0
M  V30 12174 H 1141.06 -1.11635 -3.57055 0
M  V30 12175 H 1142.4 -1.44996 -4.70358 0
M  V30 12176 N 1144.05 1.41491 -0.694123 0
M  V30 12177 C 1145.3 2.0155 -0.224809 0
M  V30 12178 C 1145.63 1.54844 1.17205 0
M  V30 12179 O 1144.9 0.75899 1.7908 0
M  V30 12180 C 1145.19 3.59003 -0.280884 0
M  V30 12181 C 1145.04 4.15839 -1.71458 0
M  V30 12182 C 1146.36 4.38624 0.360122 0
M  V30 12183 H 1143.48 0.732293 -0.0831632 0
M  V30 12184 H 1146.12 1.68258 -0.882569 0
M  V30 12185 H 1144.27 3.87496 0.279164 0
M  V30 12186 H 1145.94 3.98227 -2.32837 0
M  V30 12187 H 1144.18 3.70936 -2.2492 0
M  V30 12188 H 1144.86 5.24997 -1.70536 0
M  V30 12189 H 1147.33 4.15936 -0.11683 0
M  V30 12190 H 1146.21 5.48132 0.290337 0
M  V30 12191 H 1146.47 4.1797 1.44062 0
M  V30 12192 N 1145.53 0.438773 1.51369 0
M  V30 12193 C 1146.77 -0.119657 2.03048 0
M  V30 12194 C 1147.13 -1.4026 1.317 0
M  V30 12195 O 1146.42 -1.86858 0.423612 0
M  V30 12196 C 1146.62 -0.39186 3.55245 0
M  V30 12197 C 1146.44 0.863149 4.41339 0
M  V30 12198 C 1145.21 1.39709 4.85602 0
M  V30 12199 C 1147.41 1.74969 4.83622 0
M  V30 12200 N 1145.39 2.60449 5.55913 0
M  V30 12201 C 1146.77 2.80313 5.53014 0
M  V30 12202 C 1148.82 1.76393 4.65607 0
M  V30 12203 C 1147.52 3.87029 6.06301 0
M  V30 12204 C 1149.55 2.82045 5.19812 0
M  V30 12205 C 1148.91 3.86109 5.89151 0
M  V30 12206 H 1145.01 -0.00458455 0.781987 0
M  V30 12207 H 1147.59 0.599764 1.85232 0
M  V30 12208 H 1145.77 -1.08032 3.73073 0
M  V30 12209 H 1147.5 -0.941775 3.93589 0
M  V30 12210 H 1144.25 0.950817 4.63957 0
M  V30 12211 H 1144.68 3.21678 5.95695 0
M  V30 12212 H 1149.32 0.972686 4.11459 0
M  V30 12213 H 1147.04 4.66991 6.59504 0
M  V30 12214 H 1150.62 2.84091 5.07724 0
M  V30 12215 H 1149.5 4.66518 6.30342 0
M  V30 12216 N 1147.01 -1.56678 0.170181 0
M  V30 12217 C 1148.24 -2.00931 -0.480664 0
M  V30 12218 C 1148.64 -1.04947 -1.57425 0
M  V30 12219 O 1147.99 -0.042229 -1.83651 0
M  V30 12220 C 1148.05 -3.4161 -1.11996 0
M  V30 12221 C 1147.71 -4.5669 -0.168167 0
M  V30 12222 C 1148.71 -5.16273 0.613059 0
M  V30 12223 C 1146.39 -5.02259 -0.0643243 0
M  V30 12224 C 1148.39 -6.19852 1.48534 0
M  V30 12225 C 1146.08 -6.05687 0.811542 0
M  V30 12226 C 1147.07 -6.64355 1.58496 0
M  V30 12227 O 1146.76 -7.65778 2.44619 0
M  V30 12228 H 1146.49 -0.66386 -0.12754 0
M  V30 12229 H 1149.05 -2.03635 0.2687 0
M  V30 12230 H 1147.28 -3.35815 -1.91743 0
M  V30 12231 H 1148.97 -3.69823 -1.67289 0
M  V30 12232 H 1149.73 -4.81951 0.542999 0
M  V30 12233 H 1145.61 -4.56307 -0.656102 0
M  V30 12234 H 1149.16 -6.65572 2.08948 0
M  V30 12235 H 1145.05 -6.39435 0.88281 0
M  V30 12236 H 1145.82 -7.83096 2.38122 0
M  V30 12237 N 1148.48 0.103547 -1.57259 0
M  V30 12238 C 1149.76 0.839768 -1.76656 0
M  V30 12239 C 1150.14 1.9734 -0.749666 0
M  V30 12240 O 1149.49 2.27405 0.223466 0
M  V30 12241 C 1149.7 1.34218 -3.22159 0
M  V30 12242 C 1151.05 1.78835 -3.85102 0
M  V30 12243 O 1152.07 1.43861 -3.25857 0
M  V30 12244 O 1150.93 2.43474 -4.89267 0
M  V30 12245 H 1148.02 0.399928 -0.723869 0
M  V30 12246 H 1150.57 0.0860857 -1.69482 0
M  V30 12247 H 1149.34 0.52956 -3.877 0
M  V30 12248 H 1148.96 2.15811 -3.33933 0
M  V30 12249 N 1149.96 1.53094 0.37415 0
M  V30 12250 C 1151.21 1.68082 1.11495 0
M  V30 12251 C 1151.52 0.434685 1.90709 0
M  V30 12252 O 1152.73 0.464956 2.67489 0
M  V30 12253 C 1151.19 2.97101 2.03124 0
M  V30 12254 C 1150.79 4.28947 1.29262 0
M  V30 12255 C 1152.54 3.21456 2.77248 0
M  V30 12256 C 1150.44 5.4906 2.19743 0
M  V30 12257 H 1149.37 0.626238 0.419931 0
M  V30 12258 H 1152.03 1.79594 0.376588 0
M  V30 12259 H 1150.41 2.79371 2.80656 0
M  V30 12260 H 1151.58 4.57279 0.568528 0
M  V30 12261 H 1149.9 4.10968 0.670362 0
M  V30 12262 H 1152.49 4.08377 3.45155 0
M  V30 12263 H 1152.84 2.37153 3.42146 0
M  V30 12264 H 1153.37 3.3982 2.06803 0
M  V30 12265 H 1150.11 6.35815 1.59437 0
M  V30 12266 H 1149.63 5.25019 2.90027 0
M  V30 12267 H 1151.31 5.83517 2.79495 0
M  V30 12268 N 1151.44 -0.633461 1.44309 0
M  V30 12269 C 1152.37 -1.75868 1.4698 0
M  V30 12270 C 1153.38 -1.58691 0.363469 0
M  V30 12271 O 1154.57 -1.67048 0.629075 0
M  V30 12272 C 1151.67 -3.1356 1.28582 0
M  V30 12273 C 1150.85 -3.57217 2.52418 0
M  V30 12274 C 1149.91 -4.73779 2.28954 0
M  V30 12275 O 1148.93 -4.8221 3.02428 0
M  V30 12276 N 1150.13 -5.65324 1.31866 0
M  V30 12277 H 1152.9 -1.74048 2.43983 0
M  V30 12278 H 1150.46 -0.817952 1.39718 0
M  V30 12279 H 1152.45 -3.89255 1.10736 0
M  V30 12280 H 1151.02 -3.10036 0.399529 0
M  V30 12281 H 1150.24 -2.71755 2.85557 0
M  V30 12282 H 1151.53 -3.83136 3.3479 0
M  V30 12283 H 1150.93 -5.61204 0.71179 0
M  V30 12284 H 1149.48 -6.40659 1.19998 0
M  V30 12285 N 1152.92 -1.31168 -0.873655 0
M  V30 12286 C 1154.14 -1.23728 -1.66452 0
M  V30 12287 C 1154.57 0.194869 -1.87088 0
M  V30 12288 O 1153.93 1.1397 -1.40998 0
M  V30 12289 C 1153.97 -1.98285 -3.0119 0
M  V30 12290 O 1153.08 -1.31767 -3.90783 0
M  V30 12291 H 1152.42 -0.427362 -0.508191 0
M  V30 12292 H 1154.95 -1.73176 -1.08955 0
M  V30 12293 H 1154.96 -2.0774 -3.51153 0
M  V30 12294 H 1153.63 -3.02437 -2.8549 0
M  V30 12295 H 1152.21 -1.3074 -3.4923 0
M  V30 12296 N 1154.4 1.08748 -1.14068 0
M  V30 12297 C 1155.63 1.84546 -0.928789 0
M  V30 12298 C 1156.03 1.81741 0.526007 0
M  V30 12299 O 1155.38 1.2169 1.37613 0
M  V30 12300 C 1155.44 3.33282 -1.34771 0
M  V30 12301 C 1155.1 3.59826 -2.81734 0
M  V30 12302 C 1156.1 3.54964 -3.79864 0
M  V30 12303 C 1153.79 3.87949 -3.19063 0
M  V30 12304 C 1155.78 3.77847 -5.13332 0
M  V30 12305 C 1153.47 4.10487 -4.52707 0
M  V30 12306 C 1154.46 4.05429 -5.49651 0
M  V30 12307 O 1154.15 4.27378 -6.80884 0
M  V30 12308 H 1153.88 0.589555 -0.330758 0
M  V30 12309 H 1156.44 1.38275 -1.51886 0
M  V30 12310 H 1154.67 3.80294 -0.700948 0
M  V30 12311 H 1156.36 3.90508 -1.10718 0
M  V30 12312 H 1157.12 3.33256 -3.52371 0
M  V30 12313 H 1153 3.91007 -2.44201 0
M  V30 12314 H 1156.55 3.73815 -5.88989 0
M  V30 12315 H 1152.44 4.31677 -4.79922 0
M  V30 12316 H 1153.21 4.44802 -6.8709 0
M  V30 12317 N 1155.87 0.935264 1.26849 0
M  V30 12318 C 1156.81 0.397539 2.25726 0
M  V30 12319 C 1157.82 -0.475928 1.55688 0
M  V30 12320 O 1159.01 -0.287329 1.76172 0
M  V30 12321 C 1156.11 -0.448308 3.35922 0
M  V30 12322 C 1155.28 0.407624 4.35496 0
M  V30 12323 C 1154.34 -0.376815 5.24849 0
M  V30 12324 O 1153.37 0.218109 5.68782 0
M  V30 12325 N 1154.57 -1.67481 5.55815 0
M  V30 12326 H 1157.33 1.24753 2.72501 0
M  V30 12327 H 1154.89 0.803505 1.40554 0
M  V30 12328 H 1156.89 -0.980338 3.92647 0
M  V30 12329 H 1155.46 -1.19908 2.88688 0
M  V30 12330 H 1154.68 1.12091 3.77928 0
M  V30 12331 H 1155.96 0.992512 4.99026 0
M  V30 12332 H 1155.36 -2.18037 5.21993 0
M  V30 12333 H 1153.92 -2.15321 6.15207 0
M  V30 12334 N 1157.35 -1.41121 0.701616 0
M  V30 12335 C 1158.3 -2.30765 0.040121 0
M  V30 12336 C 1159.27 -1.47436 -0.764975 0
M  V30 12337 O 1160.45 -1.76209 -0.731775 0
M  V30 12338 C 1157.59 -3.33535 -0.885903 0
M  V30 12339 C 1156.71 -4.3194 -0.0717765 0
M  V30 12340 C 1155.84 -5.21779 -0.995996 0
M  V30 12341 C 1154.88 -6.11849 -0.175133 0
M  V30 12342 N 1154.02 -6.94151 -1.05348 0
M  V30 12343 H 1158.86 -2.86772 0.810312 0
M  V30 12344 H 1156.4 -1.41233 0.411301 0
M  V30 12345 H 1158.35 -3.91675 -1.4369 0
M  V30 12346 H 1156.98 -2.79065 -1.62243 0
M  V30 12347 H 1156.04 -3.75698 0.596221 0
M  V30 12348 H 1157.35 -4.95597 0.56435 0
M  V30 12349 H 1156.5 -5.84782 -1.61601 0
M  V30 12350 H 1155.24 -4.58363 -1.66597 0
M  V30 12351 H 1154.25 -5.4789 0.457916 0
M  V30 12352 H 1155.47 -6.77322 0.491133 0
M  V30 12353 H 1153.42 -6.33338 -1.70936 0
M  V30 12354 H 1153.33 -7.54518 -0.473065 0
M  V30 12355 H 1154.6 -7.61617 -1.66012 0
M  V30 12356 N 1158.83 -0.446794 -1.51134 0
M  V30 12357 C 1159.78 0.378002 -2.24845 0
M  V30 12358 C 1160.76 0.982126 -1.27448 0
M  V30 12359 O 1161.96 0.8987 -1.52487 0
M  V30 12360 C 1159.09 1.4733 -3.10079 0
M  V30 12361 C 1158.17 0.878102 -4.1491 0
M  V30 12362 N 1158.56 0.0129452 -5.05798 0
M  V30 12363 C 1156.86 1.14468 -4.3106 0
M  V30 12364 C 1157.56 -0.322333 -5.80806 0
M  V30 12365 N 1156.54 0.296438 -5.42791 0
M  V30 12366 H 1160.34 -0.28885 -2.92477 0
M  V30 12367 H 1157.85 -0.259439 -1.60314 0
M  V30 12368 H 1159.85 2.07713 -3.6147 0
M  V30 12369 H 1158.51 2.14239 -2.43992 0
M  V30 12370 H 1159.52 -0.354177 -5.16688 0
M  V30 12371 H 1156.2 1.81056 -3.76198 0
M  V30 12372 H 1157.59 -1.02693 -6.64006 0
M  V30 12373 N 1160.31 1.56586 -0.178487 0
M  V30 12374 C 1161.26 2.1491 0.761432 0
M  V30 12375 C 1162.24 1.08528 1.18788 0
M  V30 12376 O 1163.43 1.34633 1.14904 0
M  V30 12377 C 1160.56 2.79902 1.98771 0
M  V30 12378 C 1159.65 3.93452 1.58293 0
M  V30 12379 N 1160.04 4.97942 0.888124 0
M  V30 12380 C 1158.34 4.04745 1.87343 0
M  V30 12381 C 1159.04 5.7762 0.68772 0
M  V30 12382 N 1158.02 5.2947 1.23136 0
M  V30 12383 H 1161.82 2.93063 0.221693 0
M  V30 12384 H 1159.33 1.62385 0.0219283 0
M  V30 12385 H 1161.33 3.20067 2.67138 0
M  V30 12386 H 1159.99 2.03232 2.53233 0
M  V30 12387 H 1161 5.1502 0.545387 0
M  V30 12388 H 1157.68 3.39186 2.43432 0
M  V30 12389 H 1159.07 6.71759 0.13775 0
M  V30 12390 N 1161.79 -0.095206 1.57312 0
M  V30 12391 C 1163.03 -0.797142 1.85715 0
M  V30 12392 C 1163.36 -1.79275 0.767171 0
M  V30 12393 O 1162.63 -1.94808 -0.206584 0
M  V30 12394 H 1161.21 -0.297382 0.685254 0
M  V30 12395 H 1163.87 -0.0768617 1.94748 0
M  V30 12396 H 1162.96 -1.32779 2.82447 0
M  V30 12397 N 1163.26 -1.53291 -0.366026 0
M  V30 12398 C 1164.68 -1.61144 -0.942849 0
M  V30 12399 C 1165.03 -0.478571 -1.90274 0
M  V30 12400 O 1164.15 0.395069 -2.12763 0
M  V30 12401 C 1164.75 -2.92081 -1.71681 0
M  V30 12402 C 1163.31 -3.0227 -2.24298 0
M  V30 12403 C 1162.45 -2.56436 -1.05526 0
M  V30 12404 H 1165.4 -1.58038 -0.144835 0
M  V30 12405 H 1165.42 -2.79858 -2.57798 0
M  V30 12406 H 1164.94 -3.74513 -1.01793 0
M  V30 12407 H 1163.04 -2.24425 -2.97429 0
M  V30 12408 H 1163.15 -4.07341 -2.5221 0
M  V30 12409 H 1161.51 -2.11301 -1.42211 0
M  V30 12410 H 1162.3 -3.41285 -0.371376 0
M  V30 12411 N 1164.74 0.6258 -1.44643 0
M  V30 12412 C 1165.67 1.75086 -1.47911 0
M  V30 12413 C 1166.69 1.58496 -0.37188 0
M  V30 12414 O 1167.88 1.66712 -0.637925 0
M  V30 12415 C 1164.98 3.12874 -1.30243 0
M  V30 12416 C 1164.15 3.55873 -2.54309 0
M  V30 12417 C 1163.21 4.72558 -2.31464 0
M  V30 12418 O 1162.23 4.80599 -3.04981 0
M  V30 12419 N 1163.44 5.64617 -1.34862 0
M  V30 12420 H 1166.2 1.72751 -2.44902 0
M  V30 12421 H 1163.76 0.810531 -1.4015 0
M  V30 12422 H 1165.75 3.88663 -1.12798 0
M  V30 12423 H 1164.32 3.0982 -0.415966 0
M  V30 12424 H 1163.54 2.70237 -2.86994 0
M  V30 12425 H 1164.83 3.81355 -3.36817 0
M  V30 12426 H 1164.23 5.60819 -0.741542 0
M  V30 12427 H 1162.79 6.40013 -1.23394 0
M  V30 12428 N 1166.22 1.31629 0.866686 0
M  V30 12429 C 1167.45 1.24474 1.65269 0
M  V30 12430 C 1167.86 -0.18939 1.87848 0
M  V30 12431 O 1167.22 -1.12251 1.43895 0
M  V30 12432 C 1167.27 1.98872 3.01881 0
M  V30 12433 O 1166.99 3.36687 2.8031 0
M  V30 12434 C 1168.49 1.98595 3.96327 0
M  V30 12435 H 1165.71 0.429966 0.515141 0
M  V30 12436 H 1168.26 1.73559 1.08156 0
M  V30 12437 H 1166.41 1.53539 3.55675 0
M  V30 12438 H 1166.83 3.74612 3.67105 0
M  V30 12439 H 1168.3 2.55156 4.89489 0
M  V30 12440 H 1168.78 0.969257 4.28371 0
M  V30 12441 H 1169.38 2.43821 3.4847 0
M  V30 12442 N 1167.7 -1.08142 1.14644 0
M  V30 12443 C 1168.63 -2.17139 0.858667 0
M  V30 12444 C 1169.61 -1.69064 -0.187452 0
M  V30 12445 O 1170.8 -1.94151 -0.0435458 0
M  V30 12446 C 1167.93 -3.45648 0.33834 0
M  V30 12447 C 1166.88 -4.07129 1.32021 0
M  V30 12448 C 1166.21 -5.30623 0.659075 0
M  V30 12449 C 1167.51 -4.48095 2.68343 0
M  V30 12450 H 1169.2 -2.41468 1.77012 0
M  V30 12451 H 1166.75 -1.16052 0.852523 0
M  V30 12452 H 1168.7 -4.21216 0.124611 0
M  V30 12453 H 1167.42 -3.2088 -0.608553 0
M  V30 12454 H 1166.08 -3.33596 1.52016 0
M  V30 12455 H 1165.73 -5.02142 -0.293711 0
M  V30 12456 H 1165.43 -5.72714 1.31427 0
M  V30 12457 H 1166.95 -6.08903 0.454933 0
M  V30 12458 H 1168.37 -5.14828 2.5224 0
M  V30 12459 H 1166.76 -5.01113 3.30161 0
M  V30 12460 H 1167.83 -3.59852 3.25015 0
M  V30 12461 N 1169.18 -0.941978 -1.26351 0
M  V30 12462 C 1170.41 -0.605868 -1.97517 0
M  V30 12463 C 1170.82 0.823583 -1.70334 0
M  V30 12464 O 1170.16 1.56085 -0.968662 0
M  V30 12465 C 1170.22 -0.769201 -3.51175 0
M  V30 12466 C 1169.88 -2.17343 -4.02009 0
M  V30 12467 C 1170.88 -3.14898 -4.13685 0
M  V30 12468 C 1168.57 -2.49422 -4.35998 0
M  V30 12469 C 1170.56 -4.42631 -4.58646 0
M  V30 12470 C 1168.25 -3.77388 -4.80647 0
M  V30 12471 C 1169.25 -4.73806 -4.91932 0
M  V30 12472 O 1168.93 -5.99493 -5.35596 0
M  V30 12473 H 1168.67 -0.227113 -0.636707 0
M  V30 12474 H 1171.22 -1.26523 -1.61806 0
M  V30 12475 H 1169.45 -0.0527104 -3.86664 0
M  V30 12476 H 1171.14 -0.436032 -4.03551 0
M  V30 12477 H 1171.9 -2.91438 -3.87671 0
M  V30 12478 H 1167.78 -1.7511 -4.26448 0
M  V30 12479 H 1171.33 -5.17892 -4.67369 0
M  V30 12480 H 1167.22 -4.0066 -5.06105 0
M  V30 12481 H 1167.99 -6.02687 -5.53815 0
M  V30 12482 N 1170.66 1.40747 -0.709091 0
M  V30 12483 C 1171.59 2.33404 -0.0669763 0
M  V30 12484 C 1172.57 1.52546 0.752582 0
M  V30 12485 O 1173.75 1.81036 0.702823 0
M  V30 12486 C 1170.88 3.36476 0.860285 0
M  V30 12487 C 1169.84 4.27748 0.146828 0
M  V30 12488 C 1169.16 5.21304 1.18937 0
M  V30 12489 C 1170.46 5.12734 -0.995064 0
M  V30 12490 H 1172.16 2.87349 -0.840888 0
M  V30 12491 H 1169.7 1.38163 -0.405817 0
M  V30 12492 H 1171.65 4.00231 1.31883 0
M  V30 12493 H 1170.38 2.80912 1.66602 0
M  V30 12494 H 1169.04 3.65437 -0.291826 0
M  V30 12495 H 1168.69 4.62048 1.98798 0
M  V30 12496 H 1168.39 5.8321 0.716917 0
M  V30 12497 H 1169.91 5.87936 1.64815 0
M  V30 12498 H 1171.32 5.69979 -0.61618 0
M  V30 12499 H 1169.72 5.83649 -1.39547 0
M  V30 12500 H 1170.79 4.49097 -1.82867 0
M  V30 12501 N 1172.13 0.454803 1.50895 0
M  V30 12502 C 1173.54 -0.00421212 1.867 0
M  V30 12503 C 1173.9 -1.4037 1.3708 0
M  V30 12504 O 1173.02 -2.03755 0.728884 0
M  V30 12505 C 1173.62 -0.0144196 3.38797 0
M  V30 12506 C 1172.17 -0.417905 3.74073 0
M  V30 12507 C 1171.32 0.37801 2.74711 0
M  V30 12508 H 1174.27 0.669849 1.4387 0
M  V30 12509 H 1174.29 -0.820172 3.71555 0
M  V30 12510 H 1173.81 1.00427 3.74881 0
M  V30 12511 H 1171.91 -1.44155 3.43584 0
M  V30 12512 H 1172.02 -0.130568 4.78922 0
M  V30 12513 H 1170.38 -0.166089 2.54158 0
M  V30 12514 H 1171.17 1.3959 3.13639 0
M  V30 12515 N 1173.61 -1.56489 0.186789 0
M  V30 12516 C 1174.86 -1.97634 -0.454831 0
M  V30 12517 C 1175.19 -1.07334 -1.61843 0
M  V30 12518 O 1174.47 -0.123612 -1.94107 0
M  V30 12519 C 1174.75 -3.48071 -0.922962 0
M  V30 12520 C 1174.6 -4.49149 0.241877 0
M  V30 12521 C 1175.92 -4.01994 -1.79134 0
M  V30 12522 H 1173.04 -0.718555 -0.163854 0
M  V30 12523 H 1175.68 -1.87984 0.27604 0
M  V30 12524 H 1173.83 -3.56425 -1.54575 0
M  V30 12525 H 1175.5 -4.52841 0.87936 0
M  V30 12526 H 1173.75 -4.24468 0.894964 0
M  V30 12527 H 1174.42 -5.51851 -0.128051 0
M  V30 12528 H 1176.89 -3.96367 -1.26618 0
M  V30 12529 H 1175.77 -5.07641 -2.08787 0
M  V30 12530 H 1176.03 -3.46747 -2.74261 0
M  V30 12531 N 1175.09 0.086862 -1.5736 0
M  V30 12532 C 1176.32 0.802167 -1.90717 0
M  V30 12533 C 1176.73 1.71875 -0.781304 0
M  V30 12534 O 1176.09 1.80831 0.246255 0
M  V30 12535 C 1176.14 1.60858 -3.23739 0
M  V30 12536 O 1175.86 0.728851 -4.31995 0
M  V30 12537 C 1177.36 2.42621 -3.71012 0
M  V30 12538 H 1174.58 0.228914 -0.630745 0
M  V30 12539 H 1177.13 0.061634 -2.04407 0
M  V30 12540 H 1175.28 2.30153 -3.11622 0
M  V30 12541 H 1175.7 1.2882 -5.08435 0
M  V30 12542 H 1177.17 2.94683 -4.66761 0
M  V30 12543 H 1177.65 3.21462 -2.99264 0
M  V30 12544 H 1178.25 1.78509 -3.86024 0
M  V30 12545 N 1176.57 1.53483 0.357892 0
M  V30 12546 C 1177.5 1.83444 1.44466 0
M  V30 12547 C 1178.48 0.688486 1.55544 0
M  V30 12548 O 1179.66 0.93906 1.69986 0
M  V30 12549 C 1176.79 2.03122 2.81707 0
M  V30 12550 C 1175.75 3.1891 2.85448 0
M  V30 12551 C 1175.07 3.23895 4.25436 0
M  V30 12552 C 1176.37 4.57334 2.52275 0
M  V30 12553 H 1178.07 2.74456 1.19642 0
M  V30 12554 H 1175.61 1.3206 0.574112 0
M  V30 12555 H 1177.57 2.22666 3.57768 0
M  V30 12556 H 1176.29 1.08827 3.07935 0
M  V30 12557 H 1174.95 2.99199 2.11838 0
M  V30 12558 H 1174.6 2.27223 4.48753 0
M  V30 12559 H 1174.3 4.01694 4.28854 0
M  V30 12560 H 1175.82 3.45632 5.0336 0
M  V30 12561 H 1177.24 4.76988 3.1805 0
M  V30 12562 H 1175.63 5.37431 2.66998 0
M  V30 12563 H 1176.7 4.61921 1.47501 0
M  V30 12564 N 1178.05 -0.61812 1.44973 0
M  V30 12565 C 1179.27 -1.40921 1.52171 0
M  V30 12566 C 1179.7 -1.87487 0.151755 0
M  V30 12567 O 1179.05 -1.59518 -0.861606 0
M  V30 12568 C 1179.1 -2.59689 2.50188 0
M  V30 12569 O 1178.21 -3.59967 2.0124 0
M  V30 12570 H 1177.55 -0.421138 0.51336 0
M  V30 12571 H 1180.08 -0.753258 1.90229 0
M  V30 12572 H 1180.09 -3.07069 2.6865 0
M  V30 12573 H 1178.76 -2.25144 3.4969 0
M  V30 12574 H 1177.34 -3.19308 1.92605 0
M  V30 12575 N 1179.52 -1.32087 -0.859693 0
M  V30 12576 C 1180.75 -1.25486 -1.6513 0
M  V30 12577 C 1181.17 0.175015 -1.87284 0
M  V30 12578 O 1180.53 1.12468 -1.42199 0
M  V30 12579 C 1180.58 -2.01469 -2.9907 0
M  V30 12580 O 1179.68 -1.35904 -3.89363 0
M  V30 12581 H 1179.02 -0.432728 -0.503629 0
M  V30 12582 H 1181.55 -1.74322 -1.07112 0
M  V30 12583 H 1181.56 -2.11452 -3.4893 0
M  V30 12584 H 1180.24 -3.05448 -2.82266 0
M  V30 12585 H 1178.82 -1.34437 -3.47823 0
M  V30 12586 N 1181 1.07532 -1.15215 0
M  V30 12587 C 1182.25 1.79474 -0.920439 0
M  V30 12588 C 1182.56 1.87593 0.553926 0
M  V30 12589 O 1183.77 2.56037 0.903169 0
M  V30 12590 C 1182.23 3.22509 -1.59738 0
M  V30 12591 C 1181.83 3.22596 -3.10863 0
M  V30 12592 C 1183.58 3.99072 -1.44714 0
M  V30 12593 C 1181.48 4.60273 -3.71352 0
M  V30 12594 H 1180.41 0.672625 -0.340722 0
M  V30 12595 H 1183.07 1.2071 -1.38208 0
M  V30 12596 H 1181.45 3.81454 -1.06342 0
M  V30 12597 H 1182.62 2.73306 -3.70999 0
M  V30 12598 H 1180.94 2.5953 -3.25627 0
M  V30 12599 H 1183.53 5.00823 -1.87299 0
M  V30 12600 H 1183.88 4.14428 -0.394386 0
M  V30 12601 H 1184.41 3.46617 -1.95195 0
M  V30 12602 H 1181.15 4.50122 -4.76519 0
M  V30 12603 H 1180.67 5.09809 -3.15998 0
M  V30 12604 H 1182.35 5.29243 -3.7217 0
M  V30 12605 N 1182.48 0.948665 1.2585 0
M  V30 12606 C 1183.89 0.641829 1.75321 0
M  V30 12607 C 1184.24 -0.842903 1.77171 0
M  V30 12608 O 1183.37 -1.65967 1.38867 0
M  V30 12609 C 1183.96 1.15835 3.18383 0
M  V30 12610 C 1182.52 0.901784 3.65438 0
M  V30 12611 C 1181.67 1.30489 2.44679 0
M  V30 12612 H 1184.62 1.12614 1.1182 0
M  V30 12613 H 1184.64 0.515639 3.7699 0
M  V30 12614 H 1184.15 2.23897 3.17004 0
M  V30 12615 H 1182.25 -0.164135 3.72238 0
M  V30 12616 H 1182.37 1.53405 4.53876 0
M  V30 12617 H 1180.73 0.723278 2.44215 0
M  V30 12618 H 1181.51 2.3946 2.45996 0
M  V30 12619 N 1183.96 -1.40369 0.716545 0
M  V30 12620 C 1185.2 -2.01167 0.256846 0
M  V30 12621 C 1185.54 -1.56689 -1.14727 0
M  V30 12622 O 1184.81 -0.787384 -1.7785 0
M  V30 12623 C 1185.1 -3.58511 0.337963 0
M  V30 12624 C 1184.95 -4.13059 1.78052 0
M  V30 12625 C 1186.27 -4.39142 -0.290295 0
M  V30 12626 H 1183.39 -0.730877 0.0948028 0
M  V30 12627 H 1186.03 -1.66833 0.909225 0
M  V30 12628 H 1184.18 -3.87891 -0.217482 0
M  V30 12629 H 1185.85 -3.94472 2.39143 0
M  V30 12630 H 1184.09 -3.67311 2.30793 0
M  V30 12631 H 1184.76 -5.22217 1.78867 0
M  V30 12632 H 1187.24 -4.15697 0.182987 0
M  V30 12633 H 1186.12 -5.48524 -0.203097 0
M  V30 12634 H 1186.38 -4.20209 -1.37394 0
M  V30 12635 N 1185.44 -0.462799 -1.50652 0
M  V30 12636 C 1186.68 0.0950445 -2.02277 0
M  V30 12637 C 1187.01 1.40465 -1.34536 0
M  V30 12638 O 1186.27 1.90283 -0.457279 0
M  V30 12639 C 1186.57 0.335294 -3.55824 0
M  V30 12640 C 1186.23 -0.891589 -4.41997 0
M  V30 12641 C 1184.89 -1.22799 -4.65268 0
M  V30 12642 C 1187.25 -1.70885 -4.9239 0
M  V30 12643 C 1184.57 -2.38186 -5.36175 0
M  V30 12644 C 1186.93 -2.85394 -5.64564 0
M  V30 12645 C 1185.59 -3.19458 -5.86091 0
M  V30 12646 H 1184.86 0.0347793 -0.740183 0
M  V30 12647 H 1187.51 -0.61519 -1.8135 0
M  V30 12648 H 1185.81 1.12769 -3.7522 0
M  V30 12649 H 1187.51 0.780752 -3.93326 0
M  V30 12650 H 1184.1 -0.619495 -4.24099 0
M  V30 12651 H 1188.28 -1.46215 -4.74273 0
M  V30 12652 H 1183.54 -2.64862 -5.51052 0
M  V30 12653 H 1187.71 -3.49073 -6.02595 0
M  V30 12654 H 1185.34 -4.08978 -6.40813 0
M  V30 12655 N 1186.91 1.56388 -0.195085 0
M  V30 12656 C 1187.85 2.16316 0.757643 0
M  V30 12657 C 1188.86 1.12498 1.17678 0
M  V30 12658 O 1190.05 1.39591 1.11251 0
M  V30 12659 C 1187.15 2.7104 2.03447 0
M  V30 12660 C 1186.32 3.99759 1.77514 0
M  V30 12661 C 1185.38 4.3931 2.89644 0
M  V30 12662 O 1184.41 5.06732 2.59252 0
M  V30 12663 N 1185.61 4.02813 4.17998 0
M  V30 12664 H 1188.37 2.98696 0.24517 0
M  V30 12665 H 1185.93 1.61895 -0.0131194 0
M  V30 12666 H 1187.93 2.94483 2.776 0
M  V30 12667 H 1186.5 1.93114 2.45817 0
M  V30 12668 H 1185.72 3.84448 0.8714 0
M  V30 12669 H 1187 4.83782 1.57585 0
M  V30 12670 H 1186.4 3.4858 4.45543 0
M  V30 12671 H 1184.96 4.31206 4.88779 0
M  V30 12672 N 1188.39 -0.0785156 1.57404 0
M  V30 12673 C 1189.81 -0.433143 1.5361 0
M  V30 12674 C 1190.01 -1.79564 0.914283 0
M  V30 12675 O 1189.06 -2.47215 0.513899 0
M  V30 12676 C 1190.38 -0.380387 2.98284 0
M  V30 12677 C 1191.93 -0.461056 3.09586 0
M  V30 12678 C 1192.4 -0.438276 4.55898 0
M  V30 12679 N 1193.89 -0.498548 4.60509 0
M  V30 12680 C 1194.63 -0.503028 5.71189 0
M  V30 12681 N 1194.12 -0.462724 6.91253 0
M  V30 12682 N 1195.92 -0.549083 5.59412 0
M  V30 12683 H 1188.07 0.813724 1.96195 0
M  V30 12684 H 1190.33 0.304644 0.897717 0
M  V30 12685 H 1190.04 0.553932 3.4731 0
M  V30 12686 H 1189.91 -1.19313 3.57833 0
M  V30 12687 H 1192.3 -1.3858 2.60537 0
M  V30 12688 H 1192.38 0.380138 2.5296 0
M  V30 12689 H 1192.02 0.482588 5.05602 0
M  V30 12690 H 1191.95 -1.29691 5.1038 0
M  V30 12691 H 1194.44 -0.534219 3.74105 0
M  V30 12692 H 1194.76 -0.469883 7.7137 0
M  V30 12693 H 1193.1 -0.429515 6.93672 0
M  V30 12694 H 1196.29 -0.578215 4.64515 0
M  V30 12695 H 1196.46 -0.549105 6.45669 0
M  V30 12696 N 1189.87 -1.5367 -0.349747 0
M  V30 12697 C 1191.12 -1.70281 -1.08853 0
M  V30 12698 C 1191.44 -0.465438 -1.89364 0
M  V30 12699 O 1190.71 0.520615 -1.88856 0
M  V30 12700 H 1189.29 -0.627775 -0.404854 0
M  V30 12701 H 1191.95 -1.90906 -0.392523 0
M  V30 12702 H 1191.05 -2.57096 -1.76941 0
M  V30 12703 N 1191.35 0.610423 -1.45298 0
M  V30 12704 C 1192.6 1.3668 -1.48872 0
M  V30 12705 C 1192.92 1.94562 -0.130686 0
M  V30 12706 O 1192.19 1.76996 0.839607 0
M  V30 12707 H 1190.77 0.507393 -0.548235 0
M  V30 12708 H 1193.43 0.716997 -1.81232 0
M  V30 12709 H 1192.53 2.18766 -2.22593 0
M  V30 12710 N 1192.83 1.32541 0.852676 0
M  V30 12711 C 1194.05 1.2622 1.6394 0
M  V30 12712 C 1194.47 -0.169455 1.88038 0
M  V30 12713 O 1193.83 -1.10719 1.45078 0
M  V30 12714 C 1193.88 2.02062 2.99755 0
M  V30 12715 O 1193.6 3.39641 2.76723 0
M  V30 12716 C 1195.1 2.02787 3.94198 0
M  V30 12717 H 1192.32 0.435405 0.510552 0
M  V30 12718 H 1194.86 1.74696 1.06309 0
M  V30 12719 H 1193.02 1.57303 3.54026 0
M  V30 12720 H 1193.43 3.78484 3.63111 0
M  V30 12721 H 1194.91 2.60333 4.86755 0
M  V30 12722 H 1195.38 1.01464 4.27319 0
M  V30 12723 H 1195.99 2.47504 3.45864 0
M  V30 12724 N 1194.3 -1.0692 1.15784 0
M  V30 12725 C 1195.55 -1.78983 0.929944 0
M  V30 12726 C 1195.87 -1.87884 -0.543969 0
M  V30 12727 O 1197.07 -2.56513 -0.889578 0
M  V30 12728 C 1195.53 -3.21657 1.61446 0
M  V30 12729 C 1195.14 -3.20943 3.12569 0
M  V30 12730 C 1196.88 -3.98299 1.46828 0
M  V30 12731 C 1194.79 -4.58298 3.73788 0
M  V30 12732 H 1193.72 -0.670809 0.344284 0
M  V30 12733 H 1196.37 -1.19975 1.38846 0
M  V30 12734 H 1194.75 -3.80885 1.08364 0
M  V30 12735 H 1195.92 -2.71334 3.72444 0
M  V30 12736 H 1194.24 -2.57799 3.26999 0
M  V30 12737 H 1196.84 -4.99822 1.89952 0
M  V30 12738 H 1197.18 -4.14213 0.416358 0
M  V30 12739 H 1197.71 -3.45577 1.97031 0
M  V30 12740 H 1194.45 -4.47588 4.789 0
M  V30 12741 H 1193.97 -5.08126 3.18698 0
M  V30 12742 H 1195.65 -5.27262 3.74972 0
M  V30 12743 N 1195.78 -0.955326 -1.25345 0
M  V30 12744 C 1197.03 -0.611388 -1.93365 0
M  V30 12745 C 1197.36 0.84953 -1.74633 0
M  V30 12746 O 1196.64 1.60962 -1.09185 0
M  V30 12747 C 1196.92 -0.971732 -3.46741 0
M  V30 12748 C 1196.77 -2.48843 -3.74696 0
M  V30 12749 C 1198.09 -0.497295 -4.37281 0
M  V30 12750 H 1195.21 -0.223591 -0.702265 0
M  V30 12751 H 1197.85 -1.1921 -1.47949 0
M  V30 12752 H 1196 -0.477568 -3.85554 0
M  V30 12753 H 1197.67 -3.05641 -3.45516 0
M  V30 12754 H 1195.92 -2.92582 -3.20278 0
M  V30 12755 H 1196.59 -2.69107 -4.8196 0
M  V30 12756 H 1199.06 -0.921196 -4.05775 0
M  V30 12757 H 1197.94 -0.778113 -5.43357 0
M  V30 12758 H 1198.2 0.602743 -4.37972 0
M  V30 12759 N 1197.26 1.39987 -0.723979 0
M  V30 12760 C 1198.67 1.83606 -0.338461 0
M  V30 12761 C 1199.02 1.6051 1.12831 0
M  V30 12762 O 1198.15 1.09041 1.8692 0
M  V30 12763 C 1198.74 3.33308 -0.607533 0
M  V30 12764 C 1197.3 3.75389 -0.275632 0
M  V30 12765 C 1196.45 2.6311 -0.875699 0
M  V30 12766 H 1199.4 1.29135 -0.922483 0
M  V30 12767 H 1199.42 3.80297 0.124424 0
M  V30 12768 H 1198.93 3.50087 -1.67514 0
M  V30 12769 H 1197.03 3.64203 0.786579 0
M  V30 12770 H 1197.15 4.73185 -0.750492 0
M  V30 12771 H 1195.51 2.5289 -0.303122 0
M  V30 12772 H 1196.29 2.82698 -1.94774 0
M  V30 12773 N 1198.74 0.470782 1.50404 0
M  V30 12774 C 1200.16 0.124919 1.5911 0
M  V30 12775 C 1200.36 -1.36855 1.47895 0
M  V30 12776 O 1199.41 -2.1418 1.33728 0
M  V30 12777 C 1200.72 0.674839 2.9303 0
M  V30 12778 C 1202.27 0.638239 3.06424 0
M  V30 12779 C 1202.75 1.1657 4.42917 0
M  V30 12780 N 1204.24 1.1251 4.49328 0
M  V30 12781 C 1204.97 1.50373 5.53331 0
M  V30 12782 N 1204.47 1.95684 6.6459 0
M  V30 12783 N 1206.26 1.41978 5.43874 0
M  V30 12784 H 1198.41 1.44212 1.55938 0
M  V30 12785 H 1200.68 0.596354 0.73693 0
M  V30 12786 H 1200.38 1.72106 3.06712 0
M  V30 12787 H 1200.26 0.118234 3.77015 0
M  V30 12788 H 1202.64 -0.399075 2.92389 0
M  V30 12789 H 1202.72 1.23164 2.24197 0
M  V30 12790 H 1202.37 2.20164 4.57701 0
M  V30 12791 H 1202.3 0.548513 5.23736 0
M  V30 12792 H 1204.79 0.79276 3.69491 0
M  V30 12793 H 1205.1 2.22724 7.40009 0
M  V30 12794 H 1203.45 1.99636 6.65711 0
M  V30 12795 H 1206.64 1.0642 4.55842 0
M  V30 12796 H 1206.81 1.71812 6.24808 0
M  V30 12797 N 1200.22 -1.56282 0.203376 0
M  V30 12798 C 1201.46 -1.98864 -0.427176 0
M  V30 12799 C 1201.82 -1.08828 -1.58664 0
M  V30 12800 O 1201.11 -0.134399 -1.91128 0
M  V30 12801 C 1201.31 -3.45148 -0.927759 0
M  V30 12802 C 1201.13 -4.49333 0.18166 0
M  V30 12803 C 1199.9 -5.01204 0.642046 0
M  V30 12804 C 1202.1 -5.04612 0.993548 0
M  V30 12805 N 1200.08 -5.89066 1.72842 0
M  V30 12806 C 1201.46 -5.89223 1.92915 0
M  V30 12807 C 1203.51 -4.87023 1.03503 0
M  V30 12808 C 1202.21 -6.58125 2.90282 0
M  V30 12809 C 1204.24 -5.56671 1.99679 0
M  V30 12810 C 1203.6 -6.41035 2.91982 0
M  V30 12811 H 1199.7 -0.772186 -0.123501 0
M  V30 12812 H 1202.28 -1.92201 0.310974 0
M  V30 12813 H 1200.46 -3.52295 -1.63533 0
M  V30 12814 H 1202.19 -3.7468 -1.52961 0
M  V30 12815 H 1198.94 -4.73022 0.233895 0
M  V30 12816 H 1199.37 -6.377 2.27306 0
M  V30 12817 H 1204.01 -4.21468 0.335379 0
M  V30 12818 H 1201.73 -7.22874 3.61219 0
M  V30 12819 H 1205.31 -5.45034 2.0354 0
M  V30 12820 H 1204.19 -6.93979 3.65189 0
M  V30 12821 N 1201.7 0.070167 -1.57444 0
M  V30 12822 C 1202.63 1.11509 -1.991 0
M  V30 12823 C 1203.61 1.37481 -0.868194 0
M  V30 12824 O 1204.79 1.50827 -1.13064 0
M  V30 12825 C 1201.92 2.45908 -2.3291 0
M  V30 12826 C 1200.96 2.36059 -3.55216 0
M  V30 12827 S 1201.8 1.75316 -5.05989 0
M  V30 12828 C 1202.95 3.11289 -5.43001 0
M  V30 12829 H 1203.19 0.760096 -2.87419 0
M  V30 12830 H 1200.72 0.278756 -1.51863 0
M  V30 12831 H 1202.68 3.23217 -2.53063 0
M  V30 12832 H 1201.34 2.78567 -1.45117 0
M  V30 12833 H 1200.53 3.35176 -3.76395 0
M  V30 12834 H 1200.13 1.66886 -3.34701 0
M  V30 12835 H 1202.42 4.07603 -5.41171 0
M  V30 12836 H 1203.37 2.94888 -6.43775 0
M  V30 12837 H 1203.78 3.11969 -4.70463 0
M  V30 12838 N 1203.17 1.53854 0.341593 0
M  V30 12839 C 1204.59 1.44161 0.684821 0
M  V30 12840 C 1204.79 0.599929 1.92362 0
M  V30 12841 O 1203.85 0.0916771 2.52334 0
M  V30 12842 C 1205.16 2.87668 0.875637 0
M  V30 12843 C 1206.71 2.97455 0.974131 0
M  V30 12844 C 1207.18 4.42075 1.19725 0
M  V30 12845 N 1208.67 4.45609 1.2644 0
M  V30 12846 C 1209.41 5.54643 1.45459 0
M  V30 12847 N 1208.9 6.7368 1.61637 0
M  V30 12848 N 1210.7 5.4226 1.48022 0
M  V30 12849 H 1202.85 2.07069 -0.472883 0
M  V30 12850 H 1205.11 0.936114 -0.149648 0
M  V30 12851 H 1204.82 3.51681 0.0368595 0
M  V30 12852 H 1204.69 3.32731 1.7768 0
M  V30 12853 H 1207.08 2.33582 1.80343 0
M  V30 12854 H 1207.16 2.55751 0.0498282 0
M  V30 12855 H 1206.8 5.06529 0.372872 0
M  V30 12856 H 1206.73 4.81372 2.13515 0
M  V30 12857 H 1209.22 3.59831 1.15455 0
M  V30 12858 H 1209.54 7.52541 1.7579 0
M  V30 12859 H 1207.88 6.76622 1.5877 0
M  V30 12860 H 1211.07 4.48221 1.34966 0
M  V30 12861 H 1211.25 6.27293 1.62502 0
M  V30 12862 N 1204.65 -0.602709 1.4562 0
M  V30 12863 C 1205.9 -1.36359 1.50113 0
M  V30 12864 C 1206.23 -1.93663 0.144297 0
M  V30 12865 O 1205.51 -1.75337 -0.841851 0
M  V30 12866 C 1205.79 -2.50788 2.58413 0
M  V30 12867 C 1205.64 -1.98649 4.03557 0
M  V30 12868 C 1206.96 -3.52905 2.62957 0
M  V30 12869 H 1204.08 -0.494455 0.54652 0
M  V30 12870 H 1206.72 -0.678957 1.77455 0
M  V30 12871 H 1204.87 -3.09191 2.3523 0
M  V30 12872 H 1206.54 -1.44857 4.37966 0
M  V30 12873 H 1204.79 -1.29615 4.13984 0
M  V30 12874 H 1205.46 -2.81159 4.7503 0
M  V30 12875 H 1207.93 -3.0435 2.83743 0
M  V30 12876 H 1206.81 -4.30454 3.40589 0
M  V30 12877 H 1207.07 -4.0884 1.68233 0
M  V30 12878 N 1206.13 -1.32992 -0.845635 0
M  V30 12879 C 1207.55 -1.12179 -1.13526 0
M  V30 12880 C 1207.75 0.091795 -2.01291 0
M  V30 12881 O 1206.8 0.774051 -2.40343 0
M  V30 12882 C 1208.11 -2.40584 -1.80388 0
M  V30 12883 C 1209.66 -2.46427 -1.92984 0
M  V30 12884 C 1210.14 -3.74776 -2.63261 0
M  V30 12885 N 1211.63 -3.75809 -2.7078 0
M  V30 12886 C 1212.36 -4.71829 -3.2583 0
M  V30 12887 N 1211.86 -5.78219 -3.81621 0
M  V30 12888 N 1213.65 -4.59313 -3.24018 0
M  V30 12889 H 1205.8 -2.10786 -0.261369 0
M  V30 12890 H 1208.07 -0.931053 -0.17845 0
M  V30 12891 H 1207.77 -3.29357 -1.23357 0
M  V30 12892 H 1207.65 -2.52225 -2.80468 0
M  V30 12893 H 1210.03 -1.58108 -2.4917 0
M  V30 12894 H 1210.11 -2.38732 -0.918732 0
M  V30 12895 H 1209.76 -4.63474 -2.07736 0
M  V30 12896 H 1209.69 -3.79746 -3.6483 0
M  V30 12897 H 1212.18 -2.98916 -2.31209 0
M  V30 12898 H 1212.49 -6.47531 -4.2181 0
M  V30 12899 H 1210.84 -5.81962 -3.79927 0
M  V30 12900 H 1214.03 -3.75358 -2.79685 0
M  V30 12901 H 1214.2 -5.34316 -3.6662 0
M  V30 12902 N 1207.61 1.06304 -1.1635 0
M  V30 12903 C 1209.02 1.31227 -0.90838 0
M  V30 12904 C 1209.22 1.96665 0.438779 0
M  V30 12905 O 1208.28 2.2332 1.17833 0
M  V30 12906 C 1209.59 2.19303 -2.05734 0
M  V30 12907 C 1211.14 2.3272 -2.09309 0
M  V30 12908 C 1211.62 3.24151 -3.23559 0
M  V30 12909 N 1213.11 3.31734 -3.23275 0
M  V30 12910 C 1213.84 4.02572 -4.08318 0
M  V30 12911 N 1213.34 4.75933 -5.03448 0
M  V30 12912 N 1215.13 3.98621 -3.96305 0
M  V30 12913 H 1207.28 0.622228 -2.03081 0
M  V30 12914 H 1209.54 0.336892 -0.886119 0
M  V30 12915 H 1209.25 1.78497 -3.03037 0
M  V30 12916 H 1209.12 3.19888 -1.99879 0
M  V30 12917 H 1211.51 2.72774 -1.12599 0
M  V30 12918 H 1211.59 1.31804 -2.19229 0
M  V30 12919 H 1211.24 2.84813 -4.20528 0
M  V30 12920 H 1211.17 4.25046 -3.10875 0
M  V30 12921 H 1213.66 2.79453 -2.5439 0
M  V30 12922 H 1213.97 5.27512 -5.64758 0
M  V30 12923 H 1212.32 4.74913 -5.07427 0
M  V30 12924 H 1215.51 3.40427 -3.21289 0
M  V30 12925 H 1215.68 4.5356 -4.62804 0
M  V30 12926 N 1209.09 0.96196 1.24836 0
M  V30 12927 C 1210.31 0.637709 1.97353 0
M  V30 12928 C 1210.74 -0.784919 1.7094 0
M  V30 12929 O 1210.09 -1.53188 0.969694 0
M  V30 12930 C 1210.14 0.911485 3.4889 0
M  V30 12931 O 1209.25 -0.00601668 4.124 0
M  V30 12932 H 1208.59 0.241685 0.618453 0
M  V30 12933 H 1211.12 1.29055 1.58764 0
M  V30 12934 H 1211.13 0.840702 3.99245 0
M  V30 12935 H 1209.8 1.9483 3.67442 0
M  V30 12936 H 1208.38 0.117597 3.72715 0
M  V30 12937 N 1210.56 -1.39601 0.731392 0
M  V30 12938 C 1211.79 -2.05411 0.286532 0
M  V30 12939 C 1212.21 -1.54777 -1.06892 0
M  V30 12940 O 1211.57 -0.689942 -1.67659 0
M  V30 12941 C 1211.62 -3.594 0.293914 0
M  V30 12942 O 1210.72 -4.06072 -0.719657 0
M  V30 12943 H 1210.06 -0.650949 0.131004 0
M  V30 12944 H 1212.59 -1.78703 0.996305 0
M  V30 12945 H 1212.6 -4.0777 0.137052 0
M  V30 12946 H 1211.28 -3.95617 1.28298 0
M  V30 12947 H 1209.86 -3.69125 -0.529226 0
M  V30 12948 N 1212.04 -0.478751 -1.50152 0
M  V30 12949 C 1212.95 0.316554 -2.32455 0
M  V30 12950 C 1213.97 0.98871 -1.4318 0
M  V30 12951 O 1215.14 0.974998 -1.76226 0
M  V30 12952 C 1212.21 1.3799 -3.18056 0
M  V30 12953 C 1211.27 0.723534 -4.23159 0
M  V30 12954 C 1210.5 1.73621 -5.0467 0
M  V30 12955 O 1210.73 2.96362 -4.87366 0
M  V30 12956 O 1209.66 1.30381 -5.87609 0
M  V30 12957 H 1213.49 -0.356491 -3.016 0
M  V30 12958 H 1211.07 -0.24046 -1.47452 0
M  V30 12959 H 1212.95 1.99565 -3.71149 0
M  V30 12960 H 1211.63 2.03627 -2.5163 0
M  V30 12961 H 1210.54 0.0686296 -3.74037 0
M  V30 12962 H 1211.87 0.109979 -4.92077 0
M  V30 12963 N 1213.52 1.56172 -0.211661 0
M  V30 12964 C 1214.76 1.9994 0.424672 0
M  V30 12965 C 1215.12 1.09598 1.57646 0
M  V30 12966 O 1216.33 1.4267 2.27813 0
M  V30 12967 C 1214.6 3.46961 0.857497 0
M  V30 12968 S 1216.16 4.12752 1.48933 0
M  V30 12969 H 1212.97 0.698031 0.135179 0
M  V30 12970 H 1215.58 1.92886 -0.318625 0
M  V30 12971 H 1214.28 4.10399 0.009398 0
M  V30 12972 H 1213.81 3.57867 1.63385 0
M  V30 12973 H 1215.83 4.11125 2.77833 0
M  V30 12974 N 1215 -0.0618163 1.57479 0
M  V30 12975 C 1215.93 -1.10452 1.99689 0
M  V30 12976 C 1216.91 -1.37019 0.875473 0
M  V30 12977 O 1218.09 -1.50226 1.13862 0
M  V30 12978 C 1215.22 -2.44669 2.34211 0
M  V30 12979 C 1214.27 -2.34172 3.56463 0
M  V30 12980 S 1215.1 -1.7263 5.06911 0
M  V30 12981 C 1216.26 -3.08405 5.44644 0
M  V30 12982 H 1216.49 -0.744843 2.87818 0
M  V30 12983 H 1214.02 -0.270698 1.52008 0
M  V30 12984 H 1215.98 -3.2187 2.54774 0
M  V30 12985 H 1214.64 -2.77794 1.46592 0
M  V30 12986 H 1213.83 -3.33175 3.78167 0
M  V30 12987 H 1213.44 -1.65109 3.35582 0
M  V30 12988 H 1215.73 -4.04727 5.43325 0
M  V30 12989 H 1216.67 -2.9147 6.4533 0
M  V30 12990 H 1217.08 -3.0947 4.72111 0
M  V30 12991 N 1216.48 -1.54033 -0.333429 0
M  V30 12992 C 1217.42 -1.82729 -1.40992 0
M  V30 12993 C 1218.39 -0.673677 -1.51825 0
M  V30 12994 O 1219.58 -0.919126 -1.67203 0
M  V30 12995 C 1216.72 -2.05155 -2.77498 0
M  V30 12996 C 1215.83 -3.32854 -2.75376 0
M  V30 12997 C 1214.97 -3.45294 -4.03665 0
M  V30 12998 C 1214.01 -4.66905 -3.95811 0
M  V30 12999 N 1213.14 -4.76323 -5.1581 0
M  V30 13000 H 1217.98 -2.74572 -1.15821 0
M  V30 13001 H 1215.52 -1.35988 -0.560859 0
M  V30 13002 H 1217.48 -2.16148 -3.56841 0
M  V30 13003 H 1216.11 -1.16615 -3.01 0
M  V30 13004 H 1215.16 -3.30651 -1.88081 0
M  V30 13005 H 1216.47 -4.22299 -2.65453 0
M  V30 13006 H 1215.63 -3.55775 -4.91436 0
M  V30 13007 H 1214.36 -2.53924 -4.16382 0
M  V30 13008 H 1213.37 -4.56491 -3.06425 0
M  V30 13009 H 1214.59 -5.59649 -3.84668 0
M  V30 13010 H 1212.54 -3.87866 -5.29052 0
M  V30 13011 H 1212.46 -5.59719 -5.08184 0
M  V30 13012 H 1213.73 -4.91125 -6.05324 0
M  V30 13013 N 1217.95 0.594978 -1.45938 0
M  V30 13014 C 1219.23 1.35477 -1.41086 0
M  V30 13015 C 1219.61 2.10917 -0.0879512 0
M  V30 13016 O 1218.96 2.08704 0.930323 0
M  V30 13017 C 1219.17 2.29106 -2.63271 0
M  V30 13018 C 1220.52 2.9132 -3.08898 0
M  V30 13019 O 1221.54 2.39423 -2.63733 0
M  V30 13020 O 1220.4 3.85553 -3.87313 0
M  V30 13021 H 1217.49 0.6081 -0.560485 0
M  V30 13022 H 1220.04 0.617016 -1.58085 0
M  V30 13023 H 1218.81 1.72707 -3.51124 0
M  V30 13024 H 1218.44 3.10241 -2.48669 0
M  V30 13025 N 1219.43 1.33438 0.838571 0
M  V30 13026 C 1220.71 1.1551 1.5785 0
M  V30 13027 C 1221.09 -0.278405 2.09256 0
M  V30 13028 O 1220.44 -1.27748 1.89453 0
M  V30 13029 C 1220.65 2.19647 2.71212 0
M  V30 13030 C 1222 2.53818 3.40384 0
M  V30 13031 O 1223.02 2.18317 2.81454 0
M  V30 13032 O 1221.88 3.14741 4.46766 0
M  V30 13033 H 1218.97 0.446785 0.695925 0
M  V30 13034 H 1221.52 1.45021 0.8813 0
M  V30 13035 H 1220.29 3.15936 2.30869 0
M  V30 13036 H 1219.91 1.91224 3.48596 0
M  V30 13037 N 1220.91 -1.05686 1.16912 0
M  V30 13038 C 1222.32 -1.60059 0.961153 0
M  V30 13039 C 1222.67 -1.89894 -0.493409 0
M  V30 13040 O 1221.8 -1.67692 -1.36778 0
M  V30 13041 C 1222.39 -2.90803 1.73837 0
M  V30 13042 C 1220.95 -3.41854 1.57522 0
M  V30 13043 C 1220.1 -2.15658 1.74319 0
M  V30 13044 H 1223.05 -0.885592 1.31693 0
M  V30 13045 H 1223.07 -3.60485 1.21781 0
M  V30 13046 H 1222.58 -2.69056 2.79697 0
M  V30 13047 H 1220.68 -3.68647 0.541284 0
M  V30 13048 H 1220.8 -4.16771 2.36302 0
M  V30 13049 H 1219.16 -2.26177 1.17115 0
M  V30 13050 H 1219.94 -1.96386 2.8158 0
M  V30 13051 N 1222.39 -0.968567 -1.24324 0
M  V30 13052 C 1223.64 -0.626519 -1.91723 0
M  V30 13053 C 1223.95 0.84225 -1.76538 0
M  V30 13054 O 1225.16 1.29486 -2.38633 0
M  V30 13055 C 1223.61 -1.06992 -3.43629 0
M  V30 13056 C 1223.22 -2.5622 -3.67499 0
M  V30 13057 C 1224.96 -0.801057 -4.16873 0
M  V30 13058 C 1222.87 -2.94288 -5.1298 0
M  V30 13059 H 1221.8 -0.23062 -0.717865 0
M  V30 13060 H 1224.45 -1.17489 -1.40956 0
M  V30 13061 H 1222.83 -0.44985 -3.93437 0
M  V30 13062 H 1224.01 -3.23364 -3.28287 0
M  V30 13063 H 1222.32 -2.80726 -3.07542 0
M  V30 13064 H 1224.92 -1.06147 -5.24058 0
M  V30 13065 H 1225.26 0.262742 -4.1547 0
M  V30 13066 H 1225.8 -1.38213 -3.73017 0
M  V30 13067 H 1222.54 -3.99743 -5.19506 0
M  V30 13068 H 1222.06 -2.31829 -5.53187 0
M  V30 13069 H 1223.73 -2.84242 -5.81219 0
M  V30 13070 N 1223.87 1.39211 -0.738786 0
M  V30 13071 C 1225.09 2.04732 -0.298751 0
M  V30 13072 C 1225.51 1.55706 1.06776 0
M  V30 13073 O 1224.87 0.723605 1.67542 0
M  V30 13074 C 1224.92 3.60288 -0.29574 0
M  V30 13075 O 1224.64 4.07511 -1.60831 0
M  V30 13076 C 1226.14 4.43011 0.159994 0
M  V30 13077 H 1223.36 0.658296 -0.129952 0
M  V30 13078 H 1225.9 1.78186 -1.0035 0
M  V30 13079 H 1224.06 3.85722 0.360146 0
M  V30 13080 H 1224.47 5.01858 -1.52443 0
M  V30 13081 H 1225.95 5.51889 0.110941 0
M  V30 13082 H 1226.42 4.22325 1.20573 0
M  V30 13083 H 1227.03 4.22734 -0.466467 0
M  V30 13084 N 1225.34 0.486708 1.49896 0
M  V30 13085 C 1226.27 -0.288898 2.31706 0
M  V30 13086 C 1227.26 -0.975901 1.3932 0
M  V30 13087 O 1228.44 -0.970065 1.68236 0
M  V30 13088 C 1225.57 -1.36218 3.19471 0
M  V30 13089 C 1224.52 -0.795884 4.20535 0
M  V30 13090 C 1223.85 -1.96862 4.97141 0
M  V30 13091 C 1225.15 0.203421 5.21904 0
M  V30 13092 H 1226.84 0.393934 2.96797 0
M  V30 13093 H 1224.39 0.190894 1.42729 0
M  V30 13094 H 1226.34 -1.91238 3.75508 0
M  V30 13095 H 1225.07 -2.074 2.52295 0
M  V30 13096 H 1223.73 -0.267538 3.65622 0
M  V30 13097 H 1223.37 -2.66779 4.26425 0
M  V30 13098 H 1223.07 -1.59585 5.65514 0
M  V30 13099 H 1224.6 -2.52343 5.56017 0
M  V30 13100 H 1226.01 -0.258144 5.72719 0
M  V30 13101 H 1224.41 0.491273 5.98086 0
M  V30 13102 H 1225.48 1.12414 4.7169 0
M  V30 13103 N 1226.82 -1.56058 0.219941 0
M  V30 13104 C 1228.07 -1.9826 -0.412197 0
M  V30 13105 C 1228.4 -1.10754 -1.59887 0
M  V30 13106 O 1227.65 -0.15212 -1.95108 0
M  V30 13107 C 1227.95 -3.46113 -0.8911 0
M  V30 13108 C 1227.62 -4.50521 0.184877 0
M  V30 13109 C 1226.28 -4.78795 0.480462 0
M  V30 13110 C 1228.63 -5.13147 0.912652 0
M  V30 13111 C 1225.96 -5.66979 1.50837 0
M  V30 13112 C 1228.31 -6.02444 1.92988 0
M  V30 13113 C 1226.98 -6.29063 2.2324 0
M  V30 13114 H 1226.25 -0.725486 -0.150834 0
M  V30 13115 H 1228.89 -1.88771 0.322122 0
M  V30 13116 H 1227.2 -3.52797 -1.70415 0
M  V30 13117 H 1228.9 -3.76137 -1.39003 0
M  V30 13118 H 1225.49 -4.28564 -0.0556594 0
M  V30 13119 H 1229.67 -4.91374 0.697532 0
M  V30 13120 H 1224.93 -5.85868 1.74839 0
M  V30 13121 H 1229.1 -6.50022 2.49889 0
M  V30 13122 H 1226.73 -6.97191 3.03032 0
M  V30 13123 N 1228.3 0.053464 -1.57509 0
M  V30 13124 C 1229.55 0.750212 -1.88414 0
M  V30 13125 C 1229.88 1.76288 -0.814619 0
M  V30 13126 O 1229.16 1.93728 0.173136 0
M  V30 13127 C 1229.44 1.44176 -3.29978 0
M  V30 13128 C 1229.29 0.444263 -4.47601 0
M  V30 13129 C 1230.61 2.38207 -3.70061 0
M  V30 13130 H 1227.73 0.271266 -0.685262 0
M  V30 13131 H 1230.37 0.0131676 -1.89995 0
M  V30 13132 H 1228.52 2.07001 -3.2876 0
M  V30 13133 H 1230.19 -0.180182 -4.60948 0
M  V30 13134 H 1228.44 -0.238771 -4.33142 0
M  V30 13135 H 1229.11 0.966134 -5.43479 0
M  V30 13136 H 1231.58 1.85446 -3.7249 0
M  V30 13137 H 1230.46 2.83588 -4.69967 0
M  V30 13138 H 1230.72 3.23821 -3.00985 0
M  V30 13139 N 1229.78 1.54207 0.325255 0
M  V30 13140 C 1230.74 1.82757 1.38321 0
M  V30 13141 C 1231.74 0.699312 1.44797 0
M  V30 13142 O 1232.93 0.96762 1.44854 0
M  V30 13143 C 1230.06 1.98608 2.7707 0
M  V30 13144 H 1231.26 2.7728 1.14261 0
M  V30 13145 H 1228.81 1.45899 0.560647 0
M  V30 13146 H 1229.55 1.0629 3.06387 0
M  V30 13147 H 1229.33 2.80707 2.73763 0
M  V30 13148 H 1230.82 2.2215 3.53609 0
M  V30 13149 N 1231.26 -0.58723 1.46251 0
M  V30 13150 C 1232.19 -1.70694 1.5933 0
M  V30 13151 C 1233.17 -1.64208 0.443831 0
M  V30 13152 O 1234.35 -1.82294 0.669516 0
M  V30 13153 C 1231.48 -3.0933 1.579 0
M  V30 13154 C 1230.44 -3.30643 2.7177 0
M  V30 13155 C 1229.76 -4.69761 2.554 0
M  V30 13156 C 1231.06 -3.18916 4.1363 0
M  V30 13157 H 1232.76 -1.60004 2.53059 0
M  V30 13158 H 1230.3 -0.768343 1.21789 0
M  V30 13159 H 1232.26 -3.87479 1.65644 0
M  V30 13160 H 1230.98 -3.20907 0.60712 0
M  V30 13161 H 1229.64 -2.54892 2.63488 0
M  V30 13162 H 1229.29 -4.78098 1.56306 0
M  V30 13163 H 1228.99 -4.84974 3.31774 0
M  V30 13164 H 1230.51 -5.50084 2.65028 0
M  V30 13165 H 1231.93 -3.86915 4.23048 0
M  V30 13166 H 1230.32 -3.45653 4.90555 0
M  V30 13167 H 1231.39 -2.1606 4.34104 0
M  V30 13168 N 1232.74 -1.33881 -0.831482 0
M  V30 13169 C 1233.96 -1.28961 -1.62431 0
M  V30 13170 C 1234.39 0.135249 -1.87613 0
M  V30 13171 O 1233.74 1.09426 -1.44553 0
M  V30 13172 C 1233.79 -2.07767 -2.94729 0
M  V30 13173 O 1232.9 -1.44133 -3.86393 0
M  V30 13174 H 1232.24 -0.443313 -0.494337 0
M  V30 13175 H 1234.77 -1.76555 -1.0339 0
M  V30 13176 H 1234.78 -2.18806 -3.44366 0
M  V30 13177 H 1233.45 -3.11367 -2.75724 0
M  V30 13178 H 1232.03 -1.41784 -3.44894 0
M  V30 13179 N 1234.21 1.05064 -1.1747 0
M  V30 13180 C 1235.62 1.59547 -0.969628 0
M  V30 13181 C 1235.98 1.90153 0.483332 0
M  V30 13182 O 1235.1 1.68415 1.35887 0
M  V30 13183 C 1235.7 2.89877 -1.75377 0
M  V30 13184 C 1234.25 3.41013 -1.59332 0
M  V30 13185 C 1233.4 2.1473 -1.7546 0
M  V30 13186 H 1236.35 0.878595 -1.3216 0
M  V30 13187 H 1236.37 3.59834 -1.23691 0
M  V30 13188 H 1235.89 2.67569 -2.8112 0
M  V30 13189 H 1233.99 3.68355 -0.560827 0
M  V30 13190 H 1234.1 4.15512 -2.38509 0
M  V30 13191 H 1232.46 2.25553 -1.18313 0
M  V30 13192 H 1233.25 1.9489 -2.82618 0
M  V30 13193 N 1235.69 0.975146 1.23809 0
M  V30 13194 C 1236.62 0.469151 2.24347 0
M  V30 13195 C 1237.64 -0.426156 1.57123 0
M  V30 13196 O 1238.83 -0.231136 1.76997 0
M  V30 13197 C 1235.93 -0.34121 3.37178 0
M  V30 13198 C 1235.1 0.545968 4.33979 0
M  V30 13199 C 1234.16 -0.209648 5.25782 0
M  V30 13200 O 1233.18 0.398953 5.678 0
M  V30 13201 N 1234.39 -1.49713 5.60862 0
M  V30 13202 H 1237.15 1.33359 2.68394 0
M  V30 13203 H 1234.71 0.847814 1.37927 0
M  V30 13204 H 1236.7 -0.854924 3.95567 0
M  V30 13205 H 1235.27 -1.10663 2.92357 0
M  V30 13206 H 1234.49 1.24057 3.7417 0
M  V30 13207 H 1235.78 1.15077 4.95615 0
M  V30 13208 H 1235.18 -2.0132 5.28665 0
M  V30 13209 H 1233.74 -1.95639 6.21746 0
M  V30 13210 N 1237.17 -1.38817 0.746158 0
M  V30 13211 C 1238.42 -1.99885 0.298425 0
M  V30 13212 C 1238.74 -1.59518 -1.12156 0
M  V30 13213 O 1238.01 -0.848568 -1.76568 0
M  V30 13214 H 1236.59 -0.739247 0.107347 0
M  V30 13215 H 1239.25 -1.69696 0.9586 0
M  V30 13216 H 1238.35 -3.10067 0.355656 0
M  V30 13217 N 1238.65 -0.49465 -1.49636 0
M  V30 13218 C 1239.88 0.0491129 -2.06842 0
M  V30 13219 C 1240.29 1.31395 -1.35576 0
M  V30 13220 O 1239.65 1.7731 -0.432135 0
M  V30 13221 C 1239.7 0.313171 -3.60141 0
M  V30 13222 O 1239.42 -0.90152 -4.28724 0
M  V30 13223 C 1240.92 0.901284 -4.34041 0
M  V30 13224 H 1238.14 -0.0176186 -0.670769 0
M  V30 13225 H 1240.68 -0.690188 -1.92501 0
M  V30 13226 H 1238.84 1.00244 -3.74206 0
M  V30 13227 H 1239.25 -0.660477 -5.20325 0
M  V30 13228 H 1240.73 1.03567 -5.42197 0
M  V30 13229 H 1241.2 1.89746 -3.96097 0
M  V30 13230 H 1241.81 0.249677 -4.24566 0
M  V30 13231 N 1240.13 1.55939 -0.228214 0
M  V30 13232 C 1241.09 2.1932 0.665681 0
M  V30 13233 C 1242.09 1.15699 1.11671 0
M  V30 13234 O 1243.28 1.40893 1.02444 0
M  V30 13235 C 1240.41 2.82185 1.9127 0
M  V30 13236 H 1241.6 2.99687 0.112986 0
M  V30 13237 H 1239.16 1.56285 0.0213865 0
M  V30 13238 H 1239.89 2.05706 2.5071 0
M  V30 13239 H 1239.68 3.58073 1.5977 0
M  V30 13240 H 1241.17 3.30748 2.54942 0
M  V30 13241 N 1241.6 -0.0451101 1.57535 0
M  V30 13242 C 1242.54 -1.07792 2.02271 0
M  V30 13243 C 1243.55 -1.33423 0.932854 0
M  V30 13244 O 1244.74 -1.31193 1.2104 0
M  V30 13245 C 1241.84 -2.42314 2.36933 0
M  V30 13246 C 1241.01 -2.36266 3.68099 0
M  V30 13247 C 1240.07 -3.53108 3.9013 0
M  V30 13248 O 1239.1 -3.33327 4.61391 0
M  V30 13249 N 1240.3 -4.74415 3.3453 0
M  V30 13250 H 1243.06 -0.696744 2.91489 0
M  V30 13251 H 1240.62 -0.233336 1.6021 0
M  V30 13252 H 1242.62 -3.19171 2.48821 0
M  V30 13253 H 1241.19 -2.72335 1.53468 0
M  V30 13254 H 1240.41 -1.44615 3.66715 0
M  V30 13255 H 1241.69 -2.29351 4.54175 0
M  V30 13256 H 1241.09 -4.93388 2.76739 0
M  V30 13257 H 1239.65 -5.48692 3.51825 0
M  V30 13258 N 1243.08 -1.54377 -0.317073 0
M  V30 13259 C 1244.33 -1.72551 -1.05216 0
M  V30 13260 C 1244.65 -0.5055 -1.88334 0
M  V30 13261 O 1243.92 0.480439 -1.89917 0
M  V30 13262 H 1242.5 -0.636222 -0.391447 0
M  V30 13263 H 1245.16 -1.91696 -0.35194 0
M  V30 13264 H 1244.26 -2.60791 -1.71448 0
M  V30 13265 N 1244.56 0.579466 -1.4656 0
M  V30 13266 C 1245.47 1.71609 -1.59961 0
M  V30 13267 C 1246.49 1.67162 -0.483002 0
M  V30 13268 O 1247.66 1.87012 -0.747561 0
M  V30 13269 C 1244.73 3.08114 -1.58954 0
M  V30 13270 C 1243.79 3.238 -2.81872 0
M  V30 13271 C 1243.02 4.53794 -2.80904 0
M  V30 13272 O 1243.24 5.37884 -1.89835 0
M  V30 13273 O 1242.18 4.72796 -3.72488 0
M  V30 13274 H 1246 1.6325 -2.56092 0
M  V30 13275 H 1243.59 0.746891 -1.2939 0
M  V30 13276 H 1245.47 3.8939 -1.611 0
M  V30 13277 H 1244.15 3.16903 -0.65984 0
M  V30 13278 H 1243.05 2.42006 -2.85279 0
M  V30 13279 H 1244.39 3.19904 -3.74062 0
M  V30 13280 N 1246.04 1.3432 0.824371 0
M  V30 13281 C 1246.97 1.2842 1.95014 0
M  V30 13282 C 1247.95 0.161925 1.69328 0
M  V30 13283 O 1249.13 0.354052 1.90945 0
M  V30 13284 C 1246.26 1.03741 3.31444 0
M  V30 13285 C 1245.22 2.12419 3.71567 0
M  V30 13286 C 1244.54 1.72931 5.05963 0
M  V30 13287 C 1245.84 3.54235 3.83817 0
M  V30 13288 H 1247.54 2.22614 2.00209 0
M  V30 13289 H 1245.08 1.07165 0.961856 0
M  V30 13290 H 1247.04 0.982586 4.09784 0
M  V30 13291 H 1245.76 0.0598892 3.26545 0
M  V30 13292 H 1244.42 2.16968 2.955 0
M  V30 13293 H 1244.07 0.738433 4.9755 0
M  V30 13294 H 1243.77 2.45668 5.3378 0
M  V30 13295 H 1245.29 1.68941 5.86763 0
M  V30 13296 H 1246.71 3.52106 4.52432 0
M  V30 13297 H 1245.1 4.25581 4.23085 0
M  V30 13298 H 1246.17 3.91682 2.85856 0
M  V30 13299 N 1247.52 -1.0444 1.18026 0
M  V30 13300 C 1248.76 -1.77575 0.973314 0
M  V30 13301 C 1249.09 -1.88032 -0.4974 0
M  V30 13302 O 1248.35 -1.38214 -1.38548 0
M  V30 13303 C 1248.65 -3.21134 1.56869 0
M  V30 13304 C 1248.31 -3.30718 3.0649 0
M  V30 13305 C 1246.97 -3.33041 3.47328 0
M  V30 13306 C 1249.33 -3.3112 4.02503 0
M  V30 13307 C 1246.65 -3.33404 4.82762 0
M  V30 13308 C 1249.01 -3.33023 5.37846 0
M  V30 13309 C 1247.67 -3.33636 5.78138 0
M  V30 13310 H 1246.94 -0.649793 0.356161 0
M  V30 13311 H 1249.59 -1.22693 1.47033 0
M  V30 13312 H 1247.89 -3.78992 0.993584 0
M  V30 13313 H 1249.59 -3.76358 1.38404 0
M  V30 13314 H 1246.18 -3.29628 2.7394 0
M  V30 13315 H 1250.36 -3.2852 3.72006 0
M  V30 13316 H 1245.62 -3.32194 5.13281 0
M  V30 13317 H 1249.79 -3.32283 6.12014 0
M  V30 13318 H 1247.42 -3.33671 6.83058 0
M  V30 13319 N 1248.99 -0.981699 -1.2329 0
M  V30 13320 C 1249.92 -0.542441 -2.27112 0
M  V30 13321 C 1250.91 0.425034 -1.64704 0
M  V30 13322 O 1252.09 0.318114 -1.91577 0
M  V30 13323 C 1249.22 0.154668 -3.46955 0
M  V30 13324 C 1248.17 -0.73022 -4.21725 0
M  V30 13325 C 1247.5 0.0991766 -5.34608 0
M  V30 13326 C 1248.8 -2.02166 -4.81587 0
M  V30 13327 H 1250.49 -1.41024 -2.64107 0
M  V30 13328 H 1248.04 -0.679544 -1.26957 0
M  V30 13329 H 1249.99 0.473281 -4.18734 0
M  V30 13330 H 1248.72 1.05693 -3.09025 0
M  V30 13331 H 1247.38 -1.03231 -3.51765 0
M  V30 13332 H 1247.02 1.00201 -4.92919 0
M  V30 13333 H 1246.72 -0.489788 -5.85555 0
M  V30 13334 H 1248.25 0.412141 -6.09207 0
M  V30 13335 H 1249.66 -1.76773 -5.45366 0
M  V30 13336 H 1248.06 -2.55851 -5.42826 0
M  V30 13337 H 1249.13 -2.70766 -4.02261 0
M  V30 13338 N 1250.47 1.3842 -0.753509 0
M  V30 13339 C 1251.75 1.94181 -0.235142 0
M  V30 13340 C 1252.13 1.68881 1.26659 0
M  V30 13341 O 1251.48 1.02731 2.04104 0
M  V30 13342 C 1251.69 3.43998 -0.588751 0
M  V30 13343 C 1253.04 4.21044 -0.548352 0
M  V30 13344 O 1254.06 3.52279 -0.52704 0
M  V30 13345 O 1252.92 5.43631 -0.559221 0
M  V30 13346 H 1250.01 0.825536 -0.0491834 0
M  V30 13347 H 1252.56 1.47813 -0.833626 0
M  V30 13348 H 1251.33 3.55921 -1.6259 0
M  V30 13349 H 1250.95 3.97582 0.0377429 0
M  V30 13350 N 1251.95 0.502579 1.49372 0
M  V30 13351 C 1253.23 -0.104472 1.95321 0
M  V30 13352 C 1253.61 -1.53975 1.44412 0
M  V30 13353 O 1252.96 -2.18804 0.658566 0
M  V30 13354 C 1253.17 -0.0154833 3.48997 0
M  V30 13355 C 1254.51 -0.188615 4.24181 0
M  V30 13356 O 1255.54 -0.090595 3.56085 0
M  V30 13357 O 1254.4 -0.390068 5.45106 0
M  V30 13358 H 1251.49 -0.0944325 0.821591 0
M  V30 13359 H 1254.04 0.565229 1.6001 0
M  V30 13360 H 1252.81 0.985383 3.7869 0
M  V30 13361 H 1252.43 -0.72526 3.90929 0
M  V30 13362 N 1253.43 -1.55816 0.23648 0
M  V30 13363 C 1254.68 -1.98294 -0.390373 0
M  V30 13364 C 1255 -1.12573 -1.59224 0
M  V30 13365 O 1254.27 -0.206128 -1.94813 0
M  V30 13366 H 1252.85 -0.732349 -0.14722 0
M  V30 13367 H 1255.51 -1.92037 0.332848 0
M  V30 13368 H 1254.61 -3.03996 -0.706595 0
M  V30 13369 N 1254.91 0.036755 -1.57557 0
M  V30 13370 C 1255.86 1.04744 -2.02516 0
M  V30 13371 C 1256.84 1.3248 -0.913116 0
M  V30 13372 O 1258.03 1.32194 -1.17702 0
M  V30 13373 C 1255.16 2.3509 -2.50175 0
M  V30 13374 C 1254.25 2.10478 -3.68185 0
M  V30 13375 N 1254.64 1.55899 -4.81175 0
M  V30 13376 C 1252.94 2.40797 -3.7541 0
M  V30 13377 C 1253.64 1.46913 -5.62842 0
M  V30 13378 N 1252.61 1.94202 -5.07727 0
M  V30 13379 H 1256.42 0.619342 -2.873 0
M  V30 13380 H 1253.93 0.243208 -1.60569 0
M  V30 13381 H 1255.93 3.08297 -2.8064 0
M  V30 13382 H 1254.59 2.78586 -1.66793 0
M  V30 13383 H 1255.6 1.24275 -5.02769 0
M  V30 13384 H 1252.27 2.8742 -3.02813 0
M  V30 13385 H 1253.66 1.0527 -6.63602 0
M  V30 13386 N 1256.39 1.54543 0.308881 0
M  V30 13387 C 1257.61 1.77431 1.06422 0
M  V30 13388 C 1258.03 0.529972 1.81209 0
M  V30 13389 O 1257.39 -0.499912 1.7552 0
M  V30 13390 C 1257.44 2.9769 2.05092 0
M  V30 13391 O 1257.16 4.17315 1.33341 0
M  V30 13392 C 1258.66 3.32905 2.92727 0
M  V30 13393 H 1255.88 0.591961 0.315948 0
M  V30 13394 H 1258.42 2.01473 0.350547 0
M  V30 13395 H 1256.58 2.7588 2.71973 0
M  V30 13396 H 1256.99 4.85061 1.99539 0
M  V30 13397 H 1258.47 4.20314 3.57827 0
M  V30 13398 H 1258.94 2.50713 3.6061 0
M  V30 13399 H 1259.55 3.56847 2.31388 0
M  V30 13400 N 1257.86 -0.571685 1.46866 0
M  V30 13401 C 1259.11 -1.32948 1.52745 0
M  V30 13402 C 1259.44 -1.93631 0.183694 0
M  V30 13403 O 1258.69 -1.77605 -0.821886 0
M  V30 13404 C 1258.99 -2.47051 2.58264 0
M  V30 13405 C 1258.66 -2.04291 4.01965 0
M  V30 13406 C 1257.32 -1.92345 4.41086 0
M  V30 13407 C 1259.67 -1.71458 4.9219 0
M  V30 13408 C 1257 -1.4584 5.68285 0
M  V30 13409 C 1259.35 -1.26429 6.19837 0
M  V30 13410 C 1258.02 -1.13068 6.57854 0
M  V30 13411 H 1257.29 -0.48649 0.558935 0
M  V30 13412 H 1259.93 -0.642618 1.80396 0
M  V30 13413 H 1258.24 -3.21231 2.24316 0
M  V30 13414 H 1259.94 -3.05254 2.6004 0
M  V30 13415 H 1256.53 -2.14527 3.71047 0
M  V30 13416 H 1260.71 -1.79567 4.62676 0
M  V30 13417 H 1255.97 -1.34148 5.96502 0
M  V30 13418 H 1260.14 -1.00081 6.89171 0
M  V30 13419 H 1257.77 -0.768094 7.5631 0
M  V30 13420 N 1259.34 -1.34755 -0.817236 0
M  V30 13421 C 1260.29 -1.26816 -1.94988 0
M  V30 13422 C 1261.28 -0.165142 -1.68593 0
M  V30 13423 O 1262.49 -0.330469 -1.7694 0
M  V30 13424 H 1258.86 -0.394113 -0.640452 0
M  V30 13425 H 1260.84 -2.22528 -1.98806 0
M  V30 13426 C 1259.58 -1.04625 -3.31586 0
M  V30 13427 H 1258.91 -1.88735 -3.52447 0
M  V30 13428 H 1260.35 -1.03108 -4.11272 0
M  V30 13429 C 1258.81 0.250283 -3.35969 0
M  V30 13430 O 1259.34 1.24972 -3.81765 0
M  V30 13431 N 1257.54 0.285369 -2.89195 0
M  V30 13432 H 1257.09 -0.528528 -2.5212 0
M  V30 13433 H 1257.05 1.15261 -2.9251 0
M  V30 13434 N 1260.82 1.03812 -1.18578 0
M  V30 13435 C 1262.05 1.8044 -1.00623 0
M  V30 13436 C 1262.46 1.83808 0.448451 0
M  V30 13437 O 1261.8 1.27417 1.32328 0
M  V30 13438 C 1261.86 3.27266 -1.48785 0
M  V30 13439 C 1261.53 3.47553 -2.96742 0
M  V30 13440 C 1262.52 3.38533 -3.94578 0
M  V30 13441 C 1260.21 3.74067 -3.3523 0
M  V30 13442 C 1262.2 3.55735 -5.28896 0
M  V30 13443 C 1259.89 3.90916 -4.6971 0
M  V30 13444 C 1260.89 3.81751 -5.66352 0
M  V30 13445 O 1260.58 3.98115 -6.98398 0
M  V30 13446 H 1260.31 0.574996 -0.355465 0
M  V30 13447 H 1262.86 1.31708 -1.57614 0
M  V30 13448 H 1261.09 3.76979 -0.861613 0
M  V30 13449 H 1262.78 3.85461 -1.27181 0
M  V30 13450 H 1263.55 3.18011 -3.66189 0
M  V30 13451 H 1259.43 3.80298 -2.60566 0
M  V30 13452 H 1262.97 3.48498 -6.04314 0
M  V30 13453 H 1258.87 4.10934 -4.97799 0
M  V30 13454 H 1259.63 4.1526 -7.05338 0
M  V30 13455 N 1262.3 0.988223 1.22768 0
M  V30 13456 C 1263.23 0.492919 2.23837 0
M  V30 13457 C 1264.24 -0.409467 1.57567 0
M  V30 13458 O 1265.43 -0.21235 1.77232 0
M  V30 13459 C 1262.53 -0.305428 3.37521 0
M  V30 13460 C 1261.7 0.591966 4.33376 0
M  V30 13461 C 1260.76 -0.15387 5.25975 0
M  V30 13462 O 1259.79 0.459153 5.67345 0
M  V30 13463 N 1260.99 -1.43756 5.62418 0
M  V30 13464 H 1263.76 1.36199 2.66965 0
M  V30 13465 H 1261.32 0.862395 1.3702 0
M  V30 13466 H 1263.31 -0.812921 3.96451 0
M  V30 13467 H 1261.88 -1.07556 2.93514 0
M  V30 13468 H 1261.1 1.28019 3.72833 0
M  V30 13469 H 1262.39 1.20327 4.94367 0
M  V30 13470 H 1261.79 -1.95701 5.30771 0
M  V30 13471 H 1260.34 -1.89034 6.23786 0
M  V30 13472 N 1263.78 -1.38018 0.760839 0
M  V30 13473 C 1265 -2.04231 0.331285 0
M  V30 13474 C 1265.42 -1.57385 -1.04285 0
M  V30 13475 O 1264.78 -0.750168 -1.66369 0
M  V30 13476 C 1264.83 -3.59772 0.353021 0
M  V30 13477 O 1264.55 -4.049 1.67294 0
M  V30 13478 C 1266.05 -4.4321 -0.0894942 0
M  V30 13479 H 1263.27 -0.656145 0.140408 0
M  V30 13480 H 1265.81 -1.76567 1.03172 0
M  V30 13481 H 1263.97 -3.86246 -0.298735 0
M  V30 13482 H 1264.38 -4.99369 1.60408 0
M  V30 13483 H 1265.86 -5.51995 -0.0231262 0
M  V30 13484 H 1266.33 -4.2419 -1.13839 0
M  V30 13485 H 1266.94 -4.21939 0.533661 0
M  V30 13486 N 1265.25 -0.510493 -1.49103 0
M  V30 13487 C 1266.67 -0.167061 -1.58723 0
M  V30 13488 C 1266.87 1.32886 -1.51471 0
M  V30 13489 O 1265.93 2.10559 -1.39359 0
M  V30 13490 C 1267.24 -0.752293 -2.91137 0
M  V30 13491 C 1268.79 -0.719258 -3.04624 0
M  V30 13492 C 1269.26 -1.28272 -4.39671 0
M  V30 13493 N 1270.75 -1.24383 -4.46187 0
M  V30 13494 C 1271.49 -1.6499 -5.4915 0
M  V30 13495 N 1270.98 -2.13235 -6.59168 0
M  V30 13496 N 1272.78 -1.56348 -5.39918 0
M  V30 13497 H 1264.93 -1.48296 -1.5206 0
M  V30 13498 H 1267.19 -0.615683 -0.72086 0
M  V30 13499 H 1266.9 -1.80178 -3.02041 0
M  V30 13500 H 1266.77 -0.218152 -3.76569 0
M  V30 13501 H 1269.16 0.321413 -2.93344 0
M  V30 13502 H 1269.24 -1.29065 -2.20852 0
M  V30 13503 H 1268.88 -2.32222 -4.51703 0
M  V30 13504 H 1268.81 -0.687179 -5.22097 0
M  V30 13505 H 1271.3 -0.890446 -3.67259 0
M  V30 13506 H 1271.62 -2.42266 -7.33844 0
M  V30 13507 H 1269.96 -2.17216 -6.60183 0
M  V30 13508 H 1273.15 -1.18469 -4.52861 0
M  V30 13509 H 1273.33 -1.88317 -6.20033 0
M  V30 13510 N 1266.73 1.55688 -0.24474 0
M  V30 13511 C 1267.66 2.18616 0.68844 0
M  V30 13512 C 1268.68 1.16185 1.14039 0
M  V30 13513 O 1269.87 1.43059 1.06754 0
M  V30 13514 C 1266.97 2.77375 1.94721 0
M  V30 13515 C 1266.14 4.05204 1.64706 0
M  V30 13516 C 1265.2 4.48302 2.75521 0
M  V30 13517 O 1264.22 5.14723 2.42999 0
M  V30 13518 N 1265.43 4.15907 4.04971 0
M  V30 13519 H 1268.19 2.99324 0.150018 0
M  V30 13520 H 1265.75 1.61771 -0.0646183 0
M  V30 13521 H 1267.74 3.03165 2.68091 0
M  V30 13522 H 1266.31 2.00837 2.39548 0
M  V30 13523 H 1265.53 3.87026 0.74865 0
M  V30 13524 H 1266.82 4.8855 1.42114 0
M  V30 13525 H 1266.22 3.62579 4.34227 0
M  V30 13526 H 1264.78 4.46538 4.74813 0
M  V30 13527 N 1268.21 -0.0283989 1.57574 0
M  V30 13528 C 1269.12 -1.04575 2.10003 0
M  V30 13529 C 1270.14 -1.39588 1.03881 0
M  V30 13530 O 1271.31 -1.48894 1.35619 0
M  V30 13531 C 1268.38 -2.32755 2.56955 0
M  V30 13532 C 1267.44 -2.04317 3.77562 0
M  V30 13533 C 1266.67 -3.26385 4.22266 0
M  V30 13534 O 1266.89 -4.37082 3.66491 0
M  V30 13535 O 1265.83 -3.12046 5.14695 0
M  V30 13536 H 1269.65 -0.630183 2.9709 0
M  V30 13537 H 1267.24 -0.245423 1.4737 0
M  V30 13538 H 1269.12 -3.08111 2.87482 0
M  V30 13539 H 1267.8 -2.73605 1.72979 0
M  V30 13540 H 1266.7 -1.26527 3.52054 0
M  V30 13541 H 1268.04 -1.68321 4.62524 0
M  V30 13542 N 1269.69 -1.54705 -0.300681 0
M  V30 13543 C 1270.93 -1.74001 -1.03585 0
M  V30 13544 C 1271.26 -0.525972 -1.87253 0
M  V30 13545 O 1270.52 0.492068 -1.89413 0
M  V30 13546 C 1270.82 -2.98173 -1.97047 0
M  V30 13547 C 1270.48 -4.31948 -1.29352 0
M  V30 13548 C 1269.14 -4.68312 -1.10623 0
M  V30 13549 C 1271.5 -5.14874 -0.809594 0
M  V30 13550 C 1268.82 -5.85181 -0.42185 0
M  V30 13551 C 1271.18 -6.32447 -0.138935 0
M  V30 13552 C 1269.84 -6.67473 0.0603129 0
M  V30 13553 H 1269.11 -0.636716 -0.379044 0
M  V30 13554 H 1271.76 -1.88963 -0.310697 0
M  V30 13555 H 1270.06 -2.77994 -2.76091 0
M  V30 13556 H 1271.76 -3.10297 -2.54001 0
M  V30 13557 H 1268.35 -4.0335 -1.44937 0
M  V30 13558 H 1272.53 -4.87278 -0.942006 0
M  V30 13559 H 1267.79 -6.10862 -0.256494 0
M  V30 13560 H 1271.96 -6.95973 0.243939 0
M  V30 13561 H 1269.59 -7.57887 0.592626 0
M  V30 13562 N 1271.17 0.563888 -1.47167 0
M  V30 13563 C 1272.1 1.68137 -1.62025 0
M  V30 13564 C 1273.08 1.63481 -0.469899 0
M  V30 13565 O 1274.26 1.81206 -0.698432 0
M  V30 13566 C 1271.39 3.06779 -1.62801 0
M  V30 13567 C 1270.35 3.26278 -2.76996 0
M  V30 13568 C 1269.67 4.65638 -2.62841 0
M  V30 13569 C 1270.97 3.12295 -4.18651 0
M  V30 13570 H 1272.67 1.55958 -2.55573 0
M  V30 13571 H 1270.21 0.74887 -1.22996 0
M  V30 13572 H 1272.17 3.84795 -1.71787 0
M  V30 13573 H 1270.89 3.19901 -0.658097 0
M  V30 13574 H 1269.55 2.50668 -2.67509 0
M  V30 13575 H 1269.2 4.75551 -1.63892 0
M  V30 13576 H 1268.9 4.79635 -3.39447 0
M  V30 13577 H 1270.42 5.45798 -2.73746 0
M  V30 13578 H 1271.83 3.80136 -4.2915 0
M  V30 13579 H 1270.23 3.37805 -4.95992 0
M  V30 13580 H 1271.3 2.09126 -4.37486 0
M  V30 13581 N 1272.64 1.35187 0.810078 0
M  V30 13582 C 1273.57 1.30481 1.93641 0
M  V30 13583 C 1274.56 0.179875 1.69146 0
M  V30 13584 O 1275.74 0.374284 1.90559 0
M  V30 13585 C 1272.87 1.07251 3.30325 0
M  V30 13586 C 1271.82 2.16348 3.69293 0
M  V30 13587 C 1271.15 1.78288 5.04101 0
M  V30 13588 C 1272.45 3.58285 3.80038 0
M  V30 13589 H 1274.14 2.24725 1.97836 0
M  V30 13590 H 1271.69 1.08179 0.950436 0
M  V30 13591 H 1273.64 1.02599 4.08719 0
M  V30 13592 H 1272.37 0.0945203 3.26463 0
M  V30 13593 H 1271.03 2.2009 2.93182 0
M  V30 13594 H 1270.67 0.791163 4.96739 0
M  V30 13595 H 1270.37 2.51315 5.31144 0
M  V30 13596 H 1271.9 1.75155 5.84938 0
M  V30 13597 H 1273.31 3.56884 4.48672 0
M  V30 13598 H 1271.71 4.30044 4.18548 0
M  V30 13599 H 1272.78 3.94691 2.81685 0
M  V30 13600 N 1274.12 -1.03182 1.19127 0
M  V30 13601 C 1275.54 -1.28773 0.942854 0
M  V30 13602 C 1275.74 -1.97759 -0.386483 0
M  V30 13603 O 1274.79 -2.26365 -1.1187 0
M  V30 13604 C 1276.11 -2.13771 2.11476 0
M  V30 13605 C 1277.66 -2.27089 2.15406 0
M  V30 13606 C 1278.13 -3.15458 3.32039 0
M  V30 13607 N 1279.62 -3.23046 3.31957 0
M  V30 13608 C 1280.36 -3.91604 4.18848 0
M  V30 13609 N 1279.85 -4.62418 5.15889 0
M  V30 13610 N 1281.65 -3.87974 4.06734 0
M  V30 13611 H 1273.8 -0.568165 2.0466 0
M  V30 13612 H 1276.06 -0.31328 0.89474 0
M  V30 13613 H 1275.77 -1.704 3.07663 0
M  V30 13614 H 1275.64 -3.14476 2.0829 0
M  V30 13615 H 1278.03 -2.69693 1.19791 0
M  V30 13616 H 1278.11 -1.25945 2.22647 0
M  V30 13617 H 1277.75 -2.73564 4.27931 0
M  V30 13618 H 1277.68 -4.16654 3.22035 0
M  V30 13619 H 1280.17 -2.7261 2.6171 0
M  V30 13620 H 1280.49 -5.12353 5.78545 0
M  V30 13621 H 1278.83 -4.61293 5.1984 0
M  V30 13622 H 1282.02 -3.31789 3.30202 0
M  V30 13623 H 1282.19 -4.4113 4.74666 0
M  V30 13624 N 1275.6 -0.99472 -1.22242 0
M  V30 13625 C 1277.02 -0.705762 -1.43147 0
M  V30 13626 C 1277.22 0.722908 -1.88086 0
M  V30 13627 O 1276.27 1.49359 -2.03588 0
M  V30 13628 C 1277.59 -1.71288 -2.47145 0
M  V30 13629 C 1279.13 -1.72853 -2.60942 0
M  V30 13630 C 1279.61 -2.72433 -3.68163 0
M  V30 13631 N 1281.1 -2.71039 -3.75623 0
M  V30 13632 C 1281.83 -3.44753 -4.58184 0
M  V30 13633 N 1281.33 -4.28075 -5.44724 0
M  V30 13634 N 1283.12 -3.33451 -4.52512 0
M  V30 13635 H 1275.27 -1.91738 -0.913792 0
M  V30 13636 H 1277.54 -0.82702 -0.463403 0
M  V30 13637 H 1277.24 -2.7353 -2.21075 0
M  V30 13638 H 1277.12 -1.50721 -3.45779 0
M  V30 13639 H 1279.5 -0.713085 -2.86355 0
M  V30 13640 H 1279.59 -1.9749 -1.62577 0
M  V30 13641 H 1279.23 -3.74129 -3.43497 0
M  V30 13642 H 1279.16 -2.45066 -4.66101 0
M  V30 13643 H 1281.65 -2.10581 -3.1379 0
M  V30 13644 H 1281.96 -4.81143 -6.04749 0
M  V30 13645 H 1280.31 -4.32161 -5.44299 0
M  V30 13646 H 1283.5 -2.67797 -3.8393 0
M  V30 13647 H 1283.67 -3.91158 -5.16623 0
M  V30 13648 N 1277.08 1.37613 -0.768148 0
M  V30 13649 C 1278.33 1.99779 -0.330841 0
M  V30 13650 C 1278.65 1.60978 1.09162 0
M  V30 13651 O 1277.91 0.845778 1.7648 0
M  V30 13652 C 1278.21 3.54952 -0.417608 0
M  V30 13653 C 1277.87 4.13509 -1.7978 0
M  V30 13654 C 1276.54 4.29216 -2.17549 0
M  V30 13655 C 1278.89 4.45662 -2.7025 0
M  V30 13656 C 1276.22 4.74376 -3.45231 0
M  V30 13657 C 1278.57 4.92245 -3.97338 0
M  V30 13658 C 1277.23 5.06157 -4.35157 0
M  V30 13659 H 1276.5 0.731044 -0.121063 0
M  V30 13660 H 1279.15 1.64437 -0.98147 0
M  V30 13661 H 1277.45 3.90519 0.316567 0
M  V30 13662 H 1279.15 4.00954 -0.0606037 0
M  V30 13663 H 1275.74 4.01709 -1.49425 0
M  V30 13664 H 1279.92 4.33116 -2.42332 0
M  V30 13665 H 1275.18 4.83333 -3.74431 0
M  V30 13666 H 1279.35 5.16091 -4.67572 0
M  V30 13667 H 1276.98 5.4091 -5.34154 0
M  V30 13668 N 1278.56 0.518393 1.4883 0
M  V30 13669 C 1279.78 -0.0183131 2.07392 0
M  V30 13670 C 1280.21 -1.28468 1.37396 0
M  V30 13671 O 1279.56 -1.75975 0.436177 0
M  V30 13672 C 1279.61 -0.237211 3.59819 0
M  V30 13673 O 1278.72 -1.30835 3.91096 0
M  V30 13674 H 1278.06 0.0339621 0.663131 0
M  V30 13675 H 1280.59 0.722993 1.914 0
M  V30 13676 H 1280.6 -0.463424 4.0536 0
M  V30 13677 H 1279.27 0.687925 4.10171 0
M  V30 13678 H 1277.85 -1.06571 3.57347 0
M  V30 13679 N 1280.03 -1.55556 0.252993 0
M  V30 13680 C 1281.28 -1.9909 -0.37005 0
M  V30 13681 C 1281.61 -1.1412 -1.57502 0
M  V30 13682 O 1280.86 -0.193471 -1.94741 0
M  V30 13683 C 1281.16 -3.47925 -0.817484 0
M  V30 13684 C 1280.83 -4.50027 0.280398 0
M  V30 13685 C 1279.49 -4.77669 0.581914 0
M  V30 13686 C 1281.84 -5.11096 1.02129 0
M  V30 13687 C 1279.17 -5.63652 1.62829 0
M  V30 13688 C 1281.52 -5.98215 2.05723 0
M  V30 13689 C 1280.19 -6.24186 2.36533 0
M  V30 13690 H 1279.46 -0.728522 -0.135411 0
M  V30 13691 H 1282.1 -1.88046 0.36209 0
M  V30 13692 H 1280.41 -3.56333 -1.62893 0
M  V30 13693 H 1282.11 -3.79001 -1.30993 0
M  V30 13694 H 1278.7 -4.28585 0.0352579 0
M  V30 13695 H 1282.88 -4.89784 0.801603 0
M  V30 13696 H 1278.14 -5.82028 1.87227 0
M  V30 13697 H 1282.31 -6.44575 2.6362 0
M  V30 13698 H 1279.94 -6.90607 3.17752 0
M  V30 13699 N 1281.51 0.0200419 -1.57587 0
M  V30 13700 C 1282.74 0.724241 -1.94344 0
M  V30 13701 C 1283.16 1.67612 -0.853688 0
M  V30 13702 O 1282.52 1.80303 0.189873 0
M  V30 13703 C 1282.57 1.44967 -3.30177 0
M  V30 13704 O 1281.67 2.56326 -3.23064 0
M  V30 13705 H 1281.01 0.194142 -0.634984 0
M  V30 13706 H 1283.54 -0.0271756 -2.04582 0
M  V30 13707 H 1283.55 1.81758 -3.65278 0
M  V30 13708 H 1282.23 0.75161 -4.09052 0
M  V30 13709 H 1280.81 2.22011 -2.99609 0
M  V30 13710 N 1282.99 1.54862 0.292472 0
M  V30 13711 C 1284.24 1.74203 1.02458 0
M  V30 13712 C 1284.56 0.535398 1.87506 0
M  V30 13713 O 1283.83 -0.450164 1.90658 0
M  V30 13714 H 1282.41 0.642369 0.381276 0
M  V30 13715 H 1285.07 1.92232 0.321398 0
M  V30 13716 H 1284.17 2.63486 1.67277 0
M  V30 13717 N 1284.47 -0.556076 1.47464 0
M  V30 13718 C 1285.42 -1.68406 1.60444 0
M  V30 13719 C 1286.41 -1.627 0.471713 0
M  V30 13720 O 1287.62 -1.67871 0.649551 0
M  V30 13721 H 1283.99 -0.557255 0.504946 0
M  V30 13722 H 1285.96 -1.54595 2.55231 0
M  V30 13723 C 1284.71 -3.06756 1.63695 0
M  V30 13724 H 1284.03 -3.11829 2.50206 0
M  V30 13725 H 1285.47 -3.85368 1.76827 0
M  V30 13726 C 1283.93 -3.34857 0.370485 0
M  V30 13727 O 1284.46 -3.98216 -0.527942 0
M  V30 13728 N 1282.67 -2.89521 0.250163 0
M  V30 13729 H 1282.22 -2.3814 0.982204 0
M  V30 13730 H 1282.17 -3.08694 -0.596268 0
M  V30 13731 N 1285.95 -1.35615 -0.802897 0
M  V30 13732 C 1287.18 -1.32217 -1.59142 0
M  V30 13733 C 1287.59 0.0995496 -1.88537 0
M  V30 13734 O 1286.95 1.05258 -1.49087 0
M  V30 13735 C 1287 -2.13048 -2.92049 0
M  V30 13736 O 1286.72 -3.49677 -2.63927 0
M  V30 13737 C 1288.22 -2.17278 -3.864 0
M  V30 13738 H 1285.44 -0.454054 -0.49404 0
M  V30 13739 H 1287.98 -1.78521 -0.997516 0
M  V30 13740 H 1286.14 -1.70334 -3.47944 0
M  V30 13741 H 1286.55 -3.917 -3.48814 0
M  V30 13742 H 1288.03 -2.7822 -4.76758 0
M  V30 13743 H 1288.5 -1.17253 -4.23259 0
M  V30 13744 H 1289.11 -2.6017 -3.3644 0
M  V30 13745 N 1287.43 1.02549 -1.19673 0
M  V30 13746 C 1288.36 2.12794 -0.961289 0
M  V30 13747 C 1289.34 1.69766 0.106575 0
M  V30 13748 O 1290.52 1.94138 -0.0491358 0
M  V30 13749 C 1287.65 3.4364 -0.502868 0
M  V30 13750 C 1286.61 4.00367 -1.51296 0
M  V30 13751 C 1285.93 5.26874 -0.911491 0
M  V30 13752 C 1287.23 4.34782 -2.89416 0
M  V30 13753 H 1288.93 2.32748 -1.88331 0
M  V30 13754 H 1286.47 1.11852 -0.906922 0
M  V30 13755 H 1288.42 4.20141 -0.325436 0
M  V30 13756 H 1287.15 3.23418 0.454764 0
M  V30 13757 H 1285.81 3.25964 -1.67759 0
M  V30 13758 H 1285.46 5.02971 0.0537982 0
M  V30 13759 H 1285.16 5.65791 -1.58602 0
M  V30 13760 H 1286.68 6.06039 -0.74493 0
M  V30 13761 H 1288.09 5.02207 -2.76516 0
M  V30 13762 H 1286.49 4.8479 -3.53693 0
M  V30 13763 H 1287.56 3.43935 -3.41814 0
M  V30 13764 N 1288.9 1.00119 1.21713 0
M  V30 13765 C 1290.15 0.682733 1.90962 0
M  V30 13766 C 1290.48 -0.784131 1.77665 0
M  V30 13767 O 1289.76 -1.56799 1.15084 0
M  V30 13768 C 1290.04 1.09975 3.42896 0
M  V30 13769 C 1289.89 2.62578 3.65202 0
M  V30 13770 C 1291.21 0.659247 4.35134 0
M  V30 13771 H 1288.33 0.249501 0.693483 0
M  V30 13772 H 1290.97 1.24619 1.43423 0
M  V30 13773 H 1289.12 0.620334 3.83515 0
M  V30 13774 H 1290.8 3.18254 3.33934 0
M  V30 13775 H 1289.04 3.04268 3.09198 0
M  V30 13776 H 1289.71 2.86809 4.7164 0
M  V30 13777 H 1292.19 1.07116 4.02076 0
M  V30 13778 H 1291.06 0.979241 5.40095 0
M  V30 13779 H 1291.32 -0.439777 4.39907 0
M  V30 13780 N 1290.38 -1.37203 0.775435 0
M  V30 13781 C 1291.61 -2.04396 0.351737 0
M  V30 13782 C 1292.03 -1.58099 -1.01913 0
M  V30 13783 O 1291.39 -0.742932 -1.65379 0
M  V30 13784 C 1291.44 -3.58283 0.408105 0
M  V30 13785 O 1290.54 -4.08156 -0.590104 0
M  V30 13786 H 1289.88 -0.646451 0.151647 0
M  V30 13787 H 1292.41 -1.75443 1.05265 0
M  V30 13788 H 1292.42 -4.07127 0.266711 0
M  V30 13789 H 1291.1 -3.91335 1.40819 0
M  V30 13790 H 1289.67 -3.70622 -0.411524 0
M  V30 13791 N 1291.86 -0.526279 -1.48553 0
M  V30 13792 C 1293.08 0.00731432 -2.07399 0
M  V30 13793 C 1293.51 1.27737 -1.38075 0
M  V30 13794 O 1292.87 1.75741 -0.445503 0
M  V30 13795 C 1292.92 0.218126 -3.5994 0
M  V30 13796 O 1292.02 1.28759 -3.91784 0
M  V30 13797 H 1291.36 -0.0374784 -0.662941 0
M  V30 13798 H 1293.89 -0.733133 -1.91014 0
M  V30 13799 H 1293.9 0.44192 -4.056 0
M  V30 13800 H 1292.58 -0.709668 -4.09801 0
M  V30 13801 H 1291.15 1.04674 -3.57907 0
M  V30 13802 N 1293.34 1.5542 -0.261239 0
M  V30 13803 C 1294.56 2.04142 0.366144 0
M  V30 13804 C 1294.99 1.13884 1.49706 0
M  V30 13805 O 1294.35 0.134629 1.80799 0
M  V30 13806 C 1294.39 3.50733 0.837774 0
M  V30 13807 O 1293.5 3.63588 1.94621 0
M  V30 13808 H 1292.84 0.659424 0.077821 0
M  V30 13809 H 1295.37 2.0082 -0.391487 0
M  V30 13810 H 1295.38 3.91831 1.13721 0
M  V30 13811 H 1294.05 4.15899 0.0102742 0
M  V30 13812 H 1292.63 3.34391 1.65037 0
M  V30 13813 N 1294.82 -0.0116844 1.57596 0
M  V30 13814 C 1295.78 -0.991601 2.0664 0
M  V30 13815 C 1296.78 -1.27973 0.973629 0
M  V30 13816 O 1297.97 -1.22686 1.23668 0
M  V30 13817 C 1295.1 -2.31975 2.49801 0
M  V30 13818 H 1296.29 -0.567607 2.9448 0
M  V30 13819 H 1293.85 -0.258906 1.54141 0
M  V30 13820 H 1294.58 -2.79087 1.65169 0
M  V30 13821 H 1294.37 -2.12386 3.29598 0
M  V30 13822 H 1295.86 -3.02294 2.88112 0
M  V30 13823 N 1296.29 -1.55015 -0.284256 0
M  V30 13824 C 1297.57 -1.6579 -1.03794 0
M  V30 13825 C 1297.95 -0.517029 -2.04671 0
M  V30 13826 O 1297.3 0.484287 -2.23309 0
M  V30 13827 C 1297.51 -3.04527 -1.70483 0
M  V30 13828 C 1298.86 -3.61903 -2.22062 0
M  V30 13829 O 1299.88 -3.07087 -1.80488 0
M  V30 13830 O 1298.74 -4.57917 -2.98286 0
M  V30 13831 H 1295.83 -0.672906 -0.480757 0
M  V30 13832 H 1298.38 -1.67357 -0.281009 0
M  V30 13833 H 1297.15 -3.79004 -0.973238 0
M  V30 13834 H 1296.77 -3.0681 -2.5289 0
M  V30 13835 N 1297.77 0.548248 -1.47757 0
M  V30 13836 C 1299.18 1.13033 -1.48595 0
M  V30 13837 C 1299.53 1.94657 -0.245575 0
M  V30 13838 O 1298.66 2.06445 0.648813 0
M  V30 13839 C 1299.25 2.05657 -2.69241 0
M  V30 13840 C 1297.81 2.59119 -2.73009 0
M  V30 13841 C 1296.96 1.35686 -2.41836 0
M  V30 13842 H 1299.91 0.334397 -1.55137 0
M  V30 13843 H 1299.93 2.89671 -2.4672 0
M  V30 13844 H 1299.44 1.46222 -3.595 0
M  V30 13845 H 1297.54 3.22327 -1.86912 0
M  V30 13846 H 1297.66 2.99501 -3.73946 0
M  V30 13847 H 1296.02 1.66659 -1.92606 0
M  V30 13848 H 1296.8 0.780311 -3.34314 0
M  V30 13849 N 1299.25 1.36039 0.795694 0
M  V30 13850 C 1300.16 1.31991 1.93948 0
M  V30 13851 C 1301.18 0.223064 1.72564 0
M  V30 13852 O 1302.35 0.454344 1.96208 0
M  V30 13853 C 1299.42 1.10228 3.28711 0
M  V30 13854 C 1298.48 2.29328 3.62914 0
M  V30 13855 C 1297.71 2.08595 4.91247 0
M  V30 13856 O 1297.93 1.05793 5.60503 0
M  V30 13857 O 1296.87 2.96222 5.23962 0
M  V30 13858 H 1300.69 2.28274 2.00311 0
M  V30 13859 H 1298.28 1.16521 0.935048 0
M  V30 13860 H 1300.16 0.999842 4.09367 0
M  V30 13861 H 1298.84 0.17003 3.23253 0
M  V30 13862 H 1297.74 2.4514 2.8259 0
M  V30 13863 H 1299.08 3.21038 3.73089 0
M  V30 13864 N 1300.73 -1.01913 1.20215 0
M  V30 13865 C 1301.98 -1.75124 1.00876 0
M  V30 13866 C 1302.3 -1.89485 -0.460475 0
M  V30 13867 O 1301.57 -1.43552 -1.33302 0
M  V30 13868 H 1300.15 -0.648777 0.370266 0
M  V30 13869 H 1302.81 -1.22883 1.5128 0
M  V30 13870 H 1301.91 -2.7558 1.46499 0
M  V30 13871 N 1302.21 -1.00763 -1.2118 0
M  V30 13872 C 1303.16 -0.541218 -2.21483 0
M  V30 13873 C 1304.14 0.398597 -1.55885 0
M  V30 13874 O 1305.33 0.22302 -1.75589 0
M  V30 13875 C 1302.46 0.128145 -3.43061 0
M  V30 13876 C 1301.55 -0.832845 -4.15842 0
M  V30 13877 N 1301.94 -1.98673 -4.65148 0
M  V30 13878 C 1300.24 -0.651779 -4.41212 0
M  V30 13879 C 1300.94 -2.59112 -5.20803 0
M  V30 13880 N 1299.91 -1.87249 -5.10332 0
M  V30 13881 H 1303.72 -1.42105 -2.57262 0
M  V30 13882 H 1301.23 -0.871796 -1.37016 0
M  V30 13883 H 1303.23 0.479771 -4.1413 0
M  V30 13884 H 1301.89 1.00392 -3.0879 0
M  V30 13885 H 1302.9 -2.36701 -4.60644 0
M  V30 13886 H 1299.57 0.1767 -4.17126 0
M  V30 13887 H 1300.96 -3.56713 -5.69391 0
M  V30 13888 N 1303.68 1.3679 -0.7827 0
M  V30 13889 C 1304.93 1.99417 -0.352011 0
M  V30 13890 C 1305.26 1.62127 1.07448 0
M  V30 13891 O 1304.51 0.864449 1.75573 0
M  V30 13892 C 1304.81 3.54489 -0.455232 0
M  V30 13893 C 1304.48 4.11579 -1.84156 0
M  V30 13894 C 1303.14 4.26884 -2.22089 0
M  V30 13895 C 1305.49 4.4277 -2.74962 0
M  V30 13896 C 1302.82 4.70688 -3.50243 0
M  V30 13897 C 1305.17 4.88003 -4.02537 0
M  V30 13898 C 1303.84 5.01513 -4.40501 0
M  V30 13899 H 1303.11 0.729718 -0.12881 0
M  V30 13900 H 1305.75 1.63386 -0.998856 0
M  V30 13901 H 1304.06 3.90833 0.275129 0
M  V30 13902 H 1305.76 4.00867 -0.103127 0
M  V30 13903 H 1302.35 4.00102 -1.53677 0
M  V30 13904 H 1306.53 4.30521 -2.46912 0
M  V30 13905 H 1301.79 4.79335 -3.79537 0
M  V30 13906 H 1305.96 5.11102 -4.73019 0
M  V30 13907 H 1303.59 5.35214 -5.39861 0
M  V30 13908 N 1305.16 0.53415 1.48272 0
M  V30 13909 C 1306.07 -0.230062 2.33469 0
M  V30 13910 C 1307.09 -0.934889 1.46751 0
M  V30 13911 O 1308.26 -0.908921 1.79724 0
M  V30 13912 C 1305.33 -1.2609 3.22958 0
M  V30 13913 C 1304.39 -0.565983 4.25553 0
M  V30 13914 C 1303.62 -1.54771 5.10766 0
M  V30 13915 O 1303.85 -2.7807 4.9803 0
M  V30 13916 O 1302.78 -1.08482 5.92043 0
M  V30 13917 H 1306.61 0.468182 3.0007 0
M  V30 13918 H 1304.19 0.29502 1.46458 0
M  V30 13919 H 1306.07 -1.85652 3.783 0
M  V30 13920 H 1304.75 -1.94148 2.59014 0
M  V30 13921 H 1303.66 0.0702391 3.74034 0
M  V30 13922 H 1304.99 0.0727277 4.92146 0
M  V30 13923 N 1306.64 -1.55279 0.269478 0
M  V30 13924 C 1307.87 -2.03876 -0.352418 0
M  V30 13925 C 1308.28 -1.14804 -1.49885 0
M  V30 13926 O 1307.64 -0.166989 -1.81734 0
M  V30 13927 C 1307.69 -3.51634 -0.838799 0
M  V30 13928 O 1307.41 -4.37316 0.261972 0
M  V30 13929 C 1308.91 -4.16094 -1.52909 0
M  V30 13930 H 1306.13 -0.66608 -0.0811043 0
M  V30 13931 H 1308.68 -2.00551 0.399929 0
M  V30 13932 H 1306.83 -3.55421 -1.54125 0
M  V30 13933 H 1307.25 -5.24383 -0.111013 0
M  V30 13934 H 1308.72 -5.21102 -1.82089 0
M  V30 13935 H 1309.2 -3.63928 -2.45872 0
M  V30 13936 H 1309.8 -4.16293 -0.87063 0
M  V30 13937 N 1308.12 0.00332656 -1.576 0
M  V30 13938 C 1309.53 0.546581 -1.7852 0
M  V30 13939 C 1309.88 1.74147 -0.903722 0
M  V30 13940 O 1309.01 2.16144 -0.105314 0
M  V30 13941 C 1309.6 0.998344 -3.23757 0
M  V30 13942 C 1308.16 1.48693 -3.45785 0
M  V30 13943 C 1307.31 0.436617 -2.73841 0
M  V30 13944 H 1310.26 -0.222852 -1.57128 0
M  V30 13945 H 1310.28 1.86452 -3.31686 0
M  V30 13946 H 1309.79 0.128479 -3.87887 0
M  V30 13947 H 1307.89 2.3778 -2.86865 0
M  V30 13948 H 1308 1.51668 -4.5446 0
M  V30 13949 H 1306.37 0.897506 -2.38363 0
M  V30 13950 H 1307.15 -0.424225 -3.40669 0
M  V30 13951 N 1309.6 1.55164 0.276031 0
M  V30 13952 C 1310.85 1.74833 1.0058 0
M  V30 13953 C 1311.16 0.555089 1.87558 0
M  V30 13954 O 1312.36 0.634127 2.63991 0
M  V30 13955 C 1310.82 3.09417 1.83818 0
M  V30 13956 C 1310.43 4.36299 1.01721 0
M  V30 13957 C 1312.17 3.38437 2.56244 0
M  V30 13958 C 1310.08 5.61923 1.8438 0
M  V30 13959 H 1309.01 0.651676 0.379254 0
M  V30 13960 H 1311.66 1.81626 0.26161 0
M  V30 13961 H 1310.04 2.96654 2.62321 0
M  V30 13962 H 1311.22 4.59969 0.276565 0
M  V30 13963 H 1309.53 4.144 0.407645 0
M  V30 13964 H 1312.13 4.29501 3.18485 0
M  V30 13965 H 1312.47 2.58432 3.26372 0
M  V30 13966 H 1313 3.52284 1.84773 0
M  V30 13967 H 1309.74 6.44667 1.18679 0
M  V30 13968 H 1309.26 5.424 2.56051 0
M  V30 13969 H 1310.94 6.0011 2.4182 0
M  V30 13970 N 1311.07 -0.540404 1.48045 0
M  V30 13971 C 1312.32 -1.29628 1.56742 0
M  V30 13972 C 1312.68 -1.90975 0.233761 0
M  V30 13973 O 1311.97 -1.75781 -0.762333 0
M  V30 13974 C 1312.16 -2.41517 2.63447 0
M  V30 13975 C 1311.99 -1.91137 4.07059 0
M  V30 13976 C 1310.76 -1.74214 4.74318 0
M  V30 13977 C 1312.96 -1.44598 4.93554 0
M  V30 13978 N 1310.94 -1.1835 6.02384 0
M  V30 13979 C 1312.31 -1.00612 6.11782 0
M  V30 13980 C 1314.37 -1.32805 4.79862 0
M  V30 13981 C 1313.07 -0.460024 7.17827 0
M  V30 13982 C 1315.1 -0.795956 5.86019 0
M  V30 13983 C 1314.46 -0.36611 7.03448 0
M  V30 13984 H 1310.56 -0.46575 0.628173 0
M  V30 13985 H 1313.14 -0.610609 1.84877 0
M  V30 13986 H 1311.31 -3.07594 2.37151 0
M  V30 13987 H 1313.04 -3.08539 2.61889 0
M  V30 13988 H 1309.8 -1.97429 4.30487 0
M  V30 13989 H 1310.22 -0.924579 6.70657 0
M  V30 13990 H 1314.87 -1.64645 3.89425 0
M  V30 13991 H 1312.58 -0.129275 8.07997 0
M  V30 13992 H 1316.17 -0.708026 5.77476 0
M  V30 13993 H 1315.05 0.0392247 7.8419 0
M  V30 13994 N 1312.55 -1.36459 -0.788468 0
M  V30 13995 C 1313.8 -1.3007 -1.54158 0
M  V30 13996 C 1314.11 0.117574 -1.95246 0
M  V30 13997 O 1315.32 0.303837 -2.69795 0
M  V30 13998 C 1313.78 -2.28216 -2.78291 0
M  V30 13999 C 1313.38 -3.75484 -2.44368 0
M  V30 14000 C 1315.13 -2.30806 -3.56271 0
M  V30 14001 C 1313.04 -4.65404 -3.64902 0
M  V30 14002 H 1311.97 -0.483345 -0.5787 0
M  V30 14003 H 1314.62 -1.61827 -0.865123 0
M  V30 14004 H 1313 -1.89454 -3.4774 0
M  V30 14005 H 1314.17 -4.22986 -1.82809 0
M  V30 14006 H 1312.49 -3.75678 -1.79597 0
M  V30 14007 H 1315.08 -2.95196 -4.45829 0
M  V30 14008 H 1315.43 -1.31687 -3.94923 0
M  V30 14009 H 1315.96 -2.68189 -2.93802 0
M  V30 14010 H 1312.7 -5.65589 -3.31344 0
M  V30 14011 H 1312.22 -4.22617 -4.25623 0
M  V30 14012 H 1313.9 -4.81721 -4.31919 0
M  V30 14013 N 1314.03 1.01274 -1.20754 0
M  V30 14014 C 1314.94 2.1335 -0.975656 0
M  V30 14015 C 1315.96 1.7386 0.0697364 0
M  V30 14016 O 1317.13 2.01051 -0.118578 0
M  V30 14017 C 1314.2 3.42548 -0.534931 0
M  V30 14018 C 1313.26 3.96257 -1.65163 0
M  V30 14019 C 1312.49 5.19289 -1.23184 0
M  V30 14020 O 1312.71 5.70309 -0.102158 0
M  V30 14021 O 1311.65 5.66248 -2.04076 0
M  V30 14022 H 1315.47 2.35783 -1.91415 0
M  V30 14023 H 1313.06 1.11736 -0.991743 0
M  V30 14024 H 1314.94 4.20341 -0.298568 0
M  V30 14025 H 1313.62 3.21521 0.374937 0
M  V30 14026 H 1312.52 3.19726 -1.94232 0
M  V30 14027 H 1313.86 4.2168 -2.53864 0
M  V30 14028 N 1315.51 1.01404 1.20644 0
M  V30 14029 C 1316.93 0.728446 1.42006 0
M  V30 14030 C 1317.13 -0.692894 1.89212 0
M  V30 14031 O 1316.18 -1.46101 2.05939 0
M  V30 14032 C 1317.49 1.75198 2.44389 0
M  V30 14033 C 1319.04 1.76983 2.58159 0
M  V30 14034 C 1319.52 2.78256 3.63782 0
M  V30 14035 N 1321.01 2.7698 3.71263 0
M  V30 14036 C 1321.74 3.51999 4.52641 0
M  V30 14037 N 1321.24 4.36687 5.37844 0
M  V30 14038 N 1323.03 3.40608 4.47149 0
M  V30 14039 H 1315.18 1.93168 0.883172 0
M  V30 14040 H 1317.45 0.834287 0.450187 0
M  V30 14041 H 1317.15 2.77013 2.16695 0
M  V30 14042 H 1317.03 1.56203 3.43337 0
M  V30 14043 H 1319.41 0.758551 2.85184 0
M  V30 14044 H 1319.49 2.00051 1.59415 0
M  V30 14045 H 1319.14 3.79546 3.37501 0
M  V30 14046 H 1319.07 2.5245 4.62143 0
M  V30 14047 H 1321.56 2.15546 3.104 0
M  V30 14048 H 1321.87 4.90703 5.97018 0
M  V30 14049 H 1320.22 4.40766 5.37355 0
M  V30 14050 H 1323.41 2.73872 3.79621 0
M  V30 14051 H 1323.58 3.99327 5.10335 0
M  V30 14052 N 1316.99 -1.36373 0.789944 0
M  V30 14053 C 1318.23 -1.99523 0.363119 0
M  V30 14054 C 1318.57 -1.6255 -1.0626 0
M  V30 14055 O 1317.84 -0.880551 -1.73426 0
M  V30 14056 C 1318.12 -3.56215 0.527526 0
M  V30 14057 C 1317.98 -4.0304 1.99697 0
M  V30 14058 C 1319.3 -4.40063 -0.0571079 0
M  V30 14059 H 1316.42 -0.724824 0.133412 0
M  V30 14060 H 1319.06 -1.61778 0.996381 0
M  V30 14061 H 1317.21 -3.88498 -0.0115636 0
M  V30 14062 H 1318.88 -3.81241 2.59717 0
M  V30 14063 H 1317.12 -3.54561 2.49939 0
M  V30 14064 H 1317.79 -5.12001 2.06297 0
M  V30 14065 H 1320.27 -4.14143 0.403082 0
M  V30 14066 H 1319.15 -5.4883 0.0879494 0
M  V30 14067 H 1319.41 -4.26901 -1.14926 0
M  V30 14068 N 1318.47 -0.542005 -1.47987 0
M  V30 14069 C 1319.71 -0.0123299 -2.02796 0
M  V30 14070 C 1320.04 1.32789 -1.41707 0
M  V30 14071 O 1319.32 1.86048 -0.567119 0
M  V30 14072 C 1319.6 0.0969277 -3.5997 0
M  V30 14073 C 1319.46 -1.26931 -4.31519 0
M  V30 14074 C 1320.77 0.817854 -4.32434 0
M  V30 14075 H 1317.89 -0.00595479 -0.736976 0
M  V30 14076 H 1320.54 -0.70136 -1.76581 0
M  V30 14077 H 1318.69 0.683755 -3.82436 0
M  V30 14078 H 1320.36 -1.89817 -4.20437 0
M  V30 14079 H 1318.6 -1.84804 -3.92467 0
M  V30 14080 H 1319.27 -1.14573 -5.39979 0
M  V30 14081 H 1321.75 0.319749 -4.1487 0
M  V30 14082 H 1320.62 0.863225 -5.4207 0
M  V30 14083 H 1320.88 1.87075 -4.00569 0
M  V30 14084 N 1319.94 1.55134 -0.277709 0
M  V30 14085 C 1321.19 1.98831 0.338982 0
M  V30 14086 C 1321.51 1.16958 1.56781 0
M  V30 14087 O 1322.71 1.50811 2.25762 0
M  V30 14088 C 1321.17 3.53899 0.654465 0
M  V30 14089 C 1320.78 4.44553 -0.554703 0
M  V30 14090 C 1322.52 4.06179 1.23364 0
M  V30 14091 C 1320.43 5.91014 -0.213663 0
M  V30 14092 H 1319.36 0.742632 0.130434 0
M  V30 14093 H 1322.01 1.79463 -0.382768 0
M  V30 14094 H 1320.39 3.69078 1.43519 0
M  V30 14095 H 1321.56 4.41143 -1.33151 0
M  V30 14096 H 1319.88 4.02921 -1.0509 0
M  V30 14097 H 1322.48 5.13152 1.50265 0
M  V30 14098 H 1322.82 3.5537 2.16836 0
M  V30 14099 H 1323.35 3.9445 0.515147 0
M  V30 14100 H 1320.09 6.45924 -1.11633 0
M  V30 14101 H 1319.61 5.97486 0.526329 0
M  V30 14102 H 1321.29 6.46712 0.19319 0
M  V30 14103 N 1321.42 0.00503138 1.57599 0
M  V30 14104 C 1322.67 -0.677979 1.89964 0
M  V30 14105 C 1322.98 -1.74657 0.88059 0
M  V30 14106 O 1324.19 -2.48455 1.09463 0
M  V30 14107 C 1322.65 -1.25708 3.37232 0
M  V30 14108 C 1322.25 -0.223045 4.47444 0
M  V30 14109 C 1324 -1.91799 3.787 0
M  V30 14110 C 1321.9 -0.812416 5.85793 0
M  V30 14111 H 1320.83 -0.256991 0.708852 0
M  V30 14112 H 1323.49 0.0663988 1.8338 0
M  V30 14113 H 1321.87 -2.05228 3.3867 0
M  V30 14114 H 1323.04 0.54794 4.57531 0
M  V30 14115 H 1321.36 0.337714 4.15028 0
M  V30 14116 H 1323.95 -2.36808 4.79402 0
M  V30 14117 H 1324.3 -2.75067 3.1248 0
M  V30 14118 H 1324.83 -1.19004 3.79583 0
M  V30 14119 H 1321.57 -0.0184031 6.55497 0
M  V30 14120 H 1321.09 -1.55244 5.79361 0
M  V30 14121 H 1322.77 -1.30952 6.33609 0
M  V30 14122 N 1322.9 -1.55308 -0.267798 0
M  V30 14123 C 1324.15 -1.75811 -0.996734 0
M  V30 14124 C 1324.47 -0.565161 -1.8663 0
M  V30 14125 O 1323.74 0.419775 -1.9135 0
M  V30 14126 H 1322.32 -0.648353 -0.371008 0
M  V30 14127 H 1324.98 -1.92719 -0.290775 0
M  V30 14128 H 1324.08 -2.66113 -1.63064 0
M  V30 14129 N 1324.38 0.532545 -1.4833 0
M  V30 14130 C 1325.34 1.61955 -1.62183 0
M  V30 14131 C 1326.34 1.52982 -0.495281 0
M  V30 14132 O 1327.53 1.56698 -0.761005 0
M  V30 14133 C 1324.66 3.0157 -1.58961 0
M  V30 14134 H 1325.86 1.51013 -2.59105 0
M  V30 14135 H 1323.41 0.754405 -1.36888 0
M  V30 14136 H 1324.14 3.18021 -0.635069 0
M  V30 14137 H 1323.93 3.09491 -2.40744 0
M  V30 14138 H 1325.42 3.80604 -1.71843 0
M  V30 14139 N 1325.86 1.36875 0.78122 0
M  V30 14140 C 1327.1 1.31299 1.53639 0
M  V30 14141 C 1327.42 -0.104942 1.94717 0
M  V30 14142 O 1326.69 -1.04696 1.65576 0
M  V30 14143 H 1325.27 0.483032 0.569815 0
M  V30 14144 H 1327.94 1.71261 0.930359 0
M  V30 14145 H 1327.03 1.94581 2.44018 0
M  V30 14146 N 1327.33 -1.00632 1.21289 0
M  V30 14147 C 1328.28 -2.09382 0.97097 0
M  V30 14148 C 1329.25 -1.65783 -0.102561 0
M  V30 14149 O 1330.44 -1.90749 0.0442886 0
M  V30 14150 C 1327.58 -3.40844 0.540314 0
M  V30 14151 C 1326.69 -3.97862 1.68314 0
M  V30 14152 C 1325.82 -5.17427 1.20178 0
M  V30 14153 C 1324.86 -5.66552 2.31702 0
M  V30 14154 N 1324 -6.77368 1.84709 0
M  V30 14155 H 1328.84 -2.29411 1.90196 0
M  V30 14156 H 1326.38 -1.12488 0.947885 0
M  V30 14157 H 1328.33 -4.16313 0.271881 0
M  V30 14158 H 1326.96 -3.20857 -0.353677 0
M  V30 14159 H 1326.02 -3.19391 2.06624 0
M  V30 14160 H 1327.33 -4.30314 2.52252 0
M  V30 14161 H 1326.48 -6.00138 0.889926 0
M  V30 14162 H 1325.22 -4.86566 0.332422 0
M  V30 14163 H 1324.23 -4.82438 2.63691 0
M  V30 14164 H 1325.45 -5.99443 3.19131 0
M  V30 14165 H 1323.4 -6.48315 1.00116 0
M  V30 14166 H 1323.31 -7.09067 2.62221 0
M  V30 14167 H 1324.58 -7.63617 1.56554 0
M  V30 14168 N 1328.81 -1.02043 -1.20104 0
M  V30 14169 C 1330.22 -0.742954 -1.71281 0
M  V30 14170 C 1330.57 0.738173 -1.81784 0
M  V30 14171 O 1329.7 1.57588 -1.48307 0
M  V30 14172 C 1330.29 -1.342 -3.11088 0
M  V30 14173 C 1328.85 -1.11331 -3.59559 0
M  V30 14174 C 1328 -1.44532 -2.36655 0
M  V30 14175 H 1330.95 -1.18942 -1.05064 0
M  V30 14176 H 1330.97 -0.734558 -3.73342 0
M  V30 14177 H 1330.48 -2.41998 -3.03411 0
M  V30 14178 H 1328.58 -0.05317 -3.72562 0
M  V30 14179 H 1328.7 -1.79606 -4.4416 0
M  V30 14180 H 1327.06 -0.864431 -2.39582 0
M  V30 14181 H 1327.84 -2.53394 -2.31616 0
M  V30 14182 N 1330.29 1.35952 -0.797165 0
M  V30 14183 C 1331.25 2.28266 -0.206748 0
M  V30 14184 C 1332.25 1.49169 0.60043 0
M  V30 14185 O 1333.44 1.69054 0.42029 0
M  V30 14186 C 1330.58 3.33363 0.712884 0
M  V30 14187 H 1331.77 2.81992 -1.02082 0
M  V30 14188 H 1329.32 1.45648 -0.567138 0
M  V30 14189 H 1330.06 2.84806 1.551 0
M  V30 14190 H 1329.84 3.91864 0.135926 0
M  V30 14191 H 1331.33 4.02284 1.1206 0
M  V30 14192 N 1331.77 0.549846 1.47697 0
M  V30 14193 C 1332.73 -0.191427 2.28399 0
M  V30 14194 C 1333.73 -0.849533 1.36527 0
M  V30 14195 O 1334.92 -0.706526 1.59229 0
M  V30 14196 C 1332.05 -1.27907 3.15995 0
M  V30 14197 H 1333.25 0.517375 2.95404 0
M  V30 14198 H 1330.8 0.30651 1.53265 0
M  V30 14199 H 1331.53 -2.0205 2.53665 0
M  V30 14200 H 1331.32 -0.812066 3.83599 0
M  V30 14201 H 1332.81 -1.79992 3.76819 0
M  V30 14202 N 1333.25 -1.54984 0.285932 0
M  V30 14203 C 1334.49 -2.00126 -0.328223 0
M  V30 14204 C 1334.83 -1.17409 -1.54689 0
M  V30 14205 O 1334.1 -0.246806 -1.92928 0
M  V30 14206 C 1334.38 -3.53236 -0.699733 0
M  V30 14207 C 1334.24 -4.46702 0.527029 0
M  V30 14208 C 1335.56 -4.12572 -1.53206 0
M  V30 14209 H 1332.67 -0.727521 -0.117825 0
M  V30 14210 H 1335.32 -1.85848 0.395032 0
M  V30 14211 H 1333.47 -3.65534 -1.31594 0
M  V30 14212 H 1335.14 -4.46332 1.16557 0
M  V30 14213 H 1333.38 -4.17917 1.1631 0
M  V30 14214 H 1334.05 -5.51549 0.223165 0
M  V30 14215 H 1336.53 -4.03618 -1.01154 0
M  V30 14216 H 1335.4 -5.19891 -1.7608 0
M  V30 14217 H 1335.67 -3.63487 -2.51654 0
M  V30 14218 N 1334.72 -0.0133892 -1.57594 0
M  V30 14219 C 1335.97 0.669624 -1.91426 0
M  V30 14220 C 1336.3 1.72675 -0.888656 0
M  V30 14221 O 1335.58 1.94288 0.0908138 0
M  V30 14222 C 1335.86 1.30051 -3.35796 0
M  V30 14223 C 1335.71 0.254021 -4.49082 0
M  V30 14224 C 1337.03 2.22297 -3.79832 0
M  V30 14225 H 1334.15 0.241958 -0.69615 0
M  V30 14226 H 1336.79 -0.0674278 -1.8988 0
M  V30 14227 H 1334.94 1.92871 -3.37243 0
M  V30 14228 H 1336.62 -0.375524 -4.59769 0
M  V30 14229 H 1334.86 -0.422267 -4.3174 0
M  V30 14230 H 1335.53 0.734756 -5.47088 0
M  V30 14231 H 1338.01 1.69481 -3.8002 0
M  V30 14232 H 1336.88 2.634 -4.81572 0
M  V30 14233 H 1337.14 3.10764 -3.14449 0
M  V30 14234 N 1336.2 1.55448 0.259558 0
M  V30 14235 C 1337.13 1.9226 1.32508 0
M  V30 14236 C 1338.11 0.786012 1.5085 0
M  V30 14237 O 1339.3 1.04526 1.6367 0
M  V30 14238 C 1336.43 2.20627 2.68218 0
M  V30 14239 C 1335.38 3.36418 2.64589 0
M  V30 14240 C 1334.71 3.50295 4.03977 0
M  V30 14241 C 1336.01 4.72452 2.2268 0
M  V30 14242 H 1337.7 2.81509 1.01945 0
M  V30 14243 H 1335.25 1.35444 0.488965 0
M  V30 14244 H 1337.2 2.44968 3.42883 0
M  V30 14245 H 1335.93 1.28191 3.00391 0
M  V30 14246 H 1334.58 3.12065 1.92382 0
M  V30 14247 H 1334.23 2.55302 4.33394 0
M  V30 14248 H 1333.93 4.28155 4.02439 0
M  V30 14249 H 1335.46 3.76944 4.8036 0
M  V30 14250 H 1336.87 4.96249 2.87071 0
M  V30 14251 H 1335.27 5.53323 2.32279 0
M  V30 14252 H 1336.34 4.70367 1.17826 0
M  V30 14253 N 1337.68 -0.524672 1.4861 0
M  V30 14254 C 1338.61 -1.64481 1.59621 0
M  V30 14255 C 1339.63 -1.55557 0.480181 0
M  V30 14256 O 1340.81 -1.61921 0.751254 0
M  V30 14257 C 1337.91 -3.03158 1.51487 0
M  V30 14258 C 1337.09 -3.37509 2.78221 0
M  V30 14259 C 1336.15 -4.5549 2.63467 0
M  V30 14260 O 1335.17 -4.58448 3.37364 0
M  V30 14261 N 1336.37 -5.53986 1.73437 0
M  V30 14262 H 1339.14 -1.5547 2.56221 0
M  V30 14263 H 1336.7 -0.712059 1.45401 0
M  V30 14264 H 1338.69 -3.79969 1.39305 0
M  V30 14265 H 1337.26 -3.06219 0.628406 0
M  V30 14266 H 1336.48 -2.49824 3.04929 0
M  V30 14267 H 1337.77 -3.57246 3.62288 0
M  V30 14268 H 1337.17 -5.54378 1.12612 0
M  V30 14269 H 1335.73 -6.29993 1.6719 0
M  V30 14270 N 1339.16 -1.37287 -0.77395 0
M  V30 14271 C 1340.39 -1.35563 -1.56302 0
M  V30 14272 C 1340.8 0.0595356 -1.88706 0
M  V30 14273 O 1340.16 1.02072 -1.51286 0
M  V30 14274 C 1340.21 -2.19195 -2.87464 0
M  V30 14275 O 1339.93 -3.55197 -2.5645 0
M  V30 14276 C 1341.43 -2.25425 -3.81704 0
M  V30 14277 H 1338.65 -0.464431 -0.484298 0
M  V30 14278 H 1341.2 -1.80597 -0.959425 0
M  V30 14279 H 1339.35 -1.77676 -3.44253 0
M  V30 14280 H 1339.76 -3.99011 -3.40427 0
M  V30 14281 H 1341.24 -2.8827 -4.70749 0
M  V30 14282 H 1341.72 -1.26205 -4.20677 0
M  V30 14283 H 1342.32 -2.67247 -3.30846 0
M  V30 14284 N 1340.64 0.999871 -1.21821 0
M  V30 14285 C 1341.58 2.08864 -0.98206 0
M  V30 14286 C 1342.55 1.65835 0.0937677 0
M  V30 14287 O 1343.74 1.90722 -0.0544038 0
M  V30 14288 C 1340.88 3.40553 -0.558382 0
M  V30 14289 C 1339.99 3.96964 -1.70422 0
M  V30 14290 C 1339.13 5.16782 -1.2292 0
M  V30 14291 C 1338.17 5.65315 -2.34703 0
M  V30 14292 N 1337.3 6.76379 -1.88299 0
M  V30 14293 H 1342.14 2.28399 -1.9141 0
M  V30 14294 H 1339.68 1.11984 -0.953837 0
M  V30 14295 H 1341.64 4.16163 -0.293955 0
M  V30 14296 H 1340.27 3.2104 0.336656 0
M  V30 14297 H 1339.32 3.18291 -2.08315 0
M  V30 14298 H 1340.63 4.2897 -2.54531 0
M  V30 14299 H 1339.79 5.99657 -0.92174 0
M  V30 14300 H 1338.52 4.86383 -0.358222 0
M  V30 14301 H 1337.53 4.81033 -2.66246 0
M  V30 14302 H 1338.75 5.97742 -3.22306 0
M  V30 14303 H 1336.7 6.47775 -1.03552 0
M  V30 14304 H 1336.62 7.07666 -2.65978 0
M  V30 14305 H 1337.89 7.62776 -1.60601 0
M  V30 14306 N 1342.11 1.02678 1.19562 0
M  V30 14307 C 1343.36 0.72059 1.88817 0
M  V30 14308 C 1343.68 -0.752942 1.79877 0
M  V30 14309 O 1342.95 -1.54233 1.20785 0
M  V30 14310 H 1341.53 0.26355 0.698964 0
M  V30 14311 H 1344.2 1.30056 1.4516 0
M  V30 14312 H 1343.29 1.01303 2.95202 0
M  V30 14313 N 1343.59 -1.35528 0.804364 0
M  V30 14314 C 1344.82 -2.03604 0.395013 0
M  V30 14315 C 1345.24 -1.60225 -0.985371 0
M  V30 14316 O 1344.6 -0.777844 -1.63766 0
M  V30 14317 C 1344.65 -3.57337 0.484011 0
M  V30 14318 O 1343.75 -4.09316 -0.503395 0
M  V30 14319 H 1343.09 -0.643089 0.165325 0
M  V30 14320 H 1345.62 -1.73171 1.08963 0
M  V30 14321 H 1345.63 -4.0647 0.353009 0
M  V30 14322 H 1344.31 -3.8826 1.49088 0
M  V30 14323 H 1342.89 -3.71412 -0.332817 0
M  V30 14324 N 1345.07 -0.557671 -1.47404 0
M  V30 14325 C 1346.48 -0.124411 -1.86285 0
M  V30 14326 C 1346.83 1.30593 -1.46424 0
M  V30 14327 O 1345.96 1.9825 -0.867515 0
M  V30 14328 C 1346.55 -0.219005 -3.38091 0
M  V30 14329 C 1345.11 0.159221 -3.76063 0
M  V30 14330 C 1344.26 -0.566355 -2.71455 0
M  V30 14331 H 1347.21 -0.767367 -1.38914 0
M  V30 14332 H 1347.23 0.562267 -3.76323 0
M  V30 14333 H 1346.74 -1.26013 -3.67073 0
M  V30 14334 H 1344.84 1.20144 -3.52698 0
M  V30 14335 H 1344.96 -0.199662 -4.78684 0
M  V30 14336 H 1343.32 -0.00938921 -2.54698 0
M  V30 14337 H 1344.1 -1.60865 -3.03278 0
M  V30 14338 N 1346.55 1.54831 -0.294147 0
M  V30 14339 C 1347.46 2.26939 0.594621 0
M  V30 14340 C 1348.48 1.30209 1.15419 0
M  V30 14341 O 1349.65 1.6318 1.18044 0
M  V30 14342 C 1346.72 2.9909 1.75345 0
M  V30 14343 C 1345.78 4.11342 1.22865 0
M  V30 14344 C 1345.01 4.80043 2.33225 0
M  V30 14345 O 1345.23 4.48062 3.52983 0
M  V30 14346 O 1344.17 5.67593 2.00304 0
M  V30 14347 H 1347.99 3.03698 0.00989235 0
M  V30 14348 H 1345.58 1.49276 -0.0608528 0
M  V30 14349 H 1347.46 3.44369 2.42875 0
M  V30 14350 H 1346.14 2.25232 2.32492 0
M  V30 14351 H 1345.04 3.70478 0.519279 0
M  V30 14352 H 1346.38 4.87158 0.702703 0
M  V30 14353 N 1348.03 0.0217466 1.57585 0
M  V30 14354 C 1349.25 -0.67246 1.96196 0
M  V30 14355 C 1349.68 -1.6529 0.897827 0
M  V30 14356 O 1349.04 -1.80743 -0.142002 0
M  V30 14357 C 1349.08 -1.36162 3.33905 0
M  V30 14358 O 1348.19 -2.47671 3.29747 0
M  V30 14359 H 1347.53 -0.177238 0.639908 0
M  V30 14360 H 1350.06 0.0814073 2.04438 0
M  V30 14361 H 1350.07 -1.7201 3.69968 0
M  V30 14362 H 1348.74 -0.642893 4.10901 0
M  V30 14363 H 1347.32 -2.13989 3.0539 0
M  V30 14364 N 1349.51 -1.55583 -0.251311 0
M  V30 14365 C 1350.92 -1.47908 -0.599606 0
M  V30 14366 C 1351.12 -0.711061 -1.88537 0
M  V30 14367 O 1350.18 -0.238639 -2.5137 0
M  V30 14368 C 1351.49 -2.92284 -0.706429 0
M  V30 14369 C 1353.04 -3.02629 -0.799049 0
M  V30 14370 C 1353.51 -4.48303 -0.93747 0
M  V30 14371 N 1355 -4.52222 -1.00245 0
M  V30 14372 C 1355.74 -5.62181 -1.12874 0
M  V30 14373 N 1355.24 -6.81958 -1.22085 0
M  V30 14374 N 1357.03 -5.49968 -1.16155 0
M  V30 14375 H 1349.18 -2.0396 0.592806 0
M  V30 14376 H 1351.44 -0.925797 0.203971 0
M  V30 14377 H 1351.15 -3.51297 0.168243 0
M  V30 14378 H 1351.02 -3.42524 -1.57979 0
M  V30 14379 H 1353.41 -2.43699 -1.66418 0
M  V30 14380 H 1353.49 -2.55607 0.099367 0
M  V30 14381 H 1353.13 -5.07842 -0.0769166 0
M  V30 14382 H 1353.06 -4.93002 -1.85086 0
M  V30 14383 H 1355.56 -3.65951 -0.94279 0
M  V30 14384 H 1355.87 -7.6151 -1.31616 0
M  V30 14385 H 1354.21 -6.84728 -1.1905 0
M  V30 14386 H 1357.4 -4.55327 -1.08604 0
M  V30 14387 H 1357.58 -6.35701 -1.25653 0
M  V30 14388 N 1350.98 0.516783 -1.48886 0
M  V30 14389 C 1351.91 1.62897 -1.67292 0
M  V30 14390 C 1352.89 1.61903 -0.521671 0
M  V30 14391 O 1354.08 1.78892 -0.755728 0
M  V30 14392 C 1351.21 3.01444 -1.72478 0
M  V30 14393 C 1350.16 3.173 -2.87236 0
M  V30 14394 C 1349.49 4.5704 -2.77522 0
M  V30 14395 C 1350.79 2.98818 -4.28375 0
M  V30 14396 H 1352.48 1.47748 -2.60405 0
M  V30 14397 H 1350.03 0.709361 -1.25316 0
M  V30 14398 H 1351.98 3.79135 -1.83942 0
M  V30 14399 H 1350.71 3.17645 -0.759538 0
M  V30 14400 H 1349.37 2.4203 -2.75349 0
M  V30 14401 H 1349.01 4.70096 -1.78938 0
M  V30 14402 H 1348.71 4.68593 -3.54534 0
M  V30 14403 H 1350.24 5.36813 -2.90972 0
M  V30 14404 H 1351.65 3.66291 -4.41026 0
M  V30 14405 H 1350.05 3.21854 -5.06488 0
M  V30 14406 H 1351.12 1.95102 -4.43918 0
M  V30 14407 N 1352.46 1.37696 0.766659 0
M  V30 14408 C 1353.69 1.36564 1.56093 0
M  V30 14409 C 1354.11 -0.0455828 1.88045 0
M  V30 14410 O 1353.47 -1.02405 1.49609 0
M  V30 14411 C 1353.52 2.21592 2.84481 0
M  V30 14412 O 1352.62 1.62404 3.79076 0
M  V30 14413 H 1351.96 0.466394 0.472623 0
M  V30 14414 H 1354.49 1.81287 0.948486 0
M  V30 14415 H 1354.5 2.34987 3.33534 0
M  V30 14416 H 1353.18 3.24167 2.60554 0
M  V30 14417 H 1351.75 1.58078 3.37736 0
M  V30 14418 N 1353.94 -0.993397 1.22349 0
M  V30 14419 C 1355.19 -1.73287 1.04775 0
M  V30 14420 C 1355.51 -1.89973 -0.417201 0
M  V30 14421 O 1354.77 -1.43966 -1.32561 0
M  V30 14422 C 1355.07 -3.14191 1.70349 0
M  V30 14423 C 1354.73 -3.17421 3.20241 0
M  V30 14424 C 1353.4 -3.1801 3.61141 0
M  V30 14425 C 1355.75 -3.13751 4.16185 0
M  V30 14426 C 1353.08 -3.12628 4.96468 0
M  V30 14427 C 1355.43 -3.09911 5.51487 0
M  V30 14428 C 1354.09 -3.08815 5.91768 0
M  V30 14429 H 1353.36 -0.634102 0.3834 0
M  V30 14430 H 1356.01 -1.16346 1.52105 0
M  V30 14431 H 1354.31 -3.74437 1.15343 0
M  V30 14432 H 1356.01 -3.70149 1.54242 0
M  V30 14433 H 1352.6 -3.17713 2.87674 0
M  V30 14434 H 1356.79 -3.12446 3.85605 0
M  V30 14435 H 1352.04 -3.10125 5.26909 0
M  V30 14436 H 1356.22 -3.06026 6.25556 0
M  V30 14437 H 1353.84 -3.044 6.96595 0
M  V30 14438 N 1355.42 -1.03311 -1.19015 0
M  V30 14439 C 1356.35 -0.575655 -2.21853 0
M  V30 14440 C 1357.36 0.350705 -1.58978 0
M  V30 14441 O 1358.55 0.146425 -1.77898 0
M  V30 14442 C 1355.65 0.179949 -3.38422 0
M  V30 14443 C 1354.82 -0.752403 -4.3088 0
M  V30 14444 C 1353.88 -0.0414484 -5.26184 0
M  V30 14445 O 1352.91 -0.669403 -5.6525 0
M  V30 14446 N 1354.11 1.22783 -5.67366 0
M  V30 14447 H 1356.88 -1.46013 -2.61726 0
M  V30 14448 H 1354.44 -0.912655 -1.33724 0
M  V30 14449 H 1356.43 0.66522 -3.99195 0
M  V30 14450 H 1355 0.965879 -2.97304 0
M  V30 14451 H 1354.22 -1.41768 -3.67825 0
M  V30 14452 H 1355.51 -1.38592 -4.89561 0
M  V30 14453 H 1354.91 1.75867 -5.37668 0
M  V30 14454 H 1353.46 1.65752 -6.30372 0
M  V30 14455 N 1356.9 1.35099 -0.81154 0
M  V30 14456 C 1357.85 2.27139 -0.197958 0
M  V30 14457 C 1358.83 1.48006 0.631116 0
M  V30 14458 O 1360.02 1.70152 0.487562 0
M  V30 14459 C 1357.15 3.37118 0.648577 0
M  V30 14460 C 1356.24 4.23672 -0.190498 0
M  V30 14461 N 1356.63 4.89959 -1.25594 0
M  V30 14462 C 1354.93 4.45992 0.0270572 0
M  V30 14463 C 1355.63 5.54161 -1.76862 0
M  V30 14464 N 1354.6 5.32879 -1.07428 0
M  V30 14465 H 1358.4 2.75886 -1.01311 0
M  V30 14466 H 1355.92 1.48685 -0.653195 0
M  V30 14467 H 1357.92 4.0201 1.10423 0
M  V30 14468 H 1356.58 2.89922 1.46202 0
M  V30 14469 H 1357.59 4.91293 -1.63864 0
M  V30 14470 H 1354.26 4.09582 0.809248 0
M  V30 14471 H 1355.65 6.17032 -2.65935 0
M  V30 14472 N 1358.37 0.56548 1.47106 0
M  V30 14473 C 1359.65 -0.0215358 1.95588 0
M  V30 14474 C 1360.03 -1.47712 1.50813 0
M  V30 14475 O 1359.38 -2.15814 0.750776 0
M  V30 14476 C 1359.59 0.132552 3.48748 0
M  V30 14477 C 1360.94 -0.00853591 4.24599 0
M  V30 14478 O 1361.96 0.0605142 3.56149 0
M  V30 14479 O 1360.82 -0.158519 5.4627 0
M  V30 14480 H 1357.91 -0.0595011 0.824857 0
M  V30 14481 H 1360.46 0.632586 1.57469 0
M  V30 14482 H 1359.23 1.14511 3.7417 0
M  V30 14483 H 1358.85 -0.558801 3.93654 0
M  V30 14484 N 1359.85 -1.54672 0.302354 0
M  V30 14485 C 1361.26 -1.85731 -0.190019 0
M  V30 14486 C 1361.61 -1.22427 -1.53317 0
M  V30 14487 O 1360.74 -0.522461 -2.09998 0
M  V30 14488 C 1361.33 -3.36971 -0.351562 0
M  V30 14489 C 1359.89 -3.68056 -0.788155 0
M  V30 14490 C 1359.04 -2.7711 0.102705 0
M  V30 14491 H 1361.99 -1.49823 0.523324 0
M  V30 14492 H 1362.01 -3.61547 -1.18592 0
M  V30 14493 H 1361.52 -3.83016 0.626152 0
M  V30 14494 H 1359.63 -3.2753 -1.77637 0
M  V30 14495 H 1359.74 -4.75244 -0.606604 0
M  V30 14496 H 1358.1 -2.51243 -0.418235 0
M  V30 14497 H 1358.89 -3.25975 1.0768 0
M  V30 14498 N 1361.33 -0.0301034 -1.57571 0
M  V30 14499 C 1362.24 0.967086 -2.1374 0
M  V30 14500 C 1363.26 1.35636 -1.0899 0
M  V30 14501 O 1364.43 1.43758 -1.41052 0
M  V30 14502 C 1361.5 2.23058 -2.65417 0
M  V30 14503 C 1360.56 1.90163 -3.84885 0
M  V30 14504 C 1359.79 3.10488 -4.34088 0
M  V30 14505 O 1360.01 4.23179 -3.8246 0
M  V30 14506 O 1358.95 2.92729 -5.25921 0
M  V30 14507 H 1362.77 0.519486 -2.99224 0
M  V30 14508 H 1360.36 0.190559 -1.4818 0
M  V30 14509 H 1362.24 2.97229 -2.98719 0
M  V30 14510 H 1360.92 2.66997 -1.83015 0
M  V30 14511 H 1359.82 1.13373 -3.56507 0
M  V30 14512 H 1361.16 1.51039 -4.68453 0
M  V30 14513 N 1362.81 1.55714 0.243056 0
M  V30 14514 C 1364.04 1.81786 0.98801 0
M  V30 14515 C 1364.45 0.606352 1.78798 0
M  V30 14516 O 1363.81 -0.425018 1.77482 0
M  V30 14517 C 1363.86 3.06121 1.92281 0
M  V30 14518 O 1363.58 4.22595 1.15521 0
M  V30 14519 C 1365.08 3.45021 2.78344 0
M  V30 14520 H 1362.3 0.604829 0.290557 0
M  V30 14521 H 1364.85 2.02779 0.26478 0
M  V30 14522 H 1363 2.87167 2.60027 0
M  V30 14523 H 1363.41 4.93088 1.78786 0
M  V30 14524 H 1364.89 4.35112 3.39678 0
M  V30 14525 H 1365.37 2.65782 3.49652 0
M  V30 14526 H 1365.97 3.66339 2.16045 0
M  V30 14527 N 1364.29 -0.50888 1.49158 0
M  V30 14528 C 1365.51 -1.29245 1.62205 0
M  V30 14529 C 1365.94 -1.85845 0.29041 0
M  V30 14530 O 1365.29 -1.6547 -0.740906 0
M  V30 14531 C 1365.34 -2.40415 2.68762 0
M  V30 14532 O 1364.45 -3.44048 2.27387 0
M  V30 14533 H 1363.79 -0.381898 0.543185 0
M  V30 14534 H 1366.32 -0.610076 1.95293 0
M  V30 14535 H 1366.33 -2.86295 2.90688 0
M  V30 14536 H 1365 -1.98584 3.65427 0
M  V30 14537 H 1363.58 -3.04141 2.1576 0
M  V30 14538 N 1365.76 -1.381 -0.759346 0
M  V30 14539 C 1367.01 -1.3419 -1.52055 0
M  V30 14540 C 1367.34 0.0697657 -1.94075 0
M  V30 14541 O 1366.62 1.02975 -1.65004 0
M  V30 14542 C 1366.9 -2.29236 -2.7771 0
M  V30 14543 C 1366.75 -3.79237 -2.41866 0
M  V30 14544 C 1368.07 -2.22511 -3.79706 0
M  V30 14545 H 1365.19 -0.488768 -0.551611 0
M  V30 14546 H 1367.83 -1.68902 -0.870174 0
M  V30 14547 H 1365.98 -1.99764 -3.33206 0
M  V30 14548 H 1367.66 -4.19358 -1.92189 0
M  V30 14549 H 1365.9 -3.97199 -1.74399 0
M  V30 14550 H 1366.57 -4.41193 -3.31742 0
M  V30 14551 H 1369.05 -2.48516 -3.33735 0
M  V30 14552 H 1367.92 -2.91134 -4.6533 0
M  V30 14553 H 1368.18 -1.22206 -4.24874 0
M  V30 14554 N 1367.24 0.986894 -1.22875 0
M  V30 14555 C 1368.17 2.09628 -1.0285 0
M  V30 14556 C 1369.15 1.70019 0.0525118 0
M  V30 14557 O 1370.34 1.93883 -0.110874 0
M  V30 14558 C 1367.47 3.41866 -0.61194 0
M  V30 14559 C 1366.42 3.95351 -1.63956 0
M  V30 14560 C 1365.75 5.23707 -1.07865 0
M  V30 14561 C 1367.05 4.25354 -3.03102 0
M  V30 14562 H 1368.74 2.26639 -1.95641 0
M  V30 14563 H 1366.29 1.0891 -0.942048 0
M  V30 14564 H 1368.24 4.18893 -0.458936 0
M  V30 14565 H 1366.97 3.24701 0.35164 0
M  V30 14566 H 1365.62 3.20462 -1.78045 0
M  V30 14567 H 1365.27 5.02888 -0.106246 0
M  V30 14568 H 1364.97 5.60459 -1.76522 0
M  V30 14569 H 1366.5 6.03362 -0.937359 0
M  V30 14570 H 1367.91 4.93156 -2.92353 0
M  V30 14571 H 1366.31 4.73292 -3.68938 0
M  V30 14572 H 1367.38 3.32887 -3.52583 0
M  V30 14573 N 1368.72 1.0394 1.18466 0
M  V30 14574 C 1369.97 0.743141 1.88694 0
M  V30 14575 C 1370.3 -0.727211 1.8007 0
M  V30 14576 O 1369.57 -1.53058 1.20014 0
M  V30 14577 C 1369.86 1.20829 3.39223 0
M  V30 14578 C 1369.71 2.74064 3.56664 0
M  V30 14579 C 1371.03 0.797348 4.32817 0
M  V30 14580 H 1368.15 0.271437 0.685194 0
M  V30 14581 H 1370.79 1.29119 1.39386 0
M  V30 14582 H 1368.94 0.742033 3.81348 0
M  V30 14583 H 1370.61 3.28717 3.2364 0
M  V30 14584 H 1368.86 3.1395 2.99362 0
M  V30 14585 H 1369.53 3.01668 4.62277 0
M  V30 14586 H 1372 1.19854 3.98465 0
M  V30 14587 H 1370.88 1.15057 5.36706 0
M  V30 14588 H 1371.14 -0.299601 4.41084 0
M  V30 14589 N 1370.2 -1.34667 0.818693 0
M  V30 14590 C 1371.13 -2.32134 0.252239 0
M  V30 14591 C 1372.11 -1.58044 -0.628982 0
M  V30 14592 O 1373.29 -1.86049 -0.55674 0
M  V30 14593 C 1370.42 -3.42249 -0.590183 0
M  V30 14594 C 1369.38 -4.27562 0.193547 0
M  V30 14595 C 1368.7 -5.29107 -0.771349 0
M  V30 14596 C 1370 -5.03205 1.39936 0
M  V30 14597 H 1371.7 -2.79758 1.06657 0
M  V30 14598 H 1369.24 -1.34502 0.514325 0
M  V30 14599 H 1371.2 -4.09445 -0.996616 0
M  V30 14600 H 1369.92 -2.93262 -1.43752 0
M  V30 14601 H 1368.58 -3.61962 0.581297 0
M  V30 14602 H 1368.23 -4.76384 -1.61453 0
M  V30 14603 H 1367.93 -5.87063 -0.251201 0
M  V30 14604 H 1369.45 -5.99174 -1.17573 0
M  V30 14605 H 1370.87 -5.6328 1.06717 0
M  V30 14606 H 1369.26 -5.70715 1.85485 0
M  V30 14607 H 1370.33 -4.33145 2.17976 0
M  V30 14608 N 1371.68 -0.573274 -1.46804 0
M  V30 14609 C 1373.09 -0.23423 -1.57872 0
M  V30 14610 C 1373.29 1.26342 -1.56971 0
M  V30 14611 O 1372.35 2.04459 -1.48165 0
M  V30 14612 C 1373.66 -0.875097 -2.87685 0
M  V30 14613 C 1375.21 -0.847812 -3.01299 0
M  V30 14614 C 1375.68 -1.46804 -4.33835 0
M  V30 14615 N 1377.18 -1.43196 -4.4051 0
M  V30 14616 C 1377.91 -1.88133 -5.41658 0
M  V30 14617 N 1377.41 -2.41001 -6.49531 0
M  V30 14618 N 1379.2 -1.79107 -5.32801 0
M  V30 14619 H 1371.35 -1.54612 -1.45633 0
M  V30 14620 H 1373.61 -0.645703 -0.694098 0
M  V30 14621 H 1373.32 -1.92826 -2.94127 0
M  V30 14622 H 1373.19 -0.377671 -3.75305 0
M  V30 14623 H 1375.58 0.196707 -2.94444 0
M  V30 14624 H 1375.66 -1.38316 -2.1518 0
M  V30 14625 H 1375.31 -2.51171 -4.41447 0
M  V30 14626 H 1375.24 -0.908 -5.18713 0
M  V30 14627 H 1377.73 -1.04541 -3.63152 0
M  V30 14628 H 1378.04 -2.73172 -7.22908 0
M  V30 14629 H 1376.38 -2.45021 -6.50377 0
M  V30 14630 H 1379.58 -1.37569 -4.47429 0
M  V30 14631 H 1379.75 -2.14445 -6.11488 0
M  V30 14632 N 1373.15 1.5451 -0.310553 0
M  V30 14633 C 1374.1 2.23871 0.561277 0
M  V30 14634 C 1375.07 1.22475 1.12202 0
M  V30 14635 O 1376.26 1.51121 1.16477 0
M  V30 14636 C 1373.4 2.99029 1.72267 0
M  V30 14637 C 1372.51 4.15218 1.19241 0
M  V30 14638 C 1371.64 4.77935 2.31843 0
M  V30 14639 C 1370.68 5.86251 1.75999 0
M  V30 14640 N 1369.82 6.42885 2.82212 0
M  V30 14641 H 1374.66 2.97977 -0.0367998 0
M  V30 14642 H 1372.2 1.4707 -0.0299317 0
M  V30 14643 H 1374.16 3.40842 2.40588 0
M  V30 14644 H 1372.79 2.27281 2.29223 0
M  V30 14645 H 1371.84 3.78279 0.401148 0
M  V30 14646 H 1373.15 4.93225 0.743675 0
M  V30 14647 H 1372.3 5.2265 3.08094 0
M  V30 14648 H 1371.04 3.99281 2.80047 0
M  V30 14649 H 1370.05 5.40952 0.982415 0
M  V30 14650 H 1371.27 6.66795 1.28688 0
M  V30 14651 H 1369.22 5.67109 3.29732 0
M  V30 14652 H 1369.14 7.16267 2.41864 0
M  V30 14653 H 1370.4 6.92256 3.58332 0
M  V30 14654 N 1374.63 0.0384594 1.57553 0
M  V30 14655 C 1376.04 -0.499057 1.79906 0
M  V30 14656 C 1376.4 -1.7169 0.949577 0
M  V30 14657 O 1375.52 -2.15788 0.162584 0
M  V30 14658 C 1376.12 -0.912155 3.2629 0
M  V30 14659 C 1374.67 -1.39473 3.49606 0
M  V30 14660 C 1373.82 -0.363859 2.74902 0
M  V30 14661 H 1376.77 0.264433 1.56481 0
M  V30 14662 H 1376.79 -1.77592 3.36513 0
M  V30 14663 H 1376.31 -0.0255928 3.88092 0
M  V30 14664 H 1374.41 -2.3009 2.93068 0
M  V30 14665 H 1374.52 -1.39566 4.58321 0
M  V30 14666 H 1372.88 -0.833993 2.40659 0
M  V30 14667 H 1373.67 0.514398 3.39424 0
M  V30 14668 N 1376.11 -1.55841 -0.234795 0
M  V30 14669 C 1377.36 -1.77886 -0.959217 0
M  V30 14670 C 1377.68 -0.604621 -1.8539 0
M  V30 14671 O 1376.95 0.379092 -1.92197 0
M  V30 14672 H 1375.53 -0.656077 -0.357172 0
M  V30 14673 H 1378.19 -1.93292 -0.249831 0
M  V30 14674 H 1377.29 -2.69512 -1.57383 0
M  V30 14675 N 1377.59 0.500963 -1.49426 0
M  V30 14676 C 1378.84 1.25171 -1.58162 0
M  V30 14677 C 1379.15 1.93678 -0.273556 0
M  V30 14678 O 1380.36 2.70442 -0.239462 0
M  V30 14679 C 1378.81 2.27276 -2.79059 0
M  V30 14680 C 1378.42 1.64708 -4.16624 0
M  V30 14681 C 1380.17 3.03178 -2.97125 0
M  V30 14682 C 1378.07 2.64923 -5.28743 0
M  V30 14683 H 1377 0.470867 -0.588897 0
M  V30 14684 H 1379.65 0.525569 -1.75812 0
M  V30 14685 H 1378.04 3.03052 -2.54903 0
M  V30 14686 H 1379.21 0.949231 -4.50917 0
M  V30 14687 H 1377.52 1.01195 -4.03916 0
M  V30 14688 H 1380.12 3.78122 -3.78058 0
M  V30 14689 H 1380.46 3.60793 -2.07687 0
M  V30 14690 H 1381 2.34517 -3.2132 0
M  V30 14691 H 1377.74 2.12089 -6.20241 0
M  V30 14692 H 1377.26 3.32948 -4.98904 0
M  V30 14693 H 1378.94 3.27349 -5.58079 0
M  V30 14694 N 1379.07 1.38501 0.752011 0
M  V30 14695 C 1380.02 1.35975 1.88716 0
M  V30 14696 C 1381.01 0.245392 1.67613 0
M  V30 14697 O 1382.22 0.414514 1.75162 0
M  V30 14698 H 1378.59 0.424221 0.620919 0
M  V30 14699 H 1380.56 2.3176 1.87962 0
M  V30 14700 C 1379.31 1.20326 3.26216 0
M  V30 14701 H 1378.63 2.05336 3.43041 0
M  V30 14702 H 1380.07 1.22613 4.05884 0
M  V30 14703 C 1378.53 -0.0897029 3.36781 0
M  V30 14704 O 1379.06 -1.06615 3.87293 0
M  V30 14705 N 1377.27 -0.147065 2.90228 0
M  V30 14706 H 1376.82 0.648216 2.49311 0
M  V30 14707 H 1376.77 -1.01174 2.97676 0
M  V30 14708 N 1380.55 -0.980364 1.23396 0
M  V30 14709 C 1381.79 -1.72421 1.06765 0
M  V30 14710 C 1382.12 -1.90151 -0.394515 0
M  V30 14711 O 1381.4 -1.4538 -1.29209 0
M  V30 14712 C 1381.68 -3.12246 1.79372 0
M  V30 14713 C 1381.54 -3.02087 3.33262 0
M  V30 14714 C 1382.85 -4.11667 1.55624 0
M  V30 14715 H 1379.97 -0.625822 0.389251 0
M  V30 14716 H 1382.62 -1.14132 1.51901 0
M  V30 14717 H 1380.77 -3.62008 1.41004 0
M  V30 14718 H 1382.44 -2.59848 3.81152 0
M  V30 14719 H 1380.68 -2.38592 3.62293 0
M  V30 14720 H 1381.35 -4.01087 3.79254 0
M  V30 14721 H 1383.83 -3.70712 1.88975 0
M  V30 14722 H 1382.7 -5.07593 2.08902 0
M  V30 14723 H 1382.96 -4.39358 0.491601 0
M  V30 14724 N 1382.02 -1.04567 -1.17913 0
M  V30 14725 C 1382.99 -0.645476 -2.19923 0
M  V30 14726 C 1383.99 0.299763 -1.57981 0
M  V30 14727 O 1385.18 0.0844825 -1.73995 0
M  V30 14728 C 1382.31 0.0528935 -3.40859 0
M  V30 14729 H 1383.5 -1.54828 -2.56843 0
M  V30 14730 H 1381.05 -0.838812 -1.31885 0
M  V30 14731 H 1381.79 0.969261 -3.09477 0
M  V30 14732 H 1381.57 -0.626558 -3.87062 0
M  V30 14733 H 1383.06 0.319221 -4.16378 0
M  V30 14734 N 1383.5 1.34231 -0.825823 0
M  V30 14735 C 1384.73 2.02949 -0.427354 0
M  V30 14736 C 1385.15 1.61772 0.959755 0
M  V30 14737 O 1384.51 0.803799 1.62508 0
M  V30 14738 C 1384.56 3.56522 -0.540799 0
M  V30 14739 O 1383.66 4.10065 0.438213 0
M  V30 14740 H 1383 0.640378 -0.175535 0
M  V30 14741 H 1385.53 1.71416 -1.11704 0
M  V30 14742 H 1385.54 4.05857 -0.41763 0
M  V30 14743 H 1384.22 3.85839 -1.55246 0
M  V30 14744 H 1382.79 3.71894 0.273687 0
M  V30 14745 N 1384.98 0.581051 1.46498 0
M  V30 14746 C 1386.26 -0.000789846 1.956 0
M  V30 14747 C 1386.64 -1.46104 1.52371 0
M  V30 14748 O 1385.98 -2.15005 0.773623 0
M  V30 14749 C 1386.19 0.169534 3.48588 0
M  V30 14750 C 1387.54 0.036499 4.24584 0
M  V30 14751 O 1388.57 0.0982852 3.56064 0
M  V30 14752 O 1387.43 -0.100571 5.46407 0
M  V30 14753 H 1384.52 -0.050749 0.825441 0
M  V30 14754 H 1387.07 0.649252 1.56789 0
M  V30 14755 H 1385.84 1.18473 3.72934 0
M  V30 14756 H 1385.46 -0.517017 3.94224 0
M  V30 14757 N 1386.46 -1.54343 0.318742 0
M  V30 14758 C 1387.7 -2.01485 -0.278487 0
M  V30 14759 C 1388.06 -1.20298 -1.50154 0
M  V30 14760 O 1387.35 -0.275803 -1.89605 0
M  V30 14761 C 1387.55 -3.51079 -0.669181 0
M  V30 14762 C 1387.37 -4.46748 0.514464 0
M  V30 14763 C 1386.14 -4.95061 1.01206 0
M  V30 14764 C 1388.34 -4.95852 1.36512 0
M  V30 14765 N 1386.32 -5.74622 2.16061 0
M  V30 14766 C 1387.7 -5.7329 2.36091 0
M  V30 14767 C 1389.75 -4.78004 1.39344 0
M  V30 14768 C 1388.45 -6.3478 3.38301 0
M  V30 14769 C 1390.48 -5.40325 2.40422 0
M  V30 14770 C 1389.84 -6.1761 3.38728 0
M  V30 14771 H 1385.94 -0.77922 -0.0658815 0
M  V30 14772 H 1388.52 -1.89364 0.452687 0
M  V30 14773 H 1386.7 -3.63455 -1.3695 0
M  V30 14774 H 1388.43 -3.84994 -1.24747 0
M  V30 14775 H 1385.18 -4.69984 0.584127 0
M  V30 14776 H 1385.61 -6.19082 2.73983 0
M  V30 14777 H 1390.25 -4.17819 0.64709 0
M  V30 14778 H 1387.97 -6.94088 4.13845 0
M  V30 14779 H 1391.55 -5.28435 2.43409 0
M  V30 14780 H 1390.43 -6.64978 4.15661 0
M  V30 14781 N 1387.94 -0.0468143 -1.5753 0
M  V30 14782 C 1389.16 0.641161 -1.97241 0
M  V30 14783 C 1389.59 1.6384 -0.92401 0
M  V30 14784 O 1388.94 1.80946 0.113229 0
M  V30 14785 C 1388.99 1.30832 -3.36029 0
M  V30 14786 O 1388.1 2.42394 -3.33645 0
M  V30 14787 H 1387.44 0.167035 -0.642647 0
M  V30 14788 H 1389.97 -0.113921 -2.04283 0
M  V30 14789 H 1389.98 1.66102 -3.72658 0
M  V30 14790 H 1388.65 0.57744 -4.11872 0
M  V30 14791 H 1387.23 2.09104 -3.08756 0
M  V30 14792 N 1389.41 1.55964 0.226527 0
M  V30 14793 C 1390.66 1.77944 0.94967 0
M  V30 14794 C 1390.98 0.614478 1.85697 0
M  V30 14795 O 1392.18 0.717793 2.6184 0
M  V30 14796 C 1390.64 3.15108 1.73881 0
M  V30 14797 C 1390.25 4.39314 0.877894 0
M  V30 14798 C 1391.99 3.46418 2.45347 0
M  V30 14799 C 1389.9 5.67505 1.6641 0
M  V30 14800 H 1388.83 0.663412 0.35833 0
M  V30 14801 H 1391.48 1.82366 0.203695 0
M  V30 14802 H 1389.86 3.04849 2.52751 0
M  V30 14803 H 1391.03 4.60616 0.130089 0
M  V30 14804 H 1389.35 4.15487 0.2756 0
M  V30 14805 H 1391.95 4.39416 3.0466 0
M  V30 14806 H 1392.29 2.68685 3.17985 0
M  V30 14807 H 1392.82 3.57984 1.73471 0
M  V30 14808 H 1389.56 6.48116 0.981089 0
M  V30 14809 H 1389.08 5.50272 2.38665 0
M  V30 14810 H 1390.76 6.075 2.22605 0
M  V30 14811 N 1390.89 -0.493031 1.4969 0
M  V30 14812 C 1391.84 -1.59075 1.63337 0
M  V30 14813 C 1392.83 -1.53298 0.488721 0
M  V30 14814 O 1394.02 -1.60693 0.742071 0
M  V30 14815 C 1391.15 -2.97646 1.71061 0
M  V30 14816 C 1390.23 -3.08389 2.9113 0
M  V30 14817 N 1390.62 -2.89001 4.15105 0
M  V30 14818 C 1388.92 -3.395 2.89233 0
M  V30 14819 C 1389.62 -3.04136 4.95859 0
M  V30 14820 N 1388.6 -3.33367 4.2938 0
M  V30 14821 H 1392.4 -1.42751 2.56903 0
M  V30 14822 H 1389.92 -0.699325 1.46571 0
M  V30 14823 H 1391.91 -3.76546 1.78938 0
M  V30 14824 H 1390.57 -3.15034 0.786376 0
M  V30 14825 H 1391.58 -2.65017 4.44957 0
M  V30 14826 H 1388.26 -3.63014 2.06221 0
M  V30 14827 H 1389.65 -2.93571 6.04372 0
M  V30 14828 N 1392.37 -1.38898 -0.744656 0
M  V30 14829 C 1393.3 -1.39571 -1.87195 0
M  V30 14830 C 1394.28 -0.260372 -1.68095 0
M  V30 14831 O 1395.47 -0.464776 -1.88556 0
M  V30 14832 C 1392.6 -1.22889 -3.24832 0
M  V30 14833 C 1391.55 -2.33721 -3.58551 0
M  V30 14834 C 1390.88 -2.02136 -4.9502 0
M  V30 14835 C 1392.18 -3.7601 -3.62511 0
M  V30 14836 H 1393.87 -2.33908 -1.86889 0
M  V30 14837 H 1391.42 -1.12591 -0.897739 0
M  V30 14838 H 1393.37 -1.21983 -4.03359 0
M  V30 14839 H 1392.09 -0.250172 -3.2564 0
M  V30 14840 H 1390.75 -2.33828 -2.82348 0
M  V30 14841 H 1390.4 -1.02726 -4.92399 0
M  V30 14842 H 1390.1 -2.76371 -5.18549 0
M  V30 14843 H 1391.62 -2.02864 -5.75915 0
M  V30 14844 H 1393.04 -3.77885 -4.31133 0
M  V30 14845 H 1391.44 -4.49524 -3.97553 0
M  V30 14846 H 1392.51 -4.07682 -2.62533 0
M  V30 14847 N 1393.85 0.973806 -1.23914 0
M  V30 14848 C 1395.26 1.24128 -1.00322 0
M  V30 14849 C 1395.46 1.99378 0.29169 0
M  V30 14850 O 1394.52 2.31445 1.00943 0
M  V30 14851 C 1395.83 2.03438 -2.21435 0
M  V30 14852 C 1397.38 2.16553 -2.25995 0
M  V30 14853 C 1397.86 2.99257 -3.46712 0
M  V30 14854 N 1399.35 3.0684 -3.46992 0
M  V30 14855 C 1400.08 3.71174 -4.37055 0
M  V30 14856 N 1399.58 4.37277 -5.37364 0
M  V30 14857 N 1401.37 3.68126 -4.24782 0
M  V30 14858 H 1393.52 0.469872 -2.07138 0
M  V30 14859 H 1395.79 0.270234 -0.908668 0
M  V30 14860 H 1395.49 1.55527 -3.15443 0
M  V30 14861 H 1395.37 3.0418 -2.23057 0
M  V30 14862 H 1397.75 2.6367 -1.32522 0
M  V30 14863 H 1397.83 1.15179 -2.28402 0
M  V30 14864 H 1397.48 2.52835 -4.40496 0
M  V30 14865 H 1397.41 4.00815 -3.41547 0
M  V30 14866 H 1399.9 2.59813 -2.74419 0
M  V30 14867 H 1400.21 4.84166 -6.02331 0
M  V30 14868 H 1398.56 4.35965 -5.41257 0
M  V30 14869 H 1401.75 3.15657 -3.45656 0
M  V30 14870 H 1401.92 4.17981 -4.95173 0
M  V30 14871 O 1395.37 1.17697 1.10588 0
M  V30 14872 H 1396.06 0.915918 1.70677 0
M  V30 END ATOM
M  V30 BEGIN BOND
M  V30 END BOND
M  V30 END CTAB
M  END
$$$$
