drugbank_target|P43403 Tyrosine-protein kinase ZAP-70 (DB02010; DB12010)
 OpenBabel12092119523D

  0  0  0     0  0            999 V3000
M  V30 BEGIN CTAB
M  V30 COUNTS 9767 9891 0 0 0
M  V30 BEGIN ATOM
M  V30 1 H -0.908 1.98254 -0.117106 0
M  V30 2 N 0 1.576 0 0
M  V30 3 C 0.933 2.03868 1.02534 0
M  V30 4 C 1.911 0.928543 1.3348 0
M  V30 5 O 3.095 1.19667 1.45644 0
M  V30 6 C 0.222 2.43627 2.35294 0
M  V30 7 C -0.732 3.65373 2.2001 0
M  V30 8 S 0.101 5.13292 1.52614 0
M  V30 9 C 1.257 5.56322 2.86805 0
M  V30 10 H 1.49 2.90518 0.631377 0
M  V30 11 H -0.977 1.52953 0.210867 0
M  V30 12 H 0.981 2.67203 3.11629 0
M  V30 13 H -0.358 1.57376 2.7183 0
M  V30 14 H -1.165 3.90944 3.18086 0
M  V30 15 H -1.563 3.418 1.51819 0
M  V30 16 H 0.729 5.58782 3.83104 0
M  V30 17 H 1.672 6.56266 2.65933 0
M  V30 18 H 2.08 4.83886 2.90714 0
M  V30 19 N 1.4781 -0.272755 1.55222 0
M  V30 20 C 2.8891 -0.84378 1.66545 0
M  V30 21 C 3.2401 -1.87035 0.592641 0
M  V30 22 O 2.3651 -2.14761 -0.265818 0
M  V30 23 C 2.9601 -1.53723 3.01918 0
M  V30 24 C 1.5191 -2.05628 3.15268 0
M  V30 25 C 0.6661 -0.898424 2.62343 0
M  V30 26 H 3.6171 -0.0490998 1.58624 0
M  V30 27 H 3.6381 -2.40421 2.94921 0
M  V30 28 H 3.1501 -0.78983 3.79978 0
M  V30 29 H 1.2511 -2.83329 2.41983 0
M  V30 30 H 1.3641 -2.27142 4.21833 0
M  V30 31 H -0.2719 -1.29186 2.19506 0
M  V30 32 H 0.5111 -0.164528 3.42906 0
M  V30 33 N 2.9562 -1.48159 -0.537278 0
M  V30 34 C 4.2332 -1.46291 -1.29839 0
M  V30 35 C 4.6132 -0.170613 -2.10409 0
M  V30 36 O 3.9612 0.847746 -2.12192 0
M  V30 37 C 4.1712 -2.72055 -2.18603 0
M  V30 38 C 5.5192 -3.20087 -2.7898 0
M  V30 39 O 6.5432 -2.72921 -2.28894 0
M  V30 40 O 5.4022 -4.02138 -3.70064 0
M  V30 41 H 2.4962 -0.583906 -0.585647 0
M  V30 42 H 5.0422 -1.60384 -0.554534 0
M  V30 43 H 3.8142 -3.57628 -1.58801 0
M  V30 44 H 3.4372 -2.60646 -3.00249 0
M  V30 45 N 4.4343 0.785586 -1.36625 0
M  V30 46 C 5.8453 1.36101 -1.27803 0
M  V30 47 C 6.1963 1.96035 0.0804875 0
M  V30 48 O 5.3213 1.92834 0.982042 0
M  V30 49 C 5.9163 2.47442 -2.31426 0
M  V30 50 C 4.4753 3.00789 -2.26281 0
M  V30 51 C 3.6223 1.73896 -2.15999 0
M  V30 52 H 6.5733 0.586928 -1.47448 0
M  V30 53 H 6.5943 3.2656 -1.95291 0
M  V30 54 H 6.1063 2.03791 -3.30289 0
M  V30 55 H 4.2073 3.48851 -1.30896 0
M  V30 56 H 4.3203 3.57343 -3.19128 0
M  V30 57 H 2.6843 1.9628 -1.62316 0
M  V30 58 H 3.4673 1.32368 -3.16755 0
M  V30 59 N 5.9124 1.20967 1.01018 0
M  V30 60 C 6.8754 0.965918 2.07853 0
M  V30 61 C 7.8754 -0.0610545 1.60684 0
M  V30 62 O 9.0654 0.175681 1.73312 0
M  V30 63 C 6.1974 0.455513 3.37843 0
M  V30 64 H 7.3904 1.91365 2.3091 0
M  V30 65 H 4.9434 1.02594 1.17916 0
M  V30 66 H 5.6784 -0.497381 3.20463 0
M  V30 67 H 5.4634 1.19622 3.73407 0
M  V30 68 H 6.9534 0.304667 4.16487 0
M  V30 69 N 7.3905 -1.2043 1.01659 0
M  V30 70 C 8.3535 -2.21433 0.591616 0
M  V30 71 C 9.3535 -1.57203 -0.338226 0
M  V30 72 O 10.5435 -1.73737 -0.126918 0
M  V30 73 C 7.6755 -3.40628 -0.136058 0
M  V30 74 H 8.8685 -2.60545 1.48514 0
M  V30 75 H 6.4215 -1.33893 0.806379 0
M  V30 76 H 7.1565 -3.07019 -1.04449 0
M  V30 77 H 6.9415 -3.88475 0.531917 0
M  V30 78 H 8.4315 -4.15475 -0.420735 0
M  V30 79 N 8.8686 -0.792821 -1.36206 0
M  V30 80 C 9.8186 -0.166598 -2.27391 0
M  V30 81 C 10.8026 0.651479 -1.47121 0
M  V30 82 O 11.9946 0.510994 -1.69463 0
M  V30 83 C 9.1236 0.695033 -3.36191 0
M  V30 84 C 8.2096 -0.132019 -4.23894 0
M  V30 85 N 8.6006 -1.18822 -4.91645 0
M  V30 86 C 6.8986 0.0885952 -4.45912 0
M  V30 87 C 7.5996 -1.69198 -5.56549 0
M  V30 88 N 6.5756 -1.00065 -5.34311 0
M  V30 89 H 10.3776 -0.974947 -2.77258 0
M  V30 90 H 7.8916 -0.632616 -1.49572 0
M  V30 91 H 9.8886 1.1596 -4.00448 0
M  V30 92 H 8.5486 1.50189 -2.87877 0
M  V30 93 H 9.5596 -1.57069 -4.93507 0
M  V30 94 H 6.2366 0.865688 -4.08426 0
M  V30 95 H 7.6266 -2.57395 -6.20643 0
M  V30 96 N 10.3467 1.47872 -0.545128 0
M  V30 97 C 11.2767 2.32661 0.197793 0
M  V30 98 C 12.2577 1.43041 0.920504 0
M  V30 99 O 13.4427 1.71912 0.90333 0
M  V30 100 C 10.5727 3.24569 1.23582 0
M  V30 101 C 9.5267 4.23333 0.630323 0
M  V30 102 C 8.8527 5.0448 1.77211 0
M  V30 103 C 10.1527 5.20704 -0.407974 0
M  V30 104 H 11.8467 2.95024 -0.510045 0
M  V30 105 H 9.3927 1.4187 -0.246731 0
M  V30 106 H 11.3457 3.8272 1.76362 0
M  V30 107 H 10.0697 2.60236 1.97344 0
M  V30 108 H 8.7287 3.6639 0.123922 0
M  V30 109 H 8.3767 4.36561 2.49847 0
M  V30 110 H 8.0767 5.71339 1.37281 0
M  V30 111 H 9.6007 5.65487 2.3034 0
M  V30 112 H 11.0147 5.7329 0.033305 0
M  V30 113 H 9.4117 5.95699 -0.725486 0
M  V30 114 H 10.4817 4.66917 -1.30828 0
M  V30 115 N 11.8248 0.280983 1.55075 0
M  V30 116 C 13.2358 -0.215629 1.85451 0
M  V30 117 C 13.5868 -1.54991 1.203 0
M  V30 118 O 12.7118 -2.10699 0.493435 0
M  V30 119 C 13.3068 -0.398026 3.36454 0
M  V30 120 C 11.8658 -0.838866 3.66933 0
M  V30 121 C 11.0128 0.064458 2.77225 0
M  V30 122 H 13.9638 0.502601 1.50531 0
M  V30 123 H 13.9848 -1.23569 3.59876 0
M  V30 124 H 13.4968 0.573241 3.83843 0
M  V30 125 H 11.5978 -1.8214 3.25048 0
M  V30 126 H 11.7108 -0.672123 4.74362 0
M  V30 127 H 10.0748 -0.452863 2.50642 0
M  V30 128 H 10.8578 1.03172 3.2743 0
M  V30 129 N 13.3029 -1.57598 0.00835791 0
M  V30 130 C 14.5499 -1.90928 -0.674732 0
M  V30 131 C 14.8779 -0.88277 -1.73313 0
M  V30 132 O 14.1329 0.111294 -1.95383 0
M  V30 133 C 14.4319 -3.3101 -1.34787 0
M  V30 134 C 14.0979 -4.48922 -0.421861 0
M  V30 135 C 12.7599 -4.8091 -0.166927 0
M  V30 136 C 15.1119 -5.20755 0.215211 0
M  V30 137 C 12.4399 -5.821 0.733232 0
M  V30 138 C 14.7919 -6.22905 1.1033 0
M  V30 139 C 13.4559 -6.53346 1.36733 0
M  V30 140 H 12.7259 -0.698656 -0.246902 0
M  V30 141 H 15.3729 -1.91387 0.0656779 0
M  V30 142 H 13.6779 -3.26714 -2.16253 0
M  V30 143 H 15.3749 -3.54061 -1.8826 0
M  V30 144 H 11.9649 -4.23934 -0.630729 0
M  V30 145 H 16.1489 -4.9629 0.0312829 0
M  V30 146 H 11.4049 -6.04042 0.945712 0
M  V30 147 H 15.5789 -6.77694 1.60325 0
M  V30 148 H 13.2059 -7.31573 2.06652 0
M  V30 149 N 14.781 0.264519 -1.55364 0
M  V30 150 C 16.028 0.994986 -1.7637 0
M  V30 151 C 16.356 1.85976 -0.5695 0
M  V30 152 O 15.611 1.90509 0.44776 0
M  V30 153 C 15.91 1.9004 -3.02687 0
M  V30 154 C 15.576 1.19243 -4.34847 0
M  V30 155 C 14.238 0.996709 -4.70764 0
M  V30 156 C 16.59 0.689296 -5.16622 0
M  V30 157 C 13.918 0.285261 -5.86006 0
M  V30 158 C 16.27 -0.00860079 -6.32599 0
M  V30 159 C 14.934 -0.215963 -6.67151 0
M  V30 160 H 14.204 0.364091 -0.645383 0
M  V30 161 H 16.851 0.266543 -1.89636 0
M  V30 162 H 15.156 2.69533 -2.84357 0
M  V30 163 H 16.853 2.46695 -3.16137 0
M  V30 164 H 13.443 1.3549 -4.06621 0
M  V30 165 H 17.627 0.828108 -4.89342 0
M  V30 166 H 12.883 0.113961 -6.11294 0
M  V30 167 H 17.057 -0.406186 -6.95214 0
M  V30 168 H 14.684 -0.769217 -7.56298 0
M  V30 169 N 16.2591 1.48442 0.529413 0
M  V30 170 C 17.4891 1.59919 1.30804 0
M  V30 171 C 17.8971 0.258792 1.87422 0
M  V30 172 O 17.2401 -0.762096 1.67146 0
M  V30 173 C 17.3021 2.58693 2.49636 0
M  V30 174 C 16.9661 4.03745 2.14101 0
M  V30 175 C 17.9631 4.9141 1.6974 0
M  V30 176 C 15.6481 4.49285 2.24607 0
M  V30 177 C 17.6421 6.22645 1.36351 0
M  V30 178 C 15.3291 5.8054 1.9083 0
M  V30 179 C 16.3271 6.67043 1.46773 0
M  V30 180 O 16.0151 7.95856 1.1344 0
M  V30 181 H 15.7471 0.541981 0.404021 0
M  V30 182 H 18.3011 1.95 0.645309 0
M  V30 183 H 16.5311 2.18734 3.18892 0
M  V30 184 H 18.2201 2.59999 3.11698 0
M  V30 185 H 18.9861 4.57465 1.61094 0
M  V30 186 H 14.8651 3.82142 2.57854 0
M  V30 187 H 18.4091 6.90119 1.01891 0
M  V30 188 H 14.3061 6.14022 1.99117 0
M  V30 189 H 15.0741 8.08613 1.26832 0
M  V30 190 N 17.7372 -0.778329 1.37039 0
M  V30 191 C 18.9852 -1.53361 1.31623 0
M  V30 192 C 19.3062 -1.94739 -0.100831 0
M  V30 193 O 18.5762 -1.65797 -1.04347 0
M  V30 194 H 17.1562 -0.568794 0.484234 0
M  V30 195 H 19.8182 -0.926742 1.71457 0
M  V30 196 H 18.9142 -2.43606 1.95096 0
M  V30 197 N 19.2153 -1.21501 -1.00376 0
M  V30 198 C 20.4403 -1.05977 -1.78279 0
M  V30 199 C 20.8653 0.385994 -1.84097 0
M  V30 200 O 20.2233 1.27849 -1.28547 0
M  V30 201 C 20.2713 -1.66302 -3.19963 0
M  V30 202 O 19.3753 -0.909333 -4.0225 0
M  V30 203 H 18.7163 -0.372906 -0.549397 0
M  V30 204 H 21.2463 -1.6107 -1.26165 0
M  V30 205 H 21.2563 -1.70574 -3.70632 0
M  V30 206 H 19.9313 -2.71515 -3.15043 0
M  V30 207 H 18.5083 -0.941795 -3.60811 0
M  V30 208 N 20.6934 1.19889 -1.02296 0
M  V30 209 C 21.9424 1.88743 -0.711257 0
M  V30 210 C 22.2554 1.80112 0.762817 0
M  V30 211 O 23.4614 2.44161 1.18733 0
M  V30 212 C 21.9174 3.38525 -1.22185 0
M  V30 213 C 21.5254 3.55727 -2.72328 0
M  V30 214 C 23.2694 4.12893 -0.985864 0
M  V30 215 C 21.1764 4.99369 -3.16835 0
M  V30 216 H 20.1064 0.706885 -0.262353 0
M  V30 217 H 22.7574 1.35586 -1.23648 0
M  V30 218 H 21.1394 3.91044 -0.624571 0
M  V30 219 H 22.3134 3.13564 -3.3766 0
M  V30 220 H 20.6284 2.94739 -2.9414 0
M  V30 221 H 23.2254 5.18813 -1.29374 0
M  V30 222 H 23.5684 4.16228 0.0775055 0
M  V30 223 H 24.1014 3.66494 -1.54684 0
M  V30 224 H 20.8404 5.01193 -4.22476 0
M  V30 225 H 20.3604 5.42317 -2.56228 0
M  V30 226 H 22.0394 5.67988 -3.09837 0
M  V30 227 N 22.1715 0.800033 1.35784 0
M  V30 228 C 23.3965 0.388511 2.03729 0
M  V30 229 C 23.8215 -0.990481 1.5991 0
M  V30 230 O 23.1795 -1.64013 0.772612 0
M  V30 231 C 23.2275 0.4726 3.5749 0
M  V30 232 O 22.3315 -0.51646 4.09153 0
M  V30 233 H 21.6725 0.163271 0.643614 0
M  V30 234 H 24.2025 1.0841 1.73518 0
M  V30 235 H 24.2125 0.34003 4.06581 0
M  V30 236 H 22.8875 1.47848 3.88734 0
M  V30 237 H 21.4645 -0.344673 3.71304 0
M  V30 238 N 23.6496 -1.47581 0.552962 0
M  V30 239 C 25.0656 -1.5818 0.212424 0
M  V30 240 C 25.2656 -1.55213 -1.28496 0
M  V30 241 O 24.3216 -1.45329 -2.06484 0
M  V30 242 C 25.6346 -2.88865 0.835318 0
M  V30 243 C 27.1826 -3.0244 0.806156 0
M  V30 244 C 27.6576 -4.35819 1.40804 0
M  V30 245 N 29.1486 -4.42444 1.37103 0
M  V30 246 C 29.8836 -5.44202 1.80641 0
M  V30 247 N 29.3796 -6.52795 2.32015 0
M  V30 248 N 31.1726 -5.35222 1.71738 0
M  V30 249 H 23.3236 -1.47753 1.52587 0
M  V30 250 H 25.5866 -0.702941 0.636064 0
M  V30 251 H 25.2926 -2.9676 1.88749 0
M  V30 252 H 25.1666 -3.7579 0.325848 0
M  V30 253 H 27.5536 -2.94144 -0.237317 0
M  V30 254 H 27.6346 -2.17068 1.35334 0
M  V30 255 H 27.2786 -4.44871 2.45056 0
M  V30 256 H 27.2086 -5.19916 0.836338 0
M  V30 257 H 29.6996 -3.6456 0.995202 0
M  V30 258 H 30.0126 -7.26609 2.63171 0
M  V30 259 H 28.3576 -6.53696 2.36023 0
M  V30 260 H 31.5486 -4.49284 1.31382 0
M  V30 261 H 31.7216 -6.14389 2.05987 0
M  V30 262 N 25.1277 -0.289203 -1.54924 0
M  V30 263 C 26.0907 0.579144 -2.21762 0
M  V30 264 C 27.0907 1.07047 -1.1999 0
M  V30 265 O 28.2807 0.968384 -1.44803 0
M  V30 266 C 25.4127 1.80055 -2.8947 0
M  V30 267 H 26.6057 -0.00464908 -2.999 0
M  V30 268 H 24.1587 -0.0399306 -1.56249 0
M  V30 269 H 24.8937 2.42449 -2.15381 0
M  V30 270 H 24.6787 1.45602 -3.64064 0
M  V30 271 H 26.1687 2.41773 -3.40493 0
M  V30 272 N 26.6058 1.57591 -0.0167156 0
M  V30 273 C 27.5158 2.1291 0.98521 0
M  V30 274 C 28.5318 1.07834 1.36557 0
M  V30 275 O 29.7078 1.39826 1.44951 0
M  V30 276 C 26.7728 2.63512 2.25305 0
M  V30 277 C 25.8338 3.83256 1.93426 0
M  V30 278 C 25.0668 4.31435 3.14165 0
M  V30 279 O 25.2898 3.78851 4.26413 0
M  V30 280 O 24.2238 5.23416 2.97186 0
M  V30 281 H 28.0498 2.98772 0.544888 0
M  V30 282 H 25.6348 1.48012 0.203141 0
M  V30 283 H 27.5168 2.96183 2.99756 0
M  V30 284 H 26.1918 1.8074 2.68542 0
M  V30 285 H 25.0988 3.55531 1.16398 0
M  V30 286 H 26.4318 4.67153 1.55013 0
M  V30 287 N 28.0839 -0.256276 1.55502 0
M  V30 288 C 29.0469 -1.30047 1.88734 0
M  V30 289 C 30.0469 -1.4154 0.763086 0
M  V30 290 O 31.2369 -1.40403 1.03115 0
M  V30 291 C 28.3689 -2.67953 2.10747 0
M  V30 292 H 29.5619 -1.01802 2.82093 0
M  V30 293 H 27.1149 -0.495134 1.4825 0
M  V30 294 H 27.8499 -3.01351 1.19825 0
M  V30 295 H 27.6349 -2.60993 2.92617 0
M  V30 296 H 29.1249 -3.43368 2.37673 0
M  V30 297 N 29.562 -1.4872 -0.521534 0
M  V30 298 C 30.472 -1.66569 -1.65203 0
M  V30 299 C 31.488 -0.548197 -1.65139 0
M  V30 300 O 32.664 -0.820339 -1.83936 0
M  V30 301 C 29.729 -1.70917 -3.01642 0
M  V30 302 C 28.79 -2.94356 -3.12495 0
M  V30 303 C 28.023 -2.98487 -4.42426 0
M  V30 304 O 28.246 -2.10786 -5.30024 0
M  V30 305 O 27.18 -3.90746 -4.57822 0
M  V30 306 H 31.006 -2.62298 -1.5308 0
M  V30 307 H 28.591 -1.3222 -0.695565 0
M  V30 308 H 30.473 -1.7625 -3.82771 0
M  V30 309 H 29.148 -0.783633 -3.14071 0
M  V30 310 H 28.055 -2.94552 -2.3063 0
M  V30 311 H 29.388 -3.86322 -3.04986 0
M  V30 312 N 31.0401 0.771051 -1.3745 0
M  V30 313 C 31.9501 1.91538 -1.35464 0
M  V30 314 C 32.9661 1.72134 -0.254123 0
M  V30 315 O 34.1421 1.95358 -0.489626 0
M  V30 316 C 31.2071 3.26671 -1.16134 0
M  V30 317 C 30.2681 3.58723 -2.35831 0
M  V30 318 C 29.5011 4.87409 -2.17413 0
M  V30 319 O 29.7241 5.58506 -1.15876 0
M  V30 320 O 28.6581 5.18539 -3.05615 0
M  V30 321 H 32.4841 1.96165 -2.31847 0
M  V30 322 H 30.0691 0.9139 -1.18187 0
M  V30 323 H 31.9511 4.07499 -1.07345 0
M  V30 324 H 30.6261 3.22894 -0.228251 0
M  V30 325 H 29.5331 2.78127 -2.50192 0
M  V30 326 H 30.8661 3.67243 -3.27709 0
M  V30 327 N 32.5182 1.22032 0.997298 0
M  V30 328 C 33.4682 0.953838 2.07089 0
M  V30 329 C 34.4522 -0.0938669 1.60626 0
M  V30 330 O 35.6442 0.116078 1.76619 0
M  V30 331 C 32.7732 0.528726 3.39204 0
M  V30 332 C 31.8592 1.61092 3.92314 0
M  V30 333 N 32.2502 2.83768 4.18699 0
M  V30 334 C 30.5482 1.48158 4.20672 0
M  V30 335 C 31.2492 3.53715 4.61802 0
M  V30 336 N 30.2252 2.81174 4.65233 0
M  V30 337 H 34.0272 1.88577 2.25424 0
M  V30 338 H 31.5412 1.11719 1.17867 0
M  V30 339 H 33.5382 0.31915 4.15677 0
M  V30 340 H 32.1982 -0.39635 3.22272 0
M  V30 341 H 33.2092 3.20238 4.07023 0
M  V30 342 H 29.8862 0.622369 4.12835 0
M  V30 343 H 31.2762 4.58793 4.90875 0
M  V30 344 N 33.9963 -1.19345 1.0293 0
M  V30 345 C 34.9263 -2.2481 0.631105 0
M  V30 346 C 35.9073 -1.66245 -0.360104 0
M  V30 347 O 37.0923 -1.92677 -0.242726 0
M  V30 348 C 34.2223 -3.47295 -0.0184607 0
M  V30 349 C 33.1763 -4.18536 0.895073 0
M  V30 350 C 32.5023 -5.34586 0.110592 0
M  V30 351 C 33.8023 -4.73287 2.209 0
M  V30 352 H 35.4963 -2.58372 1.51275 0
M  V30 353 H 33.0423 -1.24194 0.728818 0
M  V30 354 H 34.9953 -4.20268 -0.308675 0
M  V30 355 H 33.7193 -3.12933 -0.934907 0
M  V30 356 H 32.3783 -3.47446 1.16949 0
M  V30 357 H 32.0263 -4.96469 -0.807902 0
M  V30 358 H 31.7263 -5.83183 0.719087 0
M  V30 359 H 33.2503 -6.10355 -0.172871 0
M  V30 360 H 34.6643 -5.38013 1.98028 0
M  V30 361 H 33.0613 -5.32373 2.76946 0
M  V30 362 H 34.1313 -3.91331 2.86336 0
M  V30 363 N 35.4744 -0.807222 -1.35358 0
M  V30 364 C 36.4214 -0.216037 -2.29787 0
M  V30 365 C 37.3914 0.650278 -1.52842 0
M  V30 366 O 38.5764 0.595227 -1.81278 0
M  V30 367 C 35.7164 0.628893 -3.39321 0
M  V30 368 C 34.8294 -0.257927 -4.31229 0
M  V30 369 C 33.9644 0.595069 -5.27856 0
M  V30 370 C 33.0034 -0.292111 -6.11403 0
M  V30 371 N 32.1404 0.520895 -7.00165 0
M  V30 372 H 36.9804 -1.02671 -2.79755 0
M  V30 373 H 34.5174 -0.517839 -1.37684 0
M  V30 374 H 36.4754 1.13393 -4.01494 0
M  V30 375 H 35.1054 1.40482 -2.90628 0
M  V30 376 H 34.1574 -0.881076 -3.70056 0
M  V30 377 H 35.4694 -0.940759 -4.89848 0
M  V30 378 H 34.6234 1.16522 -5.95405 0
M  V30 379 H 33.3624 1.31146 -4.69736 0
M  V30 380 H 32.3674 -0.874525 -5.428 0
M  V30 381 H 33.5924 -1.00638 -6.71602 0
M  V30 382 H 31.5384 1.22125 -6.44532 0
M  V30 383 H 31.4554 -0.103877 -7.55929 0
M  V30 384 H 32.7234 1.0743 -7.72062 0
M  V30 385 N 36.9525 1.47285 -0.560781 0
M  V30 386 C 37.8825 2.32857 0.173105 0
M  V30 387 C 38.8635 1.44009 0.905281 0
M  V30 388 O 40.0485 1.7286 0.885046 0
M  V30 389 C 37.1785 3.25861 1.20133 0
M  V30 390 C 36.1325 4.23978 0.585388 0
M  V30 391 C 35.4585 5.06332 1.7185 0
M  V30 392 C 36.7585 5.20242 -0.463178 0
M  V30 393 H 38.4525 2.94466 -0.541307 0
M  V30 394 H 35.9985 1.41601 -0.261764 0
M  V30 395 H 37.9515 3.84569 1.72293 0
M  V30 396 H 36.6755 2.62315 1.94573 0
M  V30 397 H 35.3345 3.66501 0.085054 0
M  V30 398 H 34.9825 4.39186 2.45203 0
M  V30 399 H 34.6825 5.72762 1.31213 0
M  V30 400 H 36.2065 5.67899 2.24329 0
M  V30 401 H 37.6205 5.73293 -0.027502 0
M  V30 402 H 36.0175 5.94896 -0.788627 0
M  V30 403 H 37.0875 4.65504 -1.35773 0
M  V30 404 N 38.4306 0.297415 1.54768 0
M  V30 405 C 39.3936 -0.567375 2.22066 0
M  V30 406 C 40.3936 -1.06409 1.20556 0
M  V30 407 O 41.5836 -0.960691 1.45315 0
M  V30 408 C 38.7156 -1.78517 2.90421 0
M  V30 409 H 39.9086 0.0205534 2.99893 0
M  V30 410 H 37.4616 0.0482163 1.56226 0
M  V30 411 H 38.1966 -2.41303 2.16664 0
M  V30 412 H 37.9816 -1.43669 3.64831 0
M  V30 413 H 39.4716 -2.39964 3.41771 0
M  V30 414 N 39.9087 -1.5758 0.0250728 0
M  V30 415 C 41.1567 -1.91255 -0.653151 0
M  V30 416 C 41.4777 -0.901691 -1.729 0
M  V30 417 O 40.7477 0.0573785 -1.95816 0
M  V30 418 H 39.3277 -0.705942 -0.244243 0
M  V30 419 H 41.9897 -1.94767 0.0719209 0
M  V30 420 H 41.0857 -2.91752 -1.10847 0
M  V30 421 N 41.3868 0.248026 -1.55636 0
M  V30 422 C 42.3198 1.3334 -1.85191 0
M  V30 423 C 43.2978 1.46429 -0.706906 0
M  V30 424 O 44.4818 1.62662 -0.952544 0
M  V30 425 C 41.6088 2.70703 -2.03562 0
M  V30 426 C 40.6548 2.7477 -3.26196 0
M  V30 427 S 41.4878 2.31493 -4.82878 0
M  V30 428 C 42.6438 3.70783 -5.04253 0
M  V30 429 H 42.8768 1.08072 -2.76962 0
M  V30 430 H 40.4098 0.448952 -1.47729 0
M  V30 431 H 42.3678 3.49798 -2.1483 0
M  V30 432 H 41.0288 2.9321 -1.12635 0
M  V30 433 H 40.2218 3.75648 -3.36013 0
M  V30 434 H 39.8238 2.03719 -3.13647 0
M  V30 435 H 42.1158 4.6627 -4.91527 0
M  V30 436 H 43.0588 3.65901 -6.06236 0
M  V30 437 H 43.4668 3.63244 -4.32105 0
M  V30 438 N 42.8649 1.48995 0.513639 0
M  V30 439 C 43.8279 1.64229 1.59879 0
M  V30 440 C 44.8279 0.514696 1.5234 0
M  V30 441 O 46.0179 0.78087 1.55718 0
M  V30 442 C 43.1499 1.62783 2.99524 0
M  V30 443 H 44.3429 2.61004 1.47705 0
M  V30 444 H 41.8959 1.37837 0.736936 0
M  V30 445 H 42.6309 0.675461 3.17188 0
M  V30 446 H 42.4159 2.4466 3.06404 0
M  V30 447 H 43.9059 1.76669 3.78388 0
M  V30 448 N 44.343 -0.763751 1.37857 0
M  V30 449 C 45.62 -1.51244 1.24035 0
M  V30 450 C 46 -2.10472 -0.162649 0
M  V30 451 O 45.348 -1.96206 -1.17112 0
M  V30 452 C 45.558 -2.58694 2.34261 0
M  V30 453 C 46.906 -3.25878 2.72193 0
M  V30 454 O 47.93 -2.68993 2.33497 0
M  V30 455 O 46.789 -4.2874 3.38887 0
M  V30 456 H 43.883 -0.670243 0.484462 0
M  V30 457 H 46.429 -0.800031 1.49658 0
M  V30 458 H 45.201 -2.13105 3.2818 0
M  V30 459 H 44.824 -3.37527 2.10146 0
M  V30 460 N 45.8211 -1.22559 -0.990812 0
M  V30 461 C 47.0691 -1.04933 -1.72724 0
M  V30 462 C 47.3901 0.416158 -1.90508 0
M  V30 463 O 46.6601 1.29918 -1.46622 0
M  V30 464 H 45.2401 -0.385296 -0.639965 0
M  V30 465 H 47.9021 -1.54105 -1.19322 0
M  V30 466 H 46.9981 -1.52886 -2.72089 0
M  V30 467 N 47.2992 1.18797 -1.03562 0
M  V30 468 C 48.2292 2.24472 -0.643019 0
M  V30 469 C 49.2102 1.66433 0.351283 0
M  V30 470 O 50.3952 1.92803 0.232505 0
M  V30 471 C 47.5252 3.473 4.24935e-05 0
M  V30 472 C 46.4792 4.18055 -0.917257 0
M  V30 473 C 45.8052 5.34519 -0.138941 0
M  V30 474 C 47.1052 4.72109 -2.23407 0
M  V30 475 H 48.7992 2.57566 -1.52643 0
M  V30 476 H 46.3452 1.23806 -0.735394 0
M  V30 477 H 48.2982 4.20426 0.286383 0
M  V30 478 H 47.0222 3.13424 0.918299 0
M  V30 479 H 45.6812 3.46821 -1.1879 0
M  V30 480 H 45.3292 4.96891 0.781562 0
M  V30 481 H 45.0292 5.82794 -0.750005 0
M  V30 482 H 46.5532 6.10438 0.1405 0
M  V30 483 H 47.9672 5.36955 -2.00879 0
M  V30 484 H 46.3642 5.30897 -2.79765 0
M  V30 485 H 47.4342 3.89807 -2.88407 0
M  V30 486 N 48.7773 0.814389 1.34928 0
M  V30 487 C 50.0243 0.398423 1.98542 0
M  V30 488 C 50.3523 -1.03638 1.64589 0
M  V30 489 O 49.6073 -1.73509 0.90516 0
M  V30 490 C 49.9063 0.537781 3.53331 0
M  V30 491 C 49.5723 1.93704 4.07172 0
M  V30 492 C 48.2343 2.31984 4.21589 0
M  V30 493 C 50.5863 2.85213 4.36237 0
M  V30 494 C 47.9143 3.61125 4.62391 0
M  V30 495 C 50.2663 4.13809 4.78482 0
M  V30 496 C 48.9303 4.52077 4.91104 0
M  V30 497 H 48.2003 0.145793 0.726516 0
M  V30 498 H 50.8473 1.03669 1.61012 0
M  V30 499 H 49.1523 -0.183906 3.91368 0
M  V30 500 H 50.8493 0.196588 4.00518 0
M  V30 501 H 47.4393 1.62966 3.96409 0
M  V30 502 H 51.6233 2.56885 4.24645 0
M  V30 503 H 46.8793 3.90612 4.70353 0
M  V30 504 H 51.0533 4.84811 4.99932 0
M  V30 505 H 48.6803 5.52196 5.22478 0
M  V30 506 N 50.2554 -1.46986 0.568584 0
M  V30 507 C 51.1854 -2.32946 -0.160753 0
M  V30 508 C 52.1664 -1.44487 -0.897631 0
M  V30 509 O 53.3514 -1.73327 -0.875867 0
M  V30 510 C 50.4814 -3.26494 -1.18403 0
M  V30 511 C 49.4354 -4.24282 -0.562895 0
M  V30 512 C 48.7614 -5.07236 -1.69163 0
M  V30 513 C 50.0614 -5.19989 0.490761 0
M  V30 514 H 51.7554 -2.94175 0.556916 0
M  V30 515 H 49.3014 -1.4146 0.26927 0
M  V30 516 H 51.2544 -3.85477 -1.70251 0
M  V30 517 H 49.9784 -2.63343 -1.93179 0
M  V30 518 H 48.6374 -3.66541 -0.0656164 0
M  V30 519 H 48.2854 -4.4048 -2.42871 0
M  V30 520 H 47.9854 -5.7345 -1.28174 0
M  V30 521 H 49.5094 -5.6908 -2.21314 0
M  V30 522 H 50.9234 -5.73271 0.0579047 0
M  V30 523 H 49.3204 -5.94469 0.820165 0
M  V30 524 H 50.3904 -4.64777 1.3824 0
M  V30 525 N 51.7335 -0.305618 -1.54608 0
M  V30 526 C 52.6635 0.561482 -2.26649 0
M  V30 527 C 53.6445 1.13415 -1.26772 0
M  V30 528 O 54.8295 1.16262 -1.55553 0
M  V30 529 C 51.9595 1.73122 -3.01075 0
M  V30 530 C 50.9135 1.2887 -4.08138 0
M  V30 531 C 50.2395 2.54396 -4.70305 0
M  V30 532 C 51.5395 0.416578 -5.20636 0
M  V30 533 H 53.2335 -0.0393902 -2.99374 0
M  V30 534 H 50.7795 -0.020385 -1.43986 0
M  V30 535 H 52.7325 2.34396 -3.50195 0
M  V30 536 H 51.4565 2.3584 -2.25936 0
M  V30 537 H 50.1155 0.698991 -3.59875 0
M  V30 538 H 49.7635 3.15439 -3.918 0
M  V30 539 H 49.4635 2.25486 -5.42614 0
M  V30 540 H 50.9875 3.16464 -5.2219 0
M  V30 541 H 52.4015 0.935116 -5.65622 0
M  V30 542 H 50.7985 0.221046 -5.99693 0
M  V30 543 H 51.8685 -0.557162 -4.81688 0
M  V30 544 N 53.2116 1.57565 -0.0334293 0
M  V30 545 C 54.6276 1.56297 0.322997 0
M  V30 546 C 54.8276 1.03945 1.7262 0
M  V30 547 O 53.8836 0.688109 2.42943 0
M  V30 548 C 55.1966 3.00232 0.167664 0
M  V30 549 C 56.7446 3.12078 0.240107 0
M  V30 550 C 57.2196 4.57859 0.113513 0
M  V30 551 N 58.7106 4.62887 0.170359 0
M  V30 552 C 59.4456 5.73319 0.0962517 0
M  V30 553 N 58.9416 6.92794 -0.0291881 0
M  V30 554 N 60.7346 5.61898 0.150551 0
M  V30 555 H 52.8856 1.89923 -0.950956 0
M  V30 556 H 55.1486 0.873824 -0.367608 0
M  V30 557 H 54.8546 3.42501 -0.799102 0
M  V30 558 H 54.7286 3.654 0.936083 0
M  V30 559 H 57.1156 2.69718 1.19733 0
M  V30 560 H 57.1966 2.49623 -0.558763 0
M  V30 561 H 56.8406 5.009 -0.840314 0
M  V30 562 H 56.7706 5.18299 0.931302 0
M  V30 563 H 59.2616 3.76954 0.26728 0
M  V30 564 H 59.5746 7.7276 -0.0789252 0
M  V30 565 H 57.9196 6.94971 -0.0640299 0
M  V30 566 H 61.1106 4.67448 0.246981 0
M  V30 567 H 61.2836 6.47938 0.0893365 0
M  V30 568 N 54.6897 -0.239769 1.55765 0
M  V30 569 C 55.6217 -1.32001 1.87372 0
M  V30 570 C 56.6347 -1.43944 0.760522 0
M  V30 571 O 57.8237 -1.45167 1.0387 0
M  V30 572 C 54.9237 -2.69779 2.05115 0
M  V30 573 C 54.0967 -2.80014 3.36022 0
M  V30 574 C 53.1557 -3.98684 3.4342 0
M  V30 575 O 52.1817 -3.87877 4.16582 0
M  V30 576 N 53.3837 -5.12176 2.73232 0
M  V30 577 H 56.1487 -1.0522 2.80622 0
M  V30 578 H 53.7097 -0.429857 1.56089 0
M  V30 579 H 55.7017 -3.47517 2.07399 0
M  V30 580 H 54.2717 -2.89237 1.18577 0
M  V30 581 H 53.4917 -1.88896 3.45994 0
M  V30 582 H 54.7797 -2.83808 4.22292 0
M  V30 583 H 54.1777 -5.2385 2.13536 0
M  V30 584 H 52.7347 -5.88022 2.81199 0
M  V30 585 N 56.1678 -1.49265 -0.50573 0
M  V30 586 C 57.4078 -1.60128 -1.27038 0
M  V30 587 C 57.7718 -0.279557 -1.89954 0
M  V30 588 O 58.9728 -0.263329 -2.67507 0
M  V30 589 C 57.2438 -2.72507 -2.31246 0
M  V30 590 S 58.8028 -3.0329 -3.17113 0
M  V30 591 H 55.6208 -0.564863 -0.4318 0
M  V30 592 H 58.2228 -1.86902 -0.573397 0
M  V30 593 H 56.9268 -3.67068 -1.83546 0
M  V30 594 H 56.4578 -2.4771 -3.05619 0
M  V30 595 H 58.4728 -2.44448 -4.31809 0
M  V30 596 N 57.6459 0.756429 -1.3826 0
M  V30 597 C 58.5759 1.88374 -1.37976 0
M  V30 598 C 59.5569 1.68311 -0.246082 0
M  V30 599 O 60.7419 1.88944 -0.44874 0
M  V30 600 C 57.8719 3.25864 -1.20125 0
M  V30 601 C 56.8259 3.60523 -2.30666 0
M  V30 602 C 56.1519 4.9672 -1.97923 0
M  V30 603 C 57.4519 3.65692 -3.72916 0
M  V30 604 H 59.1459 1.88869 -2.32312 0
M  V30 605 H 56.6919 0.907272 -1.11824 0
M  V30 606 H 58.6449 4.0438 -1.18552 0
M  V30 607 H 57.3689 3.25841 -0.222498 0
M  V30 608 H 56.0279 2.84324 -2.3142 0
M  V30 609 H 55.6759 4.93253 -0.985393 0
M  V30 610 H 55.3759 5.20878 -2.71955 0
M  V30 611 H 56.8999 5.77618 -1.97964 0
M  V30 612 H 58.3139 4.34328 -3.74208 0
M  V30 613 H 56.7109 4.01358 -4.4613 0
M  V30 614 H 57.7809 2.65987 -4.05436 0
M  V30 615 N 59.124 1.23083 0.984299 0
M  V30 616 C 60.54 0.992637 1.24975 0
M  V30 617 C 60.74 -0.308618 1.99123 0
M  V30 618 O 59.796 -1.02905 2.30579 0
M  V30 619 C 61.109 2.19698 2.05312 0
M  V30 620 C 62.657 2.24147 2.18465 0
M  V30 621 C 63.132 3.44157 3.02192 0
M  V30 622 N 64.623 3.44372 3.09777 0
M  V30 623 C 65.358 4.33886 3.74874 0
M  V30 624 N 64.854 5.3363 4.41827 0
M  V30 625 N 66.647 4.21639 3.71721 0
M  V30 626 H 58.798 2.06731 0.487453 0
M  V30 627 H 61.061 0.906339 0.277944 0
M  V30 628 H 60.767 3.1411 1.58201 0
M  V30 629 H 60.641 2.20465 3.06064 0
M  V30 630 H 63.028 1.30277 2.64786 0
M  V30 631 H 63.109 2.27415 1.17115 0
M  V30 632 H 62.753 4.38332 2.56568 0
M  V30 633 H 62.683 3.3813 4.03702 0
M  V30 634 H 65.174 2.72201 2.62135 0
M  V30 635 H 65.487 5.98196 4.89266 0
M  V30 636 H 63.832 5.37534 4.40548 0
M  V30 637 H 67.023 3.42962 3.18582 0
M  V30 638 H 67.196 4.91604 4.22173 0
M  V30 639 N 60.6021 -1.18246 1.0419 0
M  V30 640 C 61.8271 -1.92736 0.765996 0
M  V30 641 C 62.2521 -1.75728 -0.67091 0
M  V30 642 O 61.6101 -1.06825 -1.46486 0
M  V30 643 C 61.6581 -3.42148 1.13875 0
M  V30 644 O 60.7621 -4.11548 0.264954 0
M  V30 645 H 60.1031 -0.601238 0.281797 0
M  V30 646 H 62.6331 -1.49942 1.39207 0
M  V30 647 H 62.6431 -3.92858 1.1012 0
M  V30 648 H 61.3181 -3.53848 2.18551 0
M  V30 649 H 59.8951 -3.71137 0.362226 0
M  V30 650 N 62.0802 -0.821533 -1.34494 0
M  V30 651 C 63.0102 -0.257138 -2.3208 0
M  V30 652 C 63.9912 0.625645 -1.58176 0
M  V30 653 O 65.1762 0.552811 -1.86166 0
M  V30 654 C 62.3062 0.582958 -3.42372 0
M  V30 655 C 61.2602 -0.202571 -4.2752 0
M  V30 656 C 60.5862 0.760179 -5.29269 0
M  V30 657 C 61.8862 -1.40998 -5.02908 0
M  V30 658 H 63.5802 -1.07247 -2.79532 0
M  V30 659 H 61.1262 -0.517163 -1.34393 0
M  V30 660 H 63.0792 0.987972 -4.09655 0
M  V30 661 H 61.8032 1.43133 -2.93565 0
M  V30 662 H 60.4622 -0.588936 -3.61838 0
M  V30 663 H 60.1102 1.60447 -4.76724 0
M  V30 664 H 59.8102 0.238809 -5.87115 0
M  V30 665 H 61.3342 1.16308 -5.9942 0
M  V30 666 H 62.7482 -1.07905 -5.63054 0
M  V30 667 H 61.1452 -1.86689 -5.70322 0
M  V30 668 H 62.2152 -2.1889 -4.32684 0
M  V30 669 N 63.5583 1.46682 -0.576371 0
M  V30 670 C 64.8063 2.02013 -0.0594163 0
M  V30 671 C 65.1273 1.45101 1.30271 0
M  V30 672 O 64.3973 0.633317 1.8538 0
M  V30 673 H 62.9773 0.746759 -0.0189745 0
M  V30 674 H 65.6393 1.79862 -0.750717 0
M  V30 675 H 64.7353 3.12097 0.014345 0
M  V30 676 N 65.0364 0.313813 1.54444 0
M  V30 677 C 66.2844 -0.291099 1.99993 0
M  V30 678 C 66.6054 -1.53418 1.20366 0
M  V30 679 O 65.8754 -1.93544 0.302927 0
M  V30 680 H 64.4554 -0.110552 0.738774 0
M  V30 681 H 67.1174 0.428106 1.9014 0
M  V30 682 H 66.2134 -0.554268 3.07139 0
M  V30 683 N 66.5145 -1.57545 0.0417849 0
M  V30 684 C 67.7445 -1.96339 -0.642995 0
M  V30 685 C 68.1525 -0.917536 -1.65463 0
M  V30 686 O 67.4955 0.107747 -1.83384 0
M  V30 687 C 67.5575 -3.31333 -1.39494 0
M  V30 688 C 67.2215 -4.53796 -0.540204 0
M  V30 689 C 68.2185 -5.19553 0.189806 0
M  V30 690 C 65.9035 -5.0006 -0.473886 0
M  V30 691 C 67.8975 -6.29904 0.974674 0
M  V30 692 C 65.5845 -6.10289 0.314677 0
M  V30 693 C 66.5825 -6.75072 1.03765 0
M  V30 694 O 66.2705 -7.83183 1.81327 0
M  V30 695 H 66.0025 -0.651241 -0.181277 0
M  V30 696 H 68.5565 -2.05148 0.101665 0
M  V30 697 H 66.7865 -3.19052 -2.18502 0
M  V30 698 H 68.4755 -3.54942 -1.96904 0
M  V30 699 H 69.2415 -4.84774 0.147981 0
M  V30 700 H 65.1205 -4.49433 -1.0262 0
M  V30 701 H 68.6645 -6.80401 1.5395 0
M  V30 702 H 64.5615 -6.44506 0.358174 0
M  V30 703 H 65.3295 -7.99913 1.73438 0
M  V30 704 N 67.9926 0.231505 -1.5589 0
M  V30 705 C 69.2386 0.95877 -1.78705 0
M  V30 706 C 69.5716 1.8438 -0.609725 0
M  V30 707 O 68.8466 1.90521 0.391426 0
M  V30 708 C 69.1296 1.8062 -3.11526 0
M  V30 709 C 68.9826 0.948328 -4.39689 0
M  V30 710 C 70.3016 2.78585 -3.40703 0
M  V30 711 H 67.4206 0.347129 -0.650131 0
M  V30 712 H 70.0626 0.228259 -1.88624 0
M  V30 713 H 68.2126 2.42902 -3.03201 0
M  V30 714 H 69.8846 0.343016 -4.60023 0
M  V30 715 H 68.1276 0.253314 -4.3306 0
M  V30 716 H 68.7986 1.57543 -5.29041 0
M  V30 717 H 71.2746 2.26439 -3.49091 0
M  V30 718 H 70.1506 3.34988 -4.34826 0
M  V30 719 H 70.4116 3.55825 -2.62375 0
M  V30 720 N 69.4707 1.49531 0.497807 0
M  V30 721 C 70.4007 1.6935 1.60757 0
M  V30 722 C 71.3817 0.542218 1.61227 0
M  V30 723 O 72.5667 0.778417 1.77917 0
M  V30 724 C 69.6967 1.76298 2.99226 0
M  V30 725 C 68.6507 2.91248 3.13622 0
M  V30 726 C 67.9767 2.83312 4.53474 0
M  V30 727 C 69.2767 4.3214 2.93346 0
M  V30 728 H 70.9707 2.62263 1.44425 0
M  V30 729 H 68.5167 1.26208 0.693367 0
M  V30 730 H 70.4697 1.88749 3.76765 0
M  V30 731 H 69.1937 0.799871 3.16654 0
M  V30 732 H 67.8527 2.78404 2.38509 0
M  V30 733 H 67.5007 1.84902 4.67782 0
M  V30 734 H 67.2007 3.60465 4.64046 0
M  V30 735 H 68.7247 2.97775 5.33069 0
M  V30 736 H 70.1387 4.45649 3.60652 0
M  V30 737 H 68.5357 5.1054 3.15387 0
M  V30 738 H 69.6057 4.46363 1.89441 0
M  V30 739 N 70.9488 -0.749086 1.3866 0
M  V30 740 C 72.1738 -1.54344 1.38538 0
M  V30 741 C 72.5988 -1.88088 -0.0216655 0
M  V30 742 O 71.9568 -1.50899 -1.00494 0
M  V30 743 C 72.0048 -2.8164 2.25192 0
M  V30 744 O 71.1088 -3.7698 1.67212 0
M  V30 745 H 70.4498 -0.466654 0.472367 0
M  V30 746 H 72.9798 -0.925355 1.82478 0
M  V30 747 H 72.9898 -3.30519 2.3921 0
M  V30 748 H 71.6648 -2.56411 3.27454 0
M  V30 749 H 70.2418 -3.35699 1.6236 0
M  V30 750 N 72.4269 -1.23603 -0.977757 0
M  V30 751 C 73.3569 -1.04401 -2.0886 0
M  V30 752 C 74.3379 0.0399052 -1.70053 0
M  V30 753 O 75.5229 -0.125246 -1.93796 0
M  V30 754 C 72.6529 -0.637269 -3.41403 0
M  V30 755 C 71.6069 -1.66883 -3.94124 0
M  V30 756 C 70.9329 -1.11745 -5.22893 0
M  V30 757 C 72.2329 -3.06247 -4.23096 0
M  V30 758 H 73.9269 -1.97316 -2.25182 0
M  V30 759 H 71.4729 -0.950096 -1.08209 0
M  V30 760 H 73.4259 -0.48998 -4.18542 0
M  V30 761 H 72.1499 0.327557 -3.24953 0
M  V30 762 H 70.8089 -1.80416 -3.19133 0
M  V30 763 H 70.4569 -0.143527 -5.02795 0
M  V30 764 H 70.1569 -1.80672 -5.59134 0
M  V30 765 H 71.6809 -0.982067 -6.02651 0
M  V30 766 H 73.0949 -2.96001 -4.90975 0
M  V30 767 H 71.4919 -3.72436 -4.70544 0
M  V30 768 H 72.5619 -3.55041 -3.30263 0
M  V30 769 N 73.905 1.17692 -1.04816 0
M  V30 770 C 75.151 1.88137 -0.75711 0
M  V30 771 C 75.484 1.80604 0.713841 0
M  V30 772 O 74.759 1.21146 1.52164 0
M  V30 773 C 75.042 3.38318 -1.2334 0
M  V30 774 C 74.895 3.54622 -2.76701 0
M  V30 775 C 76.214 4.32214 -0.829415 0
M  V30 776 H 73.333 0.683163 -0.27651 0
M  V30 777 H 75.975 1.38424 -1.30149 0
M  V30 778 H 74.125 3.80787 -0.770286 0
M  V30 779 H 75.797 3.21194 -3.31107 0
M  V30 780 H 74.04 2.97026 -3.16161 0
M  V30 781 H 74.711 4.60028 -3.05088 0
M  V30 782 H 77.187 3.97565 -1.22805 0
M  V30 783 H 76.063 5.35838 -1.19033 0
M  V30 784 H 76.324 4.41294 0.266891 0
M  V30 785 N 75.3831 0.828654 1.34056 0
M  V30 786 C 76.3331 0.226828 2.26869 0
M  V30 787 C 77.3171 -0.612243 1.48796 0
M  V30 788 O 78.5091 -0.465884 1.70759 0
M  V30 789 C 75.6381 -0.605654 3.37915 0
M  V30 790 C 74.7241 0.244361 4.23395 0
M  V30 791 N 75.1151 1.31815 4.88322 0
M  V30 792 C 73.4131 0.0296616 4.4599 0
M  V30 793 C 74.1141 1.83895 5.51867 0
M  V30 794 N 73.0901 1.14196 5.3147 0
M  V30 795 H 76.8921 1.04811 2.74576 0
M  V30 796 H 74.4061 0.67205 1.47842 0
M  V30 797 H 76.4031 -1.05302 4.03382 0
M  V30 798 H 75.0631 -1.42504 2.91758 0
M  V30 799 H 76.0741 1.70099 4.8917 0
M  V30 800 H 72.7511 -0.757097 4.10578 0
M  V30 801 H 74.1411 2.7376 6.136 0
M  V30 802 N 76.8612 -1.46375 0.584142 0
M  V30 803 C 78.1382 -1.956 0.0033388 0
M  V30 804 C 78.5182 -1.52679 -1.45782 0
M  V30 805 O 77.8662 -0.77816 -2.14842 0
M  V30 806 C 78.0762 -3.48551 0.176891 0
M  V30 807 C 79.4242 -4.24576 0.0454609 0
M  V30 808 O 80.4482 -3.56043 0.105801 0
M  V30 809 O 79.3072 -5.46427 -0.0890376 0
M  V30 810 H 76.4012 -0.825547 -0.0490066 0
M  V30 811 H 78.9472 -1.56652 0.65256 0
M  V30 812 H 77.7192 -3.72683 1.1926 0
M  V30 813 H 77.3422 -3.94332 -0.508695 0
M  V30 814 N 78.3393 -0.321999 -1.54275 0
M  V30 815 C 79.5853 0.281461 -2.00837 0
M  V30 816 C 79.9183 1.51909 -1.20985 0
M  V30 817 O 79.1933 1.923 -0.291733 0
M  V30 818 C 79.4763 0.617162 -3.54772 0
M  V30 819 C 79.3293 -0.631064 -4.45351 0
M  V30 820 C 80.6483 1.43542 -4.16033 0
M  V30 821 H 77.7673 0.100826 -0.730071 0
M  V30 822 H 80.4093 -0.438268 -1.84876 0
M  V30 823 H 78.5593 1.23034 -3.68504 0
M  V30 824 H 80.2313 -1.26934 -4.43492 0
M  V30 825 H 78.4743 -1.26025 -4.15091 0
M  V30 826 H 79.1453 -0.351735 -5.50878 0
M  V30 827 H 81.6213 0.917134 -4.05867 0
M  V30 828 H 80.4973 1.63907 -5.23856 0
M  V30 829 H 80.7583 2.43108 -3.69257 0
M  V30 830 N 79.8174 1.5752 -0.0501392 0
M  V30 831 C 81.2334 1.56631 0.306402 0
M  V30 832 C 81.4334 1.0577 1.71508 0
M  V30 833 O 80.4894 0.713837 2.422 0
M  V30 834 C 81.8024 3.00393 0.135811 0
M  V30 835 C 83.3504 3.12315 0.206993 0
M  V30 836 C 83.8254 4.57954 0.064944 0
M  V30 837 N 85.3164 4.63041 0.121254 0
M  V30 838 C 86.0514 5.73389 0.0354381 0
M  V30 839 N 85.5474 6.92724 -0.102666 0
M  V30 840 N 87.3404 5.62026 0.090946 0
M  V30 841 H 79.4914 1.88903 -0.971046 0
M  V30 842 H 81.7544 0.869876 -0.376855 0
M  V30 843 H 81.4604 3.41635 -0.835384 0
M  V30 844 H 81.3344 3.66373 0.897275 0
M  V30 845 H 83.7214 2.70973 1.16866 0
M  V30 846 H 83.8024 2.49016 -0.585208 0
M  V30 847 H 83.4464 4.99981 -0.893394 0
M  V30 848 H 83.3764 5.19258 0.876277 0
M  V30 849 H 85.8674 3.77216 0.227284 0
M  V30 850 H 86.1804 7.72633 -0.160882 0
M  V30 851 H 84.5254 6.94864 -0.137737 0
M  V30 852 H 87.7164 4.67684 0.197388 0
M  V30 853 H 87.8894 6.47997 0.0206089 0
M  V30 854 N 81.2955 -0.223234 1.56011 0
M  V30 855 C 82.5425 -0.947875 1.78946 0
M  V30 856 C 82.8705 -1.844 0.618608 0
M  V30 857 O 82.1255 -1.91629 -0.397093 0
M  V30 858 C 82.4245 -1.81948 3.0762 0
M  V30 859 C 82.0905 -1.07672 4.37856 0
M  V30 860 C 80.7525 -0.871544 4.73242 0
M  V30 861 C 83.1045 -0.552081 5.18268 0
M  V30 862 C 80.4325 -0.129791 5.86556 0
M  V30 863 C 82.7845 0.17632 6.32354 0
M  V30 864 C 81.4485 0.39277 6.66343 0
M  V30 865 H 80.7185 -0.346852 0.654809 0
M  V30 866 H 83.3655 -0.216171 1.90276 0
M  V30 867 H 81.6705 -2.61899 2.91404 0
M  V30 868 H 83.3675 -2.38227 3.22566 0
M  V30 869 H 79.9575 -1.24662 4.1007 0
M  V30 870 H 84.1415 -0.698076 4.91366 0
M  V30 871 H 79.3975 0.048153 6.11381 0
M  V30 872 H 83.5715 0.590367 6.93893 0
M  V30 873 H 81.1985 0.969466 7.53993 0
M  V30 874 N 82.7736 -1.49793 -0.48987 0
M  V30 875 C 83.7236 -1.63673 -1.5873 0
M  V30 876 C 84.7076 -0.491956 -1.53195 0
M  V30 877 O 85.8996 -0.745461 -1.60536 0
M  V30 878 C 83.0286 -1.71689 -2.97284 0
M  V30 879 C 82.1146 -2.91781 -3.07774 0
M  V30 880 N 82.5056 -4.15714 -2.88124 0
M  V30 881 C 80.8036 -2.89949 -3.38889 0
M  V30 882 C 81.5046 -4.965 -3.03088 0
M  V30 883 N 80.4806 -4.30083 -3.3246 0
M  V30 884 H 84.2826 -2.57204 -1.42208 0
M  V30 885 H 81.7966 -1.46719 -0.69623 0
M  V30 886 H 83.7936 -1.79732 -3.76168 0
M  V30 887 H 82.4536 -0.793024 -3.14867 0
M  V30 888 H 83.4646 -4.45515 -2.64077 0
M  V30 889 H 80.1416 -2.06987 -3.62578 0
M  V30 890 H 81.5316 -6.04991 -2.92294 0
M  V30 891 N 84.2517 0.741722 -1.39055 0
M  V30 892 C 85.2017 1.84661 -1.33732 0
M  V30 893 C 86.1857 1.59397 -0.219401 0
M  V30 894 O 87.3777 1.71015 -0.456375 0
M  V30 895 C 84.5067 3.22512 -1.17647 0
M  V30 896 C 83.5927 3.53628 -2.34112 0
M  V30 897 N 83.9837 3.55723 -3.59576 0
M  V30 898 C 82.2817 3.83956 -2.26923 0
M  V30 899 C 82.9827 3.84443 -4.36553 0
M  V30 900 N 81.9587 4.01877 -3.66055 0
M  V30 901 H 85.7607 1.84576 -2.28711 0
M  V30 902 H 83.2747 0.939647 -1.32455 0
M  V30 903 H 85.2717 4.01597 -1.11917 0
M  V30 904 H 83.9317 3.2384 -0.236124 0
M  V30 905 H 84.9427 3.37196 -3.93089 0
M  V30 906 H 81.6197 3.92929 -1.41113 0
M  V30 907 H 83.0097 3.92588 -5.45274 0
M  V30 908 N 85.7298 1.2412 0.971189 0
M  V30 909 C 86.9768 1.07881 1.71371 0
M  V30 910 C 87.3048 -0.382901 1.90694 0
M  V30 911 O 86.5598 -1.29945 1.46331 0
M  V30 912 C 86.8588 1.75983 3.11071 0
M  V30 913 C 86.5248 3.25909 3.11599 0
M  V30 914 C 85.1868 3.66813 3.11451 0
M  V30 915 C 87.5388 4.21771 3.062 0
M  V30 916 C 84.8668 5.02021 3.03631 0
M  V30 917 C 87.2188 5.56982 2.99923 0
M  V30 918 C 85.8828 5.97237 2.98102 0
M  V30 919 H 85.1528 0.394764 0.62709 0
M  V30 920 H 87.7998 1.54176 1.13587 0
M  V30 921 H 86.1048 1.22072 3.72298 0
M  V30 922 H 87.8018 1.60887 3.6731 0
M  V30 923 H 84.3918 2.93353 3.12477 0
M  V30 924 H 88.5758 3.91172 3.05447 0
M  V30 925 H 83.8318 5.32411 3.0058 0
M  V30 926 H 88.0058 6.30969 2.94704 0
M  V30 927 H 85.6328 7.01967 2.91798 0
M  V30 928 N 87.2079 -1.17134 1.05439 0
M  V30 929 C 88.6189 -1.69084 0.791676 0
M  V30 930 C 88.9699 -1.83822 -0.685839 0
M  V30 931 O 88.0949 -1.52757 -1.53278 0
M  V30 932 C 88.6899 -3.07119 1.4305 0
M  V30 933 C 87.2489 -3.56225 1.21577 0
M  V30 934 C 86.3959 -2.32421 1.51247 0
M  V30 935 H 89.3469 -1.01617 1.219 0
M  V30 936 H 89.3679 -3.71087 0.84112 0
M  V30 937 H 88.8799 -2.9636 2.50584 0
M  V30 938 H 86.9809 -3.72257 0.159787 0
M  V30 939 H 87.0939 -4.38837 1.92246 0
M  V30 940 H 85.4579 -2.3701 0.932653 0
M  V30 941 H 86.2409 -2.24268 2.5992 0
M  V30 942 N 88.686 -0.835752 -1.33615 0
M  V30 943 C 89.935 -0.426289 -1.97144 0
M  V30 944 C 90.248 1.01912 -1.66953 0
M  V30 945 O 91.454 1.53311 -2.24072 0
M  V30 946 C 89.91 -0.711321 -3.52801 0
M  V30 947 C 89.518 -2.1712 -3.91871 0
M  V30 948 C 91.262 -0.368654 -4.22896 0
M  V30 949 C 89.169 -2.40044 -5.40493 0
M  V30 950 H 88.099 -0.15567 -0.737755 0
M  V30 951 H 90.75 -1.0239 -1.52278 0
M  V30 952 H 89.132 -0.0433766 -3.95976 0
M  V30 953 H 90.306 -2.87936 -3.59763 0
M  V30 954 H 88.621 -2.47654 -3.34749 0
M  V30 955 H 91.218 -0.517601 -5.32189 0
M  V30 956 H 91.561 0.688078 -4.10574 0
M  V30 957 H 92.094 -0.991702 -3.8524 0
M  V30 958 H 88.833 -3.44271 -5.57815 0
M  V30 959 H 88.353 -1.73785 -5.74072 0
M  V30 960 H 90.032 -2.23042 -6.0734 0
M  V30 961 N 90.1641 1.46063 -0.591896 0
M  V30 962 C 91.0741 2.34192 0.13831 0
M  V30 963 C 92.0901 1.50305 0.876608 0
M  V30 964 O 93.2661 1.8315 0.837728 0
M  V30 965 C 90.3311 3.27656 1.13326 0
M  V30 966 C 89.3921 4.27445 0.39863 0
M  V30 967 C 88.6251 5.16443 1.34618 0
M  V30 968 O 88.8481 5.08553 2.58321 0
M  V30 969 O 87.7821 5.95843 0.851768 0
M  V30 970 H 91.6081 2.98002 -0.58552 0
M  V30 971 H 89.1931 1.45188 -0.352239 0
M  V30 972 H 91.0751 3.85291 1.70671 0
M  V30 973 H 89.7501 2.6643 1.83839 0
M  V30 974 H 88.6571 3.73471 -0.216895 0
M  V30 975 H 89.9901 4.91482 -0.265709 0
M  V30 976 N 91.6422 0.330177 1.54103 0
M  V30 977 C 93.0582 -0.0222371 1.59585 0
M  V30 978 C 93.2582 -1.49902 1.34654 0
M  V30 979 O 92.3142 -2.25592 1.13421 0
M  V30 980 C 93.6272 0.401932 2.98002 0
M  V30 981 C 95.1752 0.353145 3.11001 0
M  V30 982 C 95.6502 0.752576 4.51775 0
M  V30 983 N 97.1412 0.706239 4.57784 0
M  V30 984 C 97.8762 0.987417 5.64834 0
M  V30 985 N 97.3722 1.33607 6.79795 0
M  V30 986 N 99.1652 0.91254 5.54643 0
M  V30 987 H 91.3162 1.29228 1.68564 0
M  V30 988 H 93.5792 0.525906 0.78875 0
M  V30 989 H 93.2852 1.4311 3.21267 0
M  V30 990 H 93.1592 -0.229699 3.765 0
M  V30 991 H 95.5462 -0.666822 2.87467 0
M  V30 992 H 95.6272 1.0198 2.34593 0
M  V30 993 H 95.2712 1.77049 4.76042 0
M  V30 994 H 95.2012 0.0635409 5.26562 0
M  V30 995 H 97.6922 0.44889 3.75224 0
M  V30 996 H 98.0052 1.53582 7.57385 0
M  V30 997 H 96.3502 1.37439 6.81275 0
M  V30 998 H 99.5412 0.639601 4.6371 0
M  V30 999 H 99.7142 1.13503 6.37982 0
M  V30 1000 N 93.1203 -1.57491 0.0584922 0
M  V30 1001 C 94.0523 -2.08916 -0.942694 0
M  V30 1002 C 95.0653 -1.0185 -1.27006 0
M  V30 1003 O 96.2543 -1.29398 -1.22957 0
M  V30 1004 C 93.3543 -2.52341 -2.26224 0
M  V30 1005 C 92.5273 -3.82827 -2.1157 0
M  V30 1006 C 91.5863 -4.12487 -3.26712 0
M  V30 1007 O 90.6123 -4.82295 -3.02292 0
M  V30 1008 N 91.8143 -3.64978 -4.5141 0
M  V30 1009 H 94.5793 -2.95437 -0.503722 0
M  V30 1010 H 92.1403 -1.61397 -0.12757 0
M  V30 1011 H 94.1323 -2.69254 -3.02133 0
M  V30 1012 H 92.7023 -1.7103 -2.61663 0
M  V30 1013 H 91.9223 -3.75425 -1.20208 0
M  V30 1014 H 93.2103 -4.68263 -1.99015 0
M  V30 1015 H 92.6083 -3.08558 -4.7414 0
M  V30 1016 H 91.1653 -3.87115 -5.2439 0
M  V30 1017 N 94.5984 0.214957 -1.56127 0
M  V30 1018 C 95.5284 1.2695 -1.95974 0
M  V30 1019 C 96.5094 1.48539 -0.828868 0
M  V30 1020 O 97.6944 1.60611 -1.09168 0
M  V30 1021 C 94.8244 2.61794 -2.28214 0
M  V30 1022 C 93.7784 2.54851 -3.43853 0
M  V30 1023 C 93.1044 3.93785 -3.61715 0
M  V30 1024 C 94.4044 2.09065 -4.78632 0
M  V30 1025 H 96.0984 0.93846 -2.84312 0
M  V30 1026 H 93.6444 0.449996 -1.36788 0
M  V30 1027 H 95.5974 3.35731 -2.54682 0
M  V30 1028 H 94.3214 2.96599 -1.36736 0
M  V30 1029 H 92.9804 1.8337 -3.17444 0
M  V30 1030 H 92.6284 4.25908 -2.67602 0
M  V30 1031 H 92.3284 3.90019 -4.39498 0
M  V30 1032 H 93.8524 4.69374 -3.90539 0
M  V30 1033 H 95.2664 2.7275 -5.04262 0
M  V30 1034 H 93.6634 2.16346 -5.59745 0
M  V30 1035 H 94.7334 1.04315 -4.73547 0
M  V30 1036 N 96.0765 1.50051 0.48192 0
M  V30 1037 C 97.0245 1.68635 1.60203 0
M  V30 1038 C 98.0185 0.552184 1.60148 0
M  V30 1039 O 99.2245 0.732377 1.64427 0
M  V30 1040 H 95.5995 0.532081 0.531407 0
M  V30 1041 H 97.5705 2.62616 1.41688 0
M  V30 1042 C 96.3195 1.78775 2.9822 0
M  V30 1043 H 95.6425 2.6543 2.98976 0
M  V30 1044 H 97.0825 1.95806 3.7608 0
M  V30 1045 C 95.5415 0.536849 3.32595 0
M  V30 1046 O 96.0715 -0.328897 4.00351 0
M  V30 1047 N 94.2775 0.394091 2.87915 0
M  V30 1048 H 93.8245 1.09962 2.32951 0
M  V30 1049 H 93.7825 -0.441737 3.11281 0
M  V30 1050 N 97.5546 -0.734337 1.39446 0
M  V30 1051 C 98.8026 -1.49096 1.36436 0
M  V30 1052 C 99.1236 -1.94961 -0.0388255 0
M  V30 1053 O 98.3936 -1.69033 -0.990191 0
M  V30 1054 H 96.9736 -0.5531 0.502085 0
M  V30 1055 H 99.6356 -0.871725 1.74319 0
M  V30 1056 H 98.7316 -2.37276 2.02747 0
M  V30 1057 N 99.0327 -1.24633 -0.964593 0
M  V30 1058 C 100.261 -1.11501 -1.74285 0
M  V30 1059 C 100.676 0.332165 -1.85855 0
M  V30 1060 O 100.033 1.22903 -1.34911 0
M  V30 1061 C 100.084 -1.75258 -3.16175 0
M  V30 1062 O 99.8047 -3.14318 -3.05182 0
M  V30 1063 C 101.306 -1.67776 -4.10324 0
M  V30 1064 H 98.5257 -0.389407 -0.546446 0
M  V30 1065 H 101.07 -1.64801 -1.21083 0
M  V30 1066 H 99.2247 -1.25954 -3.66353 0
M  V30 1067 H 99.6387 -3.4551 -3.94618 0
M  V30 1068 H 101.113 -2.17064 -5.0753 0
M  V30 1069 H 101.59 -0.639584 -4.34518 0
M  V30 1070 H 102.196 -2.16522 -3.66058 0
M  V30 1071 N 100.511 1.16574 -1.06058 0
M  V30 1072 C 101.741 1.90675 -0.795397 0
M  V30 1073 C 102.149 1.77547 0.653735 0
M  V30 1074 O 101.492 1.11611 1.45907 0
M  V30 1075 C 101.554 3.42011 -1.10764 0
M  V30 1076 C 101.218 3.78924 -2.55471 0
M  V30 1077 C 102.215 3.81042 -3.53699 0
M  V30 1078 C 99.8998 4.09626 -2.90708 0
M  V30 1079 C 101.894 4.13346 -4.85205 0
M  V30 1080 C 99.5808 4.41597 -4.22416 0
M  V30 1081 C 100.579 4.43436 -5.19474 0
M  V30 1082 O 100.267 4.74649 -6.48817 0
M  V30 1083 H 99.9988 0.611554 -0.288058 0
M  V30 1084 H 102.553 1.48711 -1.41683 0
M  V30 1085 H 100.783 3.84312 -0.429128 0
M  V30 1086 H 102.472 3.97384 -0.827077 0
M  V30 1087 H 103.238 3.57437 -3.27817 0
M  V30 1088 H 99.1168 4.07361 -2.15819 0
M  V30 1089 H 102.661 4.14696 -5.60957 0
M  V30 1090 H 98.5578 4.64667 -4.48056 0
M  V30 1091 H 99.3258 4.9247 -6.5377 0
M  V30 1092 N 101.989 0.842826 1.3317 0
M  V30 1093 C 102.952 0.284065 2.27433 0
M  V30 1094 C 103.952 -0.54948 1.5112 0
M  V30 1095 O 105.142 -0.362699 1.70382 0
M  V30 1096 C 102.274 -0.599384 3.35589 0
M  V30 1097 H 103.467 1.11589 2.78366 0
M  V30 1098 H 101.02 0.616221 1.4364 0
M  V30 1099 H 101.755 -1.45349 2.89904 0
M  V30 1100 H 101.54 -0.00291266 3.921 0
M  V30 1101 H 103.03 -0.983488 4.05854 0
M  V30 1102 N 103.467 -1.45747 0.599634 0
M  V30 1103 C 104.716 -2.01502 0.0893511 0
M  V30 1104 C 105.029 -1.4748 -1.28488 0
M  V30 1105 O 106.235 -1.95161 -1.88745 0
M  V30 1106 C 104.691 -3.59735 0.109082 0
M  V30 1107 C 104.299 -4.22754 1.48267 0
M  V30 1108 C 106.043 -4.23085 -0.346374 0
M  V30 1109 C 103.95 -5.73115 1.45921 0
M  V30 1110 H 102.88 -0.753417 0.0296347 0
M  V30 1111 H 105.531 -1.67303 0.753788 0
M  V30 1112 H 103.913 -3.91087 -0.621854 0
M  V30 1113 H 105.087 -4.02987 2.23468 0
M  V30 1114 H 103.402 -3.71567 1.87955 0
M  V30 1115 H 105.999 -5.33327 -0.38298 0
M  V30 1116 H 106.342 -3.93201 -1.36743 0
M  V30 1117 H 106.875 -3.9642 0.331038 0
M  V30 1118 H 103.614 -6.07685 2.45762 0
M  V30 1119 H 103.134 -5.95097 0.749665 0
M  V30 1120 H 104.813 -6.3616 1.17941 0
M  V30 1121 N 104.945 -0.338344 -1.53925 0
M  V30 1122 C 105.908 0.508299 -2.23493 0
M  V30 1123 C 106.908 1.03175 -1.23335 0
M  V30 1124 O 108.098 0.921826 -1.47811 0
M  V30 1125 C 105.23 1.70754 -2.95052 0
M  V30 1126 H 106.423 -0.100058 -2.99733 0
M  V30 1127 H 103.976 -0.0896198 -1.56043 0
M  V30 1128 H 104.711 2.35474 -2.22986 0
M  V30 1129 H 104.496 1.33946 -3.68512 0
M  V30 1130 H 105.986 2.30818 -3.48013 0
M  V30 1131 N 106.423 1.57458 -0.0668435 0
M  V30 1132 C 107.671 1.92919 0.602214 0
M  V30 1133 C 107.992 0.947215 1.70449 0
M  V30 1134 O 107.262 -0.00544117 1.95899 0
M  V30 1135 H 105.842 0.71217 0.22544 0
M  V30 1136 H 108.504 1.94508 -0.123535 0
M  V30 1137 H 107.6 2.94589 1.03073 0
M  V30 1138 N 107.901 -0.206675 1.56239 0
M  V30 1139 C 109.149 -0.927007 1.79586 0
M  V30 1140 C 109.47 -1.8427 0.637929 0
M  V30 1141 O 108.74 -1.92849 -0.344398 0
M  V30 1142 H 107.32 -0.345292 0.662407 0
M  V30 1143 H 109.982 -0.21496 1.93711 0
M  V30 1144 H 109.078 -1.52501 2.72305 0
M  V30 1145 N 109.379 -1.50304 -0.473955 0
M  V30 1146 C 110.326 -1.68959 -1.57231 0
M  V30 1147 C 111.296 -0.530899 -1.57387 0
M  V30 1148 O 112.481 -0.761133 -1.74961 0
M  V30 1149 C 109.621 -1.7871 -2.95223 0
M  V30 1150 C 108.734 -3.06061 -3.04878 0
M  V30 1151 C 107.869 -3.06626 -4.33767 0
M  V30 1152 C 106.908 -4.28443 -4.37154 0
M  V30 1153 N 106.045 -4.26763 -5.5751 0
M  V30 1154 H 110.885 -2.6273 -1.40631 0
M  V30 1155 H 108.422 -1.30241 -0.683789 0
M  V30 1156 H 110.38 -1.82344 -3.75242 0
M  V30 1157 H 109.01 -0.883806 -3.10465 0
M  V30 1158 H 108.062 -3.11911 -2.17751 0
M  V30 1159 H 109.374 -3.96039 -3.0324 0
M  V30 1160 H 108.528 -3.08973 -5.22131 0
M  V30 1161 H 107.267 -2.14473 -4.3801 0
M  V30 1162 H 106.272 -4.2631 -3.47188 0
M  V30 1163 H 107.497 -5.2182 -4.34605 0
M  V30 1164 H 105.443 -3.37462 -5.62544 0
M  V30 1165 H 105.36 -5.10507 -5.57601 0
M  V30 1166 H 106.628 -4.33253 -6.48006 0
M  V30 1167 N 110.857 0.726932 -1.39834 0
M  V30 1168 C 111.82 1.82269 -1.38962 0
M  V30 1169 C 112.82 1.58248 -0.285334 0
M  V30 1170 O 114.01 1.65499 -0.54366 0
M  V30 1171 C 111.142 3.20186 -1.17019 0
M  V30 1172 H 112.335 1.84443 -2.36476 0
M  V30 1173 H 109.888 0.931416 -1.25516 0
M  V30 1174 H 110.623 3.23669 -0.202204 0
M  V30 1175 H 110.408 3.3902 -1.96998 0
M  V30 1176 H 111.898 4.00235 -1.1917 0
M  V30 1177 N 112.336 1.25143 0.95797 0
M  V30 1178 C 113.286 1.01924 2.0395 0
M  V30 1179 C 114.27 -0.0427175 1.60843 0
M  V30 1180 O 115.462 0.17221 1.7616 0
M  V30 1181 C 112.591 0.636373 3.3735 0
M  V30 1182 C 111.677 1.73492 3.8699 0
M  V30 1183 N 112.068 2.96945 4.0946 0
M  V30 1184 C 110.366 1.61467 4.15746 0
M  V30 1185 C 111.067 3.68228 4.50315 0
M  V30 1186 N 110.043 2.95833 4.56053 0
M  V30 1187 H 113.845 1.95653 2.19311 0
M  V30 1188 H 111.359 1.15413 1.14253 0
M  V30 1189 H 113.356 0.451233 4.14451 0
M  V30 1190 H 112.016 -0.293621 3.2337 0
M  V30 1191 H 113.027 3.33025 3.96629 0
M  V30 1192 H 109.704 0.753394 4.10646 0
M  V30 1193 H 111.094 4.74178 4.76031 0
M  V30 1194 N 113.814 -1.1601 1.06675 0
M  V30 1195 C 115.054 -1.88304 0.795037 0
M  V30 1196 C 115.418 -1.80062 -0.666466 0
M  V30 1197 O 116.619 -2.47319 -1.05293 0
M  V30 1198 C 114.89 -3.33664 1.28076 0
M  V30 1199 S 116.449 -4.23768 1.13868 0
M  V30 1200 H 113.267 -0.649928 0.288296 0
M  V30 1201 H 115.869 -1.4001 1.36445 0
M  V30 1202 H 114.573 -3.37203 2.33927 0
M  V30 1203 H 114.104 -3.87009 0.706253 0
M  V30 1204 H 116.119 -4.96148 0.0719668 0
M  V30 1205 N 115.292 -0.849877 -1.32721 0
M  V30 1206 C 116.54 -0.450032 -1.97026 0
M  V30 1207 C 116.861 0.996604 -1.67609 0
M  V30 1208 O 116.131 1.6958 -0.980786 0
M  V30 1209 H 114.711 -0.163426 -0.728904 0
M  V30 1210 H 117.373 -1.08526 -1.6189 0
M  V30 1211 H 116.469 -0.591146 -3.0645 0
M  V30 1212 N 116.77 1.45427 -0.607355 0
M  V30 1213 C 118.181 1.85756 -0.187535 0
M  V30 1214 C 118.532 1.5077 1.25551 0
M  V30 1215 O 117.657 0.93427 1.95193 0
M  V30 1216 C 118.252 3.37154 -0.333572 0
M  V30 1217 C 116.811 3.76387 0.0315542 0
M  V30 1218 C 115.958 2.69377 -0.658117 0
M  V30 1219 H 118.909 1.36231 -0.81405 0
M  V30 1220 H 118.93 3.78014 0.43428 0
M  V30 1221 H 118.442 3.62586 -1.38393 0
M  V30 1222 H 116.543 3.56571 1.0811 0
M  V30 1223 H 116.656 4.77731 -0.361935 0
M  V30 1224 H 115.02 2.5452 -0.0957873 0
M  V30 1225 H 115.803 2.97646 -1.7106 0
M  V30 1226 N 118.248 0.346503 1.53744 0
M  V30 1227 C 119.211 -0.496439 2.23759 0
M  V30 1228 C 120.211 -1.0252 1.2388 0
M  V30 1229 O 121.401 -0.913974 1.48297 0
M  V30 1230 C 118.533 -1.69187 2.95954 0
M  V30 1231 H 119.726 0.115952 2.99676 0
M  V30 1232 H 117.279 0.0978939 1.55993 0
M  V30 1233 H 118.014 -2.34288 2.24231 0
M  V30 1234 H 117.799 -1.31989 3.69217 0
M  V30 1235 H 119.289 -2.28969 3.49232 0
M  V30 1236 N 119.726 -1.57421 0.075193 0
M  V30 1237 C 120.636 -2.1642 -0.905511 0
M  V30 1238 C 121.652 -1.12828 -1.32461 0
M  V30 1239 O 122.828 -1.45109 -1.39661 0
M  V30 1240 C 119.893 -2.71693 -2.15369 0
M  V30 1241 C 118.954 -3.90171 -1.79068 0
M  V30 1242 C 118.187 -4.42798 -2.97936 0
M  V30 1243 O 118.41 -3.94416 -4.12058 0
M  V30 1244 O 117.344 -5.34085 -2.77555 0
M  V30 1245 H 121.17 -3.00588 -0.433626 0
M  V30 1246 H 118.755 -1.48664 -0.148067 0
M  V30 1247 H 120.637 -3.07104 -2.88557 0
M  V30 1248 H 119.312 -1.90582 -2.61649 0
M  V30 1249 H 118.219 -3.59606 -1.03122 0
M  V30 1250 H 119.552 -4.72584 -1.37569 0
M  V30 1251 N 121.204 0.198386 -1.56346 0
M  V30 1252 C 122.134 1.24865 -1.9731 0
M  V30 1253 C 123.115 1.47651 -0.844576 0
M  V30 1254 O 124.3 1.59444 -1.10866 0
M  V30 1255 C 121.43 2.59358 -2.30977 0
M  V30 1256 C 120.384 2.5119 -3.46537 0
M  V30 1257 C 119.71 3.89926 -3.65871 0
M  V30 1258 C 121.01 2.03977 -4.80823 0
M  V30 1259 H 122.704 0.908252 -2.85291 0
M  V30 1260 H 120.25 0.435462 -1.37258 0
M  V30 1261 H 122.203 3.33011 -2.58228 0
M  V30 1262 H 120.927 2.95132 -1.39874 0
M  V30 1263 H 119.586 1.79993 -3.19371 0
M  V30 1264 H 119.234 4.23046 -2.72105 0
M  V30 1265 H 118.934 3.85336 -4.4361 0
M  V30 1266 H 120.458 4.65205 -3.95495 0
M  V30 1267 H 121.872 2.67386 -5.07127 0
M  V30 1268 H 120.269 2.10397 -5.62008 0
M  V30 1269 H 121.339 0.992861 -4.74626 0
M  V30 1270 N 122.682 1.50554 0.465978 0
M  V30 1271 C 123.922 1.63439 1.22747 0
M  V30 1272 C 124.286 0.329822 1.89146 0
M  V30 1273 O 125.487 0.334161 2.66715 0
M  V30 1274 C 123.758 2.78542 2.2394 0
M  V30 1275 S 125.317 3.11591 3.0896 0
M  V30 1276 H 122.135 0.576113 0.416672 0
M  V30 1277 H 124.737 1.88357 0.523641 0
M  V30 1278 H 123.441 3.71805 1.7375 0
M  V30 1279 H 122.972 2.55726 2.98944 0
M  V30 1280 H 124.987 2.55811 4.25176 0
M  V30 1281 N 124.16 -0.719506 1.40217 0
M  V30 1282 C 125.07 -1.86378 1.42479 0
M  V30 1283 C 126.086 -1.71073 0.317834 0
M  V30 1284 O 127.262 -1.93406 0.561794 0
M  V30 1285 C 124.327 -3.22136 1.28178 0
M  V30 1286 C 123.388 -3.49723 2.48982 0
M  V30 1287 C 122.621 -4.79004 2.35353 0
M  V30 1288 O 122.844 -5.53821 1.36524 0
M  V30 1289 O 121.778 -5.06839 3.2465 0
M  V30 1290 H 125.604 -1.87425 2.38968 0
M  V30 1291 H 123.189 -0.869405 1.21498 0
M  V30 1292 H 125.071 -4.03234 1.22395 0
M  V30 1293 H 123.746 -3.21825 0.347934 0
M  V30 1294 H 122.653 -2.6865 2.60342 0
M  V30 1295 H 123.986 -3.54828 3.41113 0
M  V30 1296 N 125.638 -1.25649 -0.95132 0
M  V30 1297 C 126.885 -1.10594 -1.69633 0
M  V30 1298 C 127.213 0.352515 -1.91279 0
M  V30 1299 O 126.468 1.27601 -1.4838 0
M  V30 1300 C 126.767 -1.80909 -3.08231 0
M  V30 1301 C 126.433 -3.30825 -3.06375 0
M  V30 1302 C 125.095 -3.71722 -3.05576 0
M  V30 1303 C 127.447 -4.26589 -2.99452 0
M  V30 1304 C 124.775 -5.06788 -2.95606 0
M  V30 1305 C 127.127 -5.61683 -2.91024 0
M  V30 1306 C 125.791 -6.01904 -2.88562 0
M  V30 1307 H 125.061 -0.404691 -0.620731 0
M  V30 1308 H 127.708 -1.55964 -1.11119 0
M  V30 1309 H 126.013 -1.27979 -3.70309 0
M  V30 1310 H 127.71 -1.6671 -3.64704 0
M  V30 1311 H 124.3 -2.98287 -3.07771 0
M  V30 1312 H 128.484 -3.95982 -2.99185 0
M  V30 1313 H 123.74 -5.37126 -2.92071 0
M  V30 1314 H 127.914 -6.35578 -2.84629 0
M  V30 1315 H 125.541 -7.06521 -2.80593 0
M  V30 1316 N 127.117 1.15442 -1.07289 0
M  V30 1317 C 128.347 1.89821 -0.815576 0
M  V30 1318 C 128.755 1.7823 0.634867 0
M  V30 1319 O 128.098 1.13152 1.44715 0
M  V30 1320 C 128.16 3.40817 -1.14385 0
M  V30 1321 C 127.824 3.76193 -2.59476 0
M  V30 1322 C 128.821 3.77269 -3.57721 0
M  V30 1323 C 126.506 4.0652 -2.95037 0
M  V30 1324 C 128.5 4.08176 -4.89562 0
M  V30 1325 C 126.187 4.37092 -4.27076 0
M  V30 1326 C 127.185 4.37902 -5.24148 0
M  V30 1327 O 126.873 4.67741 -6.53815 0
M  V30 1328 H 126.605 0.608465 -0.294528 0
M  V30 1329 H 129.159 1.472 -1.43252 0
M  V30 1330 H 127.389 3.83835 -0.469865 0
M  V30 1331 H 129.078 3.96485 -0.869179 0
M  V30 1332 H 129.844 3.5394 -3.3159 0
M  V30 1333 H 125.723 4.05049 -2.20128 0
M  V30 1334 H 129.267 4.08723 -5.65324 0
M  V30 1335 H 125.164 4.59889 -4.5296 0
M  V30 1336 H 125.932 4.85509 -6.58957 0
M  V30 1337 N 128.595 0.856903 1.32268 0
M  V30 1338 C 129.82 0.474569 2.01897 0
M  V30 1339 C 130.245 -0.921766 1.63967 0
M  V30 1340 O 129.603 -1.60589 0.84148 0
M  V30 1341 C 129.651 0.623799 3.55164 0
M  V30 1342 O 128.755 -0.342459 4.10976 0
M  V30 1343 H 128.096 0.190422 0.63611 0
M  V30 1344 H 130.626 1.15672 1.68764 0
M  V30 1345 H 130.636 0.512169 4.04773 0
M  V30 1346 H 129.311 1.64202 3.82113 0
M  V30 1347 H 127.888 -0.18688 3.72431 0
M  V30 1348 N 130.073 -1.45103 0.615059 0
M  V30 1349 C 131.489 -1.57137 0.279322 0
M  V30 1350 C 131.689 -1.60523 -1.21797 0
M  V30 1351 O 130.745 -1.53956 -2.00134 0
M  V30 1352 C 132.058 -2.85062 0.957083 0
M  V30 1353 C 133.606 -2.98749 0.933706 0
M  V30 1354 C 134.081 -4.29455 1.59162 0
M  V30 1355 N 135.572 -4.36231 1.55746 0
M  V30 1356 C 136.307 -5.36051 2.0356 0
M  V30 1357 N 135.803 -6.42367 2.59494 0
M  V30 1358 N 137.596 -5.27456 1.94284 0
M  V30 1359 H 129.747 -1.41148 1.58717 0
M  V30 1360 H 132.01 -0.675331 0.665306 0
M  V30 1361 H 131.716 -2.88488 2.01166 0
M  V30 1362 H 131.59 -3.7407 0.48494 0
M  V30 1363 H 133.977 -2.94886 -0.112347 0
M  V30 1364 H 134.058 -2.11132 1.44419 0
M  V30 1365 H 133.702 -4.34077 2.63704 0
M  V30 1366 H 133.632 -5.15901 1.0561 0
M  V30 1367 H 136.123 -3.60011 1.14893 0
M  V30 1368 H 136.436 -7.14793 2.93752 0
M  V30 1369 H 134.781 -6.43097 2.63537 0
M  V30 1370 H 137.972 -4.43308 1.5032 0
M  V30 1371 H 138.145 -6.05099 2.3186 0
M  V30 1372 N 131.551 -0.354651 -1.53558 0
M  V30 1373 C 132.828 0.294281 -1.93374 0
M  V30 1374 C 133.208 1.67313 -1.28723 0
M  V30 1375 O 132.556 2.24179 -0.442247 0
M  V30 1376 C 132.766 0.355445 -3.47185 0
M  V30 1377 C 134.114 0.601007 -4.20325 0
M  V30 1378 O 135.138 0.437106 -3.53508 0
M  V30 1379 O 133.997 0.919322 -5.38712 0
M  V30 1380 H 131.091 0.174033 -0.808481 0
M  V30 1381 H 133.637 -0.406638 -1.64756 0
M  V30 1382 H 132.409 -0.611729 -3.86489 0
M  V30 1383 H 132.032 1.1027 -3.82003 0
M  V30 1384 N 133.029 1.57378 -0.0835403 0
M  V30 1385 C 134.44 1.81261 0.447358 0
M  V30 1386 C 134.791 0.998331 1.68902 0
M  V30 1387 O 133.916 0.224282 2.15235 0
M  V30 1388 C 134.511 3.28767 0.818386 0
M  V30 1389 C 133.07 3.53455 1.29409 0
M  V30 1390 C 132.217 2.75831 0.285024 0
M  V30 1391 H 135.168 1.5566 -0.309115 0
M  V30 1392 H 135.189 3.41459 1.67887 0
M  V30 1393 H 134.701 3.88006 -0.0855019 0
M  V30 1394 H 132.802 2.99534 2.21608 0
M  V30 1395 H 132.915 4.62128 1.2639 0
M  V30 1396 H 131.279 2.42947 0.764767 0
M  V30 1397 H 132.062 3.37813 -0.611341 0
M  V30 1398 N 134.507 -0.190092 1.56449 0
M  V30 1399 C 135.784 -0.935886 1.71757 0
M  V30 1400 C 136.164 -2.01173 0.639726 0
M  V30 1401 O 135.512 -2.25827 -0.348502 0
M  V30 1402 C 135.722 -1.51775 3.1427 0
M  V30 1403 C 137.07 -1.99794 3.74656 0
M  V30 1404 O 138.094 -1.61607 3.1743 0
M  V30 1405 O 136.953 -2.70079 4.751 0
M  V30 1406 H 134.047 -0.439229 0.700719 0
M  V30 1407 H 136.593 -0.179395 1.68749 0
M  V30 1408 H 135.365 -0.742505 3.84191 0
M  V30 1409 H 134.988 -2.33894 3.21527 0
M  V30 1410 N 135.985 -1.50799 -0.457987 0
M  V30 1411 C 137.233 -1.62121 -1.2067 0
M  V30 1412 C 137.554 -0.329793 -1.92191 0
M  V30 1413 O 136.824 0.653409 -1.84682 0
M  V30 1414 H 135.404 -0.597441 -0.448411 0
M  V30 1415 H 138.066 -1.87637 -0.527096 0
M  V30 1416 H 137.162 -2.43882 -1.94751 0
M  V30 1417 N 137.463 0.71206 -1.40597 0
M  V30 1418 C 138.393 1.83889 -1.43899 0
M  V30 1419 C 139.374 1.67442 -0.299504 0
M  V30 1420 O 140.559 1.87421 -0.508624 0
M  V30 1421 C 137.689 3.21877 -1.30431 0
M  V30 1422 C 136.643 3.53002 -2.42019 0
M  V30 1423 C 135.969 4.90172 -2.13626 0
M  V30 1424 C 137.269 3.53643 -3.84362 0
M  V30 1425 H 138.963 1.81383 -2.38203 0
M  V30 1426 H 136.509 0.871237 -1.14654 0
M  V30 1427 H 138.462 4.00404 -1.31357 0
M  V30 1428 H 137.186 3.24968 -0.326049 0
M  V30 1429 H 135.845 2.76818 -2.40349 0
M  V30 1430 H 135.493 4.89869 -1.14182 0
M  V30 1431 H 135.193 5.11962 -2.88389 0
M  V30 1432 H 136.717 5.71028 -2.1624 0
M  V30 1433 H 138.131 4.22203 -3.87837 0
M  V30 1434 H 136.528 3.86961 -4.58673 0
M  V30 1435 H 137.598 2.52954 -4.13693 0
M  V30 1436 N 138.941 1.26152 0.944643 0
M  V30 1437 C 140.352 1.10454 1.50522 0
M  V30 1438 C 140.703 -0.31635 1.93633 0
M  V30 1439 O 139.828 -1.20746 1.79581 0
M  V30 1440 C 140.423 1.99891 2.73549 0
M  V30 1441 C 138.982 1.88348 3.25886 0
M  V30 1442 C 138.129 1.93447 1.9868 0
M  V30 1443 H 141.08 1.39292 0.760489 0
M  V30 1444 H 141.101 1.54477 3.47732 0
M  V30 1445 H 140.613 3.03297 2.42141 0
M  V30 1446 H 138.714 0.878636 3.62092 0
M  V30 1447 H 138.827 2.73696 3.93227 0
M  V30 1448 H 137.191 1.37456 2.14425 0
M  V30 1449 H 137.974 2.98476 1.69607 0
M  V30 1450 N 140.419 -1.14872 1.07899 0
M  V30 1451 C 141.659 -1.8745 0.814965 0
M  V30 1452 C 142.023 -1.80758 -0.64733 0
M  V30 1453 O 143.224 -2.48422 -1.02664 0
M  V30 1454 C 141.495 -3.32286 1.31607 0
M  V30 1455 S 143.054 -4.22537 1.18357 0
M  V30 1456 H 139.872 -0.646833 0.295174 0
M  V30 1457 H 142.474 -1.38555 1.37923 0
M  V30 1458 H 141.178 -3.34703 2.37491 0
M  V30 1459 H 140.709 -3.86238 0.747261 0
M  V30 1460 H 142.724 -4.96044 0.124586 0
M  V30 1461 N 141.898 -0.863906 -1.31812 0
M  V30 1462 C 142.846 -0.30422 -2.30602 0
M  V30 1463 C 143.84 0.577419 -1.59255 0
M  V30 1464 O 145.046 0.464194 -1.73912 0
M  V30 1465 H 141.421 -0.0796877 -0.747766 0
M  V30 1466 H 143.392 -1.15148 -2.75288 0
M  V30 1467 C 142.141 0.484617 -3.44306 0
M  V30 1468 H 141.464 -0.18451 -3.99374 0
M  V30 1469 H 142.904 0.841664 -4.15562 0
M  V30 1470 C 141.363 1.6735 -2.92396 0
M  V30 1471 O 141.893 2.77273 -2.90659 0
M  V30 1472 N 140.099 1.50362 -2.48676 0
M  V30 1473 H 139.646 0.609402 -2.50288 0
M  V30 1474 H 139.604 2.30051 -2.14299 0
M  V30 1475 N 143.376 1.44774 -0.622745 0
M  V30 1476 C 144.306 2.33382 0.0741861 0
M  V30 1477 C 145.287 1.47719 0.843387 0
M  V30 1478 O 146.472 1.76458 0.810934 0
M  V30 1479 C 143.602 3.30663 1.06204 0
M  V30 1480 C 142.556 4.26079 0.405037 0
M  V30 1481 C 141.882 5.13165 1.5022 0
M  V30 1482 C 143.182 5.1781 -0.683414 0
M  V30 1483 H 144.876 2.91905 -0.665713 0
M  V30 1484 H 142.422 1.40363 -0.321587 0
M  V30 1485 H 144.375 3.9153 1.55827 0
M  V30 1486 H 143.099 2.70331 1.83272 0
M  V30 1487 H 141.758 3.66532 -0.0704683 0
M  V30 1488 H 141.406 4.49191 2.26355 0
M  V30 1489 H 141.106 5.77812 1.06803 0
M  V30 1490 H 142.63 5.76902 2.00041 0
M  V30 1491 H 144.044 5.72661 -0.270631 0
M  V30 1492 H 142.441 5.91015 -1.04023 0
M  V30 1493 H 143.511 4.59326 -1.55395 0
M  V30 1494 N 144.854 0.36279 1.53368 0
M  V30 1495 C 146.27 0.0116182 1.59596 0
M  V30 1496 C 146.47 -1.47012 1.37803 0
M  V30 1497 O 145.526 -2.23136 1.18181 0
M  V30 1498 C 146.839 0.465052 2.97082 0
M  V30 1499 C 148.387 0.419033 3.10182 0
M  V30 1500 C 148.862 0.848235 4.50077 0
M  V30 1501 N 150.353 0.803183 4.56183 0
M  V30 1502 C 151.088 1.107 5.62613 0
M  V30 1503 N 150.584 1.47996 6.76808 0
M  V30 1504 N 152.377 1.02998 5.52583 0
M  V30 1505 H 144.528 1.32775 1.65785 0
M  V30 1506 H 146.791 0.542518 0.777417 0
M  V30 1507 H 146.497 1.49892 3.18159 0
M  V30 1508 H 146.371 -0.149786 3.76902 0
M  V30 1509 H 148.758 -0.605696 2.88817 0
M  V30 1510 H 148.839 1.06933 2.32377 0
M  V30 1511 H 148.483 1.87107 4.7218 0
M  V30 1512 H 148.413 0.175218 5.26308 0
M  V30 1513 H 150.904 0.52838 3.74188 0
M  V30 1514 H 151.217 1.69613 7.53957 0
M  V30 1515 H 149.562 1.51859 6.78206 0
M  V30 1516 H 152.753 0.737817 4.62249 0
M  V30 1517 H 152.926 1.2701 6.35431 0
M  V30 1518 N 146.332 -1.57332 0.0918853 0
M  V30 1519 C 147.279 -2.13847 -0.868211 0
M  V30 1520 C 148.249 -1.05618 -1.28196 0
M  V30 1521 O 149.434 -1.33387 -1.36427 0
M  V30 1522 C 146.574 -2.72062 -2.12312 0
M  V30 1523 C 145.687 -3.94514 -1.7602 0
M  V30 1524 C 144.822 -4.40903 -2.96273 0
M  V30 1525 C 143.861 -5.55953 -2.56092 0
M  V30 1526 N 142.998 -5.97209 -3.69169 0
M  V30 1527 H 147.838 -2.95575 -0.379406 0
M  V30 1528 H 145.375 -1.46048 -0.175606 0
M  V30 1529 H 147.333 -3.03931 -2.858 0
M  V30 1530 H 145.963 -1.93068 -2.58698 0
M  V30 1531 H 145.015 -3.68979 -0.925135 0
M  V30 1532 H 146.327 -4.7802 -1.42472 0
M  V30 1533 H 145.481 -4.74539 -3.78018 0
M  V30 1534 H 144.22 -3.56291 -3.33029 0
M  V30 1535 H 143.225 -5.21948 -1.72773 0
M  V30 1536 H 144.45 -6.42311 -2.20484 0
M  V30 1537 H 142.396 -5.15543 -4.05649 0
M  V30 1538 H 142.313 -6.75504 -3.39456 0
M  V30 1539 H 143.581 -6.35475 -4.51434 0
M  V30 1540 N 147.81 0.181792 -1.56548 0
M  V30 1541 C 149.221 0.745244 -1.71181 0
M  V30 1542 C 149.572 1.83262 -0.70068 0
M  V30 1543 O 148.697 2.15946 0.140154 0
M  V30 1544 C 149.292 1.35859 -3.10367 0
M  V30 1545 C 147.851 1.86898 -3.2672 0
M  V30 1546 C 146.998 0.743942 -2.67134 0
M  V30 1547 H 149.949 -0.0434661 -1.5864 0
M  V30 1548 H 149.97 2.22817 -3.08436 0
M  V30 1549 H 149.482 0.566948 -3.83937 0
M  V30 1550 H 147.583 2.68738 -2.5809 0
M  V30 1551 H 147.696 2.02162 -4.34359 0
M  V30 1552 H 146.06 1.16169 -2.26665 0
M  V30 1553 H 146.843 -0.035676 -3.43281 0
M  V30 1554 N 149.288 1.51039 0.449983 0
M  V30 1555 C 150.528 1.64732 1.21007 0
M  V30 1556 C 150.892 0.349865 1.88785 0
M  V30 1557 O 152.093 0.362431 2.66345 0
M  V30 1558 C 150.364 2.80902 2.20973 0
M  V30 1559 S 151.923 3.14851 3.05638 0
M  V30 1560 H 148.741 0.5805 0.410538 0
M  V30 1561 H 151.343 1.88901 0.503634 0
M  V30 1562 H 150.047 3.73627 1.69796 0
M  V30 1563 H 149.578 2.58882 2.96215 0
M  V30 1564 H 151.593 2.60306 4.22439 0
M  V30 1565 N 150.766 -0.704594 1.40972 0
M  V30 1566 C 151.714 -1.83994 1.42299 0
M  V30 1567 C 152.708 -1.66684 0.302111 0
M  V30 1568 O 153.914 -1.73655 0.473697 0
M  V30 1569 H 150.289 -0.606171 0.44504 0
M  V30 1570 H 152.26 -1.79992 2.38003 0
M  V30 1571 C 151.009 -3.21946 1.31323 0
M  V30 1572 H 150.332 -3.35878 2.16855 0
M  V30 1573 H 151.772 -4.01491 1.36311 0
M  V30 1574 C 150.231 -3.36891 0.0245977 0
M  V30 1575 O 150.761 -3.90687 -0.934153 0
M  V30 1576 N 148.967 -2.90559 -0.0485243 0
M  V30 1577 H 148.514 -2.46968 0.732419 0
M  V30 1578 H 148.472 -3.00937 -0.910171 0
M  V30 1579 N 152.244 -1.26651 -0.937939 0
M  V30 1580 C 153.66 -1.03834 -1.21205 0
M  V30 1581 C 153.86 0.234502 -2.00131 0
M  V30 1582 O 152.916 0.942767 -2.3424 0
M  V30 1583 C 154.229 -2.27167 -1.97017 0
M  V30 1584 C 155.777 -2.32101 -2.09996 0
M  V30 1585 C 156.252 -3.55136 -2.8921 0
M  V30 1586 N 157.743 -3.55632 -2.96783 0
M  V30 1587 C 158.478 -4.475 -3.58512 0
M  V30 1588 N 157.974 -5.4966 -4.21717 0
M  V30 1589 N 159.767 -4.35145 -3.55816 0
M  V30 1590 H 151.918 -2.08398 -0.410391 0
M  V30 1591 H 154.181 -0.916031 -0.244114 0
M  V30 1592 H 153.887 -3.19765 -1.46434 0
M  V30 1593 H 153.761 -2.31672 -2.97671 0
M  V30 1594 H 156.148 -1.40015 -2.59769 0
M  V30 1595 H 156.229 -2.31605 -1.08594 0
M  V30 1596 H 155.873 -4.47553 -2.40123 0
M  V30 1597 H 155.803 -3.5288 -3.90875 0
M  V30 1598 H 158.294 -2.81743 -2.51852 0
M  V30 1599 H 158.607 -6.15943 -4.66727 0
M  V30 1600 H 156.952 -5.53514 -4.20294 0
M  V30 1601 H 160.143 -3.5455 -3.05634 0
M  V30 1602 H 160.316 -5.06934 -4.03636 0
M  V30 1603 N 153.722 1.14298 -1.08507 0
M  V30 1604 C 155.133 1.66926 -0.836227 0
M  V30 1605 C 155.484 1.85576 0.63686 0
M  V30 1606 O 154.609 1.56767 1.49175 0
M  V30 1607 C 155.204 3.03219 -1.51142 0
M  V30 1608 C 153.763 3.52876 -1.30979 0
M  V30 1609 C 152.91 2.2833 -1.57356 0
M  V30 1610 H 155.861 0.983491 -1.24552 0
M  V30 1611 H 155.882 3.68726 -0.939211 0
M  V30 1612 H 155.394 2.89612 -2.58353 0
M  V30 1613 H 153.495 3.71703 -0.258429 0
M  V30 1614 H 153.608 4.33586 -2.03814 0
M  V30 1615 H 151.972 2.34454 -0.995164 0
M  V30 1616 H 152.755 2.17298 -2.65775 0
M  V30 1617 N 155.201 0.870884 1.31352 0
M  V30 1618 C 156.426 0.495957 2.01383 0
M  V30 1619 C 156.851 -0.904324 1.64935 0
M  V30 1620 O 156.209 -1.59687 0.858466 0
M  V30 1621 C 156.257 0.661433 3.54482 0
M  V30 1622 O 155.361 -0.298851 4.11316 0
M  V30 1623 H 154.702 0.197158 0.634054 0
M  V30 1624 H 157.232 1.17455 1.67527 0
M  V30 1625 H 157.242 0.555072 4.04207 0
M  V30 1626 H 155.917 1.68246 3.8035 0
M  V30 1627 H 154.494 -0.147368 3.72609 0
M  V30 1628 N 156.679 -1.44442 0.630414 0
M  V30 1629 C 157.927 -2.01653 0.134351 0
M  V30 1630 C 158.248 -1.49836 -1.24796 0
M  V30 1631 O 157.518 -0.701684 -1.82902 0
M  V30 1632 H 156.098 -0.74554 0.0466769 0
M  V30 1633 H 158.76 -1.76952 0.816955 0
M  V30 1634 H 157.856 -3.11935 0.101498 0
M  V30 1635 N 158.157 -0.370918 -1.53173 0
M  V30 1636 C 159.087 0.464847 -2.28826 0
M  V30 1637 C 160.068 1.07936 -1.31468 0
M  V30 1638 O 161.253 1.0956 -1.60344 0
M  V30 1639 C 158.383 1.60196 -3.08147 0
M  V30 1640 C 157.337 1.11443 -4.13237 0
M  V30 1641 C 156.663 2.3422 -4.80672 0
M  V30 1642 C 157.963 0.195384 -5.21934 0
M  V30 1643 H 159.657 -0.166329 -2.98938 0
M  V30 1644 H 157.203 -0.0814359 -1.4377 0
M  V30 1645 H 159.156 2.19332 -3.59822 0
M  V30 1646 H 157.88 2.26045 -2.35735 0
M  V30 1647 H 156.539 0.545727 -3.62515 0
M  V30 1648 H 156.187 2.98537 -4.04827 0
M  V30 1649 H 155.887 2.02269 -5.51689 0
M  V30 1650 H 157.411 2.94032 -5.35143 0
M  V30 1651 H 158.825 0.694375 -5.69079 0
M  V30 1652 H 157.222 -0.0335027 -6.00091 0
M  V30 1653 H 158.292 -0.760961 -4.78892 0
M  V30 1654 N 159.635 1.57281 -0.100228 0
M  V30 1655 C 160.545 2.17833 0.870965 0
M  V30 1656 C 161.561 1.14921 1.30649 0
M  V30 1657 O 162.737 1.47313 1.37335 0
M  V30 1658 C 159.802 2.75085 2.1102 0
M  V30 1659 C 158.863 3.9297 1.72838 0
M  V30 1660 C 158.096 4.47482 2.90854 0
M  V30 1661 O 158.319 4.00922 4.05731 0
M  V30 1662 O 157.253 5.38433 2.69023 0
M  V30 1663 H 161.079 3.0124 0.38575 0
M  V30 1664 H 158.664 1.48881 0.124397 0
M  V30 1665 H 160.546 3.11656 2.83634 0
M  V30 1666 H 159.221 1.94721 2.58584 0
M  V30 1667 H 158.128 3.61201 0.973883 0
M  V30 1668 H 159.461 4.74713 1.30033 0
M  V30 1669 N 161.113 -0.173488 1.56642 0
M  V30 1670 C 162.524 -0.736155 1.71574 0
M  V30 1671 C 162.875 -1.82888 0.710389 0
M  V30 1672 O 162 -2.16017 -0.1287 0
M  V30 1673 C 162.595 -1.34211 3.11083 0
M  V30 1674 C 161.154 -1.85162 3.27707 0
M  V30 1675 C 160.301 -0.729765 2.67525 0
M  V30 1676 H 163.252 0.0518786 1.58615 0
M  V30 1677 H 163.273 -2.21178 3.09613 0
M  V30 1678 H 162.785 -0.546579 3.84232 0
M  V30 1679 H 160.886 -2.67366 2.59512 0
M  V30 1680 H 160.999 -1.99855 4.35425 0
M  V30 1681 H 159.363 -1.14965 2.27278 0
M  V30 1682 H 160.146 0.0538806 3.43258 0
M  V30 1683 N 162.591 -1.51276 -0.441967 0
M  V30 1684 C 163.523 -1.68444 -1.55433 0
M  V30 1685 C 164.536 -0.565187 -1.52674 0
M  V30 1686 O 165.725 -0.839356 -1.57534 0
M  V30 1687 C 162.825 -1.67966 -2.94348 0
M  V30 1688 C 161.998 -2.964 -3.21661 0
M  V30 1689 C 161.057 -2.88171 -4.40277 0
M  V30 1690 O 160.083 -3.62119 -4.39157 0
M  V30 1691 N 161.285 -2.03706 -5.43584 0
M  V30 1692 H 164.05 -2.644 -1.41112 0
M  V30 1693 H 161.611 -1.49104 -0.630838 0
M  V30 1694 H 163.603 -1.60035 -3.71713 0
M  V30 1695 H 162.173 -0.796225 -3.0229 0
M  V30 1696 H 161.393 -3.18234 -2.32638 0
M  V30 1697 H 162.681 -3.81427 -3.36736 0
M  V30 1698 H 162.079 -1.42995 -5.47329 0
M  V30 1699 H 160.636 -2.01658 -6.1982 0
M  V30 1700 N 164.069 0.697108 -1.41344 0
M  V30 1701 C 165.48 1.27697 -1.36199 0
M  V30 1702 C 165.831 1.9615 -0.0443463 0
M  V30 1703 O 164.956 1.98689 0.857419 0
M  V30 1704 C 165.551 2.32223 -2.46694 0
M  V30 1705 C 164.11 2.8579 -2.44952 0
M  V30 1706 C 163.257 1.59807 -2.26621 0
M  V30 1707 H 166.208 0.491968 -1.50882 0
M  V30 1708 H 166.229 3.1348 -2.15664 0
M  V30 1709 H 165.741 1.82373 -3.42581 0
M  V30 1710 H 163.842 3.3982 -1.52817 0
M  V30 1711 H 163.955 3.36325 -3.41207 0
M  V30 1712 H 162.319 1.8556 -1.7447 0
M  V30 1713 H 163.102 1.11956 -3.24532 0
M  V30 1714 N 165.547 1.27147 0.931209 0
M  V30 1715 C 166.795 1.13055 1.6752 0
M  V30 1716 C 167.116 -0.324791 1.92276 0
M  V30 1717 O 166.386 -1.22775 1.52654 0
M  V30 1718 H 164.966 0.415391 0.620854 0
M  V30 1719 H 167.628 1.59623 1.11833 0
M  V30 1720 H 166.724 1.65694 2.64485 0
M  V30 1721 N 167.025 -1.13721 1.09112 0
M  V30 1722 C 168.271 -1.85198 0.826414 0
M  V30 1723 C 168.604 -1.83129 -0.646319 0
M  V30 1724 O 167.879 -1.2671 -1.47563 0
M  V30 1725 C 168.162 -3.33507 1.35812 0
M  V30 1726 C 168.015 -3.44108 2.89672 0
M  V30 1727 C 169.334 -4.28838 0.989256 0
M  V30 1728 H 166.453 -0.67243 0.301675 0
M  V30 1729 H 169.095 -1.33499 1.35197 0
M  V30 1730 H 167.245 -3.77666 0.911082 0
M  V30 1731 H 168.917 -3.08684 3.428 0
M  V30 1732 H 167.16 -2.85087 3.26967 0
M  V30 1733 H 167.831 -4.48388 3.21951 0
M  V30 1734 H 170.307 -3.92734 1.37475 0
M  V30 1735 H 169.183 -5.31051 1.38838 0
M  V30 1736 H 169.444 -4.4198 -0.102924 0
M  V30 1737 N 168.503 -0.877838 -1.30888 0
M  V30 1738 C 169.75 -0.492696 -1.96415 0
M  V30 1739 C 170.078 0.956671 -1.69346 0
M  V30 1740 O 169.333 1.68993 -0.986913 0
M  V30 1741 C 169.632 -0.705748 -3.50363 0
M  V30 1742 C 169.298 -2.1291 -3.97467 0
M  V30 1743 C 167.96 -2.51834 -4.1004 0
M  V30 1744 C 170.312 -3.05702 -4.22132 0
M  V30 1745 C 167.64 -3.82775 -4.44635 0
M  V30 1746 C 169.992 -4.36166 -4.58194 0
M  V30 1747 C 168.656 -4.74993 -4.68975 0
M  V30 1748 H 167.926 -0.18029 -0.718733 0
M  V30 1749 H 170.573 -1.11233 -1.55883 0
M  V30 1750 H 168.878 -0.00303058 -3.918 0
M  V30 1751 H 170.575 -0.387456 -3.99124 0
M  V30 1752 H 167.165 -1.81694 -3.88182 0
M  V30 1753 H 171.349 -2.76853 -4.11906 0
M  V30 1754 H 166.605 -4.12609 -4.51181 0
M  V30 1755 H 170.779 -5.08111 -4.76231 0
M  V30 1756 H 168.406 -5.76495 -4.95537 0
M  V30 1757 N 169.982 1.44106 -0.638065 0
M  V30 1758 C 171.259 1.95453 -0.0759321 0
M  V30 1759 C 171.639 1.57984 1.40015 0
M  V30 1760 O 170.987 0.857361 2.11806 0
M  V30 1761 C 171.197 3.47655 -0.306132 0
M  V30 1762 C 172.545 4.24114 -0.203008 0
M  V30 1763 O 173.569 3.55405 -0.237871 0
M  V30 1764 O 172.428 5.46381 -0.113827 0
M  V30 1765 H 169.522 0.826797 0.0183332 0
M  V30 1766 H 172.068 1.54122 -0.710251 0
M  V30 1767 H 170.84 3.68 -1.3301 0
M  V30 1768 H 170.463 3.95949 0.361991 0
M  V30 1769 N 171.46 0.379036 1.52974 0
M  V30 1770 C 172.7 -0.206325 2.03356 0
M  V30 1771 C 173.064 -1.44892 1.25977 0
M  V30 1772 O 174.265 -2.11078 1.66432 0
M  V30 1773 C 172.536 -0.477887 3.54191 0
M  V30 1774 S 174.095 -1.035 4.26419 0
M  V30 1775 H 170.913 -0.0590259 0.708546 0
M  V30 1776 H 173.515 0.525013 1.88319 0
M  V30 1777 H 172.219 0.433745 4.08101 0
M  V30 1778 H 171.75 -1.23793 3.73415 0
M  V30 1779 H 173.765 -2.31821 4.38718 0
M  V30 1780 N 172.938 -1.57226 0.108567 0
M  V30 1781 C 173.868 -2.17778 -0.84232 0
M  V30 1782 C 174.849 -1.11487 -1.2847 0
M  V30 1783 O 176.034 -1.39681 -1.34918 0
M  V30 1784 C 173.164 -2.76888 -2.09644 0
M  V30 1785 C 172.118 -3.88669 -1.79221 0
M  V30 1786 C 171.444 -4.34541 -3.11574 0
M  V30 1787 C 172.744 -5.11251 -1.06864 0
M  V30 1788 H 174.438 -2.97489 -0.337774 0
M  V30 1789 H 171.984 -1.43097 -0.161025 0
M  V30 1790 H 173.937 -3.17904 -2.76614 0
M  V30 1791 H 172.661 -1.94451 -2.62405 0
M  V30 1792 H 171.32 -3.48213 -1.14644 0
M  V30 1793 H 170.968 -3.48977 -3.62249 0
M  V30 1794 H 170.668 -5.09914 -2.91996 0
M  V30 1795 H 172.192 -4.782 -3.7968 0
M  V30 1796 H 173.606 -5.49352 -1.63968 0
M  V30 1797 H 172.003 -5.9214 -0.974178 0
M  V30 1798 H 173.073 -4.8487 -0.0536168 0
M  V30 1799 N 174.416 0.165178 -1.56732 0
M  V30 1800 C 175.832 0.517174 -1.50988 0
M  V30 1801 C 176.032 1.84331 -0.813894 0
M  V30 1802 O 175.088 2.49672 -0.37682 0
M  V30 1803 C 176.401 0.544261 -2.95733 0
M  V30 1804 C 177.949 0.631039 -3.06573 0
M  V30 1805 C 178.424 0.68896 -4.52788 0
M  V30 1806 N 179.915 0.751683 -4.5706 0
M  V30 1807 C 180.65 0.817177 -5.67547 0
M  V30 1808 N 180.146 0.843129 -6.8765 0
M  V30 1809 N 181.939 0.856668 -5.55534 0
M  V30 1810 H 174.09 -0.704318 -2.00382 0
M  V30 1811 H 176.353 -0.254687 -0.913148 0
M  V30 1812 H 176.059 -0.361607 -3.49836 0
M  V30 1813 H 175.933 1.3886 -3.5071 0
M  V30 1814 H 178.32 1.52733 -2.52501 0
M  V30 1815 H 178.401 -0.240095 -2.54671 0
M  V30 1816 H 178.045 -0.2031 -5.07494 0
M  V30 1817 H 177.975 1.57633 -5.02454 0
M  V30 1818 H 180.466 0.739661 -3.70591 0
M  V30 1819 H 180.779 0.894448 -7.67606 0
M  V30 1820 H 179.124 0.811304 -6.90248 0
M  V30 1821 H 182.315 0.833437 -4.60621 0
M  V30 1822 H 182.488 0.904247 -6.4166 0
M  V30 1823 N 175.894 1.51508 0.433938 0
M  V30 1824 C 177.171 1.54888 1.19453 0
M  V30 1825 C 177.551 0.315154 2.08734 0
M  V30 1826 O 176.899 -0.699558 2.17528 0
M  V30 1827 C 177.109 2.86467 1.99342 0
M  V30 1828 C 178.457 3.38545 2.56267 0
M  V30 1829 O 179.481 2.88041 2.0955 0
M  V30 1830 O 178.34 4.26675 3.41483 0
M  V30 1831 H 175.434 0.622863 0.544032 0
M  V30 1832 H 177.98 1.63823 0.442732 0
M  V30 1833 H 176.752 3.67718 1.33788 0
M  V30 1834 H 176.375 2.8071 2.8158 0
M  V30 1835 N 177.372 -0.689602 1.41712 0
M  V30 1836 C 178.335 -1.78521 1.43746 0
M  V30 1837 C 179.335 -1.57436 0.327191 0
M  V30 1838 O 180.525 -1.64 0.587348 0
M  V30 1839 C 177.657 -3.16971 1.25467 0
M  V30 1840 H 178.85 -1.78108 2.41283 0
M  V30 1841 H 176.403 -0.89781 1.27942 0
M  V30 1842 H 177.138 -3.23019 0.287948 0
M  V30 1843 H 176.923 -3.33678 2.05917 0
M  V30 1844 H 178.413 -3.96935 1.2974 0
M  V30 1845 N 178.85 -1.27639 -0.924453 0
M  V30 1846 C 179.783 -1.04966 -2.02626 0
M  V30 1847 C 180.761 0.0309505 -1.62571 0
M  V30 1848 O 181.945 -0.114846 -1.8815 0
M  V30 1849 C 179.072 -0.59292 -3.3347 0
M  V30 1850 C 178.118 -1.66858 -3.92506 0
M  V30 1851 S 178.951 -3.2619 -4.24689 0
M  V30 1852 C 180.107 -2.82325 -5.58609 0
M  V30 1853 H 180.34 -1.98252 -2.21547 0
M  V30 1854 H 177.873 -1.11506 -1.06798 0
M  V30 1855 H 179.831 -0.336086 -4.09122 0
M  V30 1856 H 178.492 0.319939 -3.12466 0
M  V30 1857 H 177.685 -1.30038 -4.86935 0
M  V30 1858 H 177.287 -1.87766 -3.2345 0
M  V30 1859 H 179.579 -2.2783 -6.38044 0
M  V30 1860 H 180.522 -3.75511 -6.00331 0
M  V30 1861 H 180.93 -2.21367 -5.19285 0
M  V30 1862 N 180.328 1.1314 -1.09713 0
M  V30 1863 C 181.574 1.84757 -0.836224 0
M  V30 1864 C 181.907 1.8347 0.636598 0
M  V30 1865 O 181.182 1.27491 1.46889 0
M  V30 1866 C 181.465 3.32782 -1.37578 0
M  V30 1867 C 181.318 3.42567 -2.91493 0
M  V30 1868 C 182.637 4.28307 -1.01198 0
M  V30 1869 H 179.756 0.67082 -0.305236 0
M  V30 1870 H 182.398 1.3278 -1.35903 0
M  V30 1871 H 180.548 3.77177 -0.931097 0
M  V30 1872 H 182.22 3.06862 -3.44432 0
M  V30 1873 H 180.463 2.83349 -3.28475 0
M  V30 1874 H 181.134 4.46674 -3.24324 0
M  V30 1875 H 183.61 3.91999 -1.39556 0
M  V30 1876 H 182.486 5.30307 -1.41653 0
M  V30 1877 H 182.747 4.42029 0.0794833 0
M  V30 1878 N 181.806 0.884767 1.30421 0
M  V30 1879 C 183.222 0.57874 1.48737 0
M  V30 1880 C 183.422 -0.883567 1.81095 0
M  V30 1881 O 182.478 -1.6648 1.89844 0
M  V30 1882 C 183.791 1.49171 2.61091 0
M  V30 1883 C 185.339 1.49532 2.74971 0
M  V30 1884 C 185.814 2.39421 3.90438 0
M  V30 1885 N 187.305 2.37383 3.97748 0
M  V30 1886 C 188.04 3.03647 4.86401 0
M  V30 1887 N 187.536 3.79136 5.79852 0
M  V30 1888 N 189.329 2.9288 4.79768 0
M  V30 1889 H 181.48 1.83075 1.0769 0
M  V30 1890 H 183.743 0.783637 0.533495 0
M  V30 1891 H 183.449 2.53291 2.44001 0
M  V30 1892 H 183.323 1.20113 3.57565 0
M  V30 1893 H 185.71 0.46163 2.91467 0
M  V30 1894 H 185.791 1.8262 1.79119 0
M  V30 1895 H 185.435 3.42874 3.74699 0
M  V30 1896 H 185.365 2.03649 4.85628 0
M  V30 1897 H 187.856 1.82525 3.30897 0
M  V30 1898 H 188.169 4.26789 6.4426 0
M  V30 1899 H 186.514 3.83243 5.79784 0
M  V30 1900 H 189.705 2.33433 4.05742 0
M  V30 1901 H 189.878 3.448 5.4865 0
M  V30 1902 N 183.284 -1.43765 0.645699 0
M  V30 1903 C 184.561 -1.9541 0.0862963 0
M  V30 1904 C 184.941 -1.58725 -1.39175 0
M  V30 1905 O 184.289 -0.868581 -2.11348 0
M  V30 1906 C 184.499 -3.47488 0.324565 0
M  V30 1907 C 185.847 -4.24001 0.225497 0
M  V30 1908 O 186.871 -3.55274 0.256715 0
M  V30 1909 O 185.73 -5.46313 0.142801 0
M  V30 1910 H 182.824 -0.826882 -0.0139483 0
M  V30 1911 H 185.37 -1.53743 0.718415 0
M  V30 1912 H 184.142 -3.67289 1.3496 0
M  V30 1913 H 183.765 -3.96135 -0.340987 0
M  V30 1914 N 184.763 -0.387143 -1.52771 0
M  V30 1915 C 185.993 0.195585 -2.05672 0
M  V30 1916 C 186.401 1.41241 -1.25887 0
M  V30 1917 O 185.744 1.81265 -0.298081 0
M  V30 1918 C 185.806 0.632327 -3.53895 0
M  V30 1919 C 185.47 -0.470739 -4.54569 0
M  V30 1920 C 186.467 -1.32746 -5.02667 0
M  V30 1921 C 184.152 -0.637151 -4.98243 0
M  V30 1922 C 186.146 -2.33574 -5.93061 0
M  V30 1923 C 183.833 -1.64877 -5.88438 0
M  V30 1924 C 184.831 -2.49649 -6.35739 0
M  V30 1925 O 184.519 -3.49082 -7.24153 0
M  V30 1926 H 184.251 0.033658 -0.675162 0
M  V30 1927 H 186.805 -0.550221 -1.97893 0
M  V30 1928 H 185.035 1.43008 -3.59285 0
M  V30 1929 H 186.724 1.14048 -3.89548 0
M  V30 1930 H 187.49 -1.21019 -4.69659 0
M  V30 1931 H 183.369 0.0129567 -4.60998 0
M  V30 1932 H 186.913 -2.99777 -6.29904 0
M  V30 1933 H 182.81 -1.76643 -6.2086 0
M  V30 1934 H 183.578 -3.45065 -7.42208 0
M  V30 1935 N 186.241 1.57166 -0.116904 0
M  V30 1936 C 187.487 1.95412 0.542405 0
M  V30 1937 C 187.82 1.00019 1.66463 0
M  V30 1938 O 187.095 0.0370346 1.94465 0
M  V30 1939 C 187.378 3.43615 1.07708 0
M  V30 1940 C 187.231 4.49781 -0.0415868 0
M  V30 1941 C 188.55 3.93616 1.96861 0
M  V30 1942 H 185.669 0.710543 0.195696 0
M  V30 1943 H 188.311 1.89027 -0.192038 0
M  V30 1944 H 186.461 3.49187 1.70296 0
M  V30 1945 H 188.133 4.56308 -0.676793 0
M  V30 1946 H 186.376 4.28033 -0.705019 0
M  V30 1947 H 187.047 5.50733 0.373717 0
M  V30 1948 H 189.523 3.90335 1.44146 0
M  V30 1949 H 188.399 4.97838 2.3119 0
M  V30 1950 H 188.66 3.34188 2.89432 0
M  V30 1951 N 187.719 -0.156864 1.56817 0
M  V30 1952 C 189.135 -0.50916 1.5126 0
M  V30 1953 C 189.335 -1.83897 0.823658 0
M  V30 1954 O 188.391 -2.49469 0.390055 0
M  V30 1955 C 189.704 -0.52857 2.96018 0
M  V30 1956 C 191.252 -0.614771 3.06903 0
M  V30 1957 C 191.727 -0.664938 4.53147 0
M  V30 1958 N 193.218 -0.727433 4.57452 0
M  V30 1959 C 193.953 -0.787067 5.67973 0
M  V30 1960 N 193.449 -0.806649 6.88088 0
M  V30 1961 N 195.242 -0.827195 5.5598 0
M  V30 1962 H 187.393 0.714935 2.00006 0
M  V30 1963 H 189.656 0.259526 0.911784 0
M  V30 1964 H 189.362 0.380154 3.49639 0
M  V30 1965 H 189.236 -1.36998 3.51442 0
M  V30 1966 H 191.623 -1.51392 2.53307 0
M  V30 1967 H 191.704 0.253597 2.5454 0
M  V30 1968 H 191.348 0.230011 5.07379 0
M  V30 1969 H 191.278 -1.54966 5.03282 0
M  V30 1970 H 193.769 -0.719998 3.70978 0
M  V30 1971 H 194.082 -0.853727 7.6807 0
M  V30 1972 H 192.427 -0.774687 6.90669 0
M  V30 1973 H 195.618 -0.808998 4.61056 0
M  V30 1974 H 195.791 -0.870206 6.4213 0
M  V30 1975 N 189.197 -1.51736 -0.425897 0
M  V30 1976 C 190.129 -1.70083 -1.53638 0
M  V30 1977 C 191.142 -0.581349 -1.52066 0
M  V30 1978 O 192.331 -0.856017 -1.56635 0
M  V30 1979 C 189.431 -1.71078 -2.9255 0
M  V30 1980 C 188.604 -2.99795 -3.185 0
M  V30 1981 C 187.663 -2.92825 -4.37196 0
M  V30 1982 O 186.689 -3.66756 -4.35291 0
M  V30 1983 N 187.891 -2.0946 -5.41393 0
M  V30 1984 H 190.656 -2.65882 -1.383 0
M  V30 1985 H 188.217 -1.49765 -0.614988 0
M  V30 1986 H 190.209 -1.63969 -3.69995 0
M  V30 1987 H 188.779 -0.828242 -3.01428 0
M  V30 1988 H 187.999 -3.20684 -2.2925 0
M  V30 1989 H 189.287 -3.84977 -3.32671 0
M  V30 1990 H 188.685 -1.48792 -5.45781 0
M  V30 1991 H 187.242 -2.08221 -6.17647 0
M  V30 1992 N 190.675 0.682077 -1.42076 0
M  V30 1993 C 191.903 1.47057 -1.4554 0
M  V30 1994 C 192.318 1.8869 -0.0645779 0
M  V30 1995 O 191.675 1.57666 0.919115 0
M  V30 1996 C 191.726 2.72442 -2.37609 0
M  V30 1997 O 191.447 2.32559 -3.71279 0
M  V30 1998 C 192.948 3.66069 -2.50017 0
M  V30 1999 H 190.168 0.452737 -0.495248 0
M  V30 2000 H 192.712 0.838695 -1.8651 0
M  V30 2001 H 190.867 3.31835 -1.9991 0
M  V30 2002 H 191.281 3.13475 -4.20516 0
M  V30 2003 H 192.755 4.50792 -3.18576 0
M  V30 2004 H 193.232 4.11476 -1.53572 0
M  V30 2005 H 193.838 3.12572 -2.88407 0
M  V30 2006 N 192.153 1.28127 0.917671 0
M  V30 2007 C 193.399 1.16232 1.66918 0
M  V30 2008 C 193.754 -0.28701 1.90247 0
M  V30 2009 O 193.047 -1.20586 1.48895 0
M  V30 2010 C 193.241 1.89018 3.03327 0
M  V30 2011 C 193.07 3.4088 2.9331 0
M  V30 2012 C 191.84 4.10214 2.95047 0
M  V30 2013 C 194.038 4.36689 2.71675 0
M  V30 2014 N 192.02 5.48571 2.75577 0
M  V30 2015 C 193.391 5.62382 2.6101 0
M  V30 2016 C 195.446 4.26661 2.56641 0
M  V30 2017 C 194.149 6.79189 2.36843 0
M  V30 2018 C 196.175 5.432 2.33853 0
M  V30 2019 C 195.537 6.67855 2.23939 0
M  V30 2020 H 191.636 0.48024 0.617166 0
M  V30 2021 H 194.22 1.61727 1.08409 0
M  V30 2022 H 192.391 1.45963 3.59929 0
M  V30 2023 H 194.123 1.69541 3.67475 0
M  V30 2024 H 190.878 3.61762 3.05655 0
M  V30 2025 H 191.302 6.21287 2.68945 0
M  V30 2026 H 195.944 3.30998 2.63059 0
M  V30 2027 H 193.662 7.74926 2.29164 0
M  V30 2028 H 197.248 5.37328 2.23091 0
M  V30 2029 H 196.128 7.56511 2.06546 0
M  V30 2030 N 193.631 -1.12557 1.10312 0
M  V30 2031 C 194.578 -2.18247 0.750781 0
M  V30 2032 C 195.548 -1.63853 -0.272293 0
M  V30 2033 O 196.733 -1.90195 -0.151862 0
M  V30 2034 C 193.873 -3.44591 0.187379 0
M  V30 2035 C 192.986 -4.13046 1.2656 0
M  V30 2036 C 192.121 -5.27034 0.663978 0
M  V30 2037 C 191.16 -5.87353 1.72287 0
M  V30 2038 N 190.297 -6.92757 1.1416 0
M  V30 2039 H 195.137 -2.47732 1.65628 0
M  V30 2040 H 192.674 -1.21629 0.827337 0
M  V30 2041 H 194.632 -4.16904 -0.157148 0
M  V30 2042 H 193.262 -3.15527 -0.681355 0
M  V30 2043 H 192.314 -3.38924 1.72727 0
M  V30 2044 H 193.626 -4.53947 2.06721 0
M  V30 2045 H 192.78 -6.06104 0.268824 0
M  V30 2046 H 191.519 -4.87407 -0.169082 0
M  V30 2047 H 190.524 -5.06971 2.12746 0
M  V30 2048 H 191.749 -6.29051 2.55875 0
M  V30 2049 H 189.695 -6.5517 0.329984 0
M  V30 2050 H 189.612 -7.3225 1.88007 0
M  V30 2051 H 190.88 -7.75658 0.772956 0
M  V30 2052 N 195.109 -0.891671 -1.2995 0
M  V30 2053 C 196.039 -0.379797 -2.30391 0
M  V30 2054 C 197.02 0.540919 -1.6127 0
M  V30 2055 O 198.205 0.453352 -1.88834 0
M  V30 2056 C 195.335 0.400654 -3.44981 0
M  V30 2057 C 194.289 -0.428905 -4.25846 0
M  V30 2058 C 193.615 0.478557 -5.32554 0
M  V30 2059 C 194.915 -1.67458 -4.94727 0
M  V30 2060 H 196.609 -1.21914 -2.73454 0
M  V30 2061 H 194.155 -0.587675 -1.31462 0
M  V30 2062 H 196.108 0.769434 -4.14316 0
M  V30 2063 H 194.832 1.27371 -3.0074 0
M  V30 2064 H 193.491 -0.779911 -3.58208 0
M  V30 2065 H 193.139 1.34951 -4.84559 0
M  V30 2066 H 192.839 -0.0727433 -5.87555 0
M  V30 2067 H 194.363 0.843705 -6.04743 0
M  V30 2068 H 195.777 -1.376 -5.56542 0
M  V30 2069 H 194.174 -2.16659 -5.59624 0
M  V30 2070 H 195.244 -2.41518 -4.20473 0
M  V30 2071 N 196.587 1.43421 -0.653314 0
M  V30 2072 C 197.497 2.34568 0.0388565 0
M  V30 2073 C 198.513 1.53888 0.81207 0
M  V30 2074 O 199.689 1.86539 0.759294 0
M  V30 2075 C 196.754 3.32167 0.993269 0
M  V30 2076 C 195.815 4.28751 0.216977 0
M  V30 2077 C 195.048 5.21688 1.12593 0
M  V30 2078 O 195.271 5.19052 2.36519 0
M  V30 2079 O 194.205 5.98919 0.598284 0
M  V30 2080 H 198.031 2.95251 -0.711386 0
M  V30 2081 H 195.616 1.43564 -0.413502 0
M  V30 2082 H 197.498 3.92183 1.54176 0
M  V30 2083 H 196.173 2.73987 1.72374 0
M  V30 2084 H 195.08 3.72215 -0.375101 0
M  V30 2085 H 196.413 4.89913 -0.473924 0
M  V30 2086 N 198.065 0.39524 1.52563 0
M  V30 2087 C 199.313 -0.184678 2.01254 0
M  V30 2088 C 199.634 -1.46822 1.28329 0
M  V30 2089 O 198.904 -1.91666 0.405094 0
M  V30 2090 H 197.484 -0.0712355 0.743596 0
M  V30 2091 H 200.146 0.528293 1.87603 0
M  V30 2092 H 199.242 -0.390681 3.09645 0
M  V30 2093 N 199.544 -1.57102 0.125237 0
M  V30 2094 C 200.454 -2.19191 -0.8362 0
M  V30 2095 C 201.47 -1.16985 -1.28805 0
M  V30 2096 O 202.646 -1.49479 -1.34974 0
M  V30 2097 C 199.711 -2.78407 -2.06617 0
M  V30 2098 C 198.772 -3.9567 -1.66565 0
M  V30 2099 C 198.005 -4.52052 -2.83698 0
M  V30 2100 O 198.228 -4.07326 -3.99302 0
M  V30 2101 O 197.162 -5.42645 -2.60423 0
M  V30 2102 H 200.988 -3.01816 -0.337776 0
M  V30 2103 H 198.573 -1.4906 -0.100695 0
M  V30 2104 H 200.455 -3.16129 -2.7864 0
M  V30 2105 H 199.13 -1.9881 -2.55453 0
M  V30 2106 H 198.037 -3.62705 -0.916296 0
M  V30 2107 H 199.37 -4.76722 -1.22464 0
M  V30 2108 N 201.022 0.148545 -1.56898 0
M  V30 2109 C 201.985 1.16736 -1.97244 0
M  V30 2110 C 202.985 1.35947 -0.858777 0
M  V30 2111 O 204.175 1.32966 -1.12542 0
M  V30 2112 C 201.307 2.52798 -2.28705 0
M  V30 2113 H 202.5 0.821279 -2.88435 0
M  V30 2114 H 200.053 0.391831 -1.51309 0
M  V30 2115 H 200.788 2.92381 -1.403 0
M  V30 2116 H 200.573 2.40216 -3.09901 0
M  V30 2117 H 202.063 3.26179 -2.60762 0
M  V30 2118 N 202.5 1.5196 0.417844 0
M  V30 2119 C 203.43 1.77634 1.51554 0
M  V30 2120 C 204.411 0.626918 1.58126 0
M  V30 2121 O 205.596 0.871632 1.7354 0
M  V30 2122 C 202.726 1.91911 2.8946 0
M  V30 2123 C 201.68 3.07463 2.97743 0
M  V30 2124 C 201.006 3.06951 4.37819 0
M  V30 2125 C 202.306 4.47082 2.70027 0
M  V30 2126 H 204 2.6955 1.3032 0
M  V30 2127 H 201.546 1.29706 0.625492 0
M  V30 2128 H 203.499 2.08455 3.6623 0
M  V30 2129 H 202.223 0.966598 3.11969 0
M  V30 2130 H 200.882 2.90656 2.23416 0
M  V30 2131 H 200.53 2.09438 4.57323 0
M  V30 2132 H 200.23 3.84556 4.44286 0
M  V30 2133 H 201.754 3.25613 5.16535 0
M  V30 2134 H 203.168 4.6414 3.36522 0
M  V30 2135 H 201.565 5.2654 2.87881 0
M  V30 2136 H 202.635 4.55777 1.65514 0
M  V30 2137 N 203.978 -0.674533 1.42435 0
M  V30 2138 C 204.888 -1.81751 1.48337 0
M  V30 2139 C 205.904 -1.69975 0.372099 0
M  V30 2140 O 207.08 -1.91521 0.62304 0
M  V30 2141 C 204.145 -3.17895 1.38361 0
M  V30 2142 C 203.206 -3.41625 2.59982 0
M  V30 2143 C 202.439 -4.71274 2.50473 0
M  V30 2144 O 202.662 -5.49197 1.54075 0
M  V30 2145 O 201.596 -4.96254 3.4061 0
M  V30 2146 H 205.422 -1.79728 2.44809 0
M  V30 2147 H 203.007 -0.830312 1.24202 0
M  V30 2148 H 204.889 -3.99136 1.35161 0
M  V30 2149 H 203.564 -3.20555 0.450144 0
M  V30 2150 H 202.471 -2.60231 2.68757 0
M  V30 2151 H 203.804 -3.43796 3.52229 0
M  V30 2152 N 205.456 -1.28612 -0.910864 0
M  V30 2153 C 206.388 -1.08589 -2.01844 0
M  V30 2154 C 207.401 -0.0367419 -1.62759 0
M  V30 2155 O 208.59 -0.280101 -1.76289 0
M  V30 2156 C 205.69 -0.628626 -3.33019 0
M  V30 2157 C 204.863 -1.75382 -4.00699 0
M  V30 2158 C 203.922 -1.28945 -5.10156 0
M  V30 2159 O 202.948 -1.9922 -5.33198 0
M  V30 2160 N 204.15 -0.154224 -5.80295 0
M  V30 2161 H 206.915 -2.03973 -2.19579 0
M  V30 2162 H 204.476 -1.20403 -1.08234 0
M  V30 2163 H 206.468 -0.301508 -4.03575 0
M  V30 2164 H 205.038 0.232451 -3.11735 0
M  V30 2165 H 204.258 -2.25039 -3.23653 0
M  V30 2166 H 205.546 -2.50854 -4.42662 0
M  V30 2167 H 204.944 0.43194 -5.64049 0
M  V30 2168 H 203.501 0.113599 -6.51701 0
M  V30 2169 N 206.934 1.1197 -1.10907 0
M  V30 2170 C 207.897 2.16031 -0.765707 0
M  V30 2171 C 208.897 1.59393 0.212235 0
M  V30 2172 O 210.087 1.74196 -0.0115441 0
M  V30 2173 C 207.219 3.40632 -0.135053 0
M  V30 2174 H 208.412 2.47919 -1.68748 0
M  V30 2175 H 205.965 1.27061 -0.910226 0
M  V30 2176 H 206.7 3.14348 0.797218 0
M  V30 2177 H 206.485 3.8302 -0.838937 0
M  V30 2178 H 207.975 4.17505 0.0892469 0
M  V30 2179 N 208.412 0.89855 1.29475 0
M  V30 2180 C 209.661 0.519863 1.94885 0
M  V30 2181 C 209.974 -0.9383 1.71625 0
M  V30 2182 O 211.18 -1.42445 2.31131 0
M  V30 2183 C 209.636 0.878836 3.49005 0
M  V30 2184 C 209.244 2.35569 3.81066 0
M  V30 2185 C 210.988 0.570004 4.20656 0
M  V30 2186 C 208.895 2.65558 5.28425 0
M  V30 2187 H 207.825 0.190692 0.729488 0
M  V30 2188 H 210.476 1.09539 1.47219 0
M  V30 2189 H 208.858 0.232253 3.95318 0
M  V30 2190 H 210.032 3.04773 3.45616 0
M  V30 2191 H 208.347 2.63343 3.22552 0
M  V30 2192 H 210.944 0.770925 5.29113 0
M  V30 2193 H 211.287 -0.491404 4.1339 0
M  V30 2194 H 211.82 1.17438 3.8007 0
M  V30 2195 H 208.559 3.70493 5.40754 0
M  V30 2196 H 208.079 2.00977 5.65127 0
M  V30 2197 H 209.758 2.51765 5.96006 0
M  V30 2198 N 209.89 -1.43072 0.660911 0
M  V30 2199 C 211.139 -2.00942 0.174735 0
M  V30 2200 C 211.452 -1.52797 -1.22117 0
M  V30 2201 O 212.658 -2.02991 -1.80297 0
M  V30 2202 C 211.114 -3.58948 0.261559 0
M  V30 2203 C 210.722 -4.16085 1.66064 0
M  V30 2204 C 212.466 -4.24173 -0.166617 0
M  V30 2205 C 210.373 -5.6641 1.70098 0
M  V30 2206 H 209.303 -0.751483 0.0615631 0
M  V30 2207 H 211.954 -1.63955 0.824069 0
M  V30 2208 H 210.336 -3.93372 -0.455421 0
M  V30 2209 H 211.51 -3.93147 2.40359 0
M  V30 2210 H 209.825 -3.6326 2.03546 0
M  V30 2211 H 212.422 -5.34471 -0.156433 0
M  V30 2212 H 212.765 -3.98647 -1.19943 0
M  V30 2213 H 213.298 -3.94659 0.498875 0
M  V30 2214 H 210.037 -5.96715 2.71315 0
M  V30 2215 H 209.557 -5.91382 1.00139 0
M  V30 2216 H 211.236 -6.30585 1.44816 0
M  V30 2217 N 211.368 -0.403325 -1.52352 0
M  V30 2218 C 212.593 0.176499 -2.06648 0
M  V30 2219 C 213.018 1.38577 -1.27193 0
M  V30 2220 O 212.376 1.7879 -0.300637 0
M  V30 2221 C 212.424 0.511061 -3.5696 0
M  V30 2222 O 211.528 1.60294 -3.79973 0
M  V30 2223 H 210.869 0.0167337 -0.663789 0
M  V30 2224 H 213.399 -0.574848 -1.96359 0
M  V30 2225 H 213.409 0.771362 -4.00642 0
M  V30 2226 H 212.084 -0.37296 -4.14224 0
M  V30 2227 H 210.661 1.33526 -3.48174 0
M  V30 2228 N 212.846 1.57033 -0.133567 0
M  V30 2229 C 213.778 2.13176 0.841944 0
M  V30 2230 C 214.791 1.07794 1.22001 0
M  V30 2231 O 215.98 1.35117 1.16643 0
M  V30 2232 C 213.08 2.62847 2.13926 0
M  V30 2233 C 212.253 3.92486 1.93064 0
M  V30 2234 C 211.312 4.27605 3.0666 0
M  V30 2235 O 210.338 4.96168 2.78937 0
M  V30 2236 N 211.54 3.861 4.33483 0
M  V30 2237 H 214.305 2.97503 0.362192 0
M  V30 2238 H 211.866 1.61821 0.05042 0
M  V30 2239 H 213.858 2.83363 2.88942 0
M  V30 2240 H 212.428 1.83319 2.53205 0
M  V30 2241 H 211.648 3.80732 1.02159 0
M  V30 2242 H 212.936 4.77225 1.76447 0
M  V30 2243 H 212.334 3.30828 4.58878 0
M  V30 2244 H 210.891 4.11694 5.05323 0
M  V30 2245 N 214.325 -0.140222 1.56975 0
M  V30 2246 C 215.288 -1.15689 1.97861 0
M  V30 2247 C 216.288 -1.3549 0.865974 0
M  V30 2248 O 217.478 -1.32367 1.13246 0
M  V30 2249 C 214.61 -2.51582 2.30042 0
M  V30 2250 H 215.803 -0.805971 2.88867 0
M  V30 2251 H 213.356 -0.383801 1.51515 0
M  V30 2252 H 214.091 -2.91632 1.41849 0
M  V30 2253 H 213.876 -2.38569 3.11171 0
M  V30 2254 H 215.366 -3.24792 2.62488 0
M  V30 2255 N 215.803 -1.52179 -0.40978 0
M  V30 2256 C 217.214 -1.58377 -0.988615 0
M  V30 2257 C 217.565 -0.423879 -1.91566 0
M  V30 2258 O 216.69 0.455844 -2.11544 0
M  V30 2259 C 217.285 -2.87044 -1.79976 0
M  V30 2260 C 215.844 -2.95722 -2.32863 0
M  V30 2261 C 214.991 -2.53309 -1.12828 0
M  V30 2262 H 217.942 -1.57558 -0.190039 0
M  V30 2263 H 217.963 -2.7236 -2.65707 0
M  V30 2264 H 217.475 -3.71444 -1.12478 0
M  V30 2265 H 215.576 -2.15814 -3.03735 0
M  V30 2266 H 215.689 -3.99951 -2.63773 0
M  V30 2267 H 214.053 -2.07142 -1.48204 0
M  V30 2268 H 214.836 -3.40082 -0.46897 0
M  V30 2269 N 217.281 0.66697 -1.42791 0
M  V30 2270 C 218.213 1.7925 -1.42836 0
M  V30 2271 C 219.226 1.59496 -0.326333 0
M  V30 2272 O 220.415 1.6847 -0.589916 0
M  V30 2273 C 217.515 3.16476 -1.21229 0
M  V30 2274 C 216.688 3.63011 -2.44013 0
M  V30 2275 C 215.747 4.78993 -2.17834 0
M  V30 2276 O 214.773 4.89137 -2.91091 0
M  V30 2277 N 215.975 5.68248 -1.18635 0
M  V30 2278 H 218.74 1.79695 -2.39854 0
M  V30 2279 H 216.301 0.850338 -1.37771 0
M  V30 2280 H 218.293 3.91734 -1.01621 0
M  V30 2281 H 216.863 3.10884 -0.32706 0
M  V30 2282 H 216.083 2.78346 -2.79137 0
M  V30 2283 H 217.371 3.90845 -3.25757 0
M  V30 2284 H 216.769 5.62712 -0.580615 0
M  V30 2285 H 215.326 6.43285 -1.05013 0
M  V30 2286 N 218.759 1.29093 0.90403 0
M  V30 2287 C 220.005 1.16986 1.65656 0
M  V30 2288 C 220.338 -0.278925 1.92186 0
M  V30 2289 O 219.613 -1.2019 1.5292 0
M  V30 2290 C 219.896 1.97908 3.0084 0
M  V30 2291 C 219.749 3.50903 2.81403 0
M  V30 2292 C 221.068 1.80208 4.01513 0
M  V30 2293 H 218.187 0.426346 0.601164 0
M  V30 2294 H 220.829 1.58518 1.04747 0
M  V30 2295 H 218.979 1.62616 3.52829 0
M  V30 2296 H 220.651 3.96153 2.36348 0
M  V30 2297 H 218.894 3.76045 2.1627 0
M  V30 2298 H 219.565 4.02791 3.77443 0
M  V30 2299 H 222.041 2.11025 3.58619 0
M  V30 2300 H 220.917 2.39184 4.94047 0
M  V30 2301 H 221.178 0.756119 4.35586 0
M  V30 2302 N 220.237 -1.11381 1.11499 0
M  V30 2303 C 221.147 -2.21019 0.786628 0
M  V30 2304 C 222.163 -1.72597 -0.220507 0
M  V30 2305 O 223.339 -2.01321 -0.0565251 0
M  V30 2306 C 220.404 -3.459 0.235333 0
M  V30 2307 C 219.465 -4.09107 1.30115 0
M  V30 2308 C 218.698 -5.28027 0.776068 0
M  V30 2309 O 218.921 -5.6904 -0.393661 0
M  V30 2310 O 217.855 -5.81835 1.54114 0
M  V30 2311 H 221.681 -2.51521 1.70209 0
M  V30 2312 H 219.266 -1.19928 0.890928 0
M  V30 2313 H 221.148 -4.21346 -0.067715 0
M  V30 2314 H 219.823 -3.17049 -0.652828 0
M  V30 2315 H 218.73 -3.35391 1.65722 0
M  V30 2316 H 220.063 -4.42139 2.16273 0
M  V30 2317 N 221.715 -0.905404 -1.28997 0
M  V30 2318 C 222.662 -0.385892 -2.27551 0
M  V30 2319 C 223.632 0.535113 -1.57244 0
M  V30 2320 O 224.817 0.459119 -1.85194 0
M  V30 2321 C 221.957 0.375461 -3.43051 0
M  V30 2322 C 221.07 -0.577092 -4.28128 0
M  V30 2323 C 220.205 0.201879 -5.30816 0
M  V30 2324 C 219.244 -0.744829 -6.07551 0
M  V30 2325 N 218.381 9.42587e-05 -7.021 0
M  V30 2326 H 223.221 -1.23139 -2.71368 0
M  V30 2327 H 220.758 -0.618542 -1.33463 0
M  V30 2328 H 222.716 0.832992 -4.088 0
M  V30 2329 H 221.346 1.18537 -3.00248 0
M  V30 2330 H 220.398 -1.15315 -3.62501 0
M  V30 2331 H 221.71 -1.30152 -4.8152 0
M  V30 2332 H 220.864 0.720351 -6.02408 0
M  V30 2333 H 219.603 0.959413 -4.7817 0
M  V30 2334 H 218.608 -1.27475 -5.34818 0
M  V30 2335 H 219.833 -1.50178 -6.62286 0
M  V30 2336 H 217.779 0.739791 -6.51815 0
M  V30 2337 H 217.696 -0.664321 -7.53076 0
M  V30 2338 H 218.964 0.498644 -7.77903 0
M  V30 2339 N 223.193 1.4272 -0.668489 0
M  V30 2340 C 224.123 2.335 -0.000100175 0
M  V30 2341 C 225.104 1.50328 0.795964 0
M  V30 2342 O 226.289 1.78949 0.754385 0
M  V30 2343 C 223.419 3.33874 0.956302 0
M  V30 2344 C 222.373 4.27152 0.269278 0
M  V30 2345 C 221.699 5.17684 1.33818 0
M  V30 2346 C 222.999 5.15373 -0.847805 0
M  V30 2347 H 224.693 2.89639 -0.758244 0
M  V30 2348 H 222.239 1.39269 -0.366079 0
M  V30 2349 H 224.192 3.9629 1.43292 0
M  V30 2350 H 222.916 2.76025 1.74579 0
M  V30 2351 H 221.575 3.66123 -0.187042 0
M  V30 2352 H 221.223 4.56165 2.1195 0
M  V30 2353 H 220.923 5.80918 0.883659 0
M  V30 2354 H 222.447 5.82974 1.81586 0
M  V30 2355 H 223.861 5.7151 -0.452681 0
M  V30 2356 H 222.258 5.87407 -1.22773 0
M  V30 2357 H 223.328 4.5415 -1.69929 0
M  V30 2358 N 224.671 0.411399 1.52136 0
M  V30 2359 C 225.92 -0.165009 2.01024 0
M  V30 2360 C 226.233 -1.4603 1.30133 0
M  V30 2361 O 227.439 -2.1181 1.69849 0
M  V30 2362 C 225.895 -0.344618 3.58246 0
M  V30 2363 C 225.503 0.938716 4.38055 0
M  V30 2364 C 227.247 -0.876195 4.15359 0
M  V30 2365 C 225.154 0.726172 5.86925 0
M  V30 2366 H 224.084 -0.0654407 0.751155 0
M  V30 2367 H 226.735 0.537192 1.75461 0
M  V30 2368 H 225.117 -1.10921 3.80148 0
M  V30 2369 H 226.291 1.70963 4.27912 0
M  V30 2370 H 224.606 1.39688 3.92271 0
M  V30 2371 H 227.203 -1.05128 5.24263 0
M  V30 2372 H 227.546 -1.85152 3.7286 0
M  V30 2373 H 228.079 -0.170607 3.97434 0
M  V30 2374 H 224.818 1.67312 6.33788 0
M  V30 2375 H 224.338 -0.00540283 5.998 0
M  V30 2376 H 226.017 0.369231 6.45946 0
M  V30 2377 N 226.149 -1.5696 0.141893 0
M  V30 2378 C 227.112 -2.15316 -0.785587 0
M  V30 2379 C 228.112 -1.09366 -1.1788 0
M  V30 2380 O 229.302 -1.35031 -1.10056 0
M  V30 2381 C 226.434 -2.71211 -2.06537 0
M  V30 2382 H 227.627 -2.98608 -0.278041 0
M  V30 2383 H 225.18 -1.5593 -0.107519 0
M  V30 2384 H 225.915 -1.91571 -2.6167 0
M  V30 2385 H 225.7 -3.4872 -1.79268 0
M  V30 2386 H 227.19 -3.16189 -2.72789 0
M  V30 2387 N 227.627 0.131896 -1.57047 0
M  V30 2388 C 228.855 0.856461 -1.88341 0
M  V30 2389 C 229.27 1.74042 -0.731757 0
M  V30 2390 O 228.627 1.80051 0.297945 0
M  V30 2391 C 228.678 1.70064 -3.18999 0
M  V30 2392 O 228.399 0.852278 -4.2973 0
M  V30 2393 C 229.9 2.53148 -3.63911 0
M  V30 2394 H 227.12 0.246885 -0.62393 0
M  V30 2395 H 229.664 0.120152 -2.04147 0
M  V30 2396 H 227.819 2.38984 -3.04902 0
M  V30 2397 H 228.233 1.43329 -5.04537 0
M  V30 2398 H 229.707 3.07931 -4.58129 0
M  V30 2399 H 230.184 3.29901 -2.89935 0
M  V30 2400 H 230.79 1.89492 -3.80753 0
M  V30 2401 N 229.106 1.52395 0.401703 0
M  V30 2402 C 230.334 1.70676 1.16949 0
M  V30 2403 C 230.749 0.419503 1.8408 0
M  V30 2404 O 230.106 -0.605061 1.72178 0
M  V30 2405 C 230.157 2.84753 2.22706 0
M  V30 2406 O 229.878 4.08495 1.58314 0
M  V30 2407 C 231.379 3.14608 3.12309 0
M  V30 2408 H 228.599 0.571787 0.351142 0
M  V30 2409 H 231.143 1.98987 0.471652 0
M  V30 2410 H 229.298 2.58941 2.88147 0
M  V30 2411 H 229.712 4.72117 2.28485 0
M  V30 2412 H 231.186 3.97923 3.82572 0
M  V30 2413 H 231.663 2.28464 3.75101 0
M  V30 2414 H 232.269 3.42212 2.52529 0
M  V30 2415 N 230.584 -0.659388 1.43143 0
M  V30 2416 C 231.547 -1.75432 1.47501 0
M  V30 2417 C 232.547 -1.56707 0.360512 0
M  V30 2418 O 233.737 -1.62717 0.622002 0
M  V30 2419 C 230.869 -3.14239 1.32162 0
M  V30 2420 H 232.062 -1.7295 2.45006 0
M  V30 2421 H 229.615 -0.870469 1.29817 0
M  V30 2422 H 230.35 -3.22336 0.356401 0
M  V30 2423 H 230.135 -3.29235 2.12948 0
M  V30 2424 H 231.625 -3.94094 1.3813 0
M  V30 2425 N 232.062 -1.29571 -0.897171 0
M  V30 2426 C 233.012 -1.11539 -1.98855 0
M  V30 2427 C 233.996 -0.0340716 -1.60864 0
M  V30 2428 O 235.188 -0.256062 -1.75138 0
M  V30 2429 C 232.317 -0.796603 -3.3393 0
M  V30 2430 C 231.403 -1.91758 -3.78272 0
M  V30 2431 N 231.794 -3.16143 -3.94826 0
M  V30 2432 C 230.092 -1.81119 -4.07568 0
M  V30 2433 C 230.793 -3.89293 -4.32233 0
M  V30 2434 N 229.769 -3.17255 -4.41419 0
M  V30 2435 H 233.571 -2.05894 -2.09726 0
M  V30 2436 H 231.085 -1.20732 -1.08616 0
M  V30 2437 H 233.082 -0.648459 -4.11826 0
M  V30 2438 H 231.742 0.139003 -3.24402 0
M  V30 2439 H 232.753 -3.5157 -3.80288 0
M  V30 2440 H 229.43 -0.948461 -4.06584 0
M  V30 2441 H 230.82 -4.9635 -4.52865 0
M  V30 2442 N 233.54 1.10788 -1.12088 0
M  V30 2443 C 234.45 2.20599 -0.798338 0
M  V30 2444 C 235.466 1.72712 0.21135 0
M  V30 2445 O 236.642 2.01348 0.0458477 0
M  V30 2446 C 233.707 3.45771 -0.253674 0
M  V30 2447 C 232.768 4.08411 -1.32283 0
M  V30 2448 C 232.001 5.27608 -0.80406 0
M  V30 2449 O 232.224 5.69241 0.363478 0
M  V30 2450 O 231.158 5.8101 -1.57198 0
M  V30 2451 H 234.984 2.50614 -1.7154 0
M  V30 2452 H 232.569 1.19454 -0.897275 0
M  V30 2453 H 234.451 4.21376 0.0453691 0
M  V30 2454 H 233.126 3.1739 0.636005 0
M  V30 2455 H 232.033 3.34507 -1.67499 0
M  V30 2456 H 233.366 4.40986 -2.18614 0
M  V30 2457 N 235.018 0.912232 1.28515 0
M  V30 2458 C 236.434 0.610159 1.47476 0
M  V30 2459 C 236.634 -0.844955 1.82928 0
M  V30 2460 O 235.69 -1.62416 1.93332 0
M  V30 2461 C 237.003 1.54675 2.57868 0
M  V30 2462 C 238.551 1.55331 2.71738 0
M  V30 2463 C 239.026 2.47649 3.85272 0
M  V30 2464 N 240.517 2.45767 3.92623 0
M  V30 2465 C 241.252 3.13896 4.79851 0
M  V30 2466 N 240.748 3.9135 5.71679 0
M  V30 2467 N 242.541 3.02991 4.73448 0
M  V30 2468 H 234.692 1.85318 1.03783 0
M  V30 2469 H 236.955 0.794777 0.516753 0
M  V30 2470 H 236.661 2.5841 2.38574 0
M  V30 2471 H 236.535 1.27671 3.54937 0
M  V30 2472 H 238.922 0.52335 2.90422 0
M  V30 2473 H 239.003 1.86378 1.75205 0
M  V30 2474 H 238.647 3.50745 3.67342 0
M  V30 2475 H 238.577 2.13904 4.81199 0
M  V30 2476 H 241.068 1.89503 3.26951 0
M  V30 2477 H 241.381 4.40359 6.35062 0
M  V30 2478 H 239.726 3.95455 5.71524 0
M  V30 2479 H 242.917 2.41987 4.007 0
M  V30 2480 H 243.09 3.5636 5.41213 0
M  V30 2481 N 236.496 -1.42363 0.676048 0
M  V30 2482 C 237.429 -2.28141 -0.0516916 0
M  V30 2483 C 238.407 -1.41135 -0.807439 0
M  V30 2484 O 239.591 -1.70573 -0.802305 0
M  V30 2485 C 236.718 -3.21007 -1.08039 0
M  V30 2486 C 235.764 -4.24426 -0.420076 0
M  V30 2487 S 236.597 -5.29134 0.823246 0
M  V30 2488 C 237.753 -6.25566 -0.204344 0
M  V30 2489 H 237.986 -2.89515 0.675884 0
M  V30 2490 H 235.519 -1.47211 0.465635 0
M  V30 2491 H 237.477 -3.75048 -1.66881 0
M  V30 2492 H 236.138 -2.58766 -1.78042 0
M  V30 2493 H 235.331 -4.89596 -1.19633 0
M  V30 2494 H 234.933 -3.7388 0.0947845 0
M  V30 2495 H 237.225 -6.69098 -1.06369 0
M  V30 2496 H 238.168 -7.06895 0.412915 0
M  V30 2497 H 238.576 -5.61811 -0.55038 0
M  V30 2498 N 237.974 -0.419461 -1.51915 0
M  V30 2499 C 239.385 0.0477853 -1.86639 0
M  V30 2500 C 239.736 1.43531 -1.33766 0
M  V30 2501 O 238.861 2.05401 -0.68113 0
M  V30 2502 C 239.456 0.0934885 -3.38671 0
M  V30 2503 C 238.015 0.505097 -3.72996 0
M  V30 2504 C 237.162 -0.313792 -2.75519 0
M  V30 2505 H 240.113 -0.636088 -1.45395 0
M  V30 2506 H 240.134 0.906667 -3.6954 0
M  V30 2507 H 239.646 -0.916501 -3.77123 0
M  V30 2508 H 237.747 1.52135 -3.40126 0
M  V30 2509 H 237.86 0.242309 -4.78487 0
M  V30 2510 H 236.224 0.225363 -2.53701 0
M  V30 2511 H 237.007 -1.32232 -3.16812 0
M  V30 2512 N 239.452 1.56882 -0.150215 0
M  V30 2513 C 240.698 1.97299 0.494427 0
M  V30 2514 C 241.053 1.0338 1.62266 0
M  V30 2515 O 240.346 0.0694497 1.91474 0
M  V30 2516 C 240.54 3.41801 1.04437 0
M  V30 2517 C 240.369 4.49691 -0.0290451 0
M  V30 2518 C 239.139 5.03095 -0.47156 0
M  V30 2519 C 241.337 5.07693 -0.821703 0
M  V30 2520 N 239.319 5.94593 -1.52749 0
M  V30 2521 C 240.69 5.95431 -1.72805 0
M  V30 2522 C 242.745 4.90256 -0.869134 0
M  V30 2523 C 241.448 6.67599 -2.67777 0
M  V30 2524 C 243.474 5.63127 -1.8067 0
M  V30 2525 C 242.836 6.50576 -2.70057 0
M  V30 2526 H 238.935 0.76755 0.149639 0
M  V30 2527 H 241.519 1.93145 -0.24556 0
M  V30 2528 H 239.69 3.46541 1.75396 0
M  V30 2529 H 241.422 3.69272 1.6559 0
M  V30 2530 H 238.177 4.73543 -0.0732101 0
M  V30 2531 H 238.601 6.45047 -2.05531 0
M  V30 2532 H 243.243 4.22363 -0.192134 0
M  V30 2533 H 240.961 7.34717 -3.36476 0
M  V30 2534 H 244.547 5.51629 -1.84924 0
M  V30 2535 H 243.427 7.05974 -3.41424 0
M  V30 2536 N 240.93 -0.123565 1.57115 0
M  V30 2537 C 242.16 -0.845233 1.88519 0
M  V30 2538 C 242.568 -1.74168 0.739064 0
M  V30 2539 O 241.911 -1.81244 -0.299355 0
M  V30 2540 C 241.973 -1.73452 3.14888 0
M  V30 2541 C 241.637 -1.01285 4.45635 0
M  V30 2542 C 242.634 -0.355774 5.18681 0
M  V30 2543 C 240.319 -0.99538 4.92339 0
M  V30 2544 C 242.313 0.309114 6.3665 0
M  V30 2545 C 240 -0.32669 6.10226 0
M  V30 2546 C 240.998 0.324406 6.82229 0
M  V30 2547 O 240.686 0.982437 7.97874 0
M  V30 2548 H 240.418 -0.248534 0.628655 0
M  V30 2549 H 242.972 -0.113907 2.05084 0
M  V30 2550 H 241.202 -2.50737 2.94394 0
M  V30 2551 H 242.891 -2.33021 3.32349 0
M  V30 2552 H 243.657 -0.360918 4.83655 0
M  V30 2553 H 239.536 -1.49159 4.36202 0
M  V30 2554 H 243.08 0.8179 6.92789 0
M  V30 2555 H 238.977 -0.319294 6.4471 0
M  V30 2556 H 239.745 0.886454 8.13686 0
M  V30 2557 N 242.408 -1.52605 -0.393616 0
M  V30 2558 C 243.358 -1.73436 -1.48 0
M  V30 2559 C 244.342 -0.588386 -1.49756 0
M  V30 2560 O 245.534 -0.846047 -1.5547 0
M  V30 2561 C 242.663 -1.90247 -2.85764 0
M  V30 2562 C 241.749 -3.10763 -2.88595 0
M  V30 2563 N 242.14 -4.33196 -2.61103 0
M  V30 2564 C 240.438 -3.10914 -3.19763 0
M  V30 2565 C 241.139 -5.1477 -2.70899 0
M  V30 2566 N 240.115 -4.50356 -3.04435 0
M  V30 2567 H 243.917 -2.65727 -1.25563 0
M  V30 2568 H 241.431 -1.5085 -0.601513 0
M  V30 2569 H 243.428 -2.03291 -3.63976 0
M  V30 2570 H 242.088 -0.991663 -3.09186 0
M  V30 2571 H 243.099 -4.61408 -2.35209 0
M  V30 2572 H 239.776 -2.29626 -3.4868 0
M  V30 2573 H 241.166 -6.22355 -2.53227 0
M  V30 2574 N 243.887 0.651787 -1.4349 0
M  V30 2575 C 245.112 1.44434 -1.48841 0
M  V30 2576 C 245.537 1.8779 -0.107955 0
M  V30 2577 O 244.895 1.57464 0.898602 0
M  V30 2578 C 244.943 2.65458 -2.44059 0
M  V30 2579 O 244.047 3.64566 -1.92784 0
M  V30 2580 H 243.388 0.433005 -0.503391 0
M  V30 2581 H 245.918 0.797451 -1.88419 0
M  V30 2582 H 245.928 3.13255 -2.6141 0
M  V30 2583 H 244.603 2.33244 -3.4434 0
M  V30 2584 H 243.18 3.23716 -1.851 0
M  V30 2585 N 245.365 1.30045 0.890287 0
M  V30 2586 C 246.59 1.21598 1.68014 0
M  V30 2587 C 247.015 -0.218678 1.86825 0
M  V30 2588 O 246.373 -1.15756 1.39536 0
M  V30 2589 C 246.421 1.94434 3.03691 0
M  V30 2590 O 245.525 1.2678 3.92429 0
M  V30 2591 H 244.866 0.420856 0.513592 0
M  V30 2592 H 247.396 1.71775 1.11151 0
M  V30 2593 H 247.406 2.03251 3.5377 0
M  V30 2594 H 246.081 2.98777 2.89318 0
M  V30 2595 H 244.658 1.26282 3.50866 0
M  V30 2596 N 246.843 -1.10192 1.12674 0
M  V30 2597 C 247.773 -2.18652 0.819362 0
M  V30 2598 C 248.754 -1.68698 -0.217915 0
M  V30 2599 O 249.939 -1.94041 -0.0785581 0
M  V30 2600 C 247.069 -3.46202 0.27594 0
M  V30 2601 C 246.023 -4.09444 1.24656 0
M  V30 2602 C 245.349 -5.31725 0.563258 0
M  V30 2603 C 246.649 -4.52863 2.60217 0
M  V30 2604 H 248.343 -2.44622 1.72628 0
M  V30 2605 H 245.889 -1.17571 0.831451 0
M  V30 2606 H 247.842 -4.21372 0.0486149 0
M  V30 2607 H 246.566 -3.1973 -0.666331 0
M  V30 2608 H 245.225 -3.36284 1.45974 0
M  V30 2609 H 244.873 -5.0153 -0.384235 0
M  V30 2610 H 244.573 -5.74991 1.21075 0
M  V30 2611 H 246.097 -6.09624 0.34503 0
M  V30 2612 H 247.511 -5.19294 2.42913 0
M  V30 2613 H 245.908 -5.06986 3.21068 0
M  V30 2614 H 246.978 -3.65656 3.18471 0
M  V30 2615 N 248.321 -0.919034 -1.28029 0
M  V30 2616 C 249.549 -0.570971 -1.98866 0
M  V30 2617 C 249.964 0.848996 -1.68634 0
M  V30 2618 O 249.321 1.56307 -0.942036 0
M  V30 2619 C 249.372 -0.776876 -3.53054 0
M  V30 2620 O 249.093 -2.14097 -3.82222 0
M  V30 2621 C 250.594 -0.436356 -4.41147 0
M  V30 2622 H 247.814 -0.217175 -0.634883 0
M  V30 2623 H 250.358 -1.23368 -1.63097 0
M  V30 2624 H 248.513 -0.161085 -3.87065 0
M  V30 2625 H 248.927 -2.18455 -4.76841 0
M  V30 2626 H 250.401 -0.63117 -5.4838 0
M  V30 2627 H 250.878 0.627686 -4.34692 0
M  V30 2628 H 251.484 -1.02991 -4.12641 0
M  V30 2629 N 249.799 1.42003 -0.683588 0
M  V30 2630 C 251.215 1.55625 -0.353976 0
M  V30 2631 C 251.415 1.66151 1.14 0
M  V30 2632 O 250.471 1.63329 1.92561 0
M  V30 2633 C 251.784 2.80171 -1.092 0
M  V30 2634 C 253.332 2.93954 -1.07518 0
M  V30 2635 C 253.807 4.21372 -1.79471 0
M  V30 2636 N 255.298 4.28303 -1.76381 0
M  V30 2637 C 256.033 5.25729 -2.28904 0
M  V30 2638 N 255.529 6.29254 -2.89846 0
M  V30 2639 N 257.322 5.17586 -2.19228 0
M  V30 2640 H 249.473 1.33415 -1.6527 0
M  V30 2641 H 251.736 0.64282 -0.696769 0
M  V30 2642 H 251.442 2.78561 -2.14701 0
M  V30 2643 H 251.316 3.7133 -0.662862 0
M  V30 2644 H 253.703 2.95086 -0.028475 0
M  V30 2645 H 253.784 2.04002 -1.54328 0
M  V30 2646 H 253.428 4.21001 -2.84114 0
M  V30 2647 H 253.358 5.10275 -1.30104 0
M  V30 2648 H 255.849 3.54119 -1.31939 0
M  V30 2649 H 256.162 6.99964 -3.27522 0
M  V30 2650 H 254.507 6.29791 -2.93919 0
M  V30 2651 H 257.698 4.35631 -1.71299 0
M  V30 2652 H 257.871 5.93348 -2.60466 0
M  V30 2653 N 251.277 0.427512 1.51691 0
M  V30 2654 C 252.187 -0.39527 2.31246 0
M  V30 2655 C 253.203 -1.03674 1.39742 0
M  V30 2656 O 254.379 -1.03425 1.72816 0
M  V30 2657 C 251.444 -1.48706 3.13189 0
M  V30 2658 C 250.505 -0.866743 4.20459 0
M  V30 2659 C 249.738 -1.90651 4.98486 0
M  V30 2660 O 249.961 -3.12733 4.77026 0
M  V30 2661 O 248.895 -1.5025 5.82845 0
M  V30 2662 H 252.721 0.253918 3.02637 0
M  V30 2663 H 250.306 0.190274 1.48183 0
M  V30 2664 H 252.188 -2.12047 3.64162 0
M  V30 2665 H 250.863 -2.12051 2.44573 0
M  V30 2666 H 249.77 -0.195544 3.73589 0
M  V30 2667 H 251.103 -0.276934 4.9142 0
M  V30 2668 N 252.755 -1.56801 0.158532 0
M  V30 2669 C 253.665 -2.20916 -0.789518 0
M  V30 2670 C 254.681 -1.1969 -1.26294 0
M  V30 2671 O 255.857 -1.52308 -1.31773 0
M  V30 2672 C 252.922 -2.82727 -2.00665 0
M  V30 2673 C 251.983 -3.99114 -1.58134 0
M  V30 2674 C 251.216 -4.57968 -2.74045 0
M  V30 2675 O 251.439 -4.15704 -3.90572 0
M  V30 2676 O 250.373 -5.48047 -2.48855 0
M  V30 2677 H 254.199 -3.02464 -0.273681 0
M  V30 2678 H 251.784 -1.4924 -0.0690548 0
M  V30 2679 H 253.666 -3.21968 -2.71872 0
M  V30 2680 H 252.341 -2.04184 -2.51179 0
M  V30 2681 H 251.248 -3.64567 -0.839155 0
M  V30 2682 H 252.581 -4.79212 -1.12325 0
M  V30 2683 N 254.233 0.115231 -1.57178 0
M  V30 2684 C 255.196 1.12526 -1.99676 0
M  V30 2685 C 256.196 1.34095 -0.88742 0
M  V30 2686 O 257.386 1.30548 -1.15337 0
M  V30 2687 C 254.518 2.4789 -2.34015 0
M  V30 2688 H 255.711 0.759912 -2.90113 0
M  V30 2689 H 253.264 0.359648 -1.52106 0
M  V30 2690 H 253.999 2.89339 -1.4647 0
M  V30 2691 H 253.784 2.33588 -3.14927 0
M  V30 2692 H 255.274 3.20575 -2.67622 0
M  V30 2693 N 255.711 1.52812 0.385517 0
M  V30 2694 C 256.621 1.80766 1.49535 0
M  V30 2695 C 257.637 0.694651 1.59532 0
M  V30 2696 O 258.813 0.982611 1.75803 0
M  V30 2697 C 255.878 1.97381 2.85029 0
M  V30 2698 C 254.939 3.21295 2.84724 0
M  V30 2699 C 254.172 3.37108 4.13756 0
M  V30 2700 O 254.395 2.5765 5.08893 0
M  V30 2701 O 253.329 4.30378 4.20783 0
M  V30 2702 H 257.155 2.75015 1.28842 0
M  V30 2703 H 254.74 1.37946 0.573697 0
M  V30 2704 H 256.622 2.09996 3.65349 0
M  V30 2705 H 255.297 1.06322 3.05741 0
M  V30 2706 H 254.204 3.1412 2.03174 0
M  V30 2707 H 255.537 4.12212 2.68965 0
M  V30 2708 N 257.189 -0.644168 1.43834 0
M  V30 2709 C 258.605 -0.960875 1.27434 0
M  V30 2710 C 258.805 -2.00499 0.200618 0
M  V30 2711 O 257.861 -2.49018 -0.417906 0
M  V30 2712 C 259.174 -1.43653 2.64167 0
M  V30 2713 C 260.722 -1.55271 2.71772 0
M  V30 2714 C 261.197 -2.06224 4.08944 0
M  V30 2715 N 262.688 -2.13513 4.11055 0
M  V30 2716 C 263.423 -2.54081 5.14033 0
M  V30 2717 N 262.919 -2.9388 6.27381 0
M  V30 2718 N 264.712 -2.54101 5.01387 0
M  V30 2719 H 256.863 0.0465779 2.12349 0
M  V30 2720 H 259.126 -0.0417638 0.94708 0
M  V30 2721 H 258.832 -0.743706 3.43747 0
M  V30 2722 H 258.706 -2.40993 2.90176 0
M  V30 2723 H 261.093 -2.23653 1.92519 0
M  V30 2724 H 261.174 -0.563395 2.49519 0
M  V30 2725 H 260.818 -1.38441 4.88668 0
M  V30 2726 H 260.748 -3.06003 4.28567 0
M  V30 2727 H 263.239 -1.85493 3.29242 0
M  V30 2728 H 263.552 -3.2361 7.01781 0
M  V30 2729 H 261.897 -2.91663 6.30839 0
M  V30 2730 H 265.088 -2.22391 4.11898 0
M  V30 2731 H 265.261 -2.85394 5.81768 0
M  V30 2732 N 258.668 -1.30515 -0.883378 0
M  V30 2733 C 259.615 -1.17032 -1.98927 0
M  V30 2734 C 260.585 -0.0594241 -1.65994 0
M  V30 2735 O 261.77 -0.229895 -1.8941 0
M  V30 2736 C 258.91 -0.869777 -3.33959 0
M  V30 2737 C 258.023 -2.06271 -3.79574 0
M  V30 2738 C 257.158 -1.70011 -5.03259 0
M  V30 2739 C 256.197 -2.8579 -5.41286 0
M  V30 2740 N 255.334 -2.49816 -6.56153 0
M  V30 2741 H 260.174 -2.1164 -2.09792 0
M  V30 2742 H 257.711 -1.05296 -1.02719 0
M  V30 2743 H 259.669 -0.676138 -4.11685 0
M  V30 2744 H 258.299 0.0394332 -3.22776 0
M  V30 2745 H 257.351 -2.36755 -2.97744 0
M  V30 2746 H 258.663 -2.92971 -4.03694 0
M  V30 2747 H 257.817 -1.47032 -5.88614 0
M  V30 2748 H 256.556 -0.804829 -4.81013 0
M  V30 2749 H 255.561 -3.09434 -4.54456 0
M  V30 2750 H 256.786 -3.76008 -5.65504 0
M  V30 2751 H 254.732 -1.62795 -6.35479 0
M  V30 2752 H 254.649 -3.30048 -6.8015 0
M  V30 2753 H 255.917 -2.30197 -7.44735 0
M  V30 2754 N 260.146 1.09593 -1.13257 0
M  V30 2755 C 261.076 2.18214 -0.830946 0
M  V30 2756 C 262.057 1.68812 0.208966 0
M  V30 2757 O 263.242 1.9408 0.0682666 0
M  V30 2758 C 260.372 3.46051 -0.294296 0
M  V30 2759 C 259.326 4.08778 -1.26826 0
M  V30 2760 C 258.652 5.31419 -0.591449 0
M  V30 2761 C 259.952 4.51476 -2.62615 0
M  V30 2762 H 261.646 2.43703 -1.73923 0
M  V30 2763 H 259.192 1.17128 -0.837675 0
M  V30 2764 H 261.145 4.2134 -0.0709606 0
M  V30 2765 H 259.869 3.20079 0.649366 0
M  V30 2766 H 258.528 3.35505 -1.47756 0
M  V30 2767 H 258.176 5.01727 0.357633 0
M  V30 2768 H 257.876 5.74341 -1.24123 0
M  V30 2769 H 259.4 6.09433 -0.377355 0
M  V30 2770 H 260.814 5.17999 -2.45663 0
M  V30 2771 H 259.211 5.05277 -3.23752 0
M  V30 2772 H 260.281 3.63962 -3.20406 0
M  V30 2773 N 261.624 0.925811 1.2754 0
M  V30 2774 C 262.854 0.580666 1.98272 0
M  V30 2775 C 263.262 -0.845207 1.69272 0
M  V30 2776 O 262.605 -1.57306 0.948707 0
M  V30 2777 C 262.667 0.724418 3.52126 0
M  V30 2778 C 262.331 2.12206 4.04744 0
M  V30 2779 C 263.328 3.09604 4.17662 0
M  V30 2780 C 261.013 2.4385 4.39138 0
M  V30 2781 C 263.007 4.36755 4.64246 0
M  V30 2782 C 260.694 3.71237 4.85414 0
M  V30 2783 C 261.692 4.67503 4.97926 0
M  V30 2784 O 261.38 5.92624 5.43187 0
M  V30 2785 H 261.112 0.218987 0.639547 0
M  V30 2786 H 263.666 1.24452 1.63404 0
M  V30 2787 H 261.896 0.0034663 3.867 0
M  V30 2788 H 263.585 0.384607 4.04074 0
M  V30 2789 H 264.351 2.86478 3.91351 0
M  V30 2790 H 260.23 1.69665 4.28643 0
M  V30 2791 H 263.774 5.11898 4.73927 0
M  V30 2792 H 259.671 3.94182 5.11166 0
M  V30 2793 H 260.439 5.95585 5.61445 0
M  V30 2794 N 263.102 -1.41638 0.69111 0
M  V30 2795 C 264.327 -2.06148 0.227583 0
M  V30 2796 C 264.752 -1.51652 -1.11281 0
M  V30 2797 O 264.11 -0.64164 -1.69566 0
M  V30 2798 C 264.158 -3.60095 0.190858 0
M  V30 2799 O 263.262 -4.03845 -0.835664 0
M  V30 2800 H 262.603 -0.654434 0.112306 0
M  V30 2801 H 265.133 -1.81484 0.944714 0
M  V30 2802 H 265.143 -4.07995 0.020207 0
M  V30 2803 H 263.818 -3.99129 1.16915 0
M  V30 2804 H 262.395 -3.67458 -0.63473 0
M  V30 2805 N 264.58 -0.43555 -1.51462 0
M  V30 2806 C 265.828 0.131254 -2.01673 0
M  V30 2807 C 266.149 1.43368 -1.32177 0
M  V30 2808 O 265.419 1.90524 -0.455769 0
M  V30 2809 H 263.999 0.0514954 -0.745223 0
M  V30 2810 H 266.661 -0.577847 -1.86137 0
M  V30 2811 H 265.757 0.308446 -3.10572 0
M  V30 2812 N 266.058 1.56714 -0.166846 0
M  V30 2813 C 267.021 2.16539 0.751232 0
M  V30 2814 C 268.021 1.11228 1.16125 0
M  V30 2815 O 269.211 1.36765 1.07894 0
M  V30 2816 C 266.343 2.74462 2.02196 0
M  V30 2817 H 267.536 2.99013 0.230499 0
M  V30 2818 H 265.089 1.56081 0.0826982 0
M  V30 2819 H 265.824 1.95709 2.58589 0
M  V30 2820 H 265.609 3.51527 1.73698 0
M  V30 2821 H 267.099 3.20489 2.67725 0
M  V30 2822 N 267.536 -0.106894 1.57237 0
M  V30 2823 C 268.468 -1.15646 1.97885 0
M  V30 2824 C 269.481 -1.36981 0.879779 0
M  V30 2825 O 270.67 -1.35841 1.15799 0
M  V30 2826 C 267.77 -2.51425 2.27241 0
M  V30 2827 C 266.943 -2.50529 3.58545 0
M  V30 2828 C 266.002 -3.68145 3.75973 0
M  V30 2829 O 265.028 -3.51176 4.47956 0
M  V30 2830 N 266.23 -4.87177 3.15656 0
M  V30 2831 H 268.995 -0.81059 2.8853 0
M  V30 2832 H 266.556 -0.296024 1.59171 0
M  V30 2833 H 268.548 -3.28689 2.36105 0
M  V30 2834 H 267.118 -2.78147 1.42663 0
M  V30 2835 H 266.338 -1.58894 3.60758 0
M  V30 2836 H 267.626 -2.46997 4.44826 0
M  V30 2837 H 267.024 -5.03868 2.57165 0
M  V30 2838 H 265.581 -5.62075 3.30023 0
M  V30 2839 N 269.014 -1.53014 -0.377408 0
M  V30 2840 C 270.242 -1.72515 -1.14219 0
M  V30 2841 C 270.657 -0.448735 -1.8339 0
M  V30 2842 O 270.014 0.577592 -1.73119 0
M  V30 2843 C 270.065 -2.8826 -2.18148 0
M  V30 2844 O 269.786 -4.10962 -1.51795 0
M  V30 2845 C 271.287 -3.19536 -3.07264 0
M  V30 2846 H 268.507 -0.577301 -0.342001 0
M  V30 2847 H 271.051 -1.99712 -0.439935 0
M  V30 2848 H 269.206 -2.63492 -2.83991 0
M  V30 2849 H 269.62 -4.75693 -2.20945 0
M  V30 2850 H 271.094 -4.03959 -3.76193 0
M  V30 2851 H 271.571 -2.34403 -3.71419 0
M  V30 2852 H 272.177 -3.46186 -2.47053 0
M  V30 2853 N 270.492 0.636531 -1.44174 0
M  V30 2854 C 271.769 1.39463 -1.37148 0
M  V30 2855 C 272.149 2.11082 -0.027507 0
M  V30 2856 O 271.497 2.05954 0.989716 0
M  V30 2857 C 271.707 2.36552 -2.56601 0
M  V30 2858 C 273.055 3.00048 -3.00427 0
M  V30 2859 O 274.079 2.46878 -2.56767 0
M  V30 2860 O 272.938 3.96488 -3.76111 0
M  V30 2861 H 270.032 0.623903 -0.542839 0
M  V30 2862 H 272.578 0.662039 -1.56253 0
M  V30 2863 H 271.35 1.82692 -3.46034 0
M  V30 2864 H 270.973 3.17236 -2.39681 0
M  V30 2865 N 271.97 1.30982 0.876444 0
M  V30 2866 C 273.218 1.20058 1.62575 0
M  V30 2867 C 273.539 -0.242947 1.93481 0
M  V30 2868 O 272.809 -1.1619 1.57724 0
M  V30 2869 H 271.389 0.44135 0.602677 0
M  V30 2870 H 274.051 1.64222 1.04962 0
M  V30 2871 H 273.147 1.76762 2.57219 0
M  V30 2872 N 273.449 -1.08991 1.13837 0
M  V30 2873 C 274.396 -2.15748 0.819835 0
M  V30 2874 C 275.366 -1.64636 -0.220026 0
M  V30 2875 O 276.551 -1.90582 -0.0912757 0
M  V30 2876 C 273.691 -3.4382 0.296913 0
M  V30 2877 C 272.804 -4.0881 1.39636 0
M  V30 2878 C 271.939 -5.24655 0.831314 0
M  V30 2879 C 270.978 -5.81575 1.90886 0
M  V30 2880 N 270.115 -6.88774 1.36142 0
M  V30 2881 H 274.955 -2.42338 1.73426 0
M  V30 2882 H 272.492 -1.18935 0.865613 0
M  V30 2883 H 274.45 -4.17193 -0.0244339 0
M  V30 2884 H 273.08 -3.17535 -0.580628 0
M  V30 2885 H 272.132 -3.33258 1.83422 0
M  V30 2886 H 273.444 -4.47141 2.21058 0
M  V30 2887 H 272.598 -6.04942 0.461515 0
M  V30 2888 H 271.337 -4.87698 -0.013932 0
M  V30 2889 H 270.342 -4.99946 2.28767 0
M  V30 2890 H 271.567 -6.20592 2.75758 0
M  V30 2891 H 269.513 -6.53788 0.538254 0
M  V30 2892 H 269.43 -7.25898 2.11208 0
M  V30 2893 H 270.698 -7.72806 1.01933 0
M  V30 2894 N 274.927 -0.932562 -1.27047 0
M  V30 2895 C 276.174 -0.575559 -1.94148 0
M  V30 2896 C 276.502 0.883984 -1.73251 0
M  V30 2897 O 275.757 1.64655 -1.0577 0
M  V30 2898 C 276.056 -0.853713 -3.47054 0
M  V30 2899 C 275.722 -2.29577 -3.88079 0
M  V30 2900 C 274.384 -2.68999 -3.9899 0
M  V30 2901 C 276.736 -3.23331 -4.08787 0
M  V30 2902 C 274.064 -4.01289 -4.28 0
M  V30 2903 C 276.416 -4.55207 -4.39282 0
M  V30 2904 C 275.08 -4.94457 -4.48407 0
M  V30 2905 H 274.35 -0.210612 -0.710439 0
M  V30 2906 H 276.997 -1.17744 -1.51025 0
M  V30 2907 H 275.302 -0.169204 -3.91434 0
M  V30 2908 H 276.999 -0.55639 -3.97121 0
M  V30 2909 H 273.589 -1.97994 -3.80127 0
M  V30 2910 H 277.773 -2.94074 -3.99793 0
M  V30 2911 H 273.029 -4.31374 -4.33275 0
M  V30 2912 H 277.203 -5.27852 -4.54252 0
M  V30 2913 H 274.83 -5.96994 -4.7064 0
M  V30 2914 N 276.405 1.4127 -0.698611 0
M  V30 2915 C 277.335 2.33447 -0.049629 0
M  V30 2916 C 278.316 1.51982 0.763898 0
M  V30 2917 O 279.501 1.80509 0.716257 0
M  V30 2918 C 276.631 3.35828 0.885267 0
M  V30 2919 C 275.585 4.27627 0.178613 0
M  V30 2920 C 274.911 5.20406 1.22807 0
M  V30 2921 C 276.211 5.13459 -0.956933 0
M  V30 2922 H 277.905 2.87966 -0.81951 0
M  V30 2923 H 275.451 1.38461 -0.395538 0
M  V30 2924 H 277.404 3.9924 1.34854 0
M  V30 2925 H 276.128 2.79666 1.68685 0
M  V30 2926 H 274.787 3.65643 -0.26466 0
M  V30 2927 H 274.435 4.60558 2.02226 0
M  V30 2928 H 274.135 5.82661 0.760239 0
M  V30 2929 H 275.659 5.86695 1.69179 0
M  V30 2930 H 277.073 5.70421 -0.573805 0
M  V30 2931 H 275.47 5.8467 -1.35205 0
M  V30 2932 H 276.54 4.50443 -1.79524 0
M  V30 2933 N 277.883 0.443576 1.51229 0
M  V30 2934 C 278.813 -0.355142 2.30783 0
M  V30 2935 C 279.794 -1.0154 1.36468 0
M  V30 2936 O 280.979 -1.01785 1.65389 0
M  V30 2937 C 278.109 -1.45312 3.15439 0
M  V30 2938 C 277.063 -0.916002 4.18083 0
M  V30 2939 C 276.389 -2.1102 4.91299 0
M  V30 2940 C 277.689 0.0538602 5.22272 0
M  V30 2941 H 279.383 0.308767 2.97804 0
M  V30 2942 H 276.929 0.149937 1.43217 0
M  V30 2943 H 278.882 -2.01914 3.69876 0
M  V30 2944 H 277.606 -2.14541 2.46252 0
M  V30 2945 H 276.265 -0.372145 3.64706 0
M  V30 2946 H 275.913 -2.78882 4.18609 0
M  V30 2947 H 275.613 -1.75717 5.60712 0
M  V30 2948 H 277.137 -2.68164 5.48562 0
M  V30 2949 H 278.551 -0.422069 5.71744 0
M  V30 2950 H 276.948 0.319776 5.99247 0
M  V30 2951 H 278.018 0.98858 4.74716 0
M  V30 2952 N 279.361 -1.56624 0.175154 0
M  V30 2953 C 280.777 -1.58571 -0.180966 0
M  V30 2954 C 280.977 -1.19065 -1.6256 0
M  V30 2955 O 280.033 -0.904044 -2.35761 0
M  V30 2956 C 281.346 -3.00522 0.103326 0
M  V30 2957 C 282.894 -3.12972 0.0418426 0
M  V30 2958 C 283.369 -4.57022 0.299175 0
M  V30 2959 N 284.86 -4.62541 0.247086 0
M  V30 2960 C 285.595 -5.71857 0.420318 0
M  V30 2961 N 285.091 -6.89717 0.652816 0
M  V30 2962 N 286.884 -5.60972 0.355957 0
M  V30 2963 H 279.035 -1.80589 1.11809 0
M  V30 2964 H 281.298 -0.837178 0.444788 0
M  V30 2965 H 281.004 -3.33916 1.10422 0
M  V30 2966 H 280.878 -3.72344 -0.603299 0
M  V30 2967 H 283.265 -2.79403 -0.949636 0
M  V30 2968 H 283.346 -2.43578 0.781238 0
M  V30 2969 H 282.99 -4.913 1.28788 0
M  V30 2970 H 282.92 -5.24579 -0.460876 0
M  V30 2971 H 285.411 -3.77829 0.0731895 0
M  V30 2972 H 285.724 -7.68911 0.774347 0
M  V30 2973 H 284.069 -6.91572 0.689476 0
M  V30 2974 H 287.26 -4.67773 0.174882 0
M  V30 2975 H 287.433 -6.46111 0.494388 0
M  V30 2976 N 280.839 0.0985539 -1.57292 0
M  V30 2977 C 282.25 0.653457 -1.74891 0
M  V30 2978 C 282.601 1.7929 -0.796838 0
M  V30 2979 O 281.726 2.16385 0.0254886 0
M  V30 2980 C 282.321 1.19216 -3.17133 0
M  V30 2981 C 280.88 1.69316 -3.36168 0
M  V30 2982 C 280.027 0.601294 -2.70702 0
M  V30 2983 H 282.978 -0.127497 -1.58187 0
M  V30 2984 H 282.999 2.06154 -3.19814 0
M  V30 2985 H 282.511 0.362635 -3.86402 0
M  V30 2986 H 280.612 2.5468 -2.71972 0
M  V30 2987 H 280.725 1.78853 -4.44464 0
M  V30 2988 H 279.089 1.0399 -2.32504 0
M  V30 2989 H 279.872 -0.217592 -3.4261 0
M  V30 2990 N 282.317 1.53212 0.369288 0
M  V30 2991 C 283.733 1.42902 0.710712 0
M  V30 2992 C 283.933 0.565135 1.93413 0
M  V30 2993 O 282.989 0.0461484 2.52458 0
M  V30 2994 C 284.302 2.86042 0.927382 0
M  V30 2995 C 285.85 2.9565 1.02762 0
M  V30 2996 C 286.325 4.39843 1.27679 0
M  V30 2997 N 287.816 4.43256 1.34457 0
M  V30 2998 C 288.551 5.51929 1.55439 0
M  V30 2999 N 288.047 6.70655 1.73762 0
M  V30 3000 N 289.84 5.39502 1.57779 0
M  V30 3001 H 281.991 2.07888 -0.435457 0
M  V30 3002 H 284.254 0.938661 -0.132739 0
M  V30 3003 H 283.96 3.51557 0.100287 0
M  V30 3004 H 283.834 3.29472 1.83653 0
M  V30 3005 H 286.221 2.30291 1.84527 0
M  V30 3006 H 286.302 2.5562 0.0959504 0
M  V30 3007 H 285.946 5.05774 0.464175 0
M  V30 3008 H 285.876 4.77443 2.22162 0
M  V30 3009 H 288.367 3.5769 1.21926 0
M  V30 3010 H 288.68 7.49248 1.89335 0
M  V30 3011 H 287.025 6.73648 1.70948 0
M  V30 3012 H 290.216 4.45713 1.43029 0
M  V30 3013 H 290.389 6.2426 1.7379 0
M  V30 3014 N 283.795 -0.628877 1.44509 0
M  V30 3015 C 284.742 -1.74074 1.51549 0
M  V30 3016 C 285.712 -1.62084 0.363021 0
M  V30 3017 O 286.897 -1.81975 0.573567 0
M  V30 3018 C 284.037 -3.12328 1.46784 0
M  V30 3019 C 283.15 -3.35277 2.72422 0
M  V30 3020 C 282.285 -4.63515 2.59475 0
M  V30 3021 C 281.324 -4.7965 3.80266 0
M  V30 3022 N 280.461 -5.99168 3.65981 0
M  V30 3023 H 285.301 -1.67392 2.46544 0
M  V30 3024 H 282.838 -0.816527 1.22357 0
M  V30 3025 H 284.796 -3.92286 1.42012 0
M  V30 3026 H 283.426 -3.18018 0.553544 0
M  V30 3027 H 282.478 -2.49242 2.87372 0
M  V30 3028 H 283.79 -3.43078 3.62076 0
M  V30 3029 H 282.944 -5.51638 2.52548 0
M  V30 3030 H 281.683 -4.58076 1.67384 0
M  V30 3031 H 280.688 -3.89957 3.87574 0
M  V30 3032 H 281.913 -4.86902 4.73395 0
M  V30 3033 H 279.859 -5.94814 2.76644 0
M  V30 3034 H 279.776 -6.08035 4.49254 0
M  V30 3035 H 281.044 -6.89846 3.6295 0
M  V30 3036 N 285.273 -1.31445 -0.869486 0
M  V30 3037 C 286.183 -1.21097 -2.0093 0
M  V30 3038 C 287.199 -0.127584 -1.73532 0
M  V30 3039 O 288.375 -0.345477 -1.98415 0
M  V30 3040 C 285.44 -0.919378 -3.34288 0
M  V30 3041 C 284.501 -2.08971 -3.75006 0
M  V30 3042 C 283.734 -1.81194 -5.02001 0
M  V30 3043 O 283.957 -0.747296 -5.65484 0
M  V30 3044 O 282.891 -2.66883 -5.39497 0
M  V30 3045 H 286.717 -2.16883 -2.12592 0
M  V30 3046 H 284.302 -1.11189 -0.997868 0
M  V30 3047 H 286.184 -0.772625 -4.14257 0
M  V30 3048 H 284.859 0.00844772 -3.23699 0
M  V30 3049 H 283.766 -2.29187 -2.95676 0
M  V30 3050 H 285.099 -2.9998 -3.90221 0
M  V30 3051 N 286.751 1.08385 -1.14413 0
M  V30 3052 C 287.683 2.1519 -0.789036 0
M  V30 3053 C 288.696 1.61638 0.19417 0
M  V30 3054 O 289.885 1.78479 -0.0275711 0
M  V30 3055 C 286.985 3.38565 -0.15058 0
M  V30 3056 C 286.158 4.21501 -1.16857 0
M  V30 3057 C 285.217 5.23277 -0.553832 0
M  V30 3058 O 284.243 5.56041 -1.21686 0
M  V30 3059 N 285.445 5.76629 0.669296 0
M  V30 3060 H 288.21 2.46257 -1.70814 0
M  V30 3061 H 285.771 1.24198 -1.03858 0
M  V30 3062 H 287.763 4.03777 0.273181 0
M  V30 3063 H 286.333 3.05299 0.671667 0
M  V30 3064 H 285.553 3.52265 -1.76926 0
M  V30 3065 H 286.841 4.73731 -1.85624 0
M  V30 3066 H 286.239 5.52243 1.22654 0
M  V30 3067 H 284.796 6.43521 1.03556 0
M  V30 3068 N 288.23 0.939286 1.26551 0
M  V30 3069 C 289.478 0.58469 1.93457 0
M  V30 3070 C 289.799 -0.878774 1.74076 0
M  V30 3071 O 289.069 -1.62421 1.09528 0
M  V30 3072 H 287.649 0.21325 0.715914 0
M  V30 3073 H 290.311 1.1942 1.54029 0
M  V30 3074 H 289.407 0.800849 3.0165 0
M  V30 3075 N 289.708 -1.40897 0.706093 0
M  V30 3076 C 290.936 -2.05373 0.250887 0
M  V30 3077 C 291.351 -1.53172 -1.10381 0
M  V30 3078 O 290.708 -0.684305 -1.69185 0
M  V30 3079 C 290.759 -3.6088 0.211571 0
M  V30 3080 O 290.48 -4.11153 1.51276 0
M  V30 3081 C 291.981 -4.42517 -0.263346 0
M  V30 3082 H 289.201 -0.66115 0.114552 0
M  V30 3083 H 291.745 -1.80479 0.961635 0
M  V30 3084 H 289.9 -3.84777 -0.450073 0
M  V30 3085 H 290.314 -5.05279 1.40689 0
M  V30 3086 H 291.788 -5.51479 -0.239718 0
M  V30 3087 H 292.265 -4.19396 -1.30397 0
M  V30 3088 H 292.871 -4.23708 0.367677 0
M  V30 3089 N 291.186 -0.45159 -1.50991 0
M  V30 3090 C 292.416 0.108177 -2.06317 0
M  V30 3091 C 292.824 1.35774 -1.31765 0
M  V30 3092 O 292.167 1.79838 -0.374694 0
M  V30 3093 C 292.229 0.481659 -3.56259 0
M  V30 3094 C 291.893 -0.663114 -4.52163 0
M  V30 3095 C 292.89 -1.53947 -4.96585 0
M  V30 3096 C 290.575 -0.8479 -4.95092 0
M  V30 3097 C 292.569 -2.58518 -5.82621 0
M  V30 3098 C 290.256 -1.89686 -5.80915 0
M  V30 3099 C 291.254 -2.76388 -6.24579 0
M  V30 3100 O 290.942 -3.79482 -7.08695 0
M  V30 3101 H 290.674 0.00499183 -0.675982 0
M  V30 3102 H 293.228 -0.633659 -1.95381 0
M  V30 3103 H 291.458 1.27641 -3.65027 0
M  V30 3104 H 293.147 0.974233 -3.94035 0
M  V30 3105 H 293.913 -1.4083 -4.64103 0
M  V30 3106 H 289.792 -0.18258 -4.60638 0
M  V30 3107 H 293.336 -3.26224 -6.16623 0
M  V30 3108 H 289.233 -2.02817 -6.12809 0
M  V30 3109 H 290.001 -3.76234 -7.26905 0
M  V30 3110 N 292.664 1.56529 -0.183458 0
M  V30 3111 C 293.627 2.17324 0.728223 0
M  V30 3112 C 294.627 1.12453 1.14939 0
M  V30 3113 O 295.817 1.37902 1.06437 0
M  V30 3114 C 292.949 2.76591 1.99274 0
M  V30 3115 H 294.142 2.99241 0.198772 0
M  V30 3116 H 291.695 1.5616 0.0661391 0
M  V30 3117 H 292.43 1.98441 2.56499 0
M  V30 3118 H 292.215 3.5335 1.69959 0
M  V30 3119 H 293.705 3.23311 2.6431 0
M  V30 3120 N 294.142 -0.090211 1.57342 0
M  V30 3121 C 295.072 -1.10976 2.05443 0
M  V30 3122 C 296.053 -1.41482 0.944284 0
M  V30 3123 O 297.238 -1.51428 1.21586 0
M  V30 3124 C 294.368 -2.42831 2.48295 0
M  V30 3125 C 293.322 -2.26721 3.63018 0
M  V30 3126 C 292.648 -3.63796 3.91863 0
M  V30 3127 C 293.948 -1.7037 4.93732 0
M  V30 3128 H 295.642 -0.709564 2.9087 0
M  V30 3129 H 293.188 -0.339874 1.39932 0
M  V30 3130 H 295.141 -3.14431 2.80555 0
M  V30 3131 H 293.865 -2.84795 1.59873 0
M  V30 3132 H 292.524 -1.57565 3.31012 0
M  V30 3133 H 292.172 -4.03297 3.00601 0
M  V30 3134 H 291.872 -3.53861 4.69101 0
M  V30 3135 H 293.396 -4.36855 4.26603 0
M  V30 3136 H 294.81 -2.31816 5.24342 0
M  V30 3137 H 293.207 -1.71181 5.75167 0
M  V30 3138 H 294.277 -0.663542 4.80339 0
M  V30 3139 N 295.62 -1.53406 -0.361157 0
M  V30 3140 C 296.845 -1.74024 -1.12829 0
M  V30 3141 C 297.27 -0.470069 -1.82132 0
M  V30 3142 O 296.628 0.57619 -1.719 0
M  V30 3143 C 296.676 -2.90903 -2.13091 0
M  V30 3144 O 295.78 -2.59821 -3.20261 0
M  V30 3145 H 295.121 -0.577804 -0.327168 0
M  V30 3146 H 297.651 -2.00307 -0.41693 0
M  V30 3147 H 297.661 -3.17194 -2.56616 0
M  V30 3148 H 296.336 -3.83034 -1.62042 0
M  V30 3149 H 294.913 -2.44362 -2.81677 0
M  V30 3150 N 297.098 0.621204 -1.44841 0
M  V30 3151 C 298.028 1.74366 -1.55303 0
M  V30 3152 C 299.009 1.65199 -0.405385 0
M  V30 3153 O 300.194 1.83807 -0.626787 0
M  V30 3154 C 297.324 3.12931 -1.50637 0
M  V30 3155 C 296.278 3.36896 -2.63979 0
M  V30 3156 C 295.604 4.75594 -2.44366 0
M  V30 3157 C 296.904 3.28483 -4.06074 0
M  V30 3158 H 298.598 1.65867 -2.49256 0
M  V30 3159 H 296.144 0.796558 -1.19962 0
M  V30 3160 H 298.097 3.9124 -1.56555 0
M  V30 3161 H 296.821 3.22237 -0.532057 0
M  V30 3162 H 295.48 2.60972 -2.57467 0
M  V30 3163 H 295.128 4.81616 -1.45105 0
M  V30 3164 H 294.828 4.92586 -3.20364 0
M  V30 3165 H 296.352 5.5612 -2.52117 0
M  V30 3166 H 297.766 3.96684 -4.13902 0
M  V30 3167 H 296.163 3.57008 -4.82354 0
M  V30 3168 H 297.233 2.26133 -4.28943 0
M  V30 3169 N 298.576 1.31904 0.862503 0
M  V30 3170 C 299.825 1.21373 1.61094 0
M  V30 3171 C 300.138 -0.22504 1.94301 0
M  V30 3172 O 301.344 -0.452121 2.67709 0
M  V30 3173 C 299.8 2.12525 2.9045 0
M  V30 3174 C 299.408 3.61441 2.64697 0
M  V30 3175 C 301.152 2.10813 3.68454 0
M  V30 3176 C 299.059 4.44578 3.90006 0
M  V30 3177 H 297.989 0.450705 0.604468 0
M  V30 3178 H 300.64 1.56811 0.953027 0
M  V30 3179 H 299.022 1.69994 3.57656 0
M  V30 3180 H 300.196 4.12264 2.05851 0
M  V30 3181 H 298.511 3.65205 2.00036 0
M  V30 3182 H 301.108 2.70167 4.61426 0
M  V30 3183 H 301.451 1.09713 4.01583 0
M  V30 3184 H 301.984 2.51583 3.08141 0
M  V30 3185 H 298.723 5.46461 3.62023 0
M  V30 3186 H 298.243 3.98508 4.48276 0
M  V30 3187 H 299.922 4.57176 4.5782 0
M  V30 3188 N 300.054 -1.07777 1.14986 0
M  V30 3189 C 301.284 -1.83752 0.944402 0
M  V30 3190 C 301.692 -1.8218 -0.51058 0
M  V30 3191 O 301.035 -1.22852 -1.36576 0
M  V30 3192 C 301.097 -3.32128 1.37592 0
M  V30 3193 C 300.761 -3.57425 2.84775 0
M  V30 3194 C 301.758 -3.5173 3.8286 0
M  V30 3195 C 299.443 -3.8523 3.2234 0
M  V30 3196 C 301.437 -3.73482 5.16517 0
M  V30 3197 C 299.124 -4.06634 4.56171 0
M  V30 3198 C 300.122 -4.00754 5.53069 0
M  V30 3199 O 299.81 -4.2159 6.84483 0
M  V30 3200 H 299.542 -0.58673 0.335744 0
M  V30 3201 H 302.096 -1.36982 1.53052 0
M  V30 3202 H 300.326 -3.79686 0.733165 0
M  V30 3203 H 302.015 -3.89555 1.14024 0
M  V30 3204 H 302.781 -3.30256 3.55184 0
M  V30 3205 H 298.66 -3.88923 2.47508 0
M  V30 3206 H 302.204 -3.68808 5.92137 0
M  V30 3207 H 298.101 -4.27593 4.83564 0
M  V30 3208 H 298.869 -4.38961 6.90837 0
M  V30 3209 N 301.532 -0.945985 -1.26051 0
M  V30 3210 C 302.78 -0.594941 -1.93145 0
M  V30 3211 C 303.101 0.86953 -1.7454 0
M  V30 3212 O 302.371 1.61838 -1.10387 0
M  V30 3213 H 300.951 -0.217044 -0.714773 0
M  V30 3214 H 303.613 -1.20235 -1.53393 0
M  V30 3215 H 302.709 -0.816835 -3.01221 0
M  V30 3216 N 303.011 1.40521 -0.713556 0
M  V30 3217 C 303.958 2.30723 -0.059684 0
M  V30 3218 C 304.928 1.48079 0.752448 0
M  V30 3219 O 306.113 1.76823 0.71681 0
M  V30 3220 C 303.253 3.34274 0.857594 0
M  V30 3221 C 302.366 4.31986 0.0351536 0
M  V30 3222 C 301.501 5.22605 0.951724 0
M  V30 3223 C 300.54 6.11976 0.123253 0
M  V30 3224 N 299.677 6.9502 0.99459 0
M  V30 3225 H 304.517 2.86074 -0.834596 0
M  V30 3226 H 302.054 1.40879 -0.42326 0
M  V30 3227 H 304.012 3.92879 1.40364 0
M  V30 3228 H 302.642 2.8043 1.59871 0
M  V30 3229 H 301.694 3.7518 -0.628052 0
M  V30 3230 H 303.006 4.95101 -0.606347 0
M  V30 3231 H 302.16 5.86131 1.56638 0
M  V30 3232 H 300.899 4.59759 1.62705 0
M  V30 3233 H 299.904 5.47482 -0.50435 0
M  V30 3234 H 301.129 6.76881 -0.548539 0
M  V30 3235 H 299.075 6.34764 1.6556 0
M  V30 3236 H 298.992 7.54892 0.40908 0
M  V30 3237 H 300.26 7.62997 1.59549 0
M  V30 3238 N 304.489 0.459591 1.5075 0
M  V30 3239 C 305.717 -0.0973749 2.06671 0
M  V30 3240 C 306.132 -1.34524 1.32472 0
M  V30 3241 O 305.489 -1.7827 0.390634 0
M  V30 3242 C 305.54 -0.39714 3.59312 0
M  V30 3243 O 305.261 0.801214 4.30711 0
M  V30 3244 C 306.762 -1.00234 4.31819 0
M  V30 3245 H 303.982 0.00195854 0.670997 0
M  V30 3246 H 306.526 0.645072 1.94059 0
M  V30 3247 H 304.681 -1.08951 3.71764 0
M  V30 3248 H 305.095 0.538857 5.21725 0
M  V30 3249 H 306.569 -1.16193 5.39632 0
M  V30 3250 H 307.046 -1.98939 3.91561 0
M  V30 3251 H 307.652 -0.348699 4.23868 0
M  V30 3252 N 305.967 -1.56429 0.191757 0
M  V30 3253 C 307.213 -1.97777 -0.448554 0
M  V30 3254 C 307.546 -1.07847 -1.61501 0
M  V30 3255 O 306.821 -0.129774 -1.94067 0
M  V30 3256 C 307.104 -3.48362 -0.911906 0
M  V30 3257 C 306.957 -4.4907 0.256136 0
M  V30 3258 C 308.276 -4.02561 -1.77857 0
M  V30 3259 H 305.395 -0.719071 -0.161572 0
M  V30 3260 H 308.037 -1.87896 0.282007 0
M  V30 3261 H 306.187 -3.56914 -1.53442 0
M  V30 3262 H 307.859 -4.5256 0.893733 0
M  V30 3263 H 306.102 -4.24181 0.908436 0
M  V30 3264 H 306.773 -5.51889 -0.11053 0
M  V30 3265 H 309.249 -3.96767 -1.25359 0
M  V30 3266 H 308.125 -5.08301 -2.07174 0
M  V30 3267 H 308.386 -3.47616 -2.73158 0
M  V30 3268 N 307.445 0.0818655 -1.57387 0
M  V30 3269 C 308.675 0.794954 -1.90694 0
M  V30 3270 C 309.083 1.72147 -0.784982 0
M  V30 3271 O 308.426 1.81974 0.251196 0
M  V30 3272 C 308.488 1.65042 -3.19376 0
M  V30 3273 C 308.152 0.894337 -4.48164 0
M  V30 3274 C 309.149 0.21813 -5.19442 0
M  V30 3275 C 306.834 0.864495 -4.94805 0
M  V30 3276 C 308.828 -0.477802 -6.35607 0
M  V30 3277 C 306.515 0.164785 -6.10878 0
M  V30 3278 C 307.513 -0.505173 -6.81129 0
M  V30 3279 O 307.201 -1.19363 -7.94989 0
M  V30 3280 H 306.933 0.231779 -0.635023 0
M  V30 3281 H 309.487 0.059493 -2.05314 0
M  V30 3282 H 307.717 2.42844 -3.00938 0
M  V30 3283 H 309.406 2.24127 -3.38411 0
M  V30 3284 H 310.172 0.232558 -4.84442 0
M  V30 3285 H 306.051 1.37542 -4.40004 0
M  V30 3286 H 309.595 -1.00129 -6.90377 0
M  V30 3287 H 305.492 0.148249 -6.4533 0
M  V30 3288 H 306.26 -1.10188 -8.11049 0
M  V30 3289 N 308.923 1.53595 0.353017 0
M  V30 3290 C 309.873 1.77299 1.43349 0
M  V30 3291 C 310.857 0.627884 1.48143 0
M  V30 3292 O 312.049 0.88697 1.53173 0
M  V30 3293 C 309.178 1.97757 2.80619 0
M  V30 3294 C 308.264 3.18305 2.80254 0
M  V30 3295 N 308.655 4.39967 2.49526 0
M  V30 3296 C 306.953 3.19283 3.11407 0
M  V30 3297 C 307.654 5.21772 2.57156 0
M  V30 3298 N 306.63 4.58269 2.92388 0
M  V30 3299 H 310.432 2.68963 1.18474 0
M  V30 3300 H 307.946 1.52391 0.561306 0
M  V30 3301 H 309.943 2.1287 3.58458 0
M  V30 3302 H 308.603 1.07329 3.06448 0
M  V30 3303 H 309.614 4.67482 2.22893 0
M  V30 3304 H 306.291 2.3879 3.4247 0
M  V30 3305 H 307.681 6.2885 2.36638 0
M  V30 3306 N 310.401 -0.613514 1.45168 0
M  V30 3307 C 311.631 -1.39743 1.52169 0
M  V30 3308 C 312.039 -1.88596 0.151086 0
M  V30 3309 O 311.382 -1.6251 -0.856521 0
M  V30 3310 C 311.444 -2.64035 2.43979 0
M  V30 3311 C 311.108 -2.36861 3.90827 0
M  V30 3312 C 312.105 -1.97591 4.80889 0
M  V30 3313 C 309.79 -2.49956 4.35692 0
M  V30 3314 C 311.784 -1.71768 6.1382 0
M  V30 3315 C 309.471 -2.23747 5.68665 0
M  V30 3316 C 310.469 -1.84714 6.57548 0
M  V30 3317 O 310.157 -1.58809 7.88058 0
M  V30 3318 H 309.889 -0.434382 0.517966 0
M  V30 3319 H 312.443 -0.75587 1.90986 0
M  V30 3320 H 310.673 -3.3089 2.00122 0
M  V30 3321 H 312.362 -3.26069 2.41731 0
M  V30 3322 H 313.128 -1.87015 4.47493 0
M  V30 3323 H 309.007 -2.79305 3.66756 0
M  V30 3324 H 312.551 -1.41227 6.83155 0
M  V30 3325 H 308.448 -2.33938 6.01617 0
M  V30 3326 H 309.216 -1.7291 8.00028 0
M  V30 3327 N 311.879 -1.3236 -0.855495 0
M  V30 3328 C 312.809 -1.23833 -1.97958 0
M  V30 3329 C 313.79 -0.122361 -1.69659 0
M  V30 3330 O 314.975 -0.30939 -1.9172 0
M  V30 3331 C 312.105 -0.959772 -3.33775 0
M  V30 3332 C 311.059 -2.03689 -3.76424 0
M  V30 3333 C 310.385 -1.61075 -5.09862 0
M  V30 3334 C 311.685 -3.4518 -3.9198 0
M  V30 3335 H 313.379 -2.1788 -2.0535 0
M  V30 3336 H 310.925 -1.04891 -0.986605 0
M  V30 3337 H 312.878 -0.886678 -4.11966 0
M  V30 3338 H 311.602 0.0163404 -3.26596 0
M  V30 3339 H 310.261 -2.10012 -3.00484 0
M  V30 3340 H 309.909 -0.622107 -4.99138 0
M  V30 3341 H 309.609 -2.33143 -5.39368 0
M  V30 3342 H 311.133 -1.55201 -5.90546 0
M  V30 3343 H 312.547 -3.4145 -4.60526 0
M  V30 3344 H 310.944 -4.1559 -4.32903 0
M  V30 3345 H 312.014 -3.84903 -2.94919 0
M  V30 3346 N 313.357 1.07166 -1.15556 0
M  V30 3347 C 314.606 1.79181 -0.926132 0
M  V30 3348 C 314.919 1.87768 0.547967 0
M  V30 3349 O 316.125 2.56323 0.895036 0
M  V30 3350 C 314.581 3.22 -1.60761 0
M  V30 3351 C 314.189 3.21607 -3.11886 0
M  V30 3352 C 315.933 3.9861 -1.4598 0
M  V30 3353 C 313.84 4.59092 -3.72812 0
M  V30 3354 H 312.77 0.67154 -0.342856 0
M  V30 3355 H 315.421 1.2027 -1.3859 0
M  V30 3356 H 313.803 3.81115 -1.07553 0
M  V30 3357 H 314.977 2.72127 -3.71865 0
M  V30 3358 H 313.292 2.58495 -3.2645 0
M  V30 3359 H 315.889 5.00225 -1.88888 0
M  V30 3360 H 316.232 4.143 -0.407541 0
M  V30 3361 H 316.765 3.45996 -1.96295 0
M  V30 3362 H 313.504 4.48606 -4.77946 0
M  V30 3363 H 313.024 5.08803 -3.17616 0
M  V30 3364 H 314.703 5.28059 -3.73848 0
M  V30 3365 N 314.835 0.952656 1.25548 0
M  V30 3366 C 316.06 0.623025 1.97821 0
M  V30 3367 C 316.485 -0.7976 1.70352 0
M  V30 3368 O 315.843 -1.53905 0.958283 0
M  V30 3369 C 315.891 0.885532 3.49558 0
M  V30 3370 O 314.995 -0.0366641 4.12384 0
M  V30 3371 H 314.336 0.237082 0.620232 0
M  V30 3372 H 316.866 1.27871 1.59719 0
M  V30 3373 H 316.876 0.811009 3.99858 0
M  V30 3374 H 315.551 1.92094 3.6888 0
M  V30 3375 H 314.128 0.0898954 3.72792 0
M  V30 3376 N 316.313 -1.40141 0.720998 0
M  V30 3377 C 317.245 -2.29177 0.0324669 0
M  V30 3378 C 318.258 -1.46105 -0.718126 0
M  V30 3379 O 319.447 -1.69335 -0.564608 0
M  V30 3380 C 316.547 -3.24473 -0.978292 0
M  V30 3381 C 315.72 -4.36423 -0.292115 0
M  V30 3382 C 314.779 -5.12122 -1.20901 0
M  V30 3383 O 313.805 -5.64981 -0.691766 0
M  V30 3384 N 315.007 -5.21992 -2.53978 0
M  V30 3385 H 317.772 -2.88909 0.796984 0
M  V30 3386 H 315.333 -1.51569 0.569068 0
M  V30 3387 H 317.325 -3.71987 -1.59398 0
M  V30 3388 H 315.895 -2.65871 -1.64413 0
M  V30 3389 H 315.115 -3.90967 0.503847 0
M  V30 3390 H 316.403 -5.08467 0.183971 0
M  V30 3391 H 315.801 -4.8054 -2.98493 0
M  V30 3392 H 314.358 -5.72995 -3.10677 0
M  V30 3393 N 317.792 -0.46758 -1.50504 0
M  V30 3394 C 319.069 0.15003 -1.95024 0
M  V30 3395 C 319.449 1.57304 -1.40779 0
M  V30 3396 O 318.797 2.20281 -0.607319 0
M  V30 3397 C 319.007 0.0969324 -3.48865 0
M  V30 3398 C 320.355 0.287565 -4.23625 0
M  V30 3399 O 321.379 0.173678 -3.55776 0
M  V30 3400 O 320.238 0.517186 -5.44047 0
M  V30 3401 H 317.332 0.113582 -0.819163 0
M  V30 3402 H 319.878 -0.52773 -1.61286 0
M  V30 3403 H 318.65 -0.896732 -3.80886 0
M  V30 3404 H 318.273 0.816303 -3.8913 0
M  V30 3405 N 319.27 1.56325 -0.20005 0
M  V30 3406 C 320.217 2.1932 0.718833 0
M  V30 3407 C 321.187 1.14198 1.20615 0
M  V30 3408 O 322.372 1.42469 1.26914 0
M  V30 3409 C 319.512 2.86041 1.93066 0
M  V30 3410 C 318.625 4.05702 1.48425 0
M  V30 3411 C 317.76 4.60266 2.65196 0
M  V30 3412 C 316.799 5.72273 2.17185 0
M  V30 3413 N 315.936 6.21221 3.27152 0
M  V30 3414 H 320.776 2.97486 0.17489 0
M  V30 3415 H 318.313 1.46911 0.0745794 0
M  V30 3416 H 320.271 3.22897 2.64184 0
M  V30 3417 H 318.901 2.1043 2.44783 0
M  V30 3418 H 317.953 3.74475 0.668755 0
M  V30 3419 H 319.265 4.86699 1.09204 0
M  V30 3420 H 318.419 4.99453 3.4443 0
M  V30 3421 H 317.158 3.78386 3.07693 0
M  V30 3422 H 316.163 5.3261 1.36407 0
M  V30 3423 H 317.388 6.55974 1.75713 0
M  V30 3424 H 315.334 5.42263 3.69171 0
M  V30 3425 H 315.251 6.97284 2.92116 0
M  V30 3426 H 316.519 6.65063 4.06585 0
M  V30 3427 N 320.748 -0.0735177 1.57428 0
M  V30 3428 C 321.711 -1.07192 2.02589 0
M  V30 3429 C 322.711 -1.31695 0.922661 0
M  V30 3430 O 323.901 -1.27445 1.18758 0
M  V30 3431 C 321.033 -2.41599 2.40506 0
M  V30 3432 H 322.226 -0.682727 2.92025 0
M  V30 3433 H 319.779 -0.319193 1.53006 0
M  V30 3434 H 320.514 -2.85354 1.5409 0
M  V30 3435 H 320.299 -2.25156 3.21009 0
M  V30 3436 H 321.789 -3.13367 2.76027 0
M  V30 3437 N 322.226 -1.5378 -0.344866 0
M  V30 3438 C 323.474 -1.70625 -1.08311 0
M  V30 3439 C 323.795 -0.471447 -1.89215 0
M  V30 3440 O 323.065 0.514616 -1.8902 0
M  V30 3441 H 321.645 -0.629058 -0.402859 0
M  V30 3442 H 324.307 -1.9103 -0.386459 0
M  V30 3443 H 323.403 -2.57656 -1.76124 0
M  V30 3444 N 323.704 0.605807 -1.45491 0
M  V30 3445 C 324.651 1.7164 -1.54299 0
M  V30 3446 C 325.621 1.61486 -0.388761 0
M  V30 3447 O 326.806 1.81039 -0.602445 0
M  V30 3448 C 323.946 3.09953 -1.51734 0
M  V30 3449 C 323.059 3.309 -2.77721 0
M  V30 3450 C 322.194 4.59329 -2.66816 0
M  V30 3451 C 321.233 4.7354 -3.87848 0
M  V30 3452 N 320.37 5.9327 -3.75467 0
M  V30 3453 H 325.21 1.63449 -2.49176 0
M  V30 3454 H 322.747 0.796957 -1.23641 0
M  V30 3455 H 324.705 3.89977 -1.48235 0
M  V30 3456 H 323.335 3.17098 -0.604068 0
M  V30 3457 H 322.387 2.44639 -2.913 0
M  V30 3458 H 323.699 3.37274 -3.67488 0
M  V30 3459 H 322.853 5.4755 -2.61292 0
M  V30 3460 H 321.592 4.55355 -1.74651 0
M  V30 3461 H 320.597 3.83741 -3.93729 0
M  V30 3462 H 321.822 4.79309 -4.81082 0
M  V30 3463 H 319.768 5.90338 -2.86072 0
M  V30 3464 H 319.685 6.00811 -4.5887 0
M  V30 3465 H 320.953 6.83984 -3.73879 0
M  V30 3466 N 325.182 1.32811 0.848464 0
M  V30 3467 C 326.412 1.26556 1.63301 0
M  V30 3468 C 326.82 -0.1676 1.88456 0
M  V30 3469 O 326.163 -1.11713 1.45828 0
M  V30 3470 C 326.225 1.96202 3.01239 0
M  V30 3471 C 325.889 3.45528 2.99098 0
M  V30 3472 C 326.886 4.40903 2.75501 0
M  V30 3473 C 324.571 3.87558 3.19537 0
M  V30 3474 C 326.565 5.76282 2.72356 0
M  V30 3475 C 324.252 5.23044 3.16019 0
M  V30 3476 C 325.25 6.17217 2.92458 0
M  V30 3477 O 324.938 7.50223 2.88825 0
M  V30 3478 H 324.67 0.43771 0.515156 0
M  V30 3479 H 327.224 1.7559 1.0657 0
M  V30 3480 H 325.454 1.41746 3.59785 0
M  V30 3481 H 327.143 1.83573 3.62016 0
M  V30 3482 H 327.909 4.09756 2.5947 0
M  V30 3483 H 323.788 3.14674 3.369 0
M  V30 3484 H 327.332 6.4976 2.53886 0
M  V30 3485 H 323.229 5.53818 3.31596 0
M  V30 3486 H 323.997 7.59657 3.04735 0
M  V30 3487 N 326.66 -1.06551 1.16123 0
M  V30 3488 C 327.9 -1.80889 0.951766 0
M  V30 3489 C 328.264 -1.85062 -0.511465 0
M  V30 3490 O 329.465 -2.55353 -0.83954 0
M  V30 3491 C 327.736 -3.21609 1.55893 0
M  V30 3492 S 329.295 -4.12593 1.49373 0
M  V30 3493 H 326.113 -0.623156 0.342341 0
M  V30 3494 H 328.715 -1.27943 1.47821 0
M  V30 3495 H 327.419 -3.16165 2.61664 0
M  V30 3496 H 326.95 -3.79631 1.0317 0
M  V30 3497 H 328.965 -4.93753 0.492196 0
M  V30 3498 N 328.138 -0.959301 -1.25041 0
M  V30 3499 C 329.387 -0.612254 -1.92183 0
M  V30 3500 C 329.7 0.855347 -1.75907 0
M  V30 3501 O 330.906 1.31256 -2.37664 0
M  V30 3502 C 329.362 -1.04435 -3.44414 0
M  V30 3503 C 328.97 -2.53482 -3.69393 0
M  V30 3504 C 330.714 -0.770055 -4.17457 0
M  V30 3505 C 328.621 -2.90468 -5.15153 0
M  V30 3506 H 327.551 -0.225279 -0.719559 0
M  V30 3507 H 330.202 -1.16438 -1.41825 0
M  V30 3508 H 328.584 -0.4206 -3.9376 0
M  V30 3509 H 329.758 -3.20916 -3.30681 0
M  V30 3510 H 328.073 -2.78432 -3.0962 0
M  V30 3511 H 330.67 -1.02249 -5.24832 0
M  V30 3512 H 331.013 0.293611 -4.15263 0
M  V30 3513 H 331.546 -1.35437 -3.74034 0
M  V30 3514 H 328.285 -3.95871 -5.22462 0
M  V30 3515 H 327.805 -2.27711 -5.54894 0
M  V30 3516 H 329.484 -2.79914 -5.83315 0
M  V30 3517 N 329.616 1.39756 -0.72842 0
M  V30 3518 C 331.027 1.83498 -0.344289 0
M  V30 3519 C 331.378 1.60868 1.12321 0
M  V30 3520 O 330.503 1.09634 1.86573 0
M  V30 3521 C 331.098 3.33114 -0.618112 0
M  V30 3522 C 329.657 3.753 -0.287549 0
M  V30 3523 C 328.804 2.62831 -0.884048 0
M  V30 3524 H 331.755 1.28842 -0.926578 0
M  V30 3525 H 331.776 3.80334 0.112349 0
M  V30 3526 H 331.288 3.49553 -1.68625 0
M  V30 3527 H 329.389 3.64451 0.775012 0
M  V30 3528 H 329.502 4.72945 -0.765512 0
M  V30 3529 H 327.866 2.52792 -0.311149 0
M  V30 3530 H 328.649 2.82078 -1.95671 0
M  V30 3531 N 331.094 0.475555 1.50254 0
M  V30 3532 C 332.004 -0.321501 2.32387 0
M  V30 3533 C 333.02 -0.991755 1.42969 0
M  V30 3534 O 334.196 -0.978747 1.76018 0
M  V30 3535 C 331.261 -1.38667 3.17762 0
M  V30 3536 C 330.322 -0.732538 4.23004 0
M  V30 3537 C 329.555 -1.74695 5.04299 0
M  V30 3538 O 329.778 -2.97399 4.86734 0
M  V30 3539 O 328.712 -1.31631 5.8733 0
M  V30 3540 H 332.538 0.350071 3.01676 0
M  V30 3541 H 330.123 0.237321 1.47503 0
M  V30 3542 H 332.005 -2.00354 3.70724 0
M  V30 3543 H 330.68 -2.04163 2.51196 0
M  V30 3544 H 329.587 -0.0765902 3.74022 0
M  V30 3545 H 330.92 -0.120452 4.92053 0
M  V30 3546 N 332.573 -1.56217 0.208337 0
M  V30 3547 C 333.821 -1.97558 -0.426076 0
M  V30 3548 C 334.142 -1.09683 -1.61229 0
M  V30 3549 O 333.412 -0.170956 -1.95153 0
M  V30 3550 H 331.992 -0.729575 -0.160405 0
M  V30 3551 H 334.654 -1.92606 0.298155 0
M  V30 3552 H 333.75 -3.02672 -0.761312 0
M  V30 3553 N 334.051 0.0651679 -1.57465 0
M  V30 3554 C 335.279 0.775808 -1.91804 0
M  V30 3555 C 335.694 1.70782 -0.804916 0
M  V30 3556 O 335.051 1.81153 0.221311 0
M  V30 3557 C 335.102 1.56381 -3.25925 0
M  V30 3558 O 334.823 0.669248 -4.32958 0
M  V30 3559 C 336.324 2.37485 -3.7432 0
M  V30 3560 H 333.544 0.2202 -0.63384 0
M  V30 3561 H 336.088 0.0334587 -2.04473 0
M  V30 3562 H 334.243 2.25837 -3.14764 0
M  V30 3563 H 334.657 1.21801 -5.10162 0
M  V30 3564 H 336.131 2.88223 -4.70778 0
M  V30 3565 H 336.608 3.17307 -3.03666 0
M  V30 3566 H 337.214 1.73173 -3.88447 0
M  V30 3567 N 335.529 1.53961 0.336706 0
M  V30 3568 C 336.476 1.82428 1.41381 0
M  V30 3569 C 337.446 0.670444 1.51968 0
M  V30 3570 O 338.631 0.915565 1.67398 0
M  V30 3571 C 335.771 2.04564 2.77934 0
M  V30 3572 C 334.884 3.32267 2.76084 0
M  V30 3573 C 334.019 3.44434 4.04399 0
M  V30 3574 C 333.058 4.66061 3.96804 0
M  V30 3575 N 332.195 4.75224 5.16823 0
M  V30 3576 H 337.035 2.74324 1.16405 0
M  V30 3577 H 334.572 1.35869 0.563752 0
M  V30 3578 H 336.53 2.15388 3.57301 0
M  V30 3579 H 335.16 1.15974 3.01247 0
M  V30 3580 H 334.212 3.3025 1.88784 0
M  V30 3581 H 335.524 4.21733 2.66351 0
M  V30 3582 H 334.678 3.54728 4.92192 0
M  V30 3583 H 333.417 2.53037 4.16921 0
M  V30 3584 H 332.422 4.55838 3.07396 0
M  V30 3585 H 333.647 5.58829 3.85858 0
M  V30 3586 H 331.593 3.86739 5.29876 0
M  V30 3587 H 331.51 5.58636 5.09374 0
M  V30 3588 H 332.778 4.89835 6.06367 0
M  V30 3589 N 337.007 -0.598083 1.45811 0
M  V30 3590 C 338.254 -1.35681 1.50323 0
M  V30 3591 C 338.582 -1.9393 0.148739 0
M  V30 3592 O 337.837 -1.76094 -0.853787 0
M  V30 3593 C 338.136 -2.51669 2.53766 0
M  V30 3594 C 337.802 -2.11508 3.98215 0
M  V30 3595 C 336.464 -2.0027 4.37545 0
M  V30 3596 C 338.816 -1.80308 4.89018 0
M  V30 3597 C 336.144 -1.56067 5.65562 0
M  V30 3598 C 338.496 -1.37589 6.17456 0
M  V30 3599 C 337.16 -1.24916 6.55708 0
M  V30 3600 H 336.43 -0.496492 0.550069 0
M  V30 3601 H 339.077 -0.675052 1.79207 0
M  V30 3602 H 337.382 -3.25225 2.18486 0
M  V30 3603 H 339.079 -3.09895 2.54492 0
M  V30 3604 H 335.669 -2.21185 3.67117 0
M  V30 3605 H 339.853 -1.87884 4.59362 0
M  V30 3606 H 335.109 -1.44886 5.93985 0
M  V30 3607 H 339.283 -1.12495 6.87254 0
M  V30 3608 H 336.91 -0.904386 7.54801 0
M  V30 3609 N 338.485 -1.33259 -0.841409 0
M  V30 3610 C 339.762 -1.15174 -1.58096 0
M  V30 3611 C 340.142 0.282858 -2.09196 0
M  V30 3612 O 339.49 1.28151 -1.89181 0
M  V30 3613 C 339.7 -2.1907 -2.71679 0
M  V30 3614 C 341.048 -2.53093 -3.40924 0
M  V30 3615 O 342.072 -2.17717 -2.81918 0
M  V30 3616 O 340.931 -3.1379 -4.47435 0
M  V30 3617 H 338.025 -0.445303 -0.696875 0
M  V30 3618 H 340.571 -1.44833 -0.884385 0
M  V30 3619 H 339.343 -3.15443 -2.31541 0
M  V30 3620 H 338.966 -1.90481 -3.49002 0
M  V30 3621 N 339.963 1.05934 -1.16686 0
M  V30 3622 C 341.191 1.8249 -0.974929 0
M  V30 3623 C 341.606 1.82679 0.476861 0
M  V30 3624 O 340.963 1.2486 1.33103 0
M  V30 3625 C 341.014 3.28943 -1.49929 0
M  V30 3626 O 340.735 3.28886 -2.89423 0
M  V30 3627 C 342.236 4.22215 -1.35089 0
M  V30 3628 H 339.456 0.575295 -0.345365 0
M  V30 3629 H 342 1.33631 -1.548 0
M  V30 3630 H 340.155 3.751 -0.968423 0
M  V30 3631 H 340.569 4.20493 -3.13506 0
M  V30 3632 H 342.043 5.22987 -1.76603 0
M  V30 3633 H 342.52 4.38195 -0.296935 0
M  V30 3634 H 343.126 3.81907 -1.87155 0
M  V30 3635 N 341.441 0.965919 1.2453 0
M  V30 3636 C 342.371 0.513476 2.27784 0
M  V30 3637 C 343.352 -0.445974 1.6415 0
M  V30 3638 O 344.537 -0.342485 1.91156 0
M  V30 3639 C 341.667 -0.198839 3.4673 0
M  V30 3640 C 340.621 0.676456 4.2262 0
M  V30 3641 C 339.947 -0.167248 5.34438 0
M  V30 3642 C 341.247 1.96017 4.84123 0
M  V30 3643 H 342.941 1.3765 2.65881 0
M  V30 3644 H 340.487 0.663321 1.27813 0
M  V30 3645 H 342.44 -0.526567 4.18097 0
M  V30 3646 H 341.164 -1.0962 3.07654 0
M  V30 3647 H 339.823 0.98743 3.53052 0
M  V30 3648 H 339.471 -1.0647 4.91603 0
M  V30 3649 H 339.171 0.415181 5.86131 0
M  V30 3650 H 340.695 -0.489688 6.08633 0
M  V30 3651 H 342.109 1.69814 5.47573 0
M  V30 3652 H 340.506 2.48918 5.4604 0
M  V30 3653 H 341.576 2.65622 4.05676 0
M  V30 3654 N 342.919 -1.39368 0.735821 0
M  V30 3655 C 344.165 -2.01272 0.293439 0
M  V30 3656 C 344.52 -1.57344 -1.10728 0
M  V30 3657 O 343.813 -0.792744 -1.74431 0
M  V30 3658 C 344.007 -3.5583 0.334651 0
M  V30 3659 C 343.836 -4.14764 1.73784 0
M  V30 3660 C 342.606 -4.47315 2.35026 0
M  V30 3661 C 344.804 -4.38246 2.69157 0
M  V30 3662 N 342.786 -4.91756 3.6749 0
M  V30 3663 C 344.157 -4.849 3.86357 0
M  V30 3664 C 346.212 -4.20315 2.66908 0
M  V30 3665 C 344.915 -5.15505 5.01645 0
M  V30 3666 C 346.941 -4.52033 3.8134 0
M  V30 3667 C 346.303 -4.98895 4.97276 0
M  V30 3668 H 342.402 -0.766756 0.153652 0
M  V30 3669 H 344.986 -1.69276 0.961967 0
M  V30 3670 H 343.157 -3.87212 -0.303527 0
M  V30 3671 H 344.889 -4.04503 -0.126358 0
M  V30 3672 H 341.644 -4.35143 1.86943 0
M  V30 3673 H 342.068 -5.18333 4.35499 0
M  V30 3674 H 346.71 -3.83287 1.78468 0
M  V30 3675 H 344.428 -5.51437 5.90713 0
M  V30 3676 H 348.014 -4.39781 3.80899 0
M  V30 3677 H 346.894 -5.22973 5.84353 0
M  V30 3678 N 344.397 -0.483516 -1.5 0
M  V30 3679 C 345.329 0.340634 -2.26655 0
M  V30 3680 C 346.342 0.946152 -1.32483 0
M  V30 3681 O 347.531 0.832453 -1.579 0
M  V30 3682 C 344.631 1.4929 -3.04246 0
M  V30 3683 C 343.804 0.997903 -4.25865 0
M  V30 3684 C 342.863 2.02569 -4.85646 0
M  V30 3685 O 341.889 1.60128 -5.46212 0
M  V30 3686 N 343.091 3.3548 -4.73744 0
M  V30 3687 H 345.856 -0.316577 -2.98023 0
M  V30 3688 H 343.417 -0.315024 -1.58806 0
M  V30 3689 H 345.409 2.17766 -3.41116 0
M  V30 3690 H 343.979 2.05458 -2.35597 0
M  V30 3691 H 343.199 0.138617 -3.93956 0
M  V30 3692 H 344.487 0.645305 -5.04691 0
M  V30 3693 H 343.885 3.72661 -4.25605 0
M  V30 3694 H 342.442 3.99718 -5.14848 0
M  V30 3695 N 345.875 1.56104 -0.216619 0
M  V30 3696 C 346.805 2.23063 0.690296 0
M  V30 3697 C 347.786 1.20072 1.20485 0
M  V30 3698 O 348.971 1.48643 1.24976 0
M  V30 3699 C 346.101 2.90672 1.90072 0
M  V30 3700 C 345.055 4.00092 1.5202 0
M  V30 3701 C 344.381 4.54972 2.80899 0
M  V30 3702 C 345.681 5.17398 0.71391 0
M  V30 3703 H 347.375 2.99109 0.132038 0
M  V30 3704 H 344.921 1.43866 0.0620664 0
M  V30 3705 H 346.874 3.36204 2.54057 0
M  V30 3706 H 345.598 2.12066 2.48386 0
M  V30 3707 H 344.257 3.55283 0.903839 0
M  V30 3708 H 343.905 3.73102 3.37348 0
M  V30 3709 H 343.605 5.28817 2.56176 0
M  V30 3710 H 345.129 5.0322 3.45836 0
M  V30 3711 H 346.543 5.59342 1.25735 0
M  V30 3712 H 344.94 5.97444 0.563951 0
M  V30 3713 H 346.01 4.84088 -0.280527 0
M  V30 3714 N 347.353 -0.0568162 1.57498 0
M  V30 3715 C 348.599 -0.75422 1.88253 0
M  V30 3716 C 348.932 -1.76461 0.810865 0
M  V30 3717 O 348.207 -1.93691 -0.177259 0
M  V30 3718 C 348.49 -1.44878 3.2967 0
M  V30 3719 C 348.343 -0.453789 4.47505 0
M  V30 3720 C 349.662 -2.38994 3.69554 0
M  V30 3721 H 346.781 -0.272724 0.684683 0
M  V30 3722 H 349.423 -0.0172113 1.89992 0
M  V30 3723 H 347.573 -2.077 3.28318 0
M  V30 3724 H 349.245 0.170371 4.60985 0
M  V30 3725 H 347.488 0.229552 4.33192 0
M  V30 3726 H 348.159 -0.977699 5.43273 0
M  V30 3727 H 350.635 -1.86239 3.72095 0
M  V30 3728 H 349.511 -2.84587 4.69363 0
M  V30 3729 H 349.772 -3.24461 3.00296 0
M  V30 3730 N 348.832 -1.54138 -0.328536 0
M  V30 3731 C 349.742 -1.86192 -1.42723 0
M  V30 3732 C 350.758 -0.753382 -1.56844 0
M  V30 3733 O 351.934 -1.04718 -1.72035 0
M  V30 3734 C 348.999 -2.07824 -2.77507 0
M  V30 3735 C 348.06 -3.31641 -2.72603 0
M  V30 3736 C 347.293 -3.52232 -4.00959 0
M  V30 3737 O 347.516 -2.7636 -4.9898 0
M  V30 3738 O 346.45 -4.45699 -4.0452 0
M  V30 3739 H 350.276 -2.79608 -1.18547 0
M  V30 3740 H 347.861 -1.3998 -0.522104 0
M  V30 3741 H 349.743 -2.23411 -3.57303 0
M  V30 3742 H 348.418 -1.17596 -3.01584 0
M  V30 3743 H 347.325 -3.21444 -1.91376 0
M  V30 3744 H 348.658 -4.2191 -2.53481 0
M  V30 3745 N 350.31 0.590341 -1.46126 0
M  V30 3746 C 351.54 1.37304 -1.54373 0
M  V30 3747 C 351.948 1.88332 -0.181071 0
M  V30 3748 O 351.291 1.63852 0.830559 0
M  V30 3749 C 351.353 2.6012 -2.48149 0
M  V30 3750 C 351.017 2.30613 -3.94546 0
M  V30 3751 C 352.014 1.89915 -4.83971 0
M  V30 3752 C 349.699 2.42993 -4.39613 0
M  V30 3753 C 351.693 1.61981 -6.16475 0
M  V30 3754 C 349.38 2.14672 -5.72153 0
M  V30 3755 C 350.378 1.7423 -6.60404 0
M  V30 3756 O 350.066 1.46251 -7.90485 0
M  V30 3757 H 349.798 0.426086 -0.524811 0
M  V30 3758 H 352.352 0.72539 -1.92165 0
M  V30 3759 H 350.582 3.27664 -2.05361 0
M  V30 3760 H 352.271 3.22182 -2.46887 0
M  V30 3761 H 353.037 1.79872 -4.50412 0
M  V30 3762 H 348.916 2.73435 -3.71153 0
M  V30 3763 H 352.46 1.30341 -6.85315 0
M  V30 3764 H 348.357 2.24337 -6.05263 0
M  V30 3765 H 349.125 1.6016 -8.02677 0
M  V30 3766 N 351.788 1.33704 0.83433 0
M  V30 3767 C 352.718 1.26967 1.95963 0
M  V30 3768 C 353.699 0.149337 1.69443 0
M  V30 3769 O 354.884 0.339852 1.91203 0
M  V30 3770 C 352.014 1.01275 3.32206 0
M  V30 3771 C 350.968 2.09652 3.73136 0
M  V30 3772 C 350.294 1.69166 5.07235 0
M  V30 3773 C 351.594 3.51372 3.86439 0
M  V30 3774 H 353.288 2.2112 2.01857 0
M  V30 3775 H 350.834 1.06447 0.969793 0
M  V30 3776 H 352.787 0.952106 4.10503 0
M  V30 3777 H 351.511 0.0356203 3.26581 0
M  V30 3778 H 350.17 2.14766 2.97104 0
M  V30 3779 H 349.818 0.701437 4.98085 0
M  V30 3780 H 349.518 2.41694 5.35591 0
M  V30 3781 H 351.042 1.64576 5.88003 0
M  V30 3782 H 352.456 3.48734 4.55036 0
M  V30 3783 H 350.853 4.22425 4.26236 0
M  V30 3784 H 351.923 3.89546 2.88759 0
M  V30 3785 N 353.266 -1.05314 1.17247 0
M  V30 3786 C 354.213 -2.13031 0.888058 0
M  V30 3787 C 355.183 -1.65253 -0.167537 0
M  V30 3788 O 356.368 -1.90775 -0.0305974 0
M  V30 3789 C 353.508 -3.42702 0.406147 0
M  V30 3790 C 352.621 -4.04161 1.52572 0
M  V30 3791 C 351.756 -5.21744 0.997808 0
M  V30 3792 C 350.795 -5.75207 2.09291 0
M  V30 3793 N 349.932 -6.84094 1.57986 0
M  V30 3794 H 354.772 -2.36698 1.81048 0
M  V30 3795 H 352.309 -1.16121 0.903013 0
M  V30 3796 H 354.267 -4.17059 0.108305 0
M  V30 3797 H 352.897 -3.19222 -0.479313 0
M  V30 3798 H 351.949 -3.27253 1.93931 0
M  V30 3799 H 353.261 -4.39881 2.35172 0
M  V30 3800 H 352.415 -6.03168 0.653739 0
M  V30 3801 H 351.154 -4.87495 0.141232 0
M  V30 3802 H 350.159 -4.92414 2.44557 0
M  V30 3803 H 351.384 -6.11505 2.95362 0
M  V30 3804 H 349.33 -6.51745 0.74598 0
M  V30 3805 H 349.247 -7.18811 2.34195 0
M  V30 3806 H 350.515 -7.69172 1.26468 0
M  V30 3807 N 354.744 -0.972509 -1.24016 0
M  V30 3808 C 355.674 -0.525548 -2.27509 0
M  V30 3809 C 356.655 0.437262 -1.64384 0
M  V30 3810 O 357.84 0.332343 -1.91335 0
M  V30 3811 C 354.97 0.180448 -3.46831 0
M  V30 3812 C 353.924 -0.698859 -4.22256 0
M  V30 3813 C 353.25 0.138903 -5.3452 0
M  V30 3814 C 354.55 -1.98582 -4.83076 0
M  V30 3815 H 356.244 -1.39058 -2.65148 0
M  V30 3816 H 353.79 -0.67009 -1.27459 0
M  V30 3817 H 355.743 0.504387 -4.18371 0
M  V30 3818 H 354.467 1.07987 -3.08231 0
M  V30 3819 H 353.126 -1.00614 -3.52523 0
M  V30 3820 H 352.774 1.03862 -4.9216 0
M  V30 3821 H 352.474 -0.446259 -5.85903 0
M  V30 3822 H 353.998 0.457404 -6.08884 0
M  V30 3823 H 355.412 -1.72715 -5.46665 0
M  V30 3824 H 353.809 -2.5181 -5.44713 0
M  V30 3825 H 354.879 -2.67769 -4.04262 0
M  V30 3826 N 356.222 1.38976 -0.743202 0
M  V30 3827 C 357.169 2.30544 -0.10861 0
M  V30 3828 C 358.139 1.49642 0.720869 0
M  V30 3829 O 359.324 1.78304 0.679142 0
M  V30 3830 C 356.464 3.36018 0.786496 0
M  V30 3831 C 355.577 4.31963 -0.0564849 0
M  V30 3832 C 354.712 5.24506 0.840657 0
M  V30 3833 C 353.751 6.121 -0.00658363 0
M  V30 3834 N 352.888 6.96973 0.846943 0
M  V30 3835 H 357.728 2.8424 -0.895088 0
M  V30 3836 H 355.265 1.3995 -0.453048 0
M  V30 3837 H 357.223 3.95768 1.31999 0
M  V30 3838 H 355.853 2.83758 1.53887 0
M  V30 3839 H 354.905 3.73763 -0.707492 0
M  V30 3840 H 356.217 4.93703 -0.711229 0
M  V30 3841 H 355.371 5.89322 1.4417 0
M  V30 3842 H 354.11 4.63107 1.52916 0
M  V30 3843 H 353.115 5.46289 -0.620366 0
M  V30 3844 H 354.34 6.75565 -0.691992 0
M  V30 3845 H 352.286 6.38133 1.52059 0
M  V30 3846 H 352.203 7.5559 0.248864 0
M  V30 3847 H 353.471 7.6621 1.43328 0
M  V30 3848 N 357.7 0.491464 1.49741 0
M  V30 3849 C 358.663 -0.280906 2.27472 0
M  V30 3850 C 359.663 -0.902454 1.33088 0
M  V30 3851 O 360.853 -0.768465 1.56334 0
M  V30 3852 C 357.985 -1.40209 3.10732 0
M  V30 3853 H 359.178 0.401056 2.97206 0
M  V30 3854 H 356.731 0.246131 1.5435 0
M  V30 3855 H 357.466 -2.11849 2.45541 0
M  V30 3856 H 357.251 -0.961969 3.80117 0
M  V30 3857 H 358.741 -1.9464 3.69466 0
M  V30 3858 N 359.178 -1.55987 0.224894 0
M  V30 3859 C 360.455 -1.90232 -0.455083 0
M  V30 3860 C 360.835 -1.14269 -1.77499 0
M  V30 3861 O 360.183 -0.253079 -2.27094 0
M  V30 3862 C 360.393 -3.42993 -0.644758 0
M  V30 3863 C 361.741 -4.13821 -0.950669 0
M  V30 3864 O 362.765 -3.4861 -0.731423 0
M  V30 3865 O 361.624 -5.29128 -1.36695 0
M  V30 3866 H 358.718 -0.79108 -0.241084 0
M  V30 3867 H 361.264 -1.67581 0.267327 0
M  V30 3868 H 360.036 -3.90252 0.28613 0
M  V30 3869 H 359.659 -3.71434 -1.41853 0
M  V30 3870 N 360.656 0.0484629 -1.57525 0
M  V30 3871 C 361.904 0.741657 -1.88 0
M  V30 3872 C 362.225 1.76918 -0.820054 0
M  V30 3873 O 361.495 1.95335 0.148661 0
M  V30 3874 H 360.075 0.276908 -0.69378 0
M  V30 3875 H 362.737 0.019013 -1.94891 0
M  V30 3876 H 361.833 1.24336 -2.86264 0
M  V30 3877 N 362.134 1.5431 0.320358 0
M  V30 3878 C 363.064 1.86912 1.3995 0
M  V30 3879 C 364.045 0.726211 1.53819 0
M  V30 3880 O 365.23 0.980233 1.67646 0
M  V30 3881 C 362.36 2.09932 2.7667 0
M  V30 3882 C 361.314 3.25776 2.77586 0
M  V30 3883 C 360.64 3.34173 4.17412 0
M  V30 3884 C 361.94 4.6335 2.41048 0
M  V30 3885 H 363.634 2.77292 1.12914 0
M  V30 3886 H 361.18 1.33421 0.541738 0
M  V30 3887 H 363.133 2.31324 3.52232 0
M  V30 3888 H 361.857 1.16304 3.0519 0
M  V30 3889 H 360.516 3.04276 2.04479 0
M  V30 3890 H 360.164 2.38098 4.43078 0
M  V30 3891 H 359.864 4.12033 4.18931 0
M  V30 3892 H 361.388 3.57803 4.94782 0
M  V30 3893 H 362.802 4.84602 3.06324 0
M  V30 3894 H 361.199 5.43782 2.53813 0
M  V30 3895 H 362.269 4.65381 1.36193 0
M  V30 3896 N 363.613 -0.582584 1.46437 0
M  V30 3897 C 364.862 -1.337 1.5102 0
M  V30 3898 C 365.175 -1.94891 0.166359 0
M  V30 3899 O 366.381 -2.71351 0.0899954 0
M  V30 3900 C 364.837 -2.42315 2.66104 0
M  V30 3901 C 364.445 -1.87427 4.06909 0
M  V30 3902 C 366.189 -3.19099 2.79958 0
M  V30 3903 C 364.096 -2.93672 5.13333 0
M  V30 3904 H 363.026 -0.502619 0.562041 0
M  V30 3905 H 365.677 -0.621701 1.72647 0
M  V30 3906 H 364.059 -3.16645 2.37807 0
M  V30 3907 H 365.233 -1.19639 4.44998 0
M  V30 3908 H 363.548 -1.2331 3.97723 0
M  V30 3909 H 366.145 -3.9839 3.56636 0
M  V30 3910 H 366.488 -3.71695 1.87479 0
M  V30 3911 H 367.021 -2.51875 3.07902 0
M  V30 3912 H 363.76 -2.45962 6.07604 0
M  V30 3913 H 363.28 -3.59948 4.79789 0
M  V30 3914 H 364.959 -3.5762 5.39182 0
M  V30 3915 N 365.091 -1.34144 -0.827227 0
M  V30 3916 C 366.321 -1.29138 -1.61267 0
M  V30 3917 C 366.729 0.137597 -1.88699 0
M  V30 3918 O 366.072 1.09379 -1.47587 0
M  V30 3919 C 366.134 -2.0097 -2.9808 0
M  V30 3920 C 365.798 -3.50242 -2.93563 0
M  V30 3921 C 366.795 -4.4523 -2.68452 0
M  V30 3922 C 364.48 -3.92592 -3.13331 0
M  V30 3923 C 366.474 -5.80542 -2.63154 0
M  V30 3924 C 364.161 -5.28005 -3.07658 0
M  V30 3925 C 365.159 -6.21792 -2.82602 0
M  V30 3926 O 364.847 -7.54723 -2.76853 0
M  V30 3927 H 364.579 -0.445851 -0.508127 0
M  V30 3928 H 367.133 -1.77263 -1.03763 0
M  V30 3929 H 365.363 -1.47451 -3.57484 0
M  V30 3930 H 367.052 -1.89309 -3.5905 0
M  V30 3931 H 367.818 -4.13832 -2.52919 0
M  V30 3932 H 363.697 -3.19994 -3.31851 0
M  V30 3933 H 367.241 -6.53717 -2.43516 0
M  V30 3934 H 363.138 -5.59023 -3.22743 0
M  V30 3935 H 363.906 -7.64409 -2.92611 0
M  V30 3936 N 366.569 1.04691 -1.17803 0
M  V30 3937 C 367.809 1.79352 -0.980423 0
M  V30 3938 C 368.173 1.85853 0.481958 0
M  V30 3939 O 369.374 2.56656 0.798809 0
M  V30 3940 C 367.645 3.19088 -1.6099 0
M  V30 3941 S 369.204 4.10164 -1.55918 0
M  V30 3942 H 366.022 0.617631 -0.352211 0
M  V30 3943 H 368.624 1.25575 -1.49837 0
M  V30 3944 H 367.328 3.11962 -2.66661 0
M  V30 3945 H 366.859 3.77941 -1.09197 0
M  V30 3946 H 368.874 4.92907 -0.570685 0
M  V30 3947 N 368.047 0.979072 1.23499 0
M  V30 3948 C 368.977 0.537606 2.27227 0
M  V30 3949 C 369.958 -0.428539 1.64613 0
M  V30 3950 O 371.143 -0.322191 1.91509 0
M  V30 3951 C 368.273 -0.162052 3.46922 0
M  V30 3952 C 367.227 0.721242 4.21879 0
M  V30 3953 C 366.553 -0.110555 5.34586 0
M  V30 3954 C 367.853 2.01141 4.82016 0
M  V30 3955 H 369.547 1.40462 2.64406 0
M  V30 3956 H 367.093 0.67684 1.27102 0
M  V30 3957 H 369.046 -0.482192 4.18632 0
M  V30 3958 H 367.77 -1.06351 3.08799 0
M  V30 3959 H 366.429 1.02482 3.51984 0
M  V30 3960 H 366.077 -1.0125 4.92704 0
M  V30 3961 H 365.777 0.477325 5.85658 0
M  V30 3962 H 367.301 -0.425107 6.09118 0
M  V30 3963 H 368.715 1.75612 5.45741 0
M  V30 3964 H 367.112 2.54695 5.43369 0
M  V30 3965 H 368.182 2.69909 4.02836 0
M  V30 3966 N 369.525 -1.3858 0.750561 0
M  V30 3967 C 370.472 -2.30483 0.120835 0
M  V30 3968 C 371.442 -1.50022 -0.712923 0
M  V30 3969 O 372.627 -1.78662 -0.669676 0
M  V30 3970 C 369.767 -3.36431 -0.768666 0
M  V30 3971 C 368.88 -4.31927 0.0793922 0
M  V30 3972 C 368.015 -5.24944 -0.81283 0
M  V30 3973 C 367.054 -6.12088 0.0390447 0
M  V30 3974 N 366.191 -6.97412 -0.809969 0
M  V30 3975 H 371.031 -2.83761 0.91015 0
M  V30 3976 H 368.568 -1.39707 0.460463 0
M  V30 3977 H 370.526 -3.96462 -1.29898 0
M  V30 3978 H 369.156 -2.8457 -1.5238 0
M  V30 3979 H 368.208 -3.73382 0.727303 0
M  V30 3980 H 369.52 -4.93319 0.737401 0
M  V30 3981 H 368.674 -5.90078 -1.41042 0
M  V30 3982 H 367.413 -4.63911 -1.50458 0
M  V30 3983 H 366.418 -5.45952 0.649328 0
M  V30 3984 H 367.643 -6.75189 0.727809 0
M  V30 3985 H 365.589 -6.38931 -1.48672 0
M  V30 3986 H 365.506 -7.55712 -0.208789 0
M  V30 3987 H 366.774 -7.66959 -1.39263 0
M  V30 3988 N 371.003 -0.499398 -1.49478 0
M  V30 3989 C 371.913 0.284489 -2.32869 0
M  V30 3990 C 372.929 0.968885 -1.44529 0
M  V30 3991 O 374.105 0.95062 -1.77553 0
M  V30 3992 C 371.17 1.33594 -3.19928 0
M  V30 3993 C 370.231 0.665149 -4.24116 0
M  V30 3994 C 369.464 1.6665 -5.07014 0
M  V30 3995 O 369.687 2.89618 -4.91404 0
M  V30 3996 O 368.621 1.22271 -5.8935 0
M  V30 3997 H 372.447 -0.39802 -3.01081 0
M  V30 3998 H 370.032 -0.260758 -1.47107 0
M  V30 3999 H 371.914 1.94431 -3.73864 0
M  V30 4000 H 370.589 2.0014 -2.54412 0
M  V30 4001 H 369.496 0.0170769 -3.74096 0
M  V30 4002 H 370.829 0.0421555 -4.92182 0
M  V30 4003 N 372.481 1.55866 -0.233164 0
M  V30 4004 C 373.444 2.1953 0.658715 0
M  V30 4005 C 374.444 1.16053 1.11303 0
M  V30 4006 O 375.634 1.41218 1.01996 0
M  V30 4007 C 372.766 2.82791 1.90373 0
M  V30 4008 H 373.959 2.99721 0.10347 0
M  V30 4009 H 371.512 1.56291 0.0164245 0
M  V30 4010 H 372.247 2.06501 2.50056 0
M  V30 4011 H 372.032 3.58578 1.58632 0
M  V30 4012 H 373.522 3.31556 2.53891 0
M  V30 4013 N 373.959 -0.0401083 1.57549 0
M  V30 4014 C 375.199 -0.738098 1.90608 0
M  V30 4015 C 375.563 -1.73107 0.830539 0
M  V30 4016 O 376.764 -2.4765 1.04513 0
M  V30 4017 C 375.035 -1.39985 3.28845 0
M  V30 4018 S 376.594 -2.12852 3.83718 0
M  V30 4019 H 373.412 -0.24477 0.667539 0
M  V30 4020 H 376.014 0.00693599 1.95499 0
M  V30 4021 H 374.718 -0.663775 4.04997 0
M  V30 4022 H 374.249 -2.18366 3.2723 0
M  V30 4023 H 376.264 -3.39842 3.61555 0
M  V30 4024 N 375.437 -1.54477 -0.31217 0
M  V30 4025 C 376.848 -1.64344 -0.885891 0
M  V30 4026 C 377.199 -0.54485 -1.88483 0
M  V30 4027 O 376.324 0.320387 -2.14015 0
M  V30 4028 C 376.919 -2.97908 -1.61357 0
M  V30 4029 C 375.478 -3.09933 -2.13585 0
M  V30 4030 C 374.625 -2.59971 -0.964897 0
M  V30 4031 H 377.576 -1.58448 -0.0894528 0
M  V30 4032 H 377.597 -2.88706 -2.47848 0
M  V30 4033 H 377.109 -3.77845 -0.886277 0
M  V30 4034 H 375.21 -2.34694 -2.89395 0
M  V30 4035 H 375.323 -4.15916 -2.37804 0
M  V30 4036 H 373.687 -2.16147 -1.34731 0
M  V30 4037 H 374.47 -3.42376 -0.251742 0
M  V30 4038 N 376.915 0.57481 -1.46744 0
M  V30 4039 C 377.863 1.70435 -1.58286 0
M  V30 4040 C 378.857 1.63287 -0.450956 0
M  V30 4041 O 380.063 1.68685 -0.628121 0
M  V30 4042 H 376.438 0.56364 -0.497809 0
M  V30 4043 H 378.409 1.57833 -2.53242 0
M  V30 4044 C 377.158 3.08815 -1.59776 0
M  V30 4045 H 376.481 3.1499 -2.46214 0
M  V30 4046 H 377.921 3.87588 -1.71905 0
M  V30 4047 C 376.38 3.35301 -0.327812 0
M  V30 4048 O 376.91 3.97511 0.57861 0
M  V30 4049 N 375.116 2.89816 -0.213274 0
M  V30 4050 H 374.663 2.39371 -0.951798 0
M  V30 4051 H 374.621 3.0791 0.63553 0
M  V30 4052 N 378.394 1.34581 0.820102 0
M  V30 4053 C 379.619 1.30333 1.61332 0
M  V30 4054 C 380.044 -0.119339 1.87721 0
M  V30 4055 O 379.402 -1.08197 1.45475 0
M  V30 4056 C 379.45 2.10258 2.92957 0
M  V30 4057 O 378.554 1.47404 3.85157 0
M  V30 4058 H 377.895 0.447488 0.490561 0
M  V30 4059 H 380.425 1.77425 1.01889 0
M  V30 4060 H 380.435 2.21718 3.42498 0
M  V30 4061 H 379.11 3.13693 2.73074 0
M  V30 4062 H 377.687 1.44703 3.43679 0
M  V30 4063 N 379.872 -1.04064 1.18357 0
M  V30 4064 C 381.097 -1.81454 1.00445 0
M  V30 4065 C 381.522 -1.82823 -0.442423 0
M  V30 4066 O 380.88 -1.24555 -1.31741 0
M  V30 4067 C 380.928 -3.24925 1.56384 0
M  V30 4068 O 380.032 -4.04856 0.785209 0
M  V30 4069 H 379.373 -0.560604 0.355835 0
M  V30 4070 H 381.903 -1.31059 1.57114 0
M  V30 4071 H 381.913 -3.75702 1.59097 0
M  V30 4072 H 380.588 -3.23244 2.61699 0
M  V30 4073 H 379.165 -3.63537 0.830399 0
M  V30 4074 N 381.35 -0.985608 -1.22978 0
M  V30 4075 C 382.313 -0.535071 -2.22867 0
M  V30 4076 C 383.313 0.378123 -1.56291 0
M  V30 4077 O 384.503 0.171092 -1.73358 0
M  V30 4078 C 381.635 0.222702 -3.40172 0
M  V30 4079 H 382.828 -1.41835 -2.6424 0
M  V30 4080 H 380.381 -0.772042 -1.35901 0
M  V30 4081 H 381.116 1.12229 -3.04262 0
M  V30 4082 H 380.901 -0.43288 -3.89703 0
M  V30 4083 H 382.391 0.526335 -4.1427 0
M  V30 4084 N 382.828 1.3818 -0.7579 0
M  V30 4085 C 384.053 2.04827 -0.325679 0
M  V30 4086 C 384.478 1.56788 1.03919 0
M  V30 4087 O 383.836 0.721811 1.66312 0
M  V30 4088 C 383.884 3.58774 -0.362447 0
M  V30 4089 O 382.988 4.07372 0.642033 0
M  V30 4090 H 382.329 0.64833 -0.143402 0
M  V30 4091 H 384.859 1.7677 -1.03023 0
M  V30 4092 H 384.869 4.07434 -0.214844 0
M  V30 4093 H 383.544 3.93096 -1.35824 0
M  V30 4094 H 382.121 3.70068 0.458688 0
M  V30 4095 N 384.306 0.507319 1.49211 0
M  V30 4096 C 385.254 -0.281364 2.30892 0
M  V30 4097 C 386.248 -0.95687 1.39787 0
M  V30 4098 O 387.454 -0.883838 1.56807 0
M  V30 4099 H 383.829 -0.109597 0.743971 0
M  V30 4100 H 385.8 0.42744 2.95323 0
M  V30 4101 C 384.549 -1.32918 3.21291 0
M  V30 4102 H 383.872 -0.818799 3.91326 0
M  V30 4103 H 385.312 -1.85288 3.81372 0
M  V30 4104 C 383.771 -2.35074 2.41333 0
M  V30 4105 O 384.301 -3.4108 2.12197 0
M  V30 4106 N 382.507 -2.07705 2.03241 0
M  V30 4107 H 382.054 -1.2152 2.27136 0
M  V30 4108 H 382.012 -2.76283 1.50051 0
M  V30 4109 N 385.784 -1.5574 0.241426 0
M  V30 4110 C 386.747 -2.19877 -0.647063 0
M  V30 4111 C 387.747 -1.16642 -1.10686 0
M  V30 4112 O 388.937 -1.41757 -1.01245 0
M  V30 4113 C 386.069 -2.83797 -1.88871 0
M  V30 4114 H 387.262 -2.99772 -0.087574 0
M  V30 4115 H 384.815 -1.56298 -0.00813574 0
M  V30 4116 H 385.55 -2.07824 -2.48957 0
M  V30 4117 H 385.335 -3.59414 -1.56728 0
M  V30 4118 H 386.825 -3.32898 -2.52129 0
M  V30 4119 N 387.262 0.0317525 -1.57568 0
M  V30 4120 C 388.487 0.738664 -1.938 0
M  V30 4121 C 388.912 1.68242 -0.841208 0
M  V30 4122 O 388.27 1.80157 0.203267 0
M  V30 4123 C 388.318 1.47417 -3.29091 0
M  V30 4124 O 387.422 2.5872 -3.2115 0
M  V30 4125 H 386.763 0.198856 -0.633524 0
M  V30 4126 H 389.293 -0.0119713 -2.04596 0
M  V30 4127 H 389.303 1.84468 -3.63917 0
M  V30 4128 H 387.978 0.781988 -4.08482 0
M  V30 4129 H 386.555 2.24231 -2.97951 0
M  V30 4130 N 388.74 1.54641 0.303973 0
M  V30 4131 C 389.988 1.73437 1.0375 0
M  V30 4132 C 390.309 0.521449 1.87899 0
M  V30 4133 O 389.579 -0.46432 1.90318 0
M  V30 4134 H 388.159 0.639518 0.386039 0
M  V30 4135 H 390.821 1.91988 0.335675 0
M  V30 4136 H 389.917 2.62235 1.69231 0
M  V30 4137 N 390.218 -0.567019 1.47046 0
M  V30 4138 C 391.181 -1.65696 1.58359 0
M  V30 4139 C 392.181 -1.54097 0.459441 0
M  V30 4140 O 393.371 -1.58432 0.724225 0
M  V30 4141 C 390.503 -3.05197 1.51879 0
M  V30 4142 H 391.696 -1.57019 2.5551 0
M  V30 4143 H 389.249 -0.786148 1.3509 0
M  V30 4144 H 389.984 -3.19417 0.560673 0
M  V30 4145 H 389.769 -3.15025 2.33455 0
M  V30 4146 H 391.259 -3.84511 1.62913 0
M  V30 4147 N 391.696 -1.35014 -0.812953 0
M  V30 4148 C 392.659 -1.27292 -1.90602 0
M  V30 4149 C 393.659 -0.185817 -1.59723 0
M  V30 4150 O 394.849 -0.439102 -1.68575 0
M  V30 4151 C 391.981 -0.967676 -3.26877 0
M  V30 4152 H 393.174 -2.24479 -1.9887 0
M  V30 4153 H 390.727 -1.19446 -1.00808 0
M  V30 4154 H 391.462 0.0005954 -3.243 0
M  V30 4155 H 391.247 -1.75412 -3.50675 0
M  V30 4156 H 392.737 -0.939085 -4.06904 0
M  V30 4157 N 393.175 1.03435 -1.18907 0
M  V30 4158 C 394.138 2.09756 -0.923844 0
M  V30 4159 C 395.138 1.60528 0.093416 0
M  V30 4160 O 396.328 1.73631 -0.140727 0
M  V30 4161 C 393.46 3.38692 -0.387354 0
M  V30 4162 H 394.653 2.34719 -1.86674 0
M  V30 4163 H 392.206 1.19959 -1.00197 0
M  V30 4164 H 392.941 3.19396 0.561845 0
M  V30 4165 H 392.726 3.75742 -1.12074 0
M  V30 4166 H 394.216 4.17016 -0.220694 0
M  V30 4167 N 394.653 0.992116 1.22453 0
M  V30 4168 C 396.064 0.702776 1.72968 0
M  V30 4169 C 396.415 -0.780399 1.80012 0
M  V30 4170 O 395.54 -1.61007 1.44589 0
M  V30 4171 C 396.135 1.26903 3.14135 0
M  V30 4172 C 394.694 1.02909 3.62059 0
M  V30 4173 C 393.841 1.38969 2.39964 0
M  V30 4174 H 396.792 1.16457 1.07812 0
M  V30 4175 H 396.813 0.647223 3.74955 0
M  V30 4176 H 396.325 2.34851 3.08977 0
M  V30 4177 H 394.426 -0.0337979 3.72585 0
M  V30 4178 H 394.539 1.69191 4.48231 0
M  V30 4179 H 392.903 0.808279 2.41535 0
M  V30 4180 H 393.686 2.4792 2.37467 0
M  V30 4181 N 396.131 -1.37776 0.765217 0
M  V30 4182 C 397.359 -2.04124 0.337767 0
M  V30 4183 C 397.774 -1.57715 -1.03785 0
M  V30 4184 O 397.131 -0.755447 -1.6613 0
M  V30 4185 C 397.182 -3.59658 0.364442 0
M  V30 4186 O 396.903 -4.04367 1.68579 0
M  V30 4187 C 398.404 -4.43236 -0.0754221 0
M  V30 4188 H 395.624 -0.655696 0.142491 0
M  V30 4189 H 398.168 -1.76238 1.03732 0
M  V30 4190 H 396.323 -3.86339 -0.286471 0
M  V30 4191 H 396.737 -4.98857 1.61993 0
M  V30 4192 H 398.211 -5.52 -0.00560067 0
M  V30 4193 H 398.688 -4.2455 -1.12491 0
M  V30 4194 H 399.294 -4.21767 0.547055 0
M  V30 4195 N 397.609 -0.515225 -1.4894 0
M  V30 4196 C 398.539 0.244628 -2.32215 0
M  V30 4197 C 399.52 0.949136 -1.41157 0
M  V30 4198 O 400.705 0.937783 -1.70057 0
M  V30 4199 C 397.835 1.30096 -3.22013 0
M  V30 4200 C 396.789 0.715486 -4.21977 0
M  V30 4201 C 396.115 1.87339 -5.00808 0
M  V30 4202 C 397.415 -0.302982 -5.2142 0
M  V30 4203 H 399.109 -0.450501 -2.95991 0
M  V30 4204 H 396.655 -0.218098 -1.42339 0
M  V30 4205 H 398.608 1.84037 -3.79089 0
M  V30 4206 H 397.332 2.02547 -2.56207 0
M  V30 4207 H 395.991 0.197715 -3.66066 0
M  V30 4208 H 395.639 2.58592 -4.31438 0
M  V30 4209 H 395.339 1.48764 -5.68457 0
M  V30 4210 H 396.863 2.41686 -5.60732 0
M  V30 4211 H 398.277 0.148802 -5.73107 0
M  V30 4212 H 396.674 -0.60532 -5.97039 0
M  V30 4213 H 397.744 -1.21395 -4.69459 0
M  V30 4214 N 399.087 1.5561 -0.249682 0
M  V30 4215 C 400.498 1.84979 0.252949 0
M  V30 4216 C 400.849 1.17153 1.57384 0
M  V30 4217 O 399.974 0.450884 2.11651 0
M  V30 4218 C 400.569 3.35584 0.465732 0
M  V30 4219 C 399.128 3.65169 0.912624 0
M  V30 4220 C 398.275 2.77299 -0.00859085 0
M  V30 4221 H 401.226 1.51513 -0.47217 0
M  V30 4222 H 401.247 3.57313 1.30795 0
M  V30 4223 H 400.759 3.8492 -0.49579 0
M  V30 4224 H 398.86 3.21312 1.88652 0
M  V30 4225 H 398.973 4.72912 0.767559 0
M  V30 4226 H 397.337 2.49678 0.50327 0
M  V30 4227 H 398.12 3.29442 -0.965537 0
M  V30 4228 N 400.565 -0.0233959 1.57583 0
M  V30 4229 C 401.528 -1.00693 2.05897 0
M  V30 4230 C 402.528 -1.28693 0.964092 0
M  V30 4231 O 403.718 -1.23602 1.22753 0
M  V30 4232 C 400.85 -2.33825 2.4807 0
M  V30 4233 H 402.043 -0.589476 2.9405 0
M  V30 4234 H 399.596 -0.270354 1.53944 0
M  V30 4235 H 400.331 -2.80307 1.6309 0
M  V30 4236 H 400.116 -2.1483 3.2801 0
M  V30 4237 H 401.606 -3.04426 2.85857 0
M  V30 4238 N 402.043 -1.548 -0.295768 0
M  V30 4239 C 402.993 -1.82497 -1.3667 0
M  V30 4240 C 403.977 -0.682434 -1.45711 0
M  V30 4241 O 405.169 -0.943207 -1.49775 0
M  V30 4242 C 402.298 -2.08036 -2.73086 0
M  V30 4243 C 401.384 -3.28488 -2.68247 0
M  V30 4244 N 401.775 -4.48924 -2.33025 0
M  V30 4245 C 400.073 -3.3062 -2.99343 0
M  V30 4246 C 400.774 -5.30956 -2.37613 0
M  V30 4247 N 399.75 -4.68805 -2.75178 0
M  V30 4248 H 403.552 -2.73175 -1.0841 0
M  V30 4249 H 401.066 -1.5437 -0.504361 0
M  V30 4250 H 403.063 -2.26027 -3.5031 0
M  V30 4251 H 401.723 -1.18629 -3.02254 0
M  V30 4252 H 402.734 -4.75432 -2.05389 0
M  V30 4253 H 399.411 -2.51336 -3.33371 0
M  V30 4254 H 400.801 -6.37199 -2.13135 0
M  V30 4255 N 403.521 0.559213 -1.47345 0
M  V30 4256 C 404.932 1.14134 -1.47751 0
M  V30 4257 C 405.283 1.94834 -0.231103 0
M  V30 4258 O 404.408 2.05957 0.664137 0
M  V30 4259 C 405.003 2.07653 -2.67705 0
M  V30 4260 C 403.562 2.61141 -2.71076 0
M  V30 4261 C 402.709 1.3748 -2.40821 0
M  V30 4262 H 405.66 0.345917 -1.54884 0
M  V30 4263 H 405.681 2.91497 -2.44561 0
M  V30 4264 H 405.193 1.4889 -3.58404 0
M  V30 4265 H 403.294 3.23707 -1.84511 0
M  V30 4266 H 403.407 3.02272 -3.7171 0
M  V30 4267 H 401.771 1.68086 -1.91362 0
M  V30 4268 H 402.554 0.805135 -3.33725 0
M  V30 4269 N 404.999 1.35443 0.805782 0
M  V30 4270 C 406.224 1.32037 1.59941 0
M  V30 4271 C 406.649 -0.0994215 1.87837 0
M  V30 4272 O 406.007 -1.06648 1.46615 0
M  V30 4273 C 406.055 2.13354 2.90711 0
M  V30 4274 O 405.159 1.5148 3.83572 0
M  V30 4275 H 404.5 0.452666 0.485787 0
M  V30 4276 H 407.03 1.78496 1.00002 0
M  V30 4277 H 407.04 2.25338 3.40128 0
M  V30 4278 H 405.715 3.16572 2.69732 0
M  V30 4279 H 404.292 1.4834 3.42125 0
M  V30 4280 N 406.477 -1.02803 1.19454 0
M  V30 4281 C 407.705 -1.79841 1.02297 0
M  V30 4282 C 408.12 -1.83879 -0.428259 0
M  V30 4283 O 407.477 -1.28345 -1.29745 0
M  V30 4284 C 407.528 -3.24852 1.58598 0
M  V30 4285 O 407.249 -3.21097 2.98041 0
M  V30 4286 C 408.75 -4.18485 1.46236 0
M  V30 4287 H 405.97 -0.565936 0.360496 0
M  V30 4288 H 408.514 -1.2948 1.58288 0
M  V30 4289 H 406.669 -3.72401 1.06753 0
M  V30 4290 H 407.083 -4.12033 3.24545 0
M  V30 4291 H 408.557 -5.18121 1.90407 0
M  V30 4292 H 409.034 -4.37254 0.41301 0
M  V30 4293 H 409.64 -3.76811 1.97215 0
M  V30 4294 N 407.956 -0.998596 -1.21925 0
M  V30 4295 C 408.886 -0.573688 -2.26343 0
M  V30 4296 C 409.867 0.402296 -1.65274 0
M  V30 4297 O 411.052 0.291683 -1.91997 0
M  V30 4298 C 408.182 0.106839 -3.47136 0
M  V30 4299 C 407.136 -0.788269 -4.20678 0
M  V30 4300 C 406.462 0.0254927 -5.34694 0
M  V30 4301 C 407.762 -2.08784 -4.78755 0
M  V30 4302 H 409.456 -1.44651 -2.62138 0
M  V30 4303 H 407.002 -0.696975 -1.26009 0
M  V30 4304 H 408.955 0.415531 -4.19346 0
M  V30 4305 H 407.679 1.01424 -3.10452 0
M  V30 4306 H 406.338 -1.08069 -3.50309 0
M  V30 4307 H 405.986 0.933989 -4.94253 0
M  V30 4308 H 405.686 -0.570437 -5.84825 0
M  V30 4309 H 407.21 0.328147 -6.09718 0
M  V30 4310 H 408.624 -1.84272 -5.42878 0
M  V30 4311 H 407.021 -2.63307 -5.39249 0
M  V30 4312 H 408.091 -2.76284 -3.98491 0
M  V30 4313 N 409.434 1.37368 -0.772513 0
M  V30 4314 C 410.662 2.03942 -0.348588 0
M  V30 4315 C 411.077 1.58264 1.02947 0
M  V30 4316 O 410.434 0.764246 1.65727 0
M  V30 4317 C 410.485 3.5946 -0.38351 0
M  V30 4318 O 410.206 4.03468 -1.70721 0
M  V30 4319 C 411.707 4.4327 0.0519152 0
M  V30 4320 H 408.927 0.654931 -0.145966 0
M  V30 4321 H 411.471 1.75686 -1.04665 0
M  V30 4322 H 409.626 3.86486 0.265978 0
M  V30 4323 H 410.04 4.97991 -1.64636 0
M  V30 4324 H 411.514 5.51995 -0.0236733 0
M  V30 4325 H 411.991 4.2514 1.10238 0
M  V30 4326 H 412.597 4.21471 -0.569415 0
M  V30 4327 N 410.912 0.523116 1.48665 0
M  V30 4328 C 411.862 -0.263106 2.26477 0
M  V30 4329 C 412.846 -0.916005 1.32281 0
M  V30 4330 O 414.038 -0.819946 1.56863 0
M  V30 4331 C 411.167 -1.31361 3.17174 0
M  V30 4332 C 410.253 -0.665849 4.1884 0
M  V30 4333 N 410.644 0.244434 5.05209 0
M  V30 4334 C 408.942 -0.923863 4.36326 0
M  V30 4335 C 409.643 0.617443 5.78414 0
M  V30 4336 N 408.619 -0.0198686 5.43596 0
M  V30 4337 H 412.421 0.437295 2.90629 0
M  V30 4338 H 409.935 0.340675 1.58787 0
M  V30 4339 H 411.932 -1.89052 3.71571 0
M  V30 4340 H 410.592 -2.01546 2.54576 0
M  V30 4341 H 411.603 0.616621 5.14216 0
M  V30 4342 H 408.28 -1.6168 3.84923 0
M  V30 4343 H 409.67 1.36346 6.57921 0
M  V30 4344 N 412.39 -1.55475 0.257931 0
M  V30 4345 C 413.801 -1.8511 -0.243135 0
M  V30 4346 C 414.152 -1.17986 -1.5676 0
M  V30 4347 O 413.277 -0.462102 -2.11409 0
M  V30 4348 C 413.872 -3.35826 -0.447929 0
M  V30 4349 C 412.431 -3.65647 -0.893245 0
M  V30 4350 C 411.578 -2.7729 0.0232965 0
M  V30 4351 H 414.529 -1.51261 0.480199 0
M  V30 4352 H 414.55 -3.58002 -1.28898 0
M  V30 4353 H 414.062 -3.84652 0.516196 0
M  V30 4354 H 412.163 -3.22308 -1.86945 0
M  V30 4355 H 412.276 -4.73312 -0.742469 0
M  V30 4356 H 410.64 -2.49942 -0.490021 0
M  V30 4357 H 411.423 -3.28926 0.982994 0
M  V30 4358 N 413.868 0.0150385 -1.57593 0
M  V30 4359 C 414.8 1.03912 -2.04291 0
M  V30 4360 C 415.813 1.31618 -0.958146 0
M  V30 4361 O 417.002 1.28859 -1.23522 0
M  V30 4362 C 414.102 2.37749 -2.41514 0
M  V30 4363 C 413.275 2.29198 -3.72541 0
M  V30 4364 C 412.334 3.45598 -3.96797 0
M  V30 4365 O 411.36 3.24461 -4.67668 0
M  V30 4366 N 412.562 4.67945 -3.43523 0
M  V30 4367 H 415.327 0.64099 -2.92765 0
M  V30 4368 H 412.888 0.20272 -1.60626 0
M  V30 4369 H 414.88 3.14364 -2.54867 0
M  V30 4370 H 413.45 2.69357 -1.58637 0
M  V30 4371 H 412.67 1.3759 -3.69408 0
M  V30 4372 H 413.958 2.20642 -4.5847 0
M  V30 4373 H 413.356 4.88017 -2.86104 0
M  V30 4374 H 411.913 5.41878 -3.62232 0
M  V30 4375 N 415.346 1.54954 0.287554 0
M  V30 4376 C 416.762 1.46469 0.633964 0
M  V30 4377 C 416.962 0.666865 1.90145 0
M  V30 4378 O 416.018 0.179906 2.51858 0
M  V30 4379 C 417.331 2.90556 0.774454 0
M  V30 4380 C 418.879 3.00681 0.869462 0
M  V30 4381 C 419.354 4.45993 1.04184 0
M  V30 4382 N 420.845 4.4976 1.10772 0
M  V30 4383 C 421.58 5.59393 1.25964 0
M  V30 4384 N 421.076 6.78923 1.37968 0
M  V30 4385 N 422.869 5.47107 1.28959 0
M  V30 4386 H 415.02 2.05288 -0.545041 0
M  V30 4387 H 417.283 0.930305 -0.182308 0
M  V30 4388 H 416.989 3.51594 -0.086207 0
M  V30 4389 H 416.863 3.38743 1.6593 0
M  V30 4390 H 419.25 2.39749 1.7206 0
M  V30 4391 H 419.331 2.55769 -0.0396831 0
M  V30 4392 H 418.975 5.07524 0.195422 0
M  V30 4393 H 418.905 4.88548 1.96542 0
M  V30 4394 H 421.396 3.63651 1.02794 0
M  V30 4395 H 421.709 7.58231 1.49353 0
M  V30 4396 H 420.054 6.81763 1.34999 0
M  V30 4397 H 423.245 4.52668 1.19202 0
M  V30 4398 H 423.418 6.32595 1.40455 0
M  V30 4399 N 416.824 -0.551391 1.4764 0
M  V30 4400 C 418.24 -0.877887 1.33287 0
M  V30 4401 C 418.44 -1.98817 0.327721 0
M  V30 4402 O 417.496 -2.51171 -0.258695 0
M  V30 4403 C 418.809 -1.26563 2.72768 0
M  V30 4404 C 420.357 -1.37673 2.81097 0
M  V30 4405 C 420.832 -1.79799 4.21232 0
M  V30 4406 N 422.323 -1.8694 4.23802 0
M  V30 4407 C 423.058 -2.20876 5.29151 0
M  V30 4408 N 422.554 -2.53386 6.448 0
M  V30 4409 N 424.347 -2.217 5.16532 0
M  V30 4410 H 416.498 0.18153 2.11623 0
M  V30 4411 H 418.761 0.0185514 0.947818 0
M  V30 4412 H 418.467 -0.523591 3.47781 0
M  V30 4413 H 418.341 -2.22052 3.04915 0
M  V30 4414 H 420.728 -2.10956 2.06353 0
M  V30 4415 H 420.809 -0.40357 2.52596 0
M  V30 4416 H 420.453 -1.07083 4.96483 0
M  V30 4417 H 420.383 -2.78128 4.4716 0
M  V30 4418 H 422.874 -1.64179 3.40373 0
M  V30 4419 H 423.187 -2.78325 7.20941 0
M  V30 4420 H 421.532 -2.50953 6.48111 0
M  V30 4421 H 424.723 -1.95745 4.25207 0
M  V30 4422 H 424.896 -2.47818 5.98741 0
M  V30 4423 N 418.302 -1.35869 -0.798587 0
M  V30 4424 C 419.551 -1.28921 -1.5512 0
M  V30 4425 C 419.864 0.13208 -1.95154 0
M  V30 4426 O 421.07 0.323879 -2.69561 0
M  V30 4427 C 419.526 -2.26141 -2.79979 0
M  V30 4428 C 419.134 -3.73658 -2.47151 0
M  V30 4429 C 420.878 -2.28152 -3.57976 0
M  V30 4430 C 418.785 -4.62679 -3.6835 0
M  V30 4431 H 417.715 -0.479031 -0.582276 0
M  V30 4432 H 420.366 -1.61179 -0.877125 0
M  V30 4433 H 418.748 -1.86865 -3.49138 0
M  V30 4434 H 419.922 -4.21616 -1.85947 0
M  V30 4435 H 418.237 -3.74333 -1.82383 0
M  V30 4436 H 420.834 -2.91875 -4.4801 0
M  V30 4437 H 421.177 -1.28748 -3.95891 0
M  V30 4438 H 421.71 -2.65998 -2.95787 0
M  V30 4439 H 418.449 -5.63111 -3.35538 0
M  V30 4440 H 417.969 -4.19442 -4.28752 0
M  V30 4441 H 419.648 -4.78498 -4.35487 0
M  V30 4442 N 419.78 1.02168 -1.19998 0
M  V30 4443 C 421.057 1.72816 -0.916191 0
M  V30 4444 C 421.437 2.03081 0.576325 0
M  V30 4445 O 420.785 1.69122 1.53656 0
M  V30 4446 C 420.995 2.9997 -1.78378 0
M  V30 4447 C 422.343 3.73336 -2.02251 0
M  V30 4448 O 423.367 3.09914 -1.75589 0
M  V30 4449 O 422.226 4.87371 -2.47249 0
M  V30 4450 H 419.32 0.752924 -0.342103 0
M  V30 4451 H 421.866 1.08062 -1.30846 0
M  V30 4452 H 420.638 2.73888 -2.79466 0
M  V30 4453 H 420.261 3.72464 -1.39126 0
M  V30 4454 N 421.258 1.00505 1.21394 0
M  V30 4455 C 422.486 0.706609 1.9446 0
M  V30 4456 C 422.901 -0.73081 1.74082 0
M  V30 4457 O 422.258 -1.49446 1.04747 0
M  V30 4458 C 422.309 1.01824 3.46863 0
M  V30 4459 O 422.03 2.39919 3.66566 0
M  V30 4460 C 423.531 0.739216 4.37093 0
M  V30 4461 H 420.751 0.260394 0.618414 0
M  V30 4462 H 423.295 1.34311 1.54211 0
M  V30 4463 H 421.45 0.427343 3.85036 0
M  V30 4464 H 421.864 2.50784 4.6066 0
M  V30 4465 H 423.338 1.00744 5.42729 0
M  V30 4466 H 423.815 -0.326746 4.37983 0
M  V30 4467 H 424.421 1.31173 4.04566 0
M  V30 4468 N 422.737 -1.36956 0.779787 0
M  V30 4469 C 423.667 -2.32761 0.185651 0
M  V30 4470 C 424.648 -1.56177 -0.673989 0
M  V30 4471 O 425.833 -1.84378 -0.609797 0
M  V30 4472 C 422.963 -3.40418 -0.687964 0
M  V30 4473 C 421.917 -4.27941 0.0710102 0
M  V30 4474 C 421.243 -5.26681 -0.922573 0
M  V30 4475 C 422.543 -5.07006 1.25467 0
M  V30 4476 H 424.237 -2.82698 0.986008 0
M  V30 4477 H 421.783 -1.3592 0.475592 0
M  V30 4478 H 423.736 -4.06423 -1.11348 0
M  V30 4479 H 422.46 -2.89025 -1.52093 0
M  V30 4480 H 421.119 -3.63478 0.47739 0
M  V30 4481 H 420.767 -4.71565 -1.7503 0
M  V30 4482 H 420.467 -5.86103 -0.419237 0
M  V30 4483 H 421.991 -5.9556 -1.34686 0
M  V30 4484 H 423.405 -5.66105 0.905401 0
M  V30 4485 H 421.802 -5.75793 1.69063 0
M  V30 4486 H 422.872 -4.3921 2.05481 0
M  V30 4487 N 424.215 -0.530993 -1.48385 0
M  V30 4488 C 425.163 0.244595 -2.3131 0
M  V30 4489 C 426.157 0.93451 -1.41291 0
M  V30 4490 O 427.363 0.85878 -1.58193 0
M  V30 4491 H 423.738 0.0977472 -0.74562 0
M  V30 4492 H 425.709 -0.474369 -2.94605 0
M  V30 4493 C 424.458 1.2779 -3.23365 0
M  V30 4494 H 423.781 0.756439 -3.92579 0
M  V30 4495 H 425.221 1.79198 -3.84271 0
M  V30 4496 C 423.68 2.31205 -2.45042 0
M  V30 4497 O 424.21 3.37661 -2.17596 0
M  V30 4498 N 422.416 2.04446 -2.0652 0
M  V30 4499 H 421.963 1.17891 -2.2904 0
M  V30 4500 H 421.921 2.73861 -1.54427 0
M  V30 4501 N 425.693 1.55336 -0.266172 0
M  V30 4502 C 426.918 2.04258 0.359661 0
M  V30 4503 C 427.343 1.14359 1.49344 0
M  V30 4504 O 426.701 0.140369 1.80756 0
M  V30 4505 C 426.749 3.50997 0.826635 0
M  V30 4506 O 425.853 3.64204 1.93466 0
M  V30 4507 H 425.194 0.659668 0.075727 0
M  V30 4508 H 427.724 2.00694 -0.39786 0
M  V30 4509 H 427.734 3.9219 1.12477 0
M  V30 4510 H 426.409 4.159 -0.00293032 0
M  V30 4511 H 424.986 3.34913 1.63974 0
M  V30 4512 N 427.171 -0.0066808 1.57599 0
M  V30 4513 C 428.448 -0.729586 1.81484 0
M  V30 4514 C 428.828 -1.92359 0.869558 0
M  V30 4515 O 428.176 -2.28348 -0.0832533 0
M  V30 4516 C 428.386 -1.1416 3.29801 0
M  V30 4517 C 429.734 -1.54823 3.95367 0
M  V30 4518 O 430.758 -1.23558 3.34084 0
M  V30 4519 O 429.617 -2.12937 5.03309 0
M  V30 4520 H 426.711 -0.354674 0.747085 0
M  V30 4521 H 429.257 0.0182609 1.6969 0
M  V30 4522 H 428.029 -0.290231 3.90222 0
M  V30 4523 H 427.652 -1.94876 3.46568 0
M  V30 4524 N 428.649 -1.55105 -0.279332 0
M  V30 4525 C 429.897 -1.75066 -1.00977 0
M  V30 4526 C 430.218 -0.551276 -1.87045 0
M  V30 4527 O 429.488 0.433984 -1.91032 0
M  V30 4528 H 428.068 -0.645578 -0.375816 0
M  V30 4529 H 430.73 -1.92497 -0.305089 0
M  V30 4530 H 429.826 -2.64894 -1.65038 0
M  V30 4531 N 430.127 0.543554 -1.4793 0
M  V30 4532 C 431.357 1.32324 -1.58663 0
M  V30 4533 C 431.765 1.8766 -0.240896 0
M  V30 4534 O 431.108 1.66411 0.778011 0
M  V30 4535 C 431.17 2.52094 -2.56299 0
M  V30 4536 C 430.834 2.17944 -4.01683 0
M  V30 4537 C 431.831 1.74422 -4.89768 0
M  V30 4538 C 429.516 2.28884 -4.47121 0
M  V30 4539 C 431.51 1.42287 -6.21316 0
M  V30 4540 C 429.197 1.96361 -5.78693 0
M  V30 4541 C 430.195 1.53132 -6.65612 0
M  V30 4542 O 429.883 1.21029 -7.94737 0
M  V30 4543 H 429.615 0.409174 -0.538101 0
M  V30 4544 H 432.169 0.663887 -1.94375 0
M  V30 4545 H 430.399 3.20965 -2.15681 0
M  V30 4546 H 432.088 3.14165 -2.57012 0
M  V30 4547 H 432.854 1.65452 -4.55907 0
M  V30 4548 H 428.733 2.61488 -3.79664 0
M  V30 4549 H 432.277 1.08472 -6.89115 0
M  V30 4550 H 428.174 2.04967 -6.12094 0
M  V30 4551 H 428.942 1.34543 -8.07366 0
M  V30 4552 N 431.605 1.3629 0.791371 0
M  V30 4553 C 432.833 1.33562 1.58016 0
M  V30 4554 C 433.248 -0.0835616 1.88615 0
M  V30 4555 O 432.605 -1.0399 1.49974 0
M  V30 4556 C 432.656 2.15517 2.90232 0
M  V30 4557 O 432.377 3.51902 2.60953 0
M  V30 4558 C 433.878 2.20546 3.84544 0
M  V30 4559 H 431.098 0.458226 0.490173 0
M  V30 4560 H 433.642 1.79361 0.982345 0
M  V30 4561 H 431.797 1.73278 3.46487 0
M  V30 4562 H 432.211 3.94644 3.4548 0
M  V30 4563 H 433.685 2.82252 4.74382 0
M  V30 4564 H 434.162 1.20838 4.2225 0
M  V30 4565 H 434.768 2.63013 3.34222 0
M  V30 4566 N 433.083 -1.0153 1.20538 0
M  V30 4567 C 434.494 -1.56598 1.01657 0
M  V30 4568 C 434.845 -1.91505 -0.426668 0
M  V30 4569 O 433.97 -1.72375 -1.30827 0
M  V30 4570 C 434.565 -2.84542 1.83905 0
M  V30 4571 C 433.124 -3.36133 1.69386 0
M  V30 4572 C 432.271 -2.09427 1.81757 0
M  V30 4573 H 435.222 -0.838974 1.34711 0
M  V30 4574 H 435.243 -3.56004 1.34319 0
M  V30 4575 H 434.755 -2.59105 2.8894 0
M  V30 4576 H 432.856 -3.66528 0.669933 0
M  V30 4577 H 432.969 -4.08248 2.50739 0
M  V30 4578 H 431.333 -2.21941 1.24957 0
M  V30 4579 H 432.116 -1.86414 2.88279 0
M  V30 4580 N 434.561 -1.01147 -1.20859 0
M  V30 4581 C 435.471 -0.58686 -2.27141 0
M  V30 4582 C 436.487 0.373198 -1.69951 0
M  V30 4583 O 437.663 0.235423 -2.00019 0
M  V30 4584 C 434.728 0.0733602 -3.46622 0
M  V30 4585 C 433.789 -0.931995 -4.19061 0
M  V30 4586 C 433.022 -0.303186 -5.32838 0
M  V30 4587 O 433.245 0.898395 -5.63281 0
M  V30 4588 O 432.179 -1.01735 -5.9324 0
M  V30 4589 H 436.005 -1.47155 -2.65667 0
M  V30 4590 H 433.59 -0.780689 -1.2738 0
M  V30 4591 H 435.472 0.442333 -4.19072 0
M  V30 4592 H 434.147 0.932329 -3.09983 0
M  V30 4593 H 433.054 -1.35224 -3.48805 0
M  V30 4594 H 434.387 -1.76076 -4.59628 0
M  V30 4595 N 436.039 1.36541 -0.78704 0
M  V30 4596 C 437.45 1.81873 -0.421807 0
M  V30 4597 C 437.801 1.65487 1.05397 0
M  V30 4598 O 436.926 1.17448 1.81755 0
M  V30 4599 C 437.521 3.30192 -0.758841 0
M  V30 4600 C 436.08 3.73743 -0.446468 0
M  V30 4601 C 435.227 2.58844 -0.994728 0
M  V30 4602 H 438.178 1.24796 -0.98039 0
M  V30 4603 H 438.199 3.80468 -0.0490648 0
M  V30 4604 H 437.711 3.42087 -1.83299 0
M  V30 4605 H 435.812 3.6741 0.619739 0
M  V30 4606 H 435.925 4.69272 -0.965415 0
M  V30 4607 H 434.289 2.51245 -0.418087 0
M  V30 4608 H 435.072 2.73525 -2.07458 0
M  V30 4609 N 437.518 0.538854 1.48102 0
M  V30 4610 C 438.481 -0.208395 2.28251 0
M  V30 4611 C 439.481 -0.859656 1.35892 0
M  V30 4612 O 440.671 -0.71834 1.58699 0
M  V30 4613 C 437.803 -1.30252 3.15035 0
M  V30 4614 H 438.996 0.495407 2.9578 0
M  V30 4615 H 436.549 0.295112 1.53489 0
M  V30 4616 H 437.284 -2.0393 2.52157 0
M  V30 4617 H 437.069 -0.840551 3.82985 0
M  V30 4618 H 438.559 -1.82787 3.75471 0
M  V30 4619 N 438.996 -1.55193 0.274407 0
M  V30 4620 C 440.412 -1.59401 -0.0797543 0
M  V30 4621 C 440.612 -1.29162 -1.54659 0
M  V30 4622 O 439.668 -1.05215 -2.29534 0
M  V30 4623 C 440.981 -2.99257 0.294238 0
M  V30 4624 C 442.529 -3.12072 0.240796 0
M  V30 4625 C 443.004 -4.54194 0.589218 0
M  V30 4626 N 444.495 -4.60033 0.540744 0
M  V30 4627 C 445.23 -5.68027 0.783147 0
M  V30 4628 N 444.726 -6.8417 1.09013 0
M  V30 4629 N 446.519 -5.57572 0.711993 0
M  V30 4630 H 438.67 -1.73113 1.23067 0
M  V30 4631 H 440.933 -0.807197 0.497129 0
M  V30 4632 H 440.639 -3.26217 1.31435 0
M  V30 4633 H 440.513 -3.75427 -0.365281 0
M  V30 4634 H 442.9 -2.84877 -0.770024 0
M  V30 4635 H 442.981 -2.38117 0.934563 0
M  V30 4636 H 442.625 -4.82115 1.59772 0
M  V30 4637 H 442.555 -5.26448 -0.126331 0
M  V30 4638 H 445.046 -3.76599 0.313327 0
M  V30 4639 H 445.359 -7.6243 1.26178 0
M  V30 4640 H 443.704 -6.85787 1.12789 0
M  V30 4641 H 446.895 -4.65714 0.472014 0
M  V30 4642 H 447.068 -6.41659 0.90429 0
M  V30 4643 N 440.474 -0.00167713 -1.576 0
M  V30 4644 C 441.723 0.682021 -1.89819 0
M  V30 4645 C 442.036 1.74844 -0.876871 0
M  V30 4646 O 443.242 2.48688 -1.08934 0
M  V30 4647 C 441.698 1.26425 -3.36964 0
M  V30 4648 C 441.306 0.232568 -4.47396 0
M  V30 4649 C 443.05 1.92604 -3.78291 0
M  V30 4650 C 440.957 0.824882 -5.85619 0
M  V30 4651 H 439.887 0.258499 -0.708304 0
M  V30 4652 H 442.538 -0.0624957 -1.83394 0
M  V30 4653 H 440.92 2.05949 -3.38232 0
M  V30 4654 H 442.094 -0.5382 -4.57646 0
M  V30 4655 H 440.409 -0.32888 -4.15099 0
M  V30 4656 H 443.006 2.37827 -4.78897 0
M  V30 4657 H 443.349 2.75732 -3.11894 0
M  V30 4658 H 443.882 1.19812 -3.79328 0
M  V30 4659 H 440.621 0.0323542 -6.55492 0
M  V30 4660 H 440.141 1.56477 -5.79029 0
M  V30 4661 H 441.82 1.32301 -6.33329 0
M  V30 4662 N 441.952 1.55251 0.271103 0
M  V30 4663 C 443.18 1.79974 1.02064 0
M  V30 4664 C 443.595 0.574003 1.79863 0
M  V30 4665 O 442.952 -0.456962 1.76686 0
M  V30 4666 C 443.003 3.02603 1.97772 0
M  V30 4667 O 442.724 4.20443 1.23124 0
M  V30 4668 C 444.225 3.39944 2.84522 0
M  V30 4669 H 441.445 0.599489 0.301419 0
M  V30 4670 H 443.989 2.02268 0.301313 0
M  V30 4671 H 442.144 2.8243 2.65165 0
M  V30 4672 H 442.558 4.89783 1.87651 0
M  V30 4673 H 444.032 4.28915 3.47471 0
M  V30 4674 H 444.509 2.59432 3.54389 0
M  V30 4675 H 445.115 3.62383 2.22618 0
M  V30 4676 N 443.43 -0.535701 1.48216 0
M  V30 4677 C 444.655 -1.32149 1.59848 0
M  V30 4678 C 445.08 -1.86338 0.256842 0
M  V30 4679 O 444.438 -1.64107 -0.770632 0
M  V30 4680 C 444.486 -2.45224 2.64381 0
M  V30 4681 O 443.59 -3.48093 2.21144 0
M  V30 4682 H 442.931 -0.391634 0.536208 0
M  V30 4683 H 445.461 -0.645202 1.94161 0
M  V30 4684 H 445.471 -2.91491 2.85476 0
M  V30 4685 H 444.146 -2.05143 3.61786 0
M  V30 4686 H 442.723 -3.07984 2.10239 0
M  V30 4687 N 444.908 -1.36708 -0.784132 0
M  V30 4688 C 446.319 -1.27947 -1.35965 0
M  V30 4689 C 446.67 0.0784013 -1.96043 0
M  V30 4690 O 445.795 0.979989 -1.92938 0
M  V30 4691 C 446.39 -2.31689 -2.47195 0
M  V30 4692 C 444.949 -2.26601 -3.00548 0
M  V30 4693 C 444.096 -2.16184 -1.73666 0
M  V30 4694 H 447.047 -1.4751 -0.585358 0
M  V30 4695 H 447.068 -1.95638 -3.26352 0
M  V30 4696 H 446.58 -3.30506 -2.03439 0
M  V30 4697 H 444.681 -1.31268 -3.48711 0
M  V30 4698 H 444.794 -3.19508 -3.57004 0
M  V30 4699 H 443.158 -1.62524 -1.96107 0
M  V30 4700 H 443.941 -3.16896 -1.32031 0
M  V30 4701 N 446.386 1.0089 -1.21074 0
M  V30 4702 C 447.663 1.71834 -0.934469 0
M  V30 4703 C 448.043 2.0368 0.554753 0
M  V30 4704 O 447.391 1.70742 1.51854 0
M  V30 4705 C 447.601 2.98061 -1.8155 0
M  V30 4706 C 448.949 3.7117 -2.06199 0
M  V30 4707 O 449.973 3.08034 -1.78867 0
M  V30 4708 O 448.832 4.84721 -2.52404 0
M  V30 4709 H 445.926 0.749253 -0.35007 0
M  V30 4710 H 448.472 1.06668 -1.31985 0
M  V30 4711 H 447.244 2.70908 -2.82355 0
M  V30 4712 H 446.867 3.70968 -1.43068 0
M  V30 4713 N 447.864 1.01787 1.20321 0
M  V30 4714 C 448.811 0.589197 2.23153 0
M  V30 4715 C 449.781 -0.391367 1.61423 0
M  V30 4716 O 450.966 -0.290518 1.88575 0
M  V30 4717 C 448.106 -0.0650747 3.45039 0
M  V30 4718 C 447.219 0.960207 4.21194 0
M  V30 4719 C 446.354 0.276854 5.30478 0
M  V30 4720 C 445.393 1.2888 5.98378 0
M  V30 4721 N 444.53 0.632031 6.99249 0
M  V30 4722 H 449.37 1.47071 2.59179 0
M  V30 4723 H 446.907 0.736192 1.27352 0
M  V30 4724 H 448.865 -0.461552 4.14639 0
M  V30 4725 H 447.495 -0.910233 3.09701 0
M  V30 4726 H 446.547 1.47484 3.50646 0
M  V30 4727 H 447.859 1.72977 4.67847 0
M  V30 4728 H 447.013 -0.175056 6.06447 0
M  V30 4729 H 445.752 -0.525004 4.84866 0
M  V30 4730 H 444.757 1.75109 5.21169 0
M  V30 4731 H 445.982 2.09196 6.46076 0
M  V30 4732 H 443.928 -0.149935 6.55829 0
M  V30 4733 H 443.845 1.33964 7.44036 0
M  V30 4734 H 445.113 0.203755 7.79234 0
M  V30 4735 N 449.342 -1.36122 0.79427 0
M  V30 4736 C 450.753 -1.81646 0.431446 0
M  V30 4737 C 451.104 -1.66043 -1.04518 0
M  V30 4738 O 450.229 -1.1841 -1.8113 0
M  V30 4739 C 450.824 -3.29785 0.776341 0
M  V30 4740 C 449.383 -3.73501 0.466282 0
M  V30 4741 C 448.53 -2.58313 1.00844 0
M  V30 4742 H 451.481 -1.24274 0.986995 0
M  V30 4743 H 451.502 -3.80437 0.0692413 0
M  V30 4744 H 451.014 -3.4111 1.8511 0
M  V30 4745 H 449.115 -3.67733 -0.600245 0
M  V30 4746 H 449.228 -4.68754 0.990288 0
M  V30 4747 H 447.592 -2.5102 0.431406 0
M  V30 4748 H 448.375 -2.72421 2.08906 0
M  V30 4749 N 450.82 -0.546701 -1.47814 0
M  V30 4750 C 452.236 -0.205717 -1.58269 0
M  V30 4751 C 452.436 1.29153 -1.54667 0
M  V30 4752 O 451.492 2.07098 -1.44453 0
M  V30 4753 C 452.805 -0.823065 -2.89216 0
M  V30 4754 C 454.353 -0.793328 -3.02779 0
M  V30 4755 C 454.828 -1.38955 -4.36412 0
M  V30 4756 N 456.319 -1.35227 -4.43021 0
M  V30 4757 C 457.054 -1.78333 -5.44963 0
M  V30 4758 N 456.55 -2.29246 -6.53772 0
M  V30 4759 N 458.343 -1.69467 -5.35945 0
M  V30 4760 H 450.494 -1.5196 -1.48398 0
M  V30 4761 H 452.757 -0.633078 -0.705632 0
M  V30 4762 H 452.463 -1.8749 -2.97558 0
M  V30 4763 H 452.337 -0.309915 -3.75925 0
M  V30 4764 H 454.724 0.249784 -2.94041 0
M  V30 4765 H 454.805 -1.34412 -2.17639 0
M  V30 4766 H 454.449 -2.43168 -4.45906 0
M  V30 4767 H 454.379 -0.814291 -5.20266 0
M  V30 4768 H 456.87 -0.979739 -3.64979 0
M  V30 4769 H 457.183 -2.60089 -7.27718 0
M  V30 4770 H 455.528 -2.3325 -6.5469 0
M  V30 4771 H 458.719 -1.29477 -4.49837 0
M  V30 4772 H 458.892 -2.03381 -6.15256 0
M  V30 4773 N 452.299 1.55045 -0.282633 0
M  V30 4774 C 453.71 1.85473 0.213655 0
M  V30 4775 C 454.061 1.20465 1.54863 0
M  V30 4776 O 453.186 0.495676 2.10647 0
M  V30 4777 C 453.781 3.36496 0.394445 0
M  V30 4778 C 452.34 3.67022 0.834961 0
M  V30 4779 C 451.487 2.77218 -0.0674081 0
M  V30 4780 H 454.438 1.50478 -0.504202 0
M  V30 4781 H 454.459 3.60007 1.23186 0
M  V30 4782 H 453.971 3.83782 -0.577326 0
M  V30 4783 H 452.072 3.25241 1.81794 0
M  V30 4784 H 452.185 4.74433 0.667075 0
M  V30 4785 H 450.549 2.5069 0.450196 0
M  V30 4786 H 451.332 3.2732 -1.0352 0
M  V30 4787 N 453.777 0.010035 1.57597 0
M  V30 4788 C 454.71 -1.01234 2.04516 0
M  V30 4789 C 455.688 -1.32886 0.937024 0
M  V30 4790 O 456.872 -1.44879 1.20592 0
M  V30 4791 C 453.999 -2.33738 2.45121 0
M  V30 4792 C 453.045 -2.17679 3.66767 0
M  V30 4793 S 453.878 -1.49343 5.14254 0
M  V30 4794 C 455.034 -2.83256 5.58137 0
M  V30 4795 H 455.267 -0.612866 2.90914 0
M  V30 4796 H 452.8 -0.201124 1.53084 0
M  V30 4797 H 454.758 -3.09922 2.69182 0
M  V30 4798 H 453.419 -2.70823 1.59103 0
M  V30 4799 H 452.612 -3.1559 3.92962 0
M  V30 4800 H 452.214 -1.4964 3.42759 0
M  V30 4801 H 454.506 -3.79538 5.6121 0
M  V30 4802 H 455.449 -2.61749 6.57946 0
M  V30 4803 H 455.857 -2.87627 4.85727 0
M  V30 4804 N 455.255 -1.55392 -0.262866 0
M  V30 4805 C 456.666 -1.67079 -0.833158 0
M  V30 4806 C 457.017 -0.604539 -1.86654 0
M  V30 4807 O 456.142 0.252138 -2.14926 0
M  V30 4808 C 456.737 -3.02891 -1.51797 0
M  V30 4809 C 455.296 -3.16571 -2.03617 0
M  V30 4810 C 454.443 -2.62909 -0.881701 0
M  V30 4811 H 457.394 -1.58652 -0.0389986 0
M  V30 4812 H 457.415 -2.96445 -2.38538 0
M  V30 4813 H 456.927 -3.80473 -0.765619 0
M  V30 4814 H 455.028 -2.43782 -2.81782 0
M  V30 4815 H 455.141 -4.23271 -2.24452 0
M  V30 4816 H 453.505 -2.20324 -1.27786 0
M  V30 4817 H 454.288 -3.43003 -0.14269 0
M  V30 4818 N 456.733 0.527833 -1.48498 0
M  V30 4819 C 457.666 1.64892 -1.57753 0
M  V30 4820 C 458.644 1.5687 -0.427867 0
M  V30 4821 O 459.828 1.77311 -0.639764 0
M  V30 4822 C 456.955 3.03301 -1.50752 0
M  V30 4823 C 456.001 3.29675 -2.70586 0
M  V30 4824 S 456.834 3.15712 -4.32535 0
M  V30 4825 C 457.99 4.56564 -4.28136 0
M  V30 4826 H 458.223 1.56792 -2.52594 0
M  V30 4827 H 455.756 0.710959 -1.37057 0
M  V30 4828 H 457.714 3.83123 -1.474 0
M  V30 4829 H 456.375 3.08839 -0.572454 0
M  V30 4830 H 455.568 4.3065 -2.61833 0
M  V30 4831 H 455.17 2.57526 -2.71212 0
M  V30 4832 H 457.462 5.48126 -3.98201 0
M  V30 4833 H 458.405 4.70371 -5.29298 0
M  V30 4834 H 458.813 4.35987 -3.58574 0
M  V30 4835 N 458.211 1.37122 0.776871 0
M  V30 4836 C 459.488 1.22586 1.52421 0
M  V30 4837 C 459.868 -0.182726 2.10308 0
M  V30 4838 O 459.216 -1.18979 1.9508 0
M  V30 4839 C 459.426 2.31782 2.60918 0
M  V30 4840 C 460.774 2.69071 3.2846 0
M  V30 4841 O 461.798 2.3092 2.71209 0
M  V30 4842 O 460.657 3.3478 4.31954 0
M  V30 4843 H 457.751 0.478045 0.674835 0
M  V30 4844 H 460.297 1.48888 0.814275 0
M  V30 4845 H 459.069 3.26131 2.16227 0
M  V30 4846 H 458.692 2.06916 3.39517 0
M  V30 4847 N 459.689 -1.00246 1.21608 0
M  V30 4848 C 460.917 -1.77631 1.06089 0
M  V30 4849 C 461.332 -1.84746 -0.38916 0
M  V30 4850 O 460.689 -1.31068 -1.26994 0
M  V30 4851 C 460.74 -3.21415 1.65453 0
M  V30 4852 O 460.461 -3.14703 3.04785 0
M  V30 4853 C 461.962 -4.15289 1.55079 0
M  V30 4854 H 459.182 -0.558162 0.37242 0
M  V30 4855 H 461.726 -1.26093 1.60999 0
M  V30 4856 H 459.881 -3.70053 1.14629 0
M  V30 4857 H 460.295 -4.05056 3.33212 0
M  V30 4858 H 461.769 -5.13965 2.01355 0
M  V30 4859 H 462.246 -4.36279 0.505665 0
M  V30 4860 H 462.852 -3.72543 2.05163 0
M  V30 4861 N 461.167 -1.02423 -1.1978 0
M  V30 4862 C 462.392 -0.7373 -1.93852 0
M  V30 4863 C 462.817 0.696923 -1.74713 0
M  V30 4864 O 462.175 1.48056 -1.04638 0
M  V30 4865 C 462.223 -1.08783 -3.438 0
M  V30 4866 O 461.327 -0.20383 -4.11896 0
M  V30 4867 H 460.668 -0.27284 -0.605355 0
M  V30 4868 H 463.198 -1.36966 -1.51992 0
M  V30 4869 H 463.208 -1.04276 -3.9445 0
M  V30 4870 H 461.883 -2.13274 -3.57053 0
M  V30 4871 H 460.46 -0.307091 -3.71633 0
M  V30 4872 N 462.645 1.35699 -0.801477 0
M  V30 4873 C 463.891 1.99208 -0.380022 0
M  V30 4874 C 464.224 1.63445 1.04878 0
M  V30 4875 O 463.499 0.895223 1.72673 0
M  V30 4876 C 463.782 3.55755 -0.557708 0
M  V30 4877 C 463.635 4.01332 -2.03107 0
M  V30 4878 C 464.954 4.40096 0.0197968 0
M  V30 4879 H 462.073 0.723667 -0.139552 0
M  V30 4880 H 464.715 1.60928 -1.01006 0
M  V30 4881 H 462.865 3.88494 -0.0213741 0
M  V30 4882 H 464.537 3.79026 -2.62939 0
M  V30 4883 H 462.78 3.52429 -2.52936 0
M  V30 4884 H 463.451 5.10234 -2.1063 0
M  V30 4885 H 465.927 4.13786 -0.438179 0
M  V30 4886 H 464.803 5.48735 -0.134477 0
M  V30 4887 H 465.064 4.2786 1.11303 0
M  V30 4888 N 464.123 0.554532 1.47522 0
M  V30 4889 C 465.353 0.0342074 2.06572 0
M  V30 4890 C 465.761 -1.26375 1.40805 0
M  V30 4891 O 465.104 -1.7683 0.49769 0
M  V30 4892 C 465.166 -0.235096 3.5873 0
M  V30 4893 C 464.83 0.973024 4.46521 0
M  V30 4894 C 465.827 1.8779 4.848 0
M  V30 4895 C 463.512 1.18694 4.88075 0
M  V30 4896 C 465.506 2.98039 5.63428 0
M  V30 4897 C 463.193 2.29254 5.66468 0
M  V30 4898 C 464.191 3.18757 6.04055 0
M  V30 4899 O 463.879 4.27401 6.8087 0
M  V30 4900 H 463.611 0.041587 0.67472 0
M  V30 4901 H 466.165 0.766748 1.90552 0
M  V30 4902 H 464.395 -1.02191 3.72953 0
M  V30 4903 H 466.084 -0.700477 3.9981 0
M  V30 4904 H 466.85 1.72467 4.53299 0
M  V30 4905 H 462.729 0.49947 4.58286 0
M  V30 4906 H 466.273 3.67926 5.92685 0
M  V30 4907 H 462.17 2.4455 5.97382 0
M  V30 4908 H 462.938 4.25415 6.9926 0
M  V30 4909 N 465.601 -1.54893 0.290851 0
M  V30 4910 C 466.511 -2.26812 -0.59945 0
M  V30 4911 C 467.527 -1.29963 -1.15696 0
M  V30 4912 O 468.703 -1.62928 -1.18391 0
M  V30 4913 C 465.768 -2.98716 -1.75982 0
M  V30 4914 C 464.829 -4.1108 -1.2374 0
M  V30 4915 C 464.062 -4.79546 -2.34246 0
M  V30 4916 O 464.285 -4.47309 -3.53936 0
M  V30 4917 O 463.219 -5.67165 -2.01512 0
M  V30 4918 H 467.045 -3.03696 -0.0163561 0
M  V30 4919 H 464.63 -1.49289 0.0576755 0
M  V30 4920 H 466.512 -3.43851 -2.43607 0
M  V30 4921 H 465.187 -2.24737 -2.3297 0
M  V30 4922 H 464.094 -3.70367 -0.527163 0
M  V30 4923 H 465.427 -4.87007 -0.71307 0
M  V30 4924 N 467.08 -0.0183926 -1.57589 0
M  V30 4925 C 468.305 0.676634 -1.96052 0
M  V30 4926 C 468.73 1.6548 -0.894307 0
M  V30 4927 O 468.088 1.80712 0.145849 0
M  V30 4928 C 468.136 1.36872 -3.33614 0
M  V30 4929 O 467.24 2.48372 -3.29219 0
M  V30 4930 H 466.581 0.1786 -0.63953 0
M  V30 4931 H 469.111 -0.077056 -2.04455 0
M  V30 4932 H 469.121 1.72797 -3.69601 0
M  V30 4933 H 467.796 0.651636 -4.10763 0
M  V30 4934 H 466.373 2.14639 -3.04934 0
M  V30 4935 N 468.558 1.5553 0.254621 0
M  V30 4936 C 469.969 1.67518 0.824286 0
M  V30 4937 C 470.32 0.614429 1.86331 0
M  V30 4938 O 469.445 -0.240736 2.15057 0
M  V30 4939 C 470.04 3.03692 1.50189 0
M  V30 4940 C 468.599 3.17646 2.01935 0
M  V30 4941 C 467.746 2.63373 0.867746 0
M  V30 4942 H 470.697 1.58671 0.0305843 0
M  V30 4943 H 470.718 2.97706 2.36962 0
M  V30 4944 H 470.23 3.80874 0.745431 0
M  V30 4945 H 468.331 2.45273 2.80485 0
M  V30 4946 H 468.444 4.24455 2.22204 0
M  V30 4947 H 466.808 2.20999 1.26616 0
M  V30 4948 H 467.591 3.43074 0.124498 0
M  V30 4949 N 470.036 -0.519951 1.48776 0
M  V30 4950 C 471.266 -1.29783 1.60748 0
M  V30 4951 C 471.674 -1.87253 0.27072 0
M  V30 4952 O 471.017 -1.67628 -0.751438 0
M  V30 4953 C 471.079 -2.47984 2.60277 0
M  V30 4954 C 470.743 -2.11526 4.051 0
M  V30 4955 C 471.74 -1.66608 4.92481 0
M  V30 4956 C 469.425 -2.21742 4.50706 0
M  V30 4957 C 471.419 -1.32384 6.23501 0
M  V30 4958 C 469.106 -1.87129 5.81744 0
M  V30 4959 C 470.104 -1.42523 6.67964 0
M  V30 4960 O 469.792 -1.0837 7.96562 0
M  V30 4961 H 469.524 -0.400562 0.544542 0
M  V30 4962 H 472.078 -0.632879 1.95407 0
M  V30 4963 H 470.308 -3.17493 2.2076 0
M  V30 4964 H 471.997 -3.10036 2.61978 0
M  V30 4965 H 472.763 -1.58178 4.58481 0
M  V30 4966 H 468.642 -2.55415 3.83776 0
M  V30 4967 H 472.186 -0.974949 6.90754 0
M  V30 4968 H 468.083 -1.95204 6.15277 0
M  V30 4969 H 468.851 -1.21681 8.09405 0
M  V30 4970 N 471.514 -1.37532 -0.769588 0
M  V30 4971 C 472.739 -1.36231 -1.56384 0
M  V30 4972 C 473.164 0.0495849 -1.88035 0
M  V30 4973 O 472.522 1.02723 -1.49391 0
M  V30 4974 C 472.57 -2.20986 -2.84952 0
M  V30 4975 O 471.674 -1.61597 -3.79421 0
M  V30 4976 H 471.015 -0.465387 -0.473615 0
M  V30 4977 H 473.545 -1.81085 -0.952342 0
M  V30 4978 H 473.555 -2.34277 -3.34034 0
M  V30 4979 H 472.23 -3.23612 -2.61243 0
M  V30 4980 H 470.807 -1.57359 -3.38072 0
M  V30 4981 N 472.992 0.995999 -1.22138 0
M  V30 4982 C 474.269 1.70834 -0.952642 0
M  V30 4983 C 474.649 2.04257 0.533119 0
M  V30 4984 O 473.997 1.72343 1.50034 0
M  V30 4985 C 474.207 2.96119 -1.84701 0
M  V30 4986 C 475.555 3.68962 -2.10124 0
M  V30 4987 O 476.579 3.0612 -1.82124 0
M  V30 4988 O 475.438 4.82017 -2.57531 0
M  V30 4989 H 472.532 0.745498 -0.357997 0
M  V30 4990 H 475.078 1.05262 -1.33109 0
M  V30 4991 H 473.85 2.67898 -2.85213 0
M  V30 4992 H 473.473 3.6943 -1.46995 0
M  V30 4993 N 474.47 1.03057 1.19235 0
M  V30 4994 C 475.881 0.757449 1.70645 0
M  V30 4995 C 476.232 -0.722735 1.82403 0
M  V30 4996 O 475.357 -1.56325 1.49638 0
M  V30 4997 C 475.952 1.36833 3.09939 0
M  V30 4998 C 474.511 1.14375 3.58602 0
M  V30 4999 C 473.658 1.46533 2.35422 0
M  V30 5000 H 476.609 1.19828 1.04052 0
M  V30 5001 H 476.63 0.766184 3.72706 0
M  V30 5002 H 476.142 2.44562 3.01349 0
M  V30 5003 H 474.243 0.0847542 3.72504 0
M  V30 5004 H 474.356 1.83366 4.42622 0
M  V30 5005 H 472.72 0.884712 2.38841 0
M  V30 5006 H 473.503 2.55349 2.2946 0
M  V30 5007 N 475.948 -1.35272 0.808662 0
M  V30 5008 C 476.858 -2.33546 0.222079 0
M  V30 5009 C 477.874 -1.6196 -0.636011 0
M  V30 5010 O 479.05 -1.93822 -0.547274 0
M  V30 5011 C 476.115 -3.41148 -0.61795 0
M  V30 5012 C 475.176 -4.28507 0.260875 0
M  V30 5013 C 474.409 -5.3097 -0.539156 0
M  V30 5014 O 474.632 -5.42123 -1.77367 0
M  V30 5015 O 473.566 -6.01858 0.0710526 0
M  V30 5016 H 477.392 -2.85515 1.03512 0
M  V30 5017 H 474.977 -1.38079 0.570495 0
M  V30 5018 H 476.859 -4.06889 -1.09634 0
M  V30 5019 H 475.534 -2.91447 -1.40855 0
M  V30 5020 H 474.441 -3.6574 0.786451 0
M  V30 5021 H 475.774 -4.81611 1.01547 0
M  V30 5022 N 477.426 -0.562348 -1.47226 0
M  V30 5023 C 478.336 0.185466 -2.33866 0
M  V30 5024 C 479.352 0.906713 -1.48508 0
M  V30 5025 O 480.528 0.874458 -1.81425 0
M  V30 5026 C 477.593 1.19904 -3.25306 0
M  V30 5027 C 476.654 0.484669 -4.26555 0
M  V30 5028 C 475.887 1.44996 -5.13626 0
M  V30 5029 O 476.11 2.68515 -5.03245 0
M  V30 5030 O 475.044 0.971642 -5.94006 0
M  V30 5031 H 478.87 -0.525361 -2.99121 0
M  V30 5032 H 476.455 -0.322916 -1.45868 0
M  V30 5033 H 478.337 1.78399 -3.81774 0
M  V30 5034 H 477.012 1.8917 -2.62672 0
M  V30 5035 H 475.919 -0.141605 -3.73832 0
M  V30 5036 H 477.252 -0.166634 -4.91918 0
M  V30 5037 N 478.904 1.54736 -0.299062 0
M  V30 5038 C 479.834 2.26409 0.571085 0
M  V30 5039 C 480.815 1.2629 1.13951 0
M  V30 5040 O 482 1.55059 1.16921 0
M  V30 5041 C 479.13 3.00338 1.74396 0
M  V30 5042 C 478.084 4.07588 1.30599 0
M  V30 5043 C 477.41 4.69222 2.56387 0
M  V30 5044 C 478.71 5.20455 0.438645 0
M  V30 5045 H 480.404 2.99388 -0.0266991 0
M  V30 5046 H 477.95 1.43993 -0.0142812 0
M  V30 5047 H 479.903 3.49198 2.35878 0
M  V30 5048 H 478.627 2.24934 2.36796 0
M  V30 5049 H 477.286 3.59575 0.71424 0
M  V30 5050 H 476.934 3.9046 3.17097 0
M  V30 5051 H 476.634 5.41653 2.27784 0
M  V30 5052 H 478.158 5.20844 3.18675 0
M  V30 5053 H 479.572 5.65221 0.959085 0
M  V30 5054 H 477.969 5.99594 0.246466 0
M  V30 5055 H 479.039 4.8192 -0.536738 0
M  V30 5056 N 480.382 0.0267497 1.57577 0
M  V30 5057 C 481.329 -0.955894 2.10075 0
M  V30 5058 C 482.299 -1.32453 1.00226 0
M  V30 5059 O 483.484 -1.41826 1.27632 0
M  V30 5060 C 480.624 -2.2338 2.6305 0
M  V30 5061 C 479.737 -1.92183 3.86898 0
M  V30 5062 C 478.872 -3.14251 4.28275 0
M  V30 5063 C 477.911 -2.78862 5.44888 0
M  V30 5064 N 477.048 -3.93548 5.81433 0
M  V30 5065 H 481.888 -0.501303 2.93753 0
M  V30 5066 H 479.425 -0.235847 1.45197 0
M  V30 5067 H 481.383 -2.98124 2.91853 0
M  V30 5068 H 480.013 -2.6646 1.82205 0
M  V30 5069 H 479.065 -1.07692 3.64838 0
M  V30 5070 H 480.377 -1.62117 4.7172 0
M  V30 5071 H 479.531 -3.97317 4.58502 0
M  V30 5072 H 478.27 -3.47476 3.42215 0
M  V30 5073 H 477.275 -1.94208 5.14357 0
M  V30 5074 H 478.5 -2.46855 6.32645 0
M  V30 5075 H 476.446 -4.2662 4.98328 0
M  V30 5076 H 476.363 -3.67098 6.6089 0
M  V30 5077 H 477.631 -4.77325 6.16264 0
M  V30 5078 N 481.861 -1.55662 -0.24637 0
M  V30 5079 C 483.138 -1.68272 -0.997198 0
M  V30 5080 C 483.518 -0.566785 -2.03349 0
M  V30 5081 O 482.866 0.429688 -2.24424 0
M  V30 5082 C 483.076 -3.08594 -1.63006 0
M  V30 5083 C 484.424 -3.6721 -2.13171 0
M  V30 5084 O 485.448 -3.11397 -1.72946 0
M  V30 5085 O 484.307 -4.65054 -2.87031 0
M  V30 5086 H 481.401 -0.684429 -0.464205 0
M  V30 5087 H 483.947 -1.67993 -0.240114 0
M  V30 5088 H 482.719 -3.81264 -0.880527 0
M  V30 5089 H 482.342 -3.12886 -2.45333 0
M  V30 5090 N 483.339 0.512053 -1.4905 0
M  V30 5091 C 484.286 1.6148 -1.64902 0
M  V30 5092 C 485.256 1.58687 -0.490673 0
M  V30 5093 O 486.441 1.76842 -0.71636 0
M  V30 5094 C 483.581 2.99676 -1.71139 0
M  V30 5095 C 482.694 3.12568 -2.98203 0
M  V30 5096 C 481.829 4.4143 -2.95487 0
M  V30 5097 C 480.868 4.47916 -4.17179 0
M  V30 5098 N 480.005 5.68191 -4.12437 0
M  V30 5099 H 484.845 1.47271 -2.59066 0
M  V30 5100 H 482.382 0.716713 -1.28459 0
M  V30 5101 H 484.34 3.79761 -1.72736 0
M  V30 5102 H 482.97 3.12614 -0.804508 0
M  V30 5103 H 482.022 2.25618 -3.06269 0
M  V30 5104 H 483.334 3.1322 -3.88194 0
M  V30 5105 H 482.488 5.29825 -2.95585 0
M  V30 5106 H 481.227 4.43326 -2.03256 0
M  V30 5107 H 480.232 3.57925 -4.17337 0
M  V30 5108 H 481.457 4.47744 -5.1059 0
M  V30 5109 H 479.403 5.7095 -3.23036 0
M  V30 5110 H 479.32 5.70413 -4.96151 0
M  V30 5111 H 480.588 6.58823 -4.16621 0
M  V30 5112 N 484.817 1.37938 0.762283 0
M  V30 5113 C 485.764 1.34467 1.87583 0
M  V30 5114 C 486.734 0.208633 1.64785 0
M  V30 5115 O 487.919 0.399494 1.86571 0
M  V30 5116 C 485.059 1.16692 3.24772 0
M  V30 5117 C 484.172 2.39608 3.59461 0
M  V30 5118 C 483.307 2.14631 4.85908 0
M  V30 5119 C 482.346 3.33364 5.13357 0
M  V30 5120 N 481.483 3.07877 6.30996 0
M  V30 5121 H 486.323 2.29669 1.89885 0
M  V30 5122 H 483.86 1.14116 0.928219 0
M  V30 5123 H 485.818 1.04405 4.03925 0
M  V30 5124 H 484.448 0.251333 3.2182 0
M  V30 5125 H 483.5 2.626 2.75219 0
M  V30 5126 H 484.812 3.28128 3.75678 0
M  V30 5127 H 483.966 1.99429 5.72986 0
M  V30 5128 H 482.705 1.23463 4.71814 0
M  V30 5129 H 481.71 3.49094 4.24751 0
M  V30 5130 H 482.935 4.25395 5.29354 0
M  V30 5131 H 480.881 2.19348 6.18241 0
M  V30 5132 H 480.798 3.89944 6.47673 0
M  V30 5133 H 482.066 2.96313 7.20985 0
M  V30 5134 N 486.295 -0.989507 1.22664 0
M  V30 5135 C 487.225 -2.09847 1.02404 0
M  V30 5136 C 488.206 -1.70007 -0.0561303 0
M  V30 5137 O 489.391 -1.93906 0.106748 0
M  V30 5138 C 486.521 -3.41996 0.604663 0
M  V30 5139 C 485.475 -3.95699 1.63115 0
M  V30 5140 C 484.801 -5.23936 1.0675 0
M  V30 5141 C 486.101 -4.25999 3.02196 0
M  V30 5142 H 487.795 -2.27054 1.95158 0
M  V30 5143 H 485.341 -1.09111 0.939727 0
M  V30 5144 H 487.294 -4.1899 0.45002 0
M  V30 5145 H 486.018 -3.24626 -0.35855 0
M  V30 5146 H 484.677 -3.2084 1.77362 0
M  V30 5147 H 484.325 -5.02909 0.0955422 0
M  V30 5148 H 484.025 -5.60833 1.75328 0
M  V30 5149 H 485.549 -6.0356 0.924516 0
M  V30 5150 H 486.963 -4.93777 2.91303 0
M  V30 5151 H 485.36 -4.74076 3.67929 0
M  V30 5152 H 486.43 -3.33636 3.51873 0
M  V30 5153 N 487.773 -1.03688 -1.18687 0
M  V30 5154 C 489.02 -0.73803 -1.88572 0
M  V30 5155 C 489.348 0.733973 -1.8012 0
M  V30 5156 O 488.603 1.55098 -1.19344 0
M  V30 5157 C 488.902 -1.14477 -3.3857 0
M  V30 5158 C 488.568 -2.61641 -3.67226 0
M  V30 5159 C 487.23 -3.01846 -3.74757 0
M  V30 5160 C 489.582 -3.56812 -3.79914 0
M  V30 5161 C 486.91 -4.36118 -3.92451 0
M  V30 5162 C 489.262 -4.90799 -3.99123 0
M  V30 5163 C 487.926 -5.3068 -4.04888 0
M  V30 5164 H 487.196 -0.270064 -0.690034 0
M  V30 5165 H 489.843 -1.3012 -1.40503 0
M  V30 5166 H 488.148 -0.500337 -3.88592 0
M  V30 5167 H 489.845 -0.89095 -3.90977 0
M  V30 5168 H 486.435 -2.29498 -3.61979 0
M  V30 5169 H 490.619 -3.26899 -3.73431 0
M  V30 5170 H 485.875 -4.66542 -3.95157 0
M  V30 5171 H 490.049 -5.64451 -4.07882 0
M  V30 5172 H 487.676 -6.34733 -4.18351 0
M  V30 5173 N 489.251 1.34841 -0.815825 0
M  V30 5174 C 490.181 2.32187 -0.247298 0
M  V30 5175 C 491.162 1.5791 0.632344 0
M  V30 5176 O 492.347 1.8593 0.560698 0
M  V30 5177 C 489.477 3.42122 0.597466 0
M  V30 5178 C 488.431 4.27602 -0.184446 0
M  V30 5179 C 487.757 5.28942 0.782609 0
M  V30 5180 C 489.057 5.03502 -1.38865 0
M  V30 5181 H 490.751 2.79985 -1.06061 0
M  V30 5182 H 488.297 1.34611 -0.511461 0
M  V30 5183 H 490.25 4.09232 1.00533 0
M  V30 5184 H 488.974 2.92956 1.44376 0
M  V30 5185 H 487.633 3.62085 -0.573592 0
M  V30 5186 H 487.281 4.7604 1.62466 0
M  V30 5187 H 486.981 5.87008 0.263695 0
M  V30 5188 H 488.505 5.98922 1.18848 0
M  V30 5189 H 489.919 5.63506 -1.05518 0
M  V30 5190 H 488.316 5.71108 -1.8427 0
M  V30 5191 H 489.386 4.33608 -2.17054 0
M  V30 5192 N 490.729 0.570148 1.46925 0
M  V30 5193 C 491.676 -0.170257 2.30171 0
M  V30 5194 C 492.646 -0.896099 1.39855 0
M  V30 5195 O 493.831 -0.889248 1.68811 0
M  V30 5196 C 490.971 -1.18605 3.24079 0
M  V30 5197 C 490.084 -0.464947 4.29491 0
M  V30 5198 C 489.219 -1.46716 5.10537 0
M  V30 5199 C 488.258 -0.731758 6.0771 0
M  V30 5200 N 487.395 -1.68142 6.81669 0
M  V30 5201 H 492.235 0.545713 2.92961 0
M  V30 5202 H 489.772 0.280938 1.44392 0
M  V30 5203 H 491.73 -1.78771 3.76957 0
M  V30 5204 H 490.36 -1.86989 2.63125 0
M  V30 5205 H 489.412 0.251506 3.79568 0
M  V30 5206 H 490.724 0.110548 4.98677 0
M  V30 5207 H 489.878 -2.14199 5.6763 0
M  V30 5208 H 488.617 -2.07658 4.41282 0
M  V30 5209 H 487.622 -0.0430787 5.49783 0
M  V30 5210 H 488.847 -0.127904 6.7898 0
M  V30 5211 H 486.793 -2.27918 6.15134 0
M  V30 5212 H 486.71 -1.15841 7.47072 0
M  V30 5213 H 487.978 -2.347 7.43328 0
M  V30 5214 N 492.207 -1.54576 0.307264 0
M  V30 5215 C 493.623 -1.59534 -0.0459251 0
M  V30 5216 C 493.823 -1.32414 -1.51884 0
M  V30 5217 O 492.879 -1.1006 -2.27251 0
M  V30 5218 C 494.192 -2.98566 0.357649 0
M  V30 5219 C 495.74 -3.11491 0.306937 0
M  V30 5220 C 496.215 -4.52842 0.685427 0
M  V30 5221 N 497.706 -4.58782 0.638203 0
M  V30 5222 C 498.441 -5.66238 0.903458 0
M  V30 5223 N 497.937 -6.81703 1.23501 0
M  V30 5224 N 499.73 -5.55937 0.830102 0
M  V30 5225 H 491.881 -1.70464 1.26712 0
M  V30 5226 H 494.144 -0.79647 0.514139 0
M  V30 5227 H 493.85 -3.23356 1.38325 0
M  V30 5228 H 493.724 -3.76117 -0.285565 0
M  V30 5229 H 496.111 -2.86446 -0.709424 0
M  V30 5230 H 496.192 -2.36081 0.984861 0
M  V30 5231 H 495.836 -4.78618 1.69963 0
M  V30 5232 H 495.766 -5.26598 -0.0146346 0
M  V30 5233 H 498.257 -3.75849 0.393138 0
M  V30 5234 H 498.57 -7.59582 1.42322 0
M  V30 5235 H 496.915 -6.8324 1.27311 0
M  V30 5236 H 500.106 -4.64608 0.570693 0
M  V30 5237 H 500.279 -6.39597 1.04019 0
M  V30 5238 N 493.685 -0.035106 -1.57561 0
M  V30 5239 C 494.962 0.681212 -1.83354 0
M  V30 5240 C 495.342 1.89986 -0.920252 0
M  V30 5241 O 494.69 2.28489 0.0226815 0
M  V30 5242 C 494.9 1.05376 -3.32712 0
M  V30 5243 C 496.248 1.44286 -3.99333 0
M  V30 5244 O 497.272 1.14656 -3.37242 0
M  V30 5245 O 496.131 1.99518 -5.08778 0
M  V30 5246 H 493.225 0.334741 -0.756226 0
M  V30 5247 H 495.771 -0.0632448 -1.69582 0
M  V30 5248 H 494.543 0.186668 -3.90854 0
M  V30 5249 H 494.166 1.85619 -3.51613 0
M  V30 5250 N 495.163 1.55791 0.238111 0
M  V30 5251 C 496.111 1.91885 1.31464 0
M  V30 5252 C 497.105 0.798929 1.49377 0
M  V30 5253 O 498.311 0.983626 1.50747 0
M  V30 5254 H 494.686 0.609551 0.440399 0
M  V30 5255 H 496.657 2.81747 0.982925 0
M  V30 5256 C 495.406 2.23763 2.6613 0
M  V30 5257 H 494.729 3.09444 2.53149 0
M  V30 5258 H 496.169 2.52915 3.40309 0
M  V30 5259 C 494.628 1.05699 3.1989 0
M  V30 5260 O 495.158 0.309524 4.00506 0
M  V30 5261 N 493.364 0.845251 2.78036 0
M  V30 5262 H 492.911 1.4548 2.12588 0
M  V30 5263 H 492.869 0.0569973 3.14348 0
M  V30 5264 N 496.642 -0.504142 1.49319 0
M  V30 5265 C 497.572 -1.61473 1.68667 0
M  V30 5266 C 498.553 -1.61455 0.535378 0
M  V30 5267 O 499.738 -1.78245 0.770868 0
M  V30 5268 C 496.868 -2.99971 1.75028 0
M  V30 5269 C 495.822 -3.14854 2.89916 0
M  V30 5270 C 495.148 -4.54671 2.81387 0
M  V30 5271 C 496.448 -2.95176 4.30893 0
M  V30 5272 H 498.142 -1.45535 2.61648 0
M  V30 5273 H 495.688 -0.698711 1.25913 0
M  V30 5274 H 497.641 -3.77562 1.8715 0
M  V30 5275 H 496.365 -3.1699 0.786441 0
M  V30 5276 H 495.024 -2.39687 2.77391 0
M  V30 5277 H 494.672 -4.68562 1.82917 0
M  V30 5278 H 494.372 -4.6557 3.58494 0
M  V30 5279 H 495.896 -5.34327 2.95512 0
M  V30 5280 H 497.31 -3.62538 4.44116 0
M  V30 5281 H 495.707 -3.17549 5.09198 0
M  V30 5282 H 496.777 -1.91332 4.45556 0
M  V30 5283 N 498.12 -1.38341 -0.754957 0
M  V30 5284 C 499.05 -1.38176 -1.88227 0
M  V30 5285 C 500.031 -0.247873 -1.68284 0
M  V30 5286 O 501.216 -0.45075 -1.88896 0
M  V30 5287 C 498.346 -1.20471 -3.25736 0
M  V30 5288 C 497.3 -2.3105 -3.60278 0
M  V30 5289 C 496.626 -1.98452 -4.96509 0
M  V30 5290 C 497.926 -3.73305 -3.65295 0
M  V30 5291 H 499.62 -2.32512 -1.88622 0
M  V30 5292 H 497.166 -1.1192 -0.906082 0
M  V30 5293 H 499.119 -1.18982 -4.04254 0
M  V30 5294 H 497.843 -0.225965 -3.25817 0
M  V30 5295 H 496.502 -2.31723 -2.84078 0
M  V30 5296 H 496.15 -0.990641 -4.93148 0
M  V30 5297 H 495.85 -2.7251 -5.20588 0
M  V30 5298 H 497.374 -1.98578 -5.77407 0
M  V30 5299 H 498.788 -3.7467 -4.3393 0
M  V30 5300 H 497.185 -4.46557 -4.00883 0
M  V30 5301 H 498.255 -4.05719 -2.65556 0
M  V30 5302 N 499.598 0.982988 -1.23187 0
M  V30 5303 C 500.847 1.71817 -1.05649 0
M  V30 5304 C 501.16 1.91315 0.407176 0
M  V30 5305 O 502.366 2.62256 0.702436 0
M  V30 5306 C 500.822 3.09188 -1.84203 0
M  V30 5307 C 500.43 2.97586 -3.34882 0
M  V30 5308 C 502.174 3.86684 -1.75146 0
M  V30 5309 C 500.081 4.30173 -4.05839 0
M  V30 5310 H 499.011 0.644258 -0.391724 0
M  V30 5311 H 501.662 1.09659 -1.4713 0
M  V30 5312 H 500.044 3.72087 -1.35527 0
M  V30 5313 H 501.218 2.43793 -3.91026 0
M  V30 5314 H 499.533 2.33567 -3.44725 0
M  V30 5315 H 502.13 4.84836 -2.25473 0
M  V30 5316 H 502.473 4.10136 -0.713737 0
M  V30 5317 H 503.006 3.30482 -2.21419 0
M  V30 5318 H 499.745 4.11918 -5.09906 0
M  V30 5319 H 499.265 4.83841 -3.54482 0
M  V30 5320 H 500.944 4.98873 -4.11989 0
M  V30 5321 N 501.076 1.04316 1.18135 0
M  V30 5322 C 502.039 0.640794 2.2006 0
M  V30 5323 C 503.039 -0.303124 1.57917 0
M  V30 5324 O 504.229 -0.0881855 1.73977 0
M  V30 5325 C 501.361 -0.060148 3.40847 0
M  V30 5326 H 502.554 1.54281 2.57172 0
M  V30 5327 H 500.107 0.836004 1.32063 0
M  V30 5328 H 500.842 -0.975845 3.0927 0
M  V30 5329 H 500.627 0.618319 3.87194 0
M  V30 5330 H 502.117 -0.328082 4.16309 0
M  V30 5331 N 502.554 -1.34406 0.822964 0
M  V30 5332 C 503.831 -1.92733 0.333641 0
M  V30 5333 C 504.211 -1.75107 -1.17901 0
M  V30 5334 O 503.559 -1.12983 -1.98613 0
M  V30 5335 C 503.769 -3.40557 0.763023 0
M  V30 5336 C 505.117 -4.17709 0.761879 0
M  V30 5337 O 506.141 -3.49141 0.705606 0
M  V30 5338 O 505 -5.40082 0.835109 0
M  V30 5339 H 502.094 -0.821964 0.0911249 0
M  V30 5340 H 504.64 -1.4338 0.907757 0
M  V30 5341 H 503.412 -3.47187 1.8049 0
M  V30 5342 H 503.035 -3.97259 0.164605 0
M  V30 5343 N 504.032 -0.577932 -1.46621 0
M  V30 5344 C 505.281 -0.0594281 -2.01612 0
M  V30 5345 C 505.594 1.30663 -1.45556 0
M  V30 5346 O 506.8 1.91621 -1.92337 0
M  V30 5347 C 505.256 -0.0556666 -3.59857 0
M  V30 5348 C 504.864 -1.41975 -4.24908 0
M  V30 5349 C 506.608 0.409143 -4.22524 0
M  V30 5350 C 504.515 -1.37397 -5.75218 0
M  V30 5351 H 503.445 -0.0184469 -0.753774 0
M  V30 5352 H 506.096 -0.728869 -1.68404 0
M  V30 5353 H 504.478 0.679843 -3.90121 0
M  V30 5354 H 505.652 -2.17461 -4.0626 0
M  V30 5355 H 503.967 -1.82419 -3.74316 0
M  V30 5356 H 506.564 0.46211 -5.32699 0
M  V30 5357 H 506.907 1.42565 -3.91128 0
M  V30 5358 H 507.44 -0.272152 -3.96868 0
M  V30 5359 H 504.179 -2.36714 -6.11267 0
M  V30 5360 H 503.699 -0.661239 -5.96144 0
M  V30 5361 H 505.378 -1.08484 -6.3784 0
M  V30 5362 N 505.51 1.54411 -0.315457 0
M  V30 5363 C 506.42 2.27737 0.56329 0
M  V30 5364 C 507.436 1.31787 1.13614 0
M  V30 5365 O 508.612 1.64791 1.15784 0
M  V30 5366 C 505.677 3.01478 1.71207 0
M  V30 5367 C 504.738 4.12997 1.17185 0
M  V30 5368 C 503.971 4.83212 2.26588 0
M  V30 5369 O 504.194 4.52884 3.46775 0
M  V30 5370 O 503.128 5.70299 1.92463 0
M  V30 5371 H 506.954 3.03683 -0.0319614 0
M  V30 5372 H 504.539 1.49178 -0.0814188 0
M  V30 5373 H 506.421 3.47683 2.38106 0
M  V30 5374 H 505.096 2.28414 2.29366 0
M  V30 5375 H 504.003 3.71159 0.468174 0
M  V30 5376 H 505.336 4.8808 0.635501 0
M  V30 5377 N 506.988 0.0434614 1.5754 0
M  V30 5378 C 507.918 -0.931651 2.14109 0
M  V30 5379 C 508.899 -1.32971 1.06079 0
M  V30 5380 O 510.084 -1.40579 1.33982 0
M  V30 5381 C 507.214 -2.20914 2.67982 0
M  V30 5382 C 506.168 -1.95139 3.80926 0
M  V30 5383 C 505.494 -3.29276 4.21285 0
M  V30 5384 C 506.794 -1.27913 5.06395 0
M  V30 5385 H 508.488 -0.460497 2.95837 0
M  V30 5386 H 506.034 -0.220058 1.42309 0
M  V30 5387 H 507.987 -2.89522 3.06194 0
M  V30 5388 H 506.711 -2.70221 1.83434 0
M  V30 5389 H 505.37 -1.28945 3.43175 0
M  V30 5390 H 505.018 -3.76369 3.33699 0
M  V30 5391 H 504.718 -3.12831 4.97404 0
M  V30 5392 H 506.242 -3.99129 4.62091 0
M  V30 5393 H 507.656 -1.86544 5.42102 0
M  V30 5394 H 506.053 -1.2182 5.87605 0
M  V30 5395 H 507.123 -0.254066 4.84234 0
M  V30 5396 N 508.466 -1.55915 -0.229846 0
M  V30 5397 C 509.714 -1.7819 -0.953565 0
M  V30 5398 C 510.035 -0.610504 -1.85197 0
M  V30 5399 O 509.305 0.372988 -1.92316 0
M  V30 5400 H 507.885 -0.657208 -0.355087 0
M  V30 5401 H 510.547 -1.9337 -0.243693 0
M  V30 5402 H 509.643 -2.70011 -1.56527 0
M  V30 5403 N 509.944 0.496216 -1.49584 0
M  V30 5404 C 511.184 1.26015 -1.60933 0
M  V30 5405 C 511.548 1.89772 -0.291646 0
M  V30 5406 O 512.749 2.67334 -0.280357 0
M  V30 5407 C 511.02 2.29506 -2.73974 0
M  V30 5408 S 512.579 3.15175 -3.05303 0
M  V30 5409 H 509.397 0.428194 -0.567601 0
M  V30 5410 H 511.999 0.561484 -1.87263 0
M  V30 5411 H 510.703 1.81205 -3.68229 0
M  V30 5412 H 510.234 3.04036 -2.49651 0
M  V30 5413 H 512.249 4.30244 -2.47193 0
M  V30 5414 N 511.423 1.38739 0.74761 0
M  V30 5415 C 512.671 1.35007 1.50391 0
M  V30 5416 C 512.992 -0.0574274 1.94915 0
M  V30 5417 O 512.262 -1.00628 1.6808 0
M  V30 5418 H 510.842 0.496784 0.557866 0
M  V30 5419 H 513.504 1.73479 0.888319 0
M  V30 5420 H 512.6 2.00474 2.392 0
M  V30 5421 N 512.901 -0.976442 1.23707 0
M  V30 5422 C 513.849 -2.09078 1.01927 0
M  V30 5423 C 514.843 -1.69345 -0.0430193 0
M  V30 5424 O 516.049 -1.79659 0.110814 0
M  V30 5425 H 512.424 -0.68398 0.312531 0
M  V30 5426 H 514.395 -2.24614 1.96447 0
M  V30 5427 C 513.144 -3.41919 0.631385 0
M  V30 5428 H 512.467 -3.72946 1.44053 0
M  V30 5429 H 513.907 -4.20817 0.518532 0
M  V30 5430 C 512.366 -3.30357 -0.660723 0
M  V30 5431 O 512.896 -3.63542 -1.70881 0
M  V30 5432 N 511.102 -2.83507 -0.638139 0
M  V30 5433 H 510.649 -2.567 0.215108 0
M  V30 5434 H 510.607 -2.76153 -1.50289 0
M  V30 5435 N 514.379 -1.04941 -1.1758 0
M  V30 5436 C 515.626 -0.757989 -1.87779 0
M  V30 5437 C 515.954 0.714827 -1.80888 0
M  V30 5438 O 515.209 1.53824 -1.20982 0
M  V30 5439 C 515.508 -1.18062 -3.37337 0
M  V30 5440 C 515.174 -2.65521 -3.6443 0
M  V30 5441 C 513.836 -3.05804 -3.71534 0
M  V30 5442 C 516.188 -3.60822 -3.76108 0
M  V30 5443 C 513.516 -4.40256 -3.87803 0
M  V30 5444 C 515.868 -4.95005 -3.93895 0
M  V30 5445 C 514.532 -5.34945 -3.99237 0
M  V30 5446 H 513.802 -0.277368 -0.68713 0
M  V30 5447 H 516.449 -1.31603 -1.39115 0
M  V30 5448 H 514.754 -0.541525 -3.8804 0
M  V30 5449 H 516.451 -0.932368 -3.9001 0
M  V30 5450 H 513.041 -2.33324 -3.59524 0
M  V30 5451 H 517.225 -3.30841 -3.69943 0
M  V30 5452 H 512.481 -4.70707 -3.90186 0
M  V30 5453 H 516.655 -5.68746 -4.01872 0
M  V30 5454 H 514.282 -6.39135 -4.11596 0
M  V30 5455 N 515.857 1.33968 -0.830081 0
M  V30 5456 C 517.105 1.97672 -0.420734 0
M  V30 5457 C 517.426 1.66111 1.02138 0
M  V30 5458 O 516.696 0.955503 1.71017 0
M  V30 5459 H 515.276 0.73125 -0.152587 0
M  V30 5460 H 517.938 1.63483 -1.0611 0
M  V30 5461 H 517.034 3.07294 -0.545588 0
M  V30 5462 N 517.335 0.585699 1.46312 0
M  V30 5463 C 518.56 0.0762461 2.0726 0
M  V30 5464 C 518.985 -1.22071 1.43109 0
M  V30 5465 O 518.343 -1.73804 0.515942 0
M  V30 5466 C 518.391 -0.0729404 3.60526 0
M  V30 5467 O 517.495 -1.1287 3.96654 0
M  V30 5468 H 516.836 0.0641558 0.660893 0
M  V30 5469 H 519.366 0.809492 1.87905 0
M  V30 5470 H 519.376 -0.278158 4.07051 0
M  V30 5471 H 518.051 0.874188 4.06609 0
M  V30 5472 H 516.628 -0.901703 3.61834 0
M  V30 5473 N 518.813 -1.54241 0.323641 0
M  V30 5474 C 520.059 -2.00867 -0.279323 0
M  V30 5475 C 520.392 -1.21146 -1.5178 0
M  V30 5476 O 519.667 -0.29378 -1.92269 0
M  V30 5477 C 519.95 -3.54837 -0.613387 0
M  V30 5478 C 519.803 -4.45284 0.635803 0
M  V30 5479 C 521.122 -4.16186 -1.43099 0
M  V30 5480 H 518.241 -0.730177 -0.100049 0
M  V30 5481 H 520.883 -1.84829 0.440235 0
M  V30 5482 H 519.033 -3.68634 -1.22641 0
M  V30 5483 H 520.705 -4.43357 1.27406 0
M  V30 5484 H 518.948 -4.14956 1.26466 0
M  V30 5485 H 519.619 -5.5084 0.357597 0
M  V30 5486 H 522.095 -4.05964 -0.912814 0
M  V30 5487 H 520.971 -5.24031 -1.6335 0
M  V30 5488 H 521.232 -3.69516 -2.42715 0
M  V30 5489 N 520.291 -0.0518155 -1.57515 0
M  V30 5490 C 521.707 0.304735 -1.56664 0
M  V30 5491 C 521.907 1.71395 -1.05953 0
M  V30 5492 O 520.963 2.42123 -0.716414 0
M  V30 5493 C 522.276 0.132614 -3.00407 0
M  V30 5494 C 523.824 0.20367 -3.12337 0
M  V30 5495 C 524.299 0.0600706 -4.57961 0
M  V30 5496 N 525.79 0.116326 -4.63054 0
M  V30 5497 C 526.525 0.0293363 -5.73392 0
M  V30 5498 N 526.021 -0.110038 -6.92713 0
M  V30 5499 N 527.814 0.0849651 -5.62036 0
M  V30 5500 H 519.965 -0.973056 -1.888 0
M  V30 5501 H 522.228 -0.377781 -0.869474 0
M  V30 5502 H 521.934 -0.839019 -3.41546 0
M  V30 5503 H 521.808 0.893376 -3.66468 0
M  V30 5504 H 524.195 1.16578 -2.71097 0
M  V30 5505 H 524.276 -0.587857 -2.48954 0
M  V30 5506 H 523.92 -0.898715 -4.99886 0
M  V30 5507 H 523.85 0.87075 -5.19351 0
M  V30 5508 H 526.341 0.22327 -3.7724 0
M  V30 5509 H 526.654 -0.169104 -7.72615 0
M  V30 5510 H 524.999 -0.145132 -6.94848 0
M  V30 5511 H 528.19 0.192411 -4.67704 0
M  V30 5512 H 528.363 0.0137131 -6.47999 0
M  V30 5513 N 521.769 1.56035 0.221574 0
M  V30 5514 C 522.701 1.889 1.29805 0
M  V30 5515 C 523.714 0.777269 1.43047 0
M  V30 5516 O 524.903 1.05557 1.43945 0
M  V30 5517 C 522.003 2.0825 2.67367 0
M  V30 5518 C 521.176 3.39267 2.76073 0
M  V30 5519 C 520.235 3.48049 3.94649 0
M  V30 5520 O 519.261 4.2108 3.82988 0
M  V30 5521 N 520.463 2.79191 5.08953 0
M  V30 5522 H 523.228 2.81831 1.01938 0
M  V30 5523 H 520.789 1.5658 0.411612 0
M  V30 5524 H 522.781 2.11441 3.45072 0
M  V30 5525 H 521.351 1.21944 2.87834 0
M  V30 5526 H 520.571 3.48175 1.84846 0
M  V30 5527 H 521.859 4.25575 2.7886 0
M  V30 5528 H 521.257 2.19635 5.21322 0
M  V30 5529 H 519.814 2.88043 5.84701 0
M  V30 5530 N 523.247 -0.488276 1.49845 0
M  V30 5531 C 524.495 -1.23911 1.59657 0
M  V30 5532 C 524.816 -1.92816 0.291005 0
M  V30 5533 O 524.086 -1.83328 -0.690485 0
M  V30 5534 H 522.666 -0.460357 0.588286 0
M  V30 5535 H 525.328 -0.564794 1.86537 0
M  V30 5536 H 524.424 -1.99625 2.39909 0
M  V30 5537 N 524.725 -1.39134 -0.740242 0
M  V30 5538 C 525.971 -1.36273 -1.50192 0
M  V30 5539 C 526.304 0.0430136 -1.94152 0
M  V30 5540 O 525.579 1.00691 -1.66408 0
M  V30 5541 C 525.862 -2.33041 -2.74525 0
M  V30 5542 C 525.715 -3.82535 -2.36617 0
M  V30 5543 C 527.034 -2.27723 -3.76604 0
M  V30 5544 H 524.153 -0.496323 -0.544823 0
M  V30 5545 H 526.795 -1.70085 -0.846815 0
M  V30 5546 H 524.945 -2.04337 -3.30422 0
M  V30 5547 H 526.617 -4.21967 -1.86391 0
M  V30 5548 H 524.86 -3.99565 -1.68909 0
M  V30 5549 H 525.531 -4.45723 -3.2563 0
M  V30 5550 H 528.007 -2.53091 -3.30279 0
M  V30 5551 H 526.883 -2.97519 -4.61274 0
M  V30 5552 H 527.144 -1.28049 -4.2315 0
M  V30 5553 N 526.204 0.969867 -1.24223 0
M  V30 5554 C 527.434 1.74502 -1.106 0
M  V30 5555 C 527.842 1.86038 0.344483 0
M  V30 5556 O 527.185 1.3465 1.24961 0
M  V30 5557 C 527.247 3.18391 -1.66935 0
M  V30 5558 C 526.911 3.30334 -3.15798 0
M  V30 5559 C 527.908 3.15832 -4.12973 0
M  V30 5560 C 525.593 3.54644 -3.55715 0
M  V30 5561 C 527.587 3.25461 -5.48045 0
M  V30 5562 C 525.274 3.63912 -4.90929 0
M  V30 5563 C 526.272 3.49332 -5.86904 0
M  V30 5564 O 525.96 3.58251 -7.1966 0
M  V30 5565 H 525.692 0.554119 -0.387206 0
M  V30 5566 H 528.246 1.22646 -1.64764 0
M  V30 5567 H 526.476 3.71543 -1.07203 0
M  V30 5568 H 528.165 3.77707 -1.48634 0
M  V30 5569 H 528.931 2.96937 -3.83476 0
M  V30 5570 H 524.81 3.65059 -2.81519 0
M  V30 5571 H 528.354 3.13998 -6.22937 0
M  V30 5572 H 524.251 3.82319 -5.20098 0
M  V30 5573 H 525.019 3.7498 -7.27552 0
M  V30 5574 N 527.682 1.05563 1.17022 0
M  V30 5575 C 529.098 0.777684 1.39371 0
M  V30 5576 C 529.298 -0.626269 1.91521 0
M  V30 5577 O 528.354 -1.38806 2.10924 0
M  V30 5578 C 529.667 1.83642 2.3811 0
M  V30 5579 C 531.215 1.85907 2.51809 0
M  V30 5580 C 531.69 2.90813 3.53824 0
M  V30 5581 N 533.181 2.898 3.61345 0
M  V30 5582 C 533.916 3.6762 4.40049 0
M  V30 5583 N 533.412 4.55237 5.22237 0
M  V30 5584 N 535.205 3.56044 4.34959 0
M  V30 5585 H 527.356 1.9614 0.815047 0
M  V30 5586 H 529.619 0.849527 0.420722 0
M  V30 5587 H 529.325 2.84425 2.06871 0
M  V30 5588 H 529.199 1.6812 3.37662 0
M  V30 5589 H 531.586 0.857865 2.82356 0
M  V30 5590 H 531.667 2.05506 1.52318 0
M  V30 5591 H 531.311 3.91122 3.24015 0
M  V30 5592 H 531.241 2.68465 4.53028 0
M  V30 5593 H 533.732 2.26274 3.02669 0
M  V30 5594 H 534.045 5.11291 5.79484 0
M  V30 5595 H 532.39 4.59296 5.21605 0
M  V30 5596 H 535.581 2.86986 3.69806 0
M  V30 5597 H 535.754 4.16938 4.96051 0
M  V30 5598 N 529.16 -1.33526 0.837174 0
M  V30 5599 C 530.093 -2.27192 0.214233 0
M  V30 5600 C 531.071 -1.49575 -0.637657 0
M  V30 5601 O 532.255 -1.78753 -0.598291 0
M  V30 5602 C 529.382 -3.31401 -0.699367 0
M  V30 5603 C 528.428 -4.26431 0.0768429 0
M  V30 5604 S 529.261 -5.15954 1.4336 0
M  V30 5605 C 530.417 -6.23692 0.525251 0
M  V30 5606 H 530.65 -2.79679 1.00831 0
M  V30 5607 H 528.183 -1.4079 0.633834 0
M  V30 5608 H 530.141 -3.91924 -1.22088 0
M  V30 5609 H 528.802 -2.77732 -1.46709 0
M  V30 5610 H 527.995 -5.00193 -0.618268 0
M  V30 5611 H 527.597 -3.70235 0.529364 0
M  V30 5612 H 529.889 -6.76931 -0.277575 0
M  V30 5613 H 530.832 -6.97283 1.23299 0
M  V30 5614 H 531.24 -5.64398 0.107351 0
M  V30 5615 N 530.638 -0.59345 -1.46 0
M  V30 5616 C 532.054 -0.255965 -1.57534 0
M  V30 5617 C 532.254 1.24167 -1.58697 0
M  V30 5618 O 531.31 2.02398 -1.50968 0
M  V30 5619 C 532.623 -0.91466 -2.86451 0
M  V30 5620 C 534.171 -0.889253 -3.00102 0
M  V30 5621 C 534.646 -1.52769 -4.3177 0
M  V30 5622 N 536.137 -1.49253 -4.38495 0
M  V30 5623 C 536.872 -1.9558 -5.39014 0
M  V30 5624 N 536.368 -2.49929 -6.46148 0
M  V30 5625 N 538.161 -1.86432 -5.30282 0
M  V30 5626 H 530.312 -1.56604 -1.43489 0
M  V30 5627 H 532.575 -0.655207 -0.685133 0
M  V30 5628 H 532.281 -1.96861 -2.91442 0
M  V30 5629 H 532.155 -0.429356 -3.74748 0
M  V30 5630 H 534.542 0.156111 -2.94687 0
M  V30 5631 H 534.623 -1.41268 -2.13253 0
M  V30 5632 H 534.267 -2.57231 -4.37944 0
M  V30 5633 H 534.197 -0.979398 -5.17412 0
M  V30 5634 H 536.688 -1.09536 -3.61677 0
M  V30 5635 H 537.001 -2.83109 -7.19075 0
M  V30 5636 H 535.346 -2.53961 -6.46938 0
M  V30 5637 H 538.537 -1.43722 -4.4549 0
M  V30 5638 H 538.71 -2.22852 -6.08474 0
M  V30 5639 N 532.116 1.54067 -0.331816 0
M  V30 5640 C 533.063 2.24623 0.530372 0
M  V30 5641 C 534.033 1.24009 1.10503 0
M  V30 5642 O 535.218 1.52712 1.14384 0
M  V30 5643 C 532.358 3.01374 1.68129 0
M  V30 5644 C 531.471 4.16821 1.13507 0
M  V30 5645 C 530.606 4.81085 2.25234 0
M  V30 5646 C 529.645 5.88621 1.67903 0
M  V30 5647 N 528.782 6.46713 2.73326 0
M  V30 5648 H 533.622 2.97898 -0.0778607 0
M  V30 5649 H 531.159 1.47014 -0.0501965 0
M  V30 5650 H 533.117 3.44125 2.35868 0
M  V30 5651 H 531.747 2.30419 2.26069 0
M  V30 5652 H 530.799 3.78796 0.348979 0
M  V30 5653 H 532.111 4.94203 0.675633 0
M  V30 5654 H 531.265 5.26846 3.00862 0
M  V30 5655 H 530.004 4.03102 2.74518 0
M  V30 5656 H 529.009 5.42254 0.907773 0
M  V30 5657 H 530.234 6.68506 1.19487 0
M  V30 5658 H 528.18 5.71599 3.21886 0
M  V30 5659 H 528.097 7.19532 2.3197 0
M  V30 5660 H 529.365 6.97129 3.48758 0
M  V30 5661 N 533.594 0.0601682 1.57485 0
M  V30 5662 C 534.541 -0.91112 2.12055 0
M  V30 5663 C 535.511 -1.30298 1.03013 0
M  V30 5664 O 536.696 -1.39087 1.30612 0
M  V30 5665 C 533.836 -2.1775 2.67729 0
M  V30 5666 C 532.949 -1.83933 3.90887 0
M  V30 5667 C 532.084 -3.05096 4.34845 0
M  V30 5668 C 531.123 -2.67241 5.5068 0
M  V30 5669 N 530.26 -3.81127 5.8965 0
M  V30 5670 H 535.1 -0.43888 2.9475 0
M  V30 5671 H 532.637 -0.204995 1.45665 0
M  V30 5672 H 534.595 -2.91866 2.98111 0
M  V30 5673 H 533.225 -2.62535 1.87816 0
M  V30 5674 H 532.277 -0.999287 3.6704 0
M  V30 5675 H 533.589 -1.52074 4.75052 0
M  V30 5676 H 532.743 -3.87502 4.66827 0
M  V30 5677 H 531.482 -3.40139 3.49509 0
M  V30 5678 H 530.487 -1.83254 5.18361 0
M  V30 5679 H 531.712 -2.3338 6.37738 0
M  V30 5680 H 529.658 -4.15954 5.07266 0
M  V30 5681 H 529.575 -3.52997 6.68528 0
M  V30 5682 H 530.843 -4.64145 6.2625 0
M  V30 5683 N 535.072 -1.5615 -0.213296 0
M  V30 5684 C 536.004 -1.89586 -1.28802 0
M  V30 5685 C 537.017 -0.784844 -1.42633 0
M  V30 5686 O 538.206 -1.06319 -1.43383 0
M  V30 5687 C 535.306 -2.09665 -2.66259 0
M  V30 5688 C 534.479 -3.40726 -2.7427 0
M  V30 5689 C 533.538 -3.50137 -3.92798 0
M  V30 5690 O 532.564 -4.23105 -3.8075 0
M  V30 5691 N 533.766 -2.81886 -5.07465 0
M  V30 5692 H 536.531 -2.82368 -1.00442 0
M  V30 5693 H 534.092 -1.56796 -0.403302 0
M  V30 5694 H 536.084 -2.13268 -3.43946 0
M  V30 5695 H 534.654 -1.23469 -2.87183 0
M  V30 5696 H 533.874 -3.4915 -1.82997 0
M  V30 5697 H 535.162 -4.27048 -2.76599 0
M  V30 5698 H 534.56 -2.22397 -5.2015 0
M  V30 5699 H 533.117 -2.91139 -5.83165 0
M  V30 5700 N 536.55 0.480323 -1.50102 0
M  V30 5701 C 537.799 1.22979 -1.59872 0
M  V30 5702 C 538.112 1.93282 -0.30022 0
M  V30 5703 O 539.318 2.70086 -0.276709 0
M  V30 5704 C 537.774 2.23408 -2.82164 0
M  V30 5705 C 537.382 1.5895 -4.18854 0
M  V30 5706 C 539.126 2.99055 -3.01275 0
M  V30 5707 C 537.033 2.57611 -5.32344 0
M  V30 5708 H 535.963 0.462707 -0.59533 0
M  V30 5709 H 538.614 0.501291 -1.7652 0
M  V30 5710 H 536.996 2.99511 -2.59055 0
M  V30 5711 H 538.17 0.887 -4.52182 0
M  V30 5712 H 536.485 0.956191 -4.05273 0
M  V30 5713 H 539.082 3.72876 -3.83233 0
M  V30 5714 H 539.425 3.57897 -2.12639 0
M  V30 5715 H 539.958 2.30066 -3.24522 0
M  V30 5716 H 536.697 2.03521 -6.23105 0
M  V30 5717 H 536.217 3.26041 -5.03445 0
M  V30 5718 H 537.896 3.19627 -5.62537 0
M  V30 5719 N 538.028 1.39524 0.732853 0
M  V30 5720 C 539.305 1.27373 1.48444 0
M  V30 5721 C 539.685 -0.115725 2.10783 0
M  V30 5722 O 539.033 -1.12713 1.98766 0
M  V30 5723 C 539.243 2.39966 2.53412 0
M  V30 5724 C 540.591 2.79384 3.19733 0
M  V30 5725 O 541.615 2.39431 2.63725 0
M  V30 5726 O 540.474 3.48353 4.21085 0
M  V30 5727 H 537.568 0.499272 0.659285 0
M  V30 5728 H 540.114 1.51403 0.766496 0
M  V30 5729 H 538.886 3.32845 2.05742 0
M  V30 5730 H 538.509 2.17612 3.32762 0
M  V30 5731 N 539.506 -0.963266 1.24736 0
M  V30 5732 C 540.752 -1.70933 1.09131 0
M  V30 5733 C 541.085 -1.90676 -0.368273 0
M  V30 5734 O 540.36 -1.47147 -1.27193 0
M  V30 5735 C 540.643 -3.09744 1.83658 0
M  V30 5736 C 540.496 -2.97465 3.37394 0
M  V30 5737 C 541.815 -4.09483 1.61282 0
M  V30 5738 H 538.934 -0.620398 0.397838 0
M  V30 5739 H 541.576 -1.12028 1.53459 0
M  V30 5740 H 539.726 -3.60031 1.4598 0
M  V30 5741 H 541.398 -2.54571 3.84696 0
M  V30 5742 H 539.641 -2.33576 3.65547 0
M  V30 5743 H 540.312 -3.95822 3.84745 0
M  V30 5744 H 542.788 -3.68073 1.94066 0
M  V30 5745 H 541.664 -5.04666 2.15878 0
M  V30 5746 H 541.925 -4.38639 0.552102 0
M  V30 5747 N 540.985 -1.06182 -1.16461 0
M  V30 5748 C 541.948 -0.675723 -2.19013 0
M  V30 5749 C 542.948 0.277963 -1.58379 0
M  V30 5750 O 544.138 0.0604962 -1.74095 0
M  V30 5751 C 541.27 0.00591459 -3.40899 0
M  V30 5752 H 542.463 -1.58353 -2.54685 0
M  V30 5753 H 540.016 -0.856908 -1.30716 0
M  V30 5754 H 540.751 0.92652 -3.10783 0
M  V30 5755 H 540.536 -0.67984 -3.86161 0
M  V30 5756 H 542.026 0.26181 -4.16778 0
M  V30 5757 N 542.463 1.3308 -0.844243 0
M  V30 5758 C 543.712 1.96868 -0.438833 0
M  V30 5759 C 544.025 1.67599 1.00846 0
M  V30 5760 O 545.231 2.25043 1.51881 0
M  V30 5761 C 543.687 3.5234 -0.73377 0
M  V30 5762 C 543.295 3.90481 -2.1961 0
M  V30 5763 C 545.039 4.22653 -0.395574 0
M  V30 5764 C 542.946 5.38954 -2.43481 0
M  V30 5765 H 541.876 0.736749 -0.160364 0
M  V30 5766 H 544.527 1.51623 -1.03358 0
M  V30 5767 H 542.909 3.95941 -0.068589 0
M  V30 5768 H 544.083 3.57922 -2.90221 0
M  V30 5769 H 542.398 3.33165 -2.4978 0
M  V30 5770 H 544.995 5.31848 -0.551477 0
M  V30 5771 H 545.338 4.11004 0.661921 0
M  V30 5772 H 545.871 3.84601 -1.01621 0
M  V30 5773 H 542.61 5.55612 -3.47816 0
M  V30 5774 H 542.13 5.72954 -1.77437 0
M  V30 5775 H 543.809 6.05907 -2.26905 0
M  V30 5776 N 543.941 0.601185 1.45683 0
M  V30 5777 C 544.888 -0.121396 2.30481 0
M  V30 5778 C 545.858 -0.866232 1.41724 0
M  V30 5779 O 547.043 -0.85324 1.70659 0
M  V30 5780 C 544.183 -1.11704 3.26521 0
M  V30 5781 C 543.296 -0.373741 4.3038 0
M  V30 5782 C 542.431 -1.35854 5.13534 0
M  V30 5783 C 541.47 -0.602689 6.09126 0
M  V30 5784 N 540.607 -1.53645 6.85082 0
M  V30 5785 H 545.447 0.607732 2.91737 0
M  V30 5786 H 542.984 0.311502 1.43764 0
M  V30 5787 H 544.942 -1.70735 3.80664 0
M  V30 5788 H 543.572 -1.81366 2.67032 0
M  V30 5789 H 542.624 0.331962 3.78949 0
M  V30 5790 H 543.936 0.2163 4.98331 0
M  V30 5791 H 543.09 -2.02111 5.72046 0
M  V30 5792 H 541.829 -1.98251 4.45587 0
M  V30 5793 H 540.834 0.0735482 5.49751 0
M  V30 5794 H 542.059 0.0161467 6.79098 0
M  V30 5795 H 540.005 -2.14819 6.1983 0
M  V30 5796 H 539.922 -0.999688 7.49361 0
M  V30 5797 H 541.19 -2.1888 7.48139 0
M  V30 5798 N 545.419 -1.53889 0.339982 0
M  V30 5799 C 546.665 -2.01152 -0.258003 0
M  V30 5800 C 546.998 -1.22749 -1.50487 0
M  V30 5801 O 546.273 -0.314156 -1.91946 0
M  V30 5802 C 546.556 -3.55468 -0.575717 0
M  V30 5803 C 546.409 -4.44584 0.682996 0
M  V30 5804 C 547.728 -4.1768 -1.38677 0
M  V30 5805 H 544.847 -0.731198 -0.0922992 0
M  V30 5806 H 547.489 -1.84352 0.459814 0
M  V30 5807 H 545.639 -3.69914 -1.18725 0
M  V30 5808 H 547.311 -4.41981 1.32102 0
M  V30 5809 H 545.554 -4.13592 1.3086 0
M  V30 5810 H 546.225 -5.5043 0.416001 0
M  V30 5811 H 548.701 -4.0691 -0.869705 0
M  V30 5812 H 547.577 -5.25734 -1.57783 0
M  V30 5813 H 547.838 -3.72069 -2.38782 0
M  V30 5814 N 546.897 -0.0685191 -1.57451 0
M  V30 5815 C 547.827 0.89747 -2.15564 0
M  V30 5816 C 548.808 1.31266 -1.08181 0
M  V30 5817 O 549.993 1.38429 -1.36202 0
M  V30 5818 C 547.123 2.16623 -2.71463 0
M  V30 5819 C 546.077 1.89054 -3.83982 0
M  V30 5820 C 545.403 3.22532 -4.26471 0
M  V30 5821 C 546.703 1.1984 -5.08366 0
M  V30 5822 H 548.397 0.413373 -2.96533 0
M  V30 5823 H 545.943 0.197391 -1.42641 0
M  V30 5824 H 547.896 2.84614 -3.10761 0
M  V30 5825 H 546.62 2.67269 -1.8771 0
M  V30 5826 H 545.279 1.23469 -3.45183 0
M  V30 5827 H 544.927 3.71013 -3.39644 0
M  V30 5828 H 544.627 3.04879 -5.02317 0
M  V30 5829 H 546.151 3.91727 -4.68383 0
M  V30 5830 H 547.565 1.77896 -5.45001 0
M  V30 5831 H 545.962 1.12456 -5.89469 0
M  V30 5832 H 547.032 0.176996 -4.84577 0
M  V30 5833 N 548.375 1.56261 0.205012 0
M  V30 5834 C 549.322 1.93754 1.25411 0
M  V30 5835 C 550.292 0.796826 1.45739 0
M  V30 5836 O 551.477 1.05414 1.59036 0
M  V30 5837 C 548.617 2.27383 2.59598 0
M  V30 5838 C 547.73 3.5447 2.46931 0
M  V30 5839 C 546.865 3.77468 3.73753 0
M  V30 5840 C 545.904 4.98014 3.55877 0
M  V30 5841 N 545.041 5.17316 4.74688 0
M  V30 5842 H 549.881 2.83203 0.92737 0
M  V30 5843 H 547.418 1.40158 0.446574 0
M  V30 5844 H 549.376 2.44895 3.37761 0
M  V30 5845 H 548.006 1.41088 2.90335 0
M  V30 5846 H 547.058 3.45061 1.60116 0
M  V30 5847 H 548.37 4.42789 2.29651 0
M  V30 5848 H 547.524 3.95165 4.60358 0
M  V30 5849 H 546.263 2.87461 3.93976 0
M  V30 5850 H 545.268 4.80249 2.67657 0
M  V30 5851 H 546.493 5.8952 3.37109 0
M  V30 5852 H 544.439 4.30255 4.95194 0
M  V30 5853 H 544.356 5.99796 4.60197 0
M  V30 5854 H 545.624 5.39463 5.62672 0
M  V30 5855 N 549.853 -0.472356 1.50355 0
M  V30 5856 C 550.785 -1.58795 1.65278 0
M  V30 5857 C 551.798 -1.53782 0.534313 0
M  V30 5858 O 552.987 -1.59193 0.807446 0
M  V30 5859 C 550.087 -2.97672 1.62001 0
M  V30 5860 C 549.26 -3.27568 2.89859 0
M  V30 5861 C 548.319 -4.45993 2.79242 0
M  V30 5862 O 547.345 -4.46364 3.53197 0
M  V30 5863 N 548.547 -5.47578 1.92713 0
M  V30 5864 H 551.312 -1.46411 2.61503 0
M  V30 5865 H 548.873 -0.660751 1.47803 0
M  V30 5866 H 550.865 -3.74862 1.52513 0
M  V30 5867 H 549.435 -3.03832 0.735159 0
M  V30 5868 H 548.655 -2.39003 3.13483 0
M  V30 5869 H 549.943 -3.44352 3.74565 0
M  V30 5870 H 549.341 -5.50099 1.31939 0
M  V30 5871 H 547.898 -6.23757 1.8913 0
M  V30 5872 N 551.331 -1.39911 -0.725443 0
M  V30 5873 C 552.579 -1.37382 -1.48224 0
M  V30 5874 C 552.9 0.0264107 -1.94982 0
M  V30 5875 O 552.17 0.979408 -1.6966 0
M  V30 5876 H 550.75 -0.505596 -0.549892 0
M  V30 5877 H 553.412 -1.7487 -0.860608 0
M  V30 5878 H 552.508 -2.04254 -2.3598 0
M  V30 5879 N 552.809 0.956637 -1.25245 0
M  V30 5880 C 554.037 1.73571 -1.12608 0
M  V30 5881 C 554.452 1.86063 0.320324 0
M  V30 5882 O 553.809 1.35691 1.22042 0
M  V30 5883 C 553.86 3.15053 -1.77268 0
M  V30 5884 O 553.581 3.03174 -3.16255 0
M  V30 5885 C 555.082 4.09248 -1.70386 0
M  V30 5886 H 552.302 0.543955 -0.392879 0
M  V30 5887 H 554.846 1.20031 -1.65568 0
M  V30 5888 H 553.001 3.65543 -1.28284 0
M  V30 5889 H 553.415 3.9241 -3.48015 0
M  V30 5890 H 554.889 5.06138 -2.20291 0
M  V30 5891 H 555.366 4.34102 -0.667239 0
M  V30 5892 H 555.972 3.64672 -2.18849 0
M  V30 5893 N 554.287 1.06798 1.15896 0
M  V30 5894 C 555.197 0.694564 2.24083 0
M  V30 5895 C 556.213 -0.291687 1.71538 0
M  V30 5896 O 557.389 -0.139723 2.00915 0
M  V30 5897 C 554.454 0.0921014 3.46578 0
M  V30 5898 C 553.515 1.13087 4.14137 0
M  V30 5899 C 552.748 0.557064 5.30785 0
M  V30 5900 O 552.971 -0.628623 5.66925 0
M  V30 5901 O 551.905 1.29924 5.8771 0
M  V30 5902 H 555.731 1.59663 2.58344 0
M  V30 5903 H 553.316 0.840575 1.2351 0
M  V30 5904 H 555.198 -0.241884 4.20705 0
M  V30 5905 H 553.873 -0.78337 3.14078 0
M  V30 5906 H 552.78 1.51712 3.41957 0
M  V30 5907 H 554.113 1.97805 4.50704 0
M  V30 5908 N 555.766 -1.3263 0.851289 0
M  V30 5909 C 556.713 -2.28952 0.291469 0
M  V30 5910 C 557.683 -1.54897 -0.599676 0
M  V30 5911 O 558.868 -1.83137 -0.535305 0
M  V30 5912 C 556.008 -3.41206 -0.516992 0
M  V30 5913 C 555.121 -4.30148 0.399566 0
M  V30 5914 C 554.256 -5.29527 -0.4212 0
M  V30 5915 C 553.295 -6.10112 0.492969 0
M  V30 5916 N 552.432 -7.01499 -0.290414 0
M  V30 5917 H 557.272 -2.76228 1.11813 0
M  V30 5918 H 554.809 -1.35907 0.562826 0
M  V30 5919 H 556.767 -4.05005 -1.00132 0
M  V30 5920 H 555.397 -2.9509 -1.30851 0
M  V30 5921 H 554.449 -3.66959 1.00227 0
M  V30 5922 H 555.761 -4.8649 1.1013 0
M  V30 5923 H 554.915 -5.98914 -0.968832 0
M  V30 5924 H 553.654 -4.73794 -1.15632 0
M  V30 5925 H 552.659 -5.39632 1.05251 0
M  V30 5926 H 553.884 -6.6793 1.22664 0
M  V30 5927 H 551.83 -6.48199 -1.00868 0
M  V30 5928 H 551.747 -7.55178 0.352354 0
M  V30 5929 H 553.015 -7.75176 -0.819882 0
M  V30 5930 N 557.244 -0.608902 -1.45362 0
M  V30 5931 C 558.207 0.0992563 -2.28985 0
M  V30 5932 C 559.207 0.793841 -1.39838 0
M  V30 5933 O 560.397 0.641804 -1.61946 0
M  V30 5934 C 557.529 1.15073 -3.20891 0
M  V30 5935 H 558.722 -0.635964 -2.93079 0
M  V30 5936 H 556.275 -0.368007 -1.51906 0
M  V30 5937 H 557.01 1.91667 -2.616 0
M  V30 5938 H 556.795 0.656867 -3.86559 0
M  V30 5939 H 558.285 1.64665 -3.83765 0
M  V30 5940 N 558.722 1.53707 -0.348139 0
M  V30 5941 C 559.999 1.93247 0.302475 0
M  V30 5942 C 560.379 1.28012 1.67857 0
M  V30 5943 O 559.727 0.43274 2.24365 0
M  V30 5944 C 559.937 3.47031 0.370159 0
M  V30 5945 C 561.285 4.20066 0.61882 0
M  V30 5946 O 562.309 3.53319 0.452087 0
M  V30 5947 O 561.168 5.38318 0.94215 0
M  V30 5948 H 558.262 0.807736 0.177458 0
M  V30 5949 H 560.808 1.64927 -0.399651 0
M  V30 5950 H 559.58 3.86745 -0.59534 0
M  V30 5951 H 559.203 3.81532 1.11888 0
M  V30 5952 N 560.2 0.0768682 1.57412 0
M  V30 5953 C 561.428 -0.59997 1.9801 0
M  V30 5954 C 561.843 -1.62842 0.955408 0
M  V30 5955 O 561.2 -1.8241 -0.057314 0
M  V30 5956 C 561.251 -1.26401 3.38681 0
M  V30 5957 O 560.972 -0.276723 4.37225 0
M  V30 5958 C 562.473 -2.0282 3.94182 0
M  V30 5959 H 559.693 -0.162239 0.651091 0
M  V30 5960 H 562.237 0.150771 2.03943 0
M  V30 5961 H 560.392 -1.96581 3.33819 0
M  V30 5962 H 560.806 -0.753744 5.19056 0
M  V30 5963 H 562.28 -2.44667 4.94815 0
M  V30 5964 H 562.757 -2.88678 3.31001 0
M  V30 5965 H 563.363 -1.37496 4.02461 0
M  V30 5966 N 561.678 -1.56367 -0.196722 0
M  V30 5967 C 562.588 -1.97617 -1.2643 0
M  V30 5968 C 563.604 -0.883598 -1.49895 0
M  V30 5969 O 564.78 -1.18921 -1.62541 0
M  V30 5970 C 561.845 -2.30595 -2.58895 0
M  V30 5971 C 560.906 -3.53551 -2.43516 0
M  V30 5972 C 560.139 -3.84946 -3.69665 0
M  V30 5973 O 560.362 -3.17655 -4.73763 0
M  V30 5974 O 559.296 -4.78379 -3.65291 0
M  V30 5975 H 563.122 -2.88648 -0.944233 0
M  V30 5976 H 560.707 -1.43901 -0.401592 0
M  V30 5977 H 562.589 -2.52889 -3.37083 0
M  V30 5978 H 561.264 -1.42732 -2.90533 0
M  V30 5979 H 560.171 -3.36507 -1.63445 0
M  V30 5980 H 561.504 -4.41875 -2.16812 0
M  V30 5981 N 563.156 0.464375 -1.50603 0
M  V30 5982 C 564.066 1.58723 -1.72754 0
M  V30 5983 C 565.082 1.62925 -0.610844 0
M  V30 5984 O 566.258 1.8067 -0.889963 0
M  V30 5985 C 563.323 2.94897 -1.82309 0
M  V30 5986 C 562.384 3.0103 -3.06071 0
M  V30 5987 C 561.617 4.30708 -3.1516 0
M  V30 5988 O 561.84 5.2159 -2.30868 0
M  V30 5989 O 560.774 4.42571 -4.0794 0
M  V30 5990 H 564.6 1.42954 -2.67951 0
M  V30 5991 H 562.185 0.644579 -1.3478 0
M  V30 5992 H 564.067 3.75764 -1.90735 0
M  V30 5993 H 562.742 3.10851 -0.902967 0
M  V30 5994 H 561.649 2.19217 -3.03142 0
M  V30 5995 H 562.982 2.90014 -3.97684 0
M  V30 5996 N 564.634 1.40294 0.718013 0
M  V30 5997 C 565.567 1.34767 1.84155 0
M  V30 5998 C 566.545 0.218455 1.61126 0
M  V30 5999 O 567.729 0.401716 1.8417 0
M  V30 6000 C 564.856 1.09676 3.20451 0
M  V30 6001 C 563.902 2.25016 3.62312 0
M  V30 6002 S 564.735 3.87397 3.69707 0
M  V30 6003 C 565.891 3.64565 5.08766 0
M  V30 6004 H 566.124 2.29851 1.88562 0
M  V30 6005 H 563.657 1.2655 0.884555 0
M  V30 6006 H 565.615 0.95885 3.99144 0
M  V30 6007 H 564.276 0.162502 3.13679 0
M  V30 6008 H 563.469 2.03097 4.61268 0
M  V30 6009 H 563.071 2.35098 2.90869 0
M  V30 6010 H 565.363 3.22882 5.95612 0
M  V30 6011 H 566.306 4.63043 5.35721 0
M  V30 6012 H 566.714 2.98303 4.79245 0
M  V30 6013 N 566.112 -0.949982 1.2575 0
M  V30 6014 C 567.045 -2.047 1.00862 0
M  V30 6015 C 568.023 -1.62475 -0.0636982 0
M  V30 6016 O 569.207 -1.88343 0.0769153 0
M  V30 6017 C 566.334 -3.34597 0.525613 0
M  V30 6018 C 565.38 -3.95788 1.58916 0
M  V30 6019 S 566.213 -4.31175 3.17567 0
M  V30 6020 C 567.369 -5.64183 2.71013 0
M  V30 6021 H 567.602 -2.25497 1.93749 0
M  V30 6022 H 565.135 -1.09022 1.09332 0
M  V30 6023 H 567.093 -4.09716 0.25359 0
M  V30 6024 H 565.754 -3.11758 -0.382828 0
M  V30 6025 H 564.947 -4.89457 1.20201 0
M  V30 6026 H 564.549 -3.27168 1.81211 0
M  V30 6027 H 566.841 -6.42504 2.14928 0
M  V30 6028 H 567.784 -6.07774 3.6334 0
M  V30 6029 H 568.192 -5.2364 2.1086 0
M  V30 6030 N 567.59 -1.07411 -1.15328 0
M  V30 6031 C 569.006 -0.799759 -1.38116 0
M  V30 6032 C 569.206 0.59572 -1.92493 0
M  V30 6033 O 568.262 1.35433 -2.13106 0
M  V30 6034 C 569.575 -1.87407 -2.35158 0
M  V30 6035 C 571.123 -1.89889 -2.48819 0
M  V30 6036 C 571.598 -2.96406 -3.49153 0
M  V30 6037 N 573.089 -2.95512 -3.56689 0
M  V30 6038 C 573.824 -3.74575 -4.34144 0
M  V30 6039 N 573.32 -4.63488 -5.14928 0
M  V30 6040 N 575.113 -3.62919 -4.29239 0
M  V30 6041 H 567.264 -1.97411 -0.78374 0
M  V30 6042 H 569.527 -0.856113 -0.407154 0
M  V30 6043 H 569.233 -2.8768 -2.0232 0
M  V30 6044 H 569.107 -1.73471 -3.34944 0
M  V30 6045 H 571.494 -0.902677 -2.80955 0
M  V30 6046 H 571.575 -2.07904 -1.49029 0
M  V30 6047 H 571.219 -3.96227 -3.17752 0
M  V30 6048 H 571.149 -2.75638 -4.48699 0
M  V30 6049 H 573.64 -2.31061 -2.99031 0
M  V30 6050 H 573.953 -5.20445 -5.71276 0
M  V30 6051 H 572.298 -4.67537 -5.14232 0
M  V30 6052 H 575.489 -2.92833 -3.65194 0
M  V30 6053 H 575.662 -4.24777 -4.89355 0
M  V30 6054 N 569.068 1.32177 -0.85831 0
M  V30 6055 C 569.978 2.32561 -0.308606 0
M  V30 6056 C 570.994 1.64209 0.575462 0
M  V30 6057 O 572.17 1.95719 0.474961 0
M  V30 6058 C 569.235 3.43207 0.490909 0
M  V30 6059 C 568.296 4.27243 -0.419733 0
M  V30 6060 C 567.529 5.32605 0.341719 0
M  V30 6061 O 567.752 5.48332 1.57125 0
M  V30 6062 O 566.686 6.0118 -0.294379 0
M  V30 6063 H 570.512 2.81477 -1.14037 0
M  V30 6064 H 568.097 1.35866 -0.621349 0
M  V30 6065 H 569.979 4.10677 0.944574 0
M  V30 6066 H 568.654 2.96474 1.29941 0
M  V30 6067 H 567.561 3.62569 -0.921652 0
M  V30 6068 H 568.894 4.7751 -1.19352 0
M  V30 6069 N 570.547 0.616602 1.45037 0
M  V30 6070 C 571.51 -0.0871112 2.29034 0
M  V30 6071 C 572.51 -0.786414 1.40258 0
M  V30 6072 O 573.7 -0.633207 1.62284 0
M  V30 6073 C 570.832 -1.13369 3.21497 0
M  V30 6074 H 572.025 0.651497 2.92738 0
M  V30 6075 H 569.578 0.376058 1.51709 0
M  V30 6076 H 570.313 -1.90277 2.62612 0
M  V30 6077 H 570.098 -0.636358 3.86902 0
M  V30 6078 H 571.588 -1.62627 3.84633 0
M  V30 6079 N 572.025 -1.5352 0.356285 0
M  V30 6080 C 572.957 -2.23009 -0.529127 0
M  V30 6081 C 573.97 -1.241 -1.05371 0
M  V30 6082 O 575.159 -1.50379 -0.961679 0
M  V30 6083 C 572.259 -2.90685 -1.74229 0
M  V30 6084 C 571.432 -4.16019 -1.35081 0
M  V30 6085 C 570.491 -4.66989 -2.42502 0
M  V30 6086 O 569.517 -5.30895 -2.05279 0
M  V30 6087 N 570.719 -4.44006 -3.7395 0
M  V30 6088 H 573.484 -2.99627 0.0660501 0
M  V30 6089 H 571.045 -1.60885 0.181014 0
M  V30 6090 H 573.037 -3.21695 -2.4555 0
M  V30 6091 H 571.607 -2.17575 -2.24454 0
M  V30 6092 H 570.827 -3.91414 -0.467833 0
M  V30 6093 H 572.115 -4.9752 -1.06542 0
M  V30 6094 H 571.513 -3.92924 -4.06973 0
M  V30 6095 H 570.07 -4.7959 -4.41403 0
M  V30 6096 N 573.503 -0.0852151 -1.57369 0
M  V30 6097 C 574.752 0.580443 -1.93168 0
M  V30 6098 C 575.065 1.6995 -0.968319 0
M  V30 6099 O 576.271 2.42564 -1.21963 0
M  V30 6100 C 574.727 1.08386 -3.43192 0
M  V30 6101 C 574.335 -0.00491388 -4.48 0
M  V30 6102 C 576.079 1.72281 -3.87968 0
M  V30 6103 C 573.986 0.513299 -5.89168 0
M  V30 6104 H 572.916 0.22059 -0.72101 0
M  V30 6105 H 575.567 -0.159621 -1.82804 0
M  V30 6106 H 573.949 1.8773 -3.48674 0
M  V30 6107 H 575.123 -0.780032 -4.5415 0
M  V30 6108 H 573.438 -0.548453 -4.12772 0
M  V30 6109 H 576.035 2.12108 -4.9083 0
M  V30 6110 H 576.378 2.58811 -3.26071 0
M  V30 6111 H 576.911 0.995359 -3.85146 0
M  V30 6112 H 573.65 -0.315153 -6.54742 0
M  V30 6113 H 573.17 1.25564 -5.8651 0
M  V30 6114 H 574.849 0.985433 -6.39451 0
M  V30 6115 N 574.981 1.5647 0.188427 0
M  V30 6116 C 575.914 1.90146 1.26173 0
M  V30 6117 C 576.892 0.762294 1.43624 0
M  V30 6118 O 578.076 1.01395 1.58907 0
M  V30 6119 C 575.203 2.13748 2.62735 0
M  V30 6120 C 574.249 3.36448 2.62116 0
M  V30 6121 S 575.082 4.91364 2.12889 0
M  V30 6122 C 576.238 5.18041 3.51261 0
M  V30 6123 H 576.471 2.80886 0.974192 0
M  V30 6124 H 574.004 1.49335 0.392226 0
M  V30 6125 H 575.962 2.28028 3.41341 0
M  V30 6126 H 574.623 1.23747 2.88696 0
M  V30 6127 H 573.816 3.50109 3.62546 0
M  V30 6128 H 573.418 3.21196 1.91596 0
M  V30 6129 H 575.71 5.0897 4.47164 0
M  V30 6130 H 576.653 6.19764 3.42489 0
M  V30 6131 H 577.061 4.45657 3.46482 0
M  V30 6132 N 576.459 -0.456382 1.50847 0
M  V30 6133 C 577.409 -1.55045 1.67168 0
M  V30 6134 C 578.393 -1.52061 0.525958 0
M  V30 6135 O 579.585 -1.58836 0.781036 0
M  V30 6136 C 576.714 -2.93386 1.78268 0
M  V30 6137 C 575.8 -3.01198 2.98564 0
M  V30 6138 N 576.191 -2.78792 4.22029 0
M  V30 6139 C 574.489 -3.32346 2.97426 0
M  V30 6140 C 575.19 -2.91953 5.03128 0
M  V30 6141 N 574.166 -3.22797 4.37382 0
M  V30 6142 H 577.968 -1.36444 2.60308 0
M  V30 6143 H 575.482 -0.663375 1.48233 0
M  V30 6144 H 577.479 -3.72071 1.88067 0
M  V30 6145 H 576.139 -3.13022 0.862965 0
M  V30 6146 H 577.15 -2.54087 4.51287 0
M  V30 6147 H 573.827 -3.57877 2.15012 0
M  V30 6148 H 575.217 -2.78745 6.11351 0
M  V30 6149 N 577.937 -1.40673 -0.710563 0
M  V30 6150 C 578.869 -1.37256 -1.83558 0
M  V30 6151 C 579.882 -0.277133 -1.60424 0
M  V30 6152 O 581.071 -0.537831 -1.70205 0
M  V30 6153 C 578.171 -1.1144 -3.20054 0
M  V30 6154 C 577.344 -2.32734 -3.70342 0
M  V30 6155 C 576.403 -2.03002 -4.85465 0
M  V30 6156 O 575.429 -2.75912 -4.97857 0
M  V30 6157 N 576.631 -1.01105 -5.71627 0
M  V30 6158 H 579.396 -2.34215 -1.86985 0
M  V30 6159 H 576.957 -1.35091 -0.892301 0
M  V30 6160 H 578.949 -0.895265 -3.94673 0
M  V30 6161 H 577.519 -0.231307 -3.11743 0
M  V30 6162 H 576.739 -2.70446 -2.86798 0
M  V30 6163 H 578.027 -3.13584 -4.00678 0
M  V30 6164 H 577.425 -0.407303 -5.64232 0
M  V30 6165 H 575.982 -0.85182 -6.4621 0
M  V30 6166 N 579.415 0.9433 -1.26252 0
M  V30 6167 C 580.345 2.05902 -1.10122 0
M  V30 6168 C 581.326 1.70099 -0.00700552 0
M  V30 6169 O 582.511 1.93377 -0.178641 0
M  V30 6170 C 579.641 3.39516 -0.731175 0
M  V30 6171 C 578.595 3.89372 -1.77688 0
M  V30 6172 C 577.921 5.19613 -1.26122 0
M  V30 6173 C 579.221 4.14489 -3.17799 0
M  V30 6174 H 580.915 2.19655 -2.03451 0
M  V30 6175 H 578.461 1.05548 -0.979576 0
M  V30 6176 H 580.414 4.17031 -0.605215 0
M  V30 6177 H 579.138 3.25733 0.23782 0
M  V30 6178 H 577.797 3.14036 -1.89148 0
M  V30 6179 H 577.445 5.02208 -0.282128 0
M  V30 6180 H 577.145 5.53939 -1.96023 0
M  V30 6181 H 578.669 5.99713 -1.14789 0
M  V30 6182 H 580.083 4.82625 -3.09428 0
M  V30 6183 H 578.48 4.60094 -3.85271 0
M  V30 6184 H 579.55 3.20347 -3.64014 0
M  V30 6185 N 580.893 1.08022 1.14757 0
M  V30 6186 C 582.17 0.720386 1.81851 0
M  V30 6187 C 582.55 -0.796375 1.95502 0
M  V30 6188 O 581.898 -1.71339 1.51179 0
M  V30 6189 C 582.108 1.44273 3.17783 0
M  V30 6190 C 583.456 1.59925 3.93331 0
M  V30 6191 O 584.48 1.40407 3.2736 0
M  V30 6192 O 583.339 1.92096 5.11626 0
M  V30 6193 H 580.433 0.257142 0.786007 0
M  V30 6194 H 582.979 1.18155 1.21809 0
M  V30 6195 H 581.751 2.47618 3.02987 0
M  V30 6196 H 581.374 0.97279 3.85516 0
M  V30 6197 N 582.371 -1.3172 0.865308 0
M  V30 6198 C 583.319 -2.30569 0.306674 0
M  V30 6199 C 584.313 -1.59317 -0.575724 0
M  V30 6200 O 585.519 -1.73961 -0.462343 0
M  V30 6201 H 581.894 -0.747681 0.0804834 0
M  V30 6202 H 583.865 -2.75165 1.15441 0
M  V30 6203 C 582.614 -3.44358 -0.480952 0
M  V30 6204 H 581.937 -3.99354 0.18876 0
M  V30 6205 H 583.377 -4.15652 -0.837241 0
M  V30 6206 C 581.836 -2.92574 -1.67039 0
M  V30 6207 O 582.366 -2.90954 -2.76964 0
M  V30 6208 N 580.572 -2.48835 -1.50097 0
M  V30 6209 H 580.119 -2.50353 -0.606738 0
M  V30 6210 H 580.077 -2.14543 -2.29823 0
M  V30 6211 N 583.85 -0.624285 -1.44708 0
M  V30 6212 C 585.26 -0.2092 -1.85524 0
M  V30 6213 C 585.611 1.23783 -1.52225 0
M  V30 6214 O 584.736 1.94089 -0.956986 0
M  V30 6215 C 585.332 -0.372897 -3.36742 0
M  V30 6216 C 583.891 -0.012374 -3.76398 0
M  V30 6217 C 583.038 -0.68951 -2.68591 0
M  V30 6218 H 585.989 -0.829894 -1.35272 0
M  V30 6219 H 586.01 0.390134 -3.78495 0
M  V30 6220 H 585.522 -1.42615 -3.60947 0
M  V30 6221 H 583.623 1.03941 -3.57809 0
M  V30 6222 H 583.736 -0.417663 -4.77276 0
M  V30 6223 H 582.1 -0.125484 -2.54391 0
M  V30 6224 H 582.883 -1.74522 -2.9563 0
M  V30 6225 N 585.328 1.53329 -0.364422 0
M  V30 6226 C 586.558 2.05359 0.226096 0
M  V30 6227 C 586.966 1.23777 1.43094 0
M  V30 6228 O 586.309 0.271139 1.81688 0
M  V30 6229 C 586.371 3.52918 0.684794 0
M  V30 6230 C 586.035 4.55218 -0.403206 0
M  V30 6231 C 587.032 5.04583 -1.2527 0
M  V30 6232 C 584.717 4.99134 -0.563117 0
M  V30 6233 C 586.711 5.96463 -2.24745 0
M  V30 6234 C 584.398 5.9082 -1.56124 0
M  V30 6235 C 585.396 6.39375 -2.40184 0
M  V30 6236 O 585.084 7.29255 -3.38293 0
M  V30 6237 H 584.816 0.674588 0.0436772 0
M  V30 6238 H 587.37 1.98688 -0.520782 0
M  V30 6239 H 585.6 3.57122 1.48326 0
M  V30 6240 H 587.289 3.87812 1.19818 0
M  V30 6241 H 588.055 4.71403 -1.14034 0
M  V30 6242 H 583.934 4.60928 0.0813909 0
M  V30 6243 H 587.478 6.34285 -2.90393 0
M  V30 6244 H 583.375 6.23414 -1.67407 0
M  V30 6245 H 584.143 7.47249 -3.34009 0
M  V30 6246 N 586.806 0.0935595 1.57322 0
M  V30 6247 C 588.055 -0.570191 1.93473 0
M  V30 6248 C 588.368 -1.69434 0.977318 0
M  V30 6249 O 589.574 -2.41914 1.23248 0
M  V30 6250 C 588.03 -1.06564 3.43762 0
M  V30 6251 C 587.638 0.0286723 4.47991 0
M  V30 6252 C 589.382 -1.70221 3.88877 0
M  V30 6253 C 587.289 -0.482046 5.89432 0
M  V30 6254 H 586.219 -0.216764 0.72217 0
M  V30 6255 H 588.87 0.169313 1.82717 0
M  V30 6256 H 587.252 -1.85878 3.49664 0
M  V30 6257 H 588.426 0.804106 4.5373 0
M  V30 6258 H 586.741 0.570336 4.12476 0
M  V30 6259 H 589.338 -2.09502 4.91948 0
M  V30 6260 H 589.681 -2.57078 3.27439 0
M  V30 6261 H 590.214 -0.974919 3.85668 0
M  V30 6262 H 586.953 0.349871 6.54566 0
M  V30 6263 H 586.473 -1.22452 5.87167 0
M  V30 6264 H 588.152 -0.951508 6.39965 0
M  V30 6265 N 588.284 -1.56567 -0.180126 0
M  V30 6266 C 589.53 -1.81761 -0.899497 0
M  V30 6267 C 589.863 -0.670015 -1.82276 0
M  V30 6268 O 589.138 0.328575 -1.91705 0
M  V30 6269 C 589.421 -3.17296 -1.7028 0
M  V30 6270 C 589.274 -4.4257 -0.803255 0
M  V30 6271 C 590.593 -3.49678 -2.67233 0
M  V30 6272 H 587.712 -0.661192 -0.325567 0
M  V30 6273 H 590.354 -1.89272 -0.16612 0
M  V30 6274 H 588.504 -3.11023 -2.32802 0
M  V30 6275 H 590.176 -4.60902 -0.191585 0
M  V30 6276 H 588.419 -4.33658 -0.110796 0
M  V30 6277 H 589.09 -5.33935 -1.40064 0
M  V30 6278 H 591.566 -3.56347 -2.14839 0
M  V30 6279 H 590.442 -4.45605 -3.20511 0
M  V30 6280 H 590.703 -2.73932 -3.47007 0
M  V30 6281 N 589.762 0.448376 -1.51087 0
M  V30 6282 C 591.178 0.783984 -1.39017 0
M  V30 6283 C 591.378 1.96087 -0.463904 0
M  V30 6284 O 590.434 2.52357 0.0850534 0
M  V30 6285 C 591.747 1.07471 -2.80839 0
M  V30 6286 C 593.295 1.17981 -2.89913 0
M  V30 6287 C 593.77 1.50354 -4.32617 0
M  V30 6288 N 595.261 1.57301 -4.35673 0
M  V30 6289 C 595.996 1.839 -5.4311 0
M  V30 6290 N 595.492 2.08365 -6.60724 0
M  V30 6291 N 597.285 1.8559 -5.30578 0
M  V30 6292 H 589.436 -0.326881 -2.0987 0
M  V30 6293 H 591.699 -0.0838006 -0.944289 0
M  V30 6294 H 591.405 0.282768 -3.50561 0
M  V30 6295 H 591.279 2.00519 -3.19487 0
M  V30 6296 H 593.666 1.9624 -2.20395 0
M  V30 6297 H 593.747 0.228603 -2.54776 0
M  V30 6298 H 593.391 0.726273 -5.0268 0
M  V30 6299 H 593.321 2.46663 -4.65258 0
M  V30 6300 H 595.812 1.40342 -3.50874 0
M  V30 6301 H 596.125 2.27999 -7.38401 0
M  V30 6302 H 594.47 2.0571 -6.63859 0
M  V30 6303 H 597.661 1.65989 -4.37682 0
M  V30 6304 H 597.834 2.05983 -6.1439 0
M  V30 6305 N 591.24 1.41047 0.703093 0
M  V30 6306 C 592.17 1.45067 1.82969 0
M  V30 6307 C 593.151 0.31016 1.67248 0
M  V30 6308 O 594.336 0.520548 1.87093 0
M  V30 6309 C 591.466 1.32478 3.2104 0
M  V30 6310 C 590.42 2.44262 3.51454 0
M  V30 6311 C 589.746 2.16742 4.88801 0
M  V30 6312 C 591.046 3.86606 3.51189 0
M  V30 6313 H 592.74 2.39353 1.79863 0
M  V30 6314 H 590.286 1.15206 0.863919 0
M  V30 6315 H 592.239 1.33904 3.99559 0
M  V30 6316 H 590.963 0.346735 3.24754 0
M  V30 6317 H 589.622 2.42107 2.75282 0
M  V30 6318 H 589.27 1.17299 4.89132 0
M  V30 6319 H 588.97 2.91643 5.10116 0
M  V30 6320 H 590.494 2.19872 5.69639 0
M  V30 6321 H 591.908 3.90517 4.19725 0
M  V30 6322 H 590.305 4.61128 3.84033 0
M  V30 6323 H 591.375 4.15296 2.50315 0
M  V30 6324 N 592.718 -0.936591 1.26751 0
M  V30 6325 C 593.967 -1.67778 1.11953 0
M  V30 6326 C 594.28 -1.92694 -0.33589 0
M  V30 6327 O 595.486 -2.64682 -0.604618 0
M  V30 6328 C 593.942 -3.02138 1.95551 0
M  V30 6329 C 593.55 -2.84953 3.45696 0
M  V30 6330 C 595.294 -3.79917 1.89377 0
M  V30 6331 C 593.201 -4.14814 4.21525 0
M  V30 6332 H 592.131 -0.629275 0.415366 0
M  V30 6333 H 594.782 -1.04122 1.51099 0
M  V30 6334 H 593.164 -3.668 1.49243 0
M  V30 6335 H 594.338 -2.29112 3.99805 0
M  V30 6336 H 592.653 -2.20612 3.53156 0
M  V30 6337 H 595.25 -4.76134 2.43312 0
M  V30 6338 H 595.593 -4.07204 0.865464 0
M  V30 6339 H 596.126 -3.22037 2.33532 0
M  V30 6340 H 592.865 -3.92709 5.24843 0
M  V30 6341 H 592.385 -4.70352 3.72195 0
M  V30 6342 H 594.064 -4.83239 4.3022 0
M  V30 6343 N 594.196 -1.08629 -1.14182 0
M  V30 6344 C 595.444 -0.815731 -1.84906 0
M  V30 6345 C 595.765 0.660441 -1.83475 0
M  V30 6346 O 595.035 1.47888 -1.28476 0
M  V30 6347 H 593.615 -0.298773 -0.684648 0
M  V30 6348 H 596.277 -1.37274 -1.38354 0
M  V30 6349 H 595.373 -1.16193 -2.89665 0
M  V30 6350 N 595.674 1.31259 -0.872281 0
M  V30 6351 C 596.92 1.96913 -0.485083 0
M  V30 6352 C 597.253 1.68774 0.960667 0
M  V30 6353 O 596.528 0.985495 1.67685 0
M  V30 6354 C 596.811 3.52299 -0.745502 0
M  V30 6355 C 596.664 3.90002 -2.24095 0
M  V30 6356 C 597.983 4.39582 -0.213516 0
M  V30 6357 H 595.102 0.715252 -0.177716 0
M  V30 6358 H 597.744 1.55347 -1.09395 0
M  V30 6359 H 595.894 3.87835 -0.227276 0
M  V30 6360 H 597.566 3.64555 -2.82661 0
M  V30 6361 H 595.809 3.38526 -2.71261 0
M  V30 6362 H 596.48 4.98352 -2.37381 0
M  V30 6363 H 598.956 4.10882 -0.656902 0
M  V30 6364 H 597.832 5.47251 -0.42516 0
M  V30 6365 H 598.093 4.33158 0.884666 0
M  V30 6366 N 597.152 0.631951 1.44375 0
M  V30 6367 C 598.392 0.14009 2.03919 0
M  V30 6368 C 598.756 -1.21534 1.48639 0
M  V30 6369 O 599.957 -1.79936 1.99691 0
M  V30 6370 C 598.228 0.127174 3.57174 0
M  V30 6371 S 599.787 -0.299946 4.37774 0
M  V30 6372 H 596.605 0.0614891 0.708336 0
M  V30 6373 H 599.207 0.835524 1.76746 0
M  V30 6374 H 597.911 1.11676 3.94913 0
M  V30 6375 H 597.442 -0.589482 3.88958 0
M  V30 6376 H 599.457 -1.54396 4.71568 0
M  V30 6377 N 598.631 -1.53133 0.372548 0
M  V30 6378 C 599.563 -2.23557 -0.505444 0
M  V30 6379 C 600.576 -1.25211 -1.04049 0
M  V30 6380 O 601.765 -1.51391 -0.945675 0
M  V30 6381 C 598.865 -2.92516 -1.71136 0
M  V30 6382 C 598.038 -4.17428 -1.30661 0
M  V30 6383 C 597.097 -4.69535 -2.37536 0
M  V30 6384 O 596.123 -5.33042 -1.99637 0
M  V30 6385 N 597.325 -4.47947 -3.6922 0
M  V30 6386 H 600.09 -2.9954 0.0978259 0
M  V30 6387 H 597.651 -1.60684 0.198068 0
M  V30 6388 H 599.643 -3.24281 -2.42124 0
M  V30 6389 H 598.213 -2.19944 -2.22134 0
M  V30 6390 H 597.433 -3.91888 -0.426292 0
M  V30 6391 H 598.721 -4.98622 -1.01259 0
M  V30 6392 H 598.119 -3.97219 -4.02783 0
M  V30 6393 H 596.676 -4.84245 -4.36292 0
M  V30 6394 N 600.109 -0.101901 -1.5727 0
M  V30 6395 C 601.072 0.840129 -2.13247 0
M  V30 6396 C 602.072 1.20625 -1.06331 0
M  V30 6397 O 603.262 1.13456 -1.32186 0
M  V30 6398 C 600.394 2.13372 -2.65867 0
M  V30 6399 H 601.587 0.353945 -2.97804 0
M  V30 6400 H 599.14 0.147167 -1.55606 0
M  V30 6401 H 599.875 2.66461 -1.84849 0
M  V30 6402 H 599.66 1.88085 -3.44044 0
M  V30 6403 H 601.15 2.80748 -3.09145 0
M  V30 6404 N 601.587 1.56661 0.17182 0
M  V30 6405 C 602.497 1.99604 1.2327 0
M  V30 6406 C 603.513 0.907333 1.4847 0
M  V30 6407 O 604.689 1.21492 1.60629 0
M  V30 6408 C 601.754 2.34685 2.55194 0
M  V30 6409 C 600.815 3.57381 2.3786 0
M  V30 6410 C 600.048 3.90779 3.63494 0
M  V30 6411 O 600.271 3.25152 4.6865 0
M  V30 6412 O 599.205 4.84129 3.57634 0
M  V30 6413 H 603.031 2.90114 0.898192 0
M  V30 6414 H 600.616 1.44522 0.378647 0
M  V30 6415 H 602.498 2.5822 3.33017 0
M  V30 6416 H 601.173 1.47336 2.88225 0
M  V30 6417 H 600.08 3.39064 1.5807 0
M  V30 6418 H 601.413 4.45268 2.09754 0
M  V30 6419 N 603.065 -0.440357 1.51323 0
M  V30 6420 C 604.028 -1.51679 1.71832 0
M  V30 6421 C 605.028 -1.49648 0.588386 0
M  V30 6422 O 606.218 -1.51724 0.855891 0
M  V30 6423 C 603.35 -2.91228 1.77199 0
M  V30 6424 H 604.543 -1.34799 2.67898 0
M  V30 6425 H 602.096 -0.66883 1.41267 0
M  V30 6426 H 602.831 -3.13516 0.829363 0
M  V30 6427 H 602.616 -2.94107 2.59314 0
M  V30 6428 H 604.106 -3.69321 1.94915 0
M  V30 6429 N 604.543 -1.41418 -0.695603 0
M  V30 6430 C 605.473 -1.46035 -1.82197 0
M  V30 6431 C 606.454 -0.319025 -1.67082 0
M  V30 6432 O 607.639 -0.530462 -1.86815 0
M  V30 6433 C 604.769 -1.34179 -3.20333 0
M  V30 6434 C 603.723 -2.46123 -3.50154 0
M  V30 6435 C 603.049 -2.19332 -4.87645 0
M  V30 6436 C 604.349 -3.88463 -3.49133 0
M  V30 6437 H 606.043 -2.40303 -1.78591 0
M  V30 6438 H 603.589 -1.15663 -0.857797 0
M  V30 6439 H 605.542 -1.36021 -3.98844 0
M  V30 6440 H 604.266 -0.363952 -3.24566 0
M  V30 6441 H 602.925 -2.43563 -2.73994 0
M  V30 6442 H 602.573 -1.19891 -4.88503 0
M  V30 6443 H 602.273 -2.94344 -5.08562 0
M  V30 6444 H 603.797 -2.22889 -5.68465 0
M  V30 6445 H 605.211 -3.92738 -4.17648 0
M  V30 6446 H 603.608 -4.63158 -3.81582 0
M  V30 6447 H 604.678 -4.16617 -2.48109 0
M  V30 6448 N 606.021 0.929856 -1.27246 0
M  V30 6449 C 606.954 2.03069 -1.04106 0
M  V30 6450 C 607.932 1.62556 0.0378417 0
M  V30 6451 O 609.116 1.88197 -0.106869 0
M  V30 6452 C 606.243 3.33718 -0.578778 0
M  V30 6453 C 605.289 3.93209 -1.65193 0
M  V30 6454 S 606.122 4.26068 -3.24386 0
M  V30 6455 C 607.278 5.598 -2.79954 0
M  V30 6456 H 607.511 2.22386 -1.97311 0
M  V30 6457 H 605.044 1.07269 -1.11053 0
M  V30 6458 H 607.002 4.09261 -0.31874 0
M  V30 6459 H 605.663 3.12328 0.333182 0
M  V30 6460 H 604.856 4.87482 -1.27973 0
M  V30 6461 H 604.458 3.24243 -1.86393 0
M  V30 6462 H 606.75 6.39004 -2.25123 0
M  V30 6463 H 607.693 6.01917 -3.72963 0
M  V30 6464 H 608.101 5.20219 -2.19164 0
M  V30 6465 N 607.499 1.09233 1.13605 0
M  V30 6466 C 608.429 0.751738 2.21068 0
M  V30 6467 C 609.41 -0.269688 1.67948 0
M  V30 6468 O 610.595 -0.13819 1.93708 0
M  V30 6469 C 607.725 0.16935 3.46887 0
M  V30 6470 C 606.679 1.12007 4.13084 0
M  V30 6471 C 606.005 0.399483 5.33206 0
M  V30 6472 C 607.305 2.46168 4.6065 0
M  V30 6473 H 608.999 1.65024 2.49815 0
M  V30 6474 H 606.545 0.794905 1.20072 0
M  V30 6475 H 608.498 -0.0809824 4.21322 0
M  V30 6476 H 607.222 -0.764335 3.1753 0
M  V30 6477 H 605.881 1.35564 3.40614 0
M  V30 6478 H 605.529 -0.538277 5.00112 0
M  V30 6479 H 605.229 1.03337 5.78442 0
M  V30 6480 H 606.753 0.157403 6.10397 0
M  V30 6481 H 608.167 2.26829 5.26518 0
M  V30 6482 H 606.564 3.05326 5.1662 0
M  V30 6483 H 607.634 3.07076 3.75276 0
M  V30 6484 N 608.977 -1.30795 0.87923 0
M  V30 6485 C 610.223 -1.96653 0.495519 0
M  V30 6486 C 610.556 -1.69282 -0.951703 0
M  V30 6487 O 609.831 -0.994374 -1.6716 0
M  V30 6488 C 610.114 -3.51898 0.764174 0
M  V30 6489 C 609.967 -3.88808 2.2616 0
M  V30 6490 C 611.286 -4.39462 0.236825 0
M  V30 6491 H 608.405 -0.7143 0.181507 0
M  V30 6492 H 611.047 -1.54765 1.10217 0
M  V30 6493 H 609.197 -3.87709 0.247841 0
M  V30 6494 H 610.869 -3.63051 2.8459 0
M  V30 6495 H 609.112 -3.37082 2.73053 0
M  V30 6496 H 609.783 -4.97086 2.4002 0
M  V30 6497 H 612.259 -4.10528 0.678683 0
M  V30 6498 H 611.135 -5.47018 0.454176 0
M  V30 6499 H 611.396 -4.33621 -0.861683 0
M  V30 6500 N 610.455 -0.639598 -1.44038 0
M  V30 6501 C 611.388 0.109736 -2.27936 0
M  V30 6502 C 612.366 0.843095 -1.39035 0
M  V30 6503 O 613.55 0.845456 -1.68476 0
M  V30 6504 C 610.677 1.16173 -3.18153 0
M  V30 6505 C 609.723 0.527954 -4.2322 0
M  V30 6506 S 610.556 -0.688318 -5.31058 0
M  V30 6507 C 611.712 0.363481 -6.24844 0
M  V30 6508 H 611.945 -0.601986 -2.91142 0
M  V30 6509 H 609.478 -0.42802 -1.48349 0
M  V30 6510 H 611.436 1.76372 -3.7068 0
M  V30 6511 H 610.097 1.84569 -2.54151 0
M  V30 6512 H 609.29 1.32054 -4.86393 0
M  V30 6513 H 608.892 0.000396444 -3.74 0
M  V30 6514 H 611.184 1.23362 -6.66174 0
M  V30 6515 H 612.127 -0.23288 -7.07717 0
M  V30 6516 H 612.535 0.693179 -5.60228 0
M  V30 6517 N 611.933 1.52934 -0.380664 0
M  V30 6518 C 612.843 2.29921 0.466192 0
M  V30 6519 C 613.859 1.36488 1.07922 0
M  V30 6520 O 615.035 1.69553 1.0869 0
M  V30 6521 C 612.1 3.08468 1.58266 0
M  V30 6522 C 611.161 4.17595 0.995627 0
M  V30 6523 C 610.394 4.92387 2.05889 0
M  V30 6524 O 610.617 4.67184 3.27254 0
M  V30 6525 O 609.551 5.77949 1.68102 0
M  V30 6526 H 613.377 3.03274 -0.160735 0
M  V30 6527 H 610.962 1.48698 -0.144617 0
M  V30 6528 H 612.844 3.57469 2.23145 0
M  V30 6529 H 611.519 2.37937 2.19471 0
M  V30 6530 H 610.426 3.72811 0.310332 0
M  V30 6531 H 611.759 4.90336 0.427918 0
M  V30 6532 N 613.412 0.11024 1.57214 0
M  V30 6533 C 614.345 -0.880224 2.1054 0
M  V30 6534 C 615.323 -1.26658 1.01964 0
M  V30 6535 O 616.507 -1.36917 1.29561 0
M  V30 6536 C 613.634 -2.17676 2.59489 0
M  V30 6537 C 612.68 -1.93914 3.79868 0
M  V30 6538 S 613.513 -1.16336 5.2271 0
M  V30 6539 C 614.669 -2.47188 5.75021 0
M  V30 6540 H 614.902 -0.426614 2.94223 0
M  V30 6541 H 612.435 -0.10336 1.54054 0
M  V30 6542 H 614.393 -2.92175 2.88347 0
M  V30 6543 H 613.054 -2.60156 1.76005 0
M  V30 6544 H 612.247 -2.8996 4.12236 0
M  V30 6545 H 611.849 -1.27539 3.51582 0
M  V30 6546 H 614.141 -3.43079 5.84211 0
M  V30 6547 H 615.084 -2.19377 6.7326 0
M  V30 6548 H 615.492 -2.56154 5.03036 0
M  V30 6549 N 614.89 -1.56749 -0.16351 0
M  V30 6550 C 615.853 -1.96121 -1.18613 0
M  V30 6551 C 616.853 -0.845765 -1.36761 0
M  V30 6552 O 618.043 -1.11268 -1.34033 0
M  V30 6553 C 615.175 -2.26282 -2.54969 0
M  V30 6554 H 616.368 -2.87639 -0.848764 0
M  V30 6555 H 613.921 -1.50928 -0.406251 0
M  V30 6556 H 614.656 -1.37504 -2.93706 0
M  V30 6557 H 614.441 -3.07595 -2.43162 0
M  V30 6558 H 615.931 -2.57638 -3.28653 0
M  V30 6559 N 616.368 0.432326 -1.51554 0
M  V30 6560 C 617.616 1.17901 -1.64146 0
M  V30 6561 C 617.937 1.91604 -0.362367 0
M  V30 6562 O 617.207 1.85764 0.621968 0
M  V30 6563 H 615.787 0.438206 -0.604966 0
M  V30 6564 H 618.449 0.495172 -1.88505 0
M  V30 6565 H 617.545 1.90584 -2.47152 0
M  V30 6566 N 617.846 1.41785 0.688094 0
M  V30 6567 C 619.094 1.41264 1.4453 0
M  V30 6568 C 619.415 0.0252946 1.94984 0
M  V30 6569 O 618.685 -0.934081 1.72197 0
M  V30 6570 H 617.265 0.519998 0.536294 0
M  V30 6571 H 619.927 1.7709 0.813941 0
M  V30 6572 H 619.023 2.10439 2.30482 0
M  V30 6573 N 619.324 -0.923095 1.27737 0
M  V30 6574 C 620.572 -1.66797 1.14119 0
M  V30 6575 C 620.893 -1.92479 -0.312541 0
M  V30 6576 O 620.163 -1.53432 -1.218 0
M  V30 6577 H 618.743 -0.618196 0.419336 0
M  V30 6578 H 621.405 -1.10815 1.60331 0
M  V30 6579 H 620.501 -2.63424 1.67374 0
M  V30 6580 N 620.802 -1.09834 -1.13024 0
M  V30 6581 C 622.213 -0.855651 -1.65938 0
M  V30 6582 C 622.564 0.615159 -1.86307 0
M  V30 6583 O 621.689 1.47335 -1.58497 0
M  V30 6584 C 622.284 -1.5467 -3.01434 0
M  V30 6585 C 620.843 -1.35088 -3.51323 0
M  V30 6586 C 619.99 -1.6001 -2.26478 0
M  V30 6587 H 622.941 -1.25691 -0.968889 0
M  V30 6588 H 622.962 -0.982179 -3.67605 0
M  V30 6589 H 622.474 -2.61715 -2.86578 0
M  V30 6590 H 620.575 -0.30179 -3.71376 0
M  V30 6591 H 620.688 -2.0886 -4.31178 0
M  V30 6592 H 619.052 -1.02246 -2.33276 0
M  V30 6593 H 619.835 -2.68293 -2.14182 0
M  V30 6594 N 622.28 1.30327 -0.886154 0
M  V30 6595 C 623.21 2.30549 -0.370028 0
M  V30 6596 C 624.191 1.61039 0.547751 0
M  V30 6597 O 625.376 1.8864 0.461353 0
M  V30 6598 C 622.506 3.44808 0.415275 0
M  V30 6599 C 621.46 4.26024 -0.41085 0
M  V30 6600 C 620.786 5.32347 0.501128 0
M  V30 6601 C 622.086 4.95433 -1.65359 0
M  V30 6602 H 623.78 2.73969 -1.20754 0
M  V30 6603 H 621.326 1.3171 -0.582097 0
M  V30 6604 H 623.279 4.13986 0.78699 0
M  V30 6605 H 622.003 3.00197 1.28644 0
M  V30 6606 H 620.662 3.58535 -0.764719 0
M  V30 6607 H 620.31 4.83982 1.37004 0
M  V30 6608 H 620.01 5.87581 -0.0478356 0
M  V30 6609 H 621.534 6.0438 0.869333 0
M  V30 6610 H 622.948 5.5712 -1.35239 0
M  V30 6611 H 621.345 5.60537 -2.14284 0
M  V30 6612 H 622.415 4.21493 -2.39733 0
M  V30 6613 N 623.758 0.647228 1.43697 0
M  V30 6614 C 624.708 -0.0702191 2.27892 0
M  V30 6615 C 625.692 -0.800601 1.39568 0
M  V30 6616 O 626.884 -0.684055 1.63247 0
M  V30 6617 C 624.013 -1.04008 3.27165 0
M  V30 6618 C 623.099 -0.308484 4.22977 0
M  V30 6619 N 623.49 0.671721 5.0132 0
M  V30 6620 C 621.788 -0.550751 4.42586 0
M  V30 6621 C 622.489 1.10543 5.711 0
M  V30 6622 N 621.465 0.440903 5.41809 0
M  V30 6623 H 625.267 0.682031 2.85877 0
M  V30 6624 H 622.781 0.474022 1.55328 0
M  V30 6625 H 624.778 -1.56881 3.86256 0
M  V30 6626 H 623.438 -1.79246 2.70742 0
M  V30 6627 H 624.449 1.0502 5.0714 0
M  V30 6628 H 621.126 -1.28476 3.97241 0
M  V30 6629 H 622.516 1.91614 6.43998 0
M  V30 6630 N 625.236 -1.5273 0.388769 0
M  V30 6631 C 626.183 -2.26437 -0.446639 0
M  V30 6632 C 627.153 -1.28025 -1.05824 0
M  V30 6633 O 628.338 -1.56852 -1.08637 0
M  V30 6634 C 625.478 -3.07407 -1.56828 0
M  V30 6635 C 624.591 -4.20747 -0.979589 0
M  V30 6636 C 623.726 -4.89113 -2.07224 0
M  V30 6637 C 622.765 -5.94447 -1.45942 0
M  V30 6638 N 621.902 -6.56411 -2.49135 0
M  V30 6639 H 626.742 -2.97404 0.18837 0
M  V30 6640 H 624.279 -1.46727 0.104725 0
M  V30 6641 H 626.237 -3.52642 -2.22934 0
M  V30 6642 H 624.867 -2.3865 -2.17361 0
M  V30 6643 H 623.919 -3.7983 -0.208151 0
M  V30 6644 H 625.231 -4.9637 -0.491747 0
M  V30 6645 H 624.385 -5.3765 -2.81101 0
M  V30 6646 H 623.124 -4.13013 -2.59368 0
M  V30 6647 H 622.129 -5.4525 -0.705894 0
M  V30 6648 H 623.354 -6.7248 -0.945932 0
M  V30 6649 H 621.3 -5.83152 -3.00449 0
M  V30 6650 H 621.217 -7.27645 -2.05105 0
M  V30 6651 H 622.485 -7.09592 -3.22644 0
M  V30 6652 N 626.714 -0.118576 -1.57153 0
M  V30 6653 C 627.961 0.539526 -1.9518 0
M  V30 6654 C 628.289 1.66714 -1.00184 0
M  V30 6655 O 627.544 1.95683 -0.0256482 0
M  V30 6656 C 627.843 1.11303 -3.39627 0
M  V30 6657 C 627.509 0.106809 -4.50773 0
M  V30 6658 C 626.171 -0.169876 -4.809 0
M  V30 6659 C 628.523 -0.57895 -5.17975 0
M  V30 6660 C 625.851 -1.13861 -5.75545 0
M  V30 6661 C 628.203 -1.53631 -6.13661 0
M  V30 6662 C 626.867 -1.82099 -6.42181 0
M  V30 6663 H 626.137 0.197427 -0.714215 0
M  V30 6664 H 628.784 -0.199391 -1.90459 0
M  V30 6665 H 627.089 1.92869 -3.4104 0
M  V30 6666 H 628.786 1.63032 -3.66363 0
M  V30 6667 H 625.376 0.332645 -4.27307 0
M  V30 6668 H 629.56 -0.378359 -4.94856 0
M  V30 6669 H 624.816 -1.36592 -5.95947 0
M  V30 6670 H 628.99 -2.07337 -6.64819 0
M  V30 6671 H 626.617 -2.57319 -7.15326 0
M  V30 6672 N 628.193 1.56834 0.155195 0
M  V30 6673 C 629.123 2.00678 1.19376 0
M  V30 6674 C 630.104 0.884973 1.45266 0
M  V30 6675 O 631.289 1.1522 1.56326 0
M  V30 6676 C 628.419 2.38042 2.5289 0
M  V30 6677 C 627.373 3.53332 2.41538 0
M  V30 6678 C 626.699 3.76485 3.79688 0
M  V30 6679 C 627.999 4.86265 1.9064 0
M  V30 6680 H 629.693 2.87688 0.829232 0
M  V30 6681 H 627.239 1.38407 0.397445 0
M  V30 6682 H 629.192 2.67314 3.25763 0
M  V30 6683 H 627.916 1.4796 2.91162 0
M  V30 6684 H 626.575 3.24213 1.71117 0
M  V30 6685 H 626.223 2.83667 4.15382 0
M  V30 6686 H 625.923 4.54068 3.72956 0
M  V30 6687 H 627.447 4.08174 4.54122 0
M  V30 6688 H 628.861 5.14308 2.53299 0
M  V30 6689 H 627.258 5.67597 1.94818 0
M  V30 6690 H 628.328 4.77184 0.861596 0
M  V30 6691 N 629.671 -0.424282 1.51781 0
M  V30 6692 C 630.917 -1.17434 1.6534 0
M  V30 6693 C 631.25 -1.90549 0.374806 0
M  V30 6694 O 630.525 -1.84145 -0.626179 0
M  V30 6695 C 630.808 -2.18093 2.86544 0
M  V30 6696 C 630.661 -1.48975 4.24413 0
M  V30 6697 C 631.98 -3.18934 3.03264 0
M  V30 6698 H 629.099 -0.425566 0.601716 0
M  V30 6699 H 631.741 -0.461921 1.84299 0
M  V30 6700 H 629.891 -2.78849 2.7051 0
M  V30 6701 H 631.563 -0.914551 4.52143 0
M  V30 6702 H 629.806 -0.791893 4.26511 0
M  V30 6703 H 630.477 -2.22347 5.05238 0
M  V30 6704 H 632.953 -2.68243 3.18096 0
M  V30 6705 H 631.829 -3.86645 3.89611 0
M  V30 6706 H 632.09 -3.85793 2.15908 0
M  V30 6707 N 631.149 -1.42148 -0.680565 0
M  V30 6708 C 632.397 -1.42029 -1.43779 0
M  V30 6709 C 632.718 -0.0356347 -1.94967 0
M  V30 6710 O 631.988 0.924936 -1.7269 0
M  V30 6711 H 630.568 -0.522835 -0.533529 0
M  V30 6712 H 633.23 -1.7752 -0.804538 0
M  V30 6713 H 632.326 -2.11658 -2.29363 0
M  V30 6714 N 632.627 0.916307 -1.28225 0
M  V30 6715 C 633.574 2.01841 -1.11932 0
M  V30 6716 C 634.544 1.66091 -0.0171604 0
M  V30 6717 O 635.729 1.89934 -0.181617 0
M  V30 6718 C 632.869 3.36065 -0.784504 0
M  V30 6719 C 631.982 3.847 -1.96544 0
M  V30 6720 C 631.117 5.07423 -1.57149 0
M  V30 6721 C 630.156 5.48384 -2.71922 0
M  V30 6722 N 629.293 6.62298 -2.33037 0
M  V30 6723 H 634.133 2.1511 -2.06232 0
M  V30 6724 H 631.67 1.05366 -1.02647 0
M  V30 6725 H 633.628 4.13272 -0.571148 0
M  V30 6726 H 632.258 3.22571 0.121565 0
M  V30 6727 H 631.31 3.03673 -2.291 0
M  V30 6728 H 632.622 4.1102 -2.82603 0
M  V30 6729 H 631.776 5.92165 -1.32004 0
M  V30 6730 H 630.515 4.82906 -0.682153 0
M  V30 6731 H 629.52 4.62184 -2.97768 0
M  V30 6732 H 630.745 5.7489 -3.61494 0
M  V30 6733 H 628.691 6.39416 -1.4657 0
M  V30 6734 H 628.608 6.8833 -3.12631 0
M  V30 6735 H 629.876 7.50352 -2.11169 0
M  V30 6736 N 634.105 1.10431 1.1244 0
M  V30 6737 C 635.521 0.836096 1.35947 0
M  V30 6738 C 635.721 -0.544475 1.94004 0
M  V30 6739 O 634.777 -1.29735 2.16622 0
M  V30 6740 C 636.09 1.93575 2.30107 0
M  V30 6741 C 637.638 1.9642 2.43697 0
M  V30 6742 C 638.113 3.05559 3.41171 0
M  V30 6743 N 639.604 3.04865 3.48728 0
M  V30 6744 C 640.339 3.85954 4.24061 0
M  V30 6745 N 639.835 4.76977 5.02458 0
M  V30 6746 N 641.628 3.74172 4.19466 0
M  V30 6747 H 633.779 1.9942 0.731124 0
M  V30 6748 H 636.042 0.866607 0.384312 0
M  V30 6749 H 635.748 2.92943 1.94621 0
M  V30 6750 H 635.622 1.8229 3.30227 0
M  V30 6751 H 638.009 0.97685 2.78463 0
M  V30 6752 H 638.09 2.11782 1.43465 0
M  V30 6753 H 637.734 4.04513 3.07135 0
M  V30 6754 H 637.664 2.87438 4.41234 0
M  V30 6755 H 640.155 2.38908 2.92799 0
M  V30 6756 H 640.468 5.35409 5.57277 0
M  V30 6757 H 638.813 4.81006 5.01655 0
M  V30 6758 H 642.004 3.02412 3.57302 0
M  V30 6759 H 642.177 4.37602 4.77921 0
M  V30 6760 N 635.583 -1.29855 0.893053 0
M  V30 6761 C 636.493 -2.31661 0.370157 0
M  V30 6762 C 637.509 -1.65677 -0.531723 0
M  V30 6763 O 638.685 -1.9691 -0.422902 0
M  V30 6764 C 635.75 -3.44388 -0.399741 0
M  V30 6765 C 634.811 -4.2598 0.532861 0
M  V30 6766 C 634.044 -5.33324 -0.200388 0
M  V30 6767 O 634.267 -5.52305 -1.42531 0
M  V30 6768 O 633.201 -6.00188 0.453668 0
M  V30 6769 H 637.027 -2.78354 1.2146 0
M  V30 6770 H 634.612 -1.34171 0.657153 0
M  V30 6771 H 636.494 -4.13037 -0.835358 0
M  V30 6772 H 635.169 -2.99815 -1.22035 0
M  V30 6773 H 634.076 -3.59998 1.01746 0
M  V30 6774 H 635.409 -4.74178 1.3197 0
M  V30 6775 N 637.061 -0.65484 -1.43351 0
M  V30 6776 C 637.971 0.0363603 -2.34572 0
M  V30 6777 C 638.987 0.810432 -1.53974 0
M  V30 6778 O 640.163 0.757308 -1.86619 0
M  V30 6779 C 637.228 0.989733 -3.32273 0
M  V30 6780 C 636.289 0.212414 -4.28774 0
M  V30 6781 C 635.522 1.12038 -5.21808 0
M  V30 6782 O 635.745 2.35967 -5.19303 0
M  V30 6783 O 634.679 0.59191 -5.98982 0
M  V30 6784 H 638.505 -0.714527 -2.95175 0
M  V30 6785 H 636.09 -0.415029 -1.4352 0
M  V30 6786 H 637.972 1.53759 -3.92347 0
M  V30 6787 H 636.647 1.72082 -2.74171 0
M  V30 6788 H 635.554 -0.379062 -3.72175 0
M  V30 6789 H 636.887 -0.479138 -4.89862 0
M  V30 6790 N 638.539 1.52521 -0.396863 0
M  V30 6791 C 639.788 2.00857 0.184184 0
M  V30 6792 C 640.101 1.28733 1.47265 0
M  V30 6793 O 641.307 1.67821 2.13421 0
M  V30 6794 C 639.763 3.57901 0.378787 0
M  V30 6795 C 639.371 4.38931 -0.896873 0
M  V30 6796 C 641.115 4.14504 0.915789 0
M  V30 6797 C 639.022 5.87591 -0.670133 0
M  V30 6798 H 637.952 0.750496 0.0726055 0
M  V30 6799 H 640.603 1.75965 -0.520425 0
M  V30 6800 H 638.985 3.79072 1.14543 0
M  V30 6801 H 640.159 4.29524 -1.66872 0
M  V30 6802 H 638.474 3.93586 -1.35938 0
M  V30 6803 H 641.071 5.23236 1.10126 0
M  V30 6804 H 641.414 3.71076 1.88701 0
M  V30 6805 H 641.947 3.97253 0.208523 0
M  V30 6806 H 638.686 6.35355 -1.61257 0
M  V30 6807 H 638.206 5.99767 0.0626368 0
M  V30 6808 H 639.885 6.46268 -0.307577 0
M  V30 6809 N 640.017 0.126909 1.57088 0
M  V30 6810 C 641.428 -0.397201 1.82426 0
M  V30 6811 C 641.779 -1.66084 1.04453 0
M  V30 6812 O 640.904 -2.14534 0.283552 0
M  V30 6813 C 641.499 -0.727411 3.30899 0
M  V30 6814 C 640.058 -1.19612 3.56889 0
M  V30 6815 C 639.205 -0.20885 2.76512 0
M  V30 6816 H 642.156 0.351924 1.54749 0
M  V30 6817 H 642.177 -1.58407 3.45959 0
M  V30 6818 H 641.689 0.19247 3.87622 0
M  V30 6819 H 639.79 -2.13263 3.05532 0
M  V30 6820 H 639.903 -1.13598 4.65438 0
M  V30 6821 H 638.267 -0.697479 2.44964 0
M  V30 6822 H 639.05 0.704267 3.35998 0
M  V30 6823 N 641.495 -1.56914 -0.146875 0
M  V30 6824 C 642.741 -1.83628 -0.860741 0
M  V30 6825 C 643.074 -0.708528 -1.80813 0
M  V30 6826 O 642.349 0.287838 -1.92358 0
M  V30 6827 C 642.632 -3.20836 -1.63511 0
M  V30 6828 C 642.485 -4.44174 -0.709199 0
M  V30 6829 C 643.804 -3.55268 -2.59756 0
M  V30 6830 H 640.923 -0.667949 -0.311468 0
M  V30 6831 H 643.565 -1.89582 -0.125936 0
M  V30 6832 H 641.715 -3.15891 -2.26153 0
M  V30 6833 H 643.387 -4.61205 -0.0937781 0
M  V30 6834 H 641.63 -4.33796 -0.0187856 0
M  V30 6835 H 642.301 -5.36785 -1.28707 0
M  V30 6836 H 644.777 -3.60824 -2.07232 0
M  V30 6837 H 643.653 -4.52303 -3.10987 0
M  V30 6838 H 643.914 -2.81231 -3.41118 0
M  V30 6839 N 642.974 0.416227 -1.52004 0
M  V30 6840 C 644.199 1.19029 -1.69843 0
M  V30 6841 C 644.624 1.83708 -0.404103 0
M  V30 6842 O 643.982 1.69711 0.637787 0
M  V30 6843 C 644.03 2.23439 -2.83032 0
M  V30 6844 O 643.134 3.29419 -2.48106 0
M  V30 6845 H 642.475 0.347785 -0.565634 0
M  V30 6846 H 645.005 0.488871 -1.98674 0
M  V30 6847 H 645.015 2.67884 -3.07737 0
M  V30 6848 H 643.69 1.75745 -3.76944 0
M  V30 6849 H 642.267 2.90303 -2.34048 0
M  V30 6850 N 644.452 1.42507 0.673017 0
M  V30 6851 C 645.4 1.46362 1.80779 0
M  V30 6852 C 646.394 0.339166 1.6597 0
M  V30 6853 O 647.6 0.512262 1.72557 0
M  V30 6854 H 643.975 0.458433 0.596107 0
M  V30 6855 H 645.946 2.41953 1.74646 0
M  V30 6856 C 644.695 1.38462 3.18941 0
M  V30 6857 H 644.018 2.24283 3.30964 0
M  V30 6858 H 645.458 1.45221 3.98355 0
M  V30 6859 C 643.917 0.0996354 3.36753 0
M  V30 6860 O 644.447 -0.846894 3.92671 0
M  V30 6861 N 642.653 0.016211 2.90595 0
M  V30 6862 H 642.2 0.78725 2.45276 0
M  V30 6863 H 642.158 -0.84291 3.0289 0
M  V30 6864 N 645.93 -0.909495 1.28709 0
M  V30 6865 C 647.176 -1.66151 1.16283 0
M  V30 6866 C 647.509 -1.92067 -0.287069 0
M  V30 6867 O 646.784 -1.52409 -1.20837 0
M  V30 6868 C 647.067 -3.01676 1.9663 0
M  V30 6869 C 646.92 -2.82888 3.49707 0
M  V30 6870 C 648.239 -4.02274 1.78504 0
M  V30 6871 H 645.358 -0.602966 0.423793 0
M  V30 6872 H 648 -1.05418 1.58073 0
M  V30 6873 H 646.15 -3.53515 1.61119 0
M  V30 6874 H 647.822 -2.38026 3.95147 0
M  V30 6875 H 646.065 -2.17862 3.75125 0
M  V30 6876 H 646.736 -3.79147 4.01187 0
M  V30 6877 H 649.212 -3.59511 2.09503 0
M  V30 6878 H 648.088 -4.95056 2.37088 0
M  V30 6879 H 648.349 -4.35903 0.737647 0
M  V30 6880 N 647.408 -1.11026 -1.11852 0
M  V30 6881 C 648.371 -0.768006 -2.1595 0
M  V30 6882 C 649.371 0.210538 -1.59416 0
M  V30 6883 O 650.561 -0.0133978 -1.74195 0
M  V30 6884 C 647.693 -0.138678 -3.40618 0
M  V30 6885 H 648.886 -1.69012 -2.4774 0
M  V30 6886 H 646.439 -0.911578 -1.26964 0
M  V30 6887 H 647.174 0.793872 -3.14433 0
M  V30 6888 H 646.959 -0.843012 -3.8293 0
M  V30 6889 H 648.449 0.0848039 -4.17514 0
M  V30 6890 N 648.886 1.2938 -0.899927 0
M  V30 6891 C 649.796 2.31462 -0.382437 0
M  V30 6892 C 650.812 1.65956 0.522929 0
M  V30 6893 O 651.988 1.97131 0.412454 0
M  V30 6894 C 649.053 3.44595 0.381472 0
M  V30 6895 C 648.114 4.25692 -0.555444 0
M  V30 6896 C 647.347 5.33422 0.172102 0
M  V30 6897 O 647.57 5.53053 1.396 0
M  V30 6898 O 646.504 5.99939 -0.485491 0
M  V30 6899 H 650.33 2.77706 -1.22934 0
M  V30 6900 H 647.915 1.33821 -0.664259 0
M  V30 6901 H 649.797 4.13474 0.813442 0
M  V30 6902 H 648.472 3.00458 1.20443 0
M  V30 6903 H 647.379 3.59453 -1.03653 0
M  V30 6904 H 648.712 4.73471 -1.34483 0
M  V30 6905 N 650.364 0.662433 1.43002 0
M  V30 6906 C 651.294 -0.00979809 2.33498 0
M  V30 6907 C 652.275 -0.802329 1.49989 0
M  V30 6908 O 653.46 -0.761964 1.78627 0
M  V30 6909 C 650.59 -0.970446 3.33466 0
M  V30 6910 C 649.544 -0.287383 4.27034 0
M  V30 6911 C 648.87 -1.36012 5.17112 0
M  V30 6912 C 650.17 0.82595 5.15728 0
M  V30 6913 H 651.864 0.745959 2.89958 0
M  V30 6914 H 649.41 0.360172 1.39423 0
M  V30 6915 H 651.363 -1.44971 3.95679 0
M  V30 6916 H 650.087 -1.75748 2.75282 0
M  V30 6917 H 648.746 0.17152 3.66199 0
M  V30 6918 H 648.394 -2.13882 4.55262 0
M  V30 6919 H 648.094 -0.908276 5.80538 0
M  V30 6920 H 649.618 -1.84056 5.82199 0
M  V30 6921 H 651.032 0.42845 5.71697 0
M  V30 6922 H 649.429 1.20282 5.87922 0
M  V30 6923 H 650.499 1.68003 4.54866 0
M  V30 6924 N 651.842 -1.52309 0.404946 0
M  V30 6925 C 652.772 -2.29805 -0.41376 0
M  V30 6926 C 653.753 -1.3384 -1.0498 0
M  V30 6927 O 654.938 -1.62745 -1.05961 0
M  V30 6928 C 652.068 -3.11639 -1.53292 0
M  V30 6929 C 651.022 -4.15616 -1.02211 0
M  V30 6930 C 650.348 -4.8577 -2.23455 0
M  V30 6931 C 651.648 -5.2224 -0.0790725 0
M  V30 6932 H 653.342 -2.98493 0.232878 0
M  V30 6933 H 650.888 -1.43552 0.113441 0
M  V30 6934 H 652.841 -3.64618 -2.11262 0
M  V30 6935 H 651.565 -2.40712 -2.20738 0
M  V30 6936 H 650.224 -3.63641 -0.46484 0
M  V30 6937 H 649.872 -4.11376 -2.89445 0
M  V30 6938 H 649.572 -5.56058 -1.89929 0
M  V30 6939 H 651.096 -5.4156 -2.82038 0
M  V30 6940 H 652.51 -5.70485 -0.567438 0
M  V30 6941 H 650.907 -5.99867 0.167167 0
M  V30 6942 H 651.977 -4.77078 0.867447 0
M  V30 6943 N 653.32 -0.135238 -1.57019 0
M  V30 6944 C 654.27 0.820408 -2.12728 0
M  V30 6945 C 655.254 1.21735 -1.05211 0
M  V30 6946 O 656.446 1.18574 -1.31413 0
M  V30 6947 C 653.575 2.06414 -2.74314 0
M  V30 6948 C 652.661 1.69083 -3.88937 0
M  V30 6949 N 653.052 1.0251 -4.95303 0
M  V30 6950 C 651.35 1.98434 -3.99425 0
M  V30 6951 C 652.051 0.846749 -5.75504 0
M  V30 6952 N 651.027 1.3769 -5.25873 0
M  V30 6953 H 654.829 0.302426 -2.9234 0
M  V30 6954 H 652.343 0.0667009 -1.62263 0
M  V30 6955 H 654.34 2.75863 -3.12579 0
M  V30 6956 H 653 2.58741 -1.96171 0
M  V30 6957 H 654.011 0.687207 -5.1332 0
M  V30 6958 H 650.688 2.52693 -3.32344 0
M  V30 6959 H 652.078 0.322949 -6.71123 0
M  V30 6960 N 654.798 1.5699 0.138552 0
M  V30 6961 C 655.73 1.95515 1.1961 0
M  V30 6962 C 656.743 0.852002 1.38726 0
M  V30 6963 O 657.932 1.13038 1.38147 0
M  V30 6964 C 655.032 2.2213 2.55952 0
M  V30 6965 C 654.205 3.53424 2.57702 0
M  V30 6966 C 653.264 3.6848 3.75645 0
M  V30 6967 O 652.29 4.4079 3.60129 0
M  V30 6968 N 653.492 3.05777 4.93438 0
M  V30 6969 H 656.257 2.86838 0.868557 0
M  V30 6970 H 653.818 1.58542 0.328033 0
M  V30 6971 H 655.81 2.29435 3.33379 0
M  V30 6972 H 654.38 1.3703 2.80965 0
M  V30 6973 H 653.6 3.57484 1.6613 0
M  V30 6974 H 654.888 4.39759 2.55909 0
M  V30 6975 H 654.286 2.46961 5.08947 0
M  V30 6976 H 652.843 3.18631 5.6861 0
M  V30 6977 N 656.276 -0.40816 1.52223 0
M  V30 6978 C 657.522 -1.15673 1.66576 0
M  V30 6979 C 657.855 -1.90141 0.394996 0
M  V30 6980 O 657.13 -1.84798 -0.606613 0
M  V30 6981 C 657.413 -2.15042 2.88841 0
M  V30 6982 C 657.266 -1.44465 4.25969 0
M  V30 6983 C 658.585 -3.15699 3.0663 0
M  V30 6984 H 655.704 -0.41916 0.606196 0
M  V30 6985 H 658.346 -0.442348 1.84779 0
M  V30 6986 H 656.496 -2.75964 2.73452 0
M  V30 6987 H 658.168 -0.866544 4.53088 0
M  V30 6988 H 656.411 -0.746612 4.27327 0
M  V30 6989 H 657.082 -2.16976 5.07568 0
M  V30 6990 H 659.558 -2.64854 3.20923 0
M  V30 6991 H 658.434 -3.82491 3.9369 0
M  V30 6992 H 658.695 -3.83481 2.19987 0
M  V30 6993 N 657.755 -1.42862 -0.66545 0
M  V30 6994 C 658.98 -1.47456 -1.45848 0
M  V30 6995 C 659.405 -0.0900312 -1.87884 0
M  V30 6996 O 658.763 0.913587 -1.56599 0
M  V30 6997 C 658.811 -2.41514 -2.67774 0
M  V30 6998 O 657.915 -1.89296 -3.66389 0
M  V30 6999 H 657.256 -0.499236 -0.437789 0
M  V30 7000 H 659.786 -1.8765 -0.815394 0
M  V30 7001 H 659.796 -2.58409 -3.15735 0
M  V30 7002 H 658.471 -3.42099 -2.36519 0
M  V30 7003 H 657.048 -1.82003 -3.25468 0
M  V30 7004 N 659.233 0.902656 -1.29189 0
M  V30 7005 C 660.166 2.00816 -1.0839 0
M  V30 7006 C 661.144 1.626 0.00335266 0
M  V30 7007 O 662.328 1.87928 -0.146765 0
M  V30 7008 C 659.455 3.32415 -0.649435 0
M  V30 7009 C 658.501 3.89617 -1.73496 0
M  V30 7010 S 659.334 4.19091 -3.33351 0
M  V30 7011 C 660.49 5.53736 -2.91766 0
M  V30 7012 H 660.723 2.18151 -2.01984 0
M  V30 7013 H 658.256 1.0489 -1.13303 0
M  V30 7014 H 660.214 4.08492 -0.405479 0
M  V30 7015 H 658.875 3.12964 0.266857 0
M  V30 7016 H 658.068 4.84658 -1.38284 0
M  V30 7017 H 657.67 3.20217 -1.93229 0
M  V30 7018 H 659.962 6.34085 -2.38627 0
M  V30 7019 H 660.905 5.93871 -3.85647 0
M  V30 7020 H 661.313 5.15453 -2.30149 0
M  V30 7021 N 660.711 1.11618 1.11262 0
M  V30 7022 C 661.959 0.864469 1.82678 0
M  V30 7023 C 662.28 -0.611564 1.85162 0
M  V30 7024 O 661.55 -1.44429 1.32352 0
M  V30 7025 H 660.13 0.316821 0.676486 0
M  V30 7026 H 662.792 1.40894 1.34666 0
M  V30 7027 H 661.888 1.23832 2.86482 0
M  V30 7028 N 662.189 -1.289 0.906776 0
M  V30 7029 C 663.122 -2.25737 0.334362 0
M  V30 7030 C 664.1 -1.52745 -0.557474 0
M  V30 7031 O 665.284 -1.81673 -0.502697 0
M  V30 7032 C 662.411 -3.34642 -0.522716 0
M  V30 7033 C 661.457 -4.25424 0.302777 0
M  V30 7034 S 662.29 -5.07629 1.70508 0
M  V30 7035 C 663.446 -6.20031 0.855118 0
M  V30 7036 H 663.679 -2.73941 1.15514 0
M  V30 7037 H 661.212 -1.37233 0.707573 0
M  V30 7038 H 663.17 -3.97845 -1.01141 0
M  V30 7039 H 661.831 -2.85119 -1.31781 0
M  V30 7040 H 661.024 -5.02767 -0.352257 0
M  V30 7041 H 660.626 -3.66908 0.724873 0
M  V30 7042 H 662.918 -6.77451 0.0816418 0
M  V30 7043 H 663.861 -6.89767 1.60087 0
M  V30 7044 H 664.269 -5.63035 0.406375 0
M  V30 7045 N 663.667 -0.670007 -1.42649 0
M  V30 7046 C 664.614 0.0112928 -2.30797 0
M  V30 7047 C 665.584 0.797627 -1.45695 0
M  V30 7048 O 666.769 0.770845 -1.74535 0
M  V30 7049 C 663.909 0.95998 -3.31479 0
M  V30 7050 C 663.022 0.167975 -4.31673 0
M  V30 7051 C 662.157 1.11198 -5.19431 0
M  V30 7052 C 661.196 0.311381 -6.11307 0
M  V30 7053 N 660.333 1.20784 -6.91633 0
M  V30 7054 H 665.173 -0.746231 -2.88505 0
M  V30 7055 H 662.71 -0.379739 -1.42114 0
M  V30 7056 H 664.668 1.52379 -3.88377 0
M  V30 7057 H 663.298 1.68419 -2.75382 0
M  V30 7058 H 662.35 -0.512385 -3.76933 0
M  V30 7059 H 663.662 -0.453814 -4.96731 0
M  V30 7060 H 662.816 1.74587 -5.81037 0
M  V30 7061 H 661.555 1.76766 -4.54538 0
M  V30 7062 H 660.56 -0.335758 -5.48774 0
M  V30 7063 H 661.785 -0.340135 -6.78248 0
M  V30 7064 H 659.731 1.85001 -6.29373 0
M  V30 7065 H 659.648 0.64102 -7.53277 0
M  V30 7066 H 660.916 1.82936 -7.5773 0
M  V30 7067 N 665.145 1.52092 -0.413018 0
M  V30 7068 C 666.375 2.05974 0.160648 0
M  V30 7069 C 666.783 1.28267 1.39084 0
M  V30 7070 O 666.126 0.328805 1.80733 0
M  V30 7071 C 666.188 3.54918 0.572169 0
M  V30 7072 C 665.852 4.53705 -0.547826 0
M  V30 7073 C 666.849 5.00342 -1.41259 0
M  V30 7074 C 664.534 4.97089 -0.721627 0
M  V30 7075 C 666.528 5.89011 -2.43607 0
M  V30 7076 C 664.215 5.85554 -1.74841 0
M  V30 7077 C 665.213 6.3141 -2.60403 0
M  V30 7078 O 664.901 7.18123 -3.61323 0
M  V30 7079 H 664.633 0.675636 0.0221936 0
M  V30 7080 H 667.187 1.96931 -0.58373 0
M  V30 7081 H 665.417 3.61661 1.36889 0
M  V30 7082 H 667.106 3.91428 1.0742 0
M  V30 7083 H 667.872 4.67537 -1.28974 0
M  V30 7084 H 663.751 4.60954 -0.0652911 0
M  V30 7085 H 667.295 6.24725 -3.10425 0
M  V30 7086 H 663.192 6.17773 -1.87156 0
M  V30 7087 H 663.96 7.36244 -3.57613 0
M  V30 7088 N 666.623 0.143563 1.56945 0
M  V30 7089 C 667.553 -0.7936 2.196 0
M  V30 7090 C 668.534 -1.25955 1.14321 0
M  V30 7091 O 669.719 -1.31773 1.42651 0
M  V30 7092 C 666.849 -2.03424 2.81489 0
M  V30 7093 C 665.803 -1.70519 3.92565 0
M  V30 7094 C 665.129 -3.01817 4.41373 0
M  V30 7095 C 666.429 -0.95449 5.13504 0
M  V30 7096 H 668.123 -0.271423 2.98167 0
M  V30 7097 H 665.669 -0.12911 1.4342 0
M  V30 7098 H 667.622 -2.69463 3.23987 0
M  V30 7099 H 666.346 -2.58008 2.00248 0
M  V30 7100 H 665.005 -1.06859 3.5068 0
M  V30 7101 H 664.653 -3.54386 3.56959 0
M  V30 7102 H 664.353 -2.80565 5.16292 0
M  V30 7103 H 665.877 -3.68934 4.86539 0
M  V30 7104 H 667.291 -1.5169 5.52868 0
M  V30 7105 H 665.688 -0.842035 5.94163 0
M  V30 7106 H 666.758 0.0544033 4.84869 0
M  V30 7107 N 668.101 -1.57061 -0.130224 0
M  V30 7108 C 669.011 -2.02802 -1.17934 0
M  V30 7109 C 670.027 -0.946378 -1.46013 0
M  V30 7110 O 671.203 -1.25708 -1.57351 0
M  V30 7111 C 668.268 -2.41368 -2.48882 0
M  V30 7112 C 667.329 -3.63561 -2.28301 0
M  V30 7113 C 666.562 -4.00279 -3.53005 0
M  V30 7114 O 666.785 -3.37463 -4.59864 0
M  V30 7115 O 665.719 -4.93441 -3.44673 0
M  V30 7116 H 669.545 -2.92394 -0.820958 0
M  V30 7117 H 667.13 -1.45475 -0.340197 0
M  V30 7118 H 669.012 -2.66958 -3.26054 0
M  V30 7119 H 667.687 -1.54926 -2.84217 0
M  V30 7120 H 666.594 -3.43136 -1.49025 0
M  V30 7121 H 667.927 -4.50673 -1.97875 0
M  V30 7122 N 669.579 0.400081 -1.52437 0
M  V30 7123 C 670.489 1.51253 -1.79331 0
M  V30 7124 C 671.505 1.60188 -0.679396 0
M  V30 7125 O 672.681 1.76733 -0.965791 0
M  V30 7126 C 669.746 2.869 -1.94652 0
M  V30 7127 C 668.807 2.87777 -3.18564 0
M  V30 7128 C 668.04 4.16954 -3.33145 0
M  V30 7129 O 668.263 5.11329 -2.52783 0
M  V30 7130 O 667.197 4.2487 -4.26343 0
M  V30 7131 H 671.023 1.31461 -2.73773 0
M  V30 7132 H 668.608 0.586834 -1.37392 0
M  V30 7133 H 670.49 3.67336 -2.065 0
M  V30 7134 H 669.165 3.06741 -1.034 0
M  V30 7135 H 668.072 2.06162 -3.12167 0
M  V30 7136 H 669.405 2.72886 -4.09627 0
M  V30 7137 N 671.057 1.43213 0.657864 0
M  V30 7138 C 672.004 1.48011 1.77092 0
M  V30 7139 C 672.974 0.330291 1.62783 0
M  V30 7140 O 674.159 0.536787 1.83094 0
M  V30 7141 C 671.299 1.40461 3.15222 0
M  V30 7142 C 670.412 2.65612 3.40697 0
M  V30 7143 C 669.547 2.50083 4.68649 0
M  V30 7144 C 668.586 3.70525 4.87214 0
M  V30 7145 N 667.723 3.53835 6.0642 0
M  V30 7146 H 672.563 2.43121 1.72326 0
M  V30 7147 H 670.1 1.20687 0.841013 0
M  V30 7148 H 672.058 1.34079 3.95068 0
M  V30 7149 H 670.688 0.489359 3.19069 0
M  V30 7150 H 669.74 2.82292 2.54982 0
M  V30 7151 H 671.052 3.5509 3.50303 0
M  V30 7152 H 670.206 2.41383 5.56614 0
M  V30 7153 H 668.945 1.58121 4.61356 0
M  V30 7154 H 667.95 3.79639 3.97686 0
M  V30 7155 H 669.175 4.63489 4.96341 0
M  V30 7156 H 667.121 2.64604 6.00267 0
M  V30 7157 H 667.038 4.36912 6.16963 0
M  V30 7158 H 668.306 3.48978 6.97019 0
M  V30 7159 N 672.536 -0.895792 1.29666 0
M  V30 7160 C 673.484 -2.02173 1.15017 0
M  V30 7161 C 674.478 -1.69276 0.0647651 0
M  V30 7162 O 675.684 -1.7859 0.224846 0
M  V30 7163 H 672.059 -0.662719 0.355397 0
M  V30 7164 H 674.03 -2.11666 2.10334 0
M  V30 7165 C 672.779 -3.37212 0.847555 0
M  V30 7166 H 672.102 -3.6303 1.67479 0
M  V30 7167 H 673.542 -4.16668 0.785106 0
M  V30 7168 C 672.001 -3.33891 -0.44929 0
M  V30 7169 O 672.531 -3.73673 -1.47415 0
M  V30 7170 N 670.737 -2.86991 -0.456547 0
M  V30 7171 H 670.284 -2.54813 0.377925 0
M  V30 7172 H 670.242 -2.85152 -1.32423 0
M  V30 7173 N 674.014 -1.12206 -1.10668 0
M  V30 7174 C 675.261 -0.875875 -1.82578 0
M  V30 7175 C 675.589 0.598342 -1.85068 0
M  V30 7176 O 674.844 1.45818 -1.3052 0
M  V30 7177 C 675.143 -1.39276 -3.29146 0
M  V30 7178 C 674.809 -2.8816 -3.46806 0
M  V30 7179 C 673.471 -3.28813 -3.51334 0
M  V30 7180 C 675.823 -3.8401 -3.52399 0
M  V30 7181 C 673.151 -4.64028 -3.59019 0
M  V30 7182 C 675.503 -5.19053 -3.61617 0
M  V30 7183 C 674.167 -5.59252 -3.64408 0
M  V30 7184 H 673.437 -0.320505 -0.6681 0
M  V30 7185 H 676.084 -1.40184 -1.30464 0
M  V30 7186 H 674.389 -0.787207 -3.8381 0
M  V30 7187 H 676.086 -1.17851 -3.83291 0
M  V30 7188 H 672.676 -2.55716 -3.43958 0
M  V30 7189 H 676.86 -3.53698 -3.48154 0
M  V30 7190 H 672.116 -4.94568 -3.59461 0
M  V30 7191 H 676.29 -5.93152 -3.64889 0
M  V30 7192 H 673.917 -6.64017 -3.70116 0
M  V30 7193 N 675.492 1.28418 -0.913599 0
M  V30 7194 C 676.738 1.9527 -0.547484 0
M  V30 7195 C 677.071 1.71745 0.906486 0
M  V30 7196 O 676.346 1.03834 1.64465 0
M  V30 7197 C 676.629 3.49748 -0.857205 0
M  V30 7198 C 676.482 3.82675 -2.3639 0
M  V30 7199 C 677.801 4.3868 -0.353258 0
M  V30 7200 H 674.92 0.709236 -0.200381 0
M  V30 7201 H 677.562 1.51789 -1.14281 0
M  V30 7202 H 675.712 3.86915 -0.350548 0
M  V30 7203 H 677.384 3.55378 -2.94116 0
M  V30 7204 H 675.627 3.29724 -2.81894 0
M  V30 7205 H 676.298 4.90547 -2.53115 0
M  V30 7206 H 678.774 4.08584 -0.787288 0
M  V30 7207 H 677.65 5.45621 -0.599049 0
M  V30 7208 H 677.911 4.35753 0.746413 0
M  V30 7209 N 676.97 0.677563 1.42291 0
M  V30 7210 C 677.92 -0.0218641 2.2799 0
M  V30 7211 C 678.904 -0.770816 1.41235 0
M  V30 7212 O 680.096 -0.649273 1.64662 0
M  V30 7213 C 677.225 -0.970449 3.29298 0
M  V30 7214 C 676.311 -0.218695 4.23536 0
M  V30 7215 N 676.702 0.777908 4.99782 0
M  V30 7216 C 675 -0.456748 4.43655 0
M  V30 7217 C 675.701 1.22632 5.68627 0
M  V30 7218 N 674.677 0.55573 5.40752 0
M  V30 7219 H 678.479 0.742516 2.84366 0
M  V30 7220 H 675.993 0.506862 1.54288 0
M  V30 7221 H 677.99 -1.48652 3.89497 0
M  V30 7222 H 676.65 -1.73463 2.74483 0
M  V30 7223 H 677.661 1.15754 5.04798 0
M  V30 7224 H 674.338 -1.20021 3.99877 0
M  V30 7225 H 675.728 2.05231 6.39789 0
M  V30 7226 N 678.448 -1.51871 0.421078 0
M  V30 7227 C 679.864 -1.59435 0.0725398 0
M  V30 7228 C 680.064 -1.43315 -1.41644 0
M  V30 7229 O 679.12 -1.26614 -2.18461 0
M  V30 7230 C 680.433 -2.9509 0.578132 0
M  V30 7231 C 681.981 -3.08356 0.537149 0
M  V30 7232 C 682.456 -4.4651 1.01945 0
M  V30 7233 N 683.947 -4.52784 0.976758 0
M  V30 7234 C 684.682 -5.57976 1.32099 0
M  V30 7235 N 684.178 -6.70664 1.73727 0
M  V30 7236 N 685.971 -5.48248 1.2402 0
M  V30 7237 H 678.122 -1.60595 1.39007 0
M  V30 7238 H 680.385 -0.756138 0.571803 0
M  V30 7239 H 680.091 -3.12205 1.61929 0
M  V30 7240 H 679.965 -3.772 -0.00578374 0
M  V30 7241 H 682.352 -2.90919 -0.494991 0
M  V30 7242 H 682.433 -2.28125 1.15727 0
M  V30 7243 H 682.077 -4.64692 2.04997 0
M  V30 7244 H 682.007 -5.25256 0.376023 0
M  V30 7245 H 684.498 -3.71898 0.670851 0
M  V30 7246 H 684.811 -7.46932 1.98274 0
M  V30 7247 H 683.156 -6.71914 1.77641 0
M  V30 7248 H 686.347 -4.59095 0.913756 0
M  V30 7249 H 686.52 -6.30119 1.51176 0
M  V30 7250 N 679.926 -0.151884 -1.56866 0
M  V30 7251 C 681.203 0.543328 -1.87902 0
M  V30 7252 C 681.583 1.82636 -1.05864 0
M  V30 7253 O 680.931 2.28028 -0.146868 0
M  V30 7254 C 681.141 0.804056 -3.39611 0
M  V30 7255 C 682.489 1.14267 -4.08935 0
M  V30 7256 O 683.513 0.893248 -3.44818 0
M  V30 7257 O 682.372 1.61229 -5.22176 0
M  V30 7258 H 679.466 0.277724 -0.778973 0
M  V30 7259 H 682.012 -0.188862 -1.68646 0
M  V30 7260 H 680.784 -0.103772 -3.91162 0
M  V30 7261 H 680.407 1.59025 -3.64413 0
M  V30 7262 N 681.404 1.57128 0.121893 0
M  V30 7263 C 682.334 2.03165 1.15092 0
M  V30 7264 C 683.315 0.915587 1.43356 0
M  V30 7265 O 684.5 1.1851 1.53847 0
M  V30 7266 C 681.63 2.43352 2.47784 0
M  V30 7267 C 680.584 3.58376 2.33989 0
M  V30 7268 C 679.91 3.84454 3.71617 0
M  V30 7269 C 681.21 4.90199 1.80283 0
M  V30 7270 H 682.904 2.89382 0.768023 0
M  V30 7271 H 680.45 1.39218 0.367998 0
M  V30 7272 H 682.403 2.74163 3.20019 0
M  V30 7273 H 681.127 1.54103 2.87958 0
M  V30 7274 H 679.786 3.2777 1.64202 0
M  V30 7275 H 679.434 2.92414 4.09271 0
M  V30 7276 H 679.134 4.61877 3.6324 0
M  V30 7277 H 680.658 4.17714 4.45362 0
M  V30 7278 H 682.072 5.19565 2.42333 0
M  V30 7279 H 680.469 5.71601 1.82735 0
M  V30 7280 H 681.539 4.78904 0.760184 0
M  V30 7281 N 682.882 -0.391992 1.52647 0
M  V30 7282 C 683.845 -1.46135 1.7657 0
M  V30 7283 C 684.845 -1.47701 0.635698 0
M  V30 7284 O 686.035 -1.48924 0.903728 0
M  V30 7285 C 683.167 -2.85443 1.86374 0
M  V30 7286 H 684.36 -1.26208 2.72051 0
M  V30 7287 H 681.913 -0.623549 1.43323 0
M  V30 7288 H 682.648 -3.10718 0.928685 0
M  V30 7289 H 682.433 -2.85708 2.68539 0
M  V30 7290 H 683.923 -3.62933 2.06566 0
M  V30 7291 N 684.36 -1.4356 -0.65026 0
M  V30 7292 C 685.323 -1.48615 -1.74489 0
M  V30 7293 C 686.323 -0.370483 -1.56474 0
M  V30 7294 O 687.513 -0.632351 -1.62317 0
M  V30 7295 C 684.645 -1.34161 -3.13391 0
M  V30 7296 H 685.838 -2.46103 -1.71387 0
M  V30 7297 H 683.391 -1.30369 -0.862186 0
M  V30 7298 H 684.126 -0.376918 -3.22102 0
M  V30 7299 H 683.911 -2.1504 -3.27872 0
M  V30 7300 H 685.401 -1.40637 -3.93206 0
M  V30 7301 N 685.838 0.888903 -1.30139 0
M  V30 7302 C 687.254 1.17153 -1.08385 0
M  V30 7303 C 687.454 2.0088 0.157925 0
M  V30 7304 O 686.51 2.37668 0.852652 0
M  V30 7305 C 687.823 1.882 -2.34523 0
M  V30 7306 C 689.371 2.00981 -2.39949 0
M  V30 7307 C 689.846 2.75441 -3.65918 0
M  V30 7308 N 691.337 2.82989 -3.66704 0
M  V30 7309 C 692.072 3.41167 -4.60861 0
M  V30 7310 N 691.568 4.00425 -5.6536 0
M  V30 7311 N 693.361 3.38944 -4.48412 0
M  V30 7312 H 685.512 0.33053 -2.09812 0
M  V30 7313 H 687.775 0.208964 -0.924683 0
M  V30 7314 H 687.481 1.34119 -3.25123 0
M  V30 7315 H 687.355 2.88609 -2.42868 0
M  V30 7316 H 689.742 2.54234 -1.4983 0
M  V30 7317 H 689.823 0.996725 -2.35582 0
M  V30 7318 H 689.467 2.22861 -4.56394 0
M  V30 7319 H 689.397 3.77118 -3.67546 0
M  V30 7320 H 691.888 2.40912 -2.91153 0
M  V30 7321 H 692.201 4.42871 -6.33313 0
M  V30 7322 H 690.546 3.98856 -5.69157 0
M  V30 7323 H 693.737 2.91875 -3.6596 0
M  V30 7324 H 693.91 3.83989 -5.21974 0
M  V30 7325 N 687.317 1.12792 1.10072 0
M  V30 7326 C 688.265 0.794523 2.18609 0
M  V30 7327 C 689.259 -0.220271 1.67962 0
M  V30 7328 O 690.465 -0.0780938 1.79831 0
M  V30 7329 H 686.84 0.239123 0.712969 0
M  V30 7330 H 688.811 1.71823 2.43966 0
M  V30 7331 C 687.56 0.269548 3.46654 0
M  V30 7332 H 686.883 1.04171 3.8599 0
M  V30 7333 H 688.323 0.0746242 4.23934 0
M  V30 7334 C 686.782 -1.00333 3.21613 0
M  V30 7335 O 687.312 -2.08042 3.4363 0
M  V30 7336 N 685.518 -0.931763 2.75257 0
M  V30 7337 H 685.065 -0.0551197 2.57541 0
M  V30 7338 H 685.023 -1.78405 2.58881 0
M  V30 7339 N 688.795 -1.27931 0.920396 0
M  V30 7340 C 690.041 -1.94977 0.557832 0
M  V30 7341 C 690.374 -1.72224 -0.897365 0
M  V30 7342 O 689.649 -1.04705 -1.63912 0
M  V30 7343 C 689.932 -3.49289 0.875741 0
M  V30 7344 C 689.785 -3.81416 2.38416 0
M  V30 7345 C 691.104 -4.38486 0.376517 0
M  V30 7346 H 688.223 -0.708164 0.20414 0
M  V30 7347 H 690.865 -1.5118 1.15085 0
M  V30 7348 H 689.015 -3.86724 0.371062 0
M  V30 7349 H 690.687 -3.53813 2.95997 0
M  V30 7350 H 688.93 -3.28225 2.83639 0
M  V30 7351 H 689.601 -4.89198 2.55713 0
M  V30 7352 H 692.077 -4.08161 0.808945 0
M  V30 7353 H 690.953 -5.45296 0.627976 0
M  V30 7354 H 691.214 -4.36143 -0.723293 0
M  V30 7355 N 690.273 -0.685099 -1.4193 0
M  V30 7356 C 691.203 -0.0273506 -2.33484 0
M  V30 7357 C 692.184 0.778366 -1.51246 0
M  V30 7358 O 693.369 0.733449 -1.79817 0
M  V30 7359 C 690.499 0.917272 -3.34968 0
M  V30 7360 C 689.453 0.21941 -4.27437 0
M  V30 7361 C 688.779 1.27768 -5.1921 0
M  V30 7362 C 690.079 -0.907894 -5.14349 0
M  V30 7363 H 691.773 -0.791994 -2.88735 0
M  V30 7364 H 689.319 -0.382308 -1.38832 0
M  V30 7365 H 691.272 1.38657 -3.97935 0
M  V30 7366 H 689.996 1.71346 -2.78043 0
M  V30 7367 H 688.655 -0.229757 -3.65879 0
M  V30 7368 H 688.303 2.06612 -4.58607 0
M  V30 7369 H 688.003 0.815803 -5.81909 0
M  V30 7370 H 689.527 1.7477 -5.85054 0
M  V30 7371 H 690.941 -0.519348 -5.70943 0
M  V30 7372 H 689.338 -1.2962 -5.85934 0
M  V30 7373 H 690.408 -1.75218 -4.52136 0
M  V30 7374 N 691.751 1.51645 -0.429126 0
M  V30 7375 C 692.681 2.30434 0.377148 0
M  V30 7376 C 693.662 1.35493 1.02838 0
M  V30 7377 O 694.847 1.6441 1.03359 0
M  V30 7378 C 691.977 3.14038 1.48315 0
M  V30 7379 C 690.931 4.1719 0.955855 0
M  V30 7380 C 690.257 4.89263 2.15698 0
M  V30 7381 C 691.557 5.223 -0.00402136 0
M  V30 7382 H 693.251 2.98085 -0.280336 0
M  V30 7383 H 690.797 1.43354 -0.136265 0
M  V30 7384 H 692.75 3.67933 2.05435 0
M  V30 7385 H 691.474 2.44193 2.16881 0
M  V30 7386 H 690.133 3.64335 0.406929 0
M  V30 7387 H 689.781 4.15929 2.82864 0
M  V30 7388 H 689.481 5.59009 1.81059 0
M  V30 7389 H 691.005 5.45978 2.73387 0
M  V30 7390 H 692.419 5.71315 0.476607 0
M  V30 7391 H 690.816 5.99525 -0.26258 0
M  V30 7392 H 691.886 4.75638 -0.943236 0
M  V30 7393 N 693.229 0.160201 1.56784 0
M  V30 7394 C 694.475 -0.48831 1.96833 0
M  V30 7395 C 694.808 -1.63641 1.04571 0
M  V30 7396 O 694.083 -1.94289 0.0906481 0
M  V30 7397 C 694.366 -0.981908 3.46454 0
M  V30 7398 C 694.219 0.165607 4.49495 0
M  V30 7399 C 695.538 -1.85931 3.98896 0
M  V30 7400 H 692.657 -0.176027 0.71567 0
M  V30 7401 H 695.299 0.244093 1.88426 0
M  V30 7402 H 693.449 -1.60602 3.5375 0
M  V30 7403 H 695.121 0.802372 4.54268 0
M  V30 7404 H 693.364 0.822789 4.25926 0
M  V30 7405 H 694.035 -0.221699 5.51555 0
M  V30 7406 H 696.511 -1.33327 3.94161 0
M  V30 7407 H 695.387 -2.17373 5.04024 0
M  V30 7408 H 695.648 -2.80106 3.42042 0
M  V30 7409 N 694.707 -1.5719 -0.113559 0
M  V30 7410 C 695.655 -2.01725 -1.158 0
M  V30 7411 C 696.649 -0.915105 -1.42556 0
M  V30 7412 O 697.855 -1.10031 -1.42454 0
M  V30 7413 H 694.23 -0.64262 -0.390569 0
M  V30 7414 H 696.201 -2.88666 -0.755926 0
M  V30 7415 C 694.95 -2.44203 -2.47507 0
M  V30 7416 H 694.273 -3.28582 -2.27758 0
M  V30 7417 H 695.713 -2.79158 -3.19135 0
M  V30 7418 C 694.172 -1.30785 -3.10478 0
M  V30 7419 O 694.702 -0.626807 -3.9678 0
M  V30 7420 N 692.908 -1.06352 -2.7044 0
M  V30 7421 H 692.455 -1.61913 -2.00355 0
M  V30 7422 H 692.413 -0.306614 -3.12901 0
M  V30 7423 N 696.185 0.383891 -1.52853 0
M  V30 7424 C 697.601 0.724316 -1.42218 0
M  V30 7425 C 697.801 1.93943 -0.546654 0
M  V30 7426 O 696.857 2.5249 -0.0220562 0
M  V30 7427 C 698.17 0.954635 -2.85144 0
M  V30 7428 C 699.718 1.05579 -2.94656 0
M  V30 7429 C 700.193 1.3187 -4.38605 0
M  V30 7430 N 701.684 1.38681 -4.41952 0
M  V30 7431 C 702.419 1.60699 -5.50421 0
M  V30 7432 N 701.915 1.80154 -6.68967 0
M  V30 7433 N 703.708 1.6292 -5.37972 0
M  V30 7434 H 695.859 -0.4156 -2.08294 0
M  V30 7435 H 698.122 -0.123776 -0.939885 0
M  V30 7436 H 697.828 0.133829 -3.51445 0
M  V30 7437 H 697.702 1.86788 -3.27704 0
M  V30 7438 H 700.089 1.86716 -2.2852 0
M  V30 7439 H 700.17 0.120338 -2.55517 0
M  V30 7440 H 699.814 0.512416 -5.05309 0
M  V30 7441 H 699.744 2.26708 -4.75301 0
M  V30 7442 H 702.235 1.25334 -3.56511 0
M  V30 7443 H 702.548 1.96476 -7.47407 0
M  V30 7444 H 700.893 1.77368 -6.71986 0
M  V30 7445 H 704.084 1.47276 -4.44328 0
M  V30 7446 H 704.257 1.79739 -6.22574 0
M  V30 7447 N 697.663 1.43903 0.642637 0
M  V30 7448 C 698.613 1.46321 1.74854 0
M  V30 7449 C 699.597 0.330361 1.57472 0
M  V30 7450 O 700.789 0.574881 1.67404 0
M  V30 7451 C 697.918 1.39919 3.13493 0
M  V30 7452 C 697.004 2.58274 3.36385 0
M  V30 7453 N 697.395 3.83578 3.29699 0
M  V30 7454 C 695.693 2.53224 3.67142 0
M  V30 7455 C 696.394 4.62375 3.52965 0
M  V30 7456 N 695.37 3.93269 3.75287 0
M  V30 7457 H 699.172 2.41062 1.68126 0
M  V30 7458 H 696.686 1.38704 0.844693 0
M  V30 7459 H 698.683 1.39735 3.92785 0
M  V30 7460 H 697.343 0.46207 3.21395 0
M  V30 7461 H 698.354 4.15713 3.08874 0
M  V30 7462 H 695.031 1.68252 3.82096 0
M  V30 7463 H 696.421 5.714 3.53485 0
M  V30 7464 N 699.141 -0.881989 1.30609 0
M  V30 7465 C 700.371 -1.66469 1.22359 0
M  V30 7466 C 700.779 -1.87969 -0.215507 0
M  V30 7467 O 700.122 -1.42938 -1.15388 0
M  V30 7468 C 700.184 -3.06135 1.88472 0
M  V30 7469 C 699.848 -3.07795 3.37804 0
M  V30 7470 C 700.845 -2.86633 4.33749 0
M  V30 7471 C 698.53 -3.29297 3.793 0
M  V30 7472 C 700.524 -2.86934 5.69164 0
M  V30 7473 C 698.211 -3.29228 5.14832 0
M  V30 7474 C 699.209 -3.08071 6.09574 0
M  V30 7475 O 698.897 -3.07824 7.4263 0
M  V30 7476 H 698.629 -0.526129 0.424458 0
M  V30 7477 H 701.183 -1.11004 1.72821 0
M  V30 7478 H 699.413 -3.63276 1.32543 0
M  V30 7479 H 701.102 -3.66571 1.74301 0
M  V30 7480 H 701.868 -2.69814 4.0302 0
M  V30 7481 H 697.747 -3.44799 3.05998 0
M  V30 7482 H 701.291 -2.70339 6.43088 0
M  V30 7483 H 697.188 -3.45583 5.452 0
M  V30 7484 H 697.956 -3.2397 7.51656 0
M  V30 7485 N 700.619 -1.13374 -1.09472 0
M  V30 7486 C 701.582 -0.813639 -2.14272 0
M  V30 7487 C 702.582 0.176677 -1.59826 0
M  V30 7488 O 703.772 -0.0503441 -1.74127 0
M  V30 7489 C 700.904 -0.210897 -3.40247 0
M  V30 7490 H 702.097 -1.74229 -2.44099 0
M  V30 7491 H 699.65 -0.938304 -1.25002 0
M  V30 7492 H 700.385 0.726998 -3.16046 0
M  V30 7493 H 700.17 -0.924048 -3.81056 0
M  V30 7494 H 701.66 -0.00377603 -4.176 0
M  V30 7495 N 702.098 1.27442 -0.927168 0
M  V30 7496 C 703.045 2.26863 -0.424459 0
M  V30 7497 C 704.015 1.5813 0.508346 0
M  V30 7498 O 705.2 1.85946 0.42762 0
M  V30 7499 C 702.34 3.43639 0.31718 0
M  V30 7500 C 701.453 4.27087 -0.649675 0
M  V30 7501 C 700.588 5.31082 0.111753 0
M  V30 7502 C 699.627 6.062 -0.847843 0
M  V30 7503 N 698.764 7.01999 -0.119074 0
M  V30 7504 H 703.604 2.69239 -1.27728 0
M  V30 7505 H 701.141 1.32394 -0.641106 0
M  V30 7506 H 703.099 4.10155 0.763486 0
M  V30 7507 H 701.729 3.02217 1.13424 0
M  V30 7508 H 700.781 3.60491 -1.21451 0
M  V30 7509 H 702.093 4.79242 -1.38307 0
M  V30 7510 H 701.247 6.03544 0.618 0
M  V30 7511 H 699.986 4.7973 0.878114 0
M  V30 7512 H 698.991 5.32577 -1.36534 0
M  V30 7513 H 700.216 6.59642 -1.61398 0
M  V30 7514 H 698.162 6.52977 0.629051 0
M  V30 7515 H 698.079 7.5184 -0.792046 0
M  V30 7516 H 699.347 7.78638 0.366537 0
M  V30 7517 N 703.576 0.692616 1.41565 0
M  V30 7518 C 704.825 0.219452 2.00503 0
M  V30 7519 C 705.138 -1.18683 1.55479 0
M  V30 7520 O 706.344 -1.75731 2.06956 0
M  V30 7521 C 704.8 0.341451 3.58277 0
M  V30 7522 C 704.408 1.75291 4.12283 0
M  V30 7523 C 706.152 -0.0720899 4.24439 0
M  V30 7524 C 704.059 1.82673 5.62481 0
M  V30 7525 H 702.989 0.0782874 0.749925 0
M  V30 7526 H 705.64 0.860386 1.62079 0
M  V30 7527 H 704.022 -0.367683 3.94289 0
M  V30 7528 H 705.196 2.49057 3.87695 0
M  V30 7529 H 703.511 2.11587 3.58636 0
M  V30 7530 H 706.108 -0.0373385 5.34687 0
M  V30 7531 H 706.451 -1.11034 4.0122 0
M  V30 7532 H 706.984 0.586663 3.9345 0
M  V30 7533 H 703.723 2.84539 5.90523 0
M  V30 7534 H 703.243 1.13288 5.89004 0
M  V30 7535 H 704.922 1.58827 6.27203 0
M  V30 7536 N 705.054 -1.51416 0.437162 0
M  V30 7537 C 706.279 -2.0699 -0.130424 0
M  V30 7538 C 706.704 -1.30249 -1.35709 0
M  V30 7539 O 706.062 -0.340388 -1.78076 0
M  V30 7540 C 706.11 -3.5801 -0.43142 0
M  V30 7541 O 705.214 -3.8345 -1.5179 0
M  V30 7542 H 704.555 -0.663997 -0.00194339 0
M  V30 7543 H 707.085 -1.95029 0.618445 0
M  V30 7544 H 707.095 -4.02261 -0.681926 0
M  V30 7545 H 705.77 -4.13291 0.465137 0
M  V30 7546 H 704.347 -3.51062 -1.25737 0
M  V30 7547 N 706.532 -0.168513 -1.56696 0
M  V30 7548 C 707.809 0.523367 -1.88468 0
M  V30 7549 C 708.189 1.81503 -1.07796 0
M  V30 7550 O 707.537 2.27859 -0.171045 0
M  V30 7551 C 707.747 0.767991 -3.40445 0
M  V30 7552 C 709.095 1.09924 -4.10124 0
M  V30 7553 O 710.119 0.856625 -3.45746 0
M  V30 7554 O 708.978 1.55681 -5.23856 0
M  V30 7555 H 706.072 0.269447 -0.781874 0
M  V30 7556 H 708.618 -0.206739 -1.68436 0
M  V30 7557 H 707.39 -0.145254 -3.9103 0
M  V30 7558 H 707.013 1.55151 -3.66079 0
M  V30 7559 N 708.01 1.57248 0.105221 0
M  V30 7560 C 709.257 1.8557 0.810552 0
M  V30 7561 C 709.585 0.755595 1.79223 0
M  V30 7562 O 708.84 -0.251788 1.94073 0
M  V30 7563 C 709.139 3.20437 1.58287 0
M  V30 7564 C 708.805 4.44716 0.744235 0
M  V30 7565 C 707.467 4.78458 0.513013 0
M  V30 7566 C 709.819 5.20953 0.160578 0
M  V30 7567 C 707.147 5.8587 -0.311894 0
M  V30 7568 C 709.499 6.29235 -0.651596 0
M  V30 7569 C 708.163 6.615 -0.893005 0
M  V30 7570 H 707.433 0.67905 0.296602 0
M  V30 7571 H 710.08 1.91363 0.0723968 0
M  V30 7572 H 708.385 3.10283 2.39232 0
M  V30 7573 H 710.082 3.39576 2.13282 0
M  V30 7574 H 706.672 4.18287 0.934555 0
M  V30 7575 H 710.856 4.95226 0.3264 0
M  V30 7576 H 706.112 6.09286 -0.508012 0
M  V30 7577 H 710.286 6.87484 -1.11077 0
M  V30 7578 H 707.913 7.44562 -1.53401 0
M  V30 7579 N 709.488 -0.375779 1.53054 0
M  V30 7580 C 710.736 -1.11727 1.68409 0
M  V30 7581 C 711.057 -1.90127 0.43323 0
M  V30 7582 O 710.327 -1.87945 -0.552595 0
M  V30 7583 H 708.907 -0.415451 0.620813 0
M  V30 7584 H 711.569 -0.424869 1.90213 0
M  V30 7585 H 710.665 -1.8128 2.54055 0
M  V30 7586 N 710.966 -1.44241 -0.634997 0
M  V30 7587 C 711.896 -1.53632 -1.7584 0
M  V30 7588 C 712.877 -0.389603 -1.65578 0
M  V30 7589 O 714.062 -0.609219 -1.84397 0
M  V30 7590 C 711.192 -1.47644 -3.14354 0
M  V30 7591 C 710.146 -2.60752 -3.394 0
M  V30 7592 C 709.472 -2.39817 -4.77904 0
M  V30 7593 C 710.772 -4.02921 -3.32343 0
M  V30 7594 H 712.466 -2.47662 -1.68238 0
M  V30 7595 H 710.012 -1.19197 -0.807969 0
M  V30 7596 H 711.965 -1.52815 -3.92716 0
M  V30 7597 H 710.689 -0.501284 -3.2273 0
M  V30 7598 H 709.348 -2.54965 -2.63417 0
M  V30 7599 H 708.996 -1.40502 -4.82978 0
M  V30 7600 H 708.696 -3.15649 -4.9562 0
M  V30 7601 H 710.22 -2.46799 -5.585 0
M  V30 7602 H 711.634 -4.10098 -4.00615 0
M  V30 7603 H 710.031 -4.78925 -3.61595 0
M  V30 7604 H 711.101 -4.26766 -2.30215 0
M  V30 7605 N 712.444 0.87505 -1.31075 0
M  V30 7606 C 713.669 1.66583 -1.23551 0
M  V30 7607 C 714.094 1.87067 0.19686 0
M  V30 7608 O 713.452 1.40877 1.1412 0
M  V30 7609 C 713.5 3.01401 -1.97965 0
M  V30 7610 O 712.604 3.90923 -1.31351 0
M  V30 7611 H 711.945 0.508645 -0.426821 0
M  V30 7612 H 714.475 1.09139 -1.7306 0
M  V30 7613 H 714.485 3.51374 -2.07366 0
M  V30 7614 H 713.16 2.85812 -3.02133 0
M  V30 7615 H 711.737 3.49369 -1.30368 0
M  V30 7616 N 713.922 1.13953 1.08869 0
M  V30 7617 C 714.869 0.82213 2.15661 0
M  V30 7618 C 715.839 -0.218274 1.6466 0
M  V30 7619 O 717.024 -0.0892475 1.90591 0
M  V30 7620 C 714.164 0.300572 3.43789 0
M  V30 7621 C 713.277 1.40071 4.08661 0
M  V30 7622 C 712.412 0.836897 5.24566 0
M  V30 7623 C 711.451 1.91504 5.81371 0
M  V30 7624 N 710.588 1.36875 6.88629 0
M  V30 7625 H 715.428 1.73683 2.42153 0
M  V30 7626 H 712.965 0.866879 1.18843 0
M  V30 7627 H 714.923 -0.0199943 4.17195 0
M  V30 7628 H 713.553 -0.577248 3.17597 0
M  V30 7629 H 712.605 1.83776 3.33062 0
M  V30 7630 H 713.917 2.21534 4.46905 0
M  V30 7631 H 713.071 0.467953 6.04893 0
M  V30 7632 H 711.81 -0.00874207 4.87699 0
M  V30 7633 H 710.815 2.29299 4.99702 0
M  V30 7634 H 712.04 2.76419 6.20298 0
M  V30 7635 H 709.986 0.545211 6.5373 0
M  V30 7636 H 709.903 2.1198 7.25672 0
M  V30 7637 H 711.171 1.02756 7.72698 0
M  V30 7638 N 715.4 -1.26948 0.933913 0
M  V30 7639 C 716.363 -2.24889 0.442457 0
M  V30 7640 C 717.363 -1.54594 -0.442426 0
M  V30 7641 O 718.553 -1.72502 -0.242629 0
M  V30 7642 C 715.685 -3.3896 -0.363173 0
M  V30 7643 H 716.878 -2.69879 1.30787 0
M  V30 7644 H 714.431 -1.38978 0.715187 0
M  V30 7645 H 715.166 -2.99361 -1.24714 0
M  V30 7646 H 714.951 -3.9116 0.271366 0
M  V30 7647 H 716.441 -4.11739 -0.697186 0
M  V30 7648 N 716.879 -0.700114 -1.41195 0
M  V30 7649 C 717.809 -0.0521132 -2.33442 0
M  V30 7650 C 718.79 0.76228 -1.52063 0
M  V30 7651 O 719.975 0.714336 -1.80585 0
M  V30 7652 C 717.105 0.881693 -3.35922 0
M  V30 7653 C 716.059 0.174062 -4.27646 0
M  V30 7654 C 715.385 1.22254 -5.20536 0
M  V30 7655 C 716.685 -0.962396 -5.13357 0
M  V30 7656 H 718.379 -0.822574 -2.87879 0
M  V30 7657 H 715.925 -0.397011 -1.38419 0
M  V30 7658 H 717.878 1.34429 -3.99383 0
M  V30 7659 H 716.602 1.68387 -2.79845 0
M  V30 7660 H 715.261 -0.268551 -3.65615 0
M  V30 7661 H 714.909 2.01736 -4.60773 0
M  V30 7662 H 714.609 0.754038 -5.82742 0
M  V30 7663 H 716.133 1.68555 -5.86874 0
M  V30 7664 H 717.547 -0.579875 -5.7036 0
M  V30 7665 H 715.944 -1.35828 -5.84526 0
M  V30 7666 H 717.014 -1.80003 -4.50252 0
M  V30 7667 N 718.357 1.51182 -0.445186 0
M  V30 7668 C 719.605 2.01753 0.11841 0
M  V30 7669 C 719.926 1.33087 1.42523 0
M  V30 7670 O 719.196 0.467891 1.9023 0
M  V30 7671 H 717.776 0.745536 0.0467492 0
M  V30 7672 H 720.438 1.85765 -0.589688 0
M  V30 7673 H 719.534 3.10762 0.288665 0
M  V30 7674 N 719.835 0.176821 1.56605 0
M  V30 7675 C 720.798 -0.737429 2.17013 0
M  V30 7676 C 721.798 -1.15414 1.11965 0
M  V30 7677 O 722.988 -1.0702 1.37449 0
M  V30 7678 C 720.12 -2.00445 2.75744 0
M  V30 7679 H 721.313 -0.211455 2.99154 0
M  V30 7680 H 718.866 -0.0727582 1.56131 0
M  V30 7681 H 719.601 -2.57338 1.97352 0
M  V30 7682 H 719.386 -1.71456 3.52626 0
M  V30 7683 H 720.876 -2.65679 3.22187 0
M  V30 7684 N 721.313 -1.57302 -0.09688 0
M  V30 7685 C 722.59 -1.7701 -0.832272 0
M  V30 7686 C 722.97 -0.758025 -1.97021 0
M  V30 7687 O 722.318 0.213824 -2.27497 0
M  V30 7688 C 722.528 -3.22725 -1.32851 0
M  V30 7689 C 723.876 -3.85856 -1.772 0
M  V30 7690 O 724.9 -3.26464 -1.42478 0
M  V30 7691 O 723.759 -4.90295 -2.41398 0
M  V30 7692 H 720.853 -0.725558 -0.396856 0
M  V30 7693 H 723.399 -1.69516 -0.0789005 0
M  V30 7694 H 722.171 -3.87921 -0.51312 0
M  V30 7695 H 721.794 -3.34845 -2.14394 0
M  V30 7696 N 722.791 0.367657 -1.53252 0
M  V30 7697 C 724.068 1.12606 -1.59935 0
M  V30 7698 C 724.448 2.07167 -0.405606 0
M  V30 7699 O 723.796 2.20364 0.604323 0
M  V30 7700 C 724.006 1.86699 -2.94863 0
M  V30 7701 C 725.354 2.41306 -3.49366 0
M  V30 7702 O 726.378 1.96828 -2.96879 0
M  V30 7703 O 725.237 3.2261 -4.41118 0
M  V30 7704 H 722.331 0.516438 -0.645926 0
M  V30 7705 H 724.877 0.371088 -1.65593 0
M  V30 7706 H 723.649 1.17674 -3.73187 0
M  V30 7707 H 723.272 2.6911 -2.92687 0
M  V30 7708 N 724.269 1.44576 0.627338 0
M  V30 7709 C 725.494 1.51271 1.41887 0
M  V30 7710 C 725.919 0.139814 1.8758 0
M  V30 7711 O 725.277 -0.871746 1.58966 0
M  V30 7712 C 725.325 2.48529 2.61277 0
M  V30 7713 O 724.429 1.98944 3.61241 0
M  V30 7714 H 723.77 0.510668 0.424399 0
M  V30 7715 H 726.3 1.89746 0.765356 0
M  V30 7716 H 726.31 2.66689 3.08773 0
M  V30 7717 H 724.985 3.48249 2.27366 0
M  V30 7718 H 723.562 1.90568 3.20528 0
M  V30 7719 N 725.747 -0.868086 1.31537 0
M  V30 7720 C 726.977 -1.65162 1.24118 0
M  V30 7721 C 727.385 -1.88187 -0.195558 0
M  V30 7722 O 726.728 -1.44154 -1.13866 0
M  V30 7723 C 726.79 -3.04119 1.91708 0
M  V30 7724 C 726.454 -3.04194 3.4105 0
M  V30 7725 C 727.451 -2.82016 4.36764 0
M  V30 7726 C 725.136 -3.25256 3.82772 0
M  V30 7727 C 727.13 -2.80881 5.72175 0
M  V30 7728 C 724.817 -3.23749 5.18295 0
M  V30 7729 C 725.815 -3.01589 6.12808 0
M  V30 7730 O 725.503 -2.9993 7.45853 0
M  V30 7731 H 725.235 -0.521597 0.430015 0
M  V30 7732 H 727.789 -1.09165 1.73989 0
M  V30 7733 H 726.019 -3.61849 1.36389 0
M  V30 7734 H 727.708 -3.64701 1.78179 0
M  V30 7735 H 728.474 -2.65525 4.05859 0
M  V30 7736 H 724.353 -3.41534 3.09638 0
M  V30 7737 H 727.897 -2.63503 6.45919 0
M  V30 7738 H 723.794 -3.39781 5.48834 0
M  V30 7739 H 724.562 -3.15979 7.55049 0
M  V30 7740 N 727.225 -1.14528 -1.08264 0
M  V30 7741 C 728.455 -0.936604 -1.8415 0
M  V30 7742 C 728.863 0.518298 -1.81962 0
M  V30 7743 O 728.206 1.37096 -1.22272 0
M  V30 7744 C 728.268 -1.36182 -3.32708 0
M  V30 7745 C 727.932 -2.83257 -3.58629 0
M  V30 7746 C 728.929 -3.81366 -3.5335 0
M  V30 7747 C 726.614 -3.20704 -3.86593 0
M  V30 7748 C 728.608 -5.14929 -3.75668 0
M  V30 7749 C 726.295 -4.54443 -4.08564 0
M  V30 7750 C 727.293 -5.51365 -4.03095 0
M  V30 7751 O 726.981 -6.8269 -4.24488 0
M  V30 7752 H 726.713 -0.333254 -0.588148 0
M  V30 7753 H 729.267 -1.5247 -1.3763 0
M  V30 7754 H 727.497 -0.717063 -3.79994 0
M  V30 7755 H 729.186 -1.12372 -3.90035 0
M  V30 7756 H 729.952 -3.53781 -3.31759 0
M  V30 7757 H 725.831 -2.45857 -3.89969 0
M  V30 7758 H 729.375 -5.90568 -3.71315 0
M  V30 7759 H 725.272 -4.81747 -4.29639 0
M  V30 7760 H 726.04 -6.8897 -4.41886 0
M  V30 7761 N 728.703 1.26451 -0.940633 0
M  V30 7762 C 729.931 1.97868 -0.604642 0
M  V30 7763 C 730.346 1.70051 0.820251 0
M  V30 7764 O 729.703 0.96843 1.54686 0
M  V30 7765 C 729.754 3.51684 -0.836689 0
M  V30 7766 O 729.475 3.78533 -2.20554 0
M  V30 7767 C 730.976 4.40343 -0.511169 0
M  V30 7768 H 728.196 0.631105 -0.227919 0
M  V30 7769 H 730.74 1.60979 -1.26119 0
M  V30 7770 H 728.895 3.86736 -0.226759 0
M  V30 7771 H 729.309 4.73065 -2.26517 0
M  V30 7772 H 730.783 5.47229 -0.724157 0
M  V30 7773 H 731.26 4.35694 0.553815 0
M  V30 7774 H 731.866 4.10834 -1.0998 0
M  V30 7775 N 730.181 0.707592 1.40822 0
M  V30 7776 C 731.144 0.0587224 2.29125 0
M  V30 7777 C 732.144 -0.695624 1.44975 0
M  V30 7778 O 733.334 -0.528718 1.65983 0
M  V30 7779 C 730.466 -0.926939 3.28056 0
M  V30 7780 H 731.659 0.836349 2.88002 0
M  V30 7781 H 729.212 0.471778 1.4901 0
M  V30 7782 H 729.947 -1.7319 2.74182 0
M  V30 7783 H 729.732 -0.389015 3.90165 0
M  V30 7784 H 731.222 -1.37837 3.94196 0
M  V30 7785 N 731.66 -1.50943 0.453197 0
M  V30 7786 C 733.076 -1.59245 0.106342 0
M  V30 7787 C 733.276 -1.46287 -1.38572 0
M  V30 7788 O 732.332 -1.31219 -2.15726 0
M  V30 7789 C 733.645 -2.93797 0.640595 0
M  V30 7790 C 735.193 -3.07148 0.602435 0
M  V30 7791 C 735.668 -4.44247 1.11393 0
M  V30 7792 N 737.159 -4.50611 1.07258 0
M  V30 7793 C 737.894 -5.55049 1.43905 0
M  V30 7794 N 737.39 -6.66828 1.87914 0
M  V30 7795 N 739.183 -5.45494 1.35621 0
M  V30 7796 H 731.334 -1.5761 1.42382 0
M  V30 7797 H 733.597 -0.74384 0.587713 0
M  V30 7798 H 733.303 -3.087 1.68515 0
M  V30 7799 H 733.177 -3.77127 0.0742272 0
M  V30 7800 H 735.564 -2.91903 -0.433171 0
M  V30 7801 H 735.645 -2.25619 1.20539 0
M  V30 7802 H 735.289 -4.60239 2.14808 0
M  V30 7803 H 735.219 -5.2434 0.487353 0
M  V30 7804 H 737.71 -3.70391 0.749585 0
M  V30 7805 H 738.023 -7.42558 2.14072 0
M  V30 7806 H 736.368 -6.67995 1.91853 0
M  V30 7807 H 739.559 -4.57053 1.01093 0
M  V30 7808 H 739.732 -6.2677 1.64508 0
M  V30 7809 N 733.138 -0.185124 -1.56509 0
M  V30 7810 C 734.363 0.465278 -2.02114 0
M  V30 7811 C 734.788 1.55083 -1.06447 0
M  V30 7812 O 734.146 1.81241 -0.0462852 0
M  V30 7813 C 734.194 1.00784 -3.46229 0
M  V30 7814 O 733.298 2.12123 -3.53663 0
M  V30 7815 H 732.639 0.109891 -0.654843 0
M  V30 7816 H 735.169 -0.293072 -2.0249 0
M  V30 7817 H 735.179 1.32697 -3.85818 0
M  V30 7818 H 733.854 0.213113 -4.15354 0
M  V30 7819 H 732.431 1.8115 -3.25943 0
M  V30 7820 N 734.616 1.57351 0.0885366 0
M  V30 7821 C 735.579 2.01557 1.09121 0
M  V30 7822 C 736.579 0.910052 1.3257 0
M  V30 7823 O 737.769 1.17537 1.28572 0
M  V30 7824 C 734.901 2.38189 2.43883 0
M  V30 7825 H 736.094 2.91361 0.710562 0
M  V30 7826 H 733.647 1.52694 0.333779 0
M  V30 7827 H 734.382 1.5136 2.86811 0
M  V30 7828 H 734.167 3.18846 2.28209 0
M  V30 7829 H 735.657 2.73025 3.15986 0
M  V30 7830 N 736.094 -0.359525 1.53444 0
M  V30 7831 C 737.342 -1.09935 1.69584 0
M  V30 7832 C 737.663 -1.89656 0.453371 0
M  V30 7833 O 736.933 -1.8852 -0.53263 0
M  V30 7834 H 735.513 -0.408843 0.625185 0
M  V30 7835 H 738.175 -0.40467 1.90653 0
M  V30 7836 H 737.271 -1.78575 2.55964 0
M  V30 7837 N 737.572 -1.44907 -0.619662 0
M  V30 7838 C 738.519 -1.52654 -1.73105 0
M  V30 7839 C 739.489 -0.373334 -1.6185 0
M  V30 7840 O 740.674 -0.585143 -1.81606 0
M  V30 7841 C 737.814 -1.48769 -3.11387 0
M  V30 7842 C 736.927 -2.74551 -3.33535 0
M  V30 7843 C 736.062 -2.62421 -4.61854 0
M  V30 7844 C 735.101 -3.83312 -4.77219 0
M  V30 7845 N 734.238 -3.69789 -5.96826 0
M  V30 7846 H 739.078 -2.47605 -1.65819 0
M  V30 7847 H 736.615 -1.22875 -0.808719 0
M  V30 7848 H 738.573 -1.44507 -3.91374 0
M  V30 7849 H 737.203 -0.573783 -3.1766 0
M  V30 7850 H 736.255 -2.88953 -2.47408 0
M  V30 7851 H 737.567 -3.64253 -3.40765 0
M  V30 7852 H 736.721 -2.56056 -5.50019 0
M  V30 7853 H 735.46 -1.70298 -4.57001 0
M  V30 7854 H 734.465 -3.90049 -3.87481 0
M  V30 7855 H 735.69 -4.76486 -4.83878 0
M  V30 7856 H 733.636 -2.80426 -5.93041 0
M  V30 7857 H 733.553 -4.53116 -6.05163 0
M  V30 7858 H 734.821 -3.67335 -6.87521 0
M  V30 7859 N 739.05 0.861098 -1.31996 0
M  V30 7860 C 740.296 1.61707 -1.23379 0
M  V30 7861 C 740.651 1.91315 0.204026 0
M  V30 7862 O 739.944 1.53997 1.13998 0
M  V30 7863 C 740.138 2.94822 -2.02027 0
M  V30 7864 C 739.967 2.78212 -3.5331 0
M  V30 7865 C 738.737 2.76933 -4.22654 0
M  V30 7866 C 740.935 2.52432 -4.48088 0
M  V30 7867 N 738.917 2.51466 -5.60034 0
M  V30 7868 C 740.288 2.36312 -5.73198 0
M  V30 7869 C 742.343 2.37848 -4.37416 0
M  V30 7870 C 741.046 2.0709 -6.88844 0
M  V30 7871 C 743.072 2.10016 -5.52854 0
M  V30 7872 C 742.434 1.94691 -6.7696 0
M  V30 7873 H 738.533 0.595703 -0.506618 0
M  V30 7874 H 741.117 1.01275 -1.66287 0
M  V30 7875 H 739.288 3.53243 -1.61474 0
M  V30 7876 H 741.02 3.59756 -1.85358 0
M  V30 7877 H 737.775 2.89638 -3.74709 0
M  V30 7878 H 738.199 2.41679 -6.32392 0
M  V30 7879 H 742.841 2.4842 -3.42122 0
M  V30 7880 H 740.559 1.95256 -7.84156 0
M  V30 7881 H 744.145 1.99519 -5.46519 0
M  V30 7882 H 743.025 1.7346 -7.64775 0
M  V30 7883 N 740.528 1.15101 1.07655 0
M  V30 7884 C 741.939 0.933848 1.61667 0
M  V30 7885 C 742.29 -0.525569 1.8903 0
M  V30 7886 O 741.415 -1.39605 1.65346 0
M  V30 7887 C 742.01 1.68876 2.93711 0
M  V30 7888 C 740.569 1.51697 3.44478 0
M  V30 7889 C 739.716 1.70633 2.18586 0
M  V30 7890 H 742.667 1.30171 0.907816 0
M  V30 7891 H 742.688 1.15645 3.625 0
M  V30 7892 H 742.2 2.7509 2.73764 0
M  V30 7893 H 740.301 0.478635 3.69513 0
M  V30 7894 H 740.414 2.29194 4.20722 0
M  V30 7895 H 738.778 1.13259 2.28132 0
M  V30 7896 H 739.561 2.78206 2.01137 0
M  V30 7897 N 742.006 -1.2595 0.947325 0
M  V30 7898 C 742.936 -2.28521 0.479604 0
M  V30 7899 C 743.917 -1.63469 -0.470293 0
M  V30 7900 O 745.102 -1.90627 -0.370824 0
M  V30 7901 C 742.232 -3.46397 -0.250289 0
M  V30 7902 C 741.186 -4.23578 0.613643 0
M  V30 7903 C 740.512 -5.34131 -0.246568 0
M  V30 7904 C 741.812 -4.86979 1.88809 0
M  V30 7905 H 743.506 -2.67895 1.33688 0
M  V30 7906 H 741.052 -1.28783 0.644274 0
M  V30 7907 H 743.005 -4.17269 -0.588576 0
M  V30 7908 H 741.729 -3.05993 -1.14175 0
M  V30 7909 H 740.388 -3.54478 0.93491 0
M  V30 7910 H 740.036 -4.89968 -1.13756 0
M  V30 7911 H 739.736 -5.86683 0.328123 0
M  V30 7912 H 741.26 -6.07839 -0.579986 0
M  V30 7913 H 742.674 -5.50034 1.61666 0
M  V30 7914 H 741.071 -5.49675 2.40784 0
M  V30 7915 H 742.141 -4.09575 2.5957 0
M  V30 7916 N 743.484 -0.715051 -1.40445 0
M  V30 7917 C 744.431 -0.0621393 -2.30716 0
M  V30 7918 C 745.401 0.750871 -1.48159 0
M  V30 7919 O 746.586 0.714928 -1.76899 0
M  V30 7920 C 743.726 0.854036 -3.34365 0
M  V30 7921 C 742.839 0.0305565 -4.31989 0
M  V30 7922 C 741.974 0.946162 -5.22706 0
M  V30 7923 C 741.013 0.116741 -6.11989 0
M  V30 7924 N 740.15 0.987194 -6.95125 0
M  V30 7925 H 744.99 -0.83764 -2.85985 0
M  V30 7926 H 742.527 -0.424759 -1.40834 0
M  V30 7927 H 744.485 1.39946 -3.93028 0
M  V30 7928 H 743.115 1.59572 -2.806 0
M  V30 7929 H 742.167 -0.632044 -3.75112 0
M  V30 7930 H 743.479 -0.611615 -4.95036 0
M  V30 7931 H 742.633 1.56014 -5.86297 0
M  V30 7932 H 741.372 1.62216 -4.59932 0
M  V30 7933 H 740.377 -0.510176 -5.47428 0
M  V30 7934 H 741.602 -0.555742 -6.76822 0
M  V30 7935 H 739.548 1.64885 -6.3494 0
M  V30 7936 H 739.465 0.401046 -7.54936 0
M  V30 7937 H 740.733 1.58737 -7.63166 0
M  V30 7938 N 744.962 1.50701 -0.461195 0
M  V30 7939 C 746.208 2.03203 0.0895017 0
M  V30 7940 C 746.563 1.33768 1.38289 0
M  V30 7941 O 745.856 0.451304 1.86209 0
M  V30 7942 C 746.05 3.55788 0.33908 0
M  V30 7943 C 745.879 4.40009 -0.928571 0
M  V30 7944 C 744.649 4.83475 -1.46903 0
M  V30 7945 C 746.847 4.80972 -1.82129 0
M  V30 7946 N 744.829 5.51985 -2.68673 0
M  V30 7947 C 746.2 5.48792 -2.88491 0
M  V30 7948 C 748.255 4.62937 -1.83285 0
M  V30 7949 C 746.958 6.00489 -3.95987 0
M  V30 7950 C 748.984 5.15568 -2.89731 0
M  V30 7951 C 748.346 5.83355 -3.94812 0
M  V30 7952 H 744.445 0.781968 -0.00702462 0
M  V30 7953 H 747.029 1.84321 -0.627195 0
M  V30 7954 H 745.2 3.74636 1.02481 0
M  V30 7955 H 746.932 3.94944 0.883242 0
M  V30 7956 H 743.687 4.62495 -1.01959 0
M  V30 7957 H 744.111 5.90854 -3.30486 0
M  V30 7958 H 748.753 4.0997 -1.03366 0
M  V30 7959 H 746.471 6.52499 -4.7673 0
M  V30 7960 H 750.057 5.0345 -2.91597 0
M  V30 7961 H 748.937 6.23347 -4.75824 0
M  V30 7962 N 746.441 0.193421 1.56409 0
M  V30 7963 C 747.671 -0.450783 2.01622 0
M  V30 7964 C 748.079 -1.5585 1.07273 0
M  V30 7965 O 747.422 -1.83569 0.0694875 0
M  V30 7966 C 747.484 -1.06913 3.43235 0
M  V30 7967 C 747.148 -0.100352 4.5689 0
M  V30 7968 C 748.145 0.689633 5.15306 0
M  V30 7969 C 745.83 0.0102436 5.02299 0
M  V30 7970 C 747.824 1.5772 6.17579 0
M  V30 7971 C 745.511 0.901368 6.04416 0
M  V30 7972 C 746.509 1.68341 6.61929 0
M  V30 7973 O 746.197 2.5596 7.62063 0
M  V30 7974 H 745.929 -0.117671 0.66568 0
M  V30 7975 H 748.483 0.2989 2.03214 0
M  V30 7976 H 746.713 -1.86736 3.38624 0
M  V30 7977 H 748.402 -1.61781 3.72266 0
M  V30 7978 H 749.168 0.614485 4.81092 0
M  V30 7979 H 745.047 -0.58829 4.57231 0
M  V30 7980 H 748.591 2.18805 6.62397 0
M  V30 7981 H 744.488 0.977637 6.38054 0
M  V30 7982 H 745.256 2.49721 7.79475 0
M  V30 7983 N 747.919 -1.57396 -0.0801906 0
M  V30 7984 C 748.882 -2.02133 -1.0805 0
M  V30 7985 C 749.882 -0.91707 -1.32085 0
M  V30 7986 O 751.072 -1.18217 -1.27947 0
M  V30 7987 C 748.204 -2.39479 -2.42616 0
M  V30 7988 H 749.397 -2.91733 -0.6951 0
M  V30 7989 H 746.95 -1.52869 -0.325677 0
M  V30 7990 H 747.685 -1.52879 -2.86004 0
M  V30 7991 H 747.47 -3.20052 -2.26515 0
M  V30 7992 H 748.96 -2.74697 -3.14534 0
M  V30 7993 N 749.397 0.351382 -1.53633 0
M  V30 7994 C 750.808 0.927429 -1.62036 0
M  V30 7995 C 751.159 1.89809 -0.496706 0
M  V30 7996 O 750.284 2.1313 0.374749 0
M  V30 7997 C 750.879 1.68886 -2.93706 0
M  V30 7998 C 749.438 2.21404 -3.04397 0
M  V30 7999 C 748.585 1.03075 -2.57431 0
M  V30 8000 H 751.536 0.129748 -1.58169 0
M  V30 8001 H 751.557 2.55116 -2.82305 0
M  V30 8002 H 751.069 0.982149 -3.75467 0
M  V30 8003 H 749.17 2.95274 -2.27253 0
M  V30 8004 H 749.283 2.48312 -4.09729 0
M  V30 8005 H 747.647 1.40188 -2.12649 0
M  V30 8006 H 748.43 0.338793 -3.41624 0
M  V30 8007 N 750.875 1.45233 0.611969 0
M  V30 8008 C 751.785 1.56098 1.7513 0
M  V30 8009 C 752.801 0.445646 1.68196 0
M  V30 8010 O 753.977 0.705718 1.88631 0
M  V30 8011 C 751.042 1.52052 3.11579 0
M  V30 8012 C 750.103 2.74589 3.29999 0
M  V30 8013 C 749.336 2.70726 4.59938 0
M  V30 8014 O 749.559 1.77806 5.41979 0
M  V30 8015 O 748.493 3.61864 4.80976 0
M  V30 8016 H 752.319 2.52392 1.68914 0
M  V30 8017 H 749.904 1.27695 0.775528 0
M  V30 8018 H 751.786 1.52387 3.92882 0
M  V30 8019 H 750.461 0.589085 3.18295 0
M  V30 8020 H 749.368 2.79817 2.48301 0
M  V30 8021 H 750.701 3.66843 3.28157 0
M  V30 8022 N 752.353 -0.854086 1.3245 0
M  V30 8023 C 753.593 -1.62216 1.2436 0
M  V30 8024 C 753.957 -1.91042 -0.191564 0
M  V30 8025 O 755.158 -2.65864 -0.396211 0
M  V30 8026 C 753.429 -2.9066 2.0797 0
M  V30 8027 S 754.988 -3.81438 2.16911 0
M  V30 8028 H 751.806 -0.556386 0.442669 0
M  V30 8029 H 754.408 -1.01139 1.67305 0
M  V30 8030 H 753.112 -2.6743 3.11302 0
M  V30 8031 H 752.643 -3.56753 1.65805 0
M  V30 8032 H 754.658 -4.78347 1.31903 0
M  V30 8033 N 753.831 -1.1567 -1.07043 0
M  V30 8034 C 755.08 -0.928039 -1.79082 0
M  V30 8035 C 755.393 0.545968 -1.87826 0
M  V30 8036 O 756.599 0.892308 -2.56418 0
M  V30 8037 C 755.055 -1.61103 -3.21829 0
M  V30 8038 C 754.663 -3.12228 -3.21275 0
M  V30 8039 C 756.407 -1.46404 -3.98455 0
M  V30 8040 C 754.314 -3.733 -4.58695 0
M  V30 8041 H 753.244 -0.34357 -0.671175 0
M  V30 8042 H 755.895 -1.38718 -1.20123 0
M  V30 8043 H 754.277 -1.07958 -3.81 0
M  V30 8044 H 755.451 -3.72155 -2.71731 0
M  V30 8045 H 753.766 -3.26725 -2.58147 0
M  V30 8046 H 756.363 -1.8942 -5.00024 0
M  V30 8047 H 756.706 -0.41195 -4.14257 0
M  V30 8048 H 757.239 -1.96663 -3.45787 0
M  V30 8049 H 753.978 -4.78423 -4.48098 0
M  V30 8050 H 753.498 -3.18157 -5.08465 0
M  V30 8051 H 755.177 -3.7441 -5.27661 0
M  V30 8052 N 755.309 1.25446 -0.953992 0
M  V30 8053 C 756.257 2.27909 -0.46478 0
M  V30 8054 C 757.251 1.62904 0.464607 0
M  V30 8055 O 758.457 1.76733 0.341407 0
M  V30 8056 H 754.832 0.74036 -0.131798 0
M  V30 8057 H 756.803 2.66559 -1.34122 0
M  V30 8058 C 755.552 3.46853 0.242589 0
M  V30 8059 H 754.875 3.97105 -0.463418 0
M  V30 8060 H 756.315 4.20432 0.548919 0
M  V30 8061 C 754.774 3.03386 1.46487 0
M  V30 8062 O 755.304 3.09342 2.56262 0
M  V30 8063 N 753.51 2.58584 1.32599 0
M  V30 8064 H 753.057 2.53938 0.432834 0
M  V30 8065 H 753.015 2.29866 2.14497 0
M  V30 8066 N 756.787 0.722489 1.40064 0
M  V30 8067 C 758.034 0.264979 2.00759 0
M  V30 8068 C 758.362 -1.14395 1.57302 0
M  V30 8069 O 757.617 -1.79165 0.787298 0
M  V30 8070 C 757.916 0.300682 3.56133 0
M  V30 8071 C 757.582 1.66087 4.19197 0
M  V30 8072 C 756.244 2.03319 4.36136 0
M  V30 8073 C 758.596 2.55452 4.54306 0
M  V30 8074 C 755.924 3.29448 4.8547 0
M  V30 8075 C 758.276 3.8094 5.05042 0
M  V30 8076 C 756.94 4.1828 5.2019 0
M  V30 8077 H 756.21 0.0969625 0.734629 0
M  V30 8078 H 758.857 0.926877 1.67575 0
M  V30 8079 H 757.162 -0.44479 3.89267 0
M  V30 8080 H 758.859 -0.0712542 4.00937 0
M  V30 8081 H 755.449 1.36137 4.06405 0
M  V30 8082 H 759.633 2.27961 4.40849 0
M  V30 8083 H 754.889 3.58338 4.95382 0
M  V30 8084 H 759.063 4.50351 5.31184 0
M  V30 8085 H 756.69 5.16081 5.58179 0
M  V30 8086 N 758.265 -1.50454 0.469181 0
M  V30 8087 C 759.681 -1.59124 0.123226 0
M  V30 8088 C 759.881 -1.47749 -1.37013 0
M  V30 8089 O 758.937 -1.335 -2.14322 0
M  V30 8090 C 760.25 -2.93101 0.67172 0
M  V30 8091 C 761.798 -3.06491 0.634978 0
M  V30 8092 C 762.273 -4.43041 1.16098 0
M  V30 8093 N 763.764 -4.49448 1.12031 0
M  V30 8094 C 764.499 -5.53491 1.49784 0
M  V30 8095 N 763.995 -6.64798 1.94976 0
M  V30 8096 N 765.788 -5.44025 1.41399 0
M  V30 8097 H 757.939 -1.56091 1.44046 0
M  V30 8098 H 760.202 -0.737564 0.59557 0
M  V30 8099 H 759.908 -3.06895 1.7178 0
M  V30 8100 H 759.782 -3.77027 0.114222 0
M  V30 8101 H 762.169 -2.92346 -0.402187 0
M  V30 8102 H 762.25 -2.24328 1.22926 0
M  V30 8103 H 761.894 -4.57935 2.19677 0
M  V30 8104 H 761.824 -5.23794 0.542939 0
M  V30 8105 H 764.315 -3.69575 0.788828 0
M  V30 8106 H 764.628 -7.40246 2.21936 0
M  V30 8107 H 762.973 -6.65923 1.98927 0
M  V30 8108 H 766.164 -4.55955 1.05935 0
M  V30 8109 H 766.337 -6.2499 1.71147 0
M  V30 8110 N 759.743 -0.201713 -1.56304 0
M  V30 8111 C 760.69 0.716499 -2.19397 0
M  V30 8112 C 761.66 1.20494 -1.14326 0
M  V30 8113 O 762.845 1.26763 -1.42604 0
M  V30 8114 C 759.985 1.92762 -2.86246 0
M  V30 8115 C 759.098 1.47993 -4.0586 0
M  V30 8116 C 758.233 2.64706 -4.60547 0
M  V30 8117 C 757.272 2.16576 -5.72504 0
M  V30 8118 N 756.409 3.26491 -6.21569 0
M  V30 8119 H 761.249 0.171724 -2.97505 0
M  V30 8120 H 758.786 0.073016 -1.46919 0
M  V30 8121 H 760.744 2.6384 -3.23178 0
M  V30 8122 H 759.374 2.44559 -2.10691 0
M  V30 8123 H 758.426 0.66477 -3.74546 0
M  V30 8124 H 759.738 1.08686 -4.86815 0
M  V30 8125 H 758.892 3.43898 -4.99819 0
M  V30 8126 H 757.631 3.0729 -3.78713 0
M  V30 8127 H 756.636 1.3584 -5.32755 0
M  V30 8128 H 757.861 1.75015 -6.56161 0
M  V30 8129 H 755.807 3.68594 -5.42655 0
M  V30 8130 H 755.724 2.91374 -6.97594 0
M  V30 8131 H 756.992 4.05877 -6.65495 0
M  V30 8132 N 761.222 1.57436 0.0718424 0
M  V30 8133 C 762.469 1.87248 0.771007 0
M  V30 8134 C 762.797 0.793441 1.7758 0
M  V30 8135 O 762.052 -0.210565 1.94564 0
M  V30 8136 C 762.351 3.23723 1.51455 0
M  V30 8137 C 762.017 4.46194 0.649736 0
M  V30 8138 C 760.679 4.79438 0.411409 0
M  V30 8139 C 763.031 5.21176 0.05004 0
M  V30 8140 C 760.359 5.85077 -0.436096 0
M  V30 8141 C 762.711 6.27712 -0.784919 0
M  V30 8142 C 761.375 6.59457 -1.03312 0
M  V30 8143 H 760.645 0.685188 0.282132 0
M  V30 8144 H 763.292 1.91474 0.0317896 0
M  V30 8145 H 761.597 3.15287 2.32597 0
M  V30 8146 H 763.294 3.44023 2.06031 0
M  V30 8147 H 759.884 4.20175 0.84562 0
M  V30 8148 H 764.068 4.95806 0.221282 0
M  V30 8149 H 759.324 6.08071 -0.637136 0
M  V30 8150 H 763.498 6.84974 -1.25635 0
M  V30 8151 H 761.125 7.4114 -1.6916 0
M  V30 8152 N 762.7 -0.34323 1.53817 0
M  V30 8153 C 763.925 -1.1079 1.75329 0
M  V30 8154 C 764.35 -1.81571 0.491293 0
M  V30 8155 O 763.708 -1.72561 -0.556089 0
M  V30 8156 C 763.756 -2.09681 2.9337 0
M  V30 8157 O 762.86 -3.17207 2.63541 0
M  V30 8158 H 762.201 -0.320402 0.581583 0
M  V30 8159 H 764.731 -0.393525 2.0078 0
M  V30 8160 H 764.741 -2.52897 3.20168 0
M  V30 8161 H 763.416 -1.5756 3.84899 0
M  V30 8162 H 761.993 -2.78806 2.47632 0
M  V30 8163 N 764.178 -1.45556 -0.604258 0
M  V30 8164 C 765.403 -1.53509 -1.39462 0
M  V30 8165 C 765.828 -0.169638 -1.87333 0
M  V30 8166 O 765.186 0.846346 -1.60333 0
M  V30 8167 C 765.234 -2.52654 -2.5729 0
M  V30 8168 O 764.338 -2.04666 -3.5803 0
M  V30 8169 H 763.679 -0.517355 -0.416221 0
M  V30 8170 H 766.209 -1.90939 -0.735072 0
M  V30 8171 H 766.219 -2.71568 -3.04491 0
M  V30 8172 H 764.894 -3.51823 -2.21797 0
M  V30 8173 H 763.471 -1.95643 -3.17456 0
M  V30 8174 N 765.656 0.84705 -1.32902 0
M  V30 8175 C 767.072 1.13645 -1.12058 0
M  V30 8176 C 767.272 2.01281 0.093937 0
M  V30 8177 O 766.328 2.4026 0.776608 0
M  V30 8178 C 767.641 1.80644 -2.40392 0
M  V30 8179 C 769.189 1.93246 -2.46221 0
M  V30 8180 C 769.664 2.6366 -3.74496 0
M  V30 8181 N 771.155 2.71179 -3.75521 0
M  V30 8182 C 771.89 3.26332 -4.71482 0
M  V30 8183 N 771.386 3.82236 -5.77813 0
M  V30 8184 N 773.179 3.24507 -4.58968 0
M  V30 8185 H 765.33 0.263612 -2.10758 0
M  V30 8186 H 767.593 0.17944 -0.930863 0
M  V30 8187 H 767.299 1.23708 -3.29225 0
M  V30 8188 H 767.173 2.80736 -2.51926 0
M  V30 8189 H 769.56 2.49338 -1.57843 0
M  V30 8190 H 769.641 0.921272 -2.38634 0
M  V30 8191 H 769.285 2.08229 -4.63253 0
M  V30 8192 H 769.215 3.65234 -3.79357 0
M  V30 8193 H 771.706 2.31527 -2.9867 0
M  V30 8194 H 772.019 4.22499 -6.47082 0
M  V30 8195 H 770.364 3.80546 -5.81558 0
M  V30 8196 H 773.555 2.80085 -3.7506 0
M  V30 8197 H 773.728 3.67188 -5.33926 0
M  V30 8198 N 767.134 1.16236 1.06428 0
M  V30 8199 C 768.359 0.967688 1.83441 0
M  V30 8200 C 768.784 -0.479167 1.81894 0
M  V30 8201 O 768.142 -1.34224 1.21875 0
M  V30 8202 C 768.19 1.49806 3.2801 0
M  V30 8203 O 767.294 0.703481 4.06356 0
M  V30 8204 H 766.635 0.344468 0.56766 0
M  V30 8205 H 769.165 1.54442 1.34197 0
M  V30 8206 H 769.175 1.51495 3.78831 0
M  V30 8207 H 767.85 2.55133 3.2845 0
M  V30 8208 H 766.427 0.756986 3.65136 0
M  V30 8209 N 768.612 -1.24939 0.960631 0
M  V30 8210 C 769.889 -1.88118 0.535807 0
M  V30 8211 C 770.269 -1.86605 -0.987009 0
M  V30 8212 O 769.617 -1.33375 -1.85536 0
M  V30 8213 C 769.827 -3.30565 1.11927 0
M  V30 8214 C 771.175 -4.07296 1.19981 0
M  V30 8215 O 772.199 -3.39709 1.07126 0
M  V30 8216 O 771.058 -5.28206 1.40218 0
M  V30 8217 H 768.152 -0.807698 0.177631 0
M  V30 8218 H 770.698 -1.32964 1.05445 0
M  V30 8219 H 769.47 -3.26128 2.16231 0
M  V30 8220 H 769.093 -3.93284 0.584245 0
M  V30 8221 N 770.09 -0.729906 -1.39679 0
M  V30 8222 C 771.336 -0.27603 -2.00913 0
M  V30 8223 C 771.669 1.13227 -1.57776 0
M  V30 8224 O 770.944 1.7709 -0.804319 0
M  V30 8225 C 771.227 -0.372157 -3.58172 0
M  V30 8226 C 771.08 -1.81986 -4.11341 0
M  V30 8227 C 772.399 0.248378 -4.39399 0
M  V30 8228 H 769.518 -0.101773 -0.729939 0
M  V30 8229 H 772.16 -0.925104 -1.65957 0
M  V30 8230 H 770.31 0.180459 -3.88081 0
M  V30 8231 H 771.982 -2.42896 -3.92172 0
M  V30 8232 H 770.225 -2.34287 -3.65092 0
M  V30 8233 H 770.896 -1.83842 -5.20486 0
M  V30 8234 H 773.372 -0.222645 -4.15504 0
M  V30 8235 H 772.248 0.150746 -5.48693 0
M  V30 8236 H 772.509 1.33378 -4.21501 0
M  V30 8237 N 771.568 1.50203 -0.477153 0
M  V30 8238 C 772.814 2.03286 0.0679442 0
M  V30 8239 C 773.169 1.35227 1.36863 0
M  V30 8240 O 772.462 0.471029 1.8572 0
M  V30 8241 C 772.656 3.56127 0.301325 0
M  V30 8242 C 772.485 4.38999 -0.975188 0
M  V30 8243 C 771.255 4.81889 -1.52022 0
M  V30 8244 C 773.453 4.79013 -1.8722 0
M  V30 8245 N 771.435 5.49105 -2.74513 0
M  V30 8246 C 772.806 5.45701 -2.94296 0
M  V30 8247 C 774.861 4.60967 -1.88185 0
M  V30 8248 C 773.564 5.96255 -4.02333 0
M  V30 8249 C 775.59 5.12466 -2.95183 0
M  V30 8250 C 774.952 5.79134 -4.00977 0
M  V30 8251 H 771.051 0.78185 -0.015318 0
M  V30 8252 H 773.635 1.83646 -0.64671 0
M  V30 8253 H 771.806 3.75702 0.985021 0
M  V30 8254 H 773.538 3.95859 0.841304 0
M  V30 8255 H 770.293 4.61387 -1.06858 0
M  V30 8256 H 770.717 5.87315 -3.36734 0
M  V30 8257 H 775.359 4.0885 -1.07708 0
M  V30 8258 H 773.077 6.47406 -4.83623 0
M  V30 8259 H 776.663 5.00329 -2.96921 0
M  V30 8260 H 775.543 6.18265 -4.82409 0
M  V30 8261 N 773.046 0.209999 1.56195 0
M  V30 8262 C 774.271 -0.433064 2.02828 0
M  V30 8263 C 774.696 -1.5337 1.08901 0
M  V30 8264 O 774.054 -1.81144 0.0751132 0
M  V30 8265 C 774.102 -0.952635 3.47789 0
M  V30 8266 O 773.206 -2.0647 3.56993 0
M  V30 8267 H 772.547 -0.0994594 0.656509 0
M  V30 8268 H 775.077 0.32525 2.01998 0
M  V30 8269 H 775.087 -1.26542 3.8788 0
M  V30 8270 H 773.762 -0.147007 4.1564 0
M  V30 8271 H 772.339 -1.75942 3.28784 0
M  V30 8272 N 774.524 -1.57472 -0.0634922 0
M  V30 8273 C 775.754 -1.91608 -0.772645 0
M  V30 8274 C 776.162 -0.805019 -1.71219 0
M  V30 8275 O 775.505 0.229941 -1.82255 0
M  V30 8276 C 775.567 -3.21281 -1.61304 0
M  V30 8277 C 775.231 -4.49177 -0.841973 0
M  V30 8278 C 776.228 -5.19661 -0.157494 0
M  V30 8279 C 773.913 -4.9578 -0.80669 0
M  V30 8280 C 775.907 -6.35006 0.551948 0
M  V30 8281 C 773.594 -6.11028 -0.0934812 0
M  V30 8282 C 774.592 -6.80493 0.58463 0
M  V30 8283 O 774.28 -7.93542 1.28633 0
M  V30 8284 H 774.012 -0.637685 -0.224352 0
M  V30 8285 H 776.566 -2.05369 -0.0355279 0
M  V30 8286 H 774.796 -3.03752 -2.39315 0
M  V30 8287 H 776.485 -3.41003 -2.20162 0
M  V30 8288 H 777.251 -4.84681 -0.176006 0
M  V30 8289 H 773.13 -4.41579 -1.32397 0
M  V30 8290 H 776.674 -6.89161 1.0818 0
M  V30 8291 H 772.571 -6.45459 -0.0729258 0
M  V30 8292 H 773.339 -8.09708 1.19646 0
M  V30 8293 N 776.003 0.335068 -1.53997 0
M  V30 8294 C 777.251 1.07223 -1.71312 0
M  V30 8295 C 777.572 1.88911 -0.483486 0
M  V30 8296 O 776.842 1.89344 0.50257 0
M  V30 8297 H 775.422 0.398846 -0.63161 0
M  V30 8298 H 778.084 0.374288 -1.91272 0
M  V30 8299 H 777.18 1.7448 -2.58772 0
M  V30 8300 N 777.481 1.45874 0.596531 0
M  V30 8301 C 778.727 1.5069 1.35722 0
M  V30 8302 C 779.06 0.152506 1.936 0
M  V30 8303 O 778.335 -0.834411 1.75692 0
M  V30 8304 C 778.618 2.59474 2.4969 0
M  V30 8305 C 778.471 4.04396 1.96937 0
M  V30 8306 C 779.79 2.64451 3.51787 0
M  V30 8307 H 776.909 0.548611 0.492133 0
M  V30 8308 H 779.551 1.77741 0.671428 0
M  V30 8309 H 777.701 2.36539 3.08191 0
M  V30 8310 H 779.373 4.38576 1.43 0
M  V30 8311 H 777.616 4.14529 1.27859 0
M  V30 8312 H 778.287 4.76218 2.79143 0
M  V30 8313 H 780.763 2.85031 3.03145 0
M  V30 8314 H 779.639 3.42411 4.29006 0
M  V30 8315 H 779.9 1.69965 4.08123 0
M  V30 8316 N 778.959 -0.83999 1.33349 0
M  V30 8317 C 780.187 -1.62728 1.27778 0
M  V30 8318 C 780.602 -1.88191 -0.151505 0
M  V30 8319 O 779.959 -1.46128 -1.09329 0
M  V30 8320 C 780.01 -2.97813 2.04913 0
M  V30 8321 O 779.731 -2.73469 3.42266 0
M  V30 8322 C 781.232 -3.92245 2.0654 0
M  V30 8323 H 778.452 -0.506374 0.440257 0
M  V30 8324 H 780.996 -1.04637 1.75703 0
M  V30 8325 H 779.151 -3.52509 1.60674 0
M  V30 8326 H 779.565 -3.59483 3.81932 0
M  V30 8327 H 781.039 -4.84249 2.64966 0
M  V30 8328 H 781.516 -4.26332 1.05537 0
M  V30 8329 H 782.122 -3.43487 2.50793 0
M  V30 8330 N 780.437 -1.16799 -1.0581 0
M  V30 8331 C 781.37 -0.822491 -2.12862 0
M  V30 8332 C 782.348 0.208006 -1.61264 0
M  V30 8333 O 783.532 0.0909652 -1.8828 0
M  V30 8334 C 780.659 -0.225826 -3.37946 0
M  V30 8335 C 779.705 -1.23071 -4.08357 0
M  V30 8336 S 780.538 -2.77944 -4.5772 0
M  V30 8337 C 781.694 -2.19741 -5.86059 0
M  V30 8338 H 781.927 -1.72917 -2.41841 0
M  V30 8339 H 779.46 -0.991982 -1.18318 0
M  V30 8340 H 781.418 0.111955 -4.10347 0
M  V30 8341 H 780.079 0.658692 -3.07116 0
M  V30 8342 H 779.272 -0.761758 -4.9821 0
M  V30 8343 H 778.874 -1.51383 -3.41993 0
M  V30 8344 H 781.166 -1.5691 -6.59079 0
M  V30 8345 H 782.109 -3.07823 -6.37692 0
M  V30 8346 H 782.517 -1.63433 -5.40324 0
M  V30 8347 N 781.915 1.24427 -0.967243 0
M  V30 8348 C 783.161 1.93089 -0.639404 0
M  V30 8349 C 783.516 1.7422 0.816407 0
M  V30 8350 O 782.809 1.08435 1.57964 0
M  V30 8351 C 783.003 3.44568 -0.949096 0
M  V30 8352 C 782.832 3.7817 -2.43346 0
M  V30 8353 C 781.602 3.99561 -3.09321 0
M  V30 8354 C 783.8 3.84687 -3.41351 0
M  V30 8355 N 781.782 4.20259 -4.475 0
M  V30 8356 C 783.153 4.10223 -4.64884 0
M  V30 8357 C 785.208 3.67421 -3.36015 0
M  V30 8358 C 783.911 4.20286 -5.8374 0
M  V30 8359 C 785.937 3.78731 -4.54221 0
M  V30 8360 C 785.299 4.04691 -5.76545 0
M  V30 8361 H 781.398 0.728291 -0.284809 0
M  V30 8362 H 783.982 1.49941 -1.24201 0
M  V30 8363 H 782.153 3.86582 -0.375308 0
M  V30 8364 H 783.885 4.00524 -0.579876 0
M  V30 8365 H 780.64 3.95946 -2.59853 0
M  V30 8366 H 781.064 4.34588 -5.19097 0
M  V30 8367 H 785.706 3.46358 -2.42479 0
M  V30 8368 H 783.424 4.40162 -6.77704 0
M  V30 8369 H 787.01 3.66743 -4.51653 0
M  V30 8370 H 785.89 4.1324 -6.66485 0
M  V30 8371 N 783.393 0.737304 1.3929 0
M  V30 8372 C 784.303 0.100464 2.34385 0
M  V30 8373 C 785.319 -0.719282 1.58437 0
M  V30 8374 O 786.495 -0.647216 1.90717 0
M  V30 8375 C 783.56 -0.794325 3.37478 0
M  V30 8376 C 782.621 0.0379345 4.29283 0
M  V30 8377 C 781.854 -0.814241 5.27452 0
M  V30 8378 O 782.077 -2.05288 5.32177 0
M  V30 8379 O 781.011 -0.241679 6.01415 0
M  V30 8380 H 784.837 0.885407 2.90507 0
M  V30 8381 H 782.422 0.497999 1.40856 0
M  V30 8382 H 784.304 -1.30622 4.00644 0
M  V30 8383 H 782.979 -1.55804 2.83737 0
M  V30 8384 H 781.886 0.595405 3.69331 0
M  V30 8385 H 783.219 0.763926 4.86236 0
M  V30 8386 N 784.871 -1.49948 0.485112 0
M  V30 8387 C 785.834 -2.27351 -0.290546 0
M  V30 8388 C 786.834 -1.32704 -0.908087 0
M  V30 8389 O 788.024 -1.56007 -0.775085 0
M  V30 8390 C 785.156 -3.10135 -1.41524 0
M  V30 8391 H 786.349 -2.97374 0.388454 0
M  V30 8392 H 783.902 -1.54453 0.239586 0
M  V30 8393 H 784.637 -2.44641 -2.12888 0
M  V30 8394 H 784.422 -3.79705 -0.978074 0
M  V30 8395 H 785.912 -3.68638 -1.96204 0
M  V30 8396 N 786.349 -0.21828 -1.56081 0
M  V30 8397 C 787.279 0.687922 -2.23136 0
M  V30 8398 C 788.26 1.20357 -1.202 0
M  V30 8399 O 789.445 1.24817 -1.48776 0
M  V30 8400 C 786.575 1.89762 -2.90874 0
M  V30 8401 C 785.529 1.51595 -4.00254 0
M  V30 8402 C 784.855 2.80415 -4.55271 0
M  V30 8403 C 786.155 0.708404 -5.17474 0
M  V30 8404 H 787.849 0.128854 -2.99123 0
M  V30 8405 H 785.395 0.0605354 -1.43873 0
M  V30 8406 H 787.348 2.53699 -3.36474 0
M  V30 8407 H 786.072 2.4816 -2.1233 0
M  V30 8408 H 784.731 0.900058 -3.55379 0
M  V30 8409 H 784.379 3.36951 -3.73461 0
M  V30 8410 H 784.079 2.55613 -5.2909 0
M  V30 8411 H 785.603 3.453 -5.03587 0
M  V30 8412 H 787.017 1.2514 -5.59476 0
M  V30 8413 H 785.414 0.557593 -5.97504 0
M  V30 8414 H 786.484 -0.285679 -4.84058 0
M  V30 8415 N 787.827 1.57504 0.0551401 0
M  V30 8416 C 789.052 1.92682 0.767352 0
M  V30 8417 C 789.477 0.81614 1.69472 0
M  V30 8418 O 788.835 -0.229989 1.79835 0
M  V30 8419 C 788.883 3.26866 1.52286 0
M  V30 8420 O 787.987 3.17274 2.63459 0
M  V30 8421 H 787.328 0.630502 0.208238 0
M  V30 8422 H 789.858 2.04592 0.0184026 0
M  V30 8423 H 789.868 3.61138 1.8985 0
M  V30 8424 H 788.543 4.07276 0.842541 0
M  V30 8425 H 787.12 2.94589 2.2863 0
M  V30 8426 N 789.305 -0.326896 1.54172 0
M  V30 8427 C 790.535 -1.08328 1.75922 0
M  V30 8428 C 790.943 -1.82302 0.50622 0
M  V30 8429 O 790.286 -1.7581 -0.532581 0
M  V30 8430 C 790.348 -2.1294 2.8965 0
M  V30 8431 C 790.012 -1.58394 4.28673 0
M  V30 8432 C 791.009 -1.02747 5.09646 0
M  V30 8433 C 788.694 -1.62737 4.75207 0
M  V30 8434 C 790.688 -0.52169 6.35261 0
M  V30 8435 C 788.375 -1.11772 6.00791 0
M  V30 8436 C 789.373 -0.565819 6.80652 0
M  V30 8437 O 789.061 -0.0638146 8.03875 0
M  V30 8438 H 788.793 -0.3282 0.590983 0
M  V30 8439 H 791.347 -0.37972 2.0186 0
M  V30 8440 H 789.577 -2.86903 2.59275 0
M  V30 8441 H 791.266 -2.74274 2.99213 0
M  V30 8442 H 792.032 -0.987007 4.74851 0
M  V30 8443 H 787.911 -2.04635 4.13093 0
M  V30 8444 H 791.455 -0.0902544 6.97542 0
M  V30 8445 H 787.352 -1.15524 6.35078 0
M  V30 8446 H 788.12 -0.17955 8.18303 0
M  V30 8447 N 790.784 -1.46188 -0.588786 0
M  V30 8448 C 792.032 -1.50885 -1.34455 0
M  V30 8449 C 792.353 -0.159555 -1.94346 0
M  V30 8450 O 791.623 0.813239 -1.78222 0
M  V30 8451 H 790.203 -0.555707 -0.499198 0
M  V30 8452 H 792.865 -1.82277 -0.690014 0
M  V30 8453 H 791.961 -2.25816 -2.15438 0
M  V30 8454 N 792.262 0.832906 -1.33792 0
M  V30 8455 C 793.194 1.95042 -1.2038 0
M  V30 8456 C 794.207 1.62253 -0.133299 0
M  V30 8457 O 795.396 1.74315 -0.384261 0
M  V30 8458 C 792.496 3.287 -0.825215 0
M  V30 8459 C 791.669 3.89581 -1.98861 0
M  V30 8460 C 790.728 5.01602 -1.59003 0
M  V30 8461 O 789.754 5.20431 -2.30522 0
M  V30 8462 N 790.956 5.78356 -0.498446 0
M  V30 8463 H 793.721 2.07083 -2.16649 0
M  V30 8464 H 791.282 1.00896 -1.26616 0
M  V30 8465 H 793.274 4.01074 -0.540559 0
M  V30 8466 H 791.844 3.12565 0.0469796 0
M  V30 8467 H 791.064 3.09723 -2.43856 0
M  V30 8468 H 792.352 4.26989 -2.76691 0
M  V30 8469 H 791.75 5.65618 0.0963297 0
M  V30 8470 H 790.307 6.51226 -0.273485 0
M  V30 8471 N 793.74 1.17359 1.05189 0
M  V30 8472 C 794.687 0.890325 2.12936 0
M  V30 8473 C 795.657 -0.165779 1.65271 0
M  V30 8474 O 796.842 -0.0285672 1.90779 0
M  V30 8475 C 793.982 0.409793 3.42658 0
M  V30 8476 C 793.095 1.53002 4.03998 0
M  V30 8477 C 792.23 1.00336 5.21638 0
M  V30 8478 C 791.269 2.09903 5.74984 0
M  V30 8479 N 790.406 1.58714 6.83926 0
M  V30 8480 H 795.246 1.81299 2.36505 0
M  V30 8481 H 792.783 0.904249 1.16025 0
M  V30 8482 H 794.741 0.112743 4.17048 0
M  V30 8483 H 793.371 -0.475915 3.19272 0
M  V30 8484 H 792.423 1.9428 3.27047 0
M  V30 8485 H 793.735 2.3564 4.39631 0
M  V30 8486 H 792.889 0.660158 6.03098 0
M  V30 8487 H 791.628 0.14642 4.8748 0
M  V30 8488 H 790.633 2.45081 4.92154 0
M  V30 8489 H 791.858 2.96013 6.1119 0
M  V30 8490 H 789.804 0.752915 6.51665 0
M  V30 8491 H 789.721 2.34959 7.18561 0
M  V30 8492 H 790.989 1.27287 7.69037 0
M  V30 8493 N 795.218 -1.23913 0.973828 0
M  V30 8494 C 796.629 -1.73992 0.677021 0
M  V30 8495 C 796.98 -1.78833 -0.807036 0
M  V30 8496 O 796.105 -1.42183 -1.63135 0
M  V30 8497 C 796.7 -3.15985 1.22226 0
M  V30 8498 C 795.259 -3.63547 0.975228 0
M  V30 8499 C 794.406 -2.42001 1.35392 0
M  V30 8500 H 797.357 -1.09529 1.14844 0
M  V30 8501 H 797.378 -3.75875 0.591489 0
M  V30 8502 H 796.89 -3.12429 2.30238 0
M  V30 8503 H 794.991 -3.72493 -0.0891047 0
M  V30 8504 H 795.104 -4.50693 1.62518 0
M  V30 8505 H 793.468 -2.42708 0.772334 0
M  V30 8506 H 794.251 -2.41122 2.44367 0
M  V30 8507 N 796.696 -0.74468 -1.38897 0
M  V30 8508 C 797.926 -0.306982 -2.04307 0
M  V30 8509 C 798.334 1.06652 -1.56275 0
M  V30 8510 O 797.677 1.68699 -0.72708 0
M  V30 8511 C 797.739 -0.241186 -3.5869 0
M  V30 8512 C 797.403 -1.55476 -4.2974 0
M  V30 8513 C 798.4 -2.50229 -4.55721 0
M  V30 8514 C 796.085 -1.82173 -4.68101 0
M  V30 8515 C 798.079 -3.69905 -5.19085 0
M  V30 8516 C 795.766 -3.02125 -5.31191 0
M  V30 8517 C 796.764 -3.95812 -5.56616 0
M  V30 8518 O 796.452 -5.13656 -6.18395 0
M  V30 8519 H 796.184 -0.130416 -0.663301 0
M  V30 8520 H 798.738 -1.01192 -1.78744 0
M  V30 8521 H 796.968 0.519925 -3.83189 0
M  V30 8522 H 798.657 0.165806 -4.05561 0
M  V30 8523 H 799.423 -2.30877 -4.26522 0
M  V30 8524 H 795.302 -1.10091 -4.47662 0
M  V30 8525 H 798.846 -4.43047 -5.38846 0
M  V30 8526 H 794.743 -3.21374 -5.59811 0
M  V30 8527 H 795.511 -5.14119 -6.36886 0
M  V30 8528 N 798.174 1.49689 -0.493057 0
M  V30 8529 C 799.121 2.28976 0.28959 0
M  V30 8530 C 800.091 1.35011 0.967536 0
M  V30 8531 O 801.276 1.63964 0.975736 0
M  V30 8532 C 798.416 3.1748 1.35279 0
M  V30 8533 C 797.529 4.26496 0.687418 0
M  V30 8534 C 796.664 5.02226 1.73038 0
M  V30 8535 C 795.703 6.03089 1.04645 0
M  V30 8536 N 794.84 6.72014 2.03325 0
M  V30 8537 H 799.68 2.954 -0.392798 0
M  V30 8538 H 797.217 1.45657 -0.205554 0
M  V30 8539 H 799.175 3.67162 1.98111 0
M  V30 8540 H 797.805 2.53057 2.00405 0
M  V30 8541 H 796.857 3.80362 -0.0540001 0
M  V30 8542 H 798.169 4.98578 0.14864 0
M  V30 8543 H 797.323 5.55737 2.43395 0
M  V30 8544 H 796.062 4.29899 2.303 0
M  V30 8545 H 795.067 5.48817 0.328606 0
M  V30 8546 H 796.292 6.77398 0.480428 0
M  V30 8547 H 794.238 6.02464 2.59564 0
M  V30 8548 H 794.155 7.40046 1.54492 0
M  V30 8549 H 795.423 7.30133 2.72995 0
M  V30 8550 N 799.652 0.226554 1.55963 0
M  V30 8551 C 800.599 -0.681504 2.20509 0
M  V30 8552 C 801.569 -1.1866 1.16229 0
M  V30 8553 O 802.754 -1.24478 1.44602 0
M  V30 8554 C 799.894 -1.88183 2.89277 0
M  V30 8555 C 799.007 -1.41517 4.08163 0
M  V30 8556 C 798.142 -2.57346 4.647 0
M  V30 8557 C 797.181 -2.07441 5.75877 0
M  V30 8558 N 796.318 -3.16561 6.26685 0
M  V30 8559 H 801.158 -0.124372 2.9774 0
M  V30 8560 H 798.695 -0.0496333 1.47016 0
M  V30 8561 H 800.653 -2.58666 3.27335 0
M  V30 8562 H 799.283 -2.41177 2.14555 0
M  V30 8563 H 798.335 -0.605099 3.75557 0
M  V30 8564 H 799.647 -1.00928 4.88482 0
M  V30 8565 H 798.801 -3.35903 5.05227 0
M  V30 8566 H 797.54 -3.01227 3.83554 0
M  V30 8567 H 796.545 -1.27347 5.34848 0
M  V30 8568 H 797.77 -1.64554 6.58862 0
M  V30 8569 H 795.716 -3.59914 5.48451 0
M  V30 8570 H 795.633 -2.80239 7.02141 0
M  V30 8571 H 796.901 -3.95238 6.71868 0
M  V30 8572 N 801.13 -1.57531 -0.0467866 0
M  V30 8573 C 802.063 -2.00734 -1.08541 0
M  V30 8574 C 803.041 -0.888508 -1.36177 0
M  V30 8575 O 804.225 -1.1529 -1.49132 0
M  V30 8576 C 801.352 -2.36535 -2.42423 0
M  V30 8577 C 800.398 -3.58681 -2.3076 0
M  V30 8578 S 801.231 -5.08536 -1.67785 0
M  V30 8579 C 802.387 -5.47562 -3.03194 0
M  V30 8580 H 802.62 -2.88516 -0.717345 0
M  V30 8581 H 800.153 -1.5226 -0.256181 0
M  V30 8582 H 802.111 -2.57834 -3.19424 0
M  V30 8583 H 800.772 -1.49236 -2.76382 0
M  V30 8584 H 799.965 -3.81329 -3.29552 0
M  V30 8585 H 799.567 -3.37142 -1.61899 0
M  V30 8586 H 801.859 -5.47163 -3.99524 0
M  V30 8587 H 802.802 -6.48082 -2.85299 0
M  V30 8588 H 803.21 -4.75042 -3.04951 0
M  V30 8589 N 802.608 0.318715 -1.54344 0
M  V30 8590 C 803.555 1.39242 -1.84066 0
M  V30 8591 C 804.525 1.51175 -0.688134 0
M  V30 8592 O 805.71 1.66318 -0.935039 0
M  V30 8593 C 802.85 2.75528 -2.07794 0
M  V30 8594 C 801.963 2.72187 -3.35467 0
M  V30 8595 C 801.098 4.00352 -3.4913 0
M  V30 8596 C 800.137 3.91338 -4.7066 0
M  V30 8597 N 799.274 5.11242 -4.81224 0
M  V30 8598 H 804.114 1.13196 -2.75664 0
M  V30 8599 H 801.651 0.547857 -1.36517 0
M  V30 8600 H 803.609 3.54763 -2.19543 0
M  V30 8601 H 802.239 2.99873 -1.19482 0
M  V30 8602 H 801.291 1.84917 -3.3243 0
M  V30 8603 H 802.603 2.61411 -4.24812 0
M  V30 8604 H 801.757 4.88019 -3.60448 0
M  V30 8605 H 800.496 4.1394 -2.57886 0
M  V30 8606 H 799.501 3.02055 -4.59394 0
M  V30 8607 H 800.726 3.7931 -5.63294 0
M  V30 8608 H 798.672 5.25327 -3.92897 0
M  V30 8609 H 798.589 5.0282 -5.64543 0
M  V30 8610 H 799.857 6.0061 -4.96879 0
M  V30 8611 N 804.086 1.46499 0.581025 0
M  V30 8612 C 805.334 1.51596 1.33653 0
M  V30 8613 C 805.655 0.169859 1.94259 0
M  V30 8614 O 804.925 -0.803776 1.78651 0
M  V30 8615 H 803.505 0.558346 0.496244 0
M  V30 8616 H 806.167 1.8264 0.680338 0
M  V30 8617 H 805.263 2.26956 2.14237 0
M  V30 8618 N 805.565 -0.825799 1.34232 0
M  V30 8619 C 806.976 -1.39835 1.23706 0
M  V30 8620 C 807.327 -1.95709 -0.138649 0
M  V30 8621 O 806.452 -1.89833 -1.03886 0
M  V30 8622 C 807.047 -2.54203 2.23978 0
M  V30 8623 C 805.606 -3.07374 2.17251 0
M  V30 8624 C 804.753 -1.80232 2.10741 0
M  V30 8625 H 807.704 -0.630442 1.4564 0
M  V30 8626 H 807.725 -3.32214 1.8551 0
M  V30 8627 H 807.237 -2.13506 3.24094 0
M  V30 8628 H 805.338 -3.52583 1.20483 0
M  V30 8629 H 805.451 -3.6666 3.08379 0
M  V30 8630 H 803.815 -2.01012 1.56417 0
M  V30 8631 H 804.598 -1.41713 3.12686 0
M  V30 8632 N 807.043 -1.17915 -1.04565 0
M  V30 8633 C 807.953 -0.916449 -2.15959 0
M  V30 8634 C 808.969 0.117655 -1.73602 0
M  V30 8635 O 810.145 -0.063089 -2.01301 0
M  V30 8636 C 807.21 -0.440262 -3.43893 0
M  V30 8637 C 806.271 -1.54172 -4.00661 0
M  V30 8638 C 805.504 -1.08816 -5.22489 0
M  V30 8639 O 805.727 0.0551547 -5.70373 0
M  V30 8640 O 804.661 -1.88383 -5.7166 0
M  V30 8641 H 808.487 -1.8484 -2.40972 0
M  V30 8642 H 806.072 -0.960552 -1.14428 0
M  V30 8643 H 807.954 -0.182537 -4.21004 0
M  V30 8644 H 806.629 0.46346 -3.20365 0
M  V30 8645 H 805.536 -1.85341 -3.24961 0
M  V30 8646 H 806.869 -2.42139 -4.2852 0
M  V30 8647 N 808.521 1.23394 -0.980386 0
M  V30 8648 C 809.767 1.92094 -0.650223 0
M  V30 8649 C 810.1 1.76309 0.814173 0
M  V30 8650 O 809.375 1.12406 1.5873 0
M  V30 8651 C 809.658 3.44713 -1.04139 0
M  V30 8652 C 809.511 3.69606 -2.56342 0
M  V30 8653 C 810.83 4.36191 -0.585296 0
M  V30 8654 H 807.949 0.697618 -0.237695 0
M  V30 8655 H 810.591 1.45517 -1.22167 0
M  V30 8656 H 808.741 3.84513 -0.55515 0
M  V30 8657 H 810.413 3.39288 -3.1254 0
M  V30 8658 H 808.656 3.14318 -2.98976 0
M  V30 8659 H 809.327 4.76441 -2.78762 0
M  V30 8660 H 811.803 4.03836 -1.00276 0
M  V30 8661 H 810.679 5.41679 -0.887428 0
M  V30 8662 H 810.94 4.39097 0.51438 0
M  V30 8663 N 809.999 0.752036 1.385 0
M  V30 8664 C 810.932 0.0717411 2.28087 0
M  V30 8665 C 811.91 -0.729945 1.45295 0
M  V30 8666 O 813.094 -0.708902 1.74662 0
M  V30 8667 C 810.221 -0.905237 3.26379 0
M  V30 8668 C 809.267 -0.189973 4.26077 0
M  V30 8669 S 810.1 1.10815 5.23909 0
M  V30 8670 C 811.256 0.134202 6.25756 0
M  V30 8671 H 811.489 0.831438 2.85437 0
M  V30 8672 H 809.022 0.544552 1.44478 0
M  V30 8673 H 810.98 -1.46358 3.83523 0
M  V30 8674 H 809.641 -1.63789 2.68015 0
M  V30 8675 H 808.834 -0.92985 4.95348 0
M  V30 8676 H 808.436 0.296804 3.7282 0
M  V30 8677 H 810.728 -0.700345 6.7387 0
M  V30 8678 H 811.671 0.794532 7.03628 0
M  V30 8679 H 812.079 -0.245801 5.63965 0
M  V30 8680 N 811.477 -1.49425 0.500989 0
M  V30 8681 C 812.44 -2.27646 -0.266416 0
M  V30 8682 C 813.44 -1.3366 -0.893961 0
M  V30 8683 O 814.63 -1.5682 -0.758495 0
M  V30 8684 C 811.762 -3.11618 -1.38227 0
M  V30 8685 H 812.955 -2.96945 0.419973 0
M  V30 8686 H 810.508 -1.5419 0.255954 0
M  V30 8687 H 811.243 -2.46885 -2.10281 0
M  V30 8688 H 811.028 -3.80721 -0.937746 0
M  V30 8689 H 812.518 -3.70698 -1.92283 0
M  V30 8690 N 812.955 -0.234822 -1.55841 0
M  V30 8691 C 814.202 0.39326 -1.98645 0
M  V30 8692 C 814.53 1.58823 -1.12274 0
M  V30 8693 O 813.785 1.94954 -0.170731 0
M  V30 8694 C 814.084 0.858032 -3.46947 0
M  V30 8695 C 813.75 -0.227858 -4.50324 0
M  V30 8696 C 812.412 -0.526128 -4.78315 0
M  V30 8697 C 814.764 -0.961576 -5.12253 0
M  V30 8698 C 812.092 -1.5624 -5.65514 0
M  V30 8699 C 814.444 -1.98728 -6.00575 0
M  V30 8700 C 813.108 -2.29233 -6.26904 0
M  V30 8701 H 812.378 0.143904 -0.726892 0
M  V30 8702 H 815.025 -0.34012 -1.88455 0
M  V30 8703 H 813.33 1.67041 -3.54408 0
M  V30 8704 H 815.027 1.35407 -3.77447 0
M  V30 8705 H 811.617 0.0147624 -4.28597 0
M  V30 8706 H 815.801 -0.744388 -4.90686 0
M  V30 8707 H 811.057 -1.80422 -5.84173 0
M  V30 8708 H 815.231 -2.5608 -6.47608 0
M  V30 8709 H 812.858 -3.09671 -6.94268 0
M  V30 8710 N 814.433 1.57553 0.0384317 0
M  V30 8711 C 815.682 1.88022 0.730108 0
M  V30 8712 C 815.995 0.83209 1.77019 0
M  V30 8713 O 817.201 1.0257 2.51379 0
M  V30 8714 C 815.657 3.33637 1.3496 0
M  V30 8715 C 815.265 4.46659 0.346352 0
M  V30 8716 C 817.009 3.73266 2.02169 0
M  V30 8717 C 814.916 5.8333 0.973652 0
M  V30 8718 H 813.846 0.701496 0.276442 0
M  V30 8719 H 816.497 1.83493 -0.0158028 0
M  V30 8720 H 814.879 3.32882 2.1449 0
M  V30 8721 H 816.053 4.58868 -0.421558 0
M  V30 8722 H 814.368 4.15802 -0.223133 0
M  V30 8723 H 816.965 4.72689 2.49938 0
M  V30 8724 H 817.308 3.04776 2.8358 0
M  V30 8725 H 817.841 3.76156 1.29427 0
M  V30 8726 H 814.58 6.55197 0.199163 0
M  V30 8727 H 814.1 5.7486 1.71162 0
M  V30 8728 H 815.779 6.29757 1.48376 0
M  V30 8729 N 815.911 -0.310526 1.54511 0
M  V30 8730 C 816.821 -1.4054 1.87844 0
M  V30 8731 C 817.837 -1.55954 0.771635 0
M  V30 8732 O 819.013 -1.70801 1.06719 0
M  V30 8733 C 816.078 -2.75063 2.11048 0
M  V30 8734 C 815.139 -2.68715 3.348 0
M  V30 8735 C 814.372 -3.96821 3.56887 0
M  V30 8736 O 814.595 -4.95721 2.82165 0
M  V30 8737 O 813.529 -3.99291 4.50389 0
M  V30 8738 H 817.355 -1.15275 2.80972 0
M  V30 8739 H 814.94 -0.505732 1.4058 0
M  V30 8740 H 816.822 -3.54671 2.27566 0
M  V30 8741 H 815.497 -3.00191 1.21108 0
M  V30 8742 H 814.404 -1.87611 3.23655 0
M  V30 8743 H 815.737 -2.4854 4.2484 0
M  V30 8744 N 817.389 -1.46805 -0.573248 0
M  V30 8745 C 818.321 -1.54127 -1.6964 0
M  V30 8746 C 819.334 -0.428778 -1.57052 0
M  V30 8747 O 820.523 -0.697612 -1.64303 0
M  V30 8748 C 817.623 -1.41438 -3.07975 0
M  V30 8749 C 816.796 -2.66974 -3.46474 0
M  V30 8750 C 815.855 -2.48349 -4.63906 0
M  V30 8751 O 814.881 -3.22109 -4.69292 0
M  V30 8752 N 816.083 -1.55129 -5.59388 0
M  V30 8753 H 818.848 -2.50971 -1.6381 0
M  V30 8754 H 816.409 -1.42981 -0.759479 0
M  V30 8755 H 818.401 -1.26737 -3.84343 0
M  V30 8756 H 816.971 -0.527388 -3.08119 0
M  V30 8757 H 816.191 -2.9655 -2.59715 0
M  V30 8758 H 817.479 -3.50347 -3.68964 0
M  V30 8759 H 816.877 -0.94324 -5.57781 0
M  V30 8760 H 815.434 -1.46387 -6.35149 0
M  V30 8761 N 818.867 0.818669 -1.34668 0
M  V30 8762 C 820.115 1.57201 -1.27013 0
M  V30 8763 C 820.436 1.94354 0.158599 0
M  V30 8764 O 819.706 1.62626 1.09223 0
M  V30 8765 H 818.286 0.582919 -0.467135 0
M  V30 8766 H 820.948 0.977234 -1.6863 0
M  V30 8767 H 820.044 2.49291 -1.87778 0
M  V30 8768 N 820.346 1.18468 1.03938 0
M  V30 8769 C 821.293 0.912859 2.1198 0
M  V30 8770 C 822.263 -0.14824 1.65437 0
M  V30 8771 O 823.448 -0.008331 1.90798 0
M  V30 8772 C 820.588 0.446114 3.42204 0
M  V30 8773 C 819.701 1.57278 4.02353 0
M  V30 8774 C 818.836 1.05863 5.20544 0
M  V30 8775 C 817.875 2.1599 5.72726 0
M  V30 8776 N 817.012 1.65959 6.82204 0
M  V30 8777 H 821.852 1.83798 2.34569 0
M  V30 8778 H 819.389 0.916504 1.15059 0
M  V30 8779 H 821.347 0.15697 4.16905 0
M  V30 8780 H 819.977 -0.442025 3.19759 0
M  V30 8781 H 819.029 1.97737 3.24968 0
M  V30 8782 H 820.341 2.40289 4.37107 0
M  V30 8783 H 819.495 0.724087 6.02364 0
M  V30 8784 H 818.234 0.198116 4.87297 0
M  V30 8785 H 817.239 2.50287 4.89527 0
M  V30 8786 H 818.464 3.02479 6.08016 0
M  V30 8787 H 816.41 0.82199 6.5083 0
M  V30 8788 H 816.327 2.42567 7.16029 0
M  V30 8789 H 817.595 1.35436 7.67644 0
M  V30 8790 N 821.824 -1.22873 0.986916 0
M  V30 8791 C 823.24 -1.43594 0.696633 0
M  V30 8792 C 823.44 -1.87622 -0.734869 0
M  V30 8793 O 822.496 -2.02633 -1.50652 0
M  V30 8794 C 823.809 -2.48231 1.69711 0
M  V30 8795 C 825.357 -2.62037 1.71188 0
M  V30 8796 C 825.832 -3.6989 2.70084 0
M  V30 8797 N 827.323 -3.77341 2.68641 0
M  V30 8798 C 828.058 -4.6037 3.41829 0
M  V30 8799 N 827.554 -5.47438 4.24598 0
M  V30 8800 N 829.347 -4.54626 3.30563 0
M  V30 8801 H 821.498 -0.925982 1.91153 0
M  V30 8802 H 823.761 -0.46866 0.824052 0
M  V30 8803 H 823.467 -2.22812 2.72117 0
M  V30 8804 H 823.341 -3.46731 1.48516 0
M  V30 8805 H 825.728 -2.86803 0.694837 0
M  V30 8806 H 825.809 -1.63831 1.96451 0
M  V30 8807 H 825.453 -3.45872 3.71934 0
M  V30 8808 H 825.383 -4.67652 2.42093 0
M  V30 8809 H 827.874 -3.15124 2.08578 0
M  V30 8810 H 828.187 -6.078 4.77283 0
M  V30 8811 H 826.532 -5.4704 4.28687 0
M  V30 8812 H 829.723 -3.85627 2.65347 0
M  V30 8813 H 829.896 -5.19103 3.8786 0
M  V30 8814 N 823.302 -0.75937 -1.38099 0
M  V30 8815 C 824.235 -0.0838362 -2.28046 0
M  V30 8816 C 825.213 0.722229 -1.4568 0
M  V30 8817 O 826.397 0.699629 -1.75036 0
M  V30 8818 C 823.524 0.887916 -3.26854 0
M  V30 8819 C 822.57 0.167374 -4.26171 0
M  V30 8820 S 823.403 -1.13592 -5.23314 0
M  V30 8821 C 824.559 -0.167385 -6.25676 0
M  V30 8822 H 824.792 -0.846564 -2.84992 0
M  V30 8823 H 822.325 -0.552206 -1.44188 0
M  V30 8824 H 824.283 1.44322 -3.84293 0
M  V30 8825 H 822.944 1.62366 -2.68879 0
M  V30 8826 H 822.137 0.903567 -4.95834 0
M  V30 8827 H 821.739 -0.316572 -3.72658 0
M  V30 8828 H 824.031 0.664598 -6.74232 0
M  V30 8829 H 824.974 -0.831836 -7.03197 0
M  V30 8830 H 825.382 0.21589 -5.64087 0
M  V30 8831 N 824.78 1.49157 -0.508906 0
M  V30 8832 C 825.69 2.33045 0.269656 0
M  V30 8833 C 826.706 1.45143 0.959662 0
M  V30 8834 O 827.882 1.78155 0.939295 0
M  V30 8835 C 824.947 3.20772 1.31554 0
M  V30 8836 C 824.008 4.24531 0.638131 0
M  V30 8837 C 823.241 5.08065 1.63418 0
M  V30 8838 O 823.464 4.93238 2.86483 0
M  V30 8839 O 822.398 5.90117 1.18516 0
M  V30 8840 H 826.224 3.00821 -0.417183 0
M  V30 8841 H 823.809 1.46938 -0.270119 0
M  V30 8842 H 825.691 3.75095 1.92047 0
M  V30 8843 H 824.366 2.55681 1.98516 0
M  V30 8844 H 823.273 3.74099 -0.00674357 0
M  V30 8845 H 824.606 4.92199 0.0108155 0
M  V30 8846 N 826.258 0.243083 1.55714 0
M  V30 8847 C 827.498 -0.384303 2.00755 0
M  V30 8848 C 827.862 -1.55406 1.12752 0
M  V30 8849 O 829.063 -2.24892 1.47231 0
M  V30 8850 C 827.334 -0.787419 3.48618 0
M  V30 8851 S 828.893 -1.40587 4.15669 0
M  V30 8852 H 825.711 -0.121088 0.700613 0
M  V30 8853 H 828.313 0.357423 1.92205 0
M  V30 8854 H 827.017 0.0732892 4.10335 0
M  V30 8855 H 826.548 -1.56142 3.61086 0
M  V30 8856 H 828.563 -2.69493 4.16639 0
M  V30 8857 N 827.736 -1.57571 -0.0300757 0
M  V30 8858 C 829.147 -1.77567 -0.576802 0
M  V30 8859 C 829.498 -0.874034 -1.75656 0
M  V30 8860 O 828.623 -0.0686124 -2.16291 0
M  V30 8861 C 829.218 -3.22016 -1.05315 0
M  V30 8862 C 827.777 -3.43212 -1.5454 0
M  V30 8863 C 826.924 -2.73061 -0.483033 0
M  V30 8864 H 829.875 -1.57483 0.196151 0
M  V30 8865 H 829.896 -3.28474 -1.92055 0
M  V30 8866 H 829.408 -3.87613 -0.194298 0
M  V30 8867 H 827.509 -2.82788 -2.42615 0
M  V30 8868 H 827.622 -4.5182 -1.5936 0
M  V30 8869 H 825.986 -2.36805 -0.937835 0
M  V30 8870 H 826.769 -3.4134 0.366341 0
M  V30 8871 N 829.214 0.302327 -1.54673 0
M  V30 8872 C 830.625 0.875409 -1.64904 0
M  V30 8873 C 830.976 1.88132 -0.55684 0
M  V30 8874 O 830.101 2.14215 0.306754 0
M  V30 8875 C 830.696 1.59457 -2.9893 0
M  V30 8876 C 829.255 2.11607 -3.11287 0
M  V30 8877 C 828.402 0.948324 -2.6058 0
M  V30 8878 H 831.353 0.079362 -1.58501 0
M  V30 8879 H 831.374 2.46005 -2.90279 0
M  V30 8880 H 830.886 0.8622 -3.78402 0
M  V30 8881 H 828.987 2.87895 -2.36532 0
M  V30 8882 H 829.1 2.35151 -4.17422 0
M  V30 8883 H 827.464 1.33352 -2.17001 0
M  V30 8884 H 828.247 0.229936 -3.42529 0
M  V30 8885 N 830.692 1.47107 0.565454 0
M  V30 8886 C 831.602 1.61591 1.70075 0
M  V30 8887 C 832.618 0.498931 1.66693 0
M  V30 8888 O 833.794 0.765372 1.8629 0
M  V30 8889 C 830.859 1.61887 3.06583 0
M  V30 8890 C 829.92 2.84949 3.21096 0
M  V30 8891 C 829.153 2.85221 4.51093 0
M  V30 8892 O 829.376 1.94959 5.36048 0
M  V30 8893 O 828.31 3.76982 4.69221 0
M  V30 8894 H 832.136 2.57638 1.60799 0
M  V30 8895 H 829.721 1.30097 0.73451 0
M  V30 8896 H 831.603 1.64809 3.87835 0
M  V30 8897 H 830.278 0.69005 3.16259 0
M  V30 8898 H 829.185 2.87575 2.39273 0
M  V30 8899 H 830.518 3.77098 3.1632 0
M  V30 8900 N 832.17 -0.811516 1.35101 0
M  V30 8901 C 833.41 -1.58177 1.29458 0
M  V30 8902 C 833.774 -1.91555 -0.130688 0
M  V30 8903 O 834.975 -2.6699 -0.311428 0
M  V30 8904 C 833.246 -2.83896 2.17112 0
M  V30 8905 S 834.805 -3.74344 2.28936 0
M  V30 8906 H 831.623 -0.542021 0.460146 0
M  V30 8907 H 834.225 -0.957653 1.70438 0
M  V30 8908 H 832.929 -2.57391 3.19653 0
M  V30 8909 H 832.46 -3.51297 1.7707 0
M  V30 8910 H 834.475 -4.73909 1.47054 0
M  V30 8911 N 833.648 -1.19017 -1.03309 0
M  V30 8912 C 835.059 -0.993206 -1.5809 0
M  V30 8913 C 835.41 0.45505 -1.9085 0
M  V30 8914 O 834.535 1.33372 -1.70414 0
M  V30 8915 C 835.13 -1.79661 -2.87241 0
M  V30 8916 C 833.689 -1.64377 -3.38611 0
M  V30 8917 C 832.836 -1.78628 -2.12102 0
M  V30 8918 H 835.787 -1.3345 -0.858879 0
M  V30 8919 H 835.808 -1.29019 -3.57958 0
M  V30 8920 H 835.32 -2.85061 -2.63366 0
M  V30 8921 H 833.421 -0.615447 -3.67482 0
M  V30 8922 H 833.534 -2.44651 -4.11926 0
M  V30 8923 H 831.898 -1.21648 -2.23772 0
M  V30 8924 H 832.681 -2.8548 -1.90673 0
M  V30 8925 N 835.127 1.22348 -0.993418 0
M  V30 8926 C 836.538 1.72893 -0.704616 0
M  V30 8927 C 836.889 1.80095 0.778483 0
M  V30 8928 O 836.014 1.4476 1.60853 0
M  V30 8929 C 836.609 3.14 -1.27237 0
M  V30 8930 C 835.168 3.61949 -1.03294 0
M  V30 8931 C 834.315 2.39816 -1.39225 0
M  V30 8932 H 837.266 1.07688 -1.16572 0
M  V30 8933 H 837.287 3.74886 -0.651212 0
M  V30 8934 H 836.799 3.08727 -2.3518 0
M  V30 8935 H 834.9 3.72588 0.0298329 0
M  V30 8936 H 835.013 4.48051 -1.69668 0
M  V30 8937 H 833.377 2.41448 -0.810849 0
M  V30 8938 H 834.16 2.37203 -2.48172 0
M  V30 8939 N 836.605 0.766683 1.37694 0
M  V30 8940 C 837.515 0.150158 2.34119 0
M  V30 8941 C 838.531 -0.685513 1.59927 0
M  V30 8942 O 839.707 -0.606616 1.92047 0
M  V30 8943 C 836.772 -0.722562 3.39087 0
M  V30 8944 C 835.833 0.128983 4.29106 0
M  V30 8945 C 835.066 -0.702178 5.29061 0
M  V30 8946 O 835.289 -1.93954 5.36412 0
M  V30 8947 O 834.223 -0.114056 6.01792 0
M  V30 8948 H 838.049 0.946829 2.88563 0
M  V30 8949 H 835.634 0.527765 1.39768 0
M  V30 8950 H 837.516 -1.22095 4.03325 0
M  V30 8951 H 836.191 -1.49751 2.86978 0
M  V30 8952 H 835.098 0.673612 3.67985 0
M  V30 8953 H 836.431 0.866892 4.84506 0
M  V30 8954 N 838.083 -1.48885 0.516809 0
M  V30 8955 C 839.013 -2.32241 -0.242157 0
M  V30 8956 C 839.994 -1.41258 -0.947633 0
M  V30 8957 O 841.179 -1.70156 -0.935973 0
M  V30 8958 C 838.309 -3.22151 -1.29754 0
M  V30 8959 C 837.263 -4.22053 -0.710995 0
M  V30 8960 C 836.589 -5.01007 -1.86806 0
M  V30 8961 C 837.889 -5.21388 0.30853 0
M  V30 8962 H 839.583 -2.95943 0.453651 0
M  V30 8963 H 837.129 -1.42316 0.219612 0
M  V30 8964 H 839.082 -3.79284 -1.83634 0
M  V30 8965 H 837.806 -2.56423 -2.02274 0
M  V30 8966 H 836.465 -3.66087 -0.193819 0
M  V30 8967 H 836.113 -4.31713 -2.58133 0
M  V30 8968 H 835.813 -5.68615 -1.48159 0
M  V30 8969 H 837.337 -5.60989 -2.4109 0
M  V30 8970 H 838.751 -5.73122 -0.142703 0
M  V30 8971 H 837.148 -5.96975 0.611673 0
M  V30 8972 H 838.218 -4.69329 1.21894 0
M  V30 8973 N 839.561 -0.251338 -1.55583 0
M  V30 8974 C 840.791 0.375642 -2.03156 0
M  V30 8975 C 841.199 1.51761 -1.12983 0
M  V30 8976 O 840.542 1.83184 -0.13757 0
M  V30 8977 C 840.604 0.941001 -3.46966 0
M  V30 8978 C 840.268 -0.0692886 -4.56947 0
M  V30 8979 C 841.265 -0.88041 -5.12391 0
M  V30 8980 C 838.95 -0.196661 -5.01915 0
M  V30 8981 C 840.944 -1.80532 -6.11299 0
M  V30 8982 C 838.631 -1.12507 -6.00654 0
M  V30 8983 C 839.629 -1.92792 -6.55225 0
M  V30 8984 O 839.317 -2.84067 -7.52038 0
M  V30 8985 H 839.049 0.0928836 -0.669588 0
M  V30 8986 H 841.603 -0.374115 -2.01964 0
M  V30 8987 H 839.833 1.7404 -3.45322 0
M  V30 8988 H 841.522 1.47853 -3.78014 0
M  V30 8989 H 842.288 -0.792615 -4.78479 0
M  V30 8990 H 838.167 0.418187 -4.59099 0
M  V30 8991 H 841.711 -2.43239 -6.5382 0
M  V30 8992 H 837.608 -1.21377 -6.33986 0
M  V30 8993 H 838.376 -2.78479 -7.6967 0
M  V30 8994 N 841.039 1.57585 0.0217189 0
M  V30 8995 C 842.002 2.06004 1.00474 0
M  V30 8996 C 843.002 0.965461 1.2859 0
M  V30 8997 O 844.192 1.22884 1.23471 0
M  V30 8998 C 841.324 2.48319 2.33561 0
M  V30 8999 H 842.517 2.94112 0.586346 0
M  V30 9000 H 840.07 1.53973 0.268716 0
M  V30 9001 H 840.805 1.63389 2.80133 0
M  V30 9002 H 840.59 3.28239 2.1448 0
M  V30 9003 H 842.08 2.86181 3.04122 0
M  V30 9004 N 842.517 -0.29412 1.54831 0
M  V30 9005 C 843.447 -1.36757 1.89261 0
M  V30 9006 C 844.428 -1.52564 0.752214 0
M  V30 9007 O 845.613 -1.65958 1.00855 0
M  V30 9008 C 842.743 -2.73066 2.14597 0
M  V30 9009 C 841.697 -2.72017 3.3044 0
M  V30 9010 C 841.023 -4.11679 3.4121 0
M  V30 9011 C 842.323 -2.33149 4.67375 0
M  V30 9012 H 844.017 -1.08191 2.79169 0
M  V30 9013 H 841.563 -0.519014 1.34321 0
M  V30 9014 H 843.516 -3.48255 2.37269 0
M  V30 9015 H 842.24 -3.03172 1.21467 0
M  V30 9016 H 840.899 -1.99285 3.07703 0
M  V30 9017 H 840.547 -4.38973 2.45584 0
M  V30 9018 H 840.247 -4.11877 4.19084 0
M  V30 9019 H 841.771 -4.88637 3.6615 0
M  V30 9020 H 843.185 -2.98054 4.89731 0
M  V30 9021 H 841.582 -2.44546 5.48012 0
M  V30 9022 H 842.652 -1.28275 4.67626 0
M  V30 9023 N 843.995 -1.47404 -0.557645 0
M  V30 9024 C 844.928 -1.54399 -1.68036 0
M  V30 9025 C 845.906 -0.396175 -1.577 0
M  V30 9026 O 847.09 -0.603911 -1.78564 0
M  V30 9027 C 844.217 -1.44611 -3.06277 0
M  V30 9028 C 843.263 -2.63889 -3.35059 0
M  V30 9029 S 844.096 -4.26086 -3.24362 0
M  V30 9030 C 845.252 -4.1885 -4.65097 0
M  V30 9031 H 845.485 -2.49384 -1.61849 0
M  V30 9032 H 843.018 -1.35597 -0.738429 0
M  V30 9033 H 844.976 -1.39651 -3.86015 0
M  V30 9034 H 843.637 -0.510114 -3.0993 0
M  V30 9035 H 842.83 -2.53103 -4.35838 0
M  V30 9036 H 842.432 -2.65969 -2.62938 0
M  V30 9037 H 844.724 -3.87077 -5.56037 0
M  V30 9038 H 845.667 -5.19714 -4.8094 0
M  V30 9039 H 846.075 -3.49717 -4.43123 0
M  V30 9040 N 845.473 0.80434 -1.35529 0
M  V30 9041 C 846.698 1.598 -1.32207 0
M  V30 9042 C 847.123 1.87848 0.0974226 0
M  V30 9043 O 846.481 1.46728 1.06492 0
M  V30 9044 C 846.529 2.90483 -2.13663 0
M  V30 9045 O 845.633 3.83411 -1.51888 0
M  V30 9046 H 844.974 0.485305 -0.453183 0
M  V30 9047 H 847.504 0.998119 -1.78602 0
M  V30 9048 H 847.514 3.39888 -2.257 0
M  V30 9049 H 846.189 2.69395 -3.16859 0
M  V30 9050 H 844.766 3.41967 -1.48704 0
M  V30 9051 N 846.951 1.19563 1.02676 0
M  V30 9052 C 848.228 0.908857 1.73203 0
M  V30 9053 C 848.608 -0.584928 2.02834 0
M  V30 9054 O 847.956 -1.54372 1.68469 0
M  V30 9055 C 848.166 1.77105 3.00724 0
M  V30 9056 C 849.514 2.00667 3.7419 0
M  V30 9057 O 850.538 1.74274 3.10656 0
M  V30 9058 O 849.397 2.4518 4.88415 0
M  V30 9059 H 846.491 0.338909 0.754367 0
M  V30 9060 H 849.037 1.30387 1.08616 0
M  V30 9061 H 847.809 2.78303 2.7507 0
M  V30 9062 H 847.432 1.37546 3.73051 0
M  V30 9063 N 848.429 -1.21819 0.999893 0
M  V30 9064 C 849.669 -1.92473 0.687996 0
M  V30 9065 C 850.033 -1.76033 -0.766569 0
M  V30 9066 O 851.234 -2.41013 -1.19021 0
M  V30 9067 C 849.505 -3.40332 1.09129 0
M  V30 9068 S 851.064 -4.29496 0.898822 0
M  V30 9069 H 847.882 -0.665097 0.251329 0
M  V30 9070 H 850.484 -1.47454 1.28364 0
M  V30 9071 H 849.188 -3.49812 2.14615 0
M  V30 9072 H 848.719 -3.90365 0.487724 0
M  V30 9073 H 850.734 -4.95769 -0.206873 0
M  V30 9074 N 849.908 -0.773975 -1.37286 0
M  V30 9075 C 851.154 -0.348833 -2.00386 0
M  V30 9076 C 851.509 1.06347 -1.60337 0
M  V30 9077 O 850.802 1.72178 -0.840545 0
M  V30 9078 C 850.996 -0.432651 -3.54772 0
M  V30 9079 C 850.825 -1.85155 -4.09814 0
M  V30 9080 C 849.595 -2.47272 -4.40664 0
M  V30 9081 C 851.793 -2.8114 -4.30656 0
M  V30 9082 N 849.775 -3.80912 -4.81435 0
M  V30 9083 C 851.146 -3.99582 -4.74061 0
M  V30 9084 C 853.201 -2.78398 -4.12794 0
M  V30 9085 C 851.904 -5.1567 -5.01475 0
M  V30 9086 C 853.93 -3.9366 -4.41345 0
M  V30 9087 C 853.292 -5.10844 -4.84992 0
M  V30 9088 H 849.391 -0.174738 -0.762227 0
M  V30 9089 H 851.975 -1.00828 -1.66559 0
M  V30 9090 H 850.146 0.19663 -3.87902 0
M  V30 9091 H 851.878 0.0147601 -4.04697 0
M  V30 9092 H 848.633 -1.98872 -4.29822 0
M  V30 9093 H 849.057 -4.49628 -5.06126 0
M  V30 9094 H 853.699 -1.8897 -3.7822 0
M  V30 9095 H 851.417 -6.05696 -5.34938 0
M  V30 9096 H 855.003 -3.92882 -4.2911 0
M  V30 9097 H 853.883 -5.98553 -5.0666 0
M  V30 9098 N 851.386 1.48609 -0.524698 0
M  V30 9099 C 852.635 2.01696 0.0132937 0
M  V30 9100 C 852.948 1.40751 1.35825 0
M  V30 9101 O 854.154 1.85304 1.9843 0
M  V30 9102 C 852.61 3.59824 0.0741012 0
M  V30 9103 C 852.218 4.2975 -1.26564 0
M  V30 9104 C 853.962 4.20774 0.5612 0
M  V30 9105 C 851.869 5.79798 -1.16571 0
M  V30 9106 H 850.799 0.753949 0.00873931 0
M  V30 9107 H 853.45 1.70922 -0.667684 0
M  V30 9108 H 851.832 3.87416 0.820043 0
M  V30 9109 H 853.006 4.13836 -2.02674 0
M  V30 9110 H 851.321 3.80649 -1.68806 0
M  V30 9111 H 853.918 5.30687 0.653853 0
M  V30 9112 H 854.261 3.85734 1.56573 0
M  V30 9113 H 854.794 3.97591 -0.128901 0
M  V30 9114 H 851.533 6.19403 -2.14523 0
M  V30 9115 H 851.053 5.9814 -0.445894 0
M  V30 9116 H 852.732 6.41337 -0.854186 0
M  V30 9117 N 852.864 0.259585 1.55447 0
M  V30 9118 C 854.094 -0.364863 2.03353 0
M  V30 9119 C 854.502 -1.5116 1.13786 0
M  V30 9120 O 853.845 -1.83109 0.147283 0
M  V30 9121 C 853.907 -0.922587 3.4746 0
M  V30 9122 C 853.571 0.0935207 4.56904 0
M  V30 9123 C 854.568 0.907571 5.11917 0
M  V30 9124 C 852.253 0.223276 5.01804 0
M  V30 9125 C 854.247 1.83771 6.10333 0
M  V30 9126 C 851.934 1.15691 6.00049 0
M  V30 9127 C 852.932 1.96264 6.54194 0
M  V30 9128 O 852.62 2.88052 7.50521 0
M  V30 9129 H 852.352 -0.0893313 0.670072 0
M  V30 9130 H 854.906 0.384821 2.01763 0
M  V30 9131 H 853.136 -1.72206 3.4624 0
M  V30 9132 H 854.825 -1.45846 3.78792 0
M  V30 9133 H 855.591 0.817979 4.78052 0
M  V30 9134 H 851.47 -0.393834 4.59315 0
M  V30 9135 H 855.014 2.46703 6.52521 0
M  V30 9136 H 850.911 1.24738 6.33333 0
M  V30 9137 H 851.679 2.82557 7.68182 0
M  V30 9138 N 854.342 -1.57594 -0.0133615 0
M  V30 9139 C 855.289 -2.07574 -1.00905 0
M  V30 9140 C 856.259 -0.968231 -1.34961 0
M  V30 9141 O 857.444 -1.23981 -1.45028 0
M  V30 9142 C 854.584 -2.5728 -2.30002 0
M  V30 9143 C 853.697 -3.81881 -2.01967 0
M  V30 9144 C 852.832 -4.20139 -3.25049 0
M  V30 9145 C 851.871 -5.37614 -2.92639 0
M  V30 9146 N 851.008 -5.71229 -4.08218 0
M  V30 9147 H 855.848 -2.92382 -0.575899 0
M  V30 9148 H 853.385 -1.4455 -0.272722 0
M  V30 9149 H 855.343 -2.84171 -3.05454 0
M  V30 9150 H 853.973 -1.75365 -2.71011 0
M  V30 9151 H 853.025 -3.61979 -1.16942 0
M  V30 9152 H 854.337 -4.67441 -1.74069 0
M  V30 9153 H 853.491 -4.48242 -4.08857 0
M  V30 9154 H 852.23 -3.33262 -3.56073 0
M  V30 9155 H 851.235 -5.09248 -2.07235 0
M  V30 9156 H 852.46 -6.26157 -2.62876 0
M  V30 9157 H 850.406 -4.8731 -4.39164 0
M  V30 9158 H 850.323 -6.51333 -3.83799 0
M  V30 9159 H 851.591 -6.03917 -4.92854 0
M  V30 9160 N 855.82 0.285905 -1.54985 0
M  V30 9161 C 857.066 1.01669 -1.76168 0
M  V30 9162 C 857.421 1.84401 -0.549019 0
M  V30 9163 O 856.714 1.86034 0.458463 0
M  V30 9164 C 856.908 1.94193 -3.0004 0
M  V30 9165 C 856.737 1.20565 -4.33237 0
M  V30 9166 C 855.507 0.92661 -4.96731 0
M  V30 9167 C 857.705 0.602514 -5.10759 0
M  V30 9168 N 855.687 0.162185 -6.13686 0
M  V30 9169 C 857.058 -0.0283843 -6.19994 0
M  V30 9170 C 859.113 0.509067 -4.95291 0
M  V30 9171 C 857.816 -0.743706 -7.15445 0
M  V30 9172 C 859.842 -0.192633 -5.91086 0
M  V30 9173 C 859.204 -0.812321 -6.997 0
M  V30 9174 H 855.303 0.354451 -0.697057 0
M  V30 9175 H 857.887 0.293693 -1.92472 0
M  V30 9176 H 856.058 2.6373 -2.85133 0
M  V30 9177 H 857.79 2.60536 -3.09682 0
M  V30 9178 H 854.545 1.22861 -4.57386 0
M  V30 9179 H 854.969 -0.206982 -6.76684 0
M  V30 9180 H 859.611 0.973856 -4.11432 0
M  V30 9181 H 857.329 -1.22022 -7.98834 0
M  V30 9182 H 860.915 -0.265082 -5.81196 0
M  V30 9183 H 859.795 -1.34665 -7.72551 0
M  V30 9184 N 857.298 1.47698 0.54982 0
M  V30 9185 C 858.208 1.63386 1.68351 0
M  V30 9186 C 859.224 0.516583 1.66155 0
M  V30 9187 O 860.4 0.785088 1.85468 0
M  V30 9188 C 857.465 1.6513 3.04849 0
M  V30 9189 C 856.526 2.88338 3.18056 0
M  V30 9190 C 855.759 2.8999 4.48042 0
M  V30 9191 O 855.982 2.00633 5.3395 0
M  V30 9192 O 854.916 3.81938 4.65196 0
M  V30 9193 H 858.742 2.59329 1.58057 0
M  V30 9194 H 856.327 1.30869 0.72067 0
M  V30 9195 H 858.209 1.68913 3.86065 0
M  V30 9196 H 856.884 0.723555 3.1551 0
M  V30 9197 H 855.791 2.90097 2.36209 0
M  V30 9198 H 857.124 3.80431 3.12302 0
M  V30 9199 N 858.776 -0.797141 1.35954 0
M  V30 9200 C 860.053 -1.54224 1.2031 0
M  V30 9201 C 860.433 -2.10013 -0.213926 0
M  V30 9202 O 859.781 -1.93292 -1.21862 0
M  V30 9203 C 859.991 -2.6433 2.27883 0
M  V30 9204 C 861.339 -3.32418 2.64165 0
M  V30 9205 O 862.363 -2.74607 2.26868 0
M  V30 9206 O 861.222 -4.36876 3.28331 0
M  V30 9207 H 858.316 -0.681857 0.467974 0
M  V30 9208 H 860.862 -0.836288 1.47663 0
M  V30 9209 H 859.634 -2.21044 3.22885 0
M  V30 9210 H 859.257 -3.42551 2.01853 0
M  V30 9211 N 860.254 -1.20106 -1.0204 0
M  V30 9212 C 861.67 -0.955099 -1.27867 0
M  V30 9213 C 861.87 0.367595 -1.98119 0
M  V30 9214 O 860.926 1.09705 -2.27423 0
M  V30 9215 C 862.239 -2.13507 -2.11744 0
M  V30 9216 C 863.787 -2.17563 -2.25023 0
M  V30 9217 C 864.262 -3.35035 -3.12275 0
M  V30 9218 N 865.753 -3.35024 -3.19864 0
M  V30 9219 C 866.488 -4.22566 -3.8759 0
M  V30 9220 N 865.984 -5.20278 -4.57474 0
M  V30 9221 N 867.777 -4.10418 -3.84075 0
M  V30 9222 H 859.928 -2.05193 -0.54861 0
M  V30 9223 H 862.191 -0.897689 -0.304728 0
M  V30 9224 H 861.897 -3.09275 -1.67456 0
M  V30 9225 H 861.771 -2.11281 -3.12474 0
M  V30 9226 H 864.158 -1.22359 -2.68537 0
M  V30 9227 H 864.239 -2.23838 -1.23815 0
M  V30 9228 H 863.883 -4.30522 -2.69468 0
M  V30 9229 H 863.813 -3.25996 -4.13563 0
M  V30 9230 H 866.304 -2.64299 -2.701 0
M  V30 9231 H 866.617 -5.83408 -5.06809 0
M  V30 9232 H 864.962 -5.24219 -4.56311 0
M  V30 9233 H 868.153 -3.33353 -3.28623 0
M  V30 9234 H 868.326 -4.78854 -4.36581 0
M  V30 9235 N 861.732 1.21287 -1.00634 0
M  V30 9236 C 863.143 1.72136 -0.722914 0
M  V30 9237 C 863.494 1.8091 0.759338 0
M  V30 9238 O 862.619 1.46458 1.59308 0
M  V30 9239 C 863.214 3.12633 -1.30561 0
M  V30 9240 C 861.773 3.60833 -1.07127 0
M  V30 9241 C 860.92 2.38326 -1.4176 0
M  V30 9242 H 863.871 1.06445 -1.17708 0
M  V30 9243 H 863.892 3.74174 -0.690937 0
M  V30 9244 H 863.404 3.06215 -2.38441 0
M  V30 9245 H 861.505 3.72599 -0.00968671 0
M  V30 9246 H 861.618 4.46226 -1.74411 0
M  V30 9247 H 859.982 2.40575 -0.836412 0
M  V30 9248 H 860.765 2.34558 -2.50674 0
M  V30 9249 N 863.21 0.781244 1.36873 0
M  V30 9250 C 864.487 0.274217 1.93668 0
M  V30 9251 C 864.867 -1.2323 1.71399 0
M  V30 9252 O 864.215 -2.01993 1.06822 0
M  V30 9253 C 864.425 0.657939 3.42742 0
M  V30 9254 C 865.773 0.63307 4.19854 0
M  V30 9255 O 866.797 0.597909 3.51146 0
M  V30 9256 O 865.656 0.668636 5.42394 0
M  V30 9257 H 862.75 0.0658059 0.824378 0
M  V30 9258 H 865.296 0.863238 1.46104 0
M  V30 9259 H 864.068 1.69728 3.52573 0
M  V30 9260 H 863.691 0.0423678 3.97577 0
M  V30 9261 N 864.689 -1.48329 0.532571 0
M  V30 9262 C 865.936 -2.025 -0.000582356 0
M  V30 9263 C 866.264 -1.40942 -1.34036 0
M  V30 9264 O 865.519 -0.545545 -1.87942 0
M  V30 9265 C 865.818 -3.57 -0.168943 0
M  V30 9266 C 865.484 -4.37357 1.0968 0
M  V30 9267 C 864.146 -4.59033 1.44369 0
M  V30 9268 C 866.498 -4.83882 1.93669 0
M  V30 9269 C 863.826 -5.24481 2.62939 0
M  V30 9270 C 866.178 -5.50637 3.11419 0
M  V30 9271 C 864.842 -5.70551 3.46451 0
M  V30 9272 H 864.112 -0.741 -0.000213099 0
M  V30 9273 H 866.759 -1.78282 0.699117 0
M  V30 9274 H 865.064 -3.80072 -0.951429 0
M  V30 9275 H 866.761 -3.9654 -0.596422 0
M  V30 9276 H 863.351 -4.20748 0.816655 0
M  V30 9277 H 867.535 -4.66936 1.6818 0
M  V30 9278 H 862.791 -5.38096 2.9028 0
M  V30 9279 H 866.965 -5.85655 3.76803 0
M  V30 9280 H 864.592 -6.21037 4.38425 0
M  V30 9281 N 866.167 -0.267825 -1.55308 0
M  V30 9282 C 867.097 0.616585 -2.25212 0
M  V30 9283 C 868.078 1.16472 -1.23969 0
M  V30 9284 O 869.263 1.20021 -1.52672 0
M  V30 9285 C 866.393 1.80412 -2.96764 0
M  V30 9286 C 865.347 1.38784 -4.04874 0
M  V30 9287 C 864.673 2.65789 -4.63961 0
M  V30 9288 C 865.973 0.543415 -5.19465 0
M  V30 9289 H 867.667 0.0336257 -2.99381 0
M  V30 9290 H 865.213 0.0147328 -1.43992 0
M  V30 9291 H 867.166 2.42866 -3.44375 0
M  V30 9292 H 865.89 2.4128 -2.20118 0
M  V30 9293 H 864.549 0.786541 -3.58063 0
M  V30 9294 H 864.197 3.24899 -3.83992 0
M  V30 9295 H 863.897 2.38651 -5.36954 0
M  V30 9296 H 865.421 3.29104 -5.14318 0
M  V30 9297 H 866.835 1.07277 -5.63174 0
M  V30 9298 H 865.232 0.367219 -5.98975 0
M  V30 9299 H 866.302 -0.439534 -4.82904 0
M  V30 9300 N 867.645 1.57599 0.00500368 0
M  V30 9301 C 868.873 1.94626 0.702016 0
M  V30 9302 C 869.288 0.86953 1.67585 0
M  V30 9303 O 868.645 -0.15199 1.81866 0
M  V30 9304 C 868.696 3.31658 1.43824 0
M  V30 9305 O 868.417 4.35197 0.503467 0
M  V30 9306 C 869.918 3.83114 2.23021 0
M  V30 9307 H 867.138 0.641785 0.195841 0
M  V30 9308 H 869.682 2.04451 -0.0446287 0
M  V30 9309 H 867.837 3.23156 2.13655 0
M  V30 9310 H 868.251 5.1444 1.02235 0
M  V30 9311 H 869.725 4.81438 2.7004 0
M  V30 9312 H 870.202 3.15559 3.05482 0
M  V30 9313 H 870.808 3.94775 1.58216 0
M  V30 9314 N 869.123 -0.277682 1.55134 0
M  V30 9315 C 870.369 -1.0114 1.7578 0
M  V30 9316 C 870.702 -1.86109 0.554719 0
M  V30 9317 O 869.977 -1.89275 -0.447813 0
M  V30 9318 C 870.26 -1.89789 3.06027 0
M  V30 9319 C 870.113 -1.07844 4.3668 0
M  V30 9320 C 871.432 -2.88577 3.32282 0
M  V30 9321 H 868.551 -0.366277 0.639539 0
M  V30 9322 H 871.193 -0.284155 1.87863 0
M  V30 9323 H 869.343 -2.51796 2.95856 0
M  V30 9324 H 871.015 -0.479432 4.58802 0
M  V30 9325 H 869.258 -0.381764 4.32117 0
M  V30 9326 H 869.929 -1.73179 5.24131 0
M  V30 9327 H 872.405 -2.36702 3.42215 0
M  V30 9328 H 871.281 -3.47749 4.2469 0
M  V30 9329 H 871.542 -3.63458 2.51696 0
M  V30 9330 N 870.601 -1.47988 -0.541979 0
M  V30 9331 C 871.511 -1.64276 -1.67483 0
M  V30 9332 C 872.527 -0.525387 -1.65879 0
M  V30 9333 O 873.703 -0.794912 -1.85049 0
M  V30 9334 C 870.768 -1.66744 -3.03969 0
M  V30 9335 C 869.829 -2.90021 -3.16522 0
M  V30 9336 C 869.062 -2.92362 -4.46498 0
M  V30 9337 O 869.285 -2.03462 -5.32878 0
M  V30 9338 O 868.219 -3.84399 -4.63164 0
M  V30 9339 H 872.045 -2.60164 -1.5668 0
M  V30 9340 H 869.63 -1.31249 -0.71372 0
M  V30 9341 H 871.512 -1.70958 -3.85164 0
M  V30 9342 H 870.187 -0.740277 -3.15122 0
M  V30 9343 H 869.094 -2.91345 -2.34667 0
M  V30 9344 H 870.427 -3.82082 -3.10281 0
M  V30 9345 N 872.079 0.78992 -1.36375 0
M  V30 9346 C 873.011 1.91113 -1.26524 0
M  V30 9347 C 874.024 1.61747 -0.184851 0
M  V30 9348 O 875.213 1.73004 -0.439524 0
M  V30 9349 C 872.313 3.25908 -0.92937 0
M  V30 9350 C 871.486 3.83057 -2.11154 0
M  V30 9351 C 870.545 4.96289 -1.74881 0
M  V30 9352 O 869.571 5.12834 -2.46962 0
M  V30 9353 N 870.773 5.76478 -0.682193 0
M  V30 9354 H 873.538 2.00085 -2.23128 0
M  V30 9355 H 871.099 0.968165 -1.29762 0
M  V30 9356 H 873.091 3.99151 -0.667884 0
M  V30 9357 H 871.661 3.12556 -0.0524843 0
M  V30 9358 H 870.881 3.01808 -2.53586 0
M  V30 9359 H 872.169 4.1797 -2.90135 0
M  V30 9360 H 871.567 5.65638 -0.0836661 0
M  V30 9361 H 870.124 6.50026 -0.480529 0
M  V30 9362 N 873.557 1.20646 1.01402 0
M  V30 9363 C 874.973 0.961866 1.27359 0
M  V30 9364 C 875.173 -0.357083 1.98311 0
M  V30 9365 O 874.229 -1.08498 2.28001 0
M  V30 9366 C 875.542 2.14627 2.10609 0
M  V30 9367 C 877.09 2.18753 2.23866 0
M  V30 9368 C 877.565 3.36686 3.10494 0
M  V30 9369 N 879.056 3.36716 3.18083 0
M  V30 9370 C 879.791 4.24615 3.85343 0
M  V30 9371 N 879.287 5.22697 4.54708 0
M  V30 9372 N 881.08 4.12449 3.81893 0
M  V30 9373 H 873.231 2.05481 0.537721 0
M  V30 9374 H 875.494 0.899292 0.299963 0
M  V30 9375 H 875.2 3.10159 1.65814 0
M  V30 9376 H 875.074 2.12935 3.11349 0
M  V30 9377 H 877.461 1.23782 2.67885 0
M  V30 9378 H 877.542 2.24492 1.22626 0
M  V30 9379 H 877.186 4.31945 2.67181 0
M  V30 9380 H 877.116 3.28185 4.11828 0
M  V30 9381 H 879.607 2.65728 2.68695 0
M  V30 9382 H 879.92 5.86087 5.03708 0
M  V30 9383 H 878.265 5.26631 4.53525 0
M  V30 9384 H 881.456 3.35091 3.26851 0
M  V30 9385 H 881.629 4.81162 4.34035 0
M  V30 9386 N 875.035 -1.20752 1.01276 0
M  V30 9387 C 875.968 -2.22091 0.524472 0
M  V30 9388 C 876.946 -1.5692 -0.426017 0
M  V30 9389 O 878.13 -1.8528 -0.346919 0
M  V30 9390 C 875.257 -3.37868 -0.237224 0
M  V30 9391 C 874.303 -4.21327 0.662236 0
M  V30 9392 S 875.136 -4.91352 2.12916 0
M  V30 9393 C 876.292 -6.10553 1.37752 0
M  V30 9394 H 876.525 -2.63166 1.38315 0
M  V30 9395 H 874.058 -1.30742 0.821332 0
M  V30 9396 H 876.016 -4.04985 -0.670599 0
M  V30 9397 H 874.677 -2.95261 -1.07143 0
M  V30 9398 H 873.87 -5.03944 0.0751085 0
M  V30 9399 H 873.472 -3.59445 1.03322 0
M  V30 9400 H 875.764 -6.74322 0.655491 0
M  V30 9401 H 876.707 -6.73717 2.17969 0
M  V30 9402 H 877.115 -5.57566 0.882088 0
M  V30 9403 N 876.513 -0.788492 -1.36457 0
M  V30 9404 C 877.929 -0.470063 -1.52521 0
M  V30 9405 C 878.129 1.01176 -1.74258 0
M  V30 9406 O 877.185 1.79726 -1.77355 0
M  V30 9407 C 878.498 -1.2997 -2.71161 0
M  V30 9408 C 880.046 -1.2933 -2.85031 0
M  V30 9409 C 880.521 -2.10665 -4.06674 0
M  V30 9410 N 882.012 -2.08107 -4.13819 0
M  V30 9411 C 882.747 -2.6781 -5.07016 0
M  V30 9412 N 882.243 -3.36369 -6.05663 0
M  V30 9413 N 884.036 -2.57549 -4.99625 0
M  V30 9414 H 876.187 -1.7484 -1.20602 0
M  V30 9415 H 878.45 -0.743159 -0.588574 0
M  V30 9416 H 878.156 -2.35051 -2.61618 0
M  V30 9417 H 878.03 -0.940367 -3.6529 0
M  V30 9418 H 880.417 -0.250414 -2.94036 0
M  V30 9419 H 880.498 -1.69239 -1.91812 0
M  V30 9420 H 880.142 -3.14984 -3.98431 0
M  V30 9421 H 880.072 -1.68128 -4.9904 0
M  V30 9422 H 882.563 -1.58208 -3.43189 0
M  V30 9423 H 882.876 -3.79258 -6.73338 0
M  V30 9424 H 881.221 -3.40471 -6.05891 0
M  V30 9425 H 884.412 -2.0359 -4.21508 0
M  V30 9426 H 884.585 -3.0437 -5.72069 0
M  V30 9427 N 877.991 1.48044 -0.54043 0
M  V30 9428 C 878.954 2.28273 0.205966 0
M  V30 9429 C 879.954 1.35983 0.858209 0
M  V30 9430 O 881.144 1.58776 0.716651 0
M  V30 9431 C 878.276 3.15174 1.29917 0
M  V30 9432 H 879.469 2.95727 -0.498555 0
M  V30 9433 H 877.022 1.53457 -0.296745 0
M  V30 9434 H 877.757 2.52374 2.03661 0
M  V30 9435 H 877.542 3.83074 0.836475 0
M  V30 9436 H 879.032 3.75666 1.82387 0
M  V30 9437 N 879.47 0.276058 1.55163 0
M  V30 9438 C 880.71 -0.341634 2.01525 0
M  V30 9439 C 881.074 -1.52979 1.16023 0
M  V30 9440 O 882.275 -2.21718 1.51968 0
M  V30 9441 C 880.546 -0.713294 3.5021 0
M  V30 9442 S 882.105 -1.31739 4.18558 0
M  V30 9443 H 878.923 -0.1062 0.703024 0
M  V30 9444 H 881.525 0.398112 1.91404 0
M  V30 9445 H 880.229 0.160311 4.10087 0
M  V30 9446 H 879.76 -1.48448 3.64317 0
M  V30 9447 H 881.775 -2.60595 4.22261 0
M  V30 9448 N 880.948 -1.576 0.00335426 0
M  V30 9449 C 882.178 -1.94713 -0.690682 0
M  V30 9450 C 882.586 -0.876915 -1.67651 0
M  V30 9451 O 881.929 0.152434 -1.83066 0
M  V30 9452 C 881.991 -3.27833 -1.47532 0
M  V30 9453 C 881.655 -4.52344 -0.650704 0
M  V30 9454 C 882.652 -5.19862 0.0630537 0
M  V30 9455 C 880.337 -4.98755 -0.595687 0
M  V30 9456 C 882.331 -6.32093 0.820779 0
M  V30 9457 C 880.018 -6.10875 0.165761 0
M  V30 9458 C 881.016 -6.77401 0.872724 0
M  V30 9459 O 880.704 -7.87372 1.62174 0
M  V30 9460 H 880.436 -0.646627 -0.197104 0
M  V30 9461 H 882.99 -2.05335 0.0516082 0
M  V30 9462 H 881.22 -3.13628 -2.26217 0
M  V30 9463 H 882.909 -3.50034 -2.05501 0
M  V30 9464 H 883.675 -4.84991 0.0297223 0
M  V30 9465 H 879.554 -4.46797 -1.13549 0
M  V30 9466 H 883.098 -6.83953 1.37312 0
M  V30 9467 H 878.995 -6.45187 0.200901 0
M  V30 9468 H 879.763 -8.03905 1.5388 0
M  V30 9469 N 882.426 0.269451 -1.5528 0
M  V30 9470 C 883.656 1.01724 -1.79821 0
M  V30 9471 C 884.064 1.80298 -0.573532 0
M  V30 9472 O 883.407 1.77666 0.466963 0
M  V30 9473 C 883.469 2.02043 -2.97353 0
M  V30 9474 C 883.133 1.42375 -4.34256 0
M  V30 9475 C 884.13 0.837611 -5.13108 0
M  V30 9476 C 881.815 1.44988 -4.8092 0
M  V30 9477 C 883.809 0.285557 -6.3676 0
M  V30 9478 C 881.496 0.893969 -6.04526 0
M  V30 9479 C 882.494 0.312809 -6.82283 0
M  V30 9480 O 882.182 -0.234582 -8.03558 0
M  V30 9481 H 881.914 0.30604 -0.602757 0
M  V30 9482 H 884.468 0.30454 -2.0313 0
M  V30 9483 H 882.698 2.77082 -2.69745 0
M  V30 9484 H 884.387 2.6298 -3.09187 0
M  V30 9485 H 885.153 0.81009 -4.78187 0
M  V30 9486 H 881.032 1.89162 -4.20403 0
M  V30 9487 H 884.576 -0.168696 -6.97396 0
M  V30 9488 H 880.473 0.918742 -6.38928 0
M  V30 9489 H 881.241 -0.124282 -8.18406 0
M  V30 9490 N 883.904 1.48273 0.534124 0
M  V30 9491 C 885.129 1.59988 1.31979 0
M  V30 9492 C 885.554 0.258824 1.86311 0
M  V30 9493 O 884.912 -0.768885 1.64188 0
M  V30 9494 C 884.96 2.64642 2.44943 0
M  V30 9495 O 884.064 2.21515 3.47858 0
M  V30 9496 H 883.405 0.536625 0.391063 0
M  V30 9497 H 885.935 1.94229 0.643135 0
M  V30 9498 H 885.945 2.85786 2.91187 0
M  V30 9499 H 884.62 3.62004 2.04758 0
M  V30 9500 H 883.197 2.10567 3.0776 0
M  V30 9501 N 885.382 -0.782676 1.36792 0
M  V30 9502 C 886.312 -1.90973 1.34356 0
M  V30 9503 C 887.293 -1.6875 0.213917 0
M  V30 9504 O 888.478 -1.89766 0.412601 0
M  V30 9505 C 885.608 -3.28097 1.13884 0
M  V30 9506 C 884.562 -3.6486 2.23744 0
M  V30 9507 C 883.888 -5.00406 1.88408 0
M  V30 9508 C 885.188 -3.72742 3.6587 0
M  V30 9509 H 886.882 -1.93268 2.28665 0
M  V30 9510 H 884.428 -0.928447 1.10072 0
M  V30 9511 H 886.381 -4.06569 1.10813 0
M  V30 9512 H 885.105 -3.26206 0.160275 0
M  V30 9513 H 883.764 -2.88689 2.25952 0
M  V30 9514 H 883.412 -4.95044 0.891083 0
M  V30 9515 H 883.112 -5.25973 2.61966 0
M  V30 9516 H 884.636 -5.81291 1.86905 0
M  V30 9517 H 886.05 -4.4139 3.65852 0
M  V30 9518 H 884.447 -4.09798 4.38389 0
M  V30 9519 H 885.517 -2.73676 4.00287 0
M  V30 9520 N 886.86 -1.21182 -1.00761 0
M  V30 9521 C 887.823 -0.970339 -2.07646 0
M  V30 9522 C 888.823 0.0576345 -1.60697 0
M  V30 9523 O 890.013 -0.179369 -1.73274 0
M  V30 9524 C 887.145 -0.462703 -3.37745 0
M  V30 9525 H 888.338 -1.91856 -2.30502 0
M  V30 9526 H 885.891 -1.02844 -1.17698 0
M  V30 9527 H 886.626 0.490559 -3.20568 0
M  V30 9528 H 886.411 -1.20416 -3.73152 0
M  V30 9529 H 887.901 -0.313531 -4.16421 0
M  V30 9530 N 888.338 1.20213 -1.01915 0
M  V30 9531 C 889.563 1.94163 -0.729076 0
M  V30 9532 C 889.988 1.74416 0.704323 0
M  V30 9533 O 889.346 1.0401 1.48498 0
M  V30 9534 C 889.394 3.44258 -1.07324 0
M  V30 9535 O 888.498 4.11979 -0.186367 0
M  V30 9536 H 887.839 0.606506 -0.270272 0
M  V30 9537 H 890.369 1.52571 -1.3632 0
M  V30 9538 H 890.379 3.94888 -1.02603 0
M  V30 9539 H 889.054 3.57954 -2.11759 0
M  V30 9540 H 887.631 3.7176 -0.291334 0
M  V30 9541 N 889.816 0.795718 1.36037 0
M  V30 9542 C 890.763 0.196548 2.29962 0
M  V30 9543 C 891.733 -0.663213 1.52285 0
M  V30 9544 O 892.918 -0.610574 1.80767 0
M  V30 9545 C 890.058 -0.657639 3.38776 0
M  V30 9546 C 889.171 0.221358 4.31433 0
M  V30 9547 C 888.306 -0.6398 5.27333 0
M  V30 9548 C 887.345 0.240265 6.11628 0
M  V30 9549 N 886.482 -0.580237 6.99698 0
M  V30 9550 H 891.322 1.00295 2.80615 0
M  V30 9551 H 888.859 0.506147 1.38118 0
M  V30 9552 H 890.817 -1.16793 4.00519 0
M  V30 9553 H 889.447 -1.42941 2.89426 0
M  V30 9554 H 888.499 0.84967 3.70789 0
M  V30 9555 H 889.811 0.899195 4.90628 0
M  V30 9556 H 888.965 -1.21566 5.94396 0
M  V30 9557 H 887.704 -1.35124 4.68607 0
M  V30 9558 H 886.709 0.828474 5.43522 0
M  V30 9559 H 887.934 0.949403 6.72431 0
M  V30 9560 H 885.88 -1.27585 6.43473 0
M  V30 9561 H 885.797 0.0397853 7.5599 0
M  V30 9562 H 887.065 -1.13972 7.71123 0
M  V30 9563 N 891.294 -1.47756 0.548274 0
M  V30 9564 C 892.54 -2.02789 0.0209265 0
M  V30 9565 C 892.873 -1.42268 -1.32187 0
M  V30 9566 O 892.148 -0.575001 -1.85806 0
M  V30 9567 C 892.431 -3.60007 -0.0816674 0
M  V30 9568 C 892.284 -4.30977 1.28759 0
M  V30 9569 C 893.603 -4.32777 -0.799515 0
M  V30 9570 H 890.722 -0.736944 0.00907884 0
M  V30 9571 H 893.364 -1.76282 0.708839 0
M  V30 9572 H 891.514 -3.82722 -0.667537 0
M  V30 9573 H 893.186 -4.19629 1.91597 0
M  V30 9574 H 891.429 -3.9168 1.86466 0
M  V30 9575 H 892.1 -5.39488 1.16861 0
M  V30 9576 H 894.576 -4.15001 -0.30216 0
M  V30 9577 H 893.452 -5.42431 -0.840239 0
M  V30 9578 H 893.713 -4.01358 -1.85375 0
M  V30 9579 N 892.772 -0.284283 -1.55015 0
M  V30 9580 C 893.682 0.60906 -2.26556 0
M  V30 9581 C 894.698 1.16246 -1.29472 0
M  V30 9582 O 895.874 1.1908 -1.62425 0
M  V30 9583 C 892.939 1.77246 -2.97968 0
M  V30 9584 C 892 1.25482 -4.10552 0
M  V30 9585 C 891.233 2.36277 -4.78549 0
M  V30 9586 O 891.456 3.55829 -4.45805 0
M  V30 9587 O 890.39 2.03914 -5.66306 0
M  V30 9588 H 894.216 0.0292298 -3.03686 0
M  V30 9589 H 891.801 -0.0513466 -1.49312 0
M  V30 9590 H 893.683 2.45062 -3.42815 0
M  V30 9591 H 892.358 2.33921 -2.23747 0
M  V30 9592 H 891.265 0.542859 -3.7014 0
M  V30 9593 H 892.598 0.733708 -4.86701 0
M  V30 9594 N 894.251 1.57596 -0.0117121 0
M  V30 9595 C 895.499 1.90694 0.669342 0
M  V30 9596 C 895.82 0.886999 1.73659 0
M  V30 9597 O 895.09 -0.0739779 1.9576 0
M  V30 9598 H 893.67 0.703846 0.250219 0
M  V30 9599 H 896.332 1.94821 -0.0554057 0
M  V30 9600 H 895.428 2.90802 1.13316 0
M  V30 9601 N 895.729 -0.261212 1.5542 0
M  V30 9602 C 897.14 -0.83138 1.67167 0
M  V30 9603 C 897.491 -1.8659 0.606525 0
M  V30 9604 O 896.616 -2.14953 -0.24985 0
M  V30 9605 C 897.211 -1.51475 3.03052 0
M  V30 9606 C 895.77 -2.0328 3.16787 0
M  V30 9607 C 894.917 -0.878903 2.63003 0
M  V30 9608 H 897.868 -0.0373102 1.58656 0
M  V30 9609 H 897.889 -2.38222 2.96699 0
M  V30 9610 H 897.401 -0.76157 3.80554 0
M  V30 9611 H 895.502 -2.81523 2.44082 0
M  V30 9612 H 895.615 -2.24001 4.2351 0
M  V30 9613 H 893.979 -1.27551 2.2046 0
M  V30 9614 H 894.762 -0.13904 3.43018 0
M  V30 9615 N 897.207 -1.48554 -0.526253 0
M  V30 9616 C 898.618 -1.50256 -1.10815 0
M  V30 9617 C 898.969 -0.274445 -1.94271 0
M  V30 9618 O 898.094 0.618094 -2.07385 0
M  V30 9619 C 898.689 -2.72264 -2.01638 0
M  V30 9620 C 897.248 -2.76826 -2.55038 0
M  V30 9621 C 896.395 -2.43823 -1.32081 0
M  V30 9622 H 899.346 -1.55616 -0.31133 0
M  V30 9623 H 899.367 -2.50993 -2.85977 0
M  V30 9624 H 898.879 -3.61632 -1.4087 0
M  V30 9625 H 896.98 -1.91676 -3.19517 0
M  V30 9626 H 897.093 -3.78351 -2.93917 0
M  V30 9627 H 895.457 -1.95058 -1.63781 0
M  V30 9628 H 896.24 -3.35436 -0.730596 0
M  V30 9629 N 898.685 0.775411 -1.37205 0
M  V30 9630 C 899.933 1.53081 -1.3195 0
M  V30 9631 C 900.254 1.9476 0.0966864 0
M  V30 9632 O 899.524 1.66019 1.03993 0
M  V30 9633 H 898.104 0.567762 -0.485444 0
M  V30 9634 H 900.766 0.92309 -1.71654 0
M  V30 9635 H 899.862 2.4319 -1.95614 0
M  V30 9636 N 900.163 1.21714 1.00117 0
M  V30 9637 C 901.388 1.06357 1.78054 0
M  V30 9638 C 901.813 -0.382075 1.84179 0
M  V30 9639 O 901.171 -1.27575 1.28819 0
M  V30 9640 C 901.219 1.66982 3.19608 0
M  V30 9641 O 900.323 0.917892 4.02055 0
M  V30 9642 H 899.664 0.374074 0.548602 0
M  V30 9643 H 902.194 1.61338 1.25822 0
M  V30 9644 H 902.204 1.71363 3.70268 0
M  V30 9645 H 900.879 2.72185 3.14465 0
M  V30 9646 H 899.456 0.949473 3.6061 0
M  V30 9647 N 901.641 -1.19671 1.02551 0
M  V30 9648 C 902.869 -1.93233 0.739513 0
M  V30 9649 C 903.284 -1.75298 -0.701158 0
M  V30 9650 O 902.641 -1.07269 -1.47647 0
M  V30 9651 C 902.692 -3.45085 1.07697 0
M  V30 9652 O 902.413 -3.62441 2.46106 0
M  V30 9653 C 903.914 -4.35776 0.813298 0
M  V30 9654 H 901.134 -0.613905 0.270853 0
M  V30 9655 H 903.678 -1.51909 1.36909 0
M  V30 9656 H 901.833 -3.84255 0.492635 0
M  V30 9657 H 902.247 -4.56337 2.58567 0
M  V30 9658 H 903.721 -5.40941 1.09941 0
M  V30 9659 H 904.198 -4.38474 -0.252359 0
M  V30 9660 H 904.804 -4.02282 1.38021 0
M  V30 9661 N 903.119 -0.802921 -1.35613 0
M  V30 9662 C 904.051 -0.168461 -2.2858 0
M  V30 9663 C 905.064 0.630123 -1.50111 0
M  V30 9664 O 906.253 0.463086 -1.72388 0
M  V30 9665 C 903.353 0.783943 -3.29708 0
M  V30 9666 C 902.526 0.0325165 -4.37388 0
M  V30 9667 C 901.585 0.902859 -5.18396 0
M  V30 9668 O 900.611 0.355144 -5.68091 0
M  V30 9669 N 901.813 2.22542 -5.36149 0
M  V30 9670 H 904.578 -0.96709 -2.83668 0
M  V30 9671 H 902.139 -0.658043 -1.47924 0
M  V30 9672 H 904.131 1.37034 -3.80794 0
M  V30 9673 H 902.701 1.48339 -2.75162 0
M  V30 9674 H 901.921 -0.735057 -3.87286 0
M  V30 9675 H 903.209 -0.485499 -5.06478 0
M  V30 9676 H 902.607 2.69439 -4.97412 0
M  V30 9677 H 901.164 2.76113 -5.90428 0
M  V30 9678 N 904.597 1.47463 -0.556102 0
M  V30 9679 C 905.544 2.29998 0.192213 0
M  V30 9680 C 906.514 1.38993 0.909403 0
M  V30 9681 O 907.699 1.67954 0.905316 0
M  V30 9682 C 904.839 3.22932 1.21692 0
M  V30 9683 C 903.952 4.29027 0.505908 0
M  V30 9684 C 903.087 5.09114 1.51581 0
M  V30 9685 C 902.126 6.06984 0.789714 0
M  V30 9686 N 901.263 6.80033 1.74639 0
M  V30 9687 H 906.103 2.93468 -0.517734 0
M  V30 9688 H 903.64 1.44654 -0.267147 0
M  V30 9689 H 905.598 3.75234 1.8236 0
M  V30 9690 H 904.228 2.61329 1.89491 0
M  V30 9691 H 903.28 3.7979 -0.215276 0
M  V30 9692 H 904.592 4.9876 -0.062958 0
M  V30 9693 H 903.746 5.6556 2.19606 0
M  V30 9694 H 902.485 4.3928 2.11859 0
M  V30 9695 H 901.49 5.49717 0.0955382 0
M  V30 9696 H 902.715 6.78827 0.192688 0
M  V30 9697 H 900.661 6.12931 2.33777 0
M  V30 9698 H 900.578 7.45933 1.22965 0
M  V30 9699 H 901.846 7.41054 2.41782 0
M  V30 9700 N 906.075 0.2925 1.54862 0
M  V30 9701 C 907.038 -0.574423 2.21885 0
M  V30 9702 C 908.038 -1.06791 1.20218 0
M  V30 9703 O 909.228 -0.9653 1.45009 0
M  V30 9704 C 906.36 -1.79438 2.89853 0
M  V30 9705 H 907.553 0.0110319 2.99898 0
M  V30 9706 H 905.106 0.043256 1.5624 0
M  V30 9707 H 905.841 -2.4199 2.15897 0
M  V30 9708 H 905.626 -1.44827 3.64373 0
M  V30 9709 H 907.116 -2.41048 3.41007 0
M  V30 9710 N 907.553 -1.57587 0.0200696 0
M  V30 9711 C 908.463 -2.13119 -0.980676 0
M  V30 9712 C 909.479 -1.08124 -1.36328 0
M  V30 9713 O 910.655 -1.40134 -1.44653 0
M  V30 9714 C 907.72 -2.63991 -2.24743 0
M  V30 9715 C 906.781 -3.83667 -1.9261 0
M  V30 9716 C 906.014 -4.32103 -3.13246 0
M  V30 9717 O 906.237 -3.79758 -4.25606 0
M  V30 9718 O 905.171 -5.24047 -2.96072 0
M  V30 9719 H 908.997 -2.98887 -0.538528 0
M  V30 9720 H 906.582 -1.48055 -0.19999 0
M  V30 9721 H 908.464 -2.9682 -2.99125 0
M  V30 9722 H 907.139 -1.81311 -2.68157 0
M  V30 9723 H 906.046 -3.55778 -1.15641 0
M  V30 9724 H 907.379 -4.67482 -1.54019 0
M  V30 9725 N 909.032 0.252966 -1.55557 0
M  V30 9726 C 909.995 1.29645 -1.8901 0
M  V30 9727 C 910.995 1.41378 -0.766096 0
M  V30 9728 O 912.185 1.40183 -1.03414 0
M  V30 9729 C 909.317 2.67504 -2.11316 0
M  V30 9730 H 910.51 1.01202 -2.82309 0
M  V30 9731 H 908.063 0.491977 -1.48355 0
M  V30 9732 H 908.798 3.01095 -1.20466 0
M  V30 9733 H 908.583 2.6037 -2.93172 0
M  V30 9734 H 910.073 3.42861 -2.38403 0
M  V30 9735 N 910.51 1.48831 0.518367 0
M  V30 9736 C 911.473 1.63721 1.604 0
M  V30 9737 C 912.473 0.509857 1.52503 0
M  V30 9738 O 913.663 0.775922 1.55965 0
M  V30 9739 C 910.795 1.61831 3.00039 0
M  V30 9740 H 911.988 2.60534 1.48533 0
M  V30 9741 H 909.541 1.37602 0.741309 0
M  V30 9742 H 910.276 0.665387 3.17401 0
M  V30 9743 H 910.061 2.43686 3.0718 0
M  V30 9744 H 911.551 1.75467 3.78947 0
M  V30 9745 N 911.988 -0.768124 1.37614 0
M  V30 9746 C 913.228 -1.53979 1.34424 0
M  V30 9747 C 913.592 -1.91874 -0.0696803 0
M  V30 9748 O 914.793 -2.67845 -0.22633 0
M  V30 9749 C 913.064 -2.76845 2.26034 0
M  V30 9750 S 914.623 -3.66871 2.4073 0
M  V30 9751 H 911.441 -0.527108 0.477157 0
M  V30 9752 H 914.043 -0.902945 1.73399 0
M  V30 9753 H 912.747 -2.47091 3.2768 0
M  V30 9754 H 912.278 -3.45486 1.88157 0
M  V30 9755 H 914.293 -4.6899 1.62057 0
M  V30 9756 N 913.466 -1.22244 -0.994698 0
M  V30 9757 C 914.429 -0.992308 -2.06606 0
M  V30 9758 C 915.429 0.0405872 -1.60749 0
M  V30 9759 O 916.619 -0.197737 -1.73074 0
M  V30 9760 C 913.751 -0.498499 -3.37236 0
M  V30 9761 H 914.944 -1.9429 -2.28455 0
M  V30 9762 H 912.497 -1.04087 -1.166 0
M  V30 9763 H 913.232 0.456531 -3.21071 0
M  V30 9764 H 913.017 -1.24367 -3.71854 0
M  V30 9765 H 914.507 -0.35768 -4.16065 0
M  V30 9766 O 914.983 1.1257 -1.15803 0
M  V30 9767 H 915.674 1.72207 -0.886817 0
M  V30 END ATOM
M  V30 BEGIN BOND
M  V30 END BOND
M  V30 END CTAB
M  END
$$$$
