drugbank_target|P10415 Apoptosis regulator Bcl-2 (DB01050; DB01229; DB01248; DB01367; DB05297; DB06307; DB06756; DB08871; DB09213; DB09401; DB11581; DB12191; DB12340)
 OpenBabel12092119273D

  0  0  0     0  0            999 V3000
M  V30 BEGIN CTAB
M  V30 COUNTS 3655 3714 0 0 0
M  V30 BEGIN ATOM
M  V30 1 H -0.908 1.98254 -0.117106 0
M  V30 2 N 0 1.576 0 0
M  V30 3 C 0.933 2.03868 1.02534 0
M  V30 4 C 1.911 0.928543 1.3348 0
M  V30 5 O 3.095 1.19667 1.45644 0
M  V30 6 C 0.222 2.43627 2.35294 0
M  V30 7 C -0.732 3.65373 2.2001 0
M  V30 8 S 0.101 5.13292 1.52614 0
M  V30 9 C 1.257 5.56322 2.86805 0
M  V30 10 H 1.49 2.90518 0.631377 0
M  V30 11 H -0.977 1.52953 0.210867 0
M  V30 12 H 0.981 2.67203 3.11629 0
M  V30 13 H -0.358 1.57376 2.7183 0
M  V30 14 H -1.165 3.90944 3.18086 0
M  V30 15 H -1.563 3.418 1.51819 0
M  V30 16 H 0.729 5.58782 3.83104 0
M  V30 17 H 1.672 6.56266 2.65933 0
M  V30 18 H 2.08 4.83886 2.90714 0
M  V30 19 N 1.4781 -0.272755 1.55222 0
M  V30 20 C 2.4411 -1.32041 1.87344 0
M  V30 21 C 3.4411 -1.42342 0.74803 0
M  V30 22 O 4.6311 -1.41488 1.0162 0
M  V30 23 C 1.7631 -2.70173 2.07893 0
M  V30 24 H 2.9561 -1.04789 2.80997 0
M  V30 25 H 0.5091 -0.51083 1.47717 0
M  V30 26 H 1.2441 -3.02605 1.16622 0
M  V30 27 H 1.0291 -2.64082 2.89833 0
M  V30 28 H 2.5191 -3.45869 2.34017 0
M  V30 29 N 2.9562 -1.48159 -0.537278 0
M  V30 30 C 3.9062 -1.5854 -1.63857 0
M  V30 31 C 4.8902 -0.442969 -1.54682 0
M  V30 32 O 6.0822 -0.69401 -1.62827 0
M  V30 33 C 3.2112 -1.62144 -3.02596 0
M  V30 34 C 2.2972 -2.81841 -3.16901 0
M  V30 35 N 2.6882 -4.06337 -3.01204 0
M  V30 36 C 0.9862 -2.79021 -3.47942 0
M  V30 37 C 1.6872 -4.86606 -3.18731 0
M  V30 38 N 0.6632 -4.19288 -3.45974 0
M  V30 39 H 4.4652 -2.5255 -1.50319 0
M  V30 40 H 1.9792 -1.4443 -0.742555 0
M  V30 41 H 3.9762 -1.67674 -3.81695 0
M  V30 42 H 2.6362 -0.69245 -3.17231 0
M  V30 43 H 3.6472 -4.36888 -2.78117 0
M  V30 44 H 0.3242 -1.95347 -3.6898 0
M  V30 45 H 1.7142 -5.95385 -3.11394 0
M  V30 46 N 4.4343 0.785586 -1.36625 0
M  V30 47 C 5.3973 1.87999 -1.31107 0
M  V30 48 C 6.3973 1.59316 -0.217959 0
M  V30 49 O 7.5873 1.67656 -0.472977 0
M  V30 50 C 4.7193 3.24861 -1.03334 0
M  V30 51 H 5.9123 1.94307 -2.2844 0
M  V30 52 H 3.4653 0.983813 -1.21453 0
M  V30 53 H 4.2003 3.24235 -0.0647432 0
M  V30 54 H 3.9853 3.4707 -1.82441 0
M  V30 55 H 5.4753 4.04929 -1.02088 0
M  V30 56 N 5.9124 1.20967 1.01018 0
M  V30 57 C 7.1604 1.02172 1.74371 0
M  V30 58 C 7.4814 -0.446414 1.89821 0
M  V30 59 O 6.7514 -1.32234 1.44537 0
M  V30 60 H 5.3314 0.375066 0.646014 0
M  V30 61 H 7.9934 1.52187 1.21758 0
M  V30 62 H 7.0894 1.48538 2.74487 0
M  V30 63 N 7.3905 -1.2043 1.01659 0
M  V30 64 C 8.8065 -1.41852 0.731442 0
M  V30 65 C 9.0065 -1.89358 -0.688898 0
M  V30 66 O 8.0625 -2.06247 -1.45666 0
M  V30 67 C 9.3755 -2.44019 1.75714 0
M  V30 68 C 10.9235 -2.57785 1.77527 0
M  V30 69 C 11.3985 -3.63194 2.79023 0
M  V30 70 N 12.8895 -3.70678 2.77763 0
M  V30 71 C 13.6245 -4.51897 3.52954 0
M  V30 72 N 13.1205 -5.36921 4.37821 0
M  V30 73 N 14.9135 -4.4643 3.41551 0
M  V30 74 H 7.0645 -0.879093 1.93354 0
M  V30 75 H 9.3275 -0.448425 0.835236 0
M  V30 76 H 9.0335 -2.1611 2.77469 0
M  V30 77 H 8.9075 -3.43007 1.56927 0
M  V30 78 H 11.2945 -2.85023 0.764569 0
M  V30 79 H 11.3755 -1.58992 2.00387 0
M  V30 80 H 11.0195 -3.36699 3.80258 0
M  V30 81 H 10.9495 -4.61609 2.53425 0
M  V30 82 H 13.4405 -3.09944 2.16201 0
M  V30 83 H 13.7535 -5.95981 4.91962 0
M  V30 84 H 12.0985 -5.36424 4.41899 0
M  V30 85 H 15.2895 -3.79042 2.74672 0
M  V30 86 H 15.4625 -5.09491 4.00404 0
M  V30 87 N 8.8686 -0.792821 -1.36206 0
M  V30 88 C 10.0966 -0.378825 -2.03402 0
M  V30 89 C 10.5116 1.00586 -1.59774 0
M  V30 90 O 9.8686 1.64574 -0.788764 0
M  V30 91 C 9.9196 -0.43683 -3.58851 0
M  V30 92 O 9.6406 -1.76691 -4.00889 0
M  V30 93 C 11.1416 -0.0138943 -4.43298 0
M  V30 94 H 8.3616 -0.155673 -0.652692 0
M  V30 95 H 10.9056 -1.07261 -1.74113 0
M  V30 96 H 9.0606 0.208575 -3.86838 0
M  V30 97 H 9.4746 -1.72011 -4.95492 0
M  V30 98 H 10.9486 -0.105615 -5.51899 0
M  V30 99 H 11.4256 1.03915 -4.2673 0
M  V30 100 H 12.0316 -0.63192 -4.20579 0
M  V30 101 N 10.3467 1.47872 -0.545128 0
M  V30 102 C 11.5947 2.02093 -0.016553 0
M  V30 103 C 11.9157 1.42305 1.3332 0
M  V30 104 O 11.1857 0.593853 1.86682 0
M  V30 105 H 9.7657 0.746993 -0.00313038 0
M  V30 106 H 12.4277 1.81414 -0.712397 0
M  V30 107 H 11.5237 3.11996 0.0805422 0
M  V30 108 N 11.8248 0.280983 1.55075 0
M  V30 109 C 13.0548 -0.336804 2.03836 0
M  V30 110 C 13.4628 -1.49577 1.15859 0
M  V30 111 O 12.8058 -1.82888 0.172503 0
M  V30 112 C 12.8678 -0.874616 3.48699 0
M  V30 113 C 12.5318 0.156478 4.56732 0
M  V30 114 C 13.5288 0.978032 5.10618 0
M  V30 115 C 11.2138 0.292409 5.01448 0
M  V30 116 C 13.2078 1.92165 6.07743 0
M  V30 117 C 10.8948 1.23949 5.98398 0
M  V30 118 C 11.8928 2.05261 6.51427 0
M  V30 119 O 11.5808 2.98367 7.4648 0
M  V30 120 H 11.3128 -0.0800885 0.671239 0
M  V30 121 H 13.8668 0.412589 2.01213 0
M  V30 122 H 12.0968 -1.67418 3.4858 0
M  V30 123 H 13.7858 -1.40612 3.80766 0
M  V30 124 H 14.5518 0.883782 4.7688 0
M  V30 125 H 10.4308 -0.330498 4.59814 0
M  V30 126 H 13.9748 2.55672 6.49059 0
M  V30 127 H 9.8718 1.33454 6.31554 0
M  V30 128 H 10.6398 2.93116 7.64215 0
M  V30 129 N 13.3029 -1.57598 0.00835791 0
M  V30 130 C 14.5799 -1.82172 -0.712235 0
M  V30 131 C 14.9599 -0.887873 -1.9152 0
M  V30 132 O 14.3079 0.06146 -2.28417 0
M  V30 133 C 14.5179 -3.30875 -1.11008 0
M  V30 134 C 15.8659 -3.96826 -1.51044 0
M  V30 135 O 16.8899 -3.35248 -1.20364 0
M  V30 136 O 15.7489 -5.05318 -2.08125 0
M  V30 137 H 12.8429 -0.750435 -0.347529 0
M  V30 138 H 15.3889 -1.69665 0.0344523 0
M  V30 139 H 14.1609 -3.90481 -0.252982 0
M  V30 140 H 13.7839 -3.48412 -1.9156 0
M  V30 141 N 14.781 0.264519 -1.55364 0
M  V30 142 C 15.729 1.34702 -1.89626 0
M  V30 143 C 16.723 1.50712 -0.773459 0
M  V30 144 O 17.929 1.52395 -0.957897 0
M  V30 145 H 14.304 0.450682 -0.601988 0
M  V30 146 H 16.275 1.0306 -2.80038 0
M  V30 147 C 15.024 2.6989 -2.19214 0
M  V30 148 H 14.347 2.58365 -3.05103 0
M  V30 149 H 15.787 3.44553 -2.47102 0
M  V30 150 C 14.246 3.21637 -1.00254 0
M  V30 151 O 14.776 4.00973 -0.241501 0
M  V30 152 N 12.982 2.7943 -0.797938 0
M  V30 153 H 12.529 2.15026 -1.4185 0
M  V30 154 H 12.487 3.144 -0.00363422 0
M  V30 155 N 16.2591 1.48442 0.529413 0
M  V30 156 C 17.6751 1.34575 0.858004 0
M  V30 157 C 17.8751 0.3572 1.98309 0
M  V30 158 O 16.9311 -0.221379 2.51528 0
M  V30 159 C 18.2441 2.74617 1.22499 0
M  V30 160 C 19.7921 2.83109 1.33484 0
M  V30 161 C 20.2671 4.23854 1.73526 0
M  V30 162 N 21.7581 4.2653 1.80628 0
M  V30 163 C 22.4931 5.32372 2.12997 0
M  V30 164 N 21.9891 6.48491 2.43786 0
M  V30 165 N 23.7821 5.19766 2.14008 0
M  V30 166 H 15.9331 2.1133 -0.212925 0
M  V30 167 H 18.1961 0.947439 -0.0326199 0
M  V30 168 H 17.9021 3.4852 0.471905 0
M  V30 169 H 17.7761 3.08177 2.17501 0
M  V30 170 H 20.1631 2.09462 2.0787 0
M  V30 171 H 20.2441 2.53168 0.366027 0
M  V30 172 H 19.8881 4.98018 0.997013 0
M  V30 173 H 19.8181 4.5124 2.71459 0
M  V30 174 H 22.3091 3.42772 1.59108 0
M  V30 175 H 22.6221 7.24993 2.67592 0
M  V30 176 H 20.9671 6.51765 2.41304 0
M  V30 177 H 24.1581 4.28066 1.89412 0
M  V30 178 H 24.3311 6.02354 2.38902 0
M  V30 179 N 17.7372 -0.778329 1.37039 0
M  V30 180 C 18.6472 -1.92253 1.34446 0
M  V30 181 C 19.6632 -1.72267 0.244991 0
M  V30 182 O 20.8392 -1.95615 0.479258 0
M  V30 183 C 17.9042 -3.27282 1.144 0
M  V30 184 C 16.9652 -3.59969 2.33925 0
M  V30 185 C 16.1982 -4.88555 2.14825 0
M  V30 186 O 16.4212 -5.59113 1.12912 0
M  V30 187 O 15.3552 -5.20153 3.02861 0
M  V30 188 H 19.1812 -1.97392 2.30803 0
M  V30 189 H 16.7662 -0.920154 1.17701 0
M  V30 190 H 18.6482 -4.08062 1.05182 0
M  V30 191 H 17.3232 -3.23011 0.211124 0
M  V30 192 H 16.2302 -2.7945 2.48714 0
M  V30 193 H 17.5632 -3.68976 3.25757 0
M  V30 194 N 19.2153 -1.21501 -1.00376 0
M  V30 195 C 20.4643 -1.02718 -1.73586 0
M  V30 196 C 20.7773 0.439589 -1.90596 0
M  V30 197 O 21.9833 0.746848 -2.61026 0
M  V30 198 C 20.4393 -1.78929 -3.1227 0
M  V30 199 C 20.0473 -3.29783 -3.03228 0
M  V30 200 C 21.7913 -1.68557 -3.89601 0
M  V30 201 C 19.6983 -3.98479 -4.36999 0
M  V30 202 H 18.6283 -0.380733 -0.650814 0
M  V30 203 H 21.2793 -1.45248 -1.1214 0
M  V30 204 H 19.6613 -1.29192 -3.74333 0
M  V30 205 H 20.8353 -3.86832 -2.50395 0
M  V30 206 H 19.1503 -3.40711 -2.39385 0
M  V30 207 H 21.7473 -2.17211 -4.88593 0
M  V30 208 H 22.0903 -0.644021 -4.11288 0
M  V30 209 H 22.6233 -2.15778 -3.34193 0
M  V30 210 H 19.3623 -5.02841 -4.20513 0
M  V30 211 H 18.8823 -3.46219 -4.89788 0
M  V30 212 H 20.5613 -4.03462 -5.05794 0
M  V30 213 N 20.6934 1.19889 -1.02296 0
M  V30 214 C 21.9394 1.89701 -0.717033 0
M  V30 215 C 22.2724 1.7905 0.751989 0
M  V30 216 O 21.5474 1.17891 1.547 0
M  V30 217 C 21.8304 3.40858 -1.16136 0
M  V30 218 C 21.6834 3.60411 -2.69117 0
M  V30 219 C 23.0024 4.33876 -0.737549 0
M  V30 220 H 20.1214 0.688874 -0.261957 0
M  V30 221 H 22.7634 1.41154 -1.27183 0
M  V30 222 H 20.9134 3.82335 -0.689342 0
M  V30 223 H 22.5854 3.28145 -3.2422 0
M  V30 224 H 20.8284 3.03665 -3.0979 0
M  V30 225 H 21.4994 4.66396 -2.95261 0
M  V30 226 H 23.9754 4.00081 -1.14344 0
M  V30 227 H 22.8514 5.38242 -1.0764 0
M  V30 228 H 23.1124 4.40628 0.360436 0
M  V30 229 N 22.1715 0.800033 1.35784 0
M  V30 230 C 23.1045 0.151499 2.27697 0
M  V30 231 C 24.0825 -0.678663 1.4776 0
M  V30 232 O 25.2665 -0.647358 1.77035 0
M  V30 233 C 22.3935 -0.790492 3.29346 0
M  V30 234 C 21.4395 -0.0407832 4.26481 0
M  V30 235 S 22.2725 1.29077 5.19711 0
M  V30 236 C 23.4285 0.353055 6.24903 0
M  V30 237 H 23.6615 0.930796 2.82353 0
M  V30 238 H 21.1945 0.594767 1.42485 0
M  V30 239 H 23.1525 -1.3285 3.88409 0
M  V30 240 H 21.8135 -1.54312 2.73581 0
M  V30 241 H 21.0065 -0.755971 4.98298 0
M  V30 242 H 20.6085 0.427063 3.71554 0
M  V30 243 H 22.9005 -0.464147 6.75908 0
M  V30 244 H 23.8435 1.04023 7.00418 0
M  V30 245 H 24.2515 -0.0483344 5.64479 0
M  V30 246 N 23.6496 -1.47581 0.552962 0
M  V30 247 C 24.5966 -2.29957 -0.197108 0
M  V30 248 C 25.5666 -1.38799 -0.912359 0
M  V30 249 O 26.7516 -1.67761 -0.908888 0
M  V30 250 C 23.8916 -3.22672 -1.22379 0
M  V30 251 C 23.0046 -4.28919 -0.515038 0
M  V30 252 C 22.1396 -5.0879 -1.52664 0
M  V30 253 C 21.1786 -6.06815 -0.802631 0
M  V30 254 N 20.3156 -6.7966 -1.76086 0
M  V30 255 H 25.1556 -2.93578 0.511486 0
M  V30 256 H 22.6926 -1.4471 0.264067 0
M  V30 257 H 24.6506 -3.74845 -1.83159 0
M  V30 258 H 23.2806 -2.60925 -1.90047 0
M  V30 259 H 22.3326 -3.79835 0.207192 0
M  V30 260 H 23.6446 -4.98773 0.0523425 0
M  V30 261 H 22.7986 -5.65091 -2.20809 0
M  V30 262 H 21.5376 -4.38828 -2.12794 0
M  V30 263 H 20.5426 -5.49695 -0.107238 0
M  V30 264 H 21.7676 -6.78784 -0.207135 0
M  V30 265 H 19.7136 -6.12432 -2.35081 0
M  V30 266 H 19.6306 -7.45669 -1.24552 0
M  V30 267 H 20.8986 -7.40538 -2.43359 0
M  V30 268 N 25.1277 -0.289203 -1.54924 0
M  V30 269 C 26.3577 0.325989 -2.04012 0
M  V30 270 C 26.7657 1.48961 -1.1665 0
M  V30 271 O 26.1087 1.82794 -0.1822 0
M  V30 272 C 26.1707 0.856112 -3.49158 0
M  V30 273 C 25.8347 -0.180697 -4.56643 0
M  V30 274 C 26.8317 -1.0051 -5.10092 0
M  V30 275 C 24.5167 -0.318998 -5.01286 0
M  V30 276 C 26.5107 -1.95385 -6.06715 0
M  V30 277 C 24.1977 -1.27121 -5.97732 0
M  V30 278 C 25.1957 -2.08713 -6.50329 0
M  V30 279 O 24.8837 -3.02322 -7.44887 0
M  V30 280 H 24.6157 0.0765276 -0.671654 0
M  V30 281 H 27.1697 -0.423254 -2.00992 0
M  V30 282 H 25.3997 1.65567 -3.49463 0
M  V30 283 H 27.0887 1.38591 -3.81507 0
M  V30 284 H 27.8547 -0.90906 -4.76404 0
M  V30 285 H 23.7337 0.306108 -4.59983 0
M  V30 286 H 27.2777 -2.59111 -6.47694 0
M  V30 287 H 23.1747 -1.36801 -6.30837 0
M  V30 288 H 23.9427 -2.97165 -7.6265 0
M  V30 289 N 26.6058 1.57591 -0.0167156 0
M  V30 290 C 27.8548 1.90461 0.663877 0
M  V30 291 C 28.1678 0.893515 1.73999 0
M  V30 292 O 29.3738 1.11302 2.47637 0
M  V30 293 C 27.8298 3.38155 1.23204 0
M  V30 294 C 27.4378 4.47597 0.189866 0
M  V30 295 C 29.1818 3.80111 1.88986 0
M  V30 296 C 27.0888 5.86379 0.768964 0
M  V30 297 H 26.0188 0.710738 0.251729 0
M  V30 298 H 28.6698 1.83326 -0.0799926 0
M  V30 299 H 27.0518 3.40182 2.02712 0
M  V30 300 H 28.2258 4.57112 -0.581846 0
M  V30 301 H 26.5408 4.14766 -0.368475 0
M  V30 302 H 29.1378 4.81145 2.33247 0
M  V30 303 H 29.4808 3.14511 2.72743 0
M  V30 304 H 30.0138 3.80454 1.16187 0
M  V30 305 H 26.7528 6.55493 -0.0301957 0
M  V30 306 H 26.2728 5.80496 1.50945 0
M  V30 307 H 27.9518 6.34563 1.26251 0
M  V30 308 N 28.0839 -0.256276 1.55502 0
M  V30 309 C 29.0339 -1.31981 1.85916 0
M  V30 310 C 30.0179 -1.43927 0.719296 0
M  V30 311 O 31.2099 -1.47326 0.981019 0
M  V30 312 C 28.3389 -2.67703 2.14918 0
M  V30 313 C 27.4249 -2.59801 3.35208 0
M  V30 314 N 27.8159 -2.21524 4.54709 0
M  V30 315 C 26.1139 -2.90832 3.38131 0
M  V30 316 C 26.8149 -2.24024 5.36832 0
M  V30 317 N 25.7909 -2.63158 4.75656 0
M  V30 318 H 29.5929 -1.01423 2.75845 0
M  V30 319 H 27.1069 -0.464911 1.55603 0
M  V30 320 H 29.1039 -3.44445 2.34869 0
M  V30 321 H 27.7639 -2.99137 1.26282 0
M  V30 322 H 28.7749 -1.93223 4.80505 0
M  V30 323 H 25.4519 -3.26867 2.59739 0
M  V30 324 H 26.8419 -1.9685 6.42417 0
M  V30 325 N 29.562 -1.4872 -0.521534 0
M  V30 326 C 30.792 -1.6061 -1.29954 0
M  V30 327 C 31.2 -0.268728 -1.87282 0
M  V30 328 O 30.543 0.753221 -1.67548 0
M  V30 329 C 30.605 -2.60013 -2.48261 0
M  V30 330 C 30.269 -4.04874 -2.11957 0
M  V30 331 C 31.266 -4.92304 -1.67132 0
M  V30 332 C 28.951 -4.5047 -2.22221 0
M  V30 333 C 30.945 -6.2336 -1.33047 0
M  V30 334 C 28.632 -5.81544 -1.87748 0
M  V30 335 C 29.63 -6.67812 -1.43234 0
M  V30 336 O 29.318 -7.96446 -1.09217 0
M  V30 337 H 29.05 -0.544116 -0.401141 0
M  V30 338 H 31.604 -1.95339 -0.634958 0
M  V30 339 H 29.834 -2.20422 -3.17728 0
M  V30 340 H 31.523 -2.61648 -3.10315 0
M  V30 341 H 32.289 -4.58312 -1.58665 0
M  V30 342 H 28.168 -3.83504 -2.55823 0
M  V30 343 H 31.712 -6.90649 -0.982299 0
M  V30 344 H 27.609 -6.15069 -1.95858 0
M  V30 345 H 28.377 -8.09275 -1.22542 0
M  V30 346 N 31.0401 0.771051 -1.3745 0
M  V30 347 C 31.9871 1.88435 -1.3327 0
M  V30 348 C 32.9571 1.64914 -0.198136 0
M  V30 349 O 34.1421 1.86821 -0.387606 0
M  V30 350 C 31.2821 3.25509 -1.14622 0
M  V30 351 C 30.3951 3.60979 -2.37314 0
M  V30 352 C 29.5301 4.87265 -2.11533 0
M  V30 353 C 28.5691 5.15469 -3.30088 0
M  V30 354 N 27.7061 6.32944 -3.03853 0
M  V30 355 H 32.5461 1.91344 -2.28455 0
M  V30 356 H 30.0831 0.935466 -1.13523 0
M  V30 357 H 32.0411 4.04582 -1.01831 0
M  V30 358 H 30.6711 3.21974 -0.230837 0
M  V30 359 H 29.7231 2.76885 -2.60842 0
M  V30 360 H 31.0351 3.77759 -3.25729 0
M  V30 361 H 30.1891 5.74244 -1.95777 0
M  V30 362 H 28.9281 4.7259 -1.20457 0
M  V30 363 H 27.9331 4.26966 -3.46382 0
M  V30 364 H 29.1581 5.32052 -4.22016 0
M  V30 365 H 27.1041 6.19625 -2.15407 0
M  V30 366 H 27.0211 6.50143 -3.85812 0
M  V30 367 H 28.2891 7.22857 -2.91716 0
M  V30 368 N 32.5182 1.22032 0.997298 0
M  V30 369 C 33.4482 1.01065 2.10495 0
M  V30 370 C 34.4292 -0.0669542 1.69968 0
M  V30 371 O 35.6142 0.0943987 1.9397 0
M  V30 372 C 32.7442 0.582874 3.42374 0
M  V30 373 C 31.6982 1.60592 3.96729 0
M  V30 374 C 31.0242 1.03412 5.24605 0
M  V30 375 C 32.3242 2.99478 4.27914 0
M  V30 376 H 34.0182 1.93708 2.28292 0
M  V30 377 H 31.5642 0.932761 1.09707 0
M  V30 378 H 33.5172 0.423332 4.19268 0
M  V30 379 H 32.2412 -0.379213 3.24391 0
M  V30 380 H 30.9002 1.75316 3.21963 0
M  V30 381 H 30.5482 0.063518 5.0296 0
M  V30 382 H 30.2482 1.71754 5.61938 0
M  V30 383 H 31.7722 0.886066 6.04137 0
M  V30 384 H 33.1862 2.88153 4.95622 0
M  V30 385 H 31.5832 3.64903 4.76409 0
M  V30 386 H 32.6532 3.49742 3.3587 0
M  V30 387 N 33.9963 -1.19345 1.0293 0
M  V30 388 C 35.2213 -1.93538 0.745511 0
M  V30 389 C 35.6463 -1.75007 -0.689511 0
M  V30 390 O 35.0043 -1.05265 -1.47611 0
M  V30 391 C 35.0523 -3.43336 1.10239 0
M  V30 392 O 34.1563 -4.11806 0.221289 0
M  V30 393 H 33.4973 -0.604193 0.275404 0
M  V30 394 H 36.0273 -1.5141 1.37609 0
M  V30 395 H 36.0373 -3.94004 1.05947 0
M  V30 396 H 34.7123 -3.56146 2.14786 0
M  V30 397 H 33.2893 -3.715 0.322842 0
M  V30 398 N 35.4744 -0.807222 -1.35358 0
M  V30 399 C 36.4064 -0.175717 -2.28525 0
M  V30 400 C 37.4194 0.625354 -1.5031 0
M  V30 401 O 38.6084 0.457611 -1.72535 0
M  V30 402 C 35.7084 0.773471 -3.29956 0
M  V30 403 C 34.8814 0.0186296 -4.37396 0
M  V30 404 C 33.9404 0.886395 -5.18681 0
M  V30 405 O 32.9664 0.337106 -5.68201 0
M  V30 406 N 34.1684 2.20839 -5.36852 0
M  V30 407 H 36.9334 -0.976091 -2.83359 0
M  V30 408 H 34.4944 -0.662737 -1.47714 0
M  V30 409 H 36.4864 1.35824 -3.81227 0
M  V30 410 H 35.0564 1.47465 -2.75632 0
M  V30 411 H 34.2764 -0.747349 -3.87051 0
M  V30 412 H 35.5644 -0.501577 -5.06322 0
M  V30 413 H 34.9624 2.67858 -4.98265 0
M  V30 414 H 33.5194 2.74237 -5.91301 0
M  V30 415 N 36.9525 1.47285 -0.560781 0
M  V30 416 C 38.3685 1.58065 -0.22081 0
M  V30 417 C 38.5685 1.55892 1.27671 0
M  V30 418 O 37.6245 1.46422 2.0571 0
M  V30 419 C 38.9375 2.88418 -0.850625 0
M  V30 420 C 40.4855 3.02009 -0.822184 0
M  V30 421 C 40.9605 4.35066 -1.43113 0
M  V30 422 N 42.4515 4.41711 -1.39448 0
M  V30 423 C 43.1865 5.43237 -1.83525 0
M  V30 424 N 42.6825 6.51555 -2.35474 0
M  V30 425 N 44.4755 5.34304 -1.74574 0
M  V30 426 H 36.6265 1.46941 -1.53369 0
M  V30 427 H 38.8895 0.699558 -0.639783 0
M  V30 428 H 38.5955 2.95755 -1.9032 0
M  V30 429 H 38.4695 3.75612 -0.345773 0
M  V30 430 H 40.8565 2.94266 0.221714 0
M  V30 431 H 40.9375 2.16347 -1.36483 0
M  V30 432 H 40.5815 4.43565 -2.47412 0
M  V30 433 H 40.5115 5.19465 -0.863899 0
M  V30 434 H 43.0025 3.64027 -1.01452 0
M  V30 435 H 43.3155 7.25203 -2.67021 0
M  V30 436 H 41.6605 6.52435 -2.39487 0
M  V30 437 H 44.8515 4.48581 -1.33763 0
M  V30 438 H 45.0245 6.13288 -2.09242 0
M  V30 439 N 38.4306 0.297415 1.54768 0
M  V30 440 C 39.6786 -0.312295 1.99673 0
M  V30 441 C 39.9996 -1.54686 1.18732 0
M  V30 442 O 39.2696 -1.93854 0.282382 0
M  V30 443 H 37.8496 -0.118381 0.73756 0
M  V30 444 H 40.5116 0.407915 1.90583 0
M  V30 445 H 39.6076 -0.586813 3.06534 0
M  V30 446 N 39.9087 -1.5758 0.0250728 0
M  V30 447 C 41.1387 -1.95646 -0.663783 0
M  V30 448 C 41.5467 -0.899935 -1.66427 0
M  V30 449 O 40.8897 0.127191 -1.83259 0
M  V30 450 C 40.9517 -3.29835 -1.43 0
M  V30 451 C 40.6157 -4.53197 -0.588305 0
M  V30 452 C 41.6127 -5.19726 0.13469 0
M  V30 453 C 39.2977 -4.99529 -0.526897 0
M  V30 454 C 41.2917 -6.30902 0.90781 0
M  V30 455 C 38.9787 -6.10589 0.24993 0
M  V30 456 C 39.9767 -6.76134 0.965994 0
M  V30 457 O 39.6647 -7.85062 1.7301 0
M  V30 458 H 39.3967 -0.649282 -0.188174 0
M  V30 459 H 41.9507 -2.05245 0.0799006 0
M  V30 460 H 40.1807 -3.16716 -2.21873 0
M  V30 461 H 41.8697 -3.52833 -2.00658 0
M  V30 462 H 42.6357 -4.84904 0.0965562 0
M  V30 463 H 38.5147 -4.48319 -1.07381 0
M  V30 464 H 42.0587 -6.81995 1.46724 0
M  V30 465 H 37.9557 -6.44849 0.289795 0
M  V30 466 H 38.7237 -8.01708 1.64944 0
M  V30 467 N 41.3868 0.248026 -1.55636 0
M  V30 468 C 42.2968 1.32859 -1.93354 0
M  V30 469 C 43.3128 1.52719 -0.833838 0
M  V30 470 O 44.4888 1.66363 -1.13513 0
M  V30 471 C 41.5538 2.66337 -2.21958 0
M  V30 472 C 40.6148 2.55008 -3.45354 0
M  V30 473 C 39.8478 3.82121 -3.72584 0
M  V30 474 O 40.0708 4.83951 -3.01907 0
M  V30 475 O 39.0048 3.80822 -4.6611 0
M  V30 476 H 42.8308 1.03862 -2.85388 0
M  V30 477 H 40.4158 0.448686 -1.42503 0
M  V30 478 H 42.2978 3.45216 -2.4167 0
M  V30 479 H 40.9728 2.95068 -1.33103 0
M  V30 480 H 39.8798 1.7442 -3.30951 0
M  V30 481 H 41.2128 2.31222 -4.34508 0
M  V30 482 N 42.8649 1.48995 0.513639 0
M  V30 483 C 44.1109 1.59053 1.26783 0
M  V30 484 C 44.4659 0.268136 1.90522 0
M  V30 485 O 43.7589 -0.730534 1.77126 0
M  V30 486 C 43.9529 2.67756 2.36731 0
M  V30 487 C 43.7819 4.10437 1.83771 0
M  V30 488 C 42.5519 4.7738 1.65639 0
M  V30 489 C 44.7499 4.9608 1.35681 0
M  V30 490 N 42.7319 6.04419 1.07476 0
M  V30 491 C 44.1029 6.13496 0.895715 0
M  V30 492 C 46.1579 4.82177 1.24136 0
M  V30 493 C 44.8609 7.1854 0.3306 0
M  V30 494 C 46.8869 5.87358 0.690229 0
M  V30 495 C 46.2489 7.03993 0.239292 0
M  V30 496 H 42.3479 0.636463 0.454355 0
M  V30 497 H 44.9319 1.85948 0.577196 0
M  V30 498 H 43.1029 2.42655 3.03271 0
M  V30 499 H 44.8349 2.67406 3.0377 0
M  V30 500 H 41.5899 4.33974 1.8964 0
M  V30 501 H 42.0139 6.72214 0.803579 0
M  V30 502 H 46.6559 3.92329 1.57601 0
M  V30 503 H 44.3739 8.08098 -0.0163435 0
M  V30 504 H 47.9599 5.78658 0.603852 0
M  V30 505 H 46.8399 7.83992 -0.180526 0
M  V30 506 N 44.343 -0.763751 1.37857 0
M  V30 507 C 45.62 -1.51244 1.24035 0
M  V30 508 C 46 -2.10472 -0.162649 0
M  V30 509 O 45.348 -1.96206 -1.17112 0
M  V30 510 C 45.558 -2.58694 2.34261 0
M  V30 511 C 46.906 -3.25878 2.72193 0
M  V30 512 O 47.93 -2.68993 2.33497 0
M  V30 513 O 46.789 -4.2874 3.38887 0
M  V30 514 H 43.883 -0.670243 0.484462 0
M  V30 515 H 46.429 -0.800031 1.49658 0
M  V30 516 H 45.201 -2.13105 3.2818 0
M  V30 517 H 44.824 -3.37527 2.10146 0
M  V30 518 N 45.8211 -1.22559 -0.990812 0
M  V30 519 C 46.7841 -0.998863 -2.0629 0
M  V30 520 C 47.7841 0.0354834 -1.60761 0
M  V30 521 O 48.9741 -0.203231 -1.7301 0
M  V30 522 C 46.1061 -0.509203 -3.37076 0
M  V30 523 H 47.2991 -1.95014 -2.27837 0
M  V30 524 H 44.8521 -1.04456 -1.16269 0
M  V30 525 H 45.5871 0.446335 -3.21214 0
M  V30 526 H 45.3721 -1.25547 -3.71457 0
M  V30 527 H 46.8621 -0.370888 -4.1595 0
M  V30 528 N 47.2992 1.18797 -1.03562 0
M  V30 529 C 48.5472 1.88278 -0.734569 0
M  V30 530 C 48.8682 1.8043 0.739586 0
M  V30 531 O 48.1382 1.21925 1.53333 0
M  V30 532 H 46.7182 0.696991 -0.268725 0
M  V30 533 H 49.3802 1.44192 -1.31129 0
M  V30 534 H 48.4762 2.94443 -1.03489 0
M  V30 535 N 48.7773 0.814389 1.34928 0
M  V30 536 C 50.0543 0.321363 1.92942 0
M  V30 537 C 50.4343 -1.19014 1.74353 0
M  V30 538 O 49.7823 -1.99328 1.11716 0
M  V30 539 C 49.9923 0.741323 3.41036 0
M  V30 540 C 51.3403 0.735266 4.18185 0
M  V30 541 O 52.3643 0.68336 3.49584 0
M  V30 542 O 51.2233 0.800703 5.40602 0
M  V30 543 H 48.3173 0.0858893 0.822528 0
M  V30 544 H 50.8633 0.898609 1.43955 0
M  V30 545 H 49.6353 1.78276 3.4833 0
M  V30 546 H 49.2583 0.139307 3.97356 0
M  V30 547 N 50.2554 -1.46986 0.568584 0
M  V30 548 C 51.5014 -2.02741 0.0488709 0
M  V30 549 C 51.8344 -1.44077 -1.30214 0
M  V30 550 O 51.1094 -0.600552 -1.84996 0
M  V30 551 C 51.3924 -3.60086 -0.032047 0
M  V30 552 C 51.2454 -4.29162 1.34686 0
M  V30 553 C 52.5644 -4.33838 -0.739798 0
M  V30 554 H 49.6834 -0.736749 0.0192338 0
M  V30 555 H 52.3254 -1.75289 0.733065 0
M  V30 556 H 50.4754 -3.83606 -0.61473 0
M  V30 557 H 52.1474 -4.16948 1.97362 0
M  V30 558 H 50.3904 -3.89073 1.91846 0
M  V30 559 H 51.0614 -5.37826 1.24285 0
M  V30 560 H 53.5374 -4.15378 -0.244939 0
M  V30 561 H 52.4134 -5.43537 -0.765406 0
M  V30 562 H 52.6744 -4.03875 -1.79827 0
M  V30 563 N 51.7335 -0.305618 -1.54608 0
M  V30 564 C 52.9815 0.301701 -1.99835 0
M  V30 565 C 53.3025 1.54054 -1.19551 0
M  V30 566 O 52.5725 1.93702 -0.292658 0
M  V30 567 H 51.1525 0.114468 -0.738178 0
M  V30 568 H 53.8145 -0.418016 -1.90364 0
M  V30 569 H 52.9105 0.570548 -3.06841 0
M  V30 570 N 53.2116 1.57565 -0.0334293 0
M  V30 571 C 54.1746 2.09393 0.932048 0
M  V30 572 C 55.1746 1.00986 1.25134 0
M  V30 573 O 56.3646 1.27129 1.19096 0
M  V30 574 C 53.4966 2.56338 2.2473 0
M  V30 575 H 54.6896 2.95984 0.483085 0
M  V30 576 H 52.2426 1.54819 0.21468 0
M  V30 577 H 52.9776 1.7309 2.74245 0
M  V30 578 H 52.7626 3.35542 2.02865 0
M  V30 579 H 54.2526 2.96646 2.93923 0
M  V30 580 N 54.6897 -0.239769 1.55765 0
M  V30 581 C 55.6527 -1.28038 1.90103 0
M  V30 582 C 56.6527 -1.40723 0.778055 0
M  V30 583 O 57.8427 -1.39301 1.04599 0
M  V30 584 C 54.9747 -2.65702 2.13577 0
M  V30 585 H 56.1677 -0.988048 2.83157 0
M  V30 586 H 53.7207 -0.479382 1.48767 0
M  V30 587 H 54.4557 -3.00063 1.23015 0
M  V30 588 H 54.2407 -2.57875 2.95369 0
M  V30 589 H 55.7307 -3.40828 2.41301 0
M  V30 590 N 56.1678 -1.49265 -0.50573 0
M  V30 591 C 57.5788 -1.51769 -1.08734 0
M  V30 592 C 57.9298 -0.301192 -1.93874 0
M  V30 593 O 57.0548 0.589456 -2.08217 0
M  V30 594 C 57.6498 -2.75017 -1.97867 0
M  V30 595 C 56.2088 -2.80314 -2.51199 0
M  V30 596 C 55.3558 -2.4562 -1.28709 0
M  V30 597 H 58.3068 -1.56031 -0.289855 0
M  V30 598 H 58.3278 -2.5491 -2.82491 0
M  V30 599 H 57.8398 -3.63539 -1.35873 0
M  V30 600 H 55.9408 -1.96061 -3.16845 0
M  V30 601 H 56.0538 -3.82366 -2.88675 0
M  V30 602 H 54.4178 -1.97297 -1.61078 0
M  V30 603 H 55.2008 -3.36411 -0.6843 0
M  V30 604 N 57.6459 0.756429 -1.3826 0
M  V30 605 C 59.0569 1.33359 -1.30661 0
M  V30 606 C 59.4079 1.96161 0.0388875 0
M  V30 607 O 58.5329 1.94874 0.940918 0
M  V30 608 C 59.1279 2.42477 -2.36622 0
M  V30 609 C 57.6869 2.95922 -2.3261 0
M  V30 610 C 56.8339 1.69275 -2.19639 0
M  V30 611 H 59.7849 0.55552 -1.4866 0
M  V30 612 H 59.8059 3.22345 -2.02174 0
M  V30 613 H 59.3179 1.96739 -3.34538 0
M  V30 614 H 57.4189 3.45996 -1.38267 0
M  V30 615 H 57.5319 3.50494 -3.26636 0
M  V30 616 H 55.8959 1.92793 -1.66442 0
M  V30 617 H 56.6789 1.25619 -3.19491 0
M  V30 618 N 59.124 1.23083 0.984299 0
M  V30 619 C 60.372 1.05848 1.72165 0
M  V30 620 C 60.693 -0.406049 1.90726 0
M  V30 621 O 59.963 -1.29139 1.47309 0
M  V30 622 H 58.543 0.388685 0.637913 0
M  V30 623 H 61.205 1.54736 1.18503 0
M  V30 624 H 60.301 1.54327 2.71274 0
M  V30 625 N 60.6021 -1.18246 1.0419 0
M  V30 626 C 61.5651 -2.20128 0.638452 0
M  V30 627 C 62.5651 -1.57885 -0.304805 0
M  V30 628 O 63.7551 -1.73967 -0.0900369 0
M  V30 629 C 60.8871 -3.4084 -0.0637751 0
M  V30 630 H 62.0801 -2.57336 1.54007 0
M  V30 631 H 59.6331 -1.32152 0.834598 0
M  V30 632 H 60.3681 -3.09166 -0.979136 0
M  V30 633 H 60.1531 -3.8726 0.614198 0
M  V30 634 H 61.6431 -4.16274 -0.332512 0
M  V30 635 N 62.0802 -0.821533 -1.34494 0
M  V30 636 C 63.0432 -0.247847 -2.27856 0
M  V30 637 C 64.0432 0.573453 -1.50227 0
M  V30 638 O 65.2332 0.389759 -1.69784 0
M  V30 639 C 62.3652 0.652698 -3.34593 0
M  V30 640 H 63.5582 -1.07146 -2.80107 0
M  V30 641 H 61.1112 -0.593291 -1.44602 0
M  V30 642 H 61.8462 1.49943 -2.87555 0
M  V30 643 H 61.6312 0.065292 -3.92046 0
M  V30 644 H 63.1212 1.04793 -4.04238 0
M  V30 645 N 63.5583 1.46682 -0.576371 0
M  V30 646 C 64.9693 1.86112 -0.148091 0
M  V30 647 C 65.3203 1.48073 1.2872 0
M  V30 648 O 64.4453 0.892656 1.97131 0
M  V30 649 C 65.0403 3.37786 -0.261982 0
M  V30 650 C 63.5993 3.76235 0.111384 0
M  V30 651 C 62.7463 2.70713 -0.60083 0
M  V30 652 H 65.6973 1.37927 -0.78497 0
M  V30 653 H 65.7183 3.77007 0.514364 0
M  V30 654 H 65.2303 3.6544 -1.30671 0
M  V30 655 H 63.3313 3.54198 1.15649 0
M  V30 656 H 63.4443 4.78391 -0.26052 0
M  V30 657 H 61.8083 2.54666 -0.0417783 0
M  V30 658 H 62.5913 3.01208 -1.64708 0
M  V30 659 N 65.0364 0.313813 1.54444 0
M  V30 660 C 65.9994 -0.54379 2.22656 0
M  V30 661 C 66.9994 -1.05124 1.21678 0
M  V30 662 O 68.1894 -0.945225 1.46325 0
M  V30 663 C 65.3214 -1.75427 2.92298 0
M  V30 664 H 66.5144 0.0523599 2.99854 0
M  V30 665 H 64.0674 0.0647834 1.56166 0
M  V30 666 H 64.8024 -2.38991 2.19211 0
M  V30 667 H 64.5874 -1.39791 3.66334 0
M  V30 668 H 66.0774 -2.36325 3.44297 0
M  V30 669 N 66.5145 -1.57545 0.0417849 0
M  V30 670 C 67.9255 -1.80011 -0.495259 0
M  V30 671 C 68.2765 -0.953199 -1.71489 0
M  V30 672 O 67.4015 -0.167138 -2.15754 0
M  V30 673 C 67.9965 -3.26482 -0.905265 0
M  V30 674 C 66.5555 -3.499 -1.38734 0
M  V30 675 C 65.7025 -2.74979 -0.358056 0
M  V30 676 H 68.6535 -1.56425 0.267736 0
M  V30 677 H 68.6745 -3.36887 -1.76882 0
M  V30 678 H 68.1865 -3.88096 -0.017401 0
M  V30 679 H 66.2875 -2.93553 -2.29471 0
M  V30 680 H 66.4005 -4.58615 -1.38598 0
M  V30 681 H 64.7645 -2.40834 -0.828912 0
M  V30 682 H 65.5475 -3.39315 0.521561 0
M  V30 683 N 67.9926 0.231505 -1.5589 0
M  V30 684 C 69.2406 0.955461 -1.78088 0
M  V30 685 C 69.5616 1.85262 -0.608533 0
M  V30 686 O 68.8316 1.92277 0.375035 0
M  V30 687 H 67.4116 0.355787 -0.656829 0
M  V30 688 H 70.0736 0.245751 -1.93344 0
M  V30 689 H 69.1696 1.56814 -2.69844 0
M  V30 690 N 69.4707 1.49531 0.497807 0
M  V30 691 C 70.7197 1.58426 1.24837 0
M  V30 692 C 71.0327 0.277643 1.93619 0
M  V30 693 O 72.2387 0.24517 2.70391 0
M  V30 694 C 70.6947 2.79538 2.26686 0
M  V30 695 C 70.3027 4.16971 1.63828 0
M  V30 696 C 72.0467 2.97764 3.0255 0
M  V30 697 C 69.9537 5.29301 2.63807 0
M  V30 698 H 68.8837 0.58989 0.469623 0
M  V30 699 H 71.5347 1.75923 0.521857 0
M  V30 700 H 69.9167 2.55542 3.02514 0
M  V30 701 H 71.0907 4.51116 0.939711 0
M  V30 702 H 69.4057 4.04129 1.00342 0
M  V30 703 H 72.0027 3.78856 3.77323 0
M  V30 704 H 72.3457 2.08448 3.60354 0
M  V30 705 H 72.8787 3.21815 2.33838 0
M  V30 706 H 69.6177 6.20687 2.10779 0
M  V30 707 H 69.1377 4.99606 3.31894 0
M  V30 708 H 70.8167 5.58768 3.2617 0
M  V30 709 N 70.9488 -0.749086 1.3866 0
M  V30 710 C 72.1958 -1.50833 1.35114 0
M  V30 711 C 72.5238 -1.94415 -0.0574049 0
M  V30 712 O 71.7788 -1.66065 -1.03541 0
M  V30 713 C 72.0778 -2.7712 2.25697 0
M  V30 714 C 71.7438 -2.52477 3.73585 0
M  V30 715 C 70.4058 -2.45466 4.13884 0
M  V30 716 C 72.7578 -2.31066 4.67181 0
M  V30 717 C 70.0858 -2.15064 5.45861 0
M  V30 718 C 72.4378 -2.02183 5.9942 0
M  V30 719 C 71.1018 -1.93631 6.38798 0
M  V30 720 H 70.3718 -0.551936 0.494416 0
M  V30 721 H 73.0188 -0.860979 1.71054 0
M  V30 722 H 71.3238 -3.46528 1.82827 0
M  V30 723 H 73.0208 -3.35096 2.20254 0
M  V30 724 H 69.6108 -2.58807 3.41638 0
M  V30 725 H 73.7948 -2.35459 4.3689 0
M  V30 726 H 69.0508 -2.06954 5.75308 0
M  V30 727 H 73.2248 -1.8462 6.71482 0
M  V30 728 H 70.8518 -1.69839 7.40985 0
M  V30 729 N 72.4269 -1.23603 -0.977757 0
M  V30 730 C 73.6519 -1.09735 -1.75991 0
M  V30 731 C 74.0769 0.346858 -1.84874 0
M  V30 732 O 73.4349 1.25093 -1.3123 0
M  V30 733 C 73.4829 -1.73051 -3.16363 0
M  V30 734 O 72.5869 -0.994452 -4.0023 0
M  V30 735 H 71.9279 -0.384476 -0.541364 0
M  V30 736 H 74.4579 -1.6371 -1.2272 0
M  V30 737 H 74.4679 -1.78398 -3.66931 0
M  V30 738 H 73.1429 -2.78137 -3.09213 0
M  V30 739 H 71.7199 -1.01812 -3.58732 0
M  V30 740 N 73.905 1.17692 -1.04816 0
M  V30 741 C 75.13 1.92327 -0.776207 0
M  V30 742 C 75.555 1.76082 0.661581 0
M  V30 743 O 74.913 1.076 1.45917 0
M  V30 744 C 74.961 3.41539 -1.15687 0
M  V30 745 O 74.065 4.11402 -0.286775 0
M  V30 746 H 73.406 0.599735 -0.284981 0
M  V30 747 H 75.936 1.49201 -1.4 0
M  V30 748 H 75.946 3.92269 -1.12202 0
M  V30 749 H 74.621 3.52684 -2.20425 0
M  V30 750 H 73.198 3.70939 -0.381903 0
M  V30 751 N 75.3831 0.828654 1.34056 0
M  V30 752 C 76.3151 0.212052 2.28217 0
M  V30 753 C 77.3281 -0.601362 1.51286 0
M  V30 754 O 78.5171 -0.430104 1.73241 0
M  V30 755 C 75.6171 -0.72088 3.31144 0
M  V30 756 C 74.7901 0.0509587 4.3737 0
M  V30 757 C 73.8491 -0.803766 5.20025 0
M  V30 758 O 72.8751 -0.246667 5.68665 0
M  V30 759 N 74.0771 -2.1227 5.40298 0
M  V30 760 H 76.8421 1.02105 2.81771 0
M  V30 761 H 74.4031 0.686153 1.46641 0
M  V30 762 H 76.3951 -1.29742 3.8334 0
M  V30 763 H 74.9651 -1.43061 2.77943 0
M  V30 764 H 74.1851 0.808831 3.85813 0
M  V30 765 H 75.4731 0.582065 5.0546 0
M  V30 766 H 74.8711 -2.59898 5.02464 0
M  V30 767 H 73.4281 -2.64796 5.95589 0
M  V30 768 N 76.8612 -1.46375 0.584142 0
M  V30 769 C 78.2722 -1.86031 0.157959 0
M  V30 770 C 78.6232 -1.48753 -1.27933 0
M  V30 771 O 77.7482 -0.903098 -1.96655 0
M  V30 772 C 78.3432 -3.37642 0.279892 0
M  V30 773 C 76.9022 -3.76289 -0.09143 0
M  V30 774 C 76.0492 -2.7039 0.615178 0
M  V30 775 H 79.0002 -1.37509 0.792274 0
M  V30 776 H 79.0212 -3.77275 -0.494364 0
M  V30 777 H 78.5332 -3.64742 1.32607 0
M  V30 778 H 76.6342 -3.54806 -1.13769 0
M  V30 779 H 76.7472 -4.78246 0.285886 0
M  V30 780 H 75.1112 -2.5464 0.0552833 0
M  V30 781 H 75.8942 -3.0033 1.66303 0
M  V30 782 N 78.3393 -0.321999 -1.54275 0
M  V30 783 C 79.5873 0.280489 -2.00144 0
M  V30 784 C 79.9083 1.52777 -1.21178 0
M  V30 785 O 79.1783 1.9338 -0.313187 0
M  V30 786 H 77.7583 0.106632 -0.73935 0
M  V30 787 H 80.4203 -0.438184 -1.8991 0
M  V30 788 H 79.5163 0.537972 -3.07428 0
M  V30 789 N 79.8174 1.5752 -0.0501392 0
M  V30 790 C 80.7674 2.07981 0.934231 0
M  V30 791 C 81.7514 0.984745 1.27246 0
M  V30 792 O 82.9434 1.24809 1.25506 0
M  V30 793 C 80.0724 2.62751 2.20945 0
M  V30 794 C 79.1584 3.79225 1.89865 0
M  V30 795 N 79.5494 4.89036 1.29142 0
M  V30 796 C 77.8474 3.88111 2.19741 0
M  V30 797 C 78.5484 5.70084 1.15669 0
M  V30 798 N 77.5244 5.17659 1.65923 0
M  V30 799 H 81.3264 2.90277 0.460053 0
M  V30 800 H 78.8404 1.61665 0.15434 0
M  V30 801 H 80.8374 2.97205 2.9236 0
M  V30 802 H 79.4974 1.81894 2.6897 0
M  V30 803 H 80.5084 5.08854 0.963756 0
M  V30 804 H 77.1854 3.18194 2.70293 0
M  V30 805 H 78.5754 6.68395 0.685356 0
M  V30 806 N 81.2955 -0.223234 1.56011 0
M  V30 807 C 82.5235 -0.964812 1.83027 0
M  V30 808 C 82.9385 -1.78013 0.62904 0
M  V30 809 O 82.2955 -1.78008 -0.402414 0
M  V30 810 C 82.3465 -1.88373 3.08542 0
M  V30 811 O 82.0675 -1.10137 4.2403 0
M  V30 812 C 83.5685 -2.73934 3.48533 0
M  V30 813 H 80.7885 -0.282842 0.608475 0
M  V30 814 H 83.3325 -0.238971 2.03099 0
M  V30 815 H 81.4875 -2.56354 2.9045 0
M  V30 816 H 81.9015 -1.72501 4.95322 0
M  V30 817 H 83.3755 -3.34117 4.39397 0
M  V30 818 H 83.8525 -3.46244 2.70207 0
M  V30 819 H 84.4585 -2.11369 3.69057 0
M  V30 820 N 82.7736 -1.49793 -0.48987 0
M  V30 821 C 84.1846 -1.52914 -1.07118 0
M  V30 822 C 84.5356 -0.321738 -1.93544 0
M  V30 823 O 83.6606 0.567338 -2.08831 0
M  V30 824 C 84.2556 -2.771 -1.94938 0
M  V30 825 C 82.8146 -2.82963 -2.48212 0
M  V30 826 C 81.9616 -2.46972 -1.26096 0
M  V30 827 H 84.9126 -1.56329 -0.273289 0
M  V30 828 H 84.9336 -2.57892 -2.79771 0
M  V30 829 H 84.4456 -3.64959 -1.32009 0
M  V30 830 H 82.5466 -1.99411 -3.14748 0
M  V30 831 H 82.6596 -3.85406 -2.84603 0
M  V30 832 H 81.0236 -1.98994 -1.58976 0
M  V30 833 H 81.8066 -3.37118 -0.648581 0
M  V30 834 N 84.2517 0.741722 -1.39055 0
M  V30 835 C 85.2017 1.84661 -1.33732 0
M  V30 836 C 86.1857 1.59397 -0.219401 0
M  V30 837 O 87.3777 1.71015 -0.456375 0
M  V30 838 C 84.5067 3.22512 -1.17647 0
M  V30 839 C 83.5927 3.53628 -2.34112 0
M  V30 840 N 83.9837 3.55723 -3.59576 0
M  V30 841 C 82.2817 3.83956 -2.26923 0
M  V30 842 C 82.9827 3.84443 -4.36553 0
M  V30 843 N 81.9587 4.01877 -3.66055 0
M  V30 844 H 85.7607 1.84576 -2.28711 0
M  V30 845 H 83.2747 0.939647 -1.32455 0
M  V30 846 H 85.2717 4.01597 -1.11917 0
M  V30 847 H 83.9317 3.2384 -0.236124 0
M  V30 848 H 84.9427 3.37196 -3.93089 0
M  V30 849 H 81.6197 3.92929 -1.41113 0
M  V30 850 H 83.0097 3.92588 -5.45274 0
M  V30 851 N 85.7298 1.2412 0.971189 0
M  V30 852 C 87.1408 1.07236 1.52831 0
M  V30 853 C 87.4918 -0.357352 1.92918 0
M  V30 854 O 86.6168 -1.24528 1.76979 0
M  V30 855 C 87.2118 1.94043 2.77728 0
M  V30 856 C 85.7708 1.81394 3.29808 0
M  V30 857 C 84.9178 1.89189 2.02738 0
M  V30 858 H 87.8688 1.37648 0.789864 0
M  V30 859 H 87.8898 1.47066 3.5093 0
M  V30 860 H 87.4018 2.98093 2.4852 0
M  V30 861 H 85.5028 0.801634 3.63874 0
M  V30 862 H 85.6158 2.65294 3.98944 0
M  V30 863 H 83.9798 1.32877 2.17292 0
M  V30 864 H 84.7628 2.94812 1.759 0
M  V30 865 N 87.2079 -1.17134 1.05439 0
M  V30 866 C 88.1709 -2.19439 0.661764 0
M  V30 867 C 89.1709 -1.58199 -0.288042 0
M  V30 868 O 90.3609 -1.74053 -0.0715803 0
M  V30 869 C 87.4929 -3.40889 -0.0276209 0
M  V30 870 H 88.6859 -2.55688 1.56728 0
M  V30 871 H 86.2389 -1.31259 0.848567 0
M  V30 872 H 86.9739 -3.10187 -0.94629 0
M  V30 873 H 86.7589 -3.86586 0.655238 0
M  V30 874 H 88.2489 -4.16603 -0.288342 0
M  V30 875 N 88.686 -0.835752 -1.33615 0
M  V30 876 C 89.649 -0.272 -2.2758 0
M  V30 877 C 90.649 0.557487 -1.50827 0
M  V30 878 O 91.839 0.37173 -1.70188 0
M  V30 879 C 88.971 0.617173 -3.35267 0
M  V30 880 H 90.164 -1.10111 -2.78954 0
M  V30 881 H 87.717 -0.608594 -1.43965 0
M  V30 882 H 88.452 1.46884 -2.89129 0
M  V30 883 H 88.237 0.0237066 -3.92093 0
M  V30 884 H 89.727 1.005 -4.05326 0
M  V30 885 N 90.1641 1.46063 -0.591896 0
M  V30 886 C 91.3891 2.07226 -0.0850314 0
M  V30 887 C 91.8141 1.43625 1.21463 0
M  V30 888 O 91.1721 0.523305 1.73583 0
M  V30 889 C 91.2201 3.60554 0.0576567 0
M  V30 890 O 90.3241 3.97128 1.11188 0
M  V30 891 H 89.6651 0.660615 -0.0669568 0
M  V30 892 H 92.1951 1.8756 -0.81745 0
M  V30 893 H 92.2051 4.07165 0.2609 0
M  V30 894 H 90.8801 4.06235 -0.891416 0
M  V30 895 H 89.4571 3.62213 0.886356 0
M  V30 896 N 91.6422 0.330177 1.54103 0
M  V30 897 C 93.0582 -0.0222371 1.59585 0
M  V30 898 C 93.2582 -1.49902 1.34654 0
M  V30 899 O 92.3142 -2.25592 1.13421 0
M  V30 900 C 93.6272 0.401932 2.98002 0
M  V30 901 C 95.1752 0.353145 3.11001 0
M  V30 902 C 95.6502 0.752576 4.51775 0
M  V30 903 N 97.1412 0.706239 4.57784 0
M  V30 904 C 97.8762 0.987417 5.64834 0
M  V30 905 N 97.3722 1.33607 6.79795 0
M  V30 906 N 99.1652 0.91254 5.54643 0
M  V30 907 H 91.3162 1.29228 1.68564 0
M  V30 908 H 93.5792 0.525906 0.78875 0
M  V30 909 H 93.2852 1.4311 3.21267 0
M  V30 910 H 93.1592 -0.229699 3.765 0
M  V30 911 H 95.5462 -0.666822 2.87467 0
M  V30 912 H 95.6272 1.0198 2.34593 0
M  V30 913 H 95.2712 1.77049 4.76042 0
M  V30 914 H 95.2012 0.0635409 5.26562 0
M  V30 915 H 97.6922 0.44889 3.75224 0
M  V30 916 H 98.0052 1.53582 7.57385 0
M  V30 917 H 96.3502 1.37439 6.81275 0
M  V30 918 H 99.5412 0.639601 4.6371 0
M  V30 919 H 99.7142 1.13503 6.37982 0
M  V30 920 N 93.1203 -1.57491 0.0584922 0
M  V30 921 C 94.3973 -1.84346 -0.653918 0
M  V30 922 C 94.7773 -0.948355 -1.88599 0
M  V30 923 O 94.1253 -0.0112403 -2.28497 0
M  V30 924 C 94.3353 -3.34239 -1.00425 0
M  V30 925 C 95.6833 -4.01431 -1.38342 0
M  V30 926 O 96.7073 -3.38907 -1.09637 0
M  V30 927 O 95.5663 -5.11683 -1.91943 0
M  V30 928 H 92.6603 -0.761112 -0.323478 0
M  V30 929 H 95.2063 -1.6947 0.0884125 0
M  V30 930 H 93.9783 -3.91089 -0.128625 0
M  V30 931 H 93.6013 -3.54329 -1.80378 0
M  V30 932 N 94.5984 0.214957 -1.56127 0
M  V30 933 C 96.0094 0.781386 -1.69562 0
M  V30 934 C 96.3604 1.84707 -0.66165 0
M  V30 935 O 95.4854 2.156 0.185927 0
M  V30 936 C 96.0804 1.42411 -3.07416 0
M  V30 937 C 94.6394 1.93786 -3.22683 0
M  V30 938 C 93.7864 0.800438 -2.65496 0
M  V30 939 H 96.7374 -0.00980633 -1.58697 0
M  V30 940 H 96.7584 2.29309 -3.0364 0
M  V30 941 H 96.2704 0.64826 -3.82648 0
M  V30 942 H 94.3714 2.74152 -2.52332 0
M  V30 943 H 94.4844 2.1133 -4.29973 0
M  V30 944 H 92.8484 1.2095 -2.2415 0
M  V30 945 H 93.6314 0.0371471 -3.4328 0
M  V30 946 N 96.0765 1.50051 0.48192 0
M  V30 947 C 97.3225 1.60736 1.2366 0
M  V30 948 C 97.6555 0.301786 1.91841 0
M  V30 949 O 96.9305 -0.696025 1.8162 0
M  V30 950 C 97.2135 2.78009 2.28874 0
M  V30 951 C 97.0665 4.18416 1.65069 0
M  V30 952 C 98.3855 2.90867 3.30279 0
M  V30 953 H 95.5045 0.585031 0.448228 0
M  V30 954 H 98.1465 1.82402 0.531946 0
M  V30 955 H 96.2965 2.59667 2.88973 0
M  V30 956 H 97.9685 4.48322 1.0865 0
M  V30 957 H 96.2115 4.23177 0.954148 0
M  V30 958 H 96.8825 4.96381 2.41474 0
M  V30 959 H 99.3585 3.07623 2.80191 0
M  V30 960 H 98.2345 3.74566 4.01238 0
M  V30 961 H 98.4955 2.01021 3.93755 0
M  V30 962 N 97.5546 -0.734337 1.39446 0
M  V30 963 C 98.5176 -1.83004 1.37994 0
M  V30 964 C 99.5176 -1.58397 0.276938 0
M  V30 965 O 100.708 -1.65785 0.534875 0
M  V30 966 C 97.8396 -3.20802 1.1532 0
M  V30 967 H 99.0326 -1.85694 2.35494 0
M  V30 968 H 96.5856 -0.938059 1.25021 0
M  V30 969 H 97.3206 -3.23772 0.185036 0
M  V30 970 H 97.1056 -3.4006 1.95197 0
M  V30 971 H 98.5956 -4.00862 1.17046 0
M  V30 972 N 99.0327 -1.24633 -0.964593 0
M  V30 973 C 100.449 -1.01239 -1.2338 0
M  V30 974 C 100.649 0.2769 -1.99588 0
M  V30 975 O 99.7047 0.992241 -2.32187 0
M  V30 976 C 101.018 -2.22937 -2.01791 0
M  V30 977 C 102.566 -2.27594 -2.14872 0
M  V30 978 C 103.041 -3.48921 -2.96678 0
M  V30 979 N 104.532 -3.49257 -3.04259 0
M  V30 980 C 105.267 -4.39795 -3.67924 0
M  V30 981 N 104.763 -5.40591 -4.33281 0
M  V30 982 N 106.556 -4.275 -3.64966 0
M  V30 983 H 98.7067 -2.0748 -0.454502 0
M  V30 984 H 100.97 -0.910647 -0.26349 0
M  V30 985 H 100.676 -3.16587 -1.53184 0
M  V30 986 H 100.55 -2.25306 -3.02518 0
M  V30 987 H 102.937 -1.34473 -2.6268 0
M  V30 988 H 103.018 -2.2925 -1.13482 0
M  V30 989 H 102.662 -4.42359 -2.49562 0
M  V30 990 H 102.592 -3.4451 -3.98272 0
M  V30 991 H 105.083 -2.76337 -2.57771 0
M  V30 992 H 105.396 -6.05904 -4.79687 0
M  V30 993 H 103.741 -5.44475 -4.3194 0
M  V30 994 H 106.932 -3.47987 -3.13086 0
M  V30 995 H 107.105 -4.98258 -4.14298 0
M  V30 996 N 100.511 1.16574 -1.06058 0
M  V30 997 C 101.739 1.90952 -0.796552 0
M  V30 998 C 102.154 1.77302 0.648808 0
M  V30 999 O 101.511 1.11605 1.44397 0
M  V30 1000 C 101.562 3.41736 -1.17894 0
M  V30 1001 O 101.283 3.54975 -2.56758 0
M  V30 1002 C 102.784 4.33169 -0.942308 0
M  V30 1003 H 100.004 0.605594 -0.288959 0
M  V30 1004 H 102.548 1.47777 -1.41358 0
M  V30 1005 H 100.703 3.82623 -0.606491 0
M  V30 1006 H 101.117 4.4846 -2.72 0
M  V30 1007 H 102.591 5.37439 -1.25952 0
M  V30 1008 H 103.068 4.3903 0.122078 0
M  V30 1009 H 103.674 3.98007 -1.49902 0
M  V30 1010 N 101.989 0.842826 1.3317 0
M  V30 1011 C 103.214 0.453129 2.02389 0
M  V30 1012 C 103.639 -0.939105 1.6298 0
M  V30 1013 O 102.997 -1.61472 0.8244 0
M  V30 1014 C 103.045 0.586094 3.55805 0
M  V30 1015 O 102.149 -0.386029 4.10589 0
M  V30 1016 H 101.49 0.183664 0.638094 0
M  V30 1017 H 104.02 1.13875 1.69981 0
M  V30 1018 H 104.03 0.469209 4.05293 0
M  V30 1019 H 102.705 1.6014 3.83833 0
M  V30 1020 H 101.282 -0.226371 3.72212 0
M  V30 1021 N 103.467 -1.45747 0.599634 0
M  V30 1022 C 104.878 -1.85853 0.177681 0
M  V30 1023 C 105.229 -1.50102 -1.26348 0
M  V30 1024 O 104.354 -0.923905 -1.95686 0
M  V30 1025 C 104.949 -3.37326 0.315688 0
M  V30 1026 C 103.508 -3.76365 -0.0515144 0
M  V30 1027 C 102.655 -2.69722 0.643822 0
M  V30 1028 H 105.606 -1.36661 0.806814 0
M  V30 1029 H 105.627 -3.77778 -0.454321 0
M  V30 1030 H 105.139 -3.63315 1.36468 0
M  V30 1031 H 103.24 -3.55993 -1.09999 0
M  V30 1032 H 103.353 -4.77916 0.336594 0
M  V30 1033 H 101.717 -2.54567 0.0822881 0
M  V30 1034 H 102.5 -2.98549 1.6948 0
M  V30 1035 N 104.945 -0.338344 -1.53925 0
M  V30 1036 C 105.875 0.51328 -2.27789 0
M  V30 1037 C 106.856 1.107 -1.29149 0
M  V30 1038 O 108.041 1.12937 -1.57984 0
M  V30 1039 C 105.171 1.66697 -3.04679 0
M  V30 1040 C 104.125 1.20183 -4.1078 0
M  V30 1041 C 103.451 2.44363 -4.75595 0
M  V30 1042 C 104.751 0.30605 -5.21403 0
M  V30 1043 H 106.445 -0.102883 -2.99223 0
M  V30 1044 H 103.991 -0.0509219 -1.4391 0
M  V30 1045 H 105.944 2.26915 -3.55088 0
M  V30 1046 H 104.668 2.30995 -2.30887 0
M  V30 1047 H 103.327 0.622499 -3.61276 0
M  V30 1048 H 102.975 3.07057 -3.98403 0
M  V30 1049 H 102.675 2.13925 -5.47275 0
M  V30 1050 H 104.199 3.05317 -5.28786 0
M  V30 1051 H 105.613 0.814929 -5.67478 0
M  V30 1052 H 104.01 0.0937929 -6.00027 0
M  V30 1053 H 105.08 -0.65921 -4.80398 0
M  V30 1054 N 106.423 1.57458 -0.0668435 0
M  V30 1055 C 107.355 2.09413 0.931601 0
M  V30 1056 C 108.368 1.02522 1.26464 0
M  V30 1057 O 109.557 1.30049 1.22269 0
M  V30 1058 C 106.657 2.53537 2.24882 0
M  V30 1059 C 105.83 3.83944 2.09537 0
M  V30 1060 C 104.889 4.14214 3.2452 0
M  V30 1061 O 103.915 4.83891 2.9973 0
M  V30 1062 N 105.117 3.67367 4.49469 0
M  V30 1063 H 107.882 2.95699 0.488048 0
M  V30 1064 H 105.443 1.61462 0.119009 0
M  V30 1065 H 107.435 2.70853 3.00701 0
M  V30 1066 H 106.005 1.72415 2.60753 0
M  V30 1067 H 105.225 3.76057 1.18215 0
M  V30 1068 H 106.513 4.69312 1.96529 0
M  V30 1069 H 105.911 3.11068 4.72497 0
M  V30 1070 H 104.468 3.89891 5.2233 0
M  V30 1071 N 107.901 -0.206675 1.56239 0
M  V30 1072 C 109.129 -0.945345 1.8404 0
M  V30 1073 C 109.544 -1.77336 0.647885 0
M  V30 1074 O 108.901 -1.78425 -0.383511 0
M  V30 1075 C 108.952 -1.8509 3.10522 0
M  V30 1076 O 108.673 -1.05634 4.25174 0
M  V30 1077 C 110.174 -2.70222 3.51418 0
M  V30 1078 H 107.394 -0.276372 0.61144 0
M  V30 1079 H 109.938 -0.217417 2.03341 0
M  V30 1080 H 108.093 -2.53259 2.93153 0
M  V30 1081 H 108.507 -1.67238 4.97124 0
M  V30 1082 H 109.981 -3.29438 4.42916 0
M  V30 1083 H 110.458 -3.43358 2.73864 0
M  V30 1084 H 111.064 -2.07443 3.71278 0
M  V30 1085 N 109.379 -1.50304 -0.473955 0
M  V30 1086 C 110.79 -1.54042 -1.0549 0
M  V30 1087 C 111.141 -0.342248 -1.93192 0
M  V30 1088 O 110.266 0.545157 -2.09421 0
M  V30 1089 C 110.861 -2.79152 -1.91989 0
M  V30 1090 C 109.42 -2.8558 -2.45196 0
M  V30 1091 C 108.567 -2.48295 -1.2347 0
M  V30 1092 H 111.518 -1.5661 -0.256693 0
M  V30 1093 H 111.539 -2.60845 -2.7702 0
M  V30 1094 H 111.051 -3.66339 -1.28131 0
M  V30 1095 H 109.152 -2.02738 -3.12615 0
M  V30 1096 H 109.265 -3.88403 -2.80499 0
M  V30 1097 H 107.629 -2.00669 -1.56856 0
M  V30 1098 H 108.412 -3.37787 -0.612789 0
M  V30 1099 N 110.857 0.726932 -1.39834 0
M  V30 1100 C 111.82 1.82269 -1.38962 0
M  V30 1101 C 112.82 1.58248 -0.285334 0
M  V30 1102 O 114.01 1.65499 -0.54366 0
M  V30 1103 C 111.142 3.20186 -1.17019 0
M  V30 1104 H 112.335 1.84443 -2.36476 0
M  V30 1105 H 109.888 0.931416 -1.25516 0
M  V30 1106 H 110.623 3.23669 -0.202204 0
M  V30 1107 H 110.408 3.3902 -1.96998 0
M  V30 1108 H 111.898 4.00235 -1.1917 0
M  V30 1109 N 112.336 1.25143 0.95797 0
M  V30 1110 C 113.299 1.05321 2.03569 0
M  V30 1111 C 114.299 0.007152 1.60798 0
M  V30 1112 O 115.489 0.24903 1.72411 0
M  V30 1113 C 112.621 0.598394 3.35607 0
M  V30 1114 H 113.814 2.00986 2.22586 0
M  V30 1115 H 111.367 1.07502 1.13459 0
M  V30 1116 H 112.102 -0.361014 3.22284 0
M  V30 1117 H 111.887 1.35351 3.67998 0
M  V30 1118 H 113.377 0.48104 4.1482 0
M  V30 1119 N 113.814 -1.1601 1.06675 0
M  V30 1120 C 115.225 -1.68235 0.809565 0
M  V30 1121 C 115.576 -1.8454 -0.666303 0
M  V30 1122 O 114.701 -1.54374 -1.5165 0
M  V30 1123 C 115.296 -3.05585 1.46299 0
M  V30 1124 C 113.855 -3.54915 1.25349 0
M  V30 1125 C 113.002 -2.30804 1.53703 0
M  V30 1126 H 115.953 -1.00318 1.22971 0
M  V30 1127 H 115.974 -3.70174 0.880431 0
M  V30 1128 H 115.486 -2.93686 2.53713 0
M  V30 1129 H 113.587 -3.72067 0.199261 0
M  V30 1130 H 113.7 -4.36774 1.9689 0
M  V30 1131 H 112.064 -2.36007 0.957739 0
M  V30 1132 H 112.847 -2.21499 2.62284 0
M  V30 1133 N 115.292 -0.849877 -1.32721 0
M  V30 1134 C 116.54 -0.450032 -1.97026 0
M  V30 1135 C 116.861 0.996604 -1.67609 0
M  V30 1136 O 116.131 1.6958 -0.980786 0
M  V30 1137 H 114.711 -0.163426 -0.728904 0
M  V30 1138 H 117.373 -1.08526 -1.6189 0
M  V30 1139 H 116.469 -0.591146 -3.0645 0
M  V30 1140 N 116.77 1.45427 -0.607355 0
M  V30 1141 C 117.733 2.28974 0.101693 0
M  V30 1142 C 118.733 1.39754 0.795329 0
M  V30 1143 O 119.923 1.61878 0.643527 0
M  V30 1144 C 117.055 3.20768 1.15414 0
M  V30 1145 H 118.248 2.93147 -0.632844 0
M  V30 1146 H 115.801 1.51945 -0.366391 0
M  V30 1147 H 116.536 2.61395 1.91945 0
M  V30 1148 H 116.321 3.86489 0.66098 0
M  V30 1149 H 117.811 3.83589 1.65073 0
M  V30 1150 N 118.248 0.346503 1.53744 0
M  V30 1151 C 119.211 -0.496439 2.23759 0
M  V30 1152 C 120.211 -1.0252 1.2388 0
M  V30 1153 O 121.401 -0.913974 1.48297 0
M  V30 1154 C 118.533 -1.69187 2.95954 0
M  V30 1155 H 119.726 0.115952 2.99676 0
M  V30 1156 H 117.279 0.0978939 1.55993 0
M  V30 1157 H 118.014 -2.34288 2.24231 0
M  V30 1158 H 117.799 -1.31989 3.69217 0
M  V30 1159 H 119.289 -2.28969 3.49232 0
M  V30 1160 N 119.726 -1.57421 0.075193 0
M  V30 1161 C 120.689 -2.11791 -0.876203 0
M  V30 1162 C 121.689 -1.04268 -1.22412 0
M  V30 1163 O 122.879 -1.30242 -1.15684 0
M  V30 1164 C 120.011 -2.62207 -2.17854 0
M  V30 1165 H 121.204 -2.9716 -0.40444 0
M  V30 1166 H 118.757 -1.55333 -0.173557 0
M  V30 1167 H 119.492 -1.803 -2.6956 0
M  V30 1168 H 119.277 -3.40802 -1.93897 0
M  V30 1169 H 120.767 -3.04335 -2.85955 0
M  V30 1170 N 121.204 0.198386 -1.56346 0
M  V30 1171 C 122.452 0.91747 -1.80075 0
M  V30 1172 C 122.773 1.83929 -0.647692 0
M  V30 1173 O 122.043 1.93029 0.334166 0
M  V30 1174 H 120.623 0.341774 -0.664228 0
M  V30 1175 H 123.285 0.204684 -1.93822 0
M  V30 1176 H 122.381 1.51055 -2.7311 0
M  V30 1177 N 122.682 1.50554 0.465978 0
M  V30 1178 C 124.093 1.54599 1.04671 0
M  V30 1179 C 124.444 0.352488 1.93008 0
M  V30 1180 O 123.569 -0.534044 2.09707 0
M  V30 1181 C 124.164 2.80166 1.90505 0
M  V30 1182 C 122.723 2.86876 2.43678 0
M  V30 1183 C 121.87 2.48947 1.22151 0
M  V30 1184 H 124.821 1.56744 0.248384 0
M  V30 1185 H 124.842 2.62311 2.75633 0
M  V30 1186 H 124.354 3.67013 1.26186 0
M  V30 1187 H 122.455 2.04393 3.11536 0
M  V30 1188 H 122.568 3.89885 2.78436 0
M  V30 1189 H 120.932 2.01498 1.5579 0
M  V30 1190 H 121.715 3.38107 0.594866 0
M  V30 1191 N 124.16 -0.719506 1.40217 0
M  V30 1192 C 125.123 -1.8153 1.39927 0
M  V30 1193 C 126.123 -1.58095 0.293723 0
M  V30 1194 O 127.313 -1.65209 0.552429 0
M  V30 1195 C 124.445 -3.19561 1.18716 0
M  V30 1196 H 125.638 -1.83186 2.37451 0
M  V30 1197 H 123.191 -0.924746 1.26008 0
M  V30 1198 H 123.926 -3.23557 0.219366 0
M  V30 1199 H 123.711 -3.3797 1.98793 0
M  V30 1200 H 125.201 -3.99598 1.21291 0
M  V30 1201 N 125.638 -1.25649 -0.95132 0
M  V30 1202 C 126.568 -1.08808 -2.06599 0
M  V30 1203 C 127.549 0.00382547 -1.701 0
M  V30 1204 O 128.734 -0.166325 -1.93486 0
M  V30 1205 C 125.864 -0.709542 -3.39975 0
M  V30 1206 C 124.818 -1.75206 -3.90496 0
M  V30 1207 C 124.144 -1.22811 -5.20405 0
M  V30 1208 C 125.444 -3.15153 -4.16504 0
M  V30 1209 H 127.138 -2.02048 -2.20946 0
M  V30 1210 H 124.684 -0.972835 -1.06169 0
M  V30 1211 H 126.637 -0.578649 -4.17408 0
M  V30 1212 H 125.361 0.258556 -3.25575 0
M  V30 1213 H 124.02 -1.87145 -3.15234 0
M  V30 1214 H 123.668 -0.250145 -5.02378 0
M  V30 1215 H 123.368 -1.92492 -5.55176 0
M  V30 1216 H 124.892 -1.10968 -6.00432 0
M  V30 1217 H 126.306 -3.06349 -4.84586 0
M  V30 1218 H 124.703 -3.82333 -4.62538 0
M  V30 1219 H 125.773 -3.61966 -3.22658 0
M  V30 1220 N 127.117 1.15442 -1.07289 0
M  V30 1221 C 128.342 1.90638 -0.816828 0
M  V30 1222 C 128.767 1.77445 0.624083 0
M  V30 1223 O 128.125 1.10671 1.43602 0
M  V30 1224 C 128.173 3.39008 -1.22906 0
M  V30 1225 O 127.277 4.10701 -0.373975 0
M  V30 1226 H 126.618 0.593555 -0.297638 0
M  V30 1227 H 129.148 1.46198 -1.43134 0
M  V30 1228 H 129.158 3.89801 -1.20497 0
M  V30 1229 H 127.833 3.47929 -2.27856 0
M  V30 1230 H 126.41 3.70046 -0.460499 0
M  V30 1231 N 128.595 0.856903 1.32268 0
M  V30 1232 C 130.006 0.515711 1.79436 0
M  V30 1233 C 130.357 -0.966586 1.70738 0
M  V30 1234 O 129.482 -1.75409 1.26731 0
M  V30 1235 C 130.077 0.929335 3.25805 0
M  V30 1236 C 128.636 0.640006 3.70919 0
M  V30 1237 C 127.783 1.12784 2.53328 0
M  V30 1238 H 130.734 1.04389 1.19535 0
M  V30 1239 H 130.755 0.246633 3.797 0
M  V30 1240 H 130.267 2.00821 3.32103 0
M  V30 1241 H 128.368 -0.428051 3.70133 0
M  V30 1242 H 128.481 1.20788 4.63624 0
M  V30 1243 H 126.845 0.548033 2.48734 0
M  V30 1244 H 127.628 2.21387 2.62379 0
M  V30 1245 N 130.073 -1.45103 0.615059 0
M  V30 1246 C 131.319 -2.02483 0.113347 0
M  V30 1247 C 131.652 -1.48146 -1.25564 0
M  V30 1248 O 130.927 -0.659104 -1.82992 0
M  V30 1249 C 131.21 -3.60005 0.0825278 0
M  V30 1250 C 131.063 -4.2466 1.48271 0
M  V30 1251 C 132.382 -4.35972 -0.601401 0
M  V30 1252 H 129.501 -0.735764 0.0426632 0
M  V30 1253 H 132.143 -1.72868 0.788461 0
M  V30 1254 H 130.293 -3.85367 -0.492378 0
M  V30 1255 H 131.965 -4.10458 2.10527 0
M  V30 1256 H 130.208 -3.82772 2.04127 0
M  V30 1257 H 130.879 -5.336 1.41332 0
M  V30 1258 H 133.355 -4.15947 -0.112666 0
M  V30 1259 H 132.231 -5.45697 -0.592097 0
M  V30 1260 H 132.492 -4.09391 -1.66887 0
M  V30 1261 N 131.551 -0.354651 -1.53558 0
M  V30 1262 C 132.962 0.126902 -1.86268 0
M  V30 1263 C 133.313 1.49075 -1.27558 0
M  V30 1264 O 132.438 2.08105 -0.5934 0
M  V30 1265 C 133.033 0.237046 -3.3797 0
M  V30 1266 C 131.592 0.662842 -3.70518 0
M  V30 1267 C 130.739 -0.196652 -2.76602 0
M  V30 1268 H 133.69 -0.573849 -1.47962 0
M  V30 1269 H 133.711 1.06259 -3.65362 0
M  V30 1270 H 133.223 -0.755725 -3.80671 0
M  V30 1271 H 131.324 1.66424 -3.33367 0
M  V30 1272 H 131.437 0.445034 -4.77029 0
M  V30 1273 H 129.801 0.332763 -2.52517 0
M  V30 1274 H 130.584 -1.18676 -3.22135 0
M  V30 1275 N 133.029 1.57378 -0.0835403 0
M  V30 1276 C 134.44 1.81261 0.447358 0
M  V30 1277 C 134.791 0.998331 1.68902 0
M  V30 1278 O 133.916 0.224282 2.15235 0
M  V30 1279 C 134.511 3.28767 0.818386 0
M  V30 1280 C 133.07 3.53455 1.29409 0
M  V30 1281 C 132.217 2.75831 0.285024 0
M  V30 1282 H 135.168 1.5566 -0.309115 0
M  V30 1283 H 135.189 3.41459 1.67887 0
M  V30 1284 H 134.701 3.88006 -0.0855019 0
M  V30 1285 H 132.802 2.99534 2.21608 0
M  V30 1286 H 132.915 4.62128 1.2639 0
M  V30 1287 H 131.279 2.42947 0.764767 0
M  V30 1288 H 132.062 3.37813 -0.611341 0
M  V30 1289 N 134.507 -0.190092 1.56449 0
M  V30 1290 C 135.753 -0.911052 1.81184 0
M  V30 1291 C 136.086 -1.82699 0.658396 0
M  V30 1292 O 135.361 -1.91491 -0.340775 0
M  V30 1293 C 135.644 -1.72297 3.16205 0
M  V30 1294 C 135.497 -0.831419 4.42049 0
M  V30 1295 C 136.816 -2.69454 3.47969 0
M  V30 1296 H 133.935 -0.32977 0.659106 0
M  V30 1297 H 136.577 -0.178169 1.89163 0
M  V30 1298 H 134.727 -2.34778 3.09534 0
M  V30 1299 H 136.399 -0.220929 4.60771 0
M  V30 1300 H 134.642 -0.138406 4.33579 0
M  V30 1301 H 135.313 -1.43461 5.33032 0
M  V30 1302 H 137.789 -2.17104 3.54972 0
M  V30 1303 H 136.665 -3.23342 4.43555 0
M  V30 1304 H 136.926 -3.48744 2.71717 0
M  V30 1305 N 135.985 -1.50799 -0.457987 0
M  V30 1306 C 137.231 -1.62683 -1.21088 0
M  V30 1307 C 137.564 -0.332268 -1.91336 0
M  V30 1308 O 136.839 0.667043 -1.82704 0
M  V30 1309 C 137.122 -2.81615 -2.24422 0
M  V30 1310 C 136.975 -4.20989 -1.58392 0
M  V30 1311 C 138.294 -2.96085 -3.2561 0
M  V30 1312 H 135.413 -0.592087 -0.438864 0
M  V30 1313 H 138.055 -1.83225 -0.50286 0
M  V30 1314 H 136.205 -2.64231 -2.84806 0
M  V30 1315 H 137.877 -4.49994 -1.01504 0
M  V30 1316 H 136.12 -4.24641 -0.886704 0
M  V30 1317 H 136.791 -5.0016 -2.33547 0
M  V30 1318 H 139.267 -3.12042 -2.75262 0
M  V30 1319 H 138.143 -3.80902 -3.95228 0
M  V30 1320 H 138.404 -2.0726 -3.90507 0
M  V30 1321 N 137.463 0.71206 -1.40597 0
M  V30 1322 C 138.413 1.81783 -1.37619 0
M  V30 1323 C 139.397 1.58896 -0.253162 0
M  V30 1324 O 140.589 1.70009 -0.492547 0
M  V30 1325 C 137.718 3.19944 -1.24462 0
M  V30 1326 C 136.804 3.48582 -2.4156 0
M  V30 1327 N 137.195 3.48016 -3.67041 0
M  V30 1328 C 135.493 3.79056 -2.35016 0
M  V30 1329 C 136.194 3.75096 -4.44609 0
M  V30 1330 N 135.17 3.94022 -3.74497 0
M  V30 1331 H 138.972 1.79683 -2.32575 0
M  V30 1332 H 136.486 0.91134 -1.34419 0
M  V30 1333 H 138.483 3.99133 -1.20411 0
M  V30 1334 H 137.143 3.23267 -0.304762 0
M  V30 1335 H 138.154 3.28782 -4.00153 0
M  V30 1336 H 134.831 3.89848 -1.49415 0
M  V30 1337 H 136.221 3.80934 -5.53479 0
M  V30 1338 N 138.941 1.26152 0.944643 0
M  V30 1339 C 139.871 1.09902 2.06019 0
M  V30 1340 C 140.852 0.00519538 1.70099 0
M  V30 1341 O 142.037 0.176583 1.93396 0
M  V30 1342 C 139.167 0.727562 3.39594 0
M  V30 1343 C 138.121 1.77274 3.89561 0
M  V30 1344 C 137.447 1.25569 5.19747 0
M  V30 1345 C 138.747 3.17357 4.14827 0
M  V30 1346 H 140.441 2.03217 2.19871 0
M  V30 1347 H 137.987 0.978452 1.05652 0
M  V30 1348 H 139.94 0.600777 4.17095 0
M  V30 1349 H 138.664 -0.241287 3.25707 0
M  V30 1350 H 137.323 1.88814 3.14237 0
M  V30 1351 H 136.971 0.276783 5.02238 0
M  V30 1352 H 136.671 1.95433 5.54148 0
M  V30 1353 H 138.195 1.1415 5.99835 0
M  V30 1354 H 139.609 3.08914 4.82954 0
M  V30 1355 H 138.006 3.84781 4.60504 0
M  V30 1356 H 139.076 3.63673 3.20734 0
M  V30 1357 N 140.419 -1.14872 1.07899 0
M  V30 1358 C 141.647 -1.89661 0.82683 0
M  V30 1359 C 142.062 -1.78312 -0.620519 0
M  V30 1360 O 141.419 -1.13888 -1.42604 0
M  V30 1361 C 141.47 -3.39817 1.23316 0
M  V30 1362 O 141.191 -3.50845 2.62372 0
M  V30 1363 C 142.692 -4.31615 1.0111 0
M  V30 1364 H 139.912 -0.60092 0.298557 0
M  V30 1365 H 142.456 -1.4551 1.43691 0
M  V30 1366 H 140.611 -3.8161 0.667286 0
M  V30 1367 H 141.025 -4.44076 2.79101 0
M  V30 1368 H 142.499 -5.35367 1.34486 0
M  V30 1369 H 142.976 -4.39169 -0.0522168 0
M  V30 1370 H 143.582 -3.95572 1.56215 0
M  V30 1371 N 141.898 -0.863906 -1.31812 0
M  V30 1372 C 142.828 -0.330843 -2.31144 0
M  V30 1373 C 143.809 0.575005 -1.60087 0
M  V30 1374 O 144.994 0.493304 -1.8783 0
M  V30 1375 C 142.124 0.47374 -3.44054 0
M  V30 1376 C 141.078 -0.338481 -4.26659 0
M  V30 1377 C 140.404 0.591412 -5.31419 0
M  V30 1378 C 141.704 -1.56926 -4.98168 0
M  V30 1379 H 143.398 -1.16086 -2.75979 0
M  V30 1380 H 140.944 -0.559657 -1.32679 0
M  V30 1381 H 142.897 0.857143 -4.12591 0
M  V30 1382 H 141.621 1.33721 -2.9797 0
M  V30 1383 H 140.28 -0.703754 -3.59782 0
M  V30 1384 H 139.928 1.45199 -4.81587 0
M  V30 1385 H 139.628 0.0519022 -5.87577 0
M  V30 1386 H 141.152 0.97179 -6.02817 0
M  V30 1387 H 142.566 -1.25764 -5.59336 0
M  V30 1388 H 140.963 -2.04739 -5.64094 0
M  V30 1389 H 142.033 -2.32544 -4.25501 0
M  V30 1390 N 143.376 1.44774 -0.622745 0
M  V30 1391 C 144.792 1.56986 -0.287652 0
M  V30 1392 C 144.992 1.61167 1.20944 0
M  V30 1393 O 144.048 1.55015 1.99315 0
M  V30 1394 C 145.361 2.84551 -0.972188 0
M  V30 1395 C 146.909 2.9825 -0.949536 0
M  V30 1396 C 147.384 4.28605 -1.61437 0
M  V30 1397 N 148.875 4.35399 -1.58057 0
M  V30 1398 C 149.61 5.34964 -2.064 0
M  V30 1399 N 149.106 6.40981 -2.62897 0
M  V30 1400 N 150.899 5.26419 -1.97078 0
M  V30 1401 H 143.05 1.40304 -1.59463 0
M  V30 1402 H 145.313 0.671794 -0.668878 0
M  V30 1403 H 145.019 2.87417 -2.02693 0
M  V30 1404 H 144.893 3.73807 -0.504771 0
M  V30 1405 H 147.28 2.94941 0.0967067 0
M  V30 1406 H 147.361 2.10364 -1.45536 0
M  V30 1407 H 147.005 4.32672 -2.66002 0
M  V30 1408 H 146.935 5.15334 -1.08344 0
M  V30 1409 H 149.426 3.59397 -1.16801 0
M  V30 1410 H 149.739 7.13225 -2.97539 0
M  V30 1411 H 148.084 6.4169 -2.66943 0
M  V30 1412 H 151.275 4.42504 -1.52669 0
M  V30 1413 H 151.448 6.03861 -2.35066 0
M  V30 1414 N 144.854 0.36279 1.53368 0
M  V30 1415 C 145.786 -0.519668 2.23231 0
M  V30 1416 C 146.799 -1.04844 1.24546 0
M  V30 1417 O 147.988 -0.955296 1.50786 0
M  V30 1418 C 145.088 -1.72995 2.9142 0
M  V30 1419 C 144.261 -1.33316 4.16588 0
M  V30 1420 C 143.32 -2.40521 4.68013 0
M  V30 1421 O 142.346 -2.03027 5.3176 0
M  V30 1422 N 143.548 -3.72065 4.45587 0
M  V30 1423 H 146.313 0.078751 2.99597 0
M  V30 1424 H 143.874 0.187833 1.60807 0
M  V30 1425 H 145.866 -2.44184 3.22733 0
M  V30 1426 H 144.436 -2.2353 2.18525 0
M  V30 1427 H 143.656 -0.451236 3.91609 0
M  V30 1428 H 144.944 -1.04432 4.97967 0
M  V30 1429 H 144.342 -4.05304 3.94646 0
M  V30 1430 H 142.899 -4.39366 4.81457 0
M  V30 1431 N 146.332 -1.57332 0.0918853 0
M  V30 1432 C 147.295 -2.12708 -0.85369 0
M  V30 1433 C 148.295 -1.05561 -1.213 0
M  V30 1434 O 149.485 -1.31461 -1.14296 0
M  V30 1435 C 146.617 -2.64503 -2.15061 0
M  V30 1436 H 147.81 -2.97573 -0.3729 0
M  V30 1437 H 145.363 -1.55509 -0.157072 0
M  V30 1438 H 146.098 -1.83149 -2.67632 0
M  V30 1439 H 145.883 -3.4284 -1.90272 0
M  V30 1440 H 147.373 -3.07351 -2.82711 0
M  V30 1441 N 147.81 0.181792 -1.56548 0
M  V30 1442 C 149.058 0.89832 -1.81038 0
M  V30 1443 C 149.379 1.83232 -0.667164 0
M  V30 1444 O 148.649 1.93372 0.313673 0
M  V30 1445 H 147.229 0.33471 -0.667816 0
M  V30 1446 H 149.891 0.184116 -1.94028 0
M  V30 1447 H 148.987 1.4815 -2.74696 0
M  V30 1448 N 149.288 1.51039 0.449983 0
M  V30 1449 C 150.565 1.53612 1.21089 0
M  V30 1450 C 150.945 0.292997 2.09057 0
M  V30 1451 O 150.293 -0.72259 2.16774 0
M  V30 1452 C 150.503 2.84337 2.0237 0
M  V30 1453 C 151.851 3.35807 2.59843 0
M  V30 1454 O 152.875 2.85802 2.12593 0
M  V30 1455 O 151.734 4.23029 3.45989 0
M  V30 1456 H 148.828 0.617057 0.550608 0
M  V30 1457 H 151.374 1.63344 0.460082 0
M  V30 1458 H 150.146 3.66278 1.37681 0
M  V30 1459 H 149.769 2.77708 2.84542 0
M  V30 1460 N 150.766 -0.704594 1.40972 0
M  V30 1461 C 152.043 -1.45847 1.30338 0
M  V30 1462 C 152.423 -2.10973 -0.0732344 0
M  V30 1463 O 151.771 -2.00997 -1.08685 0
M  V30 1464 C 151.981 -2.48525 2.45023 0
M  V30 1465 C 153.329 -3.1404 2.8577 0
M  V30 1466 O 154.353 -2.58848 2.44696 0
M  V30 1467 O 153.212 -4.13981 3.56766 0
M  V30 1468 H 150.306 -0.649092 0.512454 0
M  V30 1469 H 152.852 -0.735836 1.52917 0
M  V30 1470 H 151.624 -1.98994 3.36923 0
M  V30 1471 H 151.247 -3.2831 2.24272 0
M  V30 1472 N 152.244 -1.26651 -0.937939 0
M  V30 1473 C 153.491 -1.12387 -1.6845 0
M  V30 1474 C 153.819 0.332208 -1.91642 0
M  V30 1475 O 153.074 1.2602 -1.49725 0
M  V30 1476 C 153.373 -1.84168 -3.06295 0
M  V30 1477 C 153.039 -3.34056 -3.02849 0
M  V30 1478 C 151.701 -3.74942 -3.01616 0
M  V30 1479 C 154.053 -4.29741 -2.9491 0
M  V30 1480 C 151.381 -5.09894 -2.90215 0
M  V30 1481 C 153.733 -5.64738 -2.8505 0
M  V30 1482 C 152.397 -6.0493 -2.82162 0
M  V30 1483 H 151.667 -0.411252 -0.616403 0
M  V30 1484 H 154.314 -1.57134 -1.09459 0
M  V30 1485 H 152.619 -1.319 -3.6893 0
M  V30 1486 H 154.316 -1.70569 -3.62915 0
M  V30 1487 H 150.906 -3.01534 -3.0459 0
M  V30 1488 H 155.09 -3.99133 -2.94969 0
M  V30 1489 H 150.346 -5.40194 -2.86358 0
M  V30 1490 H 154.52 -6.38561 -2.77872 0
M  V30 1491 H 152.147 -7.09457 -2.73084 0
M  V30 1492 N 153.722 1.14298 -1.08507 0
M  V30 1493 C 154.947 1.8976 -0.837001 0
M  V30 1494 C 155.372 1.78097 0.605228 0
M  V30 1495 O 154.73 1.12188 1.4242 0
M  V30 1496 C 154.778 3.37685 -1.26495 0
M  V30 1497 O 153.882 4.10281 -0.417514 0
M  V30 1498 H 153.223 0.590365 -0.303917 0
M  V30 1499 H 155.753 1.44672 -1.44676 0
M  V30 1500 H 155.763 3.88501 -1.24625 0
M  V30 1501 H 154.438 3.45492 -2.31534 0
M  V30 1502 H 153.015 3.69536 -0.499722 0
M  V30 1503 N 155.201 0.870884 1.31352 0
M  V30 1504 C 156.617 0.562932 1.49343 0
M  V30 1505 C 156.817 -0.902725 1.80148 0
M  V30 1506 O 155.873 -1.68484 1.88067 0
M  V30 1507 C 157.186 1.46393 2.62659 0
M  V30 1508 C 158.734 1.46607 2.76542 0
M  V30 1509 C 159.209 2.35266 3.92955 0
M  V30 1510 N 160.7 2.33151 4.00243 0
M  V30 1511 C 161.435 2.98471 4.89594 0
M  V30 1512 N 160.931 3.72964 5.8384 0
M  V30 1513 N 162.724 2.87775 4.82848 0
M  V30 1514 H 154.875 1.81923 1.09626 0
M  V30 1515 H 157.138 0.777934 0.541777 0
M  V30 1516 H 156.844 2.50689 2.46674 0
M  V30 1517 H 156.718 1.16314 3.58819 0
M  V30 1518 H 159.105 0.43069 2.9194 0
M  V30 1519 H 159.186 1.8071 1.81046 0
M  V30 1520 H 158.83 3.38881 3.78315 0
M  V30 1521 H 158.76 1.98487 4.87761 0
M  V30 1522 H 161.251 1.79006 3.32814 0
M  V30 1523 H 161.564 4.19932 6.4875 0
M  V30 1524 H 159.909 3.77073 5.83816 0
M  V30 1525 H 163.1 2.29116 4.08195 0
M  V30 1526 H 163.273 3.38961 5.52277 0
M  V30 1527 N 156.679 -1.44442 0.630414 0
M  V30 1528 C 158.095 -1.56832 0.295973 0
M  V30 1529 C 158.295 -1.61806 -1.20088 0
M  V30 1530 O 157.351 -1.5607 -1.9849 0
M  V30 1531 C 158.664 -2.84031 0.987264 0
M  V30 1532 C 160.212 -2.97742 0.96534 0
M  V30 1533 C 160.687 -4.27743 1.63708 0
M  V30 1534 N 162.178 -4.34555 1.60364 0
M  V30 1535 C 162.913 -5.33862 2.09234 0
M  V30 1536 N 162.409 -6.39578 2.66292 0
M  V30 1537 N 164.202 -5.25366 1.99867 0
M  V30 1538 H 156.353 -1.39457 1.60205 0
M  V30 1539 H 158.616 -0.668237 0.672431 0
M  V30 1540 H 158.322 -2.86338 2.04215 0
M  V30 1541 H 158.196 -3.73534 0.524588 0
M  V30 1542 H 160.583 -2.94989 -0.0810639 0
M  V30 1543 H 160.664 -2.09589 1.4665 0
M  V30 1544 H 160.308 -4.31255 2.68293 0
M  V30 1545 H 160.238 -5.14752 1.11076 0
M  V30 1546 H 162.729 -3.58772 1.18705 0
M  V30 1547 H 163.042 -7.11637 3.01317 0
M  V30 1548 H 161.387 -6.40265 2.70343 0
M  V30 1549 H 164.578 -4.41688 1.55013 0
M  V30 1550 H 164.751 -6.02606 2.38265 0
M  V30 1551 N 158.157 -0.370918 -1.53173 0
M  V30 1552 C 159.387 0.217389 -2.05453 0
M  V30 1553 C 159.795 1.42568 -1.24382 0
M  V30 1554 O 159.138 1.81571 -0.278839 0
M  V30 1555 C 159.2 0.669827 -3.53205 0
M  V30 1556 C 158.864 -0.4225 -4.55043 0
M  V30 1557 C 159.861 -1.27407 -5.04047 0
M  V30 1558 C 157.546 -0.58427 -4.9889 0
M  V30 1559 C 159.54 -2.27271 -5.95505 0
M  V30 1560 C 157.227 -1.58627 -5.90153 0
M  V30 1561 C 158.225 -2.42892 -6.38351 0
M  V30 1562 O 157.913 -3.41382 -7.27814 0
M  V30 1563 H 157.645 0.0408171 -0.674767 0
M  V30 1564 H 160.199 -0.5292 -1.98466 0
M  V30 1565 H 158.429 1.4681 -3.57748 0
M  V30 1566 H 160.118 1.18173 -3.88317 0
M  V30 1567 H 160.884 -1.16031 -4.70916 0
M  V30 1568 H 156.763 0.061851 -4.60959 0
M  V30 1569 H 160.307 -2.93079 -6.33049 0
M  V30 1570 H 156.204 -1.70048 -6.22699 0
M  V30 1571 H 156.972 -3.37173 -7.45826 0
M  V30 1572 N 159.635 1.57281 -0.100228 0
M  V30 1573 C 161.051 1.57527 0.256416 0
M  V30 1574 C 161.251 1.11173 1.68056 0
M  V30 1575 O 160.307 0.79053 2.39806 0
M  V30 1576 C 161.62 3.00673 0.0401747 0
M  V30 1577 C 163.168 3.12815 0.107528 0
M  V30 1578 C 163.643 4.57929 -0.0807834 0
M  V30 1579 N 165.134 4.63193 -0.0261207 0
M  V30 1580 C 165.869 5.73212 -0.146999 0
M  V30 1581 N 165.365 6.92047 -0.322999 0
M  V30 1582 N 167.158 5.62031 -0.0879044 0
M  V30 1583 H 159.309 1.85718 -1.03065 0
M  V30 1584 H 161.572 0.857446 -0.404339 0
M  V30 1585 H 161.278 3.38804 -0.943649 0
M  V30 1586 H 161.152 3.69042 0.780262 0
M  V30 1587 H 163.539 2.74554 1.08186 0
M  V30 1588 H 163.62 2.47028 -0.664134 0
M  V30 1589 H 163.264 4.96886 -1.05201 0
M  V30 1590 H 163.194 5.21783 0.710635 0
M  V30 1591 H 165.685 3.77748 0.107161 0
M  V30 1592 H 165.998 7.7173 -0.406608 0
M  V30 1593 H 164.343 6.94074 -0.358733 0
M  V30 1594 H 167.534 4.68075 0.048498 0
M  V30 1595 H 167.707 6.47734 -0.185557 0
M  V30 1596 N 161.113 -0.173488 1.56642 0
M  V30 1597 C 162.529 -0.525174 1.50712 0
M  V30 1598 C 162.729 -1.8476 0.804107 0
M  V30 1599 O 161.785 -2.49869 0.363574 0
M  V30 1600 C 163.098 -0.559937 2.95441 0
M  V30 1601 C 164.646 -0.647288 3.06234 0
M  V30 1602 C 165.121 -0.712963 4.52417 0
M  V30 1603 N 166.612 -0.775911 4.56655 0
M  V30 1604 C 167.347 -0.847264 5.67106 0
M  V30 1605 N 166.843 -0.879585 6.87194 0
M  V30 1606 N 168.636 -0.886117 5.55071 0
M  V30 1607 H 160.787 0.693681 2.00753 0
M  V30 1608 H 163.05 0.249841 0.914485 0
M  V30 1609 H 162.756 0.343049 3.50023 0
M  V30 1610 H 162.63 -1.40718 3.49969 0
M  V30 1611 H 165.017 -1.5407 2.51687 0
M  V30 1612 H 165.098 0.226586 2.54794 0
M  V30 1613 H 164.742 0.176183 5.07594 0
M  V30 1614 H 164.672 -1.60295 5.0161 0
M  V30 1615 H 167.163 -0.759304 3.70193 0
M  V30 1616 H 167.476 -0.935144 7.67121 0
M  V30 1617 H 165.821 -0.847898 6.89808 0
M  V30 1618 H 169.012 -0.857853 4.60172 0
M  V30 1619 H 169.185 -0.938263 6.41171 0
M  V30 1620 N 162.591 -1.51276 -0.441967 0
M  V30 1621 C 163.868 -1.54252 -1.20273 0
M  V30 1622 C 164.248 -0.30408 -2.08898 0
M  V30 1623 O 163.596 0.711084 -2.17154 0
M  V30 1624 C 163.806 -2.85406 -2.00859 0
M  V30 1625 C 165.154 -3.37181 -2.58059 0
M  V30 1626 O 166.178 -2.86925 -2.11074 0
M  V30 1627 O 165.037 -4.24858 -3.43741 0
M  V30 1628 H 162.131 -0.619969 -0.547328 0
M  V30 1629 H 164.677 -1.63586 -0.451413 0
M  V30 1630 H 163.449 -3.67003 -1.35736 0
M  V30 1631 H 163.072 -2.79213 -2.83065 0
M  V30 1632 N 164.069 0.697108 -1.41344 0
M  V30 1633 C 165.316 1.45714 -1.40619 0
M  V30 1634 C 165.644 1.94494 -0.0147907 0
M  V30 1635 O 164.899 1.69794 0.973066 0
M  V30 1636 C 165.198 2.68553 -2.35826 0
M  V30 1637 C 164.864 2.38438 -3.82698 0
M  V30 1638 C 163.526 2.29936 -4.22709 0
M  V30 1639 C 165.878 2.13567 -4.75435 0
M  V30 1640 C 163.206 1.94656 -5.53467 0
M  V30 1641 C 165.558 1.79797 -6.06511 0
M  V30 1642 C 164.222 1.69789 -6.45545 0
M  V30 1643 H 163.492 0.533206 -0.51456 0
M  V30 1644 H 166.139 0.796901 -1.74131 0
M  V30 1645 H 164.444 3.39503 -1.95563 0
M  V30 1646 H 166.141 3.2669 -2.32539 0
M  V30 1647 H 162.731 2.4595 -3.51008 0
M  V30 1648 H 166.915 2.19082 -4.45328 0
M  V30 1649 H 162.171 1.8546 -5.82593 0
M  V30 1650 H 166.345 1.59572 -6.77872 0
M  V30 1651 H 163.972 1.4222 -7.46778 0
M  V30 1652 N 165.547 1.27147 0.931209 0
M  V30 1653 C 166.51 1.09615 2.01289 0
M  V30 1654 C 167.51 0.0412581 1.60747 0
M  V30 1655 O 168.7 0.285545 1.71844 0
M  V30 1656 C 165.832 0.669447 3.34262 0
M  V30 1657 H 167.025 2.05662 2.18273 0
M  V30 1658 H 164.578 1.09885 1.11153 0
M  V30 1659 H 165.313 -0.292572 3.22978 0
M  V30 1660 H 165.098 1.43127 3.65044 0
M  V30 1661 H 166.588 0.568921 4.13706 0
M  V30 1662 N 167.025 -1.13721 1.09112 0
M  V30 1663 C 167.935 -2.22638 0.73957 0
M  V30 1664 C 168.951 -1.72091 -0.257068 0
M  V30 1665 O 170.127 -2.01155 -0.0992154 0
M  V30 1666 C 167.192 -3.46322 0.16191 0
M  V30 1667 C 166.253 -4.11775 1.21408 0
M  V30 1668 C 165.486 -5.29555 0.663891 0
M  V30 1669 O 165.709 -5.68077 -0.514274 0
M  V30 1670 O 164.643 -5.84973 1.41738 0
M  V30 1671 H 168.469 -2.55074 1.64836 0
M  V30 1672 H 166.054 -1.21791 0.865289 0
M  V30 1673 H 167.936 -4.21107 -0.157073 0
M  V30 1674 H 166.611 -3.15593 -0.719932 0
M  V30 1675 H 165.518 -3.3883 1.58571 0
M  V30 1676 H 166.851 -4.46627 2.06845 0
M  V30 1677 N 168.503 -0.877838 -1.30888 0
M  V30 1678 C 169.436 -0.283995 -2.26426 0
M  V30 1679 C 170.414 0.591361 -1.51465 0
M  V30 1680 O 171.598 0.54304 -1.80509 0
M  V30 1681 C 168.725 0.597129 -3.33395 0
M  V30 1682 C 167.771 -0.207937 -4.25993 0
M  V30 1683 S 168.604 -1.59158 -5.11301 0
M  V30 1684 C 169.76 -0.716791 -6.21782 0
M  V30 1685 H 169.993 -1.09383 -2.76446 0
M  V30 1686 H 167.526 -0.676828 -1.38775 0
M  V30 1687 H 169.484 1.09978 -3.95493 0
M  V30 1688 H 168.145 1.38099 -2.82113 0
M  V30 1689 H 167.338 0.464163 -5.01858 0
M  V30 1690 H 166.94 -0.642963 -3.68432 0
M  V30 1691 H 169.232 0.0692833 -6.77465 0
M  V30 1692 H 170.175 -1.44682 -6.93161 0
M  V30 1693 H 170.583 -0.280855 -5.63801 0
M  V30 1694 N 169.982 1.44106 -0.638065 0
M  V30 1695 C 171.207 2.0685 -0.150916 0
M  V30 1696 C 171.632 1.47417 1.16833 0
M  V30 1697 O 170.99 0.578264 1.71831 0
M  V30 1698 C 171.038 3.60555 -0.05708 0
M  V30 1699 O 170.142 4.00465 0.984972 0
M  V30 1700 H 169.483 0.658151 -0.0879399 0
M  V30 1701 H 172.013 1.84865 -0.876707 0
M  V30 1702 H 172.023 4.07789 0.131232 0
M  V30 1703 H 170.698 4.03193 -1.02021 0
M  V30 1704 H 169.275 3.64849 0.770672 0
M  V30 1705 N 171.46 0.379036 1.52974 0
M  V30 1706 C 172.685 -0.209353 2.06341 0
M  V30 1707 C 173.11 -1.40583 1.24972 0
M  V30 1708 O 172.468 -1.79246 0.272155 0
M  V30 1709 C 172.516 -0.567786 3.56102 0
M  V30 1710 O 171.62 -1.66318 3.77375 0
M  V30 1711 H 170.961 -0.0272919 0.663439 0
M  V30 1712 H 173.491 0.543536 1.97248 0
M  V30 1713 H 173.501 -0.835003 3.99364 0
M  V30 1714 H 172.176 0.307013 4.14765 0
M  V30 1715 H 170.753 -1.39048 3.46006 0
M  V30 1716 N 172.938 -1.57226 0.108567 0
M  V30 1717 C 173.87 -2.11809 -0.875752 0
M  V30 1718 C 174.883 -1.05839 -1.23701 0
M  V30 1719 O 176.072 -1.33245 -1.18778 0
M  V30 1720 C 173.172 -2.59411 -2.18081 0
M  V30 1721 C 172.345 -3.89364 -1.99284 0
M  V30 1722 C 171.404 -4.22672 -3.13424 0
M  V30 1723 O 170.43 -4.91668 -2.86795 0
M  V30 1724 N 171.632 -3.79154 -4.3957 0
M  V30 1725 H 174.397 -2.9689 -0.409477 0
M  V30 1726 H 171.958 -1.61721 -0.076158 0
M  V30 1727 H 173.95 -2.7873 -2.93414 0
M  V30 1728 H 172.52 -1.79268 -2.5609 0
M  V30 1729 H 171.74 -3.79059 -1.08203 0
M  V30 1730 H 173.028 -4.74358 -1.84017 0
M  V30 1731 H 172.426 -3.23486 -4.64083 0
M  V30 1732 H 170.983 -4.03602 -5.11809 0
M  V30 1733 N 174.416 0.165178 -1.56732 0
M  V30 1734 C 175.346 1.20651 -1.99914 0
M  V30 1735 C 176.327 1.45827 -0.875705 0
M  V30 1736 O 177.512 1.57057 -1.14223 0
M  V30 1737 C 174.642 2.54401 -2.36427 0
M  V30 1738 C 173.596 2.43782 -3.51787 0
M  V30 1739 C 172.922 3.82078 -3.7406 0
M  V30 1740 C 174.222 1.93732 -4.85041 0
M  V30 1741 H 175.916 0.847534 -2.87154 0
M  V30 1742 H 173.462 0.40625 -1.38151 0
M  V30 1743 H 175.415 3.27458 -2.65234 0
M  V30 1744 H 174.139 2.92098 -1.46103 0
M  V30 1745 H 172.798 1.73178 -3.23117 0
M  V30 1746 H 172.446 4.17179 -2.81017 0
M  V30 1747 H 172.146 3.7584 -4.51684 0
M  V30 1748 H 173.67 4.56712 -4.05274 0
M  V30 1749 H 175.084 2.56569 -5.12684 0
M  V30 1750 H 173.481 1.98428 -5.66345 0
M  V30 1751 H 174.551 0.891962 -4.76626 0
M  V30 1752 N 175.894 1.51508 0.433938 0
M  V30 1753 C 176.844 1.69451 1.52546 0
M  V30 1754 C 177.828 0.548474 1.51263 0
M  V30 1755 O 179.02 0.804529 1.57659 0
M  V30 1756 C 176.149 1.82604 2.90707 0
M  V30 1757 C 175.235 3.03002 2.96733 0
M  V30 1758 N 175.626 4.26121 2.72496 0
M  V30 1759 C 173.924 3.02327 3.27894 0
M  V30 1760 C 174.625 5.07407 2.84452 0
M  V30 1761 N 173.601 4.42126 3.16269 0
M  V30 1762 H 177.403 2.62305 1.32564 0
M  V30 1763 H 174.917 1.49202 0.641297 0
M  V30 1764 H 176.914 1.93569 3.69238 0
M  V30 1765 H 175.574 0.909339 3.11707 0
M  V30 1766 H 176.585 4.55009 2.4736 0
M  V30 1767 H 173.262 2.20301 3.54646 0
M  V30 1768 H 174.652 6.15422 2.69639 0
M  V30 1769 N 177.372 -0.689602 1.41712 0
M  V30 1770 C 178.302 -1.81577 1.46806 0
M  V30 1771 C 179.283 -1.66945 0.326105 0
M  V30 1772 O 180.468 -1.86588 0.538377 0
M  V30 1773 C 177.598 -3.19762 1.35535 0
M  V30 1774 C 176.552 -3.49107 2.47605 0
M  V30 1775 C 175.878 -4.86711 2.21397 0
M  V30 1776 C 177.178 -3.47483 3.89939 0
M  V30 1777 H 178.872 -1.7757 2.41058 0
M  V30 1778 H 176.418 -0.852887 1.16025 0
M  V30 1779 H 178.371 -3.98263 1.3771 0
M  V30 1780 H 177.095 -3.24409 0.377708 0
M  V30 1781 H 175.754 -2.72959 2.44722 0
M  V30 1782 H 175.402 -4.8799 1.21961 0
M  V30 1783 H 175.102 -5.0731 2.96497 0
M  V30 1784 H 176.626 -5.67515 2.25297 0
M  V30 1785 H 178.04 -4.1598 3.94505 0
M  V30 1786 H 176.437 -3.79615 4.64771 0
M  V30 1787 H 177.507 -2.46341 4.17665 0
M  V30 1788 N 178.85 -1.27639 -0.924453 0
M  V30 1789 C 180.078 -1.16989 -1.70649 0
M  V30 1790 C 180.493 0.272869 -1.86818 0
M  V30 1791 O 179.85 1.18549 -1.38753 0
M  V30 1792 C 179.901 -1.85229 -3.10439 0
M  V30 1793 O 179.622 -3.23868 -2.95028 0
M  V30 1794 C 181.123 -1.80746 -4.04779 0
M  V30 1795 H 178.343 -0.406595 -0.53378 0
M  V30 1796 H 180.887 -1.68569 -1.15778 0
M  V30 1797 H 179.042 -1.37545 -3.6216 0
M  V30 1798 H 179.456 -3.57889 -3.83426 0
M  V30 1799 H 180.93 -2.33101 -5.00368 0
M  V30 1800 H 181.407 -0.777499 -4.32263 0
M  V30 1801 H 182.013 -2.28059 -3.58984 0
M  V30 1802 N 180.328 1.1314 -1.09713 0
M  V30 1803 C 181.739 1.66029 -0.853885 0
M  V30 1804 C 182.09 1.86241 0.617142 0
M  V30 1805 O 181.215 1.5834 1.47503 0
M  V30 1806 C 181.81 3.01599 -1.5435 0
M  V30 1807 C 180.369 3.51467 -1.34714 0
M  V30 1808 C 179.516 2.26648 -1.59769 0
M  V30 1809 H 182.467 0.970226 -1.25588 0
M  V30 1810 H 182.488 3.67709 -0.978267 0
M  V30 1811 H 182 2.86856 -2.6141 0
M  V30 1812 H 180.101 3.71408 -0.297838 0
M  V30 1813 H 180.214 4.314 -2.08401 0
M  V30 1814 H 178.578 2.33385 -1.01998 0
M  V30 1815 H 179.361 2.14467 -2.68065 0
M  V30 1816 N 181.806 0.884767 1.30421 0
M  V30 1817 C 183.053 0.503105 1.96151 0
M  V30 1818 C 183.381 -0.947676 1.69851 0
M  V30 1819 O 182.636 -1.68467 0.995861 0
M  V30 1820 C 182.935 0.724318 3.49983 0
M  V30 1821 C 182.601 2.15015 3.96332 0
M  V30 1822 C 181.263 2.54005 4.08699 0
M  V30 1823 C 183.615 3.07936 4.20505 0
M  V30 1824 C 180.943 3.85128 4.42599 0
M  V30 1825 C 183.295 4.3859 4.55874 0
M  V30 1826 C 181.959 4.77474 4.66449 0
M  V30 1827 H 181.229 0.184099 0.717766 0
M  V30 1828 H 183.876 1.12058 1.55291 0
M  V30 1829 H 182.181 0.0238086 3.91793 0
M  V30 1830 H 183.878 0.408617 3.98913 0
M  V30 1831 H 180.468 1.8375 3.87213 0
M  V30 1832 H 184.652 2.79033 4.10431 0
M  V30 1833 H 179.908 4.14996 4.48986 0
M  V30 1834 H 184.082 5.10629 4.7353 0
M  V30 1835 H 181.709 5.79115 4.92473 0
M  V30 1836 N 183.284 -1.43765 0.645699 0
M  V30 1837 C 184.512 -2.06253 0.163556 0
M  V30 1838 C 184.927 -1.48352 -1.16778 0
M  V30 1839 O 184.284 -0.611932 -1.71935 0
M  V30 1840 C 184.335 -3.61453 0.0583186 0
M  V30 1841 O 184.056 -4.172 1.33702 0
M  V30 1842 C 185.557 -4.41002 -0.450795 0
M  V30 1843 H 182.777 -0.665413 0.0864077 0
M  V30 1844 H 185.321 -1.84396 0.884222 0
M  V30 1845 H 183.476 -3.82522 -0.612865 0
M  V30 1846 H 183.89 -5.10791 1.19131 0
M  V30 1847 H 185.364 -5.49966 -0.473403 0
M  V30 1848 H 185.841 -4.13488 -1.48068 0
M  V30 1849 H 186.447 -4.24886 0.187637 0
M  V30 1850 N 184.763 -0.387143 -1.52771 0
M  V30 1851 C 185.726 0.436939 -2.24997 0
M  V30 1852 C 186.726 0.991991 -1.26555 0
M  V30 1853 O 187.916 0.874335 -1.50669 0
M  V30 1854 C 185.048 1.61281 -3.00335 0
M  V30 1855 H 186.241 -0.195365 -2.99263 0
M  V30 1856 H 183.794 -0.139218 -1.55679 0
M  V30 1857 H 184.529 2.2826 -2.30364 0
M  V30 1858 H 184.314 1.22154 -3.72587 0
M  V30 1859 H 185.804 2.19629 -3.5518 0
M  V30 1860 N 186.241 1.57166 -0.116904 0
M  V30 1861 C 187.657 1.5779 0.239693 0
M  V30 1862 C 187.857 1.1295 1.66867 0
M  V30 1863 O 186.913 0.81592 2.38954 0
M  V30 1864 C 188.226 3.00699 0.00828202 0
M  V30 1865 C 189.774 3.12912 0.0743438 0
M  V30 1866 C 190.249 4.57817 -0.129348 0
M  V30 1867 N 191.74 4.63139 -0.075247 0
M  V30 1868 C 192.475 5.73023 -0.207788 0
M  V30 1869 N 191.971 6.91665 -0.396382 0
M  V30 1870 N 193.764 5.61906 -0.14751 0
M  V30 1871 H 185.915 1.84615 -1.05029 0
M  V30 1872 H 188.178 0.85311 -0.41341 0
M  V30 1873 H 187.884 3.37784 -0.979531 0
M  V30 1874 H 187.758 3.69848 0.741077 0
M  V30 1875 H 190.145 2.75686 1.05268 0
M  V30 1876 H 190.226 2.4631 -0.690297 0
M  V30 1877 H 189.87 4.95742 -1.10465 0
M  V30 1878 H 189.8 5.22507 0.655253 0
M  V30 1879 H 192.291 3.7784 0.0670898 0
M  V30 1880 H 192.604 7.71255 -0.488437 0
M  V30 1881 H 190.949 6.93654 -0.432329 0
M  V30 1882 H 194.14 4.681 -0.00115036 0
M  V30 1883 H 194.313 6.47501 -0.254247 0
M  V30 1884 N 187.719 -0.156864 1.56817 0
M  V30 1885 C 188.967 -0.869404 1.82444 0
M  V30 1886 C 189.288 -1.82147 0.69623 0
M  V30 1887 O 188.558 -1.93847 -0.28287 0
M  V30 1888 H 187.138 -0.324043 0.673056 0
M  V30 1889 H 189.8 -0.153224 1.94297 0
M  V30 1890 H 188.896 -1.43761 2.77019 0
M  V30 1891 N 189.197 -1.51736 -0.425897 0
M  V30 1892 C 190.613 -1.40166 -0.76326 0
M  V30 1893 C 190.813 -0.492962 -1.95377 0
M  V30 1894 O 189.869 0.0475815 -2.52455 0
M  V30 1895 C 191.182 -2.82403 -1.03291 0
M  V30 1896 C 192.73 -2.91632 -1.13665 0
M  V30 1897 C 193.205 -4.34801 -1.43916 0
M  V30 1898 N 194.696 -4.3796 -1.50816 0
M  V30 1899 C 195.431 -5.4578 -1.75817 0
M  V30 1900 N 194.927 -6.63744 -1.98534 0
M  V30 1901 N 196.72 -5.33274 -1.77694 0
M  V30 1902 H 188.871 -2.09361 0.358 0
M  V30 1903 H 191.134 -0.942941 0.0978094 0
M  V30 1904 H 190.84 -3.50943 -0.230696 0
M  V30 1905 H 190.714 -3.22428 -1.95754 0
M  V30 1906 H 193.101 -2.23284 -1.92947 0
M  V30 1907 H 193.182 -2.55088 -0.190756 0
M  V30 1908 H 192.826 -5.03703 -0.65157 0
M  V30 1909 H 192.756 -4.68868 -2.39729 0
M  V30 1910 H 195.247 -3.52919 -1.35118 0
M  V30 1911 H 195.56 -7.41704 -2.17013 0
M  V30 1912 H 193.905 -6.66839 -1.95832 0
M  V30 1913 H 197.096 -4.40098 -1.59473 0
M  V30 1914 H 197.269 -6.1738 -1.9684 0
M  V30 1915 N 190.675 0.682077 -1.42076 0
M  V30 1916 C 191.922 1.44215 -1.42156 0
M  V30 1917 C 192.25 1.94468 -0.0354186 0
M  V30 1918 O 191.505 1.70816 0.955002 0
M  V30 1919 C 191.804 2.66036 -2.38662 0
M  V30 1920 C 191.47 2.34366 -3.85206 0
M  V30 1921 C 190.132 2.25439 -4.25124 0
M  V30 1922 C 192.484 2.08513 -4.77673 0
M  V30 1923 C 189.812 1.88775 -5.55501 0
M  V30 1924 C 192.164 1.73354 -6.08384 0
M  V30 1925 C 190.828 1.62933 -6.47309 0
M  V30 1926 H 190.098 0.527718 -0.520187 0
M  V30 1927 H 192.745 0.778387 -1.74967 0
M  V30 1928 H 191.05 3.3741 -1.99152 0
M  V30 1929 H 192.747 3.24205 -2.35991 0
M  V30 1930 H 189.337 2.42213 -3.53597 0
M  V30 1931 H 193.521 2.14346 -4.47626 0
M  V30 1932 H 188.777 1.7927 -5.84527 0
M  V30 1933 H 192.951 1.52373 -6.79526 0
M  V30 1934 H 190.578 1.34292 -7.48244 0
M  V30 1935 N 192.153 1.28127 0.917671 0
M  V30 1936 C 193.116 1.11744 2.00115 0
M  V30 1937 C 194.116 0.0583052 1.60694 0
M  V30 1938 O 195.306 0.303755 1.71531 0
M  V30 1939 C 192.438 0.704862 3.33533 0
M  V30 1940 H 193.631 2.07966 2.16079 0
M  V30 1941 H 191.184 1.11058 1.09981 0
M  V30 1942 H 191.919 -0.258299 3.2327 0
M  V30 1943 H 191.704 1.4699 3.63505 0
M  V30 1944 H 193.194 0.612768 4.1308 0
M  V30 1945 N 193.631 -1.12557 1.10312 0
M  V30 1946 C 194.859 -1.87864 0.866873 0
M  V30 1947 C 195.274 -1.79588 -0.582557 0
M  V30 1948 O 194.631 -1.16887 -1.40156 0
M  V30 1949 C 194.682 -3.37125 1.30496 0
M  V30 1950 O 194.403 -3.45201 2.69755 0
M  V30 1951 C 195.904 -4.29373 1.10243 0
M  V30 1952 H 193.124 -0.594452 0.311236 0
M  V30 1953 H 195.668 -1.42429 1.46745 0
M  V30 1954 H 193.823 -3.80109 0.748081 0
M  V30 1955 H 194.237 -4.38056 2.88457 0
M  V30 1956 H 195.711 -5.32394 1.45811 0
M  V30 1957 H 196.188 -4.39181 0.0409492 0
M  V30 1958 H 196.794 -3.92169 1.64571 0
M  V30 1959 N 195.109 -0.891671 -1.2995 0
M  V30 1960 C 196.355 -0.514261 -1.96171 0
M  V30 1961 C 196.688 0.935506 -1.70182 0
M  V30 1962 O 195.963 1.66204 -1.01028 0
M  V30 1963 C 196.246 -0.797719 -3.51153 0
M  V30 1964 C 196.099 -2.2986 -3.86632 0
M  V30 1965 C 197.418 -0.278749 -4.39216 0
M  V30 1966 H 194.537 -0.188314 -0.712535 0
M  V30 1967 H 197.179 -1.11689 -1.53706 0
M  V30 1968 H 195.329 -0.284826 -3.87455 0
M  V30 1969 H 197.001 -2.88042 -3.60319 0
M  V30 1970 H 195.244 -2.76257 -3.34462 0
M  V30 1971 H 195.915 -2.44753 -4.94773 0
M  V30 1972 H 198.391 -0.717825 -4.09862 0
M  V30 1973 H 197.267 -0.506353 -5.46559 0
M  V30 1974 H 197.528 0.820266 -4.34424 0
M  V30 1975 N 196.587 1.43421 -0.653314 0
M  V30 1976 C 197.833 2.02111 -0.166992 0
M  V30 1977 C 198.166 1.51423 1.21592 0
M  V30 1978 O 197.441 0.707389 1.8118 0
M  V30 1979 C 197.724 3.5966 -0.177948 0
M  V30 1980 C 197.577 4.20579 -1.59478 0
M  V30 1981 C 198.896 4.37413 0.4856 0
M  V30 1982 H 196.015 0.734374 -0.0621557 0
M  V30 1983 H 198.657 1.70717 -0.834016 0
M  V30 1984 H 196.807 3.86537 0.390032 0
M  V30 1985 H 198.479 4.04732 -2.21336 0
M  V30 1986 H 196.722 3.77226 -2.14204 0
M  V30 1987 H 197.393 5.29665 -1.5543 0
M  V30 1988 H 199.869 4.161 0.00234528 0
M  V30 1989 H 198.745 5.47075 0.447207 0
M  V30 1990 H 199.006 4.13672 1.55974 0
M  V30 1991 N 198.065 0.39524 1.52563 0
M  V30 1992 C 198.975 -0.444232 2.30356 0
M  V30 1993 C 199.991 -1.06615 1.37511 0
M  V30 1994 O 201.167 -1.07067 1.70583 0
M  V30 1995 C 198.232 -1.55315 3.09964 0
M  V30 1996 C 197.293 -0.955734 4.18526 0
M  V30 1997 C 196.526 -2.01181 4.9433 0
M  V30 1998 O 196.749 -3.22781 4.70285 0
M  V30 1999 O 195.683 -1.62579 5.79527 0
M  V30 2000 H 199.509 0.189667 3.03107 0
M  V30 2001 H 197.094 0.1588 1.48554 0
M  V30 2002 H 198.976 -2.19724 3.59582 0
M  V30 2003 H 197.651 -2.17191 2.4002 0
M  V30 2004 H 196.558 -0.274743 3.7309 0
M  V30 2005 H 197.891 -0.381109 4.90722 0
M  V30 2006 N 199.544 -1.57102 0.125237 0
M  V30 2007 C 200.454 -2.19191 -0.8362 0
M  V30 2008 C 201.47 -1.16985 -1.28805 0
M  V30 2009 O 202.646 -1.49479 -1.34974 0
M  V30 2010 C 199.711 -2.78407 -2.06617 0
M  V30 2011 C 198.772 -3.9567 -1.66565 0
M  V30 2012 C 198.005 -4.52052 -2.83698 0
M  V30 2013 O 198.228 -4.07326 -3.99302 0
M  V30 2014 O 197.162 -5.42645 -2.60423 0
M  V30 2015 H 200.988 -3.01816 -0.337776 0
M  V30 2016 H 198.573 -1.4906 -0.100695 0
M  V30 2017 H 200.455 -3.16129 -2.7864 0
M  V30 2018 H 199.13 -1.9881 -2.55453 0
M  V30 2019 H 198.037 -3.62705 -0.916296 0
M  V30 2020 H 199.37 -4.76722 -1.22464 0
M  V30 2021 N 201.022 0.148545 -1.56898 0
M  V30 2022 C 201.952 1.18524 -2.01182 0
M  V30 2023 C 202.933 1.4489 -0.891123 0
M  V30 2024 O 204.118 1.55836 -1.15882 0
M  V30 2025 C 201.248 2.51879 -2.39112 0
M  V30 2026 C 200.202 2.40038 -3.54353 0
M  V30 2027 C 199.528 3.78089 -3.78091 0
M  V30 2028 C 200.828 1.88577 -4.87069 0
M  V30 2029 H 202.522 0.817029 -2.88036 0
M  V30 2030 H 200.068 0.391575 -1.38574 0
M  V30 2031 H 202.021 3.24627 -2.68692 0
M  V30 2032 H 200.745 2.90532 -1.49193 0
M  V30 2033 H 199.404 1.69742 -3.24936 0
M  V30 2034 H 199.052 4.14175 -2.85426 0
M  V30 2035 H 198.752 3.71028 -4.55645 0
M  V30 2036 H 200.276 4.52387 -4.10095 0
M  V30 2037 H 201.69 2.51117 -5.15377 0
M  V30 2038 H 200.087 1.9241 -5.68417 0
M  V30 2039 H 201.157 0.84136 -4.77545 0
M  V30 2040 N 202.5 1.5196 0.417844 0
M  V30 2041 C 203.747 1.65591 1.16559 0
M  V30 2042 C 204.075 0.381565 1.90721 0
M  V30 2043 O 203.33 -0.635156 1.85106 0
M  V30 2044 C 203.629 2.82269 2.19223 0
M  V30 2045 C 203.295 4.20819 1.61933 0
M  V30 2046 C 201.957 4.58506 1.46033 0
M  V30 2047 C 204.309 5.07196 1.20008 0
M  V30 2048 C 201.637 5.80257 0.867113 0
M  V30 2049 C 203.989 6.29544 0.621086 0
M  V30 2050 C 202.653 6.65987 0.449144 0
M  V30 2051 H 201.923 0.605939 0.42652 0
M  V30 2052 H 204.57 1.86041 0.45397 0
M  V30 2053 H 202.875 2.56118 2.96498 0
M  V30 2054 H 204.572 2.90012 2.76936 0
M  V30 2055 H 201.162 3.91116 1.7529 0
M  V30 2056 H 205.346 4.7867 1.31105 0
M  V30 2057 H 200.602 6.07124 0.721833 0
M  V30 2058 H 204.776 6.95805 0.287798 0
M  V30 2059 H 202.403 7.60199 -0.012632 0
M  V30 2060 N 203.978 -0.674533 1.42435 0
M  V30 2061 C 205.394 -0.98769 1.25367 0
M  V30 2062 C 205.594 -2.00879 0.158044 0
M  V30 2063 O 204.65 -2.48075 -0.470633 0
M  V30 2064 C 205.963 -1.49224 2.6106 0
M  V30 2065 C 207.511 -1.61 2.68417 0
M  V30 2066 C 207.986 -2.14852 4.04478 0
M  V30 2067 N 209.477 -2.22185 4.06434 0
M  V30 2068 C 210.212 -2.64928 5.08528 0
M  V30 2069 N 209.708 -3.07121 6.21006 0
M  V30 2070 N 211.501 -2.64679 4.95885 0
M  V30 2071 H 203.652 0.00152503 2.124 0
M  V30 2072 H 205.915 -0.0618434 0.945981 0
M  V30 2073 H 205.621 -0.816453 3.42092 0
M  V30 2074 H 205.495 -2.47094 2.84999 0
M  V30 2075 H 207.882 -2.27686 1.87732 0
M  V30 2076 H 207.963 -0.616195 2.48267 0
M  V30 2077 H 207.607 -1.48775 4.85622 0
M  V30 2078 H 207.537 -3.15024 4.2198 0
M  V30 2079 H 210.028 -1.92435 3.25234 0
M  V30 2080 H 210.341 -3.38423 6.94759 0
M  V30 2081 H 208.686 -3.04978 6.24511 0
M  V30 2082 H 211.877 -2.31078 4.07088 0
M  V30 2083 H 212.05 -2.9767 5.75584 0
M  V30 2084 N 205.456 -1.28612 -0.910864 0
M  V30 2085 C 206.733 -1.06632 -1.63979 0
M  V30 2086 C 207.113 0.393351 -2.07403 0
M  V30 2087 O 206.461 1.37999 -1.82122 0
M  V30 2088 C 206.671 -2.0436 -2.8291 0
M  V30 2089 C 208.019 -2.34666 -3.5386 0
M  V30 2090 O 209.043 -2.02467 -2.93062 0
M  V30 2091 O 207.902 -2.89631 -4.63439 0
M  V30 2092 H 204.996 -0.407737 -0.7195 0
M  V30 2093 H 207.542 -1.39942 -0.959914 0
M  V30 2094 H 206.314 -3.02727 -2.47936 0
M  V30 2095 H 205.937 -1.71714 -3.58609 0
M  V30 2096 N 206.934 1.1197 -1.10907 0
M  V30 2097 C 208.182 1.83225 -0.852819 0
M  V30 2098 C 208.503 1.84769 0.623341 0
M  V30 2099 O 207.773 1.3143 1.45269 0
M  V30 2100 H 206.353 0.67849 -0.312507 0
M  V30 2101 H 209.015 1.3556 -1.40033 0
M  V30 2102 H 208.111 2.87265 -1.22005 0
M  V30 2103 N 208.412 0.89855 1.29475 0
M  V30 2104 C 209.658 0.524658 1.95896 0
M  V30 2105 C 209.991 -0.926468 1.70676 0
M  V30 2106 O 209.266 -1.65665 1.01908 0
M  V30 2107 C 209.549 0.81633 3.50725 0
M  V30 2108 C 209.402 2.31907 3.85408 0
M  V30 2109 C 210.721 0.302038 4.39062 0
M  V30 2110 H 207.84 0.19209 0.711527 0
M  V30 2111 H 210.482 1.12502 1.53112 0
M  V30 2112 H 208.632 0.305369 3.87298 0
M  V30 2113 H 210.304 2.89949 3.58786 0
M  V30 2114 H 208.547 2.78027 3.32992 0
M  V30 2115 H 209.218 2.47373 4.93468 0
M  V30 2116 H 211.694 0.739551 4.09475 0
M  V30 2117 H 210.57 0.535331 5.46283 0
M  V30 2118 H 210.831 -0.797216 4.34853 0
M  V30 2119 N 209.89 -1.43072 0.660911 0
M  V30 2120 C 210.838 -2.32569 -0.0378199 0
M  V30 2121 C 211.832 -1.49046 -0.805092 0
M  V30 2122 O 213.038 -1.65206 -0.714624 0
M  V30 2123 H 209.413 -0.75136 -0.031019 0
M  V30 2124 H 211.384 -2.89216 0.734609 0
M  V30 2125 C 210.133 -3.33453 -0.985124 0
M  V30 2126 H 209.456 -3.97752 -0.404147 0
M  V30 2127 H 210.896 -3.98691 -1.44297 0
M  V30 2128 C 209.355 -2.64642 -2.08486 0
M  V30 2129 O 209.885 -2.46776 -3.16961 0
M  V30 2130 N 208.091 -2.23891 -1.8526 0
M  V30 2131 H 207.638 -2.38621 -0.970449 0
M  V30 2132 H 207.596 -1.78181 -2.59034 0
M  V30 2133 N 211.368 -0.403325 -1.52352 0
M  V30 2134 C 212.614 0.167015 -2.02713 0
M  V30 2135 C 212.969 1.43296 -1.28391 0
M  V30 2136 O 212.262 1.87796 -0.379885 0
M  V30 2137 C 212.456 0.474665 -3.54234 0
M  V30 2138 C 212.285 -0.759909 -4.43233 0
M  V30 2139 C 211.055 -1.28338 -4.88731 0
M  V30 2140 C 213.253 -1.63634 -4.87574 0
M  V30 2141 N 211.235 -2.47404 -5.6184 0
M  V30 2142 C 212.606 -2.67329 -5.59406 0
M  V30 2143 C 214.661 -1.65478 -4.69597 0
M  V30 2144 C 213.364 -3.72773 -6.15169 0
M  V30 2145 C 215.39 -2.69837 -5.26253 0
M  V30 2146 C 214.752 -3.72253 -5.98002 0
M  V30 2147 H 210.851 0.0228343 -0.781667 0
M  V30 2148 H 213.435 -0.556368 -1.86581 0
M  V30 2149 H 211.606 1.16709 -3.7045 0
M  V30 2150 H 213.338 1.03338 -3.91284 0
M  V30 2151 H 210.093 -0.842273 -4.6605 0
M  V30 2152 H 210.517 -3.07688 -6.0304 0
M  V30 2153 H 215.159 -0.876389 -4.13617 0
M  V30 2154 H 212.877 -4.51471 -6.70223 0
M  V30 2155 H 216.463 -2.72164 -5.14216 0
M  V30 2156 H 215.343 -4.51679 -6.41058 0
M  V30 2157 N 212.846 1.57033 -0.133567 0
M  V30 2158 C 214.094 1.953 0.519848 0
M  V30 2159 C 214.415 1.01866 1.66278 0
M  V30 2160 O 213.685 0.0776513 1.95746 0
M  V30 2161 H 212.265 0.721091 0.195032 0
M  V30 2162 H 214.927 1.93809 -0.205921 0
M  V30 2163 H 214.023 2.98695 0.904854 0
M  V30 2164 N 214.325 -0.140222 1.56975 0
M  V30 2165 C 215.741 -0.493088 1.51792 0
M  V30 2166 C 215.941 -1.83013 0.843116 0
M  V30 2167 O 214.997 -2.49041 0.416493 0
M  V30 2168 C 216.31 -0.497144 2.96562 0
M  V30 2169 C 217.858 -0.582186 3.07538 0
M  V30 2170 C 218.333 -0.616838 4.53827 0
M  V30 2171 N 219.824 -0.678873 4.58198 0
M  V30 2172 C 220.559 -0.726782 5.68775 0
M  V30 2173 N 220.055 -0.733623 6.88905 0
M  V30 2174 N 221.848 -0.768179 5.56826 0
M  V30 2175 H 213.999 0.736108 1.99237 0
M  V30 2176 H 216.262 0.269182 0.90898 0
M  V30 2177 H 215.968 0.417217 3.49217 0
M  V30 2178 H 215.842 -1.33263 3.52875 0
M  V30 2179 H 218.229 -1.48697 2.54899 0
M  V30 2180 H 218.31 0.280581 2.54257 0
M  V30 2181 H 217.954 0.283812 5.07106 0
M  V30 2182 H 217.884 -1.49619 5.04898 0
M  V30 2183 H 220.375 -0.68061 3.7172 0
M  V30 2184 H 220.688 -0.772215 7.68932 0
M  V30 2185 H 219.033 -0.701389 6.91452 0
M  V30 2186 H 222.224 -0.760051 4.61888 0
M  V30 2187 H 222.397 -0.80205 6.43017 0
M  V30 2188 N 215.803 -1.52179 -0.40978 0
M  V30 2189 C 217.052 -1.65434 -1.15388 0
M  V30 2190 C 217.365 -0.390056 -1.91671 0
M  V30 2191 O 218.571 -0.402399 -2.68501 0
M  V30 2192 C 217.027 -2.92279 -2.10003 0
M  V30 2193 C 216.635 -4.25813 -1.39239 0
M  V30 2194 C 218.379 -3.14897 -2.84675 0
M  V30 2195 C 216.286 -5.43782 -2.32498 0
M  V30 2196 H 215.216 -0.616267 -0.434432 0
M  V30 2197 H 217.867 -1.78666 -0.418401 0
M  V30 2198 H 216.249 -2.72744 -2.871 0
M  V30 2199 H 217.423 -4.55828 -0.675099 0
M  V30 2200 H 215.738 -4.09292 -0.766097 0
M  V30 2201 H 218.335 -4.0021 -3.54593 0
M  V30 2202 H 218.678 -2.29103 -3.47588 0
M  V30 2203 H 219.211 -3.34901 -2.14677 0
M  V30 2204 H 215.95 -6.3192 -1.74233 0
M  V30 2205 H 215.47 -5.18106 -3.02201 0
M  V30 2206 H 217.149 -5.76834 -2.93038 0
M  V30 2207 N 217.281 0.66697 -1.42791 0
M  V30 2208 C 218.527 1.4291 -1.43891 0
M  V30 2209 C 218.86 1.94114 -0.0578972 0
M  V30 2210 O 218.135 1.71414 0.91911 0
M  V30 2211 C 218.418 2.62049 -2.46987 0
M  V30 2212 C 218.271 2.16426 -3.94309 0
M  V30 2213 C 219.59 3.64266 -2.46978 0
M  V30 2214 H 216.709 0.518306 -0.523954 0
M  V30 2215 H 219.351 0.757321 -1.74255 0
M  V30 2216 H 217.501 3.19361 -2.21225 0
M  V30 2217 H 219.173 1.64221 -4.31079 0
M  V30 2218 H 217.416 1.47925 -4.078 0
M  V30 2219 H 218.087 3.02038 -4.62036 0
M  V30 2220 H 220.563 3.16686 -2.69906 0
M  V30 2221 H 219.439 4.45196 -3.21079 0
M  V30 2222 H 219.7 4.15927 -1.49857 0
M  V30 2223 N 218.759 1.29093 0.90403 0
M  V30 2224 C 219.722 1.1386 1.98919 0
M  V30 2225 C 220.722 0.0753457 1.60623 0
M  V30 2226 O 221.912 0.321931 1.71199 0
M  V30 2227 C 219.044 0.740198 3.32767 0
M  V30 2228 H 220.237 2.10246 2.13861 0
M  V30 2229 H 217.79 1.12218 1.08797 0
M  V30 2230 H 218.525 -0.223997 3.23525 0
M  V30 2231 H 218.31 1.50838 3.61926 0
M  V30 2232 H 219.8 0.656546 4.12407 0
M  V30 2233 N 220.237 -1.11381 1.11499 0
M  V30 2234 C 221.484 -1.83132 0.864231 0
M  V30 2235 C 221.812 -1.84683 -0.610114 0
M  V30 2236 O 221.067 -1.29589 -1.46646 0
M  V30 2237 C 221.366 -3.30026 1.37177 0
M  V30 2238 C 221.032 -3.48634 2.85946 0
M  V30 2239 C 219.694 -3.53421 3.26569 0
M  V30 2240 C 222.046 -3.54837 3.81759 0
M  V30 2241 C 219.374 -3.61967 4.61733 0
M  V30 2242 C 221.726 -3.64915 5.1674 0
M  V30 2243 C 220.39 -3.67962 5.5692 0
M  V30 2244 H 219.66 -0.670127 0.316245 0
M  V30 2245 H 222.307 -1.31354 1.3935 0
M  V30 2246 H 220.612 -3.84304 0.762753 0
M  V30 2247 H 222.309 -3.84034 1.15408 0
M  V30 2248 H 218.899 -3.45579 2.53521 0
M  V30 2249 H 223.083 -3.50399 3.51474 0
M  V30 2250 H 218.339 -3.62603 4.92269 0
M  V30 2251 H 222.513 -3.68658 5.90816 0
M  V30 2252 H 220.14 -3.74336 6.61647 0
M  V30 2253 N 221.715 -0.905404 -1.28997 0
M  V30 2254 C 222.962 -0.534248 -1.95325 0
M  V30 2255 C 223.29 0.920535 -1.71337 0
M  V30 2256 O 222.545 1.66861 -1.02254 0
M  V30 2257 C 222.844 -0.779906 -3.48787 0
M  V30 2258 C 222.51 -2.21293 -3.92861 0
M  V30 2259 C 221.172 -2.60475 -4.04606 0
M  V30 2260 C 223.524 -3.14587 -4.15553 0
M  V30 2261 C 220.852 -3.9212 -4.36416 0
M  V30 2262 C 223.204 -4.45787 -4.48839 0
M  V30 2263 C 221.868 -4.84834 -4.58794 0
M  V30 2264 H 221.138 -0.195495 -0.714747 0
M  V30 2265 H 223.785 -1.14514 -1.53488 0
M  V30 2266 H 222.09 -0.0861365 -3.91705 0
M  V30 2267 H 223.787 -0.472029 -3.98212 0
M  V30 2268 H 220.377 -1.89887 -3.84241 0
M  V30 2269 H 224.561 -2.85528 -4.0594 0
M  V30 2270 H 219.817 -4.22086 -4.42327 0
M  V30 2271 H 223.991 -5.18098 -4.65346 0
M  V30 2272 H 221.618 -5.86877 -4.83197 0
M  V30 2273 N 223.193 1.4272 -0.668489 0
M  V30 2274 C 224.103 2.34596 0.0139753 0
M  V30 2275 C 225.119 1.5474 0.795703 0
M  V30 2276 O 226.295 1.87334 0.739466 0
M  V30 2277 C 223.36 3.33202 0.957982 0
M  V30 2278 C 222.421 4.28957 0.17149 0
M  V30 2279 C 221.654 5.22853 1.07053 0
M  V30 2280 O 221.877 5.21531 2.31001 0
M  V30 2281 O 220.811 5.9952 0.534727 0
M  V30 2282 H 224.637 2.9448 -0.742661 0
M  V30 2283 H 222.222 1.43117 -0.428705 0
M  V30 2284 H 224.104 3.93796 1.50008 0
M  V30 2285 H 222.779 2.758 1.69458 0
M  V30 2286 H 221.686 3.71796 -0.414558 0
M  V30 2287 H 223.019 4.89383 -0.52586 0
M  V30 2288 N 224.671 0.411399 1.52136 0
M  V30 2289 C 225.918 -0.163645 2.01838 0
M  V30 2290 C 226.246 -1.4495 1.29691 0
M  V30 2291 O 225.501 -1.91725 0.392431 0
M  V30 2292 C 225.8 -0.455872 3.54481 0
M  V30 2293 C 225.466 0.741055 4.44769 0
M  V30 2294 C 224.128 1.06936 4.69167 0
M  V30 2295 C 226.48 1.54075 4.97906 0
M  V30 2296 C 223.808 2.19851 5.43951 0
M  V30 2297 C 226.16 2.66067 5.73926 0
M  V30 2298 C 224.824 2.99381 5.96596 0
M  V30 2299 H 224.094 -0.0598821 0.738576 0
M  V30 2300 H 226.741 0.553283 1.83333 0
M  V30 2301 H 225.046 -1.2544 3.71177 0
M  V30 2302 H 226.743 -0.913802 3.90449 0
M  V30 2303 H 223.333 0.475192 4.25958 0
M  V30 2304 H 227.517 1.30033 4.78963 0
M  V30 2305 H 222.773 2.46006 5.59724 0
M  V30 2306 H 226.947 3.28419 6.14096 0
M  V30 2307 H 224.574 3.86992 6.54325 0
M  V30 2308 N 226.149 -1.5696 0.141893 0
M  V30 2309 C 227.397 -1.95573 -0.509484 0
M  V30 2310 C 227.718 -1.02746 -1.65736 0
M  V30 2311 O 226.988 -0.0880311 -1.95702 0
M  V30 2312 H 225.568 -0.722115 -0.191205 0
M  V30 2313 H 228.23 -1.93697 0.216196 0
M  V30 2314 H 227.326 -2.99171 -0.889 0
M  V30 2315 N 227.627 0.131896 -1.57047 0
M  V30 2316 C 228.875 0.840269 -1.83804 0
M  V30 2317 C 229.196 1.81017 -0.72512 0
M  V30 2318 O 228.466 1.94272 0.251995 0
M  V30 2319 H 227.046 0.313294 -0.678127 0
M  V30 2320 H 229.708 0.122294 -1.94516 0
M  V30 2321 H 228.804 1.39335 -2.79271 0
M  V30 2322 N 229.106 1.52395 0.401703 0
M  V30 2323 C 230.352 1.67065 1.14966 0
M  V30 2324 C 230.685 0.403052 1.89971 0
M  V30 2325 O 229.96 -0.598774 1.85054 0
M  V30 2326 C 230.243 2.8975 2.13815 0
M  V30 2327 C 230.096 4.26578 1.42658 0
M  V30 2328 C 231.415 3.07965 3.14397 0
M  V30 2329 H 228.534 0.607968 0.416587 0
M  V30 2330 H 231.176 1.84965 0.434511 0
M  V30 2331 H 229.326 2.74619 2.74803 0
M  V30 2332 H 230.998 4.53451 0.847329 0
M  V30 2333 H 229.241 4.27639 0.72849 0
M  V30 2334 H 229.912 5.08483 2.14823 0
M  V30 2335 H 232.388 3.22043 2.63491 0
M  V30 2336 H 231.264 3.95308 3.80819 0
M  V30 2337 H 231.525 2.21611 3.82545 0
M  V30 2338 N 230.584 -0.659388 1.43143 0
M  V30 2339 C 231.517 -1.78425 1.42267 0
M  V30 2340 C 232.495 -1.60085 0.284894 0
M  V30 2341 O 233.679 -1.82351 0.477527 0
M  V30 2342 C 230.806 -3.15642 1.22833 0
M  V30 2343 C 229.852 -3.52698 2.39806 0
M  V30 2344 S 230.685 -3.53372 4.02353 0
M  V30 2345 C 231.841 -4.93256 3.85291 0
M  V30 2346 H 232.074 -1.78897 2.37452 0
M  V30 2347 H 229.607 -0.831469 1.301 0
M  V30 2348 H 231.565 -3.94838 1.12308 0
M  V30 2349 H 230.226 -3.12739 0.29207 0
M  V30 2350 H 229.419 -4.52475 2.21996 0
M  V30 2351 H 229.021 -2.80899 2.46925 0
M  V30 2352 H 231.313 -5.81751 3.47235 0
M  V30 2353 H 232.256 -5.16115 4.84799 0
M  V30 2354 H 232.664 -4.665 3.17865 0
M  V30 2355 N 232.062 -1.29571 -0.897171 0
M  V30 2356 C 233.302 -1.18959 -1.66217 0
M  V30 2357 C 233.666 0.254271 -1.90309 0
M  V30 2358 O 234.867 0.483407 -2.64417 0
M  V30 2359 C 233.138 -1.98302 -2.9734 0
M  V30 2360 S 234.697 -2.04253 -3.88364 0
M  V30 2361 H 231.515 -0.424137 -0.570639 0
M  V30 2362 H 234.117 -1.6389 -1.06585 0
M  V30 2363 H 232.821 -3.02342 -2.77521 0
M  V30 2364 H 232.352 -1.53986 -3.62011 0
M  V30 2365 H 234.367 -1.16105 -4.82425 0
M  V30 2366 N 233.54 1.10788 -1.12088 0
M  V30 2367 C 234.786 1.82942 -0.875226 0
M  V30 2368 C 235.119 1.84779 0.597538 0
M  V30 2369 O 234.394 1.30578 1.44152 0
M  V30 2370 C 234.677 3.29789 -1.44606 0
M  V30 2371 C 234.53 3.36307 -2.98693 0
M  V30 2372 C 235.849 4.26064 -1.10261 0
M  V30 2373 H 232.968 0.664195 -0.319397 0
M  V30 2374 H 235.61 1.29867 -1.38689 0
M  V30 2375 H 233.76 3.75118 -1.01089 0
M  V30 2376 H 235.432 2.99487 -3.50864 0
M  V30 2377 H 233.675 2.76318 -3.34411 0
M  V30 2378 H 234.346 4.39694 -3.33726 0
M  V30 2379 H 236.822 3.88951 -1.4784 0
M  V30 2380 H 235.698 5.27183 -1.52869 0
M  V30 2381 H 235.959 4.42098 -0.0142953 0
M  V30 2382 N 235.018 0.912232 1.28515 0
M  V30 2383 C 235.928 0.404506 2.31086 0
M  V30 2384 C 236.944 -0.50707 1.66448 0
M  V30 2385 O 238.12 -0.393624 1.97516 0
M  V30 2386 C 235.185 -0.348572 3.44943 0
M  V30 2387 C 234.246 0.59604 4.25142 0
M  V30 2388 C 233.479 -0.121194 5.33562 0
M  V30 2389 O 233.702 -1.34317 5.5436 0
M  V30 2390 O 232.636 0.542716 5.99448 0
M  V30 2391 H 236.462 1.25579 2.76521 0
M  V30 2392 H 234.047 0.676998 1.33181 0
M  V30 2393 H 235.929 -0.77395 4.14232 0
M  V30 2394 H 234.604 -1.17571 3.01594 0
M  V30 2395 H 233.511 1.07079 3.58448 0
M  V30 2396 H 234.844 1.38995 4.72167 0
M  V30 2397 N 236.496 -1.42363 0.676048 0
M  V30 2398 C 237.721 -2.06377 0.205705 0
M  V30 2399 C 238.146 -1.50463 -1.12883 0
M  V30 2400 O 237.504 -0.623619 -1.70237 0
M  V30 2401 C 237.552 -3.60277 0.152655 0
M  V30 2402 O 236.656 -4.02935 -0.87845 0
M  V30 2403 H 235.997 -0.655588 0.105359 0
M  V30 2404 H 238.527 -1.82475 0.925412 0
M  V30 2405 H 238.537 -4.07993 -0.0230675 0
M  V30 2406 H 237.212 -4.00346 1.12675 0
M  V30 2407 H 235.789 -3.66764 -0.673668 0
M  V30 2408 N 237.974 -0.419461 -1.51915 0
M  V30 2409 C 239.22 0.153166 -2.02221 0
M  V30 2410 C 239.553 1.43907 -1.30401 0
M  V30 2411 O 238.828 1.90055 -0.413438 0
M  V30 2412 C 239.111 0.390291 -3.57979 0
M  V30 2413 C 238.964 -0.913014 -4.40436 0
M  V30 2414 C 240.283 1.16794 -4.2432 0
M  V30 2415 H 237.402 0.0541924 -0.735005 0
M  V30 2416 H 240.044 -0.554955 -1.81715 0
M  V30 2417 H 238.194 0.993491 -3.75582 0
M  V30 2418 H 239.866 -1.54882 -4.34522 0
M  V30 2419 H 238.109 -1.52168 -4.06236 0
M  V30 2420 H 238.78 -0.701361 -5.47526 0
M  V30 2421 H 241.256 0.657161 -4.10878 0
M  V30 2422 H 240.132 1.3026 -5.3322 0
M  V30 2423 H 240.393 2.19132 -3.83971 0
M  V30 2424 N 239.452 1.56882 -0.150215 0
M  V30 2425 C 240.4 2.18214 0.805313 0
M  V30 2426 C 241.394 1.14006 1.25296 0
M  V30 2427 O 242.6 1.3225 1.22107 0
M  V30 2428 H 238.975 0.698762 0.277913 0
M  V30 2429 H 240.946 2.97231 0.263862 0
M  V30 2430 C 239.695 2.82065 2.03309 0
M  V30 2431 H 239.018 3.61968 1.69763 0
M  V30 2432 H 240.458 3.28477 2.68103 0
M  V30 2433 C 238.917 1.80739 2.84315 0
M  V30 2434 O 239.447 1.27983 3.80767 0
M  V30 2435 N 237.653 1.4997 2.48913 0
M  V30 2436 H 237.2 1.93062 1.70542 0
M  V30 2437 H 237.158 0.824217 3.03404 0
M  V30 2438 N 240.93 -0.123565 1.57115 0
M  V30 2439 C 242.346 -0.476961 1.52306 0
M  V30 2440 C 242.546 -1.82109 0.86248 0
M  V30 2441 O 241.602 -2.48586 0.442884 0
M  V30 2442 C 242.915 -0.465661 2.97073 0
M  V30 2443 C 244.463 -0.549534 3.08138 0
M  V30 2444 C 244.938 -0.568669 4.54456 0
M  V30 2445 N 246.429 -0.630237 4.58892 0
M  V30 2446 C 247.164 -0.666415 5.69514 0
M  V30 2447 N 246.66 -0.660514 6.89644 0
M  V30 2448 N 248.453 -0.709077 5.5761 0
M  V30 2449 H 240.604 0.757198 1.98445 0
M  V30 2450 H 242.867 0.278808 0.906074 0
M  V30 2451 H 242.573 0.454232 3.48754 0
M  V30 2452 H 242.447 -1.29513 3.54269 0
M  V30 2453 H 244.834 -1.45985 2.56461 0
M  V30 2454 H 244.915 0.307532 2.53945 0
M  V30 2455 H 244.559 0.337581 5.06777 0
M  V30 2456 H 244.489 -1.44256 5.06456 0
M  V30 2457 H 246.98 -0.641146 3.72421 0
M  V30 2458 H 247.293 -0.690616 7.69708 0
M  V30 2459 H 245.638 -0.628012 6.92157 0
M  V30 2460 H 248.829 -0.711019 4.62668 0
M  V30 2461 H 249.002 -0.733804 6.43832 0
M  V30 2462 N 242.408 -1.52605 -0.393616 0
M  V30 2463 C 243.318 -1.79971 -1.50492 0
M  V30 2464 C 244.334 -0.686181 -1.59899 0
M  V30 2465 O 245.51 -0.973274 -1.76322 0
M  V30 2466 C 242.575 -1.95867 -2.86072 0
M  V30 2467 C 241.636 -3.19781 -2.86424 0
M  V30 2468 C 240.869 -3.34909 -4.15538 0
M  V30 2469 O 241.092 -2.54948 -5.10253 0
M  V30 2470 O 240.026 -4.28141 -4.23059 0
M  V30 2471 H 243.852 -2.74328 -1.30299 0
M  V30 2472 H 241.437 -1.3764 -0.581005 0
M  V30 2473 H 243.319 -2.08056 -3.66457 0
M  V30 2474 H 241.994 -1.04699 -3.063 0
M  V30 2475 H 240.901 -3.13038 -2.04837 0
M  V30 2476 H 242.234 -4.1078 -2.71147 0
M  V30 2477 N 243.887 0.651787 -1.4349 0
M  V30 2478 C 244.82 1.77668 -1.43211 0
M  V30 2479 C 245.798 1.59931 -0.29338 0
M  V30 2480 O 246.982 1.82095 -0.487191 0
M  V30 2481 C 244.109 3.14986 -1.24505 0
M  V30 2482 C 243.155 3.51421 -2.41673 0
M  V30 2483 S 243.988 3.51234 -4.04222 0
M  V30 2484 C 245.144 4.91206 -3.87902 0
M  V30 2485 H 245.377 1.77635 -2.38397 0
M  V30 2486 H 242.91 0.824558 -1.30539 0
M  V30 2487 H 244.868 3.94237 -1.144 0
M  V30 2488 H 243.529 3.1258 -0.308651 0
M  V30 2489 H 242.722 4.51291 -2.24393 0
M  V30 2490 H 242.324 2.79585 -2.48411 0
M  V30 2491 H 244.616 5.79902 -3.50315 0
M  V30 2492 H 245.559 5.13537 -4.8753 0
M  V30 2493 H 245.967 4.64808 -3.20334 0
M  V30 2494 N 245.365 1.30045 0.890287 0
M  V30 2495 C 246.59 1.21598 1.68014 0
M  V30 2496 C 247.015 -0.218678 1.86825 0
M  V30 2497 O 246.373 -1.15756 1.39536 0
M  V30 2498 C 246.421 1.94434 3.03691 0
M  V30 2499 O 245.525 1.2678 3.92429 0
M  V30 2500 H 244.866 0.420856 0.513592 0
M  V30 2501 H 247.396 1.71775 1.11151 0
M  V30 2502 H 247.406 2.03251 3.5377 0
M  V30 2503 H 246.081 2.98777 2.89318 0
M  V30 2504 H 244.658 1.26282 3.50866 0
M  V30 2505 N 246.843 -1.10192 1.12674 0
M  V30 2506 C 248.254 -1.63707 0.897604 0
M  V30 2507 C 248.605 -1.87812 -0.567546 0
M  V30 2508 O 247.73 -1.62196 -1.43253 0
M  V30 2509 C 248.325 -2.974 1.62292 0
M  V30 2510 C 246.884 -3.47772 1.43986 0
M  V30 2511 C 246.031 -2.22332 1.65722 0
M  V30 2512 H 248.982 -0.936587 1.28116 0
M  V30 2513 H 249.003 -3.64986 1.07541 0
M  V30 2514 H 248.515 -2.79824 2.68924 0
M  V30 2515 H 246.616 -3.70487 0.396206 0
M  V30 2516 H 246.729 -4.25723 2.19765 0
M  V30 2517 H 245.093 -2.30599 1.08149 0
M  V30 2518 H 245.876 -2.07285 2.73657 0
M  V30 2519 N 248.321 -0.919034 -1.28029 0
M  V30 2520 C 249.251 -0.428581 -2.29533 0
M  V30 2521 C 250.232 0.50659 -1.62381 0
M  V30 2522 O 251.417 0.413195 -1.89753 0
M  V30 2523 C 248.547 0.327388 -3.45753 0
M  V30 2524 C 247.501 -0.519137 -4.2484 0
M  V30 2525 C 246.827 0.365486 -5.33449 0
M  V30 2526 C 248.127 -1.77914 -4.91064 0
M  V30 2527 H 249.821 -1.27687 -2.70807 0
M  V30 2528 H 247.367 -0.615428 -1.30186 0
M  V30 2529 H 249.32 0.681378 -4.15855 0
M  V30 2530 H 248.044 1.20963 -3.03374 0
M  V30 2531 H 246.703 -0.855717 -3.56473 0
M  V30 2532 H 246.351 1.24642 -4.87312 0
M  V30 2533 H 246.051 -0.197356 -5.87268 0
M  V30 2534 H 247.575 0.715241 -6.06396 0
M  V30 2535 H 248.989 -1.49374 -5.53498 0
M  V30 2536 H 247.386 -2.2848 -5.54903 0
M  V30 2537 H 248.456 -2.50382 -4.15255 0
M  V30 2538 N 249.799 1.42003 -0.683588 0
M  V30 2539 C 251.045 2.01712 -0.209825 0
M  V30 2540 C 251.378 1.53968 1.18353 0
M  V30 2541 O 250.653 0.745661 1.79639 0
M  V30 2542 C 250.936 3.59202 -0.254197 0
M  V30 2543 C 250.789 4.17102 -1.68363 0
M  V30 2544 C 252.108 4.38344 0.392709 0
M  V30 2545 H 249.227 0.732891 -0.0777189 0
M  V30 2546 H 251.869 1.68909 -0.87004 0
M  V30 2547 H 250.019 3.87278 0.307954 0
M  V30 2548 H 251.691 3.99946 -2.29871 0
M  V30 2549 H 249.934 3.72597 -2.22157 0
M  V30 2550 H 250.605 5.26249 -1.6663 0
M  V30 2551 H 253.081 4.16011 -0.0859162 0
M  V30 2552 H 251.957 5.47901 0.331063 0
M  V30 2553 H 252.218 4.16887 1.47164 0
M  V30 2554 N 251.277 0.427512 1.51691 0
M  V30 2555 C 252.554 -0.201684 1.94557 0
M  V30 2556 C 252.934 -1.60981 1.36559 0
M  V30 2557 O 252.282 -2.21814 0.548702 0
M  V30 2558 C 252.492 -0.189394 3.48486 0
M  V30 2559 C 253.84 -0.39978 4.22714 0
M  V30 2560 O 254.864 -0.267945 3.55191 0
M  V30 2561 O 253.723 -0.661249 5.42485 0
M  V30 2562 H 250.817 -0.135261 0.815864 0
M  V30 2563 H 253.363 0.484782 1.62628 0
M  V30 2564 H 252.135 0.795431 3.8313 0
M  V30 2565 H 251.758 -0.919187 3.86829 0
M  V30 2566 N 252.755 -1.56801 0.158532 0
M  V30 2567 C 253.703 -2.18638 -0.793729 0
M  V30 2568 C 254.697 -1.14669 -1.24689 0
M  V30 2569 O 255.903 -1.32895 -1.21403 0
M  V30 2570 H 252.278 -0.700226 -0.274204 0
M  V30 2571 H 254.249 -2.97367 -0.248095 0
M  V30 2572 C 252.998 -2.83139 -2.0181 0
M  V30 2573 H 252.321 -3.62863 -1.67841 0
M  V30 2574 H 253.761 -3.29894 -2.66357 0
M  V30 2575 C 252.22 -1.82244 -2.83353 0
M  V30 2576 O 252.75 -1.3 -3.80083 0
M  V30 2577 N 250.956 -1.51288 -2.48114 0
M  V30 2578 H 250.503 -1.93964 -1.69516 0
M  V30 2579 H 250.461 -0.840296 -3.02963 0
M  V30 2580 N 254.233 0.115231 -1.57178 0
M  V30 2581 C 255.482 0.820945 -1.84237 0
M  V30 2582 C 255.795 1.80866 -0.744761 0
M  V30 2583 O 257.001 2.56083 -0.901871 0
M  V30 2584 C 255.457 1.51072 -3.26658 0
M  V30 2585 C 255.065 0.563795 -4.44438 0
M  V30 2586 C 256.809 2.20134 -3.62962 0
M  V30 2587 C 254.716 1.25701 -5.77887 0
M  V30 2588 H 253.646 0.310328 -0.687177 0
M  V30 2589 H 256.297 0.0737134 -1.83352 0
M  V30 2590 H 254.679 2.30471 -3.22024 0
M  V30 2591 H 255.853 -0.197247 -4.60378 0
M  V30 2592 H 254.168 -0.0200638 -4.16395 0
M  V30 2593 H 256.765 2.72696 -4.59936 0
M  V30 2594 H 257.108 2.98107 -2.90582 0
M  V30 2595 H 257.641 1.47619 -3.69396 0
M  V30 2596 H 254.38 0.518493 -6.53446 0
M  V30 2597 H 253.9 1.98997 -5.65827 0
M  V30 2598 H 255.579 1.78915 -6.2177 0
M  V30 2599 N 255.711 1.52812 0.385517 0
M  V30 2600 C 256.674 1.77188 1.45386 0
M  V30 2601 C 257.674 0.641953 1.4743 0
M  V30 2602 O 258.864 0.910033 1.4854 0
M  V30 2603 C 255.996 1.87582 2.8465 0
M  V30 2604 H 257.189 2.72583 1.25054 0
M  V30 2605 H 254.742 1.43586 0.617467 0
M  V30 2606 H 255.477 0.941849 3.10322 0
M  V30 2607 H 255.262 2.69748 2.84567 0
M  V30 2608 H 256.752 2.08102 3.62054 0
M  V30 2609 N 257.189 -0.644168 1.43834 0
M  V30 2610 C 258.119 -1.76814 1.52509 0
M  V30 2611 C 259.1 -1.65823 0.379052 0
M  V30 2612 O 260.285 -1.84781 0.597466 0
M  V30 2613 C 257.415 -3.15288 1.4564 0
M  V30 2614 C 256.369 -3.41053 2.58586 0
M  V30 2615 C 255.695 -4.79421 2.36769 0
M  V30 2616 C 256.995 -3.34902 4.00797 0
M  V30 2617 H 258.689 -1.69812 2.46586 0
M  V30 2618 H 256.235 -0.815542 1.1868 0
M  V30 2619 H 258.188 -3.93681 1.50311 0
M  V30 2620 H 256.912 -3.23043 0.480725 0
M  V30 2621 H 255.571 -2.65035 2.53282 0
M  V30 2622 H 255.219 -4.83863 1.37424 0
M  V30 2623 H 254.919 -4.9762 3.12487 0
M  V30 2624 H 256.443 -5.6006 2.43238 0
M  V30 2625 H 257.857 -4.03218 4.07539 0
M  V30 2626 H 256.254 -3.64637 4.76613 0
M  V30 2627 H 257.324 -2.32928 4.25291 0
M  V30 2628 N 258.668 -1.30515 -0.883378 0
M  V30 2629 C 259.914 -1.20617 -1.63778 0
M  V30 2630 C 260.269 0.236469 -1.90941 0
M  V30 2631 O 259.562 1.16596 -1.52039 0
M  V30 2632 C 259.756 -1.96994 -2.98209 0
M  V30 2633 C 259.585 -3.48537 -2.84169 0
M  V30 2634 C 258.355 -4.17893 -2.84067 0
M  V30 2635 C 260.553 -4.43738 -2.60001 0
M  V30 2636 N 258.535 -5.55685 -2.60936 0
M  V30 2637 C 259.906 -5.69105 -2.46007 0
M  V30 2638 C 261.961 -4.33316 -2.45239 0
M  V30 2639 C 260.664 -6.8523 -2.18752 0
M  V30 2640 C 262.69 -5.4921 -2.19369 0
M  V30 2641 C 262.052 -6.73558 -2.06153 0
M  V30 2642 H 258.151 -0.496434 -0.604216 0
M  V30 2643 H 260.735 -1.64544 -1.04083 0
M  V30 2644 H 258.906 -1.55455 -3.55933 0
M  V30 2645 H 260.638 -1.79225 -3.62851 0
M  V30 2646 H 257.393 -3.69739 -2.95956 0
M  V30 2647 H 257.817 -6.28199 -2.52378 0
M  V30 2648 H 262.459 -3.37856 -2.54191 0
M  V30 2649 H 260.177 -7.80729 -2.08537 0
M  V30 2650 H 263.763 -5.43054 -2.08766 0
M  V30 2651 H 262.643 -7.61721 -1.86416 0
M  V30 2652 N 260.146 1.09593 -1.13257 0
M  V30 2653 C 261.079 2.15451 -0.752061 0
M  V30 2654 C 262.057 1.60493 0.260913 0
M  V30 2655 O 263.241 1.8788 0.152819 0
M  V30 2656 C 260.368 3.38506 -0.114594 0
M  V30 2657 C 259.414 4.12183 -1.09579 0
M  V30 2658 S 260.247 4.6661 -2.62745 0
M  V30 2659 C 261.403 5.92966 -2.00354 0
M  V30 2660 H 261.636 2.47395 -1.64872 0
M  V30 2661 H 259.169 1.21515 -0.952545 0
M  V30 2662 H 261.127 4.09757 0.246808 0
M  V30 2663 H 259.788 3.04784 0.759309 0
M  V30 2664 H 258.981 5.00445 -0.597545 0
M  V30 2665 H 258.583 3.46785 -1.40057 0
M  V30 2666 H 260.875 6.63882 -1.35156 0
M  V30 2667 H 261.818 6.47467 -2.86691 0
M  V30 2668 H 262.226 5.45405 -1.4558 0
M  V30 2669 N 261.624 0.925811 1.2754 0
M  V30 2670 C 262.852 0.581509 1.9856 0
M  V30 2671 C 263.267 -0.840041 1.69082 0
M  V30 2672 O 262.624 -1.55805 0.950312 0
M  V30 2673 C 262.675 0.795589 3.52637 0
M  V30 2674 O 262.396 2.16121 3.81082 0
M  V30 2675 C 263.897 0.459744 4.4091 0
M  V30 2676 H 261.117 0.220538 0.633722 0
M  V30 2677 H 263.661 1.24232 1.6244 0
M  V30 2678 H 261.816 0.18161 3.86974 0
M  V30 2679 H 262.23 2.2098 4.75676 0
M  V30 2680 H 263.704 0.660244 5.48037 0
M  V30 2681 H 264.181 -0.604625 4.35018 0
M  V30 2682 H 264.787 1.05178 4.12089 0
M  V30 2683 N 263.102 -1.41638 0.69111 0
M  V30 2684 C 264.012 -2.34588 0.0233487 0
M  V30 2685 C 265.028 -1.55987 -0.770984 0
M  V30 2686 O 266.204 -1.88486 -0.709569 0
M  V30 2687 C 263.269 -3.34684 -0.904851 0
M  V30 2688 C 262.33 -4.29176 -0.103225 0
M  V30 2689 C 261.563 -5.2449 -0.987216 0
M  V30 2690 O 261.786 -5.2514 -2.22674 0
M  V30 2691 O 260.72 -6.00295 -0.439281 0
M  V30 2692 H 264.546 -2.93261 0.789416 0
M  V30 2693 H 262.131 -1.42417 0.45142 0
M  V30 2694 H 264.013 -3.96133 -1.43724 0
M  V30 2695 H 262.688 -2.78461 -1.65049 0
M  V30 2696 H 261.595 -3.71089 0.473655 0
M  V30 2697 H 262.928 -4.88484 0.60365 0
M  V30 2698 N 264.58 -0.43555 -1.51462 0
M  V30 2699 C 265.81 0.130053 -2.0619 0
M  V30 2700 C 266.218 1.37164 -1.30317 0
M  V30 2701 O 265.561 1.80225 -0.355598 0
M  V30 2702 C 265.623 0.519418 -3.55728 0
M  V30 2703 C 265.287 -0.615119 -4.52841 0
M  V30 2704 C 266.284 -1.48671 -4.9819 0
M  V30 2705 C 263.969 -0.795341 -4.95963 0
M  V30 2706 C 265.963 -2.52324 -5.8533 0
M  V30 2707 C 263.65 -1.83514 -5.82894 0
M  V30 2708 C 264.648 -2.69748 -6.27475 0
M  V30 2709 O 264.336 -3.71944 -7.1268 0
M  V30 2710 H 264.068 0.0121612 -0.675891 0
M  V30 2711 H 266.622 -0.6129 -1.96043 0
M  V30 2712 H 264.852 1.31505 -3.63653 0
M  V30 2713 H 266.541 1.01597 -3.92979 0
M  V30 2714 H 267.307 -1.359 -4.65571 0
M  V30 2715 H 263.186 -0.133713 -4.60806 0
M  V30 2716 H 266.73 -3.19665 -6.20048 0
M  V30 2717 H 262.627 -1.96306 -6.14926 0
M  V30 2718 H 263.395 -3.68503 -7.30854 0
M  V30 2719 N 266.058 1.56714 -0.166846 0
M  V30 2720 C 266.988 2.20754 0.760913 0
M  V30 2721 C 267.969 1.16178 1.24244 0
M  V30 2722 O 269.154 1.44592 1.29641 0
M  V30 2723 C 266.284 2.84478 1.99223 0
M  V30 2724 C 265.238 3.95053 1.64672 0
M  V30 2725 C 264.564 4.45805 2.95232 0
M  V30 2726 C 265.864 5.14865 0.878155 0
M  V30 2727 H 267.558 2.98537 0.22713 0
M  V30 2728 H 265.104 1.43596 0.107805 0
M  V30 2729 H 267.057 3.27951 2.64624 0
M  V30 2730 H 265.781 2.04056 2.55007 0
M  V30 2731 H 264.44 3.52228 1.01641 0
M  V30 2732 H 264.088 3.62181 3.49047 0
M  V30 2733 H 263.788 5.204 2.7287 0
M  V30 2734 H 265.312 4.91962 3.6167 0
M  V30 2735 H 266.726 5.55059 1.43466 0
M  V30 2736 H 265.123 5.95348 0.753738 0
M  V30 2737 H 266.193 4.84735 -0.126377 0
M  V30 2738 N 267.536 -0.106894 1.57237 0
M  V30 2739 C 268.484 -1.14944 2.02215 0
M  V30 2740 C 269.478 -1.42167 0.92114 0
M  V30 2741 O 270.684 -1.41987 1.10634 0
M  V30 2742 H 267.059 -0.387841 0.64427 0
M  V30 2743 H 269.03 -0.743683 2.88984 0
M  V30 2744 C 267.779 -2.4647 2.4525 0
M  V30 2745 H 267.102 -2.26363 3.29545 0
M  V30 2746 H 268.542 -3.17948 2.80508 0
M  V30 2747 C 267.001 -3.09921 1.321 0
M  V30 2748 O 267.531 -3.9651 0.643622 0
M  V30 2749 N 265.737 -2.69986 1.07497 0
M  V30 2750 H 265.284 -1.99667 1.62761 0
M  V30 2751 H 265.242 -3.12769 0.319876 0
M  V30 2752 N 269.014 -1.53014 -0.377408 0
M  V30 2753 C 270.43 -1.42523 -0.718281 0
M  V30 2754 C 270.63 -0.55487 -1.9371 0
M  V30 2755 O 269.686 -0.0327593 -2.52479 0
M  V30 2756 C 270.999 -2.85546 -0.942539 0
M  V30 2757 C 272.547 -2.95101 -1.04329 0
M  V30 2758 C 273.022 -4.3916 -1.3001 0
M  V30 2759 N 274.513 -4.42536 -1.36806 0
M  V30 2760 C 275.248 -5.51097 -1.58364 0
M  V30 2761 N 274.744 -6.69724 -1.77317 0
M  V30 2762 N 276.537 -5.38657 -1.60638 0
M  V30 2763 H 268.688 -2.08116 0.424426 0
M  V30 2764 H 270.951 -0.939352 0.127759 0
M  V30 2765 H 270.657 -3.51499 -0.118929 0
M  V30 2766 H 270.531 -3.28493 -1.85397 0
M  V30 2767 H 272.918 -2.29309 -1.85745 0
M  V30 2768 H 272.999 -2.55566 -0.109505 0
M  V30 2769 H 272.643 -5.05521 -0.490991 0
M  V30 2770 H 272.573 -4.76258 -2.24691 0
M  V30 2771 H 275.064 -3.57039 -1.23821 0
M  V30 2772 H 275.377 -7.48233 -1.93306 0
M  V30 2773 H 273.722 -6.72732 -1.74518 0
M  V30 2774 H 276.913 -4.44948 -1.45391 0
M  V30 2775 H 277.086 -6.2333 -1.77098 0
M  V30 2776 N 270.492 0.636531 -1.44174 0
M  V30 2777 C 271.442 1.74233 -1.47061 0
M  V30 2778 C 272.426 1.57331 -0.337034 0
M  V30 2779 O 273.618 1.67159 -0.581973 0
M  V30 2780 C 270.747 3.12897 -1.41246 0
M  V30 2781 C 269.833 3.35288 -2.59698 0
M  V30 2782 N 270.224 3.2807 -3.84972 0
M  V30 2783 C 268.522 3.66065 -2.54778 0
M  V30 2784 C 269.223 3.51001 -4.63867 0
M  V30 2785 N 268.199 3.73616 -3.94857 0
M  V30 2786 H 272.001 1.67103 -2.41773 0
M  V30 2787 H 269.515 0.838806 -1.3906 0
M  V30 2788 H 271.512 3.92189 -1.41398 0
M  V30 2789 H 270.172 3.21197 -0.47569 0
M  V30 2790 H 271.183 3.07109 -4.17019 0
M  V30 2791 H 267.86 3.81379 -1.6987 0
M  V30 2792 H 269.25 3.51059 -5.72894 0
M  V30 2793 N 271.97 1.30982 0.876444 0
M  V30 2794 C 272.9 1.20668 1.99903 0
M  V30 2795 C 273.881 0.095354 1.69833 0
M  V30 2796 O 275.066 0.27885 1.92188 0
M  V30 2797 C 272.196 0.90655 3.3526 0
M  V30 2798 C 271.15 1.97675 3.79617 0
M  V30 2799 C 270.476 1.52943 5.1236 0
M  V30 2800 C 271.776 3.389 3.97422 0
M  V30 2801 H 273.47 2.14586 2.0879 0
M  V30 2802 H 271.016 1.03308 1.00317 0
M  V30 2803 H 272.969 0.821025 4.13324 0
M  V30 2804 H 271.693 -0.0682969 3.26529 0
M  V30 2805 H 270.352 2.05205 3.03787 0
M  V30 2806 H 270 0.54262 5.00065 0
M  V30 2807 H 269.7 2.24532 5.43009 0
M  V30 2808 H 271.224 1.45786 5.92941 0
M  V30 2809 H 272.638 3.34081 4.659 0
M  V30 2810 H 271.035 4.0865 4.3946 0
M  V30 2811 H 272.105 3.80163 3.01006 0
M  V30 2812 N 273.449 -1.08991 1.13837 0
M  V30 2813 C 274.399 -2.1393 0.788535 0
M  V30 2814 C 275.383 -1.59396 -0.219516 0
M  V30 2815 O 276.575 -1.76985 -0.0227557 0
M  V30 2816 C 273.704 -3.42305 0.261147 0
M  V30 2817 C 272.79 -4.03736 1.29837 0
M  V30 2818 N 273.181 -4.39659 2.50067 0
M  V30 2819 C 271.479 -4.30993 1.1472 0
M  V30 2820 C 272.18 -4.88113 3.16419 0
M  V30 2821 N 271.156 -4.85846 2.43832 0
M  V30 2822 H 274.958 -2.39516 1.70322 0
M  V30 2823 H 272.472 -1.26263 1.02134 0
M  V30 2824 H 274.469 -4.16899 -0.0077405 0
M  V30 2825 H 273.129 -3.18172 -0.647805 0
M  V30 2826 H 274.14 -4.30878 2.8734 0
M  V30 2827 H 270.817 -4.16444 0.296773 0
M  V30 2828 H 272.207 -5.25336 4.18894 0
M  V30 2829 N 274.927 -0.932562 -1.27047 0
M  V30 2830 C 276.155 -0.592031 -1.98249 0
M  V30 2831 C 276.57 0.831062 -1.69525 0
M  V30 2832 O 275.927 1.55299 -0.958561 0
M  V30 2833 C 275.978 -0.814279 -3.5221 0
M  V30 2834 O 275.699 -2.18139 -3.7993 0
M  V30 2835 C 277.2 -0.483121 -4.4066 0
M  V30 2836 H 274.42 -0.223896 -0.632544 0
M  V30 2837 H 276.964 -1.25091 -1.61779 0
M  V30 2838 H 275.119 -0.20213 -3.86872 0
M  V30 2839 H 275.533 -2.235 -4.74498 0
M  V30 2840 H 277.007 -0.689298 -5.47679 0
M  V30 2841 H 277.484 0.581546 -4.35333 0
M  V30 2842 H 278.09 -1.07362 -4.11526 0
M  V30 2843 N 276.405 1.4127 -0.698611 0
M  V30 2844 C 277.651 2.01979 -0.239972 0
M  V30 2845 C 278.006 1.54353 1.14861 0
M  V30 2846 O 277.299 0.746218 1.76471 0
M  V30 2847 C 277.493 3.56592 -0.240192 0
M  V30 2848 C 277.322 4.19226 -1.62726 0
M  V30 2849 C 276.092 4.53389 -2.23084 0
M  V30 2850 C 278.29 4.45228 -2.57443 0
M  V30 2851 N 276.272 5.01327 -3.54323 0
M  V30 2852 C 277.643 4.94973 -3.73365 0
M  V30 2853 C 279.698 4.27243 -2.55671 0
M  V30 2854 C 278.401 5.28624 -4.878 0
M  V30 2855 C 280.427 4.61985 -3.69221 0
M  V30 2856 C 279.789 5.11904 -4.83873 0
M  V30 2857 H 275.888 0.770561 -0.133269 0
M  V30 2858 H 278.472 1.71767 -0.916748 0
M  V30 2859 H 276.643 3.86271 0.406082 0
M  V30 2860 H 278.375 4.04025 0.23356 0
M  V30 2861 H 275.13 4.39946 -1.75341 0
M  V30 2862 H 275.554 5.29697 -4.21604 0
M  V30 2863 H 280.196 3.87884 -1.68243 0
M  V30 2864 H 277.914 5.66905 -5.75885 0
M  V30 2865 H 281.5 4.49725 -3.69105 0
M  V30 2866 H 280.38 5.38282 -5.70282 0
M  V30 2867 N 277.883 0.443576 1.51229 0
M  V30 2868 C 279.132 -0.122332 2.01329 0
M  V30 2869 C 279.445 -1.43237 1.33201 0
M  V30 2870 O 280.651 -2.0816 1.74304 0
M  V30 2871 C 279.107 -0.268551 3.58897 0
M  V30 2872 C 278.715 1.03142 4.35965 0
M  V30 2873 C 280.459 -0.787894 4.17124 0
M  V30 2874 C 278.366 0.850504 5.85252 0
M  V30 2875 H 277.296 -0.0494929 0.752374 0
M  V30 2876 H 279.947 0.574289 1.74282 0
M  V30 2877 H 278.329 -1.02832 3.82415 0
M  V30 2878 H 279.503 1.80001 4.24189 0
M  V30 2879 H 277.818 1.47977 3.89219 0
M  V30 2880 H 280.415 -0.939841 5.26375 0
M  V30 2881 H 280.758 -1.77201 3.76703 0
M  V30 2882 H 281.291 -0.0862669 3.97706 0
M  V30 2883 H 278.03 1.80718 6.30096 0
M  V30 2884 H 277.55 0.121825 5.99676 0
M  V30 2885 H 279.229 0.506163 6.45017 0
M  V30 2886 N 279.361 -1.56624 0.175154 0
M  V30 2887 C 280.293 -2.15333 -0.785128 0
M  V30 2888 C 281.306 -1.1099 -1.19101 0
M  V30 2889 O 282.495 -1.38162 -1.13019 0
M  V30 2890 C 279.595 -2.68427 -2.06882 0
M  V30 2891 C 278.768 -3.97466 -1.8259 0
M  V30 2892 C 277.827 -4.35585 -2.95215 0
M  V30 2893 O 276.853 -5.03389 -2.65684 0
M  V30 2894 N 278.055 -3.97457 -4.23094 0
M  V30 2895 H 280.82 -2.98359 -0.283187 0
M  V30 2896 H 278.381 -1.61898 -0.00749817 0
M  V30 2897 H 280.373 -2.90924 -2.81328 0
M  V30 2898 H 278.943 -1.89968 -2.48256 0
M  V30 2899 H 278.163 -3.83307 -0.920287 0
M  V30 2900 H 279.451 -4.81736 -1.63733 0
M  V30 2901 H 278.849 -3.42878 -4.49945 0
M  V30 2902 H 277.406 -4.24947 -4.9423 0
M  V30 2903 N 280.839 0.0985539 -1.57292 0
M  V30 2904 C 282.116 0.834155 -1.76921 0
M  V30 2905 C 282.496 1.97101 -0.755928 0
M  V30 2906 O 281.844 2.27474 0.216245 0
M  V30 2907 C 282.054 1.33194 -3.22584 0
M  V30 2908 C 283.402 1.77611 -3.85668 0
M  V30 2909 O 284.426 1.42825 -3.26312 0
M  V30 2910 O 283.285 2.4192 -4.90038 0
M  V30 2911 H 280.379 0.397628 -0.725135 0
M  V30 2912 H 282.925 0.0807044 -1.69508 0
M  V30 2913 H 281.697 0.517248 -3.87866 0
M  V30 2914 H 281.32 2.1475 -3.34616 0
M  V30 2915 N 282.317 1.53212 0.369288 0
M  V30 2916 C 283.265 1.80054 1.47253 0
M  V30 2917 C 284.259 0.669456 1.55611 0
M  V30 2918 O 285.465 0.852328 1.58541 0
M  V30 2919 H 281.84 0.570034 0.490475 0
M  V30 2920 H 283.811 2.72403 1.21817 0
M  V30 2921 C 282.56 2.00403 2.84137 0
M  V30 2922 H 281.883 2.86876 2.78464 0
M  V30 2923 H 283.323 2.23164 3.60519 0
M  V30 2924 C 281.782 0.782081 3.27697 0
M  V30 2925 O 282.312 -0.0310205 4.01688 0
M  V30 2926 N 280.518 0.606573 2.84199 0
M  V30 2927 H 280.065 1.26939 2.24152 0
M  V30 2928 H 280.023 -0.20962 3.137 0
M  V30 2929 N 283.795 -0.628877 1.44509 0
M  V30 2930 C 285.043 -1.38565 1.4712 0
M  V30 2931 C 285.364 -1.94712 0.105899 0
M  V30 2932 O 284.634 -1.75912 -0.862079 0
M  V30 2933 H 283.214 -0.514333 0.541729 0
M  V30 2934 H 285.876 -0.740018 1.80305 0
M  V30 2935 H 284.972 -2.21583 2.19789 0
M  V30 2936 N 285.273 -1.31445 -0.869486 0
M  V30 2937 C 286.521 -1.20918 -1.61936 0
M  V30 2938 C 286.842 0.232683 -1.93607 0
M  V30 2939 O 286.112 1.15352 -1.58338 0
M  V30 2940 H 284.692 -0.44454 -0.600328 0
M  V30 2941 H 287.354 -1.64776 -1.0409 0
M  V30 2942 H 286.45 -1.78124 -2.56278 0
M  V30 2943 N 286.751 1.08385 -1.14413 0
M  V30 2944 C 287.997 1.81212 -0.923793 0
M  V30 2945 C 288.352 1.84555 0.543814 0
M  V30 2946 O 287.645 1.31056 1.39767 0
M  V30 2947 C 287.839 3.26273 -1.45879 0
M  V30 2948 C 287.668 3.37063 -2.97689 0
M  V30 2949 C 286.438 3.4824 -3.66138 0
M  V30 2950 C 288.636 3.28698 -3.95553 0
M  V30 2951 N 286.618 3.47824 -5.05858 0
M  V30 2952 C 287.989 3.35276 -5.21527 0
M  V30 2953 C 290.044 3.12437 -3.8767 0
M  V30 2954 C 288.747 3.27267 -6.40538 0
M  V30 2955 C 290.773 3.05757 -5.06228 0
M  V30 2956 C 290.135 3.12938 -6.3107 0
M  V30 2957 H 286.234 0.6769 -0.391574 0
M  V30 2958 H 288.818 1.29455 -1.45429 0
M  V30 2959 H 286.989 3.76474 -0.95507 0
M  V30 2960 H 288.721 3.87165 -1.17835 0
M  V30 2961 H 285.476 3.52141 -3.16692 0
M  V30 2962 H 285.9 3.51171 -5.78798 0
M  V30 2963 H 290.542 3.05747 -2.92025 0
M  V30 2964 H 288.26 3.32718 -7.36427 0
M  V30 2965 H 291.846 2.94295 -5.01878 0
M  V30 2966 H 290.726 3.078 -7.21269 0
M  V30 2967 N 288.23 0.939286 1.26551 0
M  V30 2968 C 289.507 0.5038 1.89001 0
M  V30 2969 C 289.887 -1.01854 1.84903 0
M  V30 2970 O 289.235 -1.87773 1.30206 0
M  V30 2971 C 289.445 1.063 3.32417 0
M  V30 2972 C 290.793 1.13051 4.09273 0
M  V30 2973 O 291.817 1.01345 3.41479 0
M  V30 2974 O 290.676 1.31233 5.30509 0
M  V30 2975 H 287.77 0.163897 0.810597 0
M  V30 2976 H 290.316 1.03173 1.34735 0
M  V30 2977 H 289.088 2.10665 3.29752 0
M  V30 2978 H 288.711 0.517408 3.94219 0
M  V30 2979 N 289.708 -1.40897 0.706093 0
M  V30 2980 C 290.671 -2.29131 0.0562841 0
M  V30 2981 C 291.671 -1.44901 -0.697166 0
M  V30 2982 O 292.861 -1.65926 -0.530484 0
M  V30 2983 C 289.993 -3.27957 -0.93043 0
M  V30 2984 H 291.186 -2.88091 0.833284 0
M  V30 2985 H 288.739 -1.4906 0.470192 0
M  V30 2986 H 289.474 -2.73997 -1.73482 0
M  V30 2987 H 289.259 -3.90124 -0.393166 0
M  V30 2988 H 290.749 -3.94049 -1.38256 0
M  V30 2989 N 291.186 -0.45159 -1.50991 0
M  V30 2990 C 292.433 0.110074 -2.02201 0
M  V30 2991 C 292.761 1.4146 -1.33489 0
M  V30 2992 O 292.016 1.90617 -0.443125 0
M  V30 2993 C 292.315 0.361728 -3.55565 0
M  V30 2994 C 291.981 -0.858717 -4.42648 0
M  V30 2995 C 290.643 -1.19338 -4.66167 0
M  V30 2996 C 292.995 -1.67221 -4.93646 0
M  V30 2997 C 290.323 -2.34195 -5.37931 0
M  V30 2998 C 292.675 -2.8119 -5.6667 0
M  V30 2999 C 291.339 -3.15094 -5.88449 0
M  V30 3000 H 290.609 0.040279 -0.739904 0
M  V30 3001 H 293.256 -0.601696 -1.81802 0
M  V30 3002 H 291.561 1.15554 -3.74372 0
M  V30 3003 H 293.258 0.80996 -3.92735 0
M  V30 3004 H 289.848 -0.58796 -4.24548 0
M  V30 3005 H 294.032 -1.42686 -4.75347 0
M  V30 3006 H 289.288 -2.6076 -5.53005 0
M  V30 3007 H 293.462 -3.44585 -6.05173 0
M  V30 3008 H 291.089 -4.04204 -6.43835 0
M  V30 3009 N 292.664 1.56529 -0.183458 0
M  V30 3010 C 293.91 1.97537 0.459036 0
M  V30 3011 C 294.243 1.06989 1.62071 0
M  V30 3012 O 293.518 0.11948 1.94133 0
M  V30 3013 C 293.801 3.47874 0.930368 0
M  V30 3014 C 293.654 4.492 -0.232317 0
M  V30 3015 C 294.973 4.01612 1.79989 0
M  V30 3016 H 292.092 0.718204 0.165383 0
M  V30 3017 H 294.734 1.88042 -0.272038 0
M  V30 3018 H 292.884 3.56095 1.55333 0
M  V30 3019 H 294.556 4.53027 -0.86972 0
M  V30 3020 H 292.799 4.24657 -0.885928 0
M  V30 3021 H 293.47 5.51823 0.139796 0
M  V30 3022 H 295.946 3.96097 1.27461 0
M  V30 3023 H 294.822 5.07195 2.09867 0
M  V30 3024 H 295.083 3.46163 2.74998 0
M  V30 3025 N 294.142 -0.090211 1.57342 0
M  V30 3026 C 295.052 -1.12735 2.05738 0
M  V30 3027 C 296.068 -1.43557 0.983231 0
M  V30 3028 O 297.244 -1.54101 1.29672 0
M  V30 3029 C 294.309 -2.42659 2.47624 0
M  V30 3030 C 293.37 -2.18975 3.69254 0
M  V30 3031 C 292.603 -3.42704 4.09133 0
M  V30 3032 O 292.826 -4.51127 3.49057 0
M  V30 3033 O 291.76 -3.32003 5.02053 0
M  V30 3034 H 295.586 -0.746279 2.94388 0
M  V30 3035 H 293.171 -0.303064 1.46294 0
M  V30 3036 H 295.053 -3.19155 2.7517 0
M  V30 3037 H 293.728 -2.80182 1.62109 0
M  V30 3038 H 292.635 -1.40244 3.46818 0
M  V30 3039 H 293.968 -1.86342 4.55563 0
M  V30 3040 N 295.62 -1.53406 -0.361157 0
M  V30 3041 C 296.55 -1.83136 -1.44857 0
M  V30 3042 C 297.531 -0.685174 -1.5569 0
M  V30 3043 O 298.716 -0.93544 -1.70186 0
M  V30 3044 C 295.846 -2.02522 -2.82138 0
M  V30 3045 C 294.8 -3.18302 -2.86126 0
M  V30 3046 C 294.126 -3.22989 -4.26125 0
M  V30 3047 C 295.426 -4.56796 -2.53248 0
M  V30 3048 H 297.12 -2.74201 -1.20226 0
M  V30 3049 H 294.666 -1.31938 -0.576922 0
M  V30 3050 H 296.619 -2.21904 -3.58241 0
M  V30 3051 H 295.343 -1.08172 -3.08166 0
M  V30 3052 H 294.002 -2.98747 -2.12475 0
M  V30 3053 H 293.65 -2.26267 -4.49235 0
M  V30 3054 H 293.35 -4.00781 -4.29708 0
M  V30 3055 H 294.874 -3.44559 -5.04094 0
M  V30 3056 H 296.288 -4.7631 -3.19064 0
M  V30 3057 H 294.685 -5.36862 -2.68141 0
M  V30 3058 H 295.755 -4.61606 -1.48484 0
M  V30 3059 N 297.098 0.621204 -1.44841 0
M  V30 3060 C 298.328 1.40548 -1.51426 0
M  V30 3061 C 298.736 1.88673 -0.141083 0
M  V30 3062 O 298.079 1.62053 0.865128 0
M  V30 3063 C 298.141 2.65325 -2.42576 0
M  V30 3064 C 297.805 2.3893 -3.89566 0
M  V30 3065 C 298.802 2.00138 -4.79834 0
M  V30 3066 C 296.487 2.52263 -4.3436 0
M  V30 3067 C 298.481 1.75021 -6.129 0
M  V30 3068 C 296.168 2.2676 -5.67471 0
M  V30 3069 C 297.166 1.88199 -6.56559 0
M  V30 3070 O 296.854 1.62986 -7.87204 0
M  V30 3071 H 296.586 0.437122 -0.515655 0
M  V30 3072 H 299.14 0.765987 -1.90583 0
M  V30 3073 H 297.37 3.31947 -1.98364 0
M  V30 3074 H 299.059 3.27347 -2.39998 0
M  V30 3075 H 299.825 1.89386 -4.46495 0
M  V30 3076 H 295.704 2.81246 -3.65269 0
M  V30 3077 H 299.248 1.44848 -6.82396 0
M  V30 3078 H 295.145 2.37125 -6.00368 0
M  V30 3079 H 295.913 1.7715 -7.991 0
M  V30 3080 N 298.576 1.31904 0.862503 0
M  V30 3081 C 299.824 1.21776 1.61292 0
M  V30 3082 C 300.145 -0.222413 1.93727 0
M  V30 3083 O 299.415 -1.1451 1.58947 0
M  V30 3084 H 297.995 0.447717 0.597962 0
M  V30 3085 H 300.657 1.65326 1.03215 0
M  V30 3086 H 299.753 1.7948 2.5533 0
M  V30 3087 N 300.054 -1.07777 1.14986 0
M  V30 3088 C 301.465 -1.61766 0.932127 0
M  V30 3089 C 301.816 -1.88974 -0.527581 0
M  V30 3090 O 300.941 -1.65198 -1.39781 0
M  V30 3091 C 301.536 -2.93891 1.68563 0
M  V30 3092 C 300.095 -3.44639 1.5133 0
M  V30 3093 C 299.242 -2.18767 1.704 0
M  V30 3094 H 302.193 -0.909201 1.30074 0
M  V30 3095 H 302.214 -3.62623 1.15259 0
M  V30 3096 H 301.726 -2.74057 2.74799 0
M  V30 3097 H 299.827 -3.69564 0.474702 0
M  V30 3098 H 299.94 -4.20966 2.28746 0
M  V30 3099 H 298.304 -2.28253 1.13016 0
M  V30 3100 H 299.087 -2.01433 2.77992 0
M  V30 3101 N 301.532 -0.945985 -1.26051 0
M  V30 3102 C 302.757 -0.612525 -1.98149 0
M  V30 3103 C 303.182 0.806623 -1.69927 0
M  V30 3104 O 302.54 1.54411 -0.950108 0
M  V30 3105 C 302.588 -0.866981 -3.50023 0
M  V30 3106 O 301.692 0.0585333 -4.12358 0
M  V30 3107 H 301.033 -0.23379 -0.621481 0
M  V30 3108 H 303.563 -1.27023 -1.60395 0
M  V30 3109 H 303.573 -0.789792 -4.00283 0
M  V30 3110 H 302.248 -1.90135 -3.69894 0
M  V30 3111 H 300.825 -0.0701241 -3.72834 0
M  V30 3112 N 303.011 1.40521 -0.713556 0
M  V30 3113 C 303.944 2.28198 -0.00881422 0
M  V30 3114 C 304.922 1.43227 0.769735 0
M  V30 3115 O 306.106 1.72641 0.756799 0
M  V30 3116 C 303.233 3.23758 0.994899 0
M  V30 3117 C 302.279 4.25391 0.3074 0
M  V30 3118 S 303.112 5.26765 -0.963247 0
M  V30 3119 C 304.268 6.25888 0.0384143 0
M  V30 3120 H 304.501 2.87622 -0.752407 0
M  V30 3121 H 302.034 1.45925 -0.504502 0
M  V30 3122 H 303.992 3.79341 1.56879 0
M  V30 3123 H 302.653 2.63396 1.71118 0
M  V30 3124 H 301.846 4.92596 1.0661 0
M  V30 3125 H 301.448 3.73497 -0.193879 0
M  V30 3126 H 303.74 6.71683 0.885912 0
M  V30 3127 H 304.683 7.05552 -0.60019 0
M  V30 3128 H 305.091 5.63072 0.401233 0
M  V30 3129 N 304.489 0.459591 1.5075 0
M  V30 3130 C 305.905 0.113092 1.59199 0
M  V30 3131 C 306.105 -1.37951 1.46874 0
M  V30 3132 O 305.161 -2.15168 1.32132 0
M  V30 3133 C 306.474 0.653043 2.93523 0
M  V30 3134 C 308.022 0.615449 3.0689 0
M  V30 3135 C 308.497 1.13275 4.43771 0
M  V30 3136 N 309.988 1.09167 4.50152 0
M  V30 3137 C 310.723 1.46256 5.54434 0
M  V30 3138 N 310.219 1.90739 6.66026 0
M  V30 3139 N 312.012 1.37932 5.44914 0
M  V30 3140 H 304.163 1.43049 1.57005 0
M  V30 3141 H 306.426 0.590861 0.741341 0
M  V30 3142 H 306.132 1.69822 3.07983 0
M  V30 3143 H 306.006 0.0902132 3.77092 0
M  V30 3144 H 308.393 -0.420793 2.92084 0
M  V30 3145 H 308.474 1.21495 2.25106 0
M  V30 3146 H 308.118 2.16757 4.59324 0
M  V30 3147 H 308.048 0.509576 5.24129 0
M  V30 3148 H 310.539 0.76528 3.7007 0
M  V30 3149 H 310.852 2.17218 7.41644 0
M  V30 3150 H 309.197 1.94683 6.67176 0
M  V30 3151 H 312.388 1.0303 4.56621 0
M  V30 3152 H 312.561 1.67164 6.26067 0
M  V30 3153 N 305.967 -1.56429 0.191757 0
M  V30 3154 C 307.378 -1.83912 -0.321428 0
M  V30 3155 C 307.729 -1.11231 -1.61623 0
M  V30 3156 O 306.854 -0.37202 -2.13178 0
M  V30 3157 C 307.449 -3.33624 -0.589961 0
M  V30 3158 C 306.008 -3.6153 -1.04753 0
M  V30 3159 C 305.155 -2.7714 -0.0943327 0
M  V30 3160 H 308.106 -1.53161 0.415612 0
M  V30 3161 H 308.127 -3.52213 -1.43966 0
M  V30 3162 H 307.639 -3.86495 0.352588 0
M  V30 3163 H 305.74 -3.14089 -2.00447 0
M  V30 3164 H 305.853 -4.69737 -0.942549 0
M  V30 3165 H 304.217 -2.47638 -0.595589 0
M  V30 3166 H 305 -3.32799 0.842601 0
M  V30 3167 N 307.445 0.0818655 -1.57387 0
M  V30 3168 C 308.375 1.09885 -2.06028 0
M  V30 3169 C 309.356 1.4098 -0.951774 0
M  V30 3170 O 310.541 1.50781 -1.22387 0
M  V30 3171 C 307.671 2.4151 -2.4958 0
M  V30 3172 C 306.625 2.24792 -3.64215 0
M  V30 3173 C 305.951 3.61712 -3.93787 0
M  V30 3174 C 307.251 1.67749 -4.94629 0
M  V30 3175 H 308.945 0.694128 -2.91243 0
M  V30 3176 H 306.491 0.332448 -1.4011 0
M  V30 3177 H 308.444 3.12939 -2.82219 0
M  V30 3178 H 307.168 2.83943 -1.61381 0
M  V30 3179 H 305.827 1.55807 -3.31843 0
M  V30 3180 H 305.475 4.01697 -3.02735 0
M  V30 3181 H 305.175 3.51368 -4.70971 0
M  V30 3182 H 306.699 4.34587 -4.28913 0
M  V30 3183 H 308.113 2.29032 -5.25564 0
M  V30 3184 H 306.51 1.68128 -5.76067 0
M  V30 3185 H 307.58 0.638059 -4.80684 0
M  V30 3186 N 308.923 1.53595 0.353017 0
M  V30 3187 C 310.17 1.70385 1.09431 0
M  V30 3188 C 310.498 0.462113 1.88931 0
M  V30 3189 O 309.753 -0.556074 1.87633 0
M  V30 3190 C 310.052 2.91313 2.07054 0
M  V30 3191 C 309.718 4.27308 1.43939 0
M  V30 3192 C 308.38 4.64287 1.26454 0
M  V30 3193 C 310.732 5.11829 0.983883 0
M  V30 3194 C 308.06 5.83412 0.620226 0
M  V30 3195 C 310.412 6.31611 0.353516 0
M  V30 3196 C 309.076 6.67293 0.166272 0
M  V30 3197 H 308.346 0.623484 0.400436 0
M  V30 3198 H 310.993 1.87799 0.374655 0
M  V30 3199 H 309.298 2.68463 2.85368 0
M  V30 3200 H 310.995 3.01497 2.64387 0
M  V30 3201 H 307.585 3.98198 1.58543 0
M  V30 3202 H 311.769 4.838 1.10685 0
M  V30 3203 H 307.025 6.09639 0.463681 0
M  V30 3204 H 311.199 6.964 -0.00757555 0
M  V30 3205 H 308.826 7.59461 -0.335047 0
M  V30 3206 N 310.401 -0.613514 1.45168 0
M  V30 3207 C 311.678 -1.37263 1.39349 0
M  V30 3208 C 312.058 -2.11012 0.0610848 0
M  V30 3209 O 311.406 -2.07502 -0.956825 0
M  V30 3210 C 311.616 -2.3244 2.60332 0
M  V30 3211 C 312.964 -2.9523 3.05163 0
M  V30 3212 O 313.988 -2.42762 2.60663 0
M  V30 3213 O 312.847 -3.90454 3.82372 0
M  V30 3214 H 309.941 -0.615188 0.552696 0
M  V30 3215 H 312.487 -0.637097 1.57287 0
M  V30 3216 H 311.259 -1.77164 3.48896 0
M  V30 3217 H 310.882 -3.13383 2.44698 0
M  V30 3218 N 311.879 -1.3236 -0.855495 0
M  V30 3219 C 313.126 -1.22872 -1.60962 0
M  V30 3220 C 313.454 0.209658 -1.93367 0
M  V30 3221 O 312.709 1.16243 -1.57436 0
M  V30 3222 C 313.008 -2.03275 -2.93963 0
M  V30 3223 C 312.674 -3.5264 -2.80991 0
M  V30 3224 C 311.336 -3.93364 -2.7716 0
M  V30 3225 C 313.688 -4.47626 -2.66983 0
M  V30 3226 C 311.016 -5.27319 -2.572 0
M  V30 3227 C 313.368 -5.81723 -2.48558 0
M  V30 3228 C 312.032 -6.2165 -2.4312 0
M  V30 3229 H 311.302 -0.44962 -0.589001 0
M  V30 3230 H 313.949 -1.63777 -0.992442 0
M  V30 3231 H 312.254 -1.55095 -3.59795 0
M  V30 3232 H 313.951 -1.93303 -3.51333 0
M  V30 3233 H 310.541 -3.20295 -2.84797 0
M  V30 3234 H 314.725 -4.17084 -2.68988 0
M  V30 3235 H 309.981 -5.57311 -2.51424 0
M  V30 3236 H 314.155 -6.5494 -2.36699 0
M  V30 3237 H 311.782 -7.25388 -2.27412 0
M  V30 3238 N 313.357 1.07166 -1.15556 0
M  V30 3239 C 314.582 1.84053 -0.955988 0
M  V30 3240 C 315.007 1.81586 0.490739 0
M  V30 3241 O 314.365 1.21018 1.34997 0
M  V30 3242 C 314.413 3.28957 -1.47714 0
M  V30 3243 O 313.517 4.06795 -0.677593 0
M  V30 3244 H 312.858 0.569842 -0.340847 0
M  V30 3245 H 315.388 1.35178 -1.53584 0
M  V30 3246 H 315.398 3.79788 -1.4908 0
M  V30 3247 H 314.073 3.30068 -2.53037 0
M  V30 3248 H 312.65 3.6561 -0.733721 0
M  V30 3249 N 314.835 0.952656 1.25548 0
M  V30 3250 C 316.081 0.616826 1.93822 0
M  V30 3251 C 316.436 -0.836684 1.73255 0
M  V30 3252 O 315.729 -1.59218 1.06584 0
M  V30 3253 C 315.923 0.908818 3.45652 0
M  V30 3254 C 315.752 2.38916 3.80984 0
M  V30 3255 C 314.522 3.04637 4.03143 0
M  V30 3256 C 316.72 3.36838 3.88645 0
M  V30 3257 N 314.702 4.42565 4.25453 0
M  V30 3258 C 316.073 4.60065 4.1562 0
M  V30 3259 C 318.128 3.31704 3.71318 0
M  V30 3260 C 316.831 5.78795 4.2707 0
M  V30 3261 C 318.857 4.4977 3.84006 0
M  V30 3262 C 318.219 5.71783 4.11392 0
M  V30 3263 H 314.318 0.27629 0.731565 0
M  V30 3264 H 316.902 1.22443 1.5138 0
M  V30 3265 H 315.073 0.330166 3.86994 0
M  V30 3266 H 316.805 0.533093 4.01174 0
M  V30 3267 H 313.56 2.55215 3.98952 0
M  V30 3268 H 313.984 5.1399 4.40617 0
M  V30 3269 H 318.626 2.3842 3.49164 0
M  V30 3270 H 316.344 6.72521 4.48041 0
M  V30 3271 H 319.93 4.47342 3.71989 0
M  V30 3272 H 318.81 6.61617 4.2099 0
M  V30 3273 N 316.313 -1.40141 0.720998 0
M  V30 3274 C 317.243 -2.33339 0.0867621 0
M  V30 3275 C 318.224 -1.53178 -0.739622 0
M  V30 3276 O 319.409 -1.81625 -0.687449 0
M  V30 3277 C 316.539 -3.37194 -0.831728 0
M  V30 3278 C 315.493 -4.27857 -0.110558 0
M  V30 3279 C 314.819 -5.22294 -1.14513 0
M  V30 3280 C 316.119 -5.11872 1.0385 0
M  V30 3281 H 317.813 -2.86626 0.865219 0
M  V30 3282 H 315.359 -1.37814 0.417516 0
M  V30 3283 H 317.312 -4.01335 -1.28485 0
M  V30 3284 H 316.036 -2.82314 -1.64214 0
M  V30 3285 H 314.695 -3.65176 0.322797 0
M  V30 3286 H 314.343 -4.63717 -1.94874 0
M  V30 3287 H 314.043 -5.83797 -0.667446 0
M  V30 3288 H 315.567 -5.89312 -1.59824 0
M  V30 3289 H 316.981 -5.69436 0.664482 0
M  V30 3290 H 315.378 -5.82445 1.4449 0
M  V30 3291 H 316.448 -4.4753 1.86668 0
M  V30 3292 N 317.792 -0.46758 -1.50504 0
M  V30 3293 C 319.017 0.0886943 -2.0721 0
M  V30 3294 C 319.442 1.33057 -1.32956 0
M  V30 3295 O 318.8 1.77354 -0.376197 0
M  V30 3296 C 318.848 0.359202 -3.58806 0
M  V30 3297 O 317.952 1.44034 -3.8643 0
M  V30 3298 H 317.293 -0.0114349 -0.663902 0
M  V30 3299 H 319.823 -0.657613 -1.93744 0
M  V30 3300 H 319.833 0.600742 -4.03553 0
M  V30 3301 H 318.508 -0.548311 -4.1227 0
M  V30 3302 H 317.085 1.18638 -3.53524 0
M  V30 3303 N 319.27 1.56325 -0.20005 0
M  V30 3304 C 320.2 2.22318 0.713916 0
M  V30 3305 C 321.181 1.18788 1.21752 0
M  V30 3306 O 322.366 1.47309 1.26545 0
M  V30 3307 C 319.496 2.88639 1.93144 0
M  V30 3308 C 318.45 3.98457 1.56255 0
M  V30 3309 C 317.776 4.51967 2.85709 0
M  V30 3310 C 319.076 5.16612 0.768747 0
M  V30 3311 H 320.77 2.98952 0.163755 0
M  V30 3312 H 318.316 1.43792 0.0773219 0
M  V30 3313 H 320.269 3.33491 2.57608 0
M  V30 3314 H 318.993 2.09419 2.50621 0
M  V30 3315 H 317.652 3.54305 0.941471 0
M  V30 3316 H 317.3 3.69503 3.41287 0
M  V30 3317 H 317 5.26071 2.6177 0
M  V30 3318 H 318.524 4.99523 3.51154 0
M  V30 3319 H 319.938 5.57977 1.3166 0
M  V30 3320 H 318.335 5.96812 0.627286 0
M  V30 3321 H 319.405 4.84358 -0.229168 0
M  V30 3322 N 320.748 -0.0735177 1.57428 0
M  V30 3323 C 321.695 -1.08756 2.0357 0
M  V30 3324 C 322.665 -1.38559 0.916 0
M  V30 3325 O 323.85 -1.49656 1.18354 0
M  V30 3326 C 320.99 -2.39657 2.48311 0
M  V30 3327 C 320.103 -2.16399 3.73892 0
M  V30 3328 C 319.238 -3.40852 4.07423 0
M  V30 3329 C 318.277 -3.1295 5.2605 0
M  V30 3330 N 317.414 -4.29729 5.55228 0
M  V30 3331 H 322.254 -0.687104 2.8997 0
M  V30 3332 H 319.791 -0.327709 1.43403 0
M  V30 3333 H 321.749 -3.16081 2.72303 0
M  V30 3334 H 320.379 -2.77508 1.64891 0
M  V30 3335 H 319.431 -1.30676 3.57251 0
M  V30 3336 H 320.743 -1.91788 4.60455 0
M  V30 3337 H 319.897 -4.25671 4.32306 0
M  V30 3338 H 318.636 -3.68537 3.19425 0
M  V30 3339 H 317.641 -2.26526 5.00965 0
M  V30 3340 H 318.866 -2.86589 6.15665 0
M  V30 3341 H 316.812 -4.57448 4.70188 0
M  V30 3342 H 316.729 -4.08385 6.36206 0
M  V30 3343 H 317.997 -5.1555 5.84661 0
M  V30 3344 N 322.226 -1.5378 -0.344866 0
M  V30 3345 C 323.454 -1.74899 -1.10534 0
M  V30 3346 C 323.869 -0.487534 -1.82397 0
M  V30 3347 O 323.226 0.540741 -1.74305 0
M  V30 3348 C 323.277 -2.92822 -2.11984 0
M  V30 3349 O 322.998 -4.14089 -1.43044 0
M  V30 3350 C 324.499 -3.25982 -3.00417 0
M  V30 3351 H 321.719 -0.584426 -0.329678 0
M  V30 3352 H 324.263 -2.006 -0.397474 0
M  V30 3353 H 322.418 -2.69457 -2.78338 0
M  V30 3354 H 322.832 -4.80272 -2.10805 0
M  V30 3355 H 324.306 -4.11848 -3.67539 0
M  V30 3356 H 324.783 -2.42228 -3.66363 0
M  V30 3357 H 325.389 -3.51349 -2.39654 0
M  V30 3358 N 323.704 0.605807 -1.45491 0
M  V30 3359 C 324.634 1.72709 -1.57143 0
M  V30 3360 C 325.615 1.6476 -0.422884 0
M  V30 3361 O 326.8 1.83132 -0.646247 0
M  V30 3362 C 323.93 3.11316 -1.53948 0
M  V30 3363 C 322.884 3.34077 -2.67537 0
M  V30 3364 C 322.21 4.72975 -2.49397 0
M  V30 3365 C 323.51 3.24158 -4.09535 0
M  V30 3366 H 325.204 1.63214 -2.51001 0
M  V30 3367 H 322.75 0.78379 -1.208 0
M  V30 3368 H 324.703 3.89557 -1.60696 0
M  V30 3369 H 323.427 3.21655 -0.566205 0
M  V30 3370 H 322.086 2.58227 -2.6022 0
M  V30 3371 H 321.734 4.8005 -1.50205 0
M  V30 3372 H 321.434 4.8916 -3.25571 0
M  V30 3373 H 322.958 5.53414 -2.58002 0
M  V30 3374 H 324.372 3.92271 -4.18086 0
M  V30 3375 H 322.769 3.51872 -4.86113 0
M  V30 3376 H 323.839 2.2157 -4.31317 0
M  V30 3377 N 325.182 1.32811 0.848464 0
M  V30 3378 C 326.112 1.24882 1.97299 0
M  V30 3379 C 327.093 0.131357 1.69592 0
M  V30 3380 O 328.278 0.319553 1.91553 0
M  V30 3381 C 325.408 0.97746 3.33261 0
M  V30 3382 C 324.362 2.05682 3.75338 0
M  V30 3383 C 323.688 1.63777 5.09 0
M  V30 3384 C 324.988 3.47254 3.90144 0
M  V30 3385 H 326.682 2.18966 2.04191 0
M  V30 3386 H 324.228 1.05413 0.981029 0
M  V30 3387 H 326.181 0.908513 4.1149 0
M  V30 3388 H 324.905 0.000980011 3.266 0
M  V30 3389 H 323.564 2.11603 2.99366 0
M  V30 3390 H 323.212 0.648569 4.98801 0
M  V30 3391 H 322.912 2.36 5.38124 0
M  V30 3392 H 324.436 1.5833 5.89715 0
M  V30 3393 H 325.85 3.43888 4.58709 0
M  V30 3394 H 324.247 4.1788 4.30693 0
M  V30 3395 H 325.317 3.86462 2.92874 0
M  V30 3396 N 326.66 -1.06551 1.16123 0
M  V30 3397 C 327.885 -1.83544 0.965735 0
M  V30 3398 C 328.31 -1.81843 -0.481102 0
M  V30 3399 O 327.668 -1.21732 -1.34354 0
M  V30 3400 C 327.716 -3.28169 1.49457 0
M  V30 3401 O 326.82 -4.0643 0.699157 0
M  V30 3402 H 326.161 -0.568026 0.343864 0
M  V30 3403 H 328.691 -1.34362 1.54299 0
M  V30 3404 H 328.701 -3.78992 1.51092 0
M  V30 3405 H 327.376 -3.28722 2.54784 0
M  V30 3406 H 325.953 -3.65216 0.7531 0
M  V30 3407 N 328.138 -0.959301 -1.25041 0
M  V30 3408 C 329.068 -0.501388 -2.28053 0
M  V30 3409 C 330.049 0.454673 -1.63911 0
M  V30 3410 O 331.234 0.352618 -1.90972 0
M  V30 3411 C 328.364 0.217224 -3.4662 0
M  V30 3412 C 327.318 -0.654034 -4.22973 0
M  V30 3413 C 326.644 0.195589 -5.34342 0
M  V30 3414 C 327.944 -1.93447 -4.85155 0
M  V30 3415 H 329.638 -1.36238 -2.66608 0
M  V30 3416 H 327.184 -0.656534 -1.28163 0
M  V30 3417 H 329.137 0.548732 -4.17812 0
M  V30 3418 H 327.861 1.1125 -3.07068 0
M  V30 3419 H 326.52 -0.968693 -3.5357 0
M  V30 3420 H 326.168 1.09076 -4.91031 0
M  V30 3421 H 325.868 -0.384091 -5.86343 0
M  V30 3422 H 327.392 0.521958 -6.08365 0
M  V30 3423 H 328.806 -1.66908 -5.48466 0
M  V30 3424 H 327.203 -2.46018 -5.47353 0
M  V30 3425 H 328.273 -2.63466 -4.07079 0
M  V30 3426 N 329.616 1.39756 -0.72842 0
M  V30 3427 C 330.579 2.29012 -0.0927297 0
M  V30 3428 C 331.579 1.45992 0.674025 0
M  V30 3429 O 332.769 1.66749 0.50402 0
M  V30 3430 C 329.901 3.29396 0.878137 0
M  V30 3431 H 331.094 2.86729 -0.879011 0
M  V30 3432 H 328.647 1.48293 -0.493847 0
M  V30 3433 H 329.382 2.76722 1.69101 0
M  V30 3434 H 329.167 3.907 0.331051 0
M  V30 3435 H 330.657 3.96199 1.3197 0
M  V30 3436 N 331.094 0.475555 1.50254 0
M  V30 3437 C 332.024 -0.30611 2.31485 0
M  V30 3438 C 333.005 -0.986228 1.38591 0
M  V30 3439 O 334.19 -0.982541 1.67511 0
M  V30 3440 C 331.32 -1.38588 3.1845 0
M  V30 3441 C 330.274 -0.827115 4.19932 0
M  V30 3442 C 329.6 -2.00551 4.95665 0
M  V30 3443 C 330.9 0.16463 5.2204 0
M  V30 3444 H 332.594 0.371866 2.97082 0
M  V30 3445 H 330.14 0.180282 1.42867 0
M  V30 3446 H 332.093 -1.94023 3.74076 0
M  V30 3447 H 330.817 -2.09269 2.50747 0
M  V30 3448 H 329.476 -0.294702 3.65414 0
M  V30 3449 H 329.124 -2.6994 4.2443 0
M  V30 3450 H 328.824 -1.63784 5.64313 0
M  V30 3451 H 330.348 -2.56468 5.54127 0
M  V30 3452 H 331.762 -0.300699 5.72511 0
M  V30 3453 H 330.159 0.446813 5.98434 0
M  V30 3454 H 331.229 1.08905 4.72512 0
M  V30 3455 N 332.573 -1.56217 0.208337 0
M  V30 3456 C 333.819 -1.98242 -0.427552 0
M  V30 3457 C 334.152 -1.09554 -1.60348 0
M  V30 3458 O 333.427 -0.15035 -1.93918 0
M  V30 3459 C 333.71 -3.4931 -0.874907 0
M  V30 3460 C 333.563 -4.48773 0.303751 0
M  V30 3461 C 334.882 -4.04424 -1.73577 0
M  V30 3462 H 332.001 -0.720744 -0.153936 0
M  V30 3463 H 334.643 -1.87586 0.30192 0
M  V30 3464 H 332.793 -3.58522 -1.49648 0
M  V30 3465 H 334.465 -4.51586 0.941682 0
M  V30 3466 H 332.708 -4.23194 0.953375 0
M  V30 3467 H 333.379 -5.51976 -0.0519883 0
M  V30 3468 H 335.855 -3.98075 -1.21143 0
M  V30 3469 H 334.731 -5.1047 -2.01771 0
M  V30 3470 H 334.992 -3.50494 -2.69456 0
M  V30 3471 N 334.051 0.0651679 -1.57465 0
M  V30 3472 C 335.299 0.761555 -1.87202 0
M  V30 3473 C 335.62 1.77778 -0.801243 0
M  V30 3474 O 334.89 1.95166 0.16937 0
M  V30 3475 H 333.47 0.284251 -0.690804 0
M  V30 3476 H 336.132 0.0396827 -1.9486 0
M  V30 3477 H 335.228 1.27365 -2.84929 0
M  V30 3478 N 335.529 1.53961 0.336706 0
M  V30 3479 C 336.492 1.81724 1.39675 0
M  V30 3480 C 337.492 0.688532 1.45313 0
M  V30 3481 O 338.682 0.956829 1.45569 0
M  V30 3482 C 335.814 1.96543 2.78538 0
M  V30 3483 H 337.007 2.76424 1.16318 0
M  V30 3484 H 334.56 1.45478 0.571474 0
M  V30 3485 H 335.295 1.0401 3.07168 0
M  V30 3486 H 335.08 2.78665 2.75841 0
M  V30 3487 H 336.57 2.19516 3.5525 0
M  V30 3488 N 337.007 -0.598083 1.45811 0
M  V30 3489 C 338.247 -1.36802 1.5187 0
M  V30 3490 C 338.611 -1.9133 0.160224 0
M  V30 3491 O 339.812 -2.6863 0.0955302 0
M  V30 3492 C 338.083 -2.47835 2.57513 0
M  V30 3493 S 339.642 -3.35458 2.82866 0
M  V30 3494 H 336.46 -0.466278 0.536755 0
M  V30 3495 H 339.062 -0.689152 1.82951 0
M  V30 3496 H 337.766 -2.06141 3.54872 0
M  V30 3497 H 337.297 -3.20512 2.28114 0
M  V30 3498 H 339.312 -4.46251 2.16967 0
M  V30 3499 N 338.485 -1.33259 -0.841409 0
M  V30 3500 C 339.734 -1.23921 -1.59143 0
M  V30 3501 C 340.047 0.1941 -1.94635 0
M  V30 3502 O 341.253 0.409474 -2.68394 0
M  V30 3503 C 339.709 -2.17119 -2.87032 0
M  V30 3504 C 339.317 -3.65606 -2.58914 0
M  V30 3505 C 341.061 -2.16648 -3.65053 0
M  V30 3506 C 338.968 -4.50726 -3.82884 0
M  V30 3507 H 337.898 -0.460264 -0.597221 0
M  V30 3508 H 340.549 -1.58307 -0.927959 0
M  V30 3509 H 338.931 -1.75663 -3.54906 0
M  V30 3510 H 340.105 -4.15487 -1.99267 0
M  V30 3511 H 338.42 -3.68341 -1.942 0
M  V30 3512 H 341.017 -2.77474 -4.57069 0
M  V30 3513 H 341.36 -1.16088 -3.99787 0
M  V30 3514 H 341.893 -2.56453 -3.041 0
M  V30 3515 H 338.632 -5.52151 -3.53283 0
M  V30 3516 H 338.152 -4.0559 -4.41879 0
M  V30 3517 H 339.831 -4.64401 -4.50489 0
M  V30 3518 N 339.963 1.05934 -1.16686 0
M  V30 3519 C 341.191 1.8249 -0.974929 0
M  V30 3520 C 341.606 1.82679 0.476861 0
M  V30 3521 O 340.963 1.2486 1.33103 0
M  V30 3522 C 341.014 3.28943 -1.49929 0
M  V30 3523 O 340.735 3.28886 -2.89423 0
M  V30 3524 C 342.236 4.22215 -1.35089 0
M  V30 3525 H 339.456 0.575295 -0.345365 0
M  V30 3526 H 342 1.33631 -1.548 0
M  V30 3527 H 340.155 3.751 -0.968423 0
M  V30 3528 H 340.569 4.20493 -3.13506 0
M  V30 3529 H 342.043 5.22987 -1.76603 0
M  V30 3530 H 342.52 4.38195 -0.296935 0
M  V30 3531 H 343.126 3.81907 -1.87155 0
M  V30 3532 N 341.441 0.965919 1.2453 0
M  V30 3533 C 342.371 0.513476 2.27784 0
M  V30 3534 C 343.352 -0.445974 1.6415 0
M  V30 3535 O 344.537 -0.342485 1.91156 0
M  V30 3536 C 341.667 -0.198839 3.4673 0
M  V30 3537 C 340.621 0.676456 4.2262 0
M  V30 3538 C 339.947 -0.167248 5.34438 0
M  V30 3539 C 341.247 1.96017 4.84123 0
M  V30 3540 H 342.941 1.3765 2.65881 0
M  V30 3541 H 340.487 0.663321 1.27813 0
M  V30 3542 H 342.44 -0.526567 4.18097 0
M  V30 3543 H 341.164 -1.0962 3.07654 0
M  V30 3544 H 339.823 0.98743 3.53052 0
M  V30 3545 H 339.471 -1.0647 4.91603 0
M  V30 3546 H 339.171 0.415181 5.86131 0
M  V30 3547 H 340.695 -0.489688 6.08633 0
M  V30 3548 H 342.109 1.69814 5.47573 0
M  V30 3549 H 340.506 2.48918 5.4604 0
M  V30 3550 H 341.576 2.65622 4.05676 0
M  V30 3551 N 342.919 -1.39368 0.735821 0
M  V30 3552 C 344.167 -2.00101 0.283562 0
M  V30 3553 C 344.488 -1.5868 -1.13338 0
M  V30 3554 O 343.758 -0.835423 -1.77193 0
M  V30 3555 H 342.338 -0.740024 0.101851 0
M  V30 3556 H 345 -1.70404 0.945962 0
M  V30 3557 H 344.096 -3.10323 0.332604 0
M  V30 3558 N 344.397 -0.483516 -1.5 0
M  V30 3559 C 345.36 0.292965 -2.2732 0
M  V30 3560 C 346.36 0.909499 -1.32608 0
M  V30 3561 O 347.55 0.776745 -1.55924 0
M  V30 3562 C 344.682 1.41854 -3.09984 0
M  V30 3563 H 345.875 -0.385289 -2.97415 0
M  V30 3564 H 343.428 -0.237942 -1.54478 0
M  V30 3565 H 344.163 2.13148 -2.44414 0
M  V30 3566 H 343.948 0.982114 -3.79601 0
M  V30 3567 H 345.438 1.96597 -3.68429 0
M  V30 3568 N 345.875 1.56104 -0.216619 0
M  V30 3569 C 347.105 2.02269 0.420802 0
M  V30 3570 C 347.513 1.09575 1.5424 0
M  V30 3571 O 346.856 0.0967308 1.83445 0
M  V30 3572 C 346.918 3.44784 1.01806 0
M  V30 3573 C 346.582 4.56988 0.0325154 0
M  V30 3574 C 347.579 5.14225 -0.766055 0
M  V30 3575 C 345.264 5.02228 -0.0848092 0
M  V30 3576 C 347.258 6.15169 -1.6687 0
M  V30 3577 C 344.945 6.03011 -0.990994 0
M  V30 3578 C 345.943 6.59357 -1.78149 0
M  V30 3579 O 345.631 7.58179 -2.67245 0
M  V30 3580 H 345.363 0.667353 0.107776 0
M  V30 3581 H 347.917 2.02747 -0.329034 0
M  V30 3582 H 346.147 3.41359 1.81689 0
M  V30 3583 H 347.836 3.74626 1.56237 0
M  V30 3584 H 348.602 4.80126 -0.685836 0
M  V30 3585 H 344.481 4.58054 0.520349 0
M  V30 3586 H 348.025 6.59076 -2.28615 0
M  V30 3587 H 343.922 6.36532 -1.07225 0
M  V30 3588 H 344.69 7.75682 -2.61265 0
M  V30 3589 N 347.353 -0.0568162 1.57498 0
M  V30 3590 C 348.283 -1.06593 2.0775 0
M  V30 3591 C 349.264 -1.39448 0.974082 0
M  V30 3592 O 350.449 -1.48815 1.24771 0
M  V30 3593 C 347.579 -2.37509 2.5339 0
M  V30 3594 C 346.533 -2.1897 3.67745 0
M  V30 3595 C 345.859 -3.55402 3.99492 0
M  V30 3596 C 347.159 -1.59859 4.97235 0
M  V30 3597 H 348.853 -0.647706 2.9231 0
M  V30 3598 H 346.399 -0.310116 1.40621 0
M  V30 3599 H 348.352 -3.08409 2.87162 0
M  V30 3600 H 347.076 -2.8134 1.65878 0
M  V30 3601 H 345.735 -1.50508 3.3428 0
M  V30 3602 H 345.383 -3.9683 3.09088 0
M  V30 3603 H 345.083 -3.43831 4.76502 0
M  V30 3604 H 346.607 -4.27708 4.35773 0
M  V30 3605 H 348.021 -2.20642 5.29141 0
M  V30 3606 H 346.418 -1.58942 5.78669 0
M  V30 3607 H 347.488 -0.561506 4.81638 0
M  V30 3608 N 348.832 -1.54138 -0.328536 0
M  V30 3609 C 350.08 -1.71765 -1.06496 0
M  V30 3610 C 350.401 -0.49149 -1.88704 0
M  V30 3611 O 349.671 0.494539 -1.89555 0
M  V30 3612 H 348.251 -0.633295 -0.396164 0
M  V30 3613 H 350.913 -1.91429 -0.366176 0
M  V30 3614 H 350.009 -2.5951 -1.73381 0
M  V30 3615 N 350.31 0.590341 -1.46126 0
M  V30 3616 C 351.26 1.69466 -1.5253 0
M  V30 3617 C 352.244 1.56179 -0.386917 0
M  V30 3618 O 353.436 1.65223 -0.634858 0
M  V30 3619 C 350.565 3.08245 -1.5113 0
M  V30 3620 C 349.651 3.26856 -2.70233 0
M  V30 3621 N 350.042 3.15657 -3.95214 0
M  V30 3622 C 348.34 3.57775 -2.66296 0
M  V30 3623 C 349.041 3.36066 -4.74799 0
M  V30 3624 N 348.017 3.60865 -4.06543 0
M  V30 3625 H 351.819 1.59326 -2.46966 0
M  V30 3626 H 349.333 0.79414 -1.41659 0
M  V30 3627 H 351.33 3.87492 -1.53804 0
M  V30 3628 H 349.99 3.19521 -0.577636 0
M  V30 3629 H 351.001 2.93686 -4.26578 0
M  V30 3630 H 347.678 3.75782 -1.81918 0
M  V30 3631 H 349.068 3.32655 -5.83772 0
M  V30 3632 N 351.788 1.33704 0.83433 0
M  V30 3633 C 352.735 1.24335 1.94447 0
M  V30 3634 C 353.705 0.120991 1.65659 0
M  V30 3635 O 354.89 0.300035 1.88426 0
M  V30 3636 C 352.03 0.993124 3.30501 0
M  V30 3637 C 351.143 2.20217 3.71657 0
M  V30 3638 C 350.278 1.88572 4.96602 0
M  V30 3639 C 349.317 3.05683 5.30306 0
M  V30 3640 N 348.454 2.73997 6.46429 0
M  V30 3641 H 353.294 2.1928 2.01792 0
M  V30 3642 H 350.831 1.09035 0.987404 0
M  V30 3643 H 352.789 0.828467 4.08892 0
M  V30 3644 H 351.419 0.0803902 3.227 0
M  V30 3645 H 350.471 2.47642 2.88752 0
M  V30 3646 H 351.783 3.07752 3.92543 0
M  V30 3647 H 350.937 1.68776 5.82752 0
M  V30 3648 H 349.676 0.982799 4.77695 0
M  V30 3649 H 348.681 3.26088 4.42659 0
M  V30 3650 H 349.906 3.96737 5.51159 0
M  V30 3651 H 347.852 1.86268 6.28999 0
M  V30 3652 H 347.769 3.55064 6.67432 0
M  V30 3653 H 349.037 2.57679 7.35678 0
M  V30 3654 O 353.305 -0.972346 1.28948 0
M  V30 3655 H 353.996 -1.59791 1.09484 0
M  V30 END ATOM
M  V30 BEGIN BOND
M  V30 END BOND
M  V30 END CTAB
M  END
$$$$
