drugbank_target|P02675 Fibrinogen beta chain (DB04919; DB11300; DB11311; DB11571; DB11572; DB13151)
 OpenBabel12092120043D

  0  0  0     0  0            999 V3000
M  V30 BEGIN CTAB
M  V30 COUNTS 7729 7821 0 0 0
M  V30 BEGIN ATOM
M  V30 1 H -0.908 1.98254 -0.117106 0
M  V30 2 N 0 1.576 0 0
M  V30 3 C 0.933 2.03868 1.02534 0
M  V30 4 C 1.911 0.928543 1.3348 0
M  V30 5 O 3.095 1.19667 1.45644 0
M  V30 6 C 0.222 2.43627 2.35294 0
M  V30 7 C -0.732 3.65373 2.2001 0
M  V30 8 S 0.101 5.13292 1.52614 0
M  V30 9 C 1.257 5.56322 2.86805 0
M  V30 10 H 1.49 2.90518 0.631377 0
M  V30 11 H -0.977 1.52953 0.210867 0
M  V30 12 H 0.981 2.67203 3.11629 0
M  V30 13 H -0.358 1.57376 2.7183 0
M  V30 14 H -1.165 3.90944 3.18086 0
M  V30 15 H -1.563 3.418 1.51819 0
M  V30 16 H 0.729 5.58782 3.83104 0
M  V30 17 H 1.672 6.56266 2.65933 0
M  V30 18 H 2.08 4.83886 2.90714 0
M  V30 19 N 1.4781 -0.272755 1.55222 0
M  V30 20 C 2.4251 -1.33716 1.88119 0
M  V30 21 C 3.3951 -1.49066 0.73271 0
M  V30 22 O 4.5801 -1.63469 0.984002 0
M  V30 23 C 1.7201 -2.69238 2.15882 0
M  V30 24 C 0.8331 -2.62108 3.43399 0
M  V30 25 C -0.0319 -3.89811 3.60861 0
M  V30 26 C -0.9929 -3.77193 4.8207 0
M  V30 27 N -1.8559 -4.9673 4.96189 0
M  V30 28 H 2.9841 -1.04962 2.78903 0
M  V30 29 H 0.5211 -0.507088 1.38083 0
M  V30 30 H 2.4791 -3.48089 2.29978 0
M  V30 31 H 1.1091 -2.96194 1.28331 0
M  V30 32 H 0.1611 -1.74967 3.37773 0
M  V30 33 H 1.4731 -2.48685 4.32386 0
M  V30 34 H 0.6271 -4.77103 3.74777 0
M  V30 35 H -0.6339 -4.06102 2.7006 0
M  V30 36 H -1.6289 -2.88284 4.68159 0
M  V30 37 H -0.4039 -3.62421 5.74307 0
M  V30 38 H -2.4579 -5.13431 4.08319 0
M  V30 39 H -2.5409 -4.85839 5.79221 0
M  V30 40 H -1.2729 -5.85594 5.1449 0
M  V30 41 N 2.9562 -1.48159 -0.537278 0
M  V30 42 C 4.3722 -1.34118 -0.865129 0
M  V30 43 C 4.5722 -0.346678 -1.98495 0
M  V30 44 O 3.6282 0.234715 -2.51407 0
M  V30 45 C 4.9412 -2.73963 -1.23954 0
M  V30 46 C 6.4892 -2.82397 -1.34984 0
M  V30 47 C 6.9642 -4.22928 -1.75772 0
M  V30 48 N 8.4552 -4.25566 -1.82887 0
M  V30 49 C 9.1902 -5.31235 -2.15817 0
M  V30 50 N 8.6862 -6.47189 -2.47222 0
M  V30 51 N 10.4792 -5.18624 -2.16761 0
M  V30 52 H 2.6302 -2.1144 0.201715 0
M  V30 53 H 4.8932 -0.947598 0.0275949 0
M  V30 54 H 4.5992 -3.48264 -0.490381 0
M  V30 55 H 4.4732 -3.0702 -2.19132 0
M  V30 56 H 6.8602 -2.08356 -2.08978 0
M  V30 57 H 6.9412 -2.5297 -0.379448 0
M  V30 58 H 6.5852 -4.97482 -1.02341 0
M  V30 59 H 6.5152 -4.49794 -2.73848 0
M  V30 60 H 9.0062 -3.41924 -1.60924 0
M  V30 61 H 9.3192 -7.23564 -2.71433 0
M  V30 62 H 7.6642 -6.50476 -2.44757 0
M  V30 63 H 10.8552 -4.27056 -1.91679 0
M  V30 64 H 11.0282 -6.01078 -2.42093 0
M  V30 65 N 4.4343 0.785586 -1.36625 0
M  V30 66 C 5.3673 1.90509 -1.25625 0
M  V30 67 C 6.3453 1.62 -0.139607 0
M  V30 68 O 7.5293 1.8591 -0.31141 0
M  V30 69 C 4.6563 3.25419 -0.939158 0
M  V30 70 C 3.7023 3.72856 -2.07077 0
M  V30 71 S 4.5353 3.88162 -3.68904 0
M  V30 72 C 5.6913 5.25942 -3.39317 0
M  V30 73 H 5.9243 1.99549 -2.20381 0
M  V30 74 H 3.4573 0.945226 -1.22085 0
M  V30 75 H 5.4153 4.03346 -0.763029 0
M  V30 76 H 4.0763 3.14099 -0.00931402 0
M  V30 77 H 3.2693 4.70624 -1.80357 0
M  V30 78 H 2.8713 3.01989 -2.20632 0
M  V30 79 H 5.1633 6.10651 -2.93447 0
M  V30 80 H 6.1063 5.57668 -4.36363 0
M  V30 81 H 6.5143 4.93224 -2.74573 0
M  V30 82 N 5.9124 1.20967 1.01018 0
M  V30 83 C 7.1584 1.02526 1.74975 0
M  V30 84 C 7.4914 -0.4408 1.89131 0
M  V30 85 O 6.7664 -1.32718 1.42184 0
M  V30 86 C 7.0494 1.71699 3.1653 0
M  V30 87 C 6.9024 3.25791 3.10129 0
M  V30 88 C 8.2214 1.45531 4.15342 0
M  V30 89 H 5.3404 0.373863 0.635134 0
M  V30 90 H 7.9824 1.49071 1.17805 0
M  V30 91 H 6.1324 1.32128 3.65341 0
M  V30 92 H 7.8044 3.74697 2.69072 0
M  V30 93 H 6.0474 3.56363 2.47362 0
M  V30 94 H 6.7184 3.69353 4.10222 0
M  V30 95 H 9.1944 1.79872 3.75213 0
M  V30 96 H 8.0704 1.96453 5.1254 0
M  V30 97 H 8.3314 0.384237 4.40427 0
M  V30 98 N 7.3905 -1.2043 1.01659 0
M  V30 99 C 8.6155 -1.94318 0.724942 0
M  V30 100 C 9.0405 -1.74266 -0.708034 0
M  V30 101 O 8.3985 -1.03694 -1.48719 0
M  V30 102 C 8.4465 -3.44486 1.06591 0
M  V30 103 O 7.5505 -4.12017 0.177599 0
M  V30 104 H 6.8915 -0.60708 0.26898 0
M  V30 105 H 9.4215 -1.52861 1.35995 0
M  V30 106 H 9.4315 -3.95106 1.01762 0
M  V30 107 H 8.1065 -3.58404 2.10997 0
M  V30 108 H 6.6835 -3.71821 0.283421 0
M  V30 109 N 8.8686 -0.792821 -1.36206 0
M  V30 110 C 10.1146 -0.376415 -1.99887 0
M  V30 111 C 10.4696 1.04127 -1.61788 0
M  V30 112 O 9.7626 1.71004 -0.864193 0
M  V30 113 C 9.9566 -0.481501 -3.54142 0
M  V30 114 C 9.7856 -1.90786 -4.07223 0
M  V30 115 C 8.5556 -2.53322 -4.37214 0
M  V30 116 C 10.7536 -2.87048 -4.26741 0
M  V30 117 N 8.7356 -3.8751 -4.7614 0
M  V30 118 C 10.1066 -4.06077 -4.6851 0
M  V30 119 C 12.1616 -2.8406 -4.08918 0
M  V30 120 C 10.8646 -5.22532 -4.94321 0
M  V30 121 C 12.8906 -3.99705 -4.35878 0
M  V30 122 C 12.2526 -5.1748 -4.77906 0
M  V30 123 H 8.3516 -0.185226 -0.759747 0
M  V30 124 H 10.9356 -1.03114 -1.65153 0
M  V30 125 H 9.1066 0.143154 -3.88136 0
M  V30 126 H 10.8386 -0.0410128 -4.04679 0
M  V30 127 H 7.5936 -2.04777 -4.2704 0
M  V30 128 H 8.0176 -4.5656 -4.99882 0
M  V30 129 H 12.6596 -1.94165 -3.75579 0
M  V30 130 H 10.3776 -6.1301 -5.2654 0
M  V30 131 H 13.9636 -3.98758 -4.23655 0
M  V30 132 H 12.8436 -6.05478 -4.98363 0
M  V30 133 N 10.3467 1.47872 -0.545128 0
M  V30 134 C 11.5717 2.07391 -0.0190611 0
M  V30 135 C 11.9967 1.39688 1.25971 0
M  V30 136 O 11.3547 0.467816 1.7516 0
M  V30 137 C 11.4027 3.60188 0.172335 0
M  V30 138 O 10.5067 3.9339 1.23766 0
M  V30 139 H 9.8477 0.662411 -0.0459059 0
M  V30 140 H 12.3777 1.90066 -0.757365 0
M  V30 141 H 12.3877 4.06129 0.390305 0
M  V30 142 H 11.0627 4.08865 -0.761725 0
M  V30 143 H 9.6397 3.5921 1.00114 0
M  V30 144 N 11.8248 0.280983 1.55075 0
M  V30 145 C 13.0718 -0.334115 1.99725 0
M  V30 146 C 13.3998 -1.5542 1.1694 0
M  V30 147 O 12.6548 -1.94361 0.228531 0
M  V30 148 C 12.9538 -0.754656 3.49342 0
M  V30 149 C 12.6198 0.361445 4.49449 0
M  V30 150 C 11.2818 0.667893 4.76542 0
M  V30 151 C 13.6338 1.11322 5.09173 0
M  V30 152 C 10.9618 1.7296 5.60626 0
M  V30 153 C 13.3138 2.1647 5.9441 0
M  V30 154 C 11.9778 2.47742 6.19822 0
M  V30 155 H 11.2478 -0.122261 0.730844 0
M  V30 156 H 13.8948 0.395917 1.87363 0
M  V30 157 H 12.1998 -1.56446 3.5921 0
M  V30 158 H 13.8968 -1.24142 3.813 0
M  V30 159 H 10.4868 0.112481 4.28452 0
M  V30 160 H 14.6708 0.88973 4.8826 0
M  V30 161 H 9.9268 1.97684 5.78559 0
M  V30 162 H 14.1008 2.75193 6.3972 0
M  V30 163 H 11.7278 3.30145 6.84769 0
M  V30 164 N 13.3029 -1.57598 0.00835791 0
M  V30 165 C 14.2529 -2.05431 -0.989045 0
M  V30 166 C 15.2369 -0.950662 -1.29812 0
M  V30 167 O 16.4289 -1.21438 -1.28771 0
M  V30 168 C 13.5579 -2.56801 -2.27833 0
M  V30 169 C 12.6439 -3.74058 -1.99853 0
M  V30 170 N 13.0349 -4.8544 -1.42062 0
M  V30 171 C 11.3329 -3.82148 -2.29953 0
M  V30 172 C 12.0339 -5.66817 -1.30743 0
M  V30 173 N 11.0099 -5.13077 -1.7959 0
M  V30 174 H 14.8119 -2.88955 -0.536853 0
M  V30 175 H 12.3259 -1.61199 -0.197148 0
M  V30 176 H 14.3229 -2.89349 -3.00137 0
M  V30 177 H 12.9829 -1.74699 -2.73698 0
M  V30 178 H 13.9939 -5.0612 -1.09833 0
M  V30 179 H 10.6709 -3.10916 -2.78635 0
M  V30 180 H 12.0609 -6.66343 -0.862328 0
M  V30 181 N 14.781 0.264519 -1.55364 0
M  V30 182 C 15.728 1.32717 -1.88825 0
M  V30 183 C 16.698 1.48675 -0.740605 0
M  V30 184 O 17.883 1.62945 -0.992657 0
M  V30 185 C 15.023 2.68089 -2.17307 0
M  V30 186 C 14.136 2.60284 -3.44785 0
M  V30 187 C 13.271 3.87892 -3.62924 0
M  V30 188 C 12.31 3.74631 -4.84064 0
M  V30 189 N 11.447 4.94092 -4.98816 0
M  V30 190 H 16.287 1.03481 -2.79456 0
M  V30 191 H 13.824 0.499757 -1.3835 0
M  V30 192 H 15.782 3.46864 -2.31821 0
M  V30 193 H 14.412 2.95509 -1.299 0
M  V30 194 H 13.464 1.73173 -3.38697 0
M  V30 195 H 14.776 2.46388 -4.33698 0
M  V30 196 H 13.93 4.75109 -3.77302 0
M  V30 197 H 12.669 4.04664 -2.7221 0
M  V30 198 H 11.674 2.85797 -4.69681 0
M  V30 199 H 12.899 3.5937 -5.76221 0
M  V30 200 H 10.845 5.11259 -4.11036 0
M  V30 201 H 10.762 4.8276 -5.81789 0
M  V30 202 H 12.03 5.82857 -5.17588 0
M  V30 203 N 16.2591 1.48442 0.529413 0
M  V30 204 C 17.1891 1.65902 1.64313 0
M  V30 205 C 18.1701 0.507897 1.6234 0
M  V30 206 O 19.3551 0.740503 1.79528 0
M  V30 207 C 16.4851 1.69911 3.02898 0
M  V30 208 C 15.4391 2.8453 3.19729 0
M  V30 209 C 14.7651 2.73629 4.59381 0
M  V30 210 C 16.0651 4.25821 3.02447 0
M  V30 211 H 17.7591 2.5914 1.49955 0
M  V30 212 H 15.3051 1.24709 0.719982 0
M  V30 213 H 17.2581 1.80715 3.80684 0
M  V30 214 H 15.9821 0.732524 3.18279 0
M  V30 215 H 14.6411 2.73283 2.44361 0
M  V30 216 H 14.2891 1.74938 4.71599 0
M  V30 217 H 13.9891 3.50541 4.71588 0
M  V30 218 H 15.5131 2.86401 5.39265 0
M  V30 219 H 16.9271 4.37898 3.70024 0
M  V30 220 H 15.3241 5.03735 3.26146 0
M  V30 221 H 16.3941 4.42244 1.98867 0
M  V30 222 N 17.7372 -0.778329 1.37039 0
M  V30 223 C 18.6842 -1.89139 1.32269 0
M  V30 224 C 19.6542 -1.65017 0.189387 0
M  V30 225 O 20.8392 -1.87024 0.377693 0
M  V30 226 C 17.9792 -3.26112 1.12894 0
M  V30 227 C 17.0922 -3.62233 2.35396 0
M  V30 228 C 16.2272 -4.8838 2.08946 0
M  V30 229 C 15.2662 -5.17212 3.2735 0
M  V30 230 N 14.4032 -6.34546 3.00492 0
M  V30 231 H 19.2432 -1.92552 2.27437 0
M  V30 232 H 16.7802 -0.941473 1.13025 0
M  V30 233 H 18.7382 -4.05116 0.996835 0
M  V30 234 H 17.3682 -3.22091 0.213758 0
M  V30 235 H 16.4202 -2.78265 2.5937 0
M  V30 236 H 17.7322 -3.79481 3.23721 0
M  V30 237 H 16.8862 -5.75274 1.92729 0
M  V30 238 H 15.6252 -4.73222 1.17949 0
M  V30 239 H 14.6302 -4.28796 3.44113 0
M  V30 240 H 15.8552 -5.34283 4.19188 0
M  V30 241 H 13.8012 -6.20759 2.12118 0
M  V30 242 H 13.7182 -6.52179 3.82358 0
M  V30 243 H 14.9862 -7.24394 2.87879 0
M  V30 244 N 19.2153 -1.21501 -1.00376 0
M  V30 245 C 20.4433 -1.059 -1.77744 0
M  V30 246 C 20.8583 0.391125 -1.84704 0
M  V30 247 O 20.2153 1.27133 -1.30933 0
M  V30 248 C 20.2663 -1.65111 -3.21591 0
M  V30 249 O 19.9873 -3.0445 -3.15027 0
M  V30 250 C 21.4883 -1.54637 -4.15454 0
M  V30 251 H 18.7083 -0.371825 -0.558558 0
M  V30 252 H 21.2523 -1.60865 -1.26264 0
M  V30 253 H 19.4073 -1.14235 -3.70175 0
M  V30 254 H 19.8213 -3.3278 -4.0541 0
M  V30 255 H 21.2953 -2.00808 -5.14179 0
M  V30 256 H 21.7723 -0.501022 -4.36333 0
M  V30 257 H 22.3783 -2.04767 -3.72761 0
M  V30 258 N 20.6934 1.19889 -1.02296 0
M  V30 259 C 21.6264 2.21639 -0.543282 0
M  V30 260 C 22.6044 1.57275 0.412698 0
M  V30 261 O 23.7884 1.85568 0.331198 0
M  V30 262 C 20.9154 3.38057 0.208571 0
M  V30 263 C 19.9614 4.20751 -0.697933 0
M  V30 264 S 20.7944 4.89529 -2.17075 0
M  V30 265 C 21.9504 6.09363 -1.42923 0
M  V30 266 H 22.1834 2.61984 -1.40541 0
M  V30 267 H 19.7164 1.30041 -0.832387 0
M  V30 268 H 21.6744 4.05539 0.63624 0
M  V30 269 H 20.3354 2.96159 1.04635 0
M  V30 270 H 19.5284 5.03862 -0.117831 0
M  V30 271 H 19.1304 3.58556 -1.06366 0
M  V30 272 H 21.4224 6.73742 -0.712637 0
M  V30 273 H 22.3654 6.71845 -2.23673 0
M  V30 274 H 22.7734 5.56798 -0.929327 0
M  V30 275 N 22.1715 0.800033 1.35784 0
M  V30 276 C 23.1185 0.203848 2.29898 0
M  V30 277 C 24.0885 -0.658375 1.52495 0
M  V30 278 O 25.2735 -0.604832 1.8096 0
M  V30 279 C 22.4135 -0.64688 3.38983 0
M  V30 280 C 21.5265 0.235054 4.3136 0
M  V30 281 C 20.6615 -0.623054 5.27533 0
M  V30 282 C 19.7005 0.259682 6.11549 0
M  V30 283 N 18.8375 -0.558019 6.99879 0
M  V30 284 H 23.6775 1.01186 2.80295 0
M  V30 285 H 21.2145 0.51053 1.37957 0
M  V30 286 H 23.1725 -1.15521 4.00887 0
M  V30 287 H 21.8025 -1.42021 2.89879 0
M  V30 288 H 20.8545 0.861438 3.70518 0
M  V30 289 H 22.1665 0.914768 4.9034 0
M  V30 290 H 21.3205 -1.19678 5.94779 0
M  V30 291 H 20.0595 -1.33636 4.69034 0
M  V30 292 H 19.0645 0.845726 5.43256 0
M  V30 293 H 20.2895 0.970748 6.72126 0
M  V30 294 H 18.2355 -1.25542 6.43875 0
M  V30 295 H 18.1525 0.0637872 7.55973 0
M  V30 296 H 19.4205 -1.11523 7.71481 0
M  V30 297 N 23.6496 -1.47581 0.552962 0
M  V30 298 C 24.5996 -2.26961 -0.217423 0
M  V30 299 C 25.5836 -1.34099 -0.889168 0
M  V30 300 O 26.7756 -1.58483 -0.788176 0
M  V30 301 C 23.9046 -3.19756 -1.24944 0
M  V30 302 C 22.9906 -4.20097 -0.581327 0
M  V30 303 N 23.3816 -5.04614 0.346171 0
M  V30 304 C 21.6796 -4.38099 -0.835767 0
M  V30 305 C 22.3806 -5.77052 0.733854 0
M  V30 306 N 21.3566 -5.43526 0.0896567 0
M  V30 307 H 25.1586 -2.89688 0.495761 0
M  V30 308 H 22.6726 -1.58068 0.372597 0
M  V30 309 H 24.6696 -3.75305 -1.81527 0
M  V30 310 H 23.3296 -2.58585 -1.96376 0
M  V30 311 H 24.3406 -5.12869 0.720098 0
M  V30 312 H 21.0176 -3.88102 -1.53892 0
M  V30 313 H 22.4076 -6.5504 1.49574 0
M  V30 314 N 25.1277 -0.289203 -1.54924 0
M  V30 315 C 26.0577 0.58549 -2.2604 0
M  V30 316 C 27.0387 1.14753 -1.25562 0
M  V30 317 O 28.2237 1.17906 -1.54311 0
M  V30 318 C 25.3537 1.76305 -2.99222 0
M  V30 319 C 24.3077 1.33191 -4.06748 0
M  V30 320 C 23.6337 2.5937 -4.6758 0
M  V30 321 C 24.9337 0.471775 -5.20165 0
M  V30 322 H 26.6277 -0.00763532 -2.99399 0
M  V30 323 H 24.1737 -0.00511229 -1.43999 0
M  V30 324 H 26.1267 2.38097 -3.47689 0
M  V30 325 H 24.8507 2.38223 -2.23422 0
M  V30 326 H 23.5097 0.737121 -3.59113 0
M  V30 327 H 23.1577 3.19576 -3.88433 0
M  V30 328 H 22.8577 2.31228 -5.40192 0
M  V30 329 H 24.3817 3.21985 -5.18804 0
M  V30 330 H 25.7957 0.995056 -5.64599 0
M  V30 331 H 24.1927 0.284639 -5.99425 0
M  V30 332 H 25.2627 -0.506041 -4.82252 0
M  V30 333 N 26.6058 1.57591 -0.0167156 0
M  V30 334 C 27.5358 2.12496 0.967858 0
M  V30 335 C 28.5168 1.03807 1.34752 0
M  V30 336 O 29.7018 1.31577 1.42833 0
M  V30 337 C 26.8318 2.64194 2.25431 0
M  V30 338 C 25.7858 3.77559 2.01576 0
M  V30 339 C 25.1118 4.15636 3.36379 0
M  V30 340 C 26.4118 5.04151 1.36489 0
M  V30 341 H 28.1058 2.95013 0.510643 0
M  V30 342 H 25.6518 1.41915 0.244181 0
M  V30 343 H 27.6048 3.01236 2.94678 0
M  V30 344 H 26.3288 1.78821 2.73296 0
M  V30 345 H 24.9878 3.40937 1.34751 0
M  V30 346 H 24.6358 3.27263 3.81979 0
M  V30 347 H 24.3358 4.92022 3.21229 0
M  V30 348 H 25.8598 4.5525 4.06915 0
M  V30 349 H 27.2738 5.38857 1.95718 0
M  V30 350 H 25.6708 5.85453 1.31776 0
M  V30 351 H 26.7408 4.83733 0.336219 0
M  V30 352 N 28.0839 -0.256276 1.55502 0
M  V30 353 C 29.0139 -1.32102 1.92539 0
M  V30 354 C 29.9949 -1.50684 0.789194 0
M  V30 355 O 31.1799 -1.63449 1.04872 0
M  V30 356 C 28.3099 -2.67752 2.21192 0
M  V30 357 C 27.2639 -2.63878 3.36975 0
M  V30 358 C 26.5899 -4.03236 3.51147 0
M  V30 359 C 27.8899 -2.21682 4.72921 0
M  V30 360 H 29.5839 -1.01351 2.81724 0
M  V30 361 H 27.1299 -0.486105 1.35547 0
M  V30 362 H 29.0829 -3.42365 2.45691 0
M  V30 363 H 27.8069 -3.0012 1.28824 0
M  V30 364 H 26.4659 -1.91722 3.12471 0
M  V30 365 H 26.1139 -4.32854 2.56216 0
M  V30 366 H 25.8139 -4.01535 4.29003 0
M  V30 367 H 27.3379 -4.79563 3.77957 0
M  V30 368 H 28.7519 -2.86023 4.96854 0
M  V30 369 H 27.1489 -2.3111 5.53812 0
M  V30 370 H 28.2189 -1.16833 4.70615 0
M  V30 371 N 29.562 -1.4872 -0.521534 0
M  V30 372 C 30.492 -1.66771 -1.63431 0
M  V30 373 C 31.473 -0.516499 -1.62069 0
M  V30 374 O 32.658 -0.750013 -1.79132 0
M  V30 375 C 29.788 -1.71515 -3.01993 0
M  V30 376 C 28.742 -2.86222 -3.18216 0
M  V30 377 C 28.068 -2.76061 -4.57924 0
M  V30 378 C 29.368 -4.27419 -3.00184 0
M  V30 379 H 31.062 -2.59932 -1.48579 0
M  V30 380 H 28.608 -1.25089 -0.713358 0
M  V30 381 H 30.561 -1.82731 -3.7972 0
M  V30 382 H 29.285 -0.749393 -3.17886 0
M  V30 383 H 27.944 -2.74575 -2.42908 0
M  V30 384 H 27.592 -1.77437 -4.70665 0
M  V30 385 H 27.292 -3.53037 -4.69722 0
M  V30 386 H 28.816 -2.89256 -5.37739 0
M  V30 387 H 30.23 -4.39855 -3.67697 0
M  V30 388 H 28.627 -5.05458 -3.2347 0
M  V30 389 H 29.697 -4.43293 -1.96518 0
M  V30 390 N 31.0401 0.771051 -1.3745 0
M  V30 391 C 31.9701 1.89827 -1.3597 0
M  V30 392 C 32.9511 1.68562 -0.228216 0
M  V30 393 O 34.1361 1.8941 -0.428675 0
M  V30 394 C 31.2661 3.2712 -1.16662 0
M  V30 395 C 30.2201 3.6295 -2.2683 0
M  V30 396 C 29.5461 4.98791 -1.92644 0
M  V30 397 C 30.8461 3.69627 -3.69017 0
M  V30 398 H 32.5401 1.91323 -2.30295 0
M  V30 399 H 30.0861 0.919082 -1.10855 0
M  V30 400 H 32.0391 4.05615 -1.14256 0
M  V30 401 H 30.7631 3.26059 -0.187926 0
M  V30 402 H 29.4221 2.86763 -2.28392 0
M  V30 403 H 29.0701 4.94271 -0.933021 0
M  V30 404 H 28.7701 5.23733 -2.66416 0
M  V30 405 H 30.2941 5.79685 -1.91826 0
M  V30 406 H 31.7081 4.38273 -3.69581 0
M  V30 407 H 30.1051 4.06067 -4.41848 0
M  V30 408 H 31.1751 2.70273 -4.02592 0
M  V30 409 N 32.5182 1.22032 0.997298 0
M  V30 410 C 33.4482 1.01065 2.10495 0
M  V30 411 C 34.4292 -0.0669542 1.69968 0
M  V30 412 O 35.6142 0.0943987 1.9397 0
M  V30 413 C 32.7442 0.582874 3.42374 0
M  V30 414 C 31.6982 1.60592 3.96729 0
M  V30 415 C 31.0242 1.03412 5.24605 0
M  V30 416 C 32.3242 2.99478 4.27914 0
M  V30 417 H 34.0182 1.93708 2.28292 0
M  V30 418 H 31.5642 0.932761 1.09707 0
M  V30 419 H 33.5172 0.423332 4.19268 0
M  V30 420 H 32.2412 -0.379213 3.24391 0
M  V30 421 H 30.9002 1.75316 3.21963 0
M  V30 422 H 30.5482 0.063518 5.0296 0
M  V30 423 H 30.2482 1.71754 5.61938 0
M  V30 424 H 31.7722 0.886066 6.04137 0
M  V30 425 H 33.1862 2.88153 4.95622 0
M  V30 426 H 31.5832 3.64903 4.76409 0
M  V30 427 H 32.6532 3.49742 3.3587 0
M  V30 428 N 33.9963 -1.19345 1.0293 0
M  V30 429 C 35.2363 -1.90738 0.734727 0
M  V30 430 C 35.6003 -1.7785 -0.723414 0
M  V30 431 O 36.8013 -2.43844 -1.13108 0
M  V30 432 C 35.0723 -3.37569 1.17396 0
M  V30 433 S 36.6313 -4.27176 1.00329 0
M  V30 434 H 33.4493 -0.658771 0.267474 0
M  V30 435 H 36.0513 -1.4428 1.31922 0
M  V30 436 H 34.7553 -3.44475 2.23081 0
M  V30 437 H 34.2863 -3.8906 0.582772 0
M  V30 438 H 36.3013 -4.96126 -0.0859152 0
M  V30 439 N 35.4744 -0.807222 -1.35358 0
M  V30 440 C 36.7204 -0.388463 -1.99045 0
M  V30 441 C 37.0534 1.04184 -1.63888 0
M  V30 442 O 36.3284 1.72292 -0.902535 0
M  V30 443 C 36.6114 -0.572783 -3.55515 0
M  V30 444 C 36.4644 -2.04807 -4.00468 0
M  V30 445 C 37.7834 0.00114064 -4.401 0
M  V30 446 H 34.9024 -0.142619 -0.723069 0
M  V30 447 H 37.5444 -1.01687 -1.60498 0
M  V30 448 H 35.6944 -0.0378425 -3.88482 0
M  V30 449 H 37.3664 -2.64544 -3.77908 0
M  V30 450 H 35.6094 -2.54427 -3.51353 0
M  V30 451 H 36.2804 -2.12792 -5.09337 0
M  V30 452 H 38.7564 -0.455716 -4.13597 0
M  V30 453 H 37.6324 -0.157737 -5.48673 0
M  V30 454 H 37.8934 1.09488 -4.28328 0
M  V30 455 N 36.9525 1.47285 -0.560781 0
M  V30 456 C 38.1995 2.02464 -0.038062 0
M  V30 457 C 38.5275 1.43474 1.31322 0
M  V30 458 O 37.7825 0.581311 1.86867 0
M  V30 459 C 38.0815 3.57258 0.100784 0
M  V30 460 C 37.7475 4.35184 -1.18007 0
M  V30 461 C 36.4095 4.56194 -1.53103 0
M  V30 462 C 38.7615 4.80098 -2.02867 0
M  V30 463 C 36.0895 5.19367 -2.729 0
M  V30 464 C 38.4415 5.44593 -3.21871 0
M  V30 465 C 37.1055 5.63835 -3.57276 0
M  V30 466 H 36.3755 0.740869 -0.0139279 0
M  V30 467 H 39.0225 1.76916 -0.733012 0
M  V30 468 H 37.3275 3.81819 0.878724 0
M  V30 469 H 39.0245 3.97606 0.520639 0
M  V30 470 H 35.6145 4.19113 -0.8968 0
M  V30 471 H 39.7985 4.63642 -1.7706 0
M  V30 472 H 35.0545 5.32459 -3.00496 0
M  V30 473 H 39.2285 5.78358 -3.87911 0
M  V30 474 H 36.8555 6.12557 -4.50197 0
M  V30 475 N 38.4306 0.297415 1.54768 0
M  V30 476 C 39.3606 -0.573494 2.26348 0
M  V30 477 C 40.3416 -1.14085 1.26169 0
M  V30 478 O 41.5266 -1.17086 1.54934 0
M  V30 479 C 38.6566 -1.74716 3.00153 0
M  V30 480 C 37.6106 -1.31032 4.07449 0
M  V30 481 C 36.9366 -2.56887 4.68949 0
M  V30 482 C 38.2366 -0.444183 5.20408 0
M  V30 483 H 39.9306 0.0235131 2.99391 0
M  V30 484 H 37.4766 0.0127488 1.43994 0
M  V30 485 H 39.4296 -2.3625 3.48947 0
M  V30 486 H 38.1536 -2.37035 2.24682 0
M  V30 487 H 36.8126 -0.718066 3.59499 0
M  V30 488 H 36.4606 -3.17512 3.90122 0
M  V30 489 H 36.1606 -2.2836 5.41411 0
M  V30 490 H 37.6846 -3.19229 5.20505 0
M  V30 491 H 39.0986 -0.9651 5.65118 0
M  V30 492 H 37.4956 -0.252846 5.99567 0
M  V30 493 H 38.5656 0.531609 4.81977 0
M  V30 494 N 39.9087 -1.5758 0.0250728 0
M  V30 495 C 41.1547 -1.91917 -0.655413 0
M  V30 496 C 41.4877 -0.901433 -1.72011 0
M  V30 497 O 40.7627 0.0764069 -1.9435 0
M  V30 498 C 41.0457 -3.36751 -1.27558 0
M  V30 499 C 40.8987 -4.49258 -0.220719 0
M  V30 500 C 42.2177 -3.81469 -2.19475 0
M  V30 501 H 39.3367 -0.697925 -0.23679 0
M  V30 502 H 41.9787 -1.89825 0.0815036 0
M  V30 503 H 40.1287 -3.38664 -1.90365 0
M  V30 504 H 41.8007 -4.59478 0.409601 0
M  V30 505 H 40.0437 -4.31415 0.454264 0
M  V30 506 H 40.7147 -5.47618 -0.694175 0
M  V30 507 H 43.1907 -3.81266 -1.66659 0
M  V30 508 H 42.0667 -4.83512 -2.59822 0
M  V30 509 H 42.3277 -3.16744 -3.08424 0
M  V30 510 N 41.3868 0.248026 -1.55636 0
M  V30 511 C 42.3338 1.30707 -1.90222 0
M  V30 512 C 43.3038 1.47881 -0.756332 0
M  V30 513 O 44.4888 1.61883 -1.00988 0
M  V30 514 C 41.6288 2.65769 -2.20138 0
M  V30 515 C 40.7418 2.56612 -3.47526 0
M  V30 516 C 39.8768 3.8402 -3.67017 0
M  V30 517 C 38.9158 3.69476 -4.8801 0
M  V30 518 N 38.0528 4.88774 -5.04029 0
M  V30 519 H 42.8928 1.00512 -2.80538 0
M  V30 520 H 40.4298 0.485055 -1.38873 0
M  V30 521 H 42.3878 3.44386 -2.35487 0
M  V30 522 H 41.0178 2.94115 -1.33027 0
M  V30 523 H 40.0698 1.69571 -3.40514 0
M  V30 524 H 41.3818 2.41774 -4.36287 0
M  V30 525 H 40.5358 4.7108 -3.8232 0
M  V30 526 H 39.2748 4.01754 -2.76487 0
M  V30 527 H 38.2798 2.80799 -4.72686 0
M  V30 528 H 39.5048 3.53238 -5.8 0
M  V30 529 H 37.4508 5.0687 -4.16435 0
M  V30 530 H 37.3678 4.76562 -5.86877 0
M  V30 531 H 38.6358 5.77335 -5.23741 0
M  V30 532 N 42.8649 1.48995 0.513639 0
M  V30 533 C 44.0899 1.61792 1.29762 0
M  V30 534 C 44.5149 0.284475 1.85936 0
M  V30 535 O 43.8729 -0.746185 1.65232 0
M  V30 536 C 43.9209 2.67993 2.41272 0
M  V30 537 O 43.0249 2.26287 3.44772 0
M  V30 538 H 42.3659 0.541963 0.38363 0
M  V30 539 H 44.8959 1.95097 0.616307 0
M  V30 540 H 44.9059 2.89772 2.87221 0
M  V30 541 H 43.5809 3.64791 1.9975 0
M  V30 542 H 42.1579 2.14788 3.04829 0
M  V30 543 N 44.343 -0.763751 1.37857 0
M  V30 544 C 45.275 -1.88664 1.30148 0
M  V30 545 C 46.288 -1.61365 0.215685 0
M  V30 546 O 47.477 -1.72134 0.472459 0
M  V30 547 C 44.577 -3.24075 0.991396 0
M  V30 548 C 43.75 -3.78958 2.18426 0
M  V30 549 C 42.809 -4.92862 1.8432 0
M  V30 550 O 41.835 -5.08027 2.56704 0
M  V30 551 N 43.037 -5.75071 0.792081 0
M  V30 552 H 45.802 -1.95791 2.26905 0
M  V30 553 H 43.363 -0.943226 1.31586 0
M  V30 554 H 45.355 -3.97804 0.743935 0
M  V30 555 H 43.925 -3.12399 0.112122 0
M  V30 556 H 43.145 -2.96913 2.59299 0
M  V30 557 H 44.433 -4.12357 2.98058 0
M  V30 558 H 43.831 -5.65375 0.191595 0
M  V30 559 H 42.388 -6.48991 0.60449 0
M  V30 560 N 45.8211 -1.22559 -0.990812 0
M  V30 561 C 47.0691 -1.04933 -1.72724 0
M  V30 562 C 47.3901 0.416158 -1.90508 0
M  V30 563 O 46.6601 1.29918 -1.46622 0
M  V30 564 H 45.2401 -0.385296 -0.639965 0
M  V30 565 H 47.9021 -1.54105 -1.19322 0
M  V30 566 H 46.9981 -1.52886 -2.72089 0
M  V30 567 N 47.2992 1.18797 -1.03562 0
M  V30 568 C 48.5452 1.8893 -0.737113 0
M  V30 569 C 48.8782 1.79837 0.732956 0
M  V30 570 O 48.1532 1.19525 1.5344 0
M  V30 571 C 48.4362 3.39607 -1.19745 0
M  V30 572 C 48.2892 3.57537 -2.72924 0
M  V30 573 C 49.6082 4.33069 -0.783526 0
M  V30 574 H 46.7272 0.686057 -0.269249 0
M  V30 575 H 49.3692 1.39797 -1.28673 0
M  V30 576 H 47.5192 3.81583 -0.729855 0
M  V30 577 H 49.1912 3.24688 -3.27682 0
M  V30 578 H 47.4342 3.00363 -3.12993 0
M  V30 579 H 48.1052 4.63238 -3.00191 0
M  V30 580 H 50.5812 3.98846 -1.18581 0
M  V30 581 H 49.4572 5.3707 -1.13343 0
M  V30 582 H 49.7182 4.40986 0.313681 0
M  V30 583 N 48.7773 0.814389 1.34928 0
M  V30 584 C 49.7253 0.218424 2.31572 0
M  V30 585 C 50.7193 -0.636128 1.57002 0
M  V30 586 O 51.9253 -0.52842 1.72069 0
M  V30 587 H 48.3003 0.0518799 0.750208 0
M  V30 588 H 50.2713 1.04852 2.79372 0
M  V30 589 C 49.0203 -0.61207 3.4227 0
M  V30 590 H 48.3433 0.0361578 3.99784 0
M  V30 591 H 49.7833 -0.995317 4.12152 0
M  V30 592 C 48.2423 -1.78087 2.85984 0
M  V30 593 O 48.7723 -2.8787 2.80168 0
M  V30 594 N 46.9783 -1.59488 2.42924 0
M  V30 595 H 46.5253 -0.701874 2.47854 0
M  V30 596 H 46.4833 -2.37846 2.05613 0
M  V30 597 N 50.2554 -1.46986 0.568584 0
M  V30 598 C 51.5324 -1.95592 -0.0174074 0
M  V30 599 C 51.9124 -1.51124 -1.47393 0
M  V30 600 O 51.2604 -0.755329 -2.15655 0
M  V30 601 C 51.4704 -3.48719 0.139913 0
M  V30 602 C 52.8184 -4.246 0.000426376 0
M  V30 603 O 53.8424 -3.56135 0.0680316 0
M  V30 604 O 52.7014 -5.46302 -0.146988 0
M  V30 605 H 49.7954 -0.82498 -0.0577599 0
M  V30 606 H 52.3414 -1.57335 0.635909 0
M  V30 607 H 51.1134 -3.73927 1.15301 0
M  V30 608 H 50.7364 -3.93771 -0.550491 0
M  V30 609 N 51.7335 -0.305618 -1.54608 0
M  V30 610 C 52.6815 0.584119 -2.25146 0
M  V30 611 C 53.6755 1.13326 -1.25911 0
M  V30 612 O 54.8815 1.08337 -1.43747 0
M  V30 613 H 51.2565 0.206983 -0.722954 0
M  V30 614 H 53.2275 -0.033291 -2.98381 0
M  V30 615 C 51.9765 1.74225 -3.009 0
M  V30 616 H 51.2995 1.32892 -3.77067 0
M  V30 617 H 52.7395 2.34077 -3.53531 0
M  V30 618 C 51.1985 2.64914 -2.0814 0
M  V30 619 O 51.7285 3.66137 -1.65246 0
M  V30 620 N 49.9345 2.3275 -1.74 0
M  V30 621 H 49.4815 1.50479 -2.09078 0
M  V30 622 H 49.4395 2.93694 -1.12211 0
M  V30 623 N 53.2116 1.57565 -0.0334293 0
M  V30 624 C 54.1216 2.13943 0.962572 0
M  V30 625 C 55.1376 1.09276 1.35406 0
M  V30 626 O 56.3136 1.41355 1.4346 0
M  V30 627 C 53.3786 2.65887 2.22497 0
M  V30 628 C 52.4396 3.85286 1.8935 0
M  V30 629 C 51.6726 4.34743 3.09571 0
M  V30 630 O 51.8956 3.83352 4.22371 0
M  V30 631 O 50.8296 5.26538 2.91618 0
M  V30 632 H 54.6556 2.99333 0.513169 0
M  V30 633 H 52.2406 1.4822 0.18743 0
M  V30 634 H 54.1226 2.99346 2.96598 0
M  V30 635 H 52.7976 1.83578 2.6661 0
M  V30 636 H 51.7046 3.56746 1.1262 0
M  V30 637 H 53.0376 4.68771 1.5005 0
M  V30 638 N 54.6897 -0.239769 1.55765 0
M  V30 639 C 55.5997 -1.31831 1.94056 0
M  V30 640 C 56.6157 -1.52275 0.841925 0
M  V30 641 O 57.7917 -1.65759 1.14394 0
M  V30 642 C 54.8567 -2.65156 2.23368 0
M  V30 643 C 53.9177 -2.53173 3.46701 0
M  V30 644 C 53.1507 -3.8014 3.74606 0
M  V30 645 O 53.3737 -4.82343 3.04469 0
M  V30 646 O 52.3077 -3.78344 4.68123 0
M  V30 647 H 56.1337 -1.02347 2.85935 0
M  V30 648 H 53.7187 -0.441123 1.42739 0
M  V30 649 H 55.6007 -3.43929 2.43497 0
M  V30 650 H 54.2757 -2.94358 1.34666 0
M  V30 651 H 53.1827 -1.72662 3.31871 0
M  V30 652 H 54.5157 -2.28915 4.35728 0
M  V30 653 N 56.1678 -1.49265 -0.50573 0
M  V30 654 C 57.4158 -1.582 -1.25766 0
M  V30 655 C 57.7368 -0.268482 -1.93143 0
M  V30 656 O 57.0068 0.711833 -1.8251 0
M  V30 657 H 55.5868 -0.582873 -0.467191 0
M  V30 658 H 58.2488 -1.85865 -0.586525 0
M  V30 659 H 57.3448 -2.37563 -2.02412 0
M  V30 660 N 57.6459 0.756429 -1.3826 0
M  V30 661 C 58.8929 1.51547 -1.34312 0
M  V30 662 C 59.2209 1.94382 0.0677144 0
M  V30 663 O 58.4759 1.65514 1.04421 0
M  V30 664 C 58.7749 2.78313 -2.24224 0
M  V30 665 C 58.4409 2.54455 -3.72241 0
M  V30 666 C 57.1029 2.47657 -4.12576 0
M  V30 667 C 59.4549 2.3354 -4.65949 0
M  V30 668 C 56.7829 2.17956 -5.44713 0
M  V30 669 C 59.1349 2.05359 -5.9834 0
M  V30 670 C 57.7989 1.97016 -6.37762 0
M  V30 671 H 57.0689 0.55455 -0.491482 0
M  V30 672 H 59.7159 0.870039 -1.70595 0
M  V30 673 H 58.0209 3.47492 -1.80987 0
M  V30 674 H 59.7179 3.36259 -2.18474 0
M  V30 675 H 56.3079 2.60616 -3.40261 0
M  V30 676 H 60.4919 2.37772 -4.35635 0
M  V30 677 H 55.7479 2.10003 -5.74203 0
M  V30 678 H 59.9219 1.88179 -6.70494 0
M  V30 679 H 57.5489 1.73766 -7.40074 0
M  V30 680 N 59.124 1.23083 0.984299 0
M  V30 681 C 60.371 1.06057 1.72505 0
M  V30 682 C 60.699 -0.403105 1.90277 0
M  V30 683 O 59.954 -1.3149 1.44944 0
M  V30 684 C 60.253 1.72673 3.1292 0
M  V30 685 C 59.919 3.22586 3.15038 0
M  V30 686 C 58.581 3.63489 3.15324 0
M  V30 687 C 60.933 4.185 3.10657 0
M  V30 688 C 58.261 4.98772 3.08939 0
M  V30 689 C 60.613 5.53769 3.05814 0
M  V30 690 C 59.277 5.94041 3.04419 0
M  V30 691 H 58.547 0.388091 0.631242 0
M  V30 692 H 61.194 1.52963 1.15215 0
M  V30 693 H 59.499 1.18116 3.73572 0
M  V30 694 H 61.196 1.56982 3.68996 0
M  V30 695 H 57.786 2.90022 3.15571 0
M  V30 696 H 61.97 3.87911 3.09579 0
M  V30 697 H 57.226 5.29193 3.0621 0
M  V30 698 H 61.4 6.27808 3.0138 0
M  V30 699 H 59.027 6.98833 2.99227 0
M  V30 700 N 60.6021 -1.18246 1.0419 0
M  V30 701 C 61.8271 -1.92736 0.765996 0
M  V30 702 C 62.2521 -1.75728 -0.67091 0
M  V30 703 O 61.6101 -1.06825 -1.46486 0
M  V30 704 C 61.6581 -3.42148 1.13875 0
M  V30 705 O 60.7621 -4.11548 0.264954 0
M  V30 706 H 60.1031 -0.601238 0.281797 0
M  V30 707 H 62.6331 -1.49942 1.39207 0
M  V30 708 H 62.6431 -3.92858 1.1012 0
M  V30 709 H 61.3181 -3.53848 2.18551 0
M  V30 710 H 59.8951 -3.71137 0.362226 0
M  V30 711 N 62.0802 -0.821533 -1.34494 0
M  V30 712 C 63.0432 -0.247847 -2.27856 0
M  V30 713 C 64.0432 0.573453 -1.50227 0
M  V30 714 O 65.2332 0.389759 -1.69784 0
M  V30 715 C 62.3652 0.652698 -3.34593 0
M  V30 716 H 63.5582 -1.07146 -2.80107 0
M  V30 717 H 61.1112 -0.593291 -1.44602 0
M  V30 718 H 61.8462 1.49943 -2.87555 0
M  V30 719 H 61.6312 0.065292 -3.92046 0
M  V30 720 H 63.1212 1.04793 -4.04238 0
M  V30 721 N 63.5583 1.46682 -0.576371 0
M  V30 722 C 64.9743 1.57822 -0.237562 0
M  V30 723 C 65.1743 1.57237 1.26011 0
M  V30 724 O 64.2303 1.48596 2.04146 0
M  V30 725 C 65.5433 2.87499 -0.881168 0
M  V30 726 C 67.0913 3.01119 -0.85417 0
M  V30 727 C 67.5663 4.33524 -1.4772 0
M  V30 728 N 69.0573 4.40207 -1.44125 0
M  V30 729 C 69.7923 5.4126 -1.89276 0
M  V30 730 N 69.2883 6.49021 -2.42371 0
M  V30 731 N 71.0813 5.32422 -1.80231 0
M  V30 732 H 63.2323 1.45306 -1.54919 0
M  V30 733 H 65.4953 0.692733 -0.647167 0
M  V30 734 H 65.2013 2.9372 -1.93447 0
M  V30 735 H 65.0753 3.75224 -0.385592 0
M  V30 736 H 67.4623 2.94485 0.190491 0
M  V30 737 H 67.5433 2.14887 -1.3877 0
M  V30 738 H 67.1873 4.40916 -2.52103 0
M  V30 739 H 67.1173 5.1852 -0.918947 0
M  V30 740 H 69.6083 3.62931 -1.05307 0
M  V30 741 H 69.9213 7.2233 -2.74698 0
M  V30 742 H 68.2663 6.49858 -2.46393 0
M  V30 743 H 71.4573 4.47137 -1.38514 0
M  V30 744 H 71.6303 6.11034 -2.15735 0
M  V30 745 N 65.0364 0.313813 1.54444 0
M  V30 746 C 66.2844 -0.291099 1.99993 0
M  V30 747 C 66.6054 -1.53418 1.20366 0
M  V30 748 O 65.8754 -1.93544 0.302927 0
M  V30 749 H 64.4554 -0.110552 0.738774 0
M  V30 750 H 67.1174 0.428106 1.9014 0
M  V30 751 H 66.2134 -0.554268 3.07139 0
M  V30 752 N 66.5145 -1.57545 0.0417849 0
M  V30 753 C 67.4645 -2.07483 -0.945247 0
M  V30 754 C 68.4485 -0.977983 -1.27767 0
M  V30 755 O 69.6405 -1.24142 -1.26166 0
M  V30 756 C 66.7695 -2.61576 -2.22335 0
M  V30 757 C 65.8555 -3.78213 -1.91874 0
M  V30 758 N 66.2465 -4.88344 -1.31733 0
M  V30 759 C 64.5445 -3.8694 -2.21796 0
M  V30 760 C 65.2455 -5.69462 -1.1869 0
M  V30 761 N 64.2215 -5.16771 -1.68666 0
M  V30 762 H 68.0235 -2.90029 -0.475441 0
M  V30 763 H 65.5375 -1.61581 -0.162911 0
M  V30 764 H 67.5345 -2.95651 -2.93932 0
M  V30 765 H 66.1945 -1.80465 -2.69931 0
M  V30 766 H 67.2055 -5.08335 -0.990729 0
M  V30 767 H 63.8825 -3.16757 -2.71977 0
M  V30 768 H 65.2725 -6.68023 -0.720793 0
M  V30 769 N 67.9926 0.231505 -1.5589 0
M  V30 770 C 69.4086 0.580748 -1.48659 0
M  V30 771 C 69.6086 1.87617 -0.73498 0
M  V30 772 O 68.6646 2.51046 -0.270586 0
M  V30 773 C 69.9776 0.669202 -2.93159 0
M  V30 774 C 71.5256 0.760499 -3.03621 0
M  V30 775 C 72.0006 0.880383 -4.49459 0
M  V30 776 N 73.4916 0.944861 -4.53461 0
M  V30 777 C 74.2266 1.05716 -5.63571 0
M  V30 778 N 73.7226 1.13403 -6.83456 0
M  V30 779 N 75.5156 1.09152 -5.514 0
M  V30 780 H 67.6666 -0.618695 -2.03189 0
M  V30 781 H 69.9296 -0.215728 -0.923128 0
M  V30 782 H 69.6356 -0.212904 -3.51055 0
M  V30 783 H 69.5096 1.5361 -3.44505 0
M  V30 784 H 71.8966 1.63305 -2.45796 0
M  V30 785 H 71.9776 -0.131864 -2.5546 0
M  V30 786 H 71.6216 0.0123284 -5.07899 0
M  V30 787 H 71.5516 1.78802 -4.95316 0
M  V30 788 H 74.0426 0.896176 -3.6712 0
M  V30 789 H 74.3556 1.21921 -7.63122 0
M  V30 790 H 72.7006 1.10333 -6.86186 0
M  V30 791 H 75.8916 1.02805 -4.56671 0
M  V30 792 H 76.0646 1.17558 -6.37247 0
M  V30 793 N 69.4707 1.49531 0.497807 0
M  V30 794 C 70.8817 1.52344 1.07927 0
M  V30 795 C 71.2327 0.311469 1.93712 0
M  V30 796 O 70.3577 -0.578405 2.08527 0
M  V30 797 C 70.9527 2.76062 1.96405 0
M  V30 798 C 69.5117 2.81643 2.49709 0
M  V30 799 C 68.6587 2.46299 1.27404 0
M  V30 800 H 71.6097 1.56182 0.281576 0
M  V30 801 H 71.6307 2.56405 2.81135 0
M  V30 802 H 71.1427 3.64254 1.33943 0
M  V30 803 H 69.2437 1.97739 3.15801 0
M  V30 804 H 69.3567 3.83891 2.86643 0
M  V30 805 H 67.7207 1.98148 1.60029 0
M  V30 806 H 68.5037 3.36769 0.66645 0
M  V30 807 N 70.9488 -0.749086 1.3866 0
M  V30 808 C 71.8788 -1.8764 1.38973 0
M  V30 809 C 72.8598 -1.68178 0.255004 0
M  V30 810 O 74.0448 -1.88704 0.458754 0
M  V30 811 C 71.1748 -3.25222 1.21851 0
M  V30 812 C 70.1288 -3.59295 2.32575 0
M  V30 813 C 69.4548 -4.95663 2.00555 0
M  V30 814 C 70.7548 -3.63709 3.7485 0
M  V30 815 H 72.4488 -1.87635 2.3331 0
M  V30 816 H 69.9948 -0.901329 1.12303 0
M  V30 817 H 71.9478 -4.03746 1.20695 0
M  V30 818 H 70.6718 -3.25719 0.239775 0
M  V30 819 H 69.3308 -2.83093 2.32925 0
M  V30 820 H 68.9788 -4.92724 1.01154 0
M  V30 821 H 68.6788 -5.19429 2.74714 0
M  V30 822 H 70.2028 -5.7656 2.01024 0
M  V30 823 H 71.6168 -4.32338 3.76506 0
M  V30 824 H 70.0138 -3.98986 4.48252 0
M  V30 825 H 71.0838 -2.63834 4.06841 0
M  V30 826 N 72.4269 -1.23603 -0.977757 0
M  V30 827 C 73.7039 -0.977897 -1.69401 0
M  V30 828 C 74.0839 0.502738 -2.05026 0
M  V30 829 O 73.4319 1.47459 -1.74551 0
M  V30 830 C 73.6419 -1.89077 -2.93345 0
M  V30 831 C 74.9899 -2.15579 -3.65802 0
M  V30 832 O 76.0139 -1.86648 -3.03383 0
M  V30 833 O 74.8729 -2.64658 -4.78141 0
M  V30 834 H 71.9669 -0.369025 -0.740101 0
M  V30 835 H 74.5129 -1.34657 -1.03274 0
M  V30 836 H 73.2849 -2.89158 -2.63634 0
M  V30 837 H 72.9079 -1.52463 -3.67207 0
M  V30 838 N 73.905 1.17692 -1.04816 0
M  V30 839 C 74.852 2.21581 -0.645797 0
M  V30 840 C 75.822 1.62367 0.350159 0
M  V30 841 O 77.007 1.89254 0.242433 0
M  V30 842 C 74.147 3.45092 -0.0227568 0
M  V30 843 C 73.26 4.18613 -1.06709 0
M  V30 844 C 72.395 5.29602 -0.411767 0
M  V30 845 C 71.434 5.94904 -1.44067 0
M  V30 846 N 70.571 6.97414 -0.809781 0
M  V30 847 H 75.411 2.55353 -1.5362 0
M  V30 848 H 72.948 1.25438 -0.768364 0
M  V30 849 H 74.906 4.15679 0.35588 0
M  V30 850 H 73.536 3.11917 0.831122 0
M  V30 851 H 72.588 3.46779 -1.5636 0
M  V30 852 H 73.9 4.63293 -1.84827 0
M  V30 853 H 73.054 6.06696 0.0206623 0
M  V30 854 H 71.793 4.86045 0.401438 0
M  V30 855 H 70.798 5.16544 -1.88316 0
M  V30 856 H 72.023 6.40542 -2.25571 0
M  V30 857 H 69.969 6.55998 -0.0170186 0
M  V30 858 H 69.886 7.40386 -1.52856 0
M  V30 859 H 71.154 7.78463 -0.401999 0
M  V30 860 N 75.3831 0.828654 1.34056 0
M  V30 861 C 76.3301 0.252567 2.29414 0
M  V30 862 C 77.3001 -0.62588 1.53857 0
M  V30 863 O 78.4851 -0.566312 1.82202 0
M  V30 864 C 75.6251 -0.574831 3.40279 0
M  V30 865 C 74.7381 0.326499 4.30764 0
M  V30 866 C 73.8731 -0.511016 5.28736 0
M  V30 867 C 72.9121 0.389342 6.1086 0
M  V30 868 N 72.0491 -0.409439 7.00905 0
M  V30 869 H 76.8891 1.07108 2.78086 0
M  V30 870 H 74.4261 0.539677 1.36843 0
M  V30 871 H 76.3841 -1.06992 4.03248 0
M  V30 872 H 75.0141 -1.35841 2.92826 0
M  V30 873 H 74.0661 0.939837 3.68607 0
M  V30 874 H 75.3781 1.01857 4.88289 0
M  V30 875 H 74.5321 -1.07035 5.97184 0
M  V30 876 H 73.2711 -1.23657 4.71763 0
M  V30 877 H 72.2761 0.960769 5.4134 0
M  V30 878 H 73.5011 1.1131 6.69916 0
M  V30 879 H 71.4471 -1.11856 6.46393 0
M  V30 880 H 71.3641 0.224126 7.55668 0
M  V30 881 H 72.6321 -0.951336 7.73673 0
M  V30 882 N 76.8612 -1.46375 0.584142 0
M  V30 883 C 78.2772 -1.57694 0.245929 0
M  V30 884 C 78.4772 -1.57903 -1.25175 0
M  V30 885 O 77.5332 -1.49676 -2.03355 0
M  V30 886 C 78.8462 -2.87028 0.896402 0
M  V30 887 C 80.3942 -3.00662 0.870127 0
M  V30 888 C 80.8692 -4.32734 1.50017 0
M  V30 889 N 82.3602 -4.39436 1.46458 0
M  V30 890 C 83.0952 -5.40248 1.92144 0
M  V30 891 N 82.5912 -6.47726 2.4581 0
M  V30 892 N 84.3842 -5.31459 1.83052 0
M  V30 893 H 76.5352 -1.44483 1.55687 0
M  V30 894 H 78.7982 -0.689291 0.650831 0
M  V30 895 H 78.5042 -2.9269 1.95002 0
M  V30 896 H 78.3782 -3.75014 0.405486 0
M  V30 897 H 80.7652 -2.94581 -0.174871 0
M  V30 898 H 80.8462 -2.14148 1.39908 0
M  V30 899 H 80.4902 -4.39573 2.54437 0
M  V30 900 H 80.4202 -5.18025 0.946432 0
M  V30 901 H 82.9112 -3.62367 1.07231 0
M  V30 902 H 83.2242 -7.20863 2.78525 0
M  V30 903 H 81.5692 -6.48542 2.49836 0
M  V30 904 H 84.7602 -4.46396 1.40883 0
M  V30 905 H 84.9332 -6.09881 2.18973 0
M  V30 906 N 78.3393 -0.321999 -1.54275 0
M  V30 907 C 79.2493 0.553631 -2.27974 0
M  V30 908 C 80.2653 1.13054 -1.32268 0
M  V30 909 O 81.4413 1.15084 -1.6528 0
M  V30 910 C 78.5063 1.69927 -3.02201 0
M  V30 911 C 77.5673 1.15433 -4.1349 0
M  V30 912 C 76.8003 2.24537 -4.84168 0
M  V30 913 O 77.0233 3.44852 -4.5435 0
M  V30 914 O 75.9573 1.90044 -5.7111 0
M  V30 915 H 79.7833 -0.0448345 -3.03667 0
M  V30 916 H 77.3683 -0.0877418 -1.49142 0
M  V30 917 H 79.2503 2.3663 -3.48689 0
M  V30 918 H 77.9253 2.28395 -2.29385 0
M  V30 919 H 76.8323 0.452436 -3.71354 0
M  V30 920 H 78.1653 0.614805 -4.88345 0
M  V30 921 N 79.8174 1.5752 -0.0501392 0
M  V30 922 C 80.7274 2.14952 0.939827 0
M  V30 923 C 81.7434 1.10706 1.34239 0
M  V30 924 O 82.9194 1.42869 1.41952 0
M  V30 925 C 79.9844 2.68232 2.19665 0
M  V30 926 C 79.0454 3.87272 1.85253 0
M  V30 927 C 78.2784 4.38002 3.04943 0
M  V30 928 O 78.5014 3.87811 4.18281 0
M  V30 929 O 77.4354 5.29602 2.86017 0
M  V30 930 H 81.2614 2.9986 0.481392 0
M  V30 931 H 78.8464 1.4841 0.171699 0
M  V30 932 H 80.7284 3.02475 2.93406 0
M  V30 933 H 79.4034 1.86395 2.64648 0
M  V30 934 H 78.3104 3.5792 1.0883 0
M  V30 935 H 79.6434 4.70336 1.4507 0
M  V30 936 N 81.2955 -0.223234 1.56011 0
M  V30 937 C 82.2585 -1.26014 1.9145 0
M  V30 938 C 83.2585 -1.3989 0.792937 0
M  V30 939 O 84.4485 -1.38184 1.0607 0
M  V30 940 C 81.5805 -2.63422 2.16383 0
M  V30 941 H 82.7735 -0.95796 2.84189 0
M  V30 942 H 80.3265 -0.463576 1.49267 0
M  V30 943 H 81.0615 -2.98741 1.2619 0
M  V30 944 H 80.8465 -2.54728 2.98088 0
M  V30 945 H 82.3365 -3.38249 2.44903 0
M  V30 946 N 82.7736 -1.49793 -0.48987 0
M  V30 947 C 84.1846 -1.52914 -1.07118 0
M  V30 948 C 84.5356 -0.321738 -1.93544 0
M  V30 949 O 83.6606 0.567338 -2.08831 0
M  V30 950 C 84.2556 -2.771 -1.94938 0
M  V30 951 C 82.8146 -2.82963 -2.48212 0
M  V30 952 C 81.9616 -2.46972 -1.26096 0
M  V30 953 H 84.9126 -1.56329 -0.273289 0
M  V30 954 H 84.9336 -2.57892 -2.79771 0
M  V30 955 H 84.4456 -3.64959 -1.32009 0
M  V30 956 H 82.5466 -1.99411 -3.14748 0
M  V30 957 H 82.6596 -3.85406 -2.84603 0
M  V30 958 H 81.0236 -1.98994 -1.58976 0
M  V30 959 H 81.8066 -3.37118 -0.648581 0
M  V30 960 N 84.2517 0.741722 -1.39055 0
M  V30 961 C 85.4767 1.53607 -1.39354 0
M  V30 962 C 85.9017 1.88096 0.0116905 0
M  V30 963 O 85.2597 1.5143 0.996924 0
M  V30 964 C 85.3077 2.80441 -2.26682 0
M  V30 965 O 84.4117 3.76088 -1.69208 0
M  V30 966 H 83.7527 0.464142 -0.474835 0
M  V30 967 H 86.2827 0.915665 -1.82967 0
M  V30 968 H 86.2927 3.29246 -2.40959 0
M  V30 969 H 84.9677 2.5467 -3.2881 0
M  V30 970 H 83.5447 3.34833 -1.64138 0
M  V30 971 N 85.7298 1.2412 0.971189 0
M  V30 972 C 86.6598 1.05508 2.08304 0
M  V30 973 C 87.6408 -0.0308864 1.70072 0
M  V30 974 O 88.8258 0.135521 1.93727 0
M  V30 975 C 85.9558 0.655365 3.4106 0
M  V30 976 C 84.9098 1.68971 3.93234 0
M  V30 977 C 84.2358 1.14516 5.22293 0
M  V30 978 C 85.5358 3.08487 4.21465 0
M  V30 979 H 87.2298 1.98507 2.24132 0
M  V30 980 H 84.7758 0.955821 1.07704 0
M  V30 981 H 86.7288 0.51217 4.18276 0
M  V30 982 H 85.4528 -0.31032 3.25122 0
M  V30 983 H 84.1118 1.82106 3.18171 0
M  V30 984 H 83.7598 0.170189 5.02712 0
M  V30 985 H 83.4598 1.83635 5.58168 0
M  V30 986 H 84.9838 1.01401 6.02121 0
M  V30 987 H 86.3978 2.98601 4.89398 0
M  V30 988 H 84.7948 3.74926 4.68562 0
M  V30 989 H 85.8648 3.56787 3.28376 0
M  V30 990 N 87.2079 -1.17134 1.05439 0
M  V30 991 C 88.6239 -1.39454 0.776201 0
M  V30 992 C 88.8239 -1.91454 -0.628307 0
M  V30 993 O 87.8799 -2.10777 -1.39031 0
M  V30 994 C 89.1929 -2.38305 1.83388 0
M  V30 995 C 90.7409 -2.52006 1.85639 0
M  V30 996 C 91.2159 -3.54133 2.90437 0
M  V30 997 N 92.7069 -3.61653 2.89415 0
M  V30 998 C 93.4419 -4.4044 3.67152 0
M  V30 999 N 92.9379 -5.22721 4.54681 0
M  V30 1000 N 94.7309 -4.35337 3.55581 0
M  V30 1001 H 86.8819 -0.817134 1.96053 0
M  V30 1002 H 89.1449 -0.421626 0.849079 0
M  V30 1003 H 88.8509 -2.07173 2.84204 0
M  V30 1004 H 88.7249 -3.37841 1.67761 0
M  V30 1005 H 91.1119 -2.82447 0.85486 0
M  V30 1006 H 91.1929 -1.52537 2.05344 0
M  V30 1007 H 90.8369 -3.24431 3.90777 0
M  V30 1008 H 90.7669 -4.53313 2.67983 0
M  V30 1009 H 93.2579 -3.02909 2.25952 0
M  V30 1010 H 93.5709 -5.80027 5.10674 0
M  V30 1011 H 91.9159 -5.22093 4.58741 0
M  V30 1012 H 95.1069 -3.70112 2.86592 0
M  V30 1013 H 95.2799 -4.96494 4.1641 0
M  V30 1014 N 88.686 -0.835752 -1.33615 0
M  V30 1015 C 90.097 -0.487099 -1.80234 0
M  V30 1016 C 90.448 0.993627 -1.69179 0
M  V30 1017 O 89.573 1.77403 -1.23924 0
M  V30 1018 C 90.168 -0.877385 -3.27242 0
M  V30 1019 C 88.727 -0.580915 -3.7189 0
M  V30 1020 C 87.874 -1.0874 -2.5509 0
M  V30 1021 H 90.825 -1.02474 -1.2118 0
M  V30 1022 H 90.846 -0.186195 -3.80044 0
M  V30 1023 H 90.358 -1.95512 -3.35256 0
M  V30 1024 H 88.459 0.486881 -3.69405 0
M  V30 1025 H 88.572 -1.13396 -4.65487 0
M  V30 1026 H 86.936 -0.508392 -2.49575 0
M  V30 1027 H 87.719 -2.17184 -2.65868 0
M  V30 1028 N 90.1641 1.46063 -0.591896 0
M  V30 1029 C 91.1271 2.28854 0.125973 0
M  V30 1030 C 92.1271 1.38903 0.810107 0
M  V30 1031 O 93.3171 1.61186 0.66066 0
M  V30 1032 C 90.4491 3.19526 1.1881 0
M  V30 1033 H 91.6421 2.93802 -0.601717 0
M  V30 1034 H 89.1951 1.52325 -0.350254 0
M  V30 1035 H 89.9301 2.59345 1.94707 0
M  V30 1036 H 89.7151 3.85766 0.701936 0
M  V30 1037 H 91.2051 3.81817 1.69132 0
M  V30 1038 N 91.6422 0.330177 1.54103 0
M  V30 1039 C 93.0532 -0.15652 1.86043 0
M  V30 1040 C 93.4042 -1.51086 1.2517 0
M  V30 1041 O 92.5292 -2.09023 0.560217 0
M  V30 1042 C 93.1242 -0.290784 3.3755 0
M  V30 1043 C 91.6832 -0.721705 3.69416 0
M  V30 1044 C 90.8302 0.152622 2.7688 0
M  V30 1045 H 93.7812 0.550237 1.48856 0
M  V30 1046 H 93.8022 -1.12058 3.63625 0
M  V30 1047 H 93.3142 0.695068 3.81825 0
M  V30 1048 H 91.4152 -1.71706 3.30678 0
M  V30 1049 H 91.5282 -0.520869 4.7626 0
M  V30 1050 H 89.8922 -0.372894 2.51956 0
M  V30 1051 H 90.6752 1.13536 3.23982 0
M  V30 1052 N 93.1203 -1.57491 0.0584922 0
M  V30 1053 C 94.5313 -1.80526 -0.476138 0
M  V30 1054 C 94.8823 -0.971334 -1.70469 0
M  V30 1055 O 94.0073 -0.190012 -2.15564 0
M  V30 1056 C 94.6023 -3.27424 -0.870587 0
M  V30 1057 C 93.1613 -3.51351 -1.35015 0
M  V30 1058 C 92.3083 -2.75343 -0.32887 0
M  V30 1059 H 95.2593 -1.56133 0.284312 0
M  V30 1060 H 95.2803 -3.38745 -1.73299 0
M  V30 1061 H 94.7923 -3.88093 0.0237627 0
M  V30 1062 H 92.8933 -2.95971 -2.26345 0
M  V30 1063 H 93.0063 -4.60059 -1.33726 0
M  V30 1064 H 91.3703 -2.417 -0.803321 0
M  V30 1065 H 92.1533 -3.38743 0.557521 0
M  V30 1066 N 94.5984 0.214957 -1.56127 0
M  V30 1067 C 96.0094 0.781386 -1.69562 0
M  V30 1068 C 96.3604 1.84707 -0.66165 0
M  V30 1069 O 95.4854 2.156 0.185927 0
M  V30 1070 C 96.0804 1.42411 -3.07416 0
M  V30 1071 C 94.6394 1.93786 -3.22683 0
M  V30 1072 C 93.7864 0.800438 -2.65496 0
M  V30 1073 H 96.7374 -0.00980633 -1.58697 0
M  V30 1074 H 96.7584 2.29309 -3.0364 0
M  V30 1075 H 96.2704 0.64826 -3.82648 0
M  V30 1076 H 94.3714 2.74152 -2.52332 0
M  V30 1077 H 94.4844 2.1133 -4.29973 0
M  V30 1078 H 92.8484 1.2095 -2.2415 0
M  V30 1079 H 93.6314 0.0371471 -3.4328 0
M  V30 1080 N 96.0765 1.50051 0.48192 0
M  V30 1081 C 97.3255 1.59741 1.23149 0
M  V30 1082 C 97.6385 0.298163 1.93314 0
M  V30 1083 O 98.8445 0.273835 2.70116 0
M  V30 1084 C 97.3005 2.81926 2.23708 0
M  V30 1085 C 96.9085 4.18685 1.59396 0
M  V30 1086 C 98.6525 3.00956 2.99375 0
M  V30 1087 C 96.5595 5.3207 2.58178 0
M  V30 1088 H 95.4895 0.594838 0.46334 0
M  V30 1089 H 98.1405 1.76467 0.503169 0
M  V30 1090 H 96.5225 2.58736 2.99786 0
M  V30 1091 H 97.6965 4.52088 0.891811 0
M  V30 1092 H 96.0115 4.05171 0.960503 0
M  V30 1093 H 98.6085 3.82836 3.73283 0
M  V30 1094 H 98.9515 2.12258 3.58123 0
M  V30 1095 H 99.4845 3.24277 2.30411 0
M  V30 1096 H 96.2235 6.22888 2.04184 0
M  V30 1097 H 95.7435 5.03098 3.26577 0
M  V30 1098 H 97.4225 5.62196 3.20225 0
M  V30 1099 N 97.5546 -0.734337 1.39446 0
M  V30 1100 C 98.7796 -1.52866 1.40167 0
M  V30 1101 C 99.2046 -1.881 -0.00171513 0
M  V30 1102 O 98.5626 -1.51957 -0.988879 0
M  V30 1103 C 98.6106 -2.79235 2.28167 0
M  V30 1104 O 97.7146 -3.75185 1.71201 0
M  V30 1105 H 97.0556 -0.461618 0.477289 0
M  V30 1106 H 99.5856 -0.905949 1.8345 0
M  V30 1107 H 99.5956 -3.27963 2.42702 0
M  V30 1108 H 98.2706 -2.52923 3.30156 0
M  V30 1109 H 96.8476 -3.33958 1.65912 0
M  V30 1110 N 99.0327 -1.24633 -0.964593 0
M  V30 1111 C 100.281 -1.08573 -1.70459 0
M  V30 1112 C 100.602 0.375655 -1.91347 0
M  V30 1113 O 99.8717 1.26779 -1.49345 0
M  V30 1114 H 98.4517 -0.398784 -0.631649 0
M  V30 1115 H 101.114 -1.56601 -1.16026 0
M  V30 1116 H 100.21 -1.58623 -2.68785 0
M  V30 1117 N 100.511 1.16574 -1.06058 0
M  V30 1118 C 101.759 1.86677 -0.77434 0
M  V30 1119 C 102.08 1.81959 0.701147 0
M  V30 1120 O 101.35 1.2515 1.50713 0
M  V30 1121 H 99.9298 0.691134 -0.283449 0
M  V30 1122 H 102.592 1.41378 -1.34158 0
M  V30 1123 H 101.688 2.92181 -1.09711 0
M  V30 1124 N 101.989 0.842826 1.3317 0
M  V30 1125 C 103.237 0.439577 1.97262 0
M  V30 1126 C 103.558 -1.00548 1.67078 0
M  V30 1127 O 102.828 -1.70098 0.971779 0
M  V30 1128 H 101.408 0.159558 0.72976 0
M  V30 1129 H 104.07 1.07665 1.62463 0
M  V30 1130 H 103.166 0.574886 3.0676 0
M  V30 1131 N 103.467 -1.45747 0.599634 0
M  V30 1132 C 104.697 -2.06369 0.0977132 0
M  V30 1133 C 105.105 -1.44624 -1.21985 0
M  V30 1134 O 104.448 -0.551831 -1.75216 0
M  V30 1135 C 104.51 -3.59284 -0.124673 0
M  V30 1136 C 104.174 -4.43318 1.10987 0
M  V30 1137 C 105.171 -4.78796 2.02609 0
M  V30 1138 C 102.856 -4.84194 1.33647 0
M  V30 1139 C 104.85 -5.53997 3.15224 0
M  V30 1140 C 102.537 -5.5915 2.46565 0
M  V30 1141 C 103.535 -5.93968 3.37182 0
M  V30 1142 O 103.223 -6.67405 4.48136 0
M  V30 1143 H 102.955 -0.673122 0.0623153 0
M  V30 1144 H 105.509 -1.88104 0.824981 0
M  V30 1145 H 103.739 -3.75919 -0.906745 0
M  V30 1146 H 105.428 -4.01775 -0.577201 0
M  V30 1147 H 106.194 -4.47781 1.86325 0
M  V30 1148 H 102.073 -4.56534 0.64016 0
M  V30 1149 H 105.617 -5.81091 3.85978 0
M  V30 1150 H 101.514 -5.89579 2.62805 0
M  V30 1151 H 102.282 -6.85847 4.46717 0
M  V30 1152 N 104.945 -0.338344 -1.53925 0
M  V30 1153 C 106.361 0.0137736 -1.59594 0
M  V30 1154 C 106.561 1.49186 -1.35447 0
M  V30 1155 O 105.617 2.24987 -1.14616 0
M  V30 1156 C 106.93 -0.41773 -2.97784 0
M  V30 1157 C 108.478 -0.369633 -3.1081 0
M  V30 1158 C 108.953 -0.776524 -4.51369 0
M  V30 1159 N 110.444 -0.730506 -4.57403 0
M  V30 1160 C 111.179 -1.01736 -5.64303 0
M  V30 1161 N 110.675 -1.3721 -6.79077 0
M  V30 1162 N 112.468 -0.941942 -5.54151 0
M  V30 1163 H 104.619 -1.3012 -1.67876 0
M  V30 1164 H 106.882 -0.530082 -0.78595 0
M  V30 1165 H 106.588 -1.44811 -3.20504 0
M  V30 1166 H 106.462 0.209729 -3.76616 0
M  V30 1167 H 108.849 0.651568 -2.87817 0
M  V30 1168 H 108.93 -1.03223 -2.34049 0
M  V30 1169 H 108.574 -1.79571 -4.75096 0
M  V30 1170 H 108.504 -0.0914649 -5.26521 0
M  V30 1171 H 110.995 -0.468783 -3.74981 0
M  V30 1172 H 111.308 -1.57597 -7.5656 0
M  V30 1173 H 109.653 -1.4105 -6.80536 0
M  V30 1174 H 112.844 -0.664184 -4.63364 0
M  V30 1175 H 113.017 -1.16884 -6.37371 0
M  V30 1176 N 106.423 1.57458 -0.0668435 0
M  V30 1177 C 107.386 2.11323 0.887422 0
M  V30 1178 C 108.386 1.03618 1.22964 0
M  V30 1179 O 109.576 1.29626 1.16373 0
M  V30 1180 C 106.708 2.61048 2.19242 0
M  V30 1181 H 107.901 2.96942 0.420194 0
M  V30 1182 H 105.454 1.55239 0.181793 0
M  V30 1183 H 106.189 1.78868 2.70512 0
M  V30 1184 H 105.974 3.39769 1.95702 0
M  V30 1185 H 107.464 3.02814 2.87565 0
M  V30 1186 N 107.901 -0.206675 1.56239 0
M  V30 1187 C 109.317 -0.557025 1.49564 0
M  V30 1188 C 109.517 -1.86424 0.764735 0
M  V30 1189 O 108.573 -2.50584 0.310491 0
M  V30 1190 C 109.886 -0.622478 2.94186 0
M  V30 1191 C 111.434 -0.712099 3.04792 0
M  V30 1192 C 111.909 -0.808767 4.50803 0
M  V30 1193 N 113.4 -0.8726 4.54907 0
M  V30 1194 C 114.135 -0.967365 5.65181 0
M  V30 1195 N 113.631 -1.02515 6.85173 0
M  V30 1196 N 115.424 -1.00366 5.53067 0
M  V30 1197 H 107.575 0.650943 2.02179 0
M  V30 1198 H 109.838 0.230387 0.919579 0
M  V30 1199 H 109.544 0.268727 3.50672 0
M  V30 1200 H 109.418 -1.4811 3.46905 0
M  V30 1201 H 111.805 -1.59374 2.48363 0
M  V30 1202 H 111.886 0.172489 2.55218 0
M  V30 1203 H 111.53 0.0684754 5.07854 0
M  V30 1204 H 111.46 -1.70899 4.98098 0
M  V30 1205 H 113.951 -0.837657 3.68499 0
M  V30 1206 H 114.264 -1.09765 7.64965 0
M  V30 1207 H 112.609 -0.994026 6.87855 0
M  V30 1208 H 115.8 -0.95527 4.58249 0
M  V30 1209 H 115.973 -1.07405 6.39037 0
M  V30 1210 N 109.379 -1.50304 -0.473955 0
M  V30 1211 C 110.79 -1.54042 -1.0549 0
M  V30 1212 C 111.141 -0.342248 -1.93192 0
M  V30 1213 O 110.266 0.545157 -2.09421 0
M  V30 1214 C 110.861 -2.79152 -1.91989 0
M  V30 1215 C 109.42 -2.8558 -2.45196 0
M  V30 1216 C 108.567 -2.48295 -1.2347 0
M  V30 1217 H 111.518 -1.5661 -0.256693 0
M  V30 1218 H 111.539 -2.60845 -2.7702 0
M  V30 1219 H 111.051 -3.66339 -1.28131 0
M  V30 1220 H 109.152 -2.02738 -3.12615 0
M  V30 1221 H 109.265 -3.88403 -2.80499 0
M  V30 1222 H 107.629 -2.00669 -1.56856 0
M  V30 1223 H 108.412 -3.37787 -0.612789 0
M  V30 1224 N 110.857 0.726932 -1.39834 0
M  V30 1225 C 111.82 1.82269 -1.38962 0
M  V30 1226 C 112.82 1.58248 -0.285334 0
M  V30 1227 O 114.01 1.65499 -0.54366 0
M  V30 1228 C 111.142 3.20186 -1.17019 0
M  V30 1229 H 112.335 1.84443 -2.36476 0
M  V30 1230 H 109.888 0.931416 -1.25516 0
M  V30 1231 H 110.623 3.23669 -0.202204 0
M  V30 1232 H 110.408 3.3902 -1.96998 0
M  V30 1233 H 111.898 4.00235 -1.1917 0
M  V30 1234 N 112.336 1.25143 0.95797 0
M  V30 1235 C 113.283 1.05235 2.05412 0
M  V30 1236 C 114.253 -0.0374561 1.66058 0
M  V30 1237 O 115.438 0.119073 1.90428 0
M  V30 1238 C 112.578 0.673589 3.38462 0
M  V30 1239 C 111.691 1.8379 3.90954 0
M  V30 1240 C 110.826 1.40381 5.12315 0
M  V30 1241 C 109.865 2.53746 5.57027 0
M  V30 1242 N 109.002 2.11136 6.69601 0
M  V30 1243 H 113.842 1.99048 2.21774 0
M  V30 1244 H 111.379 0.991277 1.08683 0
M  V30 1245 H 113.337 0.434964 4.14926 0
M  V30 1246 H 111.967 -0.227554 3.21997 0
M  V30 1247 H 111.019 2.18992 3.11041 0
M  V30 1248 H 112.331 2.68937 4.20089 0
M  V30 1249 H 111.485 1.12464 5.96185 0
M  V30 1250 H 110.224 0.523015 4.84887 0
M  V30 1251 H 109.229 2.82412 4.71724 0
M  V30 1252 H 110.454 3.42398 5.86464 0
M  V30 1253 H 108.4 1.25468 6.4389 0
M  V30 1254 H 108.317 2.89832 6.98236 0
M  V30 1255 H 109.585 1.86385 7.56889 0
M  V30 1256 N 113.814 -1.1601 1.06675 0
M  V30 1257 C 114.777 -2.18724 0.685001 0
M  V30 1258 C 115.777 -1.58496 -0.271246 0
M  V30 1259 O 116.967 -1.74119 -0.0531156 0
M  V30 1260 C 114.099 -3.40899 0.00853648 0
M  V30 1261 H 115.292 -2.54011 1.59431 0
M  V30 1262 H 112.845 -1.30352 0.862441 0
M  V30 1263 H 113.58 -3.11173 -0.913337 0
M  V30 1264 H 113.365 -3.8587 0.696204 0
M  V30 1265 H 114.855 -4.16886 -0.24414 0
M  V30 1266 N 115.292 -0.849877 -1.32721 0
M  V30 1267 C 116.255 -0.296122 -2.27279 0
M  V30 1268 C 117.255 0.541458 -1.5141 0
M  V30 1269 O 118.445 0.353658 -1.70572 0
M  V30 1270 C 115.577 0.581579 -3.35902 0
M  V30 1271 H 116.77 -1.13064 -2.77771 0
M  V30 1272 H 114.323 -0.62383 -1.43311 0
M  V30 1273 H 115.058 1.43809 -2.9067 0
M  V30 1274 H 114.843 -0.0178814 -3.92096 0
M  V30 1275 H 116.333 0.961951 -4.0637 0
M  V30 1276 N 116.77 1.45427 -0.607355 0
M  V30 1277 C 117.733 2.28974 0.101693 0
M  V30 1278 C 118.733 1.39754 0.795329 0
M  V30 1279 O 119.923 1.61878 0.643527 0
M  V30 1280 C 117.055 3.20768 1.15414 0
M  V30 1281 H 118.248 2.93147 -0.632844 0
M  V30 1282 H 115.801 1.51945 -0.366391 0
M  V30 1283 H 116.536 2.61395 1.91945 0
M  V30 1284 H 116.321 3.86489 0.66098 0
M  V30 1285 H 117.811 3.83589 1.65073 0
M  V30 1286 N 118.248 0.346503 1.53744 0
M  V30 1287 C 119.476 -0.25041 2.05379 0
M  V30 1288 C 119.891 -1.43979 1.22129 0
M  V30 1289 O 119.248 -1.80677 0.257321 0
M  V30 1290 C 119.299 -0.662575 3.55376 0
M  V30 1291 O 119.02 0.479515 4.35468 0
M  V30 1292 C 120.521 -1.31989 4.23195 0
M  V30 1293 H 117.741 -0.0478198 0.669294 0
M  V30 1294 H 120.285 0.499346 1.9831 0
M  V30 1295 H 118.44 -1.36227 3.62658 0
M  V30 1296 H 118.854 0.15037 5.24284 0
M  V30 1297 H 120.328 -1.55902 5.29527 0
M  V30 1298 H 120.805 -2.27436 3.75725 0
M  V30 1299 H 121.411 -0.662154 4.20114 0
M  V30 1300 N 119.726 -1.57421 0.075193 0
M  V30 1301 C 120.658 -2.09904 -0.920483 0
M  V30 1302 C 121.671 -1.03191 -1.25918 0
M  V30 1303 O 122.86 -1.30695 -1.21577 0
M  V30 1304 C 119.96 -2.54726 -2.23534 0
M  V30 1305 C 119.133 -3.8505 -2.07498 0
M  V30 1306 C 118.192 -4.15929 -3.22319 0
M  V30 1307 O 117.218 -4.85474 -2.9716 0
M  V30 1308 N 118.42 -3.69745 -4.47514 0
M  V30 1309 H 121.185 -2.95954 -0.472359 0
M  V30 1310 H 118.746 -1.61523 -0.110444 0
M  V30 1311 H 120.738 -2.72443 -2.9926 0
M  V30 1312 H 119.308 -1.73795 -2.59835 0
M  V30 1313 H 118.528 -3.76679 -1.16219 0
M  V30 1314 H 119.816 -4.70348 -1.94038 0
M  V30 1315 H 119.214 -3.13569 -4.7084 0
M  V30 1316 H 117.771 -3.92655 -5.20255 0
M  V30 1317 N 121.204 0.198386 -1.56346 0
M  V30 1318 C 122.151 1.24589 -1.94284 0
M  V30 1319 C 123.121 1.454 -0.802997 0
M  V30 1320 O 124.306 1.58588 -1.06087 0
M  V30 1321 C 121.446 2.58631 -2.28482 0
M  V30 1322 C 120.559 2.45426 -3.55514 0
M  V30 1323 C 119.694 3.7215 -3.79049 0
M  V30 1324 C 118.733 3.53763 -4.99518 0
M  V30 1325 N 117.87 4.72491 -5.19323 0
M  V30 1326 H 122.71 0.915356 -2.83593 0
M  V30 1327 H 120.247 0.440629 -1.40346 0
M  V30 1328 H 122.205 3.3672 -2.46324 0
M  V30 1329 H 120.835 2.89734 -1.42317 0
M  V30 1330 H 119.887 1.58652 -3.45737 0
M  V30 1331 H 121.199 2.27772 -4.43758 0
M  V30 1332 H 120.353 4.58679 -3.97113 0
M  V30 1333 H 119.092 3.92754 -2.89129 0
M  V30 1334 H 118.097 2.65619 -4.8138 0
M  V30 1335 H 119.322 3.34607 -5.90944 0
M  V30 1336 H 117.268 4.93365 -4.3235 0
M  V30 1337 H 117.185 4.5765 -6.01741 0
M  V30 1338 H 118.453 5.6038 -5.41843 0
M  V30 1339 N 122.682 1.50554 0.465978 0
M  V30 1340 C 123.629 1.6979 1.56333 0
M  V30 1341 C 124.599 0.539239 1.57103 0
M  V30 1342 O 125.784 0.770401 1.74555 0
M  V30 1343 C 122.924 1.80273 2.94271 0
M  V30 1344 C 122.037 3.07674 3.0325 0
M  V30 1345 C 121.172 3.08922 4.32135 0
M  V30 1346 C 120.211 4.30755 4.34875 0
M  V30 1347 N 119.348 4.29714 5.55239 0
M  V30 1348 H 124.188 2.63472 1.39235 0
M  V30 1349 H 121.725 1.30602 0.676873 0
M  V30 1350 H 123.683 1.84332 3.74269 0
M  V30 1351 H 122.313 0.900258 3.09992 0
M  V30 1352 H 121.365 3.13062 2.16094 0
M  V30 1353 H 122.677 3.97642 3.01135 0
M  V30 1354 H 121.831 3.11738 5.20485 0
M  V30 1355 H 120.57 2.16792 4.36866 0
M  V30 1356 H 119.575 4.28146 3.44922 0
M  V30 1357 H 120.8 5.24117 4.31831 0
M  V30 1358 H 118.746 3.4044 5.60746 0
M  V30 1359 H 118.663 5.13456 5.54886 0
M  V30 1360 H 119.931 4.36683 6.457 0
M  V30 1361 N 124.16 -0.719506 1.40217 0
M  V30 1362 C 125.406 -1.48152 1.38488 0
M  V30 1363 C 125.739 -1.94195 -0.0141867 0
M  V30 1364 O 125.014 -1.67884 -0.982096 0
M  V30 1365 C 125.297 -2.71035 2.37091 0
M  V30 1366 C 125.15 -2.30912 3.86005 0
M  V30 1367 C 126.469 -3.73182 2.33288 0
M  V30 1368 H 123.588 -0.537395 0.504357 0
M  V30 1369 H 126.23 -0.821472 1.71324 0
M  V30 1370 H 124.38 -3.27352 2.0922 0
M  V30 1371 H 126.052 -1.80107 4.24687 0
M  V30 1372 H 124.295 -1.62958 4.02029 0
M  V30 1373 H 124.966 -3.18978 4.50508 0
M  V30 1374 H 127.442 -3.26485 2.57966 0
M  V30 1375 H 126.318 -4.56806 3.04334 0
M  V30 1376 H 126.579 -4.21202 1.34317 0
M  V30 1377 N 125.638 -1.25649 -0.95132 0
M  V30 1378 C 126.548 -1.08073 -2.08224 0
M  V30 1379 C 127.564 -0.0169666 -1.73992 0
M  V30 1380 O 128.74 -0.218593 -2.0021 0
M  V30 1381 C 125.805 -0.704922 -3.39458 0
M  V30 1382 C 124.866 -1.84699 -3.87537 0
M  V30 1383 C 124.099 -1.48902 -5.12508 0
M  V30 1384 O 124.322 -0.386156 -5.69091 0
M  V30 1385 O 123.256 -2.32033 -5.55378 0
M  V30 1386 H 127.082 -2.02924 -2.25954 0
M  V30 1387 H 124.667 -1.04618 -1.06656 0
M  V30 1388 H 126.549 -0.507609 -4.18332 0
M  V30 1389 H 125.224 0.214291 -3.2299 0
M  V30 1390 H 124.131 -2.09919 -3.09653 0
M  V30 1391 H 125.464 -2.74557 -4.08509 0
M  V30 1392 N 127.117 1.15442 -1.07289 0
M  V30 1393 C 128.533 1.38201 -0.798288 0
M  V30 1394 C 128.733 1.92429 0.597769 0
M  V30 1395 O 127.789 2.12962 1.3566 0
M  V30 1396 C 129.102 2.35357 -1.87156 0
M  V30 1397 C 130.65 2.49021 -1.89624 0
M  V30 1398 C 131.125 3.49468 -2.96034 0
M  V30 1399 N 132.616 3.57003 -2.95132 0
M  V30 1400 C 133.351 4.34543 -3.74112 0
M  V30 1401 N 132.847 5.15421 -4.6294 0
M  V30 1402 N 134.64 4.29625 -3.62462 0
M  V30 1403 H 126.791 0.78584 -1.97328 0
M  V30 1404 H 129.054 0.408065 -0.855679 0
M  V30 1405 H 128.76 2.02626 -2.87464 0
M  V30 1406 H 128.634 3.35129 -1.73114 0
M  V30 1407 H 131.021 2.81051 -0.899687 0
M  V30 1408 H 131.102 1.4925 -2.07745 0
M  V30 1409 H 130.746 3.18173 -3.95889 0
M  V30 1410 H 130.676 4.48992 -2.75161 0
M  V30 1411 H 133.167 2.99276 -2.30743 0
M  V30 1412 H 133.48 5.7183 -5.19837 0
M  V30 1413 H 131.825 5.14729 -4.66989 0
M  V30 1414 H 135.016 3.65505 -2.92444 0
M  V30 1415 H 135.189 4.89807 -4.24256 0
M  V30 1416 N 128.595 0.856903 1.32268 0
M  V30 1417 C 129.542 0.301172 2.28827 0
M  V30 1418 C 130.512 -0.593104 1.5515 0
M  V30 1419 O 131.697 -0.527537 1.83362 0
M  V30 1420 C 128.837 -0.502523 3.41422 0
M  V30 1421 C 127.95 0.417797 4.29975 0
M  V30 1422 C 127.085 -0.398749 5.29701 0
M  V30 1423 C 126.124 0.518827 6.09897 0
M  V30 1424 N 125.261 -0.260674 7.01616 0
M  V30 1425 H 130.101 1.12983 2.75751 0
M  V30 1426 H 127.638 0.568582 1.35667 0
M  V30 1427 H 129.596 -0.984141 4.05426 0
M  V30 1428 H 128.226 -1.29599 2.95642 0
M  V30 1429 H 127.278 1.01781 3.66531 0
M  V30 1430 H 128.59 1.12191 4.86019 0
M  V30 1431 H 127.744 -0.943435 5.9932 0
M  V30 1432 H 126.483 -1.13622 4.7428 0
M  V30 1433 H 125.488 1.07538 5.39181 0
M  V30 1434 H 126.713 1.25495 6.67404 0
M  V30 1435 H 124.659 -0.981198 6.4862 0
M  V30 1436 H 124.576 0.384364 7.55022 0
M  V30 1437 H 125.844 -0.787014 7.75517 0
M  V30 1438 N 130.073 -1.45103 0.615059 0
M  V30 1439 C 131.036 -2.29025 -0.0895485 0
M  V30 1440 C 132.036 -1.40174 -0.787906 0
M  V30 1441 O 133.226 -1.62217 -0.634933 0
M  V30 1442 C 130.358 -3.21376 -1.13711 0
M  V30 1443 H 131.551 -2.92807 0.648382 0
M  V30 1444 H 129.104 -1.51749 0.374444 0
M  V30 1445 H 129.839 -2.6241 -1.90556 0
M  V30 1446 H 129.624 -3.86834 -0.640475 0
M  V30 1447 H 131.114 -3.84459 -1.63036 0
M  V30 1448 N 131.551 -0.354651 -1.53558 0
M  V30 1449 C 132.962 0.126902 -1.86268 0
M  V30 1450 C 133.313 1.49075 -1.27558 0
M  V30 1451 O 132.438 2.08105 -0.5934 0
M  V30 1452 C 133.033 0.237046 -3.3797 0
M  V30 1453 C 131.592 0.662842 -3.70518 0
M  V30 1454 C 130.739 -0.196652 -2.76602 0
M  V30 1455 H 133.69 -0.573849 -1.47962 0
M  V30 1456 H 133.711 1.06259 -3.65362 0
M  V30 1457 H 133.223 -0.755725 -3.80671 0
M  V30 1458 H 131.324 1.66424 -3.33367 0
M  V30 1459 H 131.437 0.445034 -4.77029 0
M  V30 1460 H 129.801 0.332763 -2.52517 0
M  V30 1461 H 130.584 -1.18676 -3.22135 0
M  V30 1462 N 133.029 1.57378 -0.0835403 0
M  V30 1463 C 134.306 1.85363 0.624507 0
M  V30 1464 C 134.686 0.978239 1.87066 0
M  V30 1465 O 134.034 0.0475908 2.2845 0
M  V30 1466 C 134.244 3.35795 0.950947 0
M  V30 1467 C 135.592 4.03581 1.31939 0
M  V30 1468 O 136.616 3.40609 1.04232 0
M  V30 1469 O 135.475 5.14672 1.83779 0
M  V30 1470 H 132.569 0.766162 0.311329 0
M  V30 1471 H 135.115 1.69307 -0.115362 0
M  V30 1472 H 133.887 3.91244 0.0663899 0
M  V30 1473 H 133.51 3.57154 1.74719 0
M  V30 1474 N 134.507 -0.190092 1.56449 0
M  V30 1475 C 135.47 -1.21925 1.9408 0
M  V30 1476 C 136.47 -1.38176 0.822431 0
M  V30 1477 O 137.66 -1.35903 1.08977 0
M  V30 1478 C 134.792 -2.58773 2.21922 0
M  V30 1479 H 135.985 -0.897464 2.86157 0
M  V30 1480 H 133.538 -0.43181 1.50217 0
M  V30 1481 H 134.273 -2.95998 1.32499 0
M  V30 1482 H 134.058 -2.48348 3.03424 0
M  V30 1483 H 135.548 -3.32978 2.52022 0
M  V30 1484 N 135.985 -1.50799 -0.457987 0
M  V30 1485 C 137.233 -1.62121 -1.2067 0
M  V30 1486 C 137.554 -0.329793 -1.92191 0
M  V30 1487 O 136.824 0.653409 -1.84682 0
M  V30 1488 H 135.404 -0.597441 -0.448411 0
M  V30 1489 H 138.066 -1.87637 -0.527096 0
M  V30 1490 H 137.162 -2.43882 -1.94751 0
M  V30 1491 N 137.463 0.71206 -1.40597 0
M  V30 1492 C 138.711 1.46907 -1.38791 0
M  V30 1493 C 139.032 1.94998 0.00780391 0
M  V30 1494 O 138.302 1.70587 0.963174 0
M  V30 1495 H 136.882 0.545043 -0.51082 0
M  V30 1496 H 139.544 0.843882 -1.75683 0
M  V30 1497 H 138.64 2.34021 -2.06496 0
M  V30 1498 N 138.941 1.26152 0.944643 0
M  V30 1499 C 140.181 1.12708 1.70517 0
M  V30 1500 C 140.545 -0.324727 1.89234 0
M  V30 1501 O 141.746 -0.581211 2.62441 0
M  V30 1502 C 140.017 1.8713 3.04495 0
M  V30 1503 S 141.576 1.89698 3.95677 0
M  V30 1504 H 138.394 0.402665 0.585988 0
M  V30 1505 H 140.996 1.59821 1.12594 0
M  V30 1506 H 139.7 2.91833 2.88551 0
M  V30 1507 H 139.231 1.40444 3.67477 0
M  V30 1508 H 141.246 0.981198 4.86402 0
M  V30 1509 N 140.419 -1.14872 1.07899 0
M  V30 1510 C 141.349 -2.2193 0.725887 0
M  V30 1511 C 142.33 -1.67622 -0.28927 0
M  V30 1512 O 143.515 -1.93533 -0.160787 0
M  V30 1513 C 140.645 -3.47061 0.128856 0
M  V30 1514 C 139.599 -4.14363 1.07178 0
M  V30 1515 C 138.925 -5.33636 0.337229 0
M  V30 1516 C 140.225 -4.63492 2.40775 0
M  V30 1517 H 141.919 -2.51724 1.62097 0
M  V30 1518 H 139.465 -1.20991 0.780838 0
M  V30 1519 H 141.418 -4.21199 -0.130147 0
M  V30 1520 H 140.142 -3.16617 -0.80134 0
M  V30 1521 H 138.801 -3.42173 1.3158 0
M  V30 1522 H 138.449 -4.99449 -0.596606 0
M  V30 1523 H 138.149 -5.79609 0.965788 0
M  V30 1524 H 139.673 -6.10539 0.0861567 0
M  V30 1525 H 141.087 -5.2913 2.20669 0
M  V30 1526 H 139.484 -5.20148 2.99276 0
M  V30 1527 H 140.554 -3.78834 3.02676 0
M  V30 1528 N 141.898 -0.863906 -1.31812 0
M  V30 1529 C 142.848 -0.286898 -2.26188 0
M  V30 1530 C 143.832 0.572577 -1.50367 0
M  V30 1531 O 145.024 0.420447 -1.71934 0
M  V30 1532 C 142.153 0.515849 -3.39402 0
M  V30 1533 C 141.239 -0.356531 -4.22599 0
M  V30 1534 N 141.63 -1.44716 -4.84656 0
M  V30 1535 C 139.928 -0.147898 -4.45755 0
M  V30 1536 C 140.629 -1.98462 -5.46798 0
M  V30 1537 N 139.605 -1.28247 -5.28255 0
M  V30 1538 H 143.407 -1.12055 -2.717 0
M  V30 1539 H 140.921 -0.711012 -1.46008 0
M  V30 1540 H 142.918 0.945701 -4.06032 0
M  V30 1541 H 141.578 1.34718 -2.95434 0
M  V30 1542 H 142.589 -1.83008 -4.84488 0
M  V30 1543 H 139.266 0.647973 -4.12441 0
M  V30 1544 H 140.656 -2.89932 -6.06126 0
M  V30 1545 N 143.376 1.44774 -0.622745 0
M  V30 1546 C 144.339 2.29069 0.0774015 0
M  V30 1547 C 145.339 1.4059 0.780461 0
M  V30 1548 O 146.529 1.62551 0.626322 0
M  V30 1549 C 143.661 3.21974 1.12006 0
M  V30 1550 H 144.854 2.92459 -0.663901 0
M  V30 1551 H 142.407 1.51548 -0.382486 0
M  V30 1552 H 143.142 2.63417 1.89162 0
M  V30 1553 H 142.927 3.87168 0.619951 0
M  V30 1554 H 144.417 3.85318 1.60995 0
M  V30 1555 N 144.854 0.36279 1.53368 0
M  V30 1556 C 146.131 -0.284021 1.93527 0
M  V30 1557 C 146.511 -1.66628 1.29608 0
M  V30 1558 O 145.859 -2.23942 0.45413 0
M  V30 1559 C 146.069 -0.337028 3.47369 0
M  V30 1560 C 147.417 -0.578708 4.20638 0
M  V30 1561 O 148.441 -0.418352 3.53735 0
M  V30 1562 O 147.3 -0.89074 5.39192 0
M  V30 1563 H 144.394 -0.169743 0.809393 0
M  V30 1564 H 146.94 0.41537 1.64538 0
M  V30 1565 H 145.712 0.632217 3.86159 0
M  V30 1566 H 145.335 -1.08243 3.82582 0
M  V30 1567 N 146.332 -1.57332 0.0918853 0
M  V30 1568 C 147.743 -1.81496 -0.437739 0
M  V30 1569 C 148.094 -1.00727 -1.6837 0
M  V30 1570 O 147.219 -0.235694 -2.15113 0
M  V30 1571 C 147.814 -3.29197 -0.800939 0
M  V30 1572 C 146.373 -3.54136 -1.27532 0
M  V30 1573 C 145.52 -2.75979 -0.270392 0
M  V30 1574 H 148.471 -1.55494 0.317366 0
M  V30 1575 H 148.492 -3.42344 -1.66074 0
M  V30 1576 H 148.004 -3.87955 0.106078 0
M  V30 1577 H 146.105 -3.00705 -2.20016 0
M  V30 1578 H 146.218 -4.62792 -1.23938 0
M  V30 1579 H 144.582 -2.43349 -0.751872 0
M  V30 1580 H 145.365 -3.37484 0.629248 0
M  V30 1581 N 147.81 0.181792 -1.56548 0
M  V30 1582 C 149.087 0.926765 -1.72251 0
M  V30 1583 C 149.467 2.00831 -0.650386 0
M  V30 1584 O 148.815 2.26008 0.336521 0
M  V30 1585 C 149.025 1.50106 -3.1507 0
M  V30 1586 C 150.373 1.97805 -3.75711 0
M  V30 1587 O 151.397 1.59922 -3.18282 0
M  V30 1588 O 150.256 2.67555 -4.76525 0
M  V30 1589 H 147.35 0.435506 -0.703039 0
M  V30 1590 H 149.896 0.170443 -1.68842 0
M  V30 1591 H 148.668 0.72212 -3.84579 0
M  V30 1592 H 148.291 2.32186 -3.22763 0
M  V30 1593 N 149.288 1.51039 0.449983 0
M  V30 1594 C 150.218 1.74379 1.55288 0
M  V30 1595 C 151.199 0.593236 1.5942 0
M  V30 1596 O 152.384 0.834625 1.7535 0
M  V30 1597 C 149.514 1.85728 2.93466 0
M  V30 1598 C 148.468 3.01078 3.04197 0
M  V30 1599 C 147.794 2.97595 4.44231 0
M  V30 1600 C 149.094 4.41254 2.7945 0
M  V30 1601 H 150.788 2.66725 1.36008 0
M  V30 1602 H 148.334 1.2835 0.652864 0
M  V30 1603 H 150.287 2.0064 3.70569 0
M  V30 1604 H 149.011 0.900207 3.13949 0
M  V30 1605 H 147.67 2.85851 2.29531 0
M  V30 1606 H 147.318 1.99691 4.61663 0
M  V30 1607 H 147.018 3.75046 4.52343 0
M  V30 1608 H 148.542 3.14583 5.23326 0
M  V30 1609 H 149.956 4.56897 3.46292 0
M  V30 1610 H 148.353 5.20315 2.98985 0
M  V30 1611 H 149.423 4.52164 1.75144 0
M  V30 1612 N 150.766 -0.704594 1.40972 0
M  V30 1613 C 152.014 -1.46169 1.39568 0
M  V30 1614 C 152.335 -1.95 0.00253745 0
M  V30 1615 O 151.605 -1.71095 -0.954114 0
M  V30 1616 H 150.185 -0.542326 0.513704 0
M  V30 1617 H 152.847 -0.834553 1.76128 0
M  V30 1618 H 151.943 -2.32922 2.07735 0
M  V30 1619 N 152.244 -1.26651 -0.937939 0
M  V30 1620 C 153.49 -1.12553 -1.687 0
M  V30 1621 C 153.823 0.329782 -1.91379 0
M  V30 1622 O 153.098 1.24202 -1.4968 0
M  V30 1623 C 153.381 -1.89862 -3.05981 0
M  V30 1624 C 153.234 -3.43318 -2.90607 0
M  V30 1625 C 154.553 -1.69499 -4.0615 0
M  V30 1626 H 151.672 -0.410257 -0.612257 0
M  V30 1627 H 154.314 -1.55685 -1.08913 0
M  V30 1628 H 152.464 -1.53204 -3.57017 0
M  V30 1629 H 154.136 -3.89747 -2.46769 0
M  V30 1630 H 152.379 -3.70179 -2.26164 0
M  V30 1631 H 153.05 -3.92642 -3.8799 0
M  V30 1632 H 155.526 -2.01442 -3.64088 0
M  V30 1633 H 154.402 -2.26002 -5.00214 0
M  V30 1634 H 154.663 -0.640365 -4.37438 0
M  V30 1635 N 153.722 1.14298 -1.08507 0
M  V30 1636 C 154.652 2.21542 -0.737646 0
M  V30 1637 C 155.633 1.67773 0.280377 0
M  V30 1638 O 156.818 1.93616 0.150521 0
M  V30 1639 C 153.948 3.46988 -0.147259 0
M  V30 1640 C 152.902 4.13789 -1.09374 0
M  V30 1641 C 152.228 5.33449 -0.365524 0
M  V30 1642 C 153.528 4.62208 -2.4323 0
M  V30 1643 H 155.222 2.5086 -1.6343 0
M  V30 1644 H 152.768 1.20576 -0.787243 0
M  V30 1645 H 154.721 4.21262 0.107808 0
M  V30 1646 H 153.445 3.17037 0.784538 0
M  V30 1647 H 152.104 3.4147 -1.33393 0
M  V30 1648 H 151.752 4.99759 0.57011 0
M  V30 1649 H 151.452 5.79088 -0.996512 0
M  V30 1650 H 152.976 6.10485 -0.118534 0
M  V30 1651 H 154.39 5.27952 -2.23472 0
M  V30 1652 H 152.787 5.18553 -3.02031 0
M  V30 1653 H 153.857 3.77224 -3.04681 0
M  V30 1654 N 155.201 0.870884 1.31352 0
M  V30 1655 C 156.441 0.488783 1.9847 0
M  V30 1656 C 156.805 -0.941536 1.67329 0
M  V30 1657 O 158.006 -1.42903 2.27667 0
M  V30 1658 C 156.277 0.739688 3.49662 0
M  V30 1659 S 157.836 0.457582 4.36408 0
M  V30 1660 H 154.654 0.18242 0.6872 0
M  V30 1661 H 157.256 1.12711 1.59739 0
M  V30 1662 H 155.96 1.77944 3.69816 0
M  V30 1663 H 155.491 0.0883905 3.93301 0
M  V30 1664 H 157.506 -0.709752 4.91098 0
M  V30 1665 N 156.679 -1.44442 0.630414 0
M  V30 1666 C 158.09 -1.85434 0.217063 0
M  V30 1667 C 158.441 -1.52748 -1.23136 0
M  V30 1668 O 157.566 -0.965205 -1.93682 0
M  V30 1669 C 158.161 -3.36581 0.387168 0
M  V30 1670 C 156.72 -3.76389 0.0283297 0
M  V30 1671 C 155.867 -2.68296 0.700889 0
M  V30 1672 H 158.818 -1.34919 0.83562 0
M  V30 1673 H 158.839 -3.78657 -0.374086 0
M  V30 1674 H 158.351 -3.60339 1.44144 0
M  V30 1675 H 156.452 -3.58246 -1.02423 0
M  V30 1676 H 156.565 -4.77095 0.437892 0
M  V30 1677 H 154.929 -2.54335 0.136267 0
M  V30 1678 H 155.712 -2.94887 1.75774 0
M  V30 1679 N 158.157 -0.370918 -1.53173 0
M  V30 1680 C 159.385 0.217704 -2.05751 0
M  V30 1681 C 159.8 1.42018 -1.24404 0
M  V30 1682 O 159.157 1.80245 -0.286033 0
M  V30 1683 C 159.208 0.605954 -3.56385 0
M  V30 1684 O 158.929 -0.548734 -4.3465 0
M  V30 1685 C 160.43 1.2524 -4.25241 0
M  V30 1686 H 157.65 0.0371659 -0.66997 0
M  V30 1687 H 160.194 -0.530832 -1.9749 0
M  V30 1688 H 158.349 1.3044 -3.6478 0
M  V30 1689 H 158.763 -0.23376 -5.23979 0
M  V30 1690 H 160.237 1.47458 -5.3194 0
M  V30 1691 H 160.714 2.2143 -3.79296 0
M  V30 1692 H 161.32 0.595233 -4.21114 0
M  V30 1693 N 159.635 1.57281 -0.100228 0
M  V30 1694 C 160.883 1.94153 0.561157 0
M  V30 1695 C 161.204 0.983157 1.68401 0
M  V30 1696 O 160.474 0.0361132 1.95867 0
M  V30 1697 H 159.054 0.716791 0.210283 0
M  V30 1698 H 161.716 1.94202 -0.164765 0
M  V30 1699 H 160.812 2.96709 0.968008 0
M  V30 1700 N 161.113 -0.173488 1.56642 0
M  V30 1701 C 162.353 -0.896984 1.83667 0
M  V30 1702 C 162.717 -1.79523 0.680842 0
M  V30 1703 O 163.918 -2.55616 0.831488 0
M  V30 1704 C 162.189 -1.67351 3.15798 0
M  V30 1705 S 163.748 -2.44607 3.64298 0
M  V30 1706 H 160.566 -0.300464 0.644393 0
M  V30 1707 H 163.168 -0.158775 1.94854 0
M  V30 1708 H 161.872 -1.00462 3.97914 0
M  V30 1709 H 161.403 -2.45313 3.07546 0
M  V30 1710 H 163.418 -3.69261 3.31452 0
M  V30 1711 N 162.591 -1.51276 -0.441967 0
M  V30 1712 C 163.523 -1.68444 -1.55433 0
M  V30 1713 C 164.536 -0.565187 -1.52674 0
M  V30 1714 O 165.725 -0.839356 -1.57534 0
M  V30 1715 C 162.825 -1.67966 -2.94348 0
M  V30 1716 C 161.998 -2.964 -3.21661 0
M  V30 1717 C 161.057 -2.88171 -4.40277 0
M  V30 1718 O 160.083 -3.62119 -4.39157 0
M  V30 1719 N 161.285 -2.03706 -5.43584 0
M  V30 1720 H 164.05 -2.644 -1.41112 0
M  V30 1721 H 161.611 -1.49104 -0.630838 0
M  V30 1722 H 163.603 -1.60035 -3.71713 0
M  V30 1723 H 162.173 -0.796225 -3.0229 0
M  V30 1724 H 161.393 -3.18234 -2.32638 0
M  V30 1725 H 162.681 -3.81427 -3.36736 0
M  V30 1726 H 162.079 -1.42995 -5.47329 0
M  V30 1727 H 160.636 -2.01658 -6.1982 0
M  V30 1728 N 164.069 0.697108 -1.41344 0
M  V30 1729 C 164.999 1.82353 -1.45841 0
M  V30 1730 C 165.98 1.67115 -0.317247 0
M  V30 1731 O 167.165 1.86871 -0.528474 0
M  V30 1732 C 164.295 3.20476 -1.33838 0
M  V30 1733 C 163.249 3.50415 -2.4575 0
M  V30 1734 C 162.575 4.87878 -2.18813 0
M  V30 1735 C 163.875 3.49546 -3.88091 0
M  V30 1736 H 165.569 1.78846 -2.40113 0
M  V30 1737 H 163.115 0.859028 -1.15571 0
M  V30 1738 H 165.068 3.98988 -1.35596 0
M  V30 1739 H 163.792 3.24604 -0.360498 0
M  V30 1740 H 162.451 2.74253 -2.43271 0
M  V30 1741 H 162.099 4.8863 -1.19371 0
M  V30 1742 H 161.799 5.08875 -2.93803 0
M  V30 1743 H 163.323 5.68702 -2.22284 0
M  V30 1744 H 164.737 4.18066 -3.92293 0
M  V30 1745 H 163.134 3.82075 -4.62751 0
M  V30 1746 H 164.204 2.48552 -4.16353 0
M  V30 1747 N 165.547 1.27147 0.931209 0
M  V30 1748 C 166.479 1.05364 2.03546 0
M  V30 1749 C 167.492 0.0108438 1.62796 0
M  V30 1750 O 168.681 0.25202 1.76712 0
M  V30 1751 C 165.781 0.575566 3.33977 0
M  V30 1752 C 164.954 1.68985 4.03439 0
M  V30 1753 C 164.013 1.20813 5.12143 0
M  V30 1754 O 163.039 1.90712 5.363 0
M  V30 1755 N 164.241 0.0618851 5.80467 0
M  V30 1756 H 167.006 2.00454 2.22796 0
M  V30 1757 H 164.567 1.18666 1.10136 0
M  V30 1758 H 166.559 0.237264 4.04004 0
M  V30 1759 H 165.129 -0.282016 3.11325 0
M  V30 1760 H 164.349 2.19861 3.27192 0
M  V30 1761 H 165.637 2.4378 4.46597 0
M  V30 1762 H 165.035 -0.521621 5.6329 0
M  V30 1763 H 163.592 -0.217264 6.51438 0
M  V30 1764 N 167.025 -1.13721 1.09112 0
M  V30 1765 C 167.935 -2.22638 0.73957 0
M  V30 1766 C 168.951 -1.72091 -0.257068 0
M  V30 1767 O 170.127 -2.01155 -0.0992154 0
M  V30 1768 C 167.192 -3.46322 0.16191 0
M  V30 1769 C 166.253 -4.11775 1.21408 0
M  V30 1770 C 165.486 -5.29555 0.663891 0
M  V30 1771 O 165.709 -5.68077 -0.514274 0
M  V30 1772 O 164.643 -5.84973 1.41738 0
M  V30 1773 H 168.469 -2.55074 1.64836 0
M  V30 1774 H 166.054 -1.21791 0.865289 0
M  V30 1775 H 167.936 -4.21107 -0.157073 0
M  V30 1776 H 166.611 -3.15593 -0.719932 0
M  V30 1777 H 165.518 -3.3883 1.58571 0
M  V30 1778 H 166.851 -4.46627 2.06845 0
M  V30 1779 N 168.503 -0.877838 -1.30888 0
M  V30 1780 C 169.466 -0.344265 -2.266 0
M  V30 1781 C 170.466 0.50922 -1.52524 0
M  V30 1782 O 171.656 0.317398 -1.71284 0
M  V30 1783 C 168.788 0.510198 -3.37061 0
M  V30 1784 H 169.981 -1.1893 -2.7531 0
M  V30 1785 H 167.534 -0.654088 -1.41956 0
M  V30 1786 H 168.269 1.37612 -2.93655 0
M  V30 1787 H 168.054 -0.101047 -3.9197 0
M  V30 1788 H 169.544 0.875537 -4.08319 0
M  V30 1789 N 169.982 1.44106 -0.638065 0
M  V30 1790 C 170.912 2.33448 0.0494287 0
M  V30 1791 C 171.893 1.48606 0.827672 0
M  V30 1792 O 173.078 1.77308 0.792173 0
M  V30 1793 C 170.208 3.31771 1.02691 0
M  V30 1794 C 169.162 4.26485 0.359823 0
M  V30 1795 C 168.488 5.14729 1.44769 0
M  V30 1796 C 169.788 5.17056 -0.738296 0
M  V30 1797 H 171.482 2.91183 -0.696636 0
M  V30 1798 H 169.028 1.40014 -0.336456 0
M  V30 1799 H 170.981 3.93161 1.51666 0
M  V30 1800 H 169.705 2.7226 1.80395 0
M  V30 1801 H 168.364 3.66437 -0.10934 0
M  V30 1802 H 168.012 4.51566 2.21578 0
M  V30 1803 H 167.712 5.78913 1.00668 0
M  V30 1804 H 169.236 5.78991 1.93911 0
M  V30 1805 H 170.65 5.72342 -0.331354 0
M  V30 1806 H 169.047 5.89879 -1.10286 0
M  V30 1807 H 170.117 4.57652 -1.60258 0
M  V30 1808 N 171.46 0.379036 1.52974 0
M  V30 1809 C 172.39 -0.452706 2.29069 0
M  V30 1810 C 173.371 -1.07237 1.32039 0
M  V30 1811 O 174.556 -1.08708 1.60923 0
M  V30 1812 C 171.686 -1.5856 3.08992 0
M  V30 1813 C 170.64 -1.0925 4.13822 0
M  V30 1814 C 169.966 -2.31668 4.81907 0
M  V30 1815 C 171.266 -0.167702 5.22031 0
M  V30 1816 H 172.96 0.182181 2.98845 0
M  V30 1817 H 170.506 0.0890592 1.43724 0
M  V30 1818 H 172.459 -2.1742 3.6098 0
M  V30 1819 H 171.183 -2.24792 2.36931 0
M  V30 1820 H 169.842 -0.526494 3.628 0
M  V30 1821 H 169.49 -2.96386 4.06404 0
M  V30 1822 H 169.19 -1.9934 5.52754 0
M  V30 1823 H 170.714 -2.91189 5.36695 0
M  V30 1824 H 172.128 -0.664186 5.6944 0
M  V30 1825 H 170.525 0.0653265 6.00064 0
M  V30 1826 H 171.595 0.786347 4.78482 0
M  V30 1827 N 172.938 -1.57226 0.108567 0
M  V30 1828 C 173.87 -2.11809 -0.875752 0
M  V30 1829 C 174.883 -1.05839 -1.23701 0
M  V30 1830 O 176.072 -1.33245 -1.18778 0
M  V30 1831 C 173.172 -2.59411 -2.18081 0
M  V30 1832 C 172.345 -3.89364 -1.99284 0
M  V30 1833 C 171.404 -4.22672 -3.13424 0
M  V30 1834 O 170.43 -4.91668 -2.86795 0
M  V30 1835 N 171.632 -3.79154 -4.3957 0
M  V30 1836 H 174.397 -2.9689 -0.409477 0
M  V30 1837 H 171.958 -1.61721 -0.076158 0
M  V30 1838 H 173.95 -2.7873 -2.93414 0
M  V30 1839 H 172.52 -1.79268 -2.5609 0
M  V30 1840 H 171.74 -3.79059 -1.08203 0
M  V30 1841 H 173.028 -4.74358 -1.84017 0
M  V30 1842 H 172.426 -3.23486 -4.64083 0
M  V30 1843 H 170.983 -4.03602 -5.11809 0
M  V30 1844 N 174.416 0.165178 -1.56732 0
M  V30 1845 C 175.348 1.22911 -1.93457 0
M  V30 1846 C 176.361 1.40152 -0.828333 0
M  V30 1847 O 177.55 1.40046 -1.10677 0
M  V30 1848 C 174.65 2.59686 -2.17753 0
M  V30 1849 C 173.823 2.63663 -3.48999 0
M  V30 1850 C 172.882 3.81845 -3.62051 0
M  V30 1851 O 171.908 3.67559 -4.34613 0
M  V30 1852 N 173.11 4.98557 -2.97357 0
M  V30 1853 H 175.875 0.917118 -2.85323 0
M  V30 1854 H 173.436 0.354895 -1.57962 0
M  V30 1855 H 175.428 3.37225 -2.23743 0
M  V30 1856 H 173.998 2.83251 -1.32242 0
M  V30 1857 H 173.218 1.72173 -3.54612 0
M  V30 1858 H 174.506 2.63336 -4.35352 0
M  V30 1859 H 173.904 5.13065 -2.38287 0
M  V30 1860 H 172.461 5.73936 -3.08934 0
M  V30 1861 N 175.894 1.51508 0.433938 0
M  V30 1862 C 176.804 1.75917 1.5521 0
M  V30 1863 C 177.82 0.643545 1.61662 0
M  V30 1864 O 178.996 0.926183 1.7884 0
M  V30 1865 C 176.061 1.88213 2.91164 0
M  V30 1866 C 175.122 3.12074 2.94802 0
M  V30 1867 C 174.355 3.23774 4.24271 0
M  V30 1868 O 174.578 2.4133 5.16833 0
M  V30 1869 O 173.512 4.16774 4.34262 0
M  V30 1870 H 177.338 2.70777 1.37527 0
M  V30 1871 H 174.923 1.36051 0.617293 0
M  V30 1872 H 176.805 1.98267 3.71845 0
M  V30 1873 H 175.48 0.965413 3.08968 0
M  V30 1874 H 174.387 3.07497 2.13065 0
M  V30 1875 H 175.72 4.03446 2.81943 0
M  V30 1876 N 177.372 -0.689602 1.41712 0
M  V30 1877 C 178.788 -1.00093 1.24312 0
M  V30 1878 C 178.988 -2.01036 0.136729 0
M  V30 1879 O 178.044 -2.47562 -0.496918 0
M  V30 1880 C 179.357 -1.51985 2.59463 0
M  V30 1881 C 180.905 -1.63838 2.66695 0
M  V30 1882 C 181.38 -2.1913 4.02177 0
M  V30 1883 N 182.871 -2.26483 4.04054 0
M  V30 1884 C 183.606 -2.70306 5.0569 0
M  V30 1885 N 183.102 -3.13691 6.17713 0
M  V30 1886 N 184.895 -2.69923 4.9305 0
M  V30 1887 H 177.046 -0.0210029 2.1239 0
M  V30 1888 H 179.309 -0.0718733 0.945272 0
M  V30 1889 H 179.015 -0.85269 3.41207 0
M  V30 1890 H 178.889 -2.50103 2.82362 0
M  V30 1891 H 181.276 -2.29664 1.85306 0
M  V30 1892 H 181.357 -0.642492 2.476 0
M  V30 1893 H 181.001 -1.53918 4.84016 0
M  V30 1894 H 180.931 -3.19482 4.18615 0
M  V30 1895 H 183.422 -1.95874 3.23174 0
M  V30 1896 H 183.735 -3.45773 6.9113 0
M  V30 1897 H 182.08 -3.11585 6.21241 0
M  V30 1898 H 185.271 -2.35382 4.04614 0
M  V30 1899 H 185.444 -3.03758 5.72394 0
M  V30 1900 N 178.85 -1.27639 -0.924453 0
M  V30 1901 C 180.261 -1.12834 -1.48746 0
M  V30 1902 C 180.612 0.285505 -1.94112 0
M  V30 1903 O 179.737 1.17874 -1.81479 0
M  V30 1904 C 180.332 -2.04217 -2.70334 0
M  V30 1905 C 178.891 -1.93509 -3.22848 0
M  V30 1906 C 178.038 -1.96583 -1.95577 0
M  V30 1907 H 180.989 -1.40484 -0.738233 0
M  V30 1908 H 181.01 -1.59989 -3.4523 0
M  V30 1909 H 180.522 -3.07111 -2.37285 0
M  V30 1910 H 178.623 -0.936131 -3.60649 0
M  V30 1911 H 178.736 -2.79917 -3.88823 0
M  V30 1912 H 177.1 -1.4085 -2.12211 0
M  V30 1913 H 177.883 -3.01137 -1.64837 0
M  V30 1914 N 180.328 1.1314 -1.09713 0
M  V30 1915 C 181.577 1.83838 -0.829851 0
M  V30 1916 C 181.89 1.84599 0.646728 0
M  V30 1917 O 183.096 2.51218 1.02965 0
M  V30 1918 C 181.552 3.30069 -1.43466 0
M  V30 1919 C 181.16 3.37688 -2.94399 0
M  V30 1920 C 182.904 4.05788 -1.24645 0
M  V30 1921 C 180.811 4.78209 -3.47952 0
M  V30 1922 H 179.741 0.68877 -0.306777 0
M  V30 1923 H 182.392 1.27448 -1.3202 0
M  V30 1924 H 180.774 3.8628 -0.871996 0
M  V30 1925 H 181.948 2.91456 -3.56918 0
M  V30 1926 H 180.263 2.75436 -3.12289 0
M  V30 1927 H 182.86 5.09535 -1.62107 0
M  V30 1928 H 183.203 4.15878 -0.187357 0
M  V30 1929 H 183.736 3.55915 -1.77678 0
M  V30 1930 H 180.475 4.73311 -4.53495 0
M  V30 1931 H 179.995 5.24924 -2.90198 0
M  V30 1932 H 181.674 5.47133 -3.45332 0
M  V30 1933 N 181.806 0.884767 1.30421 0
M  V30 1934 C 183.222 0.57874 1.48737 0
M  V30 1935 C 183.422 -0.883567 1.81095 0
M  V30 1936 O 182.478 -1.6648 1.89844 0
M  V30 1937 C 183.791 1.49171 2.61091 0
M  V30 1938 C 185.339 1.49532 2.74971 0
M  V30 1939 C 185.814 2.39421 3.90438 0
M  V30 1940 N 187.305 2.37383 3.97748 0
M  V30 1941 C 188.04 3.03647 4.86401 0
M  V30 1942 N 187.536 3.79136 5.79852 0
M  V30 1943 N 189.329 2.9288 4.79768 0
M  V30 1944 H 181.48 1.83075 1.0769 0
M  V30 1945 H 183.743 0.783637 0.533495 0
M  V30 1946 H 183.449 2.53291 2.44001 0
M  V30 1947 H 183.323 1.20113 3.57565 0
M  V30 1948 H 185.71 0.46163 2.91467 0
M  V30 1949 H 185.791 1.8262 1.79119 0
M  V30 1950 H 185.435 3.42874 3.74699 0
M  V30 1951 H 185.365 2.03649 4.85628 0
M  V30 1952 H 187.856 1.82525 3.30897 0
M  V30 1953 H 188.169 4.26789 6.4426 0
M  V30 1954 H 186.514 3.83243 5.79784 0
M  V30 1955 H 189.705 2.33433 4.05742 0
M  V30 1956 H 189.878 3.448 5.4865 0
M  V30 1957 N 183.284 -1.43765 0.645699 0
M  V30 1958 C 184.232 -2.32516 -0.0624849 0
M  V30 1959 C 185.226 -1.48183 -0.820855 0
M  V30 1960 O 186.432 -1.64439 -0.732106 0
M  V30 1961 H 182.807 -0.750989 -0.0389864 0
M  V30 1962 H 184.778 -2.89979 0.703892 0
M  V30 1963 C 183.527 -3.32389 -1.02044 0
M  V30 1964 H 182.85 -3.97301 -0.446312 0
M  V30 1965 H 184.29 -3.97138 -1.48517 0
M  V30 1966 C 182.749 -2.62416 -2.11281 0
M  V30 1967 O 183.279 -2.434 -3.19561 0
M  V30 1968 N 181.485 -2.21913 -1.87624 0
M  V30 1969 H 181.032 -2.37578 -0.995703 0
M  V30 1970 H 180.99 -1.75424 -2.6091 0
M  V30 1971 N 184.763 -0.387143 -1.52771 0
M  V30 1972 C 185.988 0.198407 -2.06449 0
M  V30 1973 C 186.413 1.39918 -1.25716 0
M  V30 1974 O 185.771 1.79099 -0.281657 0
M  V30 1975 C 185.819 0.548893 -3.56398 0
M  V30 1976 O 184.923 1.64315 -3.78252 0
M  V30 1977 H 184.264 0.0237731 -0.663574 0
M  V30 1978 H 186.794 -0.553989 -1.96957 0
M  V30 1979 H 186.804 0.813812 -3.99801 0
M  V30 1980 H 185.479 -0.329005 -4.14597 0
M  V30 1981 H 184.056 1.37211 -3.46738 0
M  V30 1982 N 186.241 1.57166 -0.116904 0
M  V30 1983 C 187.487 1.95412 0.542405 0
M  V30 1984 C 187.82 1.00019 1.66463 0
M  V30 1985 O 187.095 0.0370346 1.94465 0
M  V30 1986 C 187.378 3.43615 1.07708 0
M  V30 1987 C 187.231 4.49781 -0.0415868 0
M  V30 1988 C 188.55 3.93616 1.96861 0
M  V30 1989 H 185.669 0.710543 0.195696 0
M  V30 1990 H 188.311 1.89027 -0.192038 0
M  V30 1991 H 186.461 3.49187 1.70296 0
M  V30 1992 H 188.133 4.56308 -0.676793 0
M  V30 1993 H 186.376 4.28033 -0.705019 0
M  V30 1994 H 187.047 5.50733 0.373717 0
M  V30 1995 H 189.523 3.90335 1.44146 0
M  V30 1996 H 188.399 4.97838 2.3119 0
M  V30 1997 H 188.66 3.34188 2.89432 0
M  V30 1998 N 187.719 -0.156864 1.56817 0
M  V30 1999 C 188.996 -0.899244 1.73704 0
M  V30 2000 C 189.376 -1.99771 0.682254 0
M  V30 2001 O 188.724 -2.26515 -0.300522 0
M  V30 2002 C 188.934 -1.45075 3.17418 0
M  V30 2003 C 190.282 -1.91802 3.7881 0
M  V30 2004 O 191.306 -1.54838 3.20786 0
M  V30 2005 O 190.165 -2.5994 4.80722 0
M  V30 2006 H 187.259 -0.424267 0.709878 0
M  V30 2007 H 189.805 -0.143561 1.69092 0
M  V30 2008 H 188.577 -0.660846 3.85679 0
M  V30 2009 H 188.2 -2.27021 3.26416 0
M  V30 2010 N 189.197 -1.51736 -0.425897 0
M  V30 2011 C 190.107 -1.76738 -1.54275 0
M  V30 2012 C 191.123 -0.65211 -1.61318 0
M  V30 2013 O 192.299 -0.935654 -1.78346 0
M  V30 2014 C 189.364 -1.89755 -2.90162 0
M  V30 2015 C 188.425 -3.13633 -2.93143 0
M  V30 2016 C 187.658 -3.2602 -4.22548 0
M  V30 2017 O 187.881 -2.44067 -5.15546 0
M  V30 2018 O 186.815 -4.19071 -4.32046 0
M  V30 2019 H 190.641 -2.71502 -1.36089 0
M  V30 2020 H 188.226 -1.36376 -0.610069 0
M  V30 2021 H 190.108 -2.00236 -3.70788 0
M  V30 2022 H 188.783 -0.981785 -3.08452 0
M  V30 2023 H 187.69 -3.08622 -2.11431 0
M  V30 2024 H 189.023 -4.04936 -2.798 0
M  V30 2025 N 190.675 0.682077 -1.42076 0
M  V30 2026 C 191.605 1.80796 -1.47767 0
M  V30 2027 C 192.586 1.6677 -0.334954 0
M  V30 2028 O 193.771 1.863 -0.548264 0
M  V30 2029 C 190.901 3.19038 -1.37229 0
M  V30 2030 C 189.855 3.47789 -2.49453 0
M  V30 2031 C 189.181 4.8553 -2.23975 0
M  V30 2032 C 190.481 3.45411 -3.91776 0
M  V30 2033 H 192.175 1.7629 -2.41997 0
M  V30 2034 H 189.721 0.846721 -1.16476 0
M  V30 2035 H 191.674 3.97528 -1.39821 0
M  V30 2036 H 190.398 3.24204 -0.394907 0
M  V30 2037 H 189.057 2.71657 -2.46166 0
M  V30 2038 H 188.705 4.87337 -1.24547 0
M  V30 2039 H 188.405 5.0573 -2.99184 0
M  V30 2040 H 189.929 5.66312 -2.28304 0
M  V30 2041 H 191.343 4.13882 -3.96705 0
M  V30 2042 H 189.74 3.77145 -4.66778 0
M  V30 2043 H 190.81 2.44122 -4.18966 0
M  V30 2044 N 192.153 1.28127 0.917671 0
M  V30 2045 C 193.101 1.11569 2.04096 0
M  V30 2046 C 194.095 0.0360242 1.69362 0
M  V30 2047 O 195.301 0.194501 1.78946 0
M  V30 2048 H 191.676 0.344097 0.668656 0
M  V30 2049 H 193.647 2.06711 2.15205 0
M  V30 2050 C 192.396 0.790197 3.38602 0
M  V30 2051 H 191.719 1.61293 3.6582 0
M  V30 2052 H 193.159 0.714271 4.1794 0
M  V30 2053 C 191.618 -0.505897 3.3308 0
M  V30 2054 O 192.148 -1.53736 3.71117 0
M  V30 2055 N 190.354 -0.505193 2.86175 0
M  V30 2056 H 189.901 0.334621 2.55417 0
M  V30 2057 H 189.859 -1.37243 2.82863 0
M  V30 2058 N 193.631 -1.12557 1.10312 0
M  V30 2059 C 194.579 -2.20325 0.745629 0
M  V30 2060 C 195.573 -1.67429 -0.25763 0
M  V30 2061 O 196.779 -1.79612 -0.118132 0
M  V30 2062 H 193.154 -0.718118 0.223182 0
M  V30 2063 H 195.125 -2.47733 1.66346 0
M  V30 2064 C 193.874 -3.47168 0.192262 0
M  V30 2065 H 193.197 -3.88215 0.955475 0
M  V30 2066 H 194.637 -4.23995 -0.0198274 0
M  V30 2067 C 193.096 -3.19298 -1.07472 0
M  V30 2068 O 193.626 -3.3891 -2.15645 0
M  V30 2069 N 191.832 -2.73113 -0.992847 0
M  V30 2070 H 191.379 -2.57354 -0.112474 0
M  V30 2071 H 191.337 -2.54842 -1.84127 0
M  V30 2072 N 195.109 -0.891671 -1.2995 0
M  V30 2073 C 196.057 -0.353066 -2.29905 0
M  V30 2074 C 197.051 0.543509 -1.60444 0
M  V30 2075 O 198.257 0.4272 -1.74857 0
M  V30 2076 H 194.632 -0.095531 -0.745907 0
M  V30 2077 H 196.603 -1.20961 -2.72784 0
M  V30 2078 C 195.352 0.411475 -3.45257 0
M  V30 2079 H 194.675 -0.269182 -3.98893 0
M  V30 2080 H 196.115 0.753328 -4.17254 0
M  V30 2081 C 194.574 1.6111 -2.9588 0
M  V30 2082 O 195.104 2.71045 -2.96475 0
M  V30 2083 N 193.31 1.45054 -2.51809 0
M  V30 2084 H 192.857 0.556175 -2.51524 0
M  V30 2085 H 192.815 2.25453 -2.1913 0
M  V30 2086 N 196.587 1.43421 -0.653314 0
M  V30 2087 C 197.833 2.02111 -0.166992 0
M  V30 2088 C 198.166 1.51423 1.21592 0
M  V30 2089 O 197.441 0.707389 1.8118 0
M  V30 2090 C 197.724 3.5966 -0.177948 0
M  V30 2091 C 197.577 4.20579 -1.59478 0
M  V30 2092 C 198.896 4.37413 0.4856 0
M  V30 2093 H 196.015 0.734374 -0.0621557 0
M  V30 2094 H 198.657 1.70717 -0.834016 0
M  V30 2095 H 196.807 3.86537 0.390032 0
M  V30 2096 H 198.479 4.04732 -2.21336 0
M  V30 2097 H 196.722 3.77226 -2.14204 0
M  V30 2098 H 197.393 5.29665 -1.5543 0
M  V30 2099 H 199.869 4.161 0.00234528 0
M  V30 2100 H 198.745 5.47075 0.447207 0
M  V30 2101 H 199.006 4.13672 1.55974 0
M  V30 2102 N 198.065 0.39524 1.52563 0
M  V30 2103 C 198.975 -0.444232 2.30356 0
M  V30 2104 C 199.991 -1.06615 1.37511 0
M  V30 2105 O 201.167 -1.07067 1.70583 0
M  V30 2106 C 198.232 -1.55315 3.09964 0
M  V30 2107 C 197.293 -0.955734 4.18526 0
M  V30 2108 C 196.526 -2.01181 4.9433 0
M  V30 2109 O 196.749 -3.22781 4.70285 0
M  V30 2110 O 195.683 -1.62579 5.79527 0
M  V30 2111 H 199.509 0.189667 3.03107 0
M  V30 2112 H 197.094 0.1588 1.48554 0
M  V30 2113 H 198.976 -2.19724 3.59582 0
M  V30 2114 H 197.651 -2.17191 2.4002 0
M  V30 2115 H 196.558 -0.274743 3.7309 0
M  V30 2116 H 197.891 -0.381109 4.90722 0
M  V30 2117 N 199.544 -1.57102 0.125237 0
M  V30 2118 C 200.507 -2.14471 -0.80838 0
M  V30 2119 C 201.507 -1.0811 -1.19033 0
M  V30 2120 O 202.697 -1.33856 -1.11482 0
M  V30 2121 C 199.829 -2.69005 -2.09402 0
M  V30 2122 H 201.022 -2.98297 -0.309696 0
M  V30 2123 H 198.575 -1.55807 -0.124051 0
M  V30 2124 H 199.31 -1.88785 -2.63687 0
M  V30 2125 H 199.095 -3.46799 -1.82957 0
M  V30 2126 H 200.585 -3.13278 -2.76128 0
M  V30 2127 N 201.022 0.148545 -1.56898 0
M  V30 2128 C 202.268 0.862694 -1.83536 0
M  V30 2129 C 202.601 1.80889 -0.706604 0
M  V30 2130 O 201.876 1.92328 0.289885 0
M  V30 2131 C 202.159 1.63853 -3.20662 0
M  V30 2132 C 202.012 0.713925 -4.44098 0
M  V30 2133 C 203.331 2.60133 -3.54991 0
M  V30 2134 H 200.45 0.312179 -0.667618 0
M  V30 2135 H 203.092 0.127953 -1.89569 0
M  V30 2136 H 201.242 2.26489 -3.1565 0
M  V30 2137 H 202.914 0.098686 -4.61194 0
M  V30 2138 H 201.157 0.0234019 -4.33794 0
M  V30 2139 H 201.828 1.29278 -5.36648 0
M  V30 2140 H 204.304 2.07616 -3.60603 0
M  V30 2141 H 203.18 3.11468 -4.51972 0
M  V30 2142 H 203.441 3.41417 -2.80868 0
M  V30 2143 N 202.5 1.5196 0.417844 0
M  V30 2144 C 203.725 1.69717 1.1921 0
M  V30 2145 C 204.15 0.402148 1.83751 0
M  V30 2146 O 203.508 -0.639593 1.69643 0
M  V30 2147 C 203.556 2.82794 2.2374 0
M  V30 2148 O 202.66 2.47756 3.29683 0
M  V30 2149 H 202.001 0.565263 0.348387 0
M  V30 2150 H 204.531 1.98621 0.490985 0
M  V30 2151 H 204.541 3.07452 2.68212 0
M  V30 2152 H 203.216 3.76756 1.76146 0
M  V30 2153 H 201.793 2.33739 2.90552 0
M  V30 2154 N 203.978 -0.674533 1.42435 0
M  V30 2155 C 204.91 -1.80005 1.41883 0
M  V30 2156 C 205.923 -1.59667 0.31787 0
M  V30 2157 O 207.112 -1.68781 0.580973 0
M  V30 2158 C 204.212 -3.17114 1.19549 0
M  V30 2159 C 203.385 -3.64299 2.42084 0
M  V30 2160 C 202.444 -4.80142 2.15291 0
M  V30 2161 O 201.47 -4.90673 2.88493 0
M  V30 2162 N 202.672 -5.68869 1.1562 0
M  V30 2163 H 205.437 -1.80964 2.38898 0
M  V30 2164 H 202.998 -0.857633 1.37318 0
M  V30 2165 H 204.99 -3.92267 0.995417 0
M  V30 2166 H 203.56 -3.11053 0.310569 0
M  V30 2167 H 202.78 -2.79822 2.77657 0
M  V30 2168 H 204.068 -3.92567 3.23679 0
M  V30 2169 H 203.466 -5.63012 0.550765 0
M  V30 2170 H 202.023 -6.43833 1.016 0
M  V30 2171 N 205.456 -1.28612 -0.910864 0
M  V30 2172 C 206.684 -1.18792 -1.69399 0
M  V30 2173 C 207.099 0.253039 -1.87097 0
M  V30 2174 O 206.456 1.17071 -1.40003 0
M  V30 2175 C 206.507 -1.88511 -3.08457 0
M  V30 2176 O 206.228 -3.26979 -2.91576 0
M  V30 2177 C 207.729 -1.85029 -4.02839 0
M  V30 2178 H 204.949 -0.412233 -0.529438 0
M  V30 2179 H 207.493 -1.69788 -1.13984 0
M  V30 2180 H 205.648 -1.41379 -3.60681 0
M  V30 2181 H 206.062 -3.61936 -3.79608 0
M  V30 2182 H 207.536 -2.38395 -4.97867 0
M  V30 2183 H 208.013 -0.823303 -4.31414 0
M  V30 2184 H 208.619 -2.31853 -3.56545 0
M  V30 2185 N 206.934 1.1197 -1.10907 0
M  V30 2186 C 208.159 1.87942 -0.877064 0
M  V30 2187 C 208.584 1.79341 0.567314 0
M  V30 2188 O 207.942 1.15184 1.40009 0
M  V30 2189 C 207.99 3.34926 -1.33629 0
M  V30 2190 O 207.094 4.09303 -0.504447 0
M  V30 2191 H 206.435 0.583785 -0.316371 0
M  V30 2192 H 208.965 1.4157 -1.47712 0
M  V30 2193 H 208.975 3.8577 -1.32837 0
M  V30 2194 H 207.65 3.40504 -2.3881 0
M  V30 2195 H 206.227 3.68393 -0.577993 0
M  V30 2196 N 208.412 0.89855 1.29475 0
M  V30 2197 C 209.637 0.538561 2.00285 0
M  V30 2198 C 210.062 -0.869135 1.66816 0
M  V30 2199 O 209.42 -1.57831 0.892145 0
M  V30 2200 C 209.468 0.736475 3.52999 0
M  V30 2201 O 208.572 -0.211537 4.11857 0
M  V30 2202 H 207.913 0.210563 0.62973 0
M  V30 2203 H 210.443 1.20982 1.64998 0
M  V30 2204 H 210.453 0.640685 4.02938 0
M  V30 2205 H 209.128 1.76276 3.76696 0
M  V30 2206 H 207.705 -0.0682991 3.72837 0
M  V30 2207 N 209.89 -1.43072 0.660911 0
M  V30 2208 C 211.115 -2.06584 0.183805 0
M  V30 2209 C 211.54 -1.49257 -1.14472 0
M  V30 2210 O 210.898 -0.605528 -1.70889 0
M  V30 2211 C 210.946 -3.60418 0.114434 0
M  V30 2212 O 210.05 -4.01981 -0.921137 0
M  V30 2213 H 209.391 -0.656669 0.0983994 0
M  V30 2214 H 211.921 -1.83447 0.906006 0
M  V30 2215 H 211.931 -4.07946 -0.0663394 0
M  V30 2216 H 210.606 -4.01519 1.08422 0
M  V30 2217 H 209.183 -3.66029 -0.71253 0
M  V30 2218 N 211.368 -0.403325 -1.52352 0
M  V30 2219 C 212.593 0.176499 -2.06648 0
M  V30 2220 C 213.018 1.38577 -1.27193 0
M  V30 2221 O 212.376 1.7879 -0.300637 0
M  V30 2222 C 212.424 0.511061 -3.5696 0
M  V30 2223 O 211.528 1.60294 -3.79973 0
M  V30 2224 H 210.869 0.0167337 -0.663789 0
M  V30 2225 H 213.399 -0.574848 -1.96359 0
M  V30 2226 H 213.409 0.771362 -4.00642 0
M  V30 2227 H 212.084 -0.37296 -4.14224 0
M  V30 2228 H 210.661 1.33526 -3.48174 0
M  V30 2229 N 212.846 1.57033 -0.133567 0
M  V30 2230 C 214.093 1.95686 0.520877 0
M  V30 2231 C 214.421 1.0177 1.6575 0
M  V30 2232 O 213.676 0.0443195 1.9565 0
M  V30 2233 C 213.975 3.40674 1.08057 0
M  V30 2234 C 213.641 4.50855 0.0637899 0
M  V30 2235 C 212.303 4.80716 -0.215757 0
M  V30 2236 C 214.655 5.17398 -0.62835 0
M  V30 2237 C 211.983 5.74433 -1.19348 0
M  V30 2238 C 214.335 6.12167 -1.5948 0
M  V30 2239 C 212.999 6.40414 -1.88218 0
M  V30 2240 H 212.269 0.716067 0.190602 0
M  V30 2241 H 214.916 1.9026 -0.217556 0
M  V30 2242 H 213.221 3.42865 1.89606 0
M  V30 2243 H 214.918 3.67902 1.59529 0
M  V30 2244 H 211.508 4.27605 0.291855 0
M  V30 2245 H 215.692 4.94472 -0.425562 0
M  V30 2246 H 210.948 5.94616 -1.42272 0
M  V30 2247 H 215.122 6.6281 -2.13671 0
M  V30 2248 H 212.749 7.12838 -2.64133 0
M  V30 2249 N 214.325 -0.140222 1.56975 0
M  V30 2250 C 215.257 -1.19818 1.95388 0
M  V30 2251 C 216.27 -1.38816 0.850525 0
M  V30 2252 O 217.459 -1.38267 1.12891 0
M  V30 2253 C 214.559 -2.56189 2.21857 0
M  V30 2254 C 213.732 -2.58077 3.5315 0
M  V30 2255 C 212.791 -3.76037 3.6808 0
M  V30 2256 O 211.817 -3.60598 4.40406 0
M  V30 2257 N 213.019 -4.93763 3.05251 0
M  V30 2258 H 215.784 -0.871609 2.86746 0
M  V30 2259 H 213.345 -0.32972 1.58507 0
M  V30 2260 H 215.337 -3.33623 2.2908 0
M  V30 2261 H 213.907 -2.81111 1.36731 0
M  V30 2262 H 213.127 -1.6651 3.57307 0
M  V30 2263 H 214.415 -2.56377 4.39486 0
M  V30 2264 H 213.813 -5.09209 2.46419 0
M  V30 2265 H 212.37 -5.68949 3.18026 0
M  V30 2266 N 215.803 -1.52179 -0.40978 0
M  V30 2267 C 217.033 -1.69807 -1.17682 0
M  V30 2268 C 217.441 -0.406908 -1.84773 0
M  V30 2269 O 216.784 0.626863 -1.72673 0
M  V30 2270 C 216.846 -2.77712 -2.2829 0
M  V30 2271 C 216.51 -4.19481 -1.81341 0
M  V30 2272 C 217.507 -5.03345 -1.30154 0
M  V30 2273 C 215.192 -4.65713 -1.88194 0
M  V30 2274 C 217.186 -6.31511 -0.864416 0
M  V30 2275 C 214.873 -5.93869 -1.44093 0
M  V30 2276 C 215.871 -6.76597 -0.933023 0
M  V30 2277 O 215.559 -8.02354 -0.49838 0
M  V30 2278 H 215.291 -0.572372 -0.359675 0
M  V30 2279 H 217.845 -1.99511 -0.488311 0
M  V30 2280 H 216.075 -2.43383 -3.00502 0
M  V30 2281 H 217.764 -2.83946 -2.90051 0
M  V30 2282 H 218.53 -4.68819 -1.24232 0
M  V30 2283 H 214.409 -4.01424 -2.26671 0
M  V30 2284 H 217.953 -6.96033 -0.467286 0
M  V30 2285 H 213.85 -6.27903 -1.49694 0
M  V30 2286 H 214.618 -8.16135 -0.621747 0
M  V30 2287 N 217.281 0.66697 -1.42791 0
M  V30 2288 C 218.214 1.79177 -1.41318 0
M  V30 2289 C 219.192 1.60234 -0.276401 0
M  V30 2290 O 220.376 1.82602 -0.46785 0
M  V30 2291 C 217.503 3.16289 -1.21157 0
M  V30 2292 C 216.549 3.53964 -2.37932 0
M  V30 2293 S 217.382 3.55501 -4.00474 0
M  V30 2294 C 218.538 4.95292 -3.8267 0
M  V30 2295 H 218.771 1.80153 -2.365 0
M  V30 2296 H 216.304 0.838357 -1.29657 0
M  V30 2297 H 218.262 3.95428 -1.10212 0
M  V30 2298 H 216.923 3.1289 -0.275481 0
M  V30 2299 H 216.116 4.53646 -2.19594 0
M  V30 2300 H 215.718 2.82204 -2.45432 0
M  V30 2301 H 218.01 5.83584 -3.44145 0
M  V30 2302 H 218.953 5.18679 -4.82055 0
M  V30 2303 H 219.361 4.68179 -3.15386 0
M  V30 2304 N 218.759 1.29093 0.90403 0
M  V30 2305 C 219.989 1.19516 1.68522 0
M  V30 2306 C 220.397 -0.24738 1.87576 0
M  V30 2307 O 219.74 -1.17798 1.40959 0
M  V30 2308 C 219.802 1.83249 3.0929 0
M  V30 2309 C 219.466 3.32531 3.13484 0
M  V30 2310 C 220.463 4.28821 2.93953 0
M  V30 2311 C 218.148 3.73656 3.35688 0
M  V30 2312 C 220.142 5.64212 2.96553 0
M  V30 2313 C 217.829 5.0917 3.37919 0
M  V30 2314 C 218.827 6.04258 3.18373 0
M  V30 2315 O 218.515 7.37298 3.20385 0
M  V30 2316 H 218.247 0.415467 0.533257 0
M  V30 2317 H 220.801 1.70912 1.13922 0
M  V30 2318 H 219.031 1.26358 3.65473 0
M  V30 2319 H 220.72 1.68054 3.69476 0
M  V30 2320 H 221.486 3.98382 2.76616 0
M  V30 2321 H 217.365 3.00101 3.49943 0
M  V30 2322 H 220.909 6.38407 2.81216 0
M  V30 2323 H 216.806 5.39256 3.54787 0
M  V30 2324 H 217.574 7.46048 3.36681 0
M  V30 2325 N 220.237 -1.11381 1.11499 0
M  V30 2326 C 221.167 -2.19509 0.796125 0
M  V30 2327 C 222.148 -1.68458 -0.235796 0
M  V30 2328 O 223.333 -1.93947 -0.0991344 0
M  V30 2329 C 220.463 -3.46475 0.239205 0
M  V30 2330 C 219.417 -4.10744 1.20307 0
M  V30 2331 C 218.743 -5.32293 0.50683 0
M  V30 2332 C 220.043 -4.55597 2.55399 0
M  V30 2333 H 221.737 -2.46439 1.70024 0
M  V30 2334 H 219.283 -1.18446 0.818935 0
M  V30 2335 H 221.236 -4.214 0.00392006 0
M  V30 2336 H 219.96 -3.19006 -0.700206 0
M  V30 2337 H 218.619 -3.37813 1.42399 0
M  V30 2338 H 218.267 -5.01095 -0.437408 0
M  V30 2339 H 217.967 -5.76243 1.1497 0
M  V30 2340 H 219.491 -6.09956 0.280351 0
M  V30 2341 H 220.905 -5.21841 2.37391 0
M  V30 2342 H 219.302 -5.10363 3.15673 0
M  V30 2343 H 220.372 -3.69013 3.14575 0
M  V30 2344 N 221.715 -0.905404 -1.28997 0
M  V30 2345 C 222.645 -0.404212 -2.29975 0
M  V30 2346 C 223.626 0.523784 -1.61835 0
M  V30 2347 O 224.811 0.433298 -1.89304 0
M  V30 2348 C 221.941 0.364042 -3.45387 0
M  V30 2349 C 220.895 -0.474048 -4.25367 0
M  V30 2350 C 220.221 0.422045 -5.33032 0
M  V30 2351 C 221.521 -1.72696 -4.92923 0
M  V30 2352 H 223.215 -1.24807 -2.72146 0
M  V30 2353 H 220.761 -0.601585 -1.30832 0
M  V30 2354 H 222.714 0.725447 -4.15109 0
M  V30 2355 H 221.438 1.24174 -3.02074 0
M  V30 2356 H 220.097 -0.81786 -3.57361 0
M  V30 2357 H 219.745 1.29804 -4.85963 0
M  V30 2358 H 219.445 -0.135057 -5.87445 0
M  V30 2359 H 220.969 0.779517 -6.05604 0
M  V30 2360 H 222.383 -1.43495 -5.55051 0
M  V30 2361 H 220.78 -2.22582 -5.57295 0
M  V30 2362 H 221.85 -2.45964 -4.17887 0
M  V30 2363 N 223.193 1.4272 -0.668489 0
M  V30 2364 C 224.14 2.30796 0.0137489 0
M  V30 2365 C 225.11 1.4561 0.799177 0
M  V30 2366 O 226.295 1.74453 0.772702 0
M  V30 2367 C 223.435 3.31377 0.963507 0
M  V30 2368 C 222.548 4.31655 0.172569 0
M  V30 2369 C 221.683 5.19312 1.1175 0
M  V30 2370 C 220.722 6.11274 0.317886 0
M  V30 2371 N 219.859 6.91504 1.2152 0
M  V30 2372 H 224.699 2.88585 -0.743161 0
M  V30 2373 H 222.236 1.42154 -0.378226 0
M  V30 2374 H 224.194 3.88214 1.52792 0
M  V30 2375 H 222.824 2.75202 1.68712 0
M  V30 2376 H 221.876 3.76988 -0.508374 0
M  V30 2377 H 223.188 4.96779 -0.448527 0
M  V30 2378 H 222.342 5.80851 1.75206 0
M  V30 2379 H 221.081 4.5435 1.77249 0
M  V30 2380 H 220.086 5.48809 -0.329918 0
M  V30 2381 H 221.311 6.78283 -0.332917 0
M  V30 2382 H 219.257 6.29176 1.85671 0
M  V30 2383 H 219.174 7.53209 0.649036 0
M  V30 2384 H 220.442 7.57535 1.83742 0
M  V30 2385 N 224.671 0.411399 1.52136 0
M  V30 2386 C 225.948 -0.222308 1.94333 0
M  V30 2387 C 226.328 -1.6242 1.34844 0
M  V30 2388 O 225.676 -2.22384 0.525145 0
M  V30 2389 C 225.886 -0.226345 3.48265 0
M  V30 2390 C 227.234 -0.444592 4.22266 0
M  V30 2391 O 228.258 -0.305602 3.54887 0
M  V30 2392 O 227.117 -0.718749 5.41753 0
M  V30 2393 H 224.211 -0.143907 0.814383 0
M  V30 2394 H 226.757 0.467506 1.63133 0
M  V30 2395 H 225.529 0.75475 3.83952 0
M  V30 2396 H 225.152 -0.960163 3.85832 0
M  V30 2397 N 226.149 -1.5696 0.141893 0
M  V30 2398 C 227.079 -2.19516 -0.795936 0
M  V30 2399 C 228.06 -1.14187 -1.26077 0
M  V30 2400 O 229.245 -1.42511 -1.31925 0
M  V30 2401 C 226.375 -2.81272 -2.03723 0
M  V30 2402 C 225.329 -3.92384 -1.70936 0
M  V30 2403 C 224.655 -4.41052 -3.02287 0
M  V30 2404 C 225.955 -5.13403 -0.959954 0
M  V30 2405 H 227.649 -2.98138 -0.274596 0
M  V30 2406 H 225.195 -1.43406 -0.130636 0
M  V30 2407 H 227.148 -3.237 -2.69808 0
M  V30 2408 H 225.872 -1.99973 -2.58221 0
M  V30 2409 H 224.531 -3.50566 -1.07232 0
M  V30 2410 H 224.179 -3.56582 -3.54765 0
M  V30 2411 H 223.879 -5.15993 -2.81114 0
M  V30 2412 H 225.403 -4.86146 -3.69451 0
M  V30 2413 H 226.817 -5.52706 -1.52279 0
M  V30 2414 H 225.214 -5.94073 -0.848357 0
M  V30 2415 H 226.284 -4.84875 0.0492434 0
M  V30 2416 N 227.627 0.131896 -1.57047 0
M  V30 2417 C 228.873 0.838268 -1.85323 0
M  V30 2418 C 229.228 1.78098 -0.727937 0
M  V30 2419 O 228.521 1.89645 0.27304 0
M  V30 2420 C 228.715 1.63703 -3.17704 0
M  V30 2421 C 228.544 0.773167 -4.43004 0
M  V30 2422 C 227.314 0.432956 -5.03442 0
M  V30 2423 C 229.512 0.0966216 -5.14209 0
M  V30 2424 N 227.494 -0.442924 -6.123 0
M  V30 2425 C 228.865 -0.638778 -6.16701 0
M  V30 2426 C 230.92 0.018861 -4.97896 0
M  V30 2427 C 229.623 -1.44462 -7.04644 0
M  V30 2428 C 231.649 -0.773762 -5.86316 0
M  V30 2429 C 231.011 -1.4974 -6.883 0
M  V30 2430 H 227.11 0.284086 -0.728573 0
M  V30 2431 H 229.694 0.102731 -1.94429 0
M  V30 2432 H 227.865 2.3437 -3.09718 0
M  V30 2433 H 229.597 2.28774 -3.33833 0
M  V30 2434 H 226.352 0.772237 -4.67262 0
M  V30 2435 H 226.776 -0.872332 -6.71356 0
M  V30 2436 H 231.418 0.56397 -4.19022 0
M  V30 2437 H 229.136 -2.00093 -7.82936 0
M  V30 2438 H 232.722 -0.83612 -5.75761 0
M  V30 2439 H 231.602 -2.10087 -7.55535 0
M  V30 2440 N 229.106 1.52395 0.401703 0
M  V30 2441 C 230.038 1.72505 1.50912 0
M  V30 2442 C 231.051 0.605468 1.51122 0
M  V30 2443 O 232.24 0.880828 1.55254 0
M  V30 2444 C 229.34 1.75711 2.89791 0
M  V30 2445 C 228.513 3.04824 3.1369 0
M  V30 2446 C 227.572 2.99743 4.32482 0
M  V30 2447 O 226.598 3.73635 4.29402 0
M  V30 2448 N 227.8 2.18047 5.37992 0
M  V30 2449 H 230.565 2.68049 1.34052 0
M  V30 2450 H 228.126 1.50724 0.591084 0
M  V30 2451 H 230.118 1.69834 3.6734 0
M  V30 2452 H 228.688 0.876092 3.00072 0
M  V30 2453 H 227.908 3.2429 2.24119 0
M  V30 2454 H 229.196 3.90221 3.26504 0
M  V30 2455 H 228.594 1.57456 5.43345 0
M  V30 2456 H 227.151 2.18021 6.14256 0
M  V30 2457 N 230.584 -0.659388 1.43143 0
M  V30 2458 C 231.531 -1.77249 1.47822 0
M  V30 2459 C 232.501 -1.62818 0.328558 0
M  V30 2460 O 233.686 -1.83151 0.534838 0
M  V30 2461 C 230.826 -3.15371 1.40126 0
M  V30 2462 C 229.939 -3.4098 2.65249 0
M  V30 2463 C 229.074 -4.68915 2.49584 0
M  V30 2464 C 228.113 -4.87608 3.70006 0
M  V30 2465 N 227.25 -6.06796 3.53189 0
M  V30 2466 H 232.09 -1.72584 2.42938 0
M  V30 2467 H 229.627 -0.842297 1.20598 0
M  V30 2468 H 231.585 -3.9521 1.33659 0
M  V30 2469 H 230.215 -3.19121 0.485964 0
M  V30 2470 H 229.267 -2.55282 2.8202 0
M  V30 2471 H 230.579 -3.50681 3.54717 0
M  V30 2472 H 229.733 -5.56871 2.4079 0
M  V30 2473 H 228.472 -4.61524 1.5763 0
M  V30 2474 H 227.477 -3.9809 3.79215 0
M  V30 2475 H 228.702 -4.96834 4.62961 0
M  V30 2476 H 226.648 -6.00549 2.63965 0
M  V30 2477 H 226.565 -6.17428 4.36255 0
M  V30 2478 H 227.833 -6.9739 3.48236 0
M  V30 2479 N 232.062 -1.29571 -0.897171 0
M  V30 2480 C 233.478 -1.07637 -1.17841 0
M  V30 2481 C 233.678 0.170713 -2.00776 0
M  V30 2482 O 232.734 0.867768 -2.3712 0
M  V30 2483 C 234.047 -2.3332 -1.8969 0
M  V30 2484 C 235.595 -2.38664 -2.02505 0
M  V30 2485 C 236.07 -3.64157 -2.77765 0
M  V30 2486 N 237.561 -3.64894 -2.85318 0
M  V30 2487 C 238.296 -4.58679 -3.44094 0
M  V30 2488 N 237.792 -5.62799 -4.04017 0
M  V30 2489 N 239.585 -4.46245 -3.41793 0
M  V30 2490 H 231.736 -2.09598 -0.343883 0
M  V30 2491 H 233.999 -0.923333 -0.214848 0
M  V30 2492 H 233.705 -3.24262 -1.36187 0
M  V30 2493 H 233.579 -2.41025 -2.9015 0
M  V30 2494 H 235.966 -1.48208 -2.55183 0
M  V30 2495 H 236.047 -2.34943 -1.01171 0
M  V30 2496 H 235.691 -4.54965 -2.25763 0
M  V30 2497 H 235.621 -3.65137 -3.7945 0
M  V30 2498 H 238.112 -2.89613 -2.42761 0
M  V30 2499 H 238.425 -6.3048 -4.46895 0
M  V30 2500 H 236.77 -5.66605 -4.02472 0
M  V30 2501 H 239.961 -3.64094 -2.94199 0
M  V30 2502 H 240.134 -5.19518 -3.87304 0
M  V30 2503 N 233.54 1.10788 -1.12088 0
M  V30 2504 C 234.472 2.16816 -0.743213 0
M  V30 2505 C 235.485 1.6119 0.228412 0
M  V30 2506 O 236.674 1.78497 0.0102931 0
M  V30 2507 C 233.774 3.38809 -0.0787313 0
M  V30 2508 C 232.947 4.23885 -1.0789 0
M  V30 2509 C 232.006 5.24334 -0.442713 0
M  V30 2510 O 231.032 5.58497 -1.09864 0
M  V30 2511 N 232.234 5.75079 0.791457 0
M  V30 2512 H 234.999 2.49825 -1.65552 0
M  V30 2513 H 232.56 1.26373 -1.012 0
M  V30 2514 H 234.552 4.03107 0.358766 0
M  V30 2515 H 233.122 3.03805 0.736275 0
M  V30 2516 H 232.342 3.55939 -1.69414 0
M  V30 2517 H 233.63 4.77562 -1.75533 0
M  V30 2518 H 233.028 5.49517 1.3434 0
M  V30 2519 H 231.585 6.4118 1.17183 0
M  V30 2520 N 235.018 0.912232 1.28515 0
M  V30 2521 C 235.965 0.397954 2.27343 0
M  V30 2522 C 236.935 -0.526766 1.57526 0
M  V30 2523 O 238.12 -0.449292 1.85435 0
M  V30 2524 C 235.26 -0.357263 3.43246 0
M  V30 2525 C 234.373 0.599788 4.27816 0
M  V30 2526 C 233.508 -0.173725 5.30916 0
M  V30 2527 C 232.547 0.777039 6.07148 0
M  V30 2528 N 231.684 0.0371398 7.0209 0
M  V30 2529 H 236.524 1.24577 2.70711 0
M  V30 2530 H 234.061 0.625612 1.33133 0
M  V30 2531 H 236.019 -0.8113 4.09236 0
M  V30 2532 H 234.649 -1.16943 3.00872 0
M  V30 2533 H 233.701 1.17235 3.61884 0
M  V30 2534 H 235.013 1.32704 4.80823 0
M  V30 2535 H 234.167 -0.688394 6.02782 0
M  V30 2536 H 232.906 -0.934041 4.78672 0
M  V30 2537 H 231.911 1.3031 5.34134 0
M  V30 2538 H 233.136 1.53689 6.61481 0
M  V30 2539 H 231.082 -0.705213 6.52198 0
M  V30 2540 H 230.999 0.704249 7.52713 0
M  V30 2541 H 232.267 -0.457383 7.78157 0
M  V30 2542 N 236.496 -1.42363 0.676048 0
M  V30 2543 C 237.428 -2.29164 -0.0404605 0
M  V30 2544 C 238.441 -1.43747 -0.764245 0
M  V30 2545 O 239.63 -1.67453 -0.618195 0
M  V30 2546 C 236.73 -3.21196 -1.08103 0
M  V30 2547 C 235.903 -4.35273 -0.430812 0
M  V30 2548 C 234.962 -5.08017 -1.37133 0
M  V30 2549 O 233.988 -5.62494 -0.87116 0
M  V30 2550 N 235.19 -5.13647 -2.70456 0
M  V30 2551 H 237.955 -2.91298 0.704667 0
M  V30 2552 H 235.516 -1.53303 0.520559 0
M  V30 2553 H 237.508 -3.66728 -1.71152 0
M  V30 2554 H 236.078 -2.60505 -1.72788 0
M  V30 2555 H 235.298 -3.92372 0.379209 0
M  V30 2556 H 236.586 -5.08795 0.0221132 0
M  V30 2557 H 235.984 -4.708 -3.1363 0
M  V30 2558 H 234.541 -5.62821 -3.28749 0
M  V30 2559 N 237.974 -0.419461 -1.51915 0
M  V30 2560 C 239.22 0.153166 -2.02221 0
M  V30 2561 C 239.553 1.43907 -1.30401 0
M  V30 2562 O 238.828 1.90055 -0.413438 0
M  V30 2563 C 239.111 0.390291 -3.57979 0
M  V30 2564 C 238.964 -0.913014 -4.40436 0
M  V30 2565 C 240.283 1.16794 -4.2432 0
M  V30 2566 H 237.402 0.0541924 -0.735005 0
M  V30 2567 H 240.044 -0.554955 -1.81715 0
M  V30 2568 H 238.194 0.993491 -3.75582 0
M  V30 2569 H 239.866 -1.54882 -4.34522 0
M  V30 2570 H 238.109 -1.52168 -4.06236 0
M  V30 2571 H 238.78 -0.701361 -5.47526 0
M  V30 2572 H 241.256 0.657161 -4.10878 0
M  V30 2573 H 240.132 1.3026 -5.3322 0
M  V30 2574 H 240.393 2.19132 -3.83971 0
M  V30 2575 N 239.452 1.56882 -0.150215 0
M  V30 2576 C 240.399 2.16922 0.788244 0
M  V30 2577 C 241.369 1.10303 1.24187 0
M  V30 2578 O 242.554 1.38359 1.31383 0
M  V30 2579 C 239.694 2.79754 2.02068 0
M  V30 2580 C 238.807 4.00775 1.61257 0
M  V30 2581 C 237.942 4.51595 2.79705 0
M  V30 2582 C 236.981 5.65074 2.35282 0
M  V30 2583 N 236.118 6.10499 3.4675 0
M  V30 2584 H 240.958 2.96779 0.269444 0
M  V30 2585 H 238.495 1.46599 0.12128 0
M  V30 2586 H 240.453 3.14329 2.74323 0
M  V30 2587 H 239.083 2.02536 2.51354 0
M  V30 2588 H 238.135 3.72158 0.787553 0
M  V30 2589 H 239.447 4.82978 1.24633 0
M  V30 2590 H 238.601 4.88242 3.60145 0
M  V30 2591 H 237.34 3.68406 3.19576 0
M  V30 2592 H 236.345 5.28 1.53283 0
M  V30 2593 H 237.57 6.50052 1.96493 0
M  V30 2594 H 235.516 5.30243 3.86236 0
M  V30 2595 H 235.433 6.87637 3.14152 0
M  V30 2596 H 236.701 6.51791 4.27537 0
M  V30 2597 N 240.93 -0.123565 1.57115 0
M  V30 2598 C 242.207 -0.862196 1.75572 0
M  V30 2599 C 242.587 -1.98279 0.724475 0
M  V30 2600 O 241.935 -2.27102 -0.252407 0
M  V30 2601 C 242.145 -1.38309 3.20424 0
M  V30 2602 C 243.493 -1.83724 3.82793 0
M  V30 2603 O 244.517 -1.47999 3.23998 0
M  V30 2604 O 243.376 -2.49685 4.86127 0
M  V30 2605 H 240.47 -0.409113 0.718718 0
M  V30 2606 H 243.016 -0.107661 1.69358 0
M  V30 2607 H 241.788 -0.578889 3.86994 0
M  V30 2608 H 241.411 -2.20046 3.31158 0
M  V30 2609 N 242.408 -1.52605 -0.393616 0
M  V30 2610 C 243.356 -1.77688 -1.50099 0
M  V30 2611 C 244.35 -0.644615 -1.56656 0
M  V30 2612 O 245.556 -0.826997 -1.59877 0
M  V30 2613 H 241.931 -0.562159 -0.499481 0
M  V30 2614 H 243.902 -2.7043 -1.26135 0
M  V30 2615 C 242.651 -1.95858 -2.87289 0
M  V30 2616 H 241.974 -2.8241 -2.82992 0
M  V30 2617 H 243.414 -2.174 -3.64024 0
M  V30 2618 C 241.873 -0.729848 -3.28899 0
M  V30 2619 O 242.403 0.0949217 -4.01588 0
M  V30 2620 N 240.609 -0.561283 -2.85128 0
M  V30 2621 H 240.156 -1.23357 -2.26143 0
M  V30 2622 H 240.114 0.2595 -3.13327 0
M  V30 2623 N 243.887 0.651787 -1.4349 0
M  V30 2624 C 244.797 1.79368 -1.5121 0
M  V30 2625 C 245.813 1.69361 -0.399093 0
M  V30 2626 O 246.989 1.90505 -0.653431 0
M  V30 2627 C 244.054 3.15653 -1.43401 0
M  V30 2628 C 243.115 3.37446 -2.65384 0
M  V30 2629 C 242.348 4.67229 -2.57939 0
M  V30 2630 O 242.571 5.46676 -1.62792 0
M  V30 2631 O 241.505 4.90773 -3.48462 0
M  V30 2632 H 245.331 1.7581 -2.47638 0
M  V30 2633 H 242.916 0.810447 -1.25507 0
M  V30 2634 H 244.798 3.96935 -1.41494 0
M  V30 2635 H 243.473 3.19798 -0.501085 0
M  V30 2636 H 242.38 2.55923 -2.72863 0
M  V30 2637 H 243.713 3.38148 -3.57654 0
M  V30 2638 N 245.365 1.30045 0.890287 0
M  V30 2639 C 246.313 1.15873 2.01683 0
M  V30 2640 C 247.307 0.0719403 1.69247 0
M  V30 2641 O 248.513 0.232414 1.78493 0
M  V30 2642 H 244.888 0.358203 0.661207 0
M  V30 2643 H 246.859 2.11229 2.10772 0
M  V30 2644 C 245.608 0.861842 3.36849 0
M  V30 2645 H 244.931 1.69016 3.62317 0
M  V30 2646 H 246.371 0.802762 4.16331 0
M  V30 2647 C 244.83 -0.435132 3.34078 0
M  V30 2648 O 245.36 -1.4583 3.74295 0
M  V30 2649 N 243.566 -0.444377 2.87182 0
M  V30 2650 H 243.113 0.388723 2.5465 0
M  V30 2651 H 243.071 -1.31213 2.85711 0
M  V30 2652 N 246.843 -1.10192 1.12674 0
M  V30 2653 C 248.089 -1.82475 0.884915 0
M  V30 2654 C 248.422 -1.85093 -0.58773 0
M  V30 2655 O 247.697 -1.3134 -1.43457 0
M  V30 2656 C 247.98 -3.29018 1.46353 0
M  V30 2657 C 247.833 -3.34718 3.00473 0
M  V30 2658 C 249.152 -4.25473 1.12519 0
M  V30 2659 H 246.271 -0.662492 0.322915 0
M  V30 2660 H 248.913 -1.2913 1.39375 0
M  V30 2661 H 247.063 -3.74576 1.03077 0
M  V30 2662 H 248.735 -2.97622 3.52447 0
M  V30 2663 H 246.978 -2.74541 3.35872 0
M  V30 2664 H 247.649 -4.37918 3.36053 0
M  V30 2665 H 250.125 -3.88161 1.499 0
M  V30 2666 H 249.001 -5.26365 1.55663 0
M  V30 2667 H 249.262 -4.42084 0.0377407 0
M  V30 2668 N 248.321 -0.919034 -1.28029 0
M  V30 2669 C 249.567 -0.555757 -1.95036 0
M  V30 2670 C 249.9 0.899198 -1.72128 0
M  V30 2671 O 249.175 1.64023 -1.04531 0
M  V30 2672 C 249.458 -0.872024 -3.49382 0
M  V30 2673 C 249.311 -2.3801 -3.81669 0
M  V30 2674 C 250.63 -0.37185 -4.38526 0
M  V30 2675 H 247.749 -0.203386 -0.708381 0
M  V30 2676 H 250.391 -1.14924 -1.51303 0
M  V30 2677 H 248.541 -0.366946 -3.86763 0
M  V30 2678 H 250.213 -2.9562 -3.54128 0
M  V30 2679 H 248.456 -2.83289 -3.28526 0
M  V30 2680 H 249.127 -2.55192 -4.8947 0
M  V30 2681 H 251.603 -0.804602 -4.08247 0
M  V30 2682 H 250.479 -0.622173 -5.45362 0
M  V30 2683 H 250.74 0.727934 -4.36066 0
M  V30 2684 N 249.799 1.42003 -0.683588 0
M  V30 2685 C 250.747 2.326 0.000815408 0
M  V30 2686 C 251.741 1.50308 0.781278 0
M  V30 2687 O 252.947 1.66322 0.688251 0
M  V30 2688 H 249.322 0.751758 0.0190616 0
M  V30 2689 H 251.293 2.88011 -0.780528 0
M  V30 2690 C 250.042 3.34978 0.93195 0
M  V30 2691 H 249.365 3.98345 0.340817 0
M  V30 2692 H 250.805 4.00936 1.37936 0
M  V30 2693 C 249.264 2.67925 2.04249 0
M  V30 2694 O 249.794 2.51788 3.12995 0
M  V30 2695 N 248 2.2681 1.81675 0
M  V30 2696 H 247.547 2.40135 0.932363 0
M  V30 2697 H 247.505 1.8228 2.56167 0
M  V30 2698 N 251.277 0.427512 1.51691 0
M  V30 2699 C 252.187 -0.39527 2.31246 0
M  V30 2700 C 253.203 -1.03674 1.39742 0
M  V30 2701 O 254.379 -1.03425 1.72816 0
M  V30 2702 C 251.444 -1.48706 3.13189 0
M  V30 2703 C 250.505 -0.866743 4.20459 0
M  V30 2704 C 249.738 -1.90651 4.98486 0
M  V30 2705 O 249.961 -3.12733 4.77026 0
M  V30 2706 O 248.895 -1.5025 5.82845 0
M  V30 2707 H 252.721 0.253918 3.02637 0
M  V30 2708 H 250.306 0.190274 1.48183 0
M  V30 2709 H 252.188 -2.12047 3.64162 0
M  V30 2710 H 250.863 -2.12051 2.44573 0
M  V30 2711 H 249.77 -0.195544 3.73589 0
M  V30 2712 H 251.103 -0.276934 4.9142 0
M  V30 2713 N 252.755 -1.56801 0.158532 0
M  V30 2714 C 253.985 -2.00568 -0.495583 0
M  V30 2715 C 254.393 -1.03774 -1.58201 0
M  V30 2716 O 253.736 -0.0285797 -1.83678 0
M  V30 2717 C 253.798 -3.40768 -1.14532 0
M  V30 2718 C 253.462 -4.56553 -0.202101 0
M  V30 2719 C 254.459 -5.16714 0.574675 0
M  V30 2720 C 252.144 -5.02197 -0.101648 0
M  V30 2721 C 254.138 -6.20939 1.43924 0
M  V30 2722 C 251.825 -6.06274 0.766508 0
M  V30 2723 C 252.823 -6.65515 1.53555 0
M  V30 2724 O 252.511 -7.67575 2.38922 0
M  V30 2725 H 252.243 -0.662893 -0.13247 0
M  V30 2726 H 254.797 -2.03829 0.253559 0
M  V30 2727 H 253.027 -3.34381 -1.94233 0
M  V30 2728 H 254.716 -3.6857 -1.70033 0
M  V30 2729 H 255.482 -4.82341 0.507167 0
M  V30 2730 H 251.361 -4.55807 -0.689994 0
M  V30 2731 H 254.905 -6.67107 2.03996 0
M  V30 2732 H 250.802 -6.40073 0.835266 0
M  V30 2733 H 251.57 -7.84844 2.32296 0
M  V30 2734 N 254.233 0.115231 -1.57178 0
M  V30 2735 C 255.458 0.840354 -1.89612 0
M  V30 2736 C 255.883 1.72464 -0.750845 0
M  V30 2737 O 255.241 1.78826 0.298478 0
M  V30 2738 C 255.289 1.64654 -3.20814 0
M  V30 2739 O 254.393 2.7538 -3.06985 0
M  V30 2740 H 253.734 0.232158 -0.622092 0
M  V30 2741 H 256.264 0.0964977 -2.04372 0
M  V30 2742 H 256.274 2.03499 -3.53627 0
M  V30 2743 H 254.949 0.997416 -4.03763 0
M  V30 2744 H 253.526 2.3971 -2.85646 0
M  V30 2745 N 255.711 1.52812 0.385517 0
M  V30 2746 C 256.936 1.72207 1.15583 0
M  V30 2747 C 257.361 0.441034 1.82857 0
M  V30 2748 O 256.719 -0.603465 1.70962 0
M  V30 2749 C 256.767 2.87476 2.17692 0
M  V30 2750 O 255.871 2.54693 3.24354 0
M  V30 2751 H 255.212 0.572526 0.336319 0
M  V30 2752 H 257.742 1.99618 0.448744 0
M  V30 2753 H 257.752 3.13072 2.6163 0
M  V30 2754 H 256.427 3.80408 1.68115 0
M  V30 2755 H 255.004 2.3985 2.85529 0
M  V30 2756 N 257.189 -0.644168 1.43834 0
M  V30 2757 C 258.099 -1.78563 1.52159 0
M  V30 2758 C 259.115 -1.69147 0.408069 0
M  V30 2759 O 260.291 -1.90156 0.663524 0
M  V30 2760 C 257.356 -3.14888 1.45073 0
M  V30 2761 C 256.417 -3.36034 2.6717 0
M  V30 2762 C 255.65 -4.65855 2.60413 0
M  V30 2763 O 255.873 -5.45805 1.65689 0
M  V30 2764 O 254.807 -4.88918 3.5106 0
M  V30 2765 H 258.633 -1.74494 2.48567 0
M  V30 2766 H 256.218 -0.80378 1.25935 0
M  V30 2767 H 258.1 -3.96179 1.43597 0
M  V30 2768 H 256.775 -3.19528 0.518037 0
M  V30 2769 H 255.682 -2.54472 2.74217 0
M  V30 2770 H 257.015 -3.36247 3.59442 0
M  V30 2771 N 258.668 -1.30515 -0.883378 0
M  V30 2772 C 259.598 -1.19607 -2.00541 0
M  V30 2773 C 260.579 -0.086346 -1.69881 0
M  V30 2774 O 261.764 -0.268654 -1.92333 0
M  V30 2775 C 258.894 -0.888758 -3.35736 0
M  V30 2776 C 257.848 -1.95659 -3.8066 0
M  V30 2777 C 257.174 -1.50224 -5.13164 0
M  V30 2778 C 258.474 -3.36788 -3.99213 0
M  V30 2779 H 260.168 -2.13476 -2.09925 0
M  V30 2780 H 257.714 -1.02775 -1.00863 0
M  V30 2781 H 259.667 -0.799094 -4.13754 0
M  V30 2782 H 258.391 0.0856125 -3.26488 0
M  V30 2783 H 257.05 -2.03591 -3.04871 0
M  V30 2784 H 256.698 -0.516092 -5.00345 0
M  V30 2785 H 256.398 -2.2165 -5.44192 0
M  V30 2786 H 257.922 -1.42639 -5.93706 0
M  V30 2787 H 259.336 -3.31605 -4.67665 0
M  V30 2788 H 257.733 -4.06314 -4.41621 0
M  V30 2789 H 258.803 -3.78561 -3.03017 0
M  V30 2790 N 260.146 1.09593 -1.13257 0
M  V30 2791 C 261.056 2.19739 -0.821691 0
M  V30 2792 C 262.072 1.72926 0.19302 0
M  V30 2793 O 263.248 2.01385 0.0244895 0
M  V30 2794 C 260.313 3.45482 -0.290333 0
M  V30 2795 C 259.374 4.06985 -1.36607 0
M  V30 2796 C 258.607 5.26726 -0.859975 0
M  V30 2797 O 258.83 5.69594 0.303082 0
M  V30 2798 O 257.764 5.7931 -1.63351 0
M  V30 2799 H 261.59 2.48781 -1.74189 0
M  V30 2800 H 259.175 1.18496 -0.909894 0
M  V30 2801 H 261.057 4.214 0.000674022 0
M  V30 2802 H 259.732 3.18047 0.602306 0
M  V30 2803 H 258.639 3.32712 -1.71037 0
M  V30 2804 H 259.972 4.38643 -2.23279 0
M  V30 2805 N 261.624 0.925811 1.2754 0
M  V30 2806 C 262.571 0.422045 2.26908 0
M  V30 2807 C 263.541 -0.510029 1.58076 0
M  V30 2808 O 264.726 -0.429599 1.85901 0
M  V30 2809 C 261.866 -0.320837 3.43605 0
M  V30 2810 C 260.979 0.64513 4.27156 0
M  V30 2811 C 260.114 -0.117405 5.3107 0
M  V30 2812 C 259.153 0.841391 6.0629 0
M  V30 2813 N 258.29 0.111604 7.02011 0
M  V30 2814 H 263.13 1.27441 2.69375 0
M  V30 2815 H 260.667 0.639697 1.32462 0
M  V30 2816 H 262.625 -0.76785 4.10073 0
M  V30 2817 H 261.255 -1.13745 3.02096 0
M  V30 2818 H 260.307 1.21067 3.6062 0
M  V30 2819 H 261.619 1.37797 4.79389 0
M  V30 2820 H 260.773 -0.624422 6.03478 0
M  V30 2821 H 259.512 -0.883219 4.79636 0
M  V30 2822 H 258.517 1.35967 5.32722 0
M  V30 2823 H 259.742 1.60696 6.59813 0
M  V30 2824 H 257.688 -0.635999 6.5291 0
M  V30 2825 H 257.605 0.784044 7.51923 0
M  V30 2826 H 258.873 -0.374823 7.78598 0
M  V30 2827 N 263.102 -1.41638 0.69111 0
M  V30 2828 C 264.052 -2.28 -0.000107832 0
M  V30 2829 C 265.036 -1.41964 -0.757304 0
M  V30 2830 O 266.228 -1.65274 -0.633532 0
M  V30 2831 C 263.357 -3.30209 -0.938983 0
M  V30 2832 C 262.443 -4.23725 -0.17827 0
M  V30 2833 N 262.834 -4.99017 0.825563 0
M  V30 2834 C 261.132 -4.44071 -0.414392 0
M  V30 2835 C 261.833 -5.67431 1.28052 0
M  V30 2836 N 260.809 -5.40197 0.607304 0
M  V30 2837 H 264.611 -2.83644 0.769617 0
M  V30 2838 H 262.125 -1.53797 0.521562 0
M  V30 2839 H 264.122 -3.90898 -1.44929 0
M  V30 2840 H 262.782 -2.76126 -1.70836 0
M  V30 2841 H 263.793 -5.03671 1.20566 0
M  V30 2842 H 260.47 -4.01004 -1.162 0
M  V30 2843 H 261.86 -6.37801 2.11327 0
M  V30 2844 N 264.58 -0.43555 -1.51462 0
M  V30 2845 C 265.512 0.41257 -2.25456 0
M  V30 2846 C 266.525 0.987822 -1.29406 0
M  V30 2847 O 267.714 0.882266 -1.55172 0
M  V30 2848 C 264.814 1.58894 -2.99342 0
M  V30 2849 C 263.987 1.13288 -4.22474 0
M  V30 2850 C 263.046 2.17917 -4.78956 0
M  V30 2851 O 262.072 1.77425 -5.40841 0
M  V30 2852 N 263.274 3.50382 -4.62832 0
M  V30 2853 H 266.039 -0.221603 -2.9888 0
M  V30 2854 H 263.6 -0.264342 -1.59727 0
M  V30 2855 H 265.592 2.28508 -3.34015 0
M  V30 2856 H 264.162 2.12849 -2.28941 0
M  V30 2857 H 263.382 0.263881 -3.93316 0
M  V30 2858 H 264.67 0.805542 -5.02383 0
M  V30 2859 H 264.068 3.86013 -4.13534 0
M  V30 2860 H 262.625 4.15895 -5.01871 0
M  V30 2861 N 266.058 1.56714 -0.166846 0
M  V30 2862 C 266.988 2.20754 0.760913 0
M  V30 2863 C 267.969 1.16178 1.24244 0
M  V30 2864 O 269.154 1.44592 1.29641 0
M  V30 2865 C 266.284 2.84478 1.99223 0
M  V30 2866 C 265.238 3.95053 1.64672 0
M  V30 2867 C 264.564 4.45805 2.95232 0
M  V30 2868 C 265.864 5.14865 0.878155 0
M  V30 2869 H 267.558 2.98537 0.22713 0
M  V30 2870 H 265.104 1.43596 0.107805 0
M  V30 2871 H 267.057 3.27951 2.64624 0
M  V30 2872 H 265.781 2.04056 2.55007 0
M  V30 2873 H 264.44 3.52228 1.01641 0
M  V30 2874 H 264.088 3.62181 3.49047 0
M  V30 2875 H 263.788 5.204 2.7287 0
M  V30 2876 H 265.312 4.91962 3.6167 0
M  V30 2877 H 266.726 5.55059 1.43466 0
M  V30 2878 H 265.123 5.95348 0.753738 0
M  V30 2879 H 266.193 4.84735 -0.126377 0
M  V30 2880 N 267.536 -0.106894 1.57237 0
M  V30 2881 C 268.766 -0.825191 1.89405 0
M  V30 2882 C 269.174 -1.73374 0.757496 0
M  V30 2883 O 268.517 -1.81552 -0.280115 0
M  V30 2884 C 268.579 -1.70102 3.1671 0
M  V30 2885 C 268.243 -0.965523 4.46684 0
M  V30 2886 C 269.24 -0.300741 5.19029 0
M  V30 2887 C 266.925 -0.943105 4.93367 0
M  V30 2888 C 268.919 0.376622 6.36286 0
M  V30 2889 C 266.606 -0.261949 6.10538 0
M  V30 2890 C 267.604 0.396748 6.81847 0
M  V30 2891 O 267.292 1.06701 7.96787 0
M  V30 2892 H 267.024 -0.241852 0.631255 0
M  V30 2893 H 269.578 -0.0921491 2.05193 0
M  V30 2894 H 267.808 -2.47601 2.97036 0
M  V30 2895 H 269.497 -2.29483 3.34802 0
M  V30 2896 H 270.263 -0.309599 4.84011 0
M  V30 2897 H 266.142 -1.44524 4.3776 0
M  V30 2898 H 269.686 0.891334 6.91882 0
M  V30 2899 H 265.583 -0.250896 6.45012 0
M  V30 2900 H 266.351 0.972707 8.127 0
M  V30 2901 N 269.014 -1.53014 -0.377408 0
M  V30 2902 C 270.263 -1.67845 -1.11853 0
M  V30 2903 C 270.576 -0.430625 -1.90801 0
M  V30 2904 O 271.782 -0.459261 -2.67587 0
M  V30 2905 C 270.238 -2.96668 -2.03756 0
M  V30 2906 C 269.846 -4.28671 -1.30175 0
M  V30 2907 C 271.59 -3.20865 -2.77932 0
M  V30 2908 C 269.497 -5.48591 -2.20911 0
M  V30 2909 H 268.427 -0.625343 -0.421263 0
M  V30 2910 H 271.078 -1.79514 -0.380409 0
M  V30 2911 H 269.46 -2.78773 -2.8125 0
M  V30 2912 H 270.634 -4.57157 -0.578259 0
M  V30 2913 H 268.949 -4.10825 -0.679108 0
M  V30 2914 H 271.546 -4.07642 -3.46024 0
M  V30 2915 H 271.889 -2.36424 -3.4265 0
M  V30 2916 H 272.422 -3.39379 -2.07525 0
M  V30 2917 H 269.161 -6.35474 -1.6079 0
M  V30 2918 H 268.681 -5.244 -2.91144 0
M  V30 2919 H 270.36 -5.8292 -2.80736 0
M  V30 2920 N 270.492 0.636531 -1.44174 0
M  V30 2921 C 271.769 1.39463 -1.37148 0
M  V30 2922 C 272.149 2.11082 -0.027507 0
M  V30 2923 O 271.497 2.05954 0.989716 0
M  V30 2924 C 271.707 2.36552 -2.56601 0
M  V30 2925 C 273.055 3.00048 -3.00427 0
M  V30 2926 O 274.079 2.46878 -2.56767 0
M  V30 2927 O 272.938 3.96488 -3.76111 0
M  V30 2928 H 270.032 0.623903 -0.542839 0
M  V30 2929 H 272.578 0.662039 -1.56253 0
M  V30 2930 H 271.35 1.82692 -3.46034 0
M  V30 2931 H 270.973 3.17236 -2.39681 0
M  V30 2932 N 271.97 1.30982 0.876444 0
M  V30 2933 C 272.88 1.2003 2.01569 0
M  V30 2934 C 273.896 0.11838 1.73597 0
M  V30 2935 O 275.072 0.33495 1.98595 0
M  V30 2936 C 272.137 0.901637 3.34771 0
M  V30 2937 C 271.198 2.06979 3.76109 0
M  V30 2938 C 270.431 1.78529 5.02954 0
M  V30 2939 O 270.654 0.717296 5.65872 0
M  V30 2940 O 269.588 2.64019 5.40905 0
M  V30 2941 H 273.414 2.15753 2.13739 0
M  V30 2942 H 270.999 1.10658 1.00375 0
M  V30 2943 H 272.881 0.750645 4.1466 0
M  V30 2944 H 271.556 -0.0256141 3.2369 0
M  V30 2945 H 270.463 2.27616 2.96887 0
M  V30 2946 H 271.796 2.97907 3.91807 0
M  V30 2947 N 273.449 -1.08991 1.13837 0
M  V30 2948 C 274.677 -1.85011 0.926202 0
M  V30 2949 C 275.092 -1.8135 -0.525127 0
M  V30 2950 O 274.449 -1.21287 -1.36366 0
M  V30 2951 C 274.5 -3.32802 1.41155 0
M  V30 2952 O 274.221 -3.36444 2.80601 0
M  V30 2953 C 275.722 -4.25649 1.23847 0
M  V30 2954 H 272.942 -0.584249 0.32999 0
M  V30 2955 H 275.486 -1.37688 1.51202 0
M  V30 2956 H 273.641 -3.77536 0.868631 0
M  V30 2957 H 274.055 -4.28657 3.02248 0
M  V30 2958 H 275.529 -5.27485 1.62675 0
M  V30 2959 H 276.006 -4.38828 0.18065 0
M  V30 2960 H 276.612 -3.86735 1.76964 0
M  V30 2961 N 274.927 -0.932562 -1.27047 0
M  V30 2962 C 276.173 -0.576412 -1.94436 0
M  V30 2963 C 276.506 0.880891 -1.73072 0
M  V30 2964 O 275.781 1.62905 -1.06264 0
M  V30 2965 C 276.064 -0.909031 -3.48437 0
M  V30 2966 C 275.917 -2.42044 -3.79123 0
M  V30 2967 C 277.236 -0.418341 -4.38107 0
M  V30 2968 H 274.355 -0.210888 -0.706184 0
M  V30 2969 H 276.997 -1.16522 -1.50075 0
M  V30 2970 H 275.147 -0.407947 -3.86352 0
M  V30 2971 H 276.819 -2.99359 -3.50973 0
M  V30 2972 H 275.062 -2.86758 -3.25503 0
M  V30 2973 H 275.733 -2.6037 -4.86736 0
M  V30 2974 H 278.209 -0.847856 -4.0737 0
M  V30 2975 H 277.085 -0.679981 -5.44672 0
M  V30 2976 H 277.346 0.681642 -4.36814 0
M  V30 2977 N 276.405 1.4127 -0.698611 0
M  V30 2978 C 277.353 2.32588 -0.023855 0
M  V30 2979 C 278.347 1.51128 0.765292 0
M  V30 2980 O 279.553 1.67043 0.670571 0
M  V30 2981 H 275.928 0.751918 0.0110871 0
M  V30 2982 H 277.899 2.87167 -0.811031 0
M  V30 2983 C 276.648 3.35947 0.896369 0
M  V30 2984 H 275.971 3.98684 0.298548 0
M  V30 2985 H 277.411 4.02376 1.33676 0
M  V30 2986 C 275.87 2.70076 2.01396 0
M  V30 2987 O 276.4 2.55093 3.10307 0
M  V30 2988 N 274.606 2.28724 1.79259 0
M  V30 2989 H 274.153 2.4111 0.906841 0
M  V30 2990 H 274.111 1.84986 2.54219 0
M  V30 2991 N 277.883 0.443576 1.51229 0
M  V30 2992 C 279.108 -0.121648 2.07043 0
M  V30 2993 C 279.533 -1.35156 1.30823 0
M  V30 2994 O 278.891 -1.7793 0.347934 0
M  V30 2995 C 278.939 -0.41624 3.5819 0
M  V30 2996 O 278.043 -1.50163 3.8409 0
M  V30 2997 H 277.384 0.000871367 0.663999 0
M  V30 2998 H 279.914 0.626706 1.94765 0
M  V30 2999 H 279.924 -0.664867 4.02546 0
M  V30 3000 H 278.599 0.482653 4.1309 0
M  V30 3001 H 277.176 -1.24248 3.51592 0
M  V30 3002 N 279.361 -1.56624 0.175154 0
M  V30 3003 C 280.309 -2.19468 -0.770495 0
M  V30 3004 C 281.303 -1.15985 -1.23466 0
M  V30 3005 O 282.509 -1.34176 -1.19987 0
M  V30 3006 H 278.884 -0.703095 -0.266761 0
M  V30 3007 H 280.855 -2.97613 -0.216542 0
M  V30 3008 C 279.604 -2.85264 -1.98796 0
M  V30 3009 H 278.927 -3.64623 -1.63983 0
M  V30 3010 H 280.367 -3.327 -2.62843 0
M  V30 3011 C 278.826 -1.85239 -2.81404 0
M  V30 3012 O 279.356 -1.34024 -3.78682 0
M  V30 3013 N 277.562 -1.53911 -2.46495 0
M  V30 3014 H 277.109 -1.95751 -1.67449 0
M  V30 3015 H 277.067 -0.872382 -3.02054 0
M  V30 3016 N 280.839 0.0985539 -1.57292 0
M  V30 3017 C 282.088 0.801358 -1.85098 0
M  V30 3018 C 282.401 1.80066 -0.763902 0
M  V30 3019 O 283.607 2.55112 -0.928981 0
M  V30 3020 C 282.063 1.47599 -3.28242 0
M  V30 3021 C 281.671 0.516624 -4.45011 0
M  V30 3022 C 283.415 2.16272 -3.65276 0
M  V30 3023 C 281.322 1.19564 -5.79188 0
M  V30 3024 H 280.252 0.303022 -0.69043 0
M  V30 3025 H 282.903 0.0542623 -1.8342 0
M  V30 3026 H 281.285 2.27042 -3.2445 0
M  V30 3027 H 282.459 -0.246065 -4.60143 0
M  V30 3028 H 280.774 -0.064227 -4.1635 0
M  V30 3029 H 283.371 2.67802 -4.62803 0
M  V30 3030 H 283.714 2.95009 -2.93727 0
M  V30 3031 H 284.247 1.43693 -3.70941 0
M  V30 3032 H 280.986 0.449157 -6.53959 0
M  V30 3033 H 280.506 1.92984 -5.67906 0
M  V30 3034 H 282.185 1.7231 -6.23633 0
M  V30 3035 N 282.317 1.53212 0.369288 0
M  V30 3036 C 283.728 1.60943 0.946276 0
M  V30 3037 C 284.079 0.47452 1.90375 0
M  V30 3038 O 283.204 -0.399597 2.12679 0
M  V30 3039 C 283.799 2.91715 1.72302 0
M  V30 3040 C 282.358 3.01792 2.24941 0
M  V30 3041 C 281.505 2.56211 1.06072 0
M  V30 3042 H 284.456 1.58007 0.148198 0
M  V30 3043 H 284.477 2.79309 2.58393 0
M  V30 3044 H 283.989 3.74295 1.0259 0
M  V30 3045 H 282.09 2.23791 2.97906 0
M  V30 3046 H 282.203 4.06803 2.53077 0
M  V30 3047 H 280.567 2.10998 1.4266 0
M  V30 3048 H 281.35 3.41206 0.378639 0
M  V30 3049 N 283.795 -0.628877 1.44509 0
M  V30 3050 C 285.023 -1.41554 1.50897 0
M  V30 3051 C 285.438 -1.8832 0.134564 0
M  V30 3052 O 284.795 -1.60969 -0.859965 0
M  V30 3053 C 284.846 -2.63435 2.47556 0
M  V30 3054 O 284.567 -2.18619 3.79654 0
M  V30 3055 C 286.068 -3.56537 2.63431 0
M  V30 3056 H 283.288 -0.434044 0.511709 0
M  V30 3057 H 285.832 -0.768895 1.89495 0
M  V30 3058 H 283.987 -3.24187 2.12089 0
M  V30 3059 H 284.401 -2.97652 4.31861 0
M  V30 3060 H 285.875 -4.38657 3.35088 0
M  V30 3061 H 286.352 -4.05493 1.68738 0
M  V30 3062 H 286.958 -3.01653 2.9981 0
M  V30 3063 N 285.273 -1.31445 -0.869486 0
M  V30 3064 C 286.221 -1.19067 -1.99814 0
M  V30 3065 C 287.215 -0.0988569 -1.69111 0
M  V30 3066 O 288.421 -0.260781 -1.78101 0
M  V30 3067 H 284.796 -0.368677 -0.655425 0
M  V30 3068 H 286.767 -2.14555 -2.07385 0
M  V30 3069 C 285.516 -0.915323 -3.35436 0
M  V30 3070 H 284.839 -1.74759 -3.59582 0
M  V30 3071 H 286.279 -0.868895 -4.15001 0
M  V30 3072 C 284.738 0.381928 -3.34728 0
M  V30 3073 O 285.268 1.39857 -3.76567 0
M  V30 3074 N 283.474 0.398633 -2.87853 0
M  V30 3075 H 283.021 -0.429186 -2.54 0
M  V30 3076 H 282.979 1.26651 -2.87762 0
M  V30 3077 N 286.751 1.08385 -1.14413 0
M  V30 3078 C 287.681 2.17321 -0.854044 0
M  V30 3079 C 288.662 1.69024 0.191049 0
M  V30 3080 O 289.847 1.94141 0.0476779 0
M  V30 3081 C 286.977 3.45719 -0.330983 0
M  V30 3082 C 285.931 4.07409 -1.31155 0
M  V30 3083 C 285.257 5.30762 -0.64778 0
M  V30 3084 C 286.557 4.48665 -2.67388 0
M  V30 3085 H 288.251 2.41845 -1.76498 0
M  V30 3086 H 285.797 1.16233 -0.850051 0
M  V30 3087 H 287.75 4.21241 -0.115645 0
M  V30 3088 H 286.474 3.2075 0.615381 0
M  V30 3089 H 285.133 3.33919 -1.51306 0
M  V30 3090 H 284.781 5.02078 0.304398 0
M  V30 3091 H 284.481 5.72992 -1.30207 0
M  V30 3092 H 286.005 6.08998 -0.441972 0
M  V30 3093 H 287.419 5.15364 -2.51143 0
M  V30 3094 H 285.816 5.01814 -3.29093 0
M  V30 3095 H 286.886 3.60543 -3.24248 0
M  V30 3096 N 288.23 0.939286 1.26551 0
M  V30 3097 C 289.646 0.641304 1.46149 0
M  V30 3098 C 289.846 -0.805964 1.84679 0
M  V30 3099 O 288.902 -1.58278 1.96734 0
M  V30 3100 C 290.215 1.6011 2.54529 0
M  V30 3101 C 291.763 1.6106 2.68382 0
M  V30 3102 C 292.238 2.55765 3.79932 0
M  V30 3103 N 293.729 2.5404 3.87322 0
M  V30 3104 C 294.464 3.24004 4.73085 0
M  V30 3105 N 293.96 4.03388 5.63249 0
M  V30 3106 N 295.753 3.12965 4.66914 0
M  V30 3107 H 287.904 1.87478 0.998285 0
M  V30 3108 H 290.167 0.805559 0.499779 0
M  V30 3109 H 289.873 2.63412 2.33039 0
M  V30 3110 H 289.747 1.35171 3.52149 0
M  V30 3111 H 292.134 0.584835 2.89247 0
M  V30 3112 H 292.215 1.90053 1.71212 0
M  V30 3113 H 291.859 3.58458 3.5982 0
M  V30 3114 H 291.789 2.24063 4.76554 0
M  V30 3115 H 294.28 1.96396 3.22858 0
M  V30 3116 H 294.593 4.5373 6.25579 0
M  V30 3117 H 292.938 4.07489 5.63008 0
M  V30 3118 H 296.129 2.50432 3.95476 0
M  V30 3119 H 296.302 3.67759 5.33533 0
M  V30 3120 N 289.708 -1.40897 0.706093 0
M  V30 3121 C 290.954 -2.01352 0.241889 0
M  V30 3122 C 291.287 -1.55832 -1.15888 0
M  V30 3123 O 290.562 -0.774145 -1.7843 0
M  V30 3124 C 290.845 -3.58752 0.311311 0
M  V30 3125 C 290.698 -4.1437 1.74978 0
M  V30 3126 C 292.017 -4.38914 -0.322922 0
M  V30 3127 H 289.136 -0.731562 0.0893687 0
M  V30 3128 H 291.778 -1.67504 0.896802 0
M  V30 3129 H 289.928 -3.87718 -0.246302 0
M  V30 3130 H 291.6 -3.96239 2.36205 0
M  V30 3131 H 289.843 -3.69016 2.28057 0
M  V30 3132 H 290.514 -5.23532 1.74981 0
M  V30 3133 H 292.99 -4.15822 0.152089 0
M  V30 3134 H 291.866 -5.48358 -0.243855 0
M  V30 3135 H 292.127 -4.19176 -1.40513 0
M  V30 3136 N 291.186 -0.45159 -1.50991 0
M  V30 3137 C 292.116 0.342898 -2.30969 0
M  V30 3138 C 293.097 1.00815 -1.37005 0
M  V30 3139 O 294.282 1.00907 -1.65926 0
M  V30 3140 C 291.412 1.43637 -3.16205 0
M  V30 3141 C 290.366 0.893818 -4.18563 0
M  V30 3142 C 289.692 2.08411 -4.92411 0
M  V30 3143 C 290.992 -0.0815568 -5.22236 0
M  V30 3144 H 292.686 -0.324556 -2.97636 0
M  V30 3145 H 290.232 -0.157531 -1.43136 0
M  V30 3146 H 292.185 1.9995 -3.70942 0
M  V30 3147 H 290.909 2.13232 -2.47386 0
M  V30 3148 H 289.568 0.352798 -3.64898 0
M  V30 3149 H 289.216 2.76658 -4.20082 0
M  V30 3150 H 288.916 1.72741 -5.61636 0
M  V30 3151 H 290.44 2.65251 -5.49976 0
M  V30 3152 H 291.854 0.391742 -5.7196 0
M  V30 3153 H 290.251 -0.351551 -5.99069 0
M  V30 3154 H 291.321 -1.01374 -4.74185 0
M  V30 3155 N 292.664 1.56529 -0.183458 0
M  V30 3156 C 294.08 1.58664 0.172554 0
M  V30 3157 C 294.28 1.19925 1.61926 0
M  V30 3158 O 293.336 0.916534 2.35278 0
M  V30 3159 C 294.649 3.00463 -0.119262 0
M  V30 3160 C 296.197 3.12945 -0.0584396 0
M  V30 3161 C 296.672 4.56857 -0.323408 0
M  V30 3162 N 298.163 4.62403 -0.271612 0
M  V30 3163 C 298.898 5.71626 -0.450639 0
M  V30 3164 N 298.394 6.89362 -0.689384 0
M  V30 3165 N 300.187 5.60775 -0.385701 0
M  V30 3166 H 292.338 1.79994 -1.12765 0
M  V30 3167 H 294.601 0.834808 -0.449222 0
M  V30 3168 H 294.307 3.33326 -1.12192 0
M  V30 3169 H 294.181 3.72659 0.583544 0
M  V30 3170 H 296.568 2.79902 0.934805 0
M  V30 3171 H 296.649 2.4316 -0.794144 0
M  V30 3172 H 296.293 4.9061 -1.31392 0
M  V30 3173 H 296.223 5.24816 0.43305 0
M  V30 3174 H 298.714 3.77785 -0.0932256 0
M  V30 3175 H 299.027 7.68489 -0.815113 0
M  V30 3176 H 297.372 6.91196 -0.726142 0
M  V30 3177 H 300.563 4.67674 -0.199687 0
M  V30 3178 H 300.736 6.4584 -0.528646 0
M  V30 3179 N 294.142 -0.090211 1.57342 0
M  V30 3180 C 295.367 -0.810082 1.90925 0
M  V30 3181 C 295.792 -1.71248 0.778187 0
M  V30 3182 O 295.15 -1.79278 -0.269991 0
M  V30 3183 C 295.198 -1.59529 3.23393 0
M  V30 3184 O 294.302 -2.70461 3.11327 0
M  V30 3185 H 293.643 -0.222231 0.625707 0
M  V30 3186 H 296.173 -0.0639716 2.045 0
M  V30 3187 H 296.183 -1.97847 3.5682 0
M  V30 3188 H 294.858 -0.933055 4.05299 0
M  V30 3189 H 293.435 -2.35135 2.89423 0
M  V30 3190 N 295.62 -1.53406 -0.361157 0
M  V30 3191 C 296.869 -1.69022 -1.10066 0
M  V30 3192 C 297.182 -0.450838 -1.90333 0
M  V30 3193 O 298.388 -0.487617 -2.67085 0
M  V30 3194 C 296.844 -2.98812 -2.00598 0
M  V30 3195 C 296.452 -4.30027 -1.25621 0
M  V30 3196 C 298.196 -3.23795 -2.74513 0
M  V30 3197 C 296.103 -5.50903 -2.1508 0
M  V30 3198 H 295.033 -0.629776 -0.414606 0
M  V30 3199 H 297.684 -1.79907 -0.361348 0
M  V30 3200 H 296.066 -2.8174 -2.78278 0
M  V30 3201 H 297.24 -4.57745 -0.529739 0
M  V30 3202 H 295.555 -4.11522 -0.635496 0
M  V30 3203 H 298.152 -4.11289 -3.41681 0
M  V30 3204 H 298.495 -2.40045 -3.40123 0
M  V30 3205 H 299.028 -3.41561 -2.03914 0
M  V30 3206 H 295.767 -6.37143 -1.54041 0
M  V30 3207 H 295.287 -5.27459 -2.85565 0
M  V30 3208 H 296.966 -5.85865 -2.74538 0
M  V30 3209 N 297.098 0.621204 -1.44841 0
M  V30 3210 C 298.028 1.74366 -1.55303 0
M  V30 3211 C 299.009 1.65199 -0.405385 0
M  V30 3212 O 300.194 1.83807 -0.626787 0
M  V30 3213 C 297.324 3.12931 -1.50637 0
M  V30 3214 C 296.278 3.36896 -2.63979 0
M  V30 3215 C 295.604 4.75594 -2.44366 0
M  V30 3216 C 296.904 3.28483 -4.06074 0
M  V30 3217 H 298.598 1.65867 -2.49256 0
M  V30 3218 H 296.144 0.796558 -1.19962 0
M  V30 3219 H 298.097 3.9124 -1.56555 0
M  V30 3220 H 296.821 3.22237 -0.532057 0
M  V30 3221 H 295.48 2.60972 -2.57467 0
M  V30 3222 H 295.128 4.81616 -1.45105 0
M  V30 3223 H 294.828 4.92586 -3.20364 0
M  V30 3224 H 296.352 5.5612 -2.52117 0
M  V30 3225 H 297.766 3.96684 -4.13902 0
M  V30 3226 H 296.163 3.57008 -4.82354 0
M  V30 3227 H 297.233 2.26133 -4.28943 0
M  V30 3228 N 298.576 1.31904 0.862503 0
M  V30 3229 C 299.486 1.22161 2.00285 0
M  V30 3230 C 300.502 0.136785 1.73462 0
M  V30 3231 O 301.678 0.355994 1.98229 0
M  V30 3232 C 298.743 0.937093 3.33796 0
M  V30 3233 C 297.804 2.10957 3.73893 0
M  V30 3234 C 297.037 1.83853 5.01033 0
M  V30 3235 O 297.26 0.777274 5.65079 0
M  V30 3236 O 296.194 2.69741 5.38074 0
M  V30 3237 H 300.02 2.18008 2.11439 0
M  V30 3238 H 297.605 1.11716 0.991957 0
M  V30 3239 H 299.487 0.794583 4.13841 0
M  V30 3240 H 298.162 0.00871894 3.23699 0
M  V30 3241 H 297.069 2.30752 2.94456 0
M  V30 3242 H 298.402 3.02046 3.88625 0
M  V30 3243 N 300.054 -1.07777 1.14986 0
M  V30 3244 C 301.002 -2.16964 0.838406 0
M  V30 3245 C 301.996 -1.68372 -0.186386 0
M  V30 3246 O 303.202 -1.79951 -0.0418465 0
M  V30 3247 H 299.577 -0.708006 0.253439 0
M  V30 3248 H 301.548 -2.40454 1.76704 0
M  V30 3249 C 300.297 -3.4604 0.339335 0
M  V30 3250 H 299.62 -3.83813 1.11927 0
M  V30 3251 H 301.06 -4.23698 0.160021 0
M  V30 3252 C 299.519 -3.23569 -0.938325 0
M  V30 3253 O 300.049 -3.47752 -2.01077 0
M  V30 3254 N 298.255 -2.77079 -0.876117 0
M  V30 3255 H 297.802 -2.576 -0.00322037 0
M  V30 3256 H 297.76 -2.62422 -1.73153 0
M  V30 3257 N 301.532 -0.945985 -1.26051 0
M  V30 3258 C 302.462 -0.477172 -2.28572 0
M  V30 3259 C 303.443 0.472032 -1.63419 0
M  V30 3260 O 304.628 0.372853 -1.90587 0
M  V30 3261 C 301.758 0.253975 -3.4637 0
M  V30 3262 C 300.712 -0.609135 -4.23643 0
M  V30 3263 C 300.038 0.252252 -5.34105 0
M  V30 3264 C 301.338 -1.8829 -4.8718 0
M  V30 3265 H 303.032 -1.33402 -2.68038 0
M  V30 3266 H 300.578 -0.642904 -1.28852 0
M  V30 3267 H 302.531 0.593016 -4.17207 0
M  V30 3268 H 301.255 1.145 -3.05871 0
M  V30 3269 H 299.914 -0.931138 -3.54578 0
M  V30 3270 H 299.562 1.14278 -4.89846 0
M  V30 3271 H 299.262 -0.32188 -5.86718 0
M  V30 3272 H 300.786 0.586454 -6.07777 0
M  V30 3273 H 302.2 -1.61081 -5.50205 0
M  V30 3274 H 300.597 -2.40199 -5.49931 0
M  V30 3275 H 301.667 -2.59134 -4.09851 0
M  V30 3276 N 303.011 1.40521 -0.713556 0
M  V30 3277 C 304.427 1.54839 -0.386907 0
M  V30 3278 C 304.627 1.68532 1.1045 0
M  V30 3279 O 303.683 1.67377 1.89053 0
M  V30 3280 C 304.996 2.77792 -1.15118 0
M  V30 3281 C 306.544 2.91607 -1.13729 0
M  V30 3282 C 307.019 4.1747 -1.88368 0
M  V30 3283 N 308.51 4.24466 -1.85427 0
M  V30 3284 C 309.245 5.20755 -2.40004 0
M  V30 3285 N 308.741 6.22965 -3.03129 0
M  V30 3286 N 310.534 5.1282 -2.30158 0
M  V30 3287 H 302.685 1.29879 -1.68063 0
M  V30 3288 H 304.948 0.627896 -0.710247 0
M  V30 3289 H 304.654 2.73944 -2.20561 0
M  V30 3290 H 304.528 3.6984 -0.741477 0
M  V30 3291 H 306.915 2.94959 -0.0910608 0
M  V30 3292 H 306.996 2.00682 -1.5862 0
M  V30 3293 H 306.64 4.1488 -2.9298 0
M  V30 3294 H 306.57 5.074 -1.40898 0
M  V30 3295 H 309.061 3.51241 -1.3942 0
M  V30 3296 H 309.374 6.92859 -3.42295 0
M  V30 3297 H 307.719 6.23415 -3.07212 0
M  V30 3298 H 310.91 4.31899 -1.80501 0
M  V30 3299 H 311.083 5.87689 -2.72993 0
M  V30 3300 N 304.489 0.459591 1.5075 0
M  V30 3301 C 305.714 -0.0996819 2.0716 0
M  V30 3302 C 306.139 -1.33761 1.32249 0
M  V30 3303 O 305.497 -1.77551 0.366786 0
M  V30 3304 C 305.545 -0.378226 3.58611 0
M  V30 3305 O 304.649 -1.46081 3.85661 0
M  V30 3306 H 303.99 0.00791392 0.663953 0
M  V30 3307 H 306.52 0.647329 1.9409 0
M  V30 3308 H 306.53 -0.622135 4.03229 0
M  V30 3309 H 305.205 0.526439 4.12555 0
M  V30 3310 H 303.782 -1.20511 3.5289 0
M  V30 3311 N 305.967 -1.56429 0.191757 0
M  V30 3312 C 306.914 -2.18936 -0.730454 0
M  V30 3313 C 307.884 -1.13557 -1.21219 0
M  V30 3314 O 309.069 -1.41794 -1.27668 0
M  V30 3315 C 306.209 -2.85013 -1.9458 0
M  V30 3316 C 305.322 -4.04909 -1.50574 0
M  V30 3317 C 304.457 -4.58853 -2.67634 0
M  V30 3318 C 303.496 -5.71114 -2.20217 0
M  V30 3319 N 302.633 -6.19478 -3.30442 0
M  V30 3320 H 307.473 -2.97389 -0.190664 0
M  V30 3321 H 305.01 -1.46869 -0.0823694 0
M  V30 3322 H 306.968 -3.21492 -2.65893 0
M  V30 3323 H 305.598 -2.09129 -2.45896 0
M  V30 3324 H 304.65 -3.74115 -0.688605 0
M  V30 3325 H 305.962 -4.86113 -1.11784 0
M  V30 3326 H 305.116 -4.97619 -3.47074 0
M  V30 3327 H 303.855 -3.76749 -3.09696 0
M  V30 3328 H 302.86 -5.31879 -1.3923 0
M  V30 3329 H 304.085 -6.55033 -1.79189 0
M  V30 3330 H 302.031 -5.40297 -3.72041 0
M  V30 3331 H 301.948 -6.95725 -2.9581 0
M  V30 3332 H 303.216 -6.62898 -4.10106 0
M  V30 3333 N 307.445 0.0818655 -1.57387 0
M  V30 3334 C 308.694 0.781681 -1.85937 0
M  V30 3335 C 309.007 1.79246 -0.782957 0
M  V30 3336 O 310.213 2.54112 -0.955987 0
M  V30 3337 C 308.669 1.44109 -3.29789 0
M  V30 3338 C 308.277 0.469396 -4.45534 0
M  V30 3339 C 310.021 2.12386 -3.67549 0
M  V30 3340 C 307.928 1.13415 -5.80423 0
M  V30 3341 H 306.858 0.295682 -0.693605 0
M  V30 3342 H 309.509 0.0348051 -1.83467 0
M  V30 3343 H 307.891 2.23588 -3.2684 0
M  V30 3344 H 309.065 -0.294856 -4.59856 0
M  V30 3345 H 307.38 -0.108383 -4.16259 0
M  V30 3346 H 309.977 2.62878 -4.65617 0
M  V30 3347 H 310.32 2.91877 -2.96839 0
M  V30 3348 H 310.853 1.39751 -3.72444 0
M  V30 3349 H 307.592 0.379771 -6.54399 0
M  V30 3350 H 307.112 1.8695 -5.69921 0
M  V30 3351 H 308.791 1.65686 -6.25426 0
M  V30 3352 N 308.923 1.53595 0.353017 0
M  V30 3353 C 309.855 1.77219 1.45348 0
M  V30 3354 C 310.868 0.65324 1.49119 0
M  V30 3355 O 312.057 0.929775 1.52373 0
M  V30 3356 C 309.157 1.84841 2.84055 0
M  V30 3357 C 308.33 3.14649 3.03833 0
M  V30 3358 C 307.389 3.13351 4.22727 0
M  V30 3359 O 306.415 3.87107 4.17297 0
M  V30 3360 N 307.617 2.35052 5.30783 0
M  V30 3361 H 310.382 2.72178 1.25457 0
M  V30 3362 H 307.943 1.52528 0.542833 0
M  V30 3363 H 309.935 1.81435 3.61751 0
M  V30 3364 H 308.505 0.971114 2.97133 0
M  V30 3365 H 307.725 3.31256 2.13689 0
M  V30 3366 H 309.013 4.00411 3.13925 0
M  V30 3367 H 308.411 1.74663 5.38061 0
M  V30 3368 H 306.968 2.37453 6.07009 0
M  V30 3369 N 310.401 -0.613514 1.45168 0
M  V30 3370 C 311.348 -1.72456 1.53387 0
M  V30 3371 C 312.318 -1.6169 0.380191 0
M  V30 3372 O 313.503 -1.81356 0.592836 0
M  V30 3373 C 310.643 -3.10753 1.50088 0
M  V30 3374 C 309.756 -3.32368 2.75963 0
M  V30 3375 C 308.891 -4.60737 2.64376 0
M  V30 3376 C 307.93 -4.7559 3.85332 0
M  V30 3377 N 307.067 -5.95253 3.72315 0
M  V30 3378 H 311.907 -1.64768 2.48305 0
M  V30 3379 H 309.444 -0.803503 1.23216 0
M  V30 3380 H 311.402 -3.90758 1.46164 0
M  V30 3381 H 310.032 -3.17413 0.587243 0
M  V30 3382 H 309.084 -2.4618 2.89999 0
M  V30 3383 H 310.396 -3.39218 3.65695 0
M  V30 3384 H 309.55 -5.48928 2.58385 0
M  V30 3385 H 308.289 -4.56275 1.72233 0
M  V30 3386 H 307.294 -3.85824 3.91688 0
M  V30 3387 H 308.519 -4.81854 4.78533 0
M  V30 3388 H 306.465 -5.91847 2.82937 0
M  V30 3389 H 306.382 -6.03236 4.55677 0
M  V30 3390 H 307.65 -6.85958 3.70246 0
M  V30 3391 N 311.879 -1.3236 -0.855495 0
M  V30 3392 C 312.809 -1.23833 -1.97958 0
M  V30 3393 C 313.79 -0.122361 -1.69659 0
M  V30 3394 O 314.975 -0.30939 -1.9172 0
M  V30 3395 C 312.105 -0.959772 -3.33775 0
M  V30 3396 C 311.059 -2.03689 -3.76424 0
M  V30 3397 C 310.385 -1.61075 -5.09862 0
M  V30 3398 C 311.685 -3.4518 -3.9198 0
M  V30 3399 H 313.379 -2.1788 -2.0535 0
M  V30 3400 H 310.925 -1.04891 -0.986605 0
M  V30 3401 H 312.878 -0.886678 -4.11966 0
M  V30 3402 H 311.602 0.0163404 -3.26596 0
M  V30 3403 H 310.261 -2.10012 -3.00484 0
M  V30 3404 H 309.909 -0.622107 -4.99138 0
M  V30 3405 H 309.609 -2.33143 -5.39368 0
M  V30 3406 H 311.133 -1.55201 -5.90546 0
M  V30 3407 H 312.547 -3.4145 -4.60526 0
M  V30 3408 H 310.944 -4.1559 -4.32903 0
M  V30 3409 H 312.014 -3.84903 -2.94919 0
M  V30 3410 N 313.357 1.07166 -1.15556 0
M  V30 3411 C 314.267 2.17947 -0.868116 0
M  V30 3412 C 315.283 1.73297 0.156297 0
M  V30 3413 O 316.459 2.01392 -0.0182327 0
M  V30 3414 C 313.524 3.44789 -0.36355 0
M  V30 3415 C 312.585 4.03996 -1.45209 0
M  V30 3416 C 311.818 5.24783 -0.971508 0
M  V30 3417 O 312.041 5.70109 0.182194 0
M  V30 3418 O 310.975 5.75715 -1.75603 0
M  V30 3419 H 314.801 2.4503 -1.79427 0
M  V30 3420 H 312.386 1.16539 -0.934824 0
M  V30 3421 H 314.268 4.21307 -0.0887113 0
M  V30 3422 H 312.943 3.19253 0.534708 0
M  V30 3423 H 311.85 3.29009 -1.78056 0
M  V30 3424 H 313.183 4.33808 -2.32533 0
M  V30 3425 N 314.835 0.952656 1.25548 0
M  V30 3426 C 316.06 0.623025 1.97821 0
M  V30 3427 C 316.485 -0.7976 1.70352 0
M  V30 3428 O 315.843 -1.53905 0.958283 0
M  V30 3429 C 315.891 0.885532 3.49558 0
M  V30 3430 O 314.995 -0.0366641 4.12384 0
M  V30 3431 H 314.336 0.237082 0.620232 0
M  V30 3432 H 316.866 1.27871 1.59719 0
M  V30 3433 H 316.876 0.811009 3.99858 0
M  V30 3434 H 315.551 1.92094 3.6888 0
M  V30 3435 H 314.128 0.0898954 3.72792 0
M  V30 3436 N 316.313 -1.40141 0.720998 0
M  V30 3437 C 317.59 -1.94677 0.189757 0
M  V30 3438 C 317.97 -1.65879 -1.30566 0
M  V30 3439 O 317.318 -0.979391 -2.06447 0
M  V30 3440 C 317.528 -3.45279 0.508304 0
M  V30 3441 C 318.876 -4.22209 0.449934 0
M  V30 3442 O 319.9 -3.53413 0.444677 0
M  V30 3443 O 318.759 -5.44788 0.432189 0
M  V30 3444 H 315.853 -0.826459 0.0299026 0
M  V30 3445 H 318.399 -1.49719 0.7989 0
M  V30 3446 H 317.171 -3.59619 1.54239 0
M  V30 3447 H 316.794 -3.97386 -0.130525 0
M  V30 3448 N 317.792 -0.46758 -1.50504 0
M  V30 3449 C 319.038 0.0887532 -2.02606 0
M  V30 3450 C 319.371 1.39686 -1.34913 0
M  V30 3451 O 318.646 1.88644 -0.473694 0
M  V30 3452 C 318.929 0.276206 -3.59039 0
M  V30 3453 C 318.782 -1.05267 -4.37309 0
M  V30 3454 C 320.101 1.03235 -4.27821 0
M  V30 3455 H 317.22 0.0307814 -0.736357 0
M  V30 3456 H 319.862 -0.612485 -1.79857 0
M  V30 3457 H 318.012 0.8735 -3.78553 0
M  V30 3458 H 319.684 -1.68628 -4.29374 0
M  V30 3459 H 317.927 -1.65015 -4.01189 0
M  V30 3460 H 318.598 -0.875197 -5.45018 0
M  V30 3461 H 321.074 0.526111 -4.12761 0
M  V30 3462 H 319.95 1.1323 -5.37094 0
M  V30 3463 H 320.211 2.06806 -3.90748 0
M  V30 3464 N 319.27 1.56325 -0.20005 0
M  V30 3465 C 320.495 2.02548 0.44597 0
M  V30 3466 C 320.92 1.07922 1.5406 0
M  V30 3467 O 320.278 0.0635775 1.81188 0
M  V30 3468 C 320.326 3.47175 0.974761 0
M  V30 3469 O 319.43 3.55671 2.08739 0
M  V30 3470 H 318.771 0.655862 0.103638 0
M  V30 3471 H 321.301 2.02201 -0.312381 0
M  V30 3472 H 321.311 3.87067 1.2901 0
M  V30 3473 H 319.986 4.15538 0.17347 0
M  V30 3474 H 318.563 3.27657 1.78032 0
M  V30 3475 N 320.748 -0.0735177 1.57428 0
M  V30 3476 C 321.711 -1.07192 2.02589 0
M  V30 3477 C 322.711 -1.31695 0.922661 0
M  V30 3478 O 323.901 -1.27445 1.18758 0
M  V30 3479 C 321.033 -2.41599 2.40506 0
M  V30 3480 H 322.226 -0.682727 2.92025 0
M  V30 3481 H 319.779 -0.319193 1.53006 0
M  V30 3482 H 320.514 -2.85354 1.5409 0
M  V30 3483 H 320.299 -2.25156 3.21009 0
M  V30 3484 H 321.789 -3.13367 2.76027 0
M  V30 3485 N 322.226 -1.5378 -0.344866 0
M  V30 3486 C 323.158 -1.77988 -1.44406 0
M  V30 3487 C 324.171 -0.661138 -1.48771 0
M  V30 3488 O 325.36 -0.937842 -1.51877 0
M  V30 3489 C 322.46 -1.86345 -2.8307 0
M  V30 3490 C 321.633 -3.16256 -3.0216 0
M  V30 3491 C 320.692 -3.15588 -4.21059 0
M  V30 3492 O 319.718 -3.89314 -4.15239 0
M  V30 3493 N 320.92 -2.37864 -5.29529 0
M  V30 3494 H 323.685 -2.72839 -1.24012 0
M  V30 3495 H 321.246 -1.52814 -0.534737 0
M  V30 3496 H 323.238 -1.83351 -3.60783 0
M  V30 3497 H 321.808 -0.986858 -2.96614 0
M  V30 3498 H 321.028 -3.32385 -2.11929 0
M  V30 3499 H 322.316 -4.0207 -3.11797 0
M  V30 3500 H 321.714 -1.77514 -5.37127 0
M  V30 3501 H 320.271 -2.40668 -6.05741 0
M  V30 3502 N 323.704 0.605807 -1.45491 0
M  V30 3503 C 324.637 1.73022 -1.48791 0
M  V30 3504 C 325.615 1.58917 -0.344112 0
M  V30 3505 O 326.799 1.80453 -0.544876 0
M  V30 3506 C 323.926 3.10865 -1.34463 0
M  V30 3507 C 322.972 3.43554 -2.5273 0
M  V30 3508 S 323.805 3.38196 -4.15191 0
M  V30 3509 C 324.961 4.78616 -4.03333 0
M  V30 3510 H 325.194 1.69961 -2.43928 0
M  V30 3511 H 322.727 0.782611 -1.33096 0
M  V30 3512 H 324.685 3.90398 -1.26884 0
M  V30 3513 H 323.346 3.1144 -0.40794 0
M  V30 3514 H 322.539 4.43924 -2.38637 0
M  V30 3515 H 322.141 2.71541 -2.5718 0
M  V30 3516 H 324.433 5.68463 -3.68587 0
M  V30 3517 H 325.376 4.97767 -5.03621 0
M  V30 3518 H 325.784 4.54381 -3.34959 0
M  V30 3519 N 325.182 1.32811 0.848464 0
M  V30 3520 C 326.092 1.24278 1.98978 0
M  V30 3521 C 327.108 0.155176 1.73307 0
M  V30 3522 O 328.284 0.376999 1.9784 0
M  V30 3523 C 325.349 0.972444 3.32783 0
M  V30 3524 C 324.41 2.14911 3.71634 0
M  V30 3525 C 323.643 1.89157 4.99054 0
M  V30 3526 O 323.866 0.837165 5.64223 0
M  V30 3527 O 322.8 2.75433 5.35183 0
M  V30 3528 H 326.626 2.20238 2.09115 0
M  V30 3529 H 324.211 1.12762 0.980052 0
M  V30 3530 H 326.093 0.838432 4.12975 0
M  V30 3531 H 324.768 0.043051 3.23671 0
M  V30 3532 H 323.675 2.33862 2.91992 0
M  V30 3533 H 325.008 3.06151 3.85399 0
M  V30 3534 N 326.66 -1.06551 1.16123 0
M  V30 3535 C 327.89 -1.8274 0.963838 0
M  V30 3536 C 328.298 -1.82712 -0.491228 0
M  V30 3537 O 327.641 -1.24294 -1.35265 0
M  V30 3538 C 327.703 -3.3065 1.41106 0
M  V30 3539 C 327.367 -3.54384 2.88549 0
M  V30 3540 C 328.364 -3.4765 3.86569 0
M  V30 3541 C 326.049 -3.81789 3.26408 0
M  V30 3542 C 328.043 -3.67982 5.2045 0
M  V30 3543 C 325.73 -4.01772 4.60459 0
M  V30 3544 C 326.728 -3.94866 5.57288 0
M  V30 3545 O 326.416 -4.14306 6.88916 0
M  V30 3546 H 326.148 -0.583136 0.341948 0
M  V30 3547 H 328.702 -1.35351 1.54497 0
M  V30 3548 H 326.932 -3.78887 0.773394 0
M  V30 3549 H 328.621 -3.88324 1.1815 0
M  V30 3550 H 329.387 -3.2647 3.58667 0
M  V30 3551 H 325.266 -3.86276 2.51619 0
M  V30 3552 H 328.81 -3.62507 5.96015 0
M  V30 3553 H 324.707 -4.2244 4.88072 0
M  V30 3554 H 325.475 -4.31609 6.95454 0
M  V30 3555 N 328.138 -0.959301 -1.25041 0
M  V30 3556 C 329.378 -0.624343 -1.94631 0
M  V30 3557 C 329.742 0.82403 -1.73418 0
M  V30 3558 O 330.943 1.26881 -2.3697 0
M  V30 3559 C 329.214 -0.978805 -3.43736 0
M  V30 3560 S 330.773 -0.757127 -4.32219 0
M  V30 3561 H 327.591 -0.229327 -0.673001 0
M  V30 3562 H 330.193 -1.23447 -1.51595 0
M  V30 3563 H 328.897 -2.02997 -3.56679 0
M  V30 3564 H 328.428 -0.359117 -3.91757 0
M  V30 3565 H 330.443 0.369759 -4.9482 0
M  V30 3566 N 329.616 1.39756 -0.72842 0
M  V30 3567 C 331.032 1.5442 -0.403308 0
M  V30 3568 C 331.232 1.69694 1.08656 0
M  V30 3569 O 330.288 1.69373 1.87267 0
M  V30 3570 C 331.601 2.76555 -1.18058 0
M  V30 3571 C 333.149 2.90384 -1.16815 0
M  V30 3572 C 333.624 4.15449 -1.92785 0
M  V30 3573 N 335.115 4.22475 -1.89918 0
M  V30 3574 C 335.85 5.1818 -2.45514 0
M  V30 3575 N 335.346 6.19714 -3.09719 0
M  V30 3576 N 337.139 5.1035 -2.35584 0
M  V30 3577 H 329.29 1.28089 -1.69431 0
M  V30 3578 H 331.553 0.620327 -0.716867 0
M  V30 3579 H 331.259 2.7159 -2.23455 0
M  V30 3580 H 331.133 3.69033 -0.780662 0
M  V30 3581 H 333.52 2.94846 -0.12234 0
M  V30 3582 H 333.601 1.98988 -1.6074 0
M  V30 3583 H 333.245 4.11749 -2.97364 0
M  V30 3584 H 333.175 5.05877 -1.46272 0
M  V30 3585 H 335.666 3.49743 -1.43138 0
M  V30 3586 H 335.979 6.8919 -3.49625 0
M  V30 3587 H 334.324 6.20121 -3.13807 0
M  V30 3588 H 337.515 4.2996 -1.85072 0
M  V30 3589 H 337.688 5.84761 -2.79211 0
M  V30 3590 N 331.094 0.475555 1.50254 0
M  V30 3591 C 332.322 -0.0754493 2.06762 0
M  V30 3592 C 332.737 -1.33111 1.33891 0
M  V30 3593 O 332.094 -1.77846 0.40952 0
M  V30 3594 C 332.145 -0.359008 3.59713 0
M  V30 3595 O 331.866 0.846851 4.29837 0
M  V30 3596 C 333.367 -0.956484 4.32858 0
M  V30 3597 H 330.587 0.00907525 0.670939 0
M  V30 3598 H 333.131 0.665618 1.93364 0
M  V30 3599 H 331.286 -1.05001 3.72899 0
M  V30 3600 H 331.7 0.594162 5.21124 0
M  V30 3601 H 333.174 -1.10463 5.40834 0
M  V30 3602 H 333.651 -1.94775 3.93649 0
M  V30 3603 H 334.257 -0.303723 4.24214 0
M  V30 3604 N 332.573 -1.56217 0.208337 0
M  V30 3605 C 333.984 -1.84243 -0.301904 0
M  V30 3606 C 334.335 -1.12939 -1.60434 0
M  V30 3607 O 333.46 -0.39461 -2.12772 0
M  V30 3608 C 334.055 -3.34231 -0.554543 0
M  V30 3609 C 332.614 -3.62621 -1.00912 0
M  V30 3610 C 331.761 -2.77224 -0.064933 0
M  V30 3611 H 334.712 -1.52712 0.431833 0
M  V30 3612 H 334.733 -3.5372 -1.40223 0
M  V30 3613 H 334.245 -3.86099 0.393561 0
M  V30 3614 H 332.346 -3.16197 -1.97104 0
M  V30 3615 H 332.459 -4.7071 -0.892674 0
M  V30 3616 H 330.823 -2.48256 -0.56929 0
M  V30 3617 H 331.606 -3.31887 0.877851 0
M  V30 3618 N 334.051 0.0651679 -1.57465 0
M  V30 3619 C 335.291 0.768329 -1.8941 0
M  V30 3620 C 335.655 1.74406 -0.802894 0
M  V30 3621 O 336.856 2.49281 -1.0056 0
M  V30 3622 C 335.127 1.45199 -3.26576 0
M  V30 3623 S 336.686 2.1893 -3.80283 0
M  V30 3624 H 333.504 0.255359 -0.663561 0
M  V30 3625 H 336.106 0.024167 -1.95485 0
M  V30 3626 H 334.81 0.728123 -4.03889 0
M  V30 3627 H 334.341 2.23545 -3.23715 0
M  V30 3628 H 336.356 3.45551 -3.56102 0
M  V30 3629 N 335.529 1.53961 0.336706 0
M  V30 3630 C 336.757 1.75483 1.09605 0
M  V30 3631 C 337.172 0.4972 1.82136 0
M  V30 3632 O 336.529 -0.53149 1.74589 0
M  V30 3633 C 336.58 2.93943 2.10428 0
M  V30 3634 O 336.301 4.14842 1.40846 0
M  V30 3635 C 337.802 3.27571 2.98684 0
M  V30 3636 H 335.022 0.586166 0.326574 0
M  V30 3637 H 337.566 2.00808 0.38683 0
M  V30 3638 H 335.721 2.70929 2.76905 0
M  V30 3639 H 336.135 4.81383 2.08255 0
M  V30 3640 H 337.609 4.13791 3.6535 0
M  V30 3641 H 338.086 2.44168 3.65074 0
M  V30 3642 H 338.692 3.52615 2.37787 0
M  V30 3643 N 337.007 -0.598083 1.45811 0
M  V30 3644 C 338.253 -1.35882 1.50545 0
M  V30 3645 C 338.586 -1.93616 0.150445 0
M  V30 3646 O 337.861 -1.75604 -0.83628 0
M  V30 3647 C 338.144 -2.49966 2.59208 0
M  V30 3648 C 337.997 -1.97367 4.04186 0
M  V30 3649 C 339.316 -3.52068 2.64076 0
M  V30 3650 H 336.435 -0.492717 0.548087 0
M  V30 3651 H 339.077 -0.673319 1.77669 0
M  V30 3652 H 337.227 -3.08443 2.3621 0
M  V30 3653 H 338.899 -1.43466 4.38423 0
M  V30 3654 H 337.142 -1.283 4.14393 0
M  V30 3655 H 337.813 -2.79649 4.75921 0
M  V30 3656 H 340.289 -3.03448 2.84708 0
M  V30 3657 H 339.165 -4.2937 3.41954 0
M  V30 3658 H 339.426 -4.08304 1.69531 0
M  V30 3659 N 338.485 -1.33259 -0.841409 0
M  V30 3660 C 339.71 -1.2775 -1.63385 0
M  V30 3661 C 340.135 0.149188 -1.87507 0
M  V30 3662 O 339.493 1.10498 -1.43736 0
M  V30 3663 C 339.541 -2.05571 -2.96265 0
M  V30 3664 O 338.645 -1.41257 -3.87453 0
M  V30 3665 H 337.986 -0.439627 -0.497618 0
M  V30 3666 H 340.516 -1.75782 -1.04699 0
M  V30 3667 H 340.526 -2.16241 -3.45982 0
M  V30 3668 H 339.201 -3.09309 -2.7803 0
M  V30 3669 H 337.778 -1.39217 -3.45938 0
M  V30 3670 N 339.963 1.05934 -1.16686 0
M  V30 3671 C 341.203 1.80382 -0.961345 0
M  V30 3672 C 341.567 1.85331 0.501643 0
M  V30 3673 O 342.768 2.55795 0.825986 0
M  V30 3674 C 341.039 3.20777 -1.57596 0
M  V30 3675 S 342.598 4.11795 -1.51559 0
M  V30 3676 H 339.416 0.621332 -0.345641 0
M  V30 3677 H 342.018 1.27157 -1.48497 0
M  V30 3678 H 340.722 3.14773 -2.63337 0
M  V30 3679 H 340.253 3.79078 -1.05182 0
M  V30 3680 H 342.268 4.93485 -0.518374 0
M  V30 3681 N 341.441 0.965919 1.2453 0
M  V30 3682 C 342.389 0.486506 2.27455 0
M  V30 3683 C 343.383 -0.449041 1.6334 0
M  V30 3684 O 344.589 -0.324527 1.7705 0
M  V30 3685 H 340.964 0.138857 0.739069 0
M  V30 3686 H 342.935 1.3666 2.65267 0
M  V30 3687 C 341.684 -0.209481 3.47068 0
M  V30 3688 H 341.007 0.50129 3.96645 0
M  V30 3689 H 342.447 -0.508775 4.20936 0
M  V30 3690 C 340.906 -1.43586 3.0477 0
M  V30 3691 O 341.436 -2.53299 3.11773 0
M  V30 3692 N 339.642 -1.30126 2.59838 0
M  V30 3693 H 339.189 -0.408583 2.54339 0
M  V30 3694 H 339.147 -2.12294 2.31902 0
M  V30 3695 N 342.919 -1.39368 0.735821 0
M  V30 3696 C 344.168 -1.99733 0.281004 0
M  V30 3697 C 344.481 -1.59055 -1.13846 0
M  V30 3698 O 345.687 -2.12262 -1.69284 0
M  V30 3699 C 344.143 -3.57057 0.451462 0
M  V30 3700 C 343.751 -4.06697 1.87886 0
M  V30 3701 C 345.495 -4.2446 0.0584616 0
M  V30 3702 C 343.402 -5.56598 1.99883 0
M  V30 3703 H 342.332 -0.747163 0.101311 0
M  V30 3704 H 344.983 -1.59357 0.909819 0
M  V30 3705 H 343.365 -3.95234 -0.246263 0
M  V30 3706 H 344.539 -3.79853 2.60861 0
M  V30 3707 H 342.854 -3.5196 2.22515 0
M  V30 3708 H 345.451 -5.34549 0.127099 0
M  V30 3709 H 345.794 -4.04444 -0.986433 0
M  V30 3710 H 346.327 -3.9146 0.707374 0
M  V30 3711 H 343.066 -5.81494 3.02564 0
M  V30 3712 H 342.586 -5.85242 1.31346 0
M  V30 3713 H 344.265 -6.22022 1.78039 0
M  V30 3714 N 344.397 -0.483516 -1.5 0
M  V30 3715 C 345.808 -0.0314176 -1.86674 0
M  V30 3716 C 346.159 1.37728 -1.39733 0
M  V30 3717 O 345.284 2.02327 -0.767635 0
M  V30 3718 C 345.879 -0.0502376 -3.38763 0
M  V30 3719 C 344.438 0.346442 -3.74802 0
M  V30 3720 C 343.585 -0.430366 -2.7394 0
M  V30 3721 H 346.536 -0.697182 -1.42566 0
M  V30 3722 H 346.557 0.749116 -3.73053 0
M  V30 3723 H 346.069 -1.07563 -3.72897 0
M  V30 3724 H 344.17 1.37572 -3.46273 0
M  V30 3725 H 344.283 0.0391486 -4.79084 0
M  V30 3726 H 342.647 0.117557 -2.54429 0
M  V30 3727 H 343.43 -1.4555 -3.10918 0
M  V30 3728 N 345.875 1.56104 -0.216619 0
M  V30 3729 C 347.121 1.98466 0.417033 0
M  V30 3730 C 347.454 1.10403 1.59765 0
M  V30 3731 O 346.729 0.160632 1.93836 0
M  V30 3732 C 347.012 3.49769 0.85637 0
M  V30 3733 C 346.865 4.48606 -0.327546 0
M  V30 3734 C 348.184 4.05339 1.7143 0
M  V30 3735 H 345.303 0.721551 0.150112 0
M  V30 3736 H 347.945 1.87423 -0.311864 0
M  V30 3737 H 346.095 3.5931 1.47745 0
M  V30 3738 H 347.767 4.5108 -0.965618 0
M  V30 3739 H 346.01 4.22682 -0.975805 0
M  V30 3740 H 346.681 5.51995 0.0227149 0
M  V30 3741 H 349.157 3.98712 1.19031 0
M  V30 3742 H 348.033 5.11533 1.99061 0
M  V30 3743 H 348.294 3.51918 2.67593 0
M  V30 3744 N 347.353 -0.0568162 1.57498 0
M  V30 3745 C 348.599 -0.75422 1.88253 0
M  V30 3746 C 348.932 -1.76461 0.810865 0
M  V30 3747 O 348.207 -1.93691 -0.177259 0
M  V30 3748 C 348.49 -1.44878 3.2967 0
M  V30 3749 C 348.343 -0.453789 4.47505 0
M  V30 3750 C 349.662 -2.38994 3.69554 0
M  V30 3751 H 346.781 -0.272724 0.684683 0
M  V30 3752 H 349.423 -0.0172113 1.89992 0
M  V30 3753 H 347.573 -2.077 3.28318 0
M  V30 3754 H 349.245 0.170371 4.60985 0
M  V30 3755 H 347.488 0.229552 4.33192 0
M  V30 3756 H 348.159 -0.977699 5.43273 0
M  V30 3757 H 350.635 -1.86239 3.72095 0
M  V30 3758 H 349.511 -2.84587 4.69363 0
M  V30 3759 H 349.772 -3.24461 3.00296 0
M  V30 3760 N 348.832 -1.54138 -0.328536 0
M  V30 3761 C 350.057 -1.76378 -1.09112 0
M  V30 3762 C 350.482 -0.508596 -1.81094 0
M  V30 3763 O 349.84 0.539598 -1.73084 0
M  V30 3764 C 349.888 -2.95358 -2.06872 0
M  V30 3765 O 348.992 -2.66556 -3.14677 0
M  V30 3766 H 348.333 -0.584614 -0.314838 0
M  V30 3767 H 350.863 -2.01146 -0.374348 0
M  V30 3768 H 350.873 -3.22566 -2.4983 0
M  V30 3769 H 349.548 -3.86385 -1.5388 0
M  V30 3770 H 348.125 -2.50282 -2.7643 0
M  V30 3771 N 350.31 0.590341 -1.46126 0
M  V30 3772 C 351.558 1.34616 -1.50742 0
M  V30 3773 C 351.879 1.94363 -0.157486 0
M  V30 3774 O 351.149 1.78136 0.815136 0
M  V30 3775 H 349.729 0.499789 -0.555175 0
M  V30 3776 H 352.391 0.691953 -1.82203 0
M  V30 3777 H 351.487 2.15678 -2.25587 0
M  V30 3778 N 351.788 1.33704 0.83433 0
M  V30 3779 C 352.735 1.24335 1.94447 0
M  V30 3780 C 353.705 0.120991 1.65659 0
M  V30 3781 O 354.89 0.300035 1.88426 0
M  V30 3782 C 352.03 0.993124 3.30501 0
M  V30 3783 C 351.143 2.20217 3.71657 0
M  V30 3784 C 350.278 1.88572 4.96602 0
M  V30 3785 C 349.317 3.05683 5.30306 0
M  V30 3786 N 348.454 2.73997 6.46429 0
M  V30 3787 H 353.294 2.1928 2.01792 0
M  V30 3788 H 350.831 1.09035 0.987404 0
M  V30 3789 H 352.789 0.828467 4.08892 0
M  V30 3790 H 351.419 0.0803902 3.227 0
M  V30 3791 H 350.471 2.47642 2.88752 0
M  V30 3792 H 351.783 3.07752 3.92543 0
M  V30 3793 H 350.937 1.68776 5.82752 0
M  V30 3794 H 349.676 0.982799 4.77695 0
M  V30 3795 H 348.681 3.26088 4.42659 0
M  V30 3796 H 349.906 3.96737 5.51159 0
M  V30 3797 H 347.852 1.86268 6.28999 0
M  V30 3798 H 347.769 3.55064 6.67432 0
M  V30 3799 H 349.037 2.57679 7.35678 0
M  V30 3800 N 353.266 -1.05314 1.17247 0
M  V30 3801 C 354.176 -2.16538 0.90268 0
M  V30 3802 C 355.192 -1.73523 -0.128707 0
M  V30 3803 O 356.368 -2.01337 0.0502701 0
M  V30 3804 C 353.433 -3.44167 0.418356 0
M  V30 3805 C 352.494 -4.01635 1.51618 0
M  V30 3806 C 351.727 -5.23171 1.05487 0
M  V30 3807 O 351.95 -5.70327 -0.0914715 0
M  V30 3808 O 350.884 -5.72848 1.8474 0
M  V30 3809 H 354.71 -2.42145 1.83302 0
M  V30 3810 H 352.295 -1.15037 0.953246 0
M  V30 3811 H 354.177 -4.21112 0.155726 0
M  V30 3812 H 352.852 -3.20063 -0.48385 0
M  V30 3813 H 351.759 -3.26135 1.83268 0
M  V30 3814 H 353.092 -4.30053 2.39405 0
M  V30 3815 N 354.744 -0.972509 -1.24016 0
M  V30 3816 C 355.984 -0.644951 -1.93958 0
M  V30 3817 C 356.348 0.80559 -1.74282 0
M  V30 3818 O 357.549 1.2436 -2.38302 0
M  V30 3819 C 355.82 -1.01521 -3.42678 0
M  V30 3820 S 357.379 -0.802927 -4.31391 0
M  V30 3821 H 354.197 -0.236452 -0.670531 0
M  V30 3822 H 356.799 -1.25048 -1.50277 0
M  V30 3823 H 355.503 -2.06769 -3.54506 0
M  V30 3824 H 355.034 -0.400648 -3.91355 0
M  V30 3825 H 357.049 0.317256 -4.95185 0
M  V30 3826 N 356.222 1.38976 -0.743202 0
M  V30 3827 C 357.132 2.3434 -0.110399 0
M  V30 3828 C 358.148 1.58741 0.712559 0
M  V30 3829 O 359.324 1.9099 0.639125 0
M  V30 3830 C 356.389 3.37812 0.780012 0
M  V30 3831 C 355.45 4.29263 -0.0561319 0
M  V30 3832 C 354.683 5.27793 0.791875 0
M  V30 3833 O 354.906 5.33043 2.03031 0
M  V30 3834 O 353.84 6.01512 0.216183 0
M  V30 3835 H 357.666 2.90129 -0.897714 0
M  V30 3836 H 355.251 1.40643 -0.503966 0
M  V30 3837 H 357.133 4.01194 1.28923 0
M  V30 3838 H 355.808 2.84395 1.546 0
M  V30 3839 H 354.715 3.69076 -0.611056 0
M  V30 3840 H 356.048 4.85907 -0.784531 0
M  V30 3841 N 357.7 0.491464 1.49741 0
M  V30 3842 C 358.61 -0.296835 2.32715 0
M  V30 3843 C 359.626 -0.976536 1.44013 0
M  V30 3844 O 360.802 -0.960023 1.77047 0
M  V30 3845 C 357.867 -1.35288 3.19215 0
M  V30 3846 C 356.928 -0.687632 4.23757 0
M  V30 3847 C 356.161 -1.69336 5.06123 0
M  V30 3848 O 356.384 -2.92219 4.89861 0
M  V30 3849 O 355.318 -1.25394 5.88693 0
M  V30 3850 H 359.144 0.382048 3.01287 0
M  V30 3851 H 356.729 0.252953 1.47243 0
M  V30 3852 H 358.611 -1.96411 3.72828 0
M  V30 3853 H 357.286 -2.01487 2.53347 0
M  V30 3854 H 356.193 -0.0369159 3.74082 0
M  V30 3855 H 357.526 -0.0682566 4.92153 0
M  V30 3856 N 359.178 -1.55987 0.224894 0
M  V30 3857 C 360.427 -1.97566 -0.406273 0
M  V30 3858 C 360.74 -1.11569 -1.6066 0
M  V30 3859 O 361.946 -1.43062 -2.3075 0
M  V30 3860 C 360.402 -3.51474 -0.774207 0
M  V30 3861 C 360.01 -4.46179 0.403496 0
M  V30 3862 C 361.754 -4.01758 -1.37079 0
M  V30 3863 C 359.661 -5.91399 0.0129412 0
M  V30 3864 H 358.591 -0.737777 -0.155565 0
M  V30 3865 H 361.242 -1.80659 0.321635 0
M  V30 3866 H 359.624 -3.63994 -1.55963 0
M  V30 3867 H 360.798 -4.45409 1.18101 0
M  V30 3868 H 359.113 -4.06255 0.913536 0
M  V30 3869 H 361.71 -5.07756 -1.67596 0
M  V30 3870 H 362.053 -3.47805 -2.28773 0
M  V30 3871 H 362.586 -3.92475 -0.648733 0
M  V30 3872 H 359.325 -6.49341 0.896451 0
M  V30 3873 H 358.845 -5.95356 -0.728821 0
M  V30 3874 H 360.524 -6.45683 -0.412582 0
M  V30 3875 N 360.656 0.0484629 -1.57525 0
M  V30 3876 C 361.905 0.742065 -1.87553 0
M  V30 3877 C 362.218 1.77545 -0.820802 0
M  V30 3878 O 363.424 2.52027 -1.00967 0
M  V30 3879 C 361.88 1.37081 -3.32771 0
M  V30 3880 C 361.488 0.374786 -4.4643 0
M  V30 3881 C 363.232 2.04542 -3.71972 0
M  V30 3882 C 361.139 1.01077 -5.82698 0
M  V30 3883 H 360.069 0.280903 -0.699721 0
M  V30 3884 H 362.72 -0.00411877 -1.835 0
M  V30 3885 H 361.102 2.16605 -3.31509 0
M  V30 3886 H 362.276 -0.392331 -4.59127 0
M  V30 3887 H 360.591 -0.196653 -4.15935 0
M  V30 3888 H 363.188 2.52943 -4.71088 0
M  V30 3889 H 363.531 2.85515 -3.02964 0
M  V30 3890 H 364.064 1.31819 -3.75325 0
M  V30 3891 H 360.803 0.240878 -6.55057 0
M  V30 3892 H 360.323 1.74819 -5.73758 0
M  V30 3893 H 362.002 1.52383 -6.28799 0
M  V30 3894 N 362.134 1.5431 0.320358 0
M  V30 3895 C 363.55 1.45091 0.664889 0
M  V30 3896 C 363.75 0.626382 1.91517 0
M  V30 3897 O 362.806 0.126443 2.52183 0
M  V30 3898 C 364.119 2.88848 0.83591 0
M  V30 3899 C 365.667 2.9877 0.933046 0
M  V30 3900 C 366.142 4.43683 1.13621 0
M  V30 3901 N 367.633 4.47309 1.20287 0
M  V30 3902 C 368.368 5.56595 1.37801 0
M  V30 3903 N 367.864 6.75844 1.52338 0
M  V30 3904 N 369.657 5.44248 1.40535 0
M  V30 3905 H 361.808 2.06398 -0.501374 0
M  V30 3906 H 364.071 0.933963 -0.162534 0
M  V30 3907 H 363.777 3.51698 -0.0116092 0
M  V30 3908 H 363.651 3.35148 1.73078 0
M  V30 3909 H 366.038 2.36045 1.77107 0
M  V30 3910 H 366.119 2.55796 0.0145782 0
M  V30 3911 H 365.763 5.06995 0.303032 0
M  V30 3912 H 365.693 4.84269 2.0686 0
M  V30 3913 H 368.184 3.61388 1.10485 0
M  V30 3914 H 368.497 7.54892 1.65403 0
M  V30 3915 H 366.842 6.78746 1.4943 0
M  V30 3916 H 370.033 4.50038 1.28777 0
M  V30 3917 H 370.206 6.29473 1.53842 0
M  V30 3918 N 363.613 -0.582584 1.46437 0
M  V30 3919 C 364.56 -1.69164 1.5701 0
M  V30 3920 C 365.53 -1.60847 0.414403 0
M  V30 3921 O 366.715 -1.80058 0.631171 0
M  V30 3922 C 363.855 -3.075 1.56646 0
M  V30 3923 C 362.968 -3.2644 2.82951 0
M  V30 3924 C 362.103 -4.55026 2.7409 0
M  V30 3925 C 361.142 -4.6731 3.95333 0
M  V30 3926 N 360.279 -5.87221 3.84858 0
M  V30 3927 H 365.119 -1.59464 2.51744 0
M  V30 3928 H 362.656 -0.777186 1.24893 0
M  V30 3929 H 364.614 -3.8757 1.5442 0
M  V30 3930 H 363.244 -3.16096 0.654439 0
M  V30 3931 H 362.296 -2.39974 2.95155 0
M  V30 3932 H 363.608 -3.31385 3.72808 0
M  V30 3933 H 362.762 -5.43324 2.6997 0
M  V30 3934 H 361.501 -4.52519 1.81873 0
M  V30 3935 H 360.506 -3.77429 3.99784 0
M  V30 3936 H 361.731 -4.71595 4.88646 0
M  V30 3937 H 359.677 -5.85712 2.95427 0
M  V30 3938 H 359.594 -5.93435 4.6837 0
M  V30 3939 H 360.862 -6.7795 3.84713 0
M  V30 3940 N 365.091 -1.34144 -0.827227 0
M  V30 3941 C 366.339 -1.26009 -1.58007 0
M  V30 3942 C 366.66 0.170971 -1.94249 0
M  V30 3943 O 365.93 1.10256 -1.61927 0
M  V30 3944 H 364.51 -0.463414 -0.585881 0
M  V30 3945 H 367.172 -1.68005 -0.987951 0
M  V30 3946 H 366.268 -1.86187 -2.50481 0
M  V30 3947 N 366.569 1.04691 -1.17803 0
M  V30 3948 C 367.817 1.7743 -0.967617 0
M  V30 3949 C 368.138 1.88359 0.504574 0
M  V30 3950 O 367.408 1.40402 1.36617 0
M  V30 3951 H 365.988 0.657242 -0.355024 0
M  V30 3952 H 368.65 1.2638 -1.48371 0
M  V30 3953 H 367.746 2.78924 -1.40027 0
M  V30 3954 N 368.047 0.979072 1.23499 0
M  V30 3955 C 368.957 0.526431 2.28617 0
M  V30 3956 C 369.973 -0.418126 1.68901 0
M  V30 3957 O 371.149 -0.288372 1.99325 0
M  V30 3958 C 368.214 -0.165235 3.46306 0
M  V30 3959 C 367.275 0.82056 4.21385 0
M  V30 3960 C 366.508 0.161807 5.33455 0
M  V30 3961 O 366.731 -1.04742 5.60701 0
M  V30 3962 O 365.665 0.859708 5.95729 0
M  V30 3963 H 369.491 1.4006 2.69475 0
M  V30 3964 H 367.076 0.746643 1.29405 0
M  V30 3965 H 368.958 -0.553287 4.17752 0
M  V30 3966 H 367.633 -1.01419 3.07402 0
M  V30 3967 H 366.54 1.25929 3.52268 0
M  V30 3968 H 367.873 1.63828 4.64135 0
M  V30 3969 N 369.525 -1.3858 0.750561 0
M  V30 3970 C 370.753 -2.04471 0.316098 0
M  V30 3971 C 371.168 -1.56606 -1.05452 0
M  V30 3972 O 370.525 -0.737784 -1.66922 0
M  V30 3973 C 370.576 -3.60025 0.326275 0
M  V30 3974 O 370.297 -4.06133 1.6428 0
M  V30 3975 C 371.798 -4.43131 -0.122429 0
M  V30 3976 H 369.018 -0.65717 0.135528 0
M  V30 3977 H 371.562 -1.77329 1.01857 0
M  V30 3978 H 369.717 -3.86014 -0.327431 0
M  V30 3979 H 370.131 -5.00547 1.56693 0
M  V30 3980 H 371.605 -5.51963 -0.0641473 0
M  V30 3981 H 372.082 -4.23333 -1.16988 0
M  V30 3982 H 372.688 -4.22323 0.50229 0
M  V30 3983 N 371.003 -0.499398 -1.49478 0
M  V30 3984 C 372.228 0.044722 -2.07352 0
M  V30 3985 C 372.653 1.30207 -1.35749 0
M  V30 3986 O 372.011 1.76516 -0.413732 0
M  V30 3987 C 372.059 0.283013 -3.59488 0
M  V30 3988 O 371.163 1.35804 -3.89398 0
M  V30 3989 H 370.504 -0.0255147 -0.66351 0
M  V30 3990 H 373.034 -0.698561 -1.92305 0
M  V30 3991 H 373.044 0.515007 -4.04737 0
M  V30 3992 H 371.719 -0.635636 -4.11014 0
M  V30 3993 H 370.296 1.11113 -3.55961 0
M  V30 3994 N 372.481 1.55866 -0.233164 0
M  V30 3995 C 373.391 2.24431 0.683217 0
M  V30 3996 C 374.407 1.2558 1.2044 0
M  V30 3997 O 375.583 1.58422 1.24356 0
M  V30 3998 C 372.648 2.91979 1.86947 0
M  V30 3999 C 371.709 4.06204 1.38912 0
M  V30 4000 C 370.942 4.70522 2.51883 0
M  V30 4001 O 371.165 4.33865 3.70293 0
M  V30 4002 O 370.099 5.59296 2.22423 0
M  V30 4003 H 373.925 3.03426 0.129059 0
M  V30 4004 H 371.51 1.494 -0.0022283 0
M  V30 4005 H 373.392 3.34573 2.56201 0
M  V30 4006 H 372.067 2.15935 2.41151 0
M  V30 4007 H 370.974 3.68155 0.664259 0
M  V30 4008 H 372.307 4.84025 0.893328 0
M  V30 4009 N 373.959 -0.0401083 1.57549 0
M  V30 4010 C 374.892 -1.07689 2.01192 0
M  V30 4011 C 375.87 -1.358 0.894273 0
M  V30 4012 O 377.054 -1.48642 1.15921 0
M  V30 4013 C 374.181 -2.41418 2.3756 0
M  V30 4014 C 373.227 -2.29237 3.59656 0
M  V30 4015 S 374.06 -1.65628 5.09242 0
M  V30 4016 C 375.216 -3.0087 5.48843 0
M  V30 4017 H 375.449 -0.705108 2.88817 0
M  V30 4018 H 372.982 -0.249724 1.52367 0
M  V30 4019 H 374.94 -3.18329 2.59186 0
M  V30 4020 H 373.601 -2.75747 1.50407 0
M  V30 4021 H 372.794 -3.27932 3.82722 0
M  V30 4022 H 372.396 -1.60469 3.37825 0
M  V30 4023 H 374.688 -3.97201 5.48851 0
M  V30 4024 H 375.631 -2.82549 6.49286 0
M  V30 4025 H 376.039 -3.02934 4.76331 0
M  V30 4026 N 375.437 -1.54477 -0.31217 0
M  V30 4027 C 376.667 -1.76948 -1.06645 0
M  V30 4028 C 377.075 -0.523593 -1.81811 0
M  V30 4029 O 376.418 0.51578 -1.76311 0
M  V30 4030 C 376.48 -2.91668 -2.10166 0
M  V30 4031 C 376.144 -4.30165 -1.54296 0
M  V30 4032 C 377.141 -5.10603 -0.978793 0
M  V30 4033 C 374.826 -4.76738 -1.58196 0
M  V30 4034 C 376.82 -6.3573 -0.461048 0
M  V30 4035 C 374.507 -6.01831 -1.06034 0
M  V30 4036 C 375.505 -6.81161 -0.500844 0
M  V30 4037 O 375.193 -8.03899 0.0128958 0
M  V30 4038 H 374.925 -0.594088 -0.322546 0
M  V30 4039 H 377.479 -2.02213 -0.360441 0
M  V30 4040 H 375.709 -2.62001 -2.84416 0
M  V30 4041 H 377.398 -3.01817 -2.71406 0
M  V30 4042 H 378.164 -4.75771 -0.941651 0
M  V30 4043 H 374.043 -4.15027 -2.00683 0
M  V30 4044 H 377.587 -6.97596 -0.0236894 0
M  V30 4045 H 373.484 -6.36152 -1.09459 0
M  V30 4046 H 374.252 -8.18437 -0.101457 0
M  V30 4047 N 376.915 0.57481 -1.46744 0
M  V30 4048 C 377.845 1.69337 -1.60771 0
M  V30 4049 C 378.826 1.63825 -0.457736 0
M  V30 4050 O 380.011 1.8172 -0.684947 0
M  V30 4051 C 377.141 3.0798 -1.60517 0
M  V30 4052 C 376.095 3.28327 -2.74564 0
M  V30 4053 C 375.421 4.67578 -2.59373 0
M  V30 4054 C 376.721 3.15398 -4.16319 0
M  V30 4055 H 378.415 1.57853 -2.54407 0
M  V30 4056 H 375.961 0.75799 -1.22436 0
M  V30 4057 H 377.914 3.86061 -1.68923 0
M  V30 4058 H 376.638 3.20381 -0.634305 0
M  V30 4059 H 375.297 2.52649 -2.65639 0
M  V30 4060 H 374.945 4.76755 -1.60353 0
M  V30 4061 H 374.645 4.82144 -3.35873 0
M  V30 4062 H 376.169 5.47817 -2.69682 0
M  V30 4063 H 377.583 3.83315 -4.26313 0
M  V30 4064 H 375.98 3.41482 -4.93468 0
M  V30 4065 H 377.05 2.12372 -4.3592 0
M  V30 4066 N 378.394 1.34581 0.820102 0
M  V30 4067 C 379.643 1.26437 1.57151 0
M  V30 4068 C 379.956 -0.163111 1.94919 0
M  V30 4069 O 381.162 -0.366722 2.69012 0
M  V30 4070 C 379.618 2.21658 2.83541 0
M  V30 4071 C 379.226 3.69679 2.53065 0
M  V30 4072 C 380.97 2.22428 3.61561 0
M  V30 4073 C 378.877 4.56761 3.75664 0
M  V30 4074 H 377.807 0.469707 0.589823 0
M  V30 4075 H 380.458 1.59763 0.902656 0
M  V30 4076 H 378.84 1.81287 3.52067 0
M  V30 4077 H 380.014 4.18605 1.92631 0
M  V30 4078 H 378.329 3.71384 1.88316 0
M  V30 4079 H 380.926 2.8471 4.52597 0
M  V30 4080 H 381.269 1.22434 3.97889 0
M  V30 4081 H 381.802 2.61259 2.99981 0
M  V30 4082 H 378.541 5.57702 3.44454 0
M  V30 4083 H 378.061 4.12568 4.35371 0
M  V30 4084 H 379.74 4.71509 4.43044 0
M  V30 4085 N 379.872 -1.04064 1.18357 0
M  V30 4086 C 380.804 -2.12114 0.868358 0
M  V30 4087 C 381.817 -1.62247 -0.134045 0
M  V30 4088 O 383.006 -1.78253 0.0937933 0
M  V30 4089 C 380.106 -3.37773 0.276132 0
M  V30 4090 C 379.279 -4.16874 1.3242 0
M  V30 4091 C 378.338 -5.20861 0.747662 0
M  V30 4092 O 377.364 -5.51141 1.42239 0
M  V30 4093 N 378.566 -5.78715 -0.454823 0
M  V30 4094 H 381.331 -2.39748 1.79836 0
M  V30 4095 H 378.892 -1.20258 1.08396 0
M  V30 4096 H 380.884 -4.04513 -0.123133 0
M  V30 4097 H 379.454 -3.07581 -0.557895 0
M  V30 4098 H 378.674 -3.45456 1.89878 0
M  V30 4099 H 379.962 -4.66516 2.03078 0
M  V30 4100 H 379.36 -5.56415 -1.02073 0
M  V30 4101 H 377.917 -6.46921 -0.79601 0
M  V30 4102 N 381.35 -0.985608 -1.22978 0
M  V30 4103 C 382.761 -0.693593 -1.73338 0
M  V30 4104 C 383.112 0.789935 -1.79595 0
M  V30 4105 O 382.237 1.61771 -1.43733 0
M  V30 4106 C 382.832 -1.25235 -3.14804 0
M  V30 4107 C 381.391 -1.00987 -3.626 0
M  V30 4108 C 380.538 -1.37695 -2.40698 0
M  V30 4109 H 383.489 -1.15884 -1.08428 0
M  V30 4110 H 383.51 -0.627329 -3.75293 0
M  V30 4111 H 383.022 -2.33209 -3.10218 0
M  V30 4112 H 381.123 0.0535565 -3.72562 0
M  V30 4113 H 381.236 -1.66812 -4.49122 0
M  V30 4114 H 379.6 -0.795459 -2.4196 0
M  V30 4115 H 380.383 -2.46657 -2.38779 0
M  V30 4116 N 382.828 1.3818 -0.7579 0
M  V30 4117 C 384.105 1.94106 -0.241306 0
M  V30 4118 C 384.485 1.69282 1.26122 0
M  V30 4119 O 383.833 1.03378 2.03777 0
M  V30 4120 C 384.043 3.43809 -0.59967 0
M  V30 4121 C 385.391 4.20868 -0.561717 0
M  V30 4122 O 386.415 3.5211 -0.538222 0
M  V30 4123 O 385.274 5.43451 -0.576478 0
M  V30 4124 H 382.368 0.825376 -0.0518042 0
M  V30 4125 H 384.914 1.47548 -0.838315 0
M  V30 4126 H 383.686 3.55403 -1.6372 0
M  V30 4127 H 383.309 3.97592 0.0251197 0
M  V30 4128 N 384.306 0.507319 1.49211 0
M  V30 4129 C 385.531 -0.033725 2.07373 0
M  V30 4130 C 385.956 -1.29485 1.36437 0
M  V30 4131 O 385.314 -1.76294 0.423087 0
M  V30 4132 C 385.362 -0.263945 3.59633 0
M  V30 4133 O 384.466 -1.33737 3.90113 0
M  V30 4134 H 383.807 0.0290331 0.663365 0
M  V30 4135 H 386.337 0.708749 1.91932 0
M  V30 4136 H 386.347 -0.493536 4.05004 0
M  V30 4137 H 385.022 0.657424 4.10671 0
M  V30 4138 H 383.599 -1.09224 3.56545 0
M  V30 4139 N 385.784 -1.5574 0.241426 0
M  V30 4140 C 387.009 -2.0366 -0.392111 0
M  V30 4141 C 387.434 -1.11969 -1.51144 0
M  V30 4142 O 386.792 -0.111594 -1.80956 0
M  V30 4143 C 386.84 -3.49638 -0.882371 0
M  V30 4144 O 385.944 -3.6108 -1.99235 0
M  V30 4145 H 385.285 -0.658379 -0.0862122 0
M  V30 4146 H 387.815 -2.01302 0.365881 0
M  V30 4147 H 387.825 -3.90351 -1.18702 0
M  V30 4148 H 386.5 -4.15852 -0.0632361 0
M  V30 4149 H 385.077 -3.32262 -1.69282 0
M  V30 4150 N 387.262 0.0317525 -1.57568 0
M  V30 4151 C 388.508 0.724175 -1.8943 0
M  V30 4152 C 388.841 1.75149 -0.838836 0
M  V30 4153 O 388.116 1.93948 0.146422 0
M  V30 4154 C 388.399 1.39615 -3.31933 0
M  V30 4155 C 388.252 0.382537 -4.4817 0
M  V30 4156 C 389.571 2.33084 -3.73309 0
M  V30 4157 H 386.69 0.261797 -0.688935 0
M  V30 4158 H 389.332 -0.013017 -1.89996 0
M  V30 4159 H 387.482 2.02451 -3.31581 0
M  V30 4160 H 389.154 -0.243689 -4.60656 0
M  V30 4161 H 387.397 -0.29844 -4.32772 0
M  V30 4162 H 388.068 0.891145 -5.44759 0
M  V30 4163 H 390.544 1.80295 -3.7501 0
M  V30 4164 H 389.42 2.77084 -4.73831 0
M  V30 4165 H 389.681 3.19643 -3.05419 0
M  V30 4166 N 388.74 1.54641 0.303973 0
M  V30 4167 C 389.687 1.85386 1.37479 0
M  V30 4168 C 390.657 0.702528 1.50512 0
M  V30 4169 O 391.842 0.950867 1.65418 0
M  V30 4170 C 388.982 2.10413 2.73533 0
M  V30 4171 C 388.095 3.38049 2.68974 0
M  V30 4172 C 387.23 3.52934 3.97002 0
M  V30 4173 C 386.269 4.74373 3.86829 0
M  V30 4174 N 385.406 4.8608 5.06627 0
M  V30 4175 H 390.246 2.76732 1.1056 0
M  V30 4176 H 387.783 1.37034 0.534805 0
M  V30 4177 H 389.741 2.22919 3.52652 0
M  V30 4178 H 388.371 1.22338 2.98719 0
M  V30 4179 H 387.423 3.3418 1.81736 0
M  V30 4180 H 388.735 4.27288 2.57346 0
M  V30 4181 H 387.889 3.65088 4.84557 0
M  V30 4182 H 386.628 2.61824 4.1146 0
M  V30 4183 H 385.633 4.62255 2.97658 0
M  V30 4184 H 386.858 5.66888 3.73918 0
M  V30 4185 H 384.804 3.97891 5.21554 0
M  V30 4186 H 384.721 5.69315 4.9741 0
M  V30 4187 H 385.989 5.02587 5.95841 0
M  V30 4188 N 390.218 -0.567019 1.47046 0
M  V30 4189 C 391.629 -1.14916 1.47143 0
M  V30 4190 C 391.98 -1.94954 0.220767 0
M  V30 4191 O 391.105 -2.05602 -0.67505 0
M  V30 4192 C 391.7 -2.09069 2.666 0
M  V30 4193 C 390.259 -2.62575 2.69687 0
M  V30 4194 C 389.406 -1.38755 2.40088 0
M  V30 4195 H 392.357 -0.354126 1.54699 0
M  V30 4196 H 392.378 -2.92789 2.43011 0
M  V30 4197 H 391.89 -1.50789 3.57609 0
M  V30 4198 H 389.991 -3.24681 1.82792 0
M  V30 4199 H 390.104 -3.04239 3.70102 0
M  V30 4200 H 388.468 -1.69098 1.90468 0
M  V30 4201 H 389.251 -0.822822 3.33293 0
M  V30 4202 N 391.696 -1.35014 -0.812953 0
M  V30 4203 C 392.926 -1.30841 -1.59888 0
M  V30 4204 C 393.334 0.117576 -1.88834 0
M  V30 4205 O 392.677 1.07807 -1.48739 0
M  V30 4206 C 392.739 -2.0412 -2.95931 0
M  V30 4207 C 392.403 -3.53336 -2.89832 0
M  V30 4208 C 393.4 -4.48052 -2.63714 0
M  V30 4209 C 391.085 -3.95894 -3.0915 0
M  V30 4210 C 393.079 -5.833 -2.56982 0
M  V30 4211 C 390.766 -5.31239 -3.0204 0
M  V30 4212 C 391.764 -6.24754 -2.75991 0
M  V30 4213 O 391.452 -7.57617 -2.68833 0
M  V30 4214 H 391.184 -0.451215 -0.50337 0
M  V30 4215 H 393.738 -1.78354 -1.01877 0
M  V30 4216 H 391.968 -1.51235 -3.559 0
M  V30 4217 H 393.657 -1.93107 -3.57022 0
M  V30 4218 H 394.423 -4.16492 -2.48515 0
M  V30 4219 H 390.302 -3.23495 -3.28438 0
M  V30 4220 H 393.846 -6.56263 -2.36569 0
M  V30 4221 H 389.743 -5.62415 -3.16796 0
M  V30 4222 H 390.511 -7.67469 -2.84487 0
M  V30 4223 N 393.175 1.03435 -1.18907 0
M  V30 4224 C 394.591 1.28973 -0.940111 0
M  V30 4225 C 394.791 1.97676 0.390691 0
M  V30 4226 O 393.847 2.26127 1.12352 0
M  V30 4227 C 395.16 2.14221 -2.11021 0
M  V30 4228 C 396.708 2.27547 -2.14922 0
M  V30 4229 C 397.183 3.16164 -3.31367 0
M  V30 4230 N 398.674 3.23752 -3.31269 0
M  V30 4231 C 399.409 3.92495 -4.18014 0
M  V30 4232 N 398.905 4.63515 -5.14904 0
M  V30 4233 N 400.698 3.88838 -4.05908 0
M  V30 4234 H 392.849 0.57252 -2.04538 0
M  V30 4235 H 395.112 0.315184 -0.894071 0
M  V30 4236 H 394.818 1.71054 -3.073 0
M  V30 4237 H 394.692 3.14919 -2.0762 0
M  V30 4238 H 397.079 2.69947 -1.19217 0
M  V30 4239 H 397.16 1.26418 -2.22378 0
M  V30 4240 H 396.804 2.74474 -4.27348 0
M  V30 4241 H 396.734 4.17339 -3.21148 0
M  V30 4242 H 399.225 2.73167 -2.61129 0
M  V30 4243 H 399.538 5.13583 -5.77453 0
M  V30 4244 H 397.883 4.62398 -5.18857 0
M  V30 4245 H 401.074 3.32491 -3.29495 0
M  V30 4246 H 401.247 4.4214 -4.73726 0
M  V30 4247 N 394.653 0.992116 1.22453 0
M  V30 4248 C 395.899 0.668523 1.91464 0
M  V30 4249 C 396.232 -0.797313 1.77078 0
M  V30 4250 O 395.507 -1.5765 1.13916 0
M  V30 4251 C 395.79 1.07424 3.43703 0
M  V30 4252 C 395.643 2.59857 3.67143 0
M  V30 4253 C 396.962 0.626891 4.35612 0
M  V30 4254 H 394.081 0.244341 0.695318 0
M  V30 4255 H 396.723 1.2355 1.44345 0
M  V30 4256 H 394.873 0.591816 3.83966 0
M  V30 4257 H 396.545 3.15764 3.3629 0
M  V30 4258 H 394.788 3.01961 3.11451 0
M  V30 4259 H 395.459 2.83296 4.73759 0
M  V30 4260 H 397.935 1.04125 4.02861 0
M  V30 4261 H 396.811 0.939076 5.40807 0
M  V30 4262 H 397.072 -0.472457 4.39568 0
M  V30 4263 N 396.131 -1.37776 0.765217 0
M  V30 4264 C 397.361 -2.03828 0.337277 0
M  V30 4265 C 397.769 -1.57841 -1.04321 0
M  V30 4266 O 397.112 -0.752043 -1.67601 0
M  V30 4267 C 397.174 -3.58292 0.294407 0
M  V30 4268 C 396.838 -4.27384 1.61838 0
M  V30 4269 C 397.835 -4.51956 2.56967 0
M  V30 4270 C 395.52 -4.65345 1.89102 0
M  V30 4271 C 397.514 -5.13536 3.77571 0
M  V30 4272 C 395.201 -5.26647 3.09978 0
M  V30 4273 C 396.199 -5.50679 4.04032 0
M  V30 4274 O 395.887 -6.10702 5.2278 0
M  V30 4275 H 395.619 -0.661292 0.140248 0
M  V30 4276 H 398.173 -1.77222 1.03834 0
M  V30 4277 H 396.403 -3.83918 -0.462983 0
M  V30 4278 H 398.092 -4.05763 -0.105581 0
M  V30 4279 H 398.858 -4.23048 2.37183 0
M  V30 4280 H 394.737 -4.45978 1.16725 0
M  V30 4281 H 398.281 -5.3221 4.50997 0
M  V30 4282 H 394.178 -5.54979 3.29649 0
M  V30 4283 H 394.946 -6.29183 5.23517 0
M  V30 4284 N 397.609 -0.515225 -1.4894 0
M  V30 4285 C 398.849 0.0223983 -2.04388 0
M  V30 4286 C 399.213 1.32961 -1.38511 0
M  V30 4287 O 400.414 1.95236 -1.8476 0
M  V30 4288 C 398.685 0.157056 -3.57055 0
M  V30 4289 S 400.244 0.646875 -4.34006 0
M  V30 4290 H 397.062 -0.00500662 -0.710982 0
M  V30 4291 H 399.664 -0.69243 -1.82827 0
M  V30 4292 H 398.368 -0.799412 -4.02539 0
M  V30 4293 H 397.899 0.896704 -3.83044 0
M  V30 4294 H 399.914 1.91381 -4.57808 0
M  V30 4295 N 399.087 1.5561 -0.249682 0
M  V30 4296 C 400.364 1.90932 0.424761 0
M  V30 4297 C 400.744 1.17078 1.75658 0
M  V30 4298 O 400.092 0.289176 2.26663 0
M  V30 4299 C 400.302 3.43975 0.590109 0
M  V30 4300 C 401.65 4.15281 0.884714 0
M  V30 4301 O 402.674 3.49729 0.67587 0
M  V30 4302 O 401.533 5.31236 1.28259 0
M  V30 4303 H 398.627 0.794815 0.228468 0
M  V30 4304 H 401.173 1.67135 -0.293954 0
M  V30 4305 H 399.945 3.89748 -0.34818 0
M  V30 4306 H 399.568 3.73644 1.35926 0
M  V30 4307 N 400.565 -0.0233959 1.57583 0
M  V30 4308 C 401.498 -1.05549 2.02323 0
M  V30 4309 C 402.476 -1.34843 0.908626 0
M  V30 4310 O 403.66 -1.47404 1.17491 0
M  V30 4311 C 400.787 -2.38885 2.40108 0
M  V30 4312 C 399.833 -2.2541 3.62067 0
M  V30 4313 S 400.666 -1.60217 5.1097 0
M  V30 4314 C 401.822 -2.95032 5.52003 0
M  V30 4315 H 402.055 -0.674435 2.89549 0
M  V30 4316 H 399.588 -0.23355 1.52623 0
M  V30 4317 H 401.546 -3.15562 2.62547 0
M  V30 4318 H 400.207 -2.74137 1.53323 0
M  V30 4319 H 399.4 -3.23854 3.86179 0
M  V30 4320 H 399.002 -1.56876 3.39508 0
M  V30 4321 H 401.294 -3.91357 5.53033 0
M  V30 4322 H 402.237 -2.75646 6.52246 0
M  V30 4323 H 402.645 -2.97865 4.79517 0
M  V30 4324 N 402.043 -1.548 -0.295768 0
M  V30 4325 C 402.991 -1.86874 -1.38495 0
M  V30 4326 C 403.985 -0.742938 -1.52239 0
M  V30 4327 O 405.191 -0.926999 -1.54294 0
M  V30 4328 H 401.566 -0.592786 -0.462719 0
M  V30 4329 H 403.537 -2.77904 -1.08682 0
M  V30 4330 C 402.286 -2.13732 -2.74252 0
M  V30 4331 H 401.609 -2.99835 -2.64459 0
M  V30 4332 H 403.049 -2.4011 -3.49461 0
M  V30 4333 C 401.508 -0.937539 -3.23592 0
M  V30 4334 O 402.038 -0.160665 -4.01379 0
M  V30 4335 N 400.244 -0.741478 -2.80981 0
M  V30 4336 H 399.791 -1.37489 -2.1784 0
M  V30 4337 H 399.749 0.0597103 -3.14343 0
M  V30 4338 N 403.521 0.559213 -1.47345 0
M  V30 4339 C 404.749 1.34194 -1.57479 0
M  V30 4340 C 405.164 1.87463 -0.224261 0
M  V30 4341 O 404.521 1.64888 0.782185 0
M  V30 4342 C 404.572 2.51324 -2.59843 0
M  V30 4343 O 404.293 2.00256 -3.89653 0
M  V30 4344 C 405.794 3.43563 -2.80142 0
M  V30 4345 H 403.014 0.409136 -0.531835 0
M  V30 4346 H 405.558 0.677609 -1.92947 0
M  V30 4347 H 403.713 3.13699 -2.27314 0
M  V30 4348 H 404.127 2.76708 -4.4557 0
M  V30 4349 H 405.601 4.2217 -3.55635 0
M  V30 4350 H 406.078 3.9698 -1.87892 0
M  V30 4351 H 406.684 2.87005 -3.1386 0
M  V30 4352 N 404.999 1.35443 0.805782 0
M  V30 4353 C 405.909 1.30546 1.94923 0
M  V30 4354 C 406.925 0.210233 1.72725 0
M  V30 4355 O 408.101 0.43975 1.9654 0
M  V30 4356 C 405.166 1.07782 3.29521 0
M  V30 4357 C 404.227 2.26625 3.64609 0
M  V30 4358 C 403.46 2.04938 4.92784 0
M  V30 4359 O 403.683 1.01624 5.61274 0
M  V30 4360 O 402.617 2.9232 5.26149 0
M  V30 4361 H 406.443 2.26779 2.02002 0
M  V30 4362 H 404.028 1.15823 0.943682 0
M  V30 4363 H 405.91 0.969392 4.10098 0
M  V30 4364 H 404.585 0.146003 3.23371 0
M  V30 4365 H 403.492 2.43033 2.84404 0
M  V30 4366 H 404.825 3.18257 3.75464 0
M  V30 4367 N 406.477 -1.02803 1.19454 0
M  V30 4368 C 407.425 -2.13213 0.929673 0
M  V30 4369 C 408.419 -1.69011 -0.114806 0
M  V30 4370 O 409.625 -1.79967 0.0345147 0
M  V30 4371 H 406 -0.69662 0.28324 0
M  V30 4372 H 407.971 -2.32744 1.86743 0
M  V30 4373 C 406.72 -3.4429 0.485797 0
M  V30 4374 H 406.043 -3.7872 1.28105 0
M  V30 4375 H 407.483 -4.22638 0.339582 0
M  V30 4376 C 405.942 -3.27258 -0.800244 0
M  V30 4377 O 406.472 -3.55967 -1.86146 0
M  V30 4378 N 404.678 -2.80545 -0.75781 0
M  V30 4379 H 404.225 -2.57382 0.106039 0
M  V30 4380 H 404.183 -2.6953 -1.61867 0
M  V30 4381 N 407.956 -0.998596 -1.21925 0
M  V30 4382 C 409.204 -0.676325 -1.90448 0
M  V30 4383 C 409.525 0.794719 -1.78071 0
M  V30 4384 O 408.795 1.5701 -1.17152 0
M  V30 4385 H 407.375 -0.247165 -0.704925 0
M  V30 4386 H 410.037 -1.26633 -1.48156 0
M  V30 4387 H 409.133 -0.943858 -2.97486 0
M  V30 4388 N 409.434 1.37368 -0.772513 0
M  V30 4389 C 410.682 1.99279 -0.336516 0
M  V30 4390 C 411.003 1.6163 1.09091 0
M  V30 4391 O 410.273 0.882109 1.74916 0
M  V30 4392 H 408.853 0.737063 -0.121435 0
M  V30 4393 H 411.515 1.67836 -0.990809 0
M  V30 4394 H 410.611 3.09332 -0.414763 0
M  V30 4395 N 410.912 0.523116 1.48665 0
M  V30 4396 C 412.158 -0.00540031 2.03399 0
M  V30 4397 C 412.513 -1.3264 1.39372 0
M  V30 4398 O 411.806 -1.84184 0.527916 0
M  V30 4399 C 412 -0.191671 3.56886 0
M  V30 4400 C 411.829 1.10972 4.35793 0
M  V30 4401 C 410.599 1.66769 4.76987 0
M  V30 4402 C 412.797 2.01861 4.73029 0
M  V30 4403 N 410.779 2.91268 5.40404 0
M  V30 4404 C 412.15 3.10937 5.36394 0
M  V30 4405 C 414.205 2.02271 4.54962 0
M  V30 4406 C 412.908 4.20478 5.83601 0
M  V30 4407 C 414.934 3.10802 5.03146 0
M  V30 4408 C 414.296 4.18597 5.6653 0
M  V30 4409 H 410.395 0.0393531 0.781009 0
M  V30 4410 H 412.979 0.702876 1.8157 0
M  V30 4411 H 411.15 -0.869025 3.78553 0
M  V30 4412 H 412.882 -0.719177 3.98259 0
M  V30 4413 H 409.637 1.20996 4.57883 0
M  V30 4414 H 410.061 3.54635 5.76683 0
M  V30 4415 H 414.703 1.2023 4.05345 0
M  V30 4416 H 412.421 5.03303 6.32228 0
M  V30 4417 H 416.007 3.12166 4.90962 0
M  V30 4418 H 414.887 5.01193 6.03138 0
M  V30 4419 N 412.39 -1.55475 0.257931 0
M  V30 4420 C 413.618 -2.03609 -0.367559 0
M  V30 4421 C 414.033 -1.13687 -1.50734 0
M  V30 4422 O 413.39 -0.153479 -1.81853 0
M  V30 4423 C 413.441 -3.51001 -0.864908 0
M  V30 4424 O 413.162 -4.37499 0.229465 0
M  V30 4425 C 414.663 -4.14946 -1.55997 0
M  V30 4426 H 411.883 -0.665459 -0.0860521 0
M  V30 4427 H 414.427 -2.00843 0.385014 0
M  V30 4428 H 412.582 -3.54266 -1.56762 0
M  V30 4429 H 412.996 -5.24286 -0.14998 0
M  V30 4430 H 414.47 -5.19735 -1.85956 0
M  V30 4431 H 414.947 -3.6209 -2.4857 0
M  V30 4432 H 415.553 -4.15635 -0.901543 0
M  V30 4433 N 413.868 0.0150385 -1.57593 0
M  V30 4434 C 415.114 0.704043 -1.90187 0
M  V30 4435 C 415.447 1.74249 -0.857366 0
M  V30 4436 O 414.722 1.94092 0.125843 0
M  V30 4437 C 415.005 1.36087 -3.33395 0
M  V30 4438 C 414.858 0.334981 -4.48551 0
M  V30 4439 C 416.177 2.29112 -3.7576 0
M  V30 4440 H 413.296 0.254475 -0.691673 0
M  V30 4441 H 415.938 -0.0331678 -1.89971 0
M  V30 4442 H 414.088 1.98922 -3.3371 0
M  V30 4443 H 415.76 -0.292534 -4.60372 0
M  V30 4444 H 414.003 -0.344325 -4.32431 0
M  V30 4445 H 414.674 0.833316 -5.45674 0
M  V30 4446 H 417.15 1.76308 -3.76902 0
M  V30 4447 H 416.026 2.72043 -4.76743 0
M  V30 4448 H 416.287 3.16385 -3.08793 0
M  V30 4449 N 415.346 1.54954 0.287554 0
M  V30 4450 C 416.595 1.74081 1.01877 0
M  V30 4451 C 416.908 0.541135 1.87966 0
M  V30 4452 O 418.114 0.614491 2.64455 0
M  V30 4453 C 416.57 3.08042 1.86113 0
M  V30 4454 C 416.178 4.35531 1.04961 0
M  V30 4455 C 417.922 3.36523 2.58752 0
M  V30 4456 C 415.829 5.60538 1.88551 0
M  V30 4457 H 414.759 0.64884 0.384087 0
M  V30 4458 H 417.41 1.81426 0.275101 0
M  V30 4459 H 415.792 2.94696 2.64519 0
M  V30 4460 H 416.966 4.59751 0.31074 0
M  V30 4461 H 415.281 4.14085 0.43843 0
M  V30 4462 H 417.878 4.27122 3.21668 0
M  V30 4463 H 418.221 2.56 3.28283 0
M  V30 4464 H 418.754 3.50901 1.87386 0
M  V30 4465 H 415.493 6.43767 1.23466 0
M  V30 4466 H 415.013 5.40483 2.60074 0
M  V30 4467 H 416.692 5.98297 2.46273 0
M  V30 4468 N 416.824 -0.551391 1.4764 0
M  V30 4469 C 417.756 -1.67333 1.56628 0
M  V30 4470 C 418.769 -1.56398 0.452045 0
M  V30 4471 O 419.958 -1.6325 0.721926 0
M  V30 4472 C 417.058 -3.05841 1.45994 0
M  V30 4473 C 416.231 -3.42472 2.72088 0
M  V30 4474 C 415.29 -4.60168 2.55209 0
M  V30 4475 O 414.316 -4.64458 3.2904 0
M  V30 4476 N 415.518 -5.57024 1.63416 0
M  V30 4477 H 418.283 -1.60066 2.53375 0
M  V30 4478 H 415.844 -0.738169 1.44093 0
M  V30 4479 H 417.836 -3.8242 1.32428 0
M  V30 4480 H 416.406 -3.07302 0.573071 0
M  V30 4481 H 415.626 -2.55284 3.00373 0
M  V30 4482 H 416.914 -3.63723 3.55785 0
M  V30 4483 H 416.312 -5.56319 1.02594 0
M  V30 4484 H 414.869 -6.32906 1.558 0
M  V30 4485 N 418.302 -1.35869 -0.798587 0
M  V30 4486 C 419.25 -1.29491 -1.93222 0
M  V30 4487 C 420.244 -0.18836 -1.6835 0
M  V30 4488 O 421.45 -0.354822 -1.76468 0
M  V30 4489 H 417.825 -0.402901 -0.63496 0
M  V30 4490 H 419.796 -2.25247 -1.9572 0
M  V30 4491 C 418.545 -1.09184 -3.30112 0
M  V30 4492 H 417.868 -1.93574 -3.49813 0
M  V30 4493 H 419.308 -1.08766 -4.09812 0
M  V30 4494 C 417.767 0.203959 -3.36282 0
M  V30 4495 O 418.297 1.19699 -3.83451 0
M  V30 4496 N 416.503 0.245488 -2.89561 0
M  V30 4497 H 416.05 -0.563223 -2.51367 0
M  V30 4498 H 416.008 1.11219 -2.94071 0
M  V30 4499 N 419.78 1.02168 -1.19998 0
M  V30 4500 C 421.196 1.27969 -0.953737 0
M  V30 4501 C 421.396 1.98079 0.369703 0
M  V30 4502 O 420.452 2.27306 1.09947 0
M  V30 4503 C 421.765 2.11971 -2.13281 0
M  V30 4504 C 423.313 2.25255 -2.17323 0
M  V30 4505 C 423.788 3.12632 -3.34702 0
M  V30 4506 N 425.279 3.2022 -3.34684 0
M  V30 4507 C 426.014 3.88039 -4.22153 0
M  V30 4508 N 425.51 4.58027 -5.19791 0
M  V30 4509 N 427.303 3.84511 -4.10009 0
M  V30 4510 H 419.454 0.550794 -2.05134 0
M  V30 4511 H 421.717 0.305683 -0.897364 0
M  V30 4512 H 421.423 1.67785 -3.09097 0
M  V30 4513 H 421.297 3.12699 -2.10949 0
M  V30 4514 H 423.684 2.68667 -1.22073 0
M  V30 4515 H 423.765 1.24053 -2.23706 0
M  V30 4516 H 423.409 2.69926 -4.30235 0
M  V30 4517 H 423.339 4.13909 -3.25556 0
M  V30 4518 H 425.83 2.70382 -2.64012 0
M  V30 4519 H 426.143 5.07429 -5.82868 0
M  V30 4520 H 424.488 4.56869 -5.23733 0
M  V30 4521 H 427.679 3.28978 -3.33003 0
M  V30 4522 H 427.852 4.3709 -4.78389 0
M  V30 4523 N 421.258 1.00505 1.21394 0
M  V30 4524 C 422.19 0.52372 2.23136 0
M  V30 4525 C 423.203 -0.387714 1.58116 0
M  V30 4526 O 424.392 -0.187905 1.77508 0
M  V30 4527 C 421.492 -0.258885 3.3791 0
M  V30 4528 C 420.665 0.651634 4.32519 0
M  V30 4529 C 419.724 -0.0813705 5.26137 0
M  V30 4530 O 418.75 0.537295 5.66658 0
M  V30 4531 N 419.952 -1.35992 5.64346 0
M  V30 4532 H 422.717 1.39865 2.65062 0
M  V30 4533 H 420.278 0.881196 1.35818 0
M  V30 4534 H 422.27 -0.758208 3.97534 0
M  V30 4535 H 420.84 -1.035 2.94968 0
M  V30 4536 H 420.06 1.33145 3.71034 0
M  V30 4537 H 421.348 1.27129 4.92662 0
M  V30 4538 H 420.746 -1.88368 5.33417 0
M  V30 4539 H 419.303 -1.8042 6.26332 0
M  V30 4540 N 422.737 -1.36956 0.779787 0
M  V30 4541 C 424.014 -1.93697 0.272156 0
M  V30 4542 C 424.394 -1.71267 -1.23413 0
M  V30 4543 O 423.742 -1.06607 -2.02107 0
M  V30 4544 C 423.952 -3.42812 0.654291 0
M  V30 4545 C 425.3 -4.19921 0.628602 0
M  V30 4546 O 426.324 -3.51209 0.594172 0
M  V30 4547 O 425.183 -5.42465 0.662864 0
M  V30 4548 H 422.277 -0.824447 0.0649286 0
M  V30 4549 H 424.823 -1.46196 0.861682 0
M  V30 4550 H 423.595 -3.52754 1.69353 0
M  V30 4551 H 423.218 -3.97582 0.0381369 0
M  V30 4552 N 424.215 -0.530993 -1.48385 0
M  V30 4553 C 425.463 0.00273189 -2.021 0
M  V30 4554 C 425.784 1.34672 -1.41027 0
M  V30 4555 O 425.054 1.8724 -0.576012 0
M  V30 4556 H 423.634 0.00399774 -0.746989 0
M  V30 4557 H 426.296 -0.695054 -1.82085 0
M  V30 4558 H 425.392 0.11031 -3.11905 0
M  V30 4559 N 425.693 1.55336 -0.266172 0
M  V30 4560 C 426.918 2.04258 0.359661 0
M  V30 4561 C 427.343 1.14359 1.49344 0
M  V30 4562 O 426.701 0.140369 1.80756 0
M  V30 4563 C 426.749 3.50997 0.826635 0
M  V30 4564 O 425.853 3.64204 1.93466 0
M  V30 4565 H 425.194 0.659668 0.075727 0
M  V30 4566 H 427.724 2.00694 -0.39786 0
M  V30 4567 H 427.734 3.9219 1.12477 0
M  V30 4568 H 426.409 4.159 -0.00293032 0
M  V30 4569 H 424.986 3.34913 1.63974 0
M  V30 4570 N 427.171 -0.0066808 1.57599 0
M  V30 4571 C 428.417 -0.693947 1.90558 0
M  V30 4572 C 428.75 -1.73792 0.866594 0
M  V30 4573 O 428.025 -1.94156 -0.115548 0
M  V30 4574 C 428.308 -1.34317 3.34112 0
M  V30 4575 C 428.161 -0.311189 4.48722 0
M  V30 4576 C 429.48 -2.27116 3.7697 0
M  V30 4577 H 426.599 -0.250803 0.693013 0
M  V30 4578 H 429.241 0.043242 1.89951 0
M  V30 4579 H 427.391 -1.9715 3.3476 0
M  V30 4580 H 429.063 0.316944 4.6021 0
M  V30 4581 H 427.306 0.367253 4.32243 0
M  V30 4582 H 427.977 -0.804366 5.46108 0
M  V30 4583 H 430.453 -1.74306 3.77831 0
M  V30 4584 H 429.329 -2.69511 4.78179 0
M  V30 4585 H 429.59 -3.14743 3.10466 0
M  V30 4586 N 428.649 -1.55105 -0.279332 0
M  V30 4587 C 429.926 -1.66119 -1.03267 0
M  V30 4588 C 430.306 -0.523525 -2.04505 0
M  V30 4589 O 429.654 0.477194 -2.23462 0
M  V30 4590 C 429.864 -3.05067 -1.69515 0
M  V30 4591 C 431.212 -3.62606 -2.20912 0
M  V30 4592 O 432.236 -3.07659 -1.79512 0
M  V30 4593 O 431.095 -4.58861 -2.96831 0
M  V30 4594 H 428.189 -0.674429 -0.478618 0
M  V30 4595 H 430.735 -1.67446 -0.275694 0
M  V30 4596 H 429.507 -3.79311 -0.9612 0
M  V30 4597 H 429.13 -3.07611 -2.51915 0
M  V30 4598 N 430.127 0.543554 -1.4793 0
M  V30 4599 C 431.374 1.30008 -1.55255 0
M  V30 4600 C 431.702 1.93245 -0.220612 0
M  V30 4601 O 430.957 1.79141 0.787843 0
M  V30 4602 C 431.256 2.42078 -2.62932 0
M  V30 4603 C 430.922 1.96583 -4.0579 0
M  V30 4604 C 429.584 1.83893 -4.44676 0
M  V30 4605 C 431.936 1.62034 -4.95373 0
M  V30 4606 C 429.264 1.34969 -5.70964 0
M  V30 4607 C 431.616 1.14577 -6.22137 0
M  V30 4608 C 430.28 1.00493 -6.59892 0
M  V30 4609 H 429.55 0.475735 -0.568117 0
M  V30 4610 H 432.197 0.608075 -1.81589 0
M  V30 4611 H 430.502 3.16892 -2.30406 0
M  V30 4612 H 432.199 3.00236 -2.65818 0
M  V30 4613 H 428.789 2.07407 -3.75074 0
M  V30 4614 H 432.973 1.70705 -4.66019 0
M  V30 4615 H 428.229 1.2274 -5.98953 0
M  V30 4616 H 432.403 0.869109 -6.90955 0
M  V30 4617 H 430.03 0.623624 -7.57638 0
M  V30 4618 N 431.605 1.3629 0.791371 0
M  V30 4619 C 432.853 1.30154 1.5461 0
M  V30 4620 C 433.174 -0.119409 1.94634 0
M  V30 4621 O 432.444 -1.05924 1.64794 0
M  V30 4622 H 431.024 0.478784 0.573389 0
M  V30 4623 H 433.686 1.70565 0.94306 0
M  V30 4624 H 432.782 1.92762 2.45457 0
M  V30 4625 N 433.083 -1.0153 1.20538 0
M  V30 4626 C 434.499 -1.27461 0.96051 0
M  V30 4627 C 434.699 -1.98273 -0.359193 0
M  V30 4628 O 433.755 -2.27886 -1.0874 0
M  V30 4629 C 435.068 -2.10837 2.14402 0
M  V30 4630 C 436.616 -2.24099 2.18515 0
M  V30 4631 C 437.091 -3.10852 3.36355 0
M  V30 4632 N 438.582 -3.18441 3.36377 0
M  V30 4633 C 439.317 -3.85795 4.24205 0
M  V30 4634 N 438.813 -4.55264 5.22213 0
M  V30 4635 N 440.606 -3.82331 4.12043 0
M  V30 4636 H 432.757 -0.539907 2.05423 0
M  V30 4637 H 435.02 -0.30092 0.898972 0
M  V30 4638 H 434.726 -1.66144 3.09983 0
M  V30 4639 H 434.6 -3.11576 2.12604 0
M  V30 4640 H 436.987 -2.68016 1.23497 0
M  V30 4641 H 437.068 -1.22865 2.24361 0
M  V30 4642 H 436.712 -2.6764 4.31661 0
M  V30 4643 H 436.642 -4.12177 3.27746 0
M  V30 4644 H 439.133 -2.68978 2.65442 0
M  V30 4645 H 439.446 -5.04331 5.85551 0
M  V30 4646 H 437.791 -4.54085 5.26148 0
M  V30 4647 H 440.982 -3.27207 3.34743 0
M  V30 4648 H 441.155 -4.34547 4.807 0
M  V30 4649 N 434.561 -1.01147 -1.20859 0
M  V30 4650 C 435.508 -0.577354 -2.23462 0
M  V30 4651 C 436.478 0.399922 -1.61214 0
M  V30 4652 O 437.663 0.300515 -1.88419 0
M  V30 4653 C 434.803 0.083372 -3.44999 0
M  V30 4654 C 433.916 -0.937856 -4.21697 0
M  V30 4655 C 433.051 -0.248717 -5.30617 0
M  V30 4656 C 432.09 -1.25705 -5.99053 0
M  V30 4657 N 431.227 -0.594939 -6.99575 0
M  V30 4658 H 436.067 -1.45695 -2.59956 0
M  V30 4659 H 433.604 -0.729428 -1.27741 0
M  V30 4660 H 435.562 0.483535 -4.14388 0
M  V30 4661 H 434.192 0.926645 -3.09214 0
M  V30 4662 H 433.244 -1.45622 -3.51423 0
M  V30 4663 H 434.556 -1.70493 -4.68757 0
M  V30 4664 H 433.71 0.207215 -6.06346 0
M  V30 4665 H 432.449 0.55071 -4.84581 0
M  V30 4666 H 431.454 -1.72343 -5.2209 0
M  V30 4667 H 432.679 -2.05767 -6.47176 0
M  V30 4668 H 430.625 0.184713 -6.5574 0
M  V30 4669 H 430.542 -1.30017 -7.44736 0
M  V30 4670 H 431.81 -0.162427 -7.79331 0
M  V30 4671 N 436.039 1.36541 -0.78704 0
M  V30 4672 C 437.285 2.00044 -0.367938 0
M  V30 4673 C 437.64 1.61345 1.04812 0
M  V30 4674 O 436.933 0.856936 1.71368 0
M  V30 4675 C 437.127 3.54343 -0.466485 0
M  V30 4676 C 436.956 4.08029 -1.89058 0
M  V30 4677 C 435.726 4.38284 -2.51466 0
M  V30 4678 C 437.924 4.27954 -2.85236 0
M  V30 4679 N 435.906 4.77778 -3.85488 0
M  V30 4680 C 437.277 4.70227 -4.04088 0
M  V30 4681 C 439.332 4.10119 -2.82324 0
M  V30 4682 C 438.035 4.96532 -5.20432 0
M  V30 4683 C 440.061 4.37569 -3.97854 0
M  V30 4684 C 439.423 4.80095 -5.15449 0
M  V30 4685 H 435.522 0.760525 -0.182004 0
M  V30 4686 H 438.106 1.65589 -1.02413 0
M  V30 4687 H 436.277 3.88072 0.159606 0
M  V30 4688 H 438.009 4.04693 -0.0238577 0
M  V30 4689 H 434.764 4.27905 -2.02965 0
M  V30 4690 H 435.188 5.01813 -4.54437 0
M  V30 4691 H 439.83 3.76399 -1.92571 0
M  V30 4692 H 437.548 5.29134 -6.10773 0
M  V30 4693 H 441.134 4.25341 -3.96958 0
M  V30 4694 H 440.014 5.00925 -6.0336 0
M  V30 4695 N 437.518 0.538854 1.48102 0
M  V30 4696 C 438.795 -0.0568108 1.95517 0
M  V30 4697 C 439.175 -1.50408 1.48124 0
M  V30 4698 O 438.523 -2.17133 0.711727 0
M  V30 4699 C 438.733 0.0696262 3.48931 0
M  V30 4700 C 440.081 -0.0851202 4.24515 0
M  V30 4701 O 441.105 -0.0037347 3.562 0
M  V30 4702 O 439.964 -0.257025 5.45895 0
M  V30 4703 H 437.058 -0.0743695 0.823649 0
M  V30 4704 H 439.604 0.604081 1.58584 0
M  V30 4705 H 438.376 1.07744 3.76174 0
M  V30 4706 H 437.999 -0.629714 3.92582 0
M  V30 4707 N 438.996 -1.55193 0.274407 0
M  V30 4708 C 440.407 -1.85358 -0.223488 0
M  V30 4709 C 440.758 -1.19642 -1.555 0
M  V30 4710 O 439.883 -0.484498 -2.10907 0
M  V30 4711 C 440.478 -3.36282 -0.412285 0
M  V30 4712 C 439.037 -3.66574 -0.854413 0
M  V30 4713 C 438.184 -2.7725 0.0527056 0
M  V30 4714 H 441.135 -1.50743 0.496215 0
M  V30 4715 H 441.156 -3.59349 -1.25094 0
M  V30 4716 H 440.668 -3.84083 0.556965 0
M  V30 4717 H 438.769 -3.24273 -1.83516 0
M  V30 4718 H 438.882 -4.74073 -0.692226 0
M  V30 4719 H 437.246 -2.50447 -0.463484 0
M  V30 4720 H 438.029 -3.27865 1.01783 0
M  V30 4721 N 440.474 -0.00167713 -1.576 0
M  V30 4722 C 441.704 0.692754 -1.94639 0
M  V30 4723 C 442.112 1.67744 -0.87513 0
M  V30 4724 O 441.455 1.8305 0.154382 0
M  V30 4725 C 441.517 1.47881 -3.27676 0
M  V30 4726 C 441.181 0.655518 -4.52274 0
M  V30 4727 C 442.178 -0.0575214 -5.19868 0
M  V30 4728 C 439.863 0.600994 -4.98692 0
M  V30 4729 C 441.857 -0.814052 -6.3218 0
M  V30 4730 C 439.544 -0.15926 -6.10892 0
M  V30 4731 C 440.542 -0.865515 -6.77494 0
M  V30 4732 O 440.23 -1.61336 -7.87544 0
M  V30 4733 H 439.962 0.197792 -0.646417 0
M  V30 4734 H 442.516 -0.049423 -2.05341 0
M  V30 4735 H 440.746 2.2655 -3.13388 0
M  V30 4736 H 442.435 2.05874 -3.49816 0
M  V30 4737 H 443.201 -0.0245611 -4.84994 0
M  V30 4738 H 439.08 1.14025 -4.46676 0
M  V30 4739 H 442.624 -1.36584 -6.84098 0
M  V30 4740 H 438.521 -0.194035 -6.45208 0
M  V30 4741 H 439.289 -1.53025 -8.04068 0
M  V30 4742 N 441.952 1.55251 0.271103 0
M  V30 4743 C 442.899 1.88261 1.33516 0
M  V30 4744 C 443.869 0.734296 1.48988 0
M  V30 4745 O 445.054 0.985741 1.63364 0
M  V30 4746 C 442.194 2.16168 2.69008 0
M  V30 4747 C 441.307 3.43678 2.61743 0
M  V30 4748 C 440.442 3.61276 3.89427 0
M  V30 4749 C 439.481 4.82472 3.7668 0
M  V30 4750 N 438.618 4.96717 4.96202 0
M  V30 4751 H 443.458 2.79015 1.04665 0
M  V30 4752 H 440.995 1.38137 0.505618 0
M  V30 4753 H 442.953 2.30349 3.47844 0
M  V30 4754 H 441.583 1.28646 2.96057 0
M  V30 4755 H 440.635 3.37959 1.74607 0
M  V30 4756 H 441.947 4.3265 2.48224 0
M  V30 4757 H 441.101 3.75284 4.76704 0
M  V30 4758 H 439.84 2.70492 4.05814 0
M  V30 4759 H 438.845 4.68465 2.87786 0
M  V30 4760 H 440.07 5.74692 3.61809 0
M  V30 4761 H 438.016 4.08865 5.12997 0
M  V30 4762 H 437.933 5.79738 4.85222 0
M  V30 4763 H 439.201 5.15113 5.85046 0
M  V30 4764 N 443.43 -0.535701 1.48216 0
M  V30 4765 C 444.362 -1.65662 1.58394 0
M  V30 4766 C 445.375 -1.5591 0.468607 0
M  V30 4767 O 446.564 -1.62475 0.7392 0
M  V30 4768 C 443.664 -3.04276 1.4923 0
M  V30 4769 C 442.837 -3.39567 2.75705 0
M  V30 4770 C 441.896 -4.57436 2.60075 0
M  V30 4771 O 440.922 -4.60942 3.33948 0
M  V30 4772 N 442.124 -5.55259 1.69315 0
M  V30 4773 H 444.889 -1.5737 2.55058 0
M  V30 4774 H 442.45 -0.722845 1.44867 0
M  V30 4775 H 444.442 -3.80994 1.36477 0
M  V30 4776 H 443.012 -3.06677 0.605632 0
M  V30 4777 H 442.232 -2.52083 3.03064 0
M  V30 4778 H 443.52 -3.59929 3.59623 0
M  V30 4779 H 442.918 -5.552 1.08489 0
M  V30 4780 H 441.475 -6.31218 1.62504 0
M  V30 4781 N 444.908 -1.36708 -0.784132 0
M  V30 4782 C 446.156 -1.30972 -1.53918 0
M  V30 4783 C 446.477 0.109086 -1.94695 0
M  V30 4784 O 445.747 1.05048 -1.65353 0
M  V30 4785 H 444.327 -0.481819 -0.570841 0
M  V30 4786 H 446.989 -1.71063 -0.934002 0
M  V30 4787 H 446.085 -1.94061 -2.44431 0
M  V30 4788 N 446.386 1.0089 -1.21074 0
M  V30 4789 C 447.633 1.74607 -1.0256 0
M  V30 4790 C 447.961 1.89426 0.44136 0
M  V30 4791 O 447.216 1.42266 1.34384 0
M  V30 4792 C 447.515 3.16335 -1.66334 0
M  V30 4793 C 447.181 3.21474 -3.16173 0
M  V30 4794 C 445.843 3.22583 -3.57062 0
M  V30 4795 C 448.195 3.19025 -4.12156 0
M  V30 4796 C 445.523 3.18925 -4.92446 0
M  V30 4797 C 447.875 3.16909 -5.47496 0
M  V30 4798 C 446.539 3.16326 -5.87787 0
M  V30 4799 H 445.809 0.638933 -0.375294 0
M  V30 4800 H 448.456 1.18274 -1.50611 0
M  V30 4801 H 446.761 3.75876 -1.10566 0
M  V30 4802 H 448.458 3.72083 -1.49516 0
M  V30 4803 H 445.048 3.2135 -2.83605 0
M  V30 4804 H 449.232 3.17332 -3.81595 0
M  V30 4805 H 444.488 3.16809 -5.22917 0
M  V30 4806 H 448.662 3.13968 -6.21609 0
M  V30 4807 H 446.289 3.13246 -6.92662 0
M  V30 4808 N 447.864 1.01787 1.20321 0
M  V30 4809 C 449.112 0.706538 1.89347 0
M  V30 4810 C 449.433 -0.766289 1.79313 0
M  V30 4811 O 448.703 -1.55126 1.19635 0
M  V30 4812 H 447.283 0.258348 0.700903 0
M  V30 4813 H 449.945 1.28974 1.46122 0
M  V30 4814 H 449.041 0.991066 2.95946 0
M  V30 4815 N 449.342 -1.36122 0.79427 0
M  V30 4816 C 450.29 -2.31871 0.184023 0
M  V30 4817 C 451.284 -1.56041 -0.659365 0
M  V30 4818 O 452.49 -1.71266 -0.553906 0
M  V30 4819 H 448.865 -0.750896 0.0407373 0
M  V30 4820 H 450.836 -2.80898 1.00693 0
M  V30 4821 C 449.585 -3.41324 -0.662813 0
M  V30 4822 H 448.908 -3.99793 -0.0231944 0
M  V30 4823 H 450.348 -4.10629 -1.05639 0
M  V30 4824 C 448.807 -2.83308 -1.82313 0
M  V30 4825 O 449.337 -2.75863 -2.91997 0
M  V30 4826 N 447.543 -2.40529 -1.63077 0
M  V30 4827 H 447.09 -2.46785 -0.738591 0
M  V30 4828 H 447.048 -2.02059 -2.40872 0
M  V30 4829 N 450.82 -0.546701 -1.47814 0
M  V30 4830 C 452.066 -0.0187684 -2.02791 0
M  V30 4831 C 452.399 1.32338 -1.42128 0
M  V30 4832 O 451.674 1.85867 -0.573023 0
M  V30 4833 C 451.957 0.0854985 -3.59998 0
M  V30 4834 C 451.81 -1.283 -4.31114 0
M  V30 4835 C 453.129 0.80412 -4.32691 0
M  V30 4836 H 450.248 -0.0082946 -0.736953 0
M  V30 4837 H 452.89 -0.706962 -1.76358 0
M  V30 4838 H 451.04 0.671609 -3.82651 0
M  V30 4839 H 452.712 -1.91151 -4.19832 0
M  V30 4840 H 450.955 -1.86049 -3.91878 0
M  V30 4841 H 451.626 -1.16287 -5.39612 0
M  V30 4842 H 454.102 0.306576 -4.14969 0
M  V30 4843 H 452.978 0.846011 -5.42341 0
M  V30 4844 H 453.239 1.85802 -4.01161 0
M  V30 4845 N 452.299 1.55045 -0.282633 0
M  V30 4846 C 453.262 2.21515 0.588539 0
M  V30 4847 C 454.262 1.19535 1.07554 0
M  V30 4848 O 455.452 1.44391 0.974514 0
M  V30 4849 C 452.584 2.88704 1.8128 0
M  V30 4850 H 453.777 2.99899 0.00806397 0
M  V30 4851 H 451.33 1.56265 -0.0333067 0
M  V30 4852 H 452.065 2.14352 2.43359 0
M  V30 4853 H 451.85 3.63443 1.47144 0
M  V30 4854 H 453.34 3.39465 2.43214 0
M  V30 4855 N 453.777 0.010035 1.57597 0
M  V30 4856 C 455.005 -0.683413 1.95287 0
M  V30 4857 C 455.42 -1.66747 0.885481 0
M  V30 4858 O 454.777 -1.82003 -0.134629 0
M  V30 4859 C 454.828 -1.40652 3.33015 0
M  V30 4860 O 454.549 -0.461916 4.35658 0
M  V30 4861 C 456.05 -2.19356 3.85225 0
M  V30 4862 H 453.27 -0.189708 0.643624 0
M  V30 4863 H 455.814 0.0641359 2.04399 0
M  V30 4864 H 453.969 -2.10562 3.2518 0
M  V30 4865 H 454.383 -0.973215 5.15392 0
M  V30 4866 H 455.857 -2.65433 4.83993 0
M  V30 4867 H 456.334 -3.02457 3.18459 0
M  V30 4868 H 456.94 -1.54442 3.96267 0
M  V30 4869 N 455.255 -1.55392 -0.262866 0
M  V30 4870 C 456.203 -1.8977 -1.345 0
M  V30 4871 C 457.197 -0.775063 -1.50629 0
M  V30 4872 O 458.403 -0.959519 -1.52293 0
M  V30 4873 H 454.778 -0.602467 -0.450041 0
M  V30 4874 H 456.749 -2.80147 -1.02762 0
M  V30 4875 C 455.498 -2.19501 -2.69657 0
M  V30 4876 H 454.821 -3.05378 -2.5804 0
M  V30 4877 H 456.261 -2.47469 -3.44289 0
M  V30 4878 C 454.72 -1.00597 -3.21531 0
M  V30 4879 O 455.25 -0.245768 -4.00947 0
M  V30 4880 N 453.456 -0.800911 -2.79345 0
M  V30 4881 H 453.003 -1.42079 -2.14875 0
M  V30 4882 H 452.961 -0.00697996 -3.14399 0
M  V30 4883 N 456.733 0.527833 -1.48498 0
M  V30 4884 C 457.961 1.30823 -1.6029 0
M  V30 4885 C 458.376 1.86945 -0.263974 0
M  V30 4886 O 457.733 1.6651 0.747034 0
M  V30 4887 C 457.784 2.45756 -2.65116 0
M  V30 4888 O 457.505 1.91946 -3.93813 0
M  V30 4889 C 459.006 3.37543 -2.87367 0
M  V30 4890 H 456.226 0.397763 -0.540394 0
M  V30 4891 H 458.77 0.636529 -1.94341 0
M  V30 4892 H 456.925 3.08806 -2.33917 0
M  V30 4893 H 457.339 2.67195 -4.51339 0
M  V30 4894 H 458.813 4.14532 -3.6451 0
M  V30 4895 H 459.29 3.92905 -1.9627 0
M  V30 4896 H 459.896 2.80283 -3.19878 0
M  V30 4897 N 458.211 1.37122 0.776871 0
M  V30 4898 C 459.488 1.22586 1.52421 0
M  V30 4899 C 459.868 -0.182726 2.10308 0
M  V30 4900 O 459.216 -1.18979 1.9508 0
M  V30 4901 C 459.426 2.31782 2.60918 0
M  V30 4902 C 460.774 2.69071 3.2846 0
M  V30 4903 O 461.798 2.3092 2.71209 0
M  V30 4904 O 460.657 3.3478 4.31954 0
M  V30 4905 H 457.751 0.478045 0.674835 0
M  V30 4906 H 460.297 1.48888 0.814275 0
M  V30 4907 H 459.069 3.26131 2.16227 0
M  V30 4908 H 458.692 2.06916 3.39517 0
M  V30 4909 N 459.689 -1.00246 1.21608 0
M  V30 4910 C 460.937 -1.73717 1.0328 0
M  V30 4911 C 461.258 -1.90102 -0.434318 0
M  V30 4912 O 460.528 -1.45376 -1.31311 0
M  V30 4913 H 459.108 -0.643613 0.379172 0
M  V30 4914 H 461.77 -1.20787 1.52959 0
M  V30 4915 H 460.866 -2.73535 1.50283 0
M  V30 4916 N 461.167 -1.02423 -1.1978 0
M  V30 4917 C 462.114 -0.601023 -2.22837 0
M  V30 4918 C 463.084 0.382801 -1.61629 0
M  V30 4919 O 464.269 0.280514 -1.88727 0
M  V30 4920 C 461.409 0.0467755 -3.45068 0
M  V30 4921 C 460.522 -0.98253 -4.20678 0
M  V30 4922 C 459.657 -0.304982 -5.30324 0
M  V30 4923 C 458.696 -1.32052 -5.97686 0
M  V30 4924 N 457.833 -0.669105 -6.98904 0
M  V30 4925 H 462.673 -1.48444 -2.58396 0
M  V30 4926 H 460.21 -0.742936 -1.2696 0
M  V30 4927 H 462.168 0.439556 -4.14878 0
M  V30 4928 H 460.798 0.893796 -3.10179 0
M  V30 4929 H 459.85 -1.49341 -3.49859 0
M  V30 4930 H 461.162 -1.75455 -4.66923 0
M  V30 4931 H 460.316 0.142893 -6.06532 0
M  V30 4932 H 459.055 0.499283 -4.85138 0
M  V30 4933 H 458.06 -1.7787 -5.20233 0
M  V30 4934 H 459.285 -2.1262 -6.44957 0
M  V30 4935 H 457.231 0.115152 -6.55899 0
M  V30 4936 H 457.148 -1.37908 -7.43315 0
M  V30 4937 H 458.416 -0.245076 -7.79115 0
M  V30 4938 N 462.645 1.35699 -0.801477 0
M  V30 4939 C 463.593 2.3177 -0.196317 0
M  V30 4940 C 464.587 1.56388 0.651081 0
M  V30 4941 O 465.793 1.71557 0.544815 0
M  V30 4942 H 462.168 0.750669 -0.0447189 0
M  V30 4943 H 464.139 2.8036 -1.02181 0
M  V30 4944 C 462.888 3.41671 0.644702 0
M  V30 4945 H 462.211 3.998 0.0019921 0
M  V30 4946 H 463.651 4.11184 1.0346 0
M  V30 4947 C 462.11 2.84271 1.80808 0
M  V30 4948 O 462.64 2.77408 2.9053 0
M  V30 4949 N 460.846 2.41391 1.61799 0
M  V30 4950 H 460.393 2.47173 0.725493 0
M  V30 4951 H 460.351 2.03334 2.39797 0
M  V30 4952 N 464.123 0.554532 1.47522 0
M  V30 4953 C 465.353 0.0342074 2.06572 0
M  V30 4954 C 465.761 -1.26375 1.40805 0
M  V30 4955 O 465.104 -1.7683 0.49769 0
M  V30 4956 C 465.166 -0.235096 3.5873 0
M  V30 4957 C 464.83 0.973024 4.46521 0
M  V30 4958 C 465.827 1.8779 4.848 0
M  V30 4959 C 463.512 1.18694 4.88075 0
M  V30 4960 C 465.506 2.98039 5.63428 0
M  V30 4961 C 463.193 2.29254 5.66468 0
M  V30 4962 C 464.191 3.18757 6.04055 0
M  V30 4963 O 463.879 4.27401 6.8087 0
M  V30 4964 H 463.611 0.041587 0.67472 0
M  V30 4965 H 466.165 0.766748 1.90552 0
M  V30 4966 H 464.395 -1.02191 3.72953 0
M  V30 4967 H 466.084 -0.700477 3.9981 0
M  V30 4968 H 466.85 1.72467 4.53299 0
M  V30 4969 H 462.729 0.49947 4.58286 0
M  V30 4970 H 466.273 3.67926 5.92685 0
M  V30 4971 H 462.17 2.4455 5.97382 0
M  V30 4972 H 462.938 4.25415 6.9926 0
M  V30 4973 N 465.601 -1.54893 0.290851 0
M  V30 4974 C 466.841 -2.01842 -0.322388 0
M  V30 4975 C 467.205 -1.17477 -1.51865 0
M  V30 4976 O 468.406 -1.54077 -2.20258 0
M  V30 4977 C 466.677 -3.50874 -0.679844 0
M  V30 4978 S 468.236 -4.19796 -1.27739 0
M  V30 4979 H 465.054 -0.704005 -0.0994866 0
M  V30 4980 H 467.656 -1.91015 0.416358 0
M  V30 4981 H 466.36 -4.09915 0.199435 0
M  V30 4982 H 465.891 -3.65717 -1.44964 0
M  V30 4983 H 467.906 -4.24729 -2.56554 0
M  V30 4984 N 467.08 -0.0183926 -1.57589 0
M  V30 4985 C 468.328 0.661253 -1.90976 0
M  V30 4986 C 468.649 1.73281 -0.894353 0
M  V30 4987 O 467.919 1.9579 0.0656788 0
M  V30 4988 H 466.499 0.247233 -0.704901 0
M  V30 4989 H 469.161 -0.0636639 -1.94796 0
M  V30 4990 H 468.257 1.12083 -2.9128 0
M  V30 4991 N 468.558 1.5553 0.254621 0
M  V30 4992 C 469.488 1.9268 1.31897 0
M  V30 4993 C 470.469 0.790797 1.506 0
M  V30 4994 O 471.654 1.05045 1.63337 0
M  V30 4995 C 468.784 2.21477 2.67517 0
M  V30 4996 C 467.738 3.37256 2.63519 0
M  V30 4997 C 467.064 3.51576 4.02862 0
M  V30 4998 C 468.364 4.73157 2.21179 0
M  V30 4999 H 470.058 2.81832 1.01051 0
M  V30 5000 H 467.604 1.35599 0.484662 0
M  V30 5001 H 469.557 2.46055 3.42104 0
M  V30 5002 H 468.281 1.29144 2.99982 0
M  V30 5003 H 466.94 3.12675 1.9139 0
M  V30 5004 H 466.588 2.56676 4.32581 0
M  V30 5005 H 466.288 4.2943 4.01078 0
M  V30 5006 H 467.812 3.78467 4.79161 0
M  V30 5007 H 469.226 4.97158 2.85494 0
M  V30 5008 H 467.623 5.54058 2.30521 0
M  V30 5009 H 468.693 4.70739 1.16332 0
M  V30 5010 N 470.036 -0.519951 1.48776 0
M  V30 5011 C 471.447 -1.10177 1.50725 0
M  V30 5012 C 471.798 -1.94153 0.282678 0
M  V30 5013 O 470.923 -2.07645 -0.609298 0
M  V30 5014 C 471.518 -2.00482 2.73116 0
M  V30 5015 C 470.077 -2.53862 2.77905 0
M  V30 5016 C 469.224 -1.31047 2.44381 0
M  V30 5017 H 472.175 -0.30473 1.55747 0
M  V30 5018 H 472.196 -2.8491 2.52203 0
M  V30 5019 H 471.708 -1.39335 3.62225 0
M  V30 5020 H 469.809 -3.18702 1.93029 0
M  V30 5021 H 469.922 -2.9231 3.79594 0
M  V30 5022 H 468.286 -1.62953 1.95751 0
M  V30 5023 H 469.069 -0.71637 3.35743 0
M  V30 5024 N 471.514 -1.37532 -0.769588 0
M  V30 5025 C 472.762 -1.32597 -1.5252 0
M  V30 5026 C 473.083 0.0884294 -1.94799 0
M  V30 5027 O 472.353 1.03289 -1.66458 0
M  V30 5028 H 470.933 -0.487846 -0.565699 0
M  V30 5029 H 473.595 -1.72044 -0.915806 0
M  V30 5030 H 472.691 -1.96643 -2.42359 0
M  V30 5031 N 472.992 0.995999 -1.22138 0
M  V30 5032 C 473.902 2.11985 -1.00496 0
M  V30 5033 C 474.918 1.7394 0.0457701 0
M  V30 5034 O 476.094 2.00868 -0.146273 0
M  V30 5035 C 473.159 3.41779 -0.582086 0
M  V30 5036 C 472.22 3.93943 -1.70608 0
M  V30 5037 C 471.453 5.17542 -1.30328 0
M  V30 5038 O 471.676 5.70114 -0.180743 0
M  V30 5039 O 470.61 5.63382 -2.11861 0
M  V30 5040 H 474.436 2.33123 -1.94647 0
M  V30 5041 H 472.021 1.10358 -1.00705 0
M  V30 5042 H 473.903 4.1989 -0.356467 0
M  V30 5043 H 472.578 3.22007 0.330592 0
M  V30 5044 H 471.485 3.17019 -1.98619 0
M  V30 5045 H 472.818 4.18141 -2.59651 0
M  V30 5046 N 474.47 1.03057 1.19235 0
M  V30 5047 C 475.7 0.746613 1.92638 0
M  V30 5048 C 476.108 -0.698708 1.75826 0
M  V30 5049 O 475.451 -1.487 1.07861 0
M  V30 5050 C 475.513 1.02024 3.44719 0
M  V30 5051 C 475.177 2.45745 3.85303 0
M  V30 5052 C 476.174 3.43887 3.8992 0
M  V30 5053 C 473.859 2.8019 4.16892 0
M  V30 5054 C 475.853 4.74529 4.2556 0
M  V30 5055 C 473.54 4.1104 4.52205 0
M  V30 5056 C 474.538 5.0802 4.56513 0
M  V30 5057 O 474.226 6.36527 4.91008 0
M  V30 5058 H 473.958 0.272401 0.618687 0
M  V30 5059 H 476.512 1.37853 1.52269 0
M  V30 5060 H 474.742 0.331184 3.85279 0
M  V30 5061 H 476.431 0.725677 3.9936 0
M  V30 5062 H 477.197 3.18614 3.65664 0
M  V30 5063 H 473.076 2.05382 4.12722 0
M  V30 5064 H 476.62 5.50222 4.28838 0
M  V30 5065 H 472.517 4.36086 4.7592 0
M  V30 5066 H 473.285 6.41025 5.08949 0
M  V30 5067 N 475.948 -1.35272 0.808662 0
M  V30 5068 C 477.194 -1.99434 0.399717 0
M  V30 5069 C 477.549 -1.62992 -1.02232 0
M  V30 5070 O 476.842 -0.884091 -1.69983 0
M  V30 5071 C 477.036 -3.53556 0.522798 0
M  V30 5072 C 476.865 -4.04969 1.95525 0
M  V30 5073 C 475.635 -4.34228 2.58407 0
M  V30 5074 C 477.833 -4.23362 2.92009 0
M  V30 5075 N 475.815 -4.71585 3.93041 0
M  V30 5076 C 477.186 -4.63739 4.11517 0
M  V30 5077 C 479.241 -4.05576 2.88813 0
M  V30 5078 C 477.944 -4.88189 5.28265 0
M  V30 5079 C 479.97 -4.31184 4.04765 0
M  V30 5080 C 479.332 -4.71834 5.23022 0
M  V30 5081 H 475.431 -0.757534 0.19408 0
M  V30 5082 H 478.015 -1.63939 1.05034 0
M  V30 5083 H 476.186 -3.88277 -0.0978471 0
M  V30 5084 H 477.918 -4.04604 0.0882378 0
M  V30 5085 H 474.673 -4.24621 2.09747 0
M  V30 5086 H 475.097 -4.9452 4.62363 0
M  V30 5087 H 479.739 -3.73288 1.98535 0
M  V30 5088 H 477.457 -5.1935 6.19113 0
M  V30 5089 H 481.043 -4.18972 4.03675 0
M  V30 5090 H 479.923 -4.91263 6.11253 0
M  V30 5091 N 477.426 -0.562348 -1.47226 0
M  V30 5092 C 478.356 0.170627 -2.32876 0
M  V30 5093 C 479.337 0.903748 -1.44106 0
M  V30 5094 O 480.522 0.883206 -1.72954 0
M  V30 5095 C 477.652 1.19786 -3.25989 0
M  V30 5096 C 476.606 0.580875 -4.2404 0
M  V30 5097 C 475.932 1.71311 -5.06514 0
M  V30 5098 C 477.232 -0.468714 -5.20193 0
M  V30 5099 H 478.926 -0.544441 -2.94408 0
M  V30 5100 H 476.472 -0.263271 -1.41573 0
M  V30 5101 H 478.425 1.71884 -3.84752 0
M  V30 5102 H 477.149 1.94294 -2.62521 0
M  V30 5103 H 475.808 0.0811538 -3.6651 0
M  V30 5104 H 475.456 2.44736 -4.39447 0
M  V30 5105 H 475.156 1.30604 -5.72902 0
M  V30 5106 H 476.68 2.23725 -5.68137 0
M  V30 5107 H 478.094 -0.0336028 -5.7329 0
M  V30 5108 H 476.491 -0.794957 -5.94811 0
M  V30 5109 H 477.561 -1.36269 -4.65359 0
M  V30 5110 N 478.904 1.54736 -0.299062 0
M  V30 5111 C 480.152 1.99706 0.31017 0
M  V30 5112 C 480.473 1.18896 1.54559 0
M  V30 5113 O 479.743 0.284445 1.93824 0
M  V30 5114 H 478.323 0.737686 0.117596 0
M  V30 5115 H 480.985 1.9054 -0.409943 0
M  V30 5116 H 480.081 3.06596 0.58355 0
M  V30 5117 N 480.382 0.0267497 1.57577 0
M  V30 5118 C 481.33 -0.973923 2.11229 0
M  V30 5119 C 482.324 -1.33849 1.03831 0
M  V30 5120 O 483.53 -1.321 1.22269 0
M  V30 5121 H 479.905 -0.331844 0.674821 0
M  V30 5122 H 481.876 -0.496092 2.94247 0
M  V30 5123 C 480.625 -2.24798 2.65257 0
M  V30 5124 H 479.948 -1.9762 3.47543 0
M  V30 5125 H 481.388 -2.93031 3.06445 0
M  V30 5126 C 479.847 -2.97611 1.57891 0
M  V30 5127 O 480.377 -3.89629 0.97735 0
M  V30 5128 N 478.583 -2.59905 1.29992 0
M  V30 5129 H 478.13 -1.85154 1.79097 0
M  V30 5130 H 478.088 -3.08932 0.583798 0
M  V30 5131 N 481.861 -1.55662 -0.24637 0
M  V30 5132 C 483.138 -1.68272 -0.997198 0
M  V30 5133 C 483.518 -0.566785 -2.03349 0
M  V30 5134 O 482.866 0.429688 -2.24424 0
M  V30 5135 C 483.076 -3.08594 -1.63006 0
M  V30 5136 C 484.424 -3.6721 -2.13171 0
M  V30 5137 O 485.448 -3.11397 -1.72946 0
M  V30 5138 O 484.307 -4.65054 -2.87031 0
M  V30 5139 H 481.401 -0.684429 -0.464205 0
M  V30 5140 H 483.947 -1.67993 -0.240114 0
M  V30 5141 H 482.719 -3.81264 -0.880527 0
M  V30 5142 H 482.342 -3.12886 -2.45333 0
M  V30 5143 N 483.339 0.512053 -1.4905 0
M  V30 5144 C 484.286 1.6148 -1.64902 0
M  V30 5145 C 485.256 1.58687 -0.490673 0
M  V30 5146 O 486.441 1.76842 -0.71636 0
M  V30 5147 C 483.581 2.99676 -1.71139 0
M  V30 5148 C 482.694 3.12568 -2.98203 0
M  V30 5149 C 481.829 4.4143 -2.95487 0
M  V30 5150 C 480.868 4.47916 -4.17179 0
M  V30 5151 N 480.005 5.68191 -4.12437 0
M  V30 5152 H 484.845 1.47271 -2.59066 0
M  V30 5153 H 482.382 0.716713 -1.28459 0
M  V30 5154 H 484.34 3.79761 -1.72736 0
M  V30 5155 H 482.97 3.12614 -0.804508 0
M  V30 5156 H 482.022 2.25618 -3.06269 0
M  V30 5157 H 483.334 3.1322 -3.88194 0
M  V30 5158 H 482.488 5.29825 -2.95585 0
M  V30 5159 H 481.227 4.43326 -2.03256 0
M  V30 5160 H 480.232 3.57925 -4.17337 0
M  V30 5161 H 481.457 4.47744 -5.1059 0
M  V30 5162 H 479.403 5.7095 -3.23036 0
M  V30 5163 H 479.32 5.70413 -4.96151 0
M  V30 5164 H 480.588 6.58823 -4.16621 0
M  V30 5165 N 484.817 1.37938 0.762283 0
M  V30 5166 C 486.066 1.32989 1.51647 0
M  V30 5167 C 486.379 -0.0802922 1.95435 0
M  V30 5168 O 487.585 -0.252295 2.70325 0
M  V30 5169 C 486.041 2.33485 2.73885 0
M  V30 5170 C 485.649 3.80079 2.37157 0
M  V30 5171 C 487.393 2.37563 3.51801 0
M  V30 5172 C 485.3 4.72283 3.55954 0
M  V30 5173 H 484.23 0.494301 0.56937 0
M  V30 5174 H 486.881 1.63448 0.834083 0
M  V30 5175 H 485.263 1.96056 3.44061 0
M  V30 5176 H 486.437 4.26398 1.74704 0
M  V30 5177 H 484.752 3.79037 1.72395 0
M  V30 5178 H 487.349 3.0365 4.40114 0
M  V30 5179 H 487.692 1.39199 3.92338 0
M  V30 5180 H 488.225 2.73747 2.8863 0
M  V30 5181 H 484.964 5.7181 3.2049 0
M  V30 5182 H 484.484 4.30663 4.1748 0
M  V30 5183 H 486.163 4.89876 4.22647 0
M  V30 5184 N 486.295 -0.989507 1.22664 0
M  V30 5185 C 487.52 -1.77031 1.08051 0
M  V30 5186 C 487.945 -1.84535 -0.364483 0
M  V30 5187 O 487.303 -1.3003 -1.2634 0
M  V30 5188 C 487.351 -3.18 1.70024 0
M  V30 5189 O 486.455 -4.01161 0.956216 0
M  V30 5190 H 485.796 -0.545008 0.379292 0
M  V30 5191 H 488.326 -1.24277 1.62531 0
M  V30 5192 H 488.336 -3.68616 1.74888 0
M  V30 5193 H 487.011 -3.11853 2.75174 0
M  V30 5194 H 485.588 -3.59687 0.98384 0
M  V30 5195 N 487.773 -1.03688 -1.18687 0
M  V30 5196 C 488.705 -0.582696 -2.21669 0
M  V30 5197 C 489.718 0.345656 -1.59088 0
M  V30 5198 O 490.907 0.140776 -1.77944 0
M  V30 5199 C 488.007 0.169204 -3.38477 0
M  V30 5200 C 487.18 -0.766079 -4.30639 0
M  V30 5201 C 486.239 -0.0581541 -5.26168 0
M  V30 5202 O 485.265 -0.687346 -5.65035 0
M  V30 5203 N 486.467 1.20981 -5.67753 0
M  V30 5204 H 489.232 -1.46843 -2.61261 0
M  V30 5205 H 486.793 -0.916896 -1.33434 0
M  V30 5206 H 488.785 0.652543 -3.99405 0
M  V30 5207 H 487.355 0.956435 -2.97609 0
M  V30 5208 H 486.575 -1.42935 -3.67373 0
M  V30 5209 H 487.863 -1.40146 -4.89118 0
M  V30 5210 H 487.261 1.74159 -5.38224 0
M  V30 5211 H 485.818 1.6375 -6.30896 0
M  V30 5212 N 489.251 1.34841 -0.815825 0
M  V30 5213 C 490.181 2.32187 -0.247298 0
M  V30 5214 C 491.162 1.5791 0.632344 0
M  V30 5215 O 492.347 1.8593 0.560698 0
M  V30 5216 C 489.477 3.42122 0.597466 0
M  V30 5217 C 488.431 4.27602 -0.184446 0
M  V30 5218 C 487.757 5.28942 0.782609 0
M  V30 5219 C 489.057 5.03502 -1.38865 0
M  V30 5220 H 490.751 2.79985 -1.06061 0
M  V30 5221 H 488.297 1.34611 -0.511461 0
M  V30 5222 H 490.25 4.09232 1.00533 0
M  V30 5223 H 488.974 2.92956 1.44376 0
M  V30 5224 H 487.633 3.62085 -0.573592 0
M  V30 5225 H 487.281 4.7604 1.62466 0
M  V30 5226 H 486.981 5.87008 0.263695 0
M  V30 5227 H 488.505 5.98922 1.18848 0
M  V30 5228 H 489.919 5.63506 -1.05518 0
M  V30 5229 H 488.316 5.71108 -1.8427 0
M  V30 5230 H 489.386 4.33608 -2.17054 0
M  V30 5231 N 490.729 0.570148 1.46925 0
M  V30 5232 C 491.957 0.0561966 2.06824 0
M  V30 5233 C 492.372 -1.24326 1.42086 0
M  V30 5234 O 491.729 -1.74882 0.521794 0
M  V30 5235 C 491.78 -0.129517 3.61268 0
M  V30 5236 O 491.501 1.1185 4.23581 0
M  V30 5237 C 493.002 -0.679266 4.38065 0
M  V30 5238 H 490.222 0.0517261 0.669003 0
M  V30 5239 H 492.766 0.787243 1.8874 0
M  V30 5240 H 490.921 -0.810739 3.78822 0
M  V30 5241 H 491.335 0.924375 5.1629 0
M  V30 5242 H 492.809 -0.758445 5.46765 0
M  V30 5243 H 493.286 -1.69346 4.05239 0
M  V30 5244 H 493.892 -0.0333237 4.25287 0
M  V30 5245 N 492.207 -1.54576 0.307264 0
M  V30 5246 C 493.623 -1.59534 -0.0459251 0
M  V30 5247 C 493.823 -1.32414 -1.51884 0
M  V30 5248 O 492.879 -1.1006 -2.27251 0
M  V30 5249 C 494.192 -2.98566 0.357649 0
M  V30 5250 C 495.74 -3.11491 0.306937 0
M  V30 5251 C 496.215 -4.52842 0.685427 0
M  V30 5252 N 497.706 -4.58782 0.638203 0
M  V30 5253 C 498.441 -5.66238 0.903458 0
M  V30 5254 N 497.937 -6.81703 1.23501 0
M  V30 5255 N 499.73 -5.55937 0.830102 0
M  V30 5256 H 491.881 -1.70464 1.26712 0
M  V30 5257 H 494.144 -0.79647 0.514139 0
M  V30 5258 H 493.85 -3.23356 1.38325 0
M  V30 5259 H 493.724 -3.76117 -0.285565 0
M  V30 5260 H 496.111 -2.86446 -0.709424 0
M  V30 5261 H 496.192 -2.36081 0.984861 0
M  V30 5262 H 495.836 -4.78618 1.69963 0
M  V30 5263 H 495.766 -5.26598 -0.0146346 0
M  V30 5264 H 498.257 -3.75849 0.393138 0
M  V30 5265 H 498.57 -7.59582 1.42322 0
M  V30 5266 H 496.915 -6.8324 1.27311 0
M  V30 5267 H 500.106 -4.64608 0.570693 0
M  V30 5268 H 500.279 -6.39597 1.04019 0
M  V30 5269 N 493.685 -0.035106 -1.57561 0
M  V30 5270 C 494.618 0.979673 -2.06101 0
M  V30 5271 C 495.596 1.31378 -0.958046 0
M  V30 5272 O 496.78 1.42942 -1.22881 0
M  V30 5273 C 493.907 2.29809 -2.48808 0
M  V30 5274 C 492.953 2.11817 -3.70184 0
M  V30 5275 S 493.786 1.41143 -5.16565 0
M  V30 5276 C 494.942 2.74341 -5.62572 0
M  V30 5277 H 495.175 0.566506 -2.91853 0
M  V30 5278 H 492.708 0.176744 -1.53385 0
M  V30 5279 H 494.666 3.056 -2.74078 0
M  V30 5280 H 493.327 2.68257 -1.63392 0
M  V30 5281 H 492.52 3.09299 -3.97933 0
M  V30 5282 H 492.122 1.44168 -3.45097 0
M  V30 5283 H 494.414 3.70562 -5.67177 0
M  V30 5284 H 495.357 2.51249 -6.62027 0
M  V30 5285 H 495.765 2.79863 -4.90242 0
M  V30 5286 N 495.163 1.55791 0.238111 0
M  V30 5287 C 496.411 1.77681 0.963001 0
M  V30 5288 C 496.732 0.600674 1.85518 0
M  V30 5289 O 496.002 -0.383182 1.92116 0
M  V30 5290 H 494.582 0.655315 0.358568 0
M  V30 5291 H 497.244 1.93239 0.253945 0
M  V30 5292 H 496.34 2.69177 1.57956 0
M  V30 5293 N 496.642 -0.504142 1.49319 0
M  V30 5294 C 498.053 -1.08572 1.51885 0
M  V30 5295 C 498.404 -1.93842 0.303255 0
M  V30 5296 O 497.529 -2.0828 -0.58724 0
M  V30 5297 C 498.124 -1.97574 2.75227 0
M  V30 5298 C 496.683 -2.509 2.80581 0
M  V30 5299 C 495.83 -1.28447 2.45757 0
M  V30 5300 H 498.781 -0.288194 1.56061 0
M  V30 5301 H 498.802 -2.82219 2.55211 0
M  V30 5302 H 498.314 -1.35486 3.63683 0
M  V30 5303 H 496.415 -3.16636 1.96398 0
M  V30 5304 H 496.528 -2.88268 3.82673 0
M  V30 5305 H 494.892 -1.60868 1.97468 0
M  V30 5306 H 495.675 -0.68072 3.36483 0
M  V30 5307 N 498.12 -1.38341 -0.754957 0
M  V30 5308 C 499.348 -1.37704 -1.54419 0
M  V30 5309 C 499.763 0.0335243 -1.8877 0
M  V30 5310 O 499.12 0.999773 -1.52679 0
M  V30 5311 C 499.171 -2.23136 -2.84416 0
M  V30 5312 O 498.892 -3.58697 -2.51531 0
M  V30 5313 C 500.393 -2.30664 -3.78562 0
M  V30 5314 H 497.613 -0.471061 -0.477852 0
M  V30 5315 H 500.157 -1.81902 -0.934446 0
M  V30 5316 H 498.312 -1.82403 -3.41772 0
M  V30 5317 H 498.726 -4.03665 -3.34896 0
M  V30 5318 H 500.2 -2.9473 -4.66732 0
M  V30 5319 H 500.677 -1.3199 -4.18898 0
M  V30 5320 H 501.283 -2.71781 -3.27131 0
M  V30 5321 N 499.598 0.982988 -1.23187 0
M  V30 5322 C 500.508 2.10907 -1.02739 0
M  V30 5323 C 501.524 1.73979 0.0273188 0
M  V30 5324 O 502.7 2.00702 -0.16757 0
M  V30 5325 C 499.765 3.41142 -0.618304 0
M  V30 5326 C 498.826 3.92112 -1.74777 0
M  V30 5327 C 498.059 5.16131 -1.3581 0
M  V30 5328 O 498.282 5.6989 -0.241201 0
M  V30 5329 O 497.216 5.61103 -2.17824 0
M  V30 5330 H 501.042 2.31046 -1.97108 0
M  V30 5331 H 498.627 1.09284 -1.01869 0
M  V30 5332 H 500.509 4.19488 -0.400982 0
M  V30 5333 H 499.184 3.2234 0.296421 0
M  V30 5334 H 498.091 3.14895 -2.0197 0
M  V30 5335 H 499.424 4.15364 -2.64071 0
M  V30 5336 N 501.076 1.04316 1.18135 0
M  V30 5337 C 502.006 0.657299 2.24058 0
M  V30 5338 C 502.987 -0.340678 1.66654 0
M  V30 5339 O 504.172 -0.220223 1.92947 0
M  V30 5340 C 501.302 0.0220715 3.47293 0
M  V30 5341 C 500.256 0.943857 4.17463 0
M  V30 5342 C 499.582 0.172973 5.3442 0
M  V30 5343 C 500.882 2.26409 4.70677 0
M  V30 5344 H 502.576 1.5428 2.56589 0
M  V30 5345 H 500.122 0.743263 1.23335 0
M  V30 5346 H 502.075 -0.259607 4.206 0
M  V30 5347 H 500.799 -0.898323 3.14003 0
M  V30 5348 H 499.458 1.20996 3.46057 0
M  V30 5349 H 499.106 -0.749907 4.97379 0
M  V30 5350 H 498.806 0.787098 5.82304 0
M  V30 5351 H 500.33 -0.101628 6.10515 0
M  V30 5352 H 501.744 2.04294 5.35665 0
M  V30 5353 H 500.141 2.8314 5.29105 0
M  V30 5354 H 501.211 2.90883 3.87962 0
M  V30 5355 N 502.554 -1.34406 0.822964 0
M  V30 5356 C 503.484 -2.32052 0.259608 0
M  V30 5357 C 504.465 -1.58243 -0.623961 0
M  V30 5358 O 505.65 -1.86224 -0.55083 0
M  V30 5359 C 502.78 -3.42434 -0.579314 0
M  V30 5360 C 501.734 -4.27499 0.20712 0
M  V30 5361 C 501.06 -5.29349 -0.754547 0
M  V30 5362 C 502.36 -5.02758 1.41533 0
M  V30 5363 H 504.054 -2.79418 1.07545 0
M  V30 5364 H 501.6 -1.34338 0.518593 0
M  V30 5365 H 503.553 -4.0976 -0.983612 0
M  V30 5366 H 502.277 -2.93717 -1.4282 0
M  V30 5367 H 500.936 -3.61776 0.592787 0
M  V30 5368 H 500.584 -4.76895 -1.59939 0
M  V30 5369 H 500.284 -5.8714 -0.232561 0
M  V30 5370 H 501.808 -5.99544 -1.1567 0
M  V30 5371 H 503.222 -5.62938 1.08504 0
M  V30 5372 H 501.619 -5.70123 1.87296 0
M  V30 5373 H 502.689 -4.32451 2.1935 0
M  V30 5374 N 504.032 -0.577932 -1.46621 0
M  V30 5375 C 505.281 -0.0594281 -2.01612 0
M  V30 5376 C 505.594 1.30663 -1.45556 0
M  V30 5377 O 506.8 1.91621 -1.92337 0
M  V30 5378 C 505.256 -0.0556666 -3.59857 0
M  V30 5379 C 504.864 -1.41975 -4.24908 0
M  V30 5380 C 506.608 0.409143 -4.22524 0
M  V30 5381 C 504.515 -1.37397 -5.75218 0
M  V30 5382 H 503.445 -0.0184469 -0.753774 0
M  V30 5383 H 506.096 -0.728869 -1.68404 0
M  V30 5384 H 504.478 0.679843 -3.90121 0
M  V30 5385 H 505.652 -2.17461 -4.0626 0
M  V30 5386 H 503.967 -1.82419 -3.74316 0
M  V30 5387 H 506.564 0.46211 -5.32699 0
M  V30 5388 H 506.907 1.42565 -3.91128 0
M  V30 5389 H 507.44 -0.272152 -3.96868 0
M  V30 5390 H 504.179 -2.36714 -6.11267 0
M  V30 5391 H 503.699 -0.661239 -5.96144 0
M  V30 5392 H 505.378 -1.08484 -6.3784 0
M  V30 5393 N 505.51 1.54411 -0.315457 0
M  V30 5394 C 506.42 2.27737 0.56329 0
M  V30 5395 C 507.436 1.31787 1.13614 0
M  V30 5396 O 508.612 1.64791 1.15784 0
M  V30 5397 C 505.677 3.01478 1.71207 0
M  V30 5398 C 504.738 4.12997 1.17185 0
M  V30 5399 C 503.971 4.83212 2.26588 0
M  V30 5400 O 504.194 4.52884 3.46775 0
M  V30 5401 O 503.128 5.70299 1.92463 0
M  V30 5402 H 506.954 3.03683 -0.0319614 0
M  V30 5403 H 504.539 1.49178 -0.0814188 0
M  V30 5404 H 506.421 3.47683 2.38106 0
M  V30 5405 H 505.096 2.28414 2.29366 0
M  V30 5406 H 504.003 3.71159 0.468174 0
M  V30 5407 H 505.336 4.8808 0.635501 0
M  V30 5408 N 506.988 0.0434614 1.5754 0
M  V30 5409 C 507.921 -0.968729 2.06618 0
M  V30 5410 C 508.899 -1.30868 0.965 0
M  V30 5411 O 510.083 -1.42288 1.23638 0
M  V30 5412 C 507.21 -2.28486 2.50023 0
M  V30 5413 C 506.256 -2.09851 3.71302 0
M  V30 5414 S 507.089 -1.38401 5.17306 0
M  V30 5415 C 508.245 -2.71354 5.64019 0
M  V30 5416 H 508.478 -0.551021 2.92149 0
M  V30 5417 H 506.011 -0.168607 1.53477 0
M  V30 5418 H 507.969 -3.04142 2.75695 0
M  V30 5419 H 506.63 -2.67387 1.64812 0
M  V30 5420 H 505.823 -3.07184 3.99567 0
M  V30 5421 H 505.425 -1.42336 3.45856 0
M  V30 5422 H 507.717 -3.67549 5.69134 0
M  V30 5423 H 508.66 -2.47734 6.6335 0
M  V30 5424 H 509.068 -2.77259 4.91719 0
M  V30 5425 N 508.466 -1.55915 -0.229846 0
M  V30 5426 C 509.376 -1.94891 -1.30593 0
M  V30 5427 C 510.392 -0.851604 -1.51736 0
M  V30 5428 O 511.568 -1.15447 -1.65027 0
M  V30 5429 C 508.633 -2.25052 -2.63728 0
M  V30 5430 C 507.694 -3.48306 -2.5096 0
M  V30 5431 C 506.927 -3.77019 -3.77747 0
M  V30 5432 O 507.15 -3.07534 -4.80395 0
M  V30 5433 O 506.084 -4.70523 -3.75356 0
M  V30 5434 H 509.91 -2.86581 -1.00525 0
M  V30 5435 H 507.495 -1.43017 -0.432025 0
M  V30 5436 H 509.377 -2.45682 -3.42372 0
M  V30 5437 H 508.052 -1.36538 -2.93495 0
M  V30 5438 H 506.959 -3.32964 -1.70546 0
M  V30 5439 H 508.292 -4.37177 -2.26136 0
M  V30 5440 N 509.944 0.496216 -1.49584 0
M  V30 5441 C 511.221 1.25755 -1.49816 0
M  V30 5442 C 511.601 2.09859 -0.228572 0
M  V30 5443 O 510.949 2.14449 0.788908 0
M  V30 5444 C 511.159 2.11017 -2.7798 0
M  V30 5445 C 512.507 2.70047 -3.27658 0
M  V30 5446 O 513.531 2.21281 -2.79129 0
M  V30 5447 O 512.39 3.58834 -4.1219 0
M  V30 5448 H 509.484 0.569322 -0.599834 0
M  V30 5449 H 512.03 0.510094 -1.61852 0
M  V30 5450 H 510.802 1.48879 -3.61871 0
M  V30 5451 H 510.425 2.92947 -2.68827 0
M  V30 5452 N 511.423 1.38739 0.74761 0
M  V30 5453 C 512.669 1.3648 1.50814 0
M  V30 5454 C 513.024 -0.0431982 1.92351 0
M  V30 5455 O 512.317 -1.0071 1.62997 0
M  V30 5456 C 512.511 2.25992 2.7688 0
M  V30 5457 C 512.34 3.75354 2.47668 0
M  V30 5458 C 511.11 4.44348 2.40589 0
M  V30 5459 C 513.308 4.67642 2.14046 0
M  V30 5460 N 511.29 5.79114 2.03715 0
M  V30 5461 C 512.661 5.90965 1.87512 0
M  V30 5462 C 514.716 4.55787 2.00407 0
M  V30 5463 C 513.419 7.03759 1.48714 0
M  V30 5464 C 515.445 5.68491 1.63011 0
M  V30 5465 C 514.807 6.90879 1.37353 0
M  V30 5466 H 510.906 0.554695 0.551214 0
M  V30 5467 H 513.49 1.7418 0.870033 0
M  V30 5468 H 511.661 1.9047 3.3849 0
M  V30 5469 H 513.393 2.14815 3.42982 0
M  V30 5470 H 510.148 3.97634 2.57262 0
M  V30 5471 H 510.572 6.504 1.87906 0
M  V30 5472 H 515.214 3.61712 2.18916 0
M  V30 5473 H 512.932 7.97746 1.28945 0
M  V30 5474 H 516.518 5.613 1.53081 0
M  V30 5475 H 515.398 7.76609 1.08848 0
M  V30 5476 N 512.901 -0.976442 1.23707 0
M  V30 5477 C 513.848 -2.06952 1.02174 0
M  V30 5478 C 514.818 -1.65984 -0.0621034 0
M  V30 5479 O 516.003 -1.90584 0.0907906 0
M  V30 5480 C 513.143 -3.39425 0.62327 0
M  V30 5481 C 512.256 -3.9364 1.77966 0
M  V30 5482 C 511.391 -5.14343 1.3276 0
M  V30 5483 C 510.43 -5.60733 2.45449 0
M  V30 5484 N 509.567 -6.72662 2.01172 0
M  V30 5485 H 514.407 -2.24704 1.95734 0
M  V30 5486 H 511.944 -1.10143 0.975034 0
M  V30 5487 H 513.902 -4.15526 0.37332 0
M  V30 5488 H 512.532 -3.21624 -0.275329 0
M  V30 5489 H 511.584 -3.14258 2.14351 0
M  V30 5490 H 512.896 -4.24035 2.62671 0
M  V30 5491 H 512.05 -5.97789 1.03601 0
M  V30 5492 H 510.789 -4.8561 0.450975 0
M  V30 5493 H 509.794 -4.75865 2.75378 0
M  V30 5494 H 511.019 -5.91483 3.33654 0
M  V30 5495 H 508.965 -6.45681 1.15895 0
M  V30 5496 H 508.882 -7.02462 2.79434 0
M  V30 5497 H 510.15 -7.59572 1.75129 0
M  V30 5498 N 514.379 -1.04941 -1.1758 0
M  V30 5499 C 515.627 -0.756492 -1.87408 0
M  V30 5500 C 515.948 0.718478 -1.81281 0
M  V30 5501 O 515.218 1.519 -1.23706 0
M  V30 5502 H 513.798 -0.276841 -0.693807 0
M  V30 5503 H 516.46 -1.32803 -1.42652 0
M  V30 5504 H 515.556 -1.06918 -2.93215 0
M  V30 5505 N 515.857 1.33968 -0.830081 0
M  V30 5506 C 517.134 1.92554 -0.343858 0
M  V30 5507 C 517.514 1.7573 1.16971 0
M  V30 5508 O 516.862 1.14035 1.98011 0
M  V30 5509 C 517.072 3.40147 -0.781073 0
M  V30 5510 C 518.42 4.17299 -0.78402 0
M  V30 5511 O 519.444 3.48762 -0.724112 0
M  V30 5512 O 518.303 5.39631 -0.863739 0
M  V30 5513 H 515.397 0.821469 -0.0954827 0
M  V30 5514 H 517.943 1.42897 -0.915348 0
M  V30 5515 H 516.715 3.46225 -1.82329 0
M  V30 5516 H 516.338 3.97166 -0.18567 0
M  V30 5517 N 517.335 0.585699 1.46312 0
M  V30 5518 C 518.282 -0.145835 2.30339 0
M  V30 5519 C 519.252 -0.881215 1.40797 0
M  V30 5520 O 520.437 -0.871293 1.69744 0
M  V30 5521 C 517.577 -1.15161 3.25318 0
M  V30 5522 C 516.69 -0.419367 4.2996 0
M  V30 5523 C 515.825 -1.41293 5.12064 0
M  V30 5524 C 514.864 -0.667261 6.08452 0
M  V30 5525 N 514.001 -1.60903 6.83414 0
M  V30 5526 H 518.841 0.576755 2.92365 0
M  V30 5527 H 516.378 0.296237 1.44086 0
M  V30 5528 H 518.336 -1.74763 3.78832 0
M  V30 5529 H 516.966 -1.84188 2.65094 0
M  V30 5530 H 516.018 0.291751 3.7928 0
M  V30 5531 H 517.33 0.163433 4.98532 0
M  V30 5532 H 516.484 -2.08167 5.6987 0
M  V30 5533 H 515.223 -2.02966 4.43459 0
M  V30 5534 H 514.228 0.0152356 5.49798 0
M  V30 5535 H 515.453 -0.0558817 6.79077 0
M  V30 5536 H 513.399 -2.21381 6.17516 0
M  V30 5537 H 513.316 -1.07911 7.48259 0
M  V30 5538 H 514.584 -2.26802 7.45775 0
M  V30 5539 N 518.813 -1.54241 0.323641 0
M  V30 5540 C 520.059 -2.00867 -0.279323 0
M  V30 5541 C 520.392 -1.21146 -1.5178 0
M  V30 5542 O 519.667 -0.29378 -1.92269 0
M  V30 5543 C 519.95 -3.54837 -0.613387 0
M  V30 5544 C 519.803 -4.45284 0.635803 0
M  V30 5545 C 521.122 -4.16186 -1.43099 0
M  V30 5546 H 518.241 -0.730177 -0.100049 0
M  V30 5547 H 520.883 -1.84829 0.440235 0
M  V30 5548 H 519.033 -3.68634 -1.22641 0
M  V30 5549 H 520.705 -4.43357 1.27406 0
M  V30 5550 H 518.948 -4.14956 1.26466 0
M  V30 5551 H 519.619 -5.5084 0.357597 0
M  V30 5552 H 522.095 -4.05964 -0.912814 0
M  V30 5553 H 520.971 -5.24031 -1.6335 0
M  V30 5554 H 521.232 -3.69516 -2.42715 0
M  V30 5555 N 520.291 -0.0518155 -1.57515 0
M  V30 5556 C 521.238 0.922352 -2.11569 0
M  V30 5557 C 522.208 1.30842 -1.02321 0
M  V30 5558 O 523.393 1.39778 -1.29872 0
M  V30 5559 C 520.533 2.19167 -2.6657 0
M  V30 5560 C 519.646 1.86003 -3.89906 0
M  V30 5561 C 518.781 3.07398 -4.33221 0
M  V30 5562 C 517.82 2.70158 -5.49255 0
M  V30 5563 N 516.957 3.84248 -5.8762 0
M  V30 5564 H 521.797 0.454506 -2.94514 0
M  V30 5565 H 519.334 0.212718 -1.45554 0
M  V30 5566 H 521.292 2.93443 -2.96559 0
M  V30 5567 H 519.922 2.63528 -1.86421 0
M  V30 5568 H 518.974 1.01874 -3.66505 0
M  V30 5569 H 520.286 1.54592 -4.74239 0
M  V30 5570 H 519.44 3.89972 -4.64765 0
M  V30 5571 H 518.179 3.41988 -3.477 0
M  V30 5572 H 517.184 1.86001 -5.17382 0
M  V30 5573 H 518.409 2.36759 -6.36492 0
M  V30 5574 H 516.355 4.18638 -5.05053 0
M  V30 5575 H 516.272 3.56538 -6.66646 0
M  V30 5576 H 517.54 4.6746 -6.2378 0
M  V30 5577 N 521.769 1.56035 0.221574 0
M  V30 5578 C 522.732 1.91584 1.2581 0
M  V30 5579 C 523.732 0.794425 1.39805 0
M  V30 5580 O 524.922 1.06217 1.38071 0
M  V30 5581 C 522.054 2.16663 2.63192 0
M  V30 5582 H 523.247 2.8429 0.954935 0
M  V30 5583 H 520.8 1.49316 0.461988 0
M  V30 5584 H 521.535 1.26508 2.98607 0
M  V30 5585 H 521.32 2.98358 2.5441 0
M  V30 5586 H 522.81 2.45262 3.37988 0
M  V30 5587 N 523.247 -0.488276 1.49845 0
M  V30 5588 C 524.197 -1.58556 1.63842 0
M  V30 5589 C 525.181 -1.53142 0.493586 0
M  V30 5590 O 526.373 -1.60457 0.747169 0
M  V30 5591 C 523.502 -2.97101 1.72005 0
M  V30 5592 C 522.588 -3.07463 2.92108 0
M  V30 5593 N 522.979 -2.87681 4.16021 0
M  V30 5594 C 521.277 -3.3858 2.90309 0
M  V30 5595 C 521.978 -3.0256 4.96822 0
M  V30 5596 N 520.954 -3.32002 4.30437 0
M  V30 5597 H 524.756 -1.41935 2.57355 0
M  V30 5598 H 522.27 -0.694668 1.46793 0
M  V30 5599 H 524.267 -3.75976 1.80132 0
M  V30 5600 H 522.927 -3.14782 0.796375 0
M  V30 5601 H 523.938 -2.63603 4.45796 0
M  V30 5602 H 520.615 -3.62357 2.07372 0
M  V30 5603 H 522.005 -2.9165 6.05301 0
M  V30 5604 N 524.725 -1.39134 -0.740242 0
M  V30 5605 C 525.955 -1.39132 -1.52728 0
M  V30 5606 C 526.363 0.0173133 -1.89192 0
M  V30 5607 O 525.706 0.997715 -1.54244 0
M  V30 5608 C 525.768 -2.1952 -2.84695 0
M  V30 5609 C 525.432 -3.68203 -2.70695 0
M  V30 5610 C 526.429 -4.61401 -2.39593 0
M  V30 5611 C 524.114 -4.11724 -2.8773 0
M  V30 5612 C 526.108 -5.96102 -2.25701 0
M  V30 5613 C 523.795 -5.46503 -2.73456 0
M  V30 5614 C 524.793 -6.38506 -2.42486 0
M  V30 5615 O 524.481 -7.70803 -2.28295 0
M  V30 5616 H 524.213 -0.477263 -0.478744 0
M  V30 5617 H 526.767 -1.83504 -0.922799 0
M  V30 5618 H 524.997 -1.69888 -3.47383 0
M  V30 5619 H 526.686 -2.1176 -3.46284 0
M  V30 5620 H 527.452 -4.29079 -2.26088 0
M  V30 5621 H 523.331 -3.4045 -3.10829 0
M  V30 5622 H 526.875 -6.6788 -2.0145 0
M  V30 5623 H 522.772 -5.78417 -2.86538 0
M  V30 5624 H 523.54 -7.8147 -2.43405 0
M  V30 5625 N 526.204 0.969867 -1.24223 0
M  V30 5626 C 527.452 1.70918 -1.0785 0
M  V30 5627 C 527.773 1.91186 0.383763 0
M  V30 5628 O 527.043 1.48806 1.27411 0
M  V30 5629 H 525.623 0.633334 -0.396103 0
M  V30 5630 H 528.285 1.16689 -1.56108 0
M  V30 5631 H 527.381 2.69455 -1.57482 0
M  V30 5632 N 527.682 1.05563 1.17022 0
M  V30 5633 C 528.93 0.76642 1.87004 0
M  V30 5634 C 529.251 -0.708854 1.8166 0
M  V30 5635 O 528.521 -1.51242 1.2451 0
M  V30 5636 H 527.101 0.280516 0.692329 0
M  V30 5637 H 529.763 1.33557 1.41945 0
M  V30 5638 H 528.859 1.08472 2.92644 0
M  V30 5639 N 529.16 -1.33526 0.837174 0
M  V30 5640 C 530.407 -1.97837 0.432064 0
M  V30 5641 C 530.735 -1.66324 -1.00829 0
M  V30 5642 O 529.99 -0.93448 -1.71948 0
M  V30 5643 C 530.289 -3.52367 0.597675 0
M  V30 5644 C 529.955 -4.03826 2.00587 0
M  V30 5645 C 528.617 -4.1759 2.39106 0
M  V30 5646 C 530.969 -4.31333 2.92576 0
M  V30 5647 C 528.297 -4.56195 3.68921 0
M  V30 5648 C 530.649 -4.7139 4.2187 0
M  V30 5649 C 529.313 -4.8336 4.60347 0
M  V30 5650 H 528.583 -0.723937 0.158104 0
M  V30 5651 H 531.23 -1.5923 1.06387 0
M  V30 5652 H 529.535 -3.91624 -0.117452 0
M  V30 5653 H 531.232 -4.00126 0.26454 0
M  V30 5654 H 527.822 -3.93586 1.69671 0
M  V30 5655 H 532.006 -4.20224 2.64056 0
M  V30 5656 H 527.262 -4.63655 3.9854 0
M  V30 5657 H 531.436 -4.91631 4.93226 0
M  V30 5658 H 529.063 -5.1303 5.60985 0
M  V30 5659 N 530.638 -0.59345 -1.46 0
M  V30 5660 C 531.866 -0.0890934 -2.06708 0
M  V30 5661 C 532.281 1.2205 -1.44046 0
M  V30 5662 O 531.638 1.74029 -0.549551 0
M  V30 5663 C 531.689 0.0720263 -3.61428 0
M  V30 5664 O 531.41 -1.18574 -4.21748 0
M  V30 5665 C 532.911 0.609487 -4.3909 0
M  V30 5666 H 530.131 -0.0623628 -0.668096 0
M  V30 5667 H 532.675 -0.817171 -1.87464 0
M  V30 5668 H 530.83 0.750369 -3.80063 0
M  V30 5669 H 531.244 -1.0064 -5.14754 0
M  V30 5670 H 532.718 0.671363 -5.47902 0
M  V30 5671 H 533.195 1.62878 -4.07882 0
M  V30 5672 H 533.801 -0.03434 -4.25286 0
M  V30 5673 N 532.116 1.54067 -0.331816 0
M  V30 5674 C 533.362 2.01012 0.268667 0
M  V30 5675 C 533.695 1.2195 1.51136 0
M  V30 5676 O 532.97 0.303972 1.9211 0
M  V30 5677 C 533.253 3.55158 0.59456 0
M  V30 5678 C 533.106 4.4494 -0.659409 0
M  V30 5679 C 534.425 4.16939 1.4089 0
M  V30 5680 H 531.544 0.730698 0.0961756 0
M  V30 5681 H 534.186 1.84593 -0.450031 0
M  V30 5682 H 532.336 3.6928 1.20685 0
M  V30 5683 H 534.008 4.42675 -1.29756 0
M  V30 5684 H 532.251 4.1428 -1.28665 0
M  V30 5685 H 532.922 5.50643 -0.386804 0
M  V30 5686 H 535.398 4.06443 0.891272 0
M  V30 5687 H 534.274 5.24889 1.60569 0
M  V30 5688 H 534.535 3.70798 2.40752 0
M  V30 5689 N 533.594 0.0601682 1.57485 0
M  V30 5690 C 534.526 -0.94047 2.09016 0
M  V30 5691 C 535.539 -1.26897 1.01985 0
M  V30 5692 O 536.728 -1.22819 1.29529 0
M  V30 5693 C 533.828 -2.25955 2.52582 0
M  V30 5694 C 533.001 -2.11163 3.83052 0
M  V30 5695 C 532.06 -3.26273 4.12835 0
M  V30 5696 O 531.086 -3.01779 4.82616 0
M  V30 5697 N 532.288 -4.51022 3.65458 0
M  V30 5698 H 535.053 -0.500578 2.9549 0
M  V30 5699 H 532.614 -0.125852 1.6141 0
M  V30 5700 H 534.606 -3.01846 2.69575 0
M  V30 5701 H 533.176 -2.61481 1.71308 0
M  V30 5702 H 532.396 -1.19808 3.75552 0
M  V30 5703 H 533.684 -1.98517 4.68475 0
M  V30 5704 H 533.082 -4.73811 3.09062 0
M  V30 5705 H 531.639 -5.23978 3.87673 0
M  V30 5706 N 535.072 -1.5615 -0.213296 0
M  V30 5707 C 536.02 -1.93953 -1.28394 0
M  V30 5708 C 537.014 -0.822592 -1.48087 0
M  V30 5709 O 538.22 -1.00748 -1.49164 0
M  V30 5710 H 534.595 -0.61648 -0.430646 0
M  V30 5711 H 536.566 -2.83275 -0.937977 0
M  V30 5712 C 535.315 -2.27969 -2.62537 0
M  V30 5713 H 534.638 -3.13432 -2.48194 0
M  V30 5714 H 536.078 -2.58297 -3.36242 0
M  V30 5715 C 534.537 -1.10775 -3.18167 0
M  V30 5716 O 535.067 -0.373201 -3.99963 0
M  V30 5717 N 533.273 -0.889377 -2.76656 0
M  V30 5718 H 532.82 -1.48843 -2.10246 0
M  V30 5719 H 532.778 -0.107 -3.14218 0
M  V30 5720 N 536.55 0.480323 -1.50102 0
M  V30 5721 C 537.46 1.60547 -1.71061 0
M  V30 5722 C 538.476 1.63564 -0.593529 0
M  V30 5723 O 539.652 1.81604 -0.870751 0
M  V30 5724 C 536.717 2.96814 -1.79171 0
M  V30 5725 C 535.778 3.04259 -3.02861 0
M  V30 5726 C 535.011 4.34027 -3.10574 0
M  V30 5727 O 535.234 5.24009 -2.25323 0
M  V30 5728 O 534.168 4.46873 -4.03223 0
M  V30 5729 H 537.994 1.45788 -2.6642 0
M  V30 5730 H 535.579 0.658838 -1.34088 0
M  V30 5731 H 537.461 3.77765 -1.86738 0
M  V30 5732 H 536.136 3.11791 -0.869947 0
M  V30 5733 H 535.043 2.22419 -3.008 0
M  V30 5734 H 536.376 2.94216 -3.94586 0
M  V30 5735 N 538.028 1.39524 0.732853 0
M  V30 5736 C 538.991 1.38189 1.82857 0
M  V30 5737 C 539.991 0.278624 1.58368 0
M  V30 5738 O 541.181 0.536639 1.65728 0
M  V30 5739 C 538.313 1.15661 3.2068 0
M  V30 5740 H 539.506 2.35692 1.85444 0
M  V30 5741 H 537.059 1.2512 0.936728 0
M  V30 5742 H 537.794 0.188482 3.23752 0
M  V30 5743 H 537.579 1.95559 3.39852 0
M  V30 5744 H 539.069 1.17472 4.00737 0
M  V30 5745 N 539.506 -0.963266 1.24736 0
M  V30 5746 C 540.454 -2.07985 1.04139 0
M  V30 5747 C 541.448 -1.69381 -0.0250556 0
M  V30 5748 O 542.654 -1.79531 0.129863 0
M  V30 5749 H 539.029 -0.680627 0.319768 0
M  V30 5750 H 541 -2.22517 1.98818 0
M  V30 5751 C 539.749 -3.4123 0.667615 0
M  V30 5752 H 539.072 -3.71397 1.48 0
M  V30 5753 H 540.512 -4.20244 0.563136 0
M  V30 5754 C 538.971 -3.3104 -0.625647 0
M  V30 5755 O 539.501 -3.65334 -1.67016 0
M  V30 5756 N 537.707 -2.84168 -0.608033 0
M  V30 5757 H 537.254 -2.56458 0.242323 0
M  V30 5758 H 537.212 -2.77732 -1.47352 0
M  V30 5759 N 540.985 -1.06182 -1.16461 0
M  V30 5760 C 541.932 -0.671613 -2.20812 0
M  V30 5761 C 542.902 0.331186 -1.62765 0
M  V30 5762 O 544.087 0.22033 -1.89524 0
M  V30 5763 C 541.227 -0.063029 -3.45042 0
M  V30 5764 C 540.34 -1.11587 -4.1734 0
M  V30 5765 C 539.475 -0.473546 -5.29085 0
M  V30 5766 C 538.514 -1.51 -5.93182 0
M  V30 5767 N 537.651 -0.891118 -6.96422 0
M  V30 5768 H 542.491 -1.56589 -2.53542 0
M  V30 5769 H 540.028 -0.782951 -1.24532 0
M  V30 5770 H 541.986 0.307344 -4.16066 0
M  V30 5771 H 540.616 0.794663 -3.12866 0
M  V30 5772 H 539.668 -1.60396 -3.44931 0
M  V30 5773 H 540.98 -1.90221 -4.61104 0
M  V30 5774 H 540.134 -0.0501432 -6.06679 0
M  V30 5775 H 538.873 0.344687 -4.8648 0
M  V30 5776 H 537.878 -1.94331 -5.14311 0
M  V30 5777 H 539.103 -2.33031 -6.37866 0
M  V30 5778 H 537.049 -0.0935753 -6.55933 0
M  V30 5779 H 536.966 -1.61486 -7.38551 0
M  V30 5780 H 538.234 -0.492822 -7.77941 0
M  V30 5781 N 542.463 1.3308 -0.844243 0
M  V30 5782 C 543.693 2.01515 -0.455541 0
M  V30 5783 C 544.101 1.63655 0.949406 0
M  V30 5784 O 543.444 0.84848 1.62931 0
M  V30 5785 C 543.506 3.55967 -0.502801 0
M  V30 5786 C 543.17 4.17222 -1.86481 0
M  V30 5787 C 544.167 4.36205 -2.8288 0
M  V30 5788 C 541.852 4.53528 -2.15911 0
M  V30 5789 C 543.846 4.90649 -4.06869 0
M  V30 5790 C 541.533 5.07679 -3.40155 0
M  V30 5791 C 542.531 5.26186 -4.35451 0
M  V30 5792 O 542.219 5.79183 -5.57496 0
M  V30 5793 H 541.951 0.65199 -0.178565 0
M  V30 5794 H 544.505 1.70867 -1.1399 0
M  V30 5795 H 542.735 3.85965 0.23836 0
M  V30 5796 H 544.424 4.05688 -0.131169 0
M  V30 5797 H 545.19 4.085 -2.61444 0
M  V30 5798 H 541.069 4.38414 -1.42528 0
M  V30 5799 H 544.613 5.0501 -4.81259 0
M  V30 5800 H 540.51 5.34815 -3.61446 0
M  V30 5801 H 541.278 5.97591 -5.5931 0
M  V30 5802 N 543.941 0.601185 1.45683 0
M  V30 5803 C 544.873 -0.159446 2.28645 0
M  V30 5804 C 545.886 -0.837882 1.39583 0
M  V30 5805 O 547.075 -0.704344 1.64016 0
M  V30 5806 C 544.175 -1.24641 3.15147 0
M  V30 5807 C 543.348 -0.656334 4.32448 0
M  V30 5808 C 542.407 -1.63337 5.00208 0
M  V30 5809 O 541.433 -1.16217 5.57209 0
M  V30 5810 N 542.635 -2.96773 4.98905 0
M  V30 5811 H 545.4 0.5524 2.94565 0
M  V30 5812 H 542.961 0.440223 1.558 0
M  V30 5813 H 544.953 -1.8997 3.57342 0
M  V30 5814 H 543.523 -1.86087 2.51178 0
M  V30 5815 H 542.743 0.174879 3.93812 0
M  V30 5816 H 544.031 -0.242211 5.08223 0
M  V30 5817 H 543.429 -3.37662 4.53873 0
M  V30 5818 H 541.986 -3.57541 5.44984 0
M  V30 5819 N 545.419 -1.53889 0.339982 0
M  V30 5820 C 546.668 -2.00035 -0.258604 0
M  V30 5821 C 546.981 -1.23179 -1.51942 0
M  V30 5822 O 548.187 -1.59784 -2.19503 0
M  V30 5823 C 546.643 -3.56249 -0.511359 0
M  V30 5824 C 546.251 -4.41957 0.733349 0
M  V30 5825 C 547.995 -4.1082 -1.069 0
M  V30 5826 C 545.902 -5.89673 0.451591 0
M  V30 5827 H 544.832 -0.747284 -0.10041 0
M  V30 5828 H 547.483 -1.77776 0.454758 0
M  V30 5829 H 545.865 -3.7456 -1.28533 0
M  V30 5830 H 547.039 -4.35421 1.50815 0
M  V30 5831 H 545.354 -3.9836 1.21237 0
M  V30 5832 H 547.951 -5.18789 -1.2947 0
M  V30 5833 H 548.294 -3.63817 -2.02343 0
M  V30 5834 H 548.827 -3.96205 -0.355817 0
M  V30 5835 H 545.566 -6.40903 1.37565 0
M  V30 5836 H 545.086 -5.99122 -0.285193 0
M  V30 5837 H 546.765 -6.46965 0.0675067 0
M  V30 5838 N 546.897 -0.0685191 -1.57451 0
M  V30 5839 C 548.122 0.613919 -1.98106 0
M  V30 5840 C 548.547 1.62551 -0.946501 0
M  V30 5841 O 547.905 1.81085 0.0882824 0
M  V30 5842 C 547.953 1.26189 -3.378 0
M  V30 5843 O 547.057 2.37773 -3.36954 0
M  V30 5844 H 546.398 0.158163 -0.644888 0
M  V30 5845 H 548.928 -0.142063 -2.04106 0
M  V30 5846 H 548.938 1.60951 -3.74912 0
M  V30 5847 H 547.613 0.520625 -4.12629 0
M  V30 5848 H 546.19 2.04829 -3.11608 0
M  V30 5849 N 548.375 1.56261 0.205012 0
M  V30 5850 C 549.621 1.80306 0.9283 0
M  V30 5851 C 549.954 0.640932 1.83319 0
M  V30 5852 O 549.229 -0.359032 1.91158 0
M  V30 5853 C 549.512 3.14547 1.75306 0
M  V30 5854 C 549.365 4.41236 0.873562 0
M  V30 5855 C 550.684 3.45382 2.72762 0
M  V30 5856 H 547.803 0.655929 0.336044 0
M  V30 5857 H 550.445 1.88984 0.196211 0
M  V30 5858 H 548.595 3.0728 2.37721 0
M  V30 5859 H 550.267 4.60539 0.264887 0
M  V30 5860 H 548.51 4.33427 0.179773 0
M  V30 5861 H 549.181 5.31639 1.48541 0
M  V30 5862 H 551.657 3.52884 2.20481 0
M  V30 5863 H 550.533 4.40449 3.2756 0
M  V30 5864 H 550.794 2.68377 3.51321 0
M  V30 5865 N 549.853 -0.472356 1.50355 0
M  V30 5866 C 550.801 -1.59126 1.69651 0
M  V30 5867 C 551.795 -1.59793 0.56237 0
M  V30 5868 O 553.001 -1.63957 0.742832 0
M  V30 5869 H 549.376 -0.528008 0.535454 0
M  V30 5870 H 551.347 -1.40013 2.63513 0
M  V30 5871 C 550.096 -2.97075 1.8067 0
M  V30 5872 H 549.419 -2.9728 2.67329 0
M  V30 5873 H 550.859 -3.74825 1.98197 0
M  V30 5874 C 549.318 -3.32247 0.558016 0
M  V30 5875 O 549.848 -4.00553 -0.303399 0
M  V30 5876 N 548.054 -2.87659 0.412415 0
M  V30 5877 H 547.601 -2.32246 1.11443 0
M  V30 5878 H 547.559 -3.11556 -0.421908 0
M  V30 5879 N 551.331 -1.39911 -0.725443 0
M  V30 5880 C 552.278 -1.39393 -1.83952 0
M  V30 5881 C 553.248 -0.252249 -1.64173 0
M  V30 5882 O 554.433 -0.44882 -1.85446 0
M  V30 5883 C 551.573 -1.25262 -3.21564 0
M  V30 5884 C 550.686 -2.49054 -3.52982 0
M  V30 5885 C 549.821 -2.27439 -4.80047 0
M  V30 5886 C 548.86 -3.46857 -5.04338 0
M  V30 5887 N 547.997 -3.24499 -6.22611 0
M  V30 5888 H 552.837 -2.34622 -1.83729 0
M  V30 5889 H 550.374 -1.16537 -0.897636 0
M  V30 5890 H 552.332 -1.15077 -4.01015 0
M  V30 5891 H 550.962 -0.33657 -3.21041 0
M  V30 5892 H 550.014 -2.69805 -2.6816 0
M  V30 5893 H 551.326 -3.37973 -3.66846 0
M  V30 5894 H 550.48 -2.14551 -5.67497 0
M  V30 5895 H 549.219 -1.35929 -4.68374 0
M  V30 5896 H 548.224 -3.60232 -4.15346 0
M  V30 5897 H 549.449 -4.3928 -5.17889 0
M  V30 5898 H 547.395 -2.35663 -6.12208 0
M  V30 5899 H 547.312 -4.06978 -6.37106 0
M  V30 5900 H 548.58 -3.15325 -7.12875 0
M  V30 5901 N 552.809 0.956637 -1.25245 0
M  V30 5902 C 554.039 1.7332 -1.12445 0
M  V30 5903 C 554.447 1.86392 0.324732 0
M  V30 5904 O 553.79 1.35967 1.23526 0
M  V30 5905 C 553.852 3.16603 -1.70303 0
M  V30 5906 C 553.516 3.26966 -3.19284 0
M  V30 5907 C 554.513 3.11434 -4.16299 0
M  V30 5908 C 552.198 3.50851 -3.59456 0
M  V30 5909 C 554.192 3.1963 -5.51467 0
M  V30 5910 C 551.879 3.58684 -4.94761 0
M  V30 5911 C 552.877 3.43087 -5.90576 0
M  V30 5912 O 552.565 3.50598 -7.2342 0
M  V30 5913 H 552.297 0.549981 -0.393061 0
M  V30 5914 H 554.851 1.20892 -1.66055 0
M  V30 5915 H 553.081 3.70385 -1.11138 0
M  V30 5916 H 554.77 3.76109 -1.52632 0
M  V30 5917 H 555.536 2.92853 -3.86604 0
M  V30 5918 H 551.415 3.62053 -2.85375 0
M  V30 5919 H 554.959 3.07373 -6.26233 0
M  V30 5920 H 550.856 3.76782 -5.24124 0
M  V30 5921 H 551.624 3.67242 -7.31489 0
M  V30 5922 N 554.287 1.06798 1.15896 0
M  V30 5923 C 555.703 0.792423 1.38538 0
M  V30 5924 C 555.903 -0.60592 1.92174 0
M  V30 5925 O 554.959 -1.36561 2.12385 0
M  V30 5926 C 556.272 1.86157 2.36149 0
M  V30 5927 C 557.82 1.88567 2.49823 0
M  V30 5928 C 558.295 2.9455 3.5072 0
M  V30 5929 N 559.786 2.93616 3.58251 0
M  V30 5930 C 560.521 3.72267 4.36125 0
M  V30 5931 N 560.017 4.60751 5.17379 0
M  V30 5932 N 561.81 3.60637 4.31158 0
M  V30 5933 H 553.961 1.96993 0.794198 0
M  V30 5934 H 556.224 0.853942 0.411688 0
M  V30 5935 H 555.93 2.86603 2.03843 0
M  V30 5936 H 555.804 1.71692 3.3586 0
M  V30 5937 H 558.191 0.887765 2.8143 0
M  V30 5938 H 558.272 2.0711 1.5013 0
M  V30 5939 H 557.916 3.94537 3.19849 0
M  V30 5940 H 557.846 2.73255 4.50155 0
M  V30 5941 H 560.337 2.29472 3.00252 0
M  V30 5942 H 560.65 5.17408 5.74028 0
M  V30 5943 H 558.995 4.64803 5.16704 0
M  V30 5944 H 562.186 2.90892 3.66742 0
M  V30 5945 H 562.359 4.22176 4.91601 0
M  V30 5946 N 555.766 -1.3263 0.851289 0
M  V30 5947 C 557.014 -1.96978 0.452128 0
M  V30 5948 C 557.335 -1.67715 -0.99482 0
M  V30 5949 O 556.605 -0.98259 -1.69476 0
M  V30 5950 H 555.185 -0.72873 0.164202 0
M  V30 5951 H 557.847 -1.61774 1.08698 0
M  V30 5952 H 556.943 -3.06387 0.594407 0
M  V30 5953 N 557.244 -0.608902 -1.45362 0
M  V30 5954 C 558.472 -0.111013 -2.06602 0
M  V30 5955 C 558.887 1.20516 -1.45332 0
M  V30 5956 O 558.244 1.73437 -0.567978 0
M  V30 5957 C 558.295 0.033688 -3.61484 0
M  V30 5958 O 558.016 -1.23041 -4.20467 0
M  V30 5959 C 559.517 0.562882 -4.39712 0
M  V30 5960 H 556.737 -0.0694453 -0.667397 0
M  V30 5961 H 559.281 -0.837008 -1.86586 0
M  V30 5962 H 557.436 0.710016 -3.80838 0
M  V30 5963 H 557.85 -1.06094 -5.13658 0
M  V30 5964 H 559.324 0.613213 -5.48583 0
M  V30 5965 H 559.801 1.58543 -4.09586 0
M  V30 5966 H 560.407 -0.0794454 -4.25226 0
M  V30 5967 N 558.722 1.53707 -0.348139 0
M  V30 5968 C 559.685 2.23812 0.494058 0
M  V30 5969 C 560.685 1.23989 1.02388 0
M  V30 5970 O 561.875 1.48395 0.912396 0
M  V30 5971 C 559.007 2.96133 1.68872 0
M  V30 5972 H 560.2 2.99663 -0.119141 0
M  V30 5973 H 557.753 1.55983 -0.0995539 0
M  V30 5974 H 558.488 2.24481 2.34049 0
M  V30 5975 H 558.273 3.69357 1.31596 0
M  V30 5976 H 559.763 3.49475 2.28597 0
M  V30 5977 N 560.2 0.0768682 1.57412 0
M  V30 5978 C 561.448 -0.589918 1.93299 0
M  V30 5979 C 561.769 -1.69842 0.958049 0
M  V30 5980 O 561.039 -1.95899 0.00703261 0
M  V30 5981 H 559.619 -0.220901 0.713591 0
M  V30 5982 H 562.281 0.135917 1.94425 0
M  V30 5983 H 561.377 -1.01195 2.95239 0
M  V30 5984 N 561.678 -1.56367 -0.196722 0
M  V30 5985 C 562.626 -1.95304 -1.2633 0
M  V30 5986 C 563.62 -0.838252 -1.47206 0
M  V30 5987 O 564.826 -1.02325 -1.48087 0
M  V30 5988 H 561.201 -0.621013 -0.424083 0
M  V30 5989 H 563.172 -2.84254 -0.907879 0
M  V30 5990 C 561.921 -2.3074 -2.60104 0
M  V30 5991 H 561.244 -3.16047 -2.44856 0
M  V30 5992 H 562.684 -2.61849 -3.33484 0
M  V30 5993 C 561.143 -1.14143 -3.16975 0
M  V30 5994 O 561.673 -0.415602 -3.99544 0
M  V30 5995 N 559.879 -0.91867 -2.75697 0
M  V30 5996 H 559.426 -1.51065 -2.08656 0
M  V30 5997 H 559.384 -0.140321 -3.14087 0
M  V30 5998 N 563.156 0.464375 -1.50603 0
M  V30 5999 C 564.119 1.54393 -1.69397 0
M  V30 6000 C 565.119 1.50566 -0.564504 0
M  V30 6001 O 566.309 1.53066 -0.831645 0
M  V30 6002 C 563.441 2.9401 -1.72543 0
M  V30 6003 H 564.634 1.39044 -2.65719 0
M  V30 6004 H 562.187 0.69122 -1.40185 0
M  V30 6005 H 562.922 3.14795 -0.77938 0
M  V30 6006 H 562.707 2.98195 -2.54602 0
M  V30 6007 H 564.197 3.72375 -1.89015 0
M  V30 6008 N 564.634 1.40294 0.718013 0
M  V30 6009 C 565.564 1.43118 1.84498 0
M  V30 6010 C 566.545 0.292403 1.67568 0
M  V30 6011 O 567.73 0.500675 1.87635 0
M  V30 6012 C 564.86 1.29065 3.22427 0
M  V30 6013 C 563.814 2.40521 3.54025 0
M  V30 6014 C 563.14 2.11546 4.91073 0
M  V30 6015 C 564.44 3.82859 3.55269 0
M  V30 6016 H 566.134 2.37432 1.82391 0
M  V30 6017 H 563.68 1.14283 0.87609 0
M  V30 6018 H 565.633 1.29658 4.00957 0
M  V30 6019 H 564.357 0.312271 3.25104 0
M  V30 6020 H 563.016 2.39173 2.77834 0
M  V30 6021 H 562.664 1.12104 4.90348 0
M  V30 6022 H 562.364 2.86216 5.1318 0
M  V30 6023 H 563.888 2.13817 5.71939 0
M  V30 6024 H 565.302 3.86044 4.23843 0
M  V30 6025 H 563.699 4.57029 3.88902 0
M  V30 6026 H 564.769 4.12617 2.54706 0
M  V30 6027 N 566.112 -0.949982 1.2575 0
M  V30 6028 C 567.045 -2.047 1.00862 0
M  V30 6029 C 568.023 -1.62475 -0.0636982 0
M  V30 6030 O 569.207 -1.88343 0.0769153 0
M  V30 6031 C 566.334 -3.34597 0.525613 0
M  V30 6032 C 565.38 -3.95788 1.58916 0
M  V30 6033 S 566.213 -4.31175 3.17567 0
M  V30 6034 C 567.369 -5.64183 2.71013 0
M  V30 6035 H 567.602 -2.25497 1.93749 0
M  V30 6036 H 565.135 -1.09022 1.09332 0
M  V30 6037 H 567.093 -4.09716 0.25359 0
M  V30 6038 H 565.754 -3.11758 -0.382828 0
M  V30 6039 H 564.947 -4.89457 1.20201 0
M  V30 6040 H 564.549 -3.27168 1.81211 0
M  V30 6041 H 566.841 -6.42504 2.14928 0
M  V30 6042 H 567.784 -6.07774 3.6334 0
M  V30 6043 H 568.192 -5.2364 2.1086 0
M  V30 6044 N 567.59 -1.07411 -1.15328 0
M  V30 6045 C 568.867 -0.710732 -1.82231 0
M  V30 6046 C 569.247 0.806732 -1.95077 0
M  V30 6047 O 568.595 1.72139 -1.50268 0
M  V30 6048 C 568.805 -1.42586 -3.18544 0
M  V30 6049 C 570.153 -1.57836 -3.94174 0
M  V30 6050 O 571.177 -1.38669 -3.281 0
M  V30 6051 O 570.036 -1.8938 -5.12638 0
M  V30 6052 H 567.13 -0.25297 -0.78736 0
M  V30 6053 H 569.676 -1.17508 -1.22434 0
M  V30 6054 H 568.448 -2.46008 -3.04296 0
M  V30 6055 H 568.071 -0.952332 -3.86026 0
M  V30 6056 N 569.068 1.32177 -0.85831 0
M  V30 6057 C 570.316 1.96735 -0.462568 0
M  V30 6058 C 570.637 1.6824 0.985911 0
M  V30 6059 O 569.907 0.991564 1.68952 0
M  V30 6060 H 568.487 0.727849 -0.168064 0
M  V30 6061 H 571.149 1.61195 -1.09554 0
M  V30 6062 H 570.245 3.06068 -0.610647 0
M  V30 6063 N 570.547 0.616602 1.45037 0
M  V30 6064 C 571.51 -0.0871112 2.29034 0
M  V30 6065 C 572.51 -0.786414 1.40258 0
M  V30 6066 O 573.7 -0.633207 1.62284 0
M  V30 6067 C 570.832 -1.13369 3.21497 0
M  V30 6068 H 572.025 0.651497 2.92738 0
M  V30 6069 H 569.578 0.376058 1.51709 0
M  V30 6070 H 570.313 -1.90277 2.62612 0
M  V30 6071 H 570.098 -0.636358 3.86902 0
M  V30 6072 H 571.588 -1.62627 3.84633 0
M  V30 6073 N 572.025 -1.5352 0.356285 0
M  V30 6074 C 573.25 -2.06007 -0.239961 0
M  V30 6075 C 573.675 -1.22872 -1.42422 0
M  V30 6076 O 573.033 -0.245516 -1.7963 0
M  V30 6077 C 573.081 -3.5522 -0.620587 0
M  V30 6078 O 572.185 -3.74864 -1.71902 0
M  V30 6079 H 571.526 -0.662961 -0.0371377 0
M  V30 6080 H 574.056 -1.98033 0.514194 0
M  V30 6081 H 574.066 -3.98081 -0.894197 0
M  V30 6082 H 572.741 -4.15175 0.245407 0
M  V30 6083 H 571.318 -3.43904 -1.44169 0
M  V30 6084 N 573.503 -0.0852151 -1.57369 0
M  V30 6085 C 574.435 0.907099 -2.10486 0
M  V30 6086 C 575.448 1.25259 -1.03991 0
M  V30 6087 O 576.637 1.20743 -1.31467 0
M  V30 6088 C 573.737 2.21908 -2.56145 0
M  V30 6089 C 572.91 2.05042 -3.86363 0
M  V30 6090 C 571.969 3.19664 -4.17973 0
M  V30 6091 O 570.995 2.94062 -4.87356 0
M  V30 6092 N 572.197 4.45151 -3.72587 0
M  V30 6093 H 574.962 0.453505 -2.96249 0
M  V30 6094 H 572.523 0.100157 -1.6159 0
M  V30 6095 H 574.515 2.97519 -2.74343 0
M  V30 6096 H 573.085 2.58723 -1.75446 0
M  V30 6097 H 572.305 1.13819 -3.77411 0
M  V30 6098 H 573.593 1.91039 -4.71574 0
M  V30 6099 H 572.991 4.68834 -3.16561 0
M  V30 6100 H 571.548 5.17744 -3.9596 0
M  V30 6101 N 574.981 1.5647 0.188427 0
M  V30 6102 C 575.911 1.98101 1.23606 0
M  V30 6103 C 576.892 0.853961 1.47111 0
M  V30 6104 O 578.077 1.11879 1.58735 0
M  V30 6105 C 575.207 2.32624 2.57882 0
M  V30 6106 C 574.161 3.48129 2.48978 0
M  V30 6107 C 573.487 3.68347 3.87588 0
M  V30 6108 C 574.787 4.82112 2.00911 0
M  V30 6109 H 576.481 2.85864 0.890068 0
M  V30 6110 H 574.027 1.37532 0.426714 0
M  V30 6111 H 575.98 2.60343 3.3136 0
M  V30 6112 H 574.704 1.41751 2.94235 0
M  V30 6113 H 573.363 3.20511 1.77956 0
M  V30 6114 H 573.011 2.74793 4.21305 0
M  V30 6115 H 572.711 4.46055 3.82503 0
M  V30 6116 H 574.235 3.98449 4.62678 0
M  V30 6117 H 575.649 5.08819 2.64151 0
M  V30 6118 H 574.046 5.63337 2.06814 0
M  V30 6119 H 575.116 4.75249 0.96262 0
M  V30 6120 N 576.459 -0.456382 1.50847 0
M  V30 6121 C 577.392 -1.57177 1.65441 0
M  V30 6122 C 578.37 -1.54649 0.502224 0
M  V30 6123 O 579.554 -1.74057 0.723633 0
M  V30 6124 C 576.681 -2.95763 1.65052 0
M  V30 6125 C 575.727 -3.16389 2.86007 0
M  V30 6126 S 576.56 -2.94716 4.47105 0
M  V30 6127 C 577.716 -4.35617 4.49432 0
M  V30 6128 H 577.949 -1.44561 2.59787 0
M  V30 6129 H 575.482 -0.644758 1.40293 0
M  V30 6130 H 577.44 -3.75654 1.65512 0
M  V30 6131 H 576.101 -3.05756 0.719153 0
M  V30 6132 H 575.294 -4.17667 2.82081 0
M  V30 6133 H 574.896 -2.44293 2.8319 0
M  V30 6134 H 577.188 -5.28503 4.239 0
M  V30 6135 H 578.131 -4.44582 5.51137 0
M  V30 6136 H 578.539 -4.18382 3.78967 0
M  V30 6137 N 577.937 -1.40673 -0.710563 0
M  V30 6138 C 579.185 -1.38947 -1.46759 0
M  V30 6139 C 579.506 0.00572879 -1.94999 0
M  V30 6140 O 578.776 0.961358 -1.70689 0
M  V30 6141 H 577.356 -0.5114 -0.544499 0
M  V30 6142 H 580.018 -1.75773 -0.842012 0
M  V30 6143 H 579.114 -2.06745 -2.33801 0
M  V30 6144 N 579.415 0.9433 -1.26252 0
M  V30 6145 C 580.325 2.07532 -1.09397 0
M  V30 6146 C 581.341 1.73977 -0.0280449 0
M  V30 6147 O 582.517 2.00067 -0.231337 0
M  V30 6148 C 579.582 3.39002 -0.726523 0
M  V30 6149 C 578.643 3.86353 -1.87163 0
M  V30 6150 C 577.876 5.11549 -1.52162 0
M  V30 6151 O 578.099 5.68834 -0.422385 0
M  V30 6152 O 577.033 5.53889 -2.35565 0
M  V30 6153 H 580.859 2.24658 -2.04359 0
M  V30 6154 H 578.444 1.05988 -1.05295 0
M  V30 6155 H 580.326 4.18 -0.534236 0
M  V30 6156 H 579.001 3.2312 0.193721 0
M  V30 6157 H 577.908 3.0831 -2.11886 0
M  V30 6158 H 579.241 4.06752 -2.77152 0
M  V30 6159 N 580.893 1.08022 1.14757 0
M  V30 6160 C 581.841 0.701088 2.21783 0
M  V30 6161 C 582.835 -0.291311 1.66876 0
M  V30 6162 O 584.041 -0.154296 1.79337 0
M  V30 6163 H 580.416 0.208668 0.722469 0
M  V30 6164 H 582.387 1.61321 2.51034 0
M  V30 6165 C 581.136 0.122278 3.47485 0
M  V30 6166 H 580.459 0.877065 3.90061 0
M  V30 6167 H 581.899 -0.105248 4.23869 0
M  V30 6168 C 580.358 -1.13883 3.17068 0
M  V30 6169 O 580.888 -2.22429 3.34497 0
M  V30 6170 N 579.094 -1.04767 2.71058 0
M  V30 6171 H 578.641 -0.164302 2.57075 0
M  V30 6172 H 578.599 -1.89224 2.51081 0
M  V30 6173 N 582.371 -1.3172 0.865308 0
M  V30 6174 C 583.787 -1.4958 0.556596 0
M  V30 6175 C 583.987 -1.79763 -0.910353 0
M  V30 6176 O 583.043 -1.87351 -1.6928 0
M  V30 6177 C 584.356 -2.63277 1.45279 0
M  V30 6178 C 585.904 -2.77161 1.45433 0
M  V30 6179 C 586.379 -3.93949 2.33598 0
M  V30 6180 N 587.87 -4.01228 2.31453 0
M  V30 6181 C 588.605 -4.90855 2.96393 0
M  V30 6182 N 588.101 -5.85416 3.70486 0
M  V30 6183 N 589.894 -4.84063 2.85726 0
M  V30 6184 H 582.045 -1.10396 1.81456 0
M  V30 6185 H 584.308 -0.54507 0.775631 0
M  V30 6186 H 584.014 -2.47734 2.49641 0
M  V30 6187 H 583.888 -3.59309 1.14792 0
M  V30 6188 H 586.275 -2.9212 0.41831 0
M  V30 6189 H 586.356 -1.8181 1.79941 0
M  V30 6190 H 586 -3.79748 3.37274 0
M  V30 6191 H 585.93 -4.88598 1.96417 0
M  V30 6192 H 588.421 -3.3357 1.77593 0
M  V30 6193 H 588.734 -6.50525 4.17178 0
M  V30 6194 H 587.079 -5.85409 3.74594 0
M  V30 6195 H 590.27 -4.09163 2.27384 0
M  V30 6196 H 590.443 -5.53708 3.36617 0
M  V30 6197 N 583.85 -0.624285 -1.44708 0
M  V30 6198 C 585.077 -0.132919 -2.06473 0
M  V30 6199 C 585.493 1.18967 -1.46602 0
M  V30 6200 O 584.85 1.72824 -0.586341 0
M  V30 6201 C 584.901 -0.00465418 -3.615 0
M  V30 6202 O 584.622 -1.27494 -4.19138 0
M  V30 6203 C 586.123 0.516213 -4.40284 0
M  V30 6204 H 583.343 -0.0765201 -0.666623 0
M  V30 6205 H 585.887 -0.856751 -1.85688 0
M  V30 6206 H 584.042 0.669583 -3.8157 0
M  V30 6207 H 584.456 -1.11536 -5.12504 0
M  V30 6208 H 585.93 0.554994 -5.49203 0
M  V30 6209 H 586.407 1.5419 -4.11245 0
M  V30 6210 H 587.013 -0.124542 -4.25118 0
M  V30 6211 N 585.328 1.53329 -0.364422 0
M  V30 6212 C 586.261 2.22052 0.526145 0
M  V30 6213 C 587.239 1.21203 1.08391 0
M  V30 6214 O 588.423 1.50101 1.14026 0
M  V30 6215 C 585.55 2.91432 1.72583 0
M  V30 6216 C 584.596 4.06345 1.29562 0
M  V30 6217 S 585.429 5.34671 0.297885 0
M  V30 6218 C 586.585 6.07563 1.50392 0
M  V30 6219 H 586.818 2.97244 -0.0575055 0
M  V30 6220 H 584.351 1.53684 -0.148525 0
M  V30 6221 H 586.309 3.3202 2.41398 0
M  V30 6222 H 584.97 2.15966 2.28073 0
M  V30 6223 H 584.163 4.53901 2.19067 0
M  V30 6224 H 583.765 3.67642 0.686696 0
M  V30 6225 H 586.057 6.32224 2.43513 0
M  V30 6226 H 587 6.99973 1.06977 0
M  V30 6227 H 587.408 5.37994 1.70945 0
M  V30 6228 N 586.806 0.0935595 1.57322 0
M  V30 6229 C 588.034 -0.578934 1.98635 0
M  V30 6230 C 588.449 -1.61819 0.972626 0
M  V30 6231 O 587.806 -1.82461 -0.0379638 0
M  V30 6232 C 587.857 -1.22802 3.40003 0
M  V30 6233 O 587.578 -0.230334 4.37494 0
M  V30 6234 C 589.079 -1.98627 3.96311 0
M  V30 6235 H 586.299 -0.155324 0.652775 0
M  V30 6236 H 588.843 0.172393 2.03772 0
M  V30 6237 H 586.998 -1.93029 3.35885 0
M  V30 6238 H 587.412 -0.698649 5.19826 0
M  V30 6239 H 588.886 -2.39405 4.97382 0
M  V30 6240 H 589.363 -2.85151 3.34044 0
M  V30 6241 H 589.969 -1.3322 4.03897 0
M  V30 6242 N 588.284 -1.56567 -0.180126 0
M  V30 6243 C 589.533 -1.80685 -0.896426 0
M  V30 6244 C 589.846 -0.669335 -1.83791 0
M  V30 6245 O 591.052 -0.795209 -2.59593 0
M  V30 6246 C 589.508 -3.20132 -1.6445 0
M  V30 6247 C 589.116 -4.41727 -0.747088 0
M  V30 6248 C 590.86 -3.53549 -2.34955 0
M  V30 6249 C 588.767 -5.72195 -1.49489 0
M  V30 6250 H 587.697 -0.673758 -0.338477 0
M  V30 6251 H 590.348 -1.8289 -0.149467 0
M  V30 6252 H 588.73 -3.12218 -2.43589 0
M  V30 6253 H 589.904 -4.608 0.00671129 0
M  V30 6254 H 588.219 -4.16122 -0.152134 0
M  V30 6255 H 590.816 -4.48267 -2.91481 0
M  V30 6256 H 591.159 -2.78006 -3.09868 0
M  V30 6257 H 591.692 -3.62976 -1.62768 0
M  V30 6258 H 588.431 -6.50743 -0.788251 0
M  V30 6259 H 587.951 -5.57115 -2.22224 0
M  V30 6260 H 589.63 -6.1384 -2.04472 0
M  V30 6261 N 589.762 0.448376 -1.51087 0
M  V30 6262 C 590.712 1.54156 -1.67988 0
M  V30 6263 C 591.696 1.5178 -0.534015 0
M  V30 6264 O 592.888 1.58419 -0.789448 0
M  V30 6265 C 590.017 2.92437 -1.79822 0
M  V30 6266 C 589.103 2.99611 -3.00157 0
M  V30 6267 N 589.494 2.7655 -4.23502 0
M  V30 6268 C 587.792 3.30764 -2.99184 0
M  V30 6269 C 588.493 2.89281 -5.0467 0
M  V30 6270 N 587.469 3.20473 -4.39088 0
M  V30 6271 H 591.271 1.35061 -2.61028 0
M  V30 6272 H 588.785 0.655504 -1.48583 0
M  V30 6273 H 590.782 3.71068 -1.90037 0
M  V30 6274 H 589.442 3.1256 -0.879554 0
M  V30 6275 H 590.453 2.5169 -4.52628 0
M  V30 6276 H 587.13 3.56732 -2.16907 0
M  V30 6277 H 588.52 2.75499 -6.12821 0
M  V30 6278 N 591.24 1.41047 0.703093 0
M  V30 6279 C 592.188 1.42494 1.83843 0
M  V30 6280 C 593.182 0.303885 1.66652 0
M  V30 6281 O 594.388 0.475544 1.73605 0
M  V30 6282 H 590.763 0.445685 0.605697 0
M  V30 6283 H 592.734 2.38194 1.79739 0
M  V30 6284 C 591.483 1.31666 3.21807 0
M  V30 6285 H 590.806 2.17212 3.35647 0
M  V30 6286 H 592.246 1.36738 4.01346 0
M  V30 6287 C 590.705 0.0281828 3.36888 0
M  V30 6288 O 591.235 -0.929995 3.90786 0
M  V30 6289 N 589.441 -0.0454322 2.90564 0
M  V30 6290 H 588.988 0.735046 2.4689 0
M  V30 6291 H 588.946 -0.906968 3.01034 0
M  V30 6292 N 592.718 -0.936591 1.26751 0
M  V30 6293 C 593.966 -1.67998 1.12343 0
M  V30 6294 C 594.287 -1.92137 -0.332938 0
M  V30 6295 O 593.557 -1.52132 -1.23421 0
M  V30 6296 H 592.137 -0.622609 0.412756 0
M  V30 6297 H 594.799 -1.12509 1.59147 0
M  V30 6298 H 593.895 -2.65185 1.64571 0
M  V30 6299 N 594.196 -1.08629 -1.14182 0
M  V30 6300 C 595.129 -0.662329 -2.18377 0
M  V30 6301 C 596.107 0.327054 -1.59277 0
M  V30 6302 O 597.291 0.230376 -1.87087 0
M  V30 6303 C 594.418 0.0254765 -3.3869 0
M  V30 6304 C 593.464 -0.924414 -4.16361 0
M  V30 6305 S 594.297 -2.43226 -4.77076 0
M  V30 6306 C 595.453 -1.75663 -6.00744 0
M  V30 6307 H 595.686 -1.54501 -2.54001 0
M  V30 6308 H 593.219 -0.901484 -1.2535 0
M  V30 6309 H 595.177 0.416032 -4.08386 0
M  V30 6310 H 593.838 0.884689 -3.01384 0
M  V30 6311 H 593.031 -0.390099 -5.02488 0
M  V30 6312 H 592.633 -1.25598 -3.5228 0
M  V30 6313 H 594.925 -1.07589 -6.68903 0
M  V30 6314 H 595.868 -2.59673 -6.58768 0
M  V30 6315 H 596.276 -1.22903 -5.50958 0
M  V30 6316 N 595.674 1.31259 -0.872281 0
M  V30 6317 C 596.921 1.96622 -0.484365 0
M  V30 6318 C 597.249 1.68939 0.963841 0
M  V30 6319 O 596.504 0.97974 1.6941 0
M  V30 6320 C 596.803 3.50659 -0.690889 0
M  V30 6321 C 596.469 3.98366 -2.11224 0
M  V30 6322 C 595.131 4.11104 -2.50094 0
M  V30 6323 C 597.483 4.23425 -3.0391 0
M  V30 6324 C 594.811 4.46254 -3.80887 0
M  V30 6325 C 597.163 4.60039 -4.3422 0
M  V30 6326 C 595.827 4.70984 -4.73001 0
M  V30 6327 H 595.097 0.71949 -0.177242 0
M  V30 6328 H 597.744 1.56353 -1.10571 0
M  V30 6329 H 596.049 3.91798 0.0135782 0
M  V30 6330 H 597.746 3.99284 -0.370534 0
M  V30 6331 H 594.336 3.88949 -1.80047 0
M  V30 6332 H 598.52 4.13075 -2.75104 0
M  V30 6333 H 593.776 4.52926 -4.10692 0
M  V30 6334 H 597.95 4.78381 -5.06088 0
M  V30 6335 H 595.577 4.97977 -5.7439 0
M  V30 6336 N 597.152 0.631951 1.44375 0
M  V30 6337 C 598.399 0.136767 2.02038 0
M  V30 6338 C 598.727 -1.24168 1.49709 0
M  V30 6339 O 597.982 -1.83809 0.671763 0
M  V30 6340 C 598.281 0.0735861 3.57324 0
M  V30 6341 C 597.947 1.39092 4.28911 0
M  V30 6342 C 596.609 1.75171 4.48184 0
M  V30 6343 C 598.961 2.26042 4.69632 0
M  V30 6344 C 596.289 2.97907 5.05439 0
M  V30 6345 C 598.641 3.4805 5.28246 0
M  V30 6346 C 597.305 3.84351 5.45738 0
M  V30 6347 H 596.575 0.0500466 0.739308 0
M  V30 6348 H 599.222 0.818429 1.7313 0
M  V30 6349 H 597.527 -0.691449 3.8565 0
M  V30 6350 H 599.224 -0.326091 3.99672 0
M  V30 6351 H 595.814 1.10015 4.1424 0
M  V30 6352 H 599.998 1.99463 4.54454 0
M  V30 6353 H 595.254 3.26108 5.17169 0
M  V30 6354 H 599.428 4.15658 5.5875 0
M  V30 6355 H 597.055 4.79538 5.8987 0
M  V30 6356 N 598.631 -1.53133 0.372548 0
M  V30 6357 C 599.856 -2.0625 -0.218098 0
M  V30 6358 C 600.281 -1.24375 -1.41111 0
M  V30 6359 O 599.639 -0.264554 -1.79359 0
M  V30 6360 C 599.687 -3.55858 -0.582876 0
M  V30 6361 O 598.791 -3.76667 -1.67917 0
M  V30 6362 H 598.132 -0.663317 -0.030104 0
M  V30 6363 H 600.662 -1.97477 0.535169 0
M  V30 6364 H 600.672 -3.99007 -0.851925 0
M  V30 6365 H 599.347 -4.14892 0.289428 0
M  V30 6366 H 597.924 -3.45413 -1.40513 0
M  V30 6367 N 600.109 -0.101901 -1.5727 0
M  V30 6368 C 601.337 0.568392 -1.98939 0
M  V30 6369 C 601.752 1.61301 -0.981194 0
M  V30 6370 O 601.109 1.82478 0.0282869 0
M  V30 6371 C 601.16 1.20997 -3.40649 0
M  V30 6372 O 600.881 0.207129 -4.3761 0
M  V30 6373 C 602.382 1.96523 -3.97358 0
M  V30 6374 H 599.602 0.15186 -0.65359 0
M  V30 6375 H 602.146 -0.183198 -2.03678 0
M  V30 6376 H 600.301 1.91245 -3.36904 0
M  V30 6377 H 600.715 0.671071 -5.20189 0
M  V30 6378 H 602.189 2.36764 -4.98645 0
M  V30 6379 H 602.666 2.83376 -3.35552 0
M  V30 6380 H 603.272 1.31076 -4.04598 0
M  V30 6381 N 601.587 1.56661 0.17182 0
M  V30 6382 C 602.817 1.85831 0.902804 0
M  V30 6383 C 603.225 0.685157 1.76358 0
M  V30 6384 O 602.568 -0.354947 1.80238 0
M  V30 6385 C 602.63 3.09406 1.83053 0
M  V30 6386 C 602.294 4.4231 1.1494 0
M  V30 6387 C 603.291 5.17342 0.515104 0
M  V30 6388 C 600.976 4.89045 1.14631 0
M  V30 6389 C 602.97 6.37299 -0.113194 0
M  V30 6390 C 600.657 6.08933 0.514184 0
M  V30 6391 C 601.655 6.82904 -0.114463 0
M  V30 6392 O 601.343 8.00518 -0.736622 0
M  V30 6393 H 601.075 0.620715 0.267748 0
M  V30 6394 H 603.629 2.04637 0.176918 0
M  V30 6395 H 601.859 2.86544 2.59672 0
M  V30 6396 H 603.548 3.25027 2.4313 0
M  V30 6397 H 604.314 4.82317 0.509474 0
M  V30 6398 H 600.193 4.31409 1.62502 0
M  V30 6399 H 603.737 6.94976 -0.604477 0
M  V30 6400 H 599.634 6.43423 0.517395 0
M  V30 6401 H 600.402 8.16027 -0.635822 0
M  V30 6402 N 603.065 -0.440357 1.51323 0
M  V30 6403 C 604.342 -1.20109 1.5438 0
M  V30 6404 C 604.722 -2.08866 0.306303 0
M  V30 6405 O 604.07 -2.1723 -0.708773 0
M  V30 6406 C 604.28 -2.00555 2.8562 0
M  V30 6407 C 605.628 -2.577 3.37455 0
M  V30 6408 O 606.652 -2.10769 2.8715 0
M  V30 6409 O 605.511 -3.43289 4.25224 0
M  V30 6410 H 602.605 -0.546668 0.620551 0
M  V30 6411 H 605.151 -0.449672 1.63634 0
M  V30 6412 H 603.923 -1.35346 3.67147 0
M  V30 6413 H 603.546 -2.82768 2.79514 0
M  V30 6414 N 604.543 -1.41418 -0.695603 0
M  V30 6415 C 605.959 -1.23887 -1.00619 0
M  V30 6416 C 606.159 -0.128206 -2.01092 0
M  V30 6417 O 605.215 0.507408 -2.47349 0
M  V30 6418 C 606.528 -2.58816 -1.53083 0
M  V30 6419 C 608.076 -2.65998 -1.64967 0
M  V30 6420 C 608.551 -4.01244 -2.20833 0
M  V30 6421 N 610.042 -4.0309 -2.28194 0
M  V30 6422 C 610.777 -5.04539 -2.72448 0
M  V30 6423 N 610.273 -6.16378 -3.16306 0
M  V30 6424 N 612.066 -4.91901 -2.72011 0
M  V30 6425 H 604.217 -2.12379 -0.0300061 0
M  V30 6426 H 606.48 -0.944958 -0.0758797 0
M  V30 6427 H 606.186 -3.40842 -0.867147 0
M  V30 6428 H 606.06 -2.81299 -2.51298 0
M  V30 6429 H 608.447 -1.84331 -2.30448 0
M  V30 6430 H 608.528 -2.47325 -0.652982 0
M  V30 6431 H 608.172 -4.83359 -1.55968 0
M  V30 6432 H 608.102 -4.17257 -3.21254 0
M  V30 6433 H 610.593 -3.22341 -1.97242 0
M  V30 6434 H 610.906 -6.89658 -3.487 0
M  V30 6435 H 609.251 -6.19914 -3.14215 0
M  V30 6436 H 612.442 -4.03613 -2.37095 0
M  V30 6437 H 612.615 -5.71102 -3.06181 0
M  V30 6438 N 606.021 0.929856 -1.27246 0
M  V30 6439 C 607.298 1.65544 -1.04186 0
M  V30 6440 C 607.678 2.06796 0.424097 0
M  V30 6441 O 607.026 1.80053 1.40688 0
M  V30 6442 C 607.236 2.85912 -2.00138 0
M  V30 6443 C 608.584 3.57305 -2.29387 0
M  V30 6444 O 609.608 2.96036 -1.98094 0
M  V30 6445 O 608.467 4.67688 -2.82719 0
M  V30 6446 H 605.561 0.725473 -0.397011 0
M  V30 6447 H 608.107 0.980583 -1.38501 0
M  V30 6448 H 606.879 2.52403 -2.99013 0
M  V30 6449 H 606.502 3.61118 -1.66371 0
M  V30 6450 N 607.499 1.09233 1.13605 0
M  V30 6451 C 608.447 0.724572 2.21027 0
M  V30 6452 C 609.441 -0.273595 1.67176 0
M  V30 6453 O 610.647 -0.135266 1.79491 0
M  V30 6454 H 607.022 0.216319 0.720215 0
M  V30 6455 H 608.993 1.63975 2.49309 0
M  V30 6456 C 607.742 0.159126 3.47336 0
M  V30 6457 H 607.065 0.918387 3.89109 0
M  V30 6458 H 608.505 -0.0602851 4.23957 0
M  V30 6459 C 606.964 -1.10514 3.18258 0
M  V30 6460 O 607.494 -2.18869 3.36837 0
M  V30 6461 N 605.7 -1.01886 2.72154 0
M  V30 6462 H 605.247 -0.137027 2.57235 0
M  V30 6463 H 605.205 -1.8655 2.53074 0
M  V30 6464 N 608.977 -1.30795 0.87923 0
M  V30 6465 C 610.254 -1.91145 0.415086 0
M  V30 6466 C 610.634 -1.7995 -1.10368 0
M  V30 6467 O 609.982 -1.21305 -1.93642 0
M  V30 6468 C 610.192 -3.37014 0.906778 0
M  V30 6469 C 611.54 -4.14101 0.938358 0
M  V30 6470 O 612.564 -3.45834 0.853053 0
M  V30 6471 O 611.423 -5.36054 1.06342 0
M  V30 6472 H 608.517 -0.81736 0.125905 0
M  V30 6473 H 611.063 -1.39401 0.967753 0
M  V30 6474 H 609.835 -3.3922 1.95053 0
M  V30 6475 H 609.458 -3.96204 0.332948 0
M  V30 6476 N 610.455 -0.639598 -1.44038 0
M  V30 6477 C 611.703 -0.147188 -2.01563 0
M  V30 6478 C 612.024 1.2384 -1.50628 0
M  V30 6479 O 611.294 1.82452 -0.713316 0
M  V30 6480 H 609.874 -0.0514231 -0.745228 0
M  V30 6481 H 612.536 -0.828205 -1.76428 0
M  V30 6482 H 611.632 -0.121358 -3.11864 0
M  V30 6483 N 611.933 1.52934 -0.380664 0
M  V30 6484 C 613.179 2.02443 0.197089 0
M  V30 6485 C 613.534 1.26249 1.45186 0
M  V30 6486 O 612.827 0.351964 1.8834 0
M  V30 6487 C 613.021 3.5349 0.527199 0
M  V30 6488 C 612.85 4.44312 -0.694027 0
M  V30 6489 C 611.62 4.90582 -1.21068 0
M  V30 6490 C 613.818 4.8995 -1.56377 0
M  V30 6491 N 611.8 5.65451 -2.39036 0
M  V30 6492 C 613.171 5.63313 -2.58995 0
M  V30 6493 C 615.226 4.72002 -1.58488 0
M  V30 6494 C 613.929 6.20635 -3.63599 0
M  V30 6495 C 615.955 5.30201 -2.61995 0
M  V30 6496 C 615.317 6.03463 -3.63335 0
M  V30 6497 H 611.416 0.781241 0.0344357 0
M  V30 6498 H 614 1.87387 -0.528609 0
M  V30 6499 H 612.171 3.68677 1.22196 0
M  V30 6500 H 613.903 3.89707 1.09135 0
M  V30 6501 H 610.658 4.67249 -0.772995 0
M  V30 6502 H 611.082 6.07541 -2.98701 0
M  V30 6503 H 615.724 4.14873 -0.814891 0
M  V30 6504 H 613.442 6.76852 -4.41472 0
M  V30 6505 H 617.028 5.182 -2.645 0
M  V30 6506 H 615.908 6.47693 -4.42113 0
M  V30 6507 N 613.412 0.11024 1.57214 0
M  V30 6508 C 614.342 -0.840002 2.17867 0
M  V30 6509 C 615.323 -1.28352 1.11624 0
M  V30 6510 O 616.508 -1.3477 1.39824 0
M  V30 6511 C 613.638 -2.09349 2.77111 0
M  V30 6512 C 612.592 -1.78807 3.8886 0
M  V30 6513 C 611.918 -3.11112 4.34872 0
M  V30 6514 C 613.218 -1.0632 5.11364 0
M  V30 6515 H 614.912 -0.334608 2.97524 0
M  V30 6516 H 612.458 -0.159502 1.43114 0
M  V30 6517 H 614.411 -2.76275 3.18198 0
M  V30 6518 H 613.135 -2.62198 1.9473 0
M  V30 6519 H 611.794 -1.14273 3.48335 0
M  V30 6520 H 611.442 -3.61877 3.49362 0
M  V30 6521 H 611.142 -2.91453 5.10224 0
M  V30 6522 H 612.666 -3.79171 4.78604 0
M  V30 6523 H 614.08 -1.63383 5.49526 0
M  V30 6524 H 612.477 -0.967876 5.92243 0
M  V30 6525 H 613.547 -0.0484569 4.84876 0
M  V30 6526 N 614.89 -1.56749 -0.16351 0
M  V30 6527 C 616.118 -1.86577 -0.894233 0
M  V30 6528 C 616.533 -0.696543 -1.75481 0
M  V30 6529 O 615.89 0.334161 -1.79415 0
M  V30 6530 C 615.941 -3.15508 -1.76456 0
M  V30 6531 O 615.662 -4.27926 -0.938685 0
M  V30 6532 C 617.163 -3.58737 -2.60428 0
M  V30 6533 H 614.383 -0.618829 -0.259405 0
M  V30 6534 H 616.927 -2.03863 -0.161259 0
M  V30 6535 H 615.082 -3.00025 -2.45079 0
M  V30 6536 H 615.496 -5.01546 -1.53465 0
M  V30 6537 H 616.97 -4.51832 -3.17099 0
M  V30 6538 H 617.447 -2.83229 -3.35675 0
M  V30 6539 H 618.053 -3.76858 -1.97125 0
M  V30 6540 N 616.368 0.432326 -1.51554 0
M  V30 6541 C 617.593 1.20824 -1.68571 0
M  V30 6542 C 618.018 1.84126 -0.384596 0
M  V30 6543 O 617.376 1.69025 0.655751 0
M  V30 6544 C 617.424 2.26429 -2.80646 0
M  V30 6545 O 616.528 3.32032 -2.44598 0
M  V30 6546 H 615.869 0.353765 -0.561913 0
M  V30 6547 H 618.399 0.509916 -1.98144 0
M  V30 6548 H 618.409 2.71133 -3.04878 0
M  V30 6549 H 617.084 1.79733 -3.75058 0
M  V30 6550 H 615.661 2.92769 -2.30956 0
M  V30 6551 N 617.846 1.41785 0.688094 0
M  V30 6552 C 619.123 1.32031 1.44316 0
M  V30 6553 C 619.503 -0.0486079 2.11044 0
M  V30 6554 O 618.851 -1.06332 2.02252 0
M  V30 6555 C 619.061 2.47906 2.45649 0
M  V30 6556 C 620.409 2.89415 3.10683 0
M  V30 6557 O 621.433 2.477 2.55975 0
M  V30 6558 O 620.292 3.61573 4.09789 0
M  V30 6559 H 617.386 0.519994 0.643067 0
M  V30 6560 H 619.932 1.53765 0.71794 0
M  V30 6561 H 618.704 3.39222 1.95048 0
M  V30 6562 H 618.327 2.28089 3.25671 0
M  V30 6563 N 619.324 -0.923095 1.27737 0
M  V30 6564 C 620.735 -1.48626 1.12993 0
M  V30 6565 C 621.086 -1.94142 -0.283439 0
M  V30 6566 O 620.211 -1.81605 -1.17681 0
M  V30 6567 C 620.806 -2.70117 2.04505 0
M  V30 6568 C 619.365 -3.22642 1.93853 0
M  V30 6569 C 618.512 -1.95368 1.96791 0
M  V30 6570 H 621.463 -0.736737 1.40563 0
M  V30 6571 H 621.484 -3.4506 1.60356 0
M  V30 6572 H 620.996 -2.36959 3.07363 0
M  V30 6573 H 619.097 -3.60549 0.939968 0
M  V30 6574 H 619.21 -3.88525 2.80331 0
M  V30 6575 H 617.574 -2.12061 1.41076 0
M  V30 6576 H 618.357 -1.64517 3.01312 0
M  V30 6577 N 620.802 -1.09834 -1.13024 0
M  V30 6578 C 622.218 -0.828875 -1.36388 0
M  V30 6579 C 622.418 0.554756 -1.93713 0
M  V30 6580 O 621.474 1.30882 -2.15931 0
M  V30 6581 C 622.787 -1.92352 -2.3113 0
M  V30 6582 C 624.335 -1.95124 -2.44735 0
M  V30 6583 C 624.81 -3.03745 -3.42787 0
M  V30 6584 N 626.301 -3.03012 -3.5034 0
M  V30 6585 C 627.036 -3.83699 -4.26101 0
M  V30 6586 N 626.532 -4.74306 -5.04981 0
M  V30 6587 N 628.325 -3.71942 -4.21445 0
M  V30 6588 H 620.476 -1.99029 -0.74169 0
M  V30 6589 H 622.739 -0.864557 -0.388903 0
M  V30 6590 H 622.445 -2.91906 -1.96172 0
M  V30 6591 H 622.319 -1.80536 -3.3119 0
M  V30 6592 H 624.706 -0.962069 -2.78977 0
M  V30 6593 H 624.787 -2.11018 -1.44586 0
M  V30 6594 H 624.431 -4.02878 -3.09276 0
M  V30 6595 H 624.361 -2.85094 -4.42752 0
M  V30 6596 H 626.852 -2.37352 -2.94062 0
M  V30 6597 H 627.165 -5.32446 -5.60108 0
M  V30 6598 H 625.51 -4.78339 -5.04199 0
M  V30 6599 H 628.701 -3.00513 -3.589 0
M  V30 6600 H 628.874 -4.35062 -4.80235 0
M  V30 6601 N 622.28 1.30327 -0.886154 0
M  V30 6602 C 623.227 2.28099 -0.352069 0
M  V30 6603 C 624.197 1.56433 0.558397 0
M  V30 6604 O 625.382 1.84492 0.486561 0
M  V30 6605 C 622.522 3.42456 0.426346 0
M  V30 6606 C 621.635 4.28938 -0.513472 0
M  V30 6607 C 620.77 5.30458 0.280657 0
M  V30 6608 C 619.809 6.0859 -0.654556 0
M  V30 6609 N 618.946 7.02022 0.104322 0
M  V30 6610 H 623.786 2.73166 -1.19097 0
M  V30 6611 H 621.323 1.34367 -0.598662 0
M  V30 6612 H 623.281 4.07518 0.893587 0
M  V30 6613 H 621.911 2.98455 1.22981 0
M  V30 6614 H 620.963 3.64173 -1.09921 0
M  V30 6615 H 622.275 4.83399 -1.2299 0
M  V30 6616 H 621.429 6.01273 0.8097 0
M  V30 6617 H 620.168 4.76693 1.03029 0
M  V30 6618 H 619.173 5.36651 -1.19522 0
M  V30 6619 H 620.398 6.64443 -1.4033 0
M  V30 6620 H 618.344 6.50645 0.836472 0
M  V30 6621 H 618.261 7.53979 -0.552453 0
M  V30 6622 H 619.529 7.77077 0.614069 0
M  V30 6623 N 623.758 0.647228 1.43697 0
M  V30 6624 C 624.69 -0.0866232 2.29036 0
M  V30 6625 C 625.703 -0.793051 1.42178 0
M  V30 6626 O 626.892 -0.651807 1.66174 0
M  V30 6627 C 623.992 -1.14552 3.18953 0
M  V30 6628 C 623.165 -0.518422 4.34317 0
M  V30 6629 C 622.224 -1.4734 5.05151 0
M  V30 6630 O 621.25 -0.984312 5.60625 0
M  V30 6631 N 622.452 -2.8075 5.08094 0
M  V30 6632 H 625.217 0.645834 2.92659 0
M  V30 6633 H 622.778 0.489567 1.54321 0
M  V30 6634 H 624.77 -1.78505 3.63205 0
M  V30 6635 H 623.34 -1.78001 2.56971 0
M  V30 6636 H 622.56 0.300079 3.93056 0
M  V30 6637 H 623.848 -0.080401 5.08736 0
M  V30 6638 H 623.246 -3.23052 4.64386 0
M  V30 6639 H 621.803 -3.40022 5.56083 0
M  V30 6640 N 625.236 -1.5273 0.388769 0
M  V30 6641 C 626.476 -2.03483 -0.193372 0
M  V30 6642 C 626.84 -1.26897 -1.44087 0
M  V30 6643 O 628.041 -1.67773 -2.10014 0
M  V30 6644 C 626.312 -3.54488 -0.455325 0
M  V30 6645 S 627.871 -4.27069 -1.00783 0
M  V30 6646 H 624.689 -0.708907 -0.0545131 0
M  V30 6647 H 627.291 -1.8798 0.536993 0
M  V30 6648 H 625.995 -4.07817 0.459722 0
M  V30 6649 H 625.526 -3.74196 -1.21413 0
M  V30 6650 H 627.541 -4.40185 -2.29023 0
M  V30 6651 N 626.714 -0.118576 -1.57153 0
M  V30 6652 C 627.939 0.550582 -1.99958 0
M  V30 6653 C 628.364 1.59458 -0.997736 0
M  V30 6654 O 627.722 1.81274 0.0306269 0
M  V30 6655 C 627.77 1.15379 -3.41643 0
M  V30 6656 O 626.874 2.26932 -3.44348 0
M  V30 6657 H 626.215 0.137567 -0.649593 0
M  V30 6658 H 628.745 -0.206926 -2.03551 0
M  V30 6659 H 628.755 1.48942 -3.79843 0
M  V30 6660 H 627.43 0.389087 -4.14076 0
M  V30 6661 H 626.007 1.94812 -3.17967 0
M  V30 6662 N 628.193 1.56834 0.155195 0
M  V30 6663 C 629.14 1.97646 1.19184 0
M  V30 6664 C 630.11 0.842788 1.4313 0
M  V30 6665 O 631.295 1.1042 1.55602 0
M  V30 6666 C 628.435 2.35527 2.52232 0
M  V30 6667 C 627.548 3.62147 2.35529 0
M  V30 6668 C 626.683 3.89167 3.61555 0
M  V30 6669 C 625.722 5.09084 3.39853 0
M  V30 6670 N 624.859 5.32156 4.5799 0
M  V30 6671 H 629.699 2.8601 0.836802 0
M  V30 6672 H 627.236 1.41507 0.401758 0
M  V30 6673 H 629.194 2.55516 3.29799 0
M  V30 6674 H 627.824 1.50253 2.85699 0
M  V30 6675 H 626.876 3.4998 1.49057 0
M  V30 6676 H 628.188 4.49871 2.15448 0
M  V30 6677 H 627.342 4.09611 4.47553 0
M  V30 6678 H 626.081 2.9985 3.84632 0
M  V30 6679 H 625.086 4.88522 2.52243 0
M  V30 6680 H 626.311 5.99947 3.18183 0
M  V30 6681 H 624.257 4.45791 4.81255 0
M  V30 6682 H 624.174 6.14133 4.40882 0
M  V30 6683 H 625.442 5.57091 5.45225 0
M  V30 6684 N 629.671 -0.424282 1.51781 0
M  V30 6685 C 630.581 -1.54087 1.76902 0
M  V30 6686 C 631.597 -1.61249 0.653826 0
M  V30 6687 O 632.773 -1.78247 0.937552 0
M  V30 6688 C 629.838 -2.8996 1.90063 0
M  V30 6689 C 628.899 -2.92809 3.13945 0
M  V30 6690 C 628.132 -4.22201 3.26469 0
M  V30 6691 O 628.355 -5.15286 2.44616 0
M  V30 6692 O 627.289 -4.31599 4.1953 0
M  V30 6693 H 631.115 -1.358 2.71647 0
M  V30 6694 H 628.7 -0.608618 1.36441 0
M  V30 6695 H 630.582 -3.70575 2.0063 0
M  V30 6696 H 629.257 -3.08347 0.985067 0
M  V30 6697 H 628.164 -2.11102 3.08847 0
M  V30 6698 H 629.497 -2.79369 4.05233 0
M  V30 6699 N 631.149 -1.42148 -0.680565 0
M  V30 6700 C 632.426 -1.32795 -1.43614 0
M  V30 6701 C 632.806 0.037415 -2.11067 0
M  V30 6702 O 632.154 1.05258 -2.02813 0
M  V30 6703 C 632.364 -2.49206 -2.44331 0
M  V30 6704 C 633.712 -2.91059 -3.09144 0
M  V30 6705 O 634.736 -2.49054 -2.54657 0
M  V30 6706 O 633.595 -3.63741 -4.07866 0
M  V30 6707 H 630.689 -0.523397 -0.640301 0
M  V30 6708 H 633.235 -1.54144 -0.709775 0
M  V30 6709 H 632.007 -3.40252 -1.93247 0
M  V30 6710 H 631.63 -2.29813 -3.24456 0
M  V30 6711 N 632.627 0.916307 -1.28225 0
M  V30 6712 C 633.875 1.6619 -1.15002 0
M  V30 6713 C 634.196 1.92642 0.302329 0
M  V30 6714 O 633.466 1.54076 1.20985 0
M  V30 6715 H 632.046 0.615964 -0.422608 0
M  V30 6716 H 634.708 1.09963 -1.60917 0
M  V30 6717 H 633.804 2.62533 -1.68769 0
M  V30 6718 N 634.105 1.10431 1.1244 0
M  V30 6719 C 635.353 0.845045 1.83585 0
M  V30 6720 C 635.674 -0.631168 1.84503 0
M  V30 6721 O 634.944 -1.45825 1.30813 0
M  V30 6722 H 633.524 0.309628 0.679809 0
M  V30 6723 H 636.186 1.39458 1.36153 0
M  V30 6724 H 635.282 1.20786 2.8778 0
M  V30 6725 N 635.583 -1.29855 0.893053 0
M  V30 6726 C 636.831 -1.9544 0.514566 0
M  V30 6727 C 637.152 -1.70795 -0.940959 0
M  V30 6728 O 636.422 -1.03601 -1.66264 0
M  V30 6729 H 635.002 -0.723137 0.187302 0
M  V30 6730 H 637.664 -1.58234 1.13789 0
M  V30 6731 H 636.76 -3.04341 0.691581 0
M  V30 6732 N 637.061 -0.65484 -1.43351 0
M  V30 6733 C 638.307 -0.177749 -2.02622 0
M  V30 6734 C 638.662 1.19553 -1.50748 0
M  V30 6735 O 637.955 1.78683 -0.691599 0
M  V30 6736 C 638.149 -0.130424 -3.57162 0
M  V30 6737 C 637.978 -1.49757 -4.24032 0
M  V30 6738 C 636.748 -2.09036 -4.60035 0
M  V30 6739 C 638.946 -2.4363 -4.52934 0
M  V30 6740 N 636.928 -3.3874 -5.11985 0
M  V30 6741 C 638.299 -3.57968 -5.0622 0
M  V30 6742 C 640.354 -2.42412 -4.34903 0
M  V30 6743 C 639.057 -4.71314 -5.43374 0
M  V30 6744 C 641.083 -3.5484 -4.7312 0
M  V30 6745 C 640.445 -4.67903 -5.26541 0
M  V30 6746 H 636.544 -0.10951 -0.774294 0
M  V30 6747 H 639.128 -0.863495 -1.74505 0
M  V30 6748 H 637.299 0.524671 -3.8484 0
M  V30 6749 H 639.031 0.35769 -4.03116 0
M  V30 6750 H 635.786 -1.61729 -4.4513 0
M  V30 6751 H 636.21 -4.05116 -5.42412 0
M  V30 6752 H 640.852 -1.56236 -3.92874 0
M  V30 6753 H 638.57 -5.5818 -5.84346 0
M  V30 6754 H 642.156 -3.55101 -4.60863 0
M  V30 6755 H 641.036 -5.5346 -5.55564 0
M  V30 6756 N 638.539 1.52521 -0.396863 0
M  V30 6757 C 639.785 2.02641 0.175606 0
M  V30 6758 C 640.14 1.27782 1.43839 0
M  V30 6759 O 639.433 0.371921 1.87956 0
M  V30 6760 C 639.627 3.5403 0.489677 0
M  V30 6761 C 639.456 4.43551 -0.741113 0
M  V30 6762 C 638.226 4.8927 -1.26265 0
M  V30 6763 C 640.424 4.88263 -1.61565 0
M  V30 6764 N 638.406 5.62884 -2.4502 0
M  V30 6765 C 639.777 5.60534 -2.64955 0
M  V30 6766 C 641.832 4.70294 -1.63486 0
M  V30 6767 C 640.535 6.16744 -3.70162 0
M  V30 6768 C 642.561 5.27392 -2.67603 0
M  V30 6769 C 641.923 5.99575 -3.69715 0
M  V30 6770 H 638.022 0.781563 0.0261477 0
M  V30 6771 H 640.606 1.86816 -0.548454 0
M  V30 6772 H 638.777 3.69952 1.18279 0
M  V30 6773 H 640.509 3.90843 1.04996 0
M  V30 6774 H 637.264 4.66403 -0.822509 0
M  V30 6775 H 637.688 6.04339 -3.05128 0
M  V30 6776 H 642.33 4.13985 -0.858848 0
M  V30 6777 H 640.048 6.72131 -4.48626 0
M  V30 6778 H 643.634 5.15365 -2.69982 0
M  V30 6779 H 642.514 6.42967 -4.48958 0
M  V30 6780 N 640.017 0.126909 1.57088 0
M  V30 6781 C 641.247 -0.535892 1.99529 0
M  V30 6782 C 641.655 -1.60259 1.00566 0
M  V30 6783 O 640.998 -1.83698 -0.00843269 0
M  V30 6784 C 641.06 -1.21374 3.38391 0
M  V30 6785 C 640.724 -0.294044 4.56053 0
M  V30 6786 C 641.721 0.470454 5.17767 0
M  V30 6787 C 639.406 -0.202808 5.0189 0
M  V30 6788 C 641.4 1.31384 6.23712 0
M  V30 6789 C 639.087 0.644203 6.07695 0
M  V30 6790 C 640.085 1.40115 6.68473 0
M  V30 6791 O 639.773 2.23408 7.72233 0
M  V30 6792 H 639.505 -0.145799 0.66009 0
M  V30 6793 H 642.059 0.212441 2.04298 0
M  V30 6794 H 640.289 -2.00931 3.30399 0
M  V30 6795 H 641.978 -1.77424 3.65069 0
M  V30 6796 H 642.744 0.409884 4.83265 0
M  V30 6797 H 638.623 -0.781688 4.54324 0
M  V30 6798 H 642.167 1.90514 6.71081 0
M  V30 6799 H 638.064 0.706137 6.41626 0
M  V30 6800 H 638.832 2.16436 7.89365 0
M  V30 6801 N 641.495 -1.56914 -0.146875 0
M  V30 6802 C 642.443 -1.99224 -1.20053 0
M  V30 6803 C 643.437 -0.884661 -1.44465 0
M  V30 6804 O 644.643 -1.06984 -1.44756 0
M  V30 6805 H 641.018 -0.634191 -0.404112 0
M  V30 6806 H 642.989 -2.86998 -0.816987 0
M  V30 6807 C 641.738 -2.38899 -2.52632 0
M  V30 6808 H 641.061 -3.23677 -2.34677 0
M  V30 6809 H 642.501 -2.72326 -3.24984 0
M  V30 6810 C 640.96 -1.2417 -3.13183 0
M  V30 6811 O 641.49 -0.542503 -3.9802 0
M  V30 6812 N 639.696 -1.00592 -2.72635 0
M  V30 6813 H 639.243 -1.57627 -2.03744 0
M  V30 6814 H 639.201 -0.240174 -3.13481 0
M  V30 6815 N 642.974 0.416227 -1.52004 0
M  V30 6816 C 644.39 0.754319 -1.40649 0
M  V30 6817 C 644.59 1.95059 -0.505392 0
M  V30 6818 O 643.646 2.5248 0.0315057 0
M  V30 6819 C 644.959 1.0149 -2.83055 0
M  V30 6820 C 646.507 1.11805 -2.9235 0
M  V30 6821 C 646.982 1.41144 -4.35709 0
M  V30 6822 N 648.473 1.48024 -4.38911 0
M  V30 6823 C 649.208 1.72338 -5.46889 0
M  V30 6824 N 648.704 1.94303 -6.64995 0
M  V30 6825 N 650.497 1.74294 -5.34395 0
M  V30 6826 H 642.648 -0.371324 -2.09129 0
M  V30 6827 H 644.911 -0.103811 -0.942299 0
M  V30 6828 H 644.617 0.208345 -3.51082 0
M  V30 6829 H 644.491 1.93697 -3.23668 0
M  V30 6830 H 646.878 1.91521 -2.24508 0
M  V30 6831 H 646.959 0.17451 -2.55204 0
M  V30 6832 H 646.603 0.619484 -5.04108 0
M  V30 6833 H 646.533 2.36739 -4.70385 0
M  V30 6834 H 649.024 1.32868 -3.53772 0
M  V30 6835 H 649.337 2.12286 -7.43071 0
M  V30 6836 H 647.682 1.91582 -6.68073 0
M  V30 6837 H 650.873 1.56667 -4.41104 0
M  V30 6838 H 651.046 1.92904 -6.18621 0
M  V30 6839 N 644.452 1.42507 0.673017 0
M  V30 6840 C 645.692 1.44559 1.44507 0
M  V30 6841 C 646.056 0.0606206 1.91904 0
M  V30 6842 O 647.257 -0.044139 2.68764 0
M  V30 6843 C 645.528 2.44291 2.60877 0
M  V30 6844 S 647.087 2.65059 3.49699 0
M  V30 6845 H 643.905 0.51181 0.49353 0
M  V30 6846 H 646.507 1.79124 0.783256 0
M  V30 6847 H 645.211 3.43685 2.24297 0
M  V30 6848 H 644.742 2.11157 3.31928 0
M  V30 6849 H 646.757 1.93494 4.56919 0
M  V30 6850 N 645.93 -0.909495 1.28709 0
M  V30 6851 C 646.88 -1.9991 1.09636 0
M  V30 6852 C 647.864 -1.60889 0.01872 0
M  V30 6853 O 649.056 -1.75374 0.239338 0
M  V30 6854 C 646.185 -3.34675 0.764702 0
M  V30 6855 C 645.271 -3.80085 1.8814 0
M  V30 6856 N 645.662 -3.97824 3.12361 0
M  V30 6857 C 643.96 -4.09278 1.77221 0
M  V30 6858 C 644.661 -4.35928 3.85151 0
M  V30 6859 N 643.637 -4.44426 3.13028 0
M  V30 6860 H 647.439 -2.11681 2.03883 0
M  V30 6861 H 644.953 -1.09763 1.1969 0
M  V30 6862 H 646.95 -4.12426 0.609132 0
M  V30 6863 H 645.61 -3.24255 -0.169952 0
M  V30 6864 H 646.621 -3.83626 3.47925 0
M  V30 6865 H 643.298 -4.0747 0.909621 0
M  V30 6866 H 644.688 -4.57581 4.92006 0
M  V30 6867 N 647.408 -1.11026 -1.11852 0
M  V30 6868 C 648.371 -0.768006 -2.1595 0
M  V30 6869 C 649.371 0.210538 -1.59416 0
M  V30 6870 O 650.561 -0.0133978 -1.74195 0
M  V30 6871 C 647.693 -0.138678 -3.40618 0
M  V30 6872 H 648.886 -1.69012 -2.4774 0
M  V30 6873 H 646.439 -0.911578 -1.26964 0
M  V30 6874 H 647.174 0.793872 -3.14433 0
M  V30 6875 H 646.959 -0.843012 -3.8293 0
M  V30 6876 H 648.449 0.0848039 -4.17514 0
M  V30 6877 N 648.886 1.2938 -0.899927 0
M  V30 6878 C 649.849 2.25983 -0.382677 0
M  V30 6879 C 650.849 1.53366 0.483259 0
M  V30 6880 O 652.039 1.71798 0.28828 0
M  V30 6881 C 649.171 3.37878 0.452915 0
M  V30 6882 H 650.364 2.73252 -1.23586 0
M  V30 6883 H 647.917 1.40825 -0.678088 0
M  V30 6884 H 648.652 2.95949 1.32608 0
M  V30 6885 H 648.437 3.91742 -0.167562 0
M  V30 6886 H 649.927 4.09746 0.806107 0
M  V30 6887 N 650.364 0.662433 1.43002 0
M  V30 6888 C 651.312 -0.035345 2.32573 0
M  V30 6889 C 652.306 -0.803505 1.49131 0
M  V30 6890 O 653.512 -0.712865 1.65282 0
M  V30 6891 H 649.887 -0.0302194 0.751393 0
M  V30 6892 H 651.858 0.737686 2.89138 0
M  V30 6893 C 650.607 -0.981575 3.33557 0
M  V30 6894 H 649.93 -0.399914 3.97795 0
M  V30 6895 H 651.37 -1.43873 3.98844 0
M  V30 6896 C 649.829 -2.08204 2.64863 0
M  V30 6897 O 650.359 -3.16698 2.47113 0
M  V30 6898 N 648.565 -1.85022 2.24088 0
M  V30 6899 H 648.112 -0.967909 2.38724 0
M  V30 6900 H 648.07 -2.58845 1.78457 0
M  V30 6901 N 651.842 -1.52309 0.404946 0
M  V30 6902 C 653.253 -1.86585 -0.0655926 0
M  V30 6903 C 653.604 -1.3239 -1.44801 0
M  V30 6904 O 652.729 -0.6615 -2.06042 0
M  V30 6905 C 653.324 -3.38566 -0.125801 0
M  V30 6906 C 651.883 -3.72497 -0.540666 0
M  V30 6907 C 651.03 -2.75806 0.287487 0
M  V30 6908 H 653.981 -1.45995 0.622185 0
M  V30 6909 H 654.002 -3.68658 -0.941888 0
M  V30 6910 H 653.514 -3.77981 0.880473 0
M  V30 6911 H 651.615 -3.38659 -1.55373 0
M  V30 6912 H 651.728 -4.78234 -0.287956 0
M  V30 6913 H 650.092 -2.53474 -0.249561 0
M  V30 6914 H 650.875 -3.18059 1.29203 0
M  V30 6915 N 653.32 -0.135238 -1.57019 0
M  V30 6916 C 654.268 0.826099 -2.17436 0
M  V30 6917 C 655.262 1.26378 -1.12805 0
M  V30 6918 O 656.468 1.23363 -1.31079 0
M  V30 6919 H 652.843 0.284568 -0.696078 0
M  V30 6920 H 654.814 0.292212 -2.96966 0
M  V30 6921 C 653.563 2.05991 -2.80112 0
M  V30 6922 H 652.886 1.73209 -3.60331 0
M  V30 6923 H 654.326 2.71225 -3.25903 0
M  V30 6924 C 652.785 2.86027 -1.78017 0
M  V30 6925 O 653.315 3.81971 -1.24344 0
M  V30 6926 N 651.521 2.50332 -1.47588 0
M  V30 6927 H 651.068 1.72377 -1.91426 0
M  V30 6928 H 651.026 3.04177 -0.795228 0
M  V30 6929 N 654.798 1.5699 0.138552 0
M  V30 6930 C 656.046 1.83446 0.848053 0
M  V30 6931 C 656.367 0.71744 1.81322 0
M  V30 6932 O 655.637 -0.260228 1.94164 0
M  V30 6933 H 654.217 0.676792 0.316166 0
M  V30 6934 H 656.879 1.94462 0.130538 0
M  V30 6935 H 655.975 2.78677 1.40518 0
M  V30 6936 N 656.276 -0.40816 1.52223 0
M  V30 6937 C 657.692 -0.74685 1.41047 0
M  V30 6938 C 657.892 -1.94788 0.51573 0
M  V30 6939 O 656.948 -2.52494 -0.0181156 0
M  V30 6940 C 658.261 -0.999878 2.83589 0
M  V30 6941 C 659.809 -1.10253 2.92939 0
M  V30 6942 C 660.284 -1.38832 4.36451 0
M  V30 6943 N 661.775 -1.45694 4.3969 0
M  V30 6944 C 662.51 -1.69435 5.47795 0
M  V30 6945 N 662.006 -1.90774 6.66016 0
M  V30 6946 N 663.799 -1.71458 5.35312 0
M  V30 6947 H 655.95 0.382409 2.08929 0
M  V30 6948 H 658.213 0.108807 0.941735 0
M  V30 6949 H 657.919 -0.189723 3.51188 0
M  V30 6950 H 657.793 -1.91978 3.24691 0
M  V30 6951 H 660.18 -1.90328 2.2552 0
M  V30 6952 H 660.261 -0.160973 2.55293 0
M  V30 6953 H 659.905 -0.592741 5.04429 0
M  V30 6954 H 659.835 -2.34241 4.71634 0
M  V30 6955 H 662.326 -1.3099 3.54472 0
M  V30 6956 H 662.639 -2.08342 7.44186 0
M  V30 6957 H 660.984 -1.88037 6.69079 0
M  V30 6958 H 664.175 -1.54326 4.41929 0
M  V30 6959 H 664.348 -1.89621 6.19635 0
M  V30 6960 N 657.755 -1.42862 -0.66545 0
M  V30 6961 C 658.985 -1.47032 -1.45138 0
M  V30 6962 C 659.393 -0.0829977 -1.89018 0
M  V30 6963 O 658.736 0.914551 -1.59316 0
M  V30 6964 C 658.798 -2.34302 -2.72659 0
M  V30 6965 C 658.462 -3.82034 -2.50796 0
M  V30 6966 C 659.459 -4.73453 -2.14799 0
M  V30 6967 C 657.144 -4.26397 -2.655 0
M  V30 6968 C 659.138 -6.07228 -1.93785 0
M  V30 6969 C 656.825 -5.6023 -2.44103 0
M  V30 6970 C 657.823 -6.50462 -2.08299 0
M  V30 6971 O 657.511 -7.8182 -1.87116 0
M  V30 6972 H 657.243 -0.501969 -0.452772 0
M  V30 6973 H 659.797 -1.88137 -0.82423 0
M  V30 6974 H 658.027 -1.88063 -3.37889 0
M  V30 6975 H 659.716 -2.29818 -3.34572 0
M  V30 6976 H 660.482 -4.4046 -2.03026 0
M  V30 6977 H 656.361 -3.56448 -2.92345 0
M  V30 6978 H 659.905 -6.7762 -1.65763 0
M  V30 6979 H 655.802 -5.92793 -2.55475 0
M  V30 6980 H 656.57 -7.93274 -2.01639 0
M  V30 6981 N 659.233 0.902656 -1.29189 0
M  V30 6982 C 660.463 1.68394 -1.19695 0
M  V30 6983 C 660.871 1.87602 0.245384 0
M  V30 6984 O 660.214 1.41084 1.17648 0
M  V30 6985 C 660.276 3.09094 -1.83578 0
M  V30 6986 C 659.94 3.1313 -3.32864 0
M  V30 6987 C 660.937 2.93497 -4.29134 0
M  V30 6988 C 658.622 3.3529 -3.74013 0
M  V30 6989 C 660.616 2.95953 -5.64527 0
M  V30 6990 C 658.303 3.37377 -5.09529 0
M  V30 6991 C 659.301 3.1773 -6.04596 0
M  V30 6992 O 658.989 3.196 -7.37639 0
M  V30 6993 H 658.721 0.532815 -0.416034 0
M  V30 6994 H 661.275 1.1374 -1.71033 0
M  V30 6995 H 659.505 3.65338 -1.26747 0
M  V30 6996 H 661.194 3.69297 -1.68447 0
M  V30 6997 H 661.96 2.76192 -3.98677 0
M  V30 6998 H 657.839 3.49623 -3.00474 0
M  V30 6999 H 661.383 2.80536 -6.38706 0
M  V30 7000 H 657.28 3.54213 -5.39633 0
M  V30 7001 H 658.048 3.35887 -7.46406 0
M  V30 7002 N 660.711 1.11618 1.11262 0
M  V30 7003 C 661.957 0.877377 1.83504 0
M  V30 7004 C 662.312 -0.590606 1.83111 0
M  V30 7005 O 661.605 -1.43057 1.27456 0
M  V30 7006 C 661.799 1.37529 3.2988 0
M  V30 7007 C 661.628 2.89014 3.4453 0
M  V30 7008 C 660.398 3.57157 3.57445 0
M  V30 7009 C 662.596 3.8706 3.38658 0
M  V30 7010 N 660.578 4.96842 3.60585 0
M  V30 7011 C 661.949 5.12825 3.4844 0
M  V30 7012 C 664.004 3.79593 3.22201 0
M  V30 7013 C 662.707 6.32002 3.43462 0
M  V30 7014 C 664.733 4.98282 3.18542 0
M  V30 7015 C 664.095 6.22901 3.28897 0
M  V30 7016 H 660.194 0.37422 0.686646 0
M  V30 7017 H 662.778 1.42087 1.33114 0
M  V30 7018 H 660.949 0.85895 3.78783 0
M  V30 7019 H 662.681 1.07944 3.90039 0
M  V30 7020 H 659.436 3.07628 3.60086 0
M  V30 7021 H 659.86 5.69674 3.65788 0
M  V30 7022 H 664.502 2.84149 3.1308 0
M  V30 7023 H 662.22 7.27721 3.51352 0
M  V30 7024 H 665.806 4.94226 3.06972 0
M  V30 7025 H 664.686 7.13202 3.26056 0
M  V30 7026 N 662.189 -1.289 0.906776 0
M  V30 7027 C 663.437 -1.94883 0.535266 0
M  V30 7028 C 663.758 -1.71784 -0.922791 0
M  V30 7029 O 663.028 -1.05359 -1.65156 0
M  V30 7030 H 661.608 -0.721109 0.194962 0
M  V30 7031 H 664.27 -1.57018 1.15461 0
M  V30 7032 H 663.366 -3.03591 0.723821 0
M  V30 7033 N 663.667 -0.670007 -1.42649 0
M  V30 7034 C 664.915 -0.18991 -2.01206 0
M  V30 7035 C 665.236 1.20617 -1.53221 0
M  V30 7036 O 664.506 1.80898 -0.751856 0
M  V30 7037 H 663.086 -0.0672189 -0.743969 0
M  V30 7038 H 665.748 -0.865442 -1.74631 0
M  V30 7039 H 664.844 -0.187481 -3.11536 0
M  V30 7040 N 665.145 1.52092 -0.413018 0
M  V30 7041 C 666.077 2.24819 0.445994 0
M  V30 7042 C 667.09 1.27925 1.00692 0
M  V30 7043 O 668.279 1.53845 0.905204 0
M  V30 7044 C 665.379 2.96951 1.6332 0
M  V30 7045 C 664.552 4.20746 1.19548 0
M  V30 7046 C 663.611 4.75668 2.25003 0
M  V30 7047 O 662.637 5.38148 1.85434 0
M  V30 7048 N 663.839 4.57579 3.57214 0
M  V30 7049 H 666.604 2.99176 -0.177209 0
M  V30 7050 H 664.165 1.60102 -0.240601 0
M  V30 7051 H 666.157 3.30586 2.33441 0
M  V30 7052 H 664.727 2.25756 2.16225 0
M  V30 7053 H 663.947 3.92881 0.32224 0
M  V30 7054 H 665.235 5.01132 0.880033 0
M  V30 7055 H 664.633 4.07758 3.92109 0
M  V30 7056 H 663.19 4.95642 4.23299 0
M  V30 7057 N 666.623 0.143563 1.56945 0
M  V30 7058 C 667.853 -0.514699 2.00086 0
M  V30 7059 C 668.261 -1.59184 1.0226 0
M  V30 7060 O 667.604 -1.83697 0.0110514 0
M  V30 7061 C 667.666 -1.17778 3.39659 0
M  V30 7062 C 667.33 -0.245657 4.56339 0
M  V30 7063 C 668.327 0.525343 5.17239 0
M  V30 7064 C 666.012 -0.149564 5.02077 0
M  V30 7065 C 668.006 1.37992 6.22284 0
M  V30 7066 C 665.693 0.708621 6.06978 0
M  V30 7067 C 666.691 1.47197 6.6695 0
M  V30 7068 O 666.379 2.31586 7.6982 0
M  V30 7069 H 666.111 -0.138789 0.661599 0
M  V30 7070 H 668.665 0.234098 2.04062 0
M  V30 7071 H 666.895 -1.97415 3.32512 0
M  V30 7072 H 668.584 -1.73542 3.6693 0
M  V30 7073 H 669.35 0.461118 4.82803 0
M  V30 7074 H 665.229 -0.733457 4.55128 0
M  V30 7075 H 668.773 1.97621 6.69023 0
M  V30 7076 H 664.67 0.77415 6.40841 0
M  V30 7077 H 665.438 2.24796 7.87025 0
M  V30 7078 N 668.101 -1.57061 -0.130224 0
M  V30 7079 C 669.329 -1.88432 -0.854456 0
M  V30 7080 C 669.744 -0.733608 -1.73964 0
M  V30 7081 O 669.101 0.296029 -1.80083 0
M  V30 7082 C 669.152 -3.1918 -1.69724 0
M  V30 7083 O 668.873 -4.2982 -0.847705 0
M  V30 7084 C 670.374 -3.6418 -2.5276 0
M  V30 7085 H 667.594 -0.624193 -0.246221 0
M  V30 7086 H 670.138 -2.04159 -0.11798 0
M  V30 7087 H 668.293 -3.05156 -2.3866 0
M  V30 7088 H 668.707 -5.04689 -1.42792 0
M  V30 7089 H 670.181 -4.58457 -3.07443 0
M  V30 7090 H 670.658 -2.90285 -3.29592 0
M  V30 7091 H 671.264 -3.80954 -1.89087 0
M  V30 7092 N 669.579 0.400081 -1.52437 0
M  V30 7093 C 670.825 1.14456 -1.68141 0
M  V30 7094 C 671.18 1.87965 -0.410722 0
M  V30 7095 O 670.473 1.82121 0.595195 0
M  V30 7096 C 670.667 2.15914 -2.84808 0
M  V30 7097 C 670.496 1.5237 -4.231 0
M  V30 7098 C 669.266 1.29252 -4.8849 0
M  V30 7099 C 671.464 0.979722 -5.04882 0
M  V30 7100 N 669.446 0.616955 -6.10792 0
M  V30 7101 C 670.817 0.43159 -6.18496 0
M  V30 7102 C 672.872 0.875059 -4.9015 0
M  V30 7103 C 671.575 -0.210958 -7.18991 0
M  V30 7104 C 673.601 0.246351 -5.90887 0
M  V30 7105 C 672.963 -0.291062 -7.03798 0
M  V30 7106 H 669.062 0.405181 -0.668844 0
M  V30 7107 H 671.646 0.435655 -1.89763 0
M  V30 7108 H 669.817 2.84154 -2.64785 0
M  V30 7109 H 671.549 2.8279 -2.89503 0
M  V30 7110 H 668.304 1.56451 -4.47012 0
M  V30 7111 H 668.728 0.295536 -6.76355 0
M  V30 7112 H 673.37 1.27636 -4.03074 0
M  V30 7113 H 671.088 -0.6243 -8.05685 0
M  V30 7114 H 674.674 0.166765 -5.81561 0
M  V30 7115 H 673.554 -0.76988 -7.80412 0
M  V30 7116 N 671.057 1.43213 0.657864 0
M  V30 7117 C 672.334 1.35063 1.41483 0
M  V30 7118 C 672.714 -0.0038314 2.111 0
M  V30 7119 O 672.062 -1.02018 2.04462 0
M  V30 7120 C 672.272 2.53061 2.40335 0
M  V30 7121 C 673.62 2.9594 3.04474 0
M  V30 7122 O 674.644 2.53074 2.50663 0
M  V30 7123 O 673.503 3.70184 4.02027 0
M  V30 7124 H 670.597 0.533517 0.631893 0
M  V30 7125 H 673.143 1.55253 0.685162 0
M  V30 7126 H 671.915 3.43283 1.87809 0
M  V30 7127 H 671.538 2.34945 3.20759 0
M  V30 7128 N 672.536 -0.895792 1.29666 0
M  V30 7129 C 673.469 -2.00238 1.09453 0
M  V30 7130 C 674.447 -1.62599 0.00527044 0
M  V30 7131 O 675.631 -1.87847 0.156729 0
M  V30 7132 C 672.758 -3.32066 0.667054 0
M  V30 7133 C 671.804 -3.88691 1.7556 0
M  V30 7134 S 672.637 -4.17317 3.35569 0
M  V30 7135 C 673.793 -5.52181 2.94698 0
M  V30 7136 H 674.026 -2.17076 2.03138 0
M  V30 7137 H 671.559 -1.04287 1.13858 0
M  V30 7138 H 673.517 -4.08272 0.427136 0
M  V30 7139 H 672.178 -3.13101 -0.250256 0
M  V30 7140 H 671.371 -4.83918 1.40853 0
M  V30 7141 H 670.973 -3.19187 1.94924 0
M  V30 7142 H 673.265 -6.3281 2.41986 0
M  V30 7143 H 674.208 -5.91817 3.88791 0
M  V30 7144 H 674.616 -5.14225 2.32879 0
M  V30 7145 N 674.014 -1.12206 -1.10668 0
M  V30 7146 C 674.977 -0.790867 -2.15123 0
M  V30 7147 C 675.977 0.193618 -1.5963 0
M  V30 7148 O 677.167 -0.0318728 -1.74171 0
M  V30 7149 C 674.299 -0.174797 -3.40452 0
M  V30 7150 H 675.492 -1.7163 -2.45933 0
M  V30 7151 H 673.045 -0.924993 -1.2599 0
M  V30 7152 H 673.78 0.760478 -3.15257 0
M  V30 7153 H 673.565 -0.88358 -3.82015 0
M  V30 7154 H 675.055 0.0405162 -4.1758 0
M  V30 7155 N 675.492 1.28418 -0.913599 0
M  V30 7156 C 676.439 2.27301 -0.400373 0
M  V30 7157 C 677.409 1.57582 0.52509 0
M  V30 7158 O 678.594 1.85482 0.447318 0
M  V30 7159 C 675.734 3.43284 0.35361 0
M  V30 7160 C 674.847 4.27752 -0.604341 0
M  V30 7161 C 673.982 5.30934 0.168075 0
M  V30 7162 C 673.021 6.07065 -0.783499 0
M  V30 7163 N 672.158 7.02086 -0.0446112 0
M  V30 7164 H 676.998 2.70579 -1.24865 0
M  V30 7165 H 674.535 1.33067 -0.627028 0
M  V30 7166 H 676.493 4.09322 0.806945 0
M  V30 7167 H 675.123 3.00997 1.16623 0
M  V30 7168 H 674.175 3.61759 -1.17621 0
M  V30 7169 H 675.487 4.80682 -1.33216 0
M  V30 7170 H 674.641 6.02855 0.681979 0
M  V30 7171 H 673.38 4.78771 0.928947 0
M  V30 7172 H 672.385 5.33995 -1.30878 0
M  V30 7173 H 673.61 6.61317 -1.54392 0
M  V30 7174 H 671.556 6.52273 0.698272 0
M  V30 7175 H 671.473 7.52637 -0.712258 0
M  V30 7176 H 672.741 7.78205 0.449102 0
M  V30 7177 N 676.97 0.677563 1.42291 0
M  V30 7178 C 677.92 -0.0218641 2.2799 0
M  V30 7179 C 678.904 -0.770816 1.41235 0
M  V30 7180 O 680.096 -0.649273 1.64662 0
M  V30 7181 C 677.225 -0.970449 3.29298 0
M  V30 7182 C 676.311 -0.218695 4.23536 0
M  V30 7183 N 676.702 0.777908 4.99782 0
M  V30 7184 C 675 -0.456748 4.43655 0
M  V30 7185 C 675.701 1.22632 5.68627 0
M  V30 7186 N 674.677 0.55573 5.40752 0
M  V30 7187 H 678.479 0.742516 2.84366 0
M  V30 7188 H 675.993 0.506862 1.54288 0
M  V30 7189 H 677.99 -1.48652 3.89497 0
M  V30 7190 H 676.65 -1.73463 2.74483 0
M  V30 7191 H 677.661 1.15754 5.04798 0
M  V30 7192 H 674.338 -1.20021 3.99877 0
M  V30 7193 H 675.728 2.05231 6.39789 0
M  V30 7194 N 678.448 -1.51871 0.421078 0
M  V30 7195 C 679.696 -2.01539 -0.150492 0
M  V30 7196 C 680.017 -1.30803 -1.44623 0
M  V30 7197 O 679.287 -0.437568 -1.90951 0
M  V30 7198 H 677.867 -0.744698 -0.0586041 0
M  V30 7199 H 680.529 -1.8668 0.560059 0
M  V30 7200 H 679.625 -3.10264 -0.338068 0
M  V30 7201 N 679.926 -0.151884 -1.56866 0
M  V30 7202 C 681.154 0.504813 -2.00647 0
M  V30 7203 C 681.569 1.58098 -1.03201 0
M  V30 7204 O 680.926 1.82476 -0.0297814 0
M  V30 7205 C 680.977 1.10099 -3.44326 0
M  V30 7206 O 680.698 0.0678021 -4.38048 0
M  V30 7207 C 682.199 1.83782 -4.03409 0
M  V30 7208 H 679.419 0.130989 -0.65809 0
M  V30 7209 H 681.963 -0.247903 -2.02992 0
M  V30 7210 H 680.118 1.8043 -3.42817 0
M  V30 7211 H 680.532 0.505237 -5.22061 0
M  V30 7212 H 682.006 2.2078 -5.05925 0
M  V30 7213 H 682.483 2.72557 -3.44397 0
M  V30 7214 H 683.089 1.18138 -4.08563 0
M  V30 7215 N 681.404 1.57128 0.121893 0
M  V30 7216 C 682.681 1.75664 0.860327 0
M  V30 7217 C 683.061 0.726585 1.98202 0
M  V30 7218 O 682.409 -0.24999 2.27128 0
M  V30 7219 C 682.619 3.20571 1.37968 0
M  V30 7220 C 683.967 3.82988 1.83317 0
M  V30 7221 O 684.991 3.24156 1.47654 0
M  V30 7222 O 683.85 4.86393 2.49168 0
M  V30 7223 H 680.944 0.719153 0.408348 0
M  V30 7224 H 683.49 1.6937 0.105859 0
M  V30 7225 H 682.262 3.87056 0.57477 0
M  V30 7226 H 681.885 3.31392 2.19694 0
M  V30 7227 N 682.882 -0.391992 1.52647 0
M  V30 7228 C 684.159 -1.15136 1.58123 0
M  V30 7229 C 684.539 -2.07786 0.372597 0
M  V30 7230 O 683.887 -2.19374 -0.639304 0
M  V30 7231 C 684.097 -1.91367 2.91856 0
M  V30 7232 C 685.445 -2.46833 3.45483 0
M  V30 7233 O 686.469 -2.01527 2.9371 0
M  V30 7234 O 685.328 -3.29587 4.3593 0
M  V30 7235 H 682.422 -0.526649 0.637629 0
M  V30 7236 H 684.968 -0.397386 1.64982 0
M  V30 7237 H 683.74 -1.23597 3.71268 0
M  V30 7238 H 683.363 -2.73732 2.88369 0
M  V30 7239 N 684.36 -1.4356 -0.65026 0
M  V30 7240 C 685.608 -1.45046 -1.40734 0
M  V30 7241 C 685.929 -0.0769822 -1.94848 0
M  V30 7242 O 685.199 0.888098 -1.74613 0
M  V30 7243 H 683.779 -0.534034 -0.522318 0
M  V30 7244 H 686.441 -1.79186 -0.766703 0
M  V30 7245 H 685.537 -2.16476 -2.24822 0
M  V30 7246 N 685.838 0.888903 -1.30139 0
M  V30 7247 C 687.084 1.6428 -1.18912 0
M  V30 7248 C 687.417 1.92499 0.256477 0
M  V30 7249 O 686.692 1.54312 1.18397 0
M  V30 7250 C 686.975 2.9851 -2.01405 0
M  V30 7251 C 686.828 2.77288 -3.54163 0
M  V30 7252 C 688.147 3.99383 -1.84882 0
M  V30 7253 H 685.266 0.596148 -0.433333 0
M  V30 7254 H 687.908 1.0289 -1.5973 0
M  V30 7255 H 686.058 3.50907 -1.66722 0
M  V30 7256 H 687.73 2.31709 -3.98884 0
M  V30 7257 H 685.973 2.11867 -3.78543 0
M  V30 7258 H 686.644 3.72717 -4.07168 0
M  V30 7259 H 689.12 3.56132 -2.15196 0
M  V30 7260 H 687.996 4.91222 -2.44934 0
M  V30 7261 H 688.257 4.34674 -0.806902 0
M  V30 7262 N 687.317 1.12792 1.10072 0
M  V30 7263 C 688.563 0.886857 1.82381 0
M  V30 7264 C 688.896 -0.58576 1.85155 0
M  V30 7265 O 688.171 -1.43317 1.31493 0
M  V30 7266 C 688.454 1.46703 3.28862 0
M  V30 7267 C 688.307 3.00829 3.34398 0
M  V30 7268 C 689.626 1.12971 4.25353 0
M  V30 7269 H 686.745 0.32362 0.662148 0
M  V30 7270 H 689.387 1.39513 1.28982 0
M  V30 7271 H 687.537 1.03476 3.74466 0
M  V30 7272 H 689.209 3.52764 2.97247 0
M  V30 7273 H 687.452 3.36164 2.74183 0
M  V30 7274 H 688.123 3.36519 4.3756 0
M  V30 7275 H 690.599 1.50313 3.88001 0
M  V30 7276 H 689.475 1.56223 5.26199 0
M  V30 7277 H 689.736 0.0424452 4.4208 0
M  V30 7278 N 688.795 -1.27931 0.920396 0
M  V30 7279 C 690.041 -1.95329 0.5673 0
M  V30 7280 C 690.396 -1.7107 -0.880506 0
M  V30 7281 O 689.689 -1.02497 -1.61879 0
M  V30 7282 C 689.883 -3.47853 0.820558 0
M  V30 7283 C 689.712 -3.86941 2.29143 0
M  V30 7284 C 688.482 -4.10766 2.94278 0
M  V30 7285 C 690.68 -3.97091 3.26838 0
M  V30 7286 N 688.662 -4.36578 4.31594 0
M  V30 7287 C 690.033 -4.27194 4.49339 0
M  V30 7288 C 692.088 -3.79639 3.22147 0
M  V30 7289 C 690.791 -4.41662 5.67739 0
M  V30 7290 C 692.817 -3.95328 4.39852 0
M  V30 7291 C 692.179 -4.2581 5.61128 0
M  V30 7292 H 688.278 -0.73836 0.257583 0
M  V30 7293 H 690.862 -1.54447 1.1855 0
M  V30 7294 H 689.033 -3.87709 0.231571 0
M  V30 7295 H 690.765 -4.024 0.430824 0
M  V30 7296 H 687.52 -4.05318 2.44979 0
M  V30 7297 H 687.944 -4.53555 5.0261 0
M  V30 7298 H 692.586 -3.55119 2.29457 0
M  V30 7299 H 690.304 -4.65011 6.60901 0
M  V30 7300 H 693.89 -3.83253 4.37731 0
M  V30 7301 H 692.77 -4.37691 6.50689 0
M  V30 7302 N 690.273 -0.685099 -1.4193 0
M  V30 7303 C 691.206 0.0371639 -2.2817 0
M  V30 7304 C 692.184 0.798436 -1.41647 0
M  V30 7305 O 693.368 0.791428 -1.71081 0
M  V30 7306 C 690.495 1.05993 -3.21688 0
M  V30 7307 C 689.541 0.393043 -4.24685 0
M  V30 7308 S 690.374 -0.856921 -5.28599 0
M  V30 7309 C 691.53 0.164508 -6.25684 0
M  V30 7310 H 691.763 -0.694305 -2.89079 0
M  V30 7311 H 689.296 -0.474999 -1.46912 0
M  V30 7312 H 691.254 1.64489 -3.76103 0
M  V30 7313 H 689.915 1.7639 -2.59895 0
M  V30 7314 H 689.108 1.16513 -4.90348 0
M  V30 7315 H 688.71 -0.118589 -3.73812 0
M  V30 7316 H 691.002 1.02106 -6.69762 0
M  V30 7317 H 691.945 -0.457917 -7.06618 0
M  V30 7318 H 692.353 0.514596 -5.6215 0
M  V30 7319 N 691.751 1.51645 -0.429126 0
M  V30 7320 C 692.699 2.29119 0.400921 0
M  V30 7321 C 693.693 1.34628 1.02819 0
M  V30 7322 O 694.899 1.52004 0.964098 0
M  V30 7323 H 691.274 0.737273 0.148095 0
M  V30 7324 H 693.245 2.97144 -0.273457 0
M  V30 7325 C 691.994 3.13953 1.49429 0
M  V30 7326 H 691.317 3.86544 1.02097 0
M  V30 7327 H 692.757 3.71232 2.04849 0
M  V30 7328 C 691.216 2.28796 2.47293 0
M  V30 7329 O 691.746 1.94193 3.51642 0
M  V30 7330 N 689.952 1.92177 2.17982 0
M  V30 7331 H 689.499 2.20517 1.33154 0
M  V30 7332 H 689.457 1.35497 2.83704 0
M  V30 7333 N 693.229 0.160201 1.56784 0
M  V30 7334 C 694.475 -0.481855 1.9761 0
M  V30 7335 C 694.83 -1.61605 1.04411 0
M  V30 7336 O 694.123 -1.91426 0.0816402 0
M  V30 7337 C 694.317 -1.02259 3.42459 0
M  V30 7338 C 694.146 0.0576781 4.49663 0
M  V30 7339 C 692.916 0.503585 5.02784 0
M  V30 7340 C 695.114 0.854013 5.0716 0
M  V30 7341 N 693.096 1.56532 5.93608 0
M  V30 7342 C 694.467 1.76593 5.94319 0
M  V30 7343 C 696.522 0.900333 4.89692 0
M  V30 7344 C 695.225 2.72023 6.6588 0
M  V30 7345 C 697.251 1.84252 5.61965 0
M  V30 7346 C 696.613 2.74194 6.48843 0
M  V30 7347 H 692.712 -0.144748 0.768487 0
M  V30 7348 H 695.296 0.257853 1.92985 0
M  V30 7349 H 693.467 -1.73186 3.47651 0
M  V30 7350 H 695.199 -1.63235 3.70319 0
M  V30 7351 H 691.954 0.103361 4.73487 0
M  V30 7352 H 692.378 2.09634 6.43726 0
M  V30 7353 H 697.02 0.219023 4.22232 0
M  V30 7354 H 694.738 3.41147 7.3256 0
M  V30 7355 H 698.324 1.88433 5.5044 0
M  V30 7356 H 697.204 3.45912 7.03786 0
M  V30 7357 N 694.707 -1.5719 -0.113559 0
M  V30 7358 C 695.654 -2.00736 -1.13901 0
M  V30 7359 C 696.624 -0.88044 -1.40846 0
M  V30 7360 O 697.809 -1.14507 -1.5262 0
M  V30 7361 C 694.949 -2.42132 -2.45899 0
M  V30 7362 C 694.062 -3.68264 -2.25844 0
M  V30 7363 C 693.197 -3.98617 -3.5111 0
M  V30 7364 C 692.236 -5.17915 -3.26236 0
M  V30 7365 N 691.373 -5.44111 -4.4372 0
M  V30 7366 H 696.213 -2.88128 -0.760677 0
M  V30 7367 H 693.75 -1.42523 -0.364099 0
M  V30 7368 H 695.708 -2.6417 -3.22908 0
M  V30 7369 H 694.338 -1.57775 -2.81615 0
M  V30 7370 H 693.39 -3.53809 -1.39726 0
M  V30 7371 H 694.702 -4.55425 -2.03444 0
M  V30 7372 H 693.856 -4.21333 -4.36536 0
M  V30 7373 H 692.595 -3.09942 -3.76546 0
M  V30 7374 H 691.6 -4.95038 -2.39202 0
M  V30 7375 H 692.825 -6.08172 -3.02165 0
M  V30 7376 H 690.771 -4.58394 -4.69266 0
M  V30 7377 H 690.688 -6.25606 -4.24444 0
M  V30 7378 H 691.956 -5.71351 -5.30263 0
M  V30 7379 N 696.185 0.383891 -1.52853 0
M  V30 7380 C 697.433 1.12619 -1.67814 0
M  V30 7381 C 697.754 1.90354 -0.423141 0
M  V30 7382 O 697.024 1.87649 0.562554 0
M  V30 7383 H 695.604 0.418738 -0.618601 0
M  V30 7384 H 698.266 0.43495 -1.89985 0
M  V30 7385 H 697.362 1.82624 -2.5309 0
M  V30 7386 N 697.663 1.43903 0.642637 0
M  V30 7387 C 698.888 1.49758 1.43483 0
M  V30 7388 C 699.313 0.119911 1.87717 0
M  V30 7389 O 698.671 -0.888558 1.58033 0
M  V30 7390 C 698.719 2.45744 2.63898 0
M  V30 7391 O 697.823 1.95101 3.63331 0
M  V30 7392 H 697.164 0.506138 0.429791 0
M  V30 7393 H 699.694 1.88923 0.785438 0
M  V30 7394 H 699.704 2.63399 3.11584 0
M  V30 7395 H 698.379 3.45818 2.31046 0
M  V30 7396 H 696.956 1.87158 3.22531 0
M  V30 7397 N 699.141 -0.881989 1.30609 0
M  V30 7398 C 700.387 -1.63649 1.20791 0
M  V30 7399 C 700.742 -1.90966 -0.234437 0
M  V30 7400 O 700.035 -1.52163 -1.16434 0
M  V30 7401 C 700.229 -2.97999 1.97311 0
M  V30 7402 C 700.058 -2.83798 3.48839 0
M  V30 7403 C 698.828 -2.83622 4.18195 0
M  V30 7404 C 701.026 -2.59529 4.44015 0
M  V30 7405 N 699.008 -2.60344 5.55962 0
M  V30 7406 C 700.379 -2.45401 5.69366 0
M  V30 7407 C 702.434 -2.44777 4.33576 0
M  V30 7408 C 701.137 -2.18023 6.85462 0
M  V30 7409 C 703.163 -2.18785 5.49443 0
M  V30 7410 C 702.525 -2.05436 6.73777 0
M  V30 7411 H 698.624 -0.603687 0.497077 0
M  V30 7412 H 701.208 -1.03908 1.64655 0
M  V30 7413 H 699.379 -3.55767 1.55834 0
M  V30 7414 H 701.111 -3.6266 1.79611 0
M  V30 7415 H 697.866 -2.95562 3.70054 0
M  V30 7416 H 698.29 -2.51709 6.28468 0
M  V30 7417 H 702.932 -2.53831 3.38126 0
M  V30 7418 H 700.65 -2.07707 7.8095 0
M  V30 7419 H 704.236 -2.08188 5.43276 0
M  V30 7420 H 703.116 -1.85605 7.61919 0
M  V30 7421 N 700.619 -1.13374 -1.09472 0
M  V30 7422 C 701.849 -0.917019 -1.85133 0
M  V30 7423 C 702.257 0.537568 -1.81402 0
M  V30 7424 O 701.6 1.38385 -1.20811 0
M  V30 7425 C 701.662 -1.32646 -3.34134 0
M  V30 7426 C 701.326 -2.79437 -3.61613 0
M  V30 7427 C 702.323 -3.77596 -3.57375 0
M  V30 7428 C 700.008 -3.16586 -3.89973 0
M  V30 7429 C 702.002 -5.10916 -3.81108 0
M  V30 7430 C 699.689 -4.50085 -4.13361 0
M  V30 7431 C 700.687 -5.47059 -4.0892 0
M  V30 7432 O 700.375 -6.78149 -4.31705 0
M  V30 7433 H 700.107 -0.326997 -0.591649 0
M  V30 7434 H 702.661 -1.51002 -1.39239 0
M  V30 7435 H 700.891 -0.676719 -3.80733 0
M  V30 7436 H 702.58 -1.08229 -3.91205 0
M  V30 7437 H 703.346 -3.50242 -3.35493 0
M  V30 7438 H 699.225 -2.41707 -3.92554 0
M  V30 7439 H 702.769 -5.86597 -3.77558 0
M  V30 7440 H 698.666 -4.77163 -4.34724 0
M  V30 7441 H 699.434 -6.84244 -4.49168 0
M  V30 7442 N 702.098 1.27442 -0.927168 0
M  V30 7443 C 703.323 1.99036 -0.583042 0
M  V30 7444 C 703.748 1.68711 0.83176 0
M  V30 7445 O 703.106 0.927081 1.55804 0
M  V30 7446 C 703.154 3.51271 -0.814925 0
M  V30 7447 O 702.258 4.12226 0.119742 0
M  V30 7448 H 701.599 0.624883 -0.224538 0
M  V30 7449 H 704.129 1.62263 -1.24628 0
M  V30 7450 H 704.139 4.01411 -0.730282 0
M  V30 7451 H 702.814 3.72676 -1.84623 0
M  V30 7452 H 701.391 3.72897 -0.0147688 0
M  V30 7453 N 703.576 0.692616 1.41565 0
M  V30 7454 C 704.509 -0.025063 2.28186 0
M  V30 7455 C 705.487 -0.790912 1.42068 0
M  V30 7456 O 706.671 -0.782344 1.71498 0
M  V30 7457 C 703.798 -1.04285 3.22246 0
M  V30 7458 C 702.844 -0.370515 4.24888 0
M  V30 7459 S 703.677 0.884942 5.28137 0
M  V30 7460 C 704.833 -0.131324 6.25762 0
M  V30 7461 H 705.066 0.709626 2.88707 0
M  V30 7462 H 702.599 0.482783 1.46658 0
M  V30 7463 H 704.557 -1.62493 3.7697 0
M  V30 7464 H 703.218 -1.7501 2.60827 0
M  V30 7465 H 702.411 -1.13911 4.90959 0
M  V30 7466 H 702.013 0.138411 3.73744 0
M  V30 7467 H 704.305 -0.985527 6.70294 0
M  V30 7468 H 705.248 0.495384 7.06365 0
M  V30 7469 H 705.656 -0.484777 5.62415 0
M  V30 7470 N 705.054 -1.51416 0.437162 0
M  V30 7471 C 706.47 -1.59349 0.0894459 0
M  V30 7472 C 706.67 -1.44809 -1.40116 0
M  V30 7473 O 705.726 -1.28924 -2.17106 0
M  V30 7474 C 707.039 -2.9446 0.609398 0
M  V30 7475 C 708.587 -3.07769 0.569824 0
M  V30 7476 C 709.062 -4.45404 1.06675 0
M  V30 7477 N 710.553 -4.51723 1.02473 0
M  V30 7478 C 711.288 -5.56544 1.3801 0
M  V30 7479 N 710.784 -6.68784 1.80831 0
M  V30 7480 N 712.577 -5.46901 1.29828 0
M  V30 7481 H 704.728 -1.59112 1.40703 0
M  V30 7482 H 706.991 -0.750031 0.579791 0
M  V30 7483 H 706.697 -3.1047 1.65231 0
M  V30 7484 H 706.571 -3.77184 0.0342236 0
M  V30 7485 H 708.958 -2.91428 -0.464107 0
M  V30 7486 H 709.039 -2.26885 1.1814 0
M  V30 7487 H 708.683 -4.62492 2.09914 0
M  V30 7488 H 708.613 -5.24827 0.431712 0
M  V30 7489 H 711.104 -3.71165 0.710258 0
M  V30 7490 H 711.417 -7.44787 2.06185 0
M  V30 7491 H 709.762 -6.69992 1.84757 0
M  V30 7492 H 712.953 -4.581 0.962397 0
M  V30 7493 H 713.126 -6.2848 1.57851 0
M  V30 7494 N 706.532 -0.168513 -1.56696 0
M  V30 7495 C 707.479 0.762875 -2.17828 0
M  V30 7496 C 708.449 1.22892 -1.11745 0
M  V30 7497 O 709.634 1.29759 -1.39883 0
M  V30 7498 C 706.774 1.9879 -2.82093 0
M  V30 7499 C 705.887 1.56568 -4.02629 0
M  V30 7500 C 705.022 2.74416 -4.54829 0
M  V30 7501 C 704.061 2.28671 -5.67782 0
M  V30 7502 N 703.198 3.39602 -6.14504 0
M  V30 7503 H 708.038 0.23479 -2.97074 0
M  V30 7504 H 705.575 0.104163 -1.46731 0
M  V30 7505 H 707.533 2.70636 -3.17509 0
M  V30 7506 H 706.163 2.48973 -2.05456 0
M  V30 7507 H 705.215 0.744067 -3.73052 0
M  V30 7508 H 706.527 1.18988 -4.844 0
M  V30 7509 H 705.681 3.54423 -4.92412 0
M  V30 7510 H 704.42 3.15254 -3.7211 0
M  V30 7511 H 703.425 1.4711 -5.29753 0
M  V30 7512 H 704.65 1.88894 -6.52301 0
M  V30 7513 H 702.596 3.80021 -5.34715 0
M  V30 7514 H 702.513 3.06105 -6.91257 0
M  V30 7515 H 703.781 4.19902 -6.56737 0
M  V30 7516 N 708.01 1.57248 0.105221 0
M  V30 7517 C 708.943 1.96567 1.15916 0
M  V30 7518 C 709.921 0.837355 1.39381 0
M  V30 7519 O 711.105 1.09676 1.53308 0
M  V30 7520 C 708.232 2.27375 2.51035 0
M  V30 7521 C 707.278 3.49869 2.43913 0
M  V30 7522 S 708.111 5.01958 1.86543 0
M  V30 7523 C 709.267 5.35932 3.23307 0
M  V30 7524 H 709.5 2.85655 0.823931 0
M  V30 7525 H 707.033 1.51204 0.312515 0
M  V30 7526 H 708.991 2.45801 3.28774 0
M  V30 7527 H 707.652 1.38876 2.81731 0
M  V30 7528 H 706.845 3.68835 3.43477 0
M  V30 7529 H 706.447 3.30901 1.743 0
M  V30 7530 H 708.739 5.31958 4.19556 0
M  V30 7531 H 709.682 6.37047 3.09155 0
M  V30 7532 H 710.09 4.63397 3.22372 0
M  V30 7533 N 709.488 -0.375779 1.53054 0
M  V30 7534 C 710.713 -1.14484 1.7294 0
M  V30 7535 C 711.138 -1.82572 0.452668 0
M  V30 7536 O 710.496 -1.71343 -0.592567 0
M  V30 7537 C 710.544 -2.15857 2.88857 0
M  V30 7538 O 709.648 -3.22725 2.56753 0
M  V30 7539 H 708.989 -0.332666 0.574656 0
M  V30 7540 H 711.519 -0.436025 1.999 0
M  V30 7541 H 711.529 -2.59631 3.14731 0
M  V30 7542 H 710.204 -1.65689 3.81471 0
M  V30 7543 H 708.781 -2.83996 2.41663 0
M  V30 7544 N 710.966 -1.44241 -0.634997 0
M  V30 7545 C 711.899 -1.45274 -1.75985 0
M  V30 7546 C 712.877 -0.312025 -1.59578 0
M  V30 7547 O 714.061 -0.508409 -1.81514 0
M  V30 7548 C 711.188 -1.28173 -3.13511 0
M  V30 7549 C 710.234 -2.45757 -3.48576 0
M  V30 7550 S 711.067 -4.08293 -3.46492 0
M  V30 7551 C 712.223 -3.93608 -4.86645 0
M  V30 7552 H 712.456 -2.40454 -1.74841 0
M  V30 7553 H 709.989 -1.31492 -0.809268 0
M  V30 7554 H 711.947 -1.18993 -3.92875 0
M  V30 7555 H 710.608 -0.34511 -3.12198 0
M  V30 7556 H 709.801 -2.29644 -4.48642 0
M  V30 7557 H 709.403 -2.51657 -2.76667 0
M  V30 7558 H 711.695 -3.57059 -5.75774 0
M  V30 7559 H 712.638 -4.9349 -5.07813 0
M  V30 7560 H 713.046 -3.25737 -4.61038 0
M  V30 7561 N 712.444 0.87505 -1.31075 0
M  V30 7562 C 713.391 1.98178 -1.18296 0
M  V30 7563 C 714.361 1.65952 -0.0699923 0
M  V30 7564 O 715.546 1.8926 -0.241951 0
M  V30 7565 C 712.686 3.33399 -0.891024 0
M  V30 7566 C 711.799 3.78253 -2.08684 0
M  V30 7567 C 710.934 5.02166 -1.73212 0
M  V30 7568 C 709.973 5.39455 -2.89231 0
M  V30 7569 N 709.11 6.54549 -2.53989 0
M  V30 7570 H 713.95 2.0844 -2.12971 0
M  V30 7571 H 711.487 1.02047 -1.05948 0
M  V30 7572 H 713.445 4.11246 -0.702338 0
M  V30 7573 H 712.075 3.22794 0.0188799 0
M  V30 7574 H 711.127 2.9623 -2.38646 0
M  V30 7575 H 712.439 4.01821 -2.95536 0
M  V30 7576 H 711.593 5.87666 -1.50777 0
M  V30 7577 H 710.332 4.80491 -0.83544 0
M  V30 7578 H 709.337 4.52477 -3.12321 0
M  V30 7579 H 710.562 5.63098 -3.79601 0
M  V30 7580 H 708.508 6.3443 -1.66838 0
M  V30 7581 H 708.425 6.78035 -3.34372 0
M  V30 7582 H 709.693 7.43254 -2.34934 0
M  V30 7583 N 713.922 1.13953 1.08869 0
M  V30 7584 C 715.171 0.899431 1.80536 0
M  V30 7585 C 715.484 -0.575781 1.86933 0
M  V30 7586 O 716.69 -0.932988 2.54966 0
M  V30 7587 C 715.146 1.55963 3.24351 0
M  V30 7588 C 714.754 3.07077 3.26202 0
M  V30 7589 C 716.498 1.40046 4.00733 0
M  V30 7590 C 714.405 3.65955 4.64576 0
M  V30 7591 H 713.335 0.332849 0.676556 0
M  V30 7592 H 715.986 1.3679 1.22314 0
M  V30 7593 H 714.368 1.01883 3.82669 0
M  V30 7594 H 715.542 3.67785 2.77617 0
M  V30 7595 H 713.857 3.22576 2.63312 0
M  V30 7596 H 716.454 1.81441 5.02974 0
M  V30 7597 H 716.797 0.345993 4.1486 0
M  V30 7598 H 717.33 1.91137 3.48872 0
M  V30 7599 H 714.069 4.71234 4.55652 0
M  V30 7600 H 713.589 3.10027 5.13462 0
M  V30 7601 H 715.268 3.65968 5.33551 0
M  V30 7602 N 715.4 -1.26948 0.933913 0
M  V30 7603 C 716.816 -1.46419 0.635103 0
M  V30 7604 C 717.016 -1.84336 -0.813785 0
M  V30 7605 O 716.072 -1.96061 -1.59111 0
M  V30 7606 C 717.385 -2.55206 1.5903 0
M  V30 7607 C 718.933 -2.69062 1.5992 0
M  V30 7608 C 719.408 -3.81013 2.54152 0
M  V30 7609 N 720.899 -3.88395 2.52395 0
M  V30 7610 C 721.634 -4.74454 3.21996 0
M  V30 7611 N 721.13 -5.64954 4.00997 0
M  V30 7612 N 722.923 -4.68237 3.10983 0
M  V30 7613 H 715.074 -1.00622 1.87053 0
M  V30 7614 H 717.337 -0.503189 0.803433 0
M  V30 7615 H 717.043 -2.34153 2.62422 0
M  V30 7616 H 716.917 -3.52719 1.33677 0
M  V30 7617 H 719.304 -2.89492 0.572569 0
M  V30 7618 H 719.385 -1.72016 1.89325 0
M  V30 7619 H 719.029 -3.61336 3.5693 0
M  V30 7620 H 718.959 -4.77499 2.22041 0
M  V30 7621 H 721.45 -3.23687 1.95025 0
M  V30 7622 H 721.763 -6.27496 4.51074 0
M  V30 7623 H 720.108 -5.6473 4.05099 0
M  V30 7624 H 723.299 -3.96535 2.48753 0
M  V30 7625 H 723.472 -5.35087 3.65494 0
M  V30 7626 N 716.879 -0.700114 -1.41195 0
M  V30 7627 C 718.29 -0.307249 -1.84154 0
M  V30 7628 C 718.641 1.15539 -1.58572 0
M  V30 7629 O 717.766 1.88744 -1.05852 0
M  V30 7630 C 718.361 -0.550872 -3.34292 0
M  V30 7631 C 716.92 -0.211877 -3.75803 0
M  V30 7632 C 716.067 -0.830915 -2.64558 0
M  V30 7633 H 719.018 -0.900431 -1.30683 0
M  V30 7634 H 719.039 0.188954 -3.80031 0
M  V30 7635 H 718.551 -1.61548 -3.5288 0
M  V30 7636 H 716.652 0.848283 -3.62815 0
M  V30 7637 H 716.765 -0.67007 -4.74391 0
M  V30 7638 H 715.129 -0.260155 -2.53368 0
M  V30 7639 H 715.912 -1.89948 -2.85963 0
M  V30 7640 N 718.357 1.51182 -0.445186 0
M  V30 7641 C 719.604 2.02152 0.118645 0
M  V30 7642 C 719.932 1.32888 1.42025 0
M  V30 7643 O 719.187 0.435041 1.90803 0
M  V30 7644 C 719.486 3.55408 0.376797 0
M  V30 7645 C 719.152 4.43008 -0.839945 0
M  V30 7646 C 717.814 4.66669 -1.17361 0
M  V30 7647 C 720.166 4.9435 -1.65127 0
M  V30 7648 C 717.494 5.38919 -2.31913 0
M  V30 7649 C 719.846 5.67857 -2.78786 0
M  V30 7650 C 718.51 5.89779 -3.12597 0
M  V30 7651 H 717.78 0.739727 0.0434152 0
M  V30 7652 H 720.427 1.82055 -0.593984 0
M  V30 7653 H 718.732 3.73879 1.1714 0
M  V30 7654 H 720.429 3.92388 0.826602 0
M  V30 7655 H 717.019 4.24793 -0.569958 0
M  V30 7656 H 721.203 4.75947 -1.4067 0
M  V30 7657 H 716.459 5.54105 -2.58413 0
M  V30 7658 H 720.633 6.06628 -3.42017 0
M  V30 7659 H 718.26 6.45542 -4.01471 0
M  V30 7660 N 719.835 0.176821 1.56605 0
M  V30 7661 C 721.082 -0.466715 1.97048 0
M  V30 7662 C 721.41 -1.6288 1.06302 0
M  V30 7663 O 720.665 -1.95453 0.0982571 0
M  V30 7664 C 720.964 -0.986208 3.43524 0
M  V30 7665 C 720.63 0.0605667 4.50859 0
M  V30 7666 C 719.292 0.348242 4.79938 0
M  V30 7667 C 721.644 0.770794 5.15469 0
M  V30 7668 C 718.972 1.35144 5.70923 0
M  V30 7669 C 721.324 1.76301 6.07537 0
M  V30 7670 C 719.988 2.05808 6.3498 0
M  V30 7671 H 719.258 -0.170783 0.721051 0
M  V30 7672 H 721.905 0.269942 1.89588 0
M  V30 7673 H 720.21 -1.80079 3.47964 0
M  V30 7674 H 721.907 -1.49323 3.72161 0
M  V30 7675 H 718.497 -0.173823 4.28247 0
M  V30 7676 H 722.681 0.56176 4.9311 0
M  V30 7677 H 717.937 1.58616 5.90467 0
M  V30 7678 H 722.111 2.31868 6.56666 0
M  V30 7679 H 719.738 2.8369 7.05283 0
M  V30 7680 N 721.313 -1.57302 -0.09688 0
M  V30 7681 C 722.724 -1.7496 -0.651595 0
M  V30 7682 C 723.075 -0.798746 -1.79205 0
M  V30 7683 O 722.2 0.0231858 -2.16388 0
M  V30 7684 C 722.795 -3.17259 -1.18878 0
M  V30 7685 C 721.354 -3.36348 -1.68958 0
M  V30 7686 C 720.501 -2.70766 -0.598413 0
M  V30 7687 H 723.452 -1.58173 0.12918 0
M  V30 7688 H 723.473 -3.20033 -2.05814 0
M  V30 7689 H 722.985 -3.8644 -0.358523 0
M  V30 7690 H 721.086 -2.72243 -2.5439 0
M  V30 7691 H 721.199 -4.44654 -1.7838 0
M  V30 7692 H 719.563 -2.32615 -1.03743 0
M  V30 7693 H 720.346 -3.42586 0.221238 0
M  V30 7694 N 722.791 0.367657 -1.53252 0
M  V30 7695 C 723.723 1.47032 -1.75824 0
M  V30 7696 C 724.736 1.49736 -0.63898 0
M  V30 7697 O 725.925 1.53253 -0.915193 0
M  V30 7698 C 723.025 2.85805 -1.82122 0
M  V30 7699 C 722.198 3.06822 -3.11736 0
M  V30 7700 C 721.257 4.25698 -3.09302 0
M  V30 7701 O 720.283 4.20972 -3.83107 0
M  V30 7702 N 721.485 5.33002 -2.29977 0
M  V30 7703 H 724.25 1.28048 -2.70968 0
M  V30 7704 H 721.811 0.557363 -1.52004 0
M  V30 7705 H 723.803 3.63465 -1.77975 0
M  V30 7706 H 722.373 2.98046 -0.942716 0
M  V30 7707 H 721.593 2.1684 -3.29202 0
M  V30 7708 H 722.881 3.17731 -3.97397 0
M  V30 7709 H 722.279 5.39703 -1.69521 0
M  V30 7710 H 720.836 6.09247 -2.3165 0
M  V30 7711 N 724.269 1.44576 0.627338 0
M  V30 7712 C 725.201 1.47724 1.75243 0
M  V30 7713 C 726.214 0.370193 1.58535 0
M  V30 7714 O 727.403 0.636151 1.66779 0
M  V30 7715 C 724.503 1.2991 3.13012 0
M  V30 7716 C 723.676 2.5393 3.56143 0
M  V30 7717 C 722.735 2.30961 4.72804 0
M  V30 7718 O 721.761 3.04469 4.80923 0
M  V30 7719 N 722.963 1.34261 5.6476 0
M  V30 7720 H 725.728 2.44718 1.73012 0
M  V30 7721 H 723.289 1.40064 0.812022 0
M  V30 7722 H 725.281 1.12385 3.88782 0
M  V30 7723 H 723.851 0.412668 3.09864 0
M  V30 7724 H 723.071 2.86707 2.70542 0
M  V30 7725 H 724.359 3.36411 3.81713 0
M  V30 7726 H 723.757 0.735573 5.60897 0
M  V30 7727 H 722.314 1.22713 6.40144 0
M  V30 7728 O 725.786 -0.770871 1.41915 0
M  V30 7729 H 726.477 -1.41834 1.31919 0
M  V30 END ATOM
M  V30 BEGIN BOND
M  V30 END BOND
M  V30 END CTAB
M  END
$$$$
