drugbank_target|Q8KI25 Putative FAD-monooxygenase (DB07241; DB08036)
 OpenBabel12092120403D

  0  0  0     0  0            999 V3000
M  V30 BEGIN CTAB
M  V30 COUNTS 8086 8186 0 0 0
M  V30 BEGIN ATOM
M  V30 1 H -0.908 1.98254 -0.117106 0
M  V30 2 N 0 1.576 0 0
M  V30 3 C 0.933 2.03868 1.02534 0
M  V30 4 C 1.911 0.928543 1.3348 0
M  V30 5 O 3.095 1.19667 1.45644 0
M  V30 6 C 0.222 2.43627 2.35294 0
M  V30 7 C -0.732 3.65373 2.2001 0
M  V30 8 S 0.101 5.13292 1.52614 0
M  V30 9 C 1.257 5.56322 2.86805 0
M  V30 10 H 1.49 2.90518 0.631377 0
M  V30 11 H -0.977 1.52953 0.210867 0
M  V30 12 H 0.981 2.67203 3.11629 0
M  V30 13 H -0.358 1.57376 2.7183 0
M  V30 14 H -1.165 3.90944 3.18086 0
M  V30 15 H -1.563 3.418 1.51819 0
M  V30 16 H 0.729 5.58782 3.83104 0
M  V30 17 H 1.672 6.56266 2.65933 0
M  V30 18 H 2.08 4.83886 2.90714 0
M  V30 19 N 1.4781 -0.272755 1.55222 0
M  V30 20 C 2.4261 -1.35705 1.88909 0
M  V30 21 C 3.4201 -1.5112 0.765456 0
M  V30 22 O 4.6261 -1.52901 0.949802 0
M  V30 23 H 1.0011 -0.453868 0.59959 0
M  V30 24 H 2.9721 -1.04544 2.79487 0
M  V30 25 C 1.7211 -2.71049 2.17779 0
M  V30 26 H 1.0441 -2.59979 3.03728 0
M  V30 27 H 2.4841 -3.45858 2.45272 0
M  V30 28 C 0.9431 -3.22165 0.985473 0
M  V30 29 O 1.4731 -4.01096 0.220233 0
M  V30 30 N -0.3209 -2.7985 0.783108 0
M  V30 31 H -0.7739 -2.15775 1.40708 0
M  V30 32 H -0.8159 -3.14397 -0.0130392 0
M  V30 33 N 2.9562 -1.48159 -0.537278 0
M  V30 34 C 3.9192 -1.61665 -1.62472 0
M  V30 35 C 4.9192 -0.490395 -1.5314 0
M  V30 36 O 6.1092 -0.755998 -1.5694 0
M  V30 37 C 3.2412 -1.57997 -3.02076 0
M  V30 38 H 4.4342 -2.58621 -1.51839 0
M  V30 39 H 1.9872 -1.36647 -0.758771 0
M  V30 40 H 2.7222 -0.624913 -3.18222 0
M  V30 41 H 2.5072 -2.39755 -3.10258 0
M  V30 42 H 3.9972 -1.70627 -3.81151 0
M  V30 43 N 4.4343 0.785586 -1.36625 0
M  V30 44 C 5.8453 1.36101 -1.27803 0
M  V30 45 C 6.1963 1.96035 0.0804875 0
M  V30 46 O 5.3213 1.92834 0.982042 0
M  V30 47 C 5.9163 2.47442 -2.31426 0
M  V30 48 C 4.4753 3.00789 -2.26281 0
M  V30 49 C 3.6223 1.73896 -2.15999 0
M  V30 50 H 6.5733 0.586928 -1.47448 0
M  V30 51 H 6.5943 3.2656 -1.95291 0
M  V30 52 H 6.1063 2.03791 -3.30289 0
M  V30 53 H 4.2073 3.48851 -1.30896 0
M  V30 54 H 4.3203 3.57343 -3.19128 0
M  V30 55 H 2.6843 1.9628 -1.62316 0
M  V30 56 H 3.4673 1.32368 -3.16755 0
M  V30 57 N 5.9124 1.20967 1.01018 0
M  V30 58 C 7.1614 1.01796 1.74128 0
M  V30 59 C 7.4744 -0.449691 1.90361 0
M  V30 60 O 8.6804 -0.76068 2.60626 0
M  V30 61 C 7.1364 1.7727 3.13215 0
M  V30 62 C 6.7444 3.28171 3.04972 0
M  V30 63 C 8.4884 1.66489 3.90489 0
M  V30 64 C 6.3954 3.96156 4.39107 0
M  V30 65 H 5.3254 0.377276 0.652824 0
M  V30 66 H 7.9764 1.44651 1.12909 0
M  V30 67 H 6.3584 1.27205 3.75013 0
M  V30 68 H 7.5324 3.85499 2.52443 0
M  V30 69 H 5.8474 3.39437 2.41188 0
M  V30 70 H 8.4444 2.14617 4.89738 0
M  V30 71 H 8.7874 0.6222 4.11624 0
M  V30 72 H 9.3204 2.14003 3.35332 0
M  V30 73 H 6.0594 5.00604 4.23174 0
M  V30 74 H 5.5794 3.43617 4.91617 0
M  V30 75 H 7.2584 4.00774 5.07926 0
M  V30 76 N 7.3905 -1.2043 1.01659 0
M  V30 77 C 8.3005 -2.2689 0.596484 0
M  V30 78 C 9.3165 -1.70107 -0.36599 0
M  V30 79 O 10.4925 -2.00117 -0.226942 0
M  V30 80 C 7.5575 -3.4665 -0.0586659 0
M  V30 81 C 6.6185 -4.18662 0.949751 0
M  V30 82 C 5.8515 -5.32705 0.32577 0
M  V30 83 O 6.0745 -5.63656 -0.874509 0
M  V30 84 O 5.0085 -5.92803 1.04249 0
M  V30 85 H 8.8345 -2.65041 1.4828 0
M  V30 86 H 6.4195 -1.27048 0.786082 0
M  V30 87 H 8.3015 -4.19256 -0.424564 0
M  V30 88 H 6.9765 -3.10375 -0.91918 0
M  V30 89 H 5.8835 -3.48229 1.36702 0
M  V30 90 H 7.2165 -4.58878 1.78023 0
M  V30 91 N 8.8686 -0.792821 -1.36206 0
M  V30 92 C 10.0966 -0.378825 -2.03402 0
M  V30 93 C 10.5116 1.00586 -1.59774 0
M  V30 94 O 9.8686 1.64574 -0.788764 0
M  V30 95 C 9.9196 -0.43683 -3.58851 0
M  V30 96 O 9.6406 -1.76691 -4.00889 0
M  V30 97 C 11.1416 -0.0138943 -4.43298 0
M  V30 98 H 8.3616 -0.155673 -0.652692 0
M  V30 99 H 10.9056 -1.07261 -1.74113 0
M  V30 100 H 9.0606 0.208575 -3.86838 0
M  V30 101 H 9.4746 -1.72011 -4.95492 0
M  V30 102 H 10.9486 -0.105615 -5.51899 0
M  V30 103 H 11.4256 1.03915 -4.2673 0
M  V30 104 H 12.0316 -0.63192 -4.20579 0
M  V30 105 N 10.3467 1.47872 -0.545128 0
M  V30 106 C 11.6237 1.9554 0.0485222 0
M  V30 107 C 12.0037 1.4876 1.49779 0
M  V30 108 O 11.3517 0.720925 2.16829 0
M  V30 109 C 11.5617 3.48898 -0.084417 0
M  V30 110 C 12.9097 4.24547 0.0671239 0
M  V30 111 O 13.9337 3.56198 -0.0113649 0
M  V30 112 O 12.7927 5.45999 0.233882 0
M  V30 113 H 9.8867 0.823957 0.0708773 0
M  V30 114 H 12.4327 1.58327 -0.610798 0
M  V30 115 H 11.2047 3.75714 -1.09337 0
M  V30 116 H 10.8277 3.92845 0.613066 0
M  V30 117 N 11.8248 0.280983 1.55075 0
M  V30 118 C 13.0708 -0.33461 2.00021 0
M  V30 119 C 13.4038 -1.55063 1.16915 0
M  V30 120 O 12.6788 -1.93006 0.240646 0
M  V30 121 C 12.9618 -0.711007 3.53011 0
M  V30 122 C 12.8148 0.512766 4.46868 0
M  V30 123 C 14.1338 -1.54522 4.12081 0
M  V30 124 H 11.2528 -0.120147 0.727141 0
M  V30 125 H 13.8948 0.389097 1.85973 0
M  V30 126 H 12.0448 -1.32761 3.65112 0
M  V30 127 H 13.7168 1.15131 4.46702 0
M  V30 128 H 11.9598 1.14975 4.18286 0
M  V30 129 H 12.6308 0.205556 5.51617 0
M  V30 130 H 15.1068 -1.02442 4.03293 0
M  V30 131 H 13.9828 -1.77739 5.19327 0
M  V30 132 H 14.2438 -2.52813 3.62682 0
M  V30 133 N 13.3029 -1.57598 0.00835791 0
M  V30 134 C 14.2329 -2.1198 -0.979113 0
M  V30 135 C 15.2139 -1.03091 -1.35301 0
M  V30 136 O 16.3989 -1.30818 -1.43528 0
M  V30 137 C 13.5289 -2.62995 -2.26828 0
M  V30 138 C 12.4829 -3.76485 -2.03576 0
M  V30 139 C 11.8089 -4.13846 -3.38579 0
M  V30 140 C 13.1089 -5.0342 -1.39161 0
M  V30 141 H 14.8029 -2.94738 -0.526281 0
M  V30 142 H 12.3489 -1.41783 -0.251704 0
M  V30 143 H 14.3019 -2.99669 -2.96271 0
M  V30 144 H 13.0259 -1.7737 -2.7424 0
M  V30 145 H 11.6849 -3.40217 -1.36557 0
M  V30 146 H 11.3329 -3.25232 -3.83709 0
M  V30 147 H 11.0329 -4.90312 -3.23834 0
M  V30 148 H 12.5569 -4.53086 -4.09323 0
M  V30 149 H 13.9709 -5.37812 -1.98573 0
M  V30 150 H 12.3679 -5.84746 -1.34878 0
M  V30 151 H 13.4379 -4.83548 -0.361868 0
M  V30 152 N 14.781 0.264519 -1.55364 0
M  V30 153 C 16.03 0.992812 -1.75574 0
M  V30 154 C 16.343 1.87142 -0.568979 0
M  V30 155 O 17.549 2.63513 -0.653682 0
M  V30 156 C 16.005 1.81519 -3.10771 0
M  V30 157 C 15.613 0.984839 -4.37041 0
M  V30 158 C 17.357 2.53727 -3.40327 0
M  V30 159 C 15.264 1.80209 -5.63275 0
M  V30 160 H 14.194 0.374412 -0.65447 0
M  V30 161 H 16.845 0.248138 -1.81815 0
M  V30 162 H 15.227 2.60115 -2.98591 0
M  V30 163 H 16.401 0.242455 -4.60162 0
M  V30 164 H 14.716 0.37691 -4.14691 0
M  V30 165 H 17.313 3.15292 -4.3185 0
M  V30 166 H 17.656 3.24447 -2.60845 0
M  V30 167 H 18.189 1.82156 -3.53644 0
M  V30 168 H 14.928 1.13896 -6.45529 0
M  V30 169 H 14.448 2.52022 -5.44284 0
M  V30 170 H 16.127 2.37364 -6.01887 0
M  V30 171 N 16.2591 1.48442 0.529413 0
M  V30 172 C 17.1891 1.65902 1.64313 0
M  V30 173 C 18.1701 0.507897 1.6234 0
M  V30 174 O 19.3551 0.740503 1.79528 0
M  V30 175 C 16.4851 1.69911 3.02898 0
M  V30 176 C 15.4391 2.8453 3.19729 0
M  V30 177 C 14.7651 2.73629 4.59381 0
M  V30 178 C 16.0651 4.25821 3.02447 0
M  V30 179 H 17.7591 2.5914 1.49955 0
M  V30 180 H 15.3051 1.24709 0.719982 0
M  V30 181 H 17.2581 1.80715 3.80684 0
M  V30 182 H 15.9821 0.732524 3.18279 0
M  V30 183 H 14.6411 2.73283 2.44361 0
M  V30 184 H 14.2891 1.74938 4.71599 0
M  V30 185 H 13.9891 3.50541 4.71588 0
M  V30 186 H 15.5131 2.86401 5.39265 0
M  V30 187 H 16.9271 4.37898 3.70024 0
M  V30 188 H 15.3241 5.03735 3.26146 0
M  V30 189 H 16.3941 4.42244 1.98867 0
M  V30 190 N 17.7372 -0.778329 1.37039 0
M  V30 191 C 18.9852 -1.53361 1.31623 0
M  V30 192 C 19.3062 -1.94739 -0.100831 0
M  V30 193 O 18.5762 -1.65797 -1.04347 0
M  V30 194 H 17.1562 -0.568794 0.484234 0
M  V30 195 H 19.8182 -0.926742 1.71457 0
M  V30 196 H 18.9142 -2.43606 1.95096 0
M  V30 197 N 19.2153 -1.21501 -1.00376 0
M  V30 198 C 20.4633 -1.03095 -1.73827 0
M  V30 199 C 20.7843 0.436341 -1.90055 0
M  V30 200 O 20.0543 1.31466 -1.45236 0
M  V30 201 H 18.6343 -0.378487 -0.644016 0
M  V30 202 H 21.2963 -1.52831 -1.20949 0
M  V30 203 H 20.3923 -1.49991 -2.73695 0
M  V30 204 N 20.6934 1.19889 -1.02296 0
M  V30 205 C 21.9414 1.89046 -0.714558 0
M  V30 206 C 22.2624 1.79636 0.758681 0
M  V30 207 O 21.5324 1.20292 1.54618 0
M  V30 208 H 20.1124 0.699802 -0.261317 0
M  V30 209 H 22.7744 1.45574 -1.29592 0
M  V30 210 H 21.8704 2.95524 -1.0036 0
M  V30 211 N 22.1715 0.800033 1.35784 0
M  V30 212 C 23.5825 0.439142 1.81462 0
M  V30 213 C 23.9335 -1.03813 1.66485 0
M  V30 214 O 23.0585 -1.80626 1.19177 0
M  V30 215 C 23.6535 0.790314 3.29453 0
M  V30 216 C 22.2125 0.482111 3.733 0
M  V30 217 C 21.3595 1.01938 2.57883 0
M  V30 218 H 24.3105 0.992254 1.23855 0
M  V30 219 H 24.3315 0.0853677 3.80404 0
M  V30 220 H 23.8435 1.86554 3.40322 0
M  V30 221 H 21.9445 -0.584652 3.67984 0
M  V30 222 H 22.0575 1.01015 4.6833 0
M  V30 223 H 20.4215 0.442043 2.50835 0
M  V30 224 H 21.2045 2.10059 2.71533 0
M  V30 225 N 23.6496 -1.47581 0.552962 0
M  V30 226 C 24.8956 -2.02782 0.0273648 0
M  V30 227 C 25.2286 -1.42687 -1.31734 0
M  V30 228 O 24.5036 -0.580897 -1.85623 0
M  V30 229 C 24.7866 -3.60031 -0.0702371 0
M  V30 230 C 24.6396 -4.30566 1.30126 0
M  V30 231 C 25.9586 -4.33028 -0.785771 0
M  V30 232 H 23.0776 -0.736912 0.0114185 0
M  V30 233 H 25.7196 -1.76056 0.714432 0
M  V30 234 H 23.8696 -3.82932 -0.655382 0
M  V30 235 H 25.5416 -4.19018 1.92929 0
M  V30 236 H 23.7846 -3.91086 1.87709 0
M  V30 237 H 24.4556 -5.39114 1.18573 0
M  V30 238 H 26.9316 -4.15095 -0.288982 0
M  V30 239 H 25.8076 -5.42695 -0.823013 0
M  V30 240 H 26.0686 -4.01945 -1.841 0
M  V30 241 N 25.1277 -0.289203 -1.54924 0
M  V30 242 C 26.3757 0.322879 -1.99504 0
M  V30 243 C 26.6967 1.55313 -1.1791 0
M  V30 244 O 25.9667 1.94001 -0.272097 0
M  V30 245 H 24.5467 0.122291 -0.736922 0
M  V30 246 H 27.2087 -0.397802 -1.90797 0
M  V30 247 H 26.3047 0.603061 -3.06218 0
M  V30 248 N 26.6058 1.57591 -0.0167156 0
M  V30 249 C 27.5388 2.04944 1.00366 0
M  V30 250 C 28.5168 0.942648 1.32487 0
M  V30 251 O 29.7008 1.21205 1.44367 0
M  V30 252 C 26.8278 2.46109 2.32697 0
M  V30 253 C 25.8738 3.67686 2.16123 0
M  V30 254 S 26.7068 5.14882 1.47161 0
M  V30 255 C 27.8628 5.59332 2.80888 0
M  V30 256 H 28.0958 2.91172 0.600528 0
M  V30 257 H 25.6288 1.53168 0.194632 0
M  V30 258 H 27.5868 2.70493 3.08778 0
M  V30 259 H 26.2478 1.6025 2.70146 0
M  V30 260 H 25.4408 3.94296 3.13922 0
M  V30 261 H 25.0428 3.43391 1.48185 0
M  V30 262 H 27.3348 5.62814 3.77156 0
M  V30 263 H 28.2778 6.5905 2.58958 0
M  V30 264 H 28.6858 4.86942 2.85565 0
M  V30 265 N 28.0839 -0.256276 1.55502 0
M  V30 266 C 29.0469 -1.30047 1.88734 0
M  V30 267 C 30.0469 -1.4154 0.763086 0
M  V30 268 O 31.2369 -1.40403 1.03115 0
M  V30 269 C 28.3689 -2.67953 2.10747 0
M  V30 270 H 29.5619 -1.01802 2.82093 0
M  V30 271 H 27.1149 -0.495134 1.4825 0
M  V30 272 H 27.8499 -3.01351 1.19825 0
M  V30 273 H 27.6349 -2.60993 2.92617 0
M  V30 274 H 29.1249 -3.43368 2.37673 0
M  V30 275 N 29.562 -1.4872 -0.521534 0
M  V30 276 C 30.492 -1.66771 -1.63431 0
M  V30 277 C 31.473 -0.516499 -1.62069 0
M  V30 278 O 32.658 -0.750013 -1.79132 0
M  V30 279 C 29.788 -1.71515 -3.01993 0
M  V30 280 C 28.742 -2.86222 -3.18216 0
M  V30 281 C 28.068 -2.76061 -4.57924 0
M  V30 282 C 29.368 -4.27419 -3.00184 0
M  V30 283 H 31.062 -2.59932 -1.48579 0
M  V30 284 H 28.608 -1.25089 -0.713358 0
M  V30 285 H 30.561 -1.82731 -3.7972 0
M  V30 286 H 29.285 -0.749393 -3.17886 0
M  V30 287 H 27.944 -2.74575 -2.42908 0
M  V30 288 H 27.592 -1.77437 -4.70665 0
M  V30 289 H 27.292 -3.53037 -4.69722 0
M  V30 290 H 28.816 -2.89256 -5.37739 0
M  V30 291 H 30.23 -4.39855 -3.67697 0
M  V30 292 H 28.627 -5.05458 -3.2347 0
M  V30 293 H 29.697 -4.43293 -1.96518 0
M  V30 294 N 31.0401 0.771051 -1.3745 0
M  V30 295 C 32.0031 1.86598 -1.33093 0
M  V30 296 C 33.0031 1.59076 -0.234845 0
M  V30 297 O 34.1931 1.67145 -0.490732 0
M  V30 298 C 31.3251 3.23747 -1.06773 0
M  V30 299 H 32.5181 1.91873 -2.30488 0
M  V30 300 H 30.0711 0.970876 -1.2249 0
M  V30 301 H 30.8061 3.24148 -0.099129 0
M  V30 302 H 30.5911 3.45115 -1.86112 0
M  V30 303 H 32.0811 4.03824 -1.06377 0
M  V30 304 N 32.5182 1.22032 0.997298 0
M  V30 305 C 33.4482 1.01065 2.10495 0
M  V30 306 C 34.4292 -0.0669542 1.69968 0
M  V30 307 O 35.6142 0.0943987 1.9397 0
M  V30 308 C 32.7442 0.582874 3.42374 0
M  V30 309 C 31.6982 1.60592 3.96729 0
M  V30 310 C 31.0242 1.03412 5.24605 0
M  V30 311 C 32.3242 2.99478 4.27914 0
M  V30 312 H 34.0182 1.93708 2.28292 0
M  V30 313 H 31.5642 0.932761 1.09707 0
M  V30 314 H 33.5172 0.423332 4.19268 0
M  V30 315 H 32.2412 -0.379213 3.24391 0
M  V30 316 H 30.9002 1.75316 3.21963 0
M  V30 317 H 30.5482 0.063518 5.0296 0
M  V30 318 H 30.2482 1.71754 5.61938 0
M  V30 319 H 31.7722 0.886066 6.04137 0
M  V30 320 H 33.1862 2.88153 4.95622 0
M  V30 321 H 31.5832 3.64903 4.76409 0
M  V30 322 H 32.6532 3.49742 3.3587 0
M  V30 323 N 33.9963 -1.19345 1.0293 0
M  V30 324 C 35.2733 -1.84811 0.640642 0
M  V30 325 C 35.6533 -1.91855 -0.88062 0
M  V30 326 O 35.0013 -1.43587 -1.7775 0
M  V30 327 C 35.2113 -3.23755 1.30321 0
M  V30 328 C 36.5593 -3.99912 1.42673 0
M  V30 329 O 37.5833 -3.33155 1.26041 0
M  V30 330 O 36.4423 -5.19494 1.6967 0
M  V30 331 H 33.5363 -0.796443 0.222726 0
M  V30 332 H 36.0823 -1.26831 1.12748 0
M  V30 333 H 34.8543 -3.13466 2.34211 0
M  V30 334 H 34.4773 -3.89381 0.804261 0
M  V30 335 N 35.4744 -0.807222 -1.35358 0
M  V30 336 C 36.4044 -0.232509 -2.3234 0
M  V30 337 C 37.3854 0.642386 -1.57504 0
M  V30 338 O 38.5704 0.572526 -1.85569 0
M  V30 339 C 35.7004 0.619238 -3.41735 0
M  V30 340 C 34.6544 -0.157215 -4.27711 0
M  V30 341 C 33.9804 0.816273 -5.28433 0
M  V30 342 C 35.2804 -1.35656 -5.04376 0
M  V30 343 H 36.9744 -1.04276 -2.80654 0
M  V30 344 H 34.5204 -0.50288 -1.34934 0
M  V30 345 H 36.4734 1.03137 -4.08584 0
M  V30 346 H 35.1974 1.46239 -2.92031 0
M  V30 347 H 33.8564 -0.550525 -3.62443 0
M  V30 348 H 33.5044 1.65494 -4.74996 0
M  V30 349 H 33.2044 0.301067 -5.86828 0
M  V30 350 H 34.7284 1.22659 -5.98153 0
M  V30 351 H 36.1424 -1.01927 -5.64166 0
M  V30 352 H 34.5394 -1.8063 -5.7227 0
M  V30 353 H 35.6094 -2.14288 -4.34981 0
M  V30 354 N 36.9525 1.47285 -0.560781 0
M  V30 355 C 37.9155 2.28535 0.174488 0
M  V30 356 C 38.9155 1.37153 0.839388 0
M  V30 357 O 40.1055 1.59748 0.694702 0
M  V30 358 C 37.2375 3.16934 1.25561 0
M  V30 359 H 38.4305 2.95012 -0.539262 0
M  V30 360 H 35.9835 1.53034 -0.317865 0
M  V30 361 H 36.7185 2.55157 2.00164 0
M  V30 362 H 36.5035 3.8419 0.783604 0
M  V30 363 H 37.9935 3.78143 1.77193 0
M  V30 364 N 38.4306 0.297415 1.54768 0
M  V30 365 C 39.3806 -0.595275 2.20092 0
M  V30 366 C 40.3646 -1.10163 1.17273 0
M  V30 367 O 41.5566 -1.043 1.43006 0
M  V30 368 C 38.6856 -1.7684 2.94249 0
M  V30 369 C 37.7716 -1.27818 4.0438 0
M  V30 370 N 38.1626 -0.505695 5.03266 0
M  V30 371 C 36.4606 -1.55923 4.17857 0
M  V30 372 C 37.1616 -0.245094 5.81183 0
M  V30 373 N 36.1376 -0.823881 5.3732 0
M  V30 374 H 39.9396 0.00250837 2.939 0
M  V30 375 H 37.4536 0.102007 1.62079 0
M  V30 376 H 39.4506 -2.41944 3.39513 0
M  V30 377 H 38.1106 -2.36992 2.21957 0
M  V30 378 H 39.1216 -0.150928 5.1768 0
M  V30 379 H 35.7986 -2.16849 3.56767 0
M  V30 380 H 37.1886 0.375084 6.70852 0
M  V30 381 N 39.9087 -1.5758 0.0250728 0
M  V30 382 C 41.3247 -1.56124 -0.331282 0
M  V30 383 C 41.5247 -1.03029 -1.73169 0
M  V30 384 O 40.5807 -0.675215 -2.43305 0
M  V30 385 C 41.8937 -3.00139 -0.183584 0
M  V30 386 C 43.4417 -3.11946 -0.256654 0
M  V30 387 C 43.9167 -4.57793 -0.137792 0
M  V30 388 N 45.4077 -4.6279 -0.194904 0
M  V30 389 C 46.1427 -5.7326 -0.126655 0
M  V30 390 N 45.6387 -6.928 -0.00755288 0
M  V30 391 N 47.4317 -5.61811 -0.180348 0
M  V30 392 H 39.5827 -1.90424 0.94087 0
M  V30 393 H 41.8457 -0.875761 0.362968 0
M  V30 394 H 41.5517 -3.4292 0.780927 0
M  V30 395 H 41.4257 -3.64899 -0.955448 0
M  V30 396 H 43.8127 -2.69079 -1.21162 0
M  V30 397 H 43.8937 -2.49915 0.545517 0
M  V30 398 H 43.5377 -5.01339 0.813739 0
M  V30 399 H 43.4677 -5.17798 -0.958775 0
M  V30 400 H 45.9587 -3.76807 -0.287267 0
M  V30 401 H 46.2717 -7.72791 0.0379428 0
M  V30 402 H 44.6167 -6.94995 0.0271731 0
M  V30 403 H 47.8077 -4.6731 -0.271767 0
M  V30 404 H 47.9807 -6.47882 -0.123697 0
M  V30 405 N 41.3868 0.248026 -1.55636 0
M  V30 406 C 42.3188 1.32993 -1.8667 0
M  V30 407 C 43.3318 1.44345 -0.752877 0
M  V30 408 O 44.5208 1.45715 -1.03098 0
M  V30 409 C 41.6208 2.70863 -2.03682 0
M  V30 410 C 40.7938 2.81792 -3.34532 0
M  V30 411 C 39.8528 4.005 -3.41301 0
M  V30 412 O 38.8788 3.9008 -4.14519 0
M  V30 413 N 40.0808 5.13618 -2.70512 0
M  V30 414 H 42.8458 1.06707 -2.8006 0
M  V30 415 H 40.4068 0.438129 -1.55859 0
M  V30 416 H 42.3988 3.48612 -2.05553 0
M  V30 417 H 40.9688 2.89862 -1.17041 0
M  V30 418 H 40.1888 1.90729 -3.44987 0
M  V30 419 H 41.4768 2.86043 -4.20781 0
M  V30 420 H 40.8748 5.24975 -2.10755 0
M  V30 421 H 39.4318 5.89505 -2.78077 0
M  V30 422 N 42.8649 1.48995 0.513639 0
M  V30 423 C 44.1109 1.58076 1.27042 0
M  V30 424 C 44.4439 0.261026 1.92438 0
M  V30 425 O 43.7189 -0.734393 1.80103 0
M  V30 426 C 44.0019 2.73091 2.34719 0
M  V30 427 C 43.8549 4.14821 1.73907 0
M  V30 428 C 45.1739 2.83796 3.36375 0
M  V30 429 H 42.2929 0.575391 0.460536 0
M  V30 430 H 44.9349 1.81232 0.570516 0
M  V30 431 H 43.0849 2.53479 2.94416 0
M  V30 432 H 44.7569 4.45917 1.18135 0
M  V30 433 H 42.9999 4.21058 1.0437 0
M  V30 434 H 43.6709 4.91147 2.51949 0
M  V30 435 H 46.1469 3.01611 2.86653 0
M  V30 436 H 45.0229 3.65971 4.09093 0
M  V30 437 H 45.2839 1.92624 3.9793 0
M  V30 438 N 44.343 -0.763751 1.37857 0
M  V30 439 C 45.591 -1.51957 1.33243 0
M  V30 440 C 45.912 -1.94835 -0.0801709 0
M  V30 441 O 45.182 -1.66894 -1.02582 0
M  V30 442 H 43.762 -0.563626 0.49024 0
M  V30 443 H 46.424 -0.908504 1.7243 0
M  V30 444 H 45.52 -2.41523 1.97669 0
M  V30 445 N 45.8211 -1.22559 -0.990812 0
M  V30 446 C 46.7711 -0.964807 -2.0658 0
M  V30 447 C 47.7551 0.0853472 -1.60673 0
M  V30 448 O 48.9471 -0.125443 -1.76555 0
M  V30 449 C 46.0761 -0.546707 -3.38919 0
M  V30 450 C 45.1621 -1.6317 -3.91454 0
M  V30 451 N 45.5531 -2.85985 -4.17189 0
M  V30 452 C 43.8511 -1.50387 -4.19881 0
M  V30 453 C 44.5521 -3.56159 -4.59919 0
M  V30 454 N 43.5281 -2.83637 -4.63736 0
M  V30 455 H 47.3301 -1.89769 -2.24421 0
M  V30 456 H 44.8441 -1.12343 -1.17273 0
M  V30 457 H 46.8411 -0.34119 -4.15502 0
M  V30 458 H 45.5011 0.379254 -3.22478 0
M  V30 459 H 46.5121 -3.22392 -4.05319 0
M  V30 460 H 43.1891 -0.644254 -4.12499 0
M  V30 461 H 44.5791 -4.6139 -4.88435 0
M  V30 462 N 47.2992 1.18797 -1.03562 0
M  V30 463 C 48.2292 2.24472 -0.643019 0
M  V30 464 C 49.2102 1.66433 0.351283 0
M  V30 465 O 50.3952 1.92803 0.232505 0
M  V30 466 C 47.5252 3.473 4.24935e-05 0
M  V30 467 C 46.4792 4.18055 -0.917257 0
M  V30 468 C 45.8052 5.34519 -0.138941 0
M  V30 469 C 47.1052 4.72109 -2.23407 0
M  V30 470 H 48.7992 2.57566 -1.52643 0
M  V30 471 H 46.3452 1.23806 -0.735394 0
M  V30 472 H 48.2982 4.20426 0.286383 0
M  V30 473 H 47.0222 3.13424 0.918299 0
M  V30 474 H 45.6812 3.46821 -1.1879 0
M  V30 475 H 45.3292 4.96891 0.781562 0
M  V30 476 H 45.0292 5.82794 -0.750005 0
M  V30 477 H 46.5532 6.10438 0.1405 0
M  V30 478 H 47.9672 5.36955 -2.00879 0
M  V30 479 H 46.3642 5.30897 -2.79765 0
M  V30 480 H 47.4342 3.89807 -2.88407 0
M  V30 481 N 48.7773 0.814389 1.34928 0
M  V30 482 C 50.0233 0.399013 1.98836 0
M  V30 483 C 50.3563 -1.03314 1.64438 0
M  V30 484 O 49.6313 -1.71811 0.911659 0
M  V30 485 C 49.9143 0.591629 3.55207 0
M  V30 486 C 49.7673 2.06928 3.99376 0
M  V30 487 C 51.0863 0.022199 4.40094 0
M  V30 488 H 48.2053 0.146451 0.722303 0
M  V30 489 H 50.8473 1.02537 1.59957 0
M  V30 490 H 48.9973 0.0584441 3.88456 0
M  V30 491 H 50.6693 2.66544 3.76499 0
M  V30 492 H 48.9123 2.56287 3.49999 0
M  V30 493 H 49.5833 2.1549 5.08201 0
M  V30 494 H 52.0593 0.477643 4.13349 0
M  V30 495 H 50.9353 0.186832 5.48582 0
M  V30 496 H 51.1963 -1.07215 4.28902 0
M  V30 497 N 50.2554 -1.46986 0.568584 0
M  V30 498 C 51.5014 -2.02741 0.0488709 0
M  V30 499 C 51.8344 -1.44077 -1.30214 0
M  V30 500 O 51.1094 -0.600552 -1.84996 0
M  V30 501 C 51.3924 -3.60086 -0.032047 0
M  V30 502 C 51.2454 -4.29162 1.34686 0
M  V30 503 C 52.5644 -4.33838 -0.739798 0
M  V30 504 H 49.6834 -0.736749 0.0192338 0
M  V30 505 H 52.3254 -1.75289 0.733065 0
M  V30 506 H 50.4754 -3.83606 -0.61473 0
M  V30 507 H 52.1474 -4.16948 1.97362 0
M  V30 508 H 50.3904 -3.89073 1.91846 0
M  V30 509 H 51.0614 -5.37826 1.24285 0
M  V30 510 H 53.5374 -4.15378 -0.244939 0
M  V30 511 H 52.4134 -5.43537 -0.765406 0
M  V30 512 H 52.6744 -4.03875 -1.79827 0
M  V30 513 N 51.7335 -0.305618 -1.54608 0
M  V30 514 C 52.6435 0.57778 -2.27374 0
M  V30 515 C 53.6595 1.14451 -1.31061 0
M  V30 516 O 54.8355 1.16831 -1.6405 0
M  V30 517 C 51.9005 1.73123 -3.00382 0
M  V30 518 C 50.9615 1.19812 -4.12242 0
M  V30 519 C 50.1945 2.2966 -4.81759 0
M  V30 520 O 50.4175 3.49651 -4.50666 0
M  V30 521 O 49.3515 1.96091 -5.69062 0
M  V30 522 H 53.1775 -0.012624 -3.03697 0
M  V30 523 H 50.7625 -0.0719184 -1.49227 0
M  V30 524 H 52.6445 2.40315 -3.4616 0
M  V30 525 H 51.3195 2.30815 -2.26949 0
M  V30 526 H 50.2265 0.491798 -3.70853 0
M  V30 527 H 51.5595 0.666566 -4.87666 0
M  V30 528 N 53.2116 1.57565 -0.0334293 0
M  V30 529 C 54.1436 2.0739 0.975811 0
M  V30 530 C 55.1566 0.998166 1.2861 0
M  V30 531 O 56.3456 1.27426 1.25 0
M  V30 532 C 53.4456 2.4871 2.30209 0
M  V30 533 C 52.6186 3.79413 2.17634 0
M  V30 534 C 51.6776 4.07237 3.33233 0
M  V30 535 O 50.7036 4.77425 3.09927 0
M  V30 536 N 51.9056 3.5775 4.5716 0
M  V30 537 H 54.6706 2.94598 0.55066 0
M  V30 538 H 52.2316 1.61173 0.15323 0
M  V30 539 H 54.2236 2.64413 3.06378 0
M  V30 540 H 52.7936 1.66845 2.64351 0
M  V30 541 H 52.0136 3.73465 1.26165 0
M  V30 542 H 53.3016 4.65038 2.0644 0
M  V30 543 H 52.6996 3.00976 4.78989 0
M  V30 544 H 51.2566 3.78724 5.30482 0
M  V30 545 N 54.6897 -0.239769 1.55765 0
M  V30 546 C 55.9177 -0.98417 1.81994 0
M  V30 547 C 56.3327 -1.7867 0.610124 0
M  V30 548 O 55.6897 -1.77571 -0.421271 0
M  V30 549 C 55.7407 -1.91635 3.06526 0
M  V30 550 O 55.4617 -1.14629 4.22838 0
M  V30 551 C 56.9627 -2.77616 3.45607 0
M  V30 552 H 54.1827 -0.28928 0.605441 0
M  V30 553 H 56.7267 -0.260499 2.02834 0
M  V30 554 H 54.8817 -2.5942 2.87715 0
M  V30 555 H 55.2957 -1.77745 4.93464 0
M  V30 556 H 56.7697 -3.38759 4.35828 0
M  V30 557 H 57.2467 -3.4909 2.6652 0
M  V30 558 H 57.8527 -2.15271 3.66795 0
M  V30 559 N 56.1678 -1.49265 -0.50573 0
M  V30 560 C 57.4448 -1.49012 -1.26707 0
M  V30 561 C 57.8248 -0.215205 -2.1 0
M  V30 562 O 57.1728 0.802547 -2.13943 0
M  V30 563 C 57.3828 -2.7663 -2.12783 0
M  V30 564 C 58.7308 -3.25932 -2.72127 0
M  V30 565 O 59.7548 -2.77715 -2.23054 0
M  V30 566 O 58.6138 -4.09897 -3.61451 0
M  V30 567 H 55.7078 -0.596197 -0.57313 0
M  V30 568 H 58.2538 -1.61524 -0.52039 0
M  V30 569 H 57.0258 -3.60916 -1.5118 0
M  V30 570 H 56.6488 -2.66956 -2.94653 0
M  V30 571 N 57.6459 0.756429 -1.3826 0
M  V30 572 C 58.8939 1.51248 -1.34047 0
M  V30 573 C 59.2149 1.94875 0.0698372 0
M  V30 574 O 58.4849 1.67436 1.01696 0
M  V30 575 H 57.0649 0.561018 -0.493222 0
M  V30 576 H 59.7269 0.899347 -1.7291 0
M  V30 577 H 58.8229 2.40472 -1.98947 0
M  V30 578 N 59.124 1.23083 0.984299 0
M  V30 579 C 60.352 1.08714 1.76037 0
M  V30 580 C 60.767 -0.361691 1.85303 0
M  V30 581 O 60.124 -1.25034 1.32939 0
M  V30 582 C 60.175 1.70206 3.18923 0
M  V30 583 O 59.896 3.09423 3.10144 0
M  V30 584 C 61.397 1.61227 4.12941 0
M  V30 585 H 58.617 0.380664 0.552572 0
M  V30 586 H 61.161 1.62853 1.23689 0
M  V30 587 H 59.316 1.20109 3.6831 0
M  V30 588 H 59.73 3.39188 4.00065 0
M  V30 589 H 61.204 2.08962 5.10919 0
M  V30 590 H 61.681 0.570375 4.35481 0
M  V30 591 H 62.287 2.10671 3.69456 0
M  V30 592 N 60.6021 -1.18246 1.0419 0
M  V30 593 C 61.8511 -1.87588 0.741194 0
M  V30 594 C 62.1641 -1.81303 -0.734066 0
M  V30 595 O 63.3701 -2.46019 -1.14834 0
M  V30 596 C 61.8261 -3.36538 1.27555 0
M  V30 597 C 61.4341 -3.51349 2.77953 0
M  V30 598 C 63.1781 -4.11273 1.05143 0
M  V30 599 C 61.0851 -4.94265 3.2474 0
M  V30 600 H 60.0151 -0.702622 0.273565 0
M  V30 601 H 62.6661 -1.33601 1.25789 0
M  V30 602 H 61.0481 -3.9 0.686703 0
M  V30 603 H 62.2221 -3.08153 3.42605 0
M  V30 604 H 60.5371 -2.90022 2.98791 0
M  V30 605 H 63.1341 -5.16689 1.37611 0
M  V30 606 H 63.4771 -4.16298 -0.0112774 0
M  V30 607 H 64.0101 -3.63987 1.60495 0
M  V30 608 H 60.7491 -4.94408 4.30396 0
M  V30 609 H 60.2691 -5.38172 2.64823 0
M  V30 610 H 61.9481 -5.62987 3.18834 0
M  V30 611 N 62.0802 -0.821533 -1.34494 0
M  V30 612 C 63.3082 -0.421884 -2.02553 0
M  V30 613 C 63.7232 0.971745 -1.61872 0
M  V30 614 O 63.0802 1.62864 -0.823496 0
M  V30 615 C 63.1312 -0.51285 -3.57844 0
M  V30 616 O 62.8522 -1.85155 -3.97051 0
M  V30 617 C 64.3532 -0.107921 -4.43169 0
M  V30 618 H 61.5732 -0.169482 -0.649243 0
M  V30 619 H 64.1172 -1.1093 -1.71798 0
M  V30 620 H 62.2722 0.126474 -3.87193 0
M  V30 621 H 62.6862 -1.82482 -4.91732 0
M  V30 622 H 64.1602 -0.222657 -5.51551 0
M  V30 623 H 64.6372 0.948401 -4.28838 0
M  V30 624 H 65.2432 -0.720989 -4.19144 0
M  V30 625 N 63.5583 1.46682 -0.576371 0
M  V30 626 C 64.5083 2.27278 0.181288 0
M  V30 627 C 65.4923 1.35497 0.867721 0
M  V30 628 O 66.6843 1.59717 0.762863 0
M  V30 629 C 63.8133 3.21703 1.19841 0
M  V30 630 C 62.8993 4.20969 0.51442 0
M  V30 631 N 63.2903 5.03999 -0.426407 0
M  V30 632 C 61.5883 4.39373 0.765963 0
M  V30 633 C 62.2893 5.75812 -0.825565 0
M  V30 634 N 61.2653 5.43315 -0.176116 0
M  V30 635 H 65.0673 2.88863 -0.541785 0
M  V30 636 H 62.5813 1.57455 -0.397697 0
M  V30 637 H 64.5783 3.78145 1.75533 0
M  V30 638 H 63.2383 2.61677 1.92238 0
M  V30 639 H 64.2493 5.11659 -0.8016 0
M  V30 640 H 60.9263 3.90502 1.47698 0
M  V30 641 H 62.3163 6.52577 -1.59976 0
M  V30 642 N 65.0364 0.313813 1.54444 0
M  V30 643 C 66.4474 -0.176243 1.85866 0
M  V30 644 C 66.7984 -1.52405 1.23561 0
M  V30 645 O 65.9234 -2.09605 0.538016 0
M  V30 646 C 66.5184 -0.32657 3.37222 0
M  V30 647 C 65.0774 -0.760846 3.6863 0
M  V30 648 C 64.2244 0.123247 2.77026 0
M  V30 649 H 67.1754 0.534418 1.49431 0
M  V30 650 H 67.1964 -1.15908 3.62416 0
M  V30 651 H 66.7084 0.654531 3.82541 0
M  V30 652 H 64.8094 -1.75204 3.28838 0
M  V30 653 H 64.9224 -0.571353 4.75681 0
M  V30 654 H 63.2864 -0.399597 2.51546 0
M  V30 655 H 64.0694 1.10094 3.25168 0
M  V30 656 N 66.5145 -1.57545 0.0417849 0
M  V30 657 C 67.9305 -1.56467 -0.314704 0
M  V30 658 C 68.1305 -1.04859 -1.72066 0
M  V30 659 O 67.1865 -0.700983 -2.42575 0
M  V30 660 C 68.4995 -3.00317 -0.15174 0
M  V30 661 C 70.0475 -3.12201 -0.223553 0
M  V30 662 C 70.5225 -4.57913 -0.0892295 0
M  V30 663 N 72.0135 -4.6297 -0.145808 0
M  V30 664 C 72.7485 -5.73362 -0.0658459 0
M  V30 665 N 72.2445 -6.92769 0.0659282 0
M  V30 666 N 74.0375 -5.6197 -0.12075 0
M  V30 667 H 66.1885 -1.89416 0.961014 0
M  V30 668 H 68.4515 -0.871862 0.372237 0
M  V30 669 H 68.1575 -3.42073 0.817254 0
M  V30 670 H 68.0315 -3.65892 -0.916692 0
M  V30 671 H 70.4185 -2.70349 -1.18301 0
M  V30 672 H 70.4995 -2.49323 0.571994 0
M  V30 673 H 70.1435 -5.00448 0.866867 0
M  V30 674 H 70.0735 -5.18786 -0.903802 0
M  V30 675 H 72.5645 -3.7709 -0.247286 0
M  V30 676 H 72.8775 -7.72707 0.119905 0
M  V30 677 H 71.2225 -6.94927 0.100885 0
M  V30 678 H 74.4135 -4.67572 -0.222187 0
M  V30 679 H 74.5865 -6.47977 -0.0549735 0
M  V30 680 N 67.9926 0.231505 -1.5589 0
M  V30 681 C 69.2386 0.95877 -1.78705 0
M  V30 682 C 69.5716 1.8438 -0.609725 0
M  V30 683 O 68.8466 1.90521 0.391426 0
M  V30 684 C 69.1296 1.8062 -3.11526 0
M  V30 685 C 68.9826 0.948328 -4.39689 0
M  V30 686 C 70.3016 2.78585 -3.40703 0
M  V30 687 H 67.4206 0.347129 -0.650131 0
M  V30 688 H 70.0626 0.228259 -1.88624 0
M  V30 689 H 68.2126 2.42902 -3.03201 0
M  V30 690 H 69.8846 0.343016 -4.60023 0
M  V30 691 H 68.1276 0.253314 -4.3306 0
M  V30 692 H 68.7986 1.57543 -5.29041 0
M  V30 693 H 71.2746 2.26439 -3.49091 0
M  V30 694 H 70.1506 3.34988 -4.34826 0
M  V30 695 H 70.4116 3.55825 -2.62375 0
M  V30 696 N 69.4707 1.49531 0.497807 0
M  V30 697 C 70.7187 1.58865 1.24926 0
M  V30 698 C 71.0397 0.278721 1.92998 0
M  V30 699 O 70.3097 -0.702144 1.82885 0
M  V30 700 H 68.8897 0.585343 0.464094 0
M  V30 701 H 71.5517 1.86174 0.57666 0
M  V30 702 H 70.6477 2.38633 2.01149 0
M  V30 703 N 70.9488 -0.749086 1.3866 0
M  V30 704 C 72.1768 -1.53834 1.38358 0
M  V30 705 C 72.5918 -1.88783 -0.0255219 0
M  V30 706 O 71.9488 -1.53101 -0.993292 0
M  V30 707 C 71.9998 -2.83468 2.2434 0
M  V30 708 O 71.7208 -2.50008 3.5976 0
M  V30 709 C 73.2218 -3.7758 2.32267 0
M  V30 710 H 70.4418 -0.47585 0.473083 0
M  V30 711 H 72.9858 -0.926726 1.82297 0
M  V30 712 H 71.1408 -3.40995 1.83851 0
M  V30 713 H 71.5548 -3.33182 4.05081 0
M  V30 714 H 73.0288 -4.65478 2.96706 0
M  V30 715 H 73.5058 -4.18334 1.33765 0
M  V30 716 H 74.1118 -3.25976 2.73166 0
M  V30 717 N 72.4269 -1.23603 -0.977757 0
M  V30 718 C 73.6759 -1.06377 -1.71368 0
M  V30 719 C 73.9889 0.399062 -1.91486 0
M  V30 720 O 75.1949 0.691312 -2.62551 0
M  V30 721 C 73.6509 -1.85512 -3.08404 0
M  V30 722 C 73.2589 -3.36141 -2.96164 0
M  V30 723 C 75.0029 -1.76783 -3.85938 0
M  V30 724 C 72.9099 -4.07659 -4.28449 0
M  V30 725 H 71.8399 -0.394452 -0.642591 0
M  V30 726 H 74.4909 -1.47594 -1.09034 0
M  V30 727 H 72.8729 -1.37103 -3.71509 0
M  V30 728 H 74.0469 -3.92056 -2.42133 0
M  V30 729 H 72.3619 -3.45712 -2.32104 0
M  V30 730 H 74.9589 -2.27526 -4.83876 0
M  V30 731 H 75.3019 -0.731116 -4.0983 0
M  V30 732 H 75.8349 -2.22818 -3.2954 0
M  V30 733 H 72.5739 -5.11648 -4.09752 0
M  V30 734 H 72.0939 -3.5653 -4.82334 0
M  V30 735 H 73.7729 -4.141 -4.97122 0
M  V30 736 N 73.905 1.17692 -1.04816 0
M  V30 737 C 75.153 1.87488 -0.754497 0
M  V30 738 C 75.474 1.81205 0.720407 0
M  V30 739 O 74.744 1.23544 1.52032 0
M  V30 740 H 73.324 0.694101 -0.276102 0
M  V30 741 H 75.986 1.42793 -1.32651 0
M  V30 742 H 75.082 2.93328 -1.06606 0
M  V30 743 N 75.3831 0.828654 1.34056 0
M  V30 744 C 76.7941 0.477534 1.8049 0
M  V30 745 C 77.1451 -1.00258 1.6865 0
M  V30 746 O 76.2701 -1.78057 1.22982 0
M  V30 747 C 76.8651 0.860018 3.27703 0
M  V30 748 C 75.4241 0.561185 3.72193 0
M  V30 749 C 74.5711 1.07385 2.55663 0
M  V30 750 H 77.5221 1.0183 1.21722 0
M  V30 751 H 77.5431 0.166038 3.80138 0
M  V30 752 H 77.0551 1.93731 3.36288 0
M  V30 753 H 75.1561 -0.506465 3.69142 0
M  V30 754 H 75.2691 1.10926 4.66082 0
M  V30 755 H 73.6331 0.495149 2.49841 0
M  V30 756 H 74.4161 2.15771 2.67016 0
M  V30 757 N 76.8612 -1.46375 0.584142 0
M  V30 758 C 78.2772 -1.57694 0.245929 0
M  V30 759 C 78.4772 -1.57903 -1.25175 0
M  V30 760 O 77.5332 -1.49676 -2.03355 0
M  V30 761 C 78.8462 -2.87028 0.896402 0
M  V30 762 C 80.3942 -3.00662 0.870127 0
M  V30 763 C 80.8692 -4.32734 1.50017 0
M  V30 764 N 82.3602 -4.39436 1.46458 0
M  V30 765 C 83.0952 -5.40248 1.92144 0
M  V30 766 N 82.5912 -6.47726 2.4581 0
M  V30 767 N 84.3842 -5.31459 1.83052 0
M  V30 768 H 76.5352 -1.44483 1.55687 0
M  V30 769 H 78.7982 -0.689291 0.650831 0
M  V30 770 H 78.5042 -2.9269 1.95002 0
M  V30 771 H 78.3782 -3.75014 0.405486 0
M  V30 772 H 80.7652 -2.94581 -0.174871 0
M  V30 773 H 80.8462 -2.14148 1.39908 0
M  V30 774 H 80.4902 -4.39573 2.54437 0
M  V30 775 H 80.4202 -5.18025 0.946432 0
M  V30 776 H 82.9112 -3.62367 1.07231 0
M  V30 777 H 83.2242 -7.20863 2.78525 0
M  V30 778 H 81.5692 -6.48542 2.49836 0
M  V30 779 H 84.7602 -4.46396 1.40883 0
M  V30 780 H 84.9332 -6.09881 2.18973 0
M  V30 781 N 78.3393 -0.321999 -1.54275 0
M  V30 782 C 79.5643 0.285791 -2.05422 0
M  V30 783 C 79.9893 1.45124 -1.19669 0
M  V30 784 O 79.3473 1.80132 -0.205441 0
M  V30 785 C 79.3953 0.69956 -3.53749 0
M  V30 786 O 78.4993 1.8021 -3.70942 0
M  V30 787 H 77.8403 0.0518962 -0.661969 0
M  V30 788 H 80.3703 -0.469954 -1.9913 0
M  V30 789 H 80.3803 0.982649 -3.9599 0
M  V30 790 H 79.0553 -0.152864 -4.15619 0
M  V30 791 H 77.6323 1.51794 -3.40607 0
M  V30 792 N 79.8174 1.5752 -0.0501392 0
M  V30 793 C 80.7504 2.07026 0.959962 0
M  V30 794 C 81.7284 0.970539 1.30458 0
M  V30 795 O 82.9124 1.2424 1.41763 0
M  V30 796 C 80.0394 2.5099 2.27424 0
M  V30 797 C 79.0854 3.72188 2.08275 0
M  V30 798 S 79.9184 5.17888 1.36207 0
M  V30 799 C 81.0744 5.65165 2.6896 0
M  V30 800 H 81.3074 2.9238 0.538631 0
M  V30 801 H 78.8404 1.53547 0.162099 0
M  V30 802 H 80.7984 2.76982 3.02971 0
M  V30 803 H 79.4594 1.65944 2.66686 0
M  V30 804 H 78.6524 4.00866 3.05487 0
M  V30 805 H 78.2544 3.46457 1.40868 0
M  V30 806 H 80.5464 5.70687 3.65133 0
M  V30 807 H 81.4894 6.64394 2.4492 0
M  V30 808 H 81.8974 4.9289 2.75172 0
M  V30 809 N 81.2955 -0.223234 1.56011 0
M  V30 810 C 82.2055 -1.29766 1.95443 0
M  V30 811 C 83.2215 -1.51373 0.858028 0
M  V30 812 O 84.3975 -1.64536 1.16146 0
M  V30 813 C 81.4625 -2.62772 2.26167 0
M  V30 814 C 80.5235 -2.49482 3.49367 0
M  V30 815 C 79.7565 -3.76145 3.78616 0
M  V30 816 O 79.9795 -4.79087 3.09568 0
M  V30 817 O 78.9135 -3.73358 4.72109 0
M  V30 818 H 82.7395 -0.99309 2.87004 0
M  V30 819 H 80.3245 -0.425958 1.43199 0
M  V30 820 H 82.2065 -3.41327 2.47131 0
M  V30 821 H 80.8815 -2.92913 1.37781 0
M  V30 822 H 79.7885 -1.69133 3.33684 0
M  V30 823 H 81.1215 -2.2428 4.38131 0
M  V30 824 N 82.7736 -1.49793 -0.48987 0
M  V30 825 C 83.7036 -1.70201 -1.59856 0
M  V30 826 C 84.6846 -0.55076 -1.60937 0
M  V30 827 O 85.8696 -0.787841 -1.77501 0
M  V30 828 C 82.9996 -1.77882 -2.98287 0
M  V30 829 C 81.9536 -2.92907 -3.12073 0
M  V30 830 C 81.2796 -2.85712 -4.51965 0
M  V30 831 C 82.5796 -4.3369 -2.91051 0
M  V30 832 H 84.2736 -2.63025 -1.43032 0
M  V30 833 H 81.8196 -1.26574 -0.686664 0
M  V30 834 H 83.7726 -1.90744 -3.75759 0
M  V30 835 H 82.4966 -0.816653 -3.16225 0
M  V30 836 H 81.1556 -2.79665 -2.37029 0
M  V30 837 H 80.8036 -1.8738 -4.66795 0
M  V30 838 H 80.5036 -3.62921 -4.62128 0
M  V30 839 H 82.0276 -3.00598 -5.31482 0
M  V30 840 H 83.4416 -4.47555 -3.58284 0
M  V30 841 H 81.8386 -5.12205 -3.12675 0
M  V30 842 H 82.9086 -4.47362 -1.87071 0
M  V30 843 N 84.2517 0.741722 -1.39055 0
M  V30 844 C 85.4987 1.50114 -1.35912 0
M  V30 845 C 85.8267 1.94443 0.0470937 0
M  V30 846 O 85.0817 1.66612 1.02659 0
M  V30 847 C 85.3807 2.7592 -2.27163 0
M  V30 848 C 85.0467 2.50493 -3.74919 0
M  V30 849 C 83.7087 2.43267 -4.1518 0
M  V30 850 C 86.0607 2.28585 -4.684 0
M  V30 851 C 83.3887 2.12166 -5.46994 0
M  V30 852 C 85.7407 1.99002 -6.00484 0
M  V30 853 C 84.4047 1.90241 -6.39816 0
M  V30 854 H 83.6747 0.549306 -0.497336 0
M  V30 855 H 86.3217 0.851896 -1.71508 0
M  V30 856 H 84.6267 3.45553 -1.84663 0
M  V30 857 H 86.3237 3.33923 -2.22028 0
M  V30 858 H 82.9137 2.56992 -3.43006 0
M  V30 859 H 87.0977 2.33139 -4.38132 0
M  V30 860 H 82.3537 2.03901 -5.76398 0
M  V30 861 H 86.5277 1.81057 -6.72452 0
M  V30 862 H 84.1547 1.65907 -7.41875 0
M  V30 863 N 85.7298 1.2412 0.971189 0
M  V30 864 C 87.1458 1.00584 1.23916 0
M  V30 865 C 87.3458 -0.287481 1.99439 0
M  V30 866 O 86.4018 -1.00454 2.31658 0
M  V30 867 C 87.7148 2.21864 2.0297 0
M  V30 868 C 89.2628 2.26452 2.16076 0
M  V30 869 C 89.7378 3.47343 2.98524 0
M  V30 870 N 91.2288 3.47639 3.06107 0
M  V30 871 C 91.9638 4.37837 3.70251 0
M  V30 872 N 91.4598 5.38286 4.36142 0
M  V30 873 N 93.2528 4.25558 3.67228 0
M  V30 874 H 85.4038 2.07236 0.465499 0
M  V30 875 H 87.6668 0.909236 0.268315 0
M  V30 876 H 87.3728 3.15771 1.54861 0
M  V30 877 H 87.2468 2.23698 3.03709 0
M  V30 878 H 89.6338 1.33078 2.6339 0
M  V30 879 H 89.7148 2.28645 1.14696 0
M  V30 880 H 89.3588 4.41029 2.51905 0
M  V30 881 H 89.2888 3.42393 4.00093 0
M  V30 882 H 91.7798 2.74966 2.59233 0
M  V30 883 H 92.0928 6.03352 4.82894 0
M  V30 884 H 90.4378 5.42176 4.34822 0
M  V30 885 H 93.6288 3.46322 3.14927 0
M  V30 886 H 93.8018 4.96054 4.16935 0
M  V30 887 N 87.2079 -1.17134 1.05439 0
M  V30 888 C 88.6239 -1.39454 0.776201 0
M  V30 889 C 88.8239 -1.91454 -0.628307 0
M  V30 890 O 87.8799 -2.10777 -1.39031 0
M  V30 891 C 89.1929 -2.38305 1.83388 0
M  V30 892 C 90.7409 -2.52006 1.85639 0
M  V30 893 C 91.2159 -3.54133 2.90437 0
M  V30 894 N 92.7069 -3.61653 2.89415 0
M  V30 895 C 93.4419 -4.4044 3.67152 0
M  V30 896 N 92.9379 -5.22721 4.54681 0
M  V30 897 N 94.7309 -4.35337 3.55581 0
M  V30 898 H 86.8819 -0.817134 1.96053 0
M  V30 899 H 89.1449 -0.421626 0.849079 0
M  V30 900 H 88.8509 -2.07173 2.84204 0
M  V30 901 H 88.7249 -3.37841 1.67761 0
M  V30 902 H 91.1119 -2.82447 0.85486 0
M  V30 903 H 91.1929 -1.52537 2.05344 0
M  V30 904 H 90.8369 -3.24431 3.90777 0
M  V30 905 H 90.7669 -4.53313 2.67983 0
M  V30 906 H 93.2579 -3.02909 2.25952 0
M  V30 907 H 93.5709 -5.80027 5.10674 0
M  V30 908 H 91.9159 -5.22093 4.58741 0
M  V30 909 H 95.1069 -3.70112 2.86592 0
M  V30 910 H 95.2799 -4.96494 4.1641 0
M  V30 911 N 88.686 -0.835752 -1.33615 0
M  V30 912 C 89.932 -0.439817 -1.98588 0
M  V30 913 C 90.287 0.989274 -1.65019 0
M  V30 914 O 89.58 1.68168 -0.918159 0
M  V30 915 C 89.774 -0.593925 -3.52431 0
M  V30 916 C 89.603 -2.03644 -4.00948 0
M  V30 917 C 88.373 -2.67103 -4.28934 0
M  V30 918 C 90.571 -3.00479 -4.17393 0
M  V30 919 N 88.553 -4.02462 -4.6357 0
M  V30 920 C 89.924 -4.20777 -4.55353 0
M  V30 921 C 91.979 -2.96926 -3.99674 0
M  V30 922 C 90.682 -5.37994 -4.77447 0
M  V30 923 C 92.708 -4.1337 -4.22941 0
M  V30 924 C 92.07 -5.32422 -4.61201 0
M  V30 925 H 88.169 -0.209303 -0.75347 0
M  V30 926 H 90.753 -1.08316 -1.61789 0
M  V30 927 H 88.924 0.019599 -3.88395 0
M  V30 928 H 90.656 -0.169738 -4.04344 0
M  V30 929 H 87.411 -2.18259 -4.20309 0
M  V30 930 H 87.835 -4.72232 -4.85104 0
M  V30 931 H 92.477 -2.06015 -3.69212 0
M  V30 932 H 90.195 -6.29451 -5.06771 0
M  V30 933 H 93.781 -4.12034 -4.10754 0
M  V30 934 H 92.661 -6.21027 -4.78848 0
M  V30 935 N 90.1641 1.46063 -0.591896 0
M  V30 936 C 91.4121 2.01938 -0.0808391 0
M  V30 937 C 91.7331 1.46475 1.28725 0
M  V30 938 O 91.0031 0.652944 1.84698 0
M  V30 939 H 89.5831 0.746516 -0.0268938 0
M  V30 940 H 92.2451 1.79055 -0.769752 0
M  V30 941 H 91.3411 3.12094 -0.0187578 0
M  V30 942 N 91.6422 0.330177 1.54103 0
M  V30 943 C 92.8882 -0.270806 2.00984 0
M  V30 944 C 93.2212 -1.51265 1.21789 0
M  V30 945 O 92.4962 -1.92142 0.301927 0
M  V30 946 C 92.7792 -0.598339 3.55094 0
M  V30 947 C 92.6322 0.654674 4.4501 0
M  V30 948 C 93.9512 -1.41334 4.16789 0
M  V30 949 H 91.0702 -0.0969531 0.730595 0
M  V30 950 H 93.7122 0.448066 1.84641 0
M  V30 951 H 91.8622 -1.21078 3.69151 0
M  V30 952 H 93.5342 1.29285 4.42813 0
M  V30 953 H 91.7772 1.28224 4.14416 0
M  V30 954 H 92.4482 0.380944 5.50684 0
M  V30 955 H 94.9242 -0.895597 4.06347 0
M  V30 956 H 93.8002 -1.61127 5.24718 0
M  V30 957 H 94.0612 -2.41146 3.70541 0
M  V30 958 N 93.1203 -1.57491 0.0584922 0
M  V30 959 C 94.0833 -2.1085 -0.898617 0
M  V30 960 C 95.0833 -1.02964 -1.23511 0
M  V30 961 O 96.2733 -1.29007 -1.17059 0
M  V30 962 C 93.4053 -2.59881 -2.20623 0
M  V30 963 H 94.5983 -2.96715 -0.435936 0
M  V30 964 H 92.1513 -1.55141 -0.190023 0
M  V30 965 H 92.8863 -1.77431 -2.71457 0
M  V30 966 H 92.6713 -3.38727 -1.97501 0
M  V30 967 H 94.1613 -3.01285 -2.89166 0
M  V30 968 N 94.5984 0.214957 -1.56127 0
M  V30 969 C 95.5454 1.26642 -1.92952 0
M  V30 970 C 96.5154 1.46244 -0.78753 0
M  V30 971 O 97.7004 1.59704 -1.04399 0
M  V30 972 C 94.8404 2.6104 -2.25726 0
M  V30 973 C 93.9534 2.49183 -3.52891 0
M  V30 974 C 93.0884 3.76149 -3.7508 0
M  V30 975 C 92.1274 3.59041 -4.95738 0
M  V30 976 N 91.2644 4.77972 -5.14283 0
M  V30 977 H 96.1044 0.945384 -2.82607 0
M  V30 978 H 93.6414 0.455489 -1.3987 0
M  V30 979 H 95.5994 3.39313 -2.42739 0
M  V30 980 H 94.2294 2.91227 -1.39236 0
M  V30 981 H 93.2814 1.6231 -3.44034 0
M  V30 982 H 94.5934 2.32466 -4.41318 0
M  V30 983 H 93.7474 4.62865 -3.92226 0
M  V30 984 H 92.4864 3.95799 -2.84947 0
M  V30 985 H 91.4914 2.7071 -4.78535 0
M  V30 986 H 92.7164 3.40856 -5.87362 0
M  V30 987 H 90.6624 4.97923 -4.27093 0
M  V30 988 H 90.5794 4.64006 -5.96853 0
M  V30 989 H 91.8474 5.66096 -5.35869 0
M  V30 990 N 96.0765 1.50051 0.48192 0
M  V30 991 C 97.0085 1.64263 1.59844 0
M  V30 992 C 98.0215 0.52451 1.54119 0
M  V30 993 O 99.2105 0.797293 1.59704 0
M  V30 994 C 96.3105 1.60102 2.98698 0
M  V30 995 C 95.4835 2.87767 3.29407 0
M  V30 996 C 94.5425 2.76397 4.47762 0
M  V30 997 O 93.5685 3.50348 4.48603 0
M  V30 998 N 94.7705 1.89222 5.48794 0
M  V30 999 H 97.5355 2.60566 1.48073 0
M  V30 1000 H 95.0965 1.47379 0.670149 0
M  V30 1001 H 97.0885 1.50123 3.75826 0
M  V30 1002 H 95.6585 0.715798 3.04294 0
M  V30 1003 H 94.8785 3.11954 2.40994 0
M  V30 1004 H 96.1665 3.72365 3.4673 0
M  V30 1005 H 95.5645 1.28434 5.50928 0
M  V30 1006 H 94.1215 1.85154 6.24949 0
M  V30 1007 N 97.5546 -0.734337 1.39446 0
M  V30 1008 C 98.8036 -1.48937 1.36017 0
M  V30 1009 C 99.1166 -1.95557 -0.0409005 0
M  V30 1010 O 100.323 -2.70779 -0.19778 0
M  V30 1011 C 98.7786 -2.69125 2.38955 0
M  V30 1012 C 98.3866 -2.29452 3.8478 0
M  V30 1013 C 100.131 -3.46944 2.44603 0
M  V30 1014 C 98.0376 -3.46366 4.79358 0
M  V30 1015 H 96.9676 -0.559296 0.505672 0
M  V30 1016 H 99.6186 -0.800983 1.65095 0
M  V30 1017 H 98.0006 -3.40041 2.02948 0
M  V30 1018 H 99.1746 -1.66077 4.29831 0
M  V30 1019 H 97.4896 -1.64723 3.82433 0
M  V30 1020 H 100.087 -4.33907 3.12456 0
M  V30 1021 H 100.43 -3.89454 1.47076 0
M  V30 1022 H 100.963 -2.83056 2.79507 0
M  V30 1023 H 97.7016 -3.08905 5.78151 0
M  V30 1024 H 97.2216 -4.08719 4.38986 0
M  V30 1025 H 98.9006 -4.12691 4.98292 0
M  V30 1026 N 99.0327 -1.24633 -0.964593 0
M  V30 1027 C 100.449 -1.01239 -1.2338 0
M  V30 1028 C 100.649 0.2769 -1.99588 0
M  V30 1029 O 99.7047 0.992241 -2.32187 0
M  V30 1030 C 101.018 -2.22937 -2.01791 0
M  V30 1031 C 102.566 -2.27594 -2.14872 0
M  V30 1032 C 103.041 -3.48921 -2.96678 0
M  V30 1033 N 104.532 -3.49257 -3.04259 0
M  V30 1034 C 105.267 -4.39795 -3.67924 0
M  V30 1035 N 104.763 -5.40591 -4.33281 0
M  V30 1036 N 106.556 -4.275 -3.64966 0
M  V30 1037 H 98.7067 -2.0748 -0.454502 0
M  V30 1038 H 100.97 -0.910647 -0.26349 0
M  V30 1039 H 100.676 -3.16587 -1.53184 0
M  V30 1040 H 100.55 -2.25306 -3.02518 0
M  V30 1041 H 102.937 -1.34473 -2.6268 0
M  V30 1042 H 103.018 -2.2925 -1.13482 0
M  V30 1043 H 102.662 -4.42359 -2.49562 0
M  V30 1044 H 102.592 -3.4451 -3.98272 0
M  V30 1045 H 105.083 -2.76337 -2.57771 0
M  V30 1046 H 105.396 -6.05904 -4.79687 0
M  V30 1047 H 103.741 -5.44475 -4.3194 0
M  V30 1048 H 106.932 -3.47987 -3.13086 0
M  V30 1049 H 107.105 -4.98258 -4.14298 0
M  V30 1050 N 100.511 1.16574 -1.06058 0
M  V30 1051 C 101.739 1.90952 -0.796552 0
M  V30 1052 C 102.154 1.77302 0.648808 0
M  V30 1053 O 101.511 1.11605 1.44397 0
M  V30 1054 C 101.562 3.41736 -1.17894 0
M  V30 1055 O 101.283 3.54975 -2.56758 0
M  V30 1056 C 102.784 4.33169 -0.942308 0
M  V30 1057 H 100.004 0.605594 -0.288959 0
M  V30 1058 H 102.548 1.47777 -1.41358 0
M  V30 1059 H 100.703 3.82623 -0.606491 0
M  V30 1060 H 101.117 4.4846 -2.72 0
M  V30 1061 H 102.591 5.37439 -1.25952 0
M  V30 1062 H 103.068 4.3903 0.122078 0
M  V30 1063 H 103.674 3.98007 -1.49902 0
M  V30 1064 N 101.989 0.842826 1.3317 0
M  V30 1065 C 102.952 0.284065 2.27433 0
M  V30 1066 C 103.952 -0.54948 1.5112 0
M  V30 1067 O 105.142 -0.362699 1.70382 0
M  V30 1068 C 102.274 -0.599384 3.35589 0
M  V30 1069 H 103.467 1.11589 2.78366 0
M  V30 1070 H 101.02 0.616221 1.4364 0
M  V30 1071 H 101.755 -1.45349 2.89904 0
M  V30 1072 H 101.54 -0.00291266 3.921 0
M  V30 1073 H 103.03 -0.983488 4.05854 0
M  V30 1074 N 103.467 -1.45747 0.599634 0
M  V30 1075 C 104.715 -2.01893 0.0915472 0
M  V30 1076 C 105.036 -1.47155 -1.27946 0
M  V30 1077 O 104.306 -0.66273 -1.84349 0
M  V30 1078 H 102.886 -0.746363 0.0308524 0
M  V30 1079 H 105.548 -1.78645 0.779237 0
M  V30 1080 H 104.644 -3.1208 0.0353086 0
M  V30 1081 N 104.945 -0.338344 -1.53925 0
M  V30 1082 C 106.191 0.252842 -2.01822 0
M  V30 1083 C 106.546 1.48612 -1.22197 0
M  V30 1084 O 105.839 1.89238 -0.299892 0
M  V30 1085 C 106.033 0.62448 -3.51902 0
M  V30 1086 C 105.862 -0.571235 -4.46057 0
M  V30 1087 C 104.632 -1.07493 -4.93734 0
M  V30 1088 C 106.83 -1.42807 -4.94076 0
M  V30 1089 N 104.812 -2.23351 -5.71828 0
M  V30 1090 C 106.183 -2.43362 -5.70241 0
M  V30 1091 C 108.238 -1.45412 -4.76193 0
M  V30 1092 C 106.941 -3.46346 -6.30426 0
M  V30 1093 C 108.967 -2.47274 -5.37224 0
M  V30 1094 C 108.329 -3.46555 -6.13253 0
M  V30 1095 H 104.428 0.0559669 -0.779995 0
M  V30 1096 H 107.012 -0.476732 -1.88773 0
M  V30 1097 H 105.183 1.32317 -3.65167 0
M  V30 1098 H 106.915 1.19841 -3.86549 0
M  V30 1099 H 103.67 -0.643848 -4.69203 0
M  V30 1100 H 104.094 -2.81834 -6.15548 0
M  V30 1101 H 108.736 -0.700171 -4.16962 0
M  V30 1102 H 106.454 -4.22638 -6.88769 0
M  V30 1103 H 110.04 -2.50109 -5.25297 0
M  V30 1104 H 108.92 -4.24083 -6.59638 0
M  V30 1105 N 106.423 1.57458 -0.0668435 0
M  V30 1106 C 107.834 1.80776 0.466558 0
M  V30 1107 C 108.185 0.980361 1.69951 0
M  V30 1108 O 107.31 0.201441 2.1546 0
M  V30 1109 C 107.905 3.27881 0.85321 0
M  V30 1110 C 106.464 3.52062 1.3315 0
M  V30 1111 C 105.611 2.75513 0.314264 0
M  V30 1112 H 108.562 1.5598 -0.292588 0
M  V30 1113 H 108.583 3.39659 1.715 0
M  V30 1114 H 108.095 3.88075 -0.0443439 0
M  V30 1115 H 106.196 2.97167 2.24772 0
M  V30 1116 H 106.309 4.60762 1.31285 0
M  V30 1117 H 104.673 2.42123 0.790492 0
M  V30 1118 H 105.456 3.38442 -0.575477 0
M  V30 1119 N 107.901 -0.206675 1.56239 0
M  V30 1120 C 109.149 -0.927007 1.79586 0
M  V30 1121 C 109.47 -1.8427 0.637929 0
M  V30 1122 O 108.74 -1.92849 -0.344398 0
M  V30 1123 H 107.32 -0.345292 0.662407 0
M  V30 1124 H 109.982 -0.21496 1.93711 0
M  V30 1125 H 109.078 -1.52501 2.72305 0
M  V30 1126 N 109.379 -1.50304 -0.473955 0
M  V30 1127 C 110.656 -1.51667 -1.23518 0
M  V30 1128 C 111.036 -0.259701 -2.09496 0
M  V30 1129 O 110.384 0.756986 -2.15597 0
M  V30 1130 C 110.594 -2.81082 -2.06868 0
M  V30 1131 C 111.942 -3.31631 -2.65153 0
M  V30 1132 O 112.966 -2.82384 -2.17113 0
M  V30 1133 O 111.825 -4.17471 -3.52675 0
M  V30 1134 H 108.919 -0.60822 -0.560355 0
M  V30 1135 H 111.465 -1.62592 -0.486011 0
M  V30 1136 H 110.237 -3.64041 -1.4349 0
M  V30 1137 H 109.86 -2.73146 -2.88924 0
M  V30 1138 N 110.857 0.726932 -1.39834 0
M  V30 1139 C 111.807 1.83232 -1.35683 0
M  V30 1140 C 112.791 1.59155 -0.236295 0
M  V30 1141 O 113.983 1.70522 -0.474488 0
M  V30 1142 C 111.112 3.21246 -1.21062 0
M  V30 1143 C 110.198 3.51125 -2.37849 0
M  V30 1144 N 110.589 3.51889 -3.63329 0
M  V30 1145 C 108.887 3.81527 -2.30982 0
M  V30 1146 C 109.588 3.79791 -4.40606 0
M  V30 1147 N 108.564 3.97971 -3.70297 0
M  V30 1148 H 112.366 1.8214 -2.30656 0
M  V30 1149 H 109.88 0.925545 -1.33444 0
M  V30 1150 H 111.877 4.00387 -1.16171 0
M  V30 1151 H 110.537 3.23572 -0.270458 0
M  V30 1152 H 111.548 3.33008 -3.96643 0
M  V30 1153 H 108.225 3.91411 -1.45272 0
M  V30 1154 H 109.615 3.86783 -5.49408 0
M  V30 1155 N 112.336 1.25143 0.95797 0
M  V30 1156 C 113.747 1.08851 1.51685 0
M  V30 1157 C 114.098 -0.33687 1.93286 0
M  V30 1158 O 113.223 -1.22644 1.7829 0
M  V30 1159 C 113.818 1.96978 2.75654 0
M  V30 1160 C 112.377 1.84881 3.27866 0
M  V30 1161 C 111.524 1.91329 2.0072 0
M  V30 1162 H 114.475 1.38478 0.77522 0
M  V30 1163 H 114.496 1.5078 3.4935 0
M  V30 1164 H 114.008 3.00712 2.45345 0
M  V30 1165 H 112.109 0.840182 3.63004 0
M  V30 1166 H 112.222 2.6951 3.96107 0
M  V30 1167 H 110.586 1.35174 2.15871 0
M  V30 1168 H 111.369 2.96661 1.72764 0
M  V30 1169 N 113.814 -1.1601 1.06675 0
M  V30 1170 C 114.744 -2.22688 0.702307 0
M  V30 1171 C 115.725 -1.67306 -0.307032 0
M  V30 1172 O 116.91 -1.93352 -0.181305 0
M  V30 1173 C 114.04 -3.47178 0.092038 0
M  V30 1174 C 112.994 -4.15477 1.02777 0
M  V30 1175 C 112.32 -5.33963 0.28061 0
M  V30 1176 C 113.62 -4.66019 2.35846 0
M  V30 1177 H 115.314 -2.53429 1.59419 0
M  V30 1178 H 112.86 -1.21813 0.767961 0
M  V30 1179 H 114.813 -4.21037 -0.174814 0
M  V30 1180 H 113.537 -3.15749 -0.834877 0
M  V30 1181 H 112.196 -3.43549 1.27944 0
M  V30 1182 H 111.844 -4.98788 -0.649545 0
M  V30 1183 H 111.544 -5.806 0.904258 0
M  V30 1184 H 113.068 -6.10596 0.021396 0
M  V30 1185 H 114.482 -5.3144 2.15045 0
M  V30 1186 H 112.879 -5.23293 2.93743 0
M  V30 1187 H 113.949 -3.82023 2.98641 0
M  V30 1188 N 115.292 -0.849877 -1.32721 0
M  V30 1189 C 116.569 -0.372405 -1.92022 0
M  V30 1190 C 116.949 1.1435 -1.77447 0
M  V30 1191 O 116.297 1.96296 -1.16962 0
M  V30 1192 C 116.507 -0.831482 -3.3895 0
M  V30 1193 C 117.855 -0.845882 -4.16089 0
M  V30 1194 O 118.879 -0.775806 -3.47649 0
M  V30 1195 O 117.738 -0.943753 -5.38289 0
M  V30 1196 H 114.832 -0.107667 -0.819961 0
M  V30 1197 H 117.378 -0.93646 -1.41522 0
M  V30 1198 H 116.15 -1.87448 -3.4348 0
M  V30 1199 H 115.773 -0.24461 -3.96847 0
M  V30 1200 N 116.77 1.45427 -0.607355 0
M  V30 1201 C 117.733 2.28974 0.101693 0
M  V30 1202 C 118.733 1.39754 0.795329 0
M  V30 1203 O 119.923 1.61878 0.643527 0
M  V30 1204 C 117.055 3.20768 1.15414 0
M  V30 1205 H 118.248 2.93147 -0.632844 0
M  V30 1206 H 115.801 1.51945 -0.366391 0
M  V30 1207 H 116.536 2.61395 1.91945 0
M  V30 1208 H 116.321 3.86489 0.66098 0
M  V30 1209 H 117.811 3.83589 1.65073 0
M  V30 1210 N 118.248 0.346503 1.53744 0
M  V30 1211 C 119.211 -0.496439 2.23759 0
M  V30 1212 C 120.211 -1.0252 1.2388 0
M  V30 1213 O 121.401 -0.913974 1.48297 0
M  V30 1214 C 118.533 -1.69187 2.95954 0
M  V30 1215 H 119.726 0.115952 2.99676 0
M  V30 1216 H 117.279 0.0978939 1.55993 0
M  V30 1217 H 118.014 -2.34288 2.24231 0
M  V30 1218 H 117.799 -1.31989 3.69217 0
M  V30 1219 H 119.289 -2.28969 3.49232 0
M  V30 1220 N 119.726 -1.57421 0.075193 0
M  V30 1221 C 120.972 -1.94716 -0.587998 0
M  V30 1222 C 121.327 -0.955205 -1.67014 0
M  V30 1223 O 120.62 0.0219842 -1.91587 0
M  V30 1224 C 120.814 -3.36428 -1.20626 0
M  V30 1225 C 120.643 -4.49317 -0.185541 0
M  V30 1226 C 119.413 -5.04772 0.23099 0
M  V30 1227 C 121.611 -5.11036 0.57854 0
M  V30 1228 N 119.593 -6.01204 1.24206 0
M  V30 1229 C 120.964 -6.02998 1.44199 0
M  V30 1230 C 123.019 -4.93844 0.634237 0
M  V30 1231 C 121.722 -6.79614 2.3562 0
M  V30 1232 C 123.748 -5.71106 1.53597 0
M  V30 1233 C 123.11 -6.6272 2.38709 0
M  V30 1234 H 119.209 -0.759536 -0.186089 0
M  V30 1235 H 121.793 -1.94097 0.153128 0
M  V30 1236 H 119.964 -3.37778 -1.9173 0
M  V30 1237 H 121.696 -3.60951 -1.8302 0
M  V30 1238 H 118.451 -4.73353 -0.152807 0
M  V30 1239 H 118.875 -6.54119 1.74521 0
M  V30 1240 H 123.517 -4.22799 -0.00960004 0
M  V30 1241 H 121.235 -7.49934 3.01038 0
M  V30 1242 H 124.821 -5.59824 1.58394 0
M  V30 1243 H 123.701 -7.2146 3.07352 0
M  V30 1244 N 121.204 0.198386 -1.56346 0
M  V30 1245 C 122.45 0.920648 -1.80698 0
M  V30 1246 C 122.783 1.83045 -0.648697 0
M  V30 1247 O 122.058 1.91308 0.350925 0
M  V30 1248 C 122.341 1.73971 -3.15287 0
M  V30 1249 C 122.194 0.85485 -4.41602 0
M  V30 1250 C 123.513 2.71296 -3.46535 0
M  V30 1251 H 120.632 0.333261 -0.657348 0
M  V30 1252 H 123.274 0.188198 -1.89066 0
M  V30 1253 H 121.424 2.36416 -3.08285 0
M  V30 1254 H 123.096 0.245362 -4.60647 0
M  V30 1255 H 121.339 0.161398 -4.335 0
M  V30 1256 H 122.01 1.46286 -5.32264 0
M  V30 1257 H 124.486 2.18983 -3.53816 0
M  V30 1258 H 123.362 3.2569 -4.41834 0
M  V30 1259 H 123.623 3.5018 -2.69864 0
M  V30 1260 N 122.682 1.50554 0.465978 0
M  V30 1261 C 123.91 1.65563 1.24083 0
M  V30 1262 C 124.325 0.341051 1.85694 0
M  V30 1263 O 123.682 -0.677543 1.69457 0
M  V30 1264 C 123.733 2.75051 2.34583 0
M  V30 1265 O 123.454 4.01413 1.75497 0
M  V30 1266 C 124.955 3.01078 3.25372 0
M  V30 1267 H 122.175 0.55638 0.375077 0
M  V30 1268 H 124.719 1.96807 0.555624 0
M  V30 1269 H 122.874 2.46486 2.9887 0
M  V30 1270 H 123.288 4.62002 2.48303 0
M  V30 1271 H 124.762 3.81339 3.99105 0
M  V30 1272 H 125.239 2.12349 3.84453 0
M  V30 1273 H 125.845 3.31194 2.66816 0
M  V30 1274 N 124.16 -0.719506 1.40217 0
M  V30 1275 C 125.576 -1.02707 1.22161 0
M  V30 1276 C 125.776 -2.0128 0.0940557 0
M  V30 1277 O 124.832 -2.46452 -0.549318 0
M  V30 1278 C 126.145 -1.57454 2.56181 0
M  V30 1279 C 127.693 -1.69458 2.63159 0
M  V30 1280 C 128.168 -2.27611 3.97438 0
M  V30 1281 N 129.659 -2.35002 3.99159 0
M  V30 1282 C 130.394 -2.80972 4.99842 0
M  V30 1283 N 129.89 -3.26723 6.10921 0
M  V30 1284 N 131.683 -2.80321 4.87213 0
M  V30 1285 H 123.834 -0.0660492 2.12297 0
M  V30 1286 H 126.097 -0.0919077 0.943534 0
M  V30 1287 H 125.803 -0.924873 3.39321 0
M  V30 1288 H 125.677 -2.56036 2.76993 0
M  V30 1289 H 128.064 -2.33543 1.80393 0
M  V30 1290 H 128.145 -0.694867 2.46181 0
M  V30 1291 H 127.789 -1.6415 4.80643 0
M  V30 1292 H 127.719 -3.2829 4.11744 0
M  V30 1293 H 130.21 -2.02685 3.18947 0
M  V30 1294 H 130.523 -3.60355 6.8364 0
M  V30 1295 H 128.868 -3.24692 6.14492 0
M  V30 1296 H 132.059 -2.43912 3.9953 0
M  V30 1297 H 132.232 -3.15831 5.65822 0
M  V30 1298 N 125.638 -1.25649 -0.95132 0
M  V30 1299 C 126.884 -1.10757 -1.69884 0
M  V30 1300 C 127.217 0.350061 -1.91019 0
M  V30 1301 O 126.492 1.25783 -1.48354 0
M  V30 1302 C 126.775 -1.86606 -3.07978 0
M  V30 1303 C 126.628 -3.40217 -2.94232 0
M  V30 1304 C 127.947 -1.65182 -4.07925 0
M  V30 1305 H 125.066 -0.40374 -0.616574 0
M  V30 1306 H 127.708 -1.54521 -1.10558 0
M  V30 1307 H 125.858 -1.49409 -3.58621 0
M  V30 1308 H 127.53 -3.87108 -2.50889 0
M  V30 1309 H 125.773 -3.67759 -2.30078 0
M  V30 1310 H 126.444 -3.88505 -3.92133 0
M  V30 1311 H 128.92 -1.9757 -3.66204 0
M  V30 1312 H 127.796 -2.20683 -5.02583 0
M  V30 1313 H 128.057 -0.593933 -4.38092 0
M  V30 1314 N 127.117 1.15442 -1.07289 0
M  V30 1315 C 128.365 1.85845 -0.794096 0
M  V30 1316 C 128.686 1.82692 0.681809 0
M  V30 1317 O 127.956 1.26741 1.49377 0
M  V30 1318 H 126.536 0.688089 -0.290763 0
M  V30 1319 H 129.198 1.39947 -1.3565 0
M  V30 1320 H 128.294 2.91001 -1.12804 0
M  V30 1321 N 128.595 0.856903 1.32268 0
M  V30 1322 C 129.843 0.460474 1.96784 0
M  V30 1323 C 130.164 -0.987701 1.68135 0
M  V30 1324 O 129.434 -1.69058 0.989765 0
M  V30 1325 H 128.014 0.167289 0.728027 0
M  V30 1326 H 130.676 1.09383 1.61312 0
M  V30 1327 H 129.772 0.60739 3.06133 0
M  V30 1328 N 130.073 -1.45103 0.615059 0
M  V30 1329 C 131.023 -2.27679 -0.120966 0
M  V30 1330 C 132.007 -1.3775 -0.831491 0
M  V30 1331 O 133.199 -1.61683 -0.720249 0
M  V30 1332 C 130.328 -3.24767 -1.1127 0
M  V30 1333 C 129.414 -4.22184 -0.402627 0
M  V30 1334 N 129.805 -5.02692 0.559884 0
M  V30 1335 C 128.103 -4.4125 -0.649202 0
M  V30 1336 C 128.804 -5.73421 0.977942 0
M  V30 1337 N 127.78 -5.42657 0.320104 0
M  V30 1338 H 131.582 -2.87325 0.618181 0
M  V30 1339 H 129.096 -1.56345 0.439304 0
M  V30 1340 H 131.093 -3.82666 -1.65446 0
M  V30 1341 H 129.753 -2.66682 -1.85232 0
M  V30 1342 H 130.764 -5.09354 0.936976 0
M  V30 1343 H 127.441 -3.9428 -1.37293 0
M  V30 1344 H 128.831 -6.48107 1.77222 0
M  V30 1345 N 131.551 -0.354651 -1.53558 0
M  V30 1346 C 132.461 0.50515 -2.29097 0
M  V30 1347 C 133.477 1.10223 -1.34636 0
M  V30 1348 O 134.653 1.11553 -1.67684 0
M  V30 1349 C 131.718 1.63479 -3.05738 0
M  V30 1350 C 130.779 1.06636 -4.15845 0
M  V30 1351 C 130.012 2.14217 -4.88822 0
M  V30 1352 O 130.235 3.35137 -4.61562 0
M  V30 1353 O 129.169 1.77887 -5.75013 0
M  V30 1354 H 132.995 -0.109237 -3.03503 0
M  V30 1355 H 130.58 -0.119357 -1.48922 0
M  V30 1356 H 132.462 2.2918 -3.5363 0
M  V30 1357 H 131.137 2.23478 -2.34178 0
M  V30 1358 H 130.044 0.373565 -3.7223 0
M  V30 1359 H 131.377 0.511081 -4.89539 0
M  V30 1360 N 133.029 1.57378 -0.0835403 0
M  V30 1361 C 134.275 1.94217 0.583733 0
M  V30 1362 C 134.608 0.964653 1.68547 0
M  V30 1363 O 133.883 -0.00422258 1.945 0
M  V30 1364 C 134.166 3.41253 1.14972 0
M  V30 1365 C 134.019 4.49768 0.0538277 0
M  V30 1366 C 135.338 3.89352 2.05166 0
M  V30 1367 H 132.457 0.706233 0.210724 0
M  V30 1368 H 135.099 1.89392 -0.1519 0
M  V30 1369 H 133.249 3.45496 1.77665 0
M  V30 1370 H 134.921 4.57641 -0.579851 0
M  V30 1371 H 133.164 4.29432 -0.614068 0
M  V30 1372 H 133.835 5.49817 0.490452 0
M  V30 1373 H 136.311 3.87189 1.52393 0
M  V30 1374 H 135.187 4.92822 2.41698 0
M  V30 1375 H 135.448 3.27973 2.96456 0
M  V30 1376 N 134.507 -0.190092 1.56449 0
M  V30 1377 C 135.737 -0.92443 1.84764 0
M  V30 1378 C 136.145 -1.77146 0.664529 0
M  V30 1379 O 135.488 -1.79812 -0.375957 0
M  V30 1380 C 135.55 -1.86651 3.07248 0
M  V30 1381 C 135.214 -1.20094 4.40938 0
M  V30 1382 C 136.211 -0.575445 5.16706 0
M  V30 1383 C 133.896 -1.2033 4.87674 0
M  V30 1384 C 135.89 0.0388111 6.37388 0
M  V30 1385 C 133.577 -0.585214 6.08291 0
M  V30 1386 C 134.575 0.0347578 6.82991 0
M  V30 1387 O 134.263 0.643147 8.01323 0
M  V30 1388 H 133.995 -0.274974 0.617548 0
M  V30 1389 H 136.549 -0.200788 2.04416 0
M  V30 1390 H 134.779 -2.62998 2.83494 0
M  V30 1391 H 136.468 -2.46907 3.22167 0
M  V30 1392 H 137.234 -0.565728 4.81689 0
M  V30 1393 H 133.113 -1.67526 4.29484 0
M  V30 1394 H 136.657 0.523329 6.95634 0
M  V30 1395 H 132.554 -0.592451 6.42775 0
M  V30 1396 H 133.322 0.540545 8.16713 0
M  V30 1397 N 135.985 -1.50799 -0.457987 0
M  V30 1398 C 137.401 -1.38515 -0.792819 0
M  V30 1399 C 137.601 -0.451409 -1.96379 0
M  V30 1400 O 136.657 0.10112 -2.52297 0
M  V30 1401 C 137.97 -2.80149 -1.09258 0
M  V30 1402 C 139.518 -2.89156 -1.19825 0
M  V30 1403 C 139.993 -4.31651 -1.53106 0
M  V30 1404 N 141.484 -4.34662 -1.60072 0
M  V30 1405 C 142.219 -5.41928 -1.87354 0
M  V30 1406 N 141.715 -6.59384 -2.12568 0
M  V30 1407 N 143.508 -5.29385 -1.88965 0
M  V30 1408 H 135.659 -2.10073 0.313511 0
M  V30 1409 H 137.922 -0.944803 0.0777862 0
M  V30 1410 H 137.628 -3.50374 -0.305084 0
M  V30 1411 H 137.502 -3.18204 -2.02549 0
M  V30 1412 H 139.889 -2.19141 -1.97639 0
M  V30 1413 H 139.97 -2.54626 -0.244821 0
M  V30 1414 H 139.614 -5.02208 -0.758266 0
M  V30 1415 H 139.544 -4.63678 -2.49621 0
M  V30 1416 H 142.035 -3.49973 -1.42573 0
M  V30 1417 H 142.348 -7.36934 -2.32696 0
M  V30 1418 H 140.693 -6.62535 -2.09933 0
M  V30 1419 H 143.884 -4.36616 -1.68772 0
M  V30 1420 H 144.057 -6.13066 -2.09891 0
M  V30 1421 N 137.463 0.71206 -1.40597 0
M  V30 1422 C 138.712 1.46754 -1.38369 0
M  V30 1423 C 139.025 1.95598 0.0097839 0
M  V30 1424 O 140.231 2.71059 0.154677 0
M  V30 1425 C 138.687 2.65289 -2.43207 0
M  V30 1426 C 138.295 2.23301 -3.88382 0
M  V30 1427 C 140.039 3.43008 -2.50091 0
M  V30 1428 C 137.946 3.38696 -4.84808 0
M  V30 1429 H 136.876 0.55118 -0.514506 0
M  V30 1430 H 139.527 0.774616 -1.66349 0
M  V30 1431 H 137.909 3.36769 -2.08332 0
M  V30 1432 H 139.083 1.59218 -4.32419 0
M  V30 1433 H 137.398 1.58618 -3.85006 0
M  V30 1434 H 139.995 4.28881 -3.1932 0
M  V30 1435 H 140.338 3.87065 -1.53253 0
M  V30 1436 H 140.871 2.78574 -2.83974 0
M  V30 1437 H 137.61 2.99668 -5.82992 0
M  V30 1438 H 137.13 4.01683 -4.45433 0
M  V30 1439 H 138.809 4.04712 -5.04794 0
M  V30 1440 N 138.941 1.26152 0.944643 0
M  V30 1441 C 140.352 1.10454 1.50522 0
M  V30 1442 C 140.703 -0.31635 1.93633 0
M  V30 1443 O 139.828 -1.20746 1.79581 0
M  V30 1444 C 140.423 1.99891 2.73549 0
M  V30 1445 C 138.982 1.88348 3.25886 0
M  V30 1446 C 138.129 1.93447 1.9868 0
M  V30 1447 H 141.08 1.39292 0.760489 0
M  V30 1448 H 141.101 1.54477 3.47732 0
M  V30 1449 H 140.613 3.03297 2.42141 0
M  V30 1450 H 138.714 0.878636 3.62092 0
M  V30 1451 H 138.827 2.73696 3.93227 0
M  V30 1452 H 137.191 1.37456 2.14425 0
M  V30 1453 H 137.974 2.98476 1.69607 0
M  V30 1454 N 140.419 -1.14872 1.07899 0
M  V30 1455 C 141.349 -2.2193 0.725887 0
M  V30 1456 C 142.33 -1.67622 -0.28927 0
M  V30 1457 O 143.515 -1.93533 -0.160787 0
M  V30 1458 C 140.645 -3.47061 0.128856 0
M  V30 1459 C 139.599 -4.14363 1.07178 0
M  V30 1460 C 138.925 -5.33636 0.337229 0
M  V30 1461 C 140.225 -4.63492 2.40775 0
M  V30 1462 H 141.919 -2.51724 1.62097 0
M  V30 1463 H 139.465 -1.20991 0.780838 0
M  V30 1464 H 141.418 -4.21199 -0.130147 0
M  V30 1465 H 140.142 -3.16617 -0.80134 0
M  V30 1466 H 138.801 -3.42173 1.3158 0
M  V30 1467 H 138.449 -4.99449 -0.596606 0
M  V30 1468 H 138.149 -5.79609 0.965788 0
M  V30 1469 H 139.673 -6.10539 0.0861567 0
M  V30 1470 H 141.087 -5.2913 2.20669 0
M  V30 1471 H 139.484 -5.20148 2.99276 0
M  V30 1472 H 140.554 -3.78834 3.02676 0
M  V30 1473 N 141.898 -0.863906 -1.31812 0
M  V30 1474 C 143.146 -0.470904 -1.96537 0
M  V30 1475 C 143.467 0.978771 -1.68657 0
M  V30 1476 O 142.737 1.6853 -0.998717 0
M  V30 1477 H 141.317 -0.171148 -0.72713 0
M  V30 1478 H 143.979 -1.10236 -1.60729 0
M  V30 1479 H 143.075 -0.623616 -3.05806 0
M  V30 1480 N 143.376 1.44774 -0.622745 0
M  V30 1481 C 144.604 2.06487 -0.130722 0
M  V30 1482 C 145.019 1.46476 1.19123 0
M  V30 1483 O 144.376 0.584502 1.72887 0
M  V30 1484 C 144.427 3.615 -0.000807207 0
M  V30 1485 O 144.148 4.19274 -1.27048 0
M  V30 1486 C 145.649 4.40229 0.520898 0
M  V30 1487 H 142.869 0.666704 -0.0758106 0
M  V30 1488 H 145.413 1.85779 -0.854774 0
M  V30 1489 H 143.568 3.81498 0.673643 0
M  V30 1490 H 143.982 5.12622 -1.1099 0
M  V30 1491 H 145.456 5.49144 0.560838 0
M  V30 1492 H 145.933 4.1108 1.54627 0
M  V30 1493 H 146.539 4.25131 -0.120018 0
M  V30 1494 N 144.854 0.36279 1.53368 0
M  V30 1495 C 145.817 -0.472679 2.24273 0
M  V30 1496 C 146.817 -1.012 1.24961 0
M  V30 1497 O 148.007 -0.898194 1.49259 0
M  V30 1498 C 145.139 -1.66039 2.97731 0
M  V30 1499 H 146.332 0.14773 2.99536 0
M  V30 1500 H 143.885 0.114434 1.55881 0
M  V30 1501 H 144.62 -2.31896 2.26704 0
M  V30 1502 H 144.405 -1.28066 3.70596 0
M  V30 1503 H 145.895 -2.25252 3.51641 0
M  V30 1504 N 146.332 -1.57332 0.0918853 0
M  V30 1505 C 147.609 -1.85691 -0.614668 0
M  V30 1506 C 147.989 -0.988146 -1.86545 0
M  V30 1507 O 147.337 -0.0597055 -2.28422 0
M  V30 1508 C 147.547 -3.36294 -0.933126 0
M  V30 1509 C 148.895 -4.04275 -1.29796 0
M  V30 1510 O 149.919 -3.41157 -1.02424 0
M  V30 1511 O 148.778 -5.1564 -1.81047 0
M  V30 1512 H 145.872 -0.767802 -0.307261 0
M  V30 1513 H 148.418 -1.69244 0.12434 0
M  V30 1514 H 147.19 -3.91273 -0.0456404 0
M  V30 1515 H 146.813 -3.58076 -1.72822 0
M  V30 1516 N 147.81 0.181792 -1.56548 0
M  V30 1517 C 149.038 0.915947 -1.85521 0
M  V30 1518 C 149.453 1.76282 -0.676016 0
M  V30 1519 O 148.81 1.79012 0.355077 0
M  V30 1520 C 148.861 1.80126 -3.13427 0
M  V30 1521 O 148.582 0.988562 -4.26801 0
M  V30 1522 C 150.083 2.64597 -3.55673 0
M  V30 1523 H 147.303 0.26661 -0.61576 0
M  V30 1524 H 149.847 0.185039 -2.03661 0
M  V30 1525 H 148.002 2.48563 -2.97145 0
M  V30 1526 H 148.416 1.59308 -4.99721 0
M  V30 1527 H 149.89 3.2235 -4.48101 0
M  V30 1528 H 150.367 3.38958 -2.79292 0
M  V30 1529 H 150.973 2.0151 -3.74532 0
M  V30 1530 N 149.288 1.51039 0.449983 0
M  V30 1531 C 150.704 1.38934 0.785462 0
M  V30 1532 C 150.904 0.461817 1.96136 0
M  V30 1533 O 149.96 -0.0877389 2.52348 0
M  V30 1534 C 151.273 2.80724 1.0777 0
M  V30 1535 C 152.821 2.89787 1.1829 0
M  V30 1536 C 153.296 4.32457 1.50815 0
M  V30 1537 N 154.787 4.35505 1.57764 0
M  V30 1538 C 155.522 5.42914 1.84477 0
M  V30 1539 N 155.018 6.60502 2.09068 0
M  V30 1540 N 156.811 5.3038 1.86155 0
M  V30 1541 H 148.962 2.09904 -0.324647 0
M  V30 1542 H 151.225 0.944378 -0.0827957 0
M  V30 1543 H 150.931 3.50531 0.286498 0
M  V30 1544 H 150.805 3.19273 2.00859 0
M  V30 1545 H 153.192 2.20186 1.96474 0
M  V30 1546 H 153.273 2.54752 0.231314 0
M  V30 1547 H 152.917 5.02603 0.731622 0
M  V30 1548 H 152.847 4.64995 2.47158 0
M  V30 1549 H 155.338 3.50724 1.40715 0
M  V30 1550 H 155.651 7.38158 2.28785 0
M  V30 1551 H 153.996 6.63639 2.06416 0
M  V30 1552 H 157.187 4.37505 1.66454 0
M  V30 1553 H 157.36 6.1417 2.06637 0
M  V30 1554 N 150.766 -0.704594 1.40972 0
M  V30 1555 C 151.729 -1.80035 1.41845 0
M  V30 1556 C 152.729 -1.57774 0.310474 0
M  V30 1557 O 153.919 -1.64613 0.56992 0
M  V30 1558 C 151.051 -3.18284 1.22098 0
M  V30 1559 H 152.244 -1.80658 2.3938 0
M  V30 1560 H 149.797 -0.911329 1.26982 0
M  V30 1561 H 150.532 -3.23306 0.253672 0
M  V30 1562 H 150.317 -3.35843 2.02366 0
M  V30 1563 H 151.807 -3.98289 1.25522 0
M  V30 1564 N 152.244 -1.26651 -0.937939 0
M  V30 1565 C 153.472 -1.15173 -1.7188 0
M  V30 1566 C 153.887 0.292668 -1.86518 0
M  V30 1567 O 153.244 1.20014 -1.37488 0
M  V30 1568 C 153.295 -1.81925 -3.12387 0
M  V30 1569 O 153.016 -3.2072 -2.98446 0
M  V30 1570 C 154.517 -1.76442 -4.06673 0
M  V30 1571 H 151.737 -0.400911 -0.538063 0
M  V30 1572 H 154.281 -1.67332 -1.1756 0
M  V30 1573 H 152.436 -1.33696 -3.63599 0
M  V30 1574 H 152.85 -3.53802 -3.872 0
M  V30 1575 H 154.324 -2.27781 -5.02812 0
M  V30 1576 H 154.801 -0.731608 -4.33064 0
M  V30 1577 H 155.407 -2.24238 -3.61382 0
M  V30 1578 N 153.722 1.14298 -1.08507 0
M  V30 1579 C 155.133 1.66926 -0.836227 0
M  V30 1580 C 155.484 1.85576 0.63686 0
M  V30 1581 O 154.609 1.56767 1.49175 0
M  V30 1582 C 155.204 3.03219 -1.51142 0
M  V30 1583 C 153.763 3.52876 -1.30979 0
M  V30 1584 C 152.91 2.2833 -1.57356 0
M  V30 1585 H 155.861 0.983491 -1.24552 0
M  V30 1586 H 155.882 3.68726 -0.939211 0
M  V30 1587 H 155.394 2.89612 -2.58353 0
M  V30 1588 H 153.495 3.71703 -0.258429 0
M  V30 1589 H 153.608 4.33586 -2.03814 0
M  V30 1590 H 151.972 2.34454 -0.995164 0
M  V30 1591 H 152.755 2.17298 -2.65775 0
M  V30 1592 N 155.201 0.870884 1.31352 0
M  V30 1593 C 156.111 0.330783 2.32256 0
M  V30 1594 C 157.127 -0.559767 1.6475 0
M  V30 1595 O 158.303 -0.456263 1.96164 0
M  V30 1596 C 155.368 -0.458137 3.4366 0
M  V30 1597 C 154.429 0.460482 4.26823 0
M  V30 1598 C 153.662 -0.290881 5.32907 0
M  V30 1599 O 153.885 -1.51885 5.49806 0
M  V30 1600 O 152.819 0.351732 6.00871 0
M  V30 1601 H 156.645 1.16718 2.80376 0
M  V30 1602 H 154.23 0.634285 1.35267 0
M  V30 1603 H 156.112 -0.905343 4.1156 0
M  V30 1604 H 154.787 -1.27106 2.97701 0
M  V30 1605 H 153.694 0.956207 3.61673 0
M  V30 1606 H 155.027 1.23903 4.7635 0
M  V30 1607 N 156.679 -1.44442 0.630414 0
M  V30 1608 C 157.629 -2.27794 -0.0968103 0
M  V30 1609 C 158.613 -1.38624 -0.816834 0
M  V30 1610 O 159.805 -1.62438 -0.70306 0
M  V30 1611 C 156.934 -3.25929 -1.07819 0
M  V30 1612 C 156.02 -4.22588 -0.357826 0
M  V30 1613 N 156.411 -5.0207 0.613169 0
M  V30 1614 C 154.709 -4.41914 -0.602365 0
M  V30 1615 C 155.41 -5.72351 1.03871 0
M  V30 1616 N 154.386 -5.42287 0.377642 0
M  V30 1617 H 158.188 -2.86653 0.648621 0
M  V30 1618 H 155.702 -1.55871 0.455862 0
M  V30 1619 H 157.699 -3.84399 -1.61378 0
M  V30 1620 H 156.359 -2.68631 -1.82393 0
M  V30 1621 H 157.37 -5.08331 0.990947 0
M  V30 1622 H 154.047 -3.95714 -1.33103 0
M  V30 1623 H 155.437 -6.4619 1.84086 0
M  V30 1624 N 158.157 -0.370918 -1.53173 0
M  V30 1625 C 159.385 0.217704 -2.05751 0
M  V30 1626 C 159.8 1.42018 -1.24404 0
M  V30 1627 O 159.157 1.80245 -0.286033 0
M  V30 1628 C 159.208 0.605954 -3.56385 0
M  V30 1629 O 158.929 -0.548734 -4.3465 0
M  V30 1630 C 160.43 1.2524 -4.25241 0
M  V30 1631 H 157.65 0.0371659 -0.66997 0
M  V30 1632 H 160.194 -0.530832 -1.9749 0
M  V30 1633 H 158.349 1.3044 -3.6478 0
M  V30 1634 H 158.763 -0.23376 -5.23979 0
M  V30 1635 H 160.237 1.47458 -5.3194 0
M  V30 1636 H 160.714 2.2143 -3.79296 0
M  V30 1637 H 161.32 0.595233 -4.21114 0
M  V30 1638 N 159.635 1.57281 -0.100228 0
M  V30 1639 C 161.046 1.81725 0.428107 0
M  V30 1640 C 161.397 1.01619 1.67833 0
M  V30 1641 O 160.522 0.247098 2.14985 0
M  V30 1642 C 161.117 3.29617 0.78347 0
M  V30 1643 C 159.676 3.54808 1.25653 0
M  V30 1644 C 158.823 2.76118 0.255752 0
M  V30 1645 H 161.774 1.55324 -0.325608 0
M  V30 1646 H 161.795 3.4322 1.64256 0
M  V30 1647 H 161.307 3.87893 -0.12665 0
M  V30 1648 H 159.408 3.01868 2.18418 0
M  V30 1649 H 159.521 4.63443 1.21482 0
M  V30 1650 H 157.885 2.43745 0.738956 0
M  V30 1651 H 158.668 3.37145 -0.647136 0
M  V30 1652 N 161.113 -0.173488 1.56642 0
M  V30 1653 C 162.023 -1.23482 1.99473 0
M  V30 1654 C 163.039 -1.48567 0.905752 0
M  V30 1655 O 164.215 -1.60758 1.21321 0
M  V30 1656 C 161.28 -2.55444 2.34413 0
M  V30 1657 C 160.341 -2.38241 3.57127 0
M  V30 1658 C 159.574 -3.63909 3.90392 0
M  V30 1659 O 159.797 -4.68996 3.24653 0
M  V30 1660 O 158.731 -3.58149 4.83749 0
M  V30 1661 H 162.557 -0.901279 2.90018 0
M  V30 1662 H 160.142 -0.380185 1.44482 0
M  V30 1663 H 162.024 -3.33292 2.57865 0
M  V30 1664 H 160.699 -2.88382 1.4703 0
M  V30 1665 H 159.606 -1.58431 3.38896 0
M  V30 1666 H 160.939 -2.10228 4.45045 0
M  V30 1667 N 162.591 -1.51276 -0.441967 0
M  V30 1668 C 164.002 -1.56244 -1.02199 0
M  V30 1669 C 164.353 -0.383149 -1.92422 0
M  V30 1670 O 163.478 0.500613 -2.1053 0
M  V30 1671 C 164.073 -2.83162 -1.86024 0
M  V30 1672 C 162.632 -2.90716 -2.39084 0
M  V30 1673 C 161.779 -2.50858 -1.18175 0
M  V30 1674 H 164.73 -1.5712 -0.223416 0
M  V30 1675 H 164.751 -2.66663 -2.71425 0
M  V30 1676 H 164.263 -3.68974 -1.20331 0
M  V30 1677 H 162.364 -2.09323 -3.08244 0
M  V30 1678 H 162.477 -3.94266 -2.72198 0
M  V30 1679 H 160.841 -2.03951 -1.52565 0
M  V30 1680 H 161.624 -3.3901 -0.541001 0
M  V30 1681 N 164.069 0.697108 -1.41344 0
M  V30 1682 C 165.346 1.45154 -1.31109 0
M  V30 1683 C 165.726 2.11009 0.0620449 0
M  V30 1684 O 165.074 2.01571 1.07618 0
M  V30 1685 C 165.284 2.47223 -2.46337 0
M  V30 1686 C 166.632 3.1252 -2.87431 0
M  V30 1687 O 167.656 2.57547 -2.46065 0
M  V30 1688 O 166.515 4.12083 -3.58957 0
M  V30 1689 H 163.609 0.646365 -0.515889 0
M  V30 1690 H 166.155 0.727716 -1.53305 0
M  V30 1691 H 164.927 1.97204 -3.37974 0
M  V30 1692 H 164.55 3.27116 -2.2601 0
M  V30 1693 N 165.547 1.27147 0.931209 0
M  V30 1694 C 166.51 1.09615 2.01289 0
M  V30 1695 C 167.51 0.0412581 1.60747 0
M  V30 1696 O 168.7 0.285545 1.71844 0
M  V30 1697 C 165.832 0.669447 3.34262 0
M  V30 1698 H 167.025 2.05662 2.18273 0
M  V30 1699 H 164.578 1.09885 1.11153 0
M  V30 1700 H 165.313 -0.292572 3.22978 0
M  V30 1701 H 165.098 1.43127 3.65044 0
M  V30 1702 H 166.588 0.568921 4.13706 0
M  V30 1703 N 167.025 -1.13721 1.09112 0
M  V30 1704 C 168.274 -1.84275 0.82009 0
M  V30 1705 C 168.587 -1.84253 -0.656509 0
M  V30 1706 O 169.793 -2.50668 -1.04296 0
M  V30 1707 C 168.249 -3.30825 1.41714 0
M  V30 1708 C 167.857 -3.39244 2.92605 0
M  V30 1709 C 169.601 -4.06443 1.22492 0
M  V30 1710 C 167.508 -4.80047 3.45411 0
M  V30 1711 H 166.438 -0.690387 0.30312 0
M  V30 1712 H 169.089 -1.28146 1.31343 0
M  V30 1713 H 167.471 -3.86737 0.851498 0
M  V30 1714 H 168.645 -2.93344 3.55367 0
M  V30 1715 H 166.96 -2.77088 3.10823 0
M  V30 1716 H 169.557 -5.10387 1.59402 0
M  V30 1717 H 169.9 -4.15972 0.165299 0
M  V30 1718 H 170.433 -3.56852 1.75788 0
M  V30 1719 H 167.172 -4.75709 4.50978 0
M  V30 1720 H 166.692 -5.26455 2.87411 0
M  V30 1721 H 168.371 -5.48957 3.42425 0
M  V30 1722 N 168.503 -0.877838 -1.30888 0
M  V30 1723 C 169.743 -0.499301 -1.98208 0
M  V30 1724 C 170.107 0.932649 -1.67826 0
M  V30 1725 O 171.308 1.41694 -2.28421 0
M  V30 1726 C 169.579 -0.758221 -3.49265 0
M  V30 1727 S 171.138 -0.480719 -4.36159 0
M  V30 1728 H 167.956 -0.186062 -0.686223 0
M  V30 1729 H 170.558 -1.13556 -1.59139 0
M  V30 1730 H 169.262 -1.79903 -3.68867 0
M  V30 1731 H 168.793 -0.109247 -3.93248 0
M  V30 1732 H 170.808 0.683698 -4.91467 0
M  V30 1733 N 169.982 1.44106 -0.638065 0
M  V30 1734 C 171.393 1.85316 -0.226894 0
M  V30 1735 C 171.744 1.53399 1.22324 0
M  V30 1736 O 170.869 0.975463 1.93167 0
M  V30 1737 C 171.464 3.3637 -0.405013 0
M  V30 1738 C 170.023 3.76369 -0.0482902 0
M  V30 1739 C 169.17 2.67921 -0.715108 0
M  V30 1740 H 172.121 1.34474 -0.842764 0
M  V30 1741 H 172.142 3.7885 0.354 0
M  V30 1742 H 171.654 3.59569 -1.46053 0
M  V30 1743 H 169.755 3.58784 1.00522 0
M  V30 1744 H 169.868 4.76856 -0.463187 0
M  V30 1745 H 168.232 2.54259 -0.149753 0
M  V30 1746 H 169.015 2.93951 -1.77335 0
M  V30 1747 N 171.46 0.379036 1.52974 0
M  V30 1748 C 172.392 -0.495963 2.2377 0
M  V30 1749 C 173.405 -1.03517 1.25651 0
M  V30 1750 O 174.594 -0.939249 1.51791 0
M  V30 1751 C 171.694 -1.69894 2.93239 0
M  V30 1752 C 170.867 -1.2889 4.17979 0
M  V30 1753 C 169.926 -2.35543 4.70538 0
M  V30 1754 O 168.952 -1.97375 5.33883 0
M  V30 1755 N 170.154 -3.67318 4.49508 0
M  V30 1756 H 172.919 0.110523 2.99496 0
M  V30 1757 H 170.48 0.204878 1.60598 0
M  V30 1758 H 172.472 -2.40747 3.25304 0
M  V30 1759 H 171.042 -2.212 2.20883 0
M  V30 1760 H 170.262 -0.409676 3.92065 0
M  V30 1761 H 171.55 -0.991443 4.99047 0
M  V30 1762 H 170.948 -4.01095 3.98923 0
M  V30 1763 H 169.505 -4.34235 4.8609 0
M  V30 1764 N 172.938 -1.57226 0.108567 0
M  V30 1765 C 173.888 -2.11305 -0.856396 0
M  V30 1766 C 174.872 -1.03129 -1.23504 0
M  V30 1767 O 176.064 -1.29381 -1.20787 0
M  V30 1768 C 173.193 -2.70771 -2.11041 0
M  V30 1769 C 172.279 -3.86011 -1.7566 0
M  V30 1770 N 172.67 -4.93492 -1.10902 0
M  V30 1771 C 170.968 -3.95999 -2.05185 0
M  V30 1772 C 171.669 -5.73984 -0.944308 0
M  V30 1773 N 170.645 -5.2346 -1.46596 0
M  V30 1774 H 174.447 -2.91784 -0.352002 0
M  V30 1775 H 171.961 -1.62126 -0.0942324 0
M  V30 1776 H 173.958 -3.07851 -2.81128 0
M  V30 1777 H 172.618 -1.91751 -2.62034 0
M  V30 1778 H 173.629 -5.1208 -0.774235 0
M  V30 1779 H 170.306 -3.28007 -2.58298 0
M  V30 1780 H 171.696 -6.70479 -0.436813 0
M  V30 1781 N 174.416 0.165178 -1.56732 0
M  V30 1782 C 175.662 0.877389 -1.83503 0
M  V30 1783 C 176.017 1.79602 -0.689996 0
M  V30 1784 O 175.31 1.89023 0.313205 0
M  V30 1785 C 175.504 1.70405 -3.1416 0
M  V30 1786 C 175.333 0.866961 -4.41264 0
M  V30 1787 C 174.103 0.539646 -5.0241 0
M  V30 1788 C 176.301 0.205671 -5.13889 0
M  V30 1789 N 174.283 -0.312946 -6.13102 0
M  V30 1790 C 175.654 -0.507823 -6.17917 0
M  V30 1791 C 177.709 0.124468 -4.97744 0
M  V30 1792 C 176.412 -1.29483 -7.0755 0
M  V30 1793 C 178.438 -0.649222 -5.87826 0
M  V30 1794 C 177.8 -1.35106 -6.91322 0
M  V30 1795 H 173.899 0.299477 -0.722383 0
M  V30 1796 H 176.483 0.143949 -1.94167 0
M  V30 1797 H 174.654 2.40887 -3.04677 0
M  V30 1798 H 176.386 2.35804 -3.28905 0
M  V30 1799 H 173.141 0.871176 -4.65519 0
M  V30 1800 H 173.565 -0.729731 -6.73056 0
M  V30 1801 H 178.207 0.652724 -4.17731 0
M  V30 1802 H 175.925 -1.83441 -7.87004 0
M  V30 1803 H 179.511 -0.713804 -5.77405 0
M  V30 1804 H 178.391 -1.94013 -7.59821 0
M  V30 1805 N 175.894 1.51508 0.433938 0
M  V30 1806 C 176.824 1.76016 1.53429 0
M  V30 1807 C 177.805 0.610112 1.58782 0
M  V30 1808 O 178.99 0.853177 1.74455 0
M  V30 1809 C 176.12 1.88831 2.9148 0
M  V30 1810 C 175.074 3.04288 3.00987 0
M  V30 1811 C 174.4 3.0229 4.4105 0
M  V30 1812 C 175.7 4.44193 2.74754 0
M  V30 1813 H 177.394 2.68152 1.33171 0
M  V30 1814 H 174.94 1.29035 0.639214 0
M  V30 1815 H 176.893 2.04559 3.6842 0
M  V30 1816 H 175.617 0.933455 3.12976 0
M  V30 1817 H 174.276 2.8827 2.26486 0
M  V30 1818 H 173.924 2.04576 4.59519 0
M  V30 1819 H 173.624 3.79822 4.4834 0
M  V30 1820 H 175.148 3.20116 5.1996 0
M  V30 1821 H 176.562 4.60544 3.41426 0
M  V30 1822 H 174.959 5.23457 2.9345 0
M  V30 1823 H 176.029 4.53996 1.70339 0
M  V30 1824 N 177.372 -0.689602 1.41712 0
M  V30 1825 C 178.335 -1.78521 1.43746 0
M  V30 1826 C 179.335 -1.57436 0.327191 0
M  V30 1827 O 180.525 -1.64 0.587348 0
M  V30 1828 C 177.657 -3.16971 1.25467 0
M  V30 1829 H 178.85 -1.78108 2.41283 0
M  V30 1830 H 176.403 -0.89781 1.27942 0
M  V30 1831 H 177.138 -3.23019 0.287948 0
M  V30 1832 H 176.923 -3.33678 2.05917 0
M  V30 1833 H 178.413 -3.96935 1.2974 0
M  V30 1834 N 178.85 -1.27639 -0.924453 0
M  V30 1835 C 180.261 -1.12834 -1.48746 0
M  V30 1836 C 180.612 0.285505 -1.94112 0
M  V30 1837 O 179.737 1.17874 -1.81479 0
M  V30 1838 C 180.332 -2.04217 -2.70334 0
M  V30 1839 C 178.891 -1.93509 -3.22848 0
M  V30 1840 C 178.038 -1.96583 -1.95577 0
M  V30 1841 H 180.989 -1.40484 -0.738233 0
M  V30 1842 H 181.01 -1.59989 -3.4523 0
M  V30 1843 H 180.522 -3.07111 -2.37285 0
M  V30 1844 H 178.623 -0.936131 -3.60649 0
M  V30 1845 H 178.736 -2.79917 -3.88823 0
M  V30 1846 H 177.1 -1.4085 -2.12211 0
M  V30 1847 H 177.883 -3.01137 -1.64837 0
M  V30 1848 N 180.328 1.1314 -1.09713 0
M  V30 1849 C 181.258 2.20748 -0.761102 0
M  V30 1850 C 182.239 1.68061 0.262566 0
M  V30 1851 O 183.424 1.93765 0.129977 0
M  V30 1852 C 180.554 3.46812 -0.184054 0
M  V30 1853 C 179.508 4.12606 -1.13757 0
M  V30 1854 C 178.834 5.33031 -0.422083 0
M  V30 1855 C 180.134 4.59603 -2.48118 0
M  V30 1856 H 181.828 2.49113 -1.66082 0
M  V30 1857 H 179.374 1.19734 -0.799987 0
M  V30 1858 H 181.327 4.21353 0.0631215 0
M  V30 1859 H 180.051 3.17851 0.750868 0
M  V30 1860 H 178.71 3.40036 -1.37007 0
M  V30 1861 H 178.358 5.00335 0.517072 0
M  V30 1862 H 178.058 5.77999 -1.05788 0
M  V30 1863 H 179.582 6.10325 -0.183277 0
M  V30 1864 H 180.996 5.25552 -2.29059 0
M  V30 1865 H 179.393 5.15321 -3.07514 0
M  V30 1866 H 180.463 3.73971 -3.08665 0
M  V30 1867 N 181.806 0.884767 1.30421 0
M  V30 1868 C 182.736 0.367574 2.30589 0
M  V30 1869 C 183.717 -0.549464 1.60981 0
M  V30 1870 O 184.902 -0.46336 1.88591 0
M  V30 1871 C 182.032 -0.418944 3.44764 0
M  V30 1872 C 180.986 0.406316 4.26067 0
M  V30 1873 C 180.312 -0.506793 5.32293 0
M  V30 1874 C 181.612 1.64832 4.95608 0
M  V30 1875 H 183.306 1.20462 2.74097 0
M  V30 1876 H 180.852 0.580695 1.31772 0
M  V30 1877 H 182.805 -0.791395 4.13902 0
M  V30 1878 H 181.529 -1.28964 3.0006 0
M  V30 1879 H 180.188 0.760903 3.58617 0
M  V30 1880 H 179.836 -1.37519 4.83836 0
M  V30 1881 H 179.536 0.0415828 5.87585 0
M  V30 1882 H 181.06 -0.875764 6.04287 0
M  V30 1883 H 182.474 1.34646 5.57264 0
M  V30 1884 H 180.871 2.13688 5.60765 0
M  V30 1885 H 181.941 2.39284 4.21748 0
M  V30 1886 N 183.284 -1.43765 0.645699 0
M  V30 1887 C 184.247 -2.29163 -0.0409488 0
M  V30 1888 C 185.247 -1.41813 -0.757996 0
M  V30 1889 O 186.437 -1.63527 -0.600382 0
M  V30 1890 C 183.569 -3.23716 -1.06869 0
M  V30 1891 H 184.762 -2.91366 0.710345 0
M  V30 1892 H 182.315 -1.5092 0.406547 0
M  V30 1893 H 183.05 -2.66393 -1.84947 0
M  V30 1894 H 182.835 -3.88105 -0.558277 0
M  V30 1895 H 184.325 -3.87831 -1.54845 0
M  V30 1896 N 184.763 -0.387143 -1.52771 0
M  V30 1897 C 185.673 0.456442 -2.30117 0
M  V30 1898 C 186.689 1.07342 -1.36944 0
M  V30 1899 O 187.865 1.07971 -1.70013 0
M  V30 1900 C 184.93 1.56957 -3.09136 0
M  V30 1901 C 183.991 0.977916 -4.18014 0
M  V30 1902 C 183.224 2.038 -4.93256 0
M  V30 1903 O 183.447 3.25271 -4.68567 0
M  V30 1904 O 182.381 1.6565 -5.78657 0
M  V30 1905 H 186.207 -0.17359 -3.03203 0
M  V30 1906 H 183.792 -0.150919 -1.48636 0
M  V30 1907 H 185.674 2.21628 -3.58412 0
M  V30 1908 H 184.349 2.18461 -2.38865 0
M  V30 1909 H 183.256 0.294525 -3.72939 0
M  V30 1910 H 184.589 0.407128 -4.90513 0
M  V30 1911 N 186.241 1.57166 -0.116904 0
M  V30 1912 C 187.204 2.14039 0.819742 0
M  V30 1913 C 188.204 1.07477 1.19605 0
M  V30 1914 O 189.394 1.33263 1.1219 0
M  V30 1915 C 186.526 2.67891 2.10826 0
M  V30 1916 H 187.719 2.98128 0.325511 0
M  V30 1917 H 185.272 1.55739 0.132312 0
M  V30 1918 H 186.007 1.87384 2.64685 0
M  V30 1919 H 185.792 3.45823 1.84793 0
M  V30 1920 H 187.282 3.11809 2.77785 0
M  V30 1921 N 187.719 -0.156864 1.56817 0
M  V30 1922 C 188.965 -0.872416 1.83076 0
M  V30 1923 C 189.298 -1.81261 0.697001 0
M  V30 1924 O 188.573 -1.92171 -0.30008 0
M  V30 1925 C 188.856 -1.65551 3.19789 0
M  V30 1926 C 188.709 -0.737467 4.43713 0
M  V30 1927 C 190.028 -2.62012 3.53606 0
M  V30 1928 H 187.147 -0.315715 0.665953 0
M  V30 1929 H 189.789 -0.138004 1.89498 0
M  V30 1930 H 187.939 -2.28159 3.14445 0
M  V30 1931 H 189.611 -0.123143 4.61136 0
M  V30 1932 H 187.854 -0.0464067 4.33775 0
M  V30 1933 H 188.525 -1.32122 5.35955 0
M  V30 1934 H 191.001 -2.09525 3.59497 0
M  V30 1935 H 189.877 -3.13861 4.50314 0
M  V30 1936 H 190.138 -3.42902 2.79053 0
M  V30 1937 N 189.197 -1.51736 -0.425897 0
M  V30 1938 C 190.445 -1.64644 -1.17204 0
M  V30 1939 C 190.766 -0.370486 -1.91448 0
M  V30 1940 O 190.036 0.614088 -1.86026 0
M  V30 1941 H 188.616 -0.606819 -0.435638 0
M  V30 1942 H 191.278 -1.88713 -0.487177 0
M  V30 1943 H 190.374 -2.47958 -1.89534 0
M  V30 1944 N 190.675 0.682077 -1.42076 0
M  V30 1945 C 191.585 1.82535 -1.47371 0
M  V30 1946 C 192.601 1.7017 -0.363079 0
M  V30 1947 O 193.777 1.91848 -0.612875 0
M  V30 1948 C 190.842 3.18624 -1.36674 0
M  V30 1949 C 189.903 3.42999 -2.58167 0
M  V30 1950 C 189.136 4.72595 -2.4797 0
M  V30 1951 O 189.359 5.50006 -1.5116 0
M  V30 1952 O 188.293 4.98054 -3.37974 0
M  V30 1953 H 192.119 1.81023 -2.43853 0
M  V30 1954 H 189.704 0.836887 -1.2376 0
M  V30 1955 H 191.586 3.99847 -1.33043 0
M  V30 1956 H 190.261 3.20789 -0.433138 0
M  V30 1957 H 189.168 2.61653 -2.67373 0
M  V30 1958 H 190.501 3.45659 -3.50401 0
M  V30 1959 N 192.153 1.28127 0.917671 0
M  V30 1960 C 193.569 1.05749 1.19538 0
M  V30 1961 C 193.769 -0.202633 2.00479 0
M  V30 1962 O 192.825 -0.905382 2.3571 0
M  V30 1963 C 194.138 2.30273 1.93378 0
M  V30 1964 C 195.686 2.35412 2.06277 0
M  V30 1965 C 196.161 3.59692 2.83524 0
M  V30 1966 N 197.652 3.60309 2.91087 0
M  V30 1967 C 198.387 4.53147 3.51348 0
M  V30 1968 N 197.883 5.563 4.12919 0
M  V30 1969 N 199.676 4.40751 3.48849 0
M  V30 1970 H 191.827 2.09024 0.377184 0
M  V30 1971 H 194.09 0.919798 0.22951 0
M  V30 1972 H 193.796 3.22055 1.41328 0
M  V30 1973 H 193.67 2.36378 2.93947 0
M  V30 1974 H 196.057 1.4413 2.57508 0
M  V30 1975 H 196.138 2.33304 1.04895 0
M  V30 1976 H 195.782 4.51316 2.32973 0
M  V30 1977 H 195.712 3.59054 3.85211 0
M  V30 1978 H 198.203 2.85714 2.47338 0
M  V30 1979 H 198.516 6.2329 4.56869 0
M  V30 1980 H 196.861 5.60131 4.11435 0
M  V30 1981 H 200.052 3.59367 2.99955 0
M  V30 1982 H 200.225 5.13291 3.9552 0
M  V30 1983 N 193.631 -1.12557 1.10312 0
M  V30 1984 C 194.561 -2.20341 0.772798 0
M  V30 1985 C 195.542 -1.68198 -0.25365 0
M  V30 1986 O 196.727 -1.93831 -0.119699 0
M  V30 1987 C 193.857 -3.46709 0.202443 0
M  V30 1988 C 192.811 -4.11996 1.15943 0
M  V30 1989 C 192.137 -5.328 0.450345 0
M  V30 1990 C 193.437 -4.5828 2.50552 0
M  V30 1991 H 195.131 -2.48229 1.674 0
M  V30 1992 H 192.677 -1.19308 0.806326 0
M  V30 1993 H 194.63 -4.2138 -0.0407752 0
M  V30 1994 H 193.354 -3.18245 -0.734001 0
M  V30 1995 H 192.013 -3.39305 1.38808 0
M  V30 1996 H 191.661 -5.00602 -0.490531 0
M  V30 1997 H 191.361 -5.7743 1.08851 0
M  V30 1998 H 192.885 -6.10219 0.215642 0
M  V30 1999 H 194.299 -5.2433 2.31843 0
M  V30 2000 H 192.696 -5.13683 3.10242 0
M  V30 2001 H 193.766 -3.72329 3.10643 0
M  V30 2002 N 195.109 -0.891671 -1.2995 0
M  V30 2003 C 196.525 -0.58662 -1.48428 0
M  V30 2004 C 196.725 0.873951 -1.81561 0
M  V30 2005 O 195.781 1.65471 -1.90724 0
M  V30 2006 C 197.094 -1.50553 -2.60296 0
M  V30 2007 C 198.642 -1.50988 -2.74175 0
M  V30 2008 C 199.117 -2.41488 -3.89163 0
M  V30 2009 N 200.608 -2.39489 -3.96483 0
M  V30 2010 C 201.343 -3.06223 -4.84784 0
M  V30 2011 N 200.839 -3.82206 -5.77833 0
M  V30 2012 N 202.632 -2.95421 -4.78208 0
M  V30 2013 H 194.783 -1.83644 -1.06718 0
M  V30 2014 H 197.046 -0.786455 -0.529332 0
M  V30 2015 H 196.752 -2.54581 -2.42654 0
M  V30 2016 H 196.626 -1.22008 -3.56923 0
M  V30 2017 H 199.013 -0.47708 -2.91218 0
M  V30 2018 H 199.094 -1.83567 -1.78148 0
M  V30 2019 H 198.738 -3.44857 -3.72876 0
M  V30 2020 H 198.668 -2.06222 -4.84541 0
M  V30 2021 H 201.159 -1.84278 -3.29924 0
M  V30 2022 H 201.472 -4.302 -6.41988 0
M  V30 2023 H 199.817 -3.86313 -5.77743 0
M  V30 2024 H 203.008 -2.35581 -4.04499 0
M  V30 2025 H 203.181 -3.47704 -5.46814 0
M  V30 2026 N 196.587 1.43421 -0.653314 0
M  V30 2027 C 197.815 2.06163 -0.174491 0
M  V30 2028 C 198.23 1.48969 1.1599 0
M  V30 2029 O 197.587 0.621042 1.71608 0
M  V30 2030 C 197.638 3.61417 -0.0774865 0
M  V30 2031 O 197.359 4.16485 -1.35912 0
M  V30 2032 C 198.86 4.41235 0.427402 0
M  V30 2033 H 196.08 0.664946 -0.0899353 0
M  V30 2034 H 198.624 1.83924 -0.893988 0
M  V30 2035 H 196.779 3.82841 0.59257 0
M  V30 2036 H 197.193 5.10153 -1.21839 0
M  V30 2037 H 198.667 5.5021 0.44423 0
M  V30 2038 H 199.144 4.14268 1.45873 0
M  V30 2039 H 199.75 4.2478 -0.210167 0
M  V30 2040 N 198.065 0.39524 1.52563 0
M  V30 2041 C 199.481 0.0454682 1.59535 0
M  V30 2042 C 199.681 -1.44056 1.4089 0
M  V30 2043 O 198.737 -2.20579 1.22888 0
M  V30 2044 C 200.05 0.527963 2.96029 0
M  V30 2045 C 201.598 0.484733 3.09224 0
M  V30 2046 C 202.073 0.943512 4.48176 0
M  V30 2047 N 203.564 0.899765 4.54377 0
M  V30 2048 C 204.299 1.22609 5.60138 0
M  V30 2049 N 203.795 1.62319 6.73516 0
M  V30 2050 N 205.588 1.14696 5.50274 0
M  V30 2051 H 197.739 1.36261 1.62931 0
M  V30 2052 H 200.002 0.558887 0.765735 0
M  V30 2053 H 199.708 1.56607 3.14908 0
M  V30 2054 H 199.582 -0.0698056 3.77135 0
M  V30 2055 H 201.969 -0.544298 2.90037 0
M  V30 2056 H 202.05 1.11838 2.30056 0
M  V30 2057 H 201.694 1.9708 4.68104 0
M  V30 2058 H 201.624 0.286817 5.25818 0
M  V30 2059 H 204.115 0.607632 3.72983 0
M  V30 2060 H 204.428 1.85567 7.5019 0
M  V30 2061 H 202.773 1.66211 6.74833 0
M  V30 2062 H 205.964 0.835701 4.6058 0
M  V30 2063 H 206.137 1.40459 6.32594 0
M  V30 2064 N 199.544 -1.57102 0.125237 0
M  V30 2065 C 200.769 -2.0019 -0.542101 0
M  V30 2066 C 201.194 -1.00449 -1.59034 0
M  V30 2067 O 200.552 0.0229423 -1.81285 0
M  V30 2068 C 200.6 -3.42129 -1.13929 0
M  V30 2069 O 199.704 -3.45307 -2.2547 0
M  V30 2070 H 199.045 -0.650171 -0.134812 0
M  V30 2071 H 201.575 -2.03461 0.215553 0
M  V30 2072 H 201.585 -3.80471 -1.4733 0
M  V30 2073 H 200.26 -4.14237 -0.371531 0
M  V30 2074 H 198.837 -3.1879 -1.93462 0
M  V30 2075 N 201.022 0.148545 -1.56898 0
M  V30 2076 C 202.438 0.501131 -1.51528 0
M  V30 2077 C 202.638 1.83458 -0.833399 0
M  V30 2078 O 201.694 2.49259 -0.40328 0
M  V30 2079 C 203.007 0.512864 -2.96294 0
M  V30 2080 C 204.555 0.598487 -3.07225 0
M  V30 2081 C 205.03 0.640897 -4.53494 0
M  V30 2082 N 206.521 0.703163 -4.57832 0
M  V30 2083 C 207.256 0.756935 -5.68382 0
M  V30 2084 N 206.752 0.770147 -6.88506 0
M  V30 2085 N 208.545 0.797698 -5.56411 0
M  V30 2086 H 200.696 -0.725532 -1.99624 0
M  V30 2087 H 202.959 -0.264358 -0.910395 0
M  V30 2088 H 202.665 -0.398691 -3.49433 0
M  V30 2089 H 202.539 1.35133 -3.52163 0
M  V30 2090 H 204.926 1.50046 -2.54106 0
M  V30 2091 H 205.007 -0.267093 -2.54402 0
M  V30 2092 H 204.651 -0.256915 -5.0725 0
M  V30 2093 H 204.581 1.52295 -5.04097 0
M  V30 2094 H 207.072 0.700314 -3.71354 0
M  V30 2095 H 207.385 0.812983 -7.68512 0
M  V30 2096 H 205.73 0.738049 -6.9107 0
M  V30 2097 H 208.921 0.784535 -4.61479 0
M  V30 2098 H 209.094 0.83614 -6.42583 0
M  V30 2099 N 202.5 1.5196 0.417844 0
M  V30 2100 C 203.43 1.77634 1.51554 0
M  V30 2101 C 204.411 0.626918 1.58126 0
M  V30 2102 O 205.596 0.871632 1.7354 0
M  V30 2103 C 202.726 1.91911 2.8946 0
M  V30 2104 C 201.68 3.07463 2.97743 0
M  V30 2105 C 201.006 3.06951 4.37819 0
M  V30 2106 C 202.306 4.47082 2.70027 0
M  V30 2107 H 204 2.6955 1.3032 0
M  V30 2108 H 201.546 1.29706 0.625492 0
M  V30 2109 H 203.499 2.08455 3.6623 0
M  V30 2110 H 202.223 0.966598 3.11969 0
M  V30 2111 H 200.882 2.90656 2.23416 0
M  V30 2112 H 200.53 2.09438 4.57323 0
M  V30 2113 H 200.23 3.84556 4.44286 0
M  V30 2114 H 201.754 3.25613 5.16535 0
M  V30 2115 H 203.168 4.6414 3.36522 0
M  V30 2116 H 201.565 5.2654 2.87881 0
M  V30 2117 H 202.635 4.55777 1.65514 0
M  V30 2118 N 203.978 -0.674533 1.42435 0
M  V30 2119 C 205.255 -1.4305 1.33402 0
M  V30 2120 C 205.635 -2.11081 -0.0284674 0
M  V30 2121 O 204.983 -2.03257 -1.04397 0
M  V30 2122 C 205.193 -2.43272 2.50239 0
M  V30 2123 C 206.541 -3.07907 2.92367 0
M  V30 2124 O 207.565 -2.53599 2.50132 0
M  V30 2125 O 206.424 -4.0632 3.65467 0
M  V30 2126 H 203.518 -0.638076 0.526106 0
M  V30 2127 H 206.064 -0.703235 1.54443 0
M  V30 2128 H 204.836 -1.91803 3.41068 0
M  V30 2129 H 204.459 -3.23479 2.31186 0
M  V30 2130 N 205.456 -1.28612 -0.910864 0
M  V30 2131 C 206.681 -1.1891 -1.69927 0
M  V30 2132 C 207.106 0.248372 -1.86453 0
M  V30 2133 O 206.464 1.17961 -1.37676 0
M  V30 2134 C 206.512 -1.89578 -3.06745 0
M  V30 2135 O 205.616 -1.20521 -3.94396 0
M  V30 2136 H 204.957 -0.412632 -0.520222 0
M  V30 2137 H 207.487 -1.69985 -1.1387 0
M  V30 2138 H 207.497 -1.97597 -3.56958 0
M  V30 2139 H 206.172 -2.94136 -2.94035 0
M  V30 2140 H 204.749 -1.20684 -3.52831 0
M  V30 2141 N 206.934 1.1197 -1.10907 0
M  V30 2142 C 208.181 1.83588 -0.854507 0
M  V30 2143 C 208.509 1.84357 0.6199 0
M  V30 2144 O 207.764 1.28809 1.47332 0
M  V30 2145 C 208.063 3.30749 -1.35425 0
M  V30 2146 C 207.729 3.50146 -2.84093 0
M  V30 2147 C 206.391 3.55148 -3.2469 0
M  V30 2148 C 208.743 3.56857 -3.79872 0
M  V30 2149 C 206.071 3.6441 -4.59806 0
M  V30 2150 C 208.423 3.6765 -5.14797 0
M  V30 2151 C 207.087 3.7091 -5.54961 0
M  V30 2152 H 206.357 0.671795 -0.312686 0
M  V30 2153 H 209.004 1.32091 -1.38652 0
M  V30 2154 H 207.309 3.84703 -0.742361 0
M  V30 2155 H 209.006 3.8464 -1.1337 0
M  V30 2156 H 205.596 3.46919 -2.51685 0
M  V30 2157 H 209.78 3.52258 -3.49611 0
M  V30 2158 H 205.036 3.65208 -4.9034 0
M  V30 2159 H 209.21 3.71786 -5.88853 0
M  V30 2160 H 206.837 3.7784 -6.59652 0
M  V30 2161 N 208.412 0.89855 1.29475 0
M  V30 2162 C 209.322 0.379974 2.31502 0
M  V30 2163 C 210.338 -0.524695 1.659 0
M  V30 2164 O 211.514 -0.414551 1.97087 0
M  V30 2165 C 208.579 -0.385138 3.44554 0
M  V30 2166 C 207.64 0.550914 4.2575 0
M  V30 2167 C 206.873 -0.177778 5.33404 0
M  V30 2168 O 207.096 -1.40189 5.52904 0
M  V30 2169 O 206.03 0.479106 5.9999 0
M  V30 2170 H 209.856 1.22639 2.77837 0
M  V30 2171 H 207.441 0.662834 1.33891 0
M  V30 2172 H 209.323 -0.817841 4.13388 0
M  V30 2173 H 207.998 -1.20763 3.0033 0
M  V30 2174 H 206.905 1.03271 3.59564 0
M  V30 2175 H 208.238 1.33979 4.73614 0
M  V30 2176 N 209.89 -1.43072 0.660911 0
M  V30 2177 C 210.822 -2.29108 -0.0647641 0
M  V30 2178 C 211.835 -1.42928 -0.779448 0
M  V30 2179 O 213.024 -1.66788 -0.635921 0
M  V30 2180 C 210.124 -3.20032 -1.11503 0
M  V30 2181 C 209.297 -4.34792 -0.476955 0
M  V30 2182 C 208.356 -5.06534 -1.42513 0
M  V30 2183 O 207.382 -5.61538 -0.930771 0
M  V30 2184 N 208.584 -5.1075 -2.75889 0
M  V30 2185 H 211.349 -2.92029 0.673731 0
M  V30 2186 H 208.91 -1.53846 0.50427 0
M  V30 2187 H 210.902 -3.64892 -1.75032 0
M  V30 2188 H 209.472 -2.58658 -1.75541 0
M  V30 2189 H 208.692 -3.92752 0.337572 0
M  V30 2190 H 209.98 -5.0879 -0.0318525 0
M  V30 2191 H 209.378 -4.67447 -3.18606 0
M  V30 2192 H 207.935 -5.59302 -3.347 0
M  V30 2193 N 211.368 -0.403325 -1.52352 0
M  V30 2194 C 212.784 -0.0539281 -1.59509 0
M  V30 2195 C 212.984 1.43307 -1.41652 0
M  V30 2196 O 212.04 2.19924 -1.24056 0
M  V30 2197 C 213.353 -0.543654 -2.95745 0
M  V30 2198 C 214.901 -0.501125 -3.08962 0
M  V30 2199 C 215.376 -0.967267 -4.47669 0
M  V30 2200 N 216.867 -0.923849 -4.53893 0
M  V30 2201 C 217.602 -1.25578 -5.5948 0
M  V30 2202 N 217.098 -1.65889 -6.72646 0
M  V30 2203 N 218.891 -1.17613 -5.49658 0
M  V30 2204 H 211.042 -1.37123 -1.62206 0
M  V30 2205 H 213.305 -0.56294 -0.76276 0
M  V30 2206 H 213.011 -1.58275 -3.14073 0
M  V30 2207 H 212.885 0.0498042 -3.77167 0
M  V30 2208 H 215.272 0.528909 -2.90321 0
M  V30 2209 H 215.353 -1.13056 -2.2946 0
M  V30 2210 H 214.997 -1.9956 -4.67053 0
M  V30 2211 H 214.927 -0.314698 -5.25659 0
M  V30 2212 H 217.418 -0.627403 -3.72655 0
M  V30 2213 H 217.731 -1.89543 -7.49195 0
M  V30 2214 H 216.076 -1.69787 -6.73942 0
M  V30 2215 H 219.267 -0.860115 -4.6013 0
M  V30 2216 H 219.44 -1.43812 -6.3184 0
M  V30 2217 N 212.846 1.57033 -0.133567 0
M  V30 2218 C 214.123 1.87256 0.56522 0
M  V30 2219 C 214.503 1.03726 1.83859 0
M  V30 2220 O 213.851 0.120247 2.28183 0
M  V30 2221 C 214.061 3.3865 0.843636 0
M  V30 2222 C 215.409 4.07574 1.19032 0
M  V30 2223 O 216.433 3.43752 0.933429 0
M  V30 2224 O 215.292 5.20259 1.67312 0
M  V30 2225 H 212.386 0.775678 0.286796 0
M  V30 2226 H 214.932 1.68855 -0.169168 0
M  V30 2227 H 213.704 3.91257 -0.0581149 0
M  V30 2228 H 213.327 3.62532 1.63268 0
M  V30 2229 N 214.325 -0.140222 1.56975 0
M  V30 2230 C 215.602 -0.880769 1.74648 0
M  V30 2231 C 215.982 -1.99036 0.703404 0
M  V30 2232 O 215.33 -2.26821 -0.27648 0
M  V30 2233 C 215.54 -1.417 3.18939 0
M  V30 2234 C 216.888 -1.87774 3.80823 0
M  V30 2235 O 217.912 -1.51427 3.2241 0
M  V30 2236 O 216.771 -2.54827 4.83452 0
M  V30 2237 H 213.865 -0.416713 0.714338 0
M  V30 2238 H 216.411 -0.125618 1.69234 0
M  V30 2239 H 215.183 -0.619902 3.86359 0
M  V30 2240 H 214.806 -2.23546 3.28805 0
M  V30 2241 N 215.803 -1.52179 -0.40978 0
M  V30 2242 C 216.753 -1.71857 -1.49831 0
M  V30 2243 C 217.737 -0.572469 -1.50372 0
M  V30 2244 O 218.929 -0.829509 -1.56359 0
M  V30 2245 C 216.058 -1.87206 -2.87765 0
M  V30 2246 C 215.144 -3.07685 -2.91875 0
M  V30 2247 N 215.535 -4.30403 -2.65683 0
M  V30 2248 C 213.833 -3.07505 -3.23043 0
M  V30 2249 C 214.534 -5.11868 -2.76344 0
M  V30 2250 N 213.51 -4.47101 -3.09195 0
M  V30 2251 H 217.312 -2.64381 -1.28375 0
M  V30 2252 H 214.826 -1.50203 -0.617479 0
M  V30 2253 H 216.823 -1.99419 -3.66111 0
M  V30 2254 H 215.483 -0.958814 -3.10221 0
M  V30 2255 H 216.494 -4.58887 -2.4009 0
M  V30 2256 H 213.171 -2.25915 -3.51096 0
M  V30 2257 H 214.561 -6.19634 -2.59814 0
M  V30 2258 N 217.281 0.66697 -1.42791 0
M  V30 2259 C 218.527 1.4291 -1.43891 0
M  V30 2260 C 218.86 1.94114 -0.0578972 0
M  V30 2261 O 218.135 1.71414 0.91911 0
M  V30 2262 C 218.418 2.62049 -2.46987 0
M  V30 2263 C 218.271 2.16426 -3.94309 0
M  V30 2264 C 219.59 3.64266 -2.46978 0
M  V30 2265 H 216.709 0.518306 -0.523954 0
M  V30 2266 H 219.351 0.757321 -1.74255 0
M  V30 2267 H 217.501 3.19361 -2.21225 0
M  V30 2268 H 219.173 1.64221 -4.31079 0
M  V30 2269 H 217.416 1.47925 -4.078 0
M  V30 2270 H 218.087 3.02038 -4.62036 0
M  V30 2271 H 220.563 3.16686 -2.69906 0
M  V30 2272 H 219.439 4.45196 -3.21079 0
M  V30 2273 H 219.7 4.15927 -1.49857 0
M  V30 2274 N 218.759 1.29093 0.90403 0
M  V30 2275 C 220.175 1.07011 1.1841 0
M  V30 2276 C 220.375 -0.181358 2.00682 0
M  V30 2277 O 219.431 -0.880331 2.36657 0
M  V30 2278 C 220.744 2.32311 1.90924 0
M  V30 2279 C 222.292 2.37587 2.03768 0
M  V30 2280 C 222.767 3.62679 2.79693 0
M  V30 2281 N 224.258 3.63376 2.87249 0
M  V30 2282 C 224.993 4.56848 3.46522 0
M  V30 2283 N 224.489 5.60648 4.06996 0
M  V30 2284 N 226.282 4.44426 3.44154 0
M  V30 2285 H 218.433 2.09412 0.354993 0
M  V30 2286 H 220.696 0.922181 0.219742 0
M  V30 2287 H 220.402 3.23536 1.37905 0
M  V30 2288 H 220.276 2.39483 2.91424 0
M  V30 2289 H 222.663 1.46853 2.55965 0
M  V30 2290 H 222.744 2.34403 1.02415 0
M  V30 2291 H 222.388 4.53762 2.28173 0
M  V30 2292 H 222.318 3.63119 3.81381 0
M  V30 2293 H 224.809 2.88321 2.44293 0
M  V30 2294 H 225.122 6.28101 4.50232 0
M  V30 2295 H 223.467 5.64463 4.05471 0
M  V30 2296 H 226.658 3.62529 2.96126 0
M  V30 2297 H 226.831 5.17457 3.90054 0
M  V30 2298 N 220.237 -1.11381 1.11499 0
M  V30 2299 C 221.2 -2.15622 0.777153 0
M  V30 2300 C 222.2 -1.59504 -0.203779 0
M  V30 2301 O 223.39 -1.74188 0.020782 0
M  V30 2302 C 220.522 -3.40556 0.153116 0
M  V30 2303 H 221.715 -2.47021 1.70061 0
M  V30 2304 H 219.268 -1.26577 0.916952 0
M  V30 2305 H 220.003 -3.14767 -0.780536 0
M  V30 2306 H 219.788 -3.8257 0.859238 0
M  V30 2307 H 221.278 -4.17546 -0.0671044 0
M  V30 2308 N 221.715 -0.905404 -1.28997 0
M  V30 2309 C 222.943 -0.549846 -1.9946 0
M  V30 2310 C 223.358 0.866834 -1.67724 0
M  V30 2311 O 222.715 1.57298 -0.925404 0
M  V30 2312 C 222.766 -0.739387 -3.53858 0
M  V30 2313 O 222.487 -2.10031 -3.84472 0
M  V30 2314 C 223.988 -0.389541 -4.41585 0
M  V30 2315 H 221.208 -0.210429 -0.637151 0
M  V30 2316 H 223.752 -1.21632 -1.64396 0
M  V30 2317 H 221.907 -0.120023 -3.87214 0
M  V30 2318 H 222.321 -2.13385 -4.79132 0
M  V30 2319 H 223.795 -0.572972 -5.49018 0
M  V30 2320 H 224.272 0.673756 -4.34001 0
M  V30 2321 H 224.878 -0.986089 -4.1371 0
M  V30 2322 N 223.193 1.4272 -0.668489 0
M  V30 2323 C 224.442 2.00846 -0.185389 0
M  V30 2324 C 224.755 1.53442 1.21305 0
M  V30 2325 O 225.961 2.03944 1.79218 0
M  V30 2326 C 224.417 3.58805 -0.280591 0
M  V30 2327 C 224.025 4.15198 -1.68268 0
M  V30 2328 C 225.769 4.24255 0.14412 0
M  V30 2329 C 223.676 5.655 -1.73099 0
M  V30 2330 H 222.606 0.751145 -0.0655475 0
M  V30 2331 H 225.257 1.63516 -0.832752 0
M  V30 2332 H 223.639 3.93608 0.434553 0
M  V30 2333 H 224.813 3.91866 -2.42441 0
M  V30 2334 H 223.128 3.62176 -2.05469 0
M  V30 2335 H 225.725 5.34547 0.128086 0
M  V30 2336 H 226.068 3.99277 1.17827 0
M  V30 2337 H 226.601 3.94389 -0.519798 0
M  V30 2338 H 223.34 5.95268 -2.74475 0
M  V30 2339 H 222.86 5.90842 -1.03274 0
M  V30 2340 H 224.539 6.29808 -1.48158 0
M  V30 2341 N 224.671 0.411399 1.52136 0
M  V30 2342 C 225.899 -0.163076 2.06256 0
M  V30 2343 C 226.314 -1.3867 1.28125 0
M  V30 2344 O 225.671 -1.79423 0.333721 0
M  V30 2345 C 225.722 -0.511252 3.57867 0
M  V30 2346 O 225.443 0.66378 4.33042 0
M  V30 2347 C 226.944 -1.13921 4.28412 0
M  V30 2348 H 224.164 -0.0193897 0.67072 0
M  V30 2349 H 226.708 0.583007 1.96013 0
M  V30 2350 H 224.863 -1.20723 3.6811 0
M  V30 2351 H 225.277 0.372601 5.23175 0
M  V30 2352 H 226.751 -1.33302 5.35663 0
M  V30 2353 H 227.228 -2.11296 3.85033 0
M  V30 2354 H 227.834 -0.483373 4.22544 0
M  V30 2355 N 226.149 -1.5696 0.141893 0
M  V30 2356 C 227.426 -1.87553 -0.555281 0
M  V30 2357 C 227.806 -1.04699 -1.83306 0
M  V30 2358 O 227.154 -0.132346 -2.28116 0
M  V30 2359 C 227.364 -3.39093 -0.825664 0
M  V30 2360 C 228.712 -4.08199 -1.16869 0
M  V30 2361 O 229.736 -3.44242 -0.915185 0
M  V30 2362 O 228.595 -5.21139 -1.6455 0
M  V30 2363 H 225.689 -0.777188 -0.282679 0
M  V30 2364 H 228.235 -1.68763 0.17812 0
M  V30 2365 H 227.007 -3.91221 0.0788633 0
M  V30 2366 H 226.63 -3.63393 -1.61343 0
M  V30 2367 N 227.627 0.131896 -1.57047 0
M  V30 2368 C 228.557 1.16384 -2.02428 0
M  V30 2369 C 229.538 1.43936 -0.90644 0
M  V30 2370 O 230.723 1.54599 -1.17528 0
M  V30 2371 C 227.853 2.49328 -2.4177 0
M  V30 2372 C 226.807 2.36266 -3.56879 0
M  V30 2373 C 226.133 3.74057 -3.8208 0
M  V30 2374 C 227.433 1.834 -4.89042 0
M  V30 2375 H 229.127 0.786433 -2.88887 0
M  V30 2376 H 226.673 0.376855 -1.38981 0
M  V30 2377 H 228.626 3.21759 -2.7212 0
M  V30 2378 H 227.35 2.88934 -1.52266 0
M  V30 2379 H 226.009 1.66286 -3.26718 0
M  V30 2380 H 225.657 4.11125 -2.89803 0
M  V30 2381 H 225.357 3.66174 -4.59554 0
M  V30 2382 H 226.881 4.48012 -4.1487 0
M  V30 2383 H 228.295 2.45636 -5.18011 0
M  V30 2384 H 226.692 1.8637 -5.70426 0
M  V30 2385 H 227.762 0.790662 -4.7841 0
M  V30 2386 N 229.106 1.52395 0.401703 0
M  V30 2387 C 230.522 1.41363 0.740864 0
M  V30 2388 C 230.722 0.523982 1.94568 0
M  V30 2389 O 229.778 -0.00741204 2.52499 0
M  V30 2390 C 231.091 2.84011 0.987847 0
M  V30 2391 C 232.639 2.93404 1.09011 0
M  V30 2392 C 233.114 4.37036 1.3698 0
M  V30 2393 N 234.605 4.40304 1.43829 0
M  V30 2394 C 235.34 5.48508 1.67112 0
M  V30 2395 N 234.836 6.66819 1.87949 0
M  V30 2396 N 236.629 5.36034 1.69187 0
M  V30 2397 H 228.78 2.08765 -0.391262 0
M  V30 2398 H 231.043 0.941265 -0.112798 0
M  V30 2399 H 230.749 3.51265 0.174835 0
M  V30 2400 H 230.623 3.25502 1.906 0
M  V30 2401 H 233.01 2.26325 1.8937 0
M  V30 2402 H 233.091 2.55359 0.15015 0
M  V30 2403 H 232.735 5.04676 0.571353 0
M  V30 2404 H 232.665 4.72623 2.3224 0
M  V30 2405 H 235.156 3.55024 1.29486 0
M  V30 2406 H 235.469 7.45063 2.05185 0
M  V30 2407 H 233.814 6.6987 1.85199 0
M  V30 2408 H 237.005 4.42579 1.52451 0
M  V30 2409 H 237.178 6.20434 1.86993 0
M  V30 2410 N 230.584 -0.659388 1.43143 0
M  V30 2411 C 231.812 -1.44723 1.47861 0
M  V30 2412 C 232.227 -1.88563 0.0945886 0
M  V30 2413 O 231.584 -1.59108 -0.893915 0
M  V30 2414 C 231.635 -2.68627 2.41913 0
M  V30 2415 O 231.356 -2.26623 3.74932 0
M  V30 2416 C 232.857 -3.62045 2.55809 0
M  V30 2417 H 230.077 -0.444801 0.502387 0
M  V30 2418 H 232.621 -0.808916 1.87821 0
M  V30 2419 H 230.776 -3.28613 2.05164 0
M  V30 2420 H 231.19 -3.06745 4.2545 0
M  V30 2421 H 232.664 -4.45666 3.25708 0
M  V30 2422 H 233.141 -4.08981 1.60099 0
M  V30 2423 H 233.747 -3.07944 2.93344 0
M  V30 2424 N 232.062 -1.29571 -0.897171 0
M  V30 2425 C 233.31 -1.17456 -1.64464 0
M  V30 2426 C 233.631 0.273698 -1.9307 0
M  V30 2427 O 232.901 1.18684 -1.55855 0
M  V30 2428 H 231.481 -0.431706 -0.609622 0
M  V30 2429 H 234.143 -1.62531 -1.07562 0
M  V30 2430 H 233.239 -1.72648 -2.59998 0
M  V30 2431 N 233.54 1.10788 -1.12088 0
M  V30 2432 C 234.503 2.15207 -0.788577 0
M  V30 2433 C 235.503 1.59609 0.195317 0
M  V30 2434 O 236.693 1.74174 -0.0300193 0
M  V30 2435 C 233.825 3.4047 -0.171174 0
M  V30 2436 H 235.018 2.46116 -1.71368 0
M  V30 2437 H 232.571 1.26089 -0.923652 0
M  V30 2438 H 233.306 3.15176 0.763832 0
M  V30 2439 H 233.091 3.82109 -0.879514 0
M  V30 2440 H 234.581 4.17576 0.04496 0
M  V30 2441 N 235.018 0.912232 1.28515 0
M  V30 2442 C 236.246 0.560416 1.99166 0
M  V30 2443 C 236.661 -0.857927 1.68182 0
M  V30 2444 O 236.018 -1.56805 0.933733 0
M  V30 2445 C 236.069 0.758142 3.53461 0
M  V30 2446 O 235.79 2.12067 3.83352 0
M  V30 2447 C 237.291 0.412954 4.41372 0
M  V30 2448 H 234.511 0.213805 0.636026 0
M  V30 2449 H 237.055 1.22502 1.63749 0
M  V30 2450 H 235.21 0.140556 3.87145 0
M  V30 2451 H 235.624 2.15923 4.77993 0
M  V30 2452 H 237.098 0.60208 5.48707 0
M  V30 2453 H 237.575 -0.65073 4.34353 0
M  V30 2454 H 238.181 1.00802 4.13182 0
M  V30 2455 N 236.496 -1.42363 0.676048 0
M  V30 2456 C 237.912 -1.55811 0.345718 0
M  V30 2457 C 238.112 -1.65544 -1.14879 0
M  V30 2458 O 237.168 -1.62306 -1.93424 0
M  V30 2459 C 238.481 -2.80746 1.07713 0
M  V30 2460 C 240.029 -2.9452 1.05958 0
M  V30 2461 C 240.504 -4.22318 1.77233 0
M  V30 2462 N 241.995 -4.29233 1.74108 0
M  V30 2463 C 242.73 -5.26935 2.26113 0
M  V30 2464 N 242.226 -6.30783 2.86505 0
M  V30 2465 N 244.019 -5.18741 2.1648 0
M  V30 2466 H 236.17 -1.34289 1.6456 0
M  V30 2467 H 238.433 -0.646506 0.69335 0
M  V30 2468 H 238.139 -2.79696 2.13221 0
M  V30 2469 H 238.013 -3.71676 0.64316 0
M  V30 2470 H 240.4 -2.95097 0.0128255 0
M  V30 2471 H 240.481 -2.04817 1.53244 0
M  V30 2472 H 240.125 -4.22502 2.81877 0
M  V30 2473 H 240.055 -5.10958 1.27396 0
M  V30 2474 H 242.546 -3.54814 1.30059 0
M  V30 2475 H 242.859 -7.01691 3.23805 0
M  V30 2476 H 241.204 -6.31341 2.90575 0
M  V30 2477 H 244.395 -4.36533 1.68987 0
M  V30 2478 H 244.568 -5.94721 2.57316 0
M  V30 2479 N 237.974 -0.419461 -1.51915 0
M  V30 2480 C 238.937 0.389116 -2.25873 0
M  V30 2481 C 239.937 0.964924 -1.28631 0
M  V30 2482 O 241.127 0.842179 -1.52489 0
M  V30 2483 C 238.259 1.54874 -3.03689 0
M  V30 2484 H 239.452 -0.258799 -2.98781 0
M  V30 2485 H 237.005 -0.172209 -1.55348 0
M  V30 2486 H 237.74 2.23323 -2.35154 0
M  V30 2487 H 237.525 1.14223 -3.75094 0
M  V30 2488 H 239.015 2.12046 -3.59759 0
M  V30 2489 N 239.452 1.56882 -0.150215 0
M  V30 2490 C 240.698 1.96518 0.500834 0
M  V30 2491 C 241.031 1.03527 1.64304 0
M  V30 2492 O 240.306 0.0782751 1.94342 0
M  V30 2493 C 240.589 3.45822 1.00395 0
M  V30 2494 C 240.442 4.49591 -0.136983 0
M  V30 2495 C 241.761 3.97704 1.88467 0
M  V30 2496 H 238.88 0.714535 0.18058 0
M  V30 2497 H 241.522 1.88577 -0.232091 0
M  V30 2498 H 239.672 3.5272 1.62851 0
M  V30 2499 H 241.344 4.5477 -0.77343 0
M  V30 2500 H 239.587 4.26441 -0.795652 0
M  V30 2501 H 240.258 5.51402 0.256815 0
M  V30 2502 H 242.734 3.93304 1.35834 0
M  V30 2503 H 241.61 5.0263 2.20578 0
M  V30 2504 H 241.871 3.40252 2.82279 0
M  V30 2505 N 240.93 -0.123565 1.57115 0
M  V30 2506 C 241.88 -1.1575 1.96433 0
M  V30 2507 C 242.864 -1.37313 0.838686 0
M  V30 2508 O 244.056 -1.38482 1.10235 0
M  V30 2509 C 241.185 -2.48526 2.36833 0
M  V30 2510 C 240.271 -2.30457 3.5602 0
M  V30 2511 N 240.662 -1.8219 4.71848 0
M  V30 2512 C 238.96 -2.61129 3.61563 0
M  V30 2513 C 239.661 -1.77721 5.53886 0
M  V30 2514 N 238.637 -2.21899 4.96248 0
M  V30 2515 H 242.439 -0.776797 2.83449 0
M  V30 2516 H 239.953 -0.331364 1.58983 0
M  V30 2517 H 241.95 -3.233 2.63216 0
M  V30 2518 H 240.61 -2.87358 1.5118 0
M  V30 2519 H 241.621 -1.51805 4.95152 0
M  V30 2520 H 238.298 -3.03678 2.86507 0
M  V30 2521 H 239.688 -1.41697 6.56789 0
M  V30 2522 N 242.408 -1.52605 -0.393616 0
M  V30 2523 C 243.371 -1.76415 -1.46323 0
M  V30 2524 C 244.371 -0.634126 -1.47768 0
M  V30 2525 O 245.561 -0.902142 -1.4902 0
M  V30 2526 C 242.693 -1.8607 -2.85641 0
M  V30 2527 H 243.886 -2.71916 -1.26498 0
M  V30 2528 H 241.439 -1.43257 -0.625073 0
M  V30 2529 H 242.174 -0.925378 -3.10817 0
M  V30 2530 H 241.959 -2.68235 -2.85993 0
M  V30 2531 H 243.449 -2.06179 -3.63153 0
M  V30 2532 N 243.887 0.651787 -1.4349 0
M  V30 2533 C 245.303 0.96762 -1.26922 0
M  V30 2534 C 245.503 2.00602 -0.189982 0
M  V30 2535 O 244.559 2.48793 0.431107 0
M  V30 2536 C 245.872 1.45052 -2.63401 0
M  V30 2537 C 247.42 1.5671 -2.70945 0
M  V30 2538 C 247.895 2.0839 -4.07845 0
M  V30 2539 N 249.386 2.1569 -4.09917 0
M  V30 2540 C 250.121 2.56804 -5.12679 0
M  V30 2541 N 249.617 2.97203 -6.25813 0
M  V30 2542 N 251.41 2.56756 -5.00033 0
M  V30 2543 H 243.561 -0.0353158 -2.12371 0
M  V30 2544 H 245.824 0.0467858 -0.946845 0
M  V30 2545 H 245.53 0.761926 -3.43348 0
M  V30 2546 H 245.404 2.42529 -2.88894 0
M  V30 2547 H 247.791 2.2467 -1.9133 0
M  V30 2548 H 247.872 0.57662 -2.49216 0
M  V30 2549 H 247.516 1.41031 -4.87927 0
M  V30 2550 H 247.446 3.08271 -4.26938 0
M  V30 2551 H 249.937 1.87237 -3.28254 0
M  V30 2552 H 250.25 3.27328 -7.00055 0
M  V30 2553 H 248.595 2.95004 -6.29283 0
M  V30 2554 H 251.786 2.24572 -4.10713 0
M  V30 2555 H 251.959 2.88475 -5.80247 0
M  V30 2556 N 245.365 1.30045 0.890287 0
M  V30 2557 C 246.595 1.21296 1.67245 0
M  V30 2558 C 247.003 -0.227471 1.87828 0
M  V30 2559 O 246.346 -1.16296 1.422 0
M  V30 2560 C 246.408 1.86519 3.07329 0
M  V30 2561 C 246.072 3.35837 3.09939 0
M  V30 2562 C 247.069 4.31915 2.89389 0
M  V30 2563 C 244.754 3.77196 3.31706 0
M  V30 2564 C 246.748 5.67325 2.90552 0
M  V30 2565 C 244.435 5.12725 3.32499 0
M  V30 2566 C 245.433 6.076 3.11947 0
M  V30 2567 O 245.121 7.40655 3.12547 0
M  V30 2568 H 244.853 0.4211 0.528821 0
M  V30 2569 H 247.407 1.72111 1.12103 0
M  V30 2570 H 245.637 1.30228 3.64112 0
M  V30 2571 H 247.326 1.71963 3.67673 0
M  V30 2572 H 248.092 4.01294 2.72375 0
M  V30 2573 H 243.971 3.03796 3.4674 0
M  V30 2574 H 247.515 6.41354 2.74429 0
M  V30 2575 H 243.412 5.42988 3.49047 0
M  V30 2576 H 244.18 7.49577 3.28749 0
M  V30 2577 N 246.843 -1.10192 1.12674 0
M  V30 2578 C 247.773 -2.18652 0.819362 0
M  V30 2579 C 248.754 -1.68698 -0.217915 0
M  V30 2580 O 249.939 -1.94041 -0.0785581 0
M  V30 2581 C 247.069 -3.46202 0.27594 0
M  V30 2582 C 246.023 -4.09444 1.24656 0
M  V30 2583 C 245.349 -5.31725 0.563258 0
M  V30 2584 C 246.649 -4.52863 2.60217 0
M  V30 2585 H 248.343 -2.44622 1.72628 0
M  V30 2586 H 245.889 -1.17571 0.831451 0
M  V30 2587 H 247.842 -4.21372 0.0486149 0
M  V30 2588 H 246.566 -3.1973 -0.666331 0
M  V30 2589 H 245.225 -3.36284 1.45974 0
M  V30 2590 H 244.873 -5.0153 -0.384235 0
M  V30 2591 H 244.573 -5.74991 1.21075 0
M  V30 2592 H 246.097 -6.09624 0.34503 0
M  V30 2593 H 247.511 -5.19294 2.42913 0
M  V30 2594 H 245.908 -5.06986 3.21068 0
M  V30 2595 H 246.978 -3.65656 3.18471 0
M  V30 2596 N 248.321 -0.919034 -1.28029 0
M  V30 2597 C 249.567 -0.555757 -1.95036 0
M  V30 2598 C 249.9 0.899198 -1.72128 0
M  V30 2599 O 249.175 1.64023 -1.04531 0
M  V30 2600 C 249.458 -0.872024 -3.49382 0
M  V30 2601 C 249.311 -2.3801 -3.81669 0
M  V30 2602 C 250.63 -0.37185 -4.38526 0
M  V30 2603 H 247.749 -0.203386 -0.708381 0
M  V30 2604 H 250.391 -1.14924 -1.51303 0
M  V30 2605 H 248.541 -0.366946 -3.86763 0
M  V30 2606 H 250.213 -2.9562 -3.54128 0
M  V30 2607 H 248.456 -2.83289 -3.28526 0
M  V30 2608 H 249.127 -2.55192 -4.8947 0
M  V30 2609 H 251.603 -0.804602 -4.08247 0
M  V30 2610 H 250.479 -0.622173 -5.45362 0
M  V30 2611 H 250.74 0.727934 -4.36066 0
M  V30 2612 N 249.799 1.42003 -0.683588 0
M  V30 2613 C 250.762 2.29191 -0.0198243 0
M  V30 2614 C 251.762 1.43773 0.72013 0
M  V30 2615 O 252.952 1.65061 0.556815 0
M  V30 2616 C 250.084 3.26435 0.982487 0
M  V30 2617 H 251.277 2.8938 -0.787345 0
M  V30 2618 H 248.83 1.49789 -0.446418 0
M  V30 2619 H 249.565 2.71203 1.77819 0
M  V30 2620 H 249.35 3.89449 0.455182 0
M  V30 2621 H 250.84 3.918 1.44508 0
M  V30 2622 N 251.277 0.427512 1.51691 0
M  V30 2623 C 252.517 -0.141524 2.03909 0
M  V30 2624 C 252.881 -1.40811 1.30523 0
M  V30 2625 O 254.082 -2.05676 1.73063 0
M  V30 2626 C 252.353 -0.364962 3.55532 0
M  V30 2627 S 253.912 -0.898812 4.29496 0
M  V30 2628 H 250.73 -0.0364542 0.710065 0
M  V30 2629 H 253.332 0.584659 1.86553 0
M  V30 2630 H 252.036 0.56336 4.06515 0
M  V30 2631 H 251.567 -1.1185 3.77164 0
M  V30 2632 H 253.582 -2.17747 4.45871 0
M  V30 2633 N 252.755 -1.56801 0.158532 0
M  V30 2634 C 254.032 -1.88131 -0.535357 0
M  V30 2635 C 254.412 -1.06638 -1.82186 0
M  V30 2636 O 253.76 -0.156533 -2.27963 0
M  V30 2637 C 253.97 -3.39949 -0.789653 0
M  V30 2638 C 255.318 -4.09416 -1.12533 0
M  V30 2639 O 256.342 -3.45194 -0.878622 0
M  V30 2640 O 255.201 -5.22855 -1.59014 0
M  V30 2641 H 252.295 -0.780143 -0.27442 0
M  V30 2642 H 254.841 -1.68564 0.19601 0
M  V30 2643 H 253.613 -3.91115 0.120353 0
M  V30 2644 H 253.236 -3.65084 -1.57479 0
M  V30 2645 N 254.233 0.115231 -1.57178 0
M  V30 2646 C 255.481 0.820727 -1.84685 0
M  V30 2647 C 255.802 1.80237 -0.744279 0
M  V30 2648 O 255.072 1.94529 0.231375 0
M  V30 2649 H 253.652 0.306084 -0.681411 0
M  V30 2650 H 256.314 0.101656 -1.94635 0
M  V30 2651 H 255.41 1.36366 -2.80733 0
M  V30 2652 N 255.711 1.52812 0.385517 0
M  V30 2653 C 256.674 1.77188 1.45386 0
M  V30 2654 C 257.674 0.641953 1.4743 0
M  V30 2655 O 258.864 0.910033 1.4854 0
M  V30 2656 C 255.996 1.87582 2.8465 0
M  V30 2657 H 257.189 2.72583 1.25054 0
M  V30 2658 H 254.742 1.43586 0.617467 0
M  V30 2659 H 255.477 0.941849 3.10322 0
M  V30 2660 H 255.262 2.69748 2.84567 0
M  V30 2661 H 256.752 2.08102 3.62054 0
M  V30 2662 N 257.189 -0.644168 1.43834 0
M  V30 2663 C 258.414 -1.43642 1.49605 0
M  V30 2664 C 258.839 -1.8773 0.117913 0
M  V30 2665 O 258.197 -1.57938 -0.890239 0
M  V30 2666 C 258.245 -2.6416 2.45463 0
M  V30 2667 O 257.349 -3.63538 1.94714 0
M  V30 2668 H 256.69 -0.430329 0.50568 0
M  V30 2669 H 259.22 -0.787448 1.8884 0
M  V30 2670 H 259.23 -3.11864 2.63068 0
M  V30 2671 H 257.905 -2.31414 3.45572 0
M  V30 2672 H 256.482 -3.2273 1.86814 0
M  V30 2673 N 258.668 -1.30515 -0.883378 0
M  V30 2674 C 259.893 -1.22487 -1.67367 0
M  V30 2675 C 260.318 0.208767 -1.86938 0
M  V30 2676 O 259.676 1.15015 -1.40148 0
M  V30 2677 C 259.724 -1.96041 -3.02655 0
M  V30 2678 O 258.828 -1.28859 -3.91751 0
M  V30 2679 H 258.169 -0.423573 -0.511353 0
M  V30 2680 H 260.699 -1.72362 -1.10239 0
M  V30 2681 H 260.709 -2.05124 -3.52687 0
M  V30 2682 H 259.384 -3.00307 -2.8773 0
M  V30 2683 H 257.961 -1.28141 -3.50192 0
M  V30 2684 N 260.146 1.09593 -1.13257 0
M  V30 2685 C 261.557 1.63229 -0.906274 0
M  V30 2686 C 261.908 1.8811 0.557578 0
M  V30 2687 O 261.033 1.62953 1.42391 0
M  V30 2688 C 261.628 2.96535 -1.63867 0
M  V30 2689 C 260.187 3.47003 -1.45828 0
M  V30 2690 C 259.334 2.2145 -1.66898 0
M  V30 2691 H 262.285 0.92978 -1.28611 0
M  V30 2692 H 262.306 3.64411 -1.09476 0
M  V30 2693 H 261.818 2.78394 -2.70404 0
M  V30 2694 H 259.919 3.70272 -0.415848 0
M  V30 2695 H 260.032 4.24551 -2.2202 0
M  V30 2696 H 258.396 2.30022 -1.09371 0
M  V30 2697 H 259.179 2.0583 -2.74752 0
M  V30 2698 N 261.624 0.925811 1.2754 0
M  V30 2699 C 262.852 0.581509 1.9856 0
M  V30 2700 C 263.267 -0.840041 1.69082 0
M  V30 2701 O 262.624 -1.55805 0.950312 0
M  V30 2702 C 262.675 0.795589 3.52637 0
M  V30 2703 O 262.396 2.16121 3.81082 0
M  V30 2704 C 263.897 0.459744 4.4091 0
M  V30 2705 H 261.117 0.220538 0.633722 0
M  V30 2706 H 263.661 1.24232 1.6244 0
M  V30 2707 H 261.816 0.18161 3.86974 0
M  V30 2708 H 262.23 2.2098 4.75676 0
M  V30 2709 H 263.704 0.660244 5.48037 0
M  V30 2710 H 264.181 -0.604625 4.35018 0
M  V30 2711 H 264.787 1.05178 4.12089 0
M  V30 2712 N 263.102 -1.41638 0.69111 0
M  V30 2713 C 264.518 -1.55435 0.362224 0
M  V30 2714 C 264.718 -1.66754 -1.13117 0
M  V30 2715 O 263.774 -1.64348 -1.91692 0
M  V30 2716 C 265.087 -2.79588 1.10684 0
M  V30 2717 C 266.635 -2.9338 1.09075 0
M  V30 2718 C 267.11 -4.20414 1.81703 0
M  V30 2719 N 268.601 -4.27362 1.7865 0
M  V30 2720 C 269.336 -5.24507 2.31689 0
M  V30 2721 N 268.832 -6.27708 2.93179 0
M  V30 2722 N 270.625 -5.16416 2.2197 0
M  V30 2723 H 262.776 -1.32536 1.65976 0
M  V30 2724 H 265.039 -0.639115 0.700168 0
M  V30 2725 H 264.745 -2.77419 2.16175 0
M  V30 2726 H 264.619 -3.70973 0.682545 0
M  V30 2727 H 267.006 -2.95067 0.0441238 0
M  V30 2728 H 267.087 -2.0318 1.55407 0
M  V30 2729 H 266.731 -4.19488 2.86343 0
M  V30 2730 H 266.661 -5.09578 1.32808 0
M  V30 2731 H 269.152 -3.53415 1.33815 0
M  V30 2732 H 269.465 -6.98217 3.31229 0
M  V30 2733 H 267.81 -6.28223 2.97255 0
M  V30 2734 H 271.001 -4.34716 1.73607 0
M  V30 2735 H 271.174 -5.91958 2.63609 0
M  V30 2736 N 264.58 -0.43555 -1.51462 0
M  V30 2737 C 265.527 0.376797 -2.27703 0
M  V30 2738 C 266.497 1.01838 -1.31219 0
M  V30 2739 O 267.682 1.03762 -1.60119 0
M  V30 2740 C 264.822 1.47301 -3.12084 0
M  V30 2741 C 263.935 0.849744 -4.2356 0
M  V30 2742 C 263.07 1.92086 -4.95254 0
M  V30 2743 C 262.109 1.27593 -5.98654 0
M  V30 2744 N 261.246 2.28833 -6.63762 0
M  V30 2745 H 266.086 -0.279734 -2.96684 0
M  V30 2746 H 263.623 -0.149795 -1.46335 0
M  V30 2747 H 265.581 2.11984 -3.59331 0
M  V30 2748 H 264.211 2.0992 -2.45221 0
M  V30 2749 H 263.263 0.0912529 -3.80291 0
M  V30 2750 H 264.575 0.338878 -4.97648 0
M  V30 2751 H 263.729 2.64435 -5.46039 0
M  V30 2752 H 262.468 2.46545 -4.20793 0
M  V30 2753 H 261.473 0.537893 -5.47162 0
M  V30 2754 H 262.698 0.738693 -6.7507 0
M  V30 2755 H 260.644 2.82375 -5.92115 0
M  V30 2756 H 260.561 1.82632 -7.33608 0
M  V30 2757 H 261.829 3.00671 -7.19178 0
M  V30 2758 N 266.058 1.56714 -0.166846 0
M  V30 2759 C 267.021 2.16539 0.751232 0
M  V30 2760 C 268.021 1.11228 1.16125 0
M  V30 2761 O 269.211 1.36765 1.07894 0
M  V30 2762 C 266.343 2.74462 2.02196 0
M  V30 2763 H 267.536 2.99013 0.230499 0
M  V30 2764 H 265.089 1.56081 0.0826982 0
M  V30 2765 H 265.824 1.95709 2.58589 0
M  V30 2766 H 265.609 3.51527 1.73698 0
M  V30 2767 H 267.099 3.20489 2.67725 0
M  V30 2768 N 267.536 -0.106894 1.57237 0
M  V30 2769 C 268.466 -1.13148 2.04254 0
M  V30 2770 C 269.447 -1.42476 0.929224 0
M  V30 2771 O 270.632 -1.52709 1.19973 0
M  V30 2772 C 267.762 -2.4545 2.45706 0
M  V30 2773 C 266.716 -2.30558 3.60592 0
M  V30 2774 C 266.042 -3.67931 3.87983 0
M  V30 2775 C 267.342 -1.75597 4.91897 0
M  V30 2776 H 269.036 -0.740374 2.90101 0
M  V30 2777 H 266.582 -0.354696 1.39563 0
M  V30 2778 H 268.535 -3.17389 2.77205 0
M  V30 2779 H 267.259 -2.86475 1.56843 0
M  V30 2780 H 265.918 -1.61067 3.29322 0
M  V30 2781 H 265.566 -4.06462 2.96306 0
M  V30 2782 H 265.266 -3.58817 4.65322 0
M  V30 2783 H 266.79 -4.41356 4.21945 0
M  V30 2784 H 268.204 -2.37364 5.21854 0
M  V30 2785 H 266.601 -1.77272 5.73319 0
M  V30 2786 H 267.671 -0.714451 4.79608 0
M  V30 2787 N 269.014 -1.53014 -0.377408 0
M  V30 2788 C 270.262 -1.6829 -1.11906 0
M  V30 2789 C 270.583 -0.431206 -1.90173 0
M  V30 2790 O 269.853 0.554595 -1.87886 0
M  V30 2791 H 268.433 -0.620371 -0.416112 0
M  V30 2792 H 271.095 -1.90167 -0.426893 0
M  V30 2793 H 270.191 -2.53862 -1.8155 0
M  V30 2794 N 270.492 0.636531 -1.44174 0
M  V30 2795 C 271.741 1.39213 -1.45954 0
M  V30 2796 C 272.054 1.95374 -0.0939119 0
M  V30 2797 O 273.26 2.71498 0.0107767 0
M  V30 2798 C 271.716 2.52025 -2.56927 0
M  V30 2799 C 271.324 2.024 -3.99673 0
M  V30 2800 C 273.068 3.29269 -2.67922 0
M  V30 2801 C 270.975 3.12521 -5.0208 0
M  V30 2802 H 269.905 0.523132 -0.542999 0
M  V30 2803 H 272.556 0.685349 -1.70221 0
M  V30 2804 H 270.938 3.25253 -2.25891 0
M  V30 2805 H 272.112 1.36073 -4.40251 0
M  V30 2806 H 270.427 1.37987 -3.92872 0
M  V30 2807 H 273.024 4.11352 -3.41605 0
M  V30 2808 H 273.367 3.78397 -1.73555 0
M  V30 2809 H 273.9 2.63129 -2.98342 0
M  V30 2810 H 270.639 2.68343 -5.98057 0
M  V30 2811 H 270.159 3.77507 -4.66099 0
M  V30 2812 H 271.838 3.77385 -5.25538 0
M  V30 2813 N 271.97 1.30982 0.876444 0
M  V30 2814 C 273.247 1.10942 1.61094 0
M  V30 2815 C 273.627 -0.338223 2.08373 0
M  V30 2816 O 272.975 -1.33122 1.85717 0
M  V30 2817 C 273.185 2.11789 2.77392 0
M  V30 2818 C 274.533 2.43965 3.47514 0
M  V30 2819 O 275.557 2.10166 2.87591 0
M  V30 2820 O 274.416 3.01817 4.55597 0
M  V30 2821 H 271.51 0.42667 0.708436 0
M  V30 2822 H 274.056 1.42438 0.922474 0
M  V30 2823 H 272.828 3.09194 2.39823 0
M  V30 2824 H 272.451 1.81161 3.5393 0
M  V30 2825 N 273.449 -1.08991 1.13837 0
M  V30 2826 C 274.412 -2.13925 0.822715 0
M  V30 2827 C 275.412 -1.599 -0.1699 0
M  V30 2828 O 276.602 -1.74104 0.0577251 0
M  V30 2829 C 273.734 -3.40155 0.225318 0
M  V30 2830 H 274.927 -2.43358 1.75262 0
M  V30 2831 H 272.48 -1.24603 0.943594 0
M  V30 2832 H 273.215 -3.16352 -0.713594 0
M  V30 2833 H 273 -3.80661 0.940193 0
M  V30 2834 H 274.49 -4.17594 0.0214784 0
M  V30 2835 N 274.927 -0.932562 -1.27047 0
M  V30 2836 C 276.338 -0.619451 -1.76124 0
M  V30 2837 C 276.689 0.865397 -1.76083 0
M  V30 2838 O 275.814 1.67722 -1.36742 0
M  V30 2839 C 276.409 -1.11771 -3.19832 0
M  V30 2840 C 274.968 -0.855174 -3.66557 0
M  V30 2841 C 274.115 -1.27362 -2.46321 0
M  V30 2842 H 277.066 -1.11181 -1.13245 0
M  V30 2843 H 277.087 -0.46759 -3.77616 0
M  V30 2844 H 276.599 -2.19842 -3.1983 0
M  V30 2845 H 274.7 0.211524 -3.71999 0
M  V30 2846 H 274.813 -1.47613 -4.55793 0
M  V30 2847 H 273.177 -0.692119 -2.45116 0
M  V30 2848 H 273.96 -2.36307 -2.49025 0
M  V30 2849 N 276.405 1.4127 -0.698611 0
M  V30 2850 C 277.816 1.84187 -0.305289 0
M  V30 2851 C 278.167 1.58449 1.15708 0
M  V30 2852 O 277.292 1.05651 1.88856 0
M  V30 2853 C 277.887 3.3435 -0.547314 0
M  V30 2854 C 276.446 3.75826 -0.207878 0
M  V30 2855 C 275.593 2.64647 -0.828099 0
M  V30 2856 H 278.544 1.30778 -0.89904 0
M  V30 2857 H 278.565 3.8001 0.192998 0
M  V30 2858 H 278.077 3.53051 -1.61172 0
M  V30 2859 H 276.178 3.62725 0.852143 0
M  V30 2860 H 276.291 4.74462 -0.665021 0
M  V30 2861 H 274.655 2.53395 -0.257458 0
M  V30 2862 H 275.438 2.86165 -1.89643 0
M  V30 2863 N 277.883 0.443576 1.51229 0
M  V30 2864 C 279.299 0.0962001 1.5931 0
M  V30 2865 C 279.499 -1.39501 1.45402 0
M  V30 2866 O 278.555 -2.16557 1.29843 0
M  V30 2867 C 279.868 0.621875 2.94199 0
M  V30 2868 C 281.416 0.582865 3.07525 0
M  V30 2869 C 281.891 1.08562 4.44948 0
M  V30 2870 N 283.382 1.04387 4.51284 0
M  V30 2871 C 284.117 1.40368 5.55954 0
M  V30 2872 N 283.613 1.83664 6.68011 0
M  V30 2873 N 285.406 1.32145 5.46346 0
M  V30 2874 H 277.557 1.41376 1.58514 0
M  V30 2875 H 279.82 0.582965 0.747567 0
M  V30 2876 H 279.526 1.66546 3.09767 0
M  V30 2877 H 279.4 0.0502125 3.77167 0
M  V30 2878 H 281.787 -0.451749 2.91622 0
M  V30 2879 H 281.868 1.191 2.26382 0
M  V30 2880 H 281.512 2.11873 4.61598 0
M  V30 2881 H 281.442 0.453956 5.2464 0
M  V30 2882 H 283.933 0.725986 3.70861 0
M  V30 2883 H 284.246 2.0934 7.43906 0
M  V30 2884 H 282.591 1.87596 6.69203 0
M  V30 2885 H 285.782 0.981808 4.57688 0
M  V30 2886 H 285.955 1.60514 6.27805 0
M  V30 2887 N 279.361 -1.56624 0.175154 0
M  V30 2888 C 280.311 -2.14747 -0.766004 0
M  V30 2889 C 281.295 -1.08275 -1.19018 0
M  V30 2890 O 282.487 -1.34388 -1.15191 0
M  V30 2891 C 279.616 -2.79478 -1.99366 0
M  V30 2892 C 278.702 -3.93114 -1.5913 0
M  V30 2893 N 279.093 -4.97752 -0.89872 0
M  V30 2894 C 277.391 -4.04345 -1.88204 0
M  V30 2895 C 278.092 -5.77473 -0.700012 0
M  V30 2896 N 277.068 -5.29207 -1.24263 0
M  V30 2897 H 280.87 -2.93015 -0.22793 0
M  V30 2898 H 278.384 -1.6238 -0.0253843 0
M  V30 2899 H 280.381 -3.19498 -2.67818 0
M  V30 2900 H 279.041 -2.02692 -2.53665 0
M  V30 2901 H 280.052 -5.14903 -0.556347 0
M  V30 2902 H 276.729 -3.38667 -2.44153 0
M  V30 2903 H 278.119 -6.71728 -0.152047 0
M  V30 2904 N 280.839 0.0985539 -1.57292 0
M  V30 2905 C 282.255 0.45267 -1.53046 0
M  V30 2906 C 282.455 1.80713 -0.891342 0
M  V30 2907 O 281.511 2.4785 -0.482375 0
M  V30 2908 C 282.824 0.418341 -2.97776 0
M  V30 2909 C 284.372 0.500443 -3.08973 0
M  V30 2910 C 284.847 0.496297 -4.55303 0
M  V30 2911 N 286.338 0.557151 -4.59837 0
M  V30 2912 C 287.073 0.575726 -5.70502 0
M  V30 2913 N 286.569 0.550714 -6.90608 0
M  V30 2914 N 288.362 0.620277 -5.58667 0
M  V30 2915 H 280.513 -0.788673 -1.97215 0
M  V30 2916 H 282.776 -0.293188 -0.901524 0
M  V30 2917 H 282.482 -0.509659 -3.47988 0
M  V30 2918 H 282.356 1.2386 -3.56284 0
M  V30 2919 H 284.743 1.41886 -2.58751 0
M  V30 2920 H 284.824 -0.347894 -2.53423 0
M  V30 2921 H 284.468 -0.418162 -5.06176 0
M  V30 2922 H 284.398 1.3618 -5.08687 0
M  V30 2923 H 286.889 0.581816 -3.73394 0
M  V30 2924 H 287.202 0.568075 -7.70709 0
M  V30 2925 H 285.547 0.517816 -6.93068 0
M  V30 2926 H 288.738 0.637322 -4.63741 0
M  V30 2927 H 288.911 0.631283 -6.44918 0
M  V30 2928 N 282.317 1.53212 0.369288 0
M  V30 2929 C 283.545 1.73119 1.13303 0
M  V30 2930 C 283.96 0.458455 1.83149 0
M  V30 2931 O 283.317 -0.568403 1.73423 0
M  V30 2932 C 283.368 2.89413 2.16616 0
M  V30 2933 O 283.089 4.11761 1.49614 0
M  V30 2934 C 284.59 3.21161 3.05566 0
M  V30 2935 H 281.81 0.579107 0.338934 0
M  V30 2936 H 284.354 1.99942 0.429338 0
M  V30 2937 H 282.509 2.64994 2.82589 0
M  V30 2938 H 282.923 4.76858 2.18419 0
M  V30 2939 H 284.397 4.05949 3.74045 0
M  V30 2940 H 284.874 2.36369 3.70171 0
M  V30 2941 H 285.48 3.47492 2.45213 0
M  V30 2942 N 283.795 -0.628877 1.44509 0
M  V30 2943 C 284.727 -1.754 1.47538 0
M  V30 2944 C 285.74 -1.58575 0.368506 0
M  V30 2945 O 286.929 -1.66847 0.634376 0
M  V30 2946 C 284.029 -3.1315 1.29577 0
M  V30 2947 C 283.202 -3.56413 2.53551 0
M  V30 2948 C 282.261 -4.7305 2.30457 0
M  V30 2949 O 281.287 -4.81247 3.03957 0
M  V30 2950 N 282.489 -5.64903 1.3366 0
M  V30 2951 H 285.254 -1.73272 2.44534 0
M  V30 2952 H 282.815 -0.813512 1.39977 0
M  V30 2953 H 284.807 -3.88902 1.11971 0
M  V30 2954 H 283.377 -3.09908 0.409371 0
M  V30 2955 H 282.597 -2.70847 2.86419 0
M  V30 2956 H 283.885 -3.82071 3.36005 0
M  V30 2957 H 283.283 -5.60975 0.729604 0
M  V30 2958 H 281.84 -6.40275 1.22032 0
M  V30 2959 N 285.273 -1.31445 -0.869486 0
M  V30 2960 C 286.519 -1.21337 -1.62496 0
M  V30 2961 C 286.852 0.227872 -1.92858 0
M  V30 2962 O 286.127 1.16094 -1.56053 0
M  V30 2963 C 286.41 -2.05814 -2.95487 0
M  V30 2964 C 286.263 -3.5824 -2.72 0
M  V30 2965 C 287.582 -1.9079 -3.96594 0
M  V30 2966 H 284.701 -0.442135 -0.589649 0
M  V30 2967 H 287.343 -1.6124 -1.00507 0
M  V30 2968 H 285.493 -1.71913 -3.48394 0
M  V30 2969 H 287.165 -4.0228 -2.25762 0
M  V30 2970 H 285.408 -3.81647 -2.06224 0
M  V30 2971 H 286.079 -4.12657 -3.66631 0
M  V30 2972 H 288.555 -2.20459 -3.52898 0
M  V30 2973 H 287.431 -2.52199 -4.87531 0
M  V30 2974 H 287.692 -0.871341 -4.33428 0
M  V30 2975 N 286.751 1.08385 -1.14413 0
M  V30 2976 C 287.998 1.80776 -0.912482 0
M  V30 2977 C 288.326 1.86236 0.560934 0
M  V30 2978 O 287.581 1.33431 1.43159 0
M  V30 2979 C 287.88 3.26273 -1.45879 0
M  V30 2980 C 287.546 3.4093 -2.95089 0
M  V30 2981 C 286.208 3.44638 -3.35824 0
M  V30 2982 C 288.56 3.44591 -3.91033 0
M  V30 2983 C 285.888 3.49597 -4.71167 0
M  V30 2984 C 288.24 3.51086 -5.26233 0
M  V30 2985 C 286.904 3.53067 -5.6648 0
M  V30 2986 H 286.174 0.661507 -0.333901 0
M  V30 2987 H 288.821 1.27613 -1.42784 0
M  V30 2988 H 287.126 3.82146 -0.864376 0
M  V30 2989 H 288.823 3.80839 -1.2555 0
M  V30 2990 H 285.413 3.38736 -2.62594 0
M  V30 2991 H 289.597 3.40957 -3.60641 0
M  V30 2992 H 284.853 3.49424 -5.0171 0
M  V30 2993 H 289.027 3.52864 -6.00383 0
M  V30 2994 H 286.654 3.56662 -6.71339 0
M  V30 2995 N 288.23 0.939286 1.26551 0
M  V30 2996 C 289.646 0.641304 1.46149 0
M  V30 2997 C 289.846 -0.805964 1.84679 0
M  V30 2998 O 288.902 -1.58278 1.96734 0
M  V30 2999 C 290.215 1.6011 2.54529 0
M  V30 3000 C 291.763 1.6106 2.68382 0
M  V30 3001 C 292.238 2.55765 3.79932 0
M  V30 3002 N 293.729 2.5404 3.87322 0
M  V30 3003 C 294.464 3.24004 4.73085 0
M  V30 3004 N 293.96 4.03388 5.63249 0
M  V30 3005 N 295.753 3.12965 4.66914 0
M  V30 3006 H 287.904 1.87478 0.998285 0
M  V30 3007 H 290.167 0.805559 0.499779 0
M  V30 3008 H 289.873 2.63412 2.33039 0
M  V30 3009 H 289.747 1.35171 3.52149 0
M  V30 3010 H 292.134 0.584835 2.89247 0
M  V30 3011 H 292.215 1.90053 1.71212 0
M  V30 3012 H 291.859 3.58458 3.5982 0
M  V30 3013 H 291.789 2.24063 4.76554 0
M  V30 3014 H 294.28 1.96396 3.22858 0
M  V30 3015 H 294.593 4.5373 6.25579 0
M  V30 3016 H 292.938 4.07489 5.63008 0
M  V30 3017 H 296.129 2.50432 3.95476 0
M  V30 3018 H 296.302 3.67759 5.33533 0
M  V30 3019 N 289.708 -1.40897 0.706093 0
M  V30 3020 C 290.656 -2.32572 0.0361893 0
M  V30 3021 C 291.65 -1.51532 -0.757266 0
M  V30 3022 O 292.856 -1.67396 -0.661703 0
M  V30 3023 H 289.231 -0.751966 -0.00709935 0
M  V30 3024 H 291.202 -2.86733 0.826249 0
M  V30 3025 C 289.951 -3.36418 -0.87854 0
M  V30 3026 H 289.274 -3.98836 -0.277401 0
M  V30 3027 H 290.714 -4.0308 -1.3154 0
M  V30 3028 C 289.173 -2.71141 -1.99961 0
M  V30 3029 O 289.703 -2.56735 -3.0895 0
M  V30 3030 N 287.909 -2.29671 -1.78043 0
M  V30 3031 H 287.456 -2.41588 -0.894042 0
M  V30 3032 H 287.414 -1.86332 -2.53235 0
M  V30 3033 N 291.186 -0.45159 -1.50991 0
M  V30 3034 C 292.435 0.111653 -2.01391 0
M  V30 3035 C 292.748 1.42529 -1.33959 0
M  V30 3036 O 293.954 2.07232 -1.75405 0
M  V30 3037 C 292.41 0.249514 -3.59034 0
M  V30 3038 C 292.018 -1.05453 -4.35412 0
M  V30 3039 C 293.762 0.765762 -4.17536 0
M  V30 3040 C 291.669 -0.881529 -5.84793 0
M  V30 3041 H 290.599 0.0455022 -0.752626 0
M  V30 3042 H 293.25 -0.583524 -1.73975 0
M  V30 3043 H 291.632 1.00803 -3.82955 0
M  V30 3044 H 292.806 -1.82248 -4.23229 0
M  V30 3045 H 291.121 -1.50039 -3.88429 0
M  V30 3046 H 293.718 0.911913 -5.26866 0
M  V30 3047 H 294.061 1.75201 -3.77638 0
M  V30 3048 H 294.594 0.0651744 -3.97747 0
M  V30 3049 H 291.333 -1.84057 -6.29129 0
M  V30 3050 H 290.853 -0.153625 -5.99603 0
M  V30 3051 H 292.532 -0.540363 -6.4474 0
M  V30 3052 N 292.664 1.56529 -0.183458 0
M  V30 3053 C 293.594 2.21549 0.737456 0
M  V30 3054 C 294.575 1.17489 1.23005 0
M  V30 3055 O 295.76 1.45959 1.281 0
M  V30 3056 C 292.89 2.86575 1.96194 0
M  V30 3057 C 291.844 3.96778 1.60473 0
M  V30 3058 C 291.17 4.48911 2.90487 0
M  V30 3059 C 292.47 5.15767 0.823497 0
M  V30 3060 H 294.164 2.98761 0.195453 0
M  V30 3061 H 291.71 1.43702 0.0925686 0
M  V30 3062 H 293.663 3.30739 2.61131 0
M  V30 3063 H 292.387 2.06749 2.52828 0
M  V30 3064 H 291.046 3.53286 0.978997 0
M  V30 3065 H 290.694 3.65862 3.45186 0
M  V30 3066 H 290.394 5.23265 2.67335 0
M  V30 3067 H 291.918 4.95771 3.56432 0
M  V30 3068 H 293.332 5.56549 1.37571 0
M  V30 3069 H 291.729 5.96114 0.690551 0
M  V30 3070 H 292.799 4.84574 -0.177782 0
M  V30 3071 N 294.142 -0.090211 1.57342 0
M  V30 3072 C 295.389 -0.792807 1.86335 0
M  V30 3073 C 295.717 -1.78494 0.772662 0
M  V30 3074 O 294.972 -1.94305 -0.233258 0
M  V30 3075 C 295.271 -1.55222 3.21933 0
M  V30 3076 C 294.937 -0.701765 4.45406 0
M  V30 3077 C 293.599 -0.467334 4.78925 0
M  V30 3078 C 295.951 -0.11086 5.21082 0
M  V30 3079 C 293.279 0.367785 5.85546 0
M  V30 3080 C 295.631 0.711609 6.28585 0
M  V30 3081 C 294.295 0.956086 6.60617 0
M  V30 3082 H 293.565 -0.290109 0.681849 0
M  V30 3083 H 296.212 -0.0541332 1.91423 0
M  V30 3084 H 294.517 -2.3626 3.12551 0
M  V30 3085 H 296.214 -2.10032 3.41595 0
M  V30 3086 H 292.804 -0.894598 4.1916 0
M  V30 3087 H 296.988 -0.279129 4.95514 0
M  V30 3088 H 292.244 0.566128 6.08773 0
M  V30 3089 H 296.418 1.17632 6.86393 0
M  V30 3090 H 294.045 1.60499 7.43064 0
M  V30 3091 N 295.62 -1.53406 -0.361157 0
M  V30 3092 C 297.036 -1.43277 -0.703124 0
M  V30 3093 C 297.236 -0.575384 -1.9311 0
M  V30 3094 O 296.292 -0.0595362 -2.5243 0
M  V30 3095 C 297.605 -2.8653 -0.9122 0
M  V30 3096 C 299.153 -2.96191 -1.01193 0
M  V30 3097 C 299.628 -4.40514 -1.25345 0
M  V30 3098 N 301.119 -4.43962 -1.32105 0
M  V30 3099 C 301.854 -5.52746 -1.5251 0
M  V30 3100 N 301.35 -6.71567 -1.70203 0
M  V30 3101 N 303.143 -5.40331 -1.54916 0
M  V30 3102 H 295.294 -2.07654 0.446475 0
M  V30 3103 H 297.557 -0.937944 0.137715 0
M  V30 3104 H 297.263 -3.51605 -0.0816414 0
M  V30 3105 H 297.137 -3.30441 -1.81903 0
M  V30 3106 H 299.524 -2.31266 -1.83303 0
M  V30 3107 H 299.605 -2.55667 -0.0823929 0
M  V30 3108 H 299.249 -5.06014 -0.437346 0
M  V30 3109 H 299.179 -4.78614 -2.19627 0
M  V30 3110 H 301.67 -3.58332 -1.20028 0
M  V30 3111 H 301.983 -7.50241 -1.85359 0
M  V30 3112 H 300.328 -6.74545 -1.67373 0
M  V30 3113 H 303.519 -4.46465 -1.40663 0
M  V30 3114 H 303.692 -6.25173 -1.70477 0
M  V30 3115 N 297.098 0.621204 -1.44841 0
M  V30 3116 C 298.061 1.71459 -1.521 0
M  V30 3117 C 299.061 1.55696 -0.401933 0
M  V30 3118 O 300.251 1.61011 -0.664925 0
M  V30 3119 C 297.383 3.10624 -1.40447 0
M  V30 3120 H 298.576 1.66394 -2.49506 0
M  V30 3121 H 296.129 0.835745 -1.3208 0
M  V30 3122 H 296.864 3.21277 -0.441737 0
M  V30 3123 H 296.649 3.23473 -2.21602 0
M  V30 3124 H 298.139 3.90293 -1.4853 0
M  V30 3125 N 298.576 1.31904 0.862503 0
M  V30 3126 C 299.987 1.19803 1.43193 0
M  V30 3127 C 300.338 -0.192567 1.95253 0
M  V30 3128 O 299.463 -1.09081 1.86896 0
M  V30 3129 C 300.058 2.16883 2.60283 0
M  V30 3130 C 298.617 2.08692 3.13248 0
M  V30 3131 C 297.764 2.05691 1.85975 0
M  V30 3132 H 300.715 1.43846 0.670365 0
M  V30 3133 H 300.736 1.76278 3.37204 0
M  V30 3134 H 300.248 3.18083 2.22363 0
M  V30 3135 H 298.349 1.10713 3.55771 0
M  V30 3136 H 298.462 2.9815 3.75025 0
M  V30 3137 H 296.826 1.50814 2.05249 0
M  V30 3138 H 297.609 3.08659 1.50282 0
M  V30 3139 N 300.054 -1.07777 1.14986 0
M  V30 3140 C 300.964 -2.18404 0.856546 0
M  V30 3141 C 301.98 -1.73211 -0.165485 0
M  V30 3142 O 303.156 -2.01399 0.00755219 0
M  V30 3143 C 300.221 -3.44977 0.34526 0
M  V30 3144 C 299.282 -4.0476 1.43065 0
M  V30 3145 C 298.515 -5.25291 0.943663 0
M  V30 3146 O 298.738 -5.70004 -0.212426 0
M  V30 3147 O 297.672 -5.76638 1.72547 0
M  V30 3148 H 301.498 -2.45978 1.78125 0
M  V30 3149 H 299.083 -1.17033 0.928631 0
M  V30 3150 H 300.965 -4.21348 0.0663671 0
M  V30 3151 H 299.64 -3.18965 -0.551631 0
M  V30 3152 H 298.547 -3.29949 1.76309 0
M  V30 3153 H 299.88 -4.35035 2.30229 0
M  V30 3154 N 301.532 -0.945985 -1.26051 0
M  V30 3155 C 302.462 -0.477172 -2.28572 0
M  V30 3156 C 303.443 0.472032 -1.63419 0
M  V30 3157 O 304.628 0.372853 -1.90587 0
M  V30 3158 C 301.758 0.253975 -3.4637 0
M  V30 3159 C 300.712 -0.609135 -4.23643 0
M  V30 3160 C 300.038 0.252252 -5.34105 0
M  V30 3161 C 301.338 -1.8829 -4.8718 0
M  V30 3162 H 303.032 -1.33402 -2.68038 0
M  V30 3163 H 300.578 -0.642904 -1.28852 0
M  V30 3164 H 302.531 0.593016 -4.17207 0
M  V30 3165 H 301.255 1.145 -3.05871 0
M  V30 3166 H 299.914 -0.931138 -3.54578 0
M  V30 3167 H 299.562 1.14278 -4.89846 0
M  V30 3168 H 299.262 -0.32188 -5.86718 0
M  V30 3169 H 300.786 0.586454 -6.07777 0
M  V30 3170 H 302.2 -1.61081 -5.50205 0
M  V30 3171 H 300.597 -2.40199 -5.49931 0
M  V30 3172 H 301.667 -2.59134 -4.09851 0
M  V30 3173 N 303.011 1.40521 -0.713556 0
M  V30 3174 C 304.427 1.54839 -0.386907 0
M  V30 3175 C 304.627 1.68532 1.1045 0
M  V30 3176 O 303.683 1.67377 1.89053 0
M  V30 3177 C 304.996 2.77792 -1.15118 0
M  V30 3178 C 306.544 2.91607 -1.13729 0
M  V30 3179 C 307.019 4.1747 -1.88368 0
M  V30 3180 N 308.51 4.24466 -1.85427 0
M  V30 3181 C 309.245 5.20755 -2.40004 0
M  V30 3182 N 308.741 6.22965 -3.03129 0
M  V30 3183 N 310.534 5.1282 -2.30158 0
M  V30 3184 H 302.685 1.29879 -1.68063 0
M  V30 3185 H 304.948 0.627896 -0.710247 0
M  V30 3186 H 304.654 2.73944 -2.20561 0
M  V30 3187 H 304.528 3.6984 -0.741477 0
M  V30 3188 H 306.915 2.94959 -0.0910608 0
M  V30 3189 H 306.996 2.00682 -1.5862 0
M  V30 3190 H 306.64 4.1488 -2.9298 0
M  V30 3191 H 306.57 5.074 -1.40898 0
M  V30 3192 H 309.061 3.51241 -1.3942 0
M  V30 3193 H 309.374 6.92859 -3.42295 0
M  V30 3194 H 307.719 6.23415 -3.07212 0
M  V30 3195 H 310.91 4.31899 -1.80501 0
M  V30 3196 H 311.083 5.87689 -2.72993 0
M  V30 3197 N 304.489 0.459591 1.5075 0
M  V30 3198 C 305.714 -0.0996819 2.0716 0
M  V30 3199 C 306.139 -1.33761 1.32249 0
M  V30 3200 O 305.497 -1.77551 0.366786 0
M  V30 3201 C 305.545 -0.378226 3.58611 0
M  V30 3202 O 304.649 -1.46081 3.85661 0
M  V30 3203 H 303.99 0.00791392 0.663953 0
M  V30 3204 H 306.52 0.647329 1.9409 0
M  V30 3205 H 306.53 -0.622135 4.03229 0
M  V30 3206 H 305.205 0.526439 4.12555 0
M  V30 3207 H 303.782 -1.20511 3.5289 0
M  V30 3208 N 305.967 -1.56429 0.191757 0
M  V30 3209 C 306.897 -2.21937 -0.725696 0
M  V30 3210 C 307.878 -1.1814 -1.2238 0
M  V30 3211 O 309.063 -1.46636 -1.27325 0
M  V30 3212 C 306.193 -2.87611 -1.94672 0
M  V30 3213 C 305.147 -3.97623 -1.58366 0
M  V30 3214 C 304.473 -4.50446 -2.88102 0
M  V30 3215 C 305.773 -5.16197 -0.796133 0
M  V30 3216 H 307.467 -2.98861 -0.179606 0
M  V30 3217 H 305.013 -1.43749 -0.0849464 0
M  V30 3218 H 306.966 -3.3212 -2.59373 0
M  V30 3219 H 305.69 -2.08087 -2.51728 0
M  V30 3220 H 304.349 -3.53801 -0.960247 0
M  V30 3221 H 303.997 -3.67688 -3.43241 0
M  V30 3222 H 303.697 -5.24675 -2.64556 0
M  V30 3223 H 305.221 -4.97654 -3.53798 0
M  V30 3224 H 306.635 -5.57271 -1.34618 0
M  V30 3225 H 305.032 -5.96471 -0.658928 0
M  V30 3226 H 306.102 -4.84473 0.203478 0
M  V30 3227 N 307.445 0.0818655 -1.57387 0
M  V30 3228 C 308.375 1.09885 -2.06028 0
M  V30 3229 C 309.356 1.4098 -0.951774 0
M  V30 3230 O 310.541 1.50781 -1.22387 0
M  V30 3231 C 307.671 2.4151 -2.4958 0
M  V30 3232 C 306.625 2.24792 -3.64215 0
M  V30 3233 C 305.951 3.61712 -3.93787 0
M  V30 3234 C 307.251 1.67749 -4.94629 0
M  V30 3235 H 308.945 0.694128 -2.91243 0
M  V30 3236 H 306.491 0.332448 -1.4011 0
M  V30 3237 H 308.444 3.12939 -2.82219 0
M  V30 3238 H 307.168 2.83943 -1.61381 0
M  V30 3239 H 305.827 1.55807 -3.31843 0
M  V30 3240 H 305.475 4.01697 -3.02735 0
M  V30 3241 H 305.175 3.51368 -4.70971 0
M  V30 3242 H 306.699 4.34587 -4.28913 0
M  V30 3243 H 308.113 2.29032 -5.25564 0
M  V30 3244 H 306.51 1.68128 -5.76067 0
M  V30 3245 H 307.58 0.638059 -4.80684 0
M  V30 3246 N 308.923 1.53595 0.353017 0
M  V30 3247 C 310.171 1.70049 1.09215 0
M  V30 3248 C 310.492 0.461406 1.89463 0
M  V30 3249 O 309.762 -0.524633 1.88744 0
M  V30 3250 H 308.342 0.626912 0.40619 0
M  V30 3251 H 311.004 1.90822 0.396585 0
M  V30 3252 H 310.1 2.56718 1.77488 0
M  V30 3253 N 310.401 -0.613514 1.45168 0
M  V30 3254 C 311.311 -1.75296 1.55912 0
M  V30 3255 C 312.327 -1.68244 0.443856 0
M  V30 3256 O 313.503 -1.88706 0.70371 0
M  V30 3257 C 310.568 -3.1174 1.5172 0
M  V30 3258 C 309.629 -3.30291 2.74238 0
M  V30 3259 C 308.862 -4.60226 2.70236 0
M  V30 3260 O 309.085 -5.42168 1.77229 0
M  V30 3261 O 308.019 -4.81361 3.61352 0
M  V30 3262 H 311.845 -1.69183 2.52212 0
M  V30 3263 H 309.43 -0.776886 1.27612 0
M  V30 3264 H 311.312 -3.93044 1.51968 0
M  V30 3265 H 309.987 -3.18357 0.585697 0
M  V30 3266 H 308.894 -2.48598 2.79553 0
M  V30 3267 H 310.227 -3.28547 3.66494 0
M  V30 3268 N 311.879 -1.3236 -0.855495 0
M  V30 3269 C 313.295 -1.11332 -1.14356 0
M  V30 3270 C 313.495 0.106751 -2.01217 0
M  V30 3271 O 312.551 0.791891 -2.39761 0
M  V30 3272 C 313.864 -2.39237 -1.82171 0
M  V30 3273 C 315.412 -2.44986 -1.9481 0
M  V30 3274 C 315.887 -3.7281 -2.66039 0
M  V30 3275 N 317.378 -3.73787 -2.73565 0
M  V30 3276 C 318.113 -4.69394 -3.29327 0
M  V30 3277 N 317.609 -5.75367 -3.85907 0
M  V30 3278 N 319.402 -4.56893 -3.27423 0
M  V30 3279 H 311.553 -2.10586 -0.277027 0
M  V30 3280 H 313.816 -0.929701 -0.185364 0
M  V30 3281 H 313.522 -3.28431 -1.25802 0
M  V30 3282 H 313.396 -2.50134 -2.82335 0
M  V30 3283 H 315.783 -1.56252 -2.50338 0
M  V30 3284 H 315.864 -2.38043 -0.936448 0
M  V30 3285 H 315.508 -4.61918 -2.11174 0
M  V30 3286 H 315.438 -3.77024 -3.67642 0
M  V30 3287 H 317.929 -2.97189 -2.33424 0
M  V30 3288 H 318.242 -6.44378 -4.26611 0
M  V30 3289 H 316.587 -5.79123 -3.84242 0
M  V30 3290 H 319.778 -3.73269 -2.82467 0
M  V30 3291 H 319.951 -5.31577 -3.7058 0
M  V30 3292 N 313.357 1.07166 -1.15556 0
M  V30 3293 C 314.32 2.12589 -0.856644 0
M  V30 3294 C 315.32 1.6015 0.14444 0
M  V30 3295 O 316.51 1.7399 -0.0854163 0
M  V30 3296 C 313.642 3.39753 -0.279405 0
M  V30 3297 H 314.835 2.40539 -1.79112 0
M  V30 3298 H 312.388 1.23086 -0.963298 0
M  V30 3299 H 313.123 3.17447 0.663174 0
M  V30 3300 H 312.908 3.79117 -1.00063 0
M  V30 3301 H 314.398 4.17507 -0.0879113 0
M  V30 3302 N 314.835 0.952656 1.25548 0
M  V30 3303 C 315.798 0.475794 2.24207 0
M  V30 3304 C 316.798 -0.419428 1.55234 0
M  V30 3305 O 317.988 -0.216994 1.72843 0
M  V30 3306 C 315.12 -0.312814 3.39462 0
M  V30 3307 H 316.313 1.34779 2.67908 0
M  V30 3308 H 313.866 0.735739 1.37901 0
M  V30 3309 H 314.601 -1.20257 3.01179 0
M  V30 3310 H 314.386 0.329404 3.90714 0
M  V30 3311 H 315.876 -0.635986 4.12729 0
M  V30 3312 N 316.313 -1.40141 0.720998 0
M  V30 3313 C 317.243 -2.33339 0.0867621 0
M  V30 3314 C 318.224 -1.53178 -0.739622 0
M  V30 3315 O 319.409 -1.81625 -0.687449 0
M  V30 3316 C 316.539 -3.37194 -0.831728 0
M  V30 3317 C 315.493 -4.27857 -0.110558 0
M  V30 3318 C 314.819 -5.22294 -1.14513 0
M  V30 3319 C 316.119 -5.11872 1.0385 0
M  V30 3320 H 317.813 -2.86626 0.865219 0
M  V30 3321 H 315.359 -1.37814 0.417516 0
M  V30 3322 H 317.312 -4.01335 -1.28485 0
M  V30 3323 H 316.036 -2.82314 -1.64214 0
M  V30 3324 H 314.695 -3.65176 0.322797 0
M  V30 3325 H 314.343 -4.63717 -1.94874 0
M  V30 3326 H 314.043 -5.83797 -0.667446 0
M  V30 3327 H 315.567 -5.89312 -1.59824 0
M  V30 3328 H 316.981 -5.69436 0.664482 0
M  V30 3329 H 315.378 -5.82445 1.4449 0
M  V30 3330 H 316.448 -4.4753 1.86668 0
M  V30 3331 N 317.792 -0.46758 -1.50504 0
M  V30 3332 C 319.039 0.0886219 -2.02306 0
M  V30 3333 C 319.367 1.40037 -1.34981 0
M  V30 3334 O 318.622 1.90136 -0.463318 0
M  V30 3335 C 318.921 0.323995 -3.55928 0
M  V30 3336 C 318.587 -0.905618 -4.41712 0
M  V30 3337 C 317.249 -1.24275 -4.64875 0
M  V30 3338 C 319.601 -1.72448 -4.91845 0
M  V30 3339 C 316.929 -2.39888 -5.35417 0
M  V30 3340 C 319.281 -2.87185 -5.63656 0
M  V30 3341 C 317.945 -3.21317 -5.85074 0
M  V30 3342 H 317.215 0.0324291 -0.74029 0
M  V30 3343 H 319.862 -0.620945 -1.81153 0
M  V30 3344 H 318.167 1.11577 -3.75577 0
M  V30 3345 H 319.864 0.76826 -3.93572 0
M  V30 3346 H 316.454 -0.632956 -4.239 0
M  V30 3347 H 320.638 -1.4772 -4.73806 0
M  V30 3348 H 315.894 -2.66611 -5.50208 0
M  V30 3349 H 320.068 -3.50985 -6.01484 0
M  V30 3350 H 317.695 -4.1101 -6.39511 0
M  V30 3351 N 319.27 1.56325 -0.20005 0
M  V30 3352 C 320.517 1.97719 0.437411 0
M  V30 3353 C 320.845 1.08709 1.61284 0
M  V30 3354 O 320.1 0.127261 1.95286 0
M  V30 3355 C 320.399 3.4495 0.935103 0
M  V30 3356 C 320.065 4.5072 -0.12749 0
M  V30 3357 C 318.727 4.79368 -0.419451 0
M  V30 3358 C 321.079 5.14268 -0.847231 0
M  V30 3359 C 318.407 5.68854 -1.43604 0
M  V30 3360 C 320.759 6.04852 -1.85301 0
M  V30 3361 C 319.423 6.31855 -2.15211 0
M  V30 3362 H 318.693 0.723507 0.16006 0
M  V30 3363 H 321.34 1.89166 -0.298056 0
M  V30 3364 H 319.645 3.50599 1.74894 0
M  V30 3365 H 321.342 3.74337 1.43781 0
M  V30 3366 H 317.932 4.28458 0.11023 0
M  V30 3367 H 322.116 4.92222 -0.634901 0
M  V30 3368 H 317.372 5.88047 -1.67364 0
M  V30 3369 H 321.546 6.53152 -2.41591 0
M  V30 3370 H 319.173 7.00994 -2.94129 0
M  V30 3371 N 320.748 -0.0735177 1.57428 0
M  V30 3372 C 321.995 -0.772999 1.87166 0
M  V30 3373 C 322.323 -1.77665 0.791551 0
M  V30 3374 O 321.578 -1.94541 -0.212636 0
M  V30 3375 C 321.877 -1.51799 3.23561 0
M  V30 3376 C 321.543 -0.654484 4.46125 0
M  V30 3377 C 320.205 -0.416511 4.79394 0
M  V30 3378 C 322.557 -0.0555862 5.2117 0
M  V30 3379 C 319.885 0.429869 5.85123 0
M  V30 3380 C 322.237 0.778239 6.27795 0
M  V30 3381 C 320.901 1.0261 6.59566 0
M  V30 3382 H 320.171 -0.282861 0.684888 0
M  V30 3383 H 322.818 -0.0338272 1.9147 0
M  V30 3384 H 321.123 -2.32932 3.1504 0
M  V30 3385 H 322.82 -2.06397 3.43804 0
M  V30 3386 H 319.41 -0.850091 4.20085 0
M  V30 3387 H 323.594 -0.226558 4.95783 0
M  V30 3388 H 318.85 0.630665 6.08139 0
M  V30 3389 H 323.024 1.24906 6.85107 0
M  V30 3390 H 320.651 1.68371 7.4132 0
M  V30 3391 N 322.226 -1.5378 -0.344866 0
M  V30 3392 C 323.156 -1.84662 -1.42906 0
M  V30 3393 C 324.137 -0.701648 -1.54955 0
M  V30 3394 O 325.322 -0.953438 -1.69184 0
M  V30 3395 C 322.452 -2.05503 -2.79974 0
M  V30 3396 C 321.406 -3.21318 -2.82734 0
M  V30 3397 C 320.732 -3.2749 -4.22675 0
M  V30 3398 C 322.032 -4.59456 -2.48389 0
M  V30 3399 H 323.726 -2.75461 -1.17311 0
M  V30 3400 H 321.272 -1.32542 -0.562896 0
M  V30 3401 H 323.225 -2.25691 -3.55867 0
M  V30 3402 H 321.949 -1.11434 -3.07002 0
M  V30 3403 H 320.608 -3.00984 -2.09294 0
M  V30 3404 H 320.256 -2.31019 -4.4681 0
M  V30 3405 H 319.956 -4.05316 -4.25433 0
M  V30 3406 H 321.48 -3.49887 -5.00412 0
M  V30 3407 H 322.894 -4.79667 -3.13995 0
M  V30 3408 H 321.291 -5.39675 -2.62432 0
M  V30 3409 H 322.361 -4.63155 -1.4358 0
M  V30 3410 N 323.704 0.605807 -1.45491 0
M  V30 3411 C 324.637 1.73022 -1.48791 0
M  V30 3412 C 325.615 1.58917 -0.344112 0
M  V30 3413 O 326.799 1.80453 -0.544876 0
M  V30 3414 C 323.926 3.10865 -1.34463 0
M  V30 3415 C 322.972 3.43554 -2.5273 0
M  V30 3416 S 323.805 3.38196 -4.15191 0
M  V30 3417 C 324.961 4.78616 -4.03333 0
M  V30 3418 H 325.194 1.69961 -2.43928 0
M  V30 3419 H 322.727 0.782611 -1.33096 0
M  V30 3420 H 324.685 3.90398 -1.26884 0
M  V30 3421 H 323.346 3.1144 -0.40794 0
M  V30 3422 H 322.539 4.43924 -2.38637 0
M  V30 3423 H 322.141 2.71541 -2.5718 0
M  V30 3424 H 324.433 5.68463 -3.68587 0
M  V30 3425 H 325.376 4.97767 -5.03621 0
M  V30 3426 H 325.784 4.54381 -3.34959 0
M  V30 3427 N 325.182 1.32811 0.848464 0
M  V30 3428 C 326.112 1.24882 1.97299 0
M  V30 3429 C 327.093 0.131357 1.69592 0
M  V30 3430 O 328.278 0.319553 1.91553 0
M  V30 3431 C 325.408 0.97746 3.33261 0
M  V30 3432 C 324.362 2.05682 3.75338 0
M  V30 3433 C 323.688 1.63777 5.09 0
M  V30 3434 C 324.988 3.47254 3.90144 0
M  V30 3435 H 326.682 2.18966 2.04191 0
M  V30 3436 H 324.228 1.05413 0.981029 0
M  V30 3437 H 326.181 0.908513 4.1149 0
M  V30 3438 H 324.905 0.000980011 3.266 0
M  V30 3439 H 323.564 2.11603 2.99366 0
M  V30 3440 H 323.212 0.648569 4.98801 0
M  V30 3441 H 322.912 2.36 5.38124 0
M  V30 3442 H 324.436 1.5833 5.89715 0
M  V30 3443 H 325.85 3.43888 4.58709 0
M  V30 3444 H 324.247 4.1788 4.30693 0
M  V30 3445 H 325.317 3.86462 2.92874 0
M  V30 3446 N 326.66 -1.06551 1.16123 0
M  V30 3447 C 327.885 -1.83544 0.965735 0
M  V30 3448 C 328.31 -1.81843 -0.481102 0
M  V30 3449 O 327.668 -1.21732 -1.34354 0
M  V30 3450 C 327.716 -3.28169 1.49457 0
M  V30 3451 O 326.82 -4.0643 0.699157 0
M  V30 3452 H 326.161 -0.568026 0.343864 0
M  V30 3453 H 328.691 -1.34362 1.54299 0
M  V30 3454 H 328.701 -3.78992 1.51092 0
M  V30 3455 H 327.376 -3.28722 2.54784 0
M  V30 3456 H 325.953 -3.65216 0.7531 0
M  V30 3457 N 328.138 -0.959301 -1.25041 0
M  V30 3458 C 329.363 -0.633507 -1.97488 0
M  V30 3459 C 329.788 0.788555 -1.70773 0
M  V30 3460 O 329.146 1.53394 -0.966431 0
M  V30 3461 C 329.194 -0.904057 -3.49083 0
M  V30 3462 O 328.298 0.0147939 -4.12397 0
M  V30 3463 H 327.639 -0.240368 -0.618966 0
M  V30 3464 H 330.169 -1.28717 -1.59038 0
M  V30 3465 H 330.179 -0.832203 -3.99423 0
M  V30 3466 H 328.854 -1.94048 -3.67856 0
M  V30 3467 H 327.431 -0.109664 -3.72739 0
M  V30 3468 N 329.616 1.39756 -0.72842 0
M  V30 3469 C 330.841 2.05472 -0.282159 0
M  V30 3470 C 331.266 1.54549 1.07221 0
M  V30 3471 O 330.624 0.686372 1.67805 0
M  V30 3472 C 330.672 3.59462 -0.286264 0
M  V30 3473 O 329.776 4.05918 0.728298 0
M  V30 3474 H 329.117 0.651226 -0.129618 0
M  V30 3475 H 331.647 1.78915 -0.992499 0
M  V30 3476 H 331.657 4.07798 -0.128373 0
M  V30 3477 H 330.332 3.95889 -1.27456 0
M  V30 3478 H 328.909 3.69012 0.537081 0
M  V30 3479 N 331.094 0.475555 1.50254 0
M  V30 3480 C 332.024 -0.30611 2.31485 0
M  V30 3481 C 333.005 -0.986228 1.38591 0
M  V30 3482 O 334.19 -0.982541 1.67511 0
M  V30 3483 C 331.32 -1.38588 3.1845 0
M  V30 3484 C 330.274 -0.827115 4.19932 0
M  V30 3485 C 329.6 -2.00551 4.95665 0
M  V30 3486 C 330.9 0.16463 5.2204 0
M  V30 3487 H 332.594 0.371866 2.97082 0
M  V30 3488 H 330.14 0.180282 1.42867 0
M  V30 3489 H 332.093 -1.94023 3.74076 0
M  V30 3490 H 330.817 -2.09269 2.50747 0
M  V30 3491 H 329.476 -0.294702 3.65414 0
M  V30 3492 H 329.124 -2.6994 4.2443 0
M  V30 3493 H 328.824 -1.63784 5.64313 0
M  V30 3494 H 330.348 -2.56468 5.54127 0
M  V30 3495 H 331.762 -0.300699 5.72511 0
M  V30 3496 H 330.159 0.446813 5.98434 0
M  V30 3497 H 331.229 1.08905 4.72512 0
M  V30 3498 N 332.573 -1.56217 0.208337 0
M  V30 3499 C 333.989 -1.58919 -0.14729 0
M  V30 3500 C 334.189 -1.22486 -1.59998 0
M  V30 3501 O 333.245 -0.953849 -2.3379 0
M  V30 3502 C 334.558 -3.00236 0.167048 0
M  V30 3503 C 336.106 -3.12813 0.108219 0
M  V30 3504 C 336.581 -4.56284 0.396049 0
M  V30 3505 N 338.072 -4.61912 0.345142 0
M  V30 3506 C 338.807 -5.70837 0.541523 0
M  V30 3507 N 338.303 -6.88178 0.798968 0
M  V30 3508 N 340.096 -5.60091 0.474867 0
M  V30 3509 H 332.247 -1.78177 1.15614 0
M  V30 3510 H 334.51 -0.827555 0.462446 0
M  V30 3511 H 334.216 -3.31499 1.1748 0
M  V30 3512 H 334.09 -3.7354 -0.524184 0
M  V30 3513 H 336.477 -2.81354 -0.890157 0
M  V30 3514 H 336.558 -2.41866 0.832729 0
M  V30 3515 H 336.202 -4.88458 1.3918 0
M  V30 3516 H 336.132 -5.25439 -0.349502 0
M  V30 3517 H 338.623 -3.77589 0.153316 0
M  V30 3518 H 338.936 -7.67095 0.93727 0
M  V30 3519 H 337.281 -6.89953 0.836013 0
M  V30 3520 H 340.472 -4.67297 0.274064 0
M  V30 3521 H 340.645 -6.44917 0.631326 0
M  V30 3522 N 334.051 0.0651679 -1.57465 0
M  V30 3523 C 335.298 0.763063 -1.87573 0
M  V30 3524 C 335.626 1.77242 -0.800961 0
M  V30 3525 O 334.881 1.94651 0.202316 0
M  V30 3526 C 335.18 1.50081 -3.24362 0
M  V30 3527 C 334.846 0.630816 -4.46466 0
M  V30 3528 C 333.508 0.391082 -4.79608 0
M  V30 3529 C 335.86 0.0279465 -5.21193 0
M  V30 3530 C 333.188 -0.460894 -5.84887 0
M  V30 3531 C 335.54 -0.811522 -6.27373 0
M  V30 3532 C 334.204 -1.06106 -6.59013 0
M  V30 3533 H 333.474 0.279224 -0.686378 0
M  V30 3534 H 336.121 0.0236726 -1.91485 0
M  V30 3535 H 334.426 2.31258 -3.16271 0
M  V30 3536 H 336.123 2.04571 -3.44894 0
M  V30 3537 H 332.713 0.8278 -4.2053 0
M  V30 3538 H 336.897 0.200262 -4.95896 0
M  V30 3539 H 332.153 -0.662907 -6.07796 0
M  V30 3540 H 336.327 -1.28537 -6.84435 0
M  V30 3541 H 333.954 -1.723 -7.40417 0
M  V30 3542 N 335.529 1.53961 0.336706 0
M  V30 3543 C 336.94 1.62914 0.911925 0
M  V30 3544 C 337.291 0.514795 1.89326 0
M  V30 3545 O 336.416 -0.354395 2.13478 0
M  V30 3546 C 337.011 2.95304 1.66076 0
M  V30 3547 C 335.57 3.06496 2.18489 0
M  V30 3548 C 334.717 2.58403 1.00613 0
M  V30 3549 H 337.668 1.58285 0.114649 0
M  V30 3550 H 337.689 2.84727 2.5241 0
M  V30 3551 H 337.201 3.76387 0.946276 0
M  V30 3552 H 335.302 2.3006 2.93092 0
M  V30 3553 H 335.415 4.1208 2.44391 0
M  V30 3554 H 333.779 2.13977 1.38152 0
M  V30 3555 H 334.562 3.41932 0.306179 0
M  V30 3556 N 337.007 -0.598083 1.45811 0
M  V30 3557 C 337.937 -1.71873 1.58057 0
M  V30 3558 C 338.918 -1.64533 0.431615 0
M  V30 3559 O 340.103 -1.82787 0.65595 0
M  V30 3560 C 337.233 -3.10495 1.55597 0
M  V30 3561 C 336.187 -3.32654 2.69305 0
M  V30 3562 C 335.513 -4.71646 2.51902 0
M  V30 3563 C 336.813 -3.21981 4.11248 0
M  V30 3564 H 338.507 -1.61881 2.51863 0
M  V30 3565 H 336.053 -0.777372 1.21214 0
M  V30 3566 H 338.006 -3.88699 1.6276 0
M  V30 3567 H 336.73 -3.2135 0.583255 0
M  V30 3568 H 335.389 -2.56843 2.61586 0
M  V30 3569 H 335.037 -4.79246 1.52748 0
M  V30 3570 H 334.737 -4.87426 3.2816 0
M  V30 3571 H 336.261 -5.52038 2.60933 0
M  V30 3572 H 337.675 -3.90049 4.20161 0
M  V30 3573 H 336.072 -3.49289 4.87972 0
M  V30 3574 H 337.142 -2.1928 4.32486 0
M  V30 3575 N 338.485 -1.33259 -0.841409 0
M  V30 3576 C 339.901 -1.12538 -1.13169 0
M  V30 3577 C 340.101 0.0854037 -2.01319 0
M  V30 3578 O 339.157 0.766417 -2.40587 0
M  V30 3579 C 340.47 -2.41156 -1.79623 0
M  V30 3580 C 342.018 -2.47038 -1.922 0
M  V30 3581 C 342.493 -3.7561 -2.6207 0
M  V30 3582 N 343.984 -3.76667 -2.69585 0
M  V30 3583 C 344.719 -4.72861 -3.2433 0
M  V30 3584 N 344.215 -5.79428 -3.79783 0
M  V30 3585 N 346.008 -4.6034 -3.22558 0
M  V30 3586 H 338.159 -2.10868 -0.254676 0
M  V30 3587 H 340.422 -0.931615 -0.175493 0
M  V30 3588 H 340.128 -3.29747 -1.22311 0
M  V30 3589 H 340.002 -2.53114 -2.79666 0
M  V30 3590 H 342.389 -1.58898 -2.48667 0
M  V30 3591 H 342.47 -2.39022 -0.911148 0
M  V30 3592 H 342.114 -4.64131 -2.06263 0
M  V30 3593 H 342.044 -3.80902 -3.63622 0
M  V30 3594 H 344.535 -2.99648 -2.30259 0
M  V30 3595 H 344.848 -6.48867 -4.19752 0
M  V30 3596 H 343.193 -5.83166 -3.78078 0
M  V30 3597 H 346.384 -3.76244 -2.78492 0
M  V30 3598 H 346.557 -5.35478 -3.64921 0
M  V30 3599 N 339.963 1.05934 -1.16686 0
M  V30 3600 C 340.926 2.11669 -0.879144 0
M  V30 3601 C 341.926 1.60294 0.127445 0
M  V30 3602 O 343.116 1.7389 -0.103865 0
M  V30 3603 C 340.248 3.39438 -0.315425 0
M  V30 3604 H 341.441 2.38626 -1.81653 0
M  V30 3605 H 338.994 1.22058 -0.976299 0
M  V30 3606 H 339.729 3.18132 0.629468 0
M  V30 3607 H 339.514 3.78034 -1.04079 0
M  V30 3608 H 341.004 4.17391 -0.132189 0
M  V30 3609 N 341.441 0.965919 1.2453 0
M  V30 3610 C 342.371 0.513476 2.27784 0
M  V30 3611 C 343.352 -0.445974 1.6415 0
M  V30 3612 O 344.537 -0.342485 1.91156 0
M  V30 3613 C 341.667 -0.198839 3.4673 0
M  V30 3614 C 340.621 0.676456 4.2262 0
M  V30 3615 C 339.947 -0.167248 5.34438 0
M  V30 3616 C 341.247 1.96017 4.84123 0
M  V30 3617 H 342.941 1.3765 2.65881 0
M  V30 3618 H 340.487 0.663321 1.27813 0
M  V30 3619 H 342.44 -0.526567 4.18097 0
M  V30 3620 H 341.164 -1.0962 3.07654 0
M  V30 3621 H 339.823 0.98743 3.53052 0
M  V30 3622 H 339.471 -1.0647 4.91603 0
M  V30 3623 H 339.171 0.415181 5.86131 0
M  V30 3624 H 340.695 -0.489688 6.08633 0
M  V30 3625 H 342.109 1.69814 5.47573 0
M  V30 3626 H 340.506 2.48918 5.4604 0
M  V30 3627 H 341.576 2.65622 4.05676 0
M  V30 3628 N 342.919 -1.39368 0.735821 0
M  V30 3629 C 344.196 -1.94465 0.210395 0
M  V30 3630 C 344.576 -1.67254 -1.28799 0
M  V30 3631 O 343.924 -1.00123 -2.05396 0
M  V30 3632 C 344.134 -3.4472 0.544897 0
M  V30 3633 C 345.482 -4.21708 0.494689 0
M  V30 3634 O 346.506 -3.52922 0.482136 0
M  V30 3635 O 345.365 -5.44299 0.489947 0
M  V30 3636 H 342.459 -0.826096 0.0386666 0
M  V30 3637 H 345.005 -1.48863 0.814735 0
M  V30 3638 H 343.777 -3.57963 1.58045 0
M  V30 3639 H 343.4 -3.97502 -0.08837 0
M  V30 3640 N 344.397 -0.483516 -1.5 0
M  V30 3641 C 345.645 0.067027 -2.01989 0
M  V30 3642 C 345.966 1.3909 -1.36671 0
M  V30 3643 O 345.236 1.88978 -0.516152 0
M  V30 3644 H 343.816 0.0277606 -0.746484 0
M  V30 3645 H 346.478 -0.636773 -1.84204 0
M  V30 3646 H 345.574 0.209484 -3.11396 0
M  V30 3647 N 345.875 1.56104 -0.216619 0
M  V30 3648 C 347.291 1.58995 0.13886 0
M  V30 3649 C 347.491 1.23333 1.59346 0
M  V30 3650 O 346.547 0.966234 2.33281 0
M  V30 3651 C 347.86 3.00143 -0.182968 0
M  V30 3652 C 349.408 3.12751 -0.124807 0
M  V30 3653 C 349.883 4.56068 -0.420241 0
M  V30 3654 N 351.374 4.61723 -0.369634 0
M  V30 3655 C 352.109 5.70542 -0.571789 0
M  V30 3656 N 351.605 6.87744 -0.835453 0
M  V30 3657 N 353.398 5.59831 -0.504563 0
M  V30 3658 H 345.549 1.77562 -1.16557 0
M  V30 3659 H 347.812 0.825091 -0.466828 0
M  V30 3660 H 347.518 3.30871 -1.19237 0
M  V30 3661 H 347.392 3.73813 0.504367 0
M  V30 3662 H 349.779 2.81822 0.875223 0
M  V30 3663 H 349.86 2.41421 -0.845544 0
M  V30 3664 H 349.504 4.87713 -1.41769 0
M  V30 3665 H 349.434 5.25617 0.321631 0
M  V30 3666 H 351.925 3.77502 -0.173338 0
M  V30 3667 H 352.238 7.66587 -0.977938 0
M  V30 3668 H 350.583 6.895 -0.872592 0
M  V30 3669 H 353.774 4.67145 -0.298842 0
M  V30 3670 H 353.947 6.44573 -0.665519 0
M  V30 3671 N 347.353 -0.0568162 1.57498 0
M  V30 3672 C 348.601 -0.751617 1.87604 0
M  V30 3673 C 348.922 -1.77351 0.81066 0
M  V30 3674 O 348.192 -1.95254 -0.159018 0
M  V30 3675 H 346.772 -0.280583 0.692302 0
M  V30 3676 H 349.434 -0.0293483 1.94878 0
M  V30 3677 H 348.53 -1.25852 2.856 0
M  V30 3678 N 348.832 -1.54138 -0.328536 0
M  V30 3679 C 349.762 -1.86167 -1.40939 0
M  V30 3680 C 350.743 -0.718044 -1.54202 0
M  V30 3681 O 351.928 -0.971328 -1.68163 0
M  V30 3682 C 349.058 -2.08461 -2.77779 0
M  V30 3683 C 348.012 -3.24299 -2.7931 0
M  V30 3684 C 347.338 -3.31955 -4.19178 0
M  V30 3685 C 348.638 -4.62065 -2.43502 0
M  V30 3686 H 350.332 -2.76689 -1.14383 0
M  V30 3687 H 347.878 -1.33132 -0.548806 0
M  V30 3688 H 349.831 -2.29453 -3.53454 0
M  V30 3689 H 348.555 -1.14684 -3.05802 0
M  V30 3690 H 347.214 -3.03187 -2.0609 0
M  V30 3691 H 346.862 -2.35745 -4.44335 0
M  V30 3692 H 346.562 -4.09805 -4.2111 0
M  V30 3693 H 348.086 -3.55175 -4.96672 0
M  V30 3694 H 349.5 -4.8297 -3.08889 0
M  V30 3695 H 347.897 -5.42429 -2.56693 0
M  V30 3696 H 348.967 -4.64652 -1.38659 0
M  V30 3697 N 350.31 0.590341 -1.46126 0
M  V30 3698 C 351.54 1.37304 -1.54373 0
M  V30 3699 C 351.948 1.88332 -0.181071 0
M  V30 3700 O 351.291 1.63852 0.830559 0
M  V30 3701 C 351.353 2.6012 -2.48149 0
M  V30 3702 C 351.017 2.30613 -3.94546 0
M  V30 3703 C 352.014 1.89915 -4.83971 0
M  V30 3704 C 349.699 2.42993 -4.39613 0
M  V30 3705 C 351.693 1.61981 -6.16475 0
M  V30 3706 C 349.38 2.14672 -5.72153 0
M  V30 3707 C 350.378 1.7423 -6.60404 0
M  V30 3708 O 350.066 1.46251 -7.90485 0
M  V30 3709 H 349.798 0.426086 -0.524811 0
M  V30 3710 H 352.352 0.72539 -1.92165 0
M  V30 3711 H 350.582 3.27664 -2.05361 0
M  V30 3712 H 352.271 3.22182 -2.46887 0
M  V30 3713 H 353.037 1.79872 -4.50412 0
M  V30 3714 H 348.916 2.73435 -3.71153 0
M  V30 3715 H 352.46 1.30341 -6.85315 0
M  V30 3716 H 348.357 2.24337 -6.05263 0
M  V30 3717 H 349.125 1.6016 -8.02677 0
M  V30 3718 N 351.788 1.33704 0.83433 0
M  V30 3719 C 353.204 1.13137 1.12571 0
M  V30 3720 C 353.404 -0.0747261 2.01361 0
M  V30 3721 O 352.46 -0.753647 2.4099 0
M  V30 3722 C 353.773 2.42105 1.78342 0
M  V30 3723 C 355.321 2.48054 1.90888 0
M  V30 3724 C 355.796 3.76995 2.60075 0
M  V30 3725 N 357.287 3.78092 2.67584 0
M  V30 3726 C 358.022 4.74574 3.21818 0
M  V30 3727 N 357.518 5.81434 3.76705 0
M  V30 3728 N 359.311 4.62044 3.20112 0
M  V30 3729 H 351.462 2.11 0.243489 0
M  V30 3730 H 353.725 0.932532 0.17055 0
M  V30 3731 H 353.431 3.30391 1.20561 0
M  V30 3732 H 353.305 2.54594 2.7832 0
M  V30 3733 H 355.692 1.60215 2.47821 0
M  V30 3734 H 355.773 2.39502 0.898459 0
M  V30 3735 H 355.417 4.65219 2.03799 0
M  V30 3736 H 355.347 3.82825 3.61597 0
M  V30 3737 H 357.838 3.00865 2.28667 0
M  V30 3738 H 358.151 6.51084 4.16305 0
M  V30 3739 H 356.496 5.85163 3.7498 0
M  V30 3740 H 359.687 3.77716 2.76493 0
M  V30 3741 H 359.86 5.37406 3.62076 0
M  V30 3742 N 353.266 -1.05314 1.17247 0
M  V30 3743 C 354.196 -2.1498 0.911362 0
M  V30 3744 C 355.177 -1.69471 -0.146169 0
M  V30 3745 O 356.362 -1.942 0.003812 0
M  V30 3746 C 353.492 -3.4472 0.422528 0
M  V30 3747 C 352.446 -4.03789 1.4191 0
M  V30 3748 C 351.772 -5.28858 0.788274 0
M  V30 3749 C 353.072 -4.41418 2.7919 0
M  V30 3750 H 354.766 -2.3708 1.82848 0
M  V30 3751 H 352.312 -1.13938 0.880569 0
M  V30 3752 H 354.265 -4.20787 0.227289 0
M  V30 3753 H 352.989 -3.22269 -0.530123 0
M  V30 3754 H 351.648 -3.2979 1.60106 0
M  V30 3755 H 351.296 -5.02709 -0.171173 0
M  V30 3756 H 350.996 -5.69338 1.45353 0
M  V30 3757 H 352.52 -6.07612 0.603282 0
M  V30 3758 H 353.934 -5.08524 2.64719 0
M  V30 3759 H 352.331 -4.92913 3.42282 0
M  V30 3760 H 353.401 -3.51819 3.33693 0
M  V30 3761 N 354.744 -0.972509 -1.24016 0
M  V30 3762 C 355.972 -0.654803 -1.96265 0
M  V30 3763 C 356.387 0.776708 -1.72083 0
M  V30 3764 O 355.744 1.52171 -1.00748 0
M  V30 3765 C 355.795 -0.92592 -3.49441 0
M  V30 3766 O 355.516 -2.30116 -3.72798 0
M  V30 3767 C 357.017 -0.623068 -4.38899 0
M  V30 3768 H 354.237 -0.243907 -0.6251 0
M  V30 3769 H 356.781 -1.30175 -1.57717 0
M  V30 3770 H 354.936 -0.325108 -3.86033 0
M  V30 3771 H 355.35 -2.38483 -4.67147 0
M  V30 3772 H 356.824 -0.863189 -5.45209 0
M  V30 3773 H 357.301 0.442754 -4.36963 0
M  V30 3774 H 357.907 -1.204 -4.07902 0
M  V30 3775 N 356.222 1.38976 -0.743202 0
M  V30 3776 C 357.468 2.0064 -0.295189 0
M  V30 3777 C 357.801 1.5885 1.11716 0
M  V30 3778 O 357.076 0.821181 1.76315 0
M  V30 3779 C 357.359 3.578 -0.406318 0
M  V30 3780 C 357.212 4.09586 -1.85903 0
M  V30 3781 C 358.531 4.39616 0.206439 0
M  V30 3782 H 355.65 0.728935 -0.108733 0
M  V30 3783 H 358.292 1.65067 -0.940897 0
M  V30 3784 H 356.442 3.88235 0.143419 0
M  V30 3785 H 358.114 3.89837 -2.46627 0
M  V30 3786 H 356.357 3.6284 -2.3776 0
M  V30 3787 H 357.028 5.18708 -1.888 0
M  V30 3788 H 359.504 4.15273 -0.262283 0
M  V30 3789 H 358.38 5.48812 0.0983819 0
M  V30 3790 H 358.641 4.22754 1.2935 0
M  V30 3791 N 357.7 0.491464 1.49741 0
M  V30 3792 C 358.948 -0.0563141 2.02022 0
M  V30 3793 C 359.269 -1.38363 1.37407 0
M  V30 3794 O 358.539 -1.88702 0.526166 0
M  V30 3795 H 357.119 -0.0238014 0.746621 0
M  V30 3796 H 359.781 0.646533 1.83864 0
M  V30 3797 H 358.877 -0.192967 3.11503 0
M  V30 3798 N 359.178 -1.55987 0.224894 0
M  V30 3799 C 360.424 -1.98684 -0.406502 0
M  V30 3800 C 360.757 -1.11248 -1.59177 0
M  V30 3801 O 360.032 -0.170909 -1.93748 0
M  V30 3802 C 360.315 -3.50218 -0.837808 0
M  V30 3803 C 360.168 -4.48426 0.351332 0
M  V30 3804 C 361.487 -4.06243 -1.69278 0
M  V30 3805 H 358.606 -0.722337 -0.146283 0
M  V30 3806 H 361.248 -1.87255 0.321799 0
M  V30 3807 H 359.398 -3.60089 -1.45837 0
M  V30 3808 H 361.07 -4.50562 0.989526 0
M  V30 3809 H 359.313 -4.22159 0.998207 0
M  V30 3810 H 359.984 -5.52 0.00655905 0
M  V30 3811 H 362.46 -3.99337 -1.16914 0
M  V30 3812 H 361.336 -5.12581 -1.96346 0
M  V30 3813 H 361.597 -3.53332 -2.65723 0
M  V30 3814 N 360.656 0.0484629 -1.57525 0
M  V30 3815 C 361.933 0.777447 -1.79486 0
M  V30 3816 C 362.313 1.94597 -0.818251 0
M  V30 3817 O 361.661 2.28047 0.143767 0
M  V30 3818 C 361.871 1.22864 -3.26658 0
M  V30 3819 C 363.219 1.65251 -3.91123 0
M  V30 3820 O 364.243 1.32372 -3.3069 0
M  V30 3821 O 363.102 2.26207 -4.97486 0
M  V30 3822 H 360.196 0.374357 -0.737419 0
M  V30 3823 H 362.742 0.0267359 -1.69679 0
M  V30 3824 H 361.514 0.393589 -3.89316 0
M  V30 3825 H 361.137 2.03996 -3.41279 0
M  V30 3826 N 362.134 1.5431 0.320358 0
M  V30 3827 C 363.411 1.63322 1.07635 0
M  V30 3828 C 363.791 0.46912 2.05821 0
M  V30 3829 O 363.139 -0.536274 2.22118 0
M  V30 3830 C 363.349 3.00465 1.77544 0
M  V30 3831 C 364.697 3.56621 2.30449 0
M  V30 3832 O 365.721 3.02791 1.87606 0
M  V30 3833 O 364.58 4.5083 3.08892 0
M  V30 3834 H 361.674 0.661502 0.496331 0
M  V30 3835 H 364.22 1.66656 0.319992 0
M  V30 3836 H 362.992 3.76629 1.06143 0
M  V30 3837 H 362.615 3.00824 2.59982 0
M  V30 3838 N 363.613 -0.582584 1.46437 0
M  V30 3839 C 364.576 -1.67366 1.56592 0
M  V30 3840 C 365.576 -1.54575 0.443072 0
M  V30 3841 O 366.766 -1.59191 0.707381 0
M  V30 3842 C 363.898 -3.06791 1.48634 0
M  V30 3843 H 365.091 -1.5972 2.5383 0
M  V30 3844 H 362.644 -0.800432 1.34249 0
M  V30 3845 H 363.379 -3.19993 0.526763 0
M  V30 3846 H 363.164 -3.17484 2.30101 0
M  V30 3847 H 364.654 -3.86218 1.58826 0
M  V30 3848 N 365.091 -1.34144 -0.827227 0
M  V30 3849 C 366.316 -1.29476 -1.62021 0
M  V30 3850 C 366.741 0.129292 -1.87655 0
M  V30 3851 O 366.099 1.08967 -1.449 0
M  V30 3852 C 366.147 -2.08702 -2.94068 0
M  V30 3853 O 365.251 -1.45359 -3.85933 0
M  V30 3854 H 364.592 -0.444881 -0.492927 0
M  V30 3855 H 367.122 -1.76882 -1.02829 0
M  V30 3856 H 367.132 -2.19898 -3.43669 0
M  V30 3857 H 365.807 -3.12241 -2.74734 0
M  V30 3858 H 364.384 -1.42879 -3.44442 0
M  V30 3859 N 366.569 1.04691 -1.17803 0
M  V30 3860 C 367.516 2.12557 -0.899343 0
M  V30 3861 C 368.486 1.65339 0.158771 0
M  V30 3862 O 369.671 1.90789 0.0204797 0
M  V30 3863 C 366.811 3.42481 -0.424315 0
M  V30 3864 C 365.924 4.03346 -1.54713 0
M  V30 3865 C 365.059 5.21208 -1.02546 0
M  V30 3866 C 364.098 5.74089 -2.12339 0
M  V30 3867 N 363.235 6.83247 -1.61612 0
M  V30 3868 H 368.075 2.35734 -1.823 0
M  V30 3869 H 365.612 1.1564 -0.909159 0
M  V30 3870 H 367.57 4.16996 -0.130421 0
M  V30 3871 H 366.2 3.19471 0.462377 0
M  V30 3872 H 365.252 3.2622 -1.95664 0
M  V30 3873 H 366.564 4.38628 -2.37501 0
M  V30 3874 H 365.718 6.02812 -0.685718 0
M  V30 3875 H 364.457 4.87414 -0.167084 0
M  V30 3876 H 363.462 4.91111 -2.47165 0
M  V30 3877 H 364.687 6.0993 -2.98601 0
M  V30 3878 H 362.633 6.5134 -0.780533 0
M  V30 3879 H 362.55 7.17559 -2.38003 0
M  V30 3880 H 363.818 7.68491 -1.30545 0
M  V30 3881 N 368.047 0.979072 1.23499 0
M  V30 3882 C 369.272 0.664845 1.96455 0
M  V30 3883 C 369.697 -0.761287 1.72006 0
M  V30 3884 O 369.055 -1.51837 0.990713 0
M  V30 3885 C 369.103 0.959479 3.47601 0
M  V30 3886 O 368.207 0.0508168 4.12369 0
M  V30 3887 H 367.548 0.250185 0.615064 0
M  V30 3888 H 370.078 1.31231 1.5697 0
M  V30 3889 H 370.088 0.895642 3.98048 0
M  V30 3890 H 368.763 1.99876 3.64723 0
M  V30 3891 H 367.34 0.16895 3.72517 0
M  V30 3892 N 369.525 -1.3858 0.750561 0
M  V30 3893 C 370.753 -2.04471 0.316098 0
M  V30 3894 C 371.168 -1.56606 -1.05452 0
M  V30 3895 O 370.525 -0.737784 -1.66922 0
M  V30 3896 C 370.576 -3.60025 0.326275 0
M  V30 3897 O 370.297 -4.06133 1.6428 0
M  V30 3898 C 371.798 -4.43131 -0.122429 0
M  V30 3899 H 369.018 -0.65717 0.135528 0
M  V30 3900 H 371.562 -1.77329 1.01857 0
M  V30 3901 H 369.717 -3.86014 -0.327431 0
M  V30 3902 H 370.131 -5.00547 1.56693 0
M  V30 3903 H 371.605 -5.51963 -0.0641473 0
M  V30 3904 H 372.082 -4.23333 -1.16988 0
M  V30 3905 H 372.688 -4.22323 0.50229 0
M  V30 3906 N 371.003 -0.499398 -1.49478 0
M  V30 3907 C 371.936 0.326491 -2.25852 0
M  V30 3908 C 372.914 0.971776 -1.30366 0
M  V30 3909 O 374.098 1.00219 -1.59651 0
M  V30 3910 C 371.225 1.45969 -3.05632 0
M  V30 3911 C 370.271 0.928938 -4.16261 0
M  V30 3912 S 371.104 -0.179012 -5.35201 0
M  V30 3913 C 372.26 0.957389 -6.18534 0
M  V30 3914 H 372.493 -0.321746 -2.95554 0
M  V30 3915 H 370.026 -0.284674 -1.51753 0
M  V30 3916 H 371.984 2.109 -3.52181 0
M  V30 3917 H 370.645 2.07953 -2.35402 0
M  V30 3918 H 369.838 1.77813 -4.71592 0
M  V30 3919 H 369.44 0.356869 -3.72293 0
M  V30 3920 H 371.732 1.86296 -6.51383 0
M  V30 3921 H 372.675 0.442733 -7.06715 0
M  V30 3922 H 373.083 1.224 -5.5107 0
M  V30 3923 N 372.481 1.55866 -0.233164 0
M  V30 3924 C 373.758 1.90471 0.444988 0
M  V30 3925 C 374.138 1.15209 1.7689 0
M  V30 3926 O 373.486 0.265119 2.26957 0
M  V30 3927 C 373.696 3.4333 0.626559 0
M  V30 3928 C 375.044 4.14319 0.92871 0
M  V30 3929 O 376.068 3.48993 0.712926 0
M  V30 3930 O 374.927 5.29846 1.33887 0
M  V30 3931 H 372.021 0.792347 0.236885 0
M  V30 3932 H 374.567 1.67437 -0.276211 0
M  V30 3933 H 373.339 3.90095 -0.306822 0
M  V30 3934 H 372.962 3.72181 1.39881 0
M  V30 3935 N 373.959 -0.0401083 1.57549 0
M  V30 3936 C 375.184 -0.748931 1.93406 0
M  V30 3937 C 375.609 -1.68686 0.832274 0
M  V30 3938 O 374.967 -1.80047 -0.212818 0
M  V30 3939 C 375.015 -1.4916 3.28304 0
M  V30 3940 O 374.119 -2.6042 3.19774 0
M  V30 3941 H 373.46 -0.202212 0.63246 0
M  V30 3942 H 375.99 0.00112086 2.046 0
M  V30 3943 H 376 -1.86395 3.62934 0
M  V30 3944 H 374.675 -0.80364 4.08062 0
M  V30 3945 H 373.252 -2.25808 2.96758 0
M  V30 3946 N 375.437 -1.54477 -0.31217 0
M  V30 3947 C 376.684 -1.73227 -1.04875 0
M  V30 3948 C 377.012 -0.512042 -1.87639 0
M  V30 3949 O 376.267 0.506131 -1.89042 0
M  V30 3950 C 376.566 -2.967 -1.99258 0
M  V30 3951 C 376.232 -4.30974 -1.32559 0
M  V30 3952 C 374.894 -4.67477 -1.141 0
M  V30 3953 C 377.246 -5.14258 -0.847835 0
M  V30 3954 C 374.574 -5.84852 -0.465326 0
M  V30 3955 C 376.926 -6.32327 -0.185931 0
M  V30 3956 C 375.59 -6.67499 0.0107077 0
M  V30 3957 H 374.86 -0.633881 -0.383765 0
M  V30 3958 H 377.507 -1.88727 -0.324731 0
M  V30 3959 H 375.812 -2.75935 -2.7815 0
M  V30 3960 H 377.509 -3.08401 -2.563 0
M  V30 3961 H 374.099 -4.02262 -1.4793 0
M  V30 3962 H 378.283 -4.86565 -0.978192 0
M  V30 3963 H 373.539 -6.10654 -0.301883 0
M  V30 3964 H 377.713 -6.96135 0.192211 0
M  V30 3965 H 375.34 -7.58306 0.536287 0
M  V30 3966 N 376.915 0.57481 -1.46744 0
M  V30 3967 C 377.825 1.711 -1.60505 0
M  V30 3968 C 378.841 1.67008 -0.488307 0
M  V30 3969 O 380.017 1.86774 -0.753495 0
M  V30 3970 C 377.082 3.07608 -1.59932 0
M  V30 3971 C 376.143 3.22904 -2.82898 0
M  V30 3972 C 375.376 4.529 -2.82343 0
M  V30 3973 O 375.599 5.37278 -1.91542 0
M  V30 3974 O 374.533 4.71611 -3.73987 0
M  V30 3975 H 378.359 1.62436 -2.56609 0
M  V30 3976 H 375.944 0.742779 -1.29627 0
M  V30 3977 H 377.826 3.88877 -1.62336 0
M  V30 3978 H 376.501 3.16692 -0.669898 0
M  V30 3979 H 375.408 2.41099 -2.86046 0
M  V30 3980 H 376.741 3.18715 -3.75076 0
M  V30 3981 N 378.394 1.34581 0.820102 0
M  V30 3982 C 379.324 1.29038 1.94606 0
M  V30 3983 C 380.305 0.1673 1.69275 0
M  V30 3984 O 381.49 0.360112 1.90832 0
M  V30 3985 C 378.62 1.04793 3.31113 0
M  V30 3986 C 377.574 2.13597 3.70891 0
M  V30 3987 C 376.9 1.74537 5.05412 0
M  V30 3988 C 378.2 3.55451 3.8269 0
M  V30 3989 H 379.894 2.23248 1.99501 0
M  V30 3990 H 377.44 1.0747 0.958449 0
M  V30 3991 H 379.393 0.995592 4.0947 0
M  V30 3992 H 378.117 0.0702565 3.26524 0
M  V30 3993 H 376.776 2.17905 2.9481 0
M  V30 3994 H 376.424 0.754226 4.97313 0
M  V30 3995 H 376.124 2.47361 5.32997 0
M  V30 3996 H 377.648 1.70803 5.86224 0
M  V30 3997 H 379.062 3.5354 4.51312 0
M  V30 3998 H 377.459 4.26922 4.21732 0
M  V30 3999 H 378.529 3.92587 2.84611 0
M  V30 4000 N 379.872 -1.04064 1.18357 0
M  V30 4001 C 381.118 -1.77528 0.980397 0
M  V30 4002 C 381.451 -1.87948 -0.48879 0
M  V30 4003 O 380.726 -1.3876 -1.36293 0
M  V30 4004 C 381.009 -3.20797 1.63588 0
M  V30 4005 C 380.862 -3.1832 3.17793 0
M  V30 4006 C 382.181 -4.18911 1.34914 0
M  V30 4007 H 379.3 -0.644443 0.357578 0
M  V30 4008 H 381.942 -1.2156 1.46024 0
M  V30 4009 H 380.092 -3.68586 1.22788 0
M  V30 4010 H 381.764 -2.78521 3.67728 0
M  V30 4011 H 380.007 -2.56351 3.49952 0
M  V30 4012 H 380.678 -4.19489 3.58794 0
M  V30 4013 H 383.154 -3.7967 1.70265 0
M  V30 4014 H 382.03 -5.17374 1.83346 0
M  V30 4015 H 382.291 -4.41262 0.272027 0
M  V30 4016 N 381.35 -0.985608 -1.22978 0
M  V30 4017 C 382.766 -0.695104 -1.43668 0
M  V30 4018 C 382.966 0.736866 -1.87543 0
M  V30 4019 O 382.022 1.50868 -2.02473 0
M  V30 4020 C 383.335 -1.69447 -2.48412 0
M  V30 4021 C 384.883 -1.70909 -2.62219 0
M  V30 4022 C 385.358 -2.6969 -3.70178 0
M  V30 4023 N 386.849 -2.6824 -3.77626 0
M  V30 4024 C 387.584 -3.41339 -4.60733 0
M  V30 4025 N 387.08 -4.24015 -5.4789 0
M  V30 4026 N 388.873 -3.30079 -4.54977 0
M  V30 4027 H 381.024 -1.91054 -0.928016 0
M  V30 4028 H 383.287 -0.823553 -0.469536 0
M  V30 4029 H 382.993 -2.7188 -2.23102 0
M  V30 4030 H 382.867 -1.48147 -3.46889 0
M  V30 4031 H 385.254 -0.691785 -2.86877 0
M  V30 4032 H 385.335 -1.96276 -1.6404 0
M  V30 4033 H 384.979 -3.71566 -3.46268 0
M  V30 4034 H 384.909 -2.41595 -4.67909 0
M  V30 4035 H 387.4 -2.08243 -3.15346 0
M  V30 4036 H 387.713 -4.76636 -6.08308 0
M  V30 4037 H 386.058 -4.28104 -5.47496 0
M  V30 4038 H 389.249 -2.64937 -3.85909 0
M  V30 4039 H 389.422 -3.87308 -5.19516 0
M  V30 4040 N 382.828 1.3818 -0.7579 0
M  V30 4041 C 384.244 1.5353 -0.435972 0
M  V30 4042 C 384.444 1.71961 1.05032 0
M  V30 4043 O 383.5 1.73307 1.83633 0
M  V30 4044 C 384.813 2.73989 -1.23898 0
M  V30 4045 C 386.361 2.87841 -1.22949 0
M  V30 4046 C 386.836 4.11266 -2.01554 0
M  V30 4047 N 388.327 4.18352 -1.98837 0
M  V30 4048 C 389.062 5.12856 -2.5645 0
M  V30 4049 N 388.558 6.13005 -3.22794 0
M  V30 4050 N 390.351 5.05238 -2.46356 0
M  V30 4051 H 382.502 1.24467 -1.7211 0
M  V30 4052 H 384.765 0.604982 -0.729864 0
M  V30 4053 H 384.471 2.66789 -2.29165 0
M  V30 4054 H 384.345 3.67294 -0.858764 0
M  V30 4055 H 386.732 2.9452 -0.184854 0
M  V30 4056 H 386.813 1.95534 -1.64924 0
M  V30 4057 H 386.457 4.05349 -3.06031 0
M  V30 4058 H 386.387 5.02661 -1.5697 0
M  V30 4059 H 388.878 3.46628 -1.50524 0
M  V30 4060 H 389.191 6.81619 -3.64165 0
M  V30 4061 H 387.536 6.13325 -3.2689 0
M  V30 4062 H 390.727 4.25938 -1.9415 0
M  V30 4063 H 390.9 5.78707 -2.91552 0
M  V30 4064 N 384.306 0.507319 1.49211 0
M  V30 4065 C 385.269 -0.256763 2.27757 0
M  V30 4066 C 386.269 -0.888287 1.34038 0
M  V30 4067 O 387.459 -0.751841 1.5714 0
M  V30 4068 C 384.591 -1.36905 3.12202 0
M  V30 4069 H 385.784 0.432557 2.96764 0
M  V30 4070 H 383.337 0.262488 1.5408 0
M  V30 4071 H 384.072 -2.09233 2.47775 0
M  V30 4072 H 383.857 -0.921599 3.81115 0
M  V30 4073 H 385.347 -1.9071 3.7151 0
M  V30 4074 N 385.784 -1.5574 0.241426 0
M  V30 4075 C 387.03 -1.99104 -0.385406 0
M  V30 4076 C 387.363 -1.1293 -1.57988 0
M  V30 4077 O 386.638 -0.191449 -1.93555 0
M  V30 4078 C 386.921 -3.51087 -0.800616 0
M  V30 4079 C 386.774 -4.48028 0.398874 0
M  V30 4080 C 388.093 -4.08015 -1.64959 0
M  V30 4081 H 385.212 -0.723848 -0.138614 0
M  V30 4082 H 387.854 -1.86903 0.341642 0
M  V30 4083 H 386.004 -3.61615 -1.4201 0
M  V30 4084 H 387.676 -4.49487 1.03726 0
M  V30 4085 H 385.919 -4.21077 1.04293 0
M  V30 4086 H 386.59 -5.51962 0.0651056 0
M  V30 4087 H 389.066 -4.00555 -1.12672 0
M  V30 4088 H 387.942 -5.14635 -1.90898 0
M  V30 4089 H 388.203 -3.56131 -2.61961 0
M  V30 4090 N 387.262 0.0317525 -1.57568 0
M  V30 4091 C 388.225 1.01783 -2.0536 0
M  V30 4092 C 389.225 1.29203 -0.957253 0
M  V30 4093 O 390.415 1.24251 -1.22095 0
M  V30 4094 C 387.547 2.35137 -2.46827 0
M  V30 4095 H 388.74 0.605062 -2.93733 0
M  V30 4096 H 386.293 0.278514 -1.53799 0
M  V30 4097 H 387.028 2.81168 -1.61602 0
M  V30 4098 H 386.813 2.16566 -3.26866 0
M  V30 4099 H 388.303 3.05938 -2.84239 0
M  V30 4100 N 388.74 1.54641 0.303973 0
M  V30 4101 C 389.987 1.7378 1.03955 0
M  V30 4102 C 390.315 0.521986 1.87365 0
M  V30 4103 O 389.57 -0.496099 1.89308 0
M  V30 4104 C 389.869 2.97753 1.97681 0
M  V30 4105 C 389.535 4.31671 1.30271 0
M  V30 4106 C 388.197 4.68075 1.11619 0
M  V30 4107 C 390.549 5.147 0.82055 0
M  V30 4108 C 387.877 5.8509 0.434304 0
M  V30 4109 C 390.229 6.32416 0.152395 0
M  V30 4110 C 388.893 6.67484 -0.0461067 0
M  V30 4111 H 388.163 0.635908 0.380398 0
M  V30 4112 H 390.81 1.88896 0.314718 0
M  V30 4113 H 389.115 2.77406 2.76682 0
M  V30 4114 H 390.812 3.09756 2.54661 0
M  V30 4115 H 387.402 4.03041 1.45795 0
M  V30 4116 H 391.586 4.87077 0.952374 0
M  V30 4117 H 386.842 6.10806 0.269495 0
M  V30 4118 H 391.016 6.96023 -0.229126 0
M  V30 4119 H 388.643 7.58011 -0.576494 0
M  V30 4120 N 390.218 -0.567019 1.47046 0
M  V30 4121 C 391.495 -1.3276 1.43646 0
M  V30 4122 C 391.875 -2.1071 0.128186 0
M  V30 4123 O 391.223 -2.10441 -0.890326 0
M  V30 4124 C 391.433 -2.2404 2.67595 0
M  V30 4125 C 392.781 -2.85372 3.14401 0
M  V30 4126 O 393.805 -2.34346 2.68254 0
M  V30 4127 O 392.664 -3.78091 3.946 0
M  V30 4128 H 389.758 -0.597293 0.571988 0
M  V30 4129 H 392.304 -0.586735 1.59234 0
M  V30 4130 H 391.076 -1.65975 3.54356 0
M  V30 4131 H 390.699 -3.05439 2.54544 0
M  V30 4132 N 391.696 -1.35014 -0.812953 0
M  V30 4133 C 392.924 -1.31031 -1.6012 0
M  V30 4134 C 393.339 0.113558 -1.88458 0
M  V30 4135 O 392.696 1.06363 -1.48301 0
M  V30 4136 C 392.747 -2.10872 -2.93624 0
M  V30 4137 O 392.468 -3.47706 -2.66518 0
M  V30 4138 C 393.969 -2.14401 -3.88004 0
M  V30 4139 H 391.189 -0.45037 -0.497401 0
M  V30 4140 H 393.733 -1.77775 -1.01076 0
M  V30 4141 H 391.888 -1.67744 -3.492 0
M  V30 4142 H 392.302 -3.89097 -3.51715 0
M  V30 4143 H 393.776 -2.74669 -4.78812 0
M  V30 4144 H 394.253 -1.14105 -4.24119 0
M  V30 4145 H 394.859 -2.57662 -3.38364 0
M  V30 4146 N 393.175 1.03435 -1.18907 0
M  V30 4147 C 394.085 2.15075 -0.937015 0
M  V30 4148 C 395.101 1.73706 0.101085 0
M  V30 4149 O 396.277 2.01232 -0.0822948 0
M  V30 4150 C 393.342 3.43458 -0.473057 0
M  V30 4151 C 392.403 3.99172 -1.57989 0
M  V30 4152 C 391.636 5.21427 -1.13797 0
M  V30 4153 O 391.859 5.704 0.000725941 0
M  V30 4154 O 390.793 5.69837 -1.9383 0
M  V30 4155 H 394.619 2.39198 -1.87131 0
M  V30 4156 H 392.204 1.13506 -0.971427 0
M  V30 4157 H 394.086 4.20811 -0.222702 0
M  V30 4158 H 392.761 3.20793 0.432869 0
M  V30 4159 H 391.668 3.23178 -1.88433 0
M  V30 4160 H 393.001 4.2619 -2.46217 0
M  V30 4161 N 394.653 0.992116 1.22453 0
M  V30 4162 C 395.902 0.662992 1.90492 0
M  V30 4163 C 396.215 -0.808407 1.78113 0
M  V30 4164 O 397.421 -1.24908 2.41061 0
M  V30 4165 C 395.877 1.1353 3.41524 0
M  V30 4166 C 395.485 2.63187 3.62542 0
M  V30 4167 C 397.229 0.880465 4.15269 0
M  V30 4168 C 395.136 3.04024 5.0727 0
M  V30 4169 H 394.066 0.244278 0.713333 0
M  V30 4170 H 396.717 1.20157 1.38688 0
M  V30 4171 H 395.099 0.52485 3.92506 0
M  V30 4172 H 396.273 3.2957 3.22056 0
M  V30 4173 H 394.588 2.86543 3.02129 0
M  V30 4174 H 397.185 1.16128 5.21937 0
M  V30 4175 H 397.528 -0.183408 4.15896 0
M  V30 4176 H 398.061 1.45307 3.70312 0
M  V30 4177 H 394.8 4.09584 5.11782 0
M  V30 4178 H 394.32 2.42343 5.48662 0
M  V30 4179 H 395.999 2.95282 5.75689 0
M  V30 4180 N 396.131 -1.37776 0.765217 0
M  V30 4181 C 397.041 -2.34135 0.147666 0
M  V30 4182 C 398.057 -1.59854 -0.687215 0
M  V30 4183 O 399.233 -1.91983 -0.608659 0
M  V30 4184 C 396.298 -3.3901 -0.72617 0
M  V30 4185 C 395.359 -4.2912 0.124417 0
M  V30 4186 C 394.592 -5.28986 -0.707807 0
M  V30 4187 O 394.815 -5.36205 -1.94525 0
M  V30 4188 O 393.749 -6.01779 -0.12046 0
M  V30 4189 H 397.575 -2.88664 0.943758 0
M  V30 4190 H 395.16 -1.39824 0.526277 0
M  V30 4191 H 397.042 -4.03195 -1.22524 0
M  V30 4192 H 395.717 -2.86819 -1.50056 0
M  V30 4193 H 394.624 -3.68057 0.669696 0
M  V30 4194 H 395.957 -4.84598 0.861736 0
M  V30 4195 N 397.609 -0.515225 -1.4894 0
M  V30 4196 C 398.855 0.0242508 -2.02785 0
M  V30 4197 C 399.188 1.35323 -1.39289 0
M  V30 4198 O 398.463 1.87041 -0.533469 0
M  V30 4199 C 398.746 0.16184 -3.59736 0
M  V30 4200 C 398.599 -1.19127 -4.33738 0
M  V30 4201 C 399.918 0.895719 -4.30888 0
M  V30 4202 H 397.037 0.00733914 -0.736963 0
M  V30 4203 H 399.679 -0.669395 -1.77818 0
M  V30 4204 H 397.829 0.752624 -3.8114 0
M  V30 4205 H 399.501 -1.82202 -4.23792 0
M  V30 4206 H 397.744 -1.77695 -3.95736 0
M  V30 4207 H 398.415 -1.04815 -5.41957 0
M  V30 4208 H 400.891 0.394528 -4.14225 0
M  V30 4209 H 399.767 0.960859 -5.40425 0
M  V30 4210 H 400.028 1.9427 -3.97129 0
M  V30 4211 N 399.087 1.5561 -0.249682 0
M  V30 4212 C 400.017 2.24477 0.642826 0
M  V30 4213 C 400.998 1.22601 1.17911 0
M  V30 4214 O 402.183 1.5126 1.21795 0
M  V30 4215 C 399.313 2.94638 1.83863 0
M  V30 4216 C 398.267 4.03227 1.435 0
M  V30 4217 C 397.593 4.60828 2.71186 0
M  V30 4218 C 398.893 5.18796 0.604002 0
M  V30 4219 H 400.587 2.99321 0.0685625 0
M  V30 4220 H 398.133 1.43965 0.0315363 0
M  V30 4221 H 400.086 3.41517 2.46868 0
M  V30 4222 H 398.81 2.17287 2.43832 0
M  V30 4223 H 397.469 3.57121 0.828275 0
M  V30 4224 H 397.117 3.80174 3.29358 0
M  V30 4225 H 396.817 5.34132 2.44901 0
M  V30 4226 H 398.341 5.10442 3.35084 0
M  V30 4227 H 399.755 5.61883 1.13842 0
M  V30 4228 H 398.152 5.98506 0.437097 0
M  V30 4229 H 399.222 4.83384 -0.383147 0
M  V30 4230 N 400.565 -0.0233959 1.57583 0
M  V30 4231 C 401.79 -0.728376 1.94189 0
M  V30 4232 C 402.215 -1.67793 0.850119 0
M  V30 4233 O 401.573 -1.80262 -0.19371 0
M  V30 4234 C 401.621 -1.45669 3.29868 0
M  V30 4235 O 400.725 -2.57013 3.22518 0
M  V30 4236 H 400.066 -0.195493 0.63457 0
M  V30 4237 H 402.596 0.0228214 2.04587 0
M  V30 4238 H 402.606 -1.82535 3.6489 0
M  V30 4239 H 401.281 -0.760314 4.08891 0
M  V30 4240 H 399.858 -2.22648 2.99136 0
M  V30 4241 N 402.043 -1.548 -0.295768 0
M  V30 4242 C 403.32 -1.65014 -1.05023 0
M  V30 4243 C 403.7 -0.501805 -2.05049 0
M  V30 4244 O 403.048 0.500869 -2.22943 0
M  V30 4245 C 403.258 -3.03252 -1.72741 0
M  V30 4246 C 404.606 -3.60242 -2.24746 0
M  V30 4247 O 405.63 -3.05737 -1.82765 0
M  V30 4248 O 404.489 -4.55687 -3.01681 0
M  V30 4249 H 401.583 -0.669314 -0.485744 0
M  V30 4250 H 404.129 -1.67144 -0.293438 0
M  V30 4251 H 402.901 -3.7827 -1.00138 0
M  V30 4252 H 402.524 -3.04922 -2.55163 0
M  V30 4253 N 403.521 0.559213 -1.47345 0
M  V30 4254 C 404.746 1.34676 -1.57725 0
M  V30 4255 C 405.171 1.86723 -0.227164 0
M  V30 4256 O 404.529 1.6286 0.796642 0
M  V30 4257 C 404.577 2.49399 -2.60447 0
M  V30 4258 O 403.681 3.51567 -2.15578 0
M  V30 4259 H 403.022 0.400115 -0.52991 0
M  V30 4260 H 405.552 0.676009 -1.93109 0
M  V30 4261 H 405.562 2.95996 -2.80803 0
M  V30 4262 H 404.237 2.10873 -3.58477 0
M  V30 4263 H 402.814 3.11289 -2.05313 0
M  V30 4264 N 404.999 1.35443 0.805782 0
M  V30 4265 C 405.909 1.30546 1.94923 0
M  V30 4266 C 406.925 0.210233 1.72725 0
M  V30 4267 O 408.101 0.43975 1.9654 0
M  V30 4268 C 405.166 1.07782 3.29521 0
M  V30 4269 C 404.227 2.26625 3.64609 0
M  V30 4270 C 403.46 2.04938 4.92784 0
M  V30 4271 O 403.683 1.01624 5.61274 0
M  V30 4272 O 402.617 2.9232 5.26149 0
M  V30 4273 H 406.443 2.26779 2.02002 0
M  V30 4274 H 404.028 1.15823 0.943682 0
M  V30 4275 H 405.91 0.969392 4.10098 0
M  V30 4276 H 404.585 0.146003 3.23371 0
M  V30 4277 H 403.492 2.43033 2.84404 0
M  V30 4278 H 404.825 3.18257 3.75464 0
M  V30 4279 N 406.477 -1.02803 1.19454 0
M  V30 4280 C 407.723 -1.76598 1.0092 0
M  V30 4281 C 408.078 -1.86939 -0.455142 0
M  V30 4282 O 407.371 -1.37575 -1.33355 0
M  V30 4283 C 407.565 -3.18941 1.6128 0
M  V30 4284 C 407.394 -3.22476 3.13431 0
M  V30 4285 C 406.164 -3.30375 3.82336 0
M  V30 4286 C 408.362 -3.09451 4.10785 0
M  V30 4287 N 406.344 -3.23292 5.21877 0
M  V30 4288 C 407.715 -3.10012 5.36929 0
M  V30 4289 C 409.77 -2.93585 4.02135 0
M  V30 4290 C 408.473 -2.96334 6.55423 0
M  V30 4291 C 410.499 -2.81256 5.20239 0
M  V30 4292 C 409.861 -2.82472 6.45282 0
M  V30 4293 H 405.96 -0.657447 0.423424 0
M  V30 4294 H 408.544 -1.22369 1.5144 0
M  V30 4295 H 406.715 -3.71489 1.1336 0
M  V30 4296 H 408.447 -3.81102 1.36173 0
M  V30 4297 H 405.202 -3.3663 3.33132 0
M  V30 4298 H 405.626 -3.23156 5.94894 0
M  V30 4299 H 410.268 -2.91466 3.0628 0
M  V30 4300 H 407.986 -2.97203 7.51463 0
M  V30 4301 H 411.572 -2.70014 5.15348 0
M  V30 4302 H 410.452 -2.73036 7.35133 0
M  V30 4303 N 407.956 -0.998596 -1.21925 0
M  V30 4304 C 408.906 -0.524743 -2.21879 0
M  V30 4305 C 409.89 0.41017 -1.55584 0
M  V30 4306 O 411.082 0.236063 -1.75419 0
M  V30 4307 C 408.211 0.153636 -3.42956 0
M  V30 4308 C 407.297 -0.801918 -4.16449 0
M  V30 4309 N 407.688 -1.95211 -4.66611 0
M  V30 4310 C 405.986 -0.618972 -4.41684 0
M  V30 4311 C 406.687 -2.55234 -5.22715 0
M  V30 4312 N 405.663 -1.83451 -5.1171 0
M  V30 4313 H 409.465 -1.40189 -2.58311 0
M  V30 4314 H 406.979 -0.86159 -1.3766 0
M  V30 4315 H 408.976 0.510534 -4.13762 0
M  V30 4316 H 407.636 1.02684 -3.08036 0
M  V30 4317 H 408.647 -2.33271 -4.62391 0
M  V30 4318 H 405.324 0.207694 -4.16983 0
M  V30 4319 H 406.714 -3.52471 -5.72026 0
M  V30 4320 N 409.434 1.37368 -0.772513 0
M  V30 4321 C 410.364 2.32856 -0.173304 0
M  V30 4322 C 411.345 1.55818 0.682262 0
M  V30 4323 O 412.53 1.84052 0.619566 0
M  V30 4324 C 409.66 3.40048 0.706007 0
M  V30 4325 C 408.614 4.27973 -0.0483144 0
M  V30 4326 C 407.94 5.26184 0.950491 0
M  V30 4327 C 409.24 5.07665 -1.22776 0
M  V30 4328 H 410.934 2.83217 -0.971002 0
M  V30 4329 H 408.48 1.3617 -0.468377 0
M  V30 4330 H 410.433 4.05827 1.13501 0
M  V30 4331 H 409.157 2.88214 1.53623 0
M  V30 4332 H 407.816 3.63726 -0.458107 0
M  V30 4333 H 407.464 4.7063 1.77529 0
M  V30 4334 H 407.164 5.85872 0.450314 0
M  V30 4335 H 408.688 5.94838 1.37842 0
M  V30 4336 H 410.102 5.66578 -0.875366 0
M  V30 4337 H 408.499 5.76681 -1.66007 0
M  V30 4338 H 409.569 4.40294 -2.03149 0
M  V30 4339 N 410.912 0.523116 1.48665 0
M  V30 4340 C 412.14 -0.0096312 2.06898 0
M  V30 4341 C 412.555 -1.28784 1.38059 0
M  V30 4342 O 411.912 -1.76453 0.465893 0
M  V30 4343 C 411.963 -0.244386 3.60673 0
M  V30 4344 O 411.684 0.983172 4.26925 0
M  V30 4345 C 413.185 -0.818289 4.35682 0
M  V30 4346 H 410.405 0.0304161 0.67031 0
M  V30 4347 H 412.949 0.726799 1.91149 0
M  V30 4348 H 411.104 -0.930847 3.76051 0
M  V30 4349 H 411.518 0.759653 5.1897 0
M  V30 4350 H 412.992 -0.93201 5.44075 0
M  V30 4351 H 413.469 -1.82153 3.99646 0
M  V30 4352 H 414.075 -0.168609 4.24966 0
M  V30 4353 N 412.39 -1.55475 0.257931 0
M  V30 4354 C 413.34 -2.18506 -0.651094 0
M  V30 4355 C 414.324 -1.14431 -1.13112 0
M  V30 4356 O 415.516 -1.40305 -1.07905 0
M  V30 4357 C 412.645 -2.89653 -1.84272 0
M  V30 4358 C 411.731 -4.00996 -1.38068 0
M  V30 4359 N 412.122 -5.01816 -0.633609 0
M  V30 4360 C 410.42 -4.13753 -1.66506 0
M  V30 4361 C 411.121 -5.80371 -0.392922 0
M  V30 4362 N 410.097 -5.3505 -0.960359 0
M  V30 4363 H 413.899 -2.93811 -0.0722883 0
M  V30 4364 H 411.413 -1.62286 0.0607256 0
M  V30 4365 H 413.41 -3.33245 -2.50506 0
M  V30 4366 H 412.07 -2.15854 -2.42564 0
M  V30 4367 H 413.081 -5.17128 -0.282626 0
M  V30 4368 H 409.758 -3.51133 -2.25858 0
M  V30 4369 H 411.148 -6.7159 0.204235 0
M  V30 4370 N 413.868 0.0150385 -1.57593 0
M  V30 4371 C 415.284 0.370907 -1.5523 0
M  V30 4372 C 415.484 1.75735 -0.985882 0
M  V30 4373 O 414.54 2.44944 -0.613077 0
M  V30 4374 C 415.853 0.259908 -2.99575 0
M  V30 4375 C 417.401 0.335959 -3.11192 0
M  V30 4376 C 417.876 0.254253 -4.57294 0
M  V30 4377 N 419.367 0.312618 -4.62144 0
M  V30 4378 C 420.102 0.272505 -5.72752 0
M  V30 4379 N 419.598 0.183864 -6.92556 0
M  V30 4380 N 421.391 0.323267 -5.6117 0
M  V30 4381 H 413.542 -0.892104 -1.92757 0
M  V30 4382 H 415.805 -0.340563 -0.884715 0
M  V30 4383 H 415.511 -0.693403 -3.44797 0
M  V30 4384 H 415.385 1.048 -3.62349 0
M  V30 4385 H 417.772 1.27971 -2.65909 0
M  V30 4386 H 417.853 -0.481739 -2.51223 0
M  V30 4387 H 417.497 -0.685887 -5.03247 0
M  V30 4388 H 417.427 1.09024 -5.15191 0
M  V30 4389 H 419.918 0.38307 -3.75953 0
M  V30 4390 H 420.231 0.15874 -7.72637 0
M  V30 4391 H 418.576 0.149708 -6.94839 0
M  V30 4392 H 421.767 0.390607 -4.66467 0
M  V30 4393 H 421.94 0.288539 -6.47357 0
M  V30 4394 N 415.346 1.54954 0.287554 0
M  V30 4395 C 416.592 1.75132 1.02257 0
M  V30 4396 C 416.925 0.542858 1.86458 0
M  V30 4397 O 416.2 -0.459856 1.88986 0
M  V30 4398 C 416.483 3.04812 1.91733 0
M  V30 4399 C 416.336 4.35985 1.10622 0
M  V30 4400 C 417.655 3.30438 2.90687 0
M  V30 4401 H 414.774 0.637194 0.370341 0
M  V30 4402 H 417.416 1.87678 0.296111 0
M  V30 4403 H 415.566 2.94247 2.53675 0
M  V30 4404 H 417.238 4.58487 0.508636 0
M  V30 4405 H 415.481 4.31865 0.409271 0
M  V30 4406 H 416.152 5.23017 1.76513 0
M  V30 4407 H 418.628 3.40701 2.38877 0
M  V30 4408 H 417.504 4.22467 3.50447 0
M  V30 4409 H 417.765 2.49377 3.65053 0
M  V30 4410 N 416.824 -0.551391 1.4764 0
M  V30 4411 C 417.787 -1.64007 1.60107 0
M  V30 4412 C 418.787 -1.53601 0.47576 0
M  V30 4413 O 419.977 -1.57655 0.740988 0
M  V30 4414 C 417.109 -3.03569 1.55108 0
M  V30 4415 H 418.302 -1.543 2.57161 0
M  V30 4416 H 415.855 -0.771776 1.35917 0
M  V30 4417 H 416.59 -3.18804 0.594519 0
M  V30 4418 H 416.375 -3.12532 2.36783 0
M  V30 4419 H 417.865 -3.82762 1.66982 0
M  V30 4420 N 418.302 -1.35869 -0.798587 0
M  V30 4421 C 419.579 -1.20145 -1.54352 0
M  V30 4422 C 419.959 0.216161 -2.0999 0
M  V30 4423 O 419.307 1.22068 -1.93162 0
M  V30 4424 C 419.517 -2.27602 -2.64572 0
M  V30 4425 C 420.865 -2.63811 -3.32699 0
M  V30 4426 O 421.889 -2.26576 -2.74849 0
M  V30 4427 O 420.748 -3.27866 -4.37226 0
M  V30 4428 H 417.842 -0.467248 -0.682355 0
M  V30 4429 H 420.388 -1.47574 -0.837859 0
M  V30 4430 H 419.16 -3.2265 -2.21388 0
M  V30 4431 H 418.783 -2.01488 -3.42766 0
M  V30 4432 N 419.78 1.02168 -1.19998 0
M  V30 4433 C 421.005 1.79833 -1.03319 0
M  V30 4434 C 421.43 1.83504 0.413281 0
M  V30 4435 O 420.788 1.26635 1.29743 0
M  V30 4436 C 420.836 3.22396 -1.61533 0
M  V30 4437 O 419.94 4.03555 -0.849519 0
M  V30 4438 H 419.281 0.554872 -0.364709 0
M  V30 4439 H 421.811 1.28542 -1.59179 0
M  V30 4440 H 421.821 3.73124 -1.65054 0
M  V30 4441 H 420.496 3.19039 -2.66809 0
M  V30 4442 H 419.073 3.62169 -0.888129 0
M  V30 4443 N 421.258 1.00505 1.21394 0
M  V30 4444 C 422.505 0.687774 1.90462 0
M  V30 4445 C 422.833 -0.78147 1.7811 0
M  V30 4446 O 422.088 -1.58208 1.1519 0
M  V30 4447 C 422.387 1.0546 3.41486 0
M  V30 4448 C 422.053 2.51812 3.74034 0
M  V30 4449 C 420.715 2.91804 3.82628 0
M  V30 4450 C 423.067 3.46614 3.8924 0
M  V30 4451 C 420.395 4.2556 4.03876 0
M  V30 4452 C 422.747 4.80044 4.11995 0
M  V30 4453 C 421.411 5.19759 4.18816 0
M  V30 4454 H 420.681 0.251674 0.696951 0
M  V30 4455 H 423.328 1.26349 1.43903 0
M  V30 4456 H 421.633 0.397133 3.89782 0
M  V30 4457 H 423.33 0.786976 3.93202 0
M  V30 4458 H 419.92 2.1982 3.67936 0
M  V30 4459 H 424.104 3.16883 3.81967 0
M  V30 4460 H 419.36 4.55901 4.07387 0
M  V30 4461 H 423.534 5.53439 4.22704 0
M  V30 4462 H 421.161 6.23418 4.35033 0
M  V30 4463 N 422.737 -1.36956 0.779787 0
M  V30 4464 C 423.962 -2.04283 0.358224 0
M  V30 4465 C 424.387 -1.58422 -1.01411 0
M  V30 4466 O 423.745 -0.748179 -1.65142 0
M  V30 4467 C 423.793 -3.58152 0.419479 0
M  V30 4468 O 422.897 -4.08342 -0.577142 0
M  V30 4469 H 422.238 -0.645967 0.153698 0
M  V30 4470 H 424.768 -1.75108 1.05822 0
M  V30 4471 H 424.778 -4.07041 0.279636 0
M  V30 4472 H 423.453 -3.90886 1.42061 0
M  V30 4473 H 422.03 -3.70751 -0.399755 0
M  V30 4474 N 424.215 -0.530993 -1.48385 0
M  V30 4475 C 425.178 0.220497 -2.28137 0
M  V30 4476 C 426.178 0.866851 -1.35434 0
M  V30 4477 O 427.368 0.726746 -1.58316 0
M  V30 4478 C 424.5 1.31921 -3.1434 0
M  V30 4479 H 425.693 -0.479714 -2.96038 0
M  V30 4480 H 423.246 -0.286968 -1.53643 0
M  V30 4481 H 423.981 2.05264 -2.51072 0
M  V30 4482 H 423.766 0.86085 -3.82533 0
M  V30 4483 H 425.256 1.84776 -3.74497 0
M  V30 4484 N 425.693 1.55336 -0.266172 0
M  V30 4485 C 426.941 1.99003 0.35246 0
M  V30 4486 C 427.262 1.15591 1.57047 0
M  V30 4487 O 426.532 0.243268 1.94384 0
M  V30 4488 H 425.112 0.735025 0.133217 0
M  V30 4489 H 427.774 1.91367 -0.369434 0
M  V30 4490 H 426.87 3.05289 0.648453 0
M  V30 4491 N 427.171 -0.0066808 1.57599 0
M  V30 4492 C 428.587 -0.36267 1.55425 0
M  V30 4493 C 428.787 -1.75209 0.995187 0
M  V30 4494 O 427.843 -2.44616 0.626058 0
M  V30 4495 C 429.156 -0.244017 2.99708 0
M  V30 4496 C 430.704 -0.319451 3.11366 0
M  V30 4497 C 431.179 -0.229998 4.57422 0
M  V30 4498 N 432.67 -0.288105 4.62303 0
M  V30 4499 C 433.405 -0.242127 5.72889 0
M  V30 4500 N 432.901 -0.147133 6.92644 0
M  V30 4501 N 434.694 -0.293502 5.61333 0
M  V30 4502 H 426.845 0.902314 1.92281 0
M  V30 4503 H 429.108 0.34525 0.882896 0
M  V30 4504 H 428.814 0.711678 3.44424 0
M  V30 4505 H 428.688 -1.02877 3.629 0
M  V30 4506 H 431.075 -1.26559 2.66584 0
M  V30 4507 H 431.156 0.495055 2.50964 0
M  V30 4508 H 430.8 0.712566 5.02877 0
M  V30 4509 H 430.73 -1.0629 5.15761 0
M  V30 4510 H 433.221 -0.363126 3.76151 0
M  V30 4511 H 433.534 -0.117763 7.7271 0
M  V30 4512 H 431.879 -0.112857 6.94908 0
M  V30 4513 H 435.07 -0.365864 4.66668 0
M  V30 4514 H 435.243 -0.254204 6.47501 0
M  V30 4515 N 428.649 -1.55105 -0.279332 0
M  V30 4516 C 429.895 -1.75672 -1.01327 0
M  V30 4517 C 430.228 -0.552739 -1.86168 0
M  V30 4518 O 429.503 0.449827 -1.89227 0
M  V30 4519 C 429.786 -3.05825 -1.90114 0
M  V30 4520 C 429.639 -4.36565 -1.08309 0
M  V30 4521 C 430.958 -3.31975 -2.8893 0
M  V30 4522 H 428.077 -0.639149 -0.366957 0
M  V30 4523 H 430.719 -1.87833 -0.286154 0
M  V30 4524 H 428.869 -2.95588 -2.52111 0
M  V30 4525 H 430.541 -4.58751 -0.484314 0
M  V30 4526 H 428.784 -4.32076 -0.386362 0
M  V30 4527 H 429.455 -5.23946 -1.73737 0
M  V30 4528 H 431.931 -3.41963 -2.37067 0
M  V30 4529 H 430.807 -4.2432 -3.48201 0
M  V30 4530 H 431.068 -2.51309 -3.63725 0
M  V30 4531 N 430.127 0.543554 -1.4793 0
M  V30 4532 C 431.374 1.30008 -1.55255 0
M  V30 4533 C 431.702 1.93245 -0.220612 0
M  V30 4534 O 430.957 1.79141 0.787843 0
M  V30 4535 C 431.256 2.42078 -2.62932 0
M  V30 4536 C 430.922 1.96583 -4.0579 0
M  V30 4537 C 429.584 1.83893 -4.44676 0
M  V30 4538 C 431.936 1.62034 -4.95373 0
M  V30 4539 C 429.264 1.34969 -5.70964 0
M  V30 4540 C 431.616 1.14577 -6.22137 0
M  V30 4541 C 430.28 1.00493 -6.59892 0
M  V30 4542 H 429.55 0.475735 -0.568117 0
M  V30 4543 H 432.197 0.608075 -1.81589 0
M  V30 4544 H 430.502 3.16892 -2.30406 0
M  V30 4545 H 432.199 3.00236 -2.65818 0
M  V30 4546 H 428.789 2.07407 -3.75074 0
M  V30 4547 H 432.973 1.70705 -4.66019 0
M  V30 4548 H 428.229 1.2274 -5.98953 0
M  V30 4549 H 432.403 0.869109 -6.90955 0
M  V30 4550 H 430.03 0.623624 -7.57638 0
M  V30 4551 N 431.605 1.3629 0.791371 0
M  V30 4552 C 432.535 1.33137 1.91825 0
M  V30 4553 C 433.516 0.203168 1.68882 0
M  V30 4554 O 434.701 0.400509 1.90025 0
M  V30 4555 C 431.831 1.11793 3.28816 0
M  V30 4556 C 430.785 2.21417 3.66277 0
M  V30 4557 C 430.111 1.85218 5.01596 0
M  V30 4558 C 431.411 3.63489 3.75064 0
M  V30 4559 H 433.105 2.2743 1.9472 0
M  V30 4560 H 430.651 1.09479 0.935437 0
M  V30 4561 H 432.604 1.08222 4.07266 0
M  V30 4562 H 431.328 0.139501 3.26302 0
M  V30 4563 H 429.987 2.2411 2.90121 0
M  V30 4564 H 429.635 0.859544 4.95602 0
M  V30 4565 H 429.335 2.58611 5.27631 0
M  V30 4566 H 430.859 1.832 5.82469 0
M  V30 4567 H 432.273 3.63034 4.43711 0
M  V30 4568 H 430.67 4.35771 4.12582 0
M  V30 4569 H 431.74 3.98536 2.76219 0
M  V30 4570 N 433.083 -1.0153 1.20538 0
M  V30 4571 C 434.311 -1.78746 1.04199 0
M  V30 4572 C 434.726 -1.84323 -0.408733 0
M  V30 4573 O 434.083 -1.29714 -1.28377 0
M  V30 4574 C 434.134 -3.23152 1.62035 0
M  V30 4575 O 433.855 -3.17918 3.0143 0
M  V30 4576 C 435.356 -4.16911 1.50666 0
M  V30 4577 H 432.576 -0.56208 0.366479 0
M  V30 4578 H 435.12 -1.27794 1.59653 0
M  V30 4579 H 433.275 -3.71248 1.10697 0
M  V30 4580 H 433.689 -4.08567 3.28897 0
M  V30 4581 H 435.163 -5.16072 1.95892 0
M  V30 4582 H 435.64 -4.36791 0.459363 0
M  V30 4583 H 436.246 -3.74698 2.01201 0
M  V30 4584 N 434.561 -1.01147 -1.20859 0
M  V30 4585 C 435.809 -0.696486 -1.89719 0
M  V30 4586 C 436.13 0.775788 -1.78904 0
M  V30 4587 O 435.4 1.55759 -1.18811 0
M  V30 4588 H 433.98 -0.254628 -0.702263 0
M  V30 4589 H 436.642 -1.28197 -1.46804 0
M  V30 4590 H 435.738 -0.975357 -2.96468 0
M  V30 4591 N 436.039 1.36541 -0.78704 0
M  V30 4592 C 437.316 1.9355 -0.282424 0
M  V30 4593 C 437.696 1.71919 1.22503 0
M  V30 4594 O 437.044 1.07677 2.01539 0
M  V30 4595 C 437.254 3.4246 -0.672462 0
M  V30 4596 C 438.602 4.19582 -0.650863 0
M  V30 4597 O 439.626 3.50889 -0.612789 0
M  V30 4598 O 438.485 5.42106 -0.691623 0
M  V30 4599 H 435.579 0.824091 -0.0693 0
M  V30 4600 H 438.125 1.45736 -0.869423 0
M  V30 4601 H 436.897 3.51851 -1.71221 0
M  V30 4602 H 436.52 3.97556 -0.0592211 0
M  V30 4603 N 437.518 0.538854 1.48102 0
M  V30 4604 C 438.481 -0.208395 2.28251 0
M  V30 4605 C 439.481 -0.859656 1.35892 0
M  V30 4606 O 440.671 -0.71834 1.58699 0
M  V30 4607 C 437.803 -1.30252 3.15035 0
M  V30 4608 H 438.996 0.495407 2.9578 0
M  V30 4609 H 436.549 0.295112 1.53489 0
M  V30 4610 H 437.284 -2.0393 2.52157 0
M  V30 4611 H 437.069 -0.840551 3.82985 0
M  V30 4612 H 438.559 -1.82787 3.75471 0
M  V30 4613 N 438.996 -1.55193 0.274407 0
M  V30 4614 C 439.959 -2.212 -0.600279 0
M  V30 4615 C 440.959 -1.18963 -1.08187 0
M  V30 4616 O 442.149 -1.43873 -0.982158 0
M  V30 4617 C 439.281 -2.87739 -1.82809 0
M  V30 4618 H 440.474 -2.9989 -0.0239682 0
M  V30 4619 H 438.027 -1.5628 0.0250192 0
M  V30 4620 H 438.762 -2.13058 -2.44493 0
M  V30 4621 H 438.547 -3.62658 -1.49069 0
M  V30 4622 H 440.037 -3.38171 -2.45011 0
M  V30 4623 N 440.474 -0.00167713 -1.576 0
M  V30 4624 C 441.424 0.997744 -2.0501 0
M  V30 4625 C 442.408 1.30214 -0.94515 0
M  V30 4626 O 443.6 1.29284 -1.20891 0
M  V30 4627 C 440.729 2.2892 -2.55833 0
M  V30 4628 C 439.815 2.01437 -3.73208 0
M  V30 4629 N 440.206 1.44119 -4.84833 0
M  V30 4630 C 438.504 2.31571 -3.8117 0
M  V30 4631 C 439.205 1.33145 -5.66257 0
M  V30 4632 N 438.181 1.81763 -5.12312 0
M  V30 4633 H 441.983 0.549098 -2.88725 0
M  V30 4634 H 439.497 0.20398 -1.61114 0
M  V30 4635 H 441.494 3.01361 -2.88075 0
M  V30 4636 H 440.154 2.74436 -1.73537 0
M  V30 4637 H 441.165 1.11978 -5.0565 0
M  V30 4638 H 437.842 2.7995 -3.09732 0
M  V30 4639 H 439.232 0.890567 -6.65972 0
M  V30 4640 N 441.952 1.55251 0.271103 0
M  V30 4641 C 443.18 1.79974 1.02064 0
M  V30 4642 C 443.595 0.574003 1.79863 0
M  V30 4643 O 442.952 -0.456962 1.76686 0
M  V30 4644 C 443.003 3.02603 1.97772 0
M  V30 4645 O 442.724 4.20443 1.23124 0
M  V30 4646 C 444.225 3.39944 2.84522 0
M  V30 4647 H 441.445 0.599489 0.301419 0
M  V30 4648 H 443.989 2.02268 0.301313 0
M  V30 4649 H 442.144 2.8243 2.65165 0
M  V30 4650 H 442.558 4.89783 1.87651 0
M  V30 4651 H 444.032 4.28915 3.47471 0
M  V30 4652 H 444.509 2.59432 3.54389 0
M  V30 4653 H 445.115 3.62383 2.22618 0
M  V30 4654 N 443.43 -0.535701 1.48216 0
M  V30 4655 C 444.36 -1.65014 1.65204 0
M  V30 4656 C 445.341 -1.62554 0.501011 0
M  V30 4657 O 446.526 -1.7984 0.732886 0
M  V30 4658 C 443.656 -3.03616 1.68626 0
M  V30 4659 C 442.61 -3.20932 2.83172 0
M  V30 4660 C 441.936 -4.60537 2.71679 0
M  V30 4661 C 443.236 -3.04249 4.24535 0
M  V30 4662 H 444.93 -1.51053 2.58502 0
M  V30 4663 H 442.476 -0.725262 1.24402 0
M  V30 4664 H 444.429 -3.81446 1.79099 0
M  V30 4665 H 443.153 -3.18587 0.719026 0
M  V30 4666 H 441.812 -2.45517 2.72244 0
M  V30 4667 H 441.46 -4.72336 1.72937 0
M  V30 4668 H 441.16 -4.73069 3.48538 0
M  V30 4669 H 442.684 -5.40475 2.84112 0
M  V30 4670 H 444.098 -3.71877 4.36326 0
M  V30 4671 H 442.495 -3.28278 5.02348 0
M  V30 4672 H 443.565 -2.00739 4.41397 0
M  V30 4673 N 444.908 -1.36708 -0.784132 0
M  V30 4674 C 446.133 -1.34565 -1.5782 0
M  V30 4675 C 446.558 0.0695257 -1.87971 0
M  V30 4676 O 445.916 1.04302 -1.48293 0
M  V30 4677 C 445.964 -2.17952 -2.87279 0
M  V30 4678 O 445.068 -1.57563 -3.81114 0
M  V30 4679 H 444.409 -0.460337 -0.478524 0
M  V30 4680 H 446.939 -1.80064 -0.971495 0
M  V30 4681 H 446.949 -2.30721 -3.365 0
M  V30 4682 H 445.624 -3.20823 -2.64661 0
M  V30 4683 H 444.201 -1.53764 -3.39722 0
M  V30 4684 N 446.386 1.0089 -1.21074 0
M  V30 4685 C 447.797 1.56056 -1.02486 0
M  V30 4686 C 448.148 1.91728 0.416506 0
M  V30 4687 O 447.273 1.73066 1.29912 0
M  V30 4688 C 447.868 2.83563 -1.85411 0
M  V30 4689 C 446.427 3.3523 -1.71166 0
M  V30 4690 C 445.574 2.0846 -1.82865 0
M  V30 4691 H 448.525 0.831818 -1.35154 0
M  V30 4692 H 448.546 3.55286 -1.36205 0
M  V30 4693 H 448.058 2.57569 -2.9031 0
M  V30 4694 H 446.159 3.66167 -0.689361 0
M  V30 4695 H 446.272 4.06913 -2.52901 0
M  V30 4696 H 444.636 2.21275 -1.26132 0
M  V30 4697 H 445.419 1.84883 -2.89263 0
M  V30 4698 N 447.864 1.01787 1.20321 0
M  V30 4699 C 449.089 0.727009 1.9424 0
M  V30 4700 C 449.514 -0.706179 1.74341 0
M  V30 4701 O 448.872 -1.48609 1.03852 0
M  V30 4702 C 448.92 1.06958 3.44372 0
M  V30 4703 O 448.024 0.181983 4.11998 0
M  V30 4704 H 447.365 0.269626 0.606793 0
M  V30 4705 H 449.895 1.36158 1.52716 0
M  V30 4706 H 449.905 1.02182 3.94997 0
M  V30 4707 H 448.58 2.11378 3.58179 0
M  V30 4708 H 447.157 0.287378 3.71791 0
M  V30 4709 N 449.342 -1.36122 0.79427 0
M  V30 4710 C 450.59 -1.98718 0.368177 0
M  V30 4711 C 450.911 -1.63345 -1.06506 0
M  V30 4712 O 450.181 -0.909825 -1.73491 0
M  V30 4713 H 448.761 -0.735038 0.133146 0
M  V30 4714 H 451.423 -1.66239 1.01739 0
M  V30 4715 H 450.519 -3.08633 0.463923 0
M  V30 4716 N 450.82 -0.546701 -1.47814 0
M  V30 4717 C 452.068 -0.0187037 -2.02091 0
M  V30 4718 C 452.389 1.33168 -1.42447 0
M  V30 4719 O 451.659 1.86619 -0.595839 0
M  V30 4720 H 450.239 -0.00392531 -0.74699 0
M  V30 4721 H 452.901 -0.714327 -1.81338 0
M  V30 4722 H 451.997 0.0772219 -3.12004 0
M  V30 4723 N 452.299 1.55045 -0.282633 0
M  V30 4724 C 453.546 1.9976 0.33199 0
M  V30 4725 C 453.874 1.17105 1.55295 0
M  V30 4726 O 453.129 0.230599 1.94337 0
M  V30 4727 C 453.428 3.49422 0.750938 0
M  V30 4728 C 453.094 4.4941 -0.366228 0
M  V30 4729 C 451.756 4.76471 -0.672964 0
M  V30 4730 C 454.108 5.09054 -1.11864 0
M  V30 4731 C 451.436 5.60442 -1.73556 0
M  V30 4732 C 453.788 5.9418 -2.17102 0
M  V30 4733 C 452.452 6.19558 -2.48402 0
M  V30 4734 H 451.722 0.730974 0.121484 0
M  V30 4735 H 454.369 1.8732 -0.39791 0
M  V30 4736 H 452.674 3.59377 1.56063 0
M  V30 4737 H 454.371 3.81432 1.23736 0
M  V30 4738 H 450.961 4.2844 -0.117041 0
M  V30 4739 H 455.145 4.88165 -0.894925 0
M  V30 4740 H 450.401 5.78349 -1.983 0
M  V30 4741 H 454.575 6.39427 -2.75873 0
M  V30 4742 H 452.202 6.84417 -3.30874 0
M  V30 4743 N 453.777 0.010035 1.57597 0
M  V30 4744 C 455.025 -0.671371 1.90623 0
M  V30 4745 C 455.346 -1.73753 0.885151 0
M  V30 4746 O 454.616 -1.95752 -0.0760611 0
M  V30 4747 H 453.196 -0.250968 0.703579 0
M  V30 4748 H 455.858 0.0533325 1.94827 0
M  V30 4749 H 454.954 -1.13626 2.90681 0
M  V30 4750 N 455.255 -1.55392 -0.262866 0
M  V30 4751 C 456.188 -1.8391 -1.35101 0
M  V30 4752 C 457.166 -0.692901 -1.47097 0
M  V30 4753 O 458.35 -0.936979 -1.63563 0
M  V30 4754 C 455.477 -2.00969 -2.72634 0
M  V30 4755 C 454.523 -3.23559 -2.7787 0
M  V30 4756 S 455.356 -4.80647 -2.3609 0
M  V30 4757 C 456.512 -5.00692 -3.75578 0
M  V30 4758 H 456.745 -2.75918 -1.1071 0
M  V30 4759 H 454.278 -1.47294 -0.463029 0
M  V30 4760 H 456.236 -2.11482 -3.51832 0
M  V30 4761 H 454.897 -1.09832 -2.94272 0
M  V30 4762 H 454.09 -3.32413 -3.78837 0
M  V30 4763 H 453.692 -3.11689 -2.06702 0
M  V30 4764 H 455.984 -4.87055 -4.70939 0
M  V30 4765 H 456.927 -6.02717 -3.71669 0
M  V30 4766 H 457.335 -4.28619 -3.6735 0
M  V30 4767 N 456.733 0.527833 -1.48498 0
M  V30 4768 C 457.681 1.65313 -1.63628 0
M  V30 4769 C 458.675 1.6177 -0.502676 0
M  V30 4770 O 459.881 1.66601 -0.681469 0
M  V30 4771 H 456.256 0.547518 -0.515488 0
M  V30 4772 H 458.227 1.49696 -2.58135 0
M  V30 4773 C 456.976 3.03576 -1.6952 0
M  V30 4774 H 456.299 3.06997 -2.56111 0
M  V30 4775 H 457.739 3.81923 -1.84149 0
M  V30 4776 C 456.198 3.34089 -0.43432 0
M  V30 4777 O 456.728 3.99151 0.451852 0
M  V30 4778 N 454.934 2.88991 -0.305368 0
M  V30 4779 H 454.481 2.36222 -1.02747 0
M  V30 4780 H 454.439 3.09776 0.537249 0
M  V30 4781 N 458.211 1.37122 0.776871 0
M  V30 4782 C 459.439 1.3523 1.5659 0
M  V30 4783 C 459.854 -0.0635518 1.88693 0
M  V30 4784 O 459.211 -1.02394 1.51069 0
M  V30 4785 C 459.262 2.18583 2.8793 0
M  V30 4786 O 458.983 3.5465 2.57206 0
M  V30 4787 C 460.484 2.24612 3.82183 0
M  V30 4788 H 457.704 0.4634 0.485285 0
M  V30 4789 H 460.248 1.80392 0.963266 0
M  V30 4790 H 458.403 1.76943 3.4463 0
M  V30 4791 H 458.817 3.98286 3.41275 0
M  V30 4792 H 460.291 2.87267 4.71361 0
M  V30 4793 H 460.768 1.25309 4.20944 0
M  V30 4794 H 461.374 2.66543 3.31414 0
M  V30 4795 N 459.689 -1.00246 1.21608 0
M  V30 4796 C 460.937 -1.73717 1.0328 0
M  V30 4797 C 461.258 -1.90102 -0.434318 0
M  V30 4798 O 460.528 -1.45376 -1.31311 0
M  V30 4799 H 459.108 -0.643613 0.379172 0
M  V30 4800 H 461.77 -1.20787 1.52959 0
M  V30 4801 H 460.866 -2.73535 1.50283 0
M  V30 4802 N 461.167 -1.02423 -1.1978 0
M  V30 4803 C 462.416 -0.713265 -1.88667 0
M  V30 4804 C 462.729 0.7609 -1.80193 0
M  V30 4805 O 463.935 1.18473 -2.44288 0
M  V30 4806 C 462.391 -1.22545 -3.38394 0
M  V30 4807 C 461.999 -2.72706 -3.55437 0
M  V30 4808 C 463.743 -0.990257 -4.12788 0
M  V30 4809 C 461.65 -3.17367 -4.99031 0
M  V30 4810 H 460.58 -0.263105 -0.706606 0
M  V30 4811 H 463.231 -1.23792 -1.35454 0
M  V30 4812 H 461.613 -0.628732 -3.90977 0
M  V30 4813 H 462.787 -3.37993 -3.13205 0
M  V30 4814 H 461.102 -2.94453 -2.94425 0
M  V30 4815 H 463.699 -1.29926 -5.18675 0
M  V30 4816 H 464.042 0.0730761 -4.16236 0
M  V30 4817 H 464.575 -1.55074 -3.66329 0
M  V30 4818 H 461.314 -4.23009 -5.00743 0
M  V30 4819 H 460.834 -2.56805 -5.42044 0
M  V30 4820 H 462.513 -3.10441 -5.67658 0
M  V30 4821 N 462.645 1.35699 -0.801477 0
M  V30 4822 C 463.893 1.9852 -0.37871 0
M  V30 4823 C 464.214 1.63907 1.05638 0
M  V30 4824 O 463.484 0.919013 1.73006 0
M  V30 4825 H 462.064 0.734322 -0.137042 0
M  V30 4826 H 464.726 1.65697 -1.02619 0
M  V30 4827 H 463.822 3.08382 -0.480284 0
M  V30 4828 N 464.123 0.554532 1.47522 0
M  V30 4829 C 465.348 0.0322661 2.07375 0
M  V30 4830 C 465.773 -1.25079 1.40488 0
M  V30 4831 O 465.131 -1.74859 0.47896 0
M  V30 4832 C 465.179 -0.149397 3.6029 0
M  V30 4833 O 464.283 -1.21259 3.9417 0
M  V30 4834 H 463.624 0.0501228 0.662106 0
M  V30 4835 H 466.154 0.769452 1.8958 0
M  V30 4836 H 466.164 -0.364437 4.06369 0
M  V30 4837 H 464.839 0.787743 4.08372 0
M  V30 4838 H 463.416 -0.97825 3.5984 0
M  V30 4839 N 465.601 -1.54893 0.290851 0
M  V30 4840 C 466.564 -2.21824 -0.576784 0
M  V30 4841 C 467.564 -1.20104 -1.06919 0
M  V30 4842 O 468.754 -1.44906 -0.966843 0
M  V30 4843 C 465.886 -2.89662 -1.79747 0
M  V30 4844 H 467.079 -2.99899 0.00784051 0
M  V30 4845 H 464.632 -1.56245 0.0415934 0
M  V30 4846 H 465.367 -2.15639 -2.42219 0
M  V30 4847 H 465.152 -3.64219 -1.45214 0
M  V30 4848 H 466.642 -3.4075 -2.4141 0
M  V30 4849 N 467.08 -0.0183926 -1.57589 0
M  V30 4850 C 468.043 0.951986 -2.08494 0
M  V30 4851 C 469.043 1.26092 -0.997874 0
M  V30 4852 O 470.233 1.20304 -1.25987 0
M  V30 4853 C 467.365 2.27165 -2.54182 0
M  V30 4854 H 468.558 0.511307 -2.95509 0
M  V30 4855 H 466.111 0.229444 -1.54607 0
M  V30 4856 H 466.846 2.75884 -1.70465 0
M  V30 4857 H 466.631 2.06057 -3.33591 0
M  V30 4858 H 468.121 2.9674 -2.93828 0
M  V30 4859 N 468.558 1.5553 0.254621 0
M  V30 4860 C 469.835 1.6774 1.00611 0
M  V30 4861 C 470.215 0.555993 2.03647 0
M  V30 4862 O 469.563 -0.441583 2.24193 0
M  V30 4863 C 469.773 3.07725 1.6464 0
M  V30 4864 C 471.121 3.66074 2.15116 0
M  V30 4865 O 472.145 3.10476 1.74595 0
M  V30 4866 O 471.004 4.63526 2.89493 0
M  V30 4867 H 468.098 0.681958 0.467828 0
M  V30 4868 H 470.644 1.67863 0.24902 0
M  V30 4869 H 469.416 3.80792 0.900734 0
M  V30 4870 H 469.039 3.1158 2.46989 0
M  V30 4871 N 470.036 -0.519951 1.48776 0
M  V30 4872 C 470.966 -1.63253 1.66945 0
M  V30 4873 C 471.947 -1.62014 0.518224 0
M  V30 4874 O 473.132 -1.79053 0.751919 0
M  V30 4875 C 470.262 -3.0181 1.71836 0
M  V30 4876 C 469.216 -3.17911 2.8656 0
M  V30 4877 C 468.542 -4.5763 2.76548 0
M  V30 4878 C 469.842 -2.99729 4.27738 0
M  V30 4879 H 471.536 -1.48302 2.6009 0
M  V30 4880 H 469.082 -0.712026 1.25165 0
M  V30 4881 H 471.035 -3.79525 1.83135 0
M  V30 4882 H 469.759 -3.17806 0.752775 0
M  V30 4883 H 468.418 -2.42616 2.74833 0
M  V30 4884 H 468.066 -4.70476 1.77937 0
M  V30 4885 H 467.766 -4.69346 3.53536 0
M  V30 4886 H 469.29 -5.37431 2.89828 0
M  V30 4887 H 470.704 -3.67228 4.40246 0
M  V30 4888 H 469.101 -3.22932 5.05801 0
M  V30 4889 H 470.171 -1.96047 4.43502 0
M  V30 4890 N 471.514 -1.37532 -0.769588 0
M  V30 4891 C 472.762 -1.32597 -1.5252 0
M  V30 4892 C 473.083 0.0884294 -1.94799 0
M  V30 4893 O 472.353 1.03289 -1.66458 0
M  V30 4894 H 470.933 -0.487846 -0.565699 0
M  V30 4895 H 473.595 -1.72044 -0.915806 0
M  V30 4896 H 472.691 -1.96643 -2.42359 0
M  V30 4897 N 472.992 0.995999 -1.22138 0
M  V30 4898 C 474.238 1.7386 -1.05567 0
M  V30 4899 C 474.593 1.8808 0.405418 0
M  V30 4900 O 473.886 1.41062 1.29661 0
M  V30 4901 C 474.08 3.14553 -1.6968 0
M  V30 4902 C 473.909 3.14053 -3.21871 0
M  V30 4903 C 472.679 3.20121 -3.90961 0
M  V30 4904 C 474.877 2.98451 -4.18845 0
M  V30 4905 N 472.859 3.09342 -5.30265 0
M  V30 4906 C 474.23 2.95667 -5.4496 0
M  V30 4907 C 476.285 2.8282 -4.09777 0
M  V30 4908 C 474.988 2.78852 -6.63049 0
M  V30 4909 C 477.014 2.67364 -5.27513 0
M  V30 4910 C 476.376 2.65264 -6.52544 0
M  V30 4911 H 472.475 0.645989 -0.440706 0
M  V30 4912 H 475.059 1.1831 -1.54631 0
M  V30 4913 H 473.23 3.68353 -1.2317 0
M  V30 4914 H 474.962 3.77358 -1.4623 0
M  V30 4915 H 471.717 3.27679 -3.4194 0
M  V30 4916 H 472.141 3.0727 -6.03253 0
M  V30 4917 H 476.783 2.83243 -3.139 0
M  V30 4918 H 474.501 2.77175 -7.59078 0
M  V30 4919 H 478.087 2.56256 -5.22326 0
M  V30 4920 H 476.967 2.5345 -7.42114 0
M  V30 4921 N 474.47 1.03057 1.19235 0
M  V30 4922 C 475.417 0.612832 2.22515 0
M  V30 4923 C 476.387 -0.374224 1.61829 0
M  V30 4924 O 477.572 -0.270501 1.88873 0
M  V30 4925 C 474.712 -0.028475 3.45088 0
M  V30 4926 C 473.825 1.00483 4.20151 0
M  V30 4927 C 472.96 0.333102 5.30155 0
M  V30 4928 C 471.999 1.3522 5.96977 0
M  V30 4929 N 471.136 0.70616 6.9854 0
M  V30 4930 H 475.976 1.49812 2.57605 0
M  V30 4931 H 473.513 0.749658 1.26564 0
M  V30 4932 H 475.471 -0.417548 4.15105 0
M  V30 4933 H 474.101 -0.877334 3.10649 0
M  V30 4934 H 473.153 1.51194 3.49062 0
M  V30 4935 H 474.465 1.77929 4.65986 0
M  V30 4936 H 473.619 -0.110725 6.06599 0
M  V30 4937 H 472.358 -0.473547 4.85396 0
M  V30 4938 H 471.363 1.80627 5.19282 0
M  V30 4939 H 472.588 2.16037 6.4382 0
M  V30 4940 H 470.534 -0.0803667 6.55951 0
M  V30 4941 H 470.451 1.41848 7.42573 0
M  V30 4942 H 471.719 0.286391 7.78974 0
M  V30 4943 N 475.948 -1.35272 0.808662 0
M  V30 4944 C 476.878 -2.32315 0.234981 0
M  V30 4945 C 477.859 -1.57572 -0.64071 0
M  V30 4946 O 479.044 -1.8563 -0.570551 0
M  V30 4947 C 476.174 -3.41801 -0.615601 0
M  V30 4948 C 475.128 -4.27694 0.161767 0
M  V30 4949 C 474.454 -5.28519 -0.810649 0
M  V30 4950 C 475.754 -5.04231 1.36193 0
M  V30 4951 H 477.448 -2.80543 1.04575 0
M  V30 4952 H 474.994 -1.3488 0.504315 0
M  V30 4953 H 476.947 -4.08693 -1.02702 0
M  V30 4954 H 475.671 -2.92186 -1.45928 0
M  V30 4955 H 474.33 -3.62384 0.554382 0
M  V30 4956 H 473.978 -4.75171 -1.64988 0
M  V30 4957 H 473.678 -5.8686 -0.294822 0
M  V30 4958 H 475.202 -5.98283 -1.22023 0
M  V30 4959 H 476.616 -5.64058 1.02528 0
M  V30 4960 H 475.013 -5.72077 1.81239 0
M  V30 4961 H 476.083 -4.34753 2.14751 0
M  V30 4962 N 477.426 -0.562348 -1.47226 0
M  V30 4963 C 478.389 0.172056 -2.28553 0
M  V30 4964 C 479.389 0.837928 -1.37242 0
M  V30 4965 O 480.579 0.693001 -1.59822 0
M  V30 4966 C 477.711 1.25223 -3.17068 0
M  V30 4967 H 478.904 -0.542401 -2.94954 0
M  V30 4968 H 476.457 -0.319493 -1.53 0
M  V30 4969 H 477.192 1.99892 -2.55369 0
M  V30 4970 H 476.977 0.779515 -3.84273 0
M  V30 4971 H 478.467 1.76791 -3.78332 0
M  V30 4972 N 478.904 1.54736 -0.299062 0
M  V30 4973 C 479.867 2.22127 0.565012 0
M  V30 4974 C 480.867 1.20669 1.06281 0
M  V30 4975 O 482.057 1.45417 0.959145 0
M  V30 4976 C 479.189 2.90611 1.78208 0
M  V30 4977 H 480.382 2.99891 -0.0237448 0
M  V30 4978 H 477.935 1.5622 -0.0498788 0
M  V30 4979 H 478.67 2.16921 2.41072 0
M  V30 4980 H 478.455 3.64984 1.43281 0
M  V30 4981 H 479.945 3.42026 2.396 0
M  V30 4982 N 480.382 0.0267497 1.57577 0
M  V30 4983 C 481.61 -0.662661 1.96001 0
M  V30 4984 C 482.025 -1.65799 0.903117 0
M  V30 4985 O 481.382 -1.82135 -0.115317 0
M  V30 4986 C 481.433 -1.37112 3.34488 0
M  V30 4987 O 481.154 -0.415683 4.36123 0
M  V30 4988 C 482.655 -2.15257 3.8753 0
M  V30 4989 H 479.875 -0.18287 0.6456 0
M  V30 4990 H 482.419 0.0858116 2.0432 0
M  V30 4991 H 480.574 -2.07101 3.27395 0
M  V30 4992 H 480.988 -0.918496 5.16395 0
M  V30 4993 H 482.462 -2.60285 4.86781 0
M  V30 4994 H 482.939 -2.99063 3.21649 0
M  V30 4995 H 483.545 -1.50231 3.97883 0
M  V30 4996 N 481.861 -1.55662 -0.24637 0
M  V30 4997 C 482.791 -1.93377 -1.30873 0
M  V30 4998 C 483.772 -0.798773 -1.50179 0
M  V30 4999 O 484.957 -1.0591 -1.62778 0
M  V30 5000 C 482.087 -2.22893 -2.66338 0
M  V30 5001 C 481.041 -3.38649 -2.61727 0
M  V30 5002 C 480.367 -3.53708 -4.00992 0
M  V30 5003 C 481.667 -4.74323 -2.18666 0
M  V30 5004 H 483.361 -2.82363 -0.995552 0
M  V30 5005 H 480.907 -1.35854 -0.477464 0
M  V30 5006 H 482.86 -2.47866 -3.40794 0
M  V30 5007 H 481.584 -1.30733 -2.99293 0
M  V30 5008 H 480.243 -3.13685 -1.89729 0
M  V30 5009 H 479.891 -2.58967 -4.31214 0
M  V30 5010 H 479.591 -4.31551 -3.98795 0
M  V30 5011 H 481.115 -3.81003 -4.77147 0
M  V30 5012 H 482.529 -4.98665 -2.82854 0
M  V30 5013 H 480.926 -5.55273 -2.27579 0
M  V30 5014 H 481.996 -4.71349 -1.13834 0
M  V30 5015 N 483.339 0.512053 -1.4905 0
M  V30 5016 C 484.755 0.84224 -1.35567 0
M  V30 5017 C 484.955 1.97878 -0.380319 0
M  V30 5018 O 484.011 2.51769 0.19201 0
M  V30 5019 C 485.324 1.19286 -2.76028 0
M  V30 5020 C 486.872 1.30171 -2.84648 0
M  V30 5021 C 487.347 1.68568 -4.25851 0
M  V30 5022 N 488.838 1.75638 -4.28609 0
M  V30 5023 C 489.573 2.06769 -5.34821 0
M  V30 5024 N 489.069 2.36201 -6.51292 0
M  V30 5025 N 490.862 2.07927 -5.22229 0
M  V30 5026 H 483.013 -0.237574 -2.11067 0
M  V30 5027 H 485.276 -0.0436747 -0.946993 0
M  V30 5028 H 484.982 0.431199 -3.49047 0
M  V30 5029 H 484.856 2.13889 -3.10695 0
M  V30 5030 H 487.243 2.05411 -2.11873 0
M  V30 5031 H 487.324 0.336457 -2.53578 0
M  V30 5032 H 486.968 0.938824 -4.99148 0
M  V30 5033 H 486.898 2.66174 -4.54377 0
M  V30 5034 H 489.389 1.55097 -3.44606 0
M  V30 5035 H 489.702 2.59112 -7.28066 0
M  V30 5036 H 488.047 2.33681 -6.54536 0
M  V30 5037 H 491.238 1.84403 -4.30248 0
M  V30 5038 H 491.411 2.31856 -6.05101 0
M  V30 5039 N 484.817 1.37938 0.762283 0
M  V30 5040 C 486.065 1.33404 1.51815 0
M  V30 5041 C 486.386 -0.0780975 1.94844 0
M  V30 5042 O 485.656 -1.02405 1.67003 0
M  V30 5043 H 484.236 0.490839 0.563104 0
M  V30 5044 H 486.898 1.72527 0.906669 0
M  V30 5045 H 485.994 1.97926 2.41313 0
M  V30 5046 N 486.295 -0.989507 1.22664 0
M  V30 5047 C 487.541 -1.73298 1.06487 0
M  V30 5048 C 487.896 -1.88292 -0.395438 0
M  V30 5049 O 487.189 -1.41748 -1.28911 0
M  V30 5050 C 487.383 -3.13649 1.71345 0
M  V30 5051 C 487.212 -3.12341 3.23532 0
M  V30 5052 C 485.982 -3.18044 3.92653 0
M  V30 5053 C 488.18 -2.96226 4.20422 0
M  V30 5054 N 486.162 -3.06526 5.31898 0
M  V30 5055 C 487.533 -2.92773 5.4652 0
M  V30 5056 C 489.588 -2.80642 4.11271 0
M  V30 5057 C 488.291 -2.75332 6.64519 0
M  V30 5058 C 490.317 -2.64563 5.28924 0
M  V30 5059 C 489.679 -2.618 6.53942 0
M  V30 5060 H 485.778 -0.643643 0.444126 0
M  V30 5061 H 488.362 -1.17489 1.55256 0
M  V30 5062 H 486.533 -3.67694 1.25122 0
M  V30 5063 H 488.265 -3.76577 1.48229 0
M  V30 5064 H 485.02 -3.25861 3.43673 0
M  V30 5065 H 485.444 -3.04067 6.04874 0
M  V30 5066 H 490.086 -2.81574 3.15398 0
M  V30 5067 H 487.804 -2.73145 7.60538 0
M  V30 5068 H 491.39 -2.53482 5.23677 0
M  V30 5069 H 490.27 -2.49511 7.43447 0
M  V30 5070 N 487.773 -1.03688 -1.18687 0
M  V30 5071 C 488.736 -0.629115 -2.20397 0
M  V30 5072 C 489.736 0.311495 -1.57754 0
M  V30 5073 O 490.926 0.0974107 -1.73927 0
M  V30 5074 C 488.058 0.0782231 -3.4081 0
M  V30 5075 H 489.251 -1.52915 -2.57987 0
M  V30 5076 H 486.804 -0.828988 -1.32505 0
M  V30 5077 H 487.539 0.992233 -3.08748 0
M  V30 5078 H 487.324 -0.597776 -3.87517 0
M  V30 5079 H 488.814 0.350156 -4.16129 0
M  V30 5080 N 489.251 1.34841 -0.815825 0
M  V30 5081 C 490.499 1.98107 -0.399744 0
M  V30 5082 C 490.82 1.65019 1.03894 0
M  V30 5083 O 490.09 0.937311 1.72021 0
M  V30 5084 H 488.67 0.732827 -0.144823 0
M  V30 5085 H 491.332 1.64599 -1.0437 0
M  V30 5086 H 490.428 3.07856 -0.512965 0
M  V30 5087 N 490.729 0.570148 1.46925 0
M  V30 5088 C 492.14 0.1402 1.86173 0
M  V30 5089 C 492.491 -1.29347 1.47526 0
M  V30 5090 O 491.616 -1.97508 0.884292 0
M  V30 5091 C 492.211 0.247661 3.37894 0
M  V30 5092 C 490.77 -0.127332 3.76185 0
M  V30 5093 C 489.917 0.589349 2.70965 0
M  V30 5094 H 492.868 0.779117 1.38259 0
M  V30 5095 H 492.889 -0.530341 3.76786 0
M  V30 5096 H 492.401 1.29121 3.65991 0
M  V30 5097 H 490.502 -1.17149 3.53704 0
M  V30 5098 H 490.615 0.240238 4.78497 0
M  V30 5099 H 488.979 0.0309824 2.54681 0
M  V30 5100 H 489.762 1.6343 3.01903 0
M  V30 5101 N 492.207 -1.54576 0.307264 0
M  V30 5102 C 493.455 -1.99867 -0.299574 0
M  V30 5103 C 493.776 -1.19714 -1.53927 0
M  V30 5104 O 493.046 -0.29472 -1.9367 0
M  V30 5105 H 491.626 -0.738299 -0.113683 0
M  V30 5106 H 494.288 -1.9032 0.420042 0
M  V30 5107 H 493.384 -3.06901 -0.567283 0
M  V30 5108 N 493.685 -0.035106 -1.57561 0
M  V30 5109 C 494.615 0.942993 -2.13612 0
M  V30 5110 C 495.596 1.33531 -1.05373 0
M  V30 5111 O 496.781 1.41287 -1.33235 0
M  V30 5112 C 493.911 2.22332 -2.66807 0
M  V30 5113 C 492.865 1.97156 -3.79886 0
M  V30 5114 C 492.191 3.31506 -4.19533 0
M  V30 5115 C 493.491 1.30596 -5.05709 0
M  V30 5116 H 495.185 0.476179 -2.95589 0
M  V30 5117 H 492.731 0.227602 -1.4219 0
M  V30 5118 H 494.684 2.91142 -3.04654 0
M  V30 5119 H 493.408 2.7119 -1.81999 0
M  V30 5120 H 492.067 1.30763 -3.42486 0
M  V30 5121 H 491.715 3.78134 -3.31698 0
M  V30 5122 H 491.415 3.15465 -4.95738 0
M  V30 5123 H 492.939 4.01574 -4.59968 0
M  V30 5124 H 494.353 1.89416 -5.41105 0
M  V30 5125 H 492.75 1.24934 -5.86951 0
M  V30 5126 H 493.82 0.279742 -4.84092 0
M  V30 5127 N 495.163 1.55791 0.238111 0
M  V30 5128 C 496.093 1.94068 1.29846 0
M  V30 5129 C 497.074 0.806726 1.49753 0
M  V30 5130 O 498.259 1.06772 1.62214 0
M  V30 5131 C 495.389 2.24302 2.65153 0
M  V30 5132 C 494.343 3.40032 2.59927 0
M  V30 5133 C 493.669 3.55829 3.99111 0
M  V30 5134 C 494.969 4.75476 2.16148 0
M  V30 5135 H 496.663 2.82887 0.980563 0
M  V30 5136 H 494.209 1.36105 0.470253 0
M  V30 5137 H 496.162 2.4967 3.39475 0
M  V30 5138 H 494.886 1.32318 2.98596 0
M  V30 5139 H 493.545 3.14687 1.88063 0
M  V30 5140 H 493.193 2.6125 4.29834 0
M  V30 5141 H 492.893 4.3366 3.96501 0
M  V30 5142 H 494.417 3.83528 4.7512 0
M  V30 5143 H 495.831 5.00158 2.80205 0
M  V30 5144 H 494.228 5.56472 2.24631 0
M  V30 5145 H 495.298 4.71946 1.11333 0
M  V30 5146 N 496.642 -0.504142 1.49319 0
M  V30 5147 C 497.605 -1.5883 1.65244 0
M  V30 5148 C 498.605 -1.52009 0.524386 0
M  V30 5149 O 499.795 -1.55218 0.79077 0
M  V30 5150 C 496.927 -2.98481 1.64687 0
M  V30 5151 H 498.12 -1.4604 2.61939 0
M  V30 5152 H 495.673 -0.728144 1.38303 0
M  V30 5153 H 496.408 -3.16751 0.695644 0
M  V30 5154 H 496.193 -3.0484 2.46607 0
M  V30 5155 H 497.683 -3.77256 1.79075 0
M  V30 5156 N 498.12 -1.38341 -0.754957 0
M  V30 5157 C 499.348 -1.37704 -1.54419 0
M  V30 5158 C 499.763 0.0335243 -1.8877 0
M  V30 5159 O 499.12 0.999773 -1.52679 0
M  V30 5160 C 499.171 -2.23136 -2.84416 0
M  V30 5161 O 498.892 -3.58697 -2.51531 0
M  V30 5162 C 500.393 -2.30664 -3.78562 0
M  V30 5163 H 497.613 -0.471061 -0.477852 0
M  V30 5164 H 500.157 -1.81902 -0.934446 0
M  V30 5165 H 498.312 -1.82403 -3.41772 0
M  V30 5166 H 498.726 -4.03665 -3.34896 0
M  V30 5167 H 500.2 -2.9473 -4.66732 0
M  V30 5168 H 500.677 -1.3199 -4.18898 0
M  V30 5169 H 501.283 -2.71781 -3.27131 0
M  V30 5170 N 499.598 0.982988 -1.23187 0
M  V30 5171 C 500.828 1.75666 -1.08743 0
M  V30 5172 C 501.236 1.85662 0.364195 0
M  V30 5173 O 500.579 1.33317 1.26382 0
M  V30 5174 C 500.641 3.20144 -1.63549 0
M  V30 5175 C 500.305 3.33665 -3.12277 0
M  V30 5176 C 501.302 3.20194 -4.096 0
M  V30 5177 C 498.987 3.58397 -3.51933 0
M  V30 5178 C 500.981 3.31256 -5.44563 0
M  V30 5179 C 498.668 3.69098 -4.87042 0
M  V30 5180 C 499.666 3.55537 -5.83166 0
M  V30 5181 O 499.354 3.65864 -7.1582 0
M  V30 5182 H 499.086 0.558194 -0.381307 0
M  V30 5183 H 501.64 1.24387 -1.63454 0
M  V30 5184 H 499.87 3.72659 -1.03256 0
M  V30 5185 H 501.559 3.79262 -1.4462 0
M  V30 5186 H 502.325 3.00987 -3.80305 0
M  V30 5187 H 498.204 3.68025 -2.77631 0
M  V30 5188 H 501.748 3.20588 -6.19572 0
M  V30 5189 H 497.645 3.87814 -5.16014 0
M  V30 5190 H 498.413 3.82675 -7.23534 0
M  V30 5191 N 501.076 1.04316 1.18135 0
M  V30 5192 C 501.986 0.646876 2.25505 0
M  V30 5193 C 503.002 -0.328008 1.7088 0
M  V30 5194 O 504.178 -0.182309 2.00573 0
M  V30 5195 C 501.243 0.0185664 3.46695 0
M  V30 5196 C 500.304 1.04277 4.16443 0
M  V30 5197 C 499.537 0.444352 5.31847 0
M  V30 5198 O 499.76 -0.748735 5.65465 0
M  V30 5199 O 498.694 1.17428 5.90334 0
M  V30 5200 H 502.52 1.54147 2.61672 0
M  V30 5201 H 500.105 0.814188 1.25265 0
M  V30 5202 H 501.987 -0.331068 4.20097 0
M  V30 5203 H 500.662 -0.849814 3.12346 0
M  V30 5204 H 499.569 1.44425 3.45098 0
M  V30 5205 H 500.902 1.882 4.54798 0
M  V30 5206 N 502.554 -1.34406 0.822964 0
M  V30 5207 C 503.464 -2.33298 0.246838 0
M  V30 5208 C 504.48 -1.62625 -0.618797 0
M  V30 5209 O 505.656 -1.94391 -0.526685 0
M  V30 5210 C 502.721 -3.41785 -0.581731 0
M  V30 5211 C 501.782 -4.28206 0.306309 0
M  V30 5212 C 501.015 -5.31512 -0.48281 0
M  V30 5213 O 501.238 -5.43973 -1.71607 0
M  V30 5214 O 500.172 -6.01749 0.134884 0
M  V30 5215 H 503.998 -2.84401 1.06534 0
M  V30 5216 H 501.583 -1.37466 0.585108 0
M  V30 5217 H 503.465 -4.08028 -1.05313 0
M  V30 5218 H 502.14 -2.92925 -1.37756 0
M  V30 5219 H 501.047 -3.64885 0.825199 0
M  V30 5220 H 502.38 -4.80507 1.06649 0
M  V30 5221 N 504.032 -0.577932 -1.46621 0
M  V30 5222 C 504.942 0.160651 -2.34049 0
M  V30 5223 C 505.958 0.890911 -1.49462 0
M  V30 5224 O 507.134 0.855166 -1.82343 0
M  V30 5225 C 504.199 1.16447 -3.26559 0
M  V30 5226 C 503.26 0.4394 -4.27045 0
M  V30 5227 C 502.493 1.3954 -5.15135 0
M  V30 5228 O 502.716 2.63162 -5.06065 0
M  V30 5229 O 501.65 0.908585 -5.95003 0
M  V30 5230 H 505.476 -0.557057 -2.98547 0
M  V30 5231 H 503.061 -0.338369 -1.45518 0
M  V30 5232 H 504.943 1.7434 -3.83645 0
M  V30 5233 H 503.618 1.86373 -2.64663 0
M  V30 5234 H 502.525 -0.181247 -3.73661 0
M  V30 5235 H 503.858 -0.218799 -4.91713 0
M  V30 5236 N 505.51 1.54411 -0.315457 0
M  V30 5237 C 506.926 1.59556 0.037464 0
M  V30 5238 C 507.126 1.33217 1.5118 0
M  V30 5239 O 506.182 1.11264 2.26664 0
M  V30 5240 C 507.495 2.98372 -0.373477 0
M  V30 5241 C 509.043 3.11324 -0.323452 0
M  V30 5242 C 509.518 4.52472 -0.709433 0
M  V30 5243 N 511.009 4.58437 -0.662524 0
M  V30 5244 C 511.744 5.65751 -0.933474 0
M  V30 5245 N 511.24 6.81039 -1.27114 0
M  V30 5246 N 513.033 5.55489 -0.859573 0
M  V30 5247 H 505.184 1.6979 -1.27614 0
M  V30 5248 H 507.447 0.793732 -0.518356 0
M  V30 5249 H 507.153 3.22618 -1.40037 0
M  V30 5250 H 507.027 3.76264 0.265615 0
M  V30 5251 H 509.414 2.86818 0.694223 0
M  V30 5252 H 509.495 2.35555 -0.997367 0
M  V30 5253 H 509.139 4.7771 -1.72498 0
M  V30 5254 H 509.069 5.26598 -0.0132923 0
M  V30 5255 H 511.56 3.75636 -0.413065 0
M  V30 5256 H 511.873 7.58816 -1.46348 0
M  V30 5257 H 510.218 6.82555 -1.30932 0
M  V30 5258 H 513.409 4.64299 -0.595324 0
M  V30 5259 H 513.582 6.39036 -1.0741 0
M  V30 5260 N 506.988 0.0434614 1.5754 0
M  V30 5261 C 508.404 -0.313039 1.565 0
M  V30 5262 C 508.604 -1.71954 1.05043 0
M  V30 5263 O 507.66 -2.425 0.703564 0
M  V30 5264 C 508.973 -0.148544 3.00333 0
M  V30 5265 C 510.521 -0.220231 3.12224 0
M  V30 5266 C 510.996 -0.0843565 4.57922 0
M  V30 5267 N 512.487 -0.140881 4.62986 0
M  V30 5268 C 513.222 -0.0597443 5.73369 0
M  V30 5269 N 512.718 0.0733004 6.92761 0
M  V30 5270 N 514.511 -0.11477 5.61983 0
M  V30 5271 H 506.662 0.96303 1.89313 0
M  V30 5272 H 508.925 0.373164 0.871466 0
M  V30 5273 H 508.631 0.820894 3.41986 0
M  V30 5274 H 508.505 -0.912798 3.65989 0
M  V30 5275 H 510.892 -1.18014 2.70475 0
M  V30 5276 H 510.973 0.574646 2.49262 0
M  V30 5277 H 510.617 0.872192 5.00355 0
M  V30 5278 H 510.547 -0.898281 5.18882 0
M  V30 5279 H 513.038 -0.243273 3.77116 0
M  V30 5280 H 513.351 0.128128 7.72694 0
M  V30 5281 H 511.696 0.10828 6.94916 0
M  V30 5282 H 514.887 -0.217212 4.67596 0
M  V30 5283 H 515.06 -0.0480779 6.47982 0
M  V30 5284 N 508.466 -1.55915 -0.229846 0
M  V30 5285 C 509.877 -1.68809 -0.797531 0
M  V30 5286 C 510.228 -0.643995 -1.8533 0
M  V30 5287 O 509.353 0.206492 -2.15413 0
M  V30 5288 C 509.948 -3.06043 -1.45338 0
M  V30 5289 C 508.507 -3.20819 -1.96856 0
M  V30 5290 C 507.654 -2.6472 -0.825736 0
M  V30 5291 H 510.605 -1.58699 -0.00533733 0
M  V30 5292 H 510.626 -3.01438 -2.32196 0
M  V30 5293 H 510.138 -3.82012 -0.684743 0
M  V30 5294 H 508.239 -2.49704 -2.76548 0
M  V30 5295 H 508.352 -4.27937 -2.15423 0
M  V30 5296 H 506.716 -2.22985 -1.23084 0
M  V30 5297 H 507.499 -3.43229 -0.0699019 0
M  V30 5298 N 509.944 0.496216 -1.49584 0
M  V30 5299 C 511.19 1.25189 -1.59548 0
M  V30 5300 C 511.523 1.9212 -0.283466 0
M  V30 5301 O 510.798 1.80947 0.713324 0
M  V30 5302 C 511.081 2.31516 -2.75812 0
M  V30 5303 C 510.934 1.69054 -4.16822 0
M  V30 5304 C 512.253 3.3304 -2.87702 0
M  V30 5305 H 509.372 0.45379 -0.580727 0
M  V30 5306 H 512.014 0.549327 -1.81886 0
M  V30 5307 H 510.164 2.91438 -2.56897 0
M  V30 5308 H 511.836 1.12923 -4.47265 0
M  V30 5309 H 510.079 0.994485 -4.22247 0
M  V30 5310 H 510.75 2.462 -4.94054 0
M  V30 5311 H 513.226 2.83114 -3.04936 0
M  V30 5312 H 512.102 4.04794 -3.7072 0
M  V30 5313 H 512.363 3.95655 -1.97255 0
M  V30 5314 N 511.423 1.38739 0.74761 0
M  V30 5315 C 512.386 1.36241 1.84312 0
M  V30 5316 C 513.386 0.261811 1.58654 0
M  V30 5317 O 514.576 0.519031 1.66288 0
M  V30 5318 C 511.708 1.12253 3.21888 0
M  V30 5319 H 512.901 2.33712 1.87933 0
M  V30 5320 H 510.454 1.2412 0.949946 0
M  V30 5321 H 511.189 0.154133 3.23934 0
M  V30 5322 H 510.974 1.91943 3.41907 0
M  V30 5323 H 512.464 1.13215 4.0196 0
M  V30 5324 N 512.901 -0.976442 1.23707 0
M  V30 5325 C 514.15 -1.71254 1.06559 0
M  V30 5326 C 514.463 -1.91528 -0.397024 0
M  V30 5327 O 515.669 -2.62625 -0.688518 0
M  V30 5328 C 514.125 -3.08207 1.8584 0
M  V30 5329 C 513.733 -2.95806 3.36456 0
M  V30 5330 C 515.477 -3.85749 1.77194 0
M  V30 5331 C 513.384 -4.28015 4.08114 0
M  V30 5332 H 512.314 -0.642171 0.395136 0
M  V30 5333 H 514.965 -1.08877 1.4771 0
M  V30 5334 H 513.347 -3.71363 1.37498 0
M  V30 5335 H 514.521 -2.41716 3.92314 0
M  V30 5336 H 512.836 -2.31736 3.45959 0
M  V30 5337 H 515.433 -4.83633 2.28041 0
M  V30 5338 H 515.776 -4.09752 0.735477 0
M  V30 5339 H 516.309 -3.29303 2.23169 0
M  V30 5340 H 513.048 -4.09208 5.12083 0
M  V30 5341 H 512.568 -4.81955 3.57043 0
M  V30 5342 H 514.247 -4.96681 4.14629 0
M  V30 5343 N 514.379 -1.04941 -1.1758 0
M  V30 5344 C 515.607 -0.778294 -1.91703 0
M  V30 5345 C 516.022 0.665697 -1.76675 0
M  V30 5346 O 515.379 1.45456 -1.10222 0
M  V30 5347 C 515.43 -1.14628 -3.42845 0
M  V30 5348 O 515.151 -2.53359 -3.57409 0
M  V30 5349 C 516.652 -0.900931 -4.34049 0
M  V30 5350 H 513.872 -0.283167 -0.608323 0
M  V30 5351 H 516.416 -1.39942 -1.49119 0
M  V30 5352 H 514.571 -0.569953 -3.83184 0
M  V30 5353 H 514.985 -2.67709 -4.51035 0
M  V30 5354 H 516.459 -1.20817 -5.38616 0
M  V30 5355 H 516.936 0.163966 -4.38894 0
M  V30 5356 H 517.542 -1.46097 -3.99419 0
M  V30 5357 N 515.857 1.33968 -0.830081 0
M  V30 5358 C 517.082 2.02813 -0.433796 0
M  V30 5359 C 517.507 1.62076 0.954614 0
M  V30 5360 O 516.865 0.808955 1.62252 0
M  V30 5361 C 516.913 3.56348 -0.552115 0
M  V30 5362 O 516.017 4.10202 0.425191 0
M  V30 5363 H 515.358 0.639817 -0.177567 0
M  V30 5364 H 517.888 1.7106 -1.12248 0
M  V30 5365 H 517.898 4.05722 -0.430513 0
M  V30 5366 H 516.573 3.85344 -1.56471 0
M  V30 5367 H 515.15 3.71979 0.261878 0
M  V30 5368 N 517.335 0.585699 1.46312 0
M  V30 5369 C 518.265 -0.133556 2.33118 0
M  V30 5370 C 519.246 -0.880707 1.45525 0
M  V30 5371 O 520.431 -0.855579 1.74337 0
M  V30 5372 C 517.561 -1.14585 3.27853 0
M  V30 5373 C 516.515 -0.513341 4.2491 0
M  V30 5374 C 515.841 -1.63231 5.09175 0
M  V30 5375 C 517.141 0.551413 5.19381 0
M  V30 5376 H 518.835 0.59121 2.93505 0
M  V30 5377 H 516.381 0.285761 1.41136 0
M  V30 5378 H 518.334 -1.65741 3.87438 0
M  V30 5379 H 517.058 -1.90093 2.65579 0
M  V30 5380 H 515.717 -0.0228349 3.66593 0
M  V30 5381 H 515.365 -2.37713 4.43285 0
M  V30 5382 H 515.065 -1.21473 5.74907 0
M  V30 5383 H 516.589 -2.14658 5.71624 0
M  V30 5384 H 518.003 0.124804 5.73164 0
M  V30 5385 H 516.4 0.889486 5.93471 0
M  V30 5386 H 517.47 1.43655 4.63132 0
M  V30 5387 N 518.813 -1.54241 0.323641 0
M  V30 5388 C 519.723 -2.28033 -0.551205 0
M  V30 5389 C 520.739 -1.32388 -1.12913 0
M  V30 5390 O 521.915 -1.65403 -1.14908 0
M  V30 5391 C 518.98 -3.02382 -1.69606 0
M  V30 5392 C 518.041 -4.13612 -1.14993 0
M  V30 5393 C 517.274 -4.84407 -2.24022 0
M  V30 5394 O 517.497 -4.54716 -3.44368 0
M  V30 5395 O 516.431 -5.71312 -1.89436 0
M  V30 5396 H 520.257 -3.03662 0.048066 0
M  V30 5397 H 517.842 -1.49133 0.0893289 0
M  V30 5398 H 519.724 -3.48941 -2.36259 0
M  V30 5399 H 518.399 -2.29628 -2.28151 0
M  V30 5400 H 517.306 -3.71402 -0.448484 0
M  V30 5401 H 518.639 -4.8841 -0.609608 0
M  V30 5402 N 520.291 -0.0518155 -1.57515 0
M  V30 5403 C 521.201 0.937539 -2.15052 0
M  V30 5404 C 522.217 1.34121 -1.10849 0
M  V30 5405 O 523.393 1.418 -1.4302 0
M  V30 5406 C 520.458 2.19379 -2.68466 0
M  V30 5407 C 519.519 1.84841 -3.87469 0
M  V30 5408 C 518.752 3.04477 -4.38326 0
M  V30 5409 O 518.975 4.17868 -3.88256 0
M  V30 5410 O 517.909 2.85453 -5.29906 0
M  V30 5411 H 521.735 0.478201 -2.99912 0
M  V30 5412 H 519.32 0.17012 -1.48428 0
M  V30 5413 H 521.202 2.93084 -3.02787 0
M  V30 5414 H 519.877 2.64449 -1.86677 0
M  V30 5415 H 518.784 1.08449 -3.58036 0
M  V30 5416 H 520.117 1.44569 -4.7049 0
M  V30 5417 N 521.769 1.56035 0.221574 0
M  V30 5418 C 522.732 1.91584 1.2581 0
M  V30 5419 C 523.732 0.794425 1.39805 0
M  V30 5420 O 524.922 1.06217 1.38071 0
M  V30 5421 C 522.054 2.16663 2.63192 0
M  V30 5422 H 523.247 2.8429 0.954935 0
M  V30 5423 H 520.8 1.49316 0.461988 0
M  V30 5424 H 521.535 1.26508 2.98607 0
M  V30 5425 H 521.32 2.98358 2.5441 0
M  V30 5426 H 522.81 2.45262 3.37988 0
M  V30 5427 N 523.247 -0.488276 1.49845 0
M  V30 5428 C 524.195 -1.60917 1.67954 0
M  V30 5429 C 525.189 -1.6038 0.54539 0
M  V30 5430 O 526.395 -1.64736 0.7254 0
M  V30 5431 H 522.77 -0.533658 0.529824 0
M  V30 5432 H 524.741 -1.428 2.62013 0
M  V30 5433 C 523.49 -2.98975 1.77509 0
M  V30 5434 H 522.813 -3.00099 2.6416 0
M  V30 5435 H 524.253 -3.76906 1.9421 0
M  V30 5436 C 522.712 -3.3282 0.522745 0
M  V30 5437 O 523.242 -4.00208 -0.345866 0
M  V30 5438 N 521.448 -2.8808 0.381882 0
M  V30 5439 H 520.995 -2.33415 1.08974 0
M  V30 5440 H 520.953 -3.11091 -0.454929 0
M  V30 5441 N 524.725 -1.39134 -0.740242 0
M  V30 5442 C 525.971 -1.36273 -1.50192 0
M  V30 5443 C 526.304 0.0430136 -1.94152 0
M  V30 5444 O 525.579 1.00691 -1.66408 0
M  V30 5445 C 525.862 -2.33041 -2.74525 0
M  V30 5446 C 525.715 -3.82535 -2.36617 0
M  V30 5447 C 527.034 -2.27723 -3.76604 0
M  V30 5448 H 524.153 -0.496323 -0.544823 0
M  V30 5449 H 526.795 -1.70085 -0.846815 0
M  V30 5450 H 524.945 -2.04337 -3.30422 0
M  V30 5451 H 526.617 -4.21967 -1.86391 0
M  V30 5452 H 524.86 -3.99565 -1.68909 0
M  V30 5453 H 525.531 -4.45723 -3.2563 0
M  V30 5454 H 528.007 -2.53091 -3.30279 0
M  V30 5455 H 526.883 -2.97519 -4.61274 0
M  V30 5456 H 527.144 -1.28049 -4.2315 0
M  V30 5457 N 526.204 0.969867 -1.24223 0
M  V30 5458 C 527.152 2.08535 -1.03034 0
M  V30 5459 C 528.146 1.69366 0.0340379 0
M  V30 5460 O 529.352 1.79597 -0.12034 0
M  V30 5461 H 525.727 0.682313 -0.316154 0
M  V30 5462 H 527.698 2.23569 -1.97635 0
M  V30 5463 C 526.447 3.4158 -0.649509 0
M  V30 5464 H 525.77 3.72177 -1.46028 0
M  V30 5465 H 527.21 4.20536 -0.540841 0
M  V30 5466 C 525.669 3.30703 0.643194 0
M  V30 5467 O 526.199 3.64443 1.68951 0
M  V30 5468 N 524.405 2.83841 0.623095 0
M  V30 5469 H 523.952 2.56583 -0.228719 0
M  V30 5470 H 523.91 2.76946 1.48823 0
M  V30 5471 N 527.682 1.05563 1.17022 0
M  V30 5472 C 528.612 0.681026 2.23348 0
M  V30 5473 C 529.593 -0.322983 1.67005 0
M  V30 5474 O 530.778 -0.199746 1.9317 0
M  V30 5475 C 527.908 0.0589053 3.4725 0
M  V30 5476 C 526.862 0.988082 4.16438 0
M  V30 5477 C 526.188 0.229646 5.34207 0
M  V30 5478 C 527.488 2.31388 4.68249 0
M  V30 5479 H 529.182 1.56993 2.54938 0
M  V30 5480 H 526.728 0.756302 1.2254 0
M  V30 5481 H 528.681 -0.214982 4.20851 0
M  V30 5482 H 527.405 -0.864968 3.14938 0
M  V30 5483 H 526.064 1.24659 3.44754 0
M  V30 5484 H 525.712 -0.697111 4.98146 0
M  V30 5485 H 525.412 0.848815 5.81437 0
M  V30 5486 H 526.936 -0.0368694 6.10589 0
M  V30 5487 H 528.35 2.09964 5.33468 0
M  V30 5488 H 526.747 2.88736 5.26072 0
M  V30 5489 H 527.817 2.94982 3.84855 0
M  V30 5490 N 529.16 -1.33526 0.837174 0
M  V30 5491 C 530.576 -1.50727 0.524743 0
M  V30 5492 C 530.776 -1.77792 -0.948279 0
M  V30 5493 O 529.832 -1.83719 -1.73216 0
M  V30 5494 C 531.145 -2.66299 1.39661 0
M  V30 5495 C 532.693 -2.80183 1.39521 0
M  V30 5496 C 533.168 -3.98815 2.25189 0
M  V30 5497 N 534.659 -4.06047 2.2289 0
M  V30 5498 C 535.394 -4.97032 2.85915 0
M  V30 5499 N 534.89 -5.93143 3.57985 0
M  V30 5500 N 536.683 -4.90015 2.75394 0
M  V30 5501 H 528.834 -1.1422 1.79074 0
M  V30 5502 H 531.097 -0.561399 0.763894 0
M  V30 5503 H 530.803 -2.52974 2.4433 0
M  V30 5504 H 530.677 -3.61663 1.07145 0
M  V30 5505 H 533.064 -2.92942 0.356253 0
M  V30 5506 H 533.145 -1.85586 1.76044 0
M  V30 5507 H 532.789 -3.86817 3.29143 0
M  V30 5508 H 532.719 -4.92654 1.86009 0
M  V30 5509 H 535.21 -3.37262 1.70478 0
M  V30 5510 H 535.523 -6.59227 4.03286 0
M  V30 5511 H 533.868 -5.93223 3.62093 0
M  V30 5512 H 537.059 -4.13894 2.18654 0
M  V30 5513 H 537.232 -5.60724 3.24796 0
M  V30 5514 N 530.638 -0.59345 -1.46 0
M  V30 5515 C 532.054 -0.255965 -1.57534 0
M  V30 5516 C 532.254 1.24167 -1.58697 0
M  V30 5517 O 531.31 2.02398 -1.50968 0
M  V30 5518 C 532.623 -0.91466 -2.86451 0
M  V30 5519 C 534.171 -0.889253 -3.00102 0
M  V30 5520 C 534.646 -1.52769 -4.3177 0
M  V30 5521 N 536.137 -1.49253 -4.38495 0
M  V30 5522 C 536.872 -1.9558 -5.39014 0
M  V30 5523 N 536.368 -2.49929 -6.46148 0
M  V30 5524 N 538.161 -1.86432 -5.30282 0
M  V30 5525 H 530.312 -1.56604 -1.43489 0
M  V30 5526 H 532.575 -0.655207 -0.685133 0
M  V30 5527 H 532.281 -1.96861 -2.91442 0
M  V30 5528 H 532.155 -0.429356 -3.74748 0
M  V30 5529 H 534.542 0.156111 -2.94687 0
M  V30 5530 H 534.623 -1.41268 -2.13253 0
M  V30 5531 H 534.267 -2.57231 -4.37944 0
M  V30 5532 H 534.197 -0.979398 -5.17412 0
M  V30 5533 H 536.688 -1.09536 -3.61677 0
M  V30 5534 H 537.001 -2.83109 -7.19075 0
M  V30 5535 H 535.346 -2.53961 -6.46938 0
M  V30 5536 H 538.537 -1.43722 -4.4549 0
M  V30 5537 H 538.71 -2.22852 -6.08474 0
M  V30 5538 N 532.116 1.54067 -0.331816 0
M  V30 5539 C 533.344 2.05131 0.269996 0
M  V30 5540 C 533.759 1.20749 1.45138 0
M  V30 5541 O 533.116 0.240069 1.80914 0
M  V30 5542 C 533.167 3.54728 0.696456 0
M  V30 5543 O 532.888 4.35906 -0.43794 0
M  V30 5544 C 534.389 4.21916 1.36021 0
M  V30 5545 H 531.609 0.668807 0.0542042 0
M  V30 5546 H 534.153 1.98777 -0.4804 0
M  V30 5547 H 532.308 3.61342 1.39681 0
M  V30 5548 H 532.722 5.24404 -0.100334 0
M  V30 5549 H 534.196 5.28015 1.60947 0
M  V30 5550 H 534.673 3.73538 2.31011 0
M  V30 5551 H 535.279 4.19463 0.702212 0
M  V30 5552 N 533.594 0.0601682 1.57485 0
M  V30 5553 C 534.527 -0.94676 2.07634 0
M  V30 5554 C 535.505 -1.29837 0.978826 0
M  V30 5555 O 536.689 -1.40969 1.2514 0
M  V30 5556 C 533.816 -2.25822 2.52433 0
M  V30 5557 C 532.862 -2.05901 3.73507 0
M  V30 5558 S 533.695 -1.32907 5.18745 0
M  V30 5559 C 534.851 -2.65356 5.66866 0
M  V30 5560 H 535.084 -0.520003 2.92717 0
M  V30 5561 H 532.617 -0.152319 1.53647 0
M  V30 5562 H 534.575 -3.01201 2.78905 0
M  V30 5563 H 533.236 -2.65624 1.67639 0
M  V30 5564 H 532.429 -3.02929 4.02803 0
M  V30 5565 H 532.031 -1.38659 3.47347 0
M  V30 5566 H 534.323 -3.61492 5.73001 0
M  V30 5567 H 535.266 -2.40685 6.6594 0
M  V30 5568 H 535.674 -2.72028 4.94632 0
M  V30 5569 N 535.072 -1.5615 -0.213296 0
M  V30 5570 C 536.349 -1.70349 -0.961281 0
M  V30 5571 C 536.729 -0.609791 -2.02101 0
M  V30 5572 O 536.077 0.381987 -2.25285 0
M  V30 5573 C 536.287 -3.11982 -1.56424 0
M  V30 5574 C 537.635 -3.71649 -2.05334 0
M  V30 5575 O 538.659 -3.14995 -1.66302 0
M  V30 5576 O 537.518 -4.71038 -2.77102 0
M  V30 5577 H 534.612 -0.694121 -0.449582 0
M  V30 5578 H 537.158 -1.68464 -0.204426 0
M  V30 5579 H 535.93 -3.83046 -0.799457 0
M  V30 5580 H 535.553 -3.18019 -2.38641 0
M  V30 5581 N 536.55 0.480323 -1.50102 0
M  V30 5582 C 537.966 0.813295 -1.37323 0
M  V30 5583 C 538.166 1.97027 -0.422206 0
M  V30 5584 O 537.222 2.5212 0.138563 0
M  V30 5585 C 538.535 1.13404 -2.78496 0
M  V30 5586 C 540.083 1.24104 -2.87345 0
M  V30 5587 C 540.558 1.59497 -4.29331 0
M  V30 5588 N 542.049 1.66507 -4.32238 0
M  V30 5589 C 542.784 1.95378 -5.39087 0
M  V30 5590 N 542.28 2.22333 -6.56155 0
M  V30 5591 N 544.073 1.96803 -5.26522 0
M  V30 5592 H 536.224 -0.282291 -2.10516 0
M  V30 5593 H 538.487 -0.063752 -0.945854 0
M  V30 5594 H 538.193 0.357064 -3.49883 0
M  V30 5595 H 538.067 2.07251 -3.15162 0
M  V30 5596 H 540.454 2.00871 -2.16183 0
M  V30 5597 H 540.535 0.282593 -2.54234 0
M  V30 5598 H 540.179 0.832736 -5.01027 0
M  V30 5599 H 540.109 2.56477 -4.59921 0
M  V30 5600 H 542.6 1.47753 -3.47818 0
M  V30 5601 H 542.913 2.43611 -7.33399 0
M  V30 5602 H 541.258 2.19745 -6.59346 0
M  V30 5603 H 544.449 1.75235 -4.34062 0
M  V30 5604 H 544.622 2.18969 -6.09883 0
M  V30 5605 N 538.028 1.39524 0.732853 0
M  V30 5606 C 538.938 1.40695 1.87729 0
M  V30 5607 C 539.954 0.301496 1.71368 0
M  V30 5608 O 541.13 0.543313 1.93933 0
M  V30 5609 C 538.195 1.25098 3.23344 0
M  V30 5610 C 537.256 2.45634 3.52083 0
M  V30 5611 C 536.489 2.30772 4.81228 0
M  V30 5612 O 536.712 1.31233 5.55098 0
M  V30 5613 O 535.646 3.19799 5.09914 0
M  V30 5614 H 539.472 2.37168 1.89697 0
M  V30 5615 H 537.057 1.20663 0.880959 0
M  V30 5616 H 538.939 1.18541 4.04383 0
M  V30 5617 H 537.614 0.317209 3.22142 0
M  V30 5618 H 536.521 2.57767 2.71122 0
M  V30 5619 H 537.854 3.37712 3.58066 0
M  V30 5620 N 539.506 -0.963266 1.24736 0
M  V30 5621 C 540.436 -2.07628 1.06832 0
M  V30 5622 C 541.417 -1.70088 -0.0200566 0
M  V30 5623 O 542.602 -1.93636 0.147854 0
M  V30 5624 C 539.732 -3.40636 0.677069 0
M  V30 5625 C 538.686 -3.9215 1.71471 0
M  V30 5626 C 538.012 -5.21553 1.1784 0
M  V30 5627 C 539.312 -4.19493 3.11164 0
M  V30 5628 H 541.006 -2.22864 1.9993 0
M  V30 5629 H 538.552 -1.07093 0.96266 0
M  V30 5630 H 540.505 -4.17941 0.538792 0
M  V30 5631 H 539.229 -3.25313 -0.289612 0
M  V30 5632 H 537.888 -3.17005 1.84128 0
M  V30 5633 H 537.536 -5.02593 0.202195 0
M  V30 5634 H 537.236 -5.56988 1.87185 0
M  V30 5635 H 538.76 -6.01463 1.05233 0
M  V30 5636 H 540.174 -4.87487 3.01711 0
M  V30 5637 H 538.571 -4.66165 3.77902 0
M  V30 5638 H 539.641 -3.26097 3.58871 0
M  V30 5639 N 540.985 -1.06182 -1.16461 0
M  V30 5640 C 542.396 -0.802426 -1.68576 0
M  V30 5641 C 542.747 0.67412 -1.84255 0
M  V30 5642 O 541.872 1.52303 -1.5373 0
M  V30 5643 C 542.467 -1.45002 -3.06202 0
M  V30 5644 C 541.026 -1.23843 -3.55443 0
M  V30 5645 C 540.173 -1.52724 -2.31454 0
M  V30 5646 H 543.124 -1.22545 -1.00839 0
M  V30 5647 H 543.145 -0.864731 -3.70544 0
M  V30 5648 H 542.657 -2.52466 -2.94759 0
M  V30 5649 H 540.758 -0.183487 -3.72148 0
M  V30 5650 H 540.871 -1.95036 -4.37604 0
M  V30 5651 H 539.235 -0.947726 -2.36411 0
M  V30 5652 H 540.018 -2.61343 -2.22609 0
M  V30 5653 N 542.463 1.3308 -0.844243 0
M  V30 5654 C 543.874 1.7992 -0.498566 0
M  V30 5655 C 544.225 1.69808 0.982834 0
M  V30 5656 O 543.35 1.25051 1.7661 0
M  V30 5657 C 543.945 3.26677 -0.898204 0
M  V30 5658 C 542.504 3.71513 -0.604583 0
M  V30 5659 C 541.651 2.54393 -1.10362 0
M  V30 5660 H 544.602 1.20526 -1.03244 0
M  V30 5661 H 544.623 3.79918 -0.21039 0
M  V30 5662 H 544.135 3.34004 -1.97643 0
M  V30 5663 H 542.236 3.69708 0.46335 0
M  V30 5664 H 542.349 4.64755 -1.16358 0
M  V30 5665 H 540.713 2.49246 -0.524273 0
M  V30 5666 H 541.496 2.6448 -2.18873 0
M  V30 5667 N 543.941 0.601185 1.45683 0
M  V30 5668 C 545.189 0.0936957 2.01883 0
M  V30 5669 C 545.51 -1.2779 1.47291 0
M  V30 5670 O 544.78 -1.84279 0.664691 0
M  V30 5671 H 543.36 0.0316466 0.746329 0
M  V30 5672 H 546.022 0.781137 1.78562 0
M  V30 5673 H 545.118 0.0386297 3.12076 0
M  V30 5674 N 545.419 -1.53889 0.339982 0
M  V30 5675 C 546.349 -2.27843 -0.510856 0
M  V30 5676 C 547.33 -1.29267 -1.10563 0
M  V30 5677 O 548.515 -1.58104 -1.12768 0
M  V30 5678 C 545.645 -3.04857 -1.66372 0
M  V30 5679 C 544.599 -4.10907 -1.19746 0
M  V30 5680 C 543.925 -4.75855 -2.43857 0
M  V30 5681 C 545.225 -5.21435 -0.300501 0
M  V30 5682 H 546.919 -2.99212 0.106067 0
M  V30 5683 H 544.465 -1.43904 0.0524533 0
M  V30 5684 H 546.418 -3.5533 -2.26537 0
M  V30 5685 H 545.142 -2.31133 -2.30749 0
M  V30 5686 H 543.801 -3.61342 -0.618654 0
M  V30 5687 H 543.449 -3.9873 -3.06633 0
M  V30 5688 H 543.149 -5.47502 -2.13343 0
M  V30 5689 H 544.673 -5.2911 -3.04754 0
M  V30 5690 H 546.087 -5.67565 -0.80889 0
M  V30 5691 H 544.484 -6.00036 -0.0874076 0
M  V30 5692 H 545.554 -4.80328 0.664321 0
M  V30 5693 N 546.897 -0.0685191 -1.57451 0
M  V30 5694 C 547.847 0.909895 -2.09057 0
M  V30 5695 C 548.831 1.26088 -0.999528 0
M  V30 5696 O 550.023 1.24041 -1.26265 0
M  V30 5697 C 547.152 2.17863 -2.65312 0
M  V30 5698 C 546.238 1.85427 -3.81415 0
M  V30 5699 N 546.629 1.23426 -4.9051 0
M  V30 5700 C 544.927 2.15196 -3.90649 0
M  V30 5701 C 545.628 1.09008 -5.71395 0
M  V30 5702 N 544.604 1.59871 -5.1956 0
M  V30 5703 H 548.406 0.426145 -2.90794 0
M  V30 5704 H 545.92 0.135462 -1.61834 0
M  V30 5705 H 547.917 2.88872 -3.00597 0
M  V30 5706 H 546.577 2.66829 -1.85021 0
M  V30 5707 H 547.588 0.904305 -5.09944 0
M  V30 5708 H 544.265 2.66562 -3.21327 0
M  V30 5709 H 545.655 0.607305 -6.6915 0
M  V30 5710 N 548.375 1.56261 0.205012 0
M  V30 5711 C 549.652 1.70856 0.952233 0
M  V30 5712 C 550.032 0.620501 2.01775 0
M  V30 5713 O 549.38 -0.370035 2.25484 0
M  V30 5714 C 549.59 3.12807 1.54767 0
M  V30 5715 C 550.938 3.72733 2.0336 0
M  V30 5716 O 551.962 3.15873 1.64629 0
M  V30 5717 O 550.821 4.72501 2.746 0
M  V30 5718 H 547.915 0.696496 0.445895 0
M  V30 5719 H 550.461 1.6857 0.195489 0
M  V30 5720 H 549.233 3.83465 0.779132 0
M  V30 5721 H 548.856 3.1928 2.36951 0
M  V30 5722 N 549.853 -0.472356 1.50355 0
M  V30 5723 C 551.13 -1.23356 1.51798 0
M  V30 5724 C 551.51 -2.09469 0.26193 0
M  V30 5725 O 550.858 -2.15677 -0.754691 0
M  V30 5726 C 551.068 -2.06568 2.81302 0
M  V30 5727 C 552.416 -2.648 3.31913 0
M  V30 5728 O 553.44 -2.16812 2.82614 0
M  V30 5729 O 552.299 -3.52231 4.17846 0
M  V30 5730 H 549.393 -0.559707 0.608816 0
M  V30 5731 H 551.939 -0.48428 1.62643 0
M  V30 5732 H 550.711 -1.43103 3.64194 0
M  V30 5733 H 550.334 -2.88633 2.73454 0
M  V30 5734 N 551.331 -1.39911 -0.725443 0
M  V30 5735 C 552.579 -1.37382 -1.48224 0
M  V30 5736 C 552.9 0.0264107 -1.94982 0
M  V30 5737 O 552.17 0.979408 -1.6966 0
M  V30 5738 H 550.75 -0.505596 -0.549892 0
M  V30 5739 H 553.412 -1.7487 -0.860608 0
M  V30 5740 H 552.508 -2.04254 -2.3598 0
M  V30 5741 N 552.809 0.956637 -1.25245 0
M  V30 5742 C 554.22 1.51569 -1.09012 0
M  V30 5743 C 554.571 1.93322 0.334813 0
M  V30 5744 O 553.696 1.78421 1.22454 0
M  V30 5745 C 554.291 2.75444 -1.97271 0
M  V30 5746 C 552.85 3.27669 -1.8523 0
M  V30 5747 C 551.997 2.00517 -1.91542 0
M  V30 5748 H 554.948 0.773746 -1.3856 0
M  V30 5749 H 554.969 3.4919 -1.51151 0
M  V30 5750 H 554.481 2.45024 -3.00973 0
M  V30 5751 H 552.582 3.62914 -0.844045 0
M  V30 5752 H 552.695 3.9582 -2.69932 0
M  V30 5753 H 551.059 2.15727 -1.35404 0
M  V30 5754 H 551.842 1.72448 -2.96844 0
M  V30 5755 N 554.287 1.06798 1.15896 0
M  V30 5756 C 555.703 0.792423 1.38538 0
M  V30 5757 C 555.903 -0.60592 1.92174 0
M  V30 5758 O 554.959 -1.36561 2.12385 0
M  V30 5759 C 556.272 1.86157 2.36149 0
M  V30 5760 C 557.82 1.88567 2.49823 0
M  V30 5761 C 558.295 2.9455 3.5072 0
M  V30 5762 N 559.786 2.93616 3.58251 0
M  V30 5763 C 560.521 3.72267 4.36125 0
M  V30 5764 N 560.017 4.60751 5.17379 0
M  V30 5765 N 561.81 3.60637 4.31158 0
M  V30 5766 H 553.961 1.96993 0.794198 0
M  V30 5767 H 556.224 0.853942 0.411688 0
M  V30 5768 H 555.93 2.86603 2.03843 0
M  V30 5769 H 555.804 1.71692 3.3586 0
M  V30 5770 H 558.191 0.887765 2.8143 0
M  V30 5771 H 558.272 2.0711 1.5013 0
M  V30 5772 H 557.916 3.94537 3.19849 0
M  V30 5773 H 557.846 2.73255 4.50155 0
M  V30 5774 H 560.337 2.29472 3.00252 0
M  V30 5775 H 560.65 5.17408 5.74028 0
M  V30 5776 H 558.995 4.64803 5.16704 0
M  V30 5777 H 562.186 2.90892 3.66742 0
M  V30 5778 H 562.359 4.22176 4.91601 0
M  V30 5779 N 555.766 -1.3263 0.851289 0
M  V30 5780 C 557.014 -1.96978 0.452128 0
M  V30 5781 C 557.335 -1.67715 -0.99482 0
M  V30 5782 O 556.605 -0.98259 -1.69476 0
M  V30 5783 H 555.185 -0.72873 0.164202 0
M  V30 5784 H 557.847 -1.61774 1.08698 0
M  V30 5785 H 556.943 -3.06387 0.594407 0
M  V30 5786 N 557.244 -0.608902 -1.45362 0
M  V30 5787 C 558.154 0.110969 -2.34337 0
M  V30 5788 C 559.17 0.859007 -1.51318 0
M  V30 5789 O 560.346 0.816296 -1.84116 0
M  V30 5790 C 557.411 1.09494 -3.28956 0
M  V30 5791 C 556.472 0.348718 -4.27881 0
M  V30 5792 C 555.705 1.28582 -5.17979 0
M  V30 5793 O 555.928 2.52369 -5.11533 0
M  V30 5794 O 554.862 0.782172 -5.96796 0
M  V30 5795 H 558.688 -0.620258 -2.97299 0
M  V30 5796 H 556.273 -0.36916 -1.44767 0
M  V30 5797 H 558.155 1.66163 -3.87257 0
M  V30 5798 H 556.83 1.80717 -2.68557 0
M  V30 5799 H 555.737 -0.260465 -3.73192 0
M  V30 5800 H 557.07 -0.323049 -4.91139 0
M  V30 5801 N 558.722 1.53707 -0.348139 0
M  V30 5802 C 560.138 1.596 0.00361134 0
M  V30 5803 C 560.338 1.36394 1.4832 0
M  V30 5804 O 559.394 1.16046 2.24253 0
M  V30 5805 C 560.707 2.97512 -0.436682 0
M  V30 5806 C 562.255 3.10568 -0.389416 0
M  V30 5807 C 562.73 4.50866 -0.805249 0
M  V30 5808 N 564.221 4.56929 -0.759616 0
M  V30 5809 C 564.956 5.63643 -1.05327 0
M  V30 5810 N 564.452 6.78189 -1.41531 0
M  V30 5811 N 566.245 5.5354 -0.977207 0
M  V30 5812 H 558.396 1.67044 -1.31187 0
M  V30 5813 H 560.659 0.782559 -0.535075 0
M  V30 5814 H 560.365 3.19575 -1.46849 0
M  V30 5815 H 560.239 3.76742 0.185744 0
M  V30 5816 H 562.626 2.88226 0.633228 0
M  V30 5817 H 562.707 2.33387 -1.04711 0
M  V30 5818 H 562.351 4.73943 -1.82593 0
M  V30 5819 H 562.281 5.26452 -0.124989 0
M  V30 5820 H 564.772 3.74675 -0.49265 0
M  V30 5821 H 565.085 7.55541 -1.62411 0
M  V30 5822 H 563.43 6.79624 -1.45381 0
M  V30 5823 H 566.621 4.62932 -0.693675 0
M  V30 5824 H 566.794 6.36614 -1.2094 0
M  V30 5825 N 560.2 0.0768682 1.57412 0
M  V30 5826 C 561.449 -0.590679 1.92857 0
M  V30 5827 C 561.762 -1.70461 0.959293 0
M  V30 5828 O 562.968 -2.43207 1.20675 0
M  V30 5829 C 561.424 -1.10204 3.42612 0
M  V30 5830 C 561.032 -0.0188447 4.47996 0
M  V30 5831 C 562.776 -1.74336 3.87049 0
M  V30 5832 C 560.683 -0.544536 5.88888 0
M  V30 5833 H 559.613 -0.224411 0.71983 0
M  V30 5834 H 562.264 0.149924 1.82887 0
M  V30 5835 H 560.646 -1.89577 3.47673 0
M  V30 5836 H 561.82 0.755936 4.54557 0
M  V30 5837 H 560.135 0.526555 4.13057 0
M  V30 5838 H 562.732 -2.14708 4.89699 0
M  V30 5839 H 563.075 -2.60537 3.24694 0
M  V30 5840 H 563.608 -1.01577 3.84613 0
M  V30 5841 H 560.347 0.280426 6.549 0
M  V30 5842 H 559.867 -1.28673 5.85836 0
M  V30 5843 H 561.546 -1.01933 6.3892 0
M  V30 5844 N 561.678 -1.56367 -0.196722 0
M  V30 5845 C 563.094 -1.49916 -0.54749 0
M  V30 5846 C 563.294 -0.77659 -1.85934 0
M  V30 5847 O 562.35 -0.32644 -2.50381 0
M  V30 5848 C 563.663 -2.94577 -0.603734 0
M  V30 5849 C 565.211 -3.05239 -0.692677 0
M  V30 5850 C 565.686 -4.51308 -0.780046 0
M  V30 5851 N 567.177 -4.55453 -0.843616 0
M  V30 5852 C 567.912 -5.65786 -0.931358 0
M  V30 5853 N 567.408 -6.85812 -0.981503 0
M  V30 5854 N 569.201 -5.53695 -0.968421 0
M  V30 5855 H 561.352 -2.01761 0.663803 0
M  V30 5856 H 563.615 -0.918094 0.236238 0
M  V30 5857 H 563.321 -3.50494 0.29105 0
M  V30 5858 H 563.195 -3.47841 -1.45898 0
M  V30 5859 H 565.582 -2.49372 -1.57789 0
M  V30 5860 H 565.663 -2.55103 0.188736 0
M  V30 5861 H 565.307 -5.078 0.100811 0
M  V30 5862 H 565.237 -4.99176 -1.67724 0
M  V30 5863 H 567.728 -3.69025 -0.814176 0
M  V30 5864 H 568.041 -7.65648 -1.04892 0
M  V30 5865 H 566.386 -6.88474 -0.950208 0
M  V30 5866 H 569.577 -4.58848 -0.926072 0
M  V30 5867 H 569.75 -6.39708 -1.03334 0
M  V30 5868 N 563.156 0.464375 -1.50603 0
M  V30 5869 C 564.119 1.54393 -1.69397 0
M  V30 5870 C 565.119 1.50566 -0.564504 0
M  V30 5871 O 566.309 1.53066 -0.831645 0
M  V30 5872 C 563.441 2.9401 -1.72543 0
M  V30 5873 H 564.634 1.39044 -2.65719 0
M  V30 5874 H 562.187 0.69122 -1.40185 0
M  V30 5875 H 562.922 3.14795 -0.77938 0
M  V30 5876 H 562.707 2.98195 -2.54602 0
M  V30 5877 H 564.197 3.72375 -1.89015 0
M  V30 5878 N 564.634 1.40294 0.718013 0
M  V30 5879 C 565.597 1.4012 1.81381 0
M  V30 5880 C 566.597 0.295405 1.58063 0
M  V30 5881 O 567.787 0.554187 1.6515 0
M  V30 5882 C 564.919 1.19056 3.19435 0
M  V30 5883 H 566.112 2.37645 1.82933 0
M  V30 5884 H 563.665 1.26107 0.923405 0
M  V30 5885 H 564.4 0.222809 3.23534 0
M  V30 5886 H 564.185 1.99152 3.37758 0
M  V30 5887 H 565.675 1.21716 3.99468 0
M  V30 5888 N 566.112 -0.949982 1.2575 0
M  V30 5889 C 567.358 -1.69766 1.10938 0
M  V30 5890 C 567.691 -1.91056 -0.348028 0
M  V30 5891 O 566.966 -1.48488 -1.25625 0
M  V30 5892 C 567.249 -3.07779 1.86933 0
M  V30 5893 C 567.102 -2.9387 3.4053 0
M  V30 5894 C 568.421 -4.07749 1.65616 0
M  V30 5895 H 565.54 -0.616144 0.404396 0
M  V30 5896 H 568.182 -1.10394 1.54639 0
M  V30 5897 H 566.332 -3.58462 1.4979 0
M  V30 5898 H 568.004 -2.50476 3.87375 0
M  V30 5899 H 566.247 -2.29686 3.68004 0
M  V30 5900 H 566.918 -3.91719 3.88922 0
M  V30 5901 H 569.394 -3.65994 1.97959 0
M  V30 5902 H 568.27 -5.02348 2.21218 0
M  V30 5903 H 568.531 -4.38029 0.598595 0
M  V30 5904 N 567.59 -1.07411 -1.15328 0
M  V30 5905 C 568.553 -0.698914 -2.18284 0
M  V30 5906 C 569.553 0.261149 -1.58665 0
M  V30 5907 O 570.743 0.0420277 -1.74149 0
M  V30 5908 C 567.875 -0.0302427 -3.40887 0
M  V30 5909 H 569.068 -1.61045 -2.52991 0
M  V30 5910 H 566.621 -0.870724 -1.298 0
M  V30 5911 H 567.356 0.893505 -3.11748 0
M  V30 5912 H 567.141 -0.720759 -3.85419 0
M  V30 5913 H 568.631 0.21759 -4.17033 0
M  V30 5914 N 569.068 1.32177 -0.85831 0
M  V30 5915 C 569.978 2.32561 -0.308606 0
M  V30 5916 C 570.994 1.64209 0.575462 0
M  V30 5917 O 572.17 1.95719 0.474961 0
M  V30 5918 C 569.235 3.43207 0.490909 0
M  V30 5919 C 568.296 4.27243 -0.419733 0
M  V30 5920 C 567.529 5.32605 0.341719 0
M  V30 5921 O 567.752 5.48332 1.57125 0
M  V30 5922 O 566.686 6.0118 -0.294379 0
M  V30 5923 H 570.512 2.81477 -1.14037 0
M  V30 5924 H 568.097 1.35866 -0.621349 0
M  V30 5925 H 569.979 4.10677 0.944574 0
M  V30 5926 H 568.654 2.96474 1.29941 0
M  V30 5927 H 567.561 3.62569 -0.921652 0
M  V30 5928 H 568.894 4.7751 -1.19352 0
M  V30 5929 N 570.547 0.616602 1.45037 0
M  V30 5930 C 571.494 -0.0969439 2.30596 0
M  V30 5931 C 572.464 -0.851151 1.42635 0
M  V30 5932 O 573.649 -0.835092 1.71554 0
M  V30 5933 C 570.789 -1.08234 3.27688 0
M  V30 5934 C 569.902 -0.328072 4.30752 0
M  V30 5935 C 569.037 -1.30399 5.14946 0
M  V30 5936 C 568.076 -0.538049 6.09731 0
M  V30 5937 N 567.213 -1.46371 6.86673 0
M  V30 5938 H 572.053 0.63864 2.91076 0
M  V30 5939 H 569.59 0.326733 1.43425 0
M  V30 5940 H 571.548 -1.66688 3.82454 0
M  V30 5941 H 570.178 -1.78523 2.68941 0
M  V30 5942 H 569.23 0.372136 3.78575 0
M  V30 5943 H 570.542 0.269142 4.98073 0
M  V30 5944 H 569.696 -1.96032 5.74157 0
M  V30 5945 H 568.435 -1.93514 4.47665 0
M  V30 5946 H 567.44 0.131852 5.49642 0
M  V30 5947 H 568.665 0.0881732 6.79043 0
M  V30 5948 H 566.611 -2.08233 6.22073 0
M  V30 5949 H 566.528 -0.920152 7.50379 0
M  V30 5950 H 567.796 -2.10932 7.50418 0
M  V30 5951 N 572.025 -1.5352 0.356285 0
M  V30 5952 C 572.955 -2.28372 -0.486661 0
M  V30 5953 C 573.936 -1.30432 -1.09185 0
M  V30 5954 O 575.121 -1.59291 -1.11085 0
M  V30 5955 C 572.251 -3.06604 -1.63129 0
M  V30 5956 C 571.205 -4.12154 -1.15381 0
M  V30 5957 C 570.531 -4.78415 -2.38796 0
M  V30 5958 C 571.831 -5.21724 -0.245179 0
M  V30 5959 H 573.525 -2.99083 0.137797 0
M  V30 5960 H 571.071 -1.43841 0.0677134 0
M  V30 5961 H 573.024 -3.57712 -2.22755 0
M  V30 5962 H 571.748 -2.33568 -2.28284 0
M  V30 5963 H 570.407 -3.61978 -0.580294 0
M  V30 5964 H 570.055 -4.01959 -3.02387 0
M  V30 5965 H 569.755 -5.49734 -2.07524 0
M  V30 5966 H 571.279 -5.32313 -2.99125 0
M  V30 5967 H 572.693 -5.68391 -0.748646 0
M  V30 5968 H 571.09 -6.00095 -0.0237608 0
M  V30 5969 H 572.16 -4.79596 0.715229 0
M  V30 5970 N 573.503 -0.0852151 -1.57369 0
M  V30 5971 C 574.413 0.891712 -2.16992 0
M  V30 5972 C 575.429 1.3174 -1.13669 0
M  V30 5973 O 576.605 1.38735 -1.45995 0
M  V30 5974 C 573.67 2.13635 -2.73059 0
M  V30 5975 C 572.731 1.7658 -3.91303 0
M  V30 5976 C 571.964 2.95111 -4.44686 0
M  V30 5977 O 572.187 4.09539 -3.97032 0
M  V30 5978 O 571.121 2.74149 -5.35841 0
M  V30 5979 H 574.947 0.414477 -3.00858 0
M  V30 5980 H 572.532 0.138598 -1.48756 0
M  V30 5981 H 574.414 2.86595 -3.08935 0
M  V30 5982 H 573.089 2.6043 -1.92244 0
M  V30 5983 H 571.996 1.00831 -3.60255 0
M  V30 5984 H 573.329 1.34557 -4.7345 0
M  V30 5985 N 574.981 1.5647 0.188427 0
M  V30 5986 C 576.397 1.50204 0.539532 0
M  V30 5987 C 576.597 0.78644 1.85519 0
M  V30 5988 O 575.653 0.339714 2.50204 0
M  V30 5989 C 576.966 2.94893 0.588103 0
M  V30 5990 C 578.514 3.05602 0.67648 0
M  V30 5991 C 578.989 4.51716 0.756101 0
M  V30 5992 N 580.48 4.55894 0.819451 0
M  V30 5993 C 581.215 5.66272 0.90134 0
M  V30 5994 N 580.711 6.86323 0.945118 0
M  V30 5995 N 582.504 5.54201 0.939043 0
M  V30 5996 H 574.655 2.01406 -0.674493 0
M  V30 5997 H 576.918 0.916828 -0.241103 0
M  V30 5998 H 576.624 3.50334 -0.309633 0
M  V30 5999 H 576.498 3.4861 1.44051 0
M  V30 6000 H 578.885 2.50206 1.56465 0
M  V30 6001 H 578.966 2.54999 -0.202262 0
M  V30 6002 H 578.61 5.07739 -0.12774 0
M  V30 6003 H 578.54 5.00058 1.65074 0
M  V30 6004 H 581.031 3.69452 0.794594 0
M  V30 6005 H 581.344 7.66194 1.0083 0
M  V30 6006 H 579.689 6.88968 0.913683 0
M  V30 6007 H 582.88 4.59333 0.901725 0
M  V30 6008 H 583.053 6.40247 0.999402 0
M  V30 6009 N 576.459 -0.456382 1.50847 0
M  V30 6010 C 577.684 -1.2349 1.66628 0
M  V30 6011 C 578.109 -1.84715 0.355254 0
M  V30 6012 O 577.467 -1.67961 -0.682559 0
M  V30 6013 C 577.515 -2.30865 2.77009 0
M  V30 6014 O 576.619 -3.35882 2.39285 0
M  V30 6015 H 575.96 -0.36266 0.556214 0
M  V30 6016 H 578.49 -0.541374 1.97308 0
M  V30 6017 H 578.5 -2.75949 3.00526 0
M  V30 6018 H 577.175 -1.85677 3.72152 0
M  V30 6019 H 575.752 -2.96406 2.26269 0
M  V30 6020 N 577.937 -1.40673 -0.710563 0
M  V30 6021 C 579.185 -1.38947 -1.46759 0
M  V30 6022 C 579.506 0.00572879 -1.94999 0
M  V30 6023 O 578.776 0.961358 -1.70689 0
M  V30 6024 H 577.356 -0.5114 -0.544499 0
M  V30 6025 H 580.018 -1.75773 -0.842012 0
M  V30 6026 H 579.114 -2.06745 -2.33801 0
M  V30 6027 N 579.415 0.9433 -1.26252 0
M  V30 6028 C 580.378 2.02326 -1.07689 0
M  V30 6029 C 581.378 1.60779 -0.0259174 0
M  V30 6030 O 582.568 1.72108 -0.269134 0
M  V30 6031 C 579.7 3.34886 -0.63752 0
M  V30 6032 H 580.893 2.20225 -2.0357 0
M  V30 6033 H 578.446 1.12197 -1.08819 0
M  V30 6034 H 579.181 3.22684 0.323377 0
M  V30 6035 H 578.966 3.66393 -1.39637 0
M  V30 6036 H 580.456 4.14231 -0.529418 0
M  V30 6037 N 580.893 1.08022 1.14757 0
M  V30 6038 C 582.309 0.807072 1.3769 0
M  V30 6039 C 582.509 -0.585504 1.92806 0
M  V30 6040 O 581.565 -1.34301 2.13821 0
M  V30 6041 C 582.878 1.88651 2.34161 0
M  V30 6042 C 584.426 1.91206 2.47809 0
M  V30 6043 C 584.901 2.98253 3.47576 0
M  V30 6044 N 586.392 2.974 3.55117 0
M  V30 6045 C 587.127 3.76872 4.32152 0
M  V30 6046 N 586.623 4.66212 5.12463 0
M  V30 6047 N 588.416 3.6519 4.27309 0
M  V30 6048 H 580.567 1.97824 0.77326 0
M  V30 6049 H 582.83 0.85826 0.402608 0
M  V30 6050 H 582.536 2.88749 2.00791 0
M  V30 6051 H 582.41 1.75244 3.3402 0
M  V30 6052 H 584.797 0.917564 2.80472 0
M  V30 6053 H 584.878 2.08691 1.47925 0
M  V30 6054 H 584.522 3.97907 3.15646 0
M  V30 6055 H 584.452 2.78014 4.47231 0
M  V30 6056 H 586.943 2.32643 2.97801 0
M  V30 6057 H 587.256 5.23468 5.68508 0
M  V30 6058 H 585.601 4.70257 5.11745 0
M  V30 6059 H 588.792 2.94765 3.63636 0
M  V30 6060 H 588.965 4.27366 4.87095 0
M  V30 6061 N 582.371 -1.3172 0.865308 0
M  V30 6062 C 583.787 -1.4958 0.556596 0
M  V30 6063 C 583.987 -1.79763 -0.910353 0
M  V30 6064 O 583.043 -1.87351 -1.6928 0
M  V30 6065 C 584.356 -2.63277 1.45279 0
M  V30 6066 C 585.904 -2.77161 1.45433 0
M  V30 6067 C 586.379 -3.93949 2.33598 0
M  V30 6068 N 587.87 -4.01228 2.31453 0
M  V30 6069 C 588.605 -4.90855 2.96393 0
M  V30 6070 N 588.101 -5.85416 3.70486 0
M  V30 6071 N 589.894 -4.84063 2.85726 0
M  V30 6072 H 582.045 -1.10396 1.81456 0
M  V30 6073 H 584.308 -0.54507 0.775631 0
M  V30 6074 H 584.014 -2.47734 2.49641 0
M  V30 6075 H 583.888 -3.59309 1.14792 0
M  V30 6076 H 586.275 -2.9212 0.41831 0
M  V30 6077 H 586.356 -1.8181 1.79941 0
M  V30 6078 H 586 -3.79748 3.37274 0
M  V30 6079 H 585.93 -4.88598 1.96417 0
M  V30 6080 H 588.421 -3.3357 1.77593 0
M  V30 6081 H 588.734 -6.50525 4.17178 0
M  V30 6082 H 587.079 -5.85409 3.74594 0
M  V30 6083 H 590.27 -4.09163 2.27384 0
M  V30 6084 H 590.443 -5.53708 3.36617 0
M  V30 6085 N 583.85 -0.624285 -1.44708 0
M  V30 6086 C 584.76 0.0861083 -2.34442 0
M  V30 6087 C 585.776 0.84291 -1.5222 0
M  V30 6088 O 586.952 0.796723 -1.84971 0
M  V30 6089 C 584.017 1.05999 -3.30099 0
M  V30 6090 C 583.077 0.303316 -4.28227 0
M  V30 6091 C 582.311 1.23081 -5.19314 0
M  V30 6092 O 582.534 2.46929 -5.14181 0
M  V30 6093 O 581.468 0.71883 -5.97592 0
M  V30 6094 H 585.293 -0.651756 -2.96624 0
M  V30 6095 H 582.879 -0.384493 -1.44368 0
M  V30 6096 H 584.76 1.62046 -3.88997 0
M  V30 6097 H 583.436 1.77859 -2.70459 0
M  V30 6098 H 582.343 -0.300033 -3.72895 0
M  V30 6099 H 583.676 -0.375123 -4.90768 0
M  V30 6100 N 585.328 1.53329 -0.364422 0
M  V30 6101 C 586.575 2.01239 0.225634 0
M  V30 6102 C 586.903 1.25172 1.48869 0
M  V30 6103 O 586.158 0.333289 1.92841 0
M  V30 6104 C 586.457 3.52911 0.564661 0
M  V30 6105 C 586.123 4.46837 -0.603936 0
M  V30 6106 C 584.785 4.72234 -0.924585 0
M  V30 6107 C 587.137 5.02409 -1.38691 0
M  V30 6108 C 584.465 5.50454 -2.0302 0
M  V30 6109 C 586.817 5.81836 -2.48293 0
M  V30 6110 C 585.481 6.0552 -2.80894 0
M  V30 6111 H 584.751 0.736386 0.0825654 0
M  V30 6112 H 587.398 1.84948 -0.496645 0
M  V30 6113 H 585.703 3.67144 1.36794 0
M  V30 6114 H 587.4 3.87455 1.03344 0
M  V30 6115 H 583.99 4.27217 -0.343983 0
M  V30 6116 H 588.174 4.82735 -1.15243 0
M  V30 6117 H 583.43 5.67024 -2.28678 0
M  V30 6118 H 587.604 6.23905 -3.0938 0
M  V30 6119 H 585.231 6.65916 -3.66688 0
M  V30 6120 N 586.806 0.0935595 1.57322 0
M  V30 6121 C 588.083 -0.612692 1.85756 0
M  V30 6122 C 588.463 -1.86439 0.99013 0
M  V30 6123 O 587.811 -2.28416 0.0621362 0
M  V30 6124 C 588.021 -0.929547 3.36393 0
M  V30 6125 C 589.369 -1.29366 4.04413 0
M  V30 6126 O 590.393 -1.02061 3.41265 0
M  V30 6127 O 589.252 -1.80498 5.15832 0
M  V30 6128 H 586.346 -0.306444 0.768128 0
M  V30 6129 H 588.892 0.126141 1.69231 0
M  V30 6130 H 587.664 -0.0414766 3.91278 0
M  V30 6131 H 587.287 -1.72441 3.5826 0
M  V30 6132 N 588.284 -1.56567 -0.180126 0
M  V30 6133 C 589.247 -1.94852 -1.20686 0
M  V30 6134 C 590.247 -0.831212 -1.3765 0
M  V30 6135 O 591.437 -1.09841 -1.35206 0
M  V30 6136 C 588.569 -2.23565 -2.57355 0
M  V30 6137 H 589.762 -2.86722 -0.879225 0
M  V30 6138 H 587.315 -1.50489 -0.422237 0
M  V30 6139 H 588.05 -1.34381 -2.95148 0
M  V30 6140 H 587.835 -3.04999 -2.46411 0
M  V30 6141 H 589.325 -2.54137 -3.31367 0
M  V30 6142 N 589.762 0.448376 -1.51087 0
M  V30 6143 C 591.173 1.0286 -1.5581 0
M  V30 6144 C 591.524 1.92583 -0.374989 0
M  V30 6145 O 590.649 2.10316 0.509533 0
M  V30 6146 C 591.244 1.87223 -2.8237 0
M  V30 6147 C 589.803 2.40314 -2.897 0
M  V30 6148 C 588.95 1.19238 -2.50355 0
M  V30 6149 H 591.901 0.230075 -1.57023 0
M  V30 6150 H 591.922 2.72553 -2.6551 0
M  V30 6151 H 591.434 1.21894 -3.68461 0
M  V30 6152 H 589.535 3.09129 -2.08014 0
M  V30 6153 H 589.648 2.73866 -3.93108 0
M  V30 6154 H 588.012 1.53428 -2.03303 0
M  V30 6155 H 588.795 0.555367 -3.38778 0
M  V30 6156 N 591.24 1.41047 0.703093 0
M  V30 6157 C 592.488 1.39723 1.4602 0
M  V30 6158 C 592.809 0.00461257 1.94999 0
M  V30 6159 O 592.079 -0.952292 1.71196 0
M  V30 6160 H 590.659 0.514281 0.541779 0
M  V30 6161 H 593.321 1.76217 0.832678 0
M  V30 6162 H 592.417 2.07982 2.32701 0
M  V30 6163 N 592.718 -0.936591 1.26751 0
M  V30 6164 C 593.967 -1.67778 1.11953 0
M  V30 6165 C 594.28 -1.92694 -0.33589 0
M  V30 6166 O 595.486 -2.64682 -0.604618 0
M  V30 6167 C 593.942 -3.02138 1.95551 0
M  V30 6168 C 593.55 -2.84953 3.45696 0
M  V30 6169 C 595.294 -3.79917 1.89377 0
M  V30 6170 C 593.201 -4.14814 4.21525 0
M  V30 6171 H 592.131 -0.629275 0.415366 0
M  V30 6172 H 594.782 -1.04122 1.51099 0
M  V30 6173 H 593.164 -3.668 1.49243 0
M  V30 6174 H 594.338 -2.29112 3.99805 0
M  V30 6175 H 592.653 -2.20612 3.53156 0
M  V30 6176 H 595.25 -4.76134 2.43312 0
M  V30 6177 H 595.593 -4.07204 0.865464 0
M  V30 6178 H 596.126 -3.22037 2.33532 0
M  V30 6179 H 592.865 -3.92709 5.24843 0
M  V30 6180 H 592.385 -4.70352 3.72195 0
M  V30 6181 H 594.064 -4.83239 4.3022 0
M  V30 6182 N 594.196 -1.08629 -1.14182 0
M  V30 6183 C 595.146 -0.687882 -2.17376 0
M  V30 6184 C 596.13 0.293632 -1.58198 0
M  V30 6185 O 597.322 0.105292 -1.76687 0
M  V30 6186 C 594.451 -0.101184 -3.43151 0
M  V30 6187 C 593.537 -1.10862 -4.09354 0
M  V30 6188 N 593.928 -2.29285 -4.50846 0
M  V30 6189 C 592.226 -0.944897 -4.35876 0
M  V30 6190 C 592.927 -2.93305 -5.02342 0
M  V30 6191 N 591.903 -2.20903 -4.96692 0
M  V30 6192 H 595.705 -1.58963 -2.472 0
M  V30 6193 H 593.219 -0.961329 -1.3089 0
M  V30 6194 H 595.216 0.202209 -4.16409 0
M  V30 6195 H 593.876 0.795522 -3.14804 0
M  V30 6196 H 594.887 -2.66927 -4.43813 0
M  V30 6197 H 591.564 -0.102186 -4.17375 0
M  V30 6198 H 592.954 -3.93932 -5.44304 0
M  V30 6199 N 595.674 1.31259 -0.872281 0
M  V30 6200 C 596.921 1.96622 -0.484365 0
M  V30 6201 C 597.249 1.68939 0.963841 0
M  V30 6202 O 596.504 0.97974 1.6941 0
M  V30 6203 C 596.803 3.50659 -0.690889 0
M  V30 6204 C 596.469 3.98366 -2.11224 0
M  V30 6205 C 595.131 4.11104 -2.50094 0
M  V30 6206 C 597.483 4.23425 -3.0391 0
M  V30 6207 C 594.811 4.46254 -3.80887 0
M  V30 6208 C 597.163 4.60039 -4.3422 0
M  V30 6209 C 595.827 4.70984 -4.73001 0
M  V30 6210 H 595.097 0.71949 -0.177242 0
M  V30 6211 H 597.744 1.56353 -1.10571 0
M  V30 6212 H 596.049 3.91798 0.0135782 0
M  V30 6213 H 597.746 3.99284 -0.370534 0
M  V30 6214 H 594.336 3.88949 -1.80047 0
M  V30 6215 H 598.52 4.13075 -2.75104 0
M  V30 6216 H 593.776 4.52926 -4.10692 0
M  V30 6217 H 597.95 4.78381 -5.06088 0
M  V30 6218 H 595.577 4.97977 -5.7439 0
M  V30 6219 N 597.152 0.631951 1.44375 0
M  V30 6220 C 598.4 0.136497 2.01639 0
M  V30 6221 C 598.721 -1.24637 1.49969 0
M  V30 6222 O 597.991 -1.82827 0.70363 0
M  V30 6223 H 596.571 0.0474703 0.74549 0
M  V30 6224 H 599.233 0.818837 1.76865 0
M  V30 6225 H 598.329 0.104817 3.11924 0
M  V30 6226 N 598.631 -1.53133 0.372548 0
M  V30 6227 C 599.581 -2.22733 -0.487218 0
M  V30 6228 C 600.565 -1.22506 -1.04312 0
M  V30 6229 O 601.757 -1.47923 -0.972005 0
M  V30 6230 C 598.886 -3.02524 -1.62278 0
M  V30 6231 C 597.972 -4.10133 -1.07943 0
M  V30 6232 N 598.363 -5.05133 -0.259629 0
M  V30 6233 C 596.661 -4.24964 -1.35356 0
M  V30 6234 C 597.362 -5.81687 0.0386656 0
M  V30 6235 N 596.338 -5.40699 -0.560827 0
M  V30 6236 H 600.14 -2.93538 0.145853 0
M  V30 6237 H 597.654 -1.61389 0.180938 0
M  V30 6238 H 599.651 -3.50909 -2.25096 0
M  V30 6239 H 598.311 -2.33252 -2.25884 0
M  V30 6240 H 599.322 -5.178 0.101746 0
M  V30 6241 H 595.999 -3.66919 -1.9919 0
M  V30 6242 H 597.389 -6.68224 0.701841 0
M  V30 6243 N 600.109 -0.101901 -1.5727 0
M  V30 6244 C 601.337 0.568392 -1.98939 0
M  V30 6245 C 601.752 1.61301 -0.981194 0
M  V30 6246 O 601.109 1.82478 0.0282869 0
M  V30 6247 C 601.16 1.20997 -3.40649 0
M  V30 6248 O 600.881 0.207129 -4.3761 0
M  V30 6249 C 602.382 1.96523 -3.97358 0
M  V30 6250 H 599.602 0.15186 -0.65359 0
M  V30 6251 H 602.146 -0.183198 -2.03678 0
M  V30 6252 H 600.301 1.91245 -3.36904 0
M  V30 6253 H 600.715 0.671071 -5.20189 0
M  V30 6254 H 602.189 2.36764 -4.98645 0
M  V30 6255 H 602.666 2.83376 -3.35552 0
M  V30 6256 H 603.272 1.31076 -4.04598 0
M  V30 6257 N 601.587 1.56661 0.17182 0
M  V30 6258 C 602.817 1.85831 0.902804 0
M  V30 6259 C 603.225 0.685157 1.76358 0
M  V30 6260 O 602.568 -0.354947 1.80238 0
M  V30 6261 C 602.63 3.09406 1.83053 0
M  V30 6262 C 602.294 4.4231 1.1494 0
M  V30 6263 C 603.291 5.17342 0.515104 0
M  V30 6264 C 600.976 4.89045 1.14631 0
M  V30 6265 C 602.97 6.37299 -0.113194 0
M  V30 6266 C 600.657 6.08933 0.514184 0
M  V30 6267 C 601.655 6.82904 -0.114463 0
M  V30 6268 O 601.343 8.00518 -0.736622 0
M  V30 6269 H 601.075 0.620715 0.267748 0
M  V30 6270 H 603.629 2.04637 0.176918 0
M  V30 6271 H 601.859 2.86544 2.59672 0
M  V30 6272 H 603.548 3.25027 2.4313 0
M  V30 6273 H 604.314 4.82317 0.509474 0
M  V30 6274 H 600.193 4.31409 1.62502 0
M  V30 6275 H 603.737 6.94976 -0.604477 0
M  V30 6276 H 599.634 6.43423 0.517395 0
M  V30 6277 H 600.402 8.16027 -0.635822 0
M  V30 6278 N 603.065 -0.440357 1.51323 0
M  V30 6279 C 604.481 -0.7766 1.39431 0
M  V30 6280 C 604.681 -1.95838 0.474296 0
M  V30 6281 O 603.737 -2.52398 -0.0716692 0
M  V30 6282 C 605.05 -1.05981 2.81405 0
M  V30 6283 C 606.598 -1.16442 2.90534 0
M  V30 6284 C 607.073 -1.48058 4.33408 0
M  V30 6285 N 608.564 -1.54988 4.36501 0
M  V30 6286 C 609.299 -1.81017 5.44078 0
M  V30 6287 N 608.795 -2.04858 6.61819 0
M  V30 6288 N 610.588 -1.82774 5.31554 0
M  V30 6289 H 602.739 0.338006 2.09693 0
M  V30 6290 H 605.002 0.0888072 0.943831 0
M  V30 6291 H 604.708 -0.264173 3.50706 0
M  V30 6292 H 604.582 -1.98822 3.20546 0
M  V30 6293 H 606.969 -1.95068 2.21432 0
M  V30 6294 H 607.05 -0.215088 2.54894 0
M  V30 6295 H 606.694 -0.699605 5.03059 0
M  V30 6296 H 606.624 -2.44192 4.66559 0
M  V30 6297 H 609.115 -1.38479 3.51613 0
M  V30 6298 H 609.428 -2.2408 7.396 0
M  V30 6299 H 607.773 -2.02187 6.6494 0
M  V30 6300 H 610.964 -1.63665 4.38556 0
M  V30 6301 H 611.137 -2.02722 6.15474 0
M  V30 6302 N 604.543 -1.41418 -0.695603 0
M  V30 6303 C 605.768 -1.44329 -1.48942 0
M  V30 6304 C 606.193 -0.0501579 -1.88033 0
M  V30 6305 O 605.551 0.946598 -1.54626 0
M  V30 6306 C 605.599 -2.3578 -2.72837 0
M  V30 6307 O 604.703 -1.81482 -3.70322 0
M  V30 6308 H 604.044 -0.489838 -0.44828 0
M  V30 6309 H 606.574 -1.85878 -0.855014 0
M  V30 6310 H 606.584 -2.51654 -3.21145 0
M  V30 6311 H 605.259 -3.37005 -2.43722 0
M  V30 6312 H 603.836 -1.75058 -3.29255 0
M  V30 6313 N 606.021 0.929856 -1.27246 0
M  V30 6314 C 607.246 1.71674 -1.16374 0
M  V30 6315 C 607.671 1.86064 0.276024 0
M  V30 6316 O 607.029 1.3591 1.19992 0
M  V30 6317 C 607.077 3.09526 -1.85003 0
M  V30 6318 O 606.181 3.96142 -1.14653 0
M  V30 6319 H 605.522 0.52629 -0.404863 0
M  V30 6320 H 608.052 1.16381 -1.68276 0
M  V30 6321 H 608.062 3.59852 -1.92276 0
M  V30 6322 H 606.737 2.98369 -2.89739 0
M  V30 6323 H 605.314 3.54584 -1.15433 0
M  V30 6324 N 607.499 1.09233 1.13605 0
M  V30 6325 C 608.748 0.82205 1.84188 0
M  V30 6326 C 609.061 -0.654548 1.84323 0
M  V30 6327 O 610.267 -1.04029 2.50779 0
M  V30 6328 C 608.723 1.42066 3.30674 0
M  V30 6329 C 608.331 2.92965 3.38933 0
M  V30 6330 C 610.075 1.22924 4.06313 0
M  V30 6331 C 607.982 3.45922 4.79679 0
M  V30 6332 H 606.912 0.303854 0.690064 0
M  V30 6333 H 609.563 1.31479 1.28006 0
M  V30 6334 H 607.945 0.855613 3.86646 0
M  V30 6335 H 609.119 3.55679 2.92966 0
M  V30 6336 H 607.434 3.11118 2.76757 0
M  V30 6337 H 610.031 1.59945 5.10217 0
M  V30 6338 H 610.374 0.169726 4.15954 0
M  V30 6339 H 610.907 1.76168 3.56665 0
M  V30 6340 H 607.646 4.51484 4.75229 0
M  V30 6341 H 607.166 2.87971 5.26149 0
M  V30 6342 H 608.845 3.43009 5.48592 0
M  V30 6343 N 608.977 -1.30795 0.87923 0
M  V30 6344 C 610.223 -1.96653 0.495519 0
M  V30 6345 C 610.556 -1.69282 -0.951703 0
M  V30 6346 O 609.831 -0.994374 -1.6716 0
M  V30 6347 C 610.114 -3.51898 0.764174 0
M  V30 6348 C 609.967 -3.88808 2.2616 0
M  V30 6349 C 611.286 -4.39462 0.236825 0
M  V30 6350 H 608.405 -0.7143 0.181507 0
M  V30 6351 H 611.047 -1.54765 1.10217 0
M  V30 6352 H 609.197 -3.87709 0.247841 0
M  V30 6353 H 610.869 -3.63051 2.8459 0
M  V30 6354 H 609.112 -3.37082 2.73053 0
M  V30 6355 H 609.783 -4.97086 2.4002 0
M  V30 6356 H 612.259 -4.10528 0.678683 0
M  V30 6357 H 611.135 -5.47018 0.454176 0
M  V30 6358 H 611.396 -4.33621 -0.861683 0
M  V30 6359 N 610.455 -0.639598 -1.44038 0
M  V30 6360 C 611.695 -0.150902 -2.03842 0
M  V30 6361 C 612.059 1.20744 -1.49281 0
M  V30 6362 O 613.26 1.78875 -2.00642 0
M  V30 6363 C 611.531 -0.146114 -3.57101 0
M  V30 6364 S 613.09 0.276725 -4.37927 0
M  V30 6365 H 609.908 -0.0652447 -0.708 0
M  V30 6366 H 612.51 -0.844886 -1.76301 0
M  V30 6367 H 611.214 -1.13769 -3.94316 0
M  V30 6368 H 610.745 0.568846 -3.89266 0
M  V30 6369 H 612.76 1.51893 -4.7238 0
M  V30 6370 N 611.933 1.52934 -0.380664 0
M  V30 6371 C 613.181 2.01069 0.203874 0
M  V30 6372 C 613.502 1.26922 1.4804 0
M  V30 6373 O 612.772 0.386787 1.92044 0
M  V30 6374 H 611.352 0.742882 0.0783279 0
M  V30 6375 H 614.014 1.88099 -0.510368 0
M  V30 6376 H 613.11 3.09258 0.42021 0
M  V30 6377 N 613.412 0.11024 1.57214 0
M  V30 6378 C 614.322 -0.857077 2.18383 0
M  V30 6379 C 615.338 -1.29915 1.1575 0
M  V30 6380 O 616.514 -1.36394 1.48184 0
M  V30 6381 C 613.579 -2.09264 2.76423 0
M  V30 6382 C 612.64 -1.70333 3.94063 0
M  V30 6383 C 611.873 -2.87999 4.49324 0
M  V30 6384 O 612.096 -4.0317 4.03497 0
M  V30 6385 O 611.03 -2.6559 5.40135 0
M  V30 6386 H 614.856 -0.366561 3.0148 0
M  V30 6387 H 612.441 -0.114914 1.48957 0
M  V30 6388 H 614.323 -2.81644 3.13456 0
M  V30 6389 H 612.998 -2.57339 1.96363 0
M  V30 6390 H 611.905 -0.950864 3.61814 0
M  V30 6391 H 613.238 -1.27007 4.75531 0
M  V30 6392 N 614.89 -1.56749 -0.16351 0
M  V30 6393 C 616.301 -1.72039 -0.725216 0
M  V30 6394 C 616.652 -0.72202 -1.82432 0
M  V30 6395 O 615.777 0.114942 -2.16095 0
M  V30 6396 C 616.372 -3.11932 -1.32227 0
M  V30 6397 C 614.931 -3.28879 -1.83072 0
M  V30 6398 C 614.078 -2.67984 -0.712716 0
M  V30 6399 H 617.029 -1.58579 0.0619772 0
M  V30 6400 H 617.05 -3.11015 -2.19202 0
M  V30 6401 H 616.562 -3.84572 -0.522103 0
M  V30 6402 H 614.663 -2.61209 -2.65708 0
M  V30 6403 H 614.776 -4.36688 -1.97079 0
M  V30 6404 H 613.14 -2.28005 -1.13515 0
M  V30 6405 H 613.923 -3.43216 0.0757361 0
M  V30 6406 N 616.368 0.432326 -1.51554 0
M  V30 6407 C 617.278 1.55023 -1.76082 0
M  V30 6408 C 618.294 1.61593 -0.645265 0
M  V30 6409 O 619.47 1.78742 -0.928086 0
M  V30 6410 C 616.535 2.90964 -1.88523 0
M  V30 6411 C 615.596 2.9447 -3.12388 0
M  V30 6412 C 614.829 4.23926 -3.24225 0
M  V30 6413 O 615.052 5.16576 -2.4188 0
M  V30 6414 O 613.986 4.33818 -4.17235 0
M  V30 6415 H 617.812 1.37238 -2.70923 0
M  V30 6416 H 615.397 0.615845 -1.36117 0
M  V30 6417 H 617.279 3.71633 -1.98662 0
M  V30 6418 H 615.954 3.08865 -0.9687 0
M  V30 6419 H 614.861 2.12737 -3.07723 0
M  V30 6420 H 616.194 2.81514 -4.03746 0
M  V30 6421 N 617.846 1.41785 0.688094 0
M  V30 6422 C 619.074 1.44915 1.47673 0
M  V30 6423 C 619.489 0.0565786 1.88715 0
M  V30 6424 O 618.846 -0.92579 1.57275 0
M  V30 6425 C 618.897 2.36452 2.73446 0
M  V30 6426 O 618.618 3.7029 2.34131 0
M  V30 6427 C 620.119 2.48463 3.67125 0
M  V30 6428 H 617.339 0.493324 0.454832 0
M  V30 6429 H 619.883 1.86153 0.846594 0
M  V30 6430 H 618.038 1.98502 3.3268 0
M  V30 6431 H 618.452 4.19183 3.15255 0
M  V30 6432 H 619.926 3.16662 4.52138 0
M  V30 6433 H 620.403 1.51826 4.12123 0
M  V30 6434 H 621.009 2.8708 3.13792 0
M  V30 6435 N 619.324 -0.923095 1.27737 0
M  V30 6436 C 620.234 -2.05765 1.12685 0
M  V30 6437 C 621.25 -1.73911 0.0557197 0
M  V30 6438 O 622.426 -1.99674 0.263137 0
M  V30 6439 C 619.491 -3.37804 0.780363 0
M  V30 6440 C 618.552 -3.83326 1.93286 0
M  V30 6441 C 617.785 -5.09064 1.60281 0
M  V30 6442 O 618.008 -5.6809 0.512828 0
M  V30 6443 O 616.942 -5.50071 2.44347 0
M  V30 6444 H 620.768 -2.21378 2.07907 0
M  V30 6445 H 618.353 -1.04299 1.06968 0
M  V30 6446 H 620.235 -4.17097 0.600668 0
M  V30 6447 H 618.91 -3.23387 -0.142291 0
M  V30 6448 H 617.817 -3.049 2.16764 0
M  V30 6449 H 619.15 -4.02292 2.83588 0
M  V30 6450 N 620.802 -1.09834 -1.13024 0
M  V30 6451 C 622.048 -0.83819 -1.84668 0
M  V30 6452 C 622.381 0.634645 -1.83537 0
M  V30 6453 O 621.656 1.46753 -1.27647 0
M  V30 6454 C 621.939 -1.37933 -3.32636 0
M  V30 6455 C 621.792 -2.91857 -3.42257 0
M  V30 6456 C 623.111 -1.01654 -4.28199 0
M  V30 6457 H 620.23 -0.30595 -0.670495 0
M  V30 6458 H 622.872 -1.36044 -1.32635 0
M  V30 6459 H 621.022 -0.935111 -3.77078 0
M  V30 6460 H 622.694 -3.44759 -3.06495 0
M  V30 6461 H 620.937 -3.28776 -2.83 0
M  V30 6462 H 621.608 -3.24799 -4.46329 0
M  V30 6463 H 624.084 -1.39973 -3.9185 0
M  V30 6464 H 622.96 -1.42217 -5.30156 0
M  V30 6465 H 623.221 0.0747794 -4.42037 0
M  V30 6466 N 622.28 1.30327 -0.886154 0
M  V30 6467 C 623.243 2.26376 -0.358687 0
M  V30 6468 C 624.243 1.52845 0.499498 0
M  V30 6469 O 625.433 1.71483 0.306485 0
M  V30 6470 C 622.565 3.37379 0.488726 0
M  V30 6471 H 623.758 2.74547 -1.20681 0
M  V30 6472 H 621.311 1.41536 -0.663113 0
M  V30 6473 H 622.046 2.94526 1.35739 0
M  V30 6474 H 621.831 3.91897 -0.126003 0
M  V30 6475 H 623.321 4.08868 0.84952 0
M  V30 6476 N 623.758 0.647228 1.43697 0
M  V30 6477 C 624.986 0.16575 2.06235 0
M  V30 6478 C 625.401 -1.1662 1.48476 0
M  V30 6479 O 624.758 -1.7187 0.613762 0
M  V30 6480 C 624.809 0.0621651 3.61447 0
M  V30 6481 O 624.53 1.34146 4.17057 0
M  V30 6482 C 626.031 -0.446102 4.4105 0
M  V30 6483 H 623.251 0.0871158 0.665321 0
M  V30 6484 H 625.795 0.886183 1.84301 0
M  V30 6485 H 623.95 -0.608794 3.82587 0
M  V30 6486 H 624.364 1.19675 5.10664 0
M  V30 6487 H 625.838 -0.46755 5.50016 0
M  V30 6488 H 626.315 -1.47627 4.13646 0
M  V30 6489 H 626.921 0.192159 4.24866 0
M  V30 6490 N 625.236 -1.5273 0.388769 0
M  V30 6491 C 626.484 -2.01174 -0.193208 0
M  V30 6492 C 626.805 -1.27705 -1.47365 0
M  V30 6493 O 626.075 -0.396966 -1.91836 0
M  V30 6494 H 624.655 -0.743287 -0.0743871 0
M  V30 6495 H 627.317 -1.87826 0.520336 0
M  V30 6496 H 626.413 -3.09477 -0.403803 0
M  V30 6497 N 626.714 -0.118576 -1.57153 0
M  V30 6498 C 627.962 0.538461 -1.94795 0
M  V30 6499 C 628.283 1.67243 -1.00274 0
M  V30 6500 O 627.553 1.95811 -0.0589692 0
M  V30 6501 H 626.133 0.201904 -0.719197 0
M  V30 6502 H 628.795 -0.187418 -1.93997 0
M  V30 6503 H 627.891 0.933315 -2.97818 0
M  V30 6504 N 628.193 1.56834 0.155195 0
M  V30 6505 C 629.439 1.84058 0.865687 0
M  V30 6506 C 629.794 0.701418 1.79159 0
M  V30 6507 O 629.087 -0.301162 1.89218 0
M  V30 6508 C 629.281 3.15239 1.68402 0
M  V30 6509 C 629.11 4.41807 0.838847 0
M  V30 6510 C 627.88 5.02744 0.507645 0
M  V30 6511 C 630.078 5.14009 0.172946 0
M  V30 6512 N 628.06 6.1289 -0.351978 0
M  V30 6513 C 629.431 6.17581 -0.547158 0
M  V30 6514 C 631.486 4.97814 0.0927721 0
M  V30 6515 C 630.189 7.06711 -1.33985 0
M  V30 6516 C 632.215 5.874 -0.686638 0
M  V30 6517 C 631.577 6.90447 -1.39505 0
M  V30 6518 H 627.676 0.724276 0.294871 0
M  V30 6519 H 630.26 1.94255 0.131583 0
M  V30 6520 H 628.431 3.06205 2.38942 0
M  V30 6521 H 630.163 3.304 2.33705 0
M  V30 6522 H 626.918 4.66064 0.841517 0
M  V30 6523 H 627.342 6.72577 -0.772573 0
M  V30 6524 H 631.984 4.18138 0.626112 0
M  V30 6525 H 629.702 7.8582 -1.88448 0
M  V30 6526 H 633.288 5.76938 -0.750555 0
M  V30 6527 H 632.168 7.58571 -1.98847 0
M  V30 6528 N 629.671 -0.424282 1.51781 0
M  V30 6529 C 631.087 -0.761768 1.40247 0
M  V30 6530 C 631.287 -1.95324 0.495041 0
M  V30 6531 O 630.343 -2.5246 -0.0448949 0
M  V30 6532 C 631.656 -1.0299 2.82513 0
M  V30 6533 C 633.204 -1.13354 2.91753 0
M  V30 6534 C 633.679 -1.43453 4.34954 0
M  V30 6535 N 635.17 -1.5035 4.3812 0
M  V30 6536 C 635.905 -1.75236 5.45967 0
M  V30 6537 N 635.401 -1.97827 6.63955 0
M  V30 6538 N 637.194 -1.77126 5.33463 0
M  V30 6539 H 629.345 0.360228 2.09323 0
M  V30 6540 H 631.608 0.0988128 0.942836 0
M  V30 6541 H 631.314 -0.226961 3.50967 0
M  V30 6542 H 631.188 -1.95411 3.22637 0
M  V30 6543 H 633.575 -1.92709 2.23489 0
M  V30 6544 H 633.656 -0.188041 2.55108 0
M  V30 6545 H 633.3 -0.646209 5.03772 0
M  V30 6546 H 633.23 -2.3923 4.69123 0
M  V30 6547 H 635.721 -1.34742 3.53062 0
M  V30 6548 H 636.034 -2.16223 7.41935 0
M  V30 6549 H 634.379 -1.95123 6.67047 0
M  V30 6550 H 637.57 -1.59005 4.40267 0
M  V30 6551 H 637.743 -1.96182 6.17589 0
M  V30 6552 N 631.149 -1.42148 -0.680565 0
M  V30 6553 C 632.56 -1.3768 -1.26099 0
M  V30 6554 C 632.911 -0.0672348 -1.96085 0
M  V30 6555 O 632.036 0.834172 -1.99676 0
M  V30 6556 C 632.631 -2.49387 -2.29328 0
M  V30 6557 C 631.19 -2.4827 -2.82911 0
M  V30 6558 C 630.337 -2.2847 -1.57152 0
M  V30 6559 H 633.288 -1.51446 -0.474326 0
M  V30 6560 H 633.309 -2.19307 -3.10941 0
M  V30 6561 H 632.821 -3.44686 -1.78363 0
M  V30 6562 H 630.922 -1.56773 -3.38013 0
M  V30 6563 H 631.035 -3.45109 -3.3232 0
M  V30 6564 H 629.399 -1.76623 -1.83511 0
M  V30 6565 H 630.182 -3.25816 -1.0816 0
M  V30 6566 N 632.627 0.916307 -1.28225 0
M  V30 6567 C 633.852 1.7043 -1.18188 0
M  V30 6568 C 634.277 1.86346 0.256274 0
M  V30 6569 O 633.635 1.37175 1.18544 0
M  V30 6570 C 633.683 3.07546 -1.88275 0
M  V30 6571 O 632.787 3.94904 -1.18848 0
M  V30 6572 H 632.128 0.521967 -0.410423 0
M  V30 6573 H 634.658 1.14589 -1.69501 0
M  V30 6574 H 634.668 3.57793 -1.96082 0
M  V30 6575 H 633.343 2.95279 -2.92887 0
M  V30 6576 H 631.92 3.53339 -1.19187 0
M  V30 6577 N 634.105 1.10431 1.1244 0
M  V30 6578 C 635.068 0.756542 2.16354 0
M  V30 6579 C 636.068 -0.21899 1.59302 0
M  V30 6580 O 637.258 0.00415969 1.742 0
M  V30 6581 C 634.39 0.120612 3.40687 0
M  V30 6582 H 635.583 1.67696 2.48632 0
M  V30 6583 H 633.136 0.904832 1.27446 0
M  V30 6584 H 633.871 -0.810536 3.14008 0
M  V30 6585 H 633.656 0.822693 3.83372 0
M  V30 6586 H 635.146 -0.106945 4.17463 0
M  V30 6587 N 635.583 -1.29855 0.893053 0
M  V30 6588 C 636.999 -1.48366 0.588199 0
M  V30 6589 C 637.199 -1.81654 -0.872018 0
M  V30 6590 O 636.255 -1.909 -1.65268 0
M  V30 6591 C 637.568 -2.60136 1.5083 0
M  V30 6592 C 639.116 -2.74014 1.51279 0
M  V30 6593 C 639.591 -3.88905 2.41902 0
M  V30 6594 N 641.082 -3.96228 2.39911 0
M  V30 6595 C 641.817 -4.84458 3.06738 0
M  V30 6596 N 641.313 -5.77426 3.8282 0
M  V30 6597 N 643.106 -4.77894 2.95929 0
M  V30 6598 H 635.257 -1.06522 1.83757 0
M  V30 6599 H 637.52 -0.528495 0.787018 0
M  V30 6600 H 637.226 -2.42383 2.54839 0
M  V30 6601 H 637.1 -3.56793 1.22388 0
M  V30 6602 H 639.487 -2.91167 0.480179 0
M  V30 6603 H 639.568 -1.77952 1.83757 0
M  V30 6604 H 639.212 -3.72508 3.45253 0
M  V30 6605 H 639.142 -4.84322 2.06737 0
M  V30 6606 H 641.633 -3.29728 1.84629 0
M  V30 6607 H 641.946 -6.41529 4.30883 0
M  V30 6608 H 640.291 -5.77332 3.86927 0
M  V30 6609 H 643.482 -4.04248 2.36012 0
M  V30 6610 H 643.655 -5.46444 3.48286 0
M  V30 6611 N 637.061 -0.65484 -1.43351 0
M  V30 6612 C 638.472 -0.248506 -1.85039 0
M  V30 6613 C 638.823 1.20526 -1.54816 0
M  V30 6614 O 637.948 1.92016 -0.99794 0
M  V30 6615 C 638.543 -0.444241 -3.35875 0
M  V30 6616 C 637.102 -0.0922108 -3.76287 0
M  V30 6617 C 636.249 -0.746327 -2.67068 0
M  V30 6618 H 639.2 -0.8584 -1.33481 0
M  V30 6619 H 639.221 0.309762 -3.79237 0
M  V30 6620 H 638.733 -1.50239 -3.5784 0
M  V30 6621 H 636.834 0.96328 -3.59933 0
M  V30 6622 H 636.947 -0.518807 -4.76283 0
M  V30 6623 H 635.311 -0.179416 -2.54067 0
M  V30 6624 H 636.094 -1.80754 -2.91861 0
M  V30 6625 N 638.539 1.52521 -0.396863 0
M  V30 6626 C 639.787 2.01274 0.182536 0
M  V30 6627 C 640.108 1.28485 1.46685 0
M  V30 6628 O 639.378 0.407134 1.91623 0
M  V30 6629 H 637.958 0.743671 0.0704442 0
M  V30 6630 H 640.62 1.87547 -0.530289 0
M  V30 6631 H 639.716 3.09687 0.387385 0
M  V30 6632 N 640.017 0.126909 1.57088 0
M  V30 6633 C 640.98 -0.806097 2.14557 0
M  V30 6634 C 641.98 -1.18918 1.08236 0
M  V30 6635 O 643.17 -1.11339 1.33975 0
M  V30 6636 C 640.302 -2.09116 2.69227 0
M  V30 6637 H 641.495 -0.306522 2.98329 0
M  V30 6638 H 639.048 -0.122393 1.5582 0
M  V30 6639 H 639.783 -2.63486 1.89065 0
M  V30 6640 H 639.568 -1.82588 3.46993 0
M  V30 6641 H 641.058 -2.75794 3.13572 0
M  V30 6642 N 641.495 -1.56914 -0.146875 0
M  V30 6643 C 642.911 -1.51582 -0.499518 0
M  V30 6644 C 643.111 -0.83535 -1.83369 0
M  V30 6645 O 642.167 -0.405932 -2.49216 0
M  V30 6646 C 643.48 -2.96349 -0.509711 0
M  V30 6647 C 645.028 -3.07288 -0.595217 0
M  V30 6648 C 645.503 -4.53562 -0.636071 0
M  V30 6649 N 646.994 -4.57906 -0.69829 0
M  V30 6650 C 647.729 -5.68462 -0.750886 0
M  V30 6651 N 647.225 -6.88588 -0.76282 0
M  V30 6652 N 649.018 -5.56496 -0.791777 0
M  V30 6653 H 641.169 -1.99547 0.727656 0
M  V30 6654 H 643.432 -0.910113 0.265327 0
M  V30 6655 H 643.138 -3.4939 0.402409 0
M  V30 6656 H 643.012 -3.52307 -1.34758 0
M  V30 6657 H 645.399 -2.54266 -1.49776 0
M  V30 6658 H 645.48 -2.54373 0.2698 0
M  V30 6659 H 645.124 -5.07222 0.262313 0
M  V30 6660 H 645.054 -5.04259 -1.51758 0
M  V30 6661 H 647.545 -3.71429 -0.696362 0
M  V30 6662 H 647.858 -7.68598 -0.804804 0
M  V30 6663 H 646.203 -6.91148 -0.730694 0
M  V30 6664 H 649.394 -4.61562 -0.779624 0
M  V30 6665 H 649.567 -6.42671 -0.829301 0
M  V30 6666 N 642.974 0.416227 -1.52004 0
M  V30 6667 C 643.937 1.48926 -1.74223 0
M  V30 6668 C 644.937 1.48693 -0.612119 0
M  V30 6669 O 646.127 1.50343 -0.879921 0
M  V30 6670 C 643.259 2.88372 -1.81809 0
M  V30 6671 H 644.452 1.3052 -2.70008 0
M  V30 6672 H 642.005 0.646271 -1.42313 0
M  V30 6673 H 642.74 3.12157 -0.879135 0
M  V30 6674 H 642.525 2.89944 -2.6396 0
M  V30 6675 H 644.015 3.66173 -2.00766 0
M  V30 6676 N 644.452 1.42507 0.673017 0
M  V30 6677 C 645.863 1.38347 1.25367 0
M  V30 6678 C 646.214 0.0776327 1.96046 0
M  V30 6679 O 645.339 -0.823571 2.00116 0
M  V30 6680 C 645.934 2.506 2.28002 0
M  V30 6681 C 644.493 2.49767 2.81591 0
M  V30 6682 C 643.64 2.293 1.55938 0
M  V30 6683 H 646.591 1.51695 0.466288 0
M  V30 6684 H 646.612 2.20953 3.09774 0
M  V30 6685 H 646.124 3.45627 1.76532 0
M  V30 6686 H 644.225 1.58563 3.37177 0
M  V30 6687 H 644.338 3.46867 3.30485 0
M  V30 6688 H 642.702 1.77594 1.82572 0
M  V30 6689 H 643.485 3.26385 1.06431 0
M  V30 6690 N 645.93 -0.909495 1.28709 0
M  V30 6691 C 646.88 -1.9991 1.09636 0
M  V30 6692 C 647.864 -1.60889 0.01872 0
M  V30 6693 O 649.056 -1.75374 0.239338 0
M  V30 6694 C 646.185 -3.34675 0.764702 0
M  V30 6695 C 645.271 -3.80085 1.8814 0
M  V30 6696 N 645.662 -3.97824 3.12361 0
M  V30 6697 C 643.96 -4.09278 1.77221 0
M  V30 6698 C 644.661 -4.35928 3.85151 0
M  V30 6699 N 643.637 -4.44426 3.13028 0
M  V30 6700 H 647.439 -2.11681 2.03883 0
M  V30 6701 H 644.953 -1.09763 1.1969 0
M  V30 6702 H 646.95 -4.12426 0.609132 0
M  V30 6703 H 645.61 -3.24255 -0.169952 0
M  V30 6704 H 646.621 -3.83626 3.47925 0
M  V30 6705 H 643.298 -4.0747 0.909621 0
M  V30 6706 H 644.688 -4.57581 4.92006 0
M  V30 6707 N 647.408 -1.11026 -1.11852 0
M  V30 6708 C 648.371 -0.768006 -2.1595 0
M  V30 6709 C 649.371 0.210538 -1.59416 0
M  V30 6710 O 650.561 -0.0133978 -1.74195 0
M  V30 6711 C 647.693 -0.138678 -3.40618 0
M  V30 6712 H 648.886 -1.69012 -2.4774 0
M  V30 6713 H 646.439 -0.911578 -1.26964 0
M  V30 6714 H 647.174 0.793872 -3.14433 0
M  V30 6715 H 646.959 -0.843012 -3.8293 0
M  V30 6716 H 648.449 0.0848039 -4.17514 0
M  V30 6717 N 648.886 1.2938 -0.899927 0
M  V30 6718 C 650.132 1.96206 -0.536153 0
M  V30 6719 C 650.487 1.69647 0.90761 0
M  V30 6720 O 649.78 0.999089 1.63489 0
M  V30 6721 C 649.974 3.49114 -0.765113 0
M  V30 6722 C 649.803 3.90538 -2.22958 0
M  V30 6723 C 648.573 4.15395 -2.87706 0
M  V30 6724 C 650.771 4.0224 -3.20479 0
M  V30 6725 N 648.753 4.43389 -4.24593 0
M  V30 6726 C 650.124 4.34288 -4.42486 0
M  V30 6727 C 652.179 3.84716 -3.16066 0
M  V30 6728 C 650.882 4.50638 -5.6064 0
M  V30 6729 C 652.908 4.02276 -4.33507 0
M  V30 6730 C 652.27 4.34684 -5.54283 0
M  V30 6731 H 648.369 0.742364 -0.245804 0
M  V30 6732 H 650.953 1.56314 -1.16078 0
M  V30 6733 H 649.124 3.88028 -0.169861 0
M  V30 6734 H 650.856 4.03035 -0.366751 0
M  V30 6735 H 647.611 4.09164 -2.385 0
M  V30 6736 H 648.035 4.61494 -4.95331 0
M  V30 6737 H 652.677 3.58724 -2.23778 0
M  V30 6738 H 650.395 4.75467 -6.5342 0
M  V30 6739 H 653.981 3.90169 -4.31578 0
M  V30 6740 H 652.861 4.47988 -6.43643 0
M  V30 6741 N 650.364 0.662433 1.43002 0
M  V30 6742 C 651.294 -0.00979809 2.33498 0
M  V30 6743 C 652.275 -0.802329 1.49989 0
M  V30 6744 O 653.46 -0.761964 1.78627 0
M  V30 6745 C 650.59 -0.970446 3.33466 0
M  V30 6746 C 649.544 -0.287383 4.27034 0
M  V30 6747 C 648.87 -1.36012 5.17112 0
M  V30 6748 C 650.17 0.82595 5.15728 0
M  V30 6749 H 651.864 0.745959 2.89958 0
M  V30 6750 H 649.41 0.360172 1.39423 0
M  V30 6751 H 651.363 -1.44971 3.95679 0
M  V30 6752 H 650.087 -1.75748 2.75282 0
M  V30 6753 H 648.746 0.17152 3.66199 0
M  V30 6754 H 648.394 -2.13882 4.55262 0
M  V30 6755 H 648.094 -0.908276 5.80538 0
M  V30 6756 H 649.618 -1.84056 5.82199 0
M  V30 6757 H 651.032 0.42845 5.71697 0
M  V30 6758 H 649.429 1.20282 5.87922 0
M  V30 6759 H 650.499 1.68003 4.54866 0
M  V30 6760 N 651.842 -1.52309 0.404946 0
M  V30 6761 C 653.07 -2.06185 -0.171818 0
M  V30 6762 C 653.485 -1.27536 -1.39212 0
M  V30 6763 O 652.842 -0.326112 -1.79563 0
M  V30 6764 C 652.893 -3.57647 -0.526417 0
M  V30 6765 O 652.614 -4.3332 0.645417 0
M  V30 6766 C 654.115 -4.27925 -1.15736 0
M  V30 6767 H 651.335 -0.670632 -0.0222328 0
M  V30 6768 H 653.879 -1.96259 0.574692 0
M  V30 6769 H 652.034 -3.67595 -1.22282 0
M  V30 6770 H 652.448 -5.23328 0.35042 0
M  V30 6771 H 653.922 -5.35093 -1.35572 0
M  V30 6772 H 654.399 -3.84134 -2.12926 0
M  V30 6773 H 655.005 -4.22335 -0.501281 0
M  V30 6774 N 653.32 -0.135238 -1.57019 0
M  V30 6775 C 654.731 0.387521 -1.82634 0
M  V30 6776 C 655.082 1.65528 -1.05332 0
M  V30 6777 O 654.207 2.14381 -0.294926 0
M  V30 6778 C 654.802 0.709852 -3.3128 0
M  V30 6779 C 653.361 1.17718 -3.57518 0
M  V30 6780 C 652.508 0.194183 -2.76619 0
M  V30 6781 H 655.459 -0.360126 -1.5456 0
M  V30 6782 H 655.48 1.5657 -3.46794 0
M  V30 6783 H 654.992 -0.213024 -3.87515 0
M  V30 6784 H 653.093 2.1164 -3.06658 0
M  V30 6785 H 653.206 1.11128 -4.66034 0
M  V30 6786 H 651.57 0.684478 -2.4533 0
M  V30 6787 H 652.353 -0.722076 -3.3562 0
M  V30 6788 N 654.798 1.5699 0.138552 0
M  V30 6789 C 656.026 1.87976 0.864437 0
M  V30 6790 C 656.441 0.724372 1.74351 0
M  V30 6791 O 655.798 -0.305575 1.79924 0
M  V30 6792 C 655.849 3.18276 1.71414 0
M  V30 6793 O 655.57 4.29365 0.870487 0
M  V30 6794 C 657.071 3.62834 2.54688 0
M  V30 6795 H 654.291 0.622878 0.249528 0
M  V30 6796 H 656.835 2.04094 0.128805 0
M  V30 6797 H 654.99 3.03886 2.40274 0
M  V30 6798 H 655.404 5.03924 1.45466 0
M  V30 6799 H 656.878 4.5682 3.0987 0
M  V30 6800 H 657.355 2.88533 3.31127 0
M  V30 6801 H 657.961 3.79946 1.91105 0
M  V30 6802 N 656.276 -0.40816 1.52223 0
M  V30 6803 C 657.504 -1.17672 1.70179 0
M  V30 6804 C 657.919 -1.84257 0.411696 0
M  V30 6805 O 657.276 -1.7192 -0.612354 0
M  V30 6806 C 657.327 -2.23911 2.83806 0
M  V30 6807 O 657.048 -1.60044 4.0782 0
M  V30 6808 C 658.549 -3.1364 3.13281 0
M  V30 6809 H 655.769 -0.353562 0.570293 0
M  V30 6810 H 658.313 -0.480083 1.98785 0
M  V30 6811 H 656.468 -2.89242 2.57717 0
M  V30 6812 H 656.882 -2.30484 4.71145 0
M  V30 6813 H 658.356 -3.84255 3.96298 0
M  V30 6814 H 658.833 -3.76066 2.26872 0
M  V30 6815 H 659.439 -2.53977 3.41139 0
M  V30 6816 N 657.755 -1.42862 -0.66545 0
M  V30 6817 C 658.98 -1.47456 -1.45848 0
M  V30 6818 C 659.405 -0.0900312 -1.87884 0
M  V30 6819 O 658.763 0.913587 -1.56599 0
M  V30 6820 C 658.811 -2.41514 -2.67774 0
M  V30 6821 O 657.915 -1.89296 -3.66389 0
M  V30 6822 H 657.256 -0.499236 -0.437789 0
M  V30 6823 H 659.786 -1.8765 -0.815394 0
M  V30 6824 H 659.796 -2.58409 -3.15735 0
M  V30 6825 H 658.471 -3.42099 -2.36519 0
M  V30 6826 H 657.048 -1.82003 -3.25468 0
M  V30 6827 N 659.233 0.902656 -1.29189 0
M  V30 6828 C 660.461 1.68639 -1.19869 0
M  V30 6829 C 660.876 1.87254 0.241121 0
M  V30 6830 O 660.233 1.40745 1.16177 0
M  V30 6831 C 660.284 3.07251 -1.90471 0
M  V30 6832 O 660.005 2.89488 -3.28829 0
M  V30 6833 C 661.506 4.01653 -1.8759 0
M  V30 6834 H 658.726 0.526802 -0.415596 0
M  V30 6835 H 661.27 1.12901 -1.7051 0
M  V30 6836 H 659.425 3.59774 -1.43672 0
M  V30 6837 H 659.839 3.77296 -3.64346 0
M  V30 6838 H 661.313 4.96339 -2.4156 0
M  V30 6839 H 661.79 4.30881 -0.850756 0
M  V30 6840 H 662.396 3.55061 -2.34119 0
M  V30 6841 N 660.711 1.11618 1.11262 0
M  V30 6842 C 661.641 0.79846 2.19424 0
M  V30 6843 C 662.622 -0.234003 1.68483 0
M  V30 6844 O 663.807 -0.0970704 1.93957 0
M  V30 6845 C 660.937 0.242892 3.4645 0
M  V30 6846 C 659.891 1.20744 4.10615 0
M  V30 6847 C 659.217 0.512494 5.32238 0
M  V30 6848 C 660.517 2.55884 4.55325 0
M  V30 6849 H 662.211 1.70286 2.46258 0
M  V30 6850 H 659.757 0.820195 1.18359 0
M  V30 6851 H 661.71 0.00840447 4.21399 0
M  V30 6852 H 660.434 -0.696811 3.1908 0
M  V30 6853 H 659.093 1.42759 3.37662 0
M  V30 6854 H 658.741 -0.432075 5.01141 0
M  V30 6855 H 658.441 1.15583 5.7612 0
M  V30 6856 H 659.965 0.286842 6.09926 0
M  V30 6857 H 661.379 2.37946 5.21588 0
M  V30 6858 H 659.776 3.16216 5.10027 0
M  V30 6859 H 660.846 3.14968 3.68678 0
M  V30 6860 N 662.189 -1.289 0.906776 0
M  V30 6861 C 663.466 -1.90221 0.455537 0
M  V30 6862 C 663.846 -1.82251 -1.06527 0
M  V30 6863 O 663.194 -1.25385 -1.91026 0
M  V30 6864 C 663.404 -3.35015 0.97806 0
M  V30 6865 C 664.752 -4.12018 1.02598 0
M  V30 6866 O 665.776 -3.43947 0.926218 0
M  V30 6867 O 664.635 -5.33677 1.17689 0
M  V30 6868 H 661.729 -0.814505 0.143214 0
M  V30 6869 H 664.275 -1.37317 0.997104 0
M  V30 6870 H 663.047 -3.35006 2.02204 0
M  V30 6871 H 662.67 -3.95408 0.416914 0
M  V30 6872 N 663.667 -0.670007 -1.42649 0
M  V30 6873 C 664.597 -0.00258501 -2.335 0
M  V30 6874 C 665.578 0.794364 -1.50412 0
M  V30 6875 O 666.763 0.75248 -1.79029 0
M  V30 6876 C 663.893 0.952748 -3.33976 0
M  V30 6877 C 662.847 0.264733 -4.2718 0
M  V30 6878 C 662.173 1.33267 -5.17826 0
M  V30 6879 C 663.473 -0.853289 -5.15283 0
M  V30 6880 H 665.167 -0.761326 -2.89559 0
M  V30 6881 H 662.713 -0.367561 -1.3923 0
M  V30 6882 H 664.666 1.4287 -3.96442 0
M  V30 6883 H 663.39 1.74285 -2.7621 0
M  V30 6884 H 662.049 -0.190938 -3.66102 0
M  V30 6885 H 661.697 2.11464 -4.5639 0
M  V30 6886 H 661.397 0.877476 -5.81011 0
M  V30 6887 H 662.921 1.80965 -5.83167 0
M  V30 6888 H 664.335 -0.458763 -5.71462 0
M  V30 6889 H 662.732 -1.23398 -5.87276 0
M  V30 6890 H 663.802 -1.70412 -4.53969 0
M  V30 6891 N 665.145 1.52092 -0.413018 0
M  V30 6892 C 666.392 2.01855 0.161497 0
M  V30 6893 C 666.72 1.29845 1.44812 0
M  V30 6894 O 665.975 0.394471 1.91683 0
M  V30 6895 C 666.274 3.54529 0.4521 0
M  V30 6896 C 665.94 4.4469 -0.745788 0
M  V30 6897 C 664.602 4.69053 -1.07435 0
M  V30 6898 C 666.954 4.97742 -1.54604 0
M  V30 6899 C 664.282 5.43717 -2.20429 0
M  V30 6900 C 666.634 5.73642 -2.66678 0
M  V30 6901 C 665.298 5.96277 -3.00016 0
M  V30 6902 H 664.568 0.73864 0.0590961 0
M  V30 6903 H 667.215 1.83274 -0.555234 0
M  V30 6904 H 665.52 3.7131 1.25045 0
M  V30 6905 H 667.217 3.90546 0.909647 0
M  V30 6906 H 663.807 4.25907 -0.479725 0
M  V30 6907 H 667.991 4.78824 -1.30543 0
M  V30 6908 H 663.247 5.59462 -2.46602 0
M  V30 6909 H 667.421 6.13746 -3.29072 0
M  V30 6910 H 665.048 6.53913 -3.87688 0
M  V30 6911 N 666.623 0.143563 1.56945 0
M  V30 6912 C 667.871 -0.507402 1.95627 0
M  V30 6913 C 668.192 -1.65626 1.02922 0
M  V30 6914 O 667.462 -1.95693 0.0901136 0
M  V30 6915 H 666.042 -0.190436 0.722318 0
M  V30 6916 H 668.704 0.218257 1.93674 0
M  V30 6917 H 667.8 -0.885816 2.99265 0
M  V30 6918 N 668.101 -1.57061 -0.130224 0
M  V30 6919 C 669.517 -1.52103 -0.483413 0
M  V30 6920 C 669.717 -0.854752 -1.82473 0
M  V30 6921 O 668.773 -0.432342 -2.48771 0
M  V30 6922 C 670.086 -2.96872 -0.47825 0
M  V30 6923 C 671.634 -3.07902 -0.562592 0
M  V30 6924 C 672.109 -4.54211 -0.587929 0
M  V30 6925 N 673.6 -4.58621 -0.649684 0
M  V30 6926 C 674.335 -5.69227 -0.690551 0
M  V30 6927 N 673.831 -6.89358 -0.689743 0
M  V30 6928 N 675.624 -5.57304 -0.732708 0
M  V30 6929 H 667.775 -1.98764 0.748779 0
M  V30 6930 H 670.038 -0.907248 0.274965 0
M  V30 6931 H 669.744 -3.48944 0.439444 0
M  V30 6932 H 669.618 -3.53716 -1.31013 0
M  V30 6933 H 672.005 -2.5584 -1.47071 0
M  V30 6934 H 672.086 -2.54073 0.296764 0
M  V30 6935 H 671.73 -5.06915 0.316096 0
M  V30 6936 H 671.66 -5.0584 -1.46401 0
M  V30 6937 H 674.151 -3.72146 -0.656927 0
M  V30 6938 H 674.464 -7.69408 -0.723239 0
M  V30 6939 H 672.809 -6.91884 -0.657347 0
M  V30 6940 H 676 -4.62363 -0.730625 0
M  V30 6941 H 676.173 -6.43515 -0.76109 0
M  V30 6942 N 669.579 0.400081 -1.52437 0
M  V30 6943 C 670.827 1.14392 -1.6661 0
M  V30 6944 C 671.148 1.90792 -0.402927 0
M  V30 6945 O 670.418 1.87042 0.582425 0
M  V30 6946 H 668.998 0.425275 -0.614125 0
M  V30 6947 H 671.66 0.455076 -1.89513 0
M  V30 6948 H 670.756 1.85298 -2.51139 0
M  V30 6949 N 671.057 1.43213 0.657864 0
M  V30 6950 C 672.304 1.44584 1.41781 0
M  V30 6951 C 672.632 0.0684208 1.9438 0
M  V30 6952 O 671.887 -0.925872 1.72413 0
M  V30 6953 C 672.186 2.43143 2.61947 0
M  V30 6954 C 671.852 3.89128 2.27794 0
M  V30 6955 C 670.514 4.28889 2.18191 0
M  V30 6956 C 672.866 4.81144 2.00375 0
M  V30 6957 C 670.194 5.58625 1.79319 0
M  V30 6958 C 672.546 6.11239 1.63003 0
M  V30 6959 C 671.21 6.49981 1.51922 0
M  V30 6960 H 670.48 0.529069 0.518813 0
M  V30 6961 H 673.127 1.76263 0.748577 0
M  V30 6962 H 671.432 2.04851 3.33981 0
M  V30 6963 H 673.129 2.4146 3.20153 0
M  V30 6964 H 669.719 3.57657 2.36176 0
M  V30 6965 H 673.903 4.512 2.06718 0
M  V30 6966 H 669.159 5.87486 1.69323 0
M  V30 6967 H 673.333 6.82014 1.40817 0
M  V30 6968 H 670.96 7.50416 1.21572 0
M  V30 6969 N 672.536 -0.895792 1.29666 0
M  V30 6970 C 673.782 -1.64908 1.18039 0
M  V30 6971 C 674.115 -1.9236 -0.266682 0
M  V30 6972 O 673.39 -1.53682 -1.19214 0
M  V30 6973 C 673.673 -2.99574 1.99819 0
M  V30 6974 C 673.526 -2.79163 3.52687 0
M  V30 6975 C 674.845 -4.00358 1.82761 0
M  V30 6976 H 671.964 -0.598437 0.430165 0
M  V30 6977 H 674.606 -1.03736 1.59182 0
M  V30 6978 H 672.756 -3.51786 1.64859 0
M  V30 6979 H 674.428 -2.33821 3.9765 0
M  V30 6980 H 672.671 -2.13871 3.77414 0
M  V30 6981 H 673.342 -3.74871 4.05186 0
M  V30 6982 H 675.818 -3.57268 2.13304 0
M  V30 6983 H 674.694 -4.92514 2.42325 0
M  V30 6984 H 674.955 -4.35096 0.783839 0
M  V30 6985 N 674.014 -1.12206 -1.10668 0
M  V30 6986 C 674.944 -0.810086 -2.18997 0
M  V30 6987 C 675.925 0.225065 -1.68604 0
M  V30 6988 O 677.11 0.086783 -1.94006 0
M  V30 6989 C 674.24 -0.261262 -3.46316 0
M  V30 6990 C 673.194 -1.2292 -4.09969 0
M  V30 6991 C 672.52 -0.540713 -5.31959 0
M  V30 6992 C 673.82 -2.58295 -4.53962 0
M  V30 6993 H 675.514 -1.7159 -2.45352 0
M  V30 6994 H 673.06 -0.82646 -1.17922 0
M  V30 6995 H 675.013 -0.0307522 -4.21389 0
M  V30 6996 H 673.737 0.679879 -3.19445 0
M  V30 6997 H 672.396 -1.44548 -3.369 0
M  V30 6998 H 672.044 0.405492 -5.01363 0
M  V30 6999 H 671.744 -1.18637 -5.75499 0
M  V30 7000 H 673.268 -0.319184 -6.09765 0
M  V30 7001 H 674.682 -2.40709 -5.20319 0
M  V30 7002 H 673.079 -3.18916 -5.08343 0
M  V30 7003 H 674.149 -3.16918 -3.67002 0
M  V30 7004 N 675.492 1.28418 -0.913599 0
M  V30 7005 C 676.422 2.29713 -0.418847 0
M  V30 7006 C 677.403 1.62165 0.513469 0
M  V30 7007 O 678.588 1.89576 0.421235 0
M  V30 7008 C 675.718 3.45612 0.342042 0
M  V30 7009 C 674.672 4.25056 -0.501123 0
M  V30 7010 C 673.998 5.3329 0.388097 0
M  V30 7011 C 675.298 4.91814 -1.75831 0
M  V30 7012 H 676.992 2.71346 -1.26538 0
M  V30 7013 H 674.538 1.30446 -0.609903 0
M  V30 7014 H 676.491 4.15562 0.699 0
M  V30 7015 H 675.215 3.02858 1.22248 0
M  V30 7016 H 673.874 3.56833 -0.840598 0
M  V30 7017 H 673.522 4.8678 1.26707 0
M  V30 7018 H 673.222 5.87347 -0.172459 0
M  V30 7019 H 674.746 6.06088 0.74094 0
M  V30 7020 H 676.16 5.54126 -1.47026 0
M  V30 7021 H 674.557 5.55866 -2.26126 0
M  V30 7022 H 675.627 4.16313 -2.4862 0
M  V30 7023 N 676.97 0.677563 1.42291 0
M  V30 7024 C 678.195 0.207901 2.06355 0
M  V30 7025 C 678.62 -1.12723 1.50583 0
M  V30 7026 O 677.978 -1.70171 0.62543 0
M  V30 7027 C 678.026 0.156489 3.6026 0
M  V30 7028 O 677.13 -0.874162 4.03029 0
M  V30 7029 H 676.471 0.106056 0.655475 0
M  V30 7030 H 679.001 0.927354 1.82377 0
M  V30 7031 H 679.011 -0.0187258 4.07996 0
M  V30 7032 H 677.686 1.13101 4.00226 0
M  V30 7033 H 676.263 -0.669764 3.66836 0
M  V30 7034 N 678.448 -1.51871 0.421078 0
M  V30 7035 C 679.695 -2.01938 -0.15079 0
M  V30 7036 C 680.023 -1.30611 -1.44121 0
M  V30 7037 O 679.278 -0.404631 -1.91471 0
M  V30 7038 C 679.577 -3.54764 -0.433292 0
M  V30 7039 C 679.243 -4.44288 0.76936 0
M  V30 7040 C 677.905 -4.68477 1.09921 0
M  V30 7041 C 680.257 -4.96915 1.57242 0
M  V30 7042 C 677.585 -5.4254 2.2331 0
M  V30 7043 C 679.937 -5.7222 2.69716 0
M  V30 7044 C 678.601 -5.94678 3.03174 0
M  V30 7045 H 677.871 -0.738943 -0.0551781 0
M  V30 7046 H 680.518 -1.82977 0.564945 0
M  V30 7047 H 678.823 -3.71968 -1.23074 0
M  V30 7048 H 680.52 -3.91023 -0.888922 0
M  V30 7049 H 677.11 -4.25646 0.502305 0
M  V30 7050 H 681.294 -4.78125 1.3308 0
M  V30 7051 H 676.55 -5.58146 2.49565 0
M  V30 7052 H 680.724 -6.11992 3.32323 0
M  V30 7053 H 678.351 -6.51848 3.9115 0
M  V30 7054 N 679.926 -0.151884 -1.56866 0
M  V30 7055 C 681.174 0.497021 -1.95893 0
M  V30 7056 C 681.495 1.65078 -1.03799 0
M  V30 7057 O 680.765 1.95642 -0.10049 0
M  V30 7058 H 679.345 0.186603 -0.723318 0
M  V30 7059 H 682.007 -0.228525 -1.93556 0
M  V30 7060 H 681.103 0.869933 -2.99731 0
M  V30 7061 N 681.404 1.57128 0.121893 0
M  V30 7062 C 682.632 1.88883 0.844451 0
M  V30 7063 C 683.047 0.742824 1.73573 0
M  V30 7064 O 682.404 -0.286475 1.80238 0
M  V30 7065 C 682.455 3.20076 1.68029 0
M  V30 7066 O 682.176 4.30264 0.824898 0
M  V30 7067 C 683.677 3.65515 2.50826 0
M  V30 7068 H 680.897 0.62549 0.242907 0
M  V30 7069 H 683.441 2.04219 0.107151 0
M  V30 7070 H 681.596 3.06418 2.37038 0
M  V30 7071 H 682.01 5.05439 1.40113 0
M  V30 7072 H 683.484 4.60081 3.05008 0
M  V30 7073 H 683.961 2.92029 3.28048 0
M  V30 7074 H 684.567 3.81952 1.87064 0
M  V30 7075 N 682.882 -0.391992 1.52647 0
M  V30 7076 C 684.11 -1.1586 1.71418 0
M  V30 7077 C 684.525 -1.8381 0.431216 0
M  V30 7078 O 683.882 -1.7256 -0.594085 0
M  V30 7079 C 683.933 -2.20888 2.86165 0
M  V30 7080 O 683.654 -1.5571 4.09495 0
M  V30 7081 C 685.155 -3.103 3.1659 0
M  V30 7082 H 682.375 -0.347494 0.574011 0
M  V30 7083 H 684.919 -0.458972 1.99283 0
M  V30 7084 H 683.074 -2.86492 2.6077 0
M  V30 7085 H 683.488 -2.25474 4.73563 0
M  V30 7086 H 684.962 -3.8003 4.00351 0
M  V30 7087 H 685.439 -3.73639 2.30848 0
M  V30 7088 H 686.045 -2.50345 3.43813 0
M  V30 7089 N 684.36 -1.4356 -0.65026 0
M  V30 7090 C 685.637 -1.35811 -1.40765 0
M  V30 7091 C 686.017 -0.00736379 -2.11099 0
M  V30 7092 O 685.365 1.00932 -2.05 0
M  V30 7093 C 685.575 -2.54332 -2.3899 0
M  V30 7094 C 686.923 -2.97551 -3.02901 0
M  V30 7095 O 687.947 -2.544 -2.49317 0
M  V30 7096 O 686.806 -3.72311 -4.00059 0
M  V30 7097 H 683.9 -0.536861 -0.629054 0
M  V30 7098 H 686.446 -1.55615 -0.676919 0
M  V30 7099 H 685.218 -3.44274 -1.85986 0
M  V30 7100 H 684.841 -2.36643 -3.19509 0
M  V30 7101 N 685.838 0.888903 -1.30139 0
M  V30 7102 C 687.086 1.63713 -1.18501 0
M  V30 7103 C 687.407 1.9324 0.261399 0
M  V30 7104 O 686.677 1.56608 1.17689 0
M  V30 7105 H 685.257 0.606861 -0.435579 0
M  V30 7106 H 687.919 1.06525 -1.63213 0
M  V30 7107 H 687.015 2.58894 -1.743 0
M  V30 7108 N 687.317 1.12792 1.10072 0
M  V30 7109 C 688.563 0.886857 1.82381 0
M  V30 7110 C 688.896 -0.58576 1.85155 0
M  V30 7111 O 688.171 -1.43317 1.31493 0
M  V30 7112 C 688.454 1.46703 3.28862 0
M  V30 7113 C 688.307 3.00829 3.34398 0
M  V30 7114 C 689.626 1.12971 4.25353 0
M  V30 7115 H 686.745 0.32362 0.662148 0
M  V30 7116 H 689.387 1.39513 1.28982 0
M  V30 7117 H 687.537 1.03476 3.74466 0
M  V30 7118 H 689.209 3.52764 2.97247 0
M  V30 7119 H 687.452 3.36164 2.74183 0
M  V30 7120 H 688.123 3.36519 4.3756 0
M  V30 7121 H 690.599 1.50313 3.88001 0
M  V30 7122 H 689.475 1.56223 5.26199 0
M  V30 7123 H 689.736 0.0424452 4.4208 0
M  V30 7124 N 688.795 -1.27931 0.920396 0
M  V30 7125 C 689.705 -2.30824 0.419212 0
M  V30 7126 C 690.721 -1.66767 -0.496461 0
M  V30 7127 O 691.897 -1.97763 -0.38104 0
M  V30 7128 C 688.962 -3.45158 -0.326601 0
M  V30 7129 C 688.023 -4.24754 0.623098 0
M  V30 7130 C 687.256 -5.33629 -0.0872172 0
M  V30 7131 O 687.479 -5.55204 -1.30784 0
M  V30 7132 O 686.413 -5.99091 0.580875 0
M  V30 7133 H 690.239 -2.75716 1.27337 0
M  V30 7134 H 687.824 -1.32747 0.685465 0
M  V30 7135 H 689.706 -4.14716 -0.747559 0
M  V30 7136 H 688.381 -3.02336 -1.15648 0
M  V30 7137 H 687.288 -3.57759 1.09359 0
M  V30 7138 H 688.621 -4.71272 1.41998 0
M  V30 7139 N 690.273 -0.685099 -1.4193 0
M  V30 7140 C 691.236 -0.0222632 -2.29189 0
M  V30 7141 C 692.236 0.7186 -1.4385 0
M  V30 7142 O 693.426 0.555058 -1.6512 0
M  V30 7143 C 690.558 0.979013 -3.2654 0
M  V30 7144 H 691.751 -0.790424 -2.89296 0
M  V30 7145 H 689.304 -0.448012 -1.49742 0
M  V30 7146 H 690.039 1.77531 -2.71392 0
M  V30 7147 H 689.824 0.451037 -3.89497 0
M  V30 7148 H 691.314 1.44091 -3.91954 0
M  V30 7149 N 691.751 1.51645 -0.429126 0
M  V30 7150 C 692.997 2.02314 0.140286 0
M  V30 7151 C 693.33 1.31314 1.43074 0
M  V30 7152 O 692.605 0.425531 1.89788 0
M  V30 7153 C 692.888 3.5822 0.36749 0
M  V30 7154 C 692.741 4.39846 -0.941039 0
M  V30 7155 C 694.06 4.25055 1.14089 0
M  V30 7156 H 691.179 0.735335 0.0495112 0
M  V30 7157 H 693.821 1.81358 -0.566514 0
M  V30 7158 H 691.971 3.76207 0.969556 0
M  V30 7159 H 693.643 4.33527 -1.57646 0
M  V30 7160 H 691.886 4.05259 -1.54751 0
M  V30 7161 H 692.557 5.47069 -0.73621 0
M  V30 7162 H 695.033 4.11288 0.630986 0
M  V30 7163 H 693.909 5.34038 1.26863 0
M  V30 7164 H 694.17 3.85358 2.16683 0
M  V30 7165 N 693.229 0.160201 1.56784 0
M  V30 7166 C 694.457 -0.494165 2.00912 0
M  V30 7167 C 694.872 -1.57548 1.04038 0
M  V30 7168 O 694.229 -1.82457 0.0394581 0
M  V30 7169 C 694.28 -1.08271 3.44905 0
M  V30 7170 O 694.001 -0.0445704 4.38077 0
M  V30 7171 C 695.502 -1.8164 4.04378 0
M  V30 7172 H 692.722 -0.127498 0.658776 0
M  V30 7173 H 695.266 0.258665 2.02858 0
M  V30 7174 H 693.421 -1.78609 3.4377 0
M  V30 7175 H 693.835 -0.477544 5.22322 0
M  V30 7176 H 695.309 -2.18094 5.07089 0
M  V30 7177 H 695.786 -2.70727 3.45838 0
M  V30 7178 H 696.392 -1.15969 4.09184 0
M  V30 7179 N 694.707 -1.5719 -0.113559 0
M  V30 7180 C 696.123 -1.52607 -0.467253 0
M  V30 7181 C 696.323 -0.874058 -1.81556 0
M  V30 7182 O 695.379 -0.458703 -2.48299 0
M  V30 7183 C 696.692 -2.97363 -0.446736 0
M  V30 7184 C 698.24 -3.08482 -0.529903 0
M  V30 7185 C 698.715 -4.54809 -0.539721 0
M  V30 7186 N 700.206 -4.59284 -0.601005 0
M  V30 7187 C 700.941 -5.69927 -0.630138 0
M  V30 7188 N 700.437 -6.90051 -0.616589 0
M  V30 7189 N 702.23 -5.5805 -0.673558 0
M  V30 7190 H 694.381 -1.97958 0.769819 0
M  V30 7191 H 696.644 -0.90428 0.284572 0
M  V30 7192 H 696.35 -3.48458 0.47643 0
M  V30 7193 H 696.224 -3.55086 -1.27254 0
M  V30 7194 H 698.611 -2.57386 -1.44349 0
M  V30 7195 H 698.692 -2.53744 0.323695 0
M  V30 7196 H 698.336 -5.06552 0.369843 0
M  V30 7197 H 698.266 -5.07364 -1.41028 0
M  V30 7198 H 700.757 -3.72822 -0.617419 0
M  V30 7199 H 701.07 -7.70132 -0.641592 0
M  V30 7200 H 699.415 -6.92543 -0.583927 0
M  V30 7201 H 702.606 -4.63112 -0.681544 0
M  V30 7202 H 702.779 -6.44286 -0.692794 0
M  V30 7203 N 696.185 0.383891 -1.52853 0
M  V30 7204 C 697.148 1.45197 -1.77343 0
M  V30 7205 C 698.148 1.47362 -0.643522 0
M  V30 7206 O 699.338 1.48443 -0.911613 0
M  V30 7207 C 696.47 2.8445 -1.87885 0
M  V30 7208 H 697.663 1.24764 -2.72716 0
M  V30 7209 H 695.216 0.615939 -1.43652 0
M  V30 7210 H 695.951 3.10222 -0.94515 0
M  V30 7211 H 695.736 2.8428 -2.70051 0
M  V30 7212 H 697.226 3.61832 -2.08488 0
M  V30 7213 N 697.663 1.43903 0.642637 0
M  V30 7214 C 698.91 1.46079 1.40239 0
M  V30 7215 C 699.238 0.0890335 1.94296 0
M  V30 7216 O 698.493 -0.907533 1.73385 0
M  V30 7217 C 698.792 2.45907 2.59354 0
M  V30 7218 C 698.458 3.91522 2.23654 0
M  V30 7219 C 697.12 4.31179 2.1363 0
M  V30 7220 C 699.472 4.83242 1.95261 0
M  V30 7221 C 696.8 5.60495 1.73384 0
M  V30 7222 C 699.152 6.12933 1.56511 0
M  V30 7223 C 697.816 6.51556 1.4502 0
M  V30 7224 H 697.086 0.534542 0.513172 0
M  V30 7225 H 699.733 1.77047 0.72984 0
M  V30 7226 H 698.038 2.08381 3.3179 0
M  V30 7227 H 699.735 2.44842 3.17574 0
M  V30 7228 H 696.325 3.60142 2.32369 0
M  V30 7229 H 700.509 4.53367 2.0192 0
M  V30 7230 H 695.765 5.89249 1.63082 0
M  V30 7231 H 699.939 6.83469 1.33576 0
M  V30 7232 H 697.566 7.51663 1.13606 0
M  V30 7233 N 699.141 -0.881989 1.30609 0
M  V30 7234 C 700.104 -1.96957 1.1722 0
M  V30 7235 C 701.104 -1.60472 0.102598 0
M  V30 7236 O 702.294 -1.70628 0.350943 0
M  V30 7237 C 699.426 -3.31463 0.796572 0
M  V30 7238 H 700.619 -2.10262 2.13846 0
M  V30 7239 H 698.172 -1.06877 1.14048 0
M  V30 7240 H 698.907 -3.23859 -0.169053 0
M  V30 7241 H 698.692 -3.59314 1.56959 0
M  V30 7242 H 700.182 -4.11233 0.72645 0
M  V30 7243 N 700.619 -1.13374 -1.09472 0
M  V30 7244 C 701.896 -0.806329 -1.78207 0
M  V30 7245 C 702.276 0.702191 -1.99079 0
M  V30 7246 O 701.624 1.63931 -1.59182 0
M  V30 7247 C 701.834 -1.59271 -3.10538 0
M  V30 7248 C 703.182 -1.78509 -3.85253 0
M  V30 7249 O 704.206 -1.55866 -3.20288 0
M  V30 7250 O 703.065 -2.16287 -5.01879 0
M  V30 7251 H 700.159 -0.29435 -0.772843 0
M  V30 7252 H 702.705 -1.23833 -1.16033 0
M  V30 7253 H 701.477 -2.61792 -2.90828 0
M  V30 7254 H 701.1 -1.15562 -3.80436 0
M  V30 7255 N 702.098 1.27442 -0.927168 0
M  V30 7256 C 703.514 1.46754 -0.627329 0
M  V30 7257 C 703.714 1.83902 0.823549 0
M  V30 7258 O 702.77 1.95215 1.60148 0
M  V30 7259 C 704.083 2.56045 -1.57674 0
M  V30 7260 C 705.631 2.69906 -1.58491 0
M  V30 7261 C 706.106 3.82355 -2.52128 0
M  V30 7262 N 707.597 3.89728 -2.50332 0
M  V30 7263 C 708.332 4.76155 -3.19475 0
M  V30 7264 N 707.828 5.67073 -3.97995 0
M  V30 7265 N 709.621 4.6988 -3.08496 0
M  V30 7266 H 701.772 1.01613 -1.86517 0
M  V30 7267 H 704.035 0.507443 -0.800753 0
M  V30 7268 H 703.741 2.35542 -2.61176 0
M  V30 7269 H 703.615 3.53423 -1.31804 0
M  V30 7270 H 706.002 2.89792 -0.557208 0
M  V30 7271 H 706.083 1.73018 -1.8841 0
M  V30 7272 H 705.727 3.63224 -3.55008 0
M  V30 7273 H 705.657 4.7867 -2.19505 0
M  V30 7274 H 708.148 3.24717 -1.93306 0
M  V30 7275 H 708.461 6.2988 -4.4774 0
M  V30 7276 H 706.806 5.6687 -4.02098 0
M  V30 7277 H 709.997 3.97848 -2.46646 0
M  V30 7278 H 710.17 5.37017 -3.62652 0
M  V30 7279 N 703.576 0.692616 1.41565 0
M  V30 7280 C 704.526 0.00231847 2.28 0
M  V30 7281 C 705.51 -0.755793 1.42044 0
M  V30 7282 O 706.702 -0.631772 1.65341 0
M  V30 7283 C 703.831 -0.935468 3.30309 0
M  V30 7284 C 702.917 -0.173761 4.23744 0
M  V30 7285 N 703.308 0.830872 4.98929 0
M  V30 7286 C 701.606 -0.409666 4.44115 0
M  V30 7287 C 702.307 1.28656 5.67294 0
M  V30 7288 N 701.283 0.613053 5.40132 0
M  V30 7289 H 705.085 0.772635 2.83562 0
M  V30 7290 H 702.599 0.523198 1.53741 0
M  V30 7291 H 704.596 -1.44513 3.91052 0
M  V30 7292 H 703.256 -1.70542 2.76307 0
M  V30 7293 H 704.267 1.21101 5.03542 0
M  V30 7294 H 700.944 -1.15773 4.01127 0
M  V30 7295 H 702.334 2.12006 6.37576 0
M  V30 7296 N 705.054 -1.51416 0.437162 0
M  V30 7297 C 706.3 -2.02386 -0.129555 0
M  V30 7298 C 706.633 -1.32071 -1.42376 0
M  V30 7299 O 705.908 -0.43559 -1.8956 0
M  V30 7300 C 706.191 -3.5841 -0.348487 0
M  V30 7301 C 706.044 -4.39341 0.964352 0
M  V30 7302 C 707.363 -4.25654 -1.11834 0
M  V30 7303 H 704.482 -0.735587 -0.0456109 0
M  V30 7304 H 707.124 -1.81055 0.576124 0
M  V30 7305 H 705.274 -3.76716 -0.949592 0
M  V30 7306 H 706.946 -4.32685 1.59942 0
M  V30 7307 H 705.189 -4.04432 1.56898 0
M  V30 7308 H 705.86 -5.4667 0.765212 0
M  V30 7309 H 708.336 -4.11617 -0.609165 0
M  V30 7310 H 707.212 -5.34704 -1.24029 0
M  V30 7311 H 707.473 -3.86502 -2.14636 0
M  V30 7312 N 706.532 -0.168513 -1.56696 0
M  V30 7313 C 707.943 0.348694 -1.83415 0
M  V30 7314 C 708.294 1.63257 -1.0882 0
M  V30 7315 O 707.419 2.13707 -0.340333 0
M  V30 7316 C 708.014 0.639423 -3.32711 0
M  V30 7317 C 706.573 1.10108 -3.59935 0
M  V30 7318 C 705.72 0.135464 -2.76969 0
M  V30 7319 H 708.671 -0.392829 -1.53761 0
M  V30 7320 H 708.692 1.49179 -3.50037 0
M  V30 7321 H 708.204 -0.295173 -3.86976 0
M  V30 7322 H 706.305 2.05088 -3.11079 0
M  V30 7323 H 706.418 1.01218 -4.68286 0
M  V30 7324 H 704.782 0.632286 -2.46727 0
M  V30 7325 H 705.565 -0.793104 -3.34013 0
M  V30 7326 N 708.01 1.57248 0.105221 0
M  V30 7327 C 708.94 2.04374 1.12931 0
M  V30 7328 C 709.921 0.93074 1.42377 0
M  V30 7329 O 711.106 1.20136 1.52581 0
M  V30 7330 C 708.236 2.45967 2.45189 0
M  V30 7331 C 707.19 3.60838 2.30174 0
M  V30 7332 C 706.516 3.88374 3.67518 0
M  V30 7333 C 707.816 4.92084 1.75073 0
M  V30 7334 H 709.51 2.9018 0.737287 0
M  V30 7335 H 707.056 1.39601 0.353211 0
M  V30 7336 H 709.009 2.77542 3.17094 0
M  V30 7337 H 707.733 1.57148 2.86308 0
M  V30 7338 H 706.392 3.29493 1.60716 0
M  V30 7339 H 706.04 2.96739 4.06147 0
M  V30 7340 H 705.74 4.65703 3.58321 0
M  V30 7341 H 707.264 4.22415 4.40906 0
M  V30 7342 H 708.678 5.22106 2.36809 0
M  V30 7343 H 707.075 5.73507 1.76662 0
M  V30 7344 H 708.145 4.79684 0.709347 0
M  V30 7345 N 709.488 -0.375779 1.53054 0
M  V30 7346 C 710.398 -1.48381 1.81715 0
M  V30 7347 C 711.414 -1.59087 0.704795 0
M  V30 7348 O 712.59 -1.75174 0.993785 0
M  V30 7349 C 709.655 -2.83767 1.99192 0
M  V30 7350 C 708.716 -2.82673 3.23102 0
M  V30 7351 C 707.949 -4.11601 3.39736 0
M  V30 7352 O 708.172 -5.07243 2.60885 0
M  V30 7353 O 707.106 -4.18034 4.33049 0
M  V30 7354 H 710.932 -1.27089 2.7583 0
M  V30 7355 H 708.517 -0.564902 1.38308 0
M  V30 7356 H 710.399 -3.64004 2.12318 0
M  V30 7357 H 709.074 -3.05057 1.08267 0
M  V30 7358 H 707.981 -2.0117 3.15407 0
M  V30 7359 H 709.314 -2.66335 4.13916 0
M  V30 7360 N 710.966 -1.44241 -0.634997 0
M  V30 7361 C 712.194 -1.50296 -1.42193 0
M  V30 7362 C 712.609 -0.12658 -1.88375 0
M  V30 7363 O 711.966 0.86678 -1.60603 0
M  V30 7364 C 712.017 -2.46437 -2.64482 0
M  V30 7365 O 711.738 -3.78724 -2.20226 0
M  V30 7366 C 713.239 -2.61918 -3.57651 0
M  V30 7367 H 710.459 -0.509865 -0.43621 0
M  V30 7368 H 713.003 -1.89167 -0.776921 0
M  V30 7369 H 711.158 -2.10712 -3.25083 0
M  V30 7370 H 711.572 -4.30595 -2.9948 0
M  V30 7371 H 713.046 -3.33225 -4.40074 0
M  V30 7372 H 713.523 -1.67017 -4.06204 0
M  V30 7373 H 714.129 -2.98528 -3.02921 0
M  V30 7374 N 712.444 0.87505 -1.31075 0
M  V30 7375 C 713.69 1.63009 -1.20647 0
M  V30 7376 C 714.023 1.9276 0.236045 0
M  V30 7377 O 713.298 1.55559 1.16754 0
M  V30 7378 C 713.581 2.96357 -2.0456 0
M  V30 7379 C 713.434 2.73516 -3.57084 0
M  V30 7380 C 714.753 3.974 -1.89107 0
M  V30 7381 H 711.872 0.591518 -0.439631 0
M  V30 7382 H 714.514 1.0119 -1.60812 0
M  V30 7383 H 712.664 3.49119 -1.70435 0
M  V30 7384 H 714.336 2.27465 -4.01319 0
M  V30 7385 H 712.579 2.0784 -3.80769 0
M  V30 7386 H 713.25 3.68377 -4.11099 0
M  V30 7387 H 715.726 3.5383 -2.18961 0
M  V30 7388 H 714.602 4.88596 -2.5013 0
M  V30 7389 H 714.863 4.33794 -0.85296 0
M  V30 7390 N 713.922 1.13953 1.08869 0
M  V30 7391 C 715.15 0.92817 1.84912 0
M  V30 7392 C 715.565 -0.523197 1.81406 0
M  V30 7393 O 714.922 -1.36237 1.21432 0
M  V30 7394 C 714.973 1.41509 3.32652 0
M  V30 7395 O 714.694 2.80959 3.36145 0
M  V30 7396 C 716.195 1.243 4.25517 0
M  V30 7397 H 713.415 0.330612 0.583898 0
M  V30 7398 H 715.959 1.51349 1.37527 0
M  V30 7399 H 714.114 0.872648 3.77444 0
M  V30 7400 H 714.528 3.02704 4.28335 0
M  V30 7401 H 716.002 1.63237 5.27312 0
M  V30 7402 H 716.479 0.18532 4.38809 0
M  V30 7403 H 717.085 1.77375 3.86546 0
M  V30 7404 N 715.4 -1.26948 0.933913 0
M  V30 7405 C 716.64 -1.9585 0.585003 0
M  V30 7406 C 717.004 -1.71722 -0.858802 0
M  V30 7407 O 718.205 -2.34366 -1.31629 0
M  V30 7408 C 716.476 -3.45638 0.909352 0
M  V30 7409 S 718.035 -4.33656 0.669892 0
M  V30 7410 H 714.853 -0.677485 0.215721 0
M  V30 7411 H 717.455 -1.54051 1.20368 0
M  V30 7412 H 716.159 -3.60697 1.9577 0
M  V30 7413 H 715.69 -3.92401 0.280115 0
M  V30 7414 H 717.705 -4.93975 -0.469378 0
M  V30 7415 N 716.879 -0.700114 -1.41195 0
M  V30 7416 C 717.829 -0.0144098 -2.27995 0
M  V30 7417 C 718.813 0.748249 -1.42443 0
M  V30 7418 O 720.005 0.622995 -1.65674 0
M  V30 7419 C 717.134 0.917938 -3.308 0
M  V30 7420 C 716.22 0.151286 -4.2383 0
M  V30 7421 N 716.611 -0.85732 -4.98481 0
M  V30 7422 C 714.909 0.386108 -4.44326 0
M  V30 7423 C 715.61 -1.31663 -5.66604 0
M  V30 7424 N 714.586 -0.641689 -5.39799 0
M  V30 7425 H 718.388 -0.787662 -2.83149 0
M  V30 7426 H 715.902 -0.531344 -1.53462 0
M  V30 7427 H 717.899 1.42437 -3.91813 0
M  V30 7428 H 716.559 1.69074 -2.77208 0
M  V30 7429 H 717.57 -1.2377 -5.02893 0
M  V30 7430 H 714.247 1.13644 -4.01735 0
M  V30 7431 H 715.637 -2.15384 -6.36443 0
M  V30 7432 N 718.357 1.51182 -0.445186 0
M  V30 7433 C 719.32 2.26501 0.350722 0
M  V30 7434 C 720.32 1.3025 0.942952 0
M  V30 7435 O 721.51 1.53897 0.816175 0
M  V30 7436 C 718.642 3.06274 1.49697 0
M  V30 7437 H 719.835 2.98299 -0.309474 0
M  V30 7438 H 717.388 1.55034 -0.198551 0
M  V30 7439 H 718.123 2.38911 2.19299 0
M  V30 7440 H 717.908 3.76979 1.0784 0
M  V30 7441 H 719.398 3.63306 2.05909 0
M  V30 7442 N 719.835 0.176821 1.56605 0
M  V30 7443 C 721.246 -0.338963 1.83597 0
M  V30 7444 C 721.597 -1.62677 1.09684 0
M  V30 7445 O 720.722 -2.13524 0.351661 0
M  V30 7446 C 721.317 -0.62177 3.33046 0
M  V30 7447 C 719.876 -1.08198 3.60514 0
M  V30 7448 C 719.023 -0.120774 2.77037 0
M  V30 7449 H 721.974 0.400978 1.53551 0
M  V30 7450 H 721.995 -1.47321 3.50823 0
M  V30 7451 H 721.507 0.315692 3.86814 0
M  V30 7452 H 719.608 -2.03435 3.12162 0
M  V30 7453 H 719.721 -0.987329 4.68816 0
M  V30 7454 H 718.085 -0.619192 2.47059 0
M  V30 7455 H 718.868 0.810806 3.33588 0
M  V30 7456 N 721.313 -1.57302 -0.09688 0
M  V30 7457 C 722.223 -2.05258 -1.13606 0
M  V30 7458 C 723.239 -0.977137 -1.43972 0
M  V30 7459 O 724.415 -1.29018 -1.54649 0
M  V30 7460 C 721.48 -2.46593 -2.43706 0
M  V30 7461 C 720.541 -3.68322 -2.20538 0
M  V30 7462 C 719.774 -4.07676 -3.44435 0
M  V30 7463 O 719.997 -3.47141 -4.52603 0
M  V30 7464 O 718.931 -5.00641 -3.34129 0
M  V30 7465 H 722.757 -2.94069 -0.758752 0
M  V30 7466 H 720.342 -1.46164 -0.309263 0
M  V30 7467 H 722.224 -2.73814 -3.20318 0
M  V30 7468 H 720.899 -1.6092 -2.80867 0
M  V30 7469 H 719.806 -3.4622 -1.41713 0
M  V30 7470 H 721.139 -4.54769 -1.88271 0
M  V30 7471 N 722.791 0.367657 -1.53252 0
M  V30 7472 C 724.04 1.10782 -1.68554 0
M  V30 7473 C 724.353 1.90523 -0.442765 0
M  V30 7474 O 725.559 2.6729 -0.47629 0
M  V30 7475 C 724.015 2.01863 -2.97959 0
M  V30 7476 C 723.623 1.27443 -4.29491 0
M  V30 7477 C 725.367 2.75883 -3.22628 0
M  V30 7478 C 723.274 2.17414 -5.49987 0
M  V30 7479 H 722.204 0.417272 -0.628013 0
M  V30 7480 H 724.855 0.368971 -1.79752 0
M  V30 7481 H 723.237 2.7947 -2.80558 0
M  V30 7482 H 724.411 0.549138 -4.57516 0
M  V30 7483 H 722.726 0.652935 -4.11249 0
M  V30 7484 H 725.323 3.43421 -4.09837 0
M  V30 7485 H 725.666 3.41138 -2.38601 0
M  V30 7486 H 726.199 2.0536 -3.40693 0
M  V30 7487 H 722.938 1.5674 -6.36485 0
M  V30 7488 H 722.458 2.87799 -5.26243 0
M  V30 7489 H 724.137 2.77019 -5.84696 0
M  V30 7490 N 724.269 1.44576 0.627338 0
M  V30 7491 C 725.219 1.48168 1.73293 0
M  V30 7492 C 726.203 0.347045 1.57113 0
M  V30 7493 O 727.395 0.592605 1.66785 0
M  V30 7494 C 724.524 1.43236 3.11991 0
M  V30 7495 C 723.61 2.61828 3.33627 0
M  V30 7496 N 724.001 3.87053 3.25612 0
M  V30 7497 C 722.299 2.57104 3.64436 0
M  V30 7498 C 723 4.66093 3.48041 0
M  V30 7499 N 721.976 3.97228 3.71095 0
M  V30 7500 H 725.778 2.42832 1.6556 0
M  V30 7501 H 723.292 1.39592 0.829934 0
M  V30 7502 H 725.289 1.43893 3.91281 0
M  V30 7503 H 723.949 0.496133 3.20887 0
M  V30 7504 H 724.96 4.18966 3.04447 0
M  V30 7505 H 721.637 1.72295 3.8029 0
M  V30 7506 H 723.027 5.75117 3.47404 0
M  V30 7507 N 725.747 -0.868086 1.31537 0
M  V30 7508 C 726.71 -1.95703 1.19302 0
M  V30 7509 C 727.71 -1.60355 0.119612 0
M  V30 7510 O 728.9 -1.70247 0.36902 0
M  V30 7511 C 726.032 -3.30599 0.831684 0
M  V30 7512 H 727.225 -2.07982 2.16064 0
M  V30 7513 H 724.778 -1.05661 1.15176 0
M  V30 7514 H 725.513 -3.2402 -0.134694 0
M  V30 7515 H 725.298 -3.57629 1.60761 0
M  V30 7516 H 726.788 -4.10439 0.770026 0
M  V30 7517 N 727.225 -1.14528 -1.08264 0
M  V30 7518 C 728.155 -0.856356 -2.1723 0
M  V30 7519 C 729.136 0.189251 -1.69044 0
M  V30 7520 O 730.321 0.0456119 -1.94146 0
M  V30 7521 C 727.451 -0.334662 -3.45684 0
M  V30 7522 C 726.405 -1.31588 -4.0727 0
M  V30 7523 C 725.731 -0.653428 -5.30692 0
M  V30 7524 C 727.031 -2.67866 -4.48381 0
M  V30 7525 H 728.725 -1.76755 -2.41657 0
M  V30 7526 H 726.271 -0.851287 -1.16143 0
M  V30 7527 H 728.224 -0.120128 -4.21229 0
M  V30 7528 H 726.948 0.611967 -3.20815 0
M  V30 7529 H 725.607 -1.51661 -3.33758 0
M  V30 7530 H 725.255 0.299054 -5.0211 0
M  V30 7531 H 724.955 -1.30817 -5.72853 0
M  V30 7532 H 726.479 -0.448453 -6.08951 0
M  V30 7533 H 727.893 -2.51692 -5.15096 0
M  V30 7534 H 726.29 -3.29627 -5.01464 0
M  V30 7535 H 727.36 -3.24632 -3.60198 0
M  V30 7536 N 728.703 1.26451 -0.940633 0
M  V30 7537 C 729.933 1.97581 -0.603766 0
M  V30 7538 C 730.341 1.70246 0.825395 0
M  V30 7539 O 729.684 0.967001 1.56188 0
M  V30 7540 C 729.746 3.51256 -0.765463 0
M  V30 7541 C 729.41 4.0224 -2.16915 0
M  V30 7542 C 730.407 4.1402 -3.14457 0
M  V30 7543 C 728.092 4.36263 -2.48958 0
M  V30 7544 C 730.086 4.59117 -4.42143 0
M  V30 7545 C 727.773 4.81048 -3.76877 0
M  V30 7546 C 728.771 4.92436 -4.73282 0
M  V30 7547 O 728.459 5.36234 -5.98923 0
M  V30 7548 H 728.191 0.636948 -0.226436 0
M  V30 7549 H 730.745 1.61941 -1.2635 0
M  V30 7550 H 728.975 3.86669 -0.0485956 0
M  V30 7551 H 730.664 4.03597 -0.431738 0
M  V30 7552 H 731.43 3.87981 -2.91026 0
M  V30 7553 H 727.309 4.26634 -1.74656 0
M  V30 7554 H 730.853 4.6792 -5.17394 0
M  V30 7555 H 726.75 5.06531 -4.00121 0
M  V30 7556 H 727.518 5.54456 -6.02097 0
M  V30 7557 N 730.181 0.707592 1.40822 0
M  V30 7558 C 731.091 0.0507246 2.34545 0
M  V30 7559 C 732.107 -0.752727 1.56876 0
M  V30 7560 O 733.283 -0.687524 1.89302 0
M  V30 7561 C 730.348 -0.865731 3.35717 0
M  V30 7562 C 729.409 -0.0531313 4.29267 0
M  V30 7563 C 728.642 -0.925939 5.25606 0
M  V30 7564 O 728.865 -2.16531 5.27703 0
M  V30 7565 O 727.799 -0.369194 6.00767 0
M  V30 7566 H 731.625 0.823587 2.9232 0
M  V30 7567 H 729.21 0.46801 1.4188 0
M  V30 7568 H 731.092 -1.39091 3.97783 0
M  V30 7569 H 729.767 -1.61788 2.80368 0
M  V30 7570 H 728.674 0.516931 3.70511 0
M  V30 7571 H 730.007 0.660617 4.87747 0
M  V30 7572 N 731.66 -1.50943 0.453197 0
M  V30 7573 C 733.076 -1.59245 0.106342 0
M  V30 7574 C 733.276 -1.46287 -1.38572 0
M  V30 7575 O 732.332 -1.31219 -2.15726 0
M  V30 7576 C 733.645 -2.93797 0.640595 0
M  V30 7577 C 735.193 -3.07148 0.602435 0
M  V30 7578 C 735.668 -4.44247 1.11393 0
M  V30 7579 N 737.159 -4.50611 1.07258 0
M  V30 7580 C 737.894 -5.55049 1.43905 0
M  V30 7581 N 737.39 -6.66828 1.87914 0
M  V30 7582 N 739.183 -5.45494 1.35621 0
M  V30 7583 H 731.334 -1.5761 1.42382 0
M  V30 7584 H 733.597 -0.74384 0.587713 0
M  V30 7585 H 733.303 -3.087 1.68515 0
M  V30 7586 H 733.177 -3.77127 0.0742272 0
M  V30 7587 H 735.564 -2.91903 -0.433171 0
M  V30 7588 H 735.645 -2.25619 1.20539 0
M  V30 7589 H 735.289 -4.60239 2.14808 0
M  V30 7590 H 735.219 -5.2434 0.487353 0
M  V30 7591 H 737.71 -3.70391 0.749585 0
M  V30 7592 H 738.023 -7.42558 2.14072 0
M  V30 7593 H 736.368 -6.67995 1.91853 0
M  V30 7594 H 739.559 -4.57053 1.01093 0
M  V30 7595 H 739.732 -6.2677 1.64508 0
M  V30 7596 N 733.138 -0.185124 -1.56509 0
M  V30 7597 C 734.101 0.72591 -2.17401 0
M  V30 7598 C 735.101 1.14819 -1.12575 0
M  V30 7599 O 736.291 1.0629 -1.38015 0
M  V30 7600 C 733.423 1.98979 -2.76803 0
M  V30 7601 H 734.616 0.195588 -2.99262 0
M  V30 7602 H 732.169 0.0644772 -1.56167 0
M  V30 7603 H 732.904 2.56287 -1.98714 0
M  V30 7604 H 732.689 1.69583 -3.53531 0
M  V30 7605 H 734.179 2.63966 -3.23592 0
M  V30 7606 N 734.616 1.57351 0.0885366 0
M  V30 7607 C 735.566 1.98963 1.11346 0
M  V30 7608 C 736.55 0.869065 1.35411 0
M  V30 7609 O 737.742 1.13292 1.35992 0
M  V30 7610 C 734.871 2.4231 2.43189 0
M  V30 7611 C 733.957 3.61065 2.22469 0
M  V30 7612 N 734.348 4.75789 1.71635 0
M  V30 7613 C 732.646 3.6729 2.5301 0
M  V30 7614 C 733.347 5.57708 1.65339 0
M  V30 7615 N 732.323 5.01067 2.1079 0
M  V30 7616 H 736.125 2.85109 0.713465 0
M  V30 7617 H 733.639 1.59682 0.295868 0
M  V30 7618 H 735.636 2.70352 3.17357 0
M  V30 7619 H 734.296 1.57544 2.83919 0
M  V30 7620 H 735.307 4.98411 1.40738 0
M  V30 7621 H 731.984 2.932 2.9722 0
M  V30 7622 H 733.374 6.59782 1.27031 0
M  V30 7623 N 736.094 -0.359525 1.53444 0
M  V30 7624 C 737.34 -1.10315 1.70172 0
M  V30 7625 C 737.673 -1.88788 0.455287 0
M  V30 7626 O 736.948 -1.86635 -0.547514 0
M  V30 7627 C 737.231 -2.05744 2.95536 0
M  V30 7628 C 737.084 -1.3084 4.3035 0
M  V30 7629 C 738.403 -3.05784 3.16518 0
M  V30 7630 H 735.522 -0.399662 0.619225 0
M  V30 7631 H 738.164 -0.383338 1.86093 0
M  V30 7632 H 736.314 -2.67125 2.82093 0
M  V30 7633 H 737.986 -0.721959 4.55615 0
M  V30 7634 H 736.229 -0.610283 4.29486 0
M  V30 7635 H 736.9 -2.00718 5.14214 0
M  V30 7636 H 739.376 -2.5451 3.29187 0
M  V30 7637 H 738.252 -3.69772 4.05659 0
M  V30 7638 H 738.513 -3.76289 2.32076 0
M  V30 7639 N 737.572 -1.44907 -0.619662 0
M  V30 7640 C 738.502 -1.55488 -1.742 0
M  V30 7641 C 739.483 -0.407143 -1.65156 0
M  V30 7642 O 740.668 -0.628743 -1.8374 0
M  V30 7643 C 737.798 -1.5097 -3.1277 0
M  V30 7644 C 736.752 -2.64337 -3.36615 0
M  V30 7645 C 736.078 -2.44872 -4.75333 0
M  V30 7646 C 737.378 -4.06423 -3.28051 0
M  V30 7647 H 739.072 -2.49432 -1.65602 0
M  V30 7648 H 736.618 -1.20047 -0.795281 0
M  V30 7649 H 738.571 -1.56971 -3.91073 0
M  V30 7650 H 737.295 -0.535486 -3.2218 0
M  V30 7651 H 735.954 -2.57744 -2.60698 0
M  V30 7652 H 735.602 -1.45617 -4.81461 0
M  V30 7653 H 735.302 -3.20888 -4.92244 0
M  V30 7654 H 736.826 -2.52709 -5.55851 0
M  V30 7655 H 738.24 -4.14324 -3.96243 0
M  V30 7656 H 736.637 -4.82733 -3.56495 0
M  V30 7657 H 737.707 -4.29183 -2.25676 0
M  V30 7658 N 739.05 0.861098 -1.31996 0
M  V30 7659 C 740.296 1.61721 -1.22369 0
M  V30 7660 C 740.629 1.93 0.215587 0
M  V30 7661 O 739.904 1.56789 1.15098 0
M  V30 7662 C 740.187 2.9417 -2.07691 0
M  V30 7663 C 740.04 2.69714 -3.59965 0
M  V30 7664 C 741.359 3.95372 -1.93312 0
M  V30 7665 H 738.478 0.586822 -0.44588 0
M  V30 7666 H 741.12 0.994788 -1.61876 0
M  V30 7667 H 739.27 3.47292 -1.74128 0
M  V30 7668 H 740.942 2.23196 -4.03709 0
M  V30 7669 H 739.185 2.03789 -3.82952 0
M  V30 7670 H 739.856 3.63996 -4.14983 0
M  V30 7671 H 742.332 3.51487 -2.22701 0
M  V30 7672 H 741.208 4.85916 -2.55298 0
M  V30 7673 H 741.469 4.32865 -0.898922 0
M  V30 7674 N 740.528 1.15101 1.07655 0
M  V30 7675 C 741.944 0.893004 1.32279 0
M  V30 7676 C 742.144 -0.461701 1.96139 0
M  V30 7677 O 741.2 -1.20431 2.21929 0
M  V30 7678 C 742.513 2.03161 2.21689 0
M  V30 7679 C 744.061 2.06579 2.35147 0
M  V30 7680 C 744.536 3.19754 3.27905 0
M  V30 7681 N 746.027 3.19382 3.35484 0
M  V30 7682 C 746.762 4.03592 4.07309 0
M  V30 7683 N 746.258 4.97859 4.81776 0
M  V30 7684 N 748.051 3.91626 4.03219 0
M  V30 7685 H 740.202 2.02341 0.645886 0
M  V30 7686 H 742.465 0.882127 0.347211 0
M  V30 7687 H 742.171 3.00934 1.82021 0
M  V30 7688 H 742.045 1.96132 3.22199 0
M  V30 7689 H 744.432 1.09408 2.74069 0
M  V30 7690 H 744.513 2.17676 1.34353 0
M  V30 7691 H 744.157 4.17175 2.89702 0
M  V30 7692 H 744.087 3.05893 4.28645 0
M  V30 7693 H 746.578 2.51112 2.82403 0
M  V30 7694 H 746.891 5.58563 5.34067 0
M  V30 7695 H 745.236 5.0185 4.80803 0
M  V30 7696 H 748.427 3.17295 3.44154 0
M  V30 7697 H 748.6 4.57479 4.5893 0
M  V30 7698 N 742.006 -1.2595 0.947325 0
M  V30 7699 C 743.417 -1.75389 0.639963 0
M  V30 7700 C 743.768 -1.77081 -0.844788 0
M  V30 7701 O 742.893 -1.3869 -1.66114 0
M  V30 7702 C 743.488 -3.18506 1.15496 0
M  V30 7703 C 742.047 -3.65534 0.897894 0
M  V30 7704 C 741.194 -2.44818 1.30228 0
M  V30 7705 H 744.145 -1.1194 1.12495 0
M  V30 7706 H 744.166 -3.77045 0.511627 0
M  V30 7707 H 743.678 -3.17243 2.23559 0
M  V30 7708 H 741.779 -3.72221 -0.168096 0
M  V30 7709 H 741.892 -4.54039 1.52922 0
M  V30 7710 H 740.256 -2.44291 0.720678 0
M  V30 7711 H 741.039 -2.46251 2.39198 0
M  V30 7712 N 743.484 -0.715051 -1.40445 0
M  V30 7713 C 744.761 -0.181503 -1.94756 0
M  V30 7714 C 745.141 1.31268 -1.65324 0
M  V30 7715 O 744.489 2.0686 -0.970631 0
M  V30 7716 C 744.699 -0.493663 -3.45491 0
M  V30 7717 C 746.047 -0.432032 -4.22396 0
M  V30 7718 O 747.071 -0.429692 -3.53599 0
M  V30 7719 O 745.93 -0.409091 -5.44967 0
M  V30 7720 H 743.024 -0.0263989 -0.826579 0
M  V30 7721 H 745.57 -0.792546 -1.50056 0
M  V30 7722 H 744.342 -1.52713 -3.6027 0
M  V30 7723 H 743.965 0.14737 -3.97327 0
M  V30 7724 N 744.962 1.50701 -0.461195 0
M  V30 7725 C 746.21 2.01867 0.0970051 0
M  V30 7726 C 746.531 1.34591 1.41104 0
M  V30 7727 O 745.801 0.488041 1.89723 0
M  V30 7728 H 744.381 0.74599 0.0388392 0
M  V30 7729 H 747.043 1.85129 -0.609357 0
M  V30 7730 H 746.139 3.11051 0.255688 0
M  V30 7731 N 746.441 0.193421 1.56409 0
M  V30 7732 C 747.391 -0.74089 2.15627 0
M  V30 7733 C 748.375 -1.17747 1.09656 0
M  V30 7734 O 749.567 -1.13615 1.35723 0
M  V30 7735 C 746.696 -1.96091 2.81786 0
M  V30 7736 C 745.782 -1.54531 3.94944 0
M  V30 7737 N 746.173 -0.840569 4.98767 0
M  V30 7738 C 744.471 -1.83473 4.06514 0
M  V30 7739 C 745.172 -0.632571 5.7825 0
M  V30 7740 N 744.148 -1.18078 5.30621 0
M  V30 7741 H 747.95 -0.193718 2.93261 0
M  V30 7742 H 745.464 -0.00643211 1.62399 0
M  V30 7743 H 747.461 -2.64071 3.22602 0
M  V30 7744 H 746.121 -2.51282 2.05639 0
M  V30 7745 H 747.132 -0.496218 5.15517 0
M  V30 7746 H 743.809 -2.40184 3.41493 0
M  V30 7747 H 745.199 -0.0736433 6.7186 0
M  V30 7748 N 747.919 -1.57396 -0.0801906 0
M  V30 7749 C 749.165 -1.87113 -0.782083 0
M  V30 7750 C 749.498 -0.78458 -1.77646 0
M  V30 7751 O 748.773 0.205993 -1.93406 0
M  V30 7752 C 749.056 -3.27483 -1.49756 0
M  V30 7753 C 748.909 -4.46782 -0.520171 0
M  V30 7754 C 750.228 -3.65965 -2.44454 0
M  V30 7755 H 747.347 -0.680559 -0.282858 0
M  V30 7756 H 749.989 -1.89946 -0.0454139 0
M  V30 7757 H 748.139 -3.25199 -2.12551 0
M  V30 7758 H 749.811 -4.61187 0.101919 0
M  V30 7759 H 748.054 -4.33485 0.165219 0
M  V30 7760 H 748.725 -5.41761 -1.05824 0
M  V30 7761 H 751.201 -3.69289 -1.91742 0
M  V30 7762 H 750.077 -4.65086 -2.91524 0
M  V30 7763 H 750.338 -2.95446 -3.28883 0
M  V30 7764 N 749.397 0.351382 -1.53633 0
M  V30 7765 C 750.36 1.41403 -1.80383 0
M  V30 7766 C 751.36 1.45963 -0.674635 0
M  V30 7767 O 752.55 1.46476 -0.942895 0
M  V30 7768 C 749.682 2.80401 -1.93876 0
M  V30 7769 H 750.875 1.18951 -2.75301 0
M  V30 7770 H 748.428 0.58533 -1.44926 0
M  V30 7771 H 749.163 3.08147 -1.01074 0
M  V30 7772 H 748.948 2.78488 -2.7602 0
M  V30 7773 H 750.438 3.57329 -2.16116 0
M  V30 7774 N 750.875 1.45233 0.611969 0
M  V30 7775 C 752.121 1.50233 1.37119 0
M  V30 7776 C 752.476 0.140336 1.91888 0
M  V30 7777 O 751.769 -0.847161 1.71854 0
M  V30 7778 C 751.963 2.51353 2.54079 0
M  V30 7779 C 751.792 3.97251 2.10764 0
M  V30 7780 C 750.562 4.65256 1.97141 0
M  V30 7781 C 752.76 4.85914 1.68499 0
M  V30 7782 N 750.742 5.95895 1.4759 0
M  V30 7783 C 752.113 6.06147 1.30331 0
M  V30 7784 C 754.168 4.72813 1.56051 0
M  V30 7785 C 752.871 7.14729 0.809591 0
M  V30 7786 C 754.897 5.8144 1.08083 0
M  V30 7787 C 754.259 7.00825 0.708775 0
M  V30 7788 H 750.358 0.604708 0.495835 0
M  V30 7789 H 752.942 1.81679 0.700055 0
M  V30 7790 H 751.113 2.21866 3.18795 0
M  V30 7791 H 752.845 2.46528 3.20945 0
M  V30 7792 H 749.6 4.20345 2.18191 0
M  V30 7793 H 750.024 6.65349 1.25059 0
M  V30 7794 H 754.666 3.80931 1.83443 0
M  V30 7795 H 752.384 8.06404 0.523215 0
M  V30 7796 H 755.97 5.73335 0.988842 0
M  V30 7797 H 754.85 7.83448 0.343305 0
M  V30 7798 N 752.353 -0.854086 1.3245 0
M  V30 7799 C 753.769 -1.14238 1.11453 0
M  V30 7800 C 753.969 -2.01228 -0.10461 0
M  V30 7801 O 753.025 -2.39845 -0.789339 0
M  V30 7802 C 754.338 -1.81916 2.39431 0
M  V30 7803 C 755.886 -1.94549 2.45193 0
M  V30 7804 C 756.361 -2.65642 3.73093 0
M  V30 7805 N 757.852 -2.73167 3.74078 0
M  V30 7806 C 758.587 -3.28828 4.69744 0
M  V30 7807 N 758.083 -3.85295 5.75778 0
M  V30 7808 N 759.876 -3.26936 4.57241 0
M  V30 7809 H 752.027 -0.274786 2.10615 0
M  V30 7810 H 754.29 -0.184375 0.929898 0
M  V30 7811 H 753.996 -1.25452 3.28565 0
M  V30 7812 H 753.87 -2.82068 2.50434 0
M  V30 7813 H 756.257 -2.50172 1.56518 0
M  V30 7814 H 756.338 -0.933914 2.38142 0
M  V30 7815 H 755.982 -2.10683 4.62142 0
M  V30 7816 H 755.912 -3.6724 3.77415 0
M  V30 7817 H 758.403 -2.33108 2.97438 0
M  V30 7818 H 758.716 -4.25925 6.44832 0
M  V30 7819 H 757.061 -3.83625 5.79531 0
M  V30 7820 H 760.252 -2.8207 3.7357 0
M  V30 7821 H 760.425 -3.70014 5.31971 0
M  V30 7822 N 753.831 -1.1567 -1.07043 0
M  V30 7823 C 755.079 -0.931673 -1.79344 0
M  V30 7824 C 755.4 0.542421 -1.87304 0
M  V30 7825 O 754.67 1.39418 -1.37621 0
M  V30 7826 H 753.25 -0.34171 -0.664262 0
M  V30 7827 H 755.912 -1.45795 -1.29344 0
M  V30 7828 H 755.008 -1.34379 -2.81689 0
M  V30 7829 N 755.309 1.25446 -0.953992 0
M  V30 7830 C 756.586 1.884 -0.525823 0
M  V30 7831 C 756.966 1.86079 0.996891 0
M  V30 7832 O 756.314 1.32389 1.8624 0
M  V30 7833 C 756.524 3.31154 -1.10172 0
M  V30 7834 C 757.872 4.07926 -1.17819 0
M  V30 7835 O 758.896 3.40273 -1.05323 0
M  V30 7836 O 757.755 5.28942 -1.37415 0
M  V30 7837 H 754.849 0.808629 -0.173345 0
M  V30 7838 H 757.395 1.33522 -1.04738 0
M  V30 7839 H 756.167 3.27271 -2.14499 0
M  V30 7840 H 755.79 3.93588 -0.56338 0
M  V30 7841 N 756.787 0.722489 1.40064 0
M  V30 7842 C 757.737 0.0506801 2.27944 0
M  V30 7843 C 758.721 -0.725493 1.43615 0
M  V30 7844 O 759.913 -0.596559 1.66644 0
M  V30 7845 C 757.042 -0.865195 3.32219 0
M  V30 7846 C 756.128 -0.0838393 4.24017 0
M  V30 7847 N 756.519 0.936516 4.97054 0
M  V30 7848 C 754.817 -0.315371 4.44884 0
M  V30 7849 C 755.518 1.4066 5.64437 0
M  V30 7850 N 754.494 0.727485 5.3871 0
M  V30 7851 H 758.296 0.832609 2.8186 0
M  V30 7852 H 755.81 0.555691 1.52597 0
M  V30 7853 H 757.807 -1.36186 3.94029 0
M  V30 7854 H 756.467 -1.64642 2.79862 0
M  V30 7855 H 757.478 1.31755 5.0086 0
M  V30 7856 H 754.155 -1.07238 4.03492 0
M  V30 7857 H 755.545 2.25482 6.32936 0
M  V30 7858 N 758.265 -1.50454 0.469181 0
M  V30 7859 C 759.195 -2.31353 -0.31592 0
M  V30 7860 C 760.176 -1.38172 -0.992094 0
M  V30 7861 O 761.361 -1.67093 -0.989633 0
M  V30 7862 C 758.491 -3.1786 -1.39937 0
M  V30 7863 C 757.445 -4.19578 -0.844909 0
M  V30 7864 C 756.771 -4.9481 -2.0265 0
M  V30 7865 C 758.071 -5.22106 0.142499 0
M  V30 7866 H 759.765 -2.97237 0.359269 0
M  V30 7867 H 757.311 -1.42942 0.174224 0
M  V30 7868 H 759.264 -3.7325 -1.95607 0
M  V30 7869 H 757.988 -2.49858 -2.1033 0
M  V30 7870 H 756.647 -3.65285 -0.310189 0
M  V30 7871 H 756.295 -4.23282 -2.71737 0
M  V30 7872 H 755.995 -5.63613 -1.66174 0
M  V30 7873 H 757.519 -5.53035 -2.58815 0
M  V30 7874 H 758.933 -5.72378 -0.324966 0
M  V30 7875 H 757.33 -5.98618 0.421441 0
M  V30 7876 H 758.4 -4.7297 1.06901 0
M  V30 7877 N 759.743 -0.201713 -1.56304 0
M  V30 7878 C 761.154 0.309711 -1.84113 0
M  V30 7879 C 761.505 1.60912 -1.12258 0
M  V30 7880 O 760.63 2.12937 -0.385587 0
M  V30 7881 C 761.225 0.568706 -3.33993 0
M  V30 7882 C 759.784 1.02448 -3.6219 0
M  V30 7883 C 758.931 0.0766842 -2.77194 0
M  V30 7884 H 761.882 -0.425356 -1.52893 0
M  V30 7885 H 761.903 1.41721 -3.53122 0
M  V30 7886 H 761.415 -0.37719 -3.86263 0
M  V30 7887 H 759.516 1.98443 -3.15359 0
M  V30 7888 H 759.629 0.912619 -4.70328 0
M  V30 7889 H 757.993 0.579809 -2.48013 0
M  V30 7890 H 758.776 -0.863774 -3.32256 0
M  V30 7891 N 761.222 1.57436 0.0718424 0
M  V30 7892 C 762.185 2.02703 1.06977 0
M  V30 7893 C 763.185 0.924062 1.31597 0
M  V30 7894 O 764.375 1.18894 1.27318 0
M  V30 7895 C 761.507 2.40763 2.41342 0
M  V30 7896 H 762.7 2.92098 0.679619 0
M  V30 7897 H 760.253 1.5304 0.317565 0
M  V30 7898 H 760.988 1.54394 2.8519 0
M  V30 7899 H 760.773 3.21249 2.24814 0
M  V30 7900 H 762.263 2.76361 3.13073 0
M  V30 7901 N 762.7 -0.34323 1.53817 0
M  V30 7902 C 763.61 -1.44493 1.84821 0
M  V30 7903 C 764.626 -1.57556 0.738381 0
M  V30 7904 O 765.802 -1.73026 1.03072 0
M  V30 7905 C 762.867 -2.79478 2.05166 0
M  V30 7906 C 761.928 -2.75756 3.29025 0
M  V30 7907 C 761.161 -4.04302 3.4839 0
M  V30 7908 O 761.384 -5.01595 2.71586 0
M  V30 7909 O 760.318 -4.08754 4.41819 0
M  V30 7910 H 764.144 -1.21209 2.78464 0
M  V30 7911 H 761.729 -0.535437 1.39476 0
M  V30 7912 H 763.611 -3.59419 2.19991 0
M  V30 7913 H 762.286 -3.02692 1.14713 0
M  V30 7914 H 761.193 -1.94434 3.19603 0
M  V30 7915 H 762.526 -2.57495 4.19472 0
M  V30 7916 N 764.178 -1.45556 -0.604258 0
M  V30 7917 C 765.108 -1.57327 -1.72541 0
M  V30 7918 C 766.089 -0.424637 -1.64714 0
M  V30 7919 O 767.274 -0.648196 -1.83063 0
M  V30 7920 C 764.404 -1.54279 -3.11152 0
M  V30 7921 C 763.358 -2.67893 -3.33792 0
M  V30 7922 C 762.684 -2.499 -4.72709 0
M  V30 7923 C 763.984 -4.0988 -3.23722 0
M  V30 7924 H 765.678 -2.51175 -1.62947 0
M  V30 7925 H 763.224 -1.20884 -0.782504 0
M  V30 7926 H 765.177 -1.6111 -3.89386 0
M  V30 7927 H 763.901 -0.569627 -3.21594 0
M  V30 7928 H 762.56 -2.60495 -2.57949 0
M  V30 7929 H 762.208 -1.50715 -4.79889 0
M  V30 7930 H 761.908 -3.26091 -4.88813 0
M  V30 7931 H 763.432 -2.5859 -5.5314 0
M  V30 7932 H 764.846 -4.18503 -3.91826 0
M  V30 7933 H 763.243 -4.86487 -3.51355 0
M  V30 7934 H 764.313 -4.31553 -2.21111 0
M  V30 7935 N 765.656 0.84705 -1.32902 0
M  V30 7936 C 766.904 1.5986 -1.2365 0
M  V30 7937 C 767.225 1.93974 0.199789 0
M  V30 7938 O 766.495 1.60273 1.12648 0
M  V30 7939 H 765.075 0.592696 -0.454665 0
M  V30 7940 H 767.737 1.01278 -1.66519 0
M  V30 7941 H 766.833 2.53218 -1.82448 0
M  V30 7942 N 767.134 1.16236 1.06428 0
M  V30 7943 C 768.382 0.941171 1.78847 0
M  V30 7944 C 768.703 -0.53248 1.87589 0
M  V30 7945 O 767.973 -1.38686 1.38358 0
M  V30 7946 H 766.553 0.345228 0.66244 0
M  V30 7947 H 769.215 1.46479 1.28569 0
M  V30 7948 H 768.311 1.35871 2.80972 0
M  V30 7949 N 768.612 -1.24939 0.960631 0
M  V30 7950 C 769.542 -2.28 0.503815 0
M  V30 7951 C 770.523 -1.63959 -0.452928 0
M  V30 7952 O 771.708 -1.91009 -0.350585 0
M  V30 7953 C 768.838 -3.46643 -0.213535 0
M  V30 7954 C 767.792 -4.22903 0.658535 0
M  V30 7955 C 767.118 -5.34363 -0.189902 0
M  V30 7956 C 768.418 -4.84949 1.93963 0
M  V30 7957 H 770.112 -2.66462 1.36521 0
M  V30 7958 H 767.658 -1.28093 0.657897 0
M  V30 7959 H 769.611 -4.1787 -0.544286 0
M  V30 7960 H 768.335 -3.07187 -1.10923 0
M  V30 7961 H 766.994 -3.53467 0.972455 0
M  V30 7962 H 766.642 -4.91147 -1.08553 0
M  V30 7963 H 766.342 -5.86302 0.390331 0
M  V30 7964 H 767.866 -6.0842 -0.515484 0
M  V30 7965 H 769.28 -5.48288 1.67491 0
M  V30 7966 H 767.677 -5.47091 2.46601 0
M  V30 7967 H 768.747 -4.06799 2.639 0
M  V30 7968 N 770.09 -0.729906 -1.39679 0
M  V30 7969 C 771.336 -0.27603 -2.00913 0
M  V30 7970 C 771.669 1.13227 -1.57776 0
M  V30 7971 O 770.944 1.7709 -0.804319 0
M  V30 7972 C 771.227 -0.372157 -3.58172 0
M  V30 7973 C 771.08 -1.81986 -4.11341 0
M  V30 7974 C 772.399 0.248378 -4.39399 0
M  V30 7975 H 769.518 -0.101773 -0.729939 0
M  V30 7976 H 772.16 -0.925104 -1.65957 0
M  V30 7977 H 770.31 0.180459 -3.88081 0
M  V30 7978 H 771.982 -2.42896 -3.92172 0
M  V30 7979 H 770.225 -2.34287 -3.65092 0
M  V30 7980 H 770.896 -1.83842 -5.20486 0
M  V30 7981 H 773.372 -0.222645 -4.15504 0
M  V30 7982 H 772.248 0.150746 -5.48693 0
M  V30 7983 H 772.509 1.33378 -4.21501 0
M  V30 7984 N 771.568 1.50203 -0.477153 0
M  V30 7985 C 772.845 1.95115 0.137609 0
M  V30 7986 C 773.225 1.41778 1.56404 0
M  V30 7987 O 772.573 0.621333 2.1989 0
M  V30 7988 C 772.783 3.4892 0.0747168 0
M  V30 7989 C 774.131 4.238 0.260585 0
M  V30 7990 O 775.155 3.5588 0.151021 0
M  V30 7991 O 774.014 5.44366 0.482534 0
M  V30 7992 H 771.108 0.81987 0.108364 0
M  V30 7993 H 773.654 1.60946 -0.537989 0
M  V30 7994 H 772.426 3.80308 -0.920966 0
M  V30 7995 H 772.049 3.89642 0.791509 0
M  V30 7996 N 773.046 0.209999 1.56195 0
M  V30 7997 C 773.993 -0.704854 2.19774 0
M  V30 7998 C 774.963 -1.19886 1.14964 0
M  V30 7999 O 776.148 -1.26005 1.43274 0
M  V30 8000 C 773.288 -1.91241 2.87265 0
M  V30 8001 C 772.401 -1.45838 4.06639 0
M  V30 8002 C 771.536 -2.6226 4.61945 0
M  V30 8003 C 770.575 -2.13537 5.73645 0
M  V30 8004 N 769.712 -3.2319 6.23292 0
M  V30 8005 H 774.552 -0.155944 2.97592 0
M  V30 8006 H 772.089 -0.0652235 1.46955 0
M  V30 8007 H 774.047 -2.62123 3.24573 0
M  V30 8008 H 772.677 -2.43439 2.11985 0
M  V30 8009 H 771.729 -0.644897 3.74894 0
M  V30 8010 H 773.041 -1.06103 4.87384 0
M  V30 8011 H 772.195 -3.41243 5.01636 0
M  V30 8012 H 770.934 -3.05278 3.80338 0
M  V30 8013 H 769.939 -1.33013 5.33468 0
M  V30 8014 H 771.164 -1.71533 6.57079 0
M  V30 8015 H 769.11 -3.65711 5.44602 0
M  V30 8016 H 769.027 -2.8767 6.99129 0
M  V30 8017 H 770.295 -4.02342 6.67639 0
M  V30 8018 N 774.524 -1.57472 -0.0634922 0
M  V30 8019 C 775.77 -1.87932 -0.762194 0
M  V30 8020 C 776.103 -0.803377 -1.76804 0
M  V30 8021 O 775.378 0.185468 -1.93614 0
M  V30 8022 C 775.661 -3.29053 -1.46275 0
M  V30 8023 C 775.514 -4.47309 -0.472755 0
M  V30 8024 C 776.833 -3.68537 -2.40558 0
M  V30 8025 H 773.952 -0.683521 -0.275624 0
M  V30 8026 H 776.594 -1.89983 -0.0252651 0
M  V30 8027 H 774.744 -3.27435 -2.0909 0
M  V30 8028 H 776.416 -4.61053 0.150828 0
M  V30 8029 H 774.659 -4.33286 0.211187 0
M  V30 8030 H 775.33 -5.42853 -1.00072 0
M  V30 8031 H 777.806 -3.71302 -1.87814 0
M  V30 8032 H 776.682 -4.68152 -2.86574 0
M  V30 8033 H 776.943 -2.98917 -3.25731 0
M  V30 8034 N 776.003 0.335068 -1.53997 0
M  V30 8035 C 777.419 0.678704 -1.4445 0
M  V30 8036 C 777.619 1.92106 -0.608078 0
M  V30 8037 O 776.675 2.52292 -0.102373 0
M  V30 8038 C 777.988 0.863435 -2.88037 0
M  V30 8039 C 779.536 0.961513 -2.97866 0
M  V30 8040 C 780.011 1.1785 -4.42578 0
M  V30 8041 N 781.502 1.2455 -4.46141 0
M  V30 8042 C 782.237 1.43106 -5.55255 0
M  V30 8043 N 781.733 1.5878 -6.74359 0
M  V30 8044 N 783.526 1.45722 -5.42883 0
M  V30 8045 H 775.677 -0.481656 -2.06867 0
M  V30 8046 H 777.94 -0.153615 -0.935471 0
M  V30 8047 H 777.646 0.0219511 -3.51693 0
M  V30 8048 H 777.52 1.76268 -3.33481 0
M  V30 8049 H 779.907 1.79351 -2.34344 0
M  V30 8050 H 779.988 0.0389862 -2.5577 0
M  V30 8051 H 779.632 0.351397 -5.06683 0
M  V30 8052 H 779.562 2.11472 -4.82273 0
M  V30 8053 H 782.053 1.13928 -3.60318 0
M  V30 8054 H 782.366 1.72599 -7.53279 0
M  V30 8055 H 780.711 1.559 -6.77289 0
M  V30 8056 H 783.902 1.33065 -4.48789 0
M  V30 8057 H 784.075 1.59841 -6.27977 0
M  V30 8058 N 777.481 1.45874 0.596531 0
M  V30 8059 C 778.729 1.5017 1.35253 0
M  V30 8060 C 779.05 0.149246 1.94428 0
M  V30 8061 O 778.32 -0.82268 1.77789 0
M  V30 8062 H 776.9 0.553052 0.502138 0
M  V30 8063 H 779.562 1.81908 0.699671 0
M  V30 8064 H 778.658 2.24671 2.16632 0
M  V30 8065 N 778.959 -0.83999 1.33349 0
M  V30 8066 C 779.922 -1.93128 1.23426 0
M  V30 8067 C 780.922 -1.60065 0.153599 0
M  V30 8068 O 782.112 -1.69425 0.405049 0
M  V30 8069 C 779.244 -3.28761 0.901622 0
M  V30 8070 H 780.437 -2.03352 2.20427 0
M  V30 8071 H 777.99 -1.03194 1.17391 0
M  V30 8072 H 778.725 -3.24233 -0.0659337 0
M  V30 8073 H 778.51 -3.54138 1.68311 0
M  V30 8074 H 780 -4.08714 0.856913 0
M  V30 8075 N 780.437 -1.16799 -1.0581 0
M  V30 8076 C 781.4 -0.881396 -2.11575 0
M  V30 8077 C 782.4 0.12574 -1.60308 0
M  V30 8078 O 783.59 -0.105716 -1.73879 0
M  V30 8079 C 780.722 -0.319037 -3.39404 0
M  V30 8080 H 781.915 -1.81907 -2.38432 0
M  V30 8081 H 779.468 -0.977597 -1.21954 0
M  V30 8082 H 780.203 0.626082 -3.18199 0
M  V30 8083 H 779.988 -1.04481 -3.77923 0
M  V30 8084 H 781.478 -0.13663 -4.17376 0
M  V30 8085 O 781.954 1.1855 -1.09673 0
M  V30 8086 H 782.645 1.76666 -0.794287 0
M  V30 END ATOM
M  V30 BEGIN BOND
M  V30 END BOND
M  V30 END CTAB
M  END
$$$$
