drugbank_drug|DB00055 Heavy chain
 OpenBabel12092119103D

  0  0  0     0  0            999 V3000
M  V30 BEGIN CTAB
M  V30 COUNTS 3918 3967 0 0 0
M  V30 BEGIN ATOM
M  V30 1 H -0.908 1.98254 -0.117106 0
M  V30 2 N 0 1.576 0 0
M  V30 3 C 0.93 2.11458 0.990341 0
M  V30 4 C 1.911 1.02372 1.35845 0
M  V30 5 O 3.096 1.30055 1.4422 0
M  V30 6 C 0.226 2.61788 2.2822 0
M  V30 7 C -0.82 3.754 2.0557 0
M  V30 8 C -1.494 4.12045 3.40769 0
M  V30 9 C -0.194 5.02675 1.41829 0
M  V30 10 H 1.5 2.94455 0.541905 0
M  V30 11 H -0.954 1.41648 0.259219 0
M  V30 12 H 0.999 2.98093 2.97856 0
M  V30 13 H -0.277 1.75913 2.75177 0
M  V30 14 H -1.618 3.39488 1.38359 0
M  V30 15 H -1.97 3.23193 3.85429 0
M  V30 16 H -2.27 4.88587 3.26429 0
M  V30 17 H -0.746 4.50909 4.1172 0
M  V30 18 H 0.668 5.36751 2.01422 0
M  V30 19 H -0.935 5.84022 1.37978 0
M  V30 20 H 0.135 4.83349 0.387506 0
M  V30 21 N 1.4781 -0.272755 1.55222 0
M  V30 22 C 2.7271 -1.00211 1.75045 0
M  V30 23 C 3.0401 -1.87441 0.559046 0
M  V30 24 O 4.2461 -2.63856 0.639698 0
M  V30 25 C 2.7021 -1.83165 3.09804 0
M  V30 26 C 2.3101 -1.008 4.36513 0
M  V30 27 C 4.0541 -2.55529 3.38977 0
M  V30 28 C 1.9611 -1.83194 5.62311 0
M  V30 29 H 0.8911 -0.377878 0.652476 0
M  V30 30 H 3.5421 -0.257776 1.8168 0
M  V30 31 H 1.9241 -2.61694 2.97207 0
M  V30 32 H 3.0981 -0.266855 4.60027 0
M  V30 33 H 1.4131 -0.398897 4.14485 0
M  V30 34 H 4.0101 -3.17578 4.30172 0
M  V30 35 H 4.3531 -3.25825 2.59121 0
M  V30 36 H 4.8861 -1.84029 3.52673 0
M  V30 37 H 1.6251 -1.17318 6.44916 0
M  V30 38 H 1.1451 -2.54905 5.4294 0
M  V30 39 H 2.8241 -2.40552 6.00619 0
M  V30 40 N 2.9562 -1.48159 -0.537278 0
M  V30 41 C 4.2332 -1.46291 -1.29839 0
M  V30 42 C 4.6132 -0.170613 -2.10409 0
M  V30 43 O 3.9612 0.847746 -2.12192 0
M  V30 44 C 4.1712 -2.72055 -2.18603 0
M  V30 45 C 5.5192 -3.20087 -2.7898 0
M  V30 46 O 6.5432 -2.72921 -2.28894 0
M  V30 47 O 5.4022 -4.02138 -3.70064 0
M  V30 48 H 2.4962 -0.583906 -0.585647 0
M  V30 49 H 5.0422 -1.60384 -0.554534 0
M  V30 50 H 3.8142 -3.57628 -1.58801 0
M  V30 51 H 3.4372 -2.60646 -3.00249 0
M  V30 52 N 4.4343 0.785586 -1.36625 0
M  V30 53 C 5.6823 1.54057 -1.30808 0
M  V30 54 C 6.0033 1.94683 0.111157 0
M  V30 55 O 5.2733 1.65241 1.05224 0
M  V30 56 H 3.8533 0.571354 -0.481211 0
M  V30 57 H 6.5153 0.935821 -1.70963 0
M  V30 58 H 5.6113 2.44637 -1.93801 0
M  V30 59 N 5.9124 1.20967 1.01018 0
M  V30 60 C 6.8594 0.964281 2.09691 0
M  V30 61 C 7.8294 -0.107853 1.65749 0
M  V30 62 O 9.0144 0.0381987 1.90762 0
M  V30 63 C 6.1544 0.52943 3.41015 0
M  V30 64 C 5.2674 1.67043 3.98398 0
M  V30 65 C 4.4024 1.18525 5.17808 0
M  V30 66 C 3.4414 2.29892 5.67288 0
M  V30 67 N 2.5784 1.82546 6.77954 0
M  V30 68 H 7.4184 1.89463 2.30017 0
M  V30 69 H 4.9554 0.944289 1.1279 0
M  V30 70 H 6.9134 0.258588 4.16398 0
M  V30 71 H 5.5434 -0.363919 3.20742 0
M  V30 72 H 4.5954 2.05603 3.20049 0
M  V30 73 H 5.9074 2.50877 4.31117 0
M  V30 74 H 5.0614 0.870762 6.00419 0
M  V30 75 H 3.8004 0.316887 4.86669 0
M  V30 76 H 2.8054 2.6215 4.83278 0
M  V30 77 H 4.0304 3.17216 6.00459 0
M  V30 78 H 1.9764 0.980454 6.48632 0
M  V30 79 H 1.8934 2.59956 7.09901 0
M  V30 80 H 3.1614 1.54115 7.64113 0
M  V30 81 N 7.3905 -1.2043 1.01659 0
M  V30 82 C 8.3235 -2.21924 0.531521 0
M  V30 83 C 9.3015 -1.57054 -0.421032 0
M  V30 84 O 10.4855 -1.85389 -0.341035 0
M  V30 85 C 7.6125 -3.37942 -0.226496 0
M  V30 86 C 6.6585 -4.21115 0.67561 0
M  V30 87 S 7.4915 -4.90674 2.14475 0
M  V30 88 C 8.6475 -6.10113 1.3969 0
M  V30 89 H 8.8805 -2.62725 1.3915 0
M  V30 90 H 6.4135 -1.30481 0.825479 0
M  V30 91 H 8.3715 -4.05196 -0.657738 0
M  V30 92 H 7.0325 -2.956 -1.06205 0
M  V30 93 H 6.2255 -5.03918 0.091108 0
M  V30 94 H 5.8275 -3.59115 1.04463 0
M  V30 95 H 8.1195 -6.7411 0.676897 0
M  V30 96 H 9.0625 -6.73022 2.20107 0
M  V30 97 H 9.4705 -5.57283 0.899786 0
M  V30 98 N 8.8686 -0.792821 -1.36206 0
M  V30 99 C 10.0966 -0.378825 -2.03402 0
M  V30 100 C 10.5116 1.00586 -1.59774 0
M  V30 101 O 9.8686 1.64574 -0.788764 0
M  V30 102 C 9.9196 -0.43683 -3.58851 0
M  V30 103 O 9.6406 -1.76691 -4.00889 0
M  V30 104 C 11.1416 -0.0138943 -4.43298 0
M  V30 105 H 8.3616 -0.155673 -0.652692 0
M  V30 106 H 10.9056 -1.07261 -1.74113 0
M  V30 107 H 9.0606 0.208575 -3.86838 0
M  V30 108 H 9.4746 -1.72011 -4.95492 0
M  V30 109 H 10.9486 -0.105615 -5.51899 0
M  V30 110 H 11.4256 1.03915 -4.2673 0
M  V30 111 H 12.0316 -0.63192 -4.20579 0
M  V30 112 N 10.3467 1.47872 -0.545128 0
M  V30 113 C 11.7627 1.5829 -0.204032 0
M  V30 114 C 11.9627 1.54529 1.29317 0
M  V30 115 O 11.0187 1.44232 2.07252 0
M  V30 116 C 12.3317 2.89304 -0.819987 0
M  V30 117 C 13.8797 3.02864 -0.790105 0
M  V30 118 C 14.3547 4.3656 -1.38491 0
M  V30 119 N 15.8457 4.43165 -1.34755 0
M  V30 120 C 16.5807 5.45153 -1.77753 0
M  V30 121 N 16.0767 6.54016 -2.2855 0
M  V30 122 N 17.8697 5.36125 -1.68897 0
M  V30 123 H 10.0207 1.4856 -1.51802 0
M  V30 124 H 12.2837 0.706305 -0.632327 0
M  V30 125 H 11.9897 2.97757 -1.87173 0
M  V30 126 H 11.8637 3.75957 -0.305915 0
M  V30 127 H 14.2507 2.94014 0.252913 0
M  V30 128 H 14.3317 2.17782 -1.34181 0
M  V30 129 H 13.9757 4.46164 -2.42693 0
M  V30 130 H 13.9057 5.20353 -0.808754 0
M  V30 131 H 16.3967 3.65083 -0.975855 0
M  V30 132 H 16.7097 7.27994 -2.59314 0
M  V30 133 H 15.0547 6.54938 -2.32553 0
M  V30 134 H 18.2457 4.49975 -1.28998 0
M  V30 135 H 18.4187 6.15472 -2.02726 0
M  V30 136 N 11.8248 0.280983 1.55075 0
M  V30 137 C 13.2408 -0.0729964 1.59433 0
M  V30 138 C 13.4408 -1.5411 1.29817 0
M  V30 139 O 12.4968 -2.29086 1.06187 0
M  V30 140 C 13.8098 0.306921 2.9913 0
M  V30 141 C 15.3578 0.254023 3.11968 0
M  V30 142 C 15.8328 0.608467 4.5394 0
M  V30 143 N 17.3238 0.560241 4.59799 0
M  V30 144 C 18.0588 0.80722 5.6769 0
M  V30 145 N 17.5548 1.11912 6.83701 0
M  V30 146 N 19.3478 0.735623 5.57266 0
M  V30 147 H 11.4988 1.238 1.7259 0
M  V30 148 H 13.7618 0.500547 0.805082 0
M  V30 149 H 13.4678 1.32816 3.25657 0
M  V30 150 H 13.3418 -0.349363 3.75579 0
M  V30 151 H 15.7288 -0.75794 2.852 0
M  V30 152 H 15.8098 0.944649 2.37718 0
M  V30 153 H 15.4538 1.61814 4.81434 0
M  V30 154 H 15.3838 -0.104013 5.26497 0
M  V30 155 H 17.8748 0.329288 3.76463 0
M  V30 156 H 18.1878 1.29409 7.61888 0
M  V30 157 H 16.5328 1.15695 6.85303 0
M  V30 158 H 19.7238 0.491752 4.6551 0
M  V30 159 H 19.8968 0.931482 6.4127 0
M  V30 160 N 13.3029 -1.57598 0.00835791 0
M  V30 161 C 14.5509 -1.90551 -0.6734 0
M  V30 162 C 14.8719 -0.883301 -1.73847 0
M  V30 163 O 14.1419 0.0781442 -1.95744 0
M  V30 164 H 12.7219 -0.703312 -0.251717 0
M  V30 165 H 15.3839 -1.94833 0.0512592 0
M  V30 166 H 14.4799 -2.9056 -1.13935 0
M  V30 167 N 14.781 0.264519 -1.55364 0
M  V30 168 C 16.058 1.01677 -1.67096 0
M  V30 169 C 16.438 2.03996 -0.543015 0
M  V30 170 O 15.786 2.23907 0.45585 0
M  V30 171 C 15.996 1.66596 -3.0667 0
M  V30 172 C 17.344 2.17442 -3.64697 0
M  V30 173 O 18.368 1.76568 -3.09358 0
M  V30 174 O 17.227 2.92439 -4.61673 0
M  V30 175 H 14.321 0.472161 -0.678965 0
M  V30 176 H 16.867 0.259703 -1.67701 0
M  V30 177 H 15.639 0.924962 -3.80211 0
M  V30 178 H 15.262 2.48968 -3.10001 0
M  V30 179 N 16.2591 1.48442 0.529413 0
M  V30 180 C 17.4841 1.60406 1.31471 0
M  V30 181 C 17.9091 0.264738 1.86228 0
M  V30 182 O 17.2671 -0.763668 1.64432 0
M  V30 183 C 17.3151 2.65419 2.44101 0
M  V30 184 O 16.4191 2.22618 3.47153 0
M  V30 185 H 15.7601 0.537863 0.389357 0
M  V30 186 H 18.2901 1.94432 0.636965 0
M  V30 187 H 18.3001 2.86709 2.90279 0
M  V30 188 H 16.9751 3.62652 2.03608 0
M  V30 189 H 15.5521 2.11543 3.0709 0
M  V30 190 N 17.7372 -0.778329 1.37039 0
M  V30 191 C 19.1482 -1.35421 1.28523 0
M  V30 192 C 19.4992 -1.96075 -0.0700901 0
M  V30 193 O 18.6242 -1.93352 -0.971801 0
M  V30 194 C 19.2192 -2.46211 2.32735 0
M  V30 195 C 17.7782 -2.99585 2.27873 0
M  V30 196 C 16.9252 -1.72748 2.16918 0
M  V30 197 H 19.8762 -0.5791 1.47757 0
M  V30 198 H 19.8972 -3.2552 1.9702 0
M  V30 199 H 19.4092 -2.02036 3.31365 0
M  V30 200 H 17.5102 -3.48152 1.32745 0
M  V30 201 H 17.6232 -3.55646 3.21018 0
M  V30 202 H 15.9872 -1.95416 1.63354 0
M  V30 203 H 16.7702 -1.30686 3.17452 0
M  V30 204 N 19.2153 -1.21501 -1.00376 0
M  V30 205 C 20.4613 -1.04457 -1.74529 0
M  V30 206 C 20.8163 0.417386 -1.87818 0
M  V30 207 O 20.1093 1.30556 -1.40234 0
M  V30 208 C 20.3033 -1.67673 -3.15627 0
M  V30 209 C 20.1323 -3.19865 -3.16096 0
M  V30 210 C 18.9023 -3.88915 -3.22604 0
M  V30 211 C 21.1003 -4.16936 -3.01112 0
M  V30 212 N 19.0823 -5.28284 -3.12712 0
M  V30 213 C 20.4533 -5.43066 -2.99131 0
M  V30 214 C 22.5083 -4.07968 -2.85423 0
M  V30 215 C 21.2113 -6.6126 -2.83068 0
M  V30 216 C 23.2373 -5.258 -2.70718 0
M  V30 217 C 22.5993 -6.50842 -2.69414 0
M  V30 218 H 18.6983 -0.436584 -0.648782 0
M  V30 219 H 21.2823 -1.53875 -1.19293 0
M  V30 220 H 19.4533 -1.20822 -3.6913 0
M  V30 221 H 21.1853 -1.43824 -3.78281 0
M  V30 222 H 17.9403 -3.39847 -3.2985 0
M  V30 223 H 18.3643 -6.01284 -3.11105 0
M  V30 224 H 23.0063 -3.1209 -2.85236 0
M  V30 225 H 20.7243 -7.57298 -2.82002 0
M  V30 226 H 24.3103 -5.20683 -2.59577 0
M  V30 227 H 23.1903 -7.40485 -2.5817 0
M  V30 228 N 20.6934 1.19889 -1.02296 0
M  V30 229 C 21.6254 2.22334 -0.556787 0
M  V30 230 C 22.6384 1.58674 0.364199 0
M  V30 231 O 23.8274 1.77768 0.161533 0
M  V30 232 C 20.9274 3.38257 0.208694 0
M  V30 233 C 20.1004 4.31504 -0.71577 0
M  V30 234 C 19.1594 5.262 0.00325597 0
M  V30 235 O 18.1854 5.65798 -0.621357 0
M  V30 236 N 19.3874 5.66303 1.27599 0
M  V30 237 H 22.1524 2.62957 -1.43784 0
M  V30 238 H 19.7134 1.34495 -0.901261 0
M  V30 239 H 21.7054 3.98616 0.699111 0
M  V30 240 H 20.2754 2.96472 0.991102 0
M  V30 241 H 19.4954 3.69016 -1.38638 0
M  V30 242 H 20.7834 4.9072 -1.34428 0
M  V30 243 H 20.1814 5.36155 1.80429 0
M  V30 244 H 18.7384 6.28942 1.71102 0
M  V30 245 N 22.1715 0.800033 1.35784 0
M  V30 246 C 23.4175 0.377901 1.99248 0
M  V30 247 C 23.7505 -1.05052 1.63333 0
M  V30 248 O 23.0255 -1.72768 0.893385 0
M  V30 249 C 23.3085 0.553922 3.55814 0
M  V30 250 C 23.1615 2.0268 4.01548 0
M  V30 251 C 24.4805 -0.0244802 4.40093 0
M  V30 252 H 21.5995 0.138782 0.723815 0
M  V30 253 H 24.2415 1.00835 1.61035 0
M  V30 254 H 22.3915 0.0172398 3.88496 0
M  V30 255 H 24.0635 2.62536 3.79305 0
M  V30 256 H 22.3065 2.5256 3.52698 0
M  V30 257 H 22.9775 2.10087 5.10458 0
M  V30 258 H 25.4535 0.433775 4.13833 0
M  V30 259 H 24.3295 0.128637 5.48749 0
M  V30 260 H 24.5905 -1.11758 4.27741 0
M  V30 261 N 23.6496 -1.47581 0.552962 0
M  V30 262 C 24.8956 -2.02782 0.0273648 0
M  V30 263 C 25.2286 -1.42687 -1.31734 0
M  V30 264 O 24.5036 -0.580897 -1.85623 0
M  V30 265 C 24.7866 -3.60031 -0.0702371 0
M  V30 266 C 24.6396 -4.30566 1.30126 0
M  V30 267 C 25.9586 -4.33028 -0.785771 0
M  V30 268 H 23.0776 -0.736912 0.0114185 0
M  V30 269 H 25.7196 -1.76056 0.714432 0
M  V30 270 H 23.8696 -3.82932 -0.655382 0
M  V30 271 H 25.5416 -4.19018 1.92929 0
M  V30 272 H 23.7846 -3.91086 1.87709 0
M  V30 273 H 24.4556 -5.39114 1.18573 0
M  V30 274 H 26.9316 -4.15095 -0.288982 0
M  V30 275 H 25.8076 -5.42695 -0.823013 0
M  V30 276 H 26.0686 -4.01945 -1.841 0
M  V30 277 N 25.1277 -0.289203 -1.54924 0
M  V30 278 C 26.0577 0.58549 -2.2604 0
M  V30 279 C 27.0387 1.14753 -1.25562 0
M  V30 280 O 28.2237 1.17906 -1.54311 0
M  V30 281 C 25.3537 1.76305 -2.99222 0
M  V30 282 C 24.3077 1.33191 -4.06748 0
M  V30 283 C 23.6337 2.5937 -4.6758 0
M  V30 284 C 24.9337 0.471775 -5.20165 0
M  V30 285 H 26.6277 -0.00763532 -2.99399 0
M  V30 286 H 24.1737 -0.00511229 -1.43999 0
M  V30 287 H 26.1267 2.38097 -3.47689 0
M  V30 288 H 24.8507 2.38223 -2.23422 0
M  V30 289 H 23.5097 0.737121 -3.59113 0
M  V30 290 H 23.1577 3.19576 -3.88433 0
M  V30 291 H 22.8577 2.31228 -5.40192 0
M  V30 292 H 24.3817 3.21985 -5.18804 0
M  V30 293 H 25.7957 0.995056 -5.64599 0
M  V30 294 H 24.1927 0.284639 -5.99425 0
M  V30 295 H 25.2627 -0.506041 -4.82252 0
M  V30 296 N 26.6058 1.57591 -0.0167156 0
M  V30 297 C 27.5358 2.12496 0.967858 0
M  V30 298 C 28.5168 1.03807 1.34752 0
M  V30 299 O 29.7018 1.31577 1.42833 0
M  V30 300 C 26.8318 2.64194 2.25431 0
M  V30 301 C 25.7858 3.77559 2.01576 0
M  V30 302 C 25.1118 4.15636 3.36379 0
M  V30 303 C 26.4118 5.04151 1.36489 0
M  V30 304 H 28.1058 2.95013 0.510643 0
M  V30 305 H 25.6518 1.41915 0.244181 0
M  V30 306 H 27.6048 3.01236 2.94678 0
M  V30 307 H 26.3288 1.78821 2.73296 0
M  V30 308 H 24.9878 3.40937 1.34751 0
M  V30 309 H 24.6358 3.27263 3.81979 0
M  V30 310 H 24.3358 4.92022 3.21229 0
M  V30 311 H 25.8598 4.5525 4.06915 0
M  V30 312 H 27.2738 5.38857 1.95718 0
M  V30 313 H 25.6708 5.85453 1.31776 0
M  V30 314 H 26.7408 4.83733 0.336219 0
M  V30 315 N 28.0839 -0.256276 1.55502 0
M  V30 316 C 29.3609 -1.00789 1.67633 0
M  V30 317 C 29.7409 -2.03706 0.553826 0
M  V30 318 O 29.0889 -2.24145 -0.443969 0
M  V30 319 C 29.2989 -1.64968 3.07549 0
M  V30 320 C 30.6469 -2.15505 3.65845 0
M  V30 321 O 31.6709 -1.74925 3.1029 0
M  V30 322 O 30.5299 -2.89986 4.63217 0
M  V30 323 H 27.6239 -0.468553 0.681459 0
M  V30 324 H 30.1699 -0.250806 1.67836 0
M  V30 325 H 28.9419 -0.904785 3.80696 0
M  V30 326 H 28.5649 -2.47321 3.11317 0
M  V30 327 N 29.562 -1.4872 -0.521534 0
M  V30 328 C 30.787 -1.61101 -1.30618 0
M  V30 329 C 31.212 -0.274611 -1.86085 0
M  V30 330 O 30.57 0.754937 -1.64834 0
M  V30 331 C 30.618 -2.66709 -2.4269 0
M  V30 332 O 29.722 -2.24456 -3.45967 0
M  V30 333 H 29.063 -0.539921 -0.386499 0
M  V30 334 H 31.593 -1.94767 -0.626645 0
M  V30 335 H 31.603 -2.88245 -2.88754 0
M  V30 336 H 30.278 -3.63727 -2.01682 0
M  V30 337 H 28.855 -2.13168 -3.05964 0
M  V30 338 N 31.0401 0.771051 -1.3745 0
M  V30 339 C 31.9871 1.88435 -1.3327 0
M  V30 340 C 32.9571 1.64914 -0.198136 0
M  V30 341 O 34.1421 1.86821 -0.387606 0
M  V30 342 C 31.2821 3.25509 -1.14622 0
M  V30 343 C 30.3951 3.60979 -2.37314 0
M  V30 344 C 29.5301 4.87265 -2.11533 0
M  V30 345 C 28.5691 5.15469 -3.30088 0
M  V30 346 N 27.7061 6.32944 -3.03853 0
M  V30 347 H 32.5461 1.91344 -2.28455 0
M  V30 348 H 30.0831 0.935466 -1.13523 0
M  V30 349 H 32.0411 4.04582 -1.01831 0
M  V30 350 H 30.6711 3.21974 -0.230837 0
M  V30 351 H 29.7231 2.76885 -2.60842 0
M  V30 352 H 31.0351 3.77759 -3.25729 0
M  V30 353 H 30.1891 5.74244 -1.95777 0
M  V30 354 H 28.9281 4.7259 -1.20457 0
M  V30 355 H 27.9331 4.26966 -3.46382 0
M  V30 356 H 29.1581 5.32052 -4.22016 0
M  V30 357 H 27.1041 6.19625 -2.15407 0
M  V30 358 H 27.0211 6.50143 -3.85812 0
M  V30 359 H 28.2891 7.22857 -2.91716 0
M  V30 360 N 32.5182 1.22032 0.997298 0
M  V30 361 C 33.4652 0.986467 2.08656 0
M  V30 362 C 34.4352 -0.0902671 1.65855 0
M  V30 363 O 35.6202 0.0584294 1.90711 0
M  V30 364 C 32.7602 0.565569 3.40434 0
M  V30 365 C 31.8732 1.71259 3.96604 0
M  V30 366 C 31.0082 1.24011 5.16522 0
M  V30 367 C 30.0472 2.35896 5.64818 0
M  V30 368 N 29.1842 1.89726 6.7598 0
M  V30 369 H 34.0242 1.91892 2.27994 0
M  V30 370 H 31.5612 0.956199 1.11782 0
M  V30 371 H 33.5192 0.302738 4.161 0
M  V30 372 H 32.1492 -0.329879 3.2111 0
M  V30 373 H 31.2012 2.08986 3.17851 0
M  V30 374 H 32.5132 2.55436 4.28432 0
M  V30 375 H 31.6672 0.934395 5.99461 0
M  V30 376 H 30.4062 0.368487 4.86306 0
M  V30 377 H 29.4112 2.67261 4.8047 0
M  V30 378 H 30.6362 3.23567 5.97061 0
M  V30 379 H 28.5822 1.0492 6.47555 0
M  V30 380 H 28.4992 2.67471 7.07103 0
M  V30 381 H 29.7672 1.62211 7.62435 0
M  V30 382 N 33.9963 -1.19345 1.0293 0
M  V30 383 C 34.9433 -2.2258 0.610464 0
M  V30 384 C 35.9133 -1.6179 -0.375946 0
M  V30 385 O 37.0983 -1.88844 -0.272511 0
M  V30 386 C 34.2383 -3.45085 -0.0321473 0
M  V30 387 C 33.3513 -4.20258 1.00035 0
M  V30 388 C 32.4863 -5.3019 0.32746 0
M  V30 389 C 31.5253 -5.97121 1.34584 0
M  V30 390 N 30.6623 -6.98615 0.698726 0
M  V30 391 H 35.5023 -2.57764 1.49538 0
M  V30 392 H 33.0393 -1.26644 0.748311 0
M  V30 393 H 34.9973 -4.15061 -0.421966 0
M  V30 394 H 33.6273 -3.10555 -0.88064 0
M  V30 395 H 32.6793 -3.49223 1.50823 0
M  V30 396 H 33.9913 -4.66175 1.77433 0
M  V30 397 H 33.1453 -6.06587 -0.11718 0
M  V30 398 H 31.8843 -4.85345 -0.478713 0
M  V30 399 H 30.8893 -5.19474 1.80074 0
M  V30 400 H 32.1143 -6.4405 2.15352 0
M  V30 401 H 30.0603 -6.55942 -0.0873471 0
M  V30 402 H 29.9773 -7.42724 1.41058 0
M  V30 403 H 31.2453 -7.79004 0.278102 0
M  V30 404 N 35.4744 -0.807222 -1.35358 0
M  V30 405 C 36.4044 -0.232509 -2.3234 0
M  V30 406 C 37.3854 0.642386 -1.57504 0
M  V30 407 O 38.5704 0.572526 -1.85569 0
M  V30 408 C 35.7004 0.619238 -3.41735 0
M  V30 409 C 34.6544 -0.157215 -4.27711 0
M  V30 410 C 33.9804 0.816273 -5.28433 0
M  V30 411 C 35.2804 -1.35656 -5.04376 0
M  V30 412 H 36.9744 -1.04276 -2.80654 0
M  V30 413 H 34.5204 -0.50288 -1.34934 0
M  V30 414 H 36.4734 1.03137 -4.08584 0
M  V30 415 H 35.1974 1.46239 -2.92031 0
M  V30 416 H 33.8564 -0.550525 -3.62443 0
M  V30 417 H 33.5044 1.65494 -4.74996 0
M  V30 418 H 33.2044 0.301067 -5.86828 0
M  V30 419 H 34.7284 1.22659 -5.98153 0
M  V30 420 H 36.1424 -1.01927 -5.64166 0
M  V30 421 H 34.5394 -1.8063 -5.7227 0
M  V30 422 H 35.6094 -2.14288 -4.34981 0
M  V30 423 N 36.9525 1.47285 -0.560781 0
M  V30 424 C 37.9155 2.28535 0.174488 0
M  V30 425 C 38.9155 1.37153 0.839388 0
M  V30 426 O 40.1055 1.59748 0.694702 0
M  V30 427 C 37.2375 3.16934 1.25561 0
M  V30 428 H 38.4305 2.95012 -0.539262 0
M  V30 429 H 35.9835 1.53034 -0.317865 0
M  V30 430 H 36.7185 2.55157 2.00164 0
M  V30 431 H 36.5035 3.8419 0.783604 0
M  V30 432 H 37.9935 3.78143 1.77193 0
M  V30 433 N 38.4306 0.297415 1.54768 0
M  V30 434 C 39.6706 -0.313829 2.01976 0
M  V30 435 C 40.0346 -1.51366 1.1812 0
M  V30 436 O 41.2356 -2.19603 1.5501 0
M  V30 437 C 39.5066 -0.664964 3.51159 0
M  V30 438 S 41.0656 -1.25958 4.20333 0
M  V30 439 H 37.8836 -0.0965014 0.704421 0
M  V30 440 H 40.4856 0.424451 1.90837 0
M  V30 441 H 39.1896 0.21681 4.09827 0
M  V30 442 H 38.7206 -1.43413 3.66328 0
M  V30 443 H 40.7356 -2.54751 4.25813 0
M  V30 444 N 39.9087 -1.5758 0.0250728 0
M  V30 445 C 41.1567 -1.91255 -0.653151 0
M  V30 446 C 41.4777 -0.901691 -1.729 0
M  V30 447 O 40.7477 0.0573785 -1.95816 0
M  V30 448 H 39.3277 -0.705942 -0.244243 0
M  V30 449 H 41.9897 -1.94767 0.0719209 0
M  V30 450 H 41.0857 -2.91752 -1.10847 0
M  V30 451 N 41.3868 0.248026 -1.55636 0
M  V30 452 C 42.3498 1.29044 -1.89421 0
M  V30 453 C 43.3498 1.41134 -0.770581 0
M  V30 454 O 44.5398 1.39854 -1.03858 0
M  V30 455 C 41.6718 2.66831 -2.12165 0
M  V30 456 H 42.8648 1.00305 -2.82629 0
M  V30 457 H 40.4178 0.487265 -1.48511 0
M  V30 458 H 41.1528 3.00711 -1.21422 0
M  V30 459 H 40.9378 2.59438 -2.93997 0
M  V30 460 H 42.4278 3.42103 -2.3949 0
M  V30 461 N 42.8649 1.48995 0.513639 0
M  V30 462 C 44.1109 1.58076 1.27042 0
M  V30 463 C 44.4439 0.261026 1.92438 0
M  V30 464 O 43.7189 -0.734393 1.80103 0
M  V30 465 C 44.0019 2.73091 2.34719 0
M  V30 466 C 43.8549 4.14821 1.73907 0
M  V30 467 C 45.1739 2.83796 3.36375 0
M  V30 468 H 42.2929 0.575391 0.460536 0
M  V30 469 H 44.9349 1.81232 0.570516 0
M  V30 470 H 43.0849 2.53479 2.94416 0
M  V30 471 H 44.7569 4.45917 1.18135 0
M  V30 472 H 42.9999 4.21058 1.0437 0
M  V30 473 H 43.6709 4.91147 2.51949 0
M  V30 474 H 46.1469 3.01611 2.86653 0
M  V30 475 H 45.0229 3.65971 4.09093 0
M  V30 476 H 45.2839 1.92624 3.9793 0
M  V30 477 N 44.343 -0.763751 1.37857 0
M  V30 478 C 45.273 -1.89103 1.36975 0
M  V30 479 C 46.254 -1.68439 0.237152 0
M  V30 480 O 47.439 -1.8918 0.438713 0
M  V30 481 C 44.569 -3.26496 1.18395 0
M  V30 482 C 43.523 -3.61741 2.28751 0
M  V30 483 C 42.849 -4.97762 1.95286 0
M  V30 484 C 44.149 -3.67665 3.70972 0
M  V30 485 H 45.843 -1.90099 2.31307 0
M  V30 486 H 43.389 -0.91319 1.11341 0
M  V30 487 H 45.342 -4.05003 1.16406 0
M  V30 488 H 44.066 -3.25955 0.205215 0
M  V30 489 H 42.725 -2.85547 2.29909 0
M  V30 490 H 42.373 -4.93769 0.959221 0
M  V30 491 H 42.073 -5.22313 2.69189 0
M  V30 492 H 43.597 -5.7866 1.94898 0
M  V30 493 H 45.011 -4.36307 3.719 0
M  V30 494 H 43.408 -4.03718 4.43995 0
M  V30 495 H 44.478 -2.68134 4.0402 0
M  V30 496 N 45.8211 -1.22559 -0.990812 0
M  V30 497 C 47.0701 -1.04553 -1.72486 0
M  V30 498 C 47.3831 0.419349 -1.91052 0
M  V30 499 O 48.5891 0.719121 -2.61803 0
M  V30 500 C 47.0451 -1.82231 -3.10355 0
M  V30 501 C 46.6531 -3.32981 -2.99713 0
M  V30 502 C 48.3971 -1.7268 -3.87791 0
M  V30 503 C 46.3041 -4.03091 -4.32748 0
M  V30 504 H 45.2341 -0.387614 -0.646739 0
M  V30 505 H 47.8851 -1.46429 -1.10593 0
M  V30 506 H 46.2671 -1.33155 -3.72942 0
M  V30 507 H 47.4411 -3.89466 -2.46278 0
M  V30 508 H 45.7561 -3.43231 -2.35758 0
M  V30 509 H 48.3531 -2.22381 -4.86262 0
M  V30 510 H 48.6961 -0.687607 -4.10582 0
M  V30 511 H 49.2291 -2.1931 -3.31885 0
M  V30 512 H 45.9681 -5.07273 -4.15156 0
M  V30 513 H 45.4881 -3.51394 -4.86089 0
M  V30 514 H 47.1671 -4.08804 -5.01486 0
M  V30 515 N 47.2992 1.18797 -1.03562 0
M  V30 516 C 48.2492 2.20161 -0.592724 0
M  V30 517 C 49.2332 1.56772 0.362133 0
M  V30 518 O 50.4252 1.76062 0.182009 0
M  V30 519 C 47.5542 3.43266 0.0481024 0
M  V30 520 C 46.6402 4.13786 -0.9296 0
M  V30 521 N 47.0312 4.60388 -2.09467 0
M  V30 522 C 45.3292 4.39572 -0.754499 0
M  V30 523 C 46.0302 5.14619 -2.71187 0
M  V30 524 N 45.0062 5.05826 -1.991 0
M  V30 525 H 48.8082 2.53877 -1.48066 0
M  V30 526 H 46.3222 1.34946 -0.903514 0
M  V30 527 H 48.3192 4.15136 0.383058 0
M  V30 528 H 46.9792 3.11048 0.931636 0
M  V30 529 H 47.9902 4.54999 -2.47379 0
M  V30 530 H 44.6672 4.17425 0.0793713 0
M  V30 531 H 46.0572 5.60917 -3.69895 0
M  V30 532 N 48.7773 0.814389 1.34928 0
M  V30 533 C 50.1883 0.458364 1.80986 0
M  V30 534 C 50.5393 -1.02042 1.67577 0
M  V30 535 O 49.6643 -1.79352 1.21086 0
M  V30 536 C 50.2593 0.825212 3.28597 0
M  V30 537 C 48.8183 0.521677 3.72767 0
M  V30 538 C 47.9653 1.04668 2.56788 0
M  V30 539 H 50.9163 1.00533 1.22795 0
M  V30 540 H 50.9373 0.12571 3.80292 0
M  V30 541 H 50.4493 1.90154 3.38324 0
M  V30 542 H 48.5503 -0.545589 3.68584 0
M  V30 543 H 48.6633 1.05977 4.67232 0
M  V30 544 H 47.0273 0.468622 2.50352 0
M  V30 545 H 47.8103 2.12927 2.6929 0
M  V30 546 N 50.2554 -1.46986 0.568584 0
M  V30 547 C 51.4804 -2.07335 0.0520528 0
M  V30 548 C 51.9054 -1.41675 -1.23733 0
M  V30 549 O 51.2634 -0.495623 -1.74394 0
M  V30 550 C 51.3114 -3.60417 -0.11501 0
M  V30 551 O 50.4154 -3.95309 -1.17492 0
M  V30 552 H 49.7564 -0.661597 0.0564385 0
M  V30 553 H 52.2864 -1.88837 0.787507 0
M  V30 554 H 52.2964 -4.06698 -0.325644 0
M  V30 555 H 50.9714 -4.07601 0.826675 0
M  V30 556 H 49.5484 -3.60757 -0.943869 0
M  V30 557 N 51.7335 -0.305618 -1.54608 0
M  V30 558 C 52.9795 0.295595 -2.01241 0
M  V30 559 C 53.3345 1.51171 -1.19018 0
M  V30 560 O 52.6275 1.89832 -0.259684 0
M  V30 561 C 52.8215 0.698983 -3.50498 0
M  V30 562 C 52.6505 -0.476491 -4.47168 0
M  V30 563 C 51.4205 -0.969963 -4.95903 0
M  V30 564 C 53.6185 -1.32294 -4.96994 0
M  V30 565 N 51.6005 -2.11172 -5.76437 0
M  V30 566 C 52.9715 -2.31212 -5.75275 0
M  V30 567 C 55.0265 -1.35278 -4.7917 0
M  V30 568 C 53.7295 -3.32896 -6.37631 0
M  V30 569 C 55.7555 -2.35823 -5.42348 0
M  V30 570 C 55.1175 -3.33469 -6.20466 0
M  V30 571 H 51.2165 0.0724992 -0.778632 0
M  V30 572 H 53.8005 -0.436583 -1.89742 0
M  V30 573 H 51.9715 1.40032 -3.62278 0
M  V30 574 H 53.7035 1.28013 -3.8392 0
M  V30 575 H 50.4585 -0.544178 -4.70463 0
M  V30 576 H 50.8825 -2.68714 -6.21387 0
M  V30 577 H 55.5245 -0.61157 -4.18354 0
M  V30 578 H 53.2425 -4.07933 -6.97579 0
M  V30 579 H 56.8285 -2.38911 -5.30484 0
M  V30 580 H 55.7085 -4.09996 -6.68485 0
M  V30 581 N 53.2116 1.57565 -0.0334293 0
M  V30 582 C 54.4576 1.92262 0.645226 0
M  V30 583 C 54.7906 0.910543 1.71531 0
M  V30 584 O 54.0656 -0.066099 1.94388 0
M  V30 585 C 54.3486 3.37422 1.2577 0
M  V30 586 C 54.2016 4.49369 0.196891 0
M  V30 587 C 55.5206 3.82628 2.17449 0
M  V30 588 H 52.6396 0.699171 0.233085 0
M  V30 589 H 55.2816 1.89779 -0.0915694 0
M  V30 590 H 53.4316 3.39669 1.88566 0
M  V30 591 H 55.1036 4.59254 -0.433962 0
M  V30 592 H 53.3466 4.31168 -0.477137 0
M  V30 593 H 54.0176 5.47978 0.665124 0
M  V30 594 H 56.4936 3.82145 1.64634 0
M  V30 595 H 55.3696 4.84883 2.57254 0
M  V30 596 H 55.6306 3.18376 3.0674 0
M  V30 597 N 54.6897 -0.239769 1.55765 0
M  V30 598 C 55.6197 -1.30052 1.9393 0
M  V30 599 C 56.6007 -1.49839 0.805132 0
M  V30 600 O 57.7857 -1.62328 1.06599 0
M  V30 601 C 54.9157 -2.65391 2.2402 0
M  V30 602 C 53.8697 -2.60289 3.39755 0
M  V30 603 C 53.1957 -3.99489 3.55405 0
M  V30 604 C 54.4957 -2.16654 4.75246 0
M  V30 605 H 56.1897 -0.983573 2.82783 0
M  V30 606 H 53.7357 -0.471701 1.36055 0
M  V30 607 H 55.6887 -3.3974 2.49308 0
M  V30 608 H 54.4127 -2.98736 1.32 0
M  V30 609 H 53.0717 -1.88398 3.14487 0
M  V30 610 H 52.7197 -4.30112 2.60793 0
M  V30 611 H 52.4197 -3.96962 4.33238 0
M  V30 612 H 53.9437 -4.75528 3.83022 0
M  V30 613 H 55.3577 -2.80737 4.99859 0
M  V30 614 H 53.7547 -2.25223 5.56232 0
M  V30 615 H 54.8247 -1.11835 4.71827 0
M  V30 616 N 56.1678 -1.49265 -0.50573 0
M  V30 617 C 57.3958 -1.62215 -1.28429 0
M  V30 618 C 57.8108 -0.291697 -1.86533 0
M  V30 619 O 57.1678 0.722233 -1.67601 0
M  V30 620 C 57.2188 -2.68735 -2.41793 0
M  V30 621 O 56.9398 -3.96619 -1.86078 0
M  V30 622 C 58.4408 -2.92346 -3.3324 0
M  V30 623 H 55.6608 -0.546239 -0.389697 0
M  V30 624 H 58.2048 -1.95265 -0.607609 0
M  V30 625 H 56.3598 -2.38476 -3.053 0
M  V30 626 H 56.7738 -4.55256 -2.60465 0
M  V30 627 H 58.2478 -3.70623 -4.09075 0
M  V30 628 H 58.7248 -2.02081 -3.89948 0
M  V30 629 H 59.3308 -3.24003 -2.75503 0
M  V30 630 N 57.6459 0.756429 -1.3826 0
M  V30 631 C 58.6089 1.85176 -1.35065 0
M  V30 632 C 59.6089 1.58818 -0.251703 0
M  V30 633 O 60.7989 1.66615 -0.508433 0
M  V30 634 C 57.9309 3.22596 -1.10201 0
M  V30 635 H 59.1239 1.89417 -2.3251 0
M  V30 636 H 56.6769 0.95783 -1.23512 0
M  V30 637 H 57.4119 3.24025 -0.133504 0
M  V30 638 H 57.1969 3.43122 -1.89762 0
M  V30 639 H 58.6869 4.02673 -1.10654 0
M  V30 640 N 59.124 1.23083 0.984299 0
M  V30 641 C 60.087 1.00979 2.05757 0
M  V30 642 C 61.087 -0.0269573 1.60777 0
M  V30 643 O 62.277 0.212403 1.729 0
M  V30 644 C 59.409 0.527072 3.36801 0
M  V30 645 H 60.602 1.9622 2.26799 0
M  V30 646 H 58.155 1.05072 1.15714 0
M  V30 647 H 58.89 -0.429294 3.21446 0
M  V30 648 H 58.675 1.27515 3.70786 0
M  V30 649 H 60.165 0.392942 4.15747 0
M  V30 650 N 60.6021 -1.18246 1.0419 0
M  V30 651 C 61.5521 -2.19843 0.604392 0
M  V30 652 C 62.5361 -1.56962 -0.353814 0
M  V30 653 O 63.7281 -1.76156 -0.17267 0
M  V30 654 C 60.8571 -3.43287 -0.0298975 0
M  V30 655 C 59.9431 -4.13288 0.951531 0
M  V30 656 N 60.3341 -4.59271 2.11906 0
M  V30 657 C 58.6321 -4.39165 0.7778 0
M  V30 658 C 59.3331 -5.13173 2.73912 0
M  V30 659 N 58.3091 -5.04763 2.01779 0
M  V30 660 H 62.1111 -2.53089 1.4941 0
M  V30 661 H 59.6251 -1.34465 0.910658 0
M  V30 662 H 61.6221 -4.15334 -0.361037 0
M  V30 663 H 60.2821 -3.11537 -0.915127 0
M  V30 664 H 61.2931 -4.5368 2.49789 0
M  V30 665 H 57.9701 -4.17461 -0.0572331 0
M  V30 666 H 59.3601 -5.58947 3.72864 0
M  V30 667 N 62.0802 -0.821533 -1.34494 0
M  V30 668 C 63.3202 -0.414785 -2.00147 0
M  V30 669 C 63.6842 1.00299 -1.6372 0
M  V30 670 O 64.8852 1.51255 -2.22206 0
M  V30 671 C 63.1562 -0.609403 -3.52166 0
M  V30 672 S 64.7152 -0.295297 -4.37805 0
M  V30 673 H 61.5332 -0.15679 -0.693497 0
M  V30 674 H 64.1352 -1.06705 -1.63812 0
M  V30 675 H 62.8392 -1.64096 -3.76166 0
M  V30 676 H 62.3702 0.0576414 -3.93358 0
M  V30 677 H 64.3852 0.891531 -4.88125 0
M  V30 678 N 63.5583 1.46682 -0.576371 0
M  V30 679 C 64.4913 2.27243 0.208731 0
M  V30 680 C 65.4693 1.35238 0.902746 0
M  V30 681 O 66.6533 1.64641 0.917904 0
M  V30 682 C 63.7803 3.12802 1.29896 0
M  V30 683 C 62.8263 4.20524 0.711457 0
M  V30 684 S 63.6593 5.33548 -0.456781 0
M  V30 685 C 64.8153 6.22673 0.634798 0
M  V30 686 H 65.0483 2.93484 -0.474838 0
M  V30 687 H 62.5813 1.50069 -0.363118 0
M  V30 688 H 64.5393 3.62661 1.92321 0
M  V30 689 H 63.2003 2.45887 1.95444 0
M  V30 690 H 62.3933 4.80191 1.53076 0
M  V30 691 H 61.9953 3.73645 0.162999 0
M  V30 692 H 64.2873 6.60181 1.52209 0
M  V30 693 H 65.2303 7.0806 0.0750311 0
M  V30 694 H 65.6383 5.56684 0.936092 0
M  V30 695 N 65.0364 0.313813 1.54444 0
M  V30 696 C 66.3134 -0.345447 1.92525 0
M  V30 697 C 66.6934 -1.70667 1.24242 0
M  V30 698 O 66.0414 -2.25273 0.382654 0
M  V30 699 C 66.2514 -0.44737 3.46121 0
M  V30 700 C 67.5994 -0.712238 4.18584 0
M  V30 701 O 68.6234 -0.530678 3.52225 0
M  V30 702 O 67.4824 -1.06183 5.36085 0
M  V30 703 H 64.5764 -0.195407 0.803583 0
M  V30 704 H 67.1224 0.362813 1.65776 0
M  V30 705 H 65.8944 0.509043 3.87975 0
M  V30 706 H 65.5174 -1.20359 3.78945 0
M  V30 707 N 66.5145 -1.57545 0.0417849 0
M  V30 708 C 67.4245 -2.14451 -0.951213 0
M  V30 709 C 68.4405 -1.09992 -1.34825 0
M  V30 710 O 69.6165 -1.42114 -1.42708 0
M  V30 711 C 66.6815 -2.67063 -2.21084 0
M  V30 712 C 65.7425 -3.86284 -1.87304 0
M  V30 713 C 64.9755 -4.36378 -3.07261 0
M  V30 714 O 65.1985 -3.85587 -4.20332 0
M  V30 715 O 64.1325 -5.28077 -2.88822 0
M  V30 716 H 67.9585 -2.99601 -0.497287 0
M  V30 717 H 65.5435 -1.48317 -0.179567 0
M  V30 718 H 67.4255 -3.00914 -2.95006 0
M  V30 719 H 66.1005 -1.84989 -2.65633 0
M  V30 720 H 65.0075 -3.57338 -1.10727 0
M  V30 721 H 66.3405 -4.6956 -1.47562 0
M  V30 722 N 67.9926 0.231505 -1.5589 0
M  V30 723 C 69.2176 0.978689 -1.82856 0
M  V30 724 C 69.6426 1.77559 -0.620846 0
M  V30 725 O 69.0006 1.76119 0.430305 0
M  V30 726 C 69.0486 1.87997 -3.07716 0
M  V30 727 O 68.1526 2.97393 -2.85712 0
M  V30 728 H 67.4936 0.277663 -0.603158 0
M  V30 729 H 70.0236 0.24783 -2.03093 0
M  V30 730 H 70.0336 2.2917 -3.37558 0
M  V30 731 H 68.7086 1.29417 -3.95252 0
M  V30 732 H 67.2856 2.60238 -2.67078 0
M  V30 733 N 69.4707 1.49531 0.497807 0
M  V30 734 C 70.4177 1.66436 1.59899 0
M  V30 735 C 71.3877 0.505793 1.58212 0
M  V30 736 O 72.5727 0.733202 1.7615 0
M  V30 737 C 69.7127 1.7399 2.98029 0
M  V30 738 C 68.8257 3.01172 3.09708 0
M  V30 739 C 67.9607 2.99686 4.38591 0
M  V30 740 C 66.9997 4.21434 4.43914 0
M  V30 741 N 66.1367 4.1784 5.64229 0
M  V30 742 H 70.9767 2.60459 1.44793 0
M  V30 743 H 68.5137 1.29137 0.704423 0
M  V30 744 H 70.4717 1.76352 3.78095 0
M  V30 745 H 69.1017 0.834301 3.11832 0
M  V30 746 H 68.1537 3.08408 2.22685 0
M  V30 747 H 69.4657 3.91165 3.09502 0
M  V30 748 H 68.6197 3.00628 5.2698 0
M  V30 749 H 67.3587 2.07477 4.41367 0
M  V30 750 H 66.3637 4.20733 3.53926 0
M  V30 751 H 67.5887 5.14839 4.42851 0
M  V30 752 H 65.5347 3.28469 5.67841 0
M  V30 753 H 65.4517 5.01571 5.65652 0
M  V30 754 H 66.7197 4.22889 6.54817 0
M  V30 755 N 70.9488 -0.749086 1.3866 0
M  V30 756 C 71.8958 -1.86291 1.36251 0
M  V30 757 C 72.8658 -1.64578 0.224347 0
M  V30 758 O 74.0508 -1.86181 0.417279 0
M  V30 759 C 71.1908 -3.23644 1.19786 0
M  V30 760 C 70.3038 -3.57158 2.43027 0
M  V30 761 C 69.4388 -4.83838 2.19258 0
M  V30 762 C 68.4778 -5.10152 3.38247 0
M  V30 763 N 67.6148 -6.28029 3.13884 0
M  V30 764 H 72.4548 -1.87685 2.3147 0
M  V30 765 H 69.9918 -0.917287 1.14997 0
M  V30 766 H 71.9498 -4.0291 1.08254 0
M  V30 767 H 70.5798 -3.21566 0.282031 0
M  V30 768 H 69.6318 -2.72701 2.65214 0
M  V30 769 H 70.9438 -3.7253 3.31697 0
M  V30 770 H 70.0978 -5.71057 2.04888 0
M  V30 771 H 68.8368 -4.70614 1.2796 0
M  V30 772 H 67.8418 -4.21401 3.53131 0
M  V30 773 H 69.0668 -5.25271 4.30427 0
M  V30 774 H 67.0128 -6.1612 2.25238 0
M  V30 775 H 66.9298 -6.43922 3.96106 0
M  V30 776 H 68.1978 -7.18124 3.03179 0
M  V30 777 N 72.4269 -1.23603 -0.977757 0
M  V30 778 C 73.3569 -1.04401 -2.0886 0
M  V30 779 C 74.3379 0.0399052 -1.70053 0
M  V30 780 O 75.5229 -0.125246 -1.93796 0
M  V30 781 C 72.6529 -0.637269 -3.41403 0
M  V30 782 C 71.6069 -1.66883 -3.94124 0
M  V30 783 C 70.9329 -1.11745 -5.22893 0
M  V30 784 C 72.2329 -3.06247 -4.23096 0
M  V30 785 H 73.9269 -1.97316 -2.25182 0
M  V30 786 H 71.4729 -0.950096 -1.08209 0
M  V30 787 H 73.4259 -0.48998 -4.18542 0
M  V30 788 H 72.1499 0.327557 -3.24953 0
M  V30 789 H 70.8089 -1.80416 -3.19133 0
M  V30 790 H 70.4569 -0.143527 -5.02795 0
M  V30 791 H 70.1569 -1.80672 -5.59134 0
M  V30 792 H 71.6809 -0.982067 -6.02651 0
M  V30 793 H 73.0949 -2.96001 -4.90975 0
M  V30 794 H 71.4919 -3.72436 -4.70544 0
M  V30 795 H 72.5619 -3.55041 -3.30263 0
M  V30 796 N 73.905 1.17692 -1.04816 0
M  V30 797 C 74.835 2.23777 -0.666791 0
M  V30 798 C 75.816 1.66796 0.33361 0
M  V30 799 O 77.001 1.93039 0.212042 0
M  V30 800 C 74.131 3.47281 -0.0367933 0
M  V30 801 C 73.085 4.17059 -0.961546 0
M  V30 802 C 72.411 5.34342 -0.195626 0
M  V30 803 C 73.711 4.69713 -2.28402 0
M  V30 804 H 75.405 2.55933 -1.55367 0
M  V30 805 H 72.951 1.23019 -0.748484 0
M  V30 806 H 74.904 4.20706 0.241775 0
M  V30 807 H 73.628 3.14381 0.885004 0
M  V30 808 H 72.287 3.45541 -1.22462 0
M  V30 809 H 71.935 4.97692 0.728816 0
M  V30 810 H 71.635 5.81966 -0.811775 0
M  V30 811 H 73.159 6.10553 0.0757473 0
M  V30 812 H 74.573 5.34794 -2.06563 0
M  V30 813 H 72.97 5.279 -2.8538 0
M  V30 814 H 74.04 3.86726 -2.92525 0
M  V30 815 N 75.3831 0.828654 1.34056 0
M  V30 816 C 76.6291 0.42008 1.98402 0
M  V30 817 C 76.9621 -1.01564 1.65525 0
M  V30 818 O 76.2371 -1.70834 0.929831 0
M  V30 819 C 76.5201 0.62927 3.54559 0
M  V30 820 C 76.3731 2.11152 3.97159 0
M  V30 821 C 77.6921 0.0688756 4.40046 0
M  V30 822 H 74.8111 0.154104 0.720709 0
M  V30 823 H 77.4531 1.04228 1.5886 0
M  V30 824 H 75.6031 0.0996418 3.88372 0
M  V30 825 H 77.2751 2.70522 3.73651 0
M  V30 826 H 75.5181 2.59985 3.47261 0
M  V30 827 H 76.1891 2.20868 5.05887 0
M  V30 828 H 78.6651 0.521458 4.1282 0
M  V30 829 H 77.5411 0.245006 5.48353 0
M  V30 830 H 77.8021 -1.0266 4.30015 0
M  V30 831 N 76.8612 -1.46375 0.584142 0
M  V30 832 C 78.2772 -1.57694 0.245929 0
M  V30 833 C 78.4772 -1.57903 -1.25175 0
M  V30 834 O 77.5332 -1.49676 -2.03355 0
M  V30 835 C 78.8462 -2.87028 0.896402 0
M  V30 836 C 80.3942 -3.00662 0.870127 0
M  V30 837 C 80.8692 -4.32734 1.50017 0
M  V30 838 N 82.3602 -4.39436 1.46458 0
M  V30 839 C 83.0952 -5.40248 1.92144 0
M  V30 840 N 82.5912 -6.47726 2.4581 0
M  V30 841 N 84.3842 -5.31459 1.83052 0
M  V30 842 H 76.5352 -1.44483 1.55687 0
M  V30 843 H 78.7982 -0.689291 0.650831 0
M  V30 844 H 78.5042 -2.9269 1.95002 0
M  V30 845 H 78.3782 -3.75014 0.405486 0
M  V30 846 H 80.7652 -2.94581 -0.174871 0
M  V30 847 H 80.8462 -2.14148 1.39908 0
M  V30 848 H 80.4902 -4.39573 2.54437 0
M  V30 849 H 80.4202 -5.18025 0.946432 0
M  V30 850 H 82.9112 -3.62367 1.07231 0
M  V30 851 H 83.2242 -7.20863 2.78525 0
M  V30 852 H 81.5692 -6.48542 2.49836 0
M  V30 853 H 84.7602 -4.46396 1.40883 0
M  V30 854 H 84.9332 -6.09881 2.18973 0
M  V30 855 N 78.3393 -0.321999 -1.54275 0
M  V30 856 C 79.2693 0.537411 -2.27231 0
M  V30 857 C 80.2503 1.12064 -1.27968 0
M  V30 858 O 81.4353 1.14606 -1.56777 0
M  V30 859 C 78.5653 1.69919 -3.02894 0
M  V30 860 C 77.5193 1.24534 -4.09482 0
M  V30 861 C 76.8453 2.49394 -4.72977 0
M  V30 862 C 78.1453 0.361335 -5.21049 0
M  V30 863 H 79.8393 -0.0711406 -2.99315 0
M  V30 864 H 77.3853 -0.0356555 -1.43956 0
M  V30 865 H 79.3383 2.30668 -3.52662 0
M  V30 866 H 78.0623 2.33431 -2.28424 0
M  V30 867 H 76.7213 0.660782 -3.60596 0
M  V30 868 H 76.3693 3.11265 -3.95124 0
M  V30 869 H 76.0693 2.19718 -5.44975 0
M  V30 870 H 77.5933 3.10908 -5.25517 0
M  V30 871 H 79.0073 0.875072 -5.66582 0
M  V30 872 H 77.4043 0.157428 -5.99893 0
M  V30 873 H 78.4743 -0.60822 -4.8107 0
M  V30 874 N 79.8174 1.5752 -0.0501392 0
M  V30 875 C 81.0654 1.9227 0.622642 0
M  V30 876 C 81.3864 0.929083 1.71444 0
M  V30 877 O 80.6564 -0.0262186 1.95882 0
M  V30 878 H 79.2364 0.709739 0.232981 0
M  V30 879 H 81.8984 1.94628 -0.102898 0
M  V30 880 H 80.9944 2.93479 1.06191 0
M  V30 881 N 81.2955 -0.223234 1.56011 0
M  V30 882 C 82.2055 -1.29766 1.95443 0
M  V30 883 C 83.2215 -1.51373 0.858028 0
M  V30 884 O 84.3975 -1.64536 1.16146 0
M  V30 885 C 81.4625 -2.62772 2.26167 0
M  V30 886 C 80.5235 -2.49482 3.49367 0
M  V30 887 C 79.7565 -3.76145 3.78616 0
M  V30 888 O 79.9795 -4.79087 3.09568 0
M  V30 889 O 78.9135 -3.73358 4.72109 0
M  V30 890 H 82.7395 -0.99309 2.87004 0
M  V30 891 H 80.3245 -0.425958 1.43199 0
M  V30 892 H 82.2065 -3.41327 2.47131 0
M  V30 893 H 80.8815 -2.92913 1.37781 0
M  V30 894 H 79.7885 -1.69133 3.33684 0
M  V30 895 H 81.1215 -2.2428 4.38131 0
M  V30 896 N 82.7736 -1.49793 -0.48987 0
M  V30 897 C 84.0036 -1.6333 -1.26518 0
M  V30 898 C 84.4116 -0.308392 -1.8667 0
M  V30 899 O 83.7546 0.717512 -1.69108 0
M  V30 900 C 83.8166 -2.6522 -2.4269 0
M  V30 901 C 83.4806 -4.09279 -2.03321 0
M  V30 902 C 84.4776 -4.95738 -1.56652 0
M  V30 903 C 82.1626 -4.55082 -2.12616 0
M  V30 904 C 84.1566 -6.26041 -1.19795 0
M  V30 905 C 81.8436 -5.85396 -1.75371 0
M  V30 906 C 82.8416 -6.707 -1.29036 0
M  V30 907 O 82.5296 -7.98584 -0.92299 0
M  V30 908 H 82.2616 -0.552502 -0.389509 0
M  V30 909 H 84.8156 -1.96642 -0.593381 0
M  V30 910 H 83.0456 -2.27112 -3.12981 0
M  V30 911 H 84.7346 -2.68171 -3.04695 0
M  V30 912 H 85.5006 -4.61575 -1.48908 0
M  V30 913 H 81.3796 -3.88844 -2.47631 0
M  V30 914 H 84.9236 -6.92578 -0.835582 0
M  V30 915 H 80.8206 -6.19085 -1.82768 0
M  V30 916 H 81.5886 -8.11692 -1.05349 0
M  V30 917 N 84.2517 0.741722 -1.39055 0
M  V30 918 C 85.5287 1.49252 -1.26425 0
M  V30 919 C 85.9087 2.10705 0.129144 0
M  V30 920 O 85.2567 1.98045 1.13976 0
M  V30 921 C 85.4667 2.54934 -2.38347 0
M  V30 922 C 86.8147 3.21506 -2.77343 0
M  V30 923 O 87.8387 2.65245 -2.37747 0
M  V30 924 O 86.6977 4.23294 -3.45665 0
M  V30 925 H 83.7917 0.662451 -0.495064 0
M  V30 926 H 86.3377 0.776121 -1.50912 0
M  V30 927 H 85.1097 2.07857 -3.31529 0
M  V30 928 H 84.7327 3.34141 -2.15489 0
M  V30 929 N 85.7298 1.2412 0.971189 0
M  V30 930 C 86.6598 1.05508 2.08304 0
M  V30 931 C 87.6408 -0.0308864 1.70072 0
M  V30 932 O 88.8258 0.135521 1.93727 0
M  V30 933 C 85.9558 0.655365 3.4106 0
M  V30 934 C 84.9098 1.68971 3.93234 0
M  V30 935 C 84.2358 1.14516 5.22293 0
M  V30 936 C 85.5358 3.08487 4.21465 0
M  V30 937 H 87.2298 1.98507 2.24132 0
M  V30 938 H 84.7758 0.955821 1.07704 0
M  V30 939 H 86.7288 0.51217 4.18276 0
M  V30 940 H 85.4528 -0.31032 3.25122 0
M  V30 941 H 84.1118 1.82106 3.18171 0
M  V30 942 H 83.7598 0.170189 5.02712 0
M  V30 943 H 83.4598 1.83635 5.58168 0
M  V30 944 H 84.9838 1.01401 6.02121 0
M  V30 945 H 86.3978 2.98601 4.89398 0
M  V30 946 H 84.7948 3.74926 4.68562 0
M  V30 947 H 85.8648 3.56787 3.28376 0
M  V30 948 N 87.2079 -1.17134 1.05439 0
M  V30 949 C 88.6239 -1.39454 0.776201 0
M  V30 950 C 88.8239 -1.91454 -0.628307 0
M  V30 951 O 87.8799 -2.10777 -1.39031 0
M  V30 952 C 89.1929 -2.38305 1.83388 0
M  V30 953 C 90.7409 -2.52006 1.85639 0
M  V30 954 C 91.2159 -3.54133 2.90437 0
M  V30 955 N 92.7069 -3.61653 2.89415 0
M  V30 956 C 93.4419 -4.4044 3.67152 0
M  V30 957 N 92.9379 -5.22721 4.54681 0
M  V30 958 N 94.7309 -4.35337 3.55581 0
M  V30 959 H 86.8819 -0.817134 1.96053 0
M  V30 960 H 89.1449 -0.421626 0.849079 0
M  V30 961 H 88.8509 -2.07173 2.84204 0
M  V30 962 H 88.7249 -3.37841 1.67761 0
M  V30 963 H 91.1119 -2.82447 0.85486 0
M  V30 964 H 91.1929 -1.52537 2.05344 0
M  V30 965 H 90.8369 -3.24431 3.90777 0
M  V30 966 H 90.7669 -4.53313 2.67983 0
M  V30 967 H 93.2579 -3.02909 2.25952 0
M  V30 968 H 93.5709 -5.80027 5.10674 0
M  V30 969 H 91.9159 -5.22093 4.58741 0
M  V30 970 H 95.1069 -3.70112 2.86592 0
M  V30 971 H 95.2799 -4.96494 4.1641 0
M  V30 972 N 88.686 -0.835752 -1.33615 0
M  V30 973 C 90.102 -0.523139 -1.50783 0
M  V30 974 C 90.302 0.950171 -1.77691 0
M  V30 975 O 89.358 1.73411 -1.83534 0
M  V30 976 C 90.671 -1.39378 -2.66448 0
M  V30 977 C 92.219 -1.39223 -2.80332 0
M  V30 978 C 92.694 -2.24765 -3.99055 0
M  V30 979 N 94.185 -2.22458 -4.06284 0
M  V30 980 C 94.92 -2.85386 -4.97336 0
M  V30 981 N 94.416 -3.57354 -5.93523 0
M  V30 982 N 96.209 -2.74872 -4.90308 0
M  V30 983 H 88.36 -1.78952 -1.14411 0
M  V30 984 H 90.623 -0.763297 -0.562212 0
M  V30 985 H 90.329 -2.44061 -2.53234 0
M  V30 986 H 90.203 -1.0676 -3.61776 0
M  V30 987 H 92.59 -0.353136 -2.92979 0
M  V30 988 H 92.671 -1.75846 -1.85773 0
M  V30 989 H 92.315 -3.28732 -3.87167 0
M  V30 990 H 92.245 -1.85485 -4.92852 0
M  V30 991 H 94.736 -1.70119 -3.37443 0
M  V30 992 H 95.049 -4.02584 -6.59656 0
M  V30 993 H 93.394 -3.61461 -5.93608 0
M  V30 994 H 96.585 -2.18213 -4.14126 0
M  V30 995 H 96.758 -3.24199 -5.61069 0
M  V30 996 N 90.1641 1.46063 -0.591896 0
M  V30 997 C 91.4101 2.03203 -0.0894879 0
M  V30 998 C 91.7651 1.45407 1.25994 0
M  V30 999 O 91.0581 0.61326 1.8152 0
M  V30 1000 C 91.2521 3.57391 0.0249813 0
M  V30 1001 C 91.0811 4.30142 -1.3118 0
M  V30 1002 C 89.8511 4.68688 -1.88838 0
M  V30 1003 C 92.0491 4.63098 -2.23708 0
M  V30 1004 N 90.0311 5.26228 -3.1616 0
M  V30 1005 C 91.4021 5.21305 -3.3562 0
M  V30 1006 C 93.4571 4.45031 -2.23274 0
M  V30 1007 C 92.1601 5.63351 -4.47245 0
M  V30 1008 C 94.1861 4.881 -3.33935 0
M  V30 1009 C 93.5481 5.46386 -4.44569 0
M  V30 1010 H 89.6471 0.778323 -0.0757431 0
M  V30 1011 H 92.2311 1.78094 -0.78681 0
M  V30 1012 H 90.4021 3.82195 0.69149 0
M  V30 1013 H 92.1341 4.0118 0.532613 0
M  V30 1014 H 88.8891 4.5174 -1.42223 0
M  V30 1015 H 89.3131 5.59512 -3.8115 0
M  V30 1016 H 93.9551 3.99295 -1.39008 0
M  V30 1017 H 91.6731 6.08061 -5.32247 0
M  V30 1018 H 95.2591 4.75866 -3.34728 0
M  V30 1019 H 94.1391 5.79102 -5.28782 0
M  V30 1020 N 91.6422 0.330177 1.54103 0
M  V30 1021 C 92.5522 -0.541534 2.28264 0
M  V30 1022 C 93.5682 -1.12351 1.32866 0
M  V30 1023 O 94.7442 -1.14206 1.65888 0
M  V30 1024 C 91.8092 -1.68322 3.03098 0
M  V30 1025 C 90.8702 -1.13238 4.14096 0
M  V30 1026 C 90.1032 -2.21966 4.85352 0
M  V30 1027 O 90.3262 -3.42437 4.56172 0
M  V30 1028 O 89.2602 -1.87013 5.7211 0
M  V30 1029 H 93.0862 0.060938 3.03639 0
M  V30 1030 H 90.6712 0.09565 1.49093 0
M  V30 1031 H 92.5532 -2.34777 3.49939 0
M  V30 1032 H 91.2282 -2.27176 2.30593 0
M  V30 1033 H 90.1352 -0.432736 3.71589 0
M  V30 1034 H 91.4682 -0.588898 4.88664 0
M  V30 1035 N 93.1203 -1.57491 0.0584922 0
M  V30 1036 C 94.0673 -2.11958 -0.913376 0
M  V30 1037 C 95.0373 -1.02875 -1.30407 0
M  V30 1038 O 96.2223 -1.30464 -1.39226 0
M  V30 1039 C 93.3623 -2.67497 -2.18035 0
M  V30 1040 C 92.4753 -3.90691 -1.84349 0
M  V30 1041 C 91.6103 -4.3452 -3.05559 0
M  V30 1042 C 90.6493 -5.50395 -2.67827 0
M  V30 1043 N 89.7863 -5.89244 -3.81754 0
M  V30 1044 H 94.6263 -2.94704 -0.442017 0
M  V30 1045 H 92.1633 -1.45643 -0.206545 0
M  V30 1046 H 94.1213 -2.978 -2.92183 0
M  V30 1047 H 92.7513 -1.87537 -2.62735 0
M  V30 1048 H 91.8033 -3.66934 -1.00319 0
M  V30 1049 H 93.1153 -4.7489 -1.5258 0
M  V30 1050 H 92.2693 -4.66414 -3.87998 0
M  V30 1051 H 91.0083 -3.49147 -3.40511 0
M  V30 1052 H 90.0133 -5.18165 -1.83806 0
M  V30 1053 H 91.2383 -6.3749 -2.34059 0
M  V30 1054 H 89.1843 -5.06823 -4.16493 0
M  V30 1055 H 89.1013 -6.68151 -3.53708 0
M  V30 1056 H 90.3693 -6.25756 -4.64811 0
M  V30 1057 N 94.5984 0.214957 -1.56127 0
M  V30 1058 C 95.8444 0.935325 -1.80619 0
M  V30 1059 C 96.1994 1.81706 -0.632507 0
M  V30 1060 O 95.4924 1.87931 0.373182 0
M  V30 1061 C 95.6864 1.80314 -3.0858 0
M  V30 1062 C 95.5154 1.00691 -4.38282 0
M  V30 1063 C 94.2854 0.699211 -5.00439 0
M  V30 1064 C 96.4834 0.369057 -5.12974 0
M  V30 1065 N 94.4654 -0.117734 -6.13787 0
M  V30 1066 C 95.8364 -0.310981 -6.1922 0
M  V30 1067 C 97.8914 0.282759 -4.97096 0
M  V30 1068 C 96.5944 -1.06907 -7.11311 0
M  V30 1069 C 98.6204 -0.461881 -5.89594 0
M  V30 1070 C 97.9824 -1.13044 -6.9527 0
M  V30 1071 H 94.0814 0.322307 -0.71249 0
M  V30 1072 H 96.6654 0.205649 -1.93611 0
M  V30 1073 H 94.8364 2.50458 -2.96859 0
M  V30 1074 H 96.5684 2.46148 -3.21237 0
M  V30 1075 H 93.3234 1.01884 -4.62511 0
M  V30 1076 H 93.7474 -0.515235 -6.75037 0
M  V30 1077 H 98.3894 0.785292 -4.15443 0
M  V30 1078 H 96.1074 -1.5831 -7.92442 0
M  V30 1079 H 99.6934 -0.529746 -5.79383 0
M  V30 1080 H 98.5734 -1.69742 -7.65609 0
M  V30 1081 N 96.0765 1.50051 0.48192 0
M  V30 1082 C 96.9865 1.7089 1.60728 0
M  V30 1083 C 98.0025 0.591788 1.63627 0
M  V30 1084 O 99.1785 0.868817 1.81696 0
M  V30 1085 C 96.2435 1.78855 2.97005 0
M  V30 1086 C 95.3045 3.02537 3.04581 0
M  V30 1087 C 94.5375 3.10112 4.34357 0
M  V30 1088 O 94.7605 2.24765 5.24249 0
M  V30 1089 O 93.6945 4.02747 4.47301 0
M  V30 1090 H 97.5205 2.66264 1.46072 0
M  V30 1091 H 95.1055 1.34018 0.660264 0
M  V30 1092 H 96.9875 1.86336 3.77964 0
M  V30 1093 H 95.6625 0.866628 3.11883 0
M  V30 1094 H 94.5695 3.00563 2.22739 0
M  V30 1095 H 95.9025 3.94272 2.94636 0
M  V30 1096 N 97.5546 -0.734337 1.39446 0
M  V30 1097 C 98.4846 -1.86155 1.40955 0
M  V30 1098 C 99.4656 -1.67898 0.272827 0
M  V30 1099 O 100.651 -1.88207 0.478743 0
M  V30 1100 C 97.7806 -3.23912 1.25294 0
M  V30 1101 C 96.7346 -3.56808 2.36373 0
M  V30 1102 C 96.0606 -4.93508 2.058 0
M  V30 1103 C 97.3606 -3.59713 3.78687 0
M  V30 1104 H 99.0546 -1.8515 2.35287 0
M  V30 1105 H 96.6006 -0.889367 1.13253 0
M  V30 1106 H 98.5536 -4.02443 1.2497 0
M  V30 1107 H 97.2776 -3.25446 0.274308 0
M  V30 1108 H 95.9366 -2.80606 2.35914 0
M  V30 1109 H 95.5846 -4.91623 1.06374 0
M  V30 1110 H 95.2846 -5.16486 2.80208 0
M  V30 1111 H 96.8086 -5.74396 2.07128 0
M  V30 1112 H 98.2226 -4.2832 3.81071 0
M  V30 1113 H 96.6196 -3.94209 4.52459 0
M  V30 1114 H 97.6896 -2.59504 4.09617 0
M  V30 1115 N 99.0327 -1.24633 -0.964593 0
M  V30 1116 C 100.31 -0.995809 -1.68354 0
M  V30 1117 C 100.69 0.480964 -2.05548 0
M  V30 1118 O 100.038 1.45599 -1.76105 0
M  V30 1119 C 100.248 -1.92177 -2.91323 0
M  V30 1120 C 101.596 -2.19446 -3.63495 0
M  V30 1121 O 102.62 -1.89855 -3.01386 0
M  V30 1122 O 101.479 -2.69714 -4.75307 0
M  V30 1123 H 98.5727 -0.376854 -0.736146 0
M  V30 1124 H 101.119 -1.35745 -1.0184 0
M  V30 1125 H 99.8907 -2.91938 -2.60553 0
M  V30 1126 H 99.5137 -1.56349 -3.65569 0
M  V30 1127 N 100.511 1.16574 -1.06058 0
M  V30 1128 C 101.441 2.23057 -0.690488 0
M  V30 1129 C 102.422 1.67141 0.315901 0
M  V30 1130 O 103.607 1.93253 0.191556 0
M  V30 1131 C 100.737 3.47222 -0.073625 0
M  V30 1132 C 99.6908 4.16016 -1.00573 0
M  V30 1133 C 99.0168 5.34104 -0.252289 0
M  V30 1134 C 100.317 4.67264 -2.33371 0
M  V30 1135 H 102.011 2.54271 -1.58072 0
M  V30 1136 H 99.5568 1.22218 -0.76149 0
M  V30 1137 H 101.51 4.20939 0.19714 0
M  V30 1138 H 100.234 3.15302 0.85161 0
M  V30 1139 H 98.8928 3.44223 -1.2612 0
M  V30 1140 H 98.5408 4.98437 0.675988 0
M  V30 1141 H 98.2408 5.81072 -0.873455 0
M  V30 1142 H 99.7648 6.10599 0.0109857 0
M  V30 1143 H 101.179 5.32573 -2.12223 0
M  V30 1144 H 99.5758 5.24843 -2.90963 0
M  V30 1145 H 100.646 3.83602 -2.96611 0
M  V30 1146 N 101.989 0.842826 1.3317 0
M  V30 1147 C 103.266 0.362216 1.92217 0
M  V30 1148 C 103.646 -1.15289 1.76838 0
M  V30 1149 O 102.994 -1.96914 1.15919 0
M  V30 1150 C 103.204 0.813495 3.39387 0
M  V30 1151 C 104.552 0.823804 4.16532 0
M  V30 1152 O 105.576 0.757358 3.48055 0
M  V30 1153 O 104.435 0.915193 5.38782 0
M  V30 1154 H 101.529 0.103317 0.820521 0
M  V30 1155 H 104.075 0.928942 1.42017 0
M  V30 1156 H 102.847 1.85624 3.4447 0
M  V30 1157 H 102.47 0.223561 3.96971 0
M  V30 1158 N 103.467 -1.45747 0.599634 0
M  V30 1159 C 104.716 -2.01502 0.0893511 0
M  V30 1160 C 105.029 -1.4748 -1.28488 0
M  V30 1161 O 106.235 -1.95161 -1.88745 0
M  V30 1162 C 104.691 -3.59735 0.109082 0
M  V30 1163 C 104.299 -4.22754 1.48267 0
M  V30 1164 C 106.043 -4.23085 -0.346374 0
M  V30 1165 C 103.95 -5.73115 1.45921 0
M  V30 1166 H 102.88 -0.753417 0.0296347 0
M  V30 1167 H 105.531 -1.67303 0.753788 0
M  V30 1168 H 103.913 -3.91087 -0.621854 0
M  V30 1169 H 105.087 -4.02987 2.23468 0
M  V30 1170 H 103.402 -3.71567 1.87955 0
M  V30 1171 H 105.999 -5.33327 -0.38298 0
M  V30 1172 H 106.342 -3.93201 -1.36743 0
M  V30 1173 H 106.875 -3.9642 0.331038 0
M  V30 1174 H 103.614 -6.07685 2.45762 0
M  V30 1175 H 103.134 -5.95097 0.749665 0
M  V30 1176 H 104.813 -6.3616 1.17941 0
M  V30 1177 N 104.945 -0.338344 -1.53925 0
M  V30 1178 C 105.892 0.520845 -2.24846 0
M  V30 1179 C 106.862 1.09976 -1.24477 0
M  V30 1180 O 108.047 1.13735 -1.53196 0
M  V30 1181 C 105.187 1.6685 -3.02084 0
M  V30 1182 C 104.3 1.11739 -4.17299 0
M  V30 1183 C 103.435 2.23193 -4.82036 0
M  V30 1184 C 102.474 1.65407 -5.89328 0
M  V30 1185 N 101.611 2.70582 -6.47866 0
M  V30 1186 H 106.451 -0.0904881 -2.97863 0
M  V30 1187 H 103.988 -0.0564282 -1.46992 0
M  V30 1188 H 105.946 2.34407 -3.45122 0
M  V30 1189 H 104.576 2.2509 -2.31375 0
M  V30 1190 H 103.628 0.332919 -3.7894 0
M  V30 1191 H 104.94 0.654677 -4.94485 0
M  V30 1192 H 104.094 2.98626 -5.28117 0
M  V30 1193 H 102.833 2.72807 -4.04262 0
M  V30 1194 H 101.838 0.884779 -5.42634 0
M  V30 1195 H 103.063 1.16652 -6.69006 0
M  V30 1196 H 101.009 3.1946 -5.72959 0
M  V30 1197 H 100.926 2.28917 -7.20509 0
M  V30 1198 H 102.194 3.45799 -6.98601 0
M  V30 1199 N 106.423 1.57458 -0.0668435 0
M  V30 1200 C 107.333 2.15937 0.916975 0
M  V30 1201 C 108.349 1.12123 1.33058 0
M  V30 1202 O 109.525 1.44366 1.40429 0
M  V30 1203 C 106.59 2.70547 2.16807 0
M  V30 1204 C 105.651 3.89215 1.81135 0
M  V30 1205 C 104.884 4.41211 3.0028 0
M  V30 1206 O 105.107 3.92225 4.14144 0
M  V30 1207 O 104.041 5.32605 2.80384 0
M  V30 1208 H 107.867 3.00354 0.449561 0
M  V30 1209 H 105.452 1.48584 0.155949 0
M  V30 1210 H 107.334 3.0557 2.90181 0
M  V30 1211 H 106.009 1.89192 2.62656 0
M  V30 1212 H 104.916 3.59054 1.05028 0
M  V30 1213 H 106.249 4.71848 1.40073 0
M  V30 1214 N 107.901 -0.206675 1.56239 0
M  V30 1215 C 109.147 -0.930218 1.80208 0
M  V30 1216 C 109.48 -1.83387 0.638981 0
M  V30 1217 O 108.755 -1.91119 -0.361066 0
M  V30 1218 C 109.038 -1.75641 3.1436 0
M  V30 1219 C 108.891 -0.878257 4.41142 0
M  V30 1220 C 110.21 -2.73129 3.45092 0
M  V30 1221 H 107.329 -0.336742 0.655571 0
M  V30 1222 H 109.971 -0.198222 1.88963 0
M  V30 1223 H 108.121 -2.38048 3.07027 0
M  V30 1224 H 109.793 -0.269787 4.6051 0
M  V30 1225 H 108.036 -0.184385 4.33408 0
M  V30 1226 H 108.707 -1.49106 5.3148 0
M  V30 1227 H 111.183 -2.20856 3.52649 0
M  V30 1228 H 110.059 -3.28028 4.40101 0
M  V30 1229 H 110.32 -3.51606 2.68003 0
M  V30 1230 N 109.379 -1.50304 -0.473955 0
M  V30 1231 C 110.626 -1.6115 -1.22625 0
M  V30 1232 C 110.954 -0.310517 -1.92005 0
M  V30 1233 O 110.209 0.703419 -1.82621 0
M  V30 1234 C 110.508 -2.73938 -2.29549 0
M  V30 1235 C 110.174 -4.14519 -1.7744 0
M  V30 1236 C 108.836 -4.5277 -1.62949 0
M  V30 1237 C 111.188 -5.02392 -1.3875 0
M  V30 1238 C 108.516 -5.76639 -1.08187 0
M  V30 1239 C 110.868 -6.26805 -0.854309 0
M  V30 1240 C 109.532 -6.63861 -0.696011 0
M  V30 1241 H 108.802 -0.589691 -0.448715 0
M  V30 1242 H 111.449 -1.84228 -0.522705 0
M  V30 1243 H 109.754 -2.44937 -3.05799 0
M  V30 1244 H 111.451 -2.79534 -2.87509 0
M  V30 1245 H 108.041 -3.8434 -1.89685 0
M  V30 1246 H 112.225 -4.73474 -1.4878 0
M  V30 1247 H 107.481 -6.04027 -0.946666 0
M  V30 1248 H 111.655 -6.94258 -0.545843 0
M  V30 1249 H 109.282 -7.59722 -0.26952 0
M  V30 1250 N 110.857 0.726932 -1.39834 0
M  V30 1251 C 112.103 1.48884 -1.377 0
M  V30 1252 C 112.436 1.94185 0.0244852 0
M  V30 1253 O 111.711 1.67361 0.990986 0
M  V30 1254 C 111.994 2.72288 -2.3565 0
M  V30 1255 C 111.847 2.32956 -3.84775 0
M  V30 1256 C 113.166 3.74414 -2.31306 0
M  V30 1257 H 110.285 0.540062 -0.5015 0
M  V30 1258 H 112.927 0.830547 -1.70886 0
M  V30 1259 H 111.077 3.28457 -2.07481 0
M  V30 1260 H 112.749 1.82356 -4.23726 0
M  V30 1261 H 110.992 1.65088 -4.01159 0
M  V30 1262 H 111.663 3.21362 -4.4881 0
M  V30 1263 H 114.139 3.27849 -2.56231 0
M  V30 1264 H 113.015 4.58414 -3.01907 0
M  V30 1265 H 113.276 4.21909 -1.32081 0
M  V30 1266 N 112.336 1.25143 0.95797 0
M  V30 1267 C 113.286 1.01924 2.0395 0
M  V30 1268 C 114.27 -0.0427175 1.60843 0
M  V30 1269 O 115.462 0.17221 1.7616 0
M  V30 1270 C 112.591 0.636373 3.3735 0
M  V30 1271 C 111.677 1.73492 3.8699 0
M  V30 1272 N 112.068 2.96945 4.0946 0
M  V30 1273 C 110.366 1.61467 4.15746 0
M  V30 1274 C 111.067 3.68228 4.50315 0
M  V30 1275 N 110.043 2.95833 4.56053 0
M  V30 1276 H 113.845 1.95653 2.19311 0
M  V30 1277 H 111.359 1.15413 1.14253 0
M  V30 1278 H 113.356 0.451233 4.14451 0
M  V30 1279 H 112.016 -0.293621 3.2337 0
M  V30 1280 H 113.027 3.33025 3.96629 0
M  V30 1281 H 109.704 0.753394 4.10646 0
M  V30 1282 H 111.094 4.74178 4.76031 0
M  V30 1283 N 113.814 -1.1601 1.06675 0
M  V30 1284 C 115.225 -1.68235 0.809565 0
M  V30 1285 C 115.576 -1.8454 -0.666303 0
M  V30 1286 O 114.701 -1.54374 -1.5165 0
M  V30 1287 C 115.296 -3.05585 1.46299 0
M  V30 1288 C 113.855 -3.54915 1.25349 0
M  V30 1289 C 113.002 -2.30804 1.53703 0
M  V30 1290 H 115.953 -1.00318 1.22971 0
M  V30 1291 H 115.974 -3.70174 0.880431 0
M  V30 1292 H 115.486 -2.93686 2.53713 0
M  V30 1293 H 113.587 -3.72067 0.199261 0
M  V30 1294 H 113.7 -4.36774 1.9689 0
M  V30 1295 H 112.064 -2.36007 0.957739 0
M  V30 1296 H 112.847 -2.21499 2.62284 0
M  V30 1297 N 115.292 -0.849877 -1.32721 0
M  V30 1298 C 116.24 -0.279745 -2.30912 0
M  V30 1299 C 117.234 0.594278 -1.58634 0
M  V30 1300 O 118.44 0.482613 -1.73409 0
M  V30 1301 H 114.815 -0.0717521 -0.748569 0
M  V30 1302 H 116.786 -1.12222 -2.76494 0
M  V30 1303 C 115.535 0.521108 -3.43773 0
M  V30 1304 H 114.858 -0.142141 -3.99547 0
M  V30 1305 H 116.298 0.885693 -4.14646 0
M  V30 1306 C 114.757 1.70442 -2.90605 0
M  V30 1307 O 115.287 2.8034 -2.87702 0
M  V30 1308 N 113.493 1.52991 -2.47067 0
M  V30 1309 H 113.04 0.635914 -2.49628 0
M  V30 1310 H 112.998 2.32311 -2.11847 0
M  V30 1311 N 116.77 1.45427 -0.607355 0
M  V30 1312 C 118 2.06314 -0.108656 0
M  V30 1313 C 118.408 1.45269 1.21217 0
M  V30 1314 O 117.751 0.561115 1.74921 0
M  V30 1315 C 117.813 3.59345 0.105618 0
M  V30 1316 C 117.477 4.42723 -1.13337 0
M  V30 1317 C 118.474 4.77715 -2.05145 0
M  V30 1318 C 116.159 4.83478 -1.36213 0
M  V30 1319 C 118.153 5.52317 -3.18158 0
M  V30 1320 C 115.84 5.57835 -2.49527 0
M  V30 1321 C 116.838 5.92171 -3.40327 0
M  V30 1322 O 116.526 6.65019 -4.51669 0
M  V30 1323 H 116.258 0.672782 -0.0658842 0
M  V30 1324 H 118.812 1.87664 -0.834945 0
M  V30 1325 H 117.042 3.76394 0.886796 0
M  V30 1326 H 118.731 4.02076 0.555886 0
M  V30 1327 H 119.497 4.46787 -1.88697 0
M  V30 1328 H 115.376 4.56188 -0.664362 0
M  V30 1329 H 118.92 5.79036 -3.89054 0
M  V30 1330 H 114.817 5.88177 -2.65928 0
M  V30 1331 H 115.585 6.83469 -4.50348 0
M  V30 1332 N 118.248 0.346503 1.53744 0
M  V30 1333 C 119.473 -0.253074 2.0585 0
M  V30 1334 C 119.898 -1.43202 1.21962 0
M  V30 1335 O 119.256 -1.79783 0.234073 0
M  V30 1336 C 119.304 -0.643193 3.54817 0
M  V30 1337 O 118.408 -1.74286 3.73762 0
M  V30 1338 H 117.749 -0.0413583 0.662711 0
M  V30 1339 H 120.279 0.501574 1.98357 0
M  V30 1340 H 120.289 -0.919526 3.97503 0
M  V30 1341 H 118.964 0.218966 4.15323 0
M  V30 1342 H 117.541 -1.46356 3.42979 0
M  V30 1343 N 119.726 -1.57421 0.075193 0
M  V30 1344 C 120.673 -2.12915 -0.890843 0
M  V30 1345 C 121.643 -1.04252 -1.29309 0
M  V30 1346 O 122.828 -1.31933 -1.37834 0
M  V30 1347 C 119.968 -2.69795 -2.15186 0
M  V30 1348 C 119.081 -3.92624 -1.80194 0
M  V30 1349 C 118.216 -4.37736 -3.00933 0
M  V30 1350 C 117.255 -5.53205 -2.61974 0
M  V30 1351 N 116.392 -5.9326 -3.75483 0
M  V30 1352 H 121.232 -2.95156 -0.410735 0
M  V30 1353 H 118.769 -1.45854 -0.191086 0
M  V30 1354 H 120.727 -3.00883 -2.89008 0
M  V30 1355 H 119.357 -1.90313 -2.60731 0
M  V30 1356 H 118.409 -3.67977 -0.964218 0
M  V30 1357 H 119.721 -4.76482 -1.47534 0
M  V30 1358 H 118.875 -4.70503 -3.8303 0
M  V30 1359 H 117.614 -3.52739 -3.36789 0
M  V30 1360 H 116.619 -5.20086 -1.783 0
M  V30 1361 H 117.844 -6.39936 -2.27284 0
M  V30 1362 H 115.79 -5.11212 -4.11094 0
M  V30 1363 H 115.707 -6.71865 -3.46602 0
M  V30 1364 H 116.975 -6.30651 -4.58148 0
M  V30 1365 N 121.204 0.198386 -1.56346 0
M  V30 1366 C 122.429 0.939682 -1.84891 0
M  V30 1367 C 122.854 1.76202 -0.658369 0
M  V30 1368 O 122.212 1.76993 0.392851 0
M  V30 1369 C 122.26 1.81428 -3.11635 0
M  V30 1370 O 121.364 2.91265 -2.91956 0
M  V30 1371 H 120.705 0.264807 -0.608912 0
M  V30 1372 H 123.235 0.204695 -2.03573 0
M  V30 1373 H 123.245 2.21958 -3.42343 0
M  V30 1374 H 121.92 1.21004 -3.97908 0
M  V30 1375 H 120.497 2.54514 -2.72538 0
M  V30 1376 N 122.682 1.50554 0.465978 0
M  V30 1377 C 123.91 1.65563 1.24083 0
M  V30 1378 C 124.325 0.341051 1.85694 0
M  V30 1379 O 123.682 -0.677543 1.69457 0
M  V30 1380 C 123.733 2.75051 2.34583 0
M  V30 1381 O 123.454 4.01413 1.75497 0
M  V30 1382 C 124.955 3.01078 3.25372 0
M  V30 1383 H 122.175 0.55638 0.375077 0
M  V30 1384 H 124.719 1.96807 0.555624 0
M  V30 1385 H 122.874 2.46486 2.9887 0
M  V30 1386 H 123.288 4.62002 2.48303 0
M  V30 1387 H 124.762 3.81339 3.99105 0
M  V30 1388 H 125.239 2.12349 3.84453 0
M  V30 1389 H 125.845 3.31194 2.66816 0
M  V30 1390 N 124.16 -0.719506 1.40217 0
M  V30 1391 C 125.388 -1.50864 1.41589 0
M  V30 1392 C 125.803 -1.88794 0.0145275 0
M  V30 1393 O 125.16 -1.55174 -0.960594 0
M  V30 1394 C 125.211 -2.78646 2.30302 0
M  V30 1395 O 124.932 -2.42321 3.64983 0
M  V30 1396 C 126.433 -3.72569 2.40224 0
M  V30 1397 H 123.653 -0.465709 0.48307 0
M  V30 1398 H 126.197 -0.88785 1.84221 0
M  V30 1399 H 124.352 -3.37019 1.91042 0
M  V30 1400 H 124.766 -3.24514 4.12057 0
M  V30 1401 H 126.24 -4.5908 3.06512 0
M  V30 1402 H 126.717 -4.15403 1.42608 0
M  V30 1403 H 127.323 -3.20109 2.80019 0
M  V30 1404 N 125.638 -1.25649 -0.95132 0
M  V30 1405 C 126.915 -1.01361 -1.67288 0
M  V30 1406 C 127.295 0.459135 -2.06046 0
M  V30 1407 O 126.643 1.43723 -1.7764 0
M  V30 1408 C 126.853 -1.95256 -2.89268 0
M  V30 1409 C 128.201 -2.23289 -3.61147 0
M  V30 1410 O 129.225 -1.93041 -2.99355 0
M  V30 1411 O 128.084 -2.74741 -4.72419 0
M  V30 1412 H 125.178 -0.38464 -0.732107 0
M  V30 1413 H 127.724 -1.36817 -1.00395 0
M  V30 1414 H 126.496 -2.94685 -2.57442 0
M  V30 1415 H 126.119 -1.60218 -3.6389 0
M  V30 1416 N 127.117 1.15442 -1.07289 0
M  V30 1417 C 128.065 2.22225 -0.686952 0
M  V30 1418 C 129.059 1.66688 0.30193 0
M  V30 1419 O 130.265 1.79236 0.165712 0
M  V30 1420 H 126.64 0.723783 -0.204064 0
M  V30 1421 H 128.611 2.52056 -1.5972 0
M  V30 1422 C 127.36 3.47556 -0.100149 0
M  V30 1423 H 126.683 3.90612 -0.852211 0
M  V30 1424 H 128.123 4.23794 0.132235 0
M  V30 1425 C 126.582 3.16337 1.159 0
M  V30 1426 O 127.112 3.33074 2.24555 0
M  V30 1427 N 125.318 2.70385 1.06491 0
M  V30 1428 H 124.865 2.56966 0.180668 0
M  V30 1429 H 124.823 2.49871 1.90819 0
M  V30 1430 N 128.595 0.856903 1.32268 0
M  V30 1431 C 129.872 0.382583 1.91822 0
M  V30 1432 C 130.252 -1.13407 1.78051 0
M  V30 1433 O 129.6 -1.95673 1.18001 0
M  V30 1434 C 129.81 0.849446 3.38505 0
M  V30 1435 C 131.158 0.867936 4.15634 0
M  V30 1436 O 132.182 0.794232 3.47232 0
M  V30 1437 O 131.041 0.972286 5.37781 0
M  V30 1438 H 128.135 0.112014 0.819379 0
M  V30 1439 H 130.681 0.943952 1.41024 0
M  V30 1440 H 129.453 1.89267 3.42482 0
M  V30 1441 H 129.076 0.265652 3.96712 0
M  V30 1442 N 130.073 -1.45103 0.615059 0
M  V30 1443 C 131.322 -2.01396 0.110718 0
M  V30 1444 C 131.635 -1.48834 -1.26916 0
M  V30 1445 O 132.841 -1.97152 -1.86664 0
M  V30 1446 C 131.297 -3.59599 0.14723 0
M  V30 1447 C 130.905 -4.21158 1.52743 0
M  V30 1448 C 132.649 -4.23428 -0.30148 0
M  V30 1449 C 130.556 -5.71535 1.51992 0
M  V30 1450 H 129.486 -0.753061 0.0376241 0
M  V30 1451 H 132.137 -1.66494 0.77149 0
M  V30 1452 H 130.519 -3.91724 -0.580339 0
M  V30 1453 H 131.693 -4.00594 2.2773 0
M  V30 1454 H 130.008 -3.69552 1.91886 0
M  V30 1455 H 132.605 -5.33703 -0.326392 0
M  V30 1456 H 132.948 -3.94629 -1.32565 0
M  V30 1457 H 133.481 -3.96047 0.373065 0
M  V30 1458 H 130.22 -6.05044 2.52193 0
M  V30 1459 H 129.74 -5.94268 0.81274 0
M  V30 1460 H 131.419 -6.34873 1.24681 0
M  V30 1461 N 131.551 -0.354651 -1.53558 0
M  V30 1462 C 132.514 0.484566 -2.24019 0
M  V30 1463 C 133.514 1.01861 -1.24422 0
M  V30 1464 O 134.704 0.906097 -1.4878 0
M  V30 1465 C 131.836 1.67615 -2.96847 0
M  V30 1466 H 133.029 -0.131843 -2.9961 0
M  V30 1467 H 130.582 -0.106165 -1.55939 0
M  V30 1468 H 131.317 2.33095 -2.25471 0
M  V30 1469 H 131.102 1.30029 -3.69912 0
M  V30 1470 H 132.592 2.27114 -3.50441 0
M  V30 1471 N 133.029 1.57378 -0.0835403 0
M  V30 1472 C 133.959 2.1641 0.87686 0
M  V30 1473 C 134.94 1.09429 1.30228 0
M  V30 1474 O 136.125 1.37516 1.37124 0
M  V30 1475 C 133.255 2.73517 2.14022 0
M  V30 1476 C 132.209 3.85769 1.85381 0
M  V30 1477 C 131.535 4.29529 3.18448 0
M  V30 1478 C 132.835 5.09486 1.14984 0
M  V30 1479 H 134.529 2.96914 0.385059 0
M  V30 1480 H 132.075 1.42823 0.18377 0
M  V30 1481 H 134.028 3.13463 2.81636 0
M  V30 1482 H 132.752 1.90252 2.65465 0
M  V30 1483 H 131.411 3.46345 1.20169 0
M  V30 1484 H 131.059 3.43169 3.67755 0
M  V30 1485 H 130.759 5.05204 3.00071 0
M  V30 1486 H 132.283 4.72099 3.8724 0
M  V30 1487 H 133.697 5.46674 1.72687 0
M  V30 1488 H 132.094 5.90515 1.06826 0
M  V30 1489 H 133.164 4.84724 0.130749 0
M  V30 1490 N 134.507 -0.190092 1.56449 0
M  V30 1491 C 135.437 -1.23816 1.97969 0
M  V30 1492 C 136.418 -1.47201 0.852395 0
M  V30 1493 O 137.603 -1.58854 1.1171 0
M  V30 1494 C 134.733 -2.5813 2.3235 0
M  V30 1495 C 133.687 -2.49348 3.47864 0
M  V30 1496 C 133.013 -3.8798 3.67934 0
M  V30 1497 C 134.313 -2.01424 4.81898 0
M  V30 1498 H 136.007 -0.89311 2.85769 0
M  V30 1499 H 133.553 -0.428177 1.37487 0
M  V30 1500 H 135.506 -3.31637 2.59991 0
M  V30 1501 H 134.23 -2.94386 1.41438 0
M  V30 1502 H 132.889 -1.78297 3.20321 0
M  V30 1503 H 132.537 -4.21597 2.74344 0
M  V30 1504 H 132.237 -3.82978 4.45648 0
M  V30 1505 H 133.761 -4.63101 3.97957 0
M  V30 1506 H 135.175 -2.64693 5.08538 0
M  V30 1507 H 133.572 -2.07413 5.63116 0
M  V30 1508 H 134.642 -0.967677 4.75146 0
M  V30 1509 N 135.985 -1.50799 -0.457987 0
M  V30 1510 C 136.935 -1.67003 -1.55222 0
M  V30 1511 C 137.919 -0.52434 -1.52117 0
M  V30 1512 O 139.111 -0.779345 -1.58919 0
M  V30 1513 C 136.24 -1.77956 -2.93576 0
M  V30 1514 C 135.326 -2.98243 -3.01516 0
M  V30 1515 N 135.717 -4.21732 -2.79241 0
M  V30 1516 C 134.015 -2.97072 -3.32662 0
M  V30 1517 C 134.716 -5.02817 -2.92489 0
M  V30 1518 N 133.692 -4.37038 -3.23262 0
M  V30 1519 H 137.494 -2.60163 -1.36721 0
M  V30 1520 H 135.008 -1.48163 -0.664952 0
M  V30 1521 H 137.005 -1.87671 -3.72271 0
M  V30 1522 H 135.665 -0.859634 -3.13114 0
M  V30 1523 H 136.676 -4.51016 -2.54567 0
M  V30 1524 H 133.353 -2.14631 -3.58106 0
M  V30 1525 H 134.743 -6.11054 -2.79396 0
M  V30 1526 N 137.463 0.71206 -1.40597 0
M  V30 1527 C 138.393 1.83889 -1.43899 0
M  V30 1528 C 139.374 1.67442 -0.299504 0
M  V30 1529 O 140.559 1.87421 -0.508624 0
M  V30 1530 C 137.689 3.21877 -1.30431 0
M  V30 1531 C 136.643 3.53002 -2.42019 0
M  V30 1532 C 135.969 4.90172 -2.13626 0
M  V30 1533 C 137.269 3.53643 -3.84362 0
M  V30 1534 H 138.963 1.81383 -2.38203 0
M  V30 1535 H 136.509 0.871237 -1.14654 0
M  V30 1536 H 138.462 4.00404 -1.31357 0
M  V30 1537 H 137.186 3.24968 -0.326049 0
M  V30 1538 H 135.845 2.76818 -2.40349 0
M  V30 1539 H 135.493 4.89869 -1.14182 0
M  V30 1540 H 135.193 5.11962 -2.88389 0
M  V30 1541 H 136.717 5.71028 -2.1624 0
M  V30 1542 H 138.131 4.22203 -3.87837 0
M  V30 1543 H 136.528 3.86961 -4.58673 0
M  V30 1544 H 137.598 2.52954 -4.13693 0
M  V30 1545 N 138.941 1.26152 0.944643 0
M  V30 1546 C 139.904 1.07474 2.0244 0
M  V30 1547 C 140.904 0.0242064 1.60782 0
M  V30 1548 O 142.094 0.267302 1.72137 0
M  V30 1549 C 139.226 0.633956 3.34953 0
M  V30 1550 H 140.419 2.03336 2.20442 0
M  V30 1551 H 137.972 1.087 1.12312 0
M  V30 1552 H 138.707 -0.326811 3.22649 0
M  V30 1553 H 138.492 1.39247 3.66542 0
M  V30 1554 H 139.982 0.52501 4.14287 0
M  V30 1555 N 140.419 -1.14872 1.07899 0
M  V30 1556 C 141.351 -2.19425 0.662231 0
M  V30 1557 C 142.364 -1.60231 -0.288079 0
M  V30 1558 O 143.553 -1.78336 -0.076534 0
M  V30 1559 C 140.653 -3.38867 -0.0470695 0
M  V30 1560 C 139.826 -4.27597 0.920831 0
M  V30 1561 C 138.885 -5.25616 0.247805 0
M  V30 1562 O 137.911 -5.62189 0.890599 0
M  V30 1563 N 139.113 -5.71746 -1.00435 0
M  V30 1564 H 141.878 -2.55797 1.56166 0
M  V30 1565 H 139.439 -1.30042 0.964404 0
M  V30 1566 H 141.431 -4.01497 -0.50813 0
M  V30 1567 H 140.001 -3.00864 -0.848523 0
M  V30 1568 H 139.221 -3.61982 1.56087 0
M  V30 1569 H 140.509 -4.83748 1.57688 0
M  V30 1570 H 139.907 -5.44153 -1.54642 0
M  V30 1571 H 138.464 -6.36389 -1.40899 0
M  V30 1572 N 141.898 -0.863906 -1.31812 0
M  V30 1573 C 143.309 -0.52522 -1.7916 0
M  V30 1574 C 143.66 0.957518 -1.71248 0
M  V30 1575 O 142.785 1.74734 -1.27659 0
M  V30 1576 C 143.38 -0.9466 -3.25307 0
M  V30 1577 C 141.939 -0.659668 -3.70574 0
M  V30 1578 C 141.086 -1.14126 -2.52726 0
M  V30 1579 H 144.037 -1.05022 -1.1898 0
M  V30 1580 H 144.058 -0.266766 -3.79564 0
M  V30 1581 H 143.57 -2.02579 -3.31034 0
M  V30 1582 H 141.671 0.408416 -3.70355 0
M  V30 1583 H 141.784 -1.23245 -4.62977 0
M  V30 1584 H 140.148 -0.561216 -2.4844 0
M  V30 1585 H 140.931 -2.22775 -2.61201 0
M  V30 1586 N 143.376 1.44774 -0.622745 0
M  V30 1587 C 144.339 2.29069 0.0774015 0
M  V30 1588 C 145.339 1.4059 0.780461 0
M  V30 1589 O 146.529 1.62551 0.626322 0
M  V30 1590 C 143.661 3.21974 1.12006 0
M  V30 1591 H 144.854 2.92459 -0.663901 0
M  V30 1592 H 142.407 1.51548 -0.382486 0
M  V30 1593 H 143.142 2.63417 1.89162 0
M  V30 1594 H 142.927 3.87168 0.619951 0
M  V30 1595 H 144.417 3.85318 1.60995 0
M  V30 1596 N 144.854 0.36279 1.53368 0
M  V30 1597 C 146.082 -0.228613 2.05633 0
M  V30 1598 C 146.497 -1.42676 1.23649 0
M  V30 1599 O 145.854 -1.80394 0.27647 0
M  V30 1600 C 145.905 -0.624845 3.56059 0
M  V30 1601 O 145.626 0.525675 4.34935 0
M  V30 1602 C 147.127 -1.27493 4.24571 0
M  V30 1603 H 144.347 -0.0407183 0.669763 0
M  V30 1604 H 146.891 0.520352 1.97769 0
M  V30 1605 H 145.046 -1.32373 3.64083 0
M  V30 1606 H 145.46 0.205969 5.24095 0
M  V30 1607 H 146.934 -1.50277 5.31151 0
M  V30 1608 H 147.411 -2.23439 3.78116 0
M  V30 1609 H 148.017 -0.617558 4.20792 0
M  V30 1610 N 146.332 -1.57332 0.0918853 0
M  V30 1611 C 147.262 -2.16872 -0.865371 0
M  V30 1612 C 148.243 -1.10118 -1.29646 0
M  V30 1613 O 149.428 -1.38242 -1.36392 0
M  V30 1614 C 146.558 -2.74649 -2.12569 0
M  V30 1615 C 145.512 -3.86747 -1.83333 0
M  V30 1616 C 144.838 -4.31212 -3.16166 0
M  V30 1617 C 146.138 -5.10089 -1.1228 0
M  V30 1618 H 147.832 -2.97114 -0.369307 0
M  V30 1619 H 145.378 -1.42918 -0.176194 0
M  V30 1620 H 147.331 -3.14952 -2.7997 0
M  V30 1621 H 146.055 -1.91657 -2.64452 0
M  V30 1622 H 144.714 -3.46978 -1.18331 0
M  V30 1623 H 144.362 -3.45115 -3.6593 0
M  V30 1624 H 144.062 -5.06788 -2.97388 0
M  V30 1625 H 145.586 -4.74146 -3.84731 0
M  V30 1626 H 147 -5.47582 -1.69785 0
M  V30 1627 H 145.397 -5.91073 -1.03693 0
M  V30 1628 H 146.467 -4.84786 -0.105041 0
M  V30 1629 N 147.81 0.181792 -1.56548 0
M  V30 1630 C 149.035 0.920019 -1.85877 0
M  V30 1631 C 149.46 1.75494 -0.677021 0
M  V30 1632 O 148.818 1.77399 0.374056 0
M  V30 1633 C 148.866 1.78112 -3.13542 0
M  V30 1634 O 147.97 2.88152 -2.95029 0
M  V30 1635 H 147.311 0.258334 -0.611686 0
M  V30 1636 H 149.841 0.183092 -2.03779 0
M  V30 1637 H 149.851 2.18314 -3.44678 0
M  V30 1638 H 148.526 1.16777 -3.99169 0
M  V30 1639 H 147.103 2.51609 -2.75222 0
M  V30 1640 N 149.288 1.51039 0.449983 0
M  V30 1641 C 150.22 1.67617 1.56324 0
M  V30 1642 C 151.233 0.557083 1.52972 0
M  V30 1643 O 152.422 0.830989 1.57977 0
M  V30 1644 C 149.522 1.66402 2.95235 0
M  V30 1645 C 148.695 2.9469 3.23229 0
M  V30 1646 C 147.754 2.85832 4.41799 0
M  V30 1647 O 146.78 3.59785 4.41071 0
M  V30 1648 N 147.982 2.00821 5.44657 0
M  V30 1649 H 150.747 2.63648 1.42512 0
M  V30 1650 H 148.308 1.48767 0.638737 0
M  V30 1651 H 150.3 1.58062 3.72557 0
M  V30 1652 H 148.87 0.780182 3.02708 0
M  V30 1653 H 148.09 3.16996 2.34323 0
M  V30 1654 H 149.378 3.79636 3.38754 0
M  V30 1655 H 148.776 1.40091 5.48079 0
M  V30 1656 H 147.333 1.98368 6.20881 0
M  V30 1657 N 150.766 -0.704594 1.40972 0
M  V30 1658 C 151.994 -1.49354 1.43182 0
M  V30 1659 C 152.409 -1.88768 0.0345508 0
M  V30 1660 O 151.766 -1.56184 -0.944081 0
M  V30 1661 C 151.817 -2.76187 2.33244 0
M  V30 1662 O 151.538 -2.38436 3.67532 0
M  V30 1663 C 153.039 -3.7 2.44162 0
M  V30 1664 H 150.259 -0.460559 0.487982 0
M  V30 1665 H 152.803 -0.868261 1.85153 0
M  V30 1666 H 150.958 -3.34974 1.94606 0
M  V30 1667 H 151.372 -3.20126 4.15475 0
M  V30 1668 H 152.846 -4.55803 3.11364 0
M  V30 1669 H 153.323 -4.13867 1.47006 0
M  V30 1670 H 153.929 -3.17121 2.83398 0
M  V30 1671 N 152.244 -1.26651 -0.937939 0
M  V30 1672 C 153.493 -1.11775 -1.67897 0
M  V30 1673 C 153.806 0.33794 -1.92659 0
M  V30 1674 O 155.012 0.607434 -2.64618 0
M  V30 1675 C 153.468 -1.9523 -3.02346 0
M  V30 1676 C 153.076 -3.45393 -2.8532 0
M  V30 1677 C 154.82 -1.88972 -3.80118 0
M  V30 1678 C 152.727 -4.21083 -4.15263 0
M  V30 1679 H 151.657 -0.414696 -0.629717 0
M  V30 1680 H 154.308 -1.50988 -1.04283 0
M  V30 1681 H 152.69 -1.48853 -3.66959 0
M  V30 1682 H 153.864 -3.99561 -2.29537 0
M  V30 1683 H 152.179 -3.52921 -2.20988 0
M  V30 1684 H 154.776 -2.42805 -4.76392 0
M  V30 1685 H 155.119 -0.86113 -4.07296 0
M  V30 1686 H 155.652 -2.33189 -3.22285 0
M  V30 1687 H 152.391 -5.24425 -3.93267 0
M  V30 1688 H 151.911 -3.71695 -4.70747 0
M  V30 1689 H 153.59 -4.29706 -4.83696 0
M  V30 1690 N 153.722 1.14298 -1.08507 0
M  V30 1691 C 154.968 1.85633 -0.816581 0
M  V30 1692 C 155.301 1.82784 0.656021 0
M  V30 1693 O 154.576 1.25926 1.48233 0
M  V30 1694 C 154.859 3.34223 -1.34041 0
M  V30 1695 C 154.712 3.45639 -2.87843 0
M  V30 1696 C 156.031 4.29356 -0.9665 0
M  V30 1697 H 153.15 0.67402 -0.298104 0
M  V30 1698 H 155.792 1.34214 -1.34487 0
M  V30 1699 H 153.942 3.78144 -0.89104 0
M  V30 1700 H 155.614 3.10498 -3.41158 0
M  V30 1701 H 153.857 2.86817 -3.25451 0
M  V30 1702 H 154.528 4.50089 -3.19569 0
M  V30 1703 H 157.004 3.93457 -1.35391 0
M  V30 1704 H 155.88 5.3178 -1.3602 0
M  V30 1705 H 156.141 4.41919 0.126362 0
M  V30 1706 N 155.201 0.870884 1.31352 0
M  V30 1707 C 156.612 0.534714 1.78879 0
M  V30 1708 C 156.963 -0.948423 1.71754 0
M  V30 1709 O 156.088 -1.74055 1.28584 0
M  V30 1710 C 156.683 0.963839 3.24801 0
M  V30 1711 C 155.242 0.679311 3.70219 0
M  V30 1712 C 154.389 1.15465 2.52117 0
M  V30 1713 H 157.34 1.05651 1.18421 0
M  V30 1714 H 157.361 0.286892 3.79417 0
M  V30 1715 H 156.873 2.04332 3.29955 0
M  V30 1716 H 154.974 -0.388769 3.70566 0
M  V30 1717 H 155.087 1.25698 4.62317 0
M  V30 1718 H 153.451 0.574383 2.48139 0
M  V30 1719 H 154.234 2.24157 2.60016 0
M  V30 1720 N 156.679 -1.44442 0.630414 0
M  V30 1721 C 157.928 -2.01267 0.132073 0
M  V30 1722 C 158.241 -1.50172 -1.25331 0
M  V30 1723 O 159.447 -1.9912 -1.84562 0
M  V30 1724 C 157.903 -3.59422 0.185362 0
M  V30 1725 C 157.511 -4.19514 1.57201 0
M  V30 1726 C 159.255 -4.23724 -0.256553 0
M  V30 1727 C 157.162 -5.69891 1.58045 0
M  V30 1728 H 156.092 -0.752619 0.0456092 0
M  V30 1729 H 158.743 -1.65666 0.789106 0
M  V30 1730 H 157.125 -3.92318 -0.538759 0
M  V30 1731 H 158.299 -3.98156 2.31966 0
M  V30 1732 H 156.614 -3.67496 1.95795 0
M  V30 1733 H 159.211 -5.34019 -0.269767 0
M  V30 1734 H 159.554 -3.96013 -1.28372 0
M  V30 1735 H 160.087 -3.95629 0.41505 0
M  V30 1736 H 156.826 -6.02336 2.58597 0
M  V30 1737 H 156.346 -5.93373 0.875725 0
M  V30 1738 H 158.025 -6.33515 1.31408 0
M  V30 1739 N 158.157 -0.370918 -1.53173 0
M  V30 1740 C 159.397 0.217106 -2.03244 0
M  V30 1741 C 159.761 1.45558 -1.25207 0
M  V30 1742 O 160.962 2.11957 -1.65311 0
M  V30 1743 C 159.233 0.496664 -3.53932 0
M  V30 1744 S 160.792 1.0576 -4.25864 0
M  V30 1745 H 157.61 0.0627827 -0.708223 0
M  V30 1746 H 160.212 -0.515019 -1.88594 0
M  V30 1747 H 158.916 -0.412096 -4.08326 0
M  V30 1748 H 158.447 1.25772 -3.72753 0
M  V30 1749 H 160.462 2.34145 -4.37482 0
M  V30 1750 N 159.635 1.57281 -0.100228 0
M  V30 1751 C 160.565 2.17328 0.853857 0
M  V30 1752 C 161.546 1.10804 1.2906 0
M  V30 1753 O 162.731 1.38963 1.35657 0
M  V30 1754 C 159.861 2.75772 2.11109 0
M  V30 1755 C 158.815 3.87713 1.81279 0
M  V30 1756 C 158.141 4.32882 3.13874 0
M  V30 1757 C 159.441 5.10677 1.09574 0
M  V30 1758 H 161.135 2.97305 0.353545 0
M  V30 1759 H 158.681 1.43009 0.168612 0
M  V30 1760 H 160.634 3.16433 2.78296 0
M  V30 1761 H 159.358 1.93057 2.63432 0
M  V30 1762 H 158.017 3.476 1.16489 0
M  V30 1763 H 157.665 3.47051 3.64095 0
M  V30 1764 H 157.365 5.08358 2.94696 0
M  V30 1765 H 158.889 4.7618 3.82211 0
M  V30 1766 H 160.303 5.48474 1.66879 0
M  V30 1767 H 158.7 5.91615 1.00557 0
M  V30 1768 H 159.77 4.84835 0.0793299 0
M  V30 1769 N 161.113 -0.173488 1.56642 0
M  V30 1770 C 162.524 -0.736155 1.71574 0
M  V30 1771 C 162.875 -1.82888 0.710389 0
M  V30 1772 O 162 -2.16017 -0.1287 0
M  V30 1773 C 162.595 -1.34211 3.11083 0
M  V30 1774 C 161.154 -1.85162 3.27707 0
M  V30 1775 C 160.301 -0.729765 2.67525 0
M  V30 1776 H 163.252 0.0518786 1.58615 0
M  V30 1777 H 163.273 -2.21178 3.09613 0
M  V30 1778 H 162.785 -0.546579 3.84232 0
M  V30 1779 H 160.886 -2.67366 2.59512 0
M  V30 1780 H 160.999 -1.99855 4.35425 0
M  V30 1781 H 159.363 -1.14965 2.27278 0
M  V30 1782 H 160.146 0.0538806 3.43258 0
M  V30 1783 N 162.591 -1.51276 -0.441967 0
M  V30 1784 C 163.868 -1.54252 -1.20273 0
M  V30 1785 C 164.248 -0.30408 -2.08898 0
M  V30 1786 O 163.596 0.711084 -2.17154 0
M  V30 1787 C 163.806 -2.85406 -2.00859 0
M  V30 1788 C 165.154 -3.37181 -2.58059 0
M  V30 1789 O 166.178 -2.86925 -2.11074 0
M  V30 1790 O 165.037 -4.24858 -3.43741 0
M  V30 1791 H 162.131 -0.619969 -0.547328 0
M  V30 1792 H 164.677 -1.63586 -0.451413 0
M  V30 1793 H 163.449 -3.67003 -1.35736 0
M  V30 1794 H 163.072 -2.79213 -2.83065 0
M  V30 1795 N 164.069 0.697108 -1.41344 0
M  V30 1796 C 165.294 1.49096 -1.44171 0
M  V30 1797 C 165.719 1.88038 -0.0481568 0
M  V30 1798 O 165.077 1.54525 0.948243 0
M  V30 1799 C 165.125 2.73088 -2.3549 0
M  V30 1800 O 164.229 3.70514 -1.81088 0
M  V30 1801 H 163.57 0.448801 -0.489361 0
M  V30 1802 H 166.1 0.856992 -1.85787 0
M  V30 1803 H 166.11 3.21413 -2.51312 0
M  V30 1804 H 164.785 2.44081 -3.36745 0
M  V30 1805 H 163.362 3.29441 -1.74708 0
M  V30 1806 N 165.547 1.27147 0.931209 0
M  V30 1807 C 166.795 1.13055 1.6752 0
M  V30 1808 C 167.116 -0.324791 1.92276 0
M  V30 1809 O 166.386 -1.22775 1.52654 0
M  V30 1810 H 164.966 0.415391 0.620854 0
M  V30 1811 H 167.628 1.59623 1.11833 0
M  V30 1812 H 166.724 1.65694 2.64485 0
M  V30 1813 N 167.025 -1.13721 1.09112 0
M  V30 1814 C 167.955 -2.21148 0.749385 0
M  V30 1815 C 168.936 -1.6792 -0.271475 0
M  V30 1816 O 170.121 -1.93693 -0.140251 0
M  V30 1817 C 167.251 -3.46905 0.165659 0
M  V30 1818 C 166.205 -4.13203 1.11567 0
M  V30 1819 C 165.531 -5.33248 0.393809 0
M  V30 1820 C 166.831 -4.60912 2.45678 0
M  V30 1821 H 168.525 -2.4999 1.64758 0
M  V30 1822 H 166.071 -1.20156 0.793626 0
M  V30 1823 H 168.024 -4.21313 -0.085466 0
M  V30 1824 H 166.748 -3.17449 -0.767714 0
M  V30 1825 H 165.407 -3.40758 1.35202 0
M  V30 1826 H 165.055 -5.00054 -0.543599 0
M  V30 1827 H 164.755 -5.78552 1.02721 0
M  V30 1828 H 166.279 -6.10413 0.150908 0
M  V30 1829 H 167.693 -5.26759 2.26269 0
M  V30 1830 H 166.09 -5.16944 3.04776 0
M  V30 1831 H 167.16 -3.75603 3.06677 0
M  V30 1832 N 168.503 -0.877838 -1.30888 0
M  V30 1833 C 169.466 -0.344265 -2.266 0
M  V30 1834 C 170.466 0.50922 -1.52524 0
M  V30 1835 O 171.656 0.317398 -1.71284 0
M  V30 1836 C 168.788 0.510198 -3.37061 0
M  V30 1837 H 169.981 -1.1893 -2.7531 0
M  V30 1838 H 167.534 -0.654088 -1.41956 0
M  V30 1839 H 168.269 1.37612 -2.93655 0
M  V30 1840 H 168.054 -0.101047 -3.9197 0
M  V30 1841 H 169.544 0.875537 -4.08319 0
M  V30 1842 N 169.982 1.44106 -0.638065 0
M  V30 1843 C 170.892 2.34513 0.0637334 0
M  V30 1844 C 171.908 1.53018 0.828346 0
M  V30 1845 O 173.084 1.85723 0.779036 0
M  V30 1846 C 170.149 3.31095 1.02844 0
M  V30 1847 C 169.21 4.28497 0.26244 0
M  V30 1848 C 168.443 5.20465 1.1812 0
M  V30 1849 O 168.666 5.16514 2.42011 0
M  V30 1850 O 167.6 5.98251 0.661774 0
M  V30 1851 H 171.426 2.95989 -0.68003 0
M  V30 1852 H 169.011 1.43994 -0.398252 0
M  V30 1853 H 170.893 3.90526 1.58327 0
M  V30 1854 H 169.568 2.72144 1.7527 0
M  V30 1855 H 168.475 3.72592 -0.335602 0
M  V30 1856 H 169.808 4.90388 -0.421936 0
M  V30 1857 N 171.46 0.379036 1.52974 0
M  V30 1858 C 172.876 0.0285448 1.59574 0
M  V30 1859 C 173.076 -1.45542 1.39355 0
M  V30 1860 O 172.132 -2.2187 1.20541 0
M  V30 1861 C 173.445 0.496535 2.96572 0
M  V30 1862 C 174.993 0.451909 3.0972 0
M  V30 1863 C 175.468 0.895924 4.49152 0
M  V30 1864 N 176.959 0.851522 4.55306 0
M  V30 1865 C 177.694 1.16661 5.61407 0
M  V30 1866 N 177.19 1.55166 6.752 0
M  V30 1867 N 178.983 1.08853 5.51459 0
M  V30 1868 H 171.134 1.34525 1.64367 0
M  V30 1869 H 173.397 0.550733 0.771619 0
M  V30 1870 H 173.103 1.53258 3.16552 0
M  V30 1871 H 172.977 -0.109802 3.7704 0
M  V30 1872 H 175.364 -0.575029 2.89443 0
M  V30 1873 H 175.445 1.09392 2.3123 0
M  V30 1874 H 175.089 1.92104 4.70168 0
M  V30 1875 H 175.019 0.23103 5.26093 0
M  V30 1876 H 177.51 0.568038 3.73606 0
M  V30 1877 H 177.823 1.776 7.52116 0
M  V30 1878 H 176.168 1.59044 6.76557 0
M  V30 1879 H 179.359 0.786803 4.6144 0
M  V30 1880 H 179.532 1.33742 6.34048 0
M  V30 1881 N 172.938 -1.57226 0.108567 0
M  V30 1882 C 173.848 -2.18292 -0.859401 0
M  V30 1883 C 174.864 -1.15612 -1.30038 0
M  V30 1884 O 176.04 -1.48039 -1.36552 0
M  V30 1885 C 173.105 -2.762 -2.09558 0
M  V30 1886 C 172.166 -3.93881 -1.70752 0
M  V30 1887 C 171.399 -4.49018 -2.88477 0
M  V30 1888 O 171.622 -4.03068 -4.036 0
M  V30 1889 O 170.556 -5.39852 -2.66164 0
M  V30 1890 H 174.382 -3.01441 -0.369769 0
M  V30 1891 H 171.967 -1.48945 -0.1165 0
M  V30 1892 H 173.849 -3.13156 -2.81978 0
M  V30 1893 H 172.524 -1.96089 -2.57548 0
M  V30 1894 H 171.431 -3.61713 -0.954714 0
M  V30 1895 H 172.764 -4.75396 -1.27513 0
M  V30 1896 N 174.416 0.165178 -1.56732 0
M  V30 1897 C 175.346 1.20651 -1.99914 0
M  V30 1898 C 176.327 1.45827 -0.875705 0
M  V30 1899 O 177.512 1.57057 -1.14223 0
M  V30 1900 C 174.642 2.54401 -2.36427 0
M  V30 1901 C 173.596 2.43782 -3.51787 0
M  V30 1902 C 172.922 3.82078 -3.7406 0
M  V30 1903 C 174.222 1.93732 -4.85041 0
M  V30 1904 H 175.916 0.847534 -2.87154 0
M  V30 1905 H 173.462 0.40625 -1.38151 0
M  V30 1906 H 175.415 3.27458 -2.65234 0
M  V30 1907 H 174.139 2.92098 -1.46103 0
M  V30 1908 H 172.798 1.73178 -3.23117 0
M  V30 1909 H 172.446 4.17179 -2.81017 0
M  V30 1910 H 172.146 3.7584 -4.51684 0
M  V30 1911 H 173.67 4.56712 -4.05274 0
M  V30 1912 H 175.084 2.56569 -5.12684 0
M  V30 1913 H 173.481 1.98428 -5.66345 0
M  V30 1914 H 174.551 0.891962 -4.76626 0
M  V30 1915 N 175.894 1.51508 0.433938 0
M  V30 1916 C 176.842 1.73646 1.54757 0
M  V30 1917 C 177.836 0.602854 1.5831 0
M  V30 1918 O 179.042 0.784318 1.62014 0
M  V30 1919 H 175.417 0.548718 0.51421 0
M  V30 1920 H 177.388 2.66991 1.33261 0
M  V30 1921 C 176.137 1.88172 2.92381 0
M  V30 1922 H 175.46 2.74808 2.90381 0
M  V30 1923 H 176.9 2.07672 3.6966 0
M  V30 1924 C 175.359 0.64239 3.30719 0
M  V30 1925 O 175.889 -0.201362 4.01195 0
M  V30 1926 N 174.095 0.485489 2.86516 0
M  V30 1927 H 173.642 1.17318 2.29334 0
M  V30 1928 H 173.6 -0.342482 3.12529 0
M  V30 1929 N 177.372 -0.689602 1.41712 0
M  V30 1930 C 178.304 -1.815 1.39966 0
M  V30 1931 C 179.317 -1.59995 0.300917 0
M  V30 1932 O 180.506 -1.69387 0.563039 0
M  V30 1933 C 177.606 -3.18364 1.16179 0
M  V30 1934 C 176.779 -3.66847 2.38206 0
M  V30 1935 C 175.838 -4.82398 2.10186 0
M  V30 1936 O 174.864 -4.93706 2.83272 0
M  V30 1937 N 176.066 -5.70064 1.0958 0
M  V30 1938 H 178.831 -1.83488 2.36965 0
M  V30 1939 H 176.392 -0.872149 1.36401 0
M  V30 1940 H 178.384 -3.93301 0.953756 0
M  V30 1941 H 176.954 -3.11365 0.27756 0
M  V30 1942 H 176.174 -2.82751 2.74673 0
M  V30 1943 H 177.462 -3.95978 3.19498 0
M  V30 1944 H 176.86 -5.63565 0.491019 0
M  V30 1945 H 175.417 -6.44874 0.947656 0
M  V30 1946 N 178.85 -1.27639 -0.924453 0
M  V30 1947 C 179.813 -1.10681 -2.00705 0
M  V30 1948 C 180.813 -0.0497823 -1.60723 0
M  V30 1949 O 182.003 -0.294654 -1.7169 0
M  V30 1950 C 179.135 -0.687164 -3.33902 0
M  V30 1951 H 180.328 -2.06817 -2.17179 0
M  V30 1952 H 177.881 -1.10473 -1.10569 0
M  V30 1953 H 178.616 0.275439 -3.23128 0
M  V30 1954 H 178.401 -1.45061 -3.6428 0
M  V30 1955 H 179.891 -0.590853 -4.13399 0
M  V30 1956 N 180.328 1.1314 -1.09713 0
M  V30 1957 C 181.576 1.84119 -0.833338 0
M  V30 1958 C 181.897 1.84097 0.642904 0
M  V30 1959 O 181.167 1.29881 1.46655 0
M  V30 1960 H 179.747 0.681766 -0.305293 0
M  V30 1961 H 182.409 1.37038 -1.38588 0
M  V30 1962 H 181.505 2.88543 -1.18951 0
M  V30 1963 N 181.806 0.884767 1.30421 0
M  V30 1964 C 182.738 0.308655 2.27112 0
M  V30 1965 C 183.751 -0.536655 1.53701 0
M  V30 1966 O 184.94 -0.35624 1.74909 0
M  V30 1967 C 182.04 -0.579782 3.33904 0
M  V30 1968 C 181.213 0.236417 4.36761 0
M  V30 1969 C 180.272 -0.582482 5.22966 0
M  V30 1970 O 179.298 -0.00525502 5.692 0
M  V30 1971 N 180.5 -1.89163 5.48815 0
M  V30 1972 H 183.265 1.13964 2.77186 0
M  V30 1973 H 180.826 0.747731 1.43599 0
M  V30 1974 H 182.818 -1.13366 3.88497 0
M  V30 1975 H 181.388 -1.31144 2.83761 0
M  V30 1976 H 180.608 0.97174 3.82035 0
M  V30 1977 H 181.896 0.795924 5.02536 0
M  V30 1978 H 181.294 -2.38352 5.13035 0
M  V30 1979 H 179.851 -2.39296 6.06284 0
M  V30 1980 N 183.284 -1.43765 0.645699 0
M  V30 1981 C 184.194 -2.34544 -0.0512957 0
M  V30 1982 C 185.21 -1.53455 -0.82022 0
M  V30 1983 O 186.386 -1.86133 -0.769176 0
M  V30 1984 C 183.451 -3.31636 -1.01087 0
M  V30 1985 C 182.512 -4.2863 -0.239712 0
M  V30 1986 C 181.745 -5.21084 -1.15358 0
M  V30 1987 O 181.968 -5.1779 -2.39269 0
M  V30 1988 O 180.902 -5.98593 -0.630038 0
M  V30 1989 H 184.728 -2.95624 0.695718 0
M  V30 1990 H 182.313 -1.43781 0.405882 0
M  V30 1991 H 184.195 -3.9136 -1.56254 0
M  V30 1992 H 182.87 -2.73069 -1.73824 0
M  V30 1993 H 181.777 -3.72408 0.355356 0
M  V30 1994 H 183.11 -4.90157 0.447936 0
M  V30 1995 N 184.763 -0.387143 -1.52771 0
M  V30 1996 C 185.991 0.195869 -2.05971 0
M  V30 1997 C 186.406 1.40691 -1.25903 0
M  V30 1998 O 185.763 1.79931 -0.305134 0
M  V30 1999 C 185.814 0.56812 -3.57008 0
M  V30 2000 O 185.535 -0.594803 -4.34043 0
M  V30 2001 C 187.036 1.20723 -4.26545 0
M  V30 2002 H 184.256 0.0300578 -0.670326 0
M  V30 2003 H 186.8 -0.551749 -1.96916 0
M  V30 2004 H 184.955 1.26564 -3.66143 0
M  V30 2005 H 185.369 -0.289322 -5.23701 0
M  V30 2006 H 186.843 1.41807 -5.33474 0
M  V30 2007 H 187.32 2.17395 -3.81623 0
M  V30 2008 H 187.926 0.550535 -4.21722 0
M  V30 2009 N 186.241 1.57166 -0.116904 0
M  V30 2010 C 187.171 2.18222 0.830759 0
M  V30 2011 C 188.152 1.12167 1.27877 0
M  V30 2012 O 189.337 1.40394 1.34176 0
M  V30 2013 C 186.467 2.77996 2.08172 0
M  V30 2014 C 185.421 3.89614 1.77157 0
M  V30 2015 C 184.747 4.36187 3.09265 0
M  V30 2016 C 186.047 5.1181 1.04151 0
M  V30 2017 H 187.741 2.97664 0.321992 0
M  V30 2018 H 185.287 1.4318 0.153434 0
M  V30 2019 H 187.24 3.19366 2.74924 0
M  V30 2020 H 185.964 1.9584 2.6137 0
M  V30 2021 H 184.623 3.48816 1.12796 0
M  V30 2022 H 184.271 3.50893 3.60393 0
M  V30 2023 H 183.971 5.11455 2.89288 0
M  V30 2024 H 185.495 4.80207 3.77139 0
M  V30 2025 H 186.909 5.50214 1.61052 0
M  V30 2026 H 185.306 5.92648 0.942762 0
M  V30 2027 H 186.376 4.84892 0.0279022 0
M  V30 2028 N 187.719 -0.156864 1.56817 0
M  V30 2029 C 188.965 -0.872416 1.83076 0
M  V30 2030 C 189.298 -1.81261 0.697001 0
M  V30 2031 O 188.573 -1.92171 -0.30008 0
M  V30 2032 C 188.856 -1.65551 3.19789 0
M  V30 2033 C 188.709 -0.737467 4.43713 0
M  V30 2034 C 190.028 -2.62012 3.53606 0
M  V30 2035 H 187.147 -0.315715 0.665953 0
M  V30 2036 H 189.789 -0.138004 1.89498 0
M  V30 2037 H 187.939 -2.28159 3.14445 0
M  V30 2038 H 189.611 -0.123143 4.61136 0
M  V30 2039 H 187.854 -0.0464067 4.33775 0
M  V30 2040 H 188.525 -1.32122 5.35955 0
M  V30 2041 H 191.001 -2.09525 3.59497 0
M  V30 2042 H 189.877 -3.13861 4.50314 0
M  V30 2043 H 190.138 -3.42902 2.79053 0
M  V30 2044 N 189.197 -1.51736 -0.425897 0
M  V30 2045 C 190.425 -1.68794 -1.1965 0
M  V30 2046 C 190.84 -0.390164 -1.84725 0
M  V30 2047 O 190.197 0.632376 -1.71194 0
M  V30 2048 C 190.248 -2.81174 -2.27208 0
M  V30 2049 O 189.969 -4.05925 -1.64793 0
M  V30 2050 C 191.47 -3.09599 -3.17275 0
M  V30 2051 H 188.69 -0.566128 -0.360194 0
M  V30 2052 H 191.234 -1.98211 -0.503249 0
M  V30 2053 H 189.389 -2.54324 -2.9223 0
M  V30 2054 H 189.803 -4.68423 -2.35967 0
M  V30 2055 H 191.277 -3.91786 -3.88854 0
M  V30 2056 H 191.754 -2.22468 -3.78688 0
M  V30 2057 H 192.36 -3.38151 -2.57941 0
M  V30 2058 N 190.675 0.682077 -1.42076 0
M  V30 2059 C 191.923 1.4393 -1.41876 0
M  V30 2060 C 192.244 1.94971 -0.0335599 0
M  V30 2061 O 191.514 1.72591 0.926773 0
M  V30 2062 H 190.094 0.534085 -0.522267 0
M  V30 2063 H 192.756 0.806427 -1.77434 0
M  V30 2064 H 191.852 2.29588 -2.11414 0
M  V30 2065 N 192.153 1.28127 0.917671 0
M  V30 2066 C 193.399 1.16232 1.66918 0
M  V30 2067 C 193.754 -0.28701 1.90247 0
M  V30 2068 O 193.047 -1.20586 1.48895 0
M  V30 2069 C 193.241 1.89018 3.03327 0
M  V30 2070 C 193.07 3.4088 2.9331 0
M  V30 2071 C 191.84 4.10214 2.95047 0
M  V30 2072 C 194.038 4.36689 2.71675 0
M  V30 2073 N 192.02 5.48571 2.75577 0
M  V30 2074 C 193.391 5.62382 2.6101 0
M  V30 2075 C 195.446 4.26661 2.56641 0
M  V30 2076 C 194.149 6.79189 2.36843 0
M  V30 2077 C 196.175 5.432 2.33853 0
M  V30 2078 C 195.537 6.67855 2.23939 0
M  V30 2079 H 191.636 0.48024 0.617166 0
M  V30 2080 H 194.22 1.61727 1.08409 0
M  V30 2081 H 192.391 1.45963 3.59929 0
M  V30 2082 H 194.123 1.69541 3.67475 0
M  V30 2083 H 190.878 3.61762 3.05655 0
M  V30 2084 H 191.302 6.21287 2.68945 0
M  V30 2085 H 195.944 3.30998 2.63059 0
M  V30 2086 H 193.662 7.74926 2.29164 0
M  V30 2087 H 197.248 5.37328 2.23091 0
M  V30 2088 H 196.128 7.56511 2.06546 0
M  V30 2089 N 193.631 -1.12557 1.10312 0
M  V30 2090 C 194.879 -1.83675 0.843091 0
M  V30 2091 C 195.2 -1.84435 -0.633131 0
M  V30 2092 O 194.47 -1.30657 -1.45964 0
M  V30 2093 H 193.05 -0.680138 0.308904 0
M  V30 2094 H 195.712 -1.36301 1.39313 0
M  V30 2095 H 194.808 -2.87908 1.2048 0
M  V30 2096 N 195.109 -0.891671 -1.2995 0
M  V30 2097 C 196.339 -0.527893 -1.99742 0
M  V30 2098 C 196.747 0.88979 -1.66971 0
M  V30 2099 O 196.09 1.59766 -0.906667 0
M  V30 2100 C 196.152 -0.630804 -3.53922 0
M  V30 2101 C 195.816 -2.01401 -4.10228 0
M  V30 2102 C 196.813 -2.98422 -4.25724 0
M  V30 2103 C 194.498 -2.32121 -4.45449 0
M  V30 2104 C 196.492 -4.24293 -4.75662 0
M  V30 2105 C 194.179 -3.58237 -4.95086 0
M  V30 2106 C 195.177 -4.54137 -5.10146 0
M  V30 2107 O 194.865 -5.78014 -5.58708 0
M  V30 2108 H 194.597 -0.201953 -0.645129 0
M  V30 2109 H 197.151 -1.20076 -1.66646 0
M  V30 2110 H 195.381 0.0990616 -3.86573 0
M  V30 2111 H 197.07 -0.277338 -4.04951 0
M  V30 2112 H 197.836 -2.76001 -3.98809 0
M  V30 2113 H 193.715 -1.5824 -4.32991 0
M  V30 2114 H 197.259 -4.99153 -4.87332 0
M  V30 2115 H 193.156 -3.80491 -5.21437 0
M  V30 2116 H 193.924 -5.8049 -5.77039 0
M  V30 2117 N 196.587 1.43421 -0.653314 0
M  V30 2118 C 197.537 2.2792 0.060558 0
M  V30 2119 C 198.521 1.39906 0.794677 0
M  V30 2120 O 199.713 1.63536 0.677128 0
M  V30 2121 C 196.842 3.27603 1.0262 0
M  V30 2122 C 195.928 4.23104 0.290551 0
M  V30 2123 N 196.319 5.01031 -0.692967 0
M  V30 2124 C 194.617 4.42816 0.531984 0
M  V30 2125 C 195.318 5.70626 -1.12963 0
M  V30 2126 N 194.294 5.41617 -0.463867 0
M  V30 2127 H 198.096 2.85585 -0.694143 0
M  V30 2128 H 195.61 1.55126 -0.480602 0
M  V30 2129 H 197.607 3.86918 1.55242 0
M  V30 2130 H 196.267 2.71499 1.78096 0
M  V30 2131 H 197.278 5.0669 -1.07169 0
M  V30 2132 H 193.955 3.97782 1.26791 0
M  V30 2133 H 195.345 6.4318 -1.94343 0
M  V30 2134 N 198.065 0.39524 1.52563 0
M  V30 2135 C 199.29 -0.187456 2.06551 0
M  V30 2136 C 199.715 -1.39249 1.26457 0
M  V30 2137 O 199.073 -1.78947 0.291151 0
M  V30 2138 C 199.121 -0.529985 3.56684 0
M  V30 2139 O 198.225 -1.62307 3.79118 0
M  V30 2140 H 197.566 -0.0202537 0.663691 0
M  V30 2141 H 200.096 0.564426 1.96661 0
M  V30 2142 H 200.106 -0.792598 4.00227 0
M  V30 2143 H 198.781 0.350987 4.14416 0
M  V30 2144 H 197.358 -1.3537 3.47461 0
M  V30 2145 N 199.544 -1.57102 0.125237 0
M  V30 2146 C 200.769 -2.0019 -0.542101 0
M  V30 2147 C 201.194 -1.00449 -1.59034 0
M  V30 2148 O 200.552 0.0229423 -1.81285 0
M  V30 2149 C 200.6 -3.42129 -1.13929 0
M  V30 2150 O 199.704 -3.45307 -2.2547 0
M  V30 2151 H 199.045 -0.650171 -0.134812 0
M  V30 2152 H 201.575 -2.03461 0.215553 0
M  V30 2153 H 201.585 -3.80471 -1.4733 0
M  V30 2154 H 200.26 -4.14237 -0.371531 0
M  V30 2155 H 198.837 -3.1879 -1.93462 0
M  V30 2156 N 201.022 0.148545 -1.56898 0
M  V30 2157 C 202.438 0.501131 -1.51528 0
M  V30 2158 C 202.638 1.83458 -0.833399 0
M  V30 2159 O 201.694 2.49259 -0.40328 0
M  V30 2160 C 203.007 0.512864 -2.96294 0
M  V30 2161 C 204.555 0.598487 -3.07225 0
M  V30 2162 C 205.03 0.640897 -4.53494 0
M  V30 2163 N 206.521 0.703163 -4.57832 0
M  V30 2164 C 207.256 0.756935 -5.68382 0
M  V30 2165 N 206.752 0.770147 -6.88506 0
M  V30 2166 N 208.545 0.797698 -5.56411 0
M  V30 2167 H 200.696 -0.725532 -1.99624 0
M  V30 2168 H 202.959 -0.264358 -0.910395 0
M  V30 2169 H 202.665 -0.398691 -3.49433 0
M  V30 2170 H 202.539 1.35133 -3.52163 0
M  V30 2171 H 204.926 1.50046 -2.54106 0
M  V30 2172 H 205.007 -0.267093 -2.54402 0
M  V30 2173 H 204.651 -0.256915 -5.0725 0
M  V30 2174 H 204.581 1.52295 -5.04097 0
M  V30 2175 H 207.072 0.700314 -3.71354 0
M  V30 2176 H 207.385 0.812983 -7.68512 0
M  V30 2177 H 205.73 0.738049 -6.9107 0
M  V30 2178 H 208.921 0.784535 -4.61479 0
M  V30 2179 H 209.094 0.83614 -6.42583 0
M  V30 2180 N 202.5 1.5196 0.417844 0
M  V30 2181 C 203.41 1.77554 1.53336 0
M  V30 2182 C 204.426 0.660655 1.6097 0
M  V30 2183 O 205.602 0.945099 1.77848 0
M  V30 2184 C 202.667 1.91291 2.89152 0
M  V30 2185 C 201.728 3.15183 2.91475 0
M  V30 2186 C 200.961 3.28256 4.20813 0
M  V30 2187 O 201.184 2.46798 5.14244 0
M  V30 2188 O 200.118 4.21356 4.29817 0
M  V30 2189 H 203.944 2.7222 1.34647 0
M  V30 2190 H 201.529 1.36698 0.602828 0
M  V30 2191 H 203.411 2.02199 3.69721 0
M  V30 2192 H 202.086 0.998129 3.07927 0
M  V30 2193 H 200.993 3.09739 2.09791 0
M  V30 2194 H 202.326 4.06414 2.77648 0
M  V30 2195 N 203.978 -0.674533 1.42435 0
M  V30 2196 C 204.925 -1.78807 1.45934 0
M  V30 2197 C 205.895 -1.63157 0.311271 0
M  V30 2198 O 207.08 -1.83707 0.515383 0
M  V30 2199 C 204.22 -3.16839 1.36773 0
M  V30 2200 C 203.333 -3.43774 2.61617 0
M  V30 2201 C 202.468 -4.71536 2.44597 0
M  V30 2202 C 201.507 -4.91505 3.64814 0
M  V30 2203 N 200.644 -6.10508 3.46734 0
M  V30 2204 H 205.484 -1.75151 2.41093 0
M  V30 2205 H 203.021 -0.85504 1.19697 0
M  V30 2206 H 204.979 -3.96606 1.29459 0
M  V30 2207 H 203.609 -3.19619 0.452089 0
M  V30 2208 H 202.661 -2.58259 2.79297 0
M  V30 2209 H 203.973 -3.54423 3.50978 0
M  V30 2210 H 203.127 -5.59393 2.3487 0
M  V30 2211 H 201.866 -4.6317 1.52726 0
M  V30 2212 H 200.871 -4.0209 3.74972 0
M  V30 2213 H 202.096 -5.01716 4.57665 0
M  V30 2214 H 200.042 -6.03315 2.5758 0
M  V30 2215 H 199.959 -6.2202 4.29682 0
M  V30 2216 H 201.227 -7.01044 3.40819 0
M  V30 2217 N 205.456 -1.28612 -0.910864 0
M  V30 2218 C 206.366 -1.14643 -2.0468 0
M  V30 2219 C 207.382 -0.0723121 -1.7385 0
M  V30 2220 O 208.558 -0.282178 -1.99413 0
M  V30 2221 C 205.623 -0.812561 -3.37044 0
M  V30 2222 C 204.684 -1.96935 -3.81465 0
M  V30 2223 C 203.917 -1.65131 -5.07511 0
M  V30 2224 O 204.14 -0.567013 -5.67575 0
M  V30 2225 O 203.074 -2.49585 -5.47714 0
M  V30 2226 H 206.9 -2.1001 -2.19384 0
M  V30 2227 H 204.485 -1.07958 -1.03274 0
M  V30 2228 H 206.367 -0.640441 -4.16505 0
M  V30 2229 H 205.042 0.111426 -3.23508 0
M  V30 2230 H 203.949 -2.19664 -3.02818 0
M  V30 2231 H 205.282 -2.87414 -3.99567 0
M  V30 2232 N 206.934 1.1197 -1.10907 0
M  V30 2233 C 207.897 2.16031 -0.765707 0
M  V30 2234 C 208.897 1.59393 0.212235 0
M  V30 2235 O 210.087 1.74196 -0.0115441 0
M  V30 2236 C 207.219 3.40632 -0.135053 0
M  V30 2237 H 208.412 2.47919 -1.68748 0
M  V30 2238 H 205.965 1.27061 -0.910226 0
M  V30 2239 H 206.7 3.14348 0.797218 0
M  V30 2240 H 206.485 3.8302 -0.838937 0
M  V30 2241 H 207.975 4.17505 0.0892469 0
M  V30 2242 N 208.412 0.89855 1.29475 0
M  V30 2243 C 209.359 0.373819 2.27753 0
M  V30 2244 C 210.329 -0.543444 1.56958 0
M  V30 2245 O 211.514 -0.468934 1.84948 0
M  V30 2246 C 208.654 -0.393648 3.42848 0
M  V30 2247 C 207.767 0.554379 4.28428 0
M  V30 2248 C 206.902 -0.230026 5.30702 0
M  V30 2249 C 205.941 0.712599 6.07938 0
M  V30 2250 N 205.078 -0.0373283 7.0209 0
M  V30 2251 H 209.918 1.21699 2.72017 0
M  V30 2252 H 207.455 0.611456 1.33789 0
M  V30 2253 H 209.413 -0.85466 4.08352 0
M  V30 2254 H 208.043 -1.20128 2.99615 0
M  V30 2255 H 207.095 1.13391 3.63107 0
M  V30 2256 H 208.407 1.27597 4.82204 0
M  V30 2257 H 207.561 -0.752288 6.02018 0
M  V30 2258 H 206.3 -0.984758 4.77654 0
M  V30 2259 H 205.305 1.24637 5.35486 0
M  V30 2260 H 206.53 1.46664 6.63074 0
M  V30 2261 H 204.476 -0.774348 6.51414 0
M  V30 2262 H 204.393 0.624374 7.53417 0
M  V30 2263 H 205.661 -0.539891 7.77628 0
M  V30 2264 N 209.89 -1.43072 0.660911 0
M  V30 2265 C 211.306 -1.56169 0.329173 0
M  V30 2266 C 211.506 -1.64317 -1.16629 0
M  V30 2267 O 210.562 -1.60245 -1.95135 0
M  V30 2268 C 211.875 -2.81873 1.04729 0
M  V30 2269 C 213.423 -2.95627 1.02828 0
M  V30 2270 C 213.898 -4.24174 1.72744 0
M  V30 2271 N 215.389 -4.31055 1.69545 0
M  V30 2272 C 216.124 -5.29304 2.20511 0
M  V30 2273 N 215.62 -6.33786 2.79799 0
M  V30 2274 N 217.413 -5.21008 2.10966 0
M  V30 2275 H 209.564 -1.36027 1.63127 0
M  V30 2276 H 211.827 -0.653823 0.686454 0
M  V30 2277 H 211.533 -2.81942 2.10242 0
M  V30 2278 H 211.407 -3.72338 0.603702 0
M  V30 2279 H 213.794 -2.95094 -0.0184742 0
M  V30 2280 H 213.875 -2.06431 1.51063 0
M  V30 2281 H 213.519 -4.25467 2.7738 0
M  V30 2282 H 213.449 -5.1228 1.2197 0
M  V30 2283 H 215.94 -3.56174 1.26288 0
M  V30 2284 H 216.253 -7.05086 3.16344 0
M  V30 2285 H 214.598 -6.34387 2.83863 0
M  V30 2286 H 217.789 -4.38301 1.64347 0
M  V30 2287 H 217.962 -5.97416 2.50993 0
M  V30 2288 N 211.368 -0.403325 -1.52352 0
M  V30 2289 C 212.316 0.439752 -2.28405 0
M  V30 2290 C 213.31 1.05089 -1.32863 0
M  V30 2291 O 214.516 0.989759 -1.50345 0
M  V30 2292 H 210.891 0.160587 -0.734653 0
M  V30 2293 H 212.862 -0.222983 -2.97566 0
M  V30 2294 C 211.611 1.54736 -3.11371 0
M  V30 2295 H 210.934 1.08643 -3.84755 0
M  V30 2296 H 212.374 2.1112 -3.67701 0
M  V30 2297 C 210.833 2.51141 -2.24566 0
M  V30 2298 O 211.363 3.54887 -1.88196 0
M  V30 2299 N 209.569 2.21213 -1.8845 0
M  V30 2300 H 209.116 1.36878 -2.18225 0
M  V30 2301 H 209.074 2.85963 -1.30662 0
M  V30 2302 N 212.846 1.57033 -0.133567 0
M  V30 2303 C 214.262 1.58035 0.222944 0
M  V30 2304 C 214.462 1.14713 1.6566 0
M  V30 2305 O 213.518 0.841218 2.38075 0
M  V30 2306 C 214.831 3.00691 -0.0236116 0
M  V30 2307 C 216.379 3.12973 0.0411512 0
M  V30 2308 C 216.854 4.57654 -0.177899 0
M  V30 2309 N 218.345 4.63033 -0.124365 0
M  V30 2310 C 219.08 5.72771 -0.268553 0
M  V30 2311 N 218.576 6.91206 -0.46972 0
M  V30 2312 N 220.369 5.61718 -0.2071 0
M  V30 2313 H 212.52 1.8349 -1.06981 0
M  V30 2314 H 214.783 0.848677 -0.422436 0
M  V30 2315 H 214.489 3.36726 -1.0153 0
M  V30 2316 H 214.363 3.70614 0.701808 0
M  V30 2317 H 216.75 2.76787 1.02338 0
M  V30 2318 H 216.831 2.45564 -0.716383 0
M  V30 2319 H 216.475 4.94542 -1.15717 0
M  V30 2320 H 216.405 5.23173 0.599797 0
M  V30 2321 H 218.896 3.7789 0.027011 0
M  V30 2322 H 219.209 7.70693 -0.570212 0
M  V30 2323 H 217.554 6.93156 -0.505876 0
M  V30 2324 H 220.745 4.68072 -0.0507986 0
M  V30 2325 H 220.918 6.47195 -0.322909 0
M  V30 2326 N 214.325 -0.140222 1.56975 0
M  V30 2327 C 215.553 -0.866437 1.87884 0
M  V30 2328 C 215.968 -1.74428 0.722517 0
M  V30 2329 O 215.325 -1.79891 -0.30749 0
M  V30 2330 C 215.376 -1.71753 3.18093 0
M  V30 2331 O 215.097 -0.875056 4.29272 0
M  V30 2332 C 216.598 -2.55074 3.62563 0
M  V30 2333 H 213.818 -0.25019 0.622612 0
M  V30 2334 H 216.362 -0.130977 2.0408 0
M  V30 2335 H 214.517 -2.40598 3.03631 0
M  V30 2336 H 214.931 -1.46002 5.03769 0
M  V30 2337 H 216.405 -3.10356 4.5649 0
M  V30 2338 H 216.882 -3.31434 2.88181 0
M  V30 2339 H 217.488 -1.91509 3.79743 0
M  V30 2340 N 215.803 -1.52179 -0.40978 0
M  V30 2341 C 217.05 -1.66206 -1.15679 0
M  V30 2342 C 217.378 -0.391674 -1.90516 0
M  V30 2343 O 216.633 0.62533 -1.8544 0
M  V30 2344 C 216.932 -2.83428 -2.17723 0
M  V30 2345 C 216.598 -4.21672 -1.59699 0
M  V30 2346 C 215.26 -4.59274 -1.43599 0
M  V30 2347 C 217.612 -5.07825 -1.17317 0
M  V30 2348 C 214.94 -5.80709 -0.836328 0
M  V30 2349 C 217.292 -6.29864 -0.587691 0
M  V30 2350 C 215.956 -6.66216 -0.413818 0
M  V30 2351 H 215.226 -0.608192 -0.423301 0
M  V30 2352 H 217.873 -1.86279 -0.444097 0
M  V30 2353 H 216.178 -2.57687 -2.95135 0
M  V30 2354 H 217.875 -2.91477 -2.75394 0
M  V30 2355 H 214.465 -3.9204 -1.73213 0
M  V30 2356 H 218.649 -4.79359 -1.28565 0
M  V30 2357 H 213.905 -6.07498 -0.689626 0
M  V30 2358 H 218.079 -6.95948 -0.250894 0
M  V30 2359 H 215.706 -7.60182 0.0529471 0
M  V30 2360 N 217.281 0.66697 -1.42791 0
M  V30 2361 C 218.527 1.4291 -1.43891 0
M  V30 2362 C 218.86 1.94114 -0.0578972 0
M  V30 2363 O 218.135 1.71414 0.91911 0
M  V30 2364 C 218.418 2.62049 -2.46987 0
M  V30 2365 C 218.271 2.16426 -3.94309 0
M  V30 2366 C 219.59 3.64266 -2.46978 0
M  V30 2367 H 216.709 0.518306 -0.523954 0
M  V30 2368 H 219.351 0.757321 -1.74255 0
M  V30 2369 H 217.501 3.19361 -2.21225 0
M  V30 2370 H 219.173 1.64221 -4.31079 0
M  V30 2371 H 217.416 1.47925 -4.078 0
M  V30 2372 H 218.087 3.02038 -4.62036 0
M  V30 2373 H 220.563 3.16686 -2.69906 0
M  V30 2374 H 219.439 4.45196 -3.21079 0
M  V30 2375 H 219.7 4.15927 -1.49857 0
M  V30 2376 N 218.759 1.29093 0.90403 0
M  V30 2377 C 219.689 1.16401 2.02418 0
M  V30 2378 C 220.67 0.0593085 1.69997 0
M  V30 2379 O 221.855 0.238021 1.92736 0
M  V30 2380 C 218.985 0.835233 3.37107 0
M  V30 2381 C 217.939 1.89578 3.83724 0
M  V30 2382 C 217.265 1.42041 5.15489 0
M  V30 2383 C 218.565 3.30394 4.04521 0
M  V30 2384 H 220.259 2.10109 2.13295 0
M  V30 2385 H 217.805 1.01157 1.02486 0
M  V30 2386 H 219.758 0.733169 4.14973 0
M  V30 2387 H 218.482 -0.137543 3.2631 0
M  V30 2388 H 217.141 1.98715 3.08071 0
M  V30 2389 H 216.789 0.436426 5.01103 0
M  V30 2390 H 216.489 2.12964 5.4765 0
M  V30 2391 H 218.013 1.33176 5.959 0
M  V30 2392 H 219.427 3.24123 4.72882 0
M  V30 2393 H 217.824 3.99237 4.48029 0
M  V30 2394 H 218.894 3.73692 3.09002 0
M  V30 2395 N 220.237 -1.11381 1.11499 0
M  V30 2396 C 221.185 -2.19522 0.768956 0
M  V30 2397 C 222.179 -1.67693 -0.239857 0
M  V30 2398 O 223.385 -1.79727 -0.0990755 0
M  V30 2399 H 219.76 -0.715711 0.230786 0
M  V30 2400 H 221.731 -2.45954 1.68964 0
M  V30 2401 C 220.48 -3.46945 0.229073 0
M  V30 2402 H 219.803 -3.8718 0.996596 0
M  V30 2403 H 221.243 -4.23993 0.0251441 0
M  V30 2404 C 219.702 -3.2042 -1.04079 0
M  V30 2405 O 220.232 -3.41178 -2.12038 0
M  V30 2406 N 218.438 -2.74151 -0.963823 0
M  V30 2407 H 217.985 -2.57459 -0.0851722 0
M  V30 2408 H 217.943 -2.56781 -1.81414 0
M  V30 2409 N 221.715 -0.905404 -1.28997 0
M  V30 2410 C 222.962 -0.534248 -1.95325 0
M  V30 2411 C 223.29 0.920535 -1.71337 0
M  V30 2412 O 222.545 1.66861 -1.02254 0
M  V30 2413 C 222.844 -0.779906 -3.48787 0
M  V30 2414 C 222.51 -2.21293 -3.92861 0
M  V30 2415 C 221.172 -2.60475 -4.04606 0
M  V30 2416 C 223.524 -3.14587 -4.15553 0
M  V30 2417 C 220.852 -3.9212 -4.36416 0
M  V30 2418 C 223.204 -4.45787 -4.48839 0
M  V30 2419 C 221.868 -4.84834 -4.58794 0
M  V30 2420 H 221.138 -0.195495 -0.714747 0
M  V30 2421 H 223.785 -1.14514 -1.53488 0
M  V30 2422 H 222.09 -0.0861365 -3.91705 0
M  V30 2423 H 223.787 -0.472029 -3.98212 0
M  V30 2424 H 220.377 -1.89887 -3.84241 0
M  V30 2425 H 224.561 -2.85528 -4.0594 0
M  V30 2426 H 219.817 -4.22086 -4.42327 0
M  V30 2427 H 223.991 -5.18098 -4.65346 0
M  V30 2428 H 221.618 -5.86877 -4.83197 0
M  V30 2429 N 223.193 1.4272 -0.668489 0
M  V30 2430 C 224.442 2.00846 -0.185389 0
M  V30 2431 C 224.755 1.53442 1.21305 0
M  V30 2432 O 225.961 2.03944 1.79218 0
M  V30 2433 C 224.417 3.58805 -0.280591 0
M  V30 2434 C 224.025 4.15198 -1.68268 0
M  V30 2435 C 225.769 4.24255 0.14412 0
M  V30 2436 C 223.676 5.655 -1.73099 0
M  V30 2437 H 222.606 0.751145 -0.0655475 0
M  V30 2438 H 225.257 1.63516 -0.832752 0
M  V30 2439 H 223.639 3.93608 0.434553 0
M  V30 2440 H 224.813 3.91866 -2.42441 0
M  V30 2441 H 223.128 3.62176 -2.05469 0
M  V30 2442 H 225.725 5.34547 0.128086 0
M  V30 2443 H 226.068 3.99277 1.17827 0
M  V30 2444 H 226.601 3.94389 -0.519798 0
M  V30 2445 H 223.34 5.95268 -2.74475 0
M  V30 2446 H 222.86 5.90842 -1.03274 0
M  V30 2447 H 224.539 6.29808 -1.48158 0
M  V30 2448 N 224.671 0.411399 1.52136 0
M  V30 2449 C 225.618 -0.412975 2.27075 0
M  V30 2450 C 226.588 -1.03912 1.29582 0
M  V30 2451 O 227.773 -1.06296 1.58448 0
M  V30 2452 C 224.913 -1.52247 3.09701 0
M  V30 2453 C 224.026 -0.917021 4.22155 0
M  V30 2454 C 223.161 -1.9994 4.92135 0
M  V30 2455 C 222.2 -1.37101 5.96548 0
M  V30 2456 N 221.337 -2.39364 6.60038 0
M  V30 2457 H 226.177 0.232499 2.97092 0
M  V30 2458 H 223.714 0.126496 1.46555 0
M  V30 2459 H 225.672 -2.17674 3.55913 0
M  V30 2460 H 224.302 -2.13794 2.41851 0
M  V30 2461 H 223.354 -0.151742 3.80097 0
M  V30 2462 H 224.666 -0.418006 4.97045 0
M  V30 2463 H 223.82 -2.73088 5.41763 0
M  V30 2464 H 222.559 -2.53208 4.16818 0
M  V30 2465 H 221.564 -0.624873 5.46237 0
M  V30 2466 H 222.789 -0.845998 6.7381 0
M  V30 2467 H 220.735 -2.91759 5.87548 0
M  V30 2468 H 220.652 -1.9428 7.3061 0
M  V30 2469 H 221.92 -3.12074 7.14304 0
M  V30 2470 N 226.149 -1.5696 0.141893 0
M  V30 2471 C 227.398 -1.95135 -0.510427 0
M  V30 2472 C 227.711 -1.02896 -1.66348 0
M  V30 2473 O 228.917 -1.30629 -2.38009 0
M  V30 2474 C 227.373 -3.46876 -0.959427 0
M  V30 2475 C 226.981 -4.47691 0.166419 0
M  V30 2476 C 228.725 -3.93927 -1.58183 0
M  V30 2477 C 226.632 -5.90636 -0.300565 0
M  V30 2478 H 225.562 -0.728494 -0.194454 0
M  V30 2479 H 228.213 -1.8211 0.22542 0
M  V30 2480 H 226.595 -3.55215 -1.75038 0
M  V30 2481 H 227.769 -4.51043 0.94325 0
M  V30 2482 H 226.084 -4.10527 0.696905 0
M  V30 2483 H 228.681 -4.98158 -1.94275 0
M  V30 2484 H 229.024 -3.3519 -2.46888 0
M  V30 2485 H 229.557 -3.88484 -0.855863 0
M  V30 2486 H 226.296 -6.5318 0.550989 0
M  V30 2487 H 225.816 -5.90655 -1.04338 0
M  V30 2488 H 227.495 -6.42588 -0.754265 0
M  V30 2489 N 227.627 0.131896 -1.57047 0
M  V30 2490 C 229.038 0.690407 -1.73465 0
M  V30 2491 C 229.389 1.8094 -0.758629 0
M  V30 2492 O 228.514 2.16282 0.0713813 0
M  V30 2493 C 229.109 1.25916 -3.14532 0
M  V30 2494 C 227.668 1.76409 -3.32501 0
M  V30 2495 C 226.815 0.658579 -2.69366 0
M  V30 2496 H 229.766 -0.0939144 -1.58422 0
M  V30 2497 H 229.787 2.12892 -3.15369 0
M  V30 2498 H 229.299 0.444515 -3.85546 0
M  V30 2499 H 227.4 2.60391 -2.66509 0
M  V30 2500 H 227.513 1.88241 -4.4057 0
M  V30 2501 H 225.877 1.08899 -2.30246 0
M  V30 2502 H 226.66 -0.14487 -3.42994 0
M  V30 2503 N 229.106 1.52395 0.401703 0
M  V30 2504 C 230.352 1.67065 1.14966 0
M  V30 2505 C 230.685 0.403052 1.89971 0
M  V30 2506 O 229.96 -0.598774 1.85054 0
M  V30 2507 C 230.243 2.8975 2.13815 0
M  V30 2508 C 230.096 4.26578 1.42658 0
M  V30 2509 C 231.415 3.07965 3.14397 0
M  V30 2510 H 228.534 0.607968 0.416587 0
M  V30 2511 H 231.176 1.84965 0.434511 0
M  V30 2512 H 229.326 2.74619 2.74803 0
M  V30 2513 H 230.998 4.53451 0.847329 0
M  V30 2514 H 229.241 4.27639 0.72849 0
M  V30 2515 H 229.912 5.08483 2.14823 0
M  V30 2516 H 232.388 3.22043 2.63491 0
M  V30 2517 H 231.264 3.95308 3.80819 0
M  V30 2518 H 231.525 2.21611 3.82545 0
M  V30 2519 N 230.584 -0.659388 1.43143 0
M  V30 2520 C 231.83 -1.42145 1.44647 0
M  V30 2521 C 232.163 -1.9408 0.0681907 0
M  V30 2522 O 231.438 -1.71899 -0.910007 0
M  V30 2523 C 231.721 -2.60735 2.48373 0
M  V30 2524 C 231.574 -2.14332 3.95451 0
M  V30 2525 C 232.893 -3.62951 2.48906 0
M  V30 2526 H 230.012 -0.51552 0.526696 0
M  V30 2527 H 232.654 -0.748069 1.74654 0
M  V30 2528 H 230.804 -3.18184 2.22916 0
M  V30 2529 H 232.476 -1.61932 4.31944 0
M  V30 2530 H 230.719 -1.4576 4.08578 0
M  V30 2531 H 231.39 -2.99583 4.63631 0
M  V30 2532 H 233.866 -3.1525 2.71582 0
M  V30 2533 H 232.742 -4.43487 3.23435 0
M  V30 2534 H 233.003 -4.15126 1.52061 0
M  V30 2535 N 232.062 -1.29571 -0.897171 0
M  V30 2536 C 233.473 -1.15964 -1.46319 0
M  V30 2537 C 233.824 0.244267 -1.94674 0
M  V30 2538 O 232.949 1.13998 -1.83939 0
M  V30 2539 C 233.544 -2.09906 -2.65942 0
M  V30 2540 C 232.103 -2.00314 -3.18671 0
M  V30 2541 C 231.25 -2.00687 -1.91363 0
M  V30 2542 H 234.201 -1.42019 -0.708268 0
M  V30 2543 H 234.222 -1.67276 -3.41759 0
M  V30 2544 H 233.734 -3.12075 -2.30718 0
M  V30 2545 H 231.835 -1.01242 -3.58582 0
M  V30 2546 H 231.948 -2.88102 -3.82798 0
M  V30 2547 H 230.312 -1.45319 -2.09175 0
M  V30 2548 H 231.095 -3.04566 -1.58413 0
M  V30 2549 N 233.54 1.10788 -1.12088 0
M  V30 2550 C 234.49 2.15158 -0.754401 0
M  V30 2551 C 235.474 1.59026 0.244846 0
M  V30 2552 O 236.666 1.76927 0.0509097 0
M  V30 2553 C 233.795 3.42677 -0.206657 0
M  V30 2554 C 232.881 4.05751 -1.23398 0
M  V30 2555 N 233.272 4.43582 -2.43041 0
M  V30 2556 C 231.57 4.32764 -1.07848 0
M  V30 2557 C 232.271 4.93085 -3.08613 0
M  V30 2558 N 231.247 4.89664 -2.36072 0
M  V30 2559 H 235.049 2.42195 -1.6649 0
M  V30 2560 H 232.563 1.27872 -1.00112 0
M  V30 2561 H 234.56 4.16834 0.0740646 0
M  V30 2562 H 233.22 3.17101 0.698342 0
M  V30 2563 H 234.231 4.35395 -2.80449 0
M  V30 2564 H 230.908 4.16863 -0.230483 0
M  V30 2565 H 232.298 5.31933 -4.10483 0
M  V30 2566 N 235.018 0.912232 1.28515 0
M  V30 2567 C 235.966 0.389597 2.29314 0
M  V30 2568 C 236.96 -0.517915 1.61289 0
M  V30 2569 O 238.166 -0.399328 1.75515 0
M  V30 2570 H 234.541 0.107386 0.744293 0
M  V30 2571 H 236.512 1.25286 2.70825 0
M  V30 2572 C 235.261 -0.356496 3.45868 0
M  V30 2573 H 234.584 0.332608 3.98414 0
M  V30 2574 H 236.024 -0.686851 4.184 0
M  V30 2575 C 234.483 -1.56383 2.98406 0
M  V30 2576 O 235.013 -2.66294 3.00749 0
M  V30 2577 N 233.219 -1.41029 2.54085 0
M  V30 2578 H 232.766 -0.516089 2.52377 0
M  V30 2579 H 232.724 -2.21939 2.22689 0
M  V30 2580 N 236.496 -1.42363 0.676048 0
M  V30 2581 C 237.406 -2.346 -0.00153389 0
M  V30 2582 C 238.422 -1.5516 -0.787485 0
M  V30 2583 O 239.598 -1.87723 -0.729521 0
M  V30 2584 C 236.663 -3.33705 -0.940298 0
M  V30 2585 C 235.724 -4.29042 -0.148739 0
M  V30 2586 C 234.957 -5.23413 -1.04279 0
M  V30 2587 O 235.18 -5.22749 -2.28232 0
M  V30 2588 O 234.114 -5.99795 -0.502925 0
M  V30 2589 H 237.94 -2.94082 0.758268 0
M  V30 2590 H 235.525 -1.42888 0.436289 0
M  V30 2591 H 237.407 -3.94586 -1.47917 0
M  V30 2592 H 236.082 -2.76695 -1.67993 0
M  V30 2593 H 234.989 -3.71571 0.43427 0
M  V30 2594 H 236.322 -4.89097 0.551805 0
M  V30 2595 N 237.974 -0.419461 -1.51915 0
M  V30 2596 C 239.214 0.152336 -2.03832 0
M  V30 2597 C 239.578 1.41501 -1.29775 0
M  V30 2598 O 240.779 2.06591 -1.7197 0
M  V30 2599 C 239.05 0.383812 -3.55333 0
M  V30 2600 S 240.609 0.921577 -4.29013 0
M  V30 2601 H 237.427 0.0402193 -0.709862 0
M  V30 2602 H 240.029 -0.574758 -1.8686 0
M  V30 2603 H 238.733 -0.541794 -4.06808 0
M  V30 2604 H 238.264 1.13849 -3.76566 0
M  V30 2605 H 240.279 2.20108 -4.4471 0
M  V30 2606 N 239.452 1.56882 -0.150215 0
M  V30 2607 C 240.677 2.01027 0.510184 0
M  V30 2608 C 241.102 1.02966 1.57415 0
M  V30 2609 O 240.46 0.00590158 1.81299 0
M  V30 2610 C 240.508 3.43899 1.08472 0
M  V30 2611 O 239.612 3.4885 2.19948 0
M  V30 2612 H 238.953 0.652233 0.124451 0
M  V30 2613 H 241.483 2.03093 -0.247894 0
M  V30 2614 H 241.493 3.82766 1.41259 0
M  V30 2615 H 240.168 4.14776 0.305582 0
M  V30 2616 H 238.745 3.21827 1.88366 0
M  V30 2617 N 240.93 -0.123565 1.57115 0
M  V30 2618 C 241.84 -1.17074 2.033 0
M  V30 2619 C 242.856 -1.4561 0.952559 0
M  V30 2620 O 244.032 -1.56817 1.26374 0
M  V30 2621 C 241.097 -2.47857 2.42421 0
M  V30 2622 C 240.158 -2.26758 3.64526 0
M  V30 2623 C 239.391 -3.51305 4.01771 0
M  V30 2624 O 239.614 -4.5843 3.39409 0
M  V30 2625 O 238.548 -3.42578 4.94898 0
M  V30 2626 H 242.374 -0.808555 2.92739 0
M  V30 2627 H 239.959 -0.334027 1.45618 0
M  V30 2628 H 241.841 -3.2492 2.68338 0
M  V30 2629 H 240.516 -2.83558 1.5613 0
M  V30 2630 H 239.423 -1.47569 3.43765 0
M  V30 2631 H 240.756 -1.95963 4.51508 0
M  V30 2632 N 242.408 -1.52605 -0.393616 0
M  V30 2633 C 243.654 -1.67672 -1.14079 0
M  V30 2634 C 243.987 -0.413121 -1.89755 0
M  V30 2635 O 243.262 0.588952 -1.85369 0
M  V30 2636 C 243.545 -2.9088 -2.12276 0
M  V30 2637 C 243.398 -4.27329 -1.40394 0
M  V30 2638 C 244.717 -3.09628 -3.12759 0
M  V30 2639 H 241.836 -0.610168 -0.413356 0
M  V30 2640 H 244.478 -1.85193 -0.424696 0
M  V30 2641 H 242.628 -2.76073 -2.73342 0
M  V30 2642 H 244.3 -4.53894 -0.82327 0
M  V30 2643 H 242.543 -4.2802 -0.705801 0
M  V30 2644 H 243.214 -5.09615 -2.12123 0
M  V30 2645 H 245.69 -3.23436 -2.61779 0
M  V30 2646 H 244.566 -3.97322 -3.78717 0
M  V30 2647 H 244.827 -2.23637 -3.81365 0
M  V30 2648 N 243.887 0.651787 -1.4349 0
M  V30 2649 C 244.82 1.77668 -1.43211 0
M  V30 2650 C 245.798 1.59931 -0.29338 0
M  V30 2651 O 246.982 1.82095 -0.487191 0
M  V30 2652 C 244.109 3.14986 -1.24505 0
M  V30 2653 C 243.155 3.51421 -2.41673 0
M  V30 2654 S 243.988 3.51234 -4.04222 0
M  V30 2655 C 245.144 4.91206 -3.87902 0
M  V30 2656 H 245.377 1.77635 -2.38397 0
M  V30 2657 H 242.91 0.824558 -1.30539 0
M  V30 2658 H 244.868 3.94237 -1.144 0
M  V30 2659 H 243.529 3.1258 -0.308651 0
M  V30 2660 H 242.722 4.51291 -2.24393 0
M  V30 2661 H 242.324 2.79585 -2.48411 0
M  V30 2662 H 244.616 5.79902 -3.50315 0
M  V30 2663 H 245.559 5.13537 -4.8753 0
M  V30 2664 H 245.967 4.64808 -3.20334 0
M  V30 2665 N 245.365 1.30045 0.890287 0
M  V30 2666 C 246.59 1.21598 1.68014 0
M  V30 2667 C 247.015 -0.218678 1.86825 0
M  V30 2668 O 246.373 -1.15756 1.39536 0
M  V30 2669 C 246.421 1.94434 3.03691 0
M  V30 2670 O 245.525 1.2678 3.92429 0
M  V30 2671 H 244.866 0.420856 0.513592 0
M  V30 2672 H 247.396 1.71775 1.11151 0
M  V30 2673 H 247.406 2.03251 3.5377 0
M  V30 2674 H 246.081 2.98777 2.89318 0
M  V30 2675 H 244.658 1.26282 3.50866 0
M  V30 2676 N 246.843 -1.10192 1.12674 0
M  V30 2677 C 247.791 -2.18694 0.792196 0
M  V30 2678 C 248.785 -1.67938 -0.222058 0
M  V30 2679 O 249.991 -1.79822 -0.0800074 0
M  V30 2680 H 246.366 -0.713223 0.238364 0
M  V30 2681 H 248.337 -2.44149 1.71564 0
M  V30 2682 C 247.086 -3.46682 0.265859 0
M  V30 2683 H 246.409 -3.86101 1.03761 0
M  V30 2684 H 247.849 -4.23942 0.0701128 0
M  V30 2685 C 246.308 -3.21506 -1.00675 0
M  V30 2686 O 246.838 -3.43408 -2.08408 0
M  V30 2687 N 245.044 -2.75158 -0.934692 0
M  V30 2688 H 244.591 -2.57535 -0.0578604 0
M  V30 2689 H 244.549 -2.58691 -1.7868 0
M  V30 2690 N 248.321 -0.919034 -1.28029 0
M  V30 2691 C 249.254 -0.355887 -2.25408 0
M  V30 2692 C 250.232 0.542874 -1.5327 0
M  V30 2693 O 251.416 0.485338 -1.82145 0
M  V30 2694 C 248.543 0.490759 -3.35126 0
M  V30 2695 C 247.589 -0.343358 -4.25116 0
M  V30 2696 S 248.422 -1.75344 -5.05979 0
M  V30 2697 C 249.578 -0.914244 -6.19187 0
M  V30 2698 H 249.811 -1.18123 -2.72826 0
M  V30 2699 H 247.344 -0.720636 -1.36551 0
M  V30 2700 H 249.302 0.973404 -3.98792 0
M  V30 2701 H 247.963 1.29054 -2.86363 0
M  V30 2702 H 247.156 0.304266 -5.03081 0
M  V30 2703 H 246.758 -0.759851 -3.662 0
M  V30 2704 H 249.05 -0.146282 -6.77342 0
M  V30 2705 H 249.993 -1.66661 -6.88208 0
M  V30 2706 H 250.401 -0.460082 -5.62622 0
M  V30 2707 N 249.799 1.42003 -0.683588 0
M  V30 2708 C 251.045 2.01712 -0.209825 0
M  V30 2709 C 251.378 1.53968 1.18353 0
M  V30 2710 O 250.653 0.745661 1.79639 0
M  V30 2711 C 250.936 3.59202 -0.254197 0
M  V30 2712 C 250.789 4.17102 -1.68363 0
M  V30 2713 C 252.108 4.38344 0.392709 0
M  V30 2714 H 249.227 0.732891 -0.0777189 0
M  V30 2715 H 251.869 1.68909 -0.87004 0
M  V30 2716 H 250.019 3.87278 0.307954 0
M  V30 2717 H 251.691 3.99946 -2.29871 0
M  V30 2718 H 249.934 3.72597 -2.22157 0
M  V30 2719 H 250.605 5.26249 -1.6663 0
M  V30 2720 H 253.081 4.16011 -0.0859162 0
M  V30 2721 H 251.957 5.47901 0.331063 0
M  V30 2722 H 252.218 4.16887 1.47164 0
M  V30 2723 N 251.277 0.427512 1.51691 0
M  V30 2724 C 252.502 -0.143601 2.06902 0
M  V30 2725 C 252.927 -1.36536 1.29382 0
M  V30 2726 O 252.285 -1.78289 0.329043 0
M  V30 2727 C 252.333 -0.454207 3.57728 0
M  V30 2728 O 251.437 -1.54228 3.82475 0
M  V30 2729 H 250.778 -0.00617128 0.663971 0
M  V30 2730 H 253.308 0.606014 1.95419 0
M  V30 2731 H 253.318 -0.707525 4.01818 0
M  V30 2732 H 251.993 0.438812 4.13579 0
M  V30 2733 H 250.57 -1.2797 3.50254 0
M  V30 2734 N 252.755 -1.56801 0.158532 0
M  V30 2735 C 253.665 -2.20916 -0.789518 0
M  V30 2736 C 254.681 -1.1969 -1.26294 0
M  V30 2737 O 255.857 -1.52308 -1.31773 0
M  V30 2738 C 252.922 -2.82727 -2.00665 0
M  V30 2739 C 251.983 -3.99114 -1.58134 0
M  V30 2740 C 251.216 -4.57968 -2.74045 0
M  V30 2741 O 251.439 -4.15704 -3.90572 0
M  V30 2742 O 250.373 -5.48047 -2.48855 0
M  V30 2743 H 254.199 -3.02464 -0.273681 0
M  V30 2744 H 251.784 -1.4924 -0.0690548 0
M  V30 2745 H 253.666 -3.21968 -2.71872 0
M  V30 2746 H 252.341 -2.04184 -2.51179 0
M  V30 2747 H 251.248 -3.64567 -0.839155 0
M  V30 2748 H 252.581 -4.79212 -1.12325 0
M  V30 2749 N 254.233 0.115231 -1.57178 0
M  V30 2750 C 255.181 1.16014 -2.01602 0
M  V30 2751 C 256.175 1.42653 -0.913587 0
M  V30 2752 O 257.381 1.42571 -1.09879 0
M  V30 2753 H 253.756 0.391252 -0.642204 0
M  V30 2754 H 255.727 0.758998 -2.88586 0
M  V30 2755 C 254.476 2.47767 -2.4394 0
M  V30 2756 H 253.799 2.28108 -3.28339 0
M  V30 2757 H 255.239 3.19432 -2.78818 0
M  V30 2758 C 253.698 3.10617 -1.30455 0
M  V30 2759 O 254.228 3.96846 -0.622585 0
M  V30 2760 N 252.434 2.70553 -1.06064 0
M  V30 2761 H 251.981 2.00527 -1.61699 0
M  V30 2762 H 251.939 3.12934 -0.303284 0
M  V30 2763 N 255.711 1.52812 0.385517 0
M  V30 2764 C 256.644 1.72592 1.49289 0
M  V30 2765 C 257.622 0.573819 1.52138 0
M  V30 2766 O 258.806 0.80404 1.70492 0
M  V30 2767 C 255.933 1.78669 2.87741 0
M  V30 2768 C 254.979 3.00455 3.02703 0
M  V30 2769 S 255.812 4.60366 2.73538 0
M  V30 2770 C 256.968 4.69263 4.14177 0
M  V30 2771 H 257.201 2.66248 1.32285 0
M  V30 2772 H 254.734 1.43148 0.578611 0
M  V30 2773 H 256.692 1.82855 3.67524 0
M  V30 2774 H 255.353 0.861 3.02069 0
M  V30 2775 H 254.546 3.01258 4.04054 0
M  V30 2776 H 254.148 2.94278 2.30817 0
M  V30 2777 H 256.44 4.48092 5.08153 0
M  V30 2778 H 257.383 5.71276 4.18388 0
M  V30 2779 H 257.791 3.98072 4.00249 0
M  V30 2780 N 257.189 -0.644168 1.43834 0
M  V30 2781 C 258.119 -1.76814 1.52509 0
M  V30 2782 C 259.1 -1.65823 0.379052 0
M  V30 2783 O 260.285 -1.84781 0.597466 0
M  V30 2784 C 257.415 -3.15288 1.4564 0
M  V30 2785 C 256.369 -3.41053 2.58586 0
M  V30 2786 C 255.695 -4.79421 2.36769 0
M  V30 2787 C 256.995 -3.34902 4.00797 0
M  V30 2788 H 258.689 -1.69812 2.46586 0
M  V30 2789 H 256.235 -0.815542 1.1868 0
M  V30 2790 H 258.188 -3.93681 1.50311 0
M  V30 2791 H 256.912 -3.23043 0.480725 0
M  V30 2792 H 255.571 -2.65035 2.53282 0
M  V30 2793 H 255.219 -4.83863 1.37424 0
M  V30 2794 H 254.919 -4.9762 3.12487 0
M  V30 2795 H 256.443 -5.6006 2.43238 0
M  V30 2796 H 257.857 -4.03218 4.07539 0
M  V30 2797 H 256.254 -3.64637 4.76613 0
M  V30 2798 H 257.324 -2.32928 4.25291 0
M  V30 2799 N 258.668 -1.30515 -0.883378 0
M  V30 2800 C 259.908 -1.20716 -1.64946 0
M  V30 2801 C 260.272 0.234072 -1.90568 0
M  V30 2802 O 261.473 0.455335 -2.64915 0
M  V30 2803 C 259.744 -2.01444 -2.9522 0
M  V30 2804 S 261.303 -2.0836 -3.86175 0
M  V30 2805 H 258.121 -0.430165 -0.566109 0
M  V30 2806 H 260.723 -1.65011 -1.04841 0
M  V30 2807 H 259.427 -3.05268 -2.74298 0
M  V30 2808 H 258.958 -1.57817 -3.60357 0
M  V30 2809 H 260.973 -1.21215 -4.81167 0
M  V30 2810 N 260.146 1.09593 -1.13257 0
M  V30 2811 C 261.109 2.14359 -0.811358 0
M  V30 2812 C 262.109 1.59808 0.178377 0
M  V30 2813 O 263.299 1.74132 -0.0484911 0
M  V30 2814 C 260.431 3.40269 -0.207276 0
M  V30 2815 H 261.624 2.44284 -1.73969 0
M  V30 2816 H 259.177 1.25102 -0.936973 0
M  V30 2817 H 259.912 3.15969 0.73036 0
M  V30 2818 H 259.697 3.81154 -0.919992 0
M  V30 2819 H 261.187 4.176 0.000667944 0
M  V30 2820 N 261.624 0.925811 1.2754 0
M  V30 2821 C 262.872 0.564138 1.94067 0
M  V30 2822 C 263.193 -0.897188 1.73134 0
M  V30 2823 O 262.463 -1.63573 1.07799 0
M  V30 2824 H 261.043 0.205645 0.718136 0
M  V30 2825 H 263.705 1.1778 1.55287 0
M  V30 2826 H 262.801 0.76881 3.02483 0
M  V30 2827 N 263.102 -1.41638 0.69111 0
M  V30 2828 C 264.351 -2.00526 0.217318 0
M  V30 2829 C 264.664 -1.55353 -1.18848 0
M  V30 2830 O 265.87 -2.06769 -1.75951 0
M  V30 2831 C 264.326 -3.58313 0.337639 0
M  V30 2832 C 263.934 -4.12469 1.74852 0
M  V30 2833 C 265.678 -4.24431 -0.0766066 0
M  V30 2834 C 263.585 -5.62675 1.82074 0
M  V30 2835 H 262.515 -0.750008 0.0774893 0
M  V30 2836 H 265.166 -1.6217 0.858661 0
M  V30 2837 H 263.548 -3.9425 -0.371879 0
M  V30 2838 H 264.722 -3.8796 2.48644 0
M  V30 2839 H 263.037 -3.58861 2.11205 0
M  V30 2840 H 265.634 -5.34683 -0.0430284 0
M  V30 2841 H 265.977 -4.01101 -1.1146 0
M  V30 2842 H 266.51 -3.93512 0.582476 0
M  V30 2843 H 263.249 -5.90826 2.83911 0
M  V30 2844 H 262.769 -5.89124 1.12661 0
M  V30 2845 H 264.448 -6.27371 1.58159 0
M  V30 2846 N 264.58 -0.43555 -1.51462 0
M  V30 2847 C 265.51 0.367376 -2.30592 0
M  V30 2848 C 266.491 1.02263 -1.35928 0
M  V30 2849 O 267.676 1.02661 -1.64847 0
M  V30 2850 C 264.806 1.46983 -3.14664 0
M  V30 2851 C 263.76 0.938161 -4.17591 0
M  V30 2852 C 263.086 2.13622 -4.90173 0
M  V30 2853 C 264.386 -0.0261621 -5.22293 0
M  V30 2854 H 266.08 -0.292969 -2.97963 0
M  V30 2855 H 263.626 -0.14234 -1.43295 0
M  V30 2856 H 265.579 2.03873 -3.688 0
M  V30 2857 H 264.303 2.15843 -2.4511 0
M  V30 2858 H 262.962 0.391481 -3.64504 0
M  V30 2859 H 262.61 2.81098 -4.17124 0
M  V30 2860 H 262.31 1.78688 -5.59772 0
M  V30 2861 H 263.834 2.7107 -5.47132 0
M  V30 2862 H 265.248 0.452384 -5.71512 0
M  V30 2863 H 263.645 -0.287992 -5.99409 0
M  V30 2864 H 264.715 -0.963391 -4.75233 0
M  V30 2865 N 266.058 1.56714 -0.166846 0
M  V30 2866 C 267.306 1.96358 0.478305 0
M  V30 2867 C 267.627 1.0537 1.6408 0
M  V30 2868 O 266.897 0.119154 1.95537 0
M  V30 2869 H 265.477 0.725065 0.179692 0
M  V30 2870 H 268.139 1.93329 -0.246985 0
M  V30 2871 H 267.235 3.00547 0.841292 0
M  V30 2872 N 267.536 -0.106894 1.57237 0
M  V30 2873 C 268.813 -0.843526 1.76477 0
M  V30 2874 C 269.193 -1.97499 0.745464 0
M  V30 2875 O 268.541 -2.27357 -0.228306 0
M  V30 2876 C 268.751 -1.34903 3.21873 0
M  V30 2877 C 270.099 -1.79654 3.8472 0
M  V30 2878 O 271.123 -1.44554 3.2555 0
M  V30 2879 O 269.982 -2.44515 4.88748 0
M  V30 2880 H 267.076 -0.401468 0.723016 0
M  V30 2881 H 269.622 -0.0896927 1.69463 0
M  V30 2882 H 268.394 -0.53781 3.87586 0
M  V30 2883 H 268.017 -2.16522 3.33473 0
M  V30 2884 N 269.014 -1.53014 -0.377408 0
M  V30 2885 C 270.43 -1.42523 -0.718281 0
M  V30 2886 C 270.63 -0.55487 -1.9371 0
M  V30 2887 O 269.686 -0.0327593 -2.52479 0
M  V30 2888 C 270.999 -2.85546 -0.942539 0
M  V30 2889 C 272.547 -2.95101 -1.04329 0
M  V30 2890 C 273.022 -4.3916 -1.3001 0
M  V30 2891 N 274.513 -4.42536 -1.36806 0
M  V30 2892 C 275.248 -5.51097 -1.58364 0
M  V30 2893 N 274.744 -6.69724 -1.77317 0
M  V30 2894 N 276.537 -5.38657 -1.60638 0
M  V30 2895 H 268.688 -2.08116 0.424426 0
M  V30 2896 H 270.951 -0.939352 0.127759 0
M  V30 2897 H 270.657 -3.51499 -0.118929 0
M  V30 2898 H 270.531 -3.28493 -1.85397 0
M  V30 2899 H 272.918 -2.29309 -1.85745 0
M  V30 2900 H 272.999 -2.55566 -0.109505 0
M  V30 2901 H 272.643 -5.05521 -0.490991 0
M  V30 2902 H 272.573 -4.76258 -2.24691 0
M  V30 2903 H 275.064 -3.57039 -1.23821 0
M  V30 2904 H 275.377 -7.48233 -1.93306 0
M  V30 2905 H 273.722 -6.72732 -1.74518 0
M  V30 2906 H 276.913 -4.44948 -1.45391 0
M  V30 2907 H 277.086 -6.2333 -1.77098 0
M  V30 2908 N 270.492 0.636531 -1.44174 0
M  V30 2909 C 271.424 1.7618 -1.46606 0
M  V30 2910 C 272.437 1.58768 -0.360091 0
M  V30 2911 O 273.626 1.67181 -0.625518 0
M  V30 2912 C 270.726 3.13833 -1.27915 0
M  V30 2913 C 269.899 3.57753 -2.51658 0
M  V30 2914 C 268.958 4.74265 -2.27945 0
M  V30 2915 O 267.984 4.82852 -3.01401 0
M  V30 2916 N 269.186 5.65604 -1.30662 0
M  V30 2917 H 271.951 1.74567 -2.43612 0
M  V30 2918 H 269.512 0.820924 -1.39544 0
M  V30 2919 H 271.504 3.8949 -1.09907 0
M  V30 2920 H 270.074 3.10121 -0.39293 0
M  V30 2921 H 269.294 2.72362 -2.84978 0
M  V30 2922 H 270.582 3.83847 -3.33974 0
M  V30 2923 H 269.98 5.61354 -0.699844 0
M  V30 2924 H 268.537 6.40913 -1.18634 0
M  V30 2925 N 271.97 1.30982 0.876444 0
M  V30 2926 C 273.247 1.10942 1.61094 0
M  V30 2927 C 273.627 -0.338223 2.08373 0
M  V30 2928 O 272.975 -1.33122 1.85717 0
M  V30 2929 C 273.185 2.11789 2.77392 0
M  V30 2930 C 274.533 2.43965 3.47514 0
M  V30 2931 O 275.557 2.10166 2.87591 0
M  V30 2932 O 274.416 3.01817 4.55597 0
M  V30 2933 H 271.51 0.42667 0.708436 0
M  V30 2934 H 274.056 1.42438 0.922474 0
M  V30 2935 H 272.828 3.09194 2.39823 0
M  V30 2936 H 272.451 1.81161 3.5393 0
M  V30 2937 N 273.449 -1.08991 1.13837 0
M  V30 2938 C 274.412 -2.13925 0.822715 0
M  V30 2939 C 275.412 -1.599 -0.1699 0
M  V30 2940 O 276.602 -1.74104 0.0577251 0
M  V30 2941 C 273.734 -3.40155 0.225318 0
M  V30 2942 H 274.927 -2.43358 1.75262 0
M  V30 2943 H 272.48 -1.24603 0.943594 0
M  V30 2944 H 273.215 -3.16352 -0.713594 0
M  V30 2945 H 273 -3.80661 0.940193 0
M  V30 2946 H 274.49 -4.17594 0.0214784 0
M  V30 2947 N 274.927 -0.932562 -1.27047 0
M  V30 2948 C 276.167 -0.582919 -1.95912 0
M  V30 2949 C 276.531 0.860629 -1.71631 0
M  V30 2950 O 277.732 1.31878 -2.34225 0
M  V30 2951 C 276.003 -0.905673 -3.45734 0
M  V30 2952 S 277.562 -0.665277 -4.33727 0
M  V30 2953 H 274.38 -0.215 -0.677714 0
M  V30 2954 H 276.982 -1.20204 -1.54179 0
M  V30 2955 H 275.686 -1.95386 -3.60905 0
M  V30 2956 H 275.217 -0.275939 -3.92431 0
M  V30 2957 H 277.232 0.474635 -4.93925 0
M  V30 2958 N 276.405 1.4127 -0.698611 0
M  V30 2959 C 277.315 2.34573 -0.0357891 0
M  V30 2960 C 278.331 1.56393 0.762701 0
M  V30 2961 O 279.507 1.8886 0.699564 0
M  V30 2962 C 276.572 3.35159 0.887089 0
M  V30 2963 C 275.633 4.29225 0.0804634 0
M  V30 2964 C 274.866 5.25006 0.959387 0
M  V30 2965 O 275.089 5.26314 2.19886 0
M  V30 2966 O 274.023 6.00519 0.407439 0
M  V30 2967 H 277.849 2.92838 -0.804957 0
M  V30 2968 H 275.434 1.42175 -0.458966 0
M  V30 2969 H 277.316 3.9689 1.41621 0
M  V30 2970 H 275.991 2.79333 1.6357 0
M  V30 2971 H 274.898 3.70833 -0.493328 0
M  V30 2972 H 276.231 4.88157 -0.629547 0
M  V30 2973 N 277.883 0.443576 1.51229 0
M  V30 2974 C 279.131 -0.120557 2.0174 0
M  V30 2975 C 279.452 -1.42665 1.32935 0
M  V30 2976 O 278.722 -1.9028 0.465866 0
M  V30 2977 H 277.302 -0.0475426 0.745486 0
M  V30 2978 H 279.964 0.587711 1.85828 0
M  V30 2979 H 279.06 -0.291972 3.10731 0
M  V30 2980 N 279.361 -1.56624 0.175154 0
M  V30 2981 C 280.638 -1.88688 -0.515373 0
M  V30 2982 C 281.018 -1.08564 -1.81044 0
M  V30 2983 O 280.366 -0.180703 -2.27784 0
M  V30 2984 C 280.576 -3.40768 -0.753552 0
M  V30 2985 C 281.924 -4.10587 -1.08184 0
M  V30 2986 O 282.948 -3.46106 -0.841961 0
M  V30 2987 O 281.807 -5.24512 -1.53459 0
M  V30 2988 H 278.901 -0.78301 -0.26613 0
M  V30 2989 H 281.447 -1.68347 0.213877 0
M  V30 2990 H 280.219 -3.90965 0.161829 0
M  V30 2991 H 279.842 -3.66733 -1.53598 0
M  V30 2992 N 280.839 0.0985539 -1.57292 0
M  V30 2993 C 282.064 0.820196 -1.90493 0
M  V30 2994 C 282.489 1.71658 -0.769094 0
M  V30 2995 O 281.847 1.79133 0.279495 0
M  V30 2996 C 281.895 1.61242 -3.22542 0
M  V30 2997 O 280.999 2.72108 -3.09888 0
M  V30 2998 H 280.34 0.225547 -0.62452 0
M  V30 2999 H 282.87 0.0748159 -2.04463 0
M  V30 3000 H 282.88 1.99737 -3.55766 0
M  V30 3001 H 281.555 0.954535 -4.04798 0
M  V30 3002 H 280.132 2.36667 -2.88172 0
M  V30 3003 N 282.317 1.53212 0.369288 0
M  V30 3004 C 283.565 1.68881 1.11012 0
M  V30 3005 C 283.886 0.441285 1.89941 0
M  V30 3006 O 283.156 -0.544623 1.88177 0
M  V30 3007 H 281.736 0.622569 0.412816 0
M  V30 3008 H 284.398 1.90391 0.416802 0
M  V30 3009 H 283.494 2.54822 1.80201 0
M  V30 3010 N 283.795 -0.628877 1.44509 0
M  V30 3011 C 285.043 -1.38565 1.4712 0
M  V30 3012 C 285.364 -1.94712 0.105899 0
M  V30 3013 O 284.634 -1.75912 -0.862079 0
M  V30 3014 H 283.214 -0.514333 0.541729 0
M  V30 3015 H 285.876 -0.740018 1.80305 0
M  V30 3016 H 284.972 -2.21583 2.19789 0
M  V30 3017 N 285.273 -1.31445 -0.869486 0
M  V30 3018 C 286.684 -1.19042 -1.43826 0
M  V30 3019 C 287.035 0.202919 -1.95148 0
M  V30 3020 O 286.16 1.10071 -1.86315 0
M  V30 3021 C 286.755 -2.15499 -2.6143 0
M  V30 3022 C 285.314 -2.07028 -3.14351 0
M  V30 3023 C 284.461 -2.04701 -1.87063 0
M  V30 3024 H 287.412 -1.43489 -0.677984 0
M  V30 3025 H 287.433 -1.74488 -3.38134 0
M  V30 3026 H 286.945 -3.16899 -2.24046 0
M  V30 3027 H 285.046 -1.08825 -3.56354 0
M  V30 3028 H 285.159 -2.96157 -3.766 0
M  V30 3029 H 283.523 -1.49724 -2.06046 0
M  V30 3030 H 284.306 -3.07857 -1.51917 0
M  V30 3031 N 286.751 1.08385 -1.14413 0
M  V30 3032 C 287.684 2.14642 -0.774871 0
M  V30 3033 C 288.662 1.60761 0.243876 0
M  V30 3034 O 289.846 1.88031 0.132883 0
M  V30 3035 C 286.973 3.38366 -0.150491 0
M  V30 3036 C 286.019 4.10997 -1.13945 0
M  V30 3037 S 286.852 4.63797 -2.67679 0
M  V30 3038 C 288.008 5.90808 -2.06631 0
M  V30 3039 H 288.241 2.45633 -1.67487 0
M  V30 3040 H 285.774 1.20498 -0.96538 0
M  V30 3041 H 287.732 4.09996 0.203334 0
M  V30 3042 H 286.393 3.05572 0.72694 0
M  V30 3043 H 285.586 4.99783 -0.65059 0
M  V30 3044 H 285.188 3.4528 -1.43727 0
M  V30 3045 H 287.48 6.62411 -1.4219 0
M  V30 3046 H 288.423 6.4439 -2.93542 0
M  V30 3047 H 288.831 5.4383 -1.51357 0
M  V30 3048 N 288.23 0.939286 1.26551 0
M  V30 3049 C 289.476 0.586715 1.94128 0
M  V30 3050 C 289.809 -0.8717 1.73537 0
M  V30 3051 O 289.084 -1.62339 1.07127 0
M  V30 3052 C 289.367 0.927497 3.4795 0
M  V30 3053 C 289.22 2.44052 3.77834 0
M  V30 3054 C 290.539 0.441569 4.37879 0
M  V30 3055 H 287.658 0.21463 0.705055 0
M  V30 3056 H 290.3 1.17316 1.49455 0
M  V30 3057 H 288.45 0.428431 3.8613 0
M  V30 3058 H 290.122 3.01216 3.4938 0
M  V30 3059 H 288.365 2.8848 3.23978 0
M  V30 3060 H 289.036 2.62947 4.85348 0
M  V30 3061 H 291.512 0.869448 4.06915 0
M  V30 3062 H 290.388 0.708856 5.44304 0
M  V30 3063 H 290.649 -0.658467 4.37169 0
M  V30 3064 N 289.708 -1.40897 0.706093 0
M  V30 3065 C 290.671 -2.29131 0.0562841 0
M  V30 3066 C 291.671 -1.44901 -0.697166 0
M  V30 3067 O 292.861 -1.65926 -0.530484 0
M  V30 3068 C 289.993 -3.27957 -0.93043 0
M  V30 3069 H 291.186 -2.88091 0.833284 0
M  V30 3070 H 288.739 -1.4906 0.470192 0
M  V30 3071 H 289.474 -2.73997 -1.73482 0
M  V30 3072 H 289.259 -3.90124 -0.393166 0
M  V30 3073 H 290.749 -3.94049 -1.38256 0
M  V30 3074 N 291.186 -0.45159 -1.50991 0
M  V30 3075 C 292.411 0.110667 -2.07105 0
M  V30 3076 C 292.836 1.3446 -1.31538 0
M  V30 3077 O 292.194 1.77743 -0.357365 0
M  V30 3078 C 292.242 0.397238 -3.58405 0
M  V30 3079 O 291.346 1.48124 -3.84881 0
M  V30 3080 H 290.687 -0.00439271 -0.663985 0
M  V30 3081 H 293.217 -0.637026 -1.9443 0
M  V30 3082 H 293.227 0.64351 -4.02893 0
M  V30 3083 H 291.902 -0.504553 -4.12828 0
M  V30 3084 H 290.479 1.22381 -3.52246 0
M  V30 3085 N 292.664 1.56529 -0.183458 0
M  V30 3086 C 293.911 1.97244 0.458357 0
M  V30 3087 C 294.239 1.06992 1.62428 0
M  V30 3088 O 293.494 0.106542 1.9541 0
M  V30 3089 C 293.793 3.43939 0.971637 0
M  V30 3090 C 293.459 4.5083 -0.0796784 0
M  V30 3091 C 292.121 4.79786 -0.368584 0
M  V30 3092 C 294.473 5.15138 -0.792638 0
M  V30 3093 C 291.801 5.70345 -1.37563 0
M  V30 3094 C 294.153 6.06784 -1.78875 0
M  V30 3095 C 292.817 6.34102 -2.08497 0
M  V30 3096 H 292.087 0.721768 0.167725 0
M  V30 3097 H 294.734 1.89472 -0.277976 0
M  V30 3098 H 293.039 3.48724 1.78602 0
M  V30 3099 H 294.736 3.72791 1.47744 0
M  V30 3100 H 291.326 4.28317 0.155668 0
M  V30 3101 H 295.51 4.92868 -0.582659 0
M  V30 3102 H 290.766 5.89789 -1.61118 0
M  V30 3103 H 294.94 6.55677 -2.3465 0
M  V30 3104 H 292.567 7.04074 -2.86678 0
M  V30 3105 N 294.142 -0.090211 1.57342 0
M  V30 3106 C 295.092 -1.11557 1.98844 0
M  V30 3107 C 296.076 -1.35503 0.867624 0
M  V30 3108 O 297.268 -1.36113 1.13148 0
M  V30 3109 C 294.397 -2.43446 2.42051 0
M  V30 3110 C 293.483 -2.22853 3.60828 0
M  V30 3111 N 293.874 -1.72141 4.75606 0
M  V30 3112 C 292.172 -2.53401 3.67021 0
M  V30 3113 C 292.873 -1.65932 5.57531 0
M  V30 3114 N 291.849 -2.11323 5.00843 0
M  V30 3115 H 295.651 -0.716499 2.85032 0
M  V30 3116 H 293.165 -0.297567 1.59651 0
M  V30 3117 H 295.162 -3.17644 2.70014 0
M  V30 3118 H 293.822 -2.84087 1.57241 0
M  V30 3119 H 294.833 -1.41268 4.98261 0
M  V30 3120 H 291.51 -2.97532 2.92884 0
M  V30 3121 H 292.9 -1.27733 6.59647 0
M  V30 3122 N 295.62 -1.53406 -0.361157 0
M  V30 3123 C 296.868 -1.69467 -1.10115 0
M  V30 3124 C 297.189 -0.451352 -1.89705 0
M  V30 3125 O 296.459 0.534636 -1.88463 0
M  V30 3126 H 295.039 -0.624749 -0.409508 0
M  V30 3127 H 297.701 -1.90609 -0.406699 0
M  V30 3128 H 296.797 -2.55774 -1.78847 0
M  V30 3129 N 297.098 0.621204 -1.44841 0
M  V30 3130 C 298.326 1.40752 -1.51646 0
M  V30 3131 C 298.741 1.88246 -0.144549 0
M  V30 3132 O 298.098 1.61422 0.851416 0
M  V30 3133 C 298.149 2.62119 -2.4895 0
M  V30 3134 O 297.87 2.16602 -3.80808 0
M  V30 3135 C 299.371 3.55135 -2.65319 0
M  V30 3136 H 296.591 0.431325 -0.514004 0
M  V30 3137 H 299.135 0.758835 -1.899 0
M  V30 3138 H 297.29 3.23058 -2.13805 0
M  V30 3139 H 297.704 2.95358 -4.33433 0
M  V30 3140 H 299.178 4.36874 -3.37409 0
M  V30 3141 H 299.655 4.04592 -1.70886 0
M  V30 3142 H 300.261 3.00058 -3.01405 0
M  V30 3143 N 298.576 1.31904 0.862503 0
M  V30 3144 C 299.822 1.23207 1.61838 0
M  V30 3145 C 300.177 -0.206062 1.91293 0
M  V30 3146 O 299.47 -1.14162 1.53875 0
M  V30 3147 C 299.664 2.01713 2.95037 0
M  V30 3148 C 299.493 3.53014 2.78588 0
M  V30 3149 C 298.263 4.22359 2.77382 0
M  V30 3150 C 300.461 4.47819 2.52909 0
M  V30 3151 N 298.443 5.59766 2.52062 0
M  V30 3152 C 299.814 5.72947 2.36922 0
M  V30 3153 C 301.869 4.37162 2.38314 0
M  V30 3154 C 300.572 6.88623 2.07823 0
M  V30 3155 C 302.598 5.5263 2.10604 0
M  V30 3156 C 301.96 6.76752 1.95411 0
M  V30 3157 H 298.059 0.505984 0.596242 0
M  V30 3158 H 300.643 1.66179 1.01452 0
M  V30 3159 H 298.814 1.61098 3.53415 0
M  V30 3160 H 300.546 1.84975 3.59953 0
M  V30 3161 H 297.301 3.74401 2.90036 0
M  V30 3162 H 297.725 6.32135 2.42352 0
M  V30 3163 H 302.367 3.41857 2.48784 0
M  V30 3164 H 300.085 7.83948 1.9609 0
M  V30 3165 H 303.671 5.46307 2.00101 0
M  V30 3166 H 302.551 7.6459 1.74274 0
M  V30 3167 N 300.054 -1.07777 1.14986 0
M  V30 3168 C 301.301 -1.8029 0.922056 0
M  V30 3169 C 301.629 -1.86531 -0.55105 0
M  V30 3170 O 300.884 -1.34189 -1.42449 0
M  V30 3171 C 301.183 -3.25495 1.47608 0
M  V30 3172 C 300.849 -3.39361 2.96893 0
M  V30 3173 C 299.511 -3.42852 3.37647 0
M  V30 3174 C 301.863 -3.42512 3.92854 0
M  V30 3175 C 299.191 -3.47094 4.73015 0
M  V30 3176 C 301.543 -3.4829 5.28088 0
M  V30 3177 C 300.207 -3.50058 5.68345 0
M  V30 3178 H 299.477 -0.659727 0.337404 0
M  V30 3179 H 302.124 -1.26854 1.43459 0
M  V30 3180 H 300.429 -3.81683 0.88463 0
M  V30 3181 H 302.126 -3.80168 1.27568 0
M  V30 3182 H 298.716 -3.37339 2.64387 0
M  V30 3183 H 302.9 -3.3904 3.62444 0
M  V30 3184 H 298.156 -3.46758 5.03556 0
M  V30 3185 H 302.33 -3.49675 6.02246 0
M  V30 3186 H 299.957 -3.53097 6.73221 0
M  V30 3187 N 301.532 -0.945985 -1.26051 0
M  V30 3188 C 302.462 -0.477172 -2.28572 0
M  V30 3189 C 303.443 0.472032 -1.63419 0
M  V30 3190 O 304.628 0.372853 -1.90587 0
M  V30 3191 C 301.758 0.253975 -3.4637 0
M  V30 3192 C 300.712 -0.609135 -4.23643 0
M  V30 3193 C 300.038 0.252252 -5.34105 0
M  V30 3194 C 301.338 -1.8829 -4.8718 0
M  V30 3195 H 303.032 -1.33402 -2.68038 0
M  V30 3196 H 300.578 -0.642904 -1.28852 0
M  V30 3197 H 302.531 0.593016 -4.17207 0
M  V30 3198 H 301.255 1.145 -3.05871 0
M  V30 3199 H 299.914 -0.931138 -3.54578 0
M  V30 3200 H 299.562 1.14278 -4.89846 0
M  V30 3201 H 299.262 -0.32188 -5.86718 0
M  V30 3202 H 300.786 0.586454 -6.07777 0
M  V30 3203 H 302.2 -1.61081 -5.50205 0
M  V30 3204 H 300.597 -2.40199 -5.49931 0
M  V30 3205 H 301.667 -2.59134 -4.09851 0
M  V30 3206 N 303.011 1.40521 -0.713556 0
M  V30 3207 C 304.257 2.01221 -0.252564 0
M  V30 3208 C 304.59 1.56444 1.1506 0
M  V30 3209 O 303.865 0.783597 1.78017 0
M  V30 3210 C 304.148 3.58582 -0.330332 0
M  V30 3211 C 304.001 4.13437 -1.77173 0
M  V30 3212 C 305.32 4.39079 0.299641 0
M  V30 3213 H 302.439 0.731077 -0.0932471 0
M  V30 3214 H 305.081 1.67026 -0.905673 0
M  V30 3215 H 303.231 3.87844 0.225737 0
M  V30 3216 H 304.903 3.9498 -2.38303 0
M  V30 3217 H 303.146 3.67801 -2.3001 0
M  V30 3218 H 303.817 5.22597 -1.77755 0
M  V30 3219 H 306.293 4.15735 -0.174139 0
M  V30 3220 H 305.169 5.4848 0.214771 0
M  V30 3221 H 305.43 4.19915 1.38288 0
M  V30 3222 N 304.489 0.459591 1.5075 0
M  V30 3223 C 305.737 -0.0991532 2.01857 0
M  V30 3224 C 306.058 -1.41247 1.34441 0
M  V30 3225 O 305.328 -1.89775 0.486022 0
M  V30 3226 H 303.908 -0.039633 0.745948 0
M  V30 3227 H 306.57 0.607387 1.85194 0
M  V30 3228 H 305.666 -0.258998 3.11023 0
M  V30 3229 N 305.967 -1.56429 0.191757 0
M  V30 3230 C 306.897 -2.21937 -0.725696 0
M  V30 3231 C 307.878 -1.1814 -1.2238 0
M  V30 3232 O 309.063 -1.46636 -1.27325 0
M  V30 3233 C 306.193 -2.87611 -1.94672 0
M  V30 3234 C 305.147 -3.97623 -1.58366 0
M  V30 3235 C 304.473 -4.50446 -2.88102 0
M  V30 3236 C 305.773 -5.16197 -0.796133 0
M  V30 3237 H 307.467 -2.98861 -0.179606 0
M  V30 3238 H 305.013 -1.43749 -0.0849464 0
M  V30 3239 H 306.966 -3.3212 -2.59373 0
M  V30 3240 H 305.69 -2.08087 -2.51728 0
M  V30 3241 H 304.349 -3.53801 -0.960247 0
M  V30 3242 H 303.997 -3.67688 -3.43241 0
M  V30 3243 H 303.697 -5.24675 -2.64556 0
M  V30 3244 H 305.221 -4.97654 -3.53798 0
M  V30 3245 H 306.635 -5.57271 -1.34618 0
M  V30 3246 H 305.032 -5.96471 -0.658928 0
M  V30 3247 H 306.102 -4.84473 0.203478 0
M  V30 3248 N 307.445 0.0818655 -1.57387 0
M  V30 3249 C 308.691 0.784074 -1.8703 0
M  V30 3250 C 309.024 1.77729 -0.782689 0
M  V30 3251 O 308.299 1.93384 0.208051 0
M  V30 3252 C 308.582 1.50105 -3.27323 0
M  V30 3253 C 308.435 0.524925 -4.46727 0
M  V30 3254 C 309.754 2.44843 -3.65705 0
M  V30 3255 H 306.873 0.283582 -0.680257 0
M  V30 3256 H 309.515 0.0474352 -1.89941 0
M  V30 3257 H 307.665 2.12897 -3.24972 0
M  V30 3258 H 309.337 -0.0970111 -4.61198 0
M  V30 3259 H 307.58 -0.160606 -4.33503 0
M  V30 3260 H 308.251 1.064 -5.41648 0
M  V30 3261 H 310.727 1.92135 -3.69085 0
M  V30 3262 H 309.603 2.92018 -4.64776 0
M  V30 3263 H 309.864 3.29197 -2.95096 0
M  V30 3264 N 308.923 1.53595 0.353017 0
M  V30 3265 C 310.148 1.7462 1.11904 0
M  V30 3266 C 310.573 0.479721 1.8188 0
M  V30 3267 O 309.931 -0.567066 1.72204 0
M  V30 3268 C 309.979 2.92029 2.11545 0
M  V30 3269 O 309.083 2.61516 3.18878 0
M  V30 3270 H 308.424 0.579531 0.324099 0
M  V30 3271 H 310.954 2.00525 0.406301 0
M  V30 3272 H 310.964 3.18551 2.5493 0
M  V30 3273 H 309.639 3.83888 1.60008 0
M  V30 3274 H 308.216 2.45852 2.80377 0
M  V30 3275 N 310.401 -0.613514 1.45168 0
M  V30 3276 C 311.647 -1.37279 1.50087 0
M  V30 3277 C 312.002 -1.91902 0.138294 0
M  V30 3278 O 311.295 -1.71764 -0.84899 0
M  V30 3279 C 311.489 -2.54347 2.51083 0
M  V30 3280 C 311.318 -2.11186 3.97027 0
M  V30 3281 C 310.088 -1.97636 4.65046 0
M  V30 3282 C 312.286 -1.69016 4.85735 0
M  V30 3283 N 310.268 -1.48224 5.95737 0
M  V30 3284 C 311.639 -1.30976 6.06008 0
M  V30 3285 C 313.694 -1.56555 4.72647 0
M  V30 3286 C 312.397 -0.817197 7.14643 0
M  V30 3287 C 314.423 -1.08702 5.81324 0
M  V30 3288 C 313.785 -0.716233 7.00749 0
M  V30 3289 H 309.884 -0.496478 0.60418 0
M  V30 3290 H 312.468 -0.701988 1.81605 0
M  V30 3291 H 310.639 -3.19031 2.21527 0
M  V30 3292 H 312.371 -3.21208 2.46187 0
M  V30 3293 H 309.126 -2.18638 4.20112 0
M  V30 3294 H 309.55 -1.25767 6.65216 0
M  V30 3295 H 314.192 -1.83849 3.80736 0
M  V30 3296 H 311.91 -0.531797 8.06348 0
M  V30 3297 H 315.496 -0.994943 5.7323 0
M  V30 3298 H 314.376 -0.351642 7.83411 0
M  V30 3299 N 311.879 -1.3236 -0.855495 0
M  V30 3300 C 313.127 -1.22629 -1.60644 0
M  V30 3301 C 313.448 0.212136 -1.93843 0
M  V30 3302 O 312.718 1.13666 -1.59552 0
M  V30 3303 H 311.298 -0.450882 -0.595579 0
M  V30 3304 H 313.96 -1.65871 -1.02337 0
M  V30 3305 H 313.056 -1.80832 -2.54374 0
M  V30 3306 N 313.357 1.07166 -1.15556 0
M  V30 3307 C 314.267 2.17947 -0.868116 0
M  V30 3308 C 315.283 1.73297 0.156297 0
M  V30 3309 O 316.459 2.01392 -0.0182327 0
M  V30 3310 C 313.524 3.44789 -0.36355 0
M  V30 3311 C 312.585 4.03996 -1.45209 0
M  V30 3312 C 311.818 5.24783 -0.971508 0
M  V30 3313 O 312.041 5.70109 0.182194 0
M  V30 3314 O 310.975 5.75715 -1.75603 0
M  V30 3315 H 314.801 2.4503 -1.79427 0
M  V30 3316 H 312.386 1.16539 -0.934824 0
M  V30 3317 H 314.268 4.21307 -0.0887113 0
M  V30 3318 H 312.943 3.19253 0.534708 0
M  V30 3319 H 311.85 3.29009 -1.78056 0
M  V30 3320 H 313.183 4.33808 -2.32533 0
M  V30 3321 N 314.835 0.952656 1.25548 0
M  V30 3322 C 316.083 0.605176 1.92826 0
M  V30 3323 C 316.404 -0.860261 1.74999 0
M  V30 3324 O 315.674 -1.6125 1.11244 0
M  V30 3325 H 314.254 0.220832 0.713612 0
M  V30 3326 H 316.916 1.21047 1.52754 0
M  V30 3327 H 316.012 0.832798 3.00784 0
M  V30 3328 N 316.313 -1.40141 0.720998 0
M  V30 3329 C 317.553 -2.02644 0.267335 0
M  V30 3330 C 317.917 -1.55948 -1.12001 0
M  V30 3331 O 319.118 -2.10552 -1.67097 0
M  V30 3332 C 317.389 -3.55679 0.350281 0
M  V30 3333 S 318.948 -4.38793 -0.0256004 0
M  V30 3334 H 315.766 -0.703105 0.105664 0
M  V30 3335 H 318.368 -1.71175 0.944416 0
M  V30 3336 H 317.072 -3.87157 1.36153 0
M  V30 3337 H 316.603 -3.91883 -0.345096 0
M  V30 3338 H 318.618 -4.803 -1.24604 0
M  V30 3339 N 317.792 -0.46758 -1.50504 0
M  V30 3340 C 319.04 0.0884469 -2.01906 0
M  V30 3341 C 319.361 1.40532 -1.35188 0
M  V30 3342 O 318.631 1.89515 -0.496079 0
M  V30 3343 H 317.211 0.0356765 -0.746148 0
M  V30 3344 H 319.873 -0.6172 -1.84869 0
M  V30 3345 H 318.969 0.2425 -3.11156 0
M  V30 3346 N 319.27 1.56325 -0.20005 0
M  V30 3347 C 320.2 2.22318 0.713916 0
M  V30 3348 C 321.181 1.18788 1.21752 0
M  V30 3349 O 322.366 1.47309 1.26545 0
M  V30 3350 C 319.496 2.88639 1.93144 0
M  V30 3351 C 318.45 3.98457 1.56255 0
M  V30 3352 C 317.776 4.51967 2.85709 0
M  V30 3353 C 319.076 5.16612 0.768747 0
M  V30 3354 H 320.77 2.98952 0.163755 0
M  V30 3355 H 318.316 1.43792 0.0773219 0
M  V30 3356 H 320.269 3.33491 2.57608 0
M  V30 3357 H 318.993 2.09419 2.50621 0
M  V30 3358 H 317.652 3.54305 0.941471 0
M  V30 3359 H 317.3 3.69503 3.41287 0
M  V30 3360 H 317 5.26071 2.6177 0
M  V30 3361 H 318.524 4.99523 3.51154 0
M  V30 3362 H 319.938 5.57977 1.3166 0
M  V30 3363 H 318.335 5.96812 0.627286 0
M  V30 3364 H 319.405 4.84358 -0.229168 0
M  V30 3365 N 320.748 -0.0735177 1.57428 0
M  V30 3366 C 321.678 -1.0879 2.06608 0
M  V30 3367 C 322.659 -1.40473 0.959237 0
M  V30 3368 O 323.844 -1.5013 1.23185 0
M  V30 3369 C 320.974 -2.40183 2.50857 0
M  V30 3370 C 319.928 -2.22858 3.65402 0
M  V30 3371 C 319.254 -3.59619 3.957 0
M  V30 3372 C 320.554 -1.65123 4.95511 0
M  V30 3373 H 322.248 -0.678673 2.91607 0
M  V30 3374 H 319.794 -0.325013 1.40284 0
M  V30 3375 H 321.747 -3.11437 2.83874 0
M  V30 3376 H 320.471 -2.83083 1.62885 0
M  V30 3377 H 319.13 -1.54045 3.32664 0
M  V30 3378 H 318.778 -4.00086 3.04861 0
M  V30 3379 H 318.478 -3.48866 4.72828 0
M  V30 3380 H 320.002 -4.32306 4.31212 0
M  V30 3381 H 321.416 -2.26241 5.26771 0
M  V30 3382 H 319.813 -1.65071 5.7695 0
M  V30 3383 H 320.883 -0.612559 4.81015 0
M  V30 3384 N 322.226 -1.5378 -0.344866 0
M  V30 3385 C 323.176 -1.78057 -1.42407 0
M  V30 3386 C 324.16 -0.635732 -1.47808 0
M  V30 3387 O 325.352 -0.89508 -1.527 0
M  V30 3388 C 322.481 -1.99242 -2.79566 0
M  V30 3389 C 321.567 -3.19787 -2.78562 0
M  V30 3390 N 321.958 -4.41284 -2.47189 0
M  V30 3391 C 320.256 -3.2093 -3.0971 0
M  V30 3392 C 320.957 -5.23128 -2.54385 0
M  V30 3393 N 319.933 -4.59813 -2.89953 0
M  V30 3394 H 323.735 -2.69588 -1.17046 0
M  V30 3395 H 321.249 -1.52687 -0.553217 0
M  V30 3396 H 323.246 -2.14768 -3.57324 0
M  V30 3397 H 321.906 -1.08953 -3.05875 0
M  V30 3398 H 322.917 -4.68657 -2.20411 0
M  V30 3399 H 319.594 -2.40603 -3.41199 0
M  V30 3400 H 320.984 -6.30096 -2.333 0
M  V30 3401 N 323.704 0.605807 -1.45491 0
M  V30 3402 C 324.652 1.73754 -1.54636 0
M  V30 3403 C 325.646 1.64207 -0.416219 0
M  V30 3404 O 326.852 1.69979 -0.592199 0
M  V30 3405 H 323.227 0.574073 -0.485741 0
M  V30 3406 H 325.198 1.63169 -2.49837 0
M  V30 3407 C 323.947 3.12135 -1.53189 0
M  V30 3408 H 323.27 3.20141 -2.39478 0
M  V30 3409 H 324.71 3.91147 -1.63645 0
M  V30 3410 C 323.169 3.35921 -0.256616 0
M  V30 3411 O 323.699 3.96194 0.662798 0
M  V30 3412 N 321.905 2.90204 -0.151751 0
M  V30 3413 H 321.452 2.41336 -0.90081 0
M  V30 3414 H 321.41 3.06492 0.700699 0
M  V30 3415 N 325.182 1.32811 0.848464 0
M  V30 3416 C 326.412 1.26556 1.63301 0
M  V30 3417 C 326.82 -0.1676 1.88456 0
M  V30 3418 O 326.163 -1.11713 1.45828 0
M  V30 3419 C 326.225 1.96202 3.01239 0
M  V30 3420 C 325.889 3.45528 2.99098 0
M  V30 3421 C 326.886 4.40903 2.75501 0
M  V30 3422 C 324.571 3.87558 3.19537 0
M  V30 3423 C 326.565 5.76282 2.72356 0
M  V30 3424 C 324.252 5.23044 3.16019 0
M  V30 3425 C 325.25 6.17217 2.92458 0
M  V30 3426 O 324.938 7.50223 2.88825 0
M  V30 3427 H 324.67 0.43771 0.515156 0
M  V30 3428 H 327.224 1.7559 1.0657 0
M  V30 3429 H 325.454 1.41746 3.59785 0
M  V30 3430 H 327.143 1.83573 3.62016 0
M  V30 3431 H 327.909 4.09756 2.5947 0
M  V30 3432 H 323.788 3.14674 3.369 0
M  V30 3433 H 327.332 6.4976 2.53886 0
M  V30 3434 H 323.229 5.53818 3.31596 0
M  V30 3435 H 323.997 7.59657 3.04735 0
M  V30 3436 N 326.66 -1.06551 1.16123 0
M  V30 3437 C 327.908 -1.78947 0.939267 0
M  V30 3438 C 328.229 -1.87532 -0.534476 0
M  V30 3439 O 327.499 -1.38211 -1.38833 0
M  V30 3440 H 326.079 -0.662807 0.344523 0
M  V30 3441 H 328.741 -1.28725 1.46342 0
M  V30 3442 H 327.837 -2.81117 1.35572 0
M  V30 3443 N 328.138 -0.959301 -1.25041 0
M  V30 3444 C 329.384 -0.617525 -1.9317 0
M  V30 3445 C 329.717 0.843981 -1.74902 0
M  V30 3446 O 328.992 1.60615 -1.09696 0
M  V30 3447 C 329.275 -0.982736 -3.46431 0
M  V30 3448 C 329.128 -2.50032 -3.73904 0
M  V30 3449 C 330.447 -0.511176 -4.37121 0
M  V30 3450 H 327.566 -0.22582 -0.701552 0
M  V30 3451 H 330.208 -1.19679 -1.4757 0
M  V30 3452 H 328.358 -0.489806 -3.854 0
M  V30 3453 H 330.03 -3.06737 -3.44544 0
M  V30 3454 H 328.273 -2.93598 -3.19348 0
M  V30 3455 H 328.944 -2.70635 -4.81103 0
M  V30 3456 H 331.42 -0.934075 -4.0548 0
M  V30 3457 H 330.296 -0.795361 -5.43107 0
M  V30 3458 H 330.557 0.588834 -4.38161 0
M  V30 3459 N 329.616 1.39756 -0.72842 0
M  V30 3460 C 330.846 2.04651 -0.283117 0
M  V30 3461 C 331.254 1.5502 1.08469 0
M  V30 3462 O 330.597 0.707343 1.69536 0
M  V30 3463 C 330.659 3.58947 -0.199309 0
M  V30 3464 C 330.323 4.31525 -1.5045 0
M  V30 3465 C 331.32 4.5861 -2.44894 0
M  V30 3466 C 329.005 4.70195 -1.76698 0
M  V30 3467 C 330.999 5.23366 -3.63822 0
M  V30 3468 C 328.686 5.3468 -2.95906 0
M  V30 3469 C 329.684 5.61198 -3.89289 0
M  V30 3470 O 329.372 6.24347 -5.06404 0
M  V30 3471 H 329.104 0.664777 -0.122666 0
M  V30 3472 H 331.658 1.79913 -0.990987 0
M  V30 3473 H 329.888 3.82556 0.56461 0
M  V30 3474 H 331.577 4.0534 0.213125 0
M  V30 3475 H 332.343 4.29187 -2.25883 0
M  V30 3476 H 328.222 4.48916 -1.04859 0
M  V30 3477 H 331.766 5.4398 -4.36728 0
M  V30 3478 H 327.663 5.63524 -3.14819 0
M  V30 3479 H 328.431 6.42842 -5.06652 0
M  V30 3480 N 331.094 0.475555 1.50254 0
M  V30 3481 C 332.322 -0.0754493 2.06762 0
M  V30 3482 C 332.737 -1.33111 1.33891 0
M  V30 3483 O 332.094 -1.77846 0.40952 0
M  V30 3484 C 332.145 -0.359008 3.59713 0
M  V30 3485 O 331.866 0.846851 4.29837 0
M  V30 3486 C 333.367 -0.956484 4.32858 0
M  V30 3487 H 330.587 0.00907525 0.670939 0
M  V30 3488 H 333.131 0.665618 1.93364 0
M  V30 3489 H 331.286 -1.05001 3.72899 0
M  V30 3490 H 331.7 0.594162 5.21124 0
M  V30 3491 H 333.174 -1.10463 5.40834 0
M  V30 3492 H 333.651 -1.94775 3.93649 0
M  V30 3493 H 334.257 -0.303723 4.24214 0
M  V30 3494 N 332.573 -1.56217 0.208337 0
M  V30 3495 C 333.52 -2.19699 -0.707192 0
M  V30 3496 C 334.49 -1.14836 -1.20008 0
M  V30 3497 O 335.675 -1.4314 -1.26157 0
M  V30 3498 C 332.815 -2.87061 -1.91546 0
M  V30 3499 C 331.928 -4.06483 -1.46271 0
M  V30 3500 C 331.063 -4.61665 -2.62752 0
M  V30 3501 C 330.102 -5.73417 -2.14147 0
M  V30 3502 N 329.239 -6.22948 -3.23853 0
M  V30 3503 H 334.079 -2.97575 -0.159111 0
M  V30 3504 H 331.616 -1.46948 -0.0667874 0
M  V30 3505 H 333.574 -3.24294 -2.62468 0
M  V30 3506 H 332.204 -2.11725 -2.43664 0
M  V30 3507 H 331.256 -3.74825 -0.648886 0
M  V30 3508 H 332.568 -4.87271 -1.06622 0
M  V30 3509 H 331.722 -5.01272 -3.41776 0
M  V30 3510 H 330.461 -3.80013 -3.05682 0
M  V30 3511 H 329.466 -5.33326 -1.33581 0
M  V30 3512 H 330.691 -6.56897 -1.72232 0
M  V30 3513 H 328.637 -5.44213 -3.6629 0
M  V30 3514 H 328.554 -6.98823 -2.88414 0
M  V30 3515 H 329.822 -6.6721 -4.03052 0
M  V30 3516 N 334.051 0.0651679 -1.57465 0
M  V30 3517 C 335.297 0.764193 -1.87851 0
M  V30 3518 C 335.63 1.76889 -0.801495 0
M  V30 3519 O 334.905 1.93594 0.187528 0
M  V30 3520 C 335.188 1.46625 -3.28897 0
M  V30 3521 C 335.041 0.477515 -4.47258 0
M  V30 3522 C 336.36 2.4095 -3.68281 0
M  V30 3523 H 333.479 0.276351 -0.683227 0
M  V30 3524 H 336.121 0.0272868 -1.8998 0
M  V30 3525 H 334.271 2.09438 -3.27212 0
M  V30 3526 H 335.943 -0.145922 -4.61069 0
M  V30 3527 H 334.186 -0.206576 -4.33308 0
M  V30 3528 H 334.857 1.0065 -5.42746 0
M  V30 3529 H 337.333 1.88209 -3.71102 0
M  V30 3530 H 336.209 2.87072 -4.67847 0
M  V30 3531 H 336.47 3.26049 -2.98571 0
M  V30 3532 N 335.529 1.53961 0.336706 0
M  V30 3533 C 336.754 1.75797 1.10046 0
M  V30 3534 C 337.179 0.498985 1.81361 0
M  V30 3535 O 336.537 -0.548769 1.72795 0
M  V30 3536 C 336.585 2.94257 2.08436 0
M  V30 3537 O 335.689 2.64883 3.16087 0
M  V30 3538 H 335.03 0.582936 0.317934 0
M  V30 3539 H 337.56 2.00945 0.38501 0
M  V30 3540 H 337.57 3.21237 2.51537 0
M  V30 3541 H 336.245 3.85564 1.55927 0
M  V30 3542 H 334.822 2.48812 2.77753 0
M  V30 3543 N 337.007 -0.598083 1.45811 0
M  V30 3544 C 338.423 -0.919847 1.30426 0
M  V30 3545 C 338.623 -1.99759 0.264303 0
M  V30 3546 O 337.679 -2.50221 -0.338472 0
M  V30 3547 C 338.992 -1.35176 2.68603 0
M  V30 3548 C 340.54 -1.46546 2.76574 0
M  V30 3549 C 341.015 -1.9311 4.15298 0
M  V30 3550 N 342.506 -2.00328 4.1764 0
M  V30 3551 C 343.241 -2.37599 5.21856 0
M  V30 3552 N 342.737 -2.73771 6.36413 0
M  V30 3553 N 344.53 -2.38021 5.09218 0
M  V30 3554 H 336.681 0.114111 2.12093 0
M  V30 3555 H 338.944 -0.0116121 0.947929 0
M  V30 3556 H 338.65 -0.633969 3.45939 0
M  V30 3557 H 338.524 -2.3164 2.97696 0
M  V30 3558 H 340.911 -2.17415 1.99537 0
M  V30 3559 H 340.992 -0.483727 2.51185 0
M  V30 3560 H 340.636 -1.22824 4.92825 0
M  V30 3561 H 340.566 -2.92213 4.38086 0
M  V30 3562 H 343.057 -1.74925 3.34977 0
M  V30 3563 H 343.37 -3.0112 7.11721 0
M  V30 3564 H 341.715 -2.71445 6.39799 0
M  V30 3565 H 344.906 -2.09174 4.18765 0
M  V30 3566 H 345.079 -2.66741 5.90554 0
M  V30 3567 N 338.485 -1.33259 -0.841409 0
M  V30 3568 C 339.715 -1.2742 -1.62628 0
M  V30 3569 C 340.123 0.157604 -1.88542 0
M  V30 3570 O 339.466 1.10938 -1.46419 0
M  V30 3571 C 339.528 -1.97797 -3.00194 0
M  V30 3572 C 339.192 -3.47109 -2.97261 0
M  V30 3573 C 340.189 -4.42358 -2.73159 0
M  V30 3574 C 337.874 -3.89247 -3.17478 0
M  V30 3575 C 339.868 -5.77718 -2.69296 0
M  V30 3576 C 337.555 -5.24713 -3.13241 0
M  V30 3577 C 338.553 -6.1876 -2.89181 0
M  V30 3578 O 338.241 -7.51745 -2.84843 0
M  V30 3579 H 337.973 -0.440436 -0.512827 0
M  V30 3580 H 340.527 -1.76153 -1.05638 0
M  V30 3581 H 338.757 -1.43652 -3.59028 0
M  V30 3582 H 340.446 -1.8549 -3.61038 0
M  V30 3583 H 341.212 -4.11127 -2.57294 0
M  V30 3584 H 337.091 -3.16456 -3.35226 0
M  V30 3585 H 340.635 -6.51097 -2.50436 0
M  V30 3586 H 336.532 -5.55569 -3.28654 0
M  V30 3587 H 337.3 -7.61262 -3.00702 0
M  V30 3588 N 339.963 1.05934 -1.16686 0
M  V30 3589 C 340.893 2.1546 -0.899949 0
M  V30 3590 C 341.874 1.69391 0.155154 0
M  V30 3591 O 343.059 1.94199 0.00648693 0
M  V30 3592 C 340.189 3.44939 -0.404241 0
M  V30 3593 C 339.143 4.04536 -1.39767 0
M  V30 3594 C 338.469 5.29268 -0.760216 0
M  V30 3595 C 339.769 4.42893 -2.76845 0
M  V30 3596 H 341.463 2.38046 -1.81588 0
M  V30 3597 H 339.009 1.14404 -0.874514 0
M  V30 3598 H 340.962 4.20901 -0.204971 0
M  V30 3599 H 339.686 3.21983 0.547206 0
M  V30 3600 H 338.345 3.30635 -1.58355 0
M  V30 3601 H 337.993 5.02611 0.197831 0
M  V30 3602 H 337.693 5.70101 -1.42332 0
M  V30 3603 H 339.217 6.07924 -0.57105 0
M  V30 3604 H 340.631 5.09921 -2.62019 0
M  V30 3605 H 339.028 4.94721 -3.39663 0
M  V30 3606 H 340.098 3.53584 -3.31823 0
M  V30 3607 N 341.441 0.965919 1.2453 0
M  V30 3608 C 342.718 0.543777 1.87889 0
M  V30 3609 C 343.098 -0.97909 1.87021 0
M  V30 3610 O 342.446 -1.84969 1.3416 0
M  V30 3611 C 342.656 1.13327 3.30088 0
M  V30 3612 C 344.004 1.21707 4.06783 0
M  V30 3613 O 345.028 1.08566 3.39252 0
M  V30 3614 O 343.887 1.42456 5.27606 0
M  V30 3615 H 340.981 0.181054 0.806938 0
M  V30 3616 H 343.527 1.06007 1.32516 0
M  V30 3617 H 342.299 2.17612 3.25209 0
M  V30 3618 H 341.922 0.600911 3.93033 0
M  V30 3619 N 342.919 -1.39368 0.735821 0
M  V30 3620 C 344.165 -2.01272 0.293439 0
M  V30 3621 C 344.52 -1.57344 -1.10728 0
M  V30 3622 O 343.813 -0.792744 -1.74431 0
M  V30 3623 C 344.007 -3.5583 0.334651 0
M  V30 3624 C 343.836 -4.14764 1.73784 0
M  V30 3625 C 342.606 -4.47315 2.35026 0
M  V30 3626 C 344.804 -4.38246 2.69157 0
M  V30 3627 N 342.786 -4.91756 3.6749 0
M  V30 3628 C 344.157 -4.849 3.86357 0
M  V30 3629 C 346.212 -4.20315 2.66908 0
M  V30 3630 C 344.915 -5.15505 5.01645 0
M  V30 3631 C 346.941 -4.52033 3.8134 0
M  V30 3632 C 346.303 -4.98895 4.97276 0
M  V30 3633 H 342.402 -0.766756 0.153652 0
M  V30 3634 H 344.986 -1.69276 0.961967 0
M  V30 3635 H 343.157 -3.87212 -0.303527 0
M  V30 3636 H 344.889 -4.04503 -0.126358 0
M  V30 3637 H 341.644 -4.35143 1.86943 0
M  V30 3638 H 342.068 -5.18333 4.35499 0
M  V30 3639 H 346.71 -3.83287 1.78468 0
M  V30 3640 H 344.428 -5.51437 5.90713 0
M  V30 3641 H 348.014 -4.39781 3.80899 0
M  V30 3642 H 346.894 -5.22973 5.84353 0
M  V30 3643 N 344.397 -0.483516 -1.5 0
M  V30 3644 C 345.646 0.0689102 -2.01582 0
M  V30 3645 C 345.959 1.39655 -1.36952 0
M  V30 3646 O 347.165 2.03465 -1.79762 0
M  V30 3647 C 345.621 0.173302 -3.59483 0
M  V30 3648 C 345.229 -1.14665 -4.33077 0
M  V30 3649 C 346.973 0.677024 -4.19066 0
M  V30 3650 C 344.88 -1.00537 -5.82792 0
M  V30 3651 H 343.81 0.0295277 -0.753422 0
M  V30 3652 H 346.461 -0.620295 -1.72698 0
M  V30 3653 H 344.843 0.926569 -3.85007 0
M  V30 3654 H 346.017 -1.91184 -4.19268 0
M  V30 3655 H 344.332 -1.58244 -3.85159 0
M  V30 3656 H 346.929 0.799952 -5.28682 0
M  V30 3657 H 347.272 1.67151 -3.81269 0
M  V30 3658 H 347.805 -0.0192083 -3.97795 0
M  V30 3659 H 344.544 -1.9736 -6.25083 0
M  V30 3660 H 344.064 -0.280776 -5.99142 0
M  V30 3661 H 345.743 -0.677 -6.43448 0
M  V30 3662 N 345.875 1.56104 -0.216619 0
M  V30 3663 C 346.825 2.16703 0.708798 0
M  V30 3664 C 347.809 1.11392 1.16106 0
M  V30 3665 O 349.001 1.37395 1.11587 0
M  V30 3666 C 346.13 2.84666 1.91886 0
M  V30 3667 C 345.216 3.97195 1.48651 0
M  V30 3668 N 345.607 4.99959 0.766434 0
M  V30 3669 C 343.905 4.09193 1.77418 0
M  V30 3670 C 344.606 5.79126 0.546659 0
M  V30 3671 N 343.582 5.32315 1.10188 0
M  V30 3672 H 347.384 2.93516 0.150162 0
M  V30 3673 H 344.898 1.6239 -0.0176768 0
M  V30 3674 H 346.895 3.26486 2.59253 0
M  V30 3675 H 345.555 2.09347 2.48202 0
M  V30 3676 H 346.566 5.16197 0.419634 0
M  V30 3677 H 343.243 3.45021 2.35088 0
M  V30 3678 H 344.633 6.71895 -0.026103 0
M  V30 3679 N 347.353 -0.0568162 1.57498 0
M  V30 3680 C 348.601 -0.751617 1.87604 0
M  V30 3681 C 348.922 -1.77351 0.81066 0
M  V30 3682 O 348.192 -1.95254 -0.159018 0
M  V30 3683 H 346.772 -0.280583 0.692302 0
M  V30 3684 H 349.434 -0.0293483 1.94878 0
M  V30 3685 H 348.53 -1.25852 2.856 0
M  V30 3686 N 348.832 -1.54138 -0.328536 0
M  V30 3687 C 349.782 -1.79557 -1.4051 0
M  V30 3688 C 350.766 -0.651373 -1.47126 0
M  V30 3689 O 351.958 -0.911226 -1.51742 0
M  V30 3690 C 349.087 -2.02196 -2.77438 0
M  V30 3691 C 348.173 -3.22724 -2.75155 0
M  V30 3692 N 348.564 -4.43881 -2.42494 0
M  V30 3693 C 346.862 -3.24196 -3.06289 0
M  V30 3694 C 347.563 -5.25797 -2.48822 0
M  V30 3695 N 346.539 -4.62862 -2.8506 0
M  V30 3696 H 350.341 -2.70814 -1.1418 0
M  V30 3697 H 347.855 -1.53265 -0.536991 0
M  V30 3698 H 349.852 -2.18546 -3.55026 0
M  V30 3699 H 348.512 -1.12191 -3.04702 0
M  V30 3700 H 349.523 -4.70969 -2.15428 0
M  V30 3701 H 346.2 -2.44208 -3.38627 0
M  V30 3702 H 347.59 -6.32535 -2.26603 0
M  V30 3703 N 350.31 0.590341 -1.46126 0
M  V30 3704 C 351.559 1.34499 -1.50309 0
M  V30 3705 C 351.872 1.94977 -0.156021 0
M  V30 3706 O 353.078 2.71395 -0.0756037 0
M  V30 3707 C 351.534 2.43723 -2.64815 0
M  V30 3708 C 351.142 1.89582 -4.0591 0
M  V30 3709 C 352.886 3.20579 -2.78262 0
M  V30 3710 C 350.793 2.9639 -5.11769 0
M  V30 3711 H 349.723 0.505593 -0.559368 0
M  V30 3712 H 352.374 0.630848 -1.72315 0
M  V30 3713 H 350.756 3.17902 -2.36124 0
M  V30 3714 H 351.93 1.21997 -4.44357 0
M  V30 3715 H 350.245 1.25418 -3.97063 0
M  V30 3716 H 352.842 4.00276 -3.54519 0
M  V30 3717 H 353.185 3.72684 -1.85505 0
M  V30 3718 H 353.718 2.53505 -3.06562 0
M  V30 3719 H 350.457 2.49181 -6.06291 0
M  V30 3720 H 349.977 3.62487 -4.77873 0
M  V30 3721 H 351.656 3.60474 -5.37278 0
M  V30 3722 N 351.788 1.33704 0.83433 0
M  V30 3723 C 353.204 1.13137 1.12571 0
M  V30 3724 C 353.404 -0.0747261 2.01361 0
M  V30 3725 O 352.46 -0.753647 2.4099 0
M  V30 3726 C 353.773 2.42105 1.78342 0
M  V30 3727 C 355.321 2.48054 1.90888 0
M  V30 3728 C 355.796 3.76995 2.60075 0
M  V30 3729 N 357.287 3.78092 2.67584 0
M  V30 3730 C 358.022 4.74574 3.21818 0
M  V30 3731 N 357.518 5.81434 3.76705 0
M  V30 3732 N 359.311 4.62044 3.20112 0
M  V30 3733 H 351.462 2.11 0.243489 0
M  V30 3734 H 353.725 0.932532 0.17055 0
M  V30 3735 H 353.431 3.30391 1.20561 0
M  V30 3736 H 353.305 2.54594 2.7832 0
M  V30 3737 H 355.692 1.60215 2.47821 0
M  V30 3738 H 355.773 2.39502 0.898459 0
M  V30 3739 H 355.417 4.65219 2.03799 0
M  V30 3740 H 355.347 3.82825 3.61597 0
M  V30 3741 H 357.838 3.00865 2.28667 0
M  V30 3742 H 358.151 6.51084 4.16305 0
M  V30 3743 H 356.496 5.85163 3.7498 0
M  V30 3744 H 359.687 3.77716 2.76493 0
M  V30 3745 H 359.86 5.37406 3.62076 0
M  V30 3746 N 353.266 -1.05314 1.17247 0
M  V30 3747 C 354.543 -1.75184 0.87005 0
M  V30 3748 C 354.923 -2.01481 -0.629965 0
M  V30 3749 O 354.271 -1.64988 -1.58086 0
M  V30 3750 C 354.481 -3.04594 1.70363 0
M  V30 3751 C 355.829 -3.78567 1.92281 0
M  V30 3752 O 356.853 -3.14461 1.67311 0
M  V30 3753 O 355.712 -4.93755 2.3424 0
M  V30 3754 H 352.806 -0.761729 0.322021 0
M  V30 3755 H 355.352 -1.11493 1.27935 0
M  V30 3756 H 354.124 -2.81201 2.72106 0
M  V30 3757 H 353.747 -3.76022 1.29202 0
M  V30 3758 N 354.744 -0.972509 -1.24016 0
M  V30 3759 C 355.691 -0.505969 -2.25186 0
M  V30 3760 C 356.661 0.451009 -1.5986 0
M  V30 3761 O 357.846 0.360307 -1.87367 0
M  V30 3762 C 354.986 0.193089 -3.44559 0
M  V30 3763 C 354.099 -0.803222 -4.24467 0
M  V30 3764 C 353.234 -0.0797793 -5.3114 0
M  V30 3765 C 352.273 -1.06583 -6.02749 0
M  V30 3766 N 351.41 -0.372074 -7.01113 0
M  V30 3767 H 356.25 -1.37351 -2.64459 0
M  V30 3768 H 353.787 -0.688419 -1.29997 0
M  V30 3769 H 355.745 0.615125 -4.1264 0
M  V30 3770 H 354.375 1.02455 -3.06109 0
M  V30 3771 H 353.427 -1.34368 -3.55878 0
M  V30 3772 H 354.739 -1.55494 -4.73944 0
M  V30 3773 H 353.893 0.400015 -6.0538 0
M  V30 3774 H 352.632 0.704597 -4.82583 0
M  V30 3775 H 351.637 -1.55645 -5.27309 0
M  V30 3776 H 352.862 -1.85074 -6.53395 0
M  V30 3777 H 350.808 0.393238 -6.5482 0
M  V30 3778 H 350.725 -1.06258 -7.48495 0
M  V30 3779 H 351.993 0.0855932 -7.79453 0
M  V30 3780 N 356.222 1.38976 -0.743202 0
M  V30 3781 C 357.132 2.3434 -0.110399 0
M  V30 3782 C 358.148 1.58741 0.712559 0
M  V30 3783 O 359.324 1.9099 0.639125 0
M  V30 3784 C 356.389 3.37812 0.780012 0
M  V30 3785 C 355.45 4.29263 -0.0561319 0
M  V30 3786 C 354.683 5.27793 0.791875 0
M  V30 3787 O 354.906 5.33043 2.03031 0
M  V30 3788 O 353.84 6.01512 0.216183 0
M  V30 3789 H 357.666 2.90129 -0.897714 0
M  V30 3790 H 355.251 1.40643 -0.503966 0
M  V30 3791 H 357.133 4.01194 1.28923 0
M  V30 3792 H 355.808 2.84395 1.546 0
M  V30 3793 H 354.715 3.69076 -0.611056 0
M  V30 3794 H 356.048 4.85907 -0.784531 0
M  V30 3795 N 357.7 0.491464 1.49741 0
M  V30 3796 C 358.663 -0.280906 2.27472 0
M  V30 3797 C 359.663 -0.902454 1.33088 0
M  V30 3798 O 360.853 -0.768465 1.56334 0
M  V30 3799 C 357.985 -1.40209 3.10732 0
M  V30 3800 H 359.178 0.401056 2.97206 0
M  V30 3801 H 356.731 0.246131 1.5435 0
M  V30 3802 H 357.466 -2.11849 2.45541 0
M  V30 3803 H 357.251 -0.961969 3.80117 0
M  V30 3804 H 358.741 -1.9464 3.69466 0
M  V30 3805 N 359.178 -1.55987 0.224894 0
M  V30 3806 C 360.589 -1.84553 -0.282345 0
M  V30 3807 C 360.94 -1.14634 -1.59227 0
M  V30 3808 O 360.065 -0.417155 -2.12341 0
M  V30 3809 C 360.66 -3.348 -0.519062 0
M  V30 3810 C 359.219 -3.63671 -0.970604 0
M  V30 3811 C 358.366 -2.77277 -0.0355261 0
M  V30 3812 H 361.317 -1.52245 0.448006 0
M  V30 3813 H 361.338 -3.55187 -1.36463 0
M  V30 3814 H 360.85 -3.8566 0.43449 0
M  V30 3815 H 358.951 -3.1827 -1.9374 0
M  V30 3816 H 359.064 -4.71631 -0.842698 0
M  V30 3817 H 357.428 -2.48846 -0.542927 0
M  V30 3818 H 358.211 -3.30937 0.913003 0
M  V30 3819 N 360.656 0.0484629 -1.57525 0
M  V30 3820 C 361.588 1.08222 -2.02041 0
M  V30 3821 C 362.601 1.33621 -0.930012 0
M  V30 3822 O 363.79 1.3145 -1.20761 0
M  V30 3823 C 360.89 2.42818 -2.36416 0
M  V30 3824 C 360.063 2.37049 -3.67596 0
M  V30 3825 C 359.122 3.53937 -3.89378 0
M  V30 3826 O 358.148 3.34308 -4.60681 0
M  V30 3827 N 359.35 4.75126 -3.3352 0
M  V30 3828 H 362.115 0.702946 -2.9134 0
M  V30 3829 H 359.676 0.236745 -1.6016 0
M  V30 3830 H 361.668 3.197 -2.48141 0
M  V30 3831 H 360.238 2.72661 -1.52888 0
M  V30 3832 H 359.458 1.45395 -3.66407 0
M  V30 3833 H 360.746 2.30318 -4.53686 0
M  V30 3834 H 360.144 4.93976 -2.75688 0
M  V30 3835 H 358.701 5.49439 -3.50656 0
M  V30 3836 N 362.134 1.5431 0.320358 0
M  V30 3837 C 363.081 1.83918 1.39438 0
M  V30 3838 C 364.051 0.686525 1.51248 0
M  V30 3839 O 365.236 0.933269 1.66417 0
M  V30 3840 C 362.376 2.075 2.75749 0
M  V30 3841 C 361.489 3.35177 2.72544 0
M  V30 3842 C 360.624 3.48704 4.00723 0
M  V30 3843 C 359.663 4.70244 3.91838 0
M  V30 3844 N 358.8 4.80679 5.11754 0
M  V30 3845 H 363.64 2.75544 1.13489 0
M  V30 3846 H 361.177 1.36459 0.549309 0
M  V30 3847 H 363.135 2.19166 3.54996 0
M  V30 3848 H 361.765 1.19163 3 0
M  V30 3849 H 360.817 3.32233 1.85271 0
M  V30 3850 H 362.129 4.24534 2.61863 0
M  V30 3851 H 361.283 3.59928 4.88402 0
M  V30 3852 H 360.022 2.57445 4.14214 0
M  V30 3853 H 359.027 4.59072 3.02544 0
M  V30 3854 H 360.252 5.6289 3.7991 0
M  V30 3855 H 358.198 3.92337 5.25745 0
M  V30 3856 H 358.115 5.64007 5.0342 0
M  V30 3857 H 359.383 4.96239 6.01138 0
M  V30 3858 N 363.613 -0.582584 1.46437 0
M  V30 3859 C 364.838 -1.37168 1.55563 0
M  V30 3860 C 365.263 -1.87061 0.19743 0
M  V30 3861 O 364.621 -1.61572 -0.822451 0
M  V30 3862 C 364.669 -2.53511 2.56446 0
M  V30 3863 O 363.773 -3.54953 2.09958 0
M  V30 3864 H 363.114 -0.408494 0.523477 0
M  V30 3865 H 365.644 -0.706646 1.9201 0
M  V30 3866 H 365.654 -3.00426 2.76058 0
M  V30 3867 H 364.329 -2.16549 3.55076 0
M  V30 3868 H 362.906 -3.14516 2.00334 0
M  V30 3869 N 365.091 -1.34144 -0.827227 0
M  V30 3870 C 366.337 -1.27455 -1.58515 0
M  V30 3871 C 366.692 0.155271 -1.91772 0
M  V30 3872 O 365.985 1.10042 -1.56848 0
M  V30 3873 C 366.179 -2.09464 -2.89585 0
M  V30 3874 C 366.008 -3.60276 -2.69131 0
M  V30 3875 C 364.778 -4.29565 -2.66087 0
M  V30 3876 C 366.976 -4.54367 -2.40947 0
M  V30 3877 N 364.958 -5.66252 -2.37132 0
M  V30 3878 C 366.329 -5.79027 -2.21648 0
M  V30 3879 C 368.384 -4.43327 -2.26639 0
M  V30 3880 C 367.087 -6.93891 -1.89492 0
M  V30 3881 C 369.113 -5.58019 -1.95878 0
M  V30 3882 C 368.475 -6.81695 -1.774 0
M  V30 3883 H 364.574 -0.521614 -0.582617 0
M  V30 3884 H 367.158 -1.68811 -0.970105 0
M  V30 3885 H 365.329 -1.70411 -3.49019 0
M  V30 3886 H 367.061 -1.94453 -3.54923 0
M  V30 3887 H 363.816 -3.81959 -2.80008 0
M  V30 3888 H 364.24 -6.38338 -2.25507 0
M  V30 3889 H 368.882 -3.48333 -2.39633 0
M  V30 3890 H 366.6 -7.88871 -1.75236 0
M  V30 3891 H 370.186 -5.5142 -1.85546 0
M  V30 3892 H 369.066 -7.68942 -1.53941 0
M  V30 3893 N 366.569 1.04691 -1.17803 0
M  V30 3894 C 367.532 2.10724 -0.901545 0
M  V30 3895 C 368.532 1.6042 0.110437 0
M  V30 3896 O 369.722 1.7377 -0.122303 0
M  V30 3897 C 366.854 3.39084 -0.351409 0
M  V30 3898 H 368.047 2.36686 -1.84174 0
M  V30 3899 H 365.6 1.21015 -0.98919 0
M  V30 3900 H 366.335 3.18782 0.59569 0
M  V30 3901 H 366.12 3.76909 -1.08083 0
M  V30 3902 H 367.61 4.17227 -0.176451 0
M  V30 3903 N 368.047 0.979072 1.23499 0
M  V30 3904 C 369.458 0.684391 1.73704 0
M  V30 3905 C 369.809 -0.799448 1.79174 0
M  V30 3906 O 368.934 -1.62531 1.42873 0
M  V30 3907 C 369.529 1.23564 3.15464 0
M  V30 3908 C 368.088 0.99063 3.6313 0
M  V30 3909 C 367.235 1.36416 2.41425 0
M  V30 3910 H 370.186 1.15307 1.09041 0
M  V30 3911 H 370.207 0.607417 3.7562 0
M  V30 3912 H 369.719 2.31561 3.1145 0
M  V30 3913 H 367.82 -0.0733136 3.72528 0
M  V30 3914 H 367.933 1.64427 4.5 0
M  V30 3915 H 366.297 0.782616 2.42378 0
M  V30 3916 H 367.08 2.45387 2.40083 0
M  V30 3917 O 369.564 -1.34901 0.887919 0
M  V30 3918 H 370.255 -1.87283 0.494443 0
M  V30 END ATOM
M  V30 BEGIN BOND
M  V30 END BOND
M  V30 END CTAB
M  END
$$$$
