drugbank_target|P12259 Coagulation factor V (DB00055; DB05777; DB11300; DB11312; DB11571; DB11572; DB13149; DB13151)
 OpenBabel12092119233D

  0  0  0     0  0            999 V3000
M  V30 BEGIN CTAB
M  V30 COUNTS 34916 35383 0 0 0
M  V30 BEGIN ATOM
M  V30 1 H -0.908 1.98254 -0.117106 0
M  V30 2 N 0 1.576 0 0
M  V30 3 C 0.933 2.03868 1.02534 0
M  V30 4 C 1.911 0.928543 1.3348 0
M  V30 5 O 3.095 1.19667 1.45644 0
M  V30 6 C 0.222 2.43627 2.35294 0
M  V30 7 C -0.732 3.65373 2.2001 0
M  V30 8 S 0.101 5.13292 1.52614 0
M  V30 9 C 1.257 5.56322 2.86805 0
M  V30 10 H 1.49 2.90518 0.631377 0
M  V30 11 H -0.977 1.52953 0.210867 0
M  V30 12 H 0.981 2.67203 3.11629 0
M  V30 13 H -0.358 1.57376 2.7183 0
M  V30 14 H -1.165 3.90944 3.18086 0
M  V30 15 H -1.563 3.418 1.51819 0
M  V30 16 H 0.729 5.58782 3.83104 0
M  V30 17 H 1.672 6.56266 2.65933 0
M  V30 18 H 2.08 4.83886 2.90714 0
M  V30 19 N 1.4781 -0.272755 1.55222 0
M  V30 20 C 2.7251 -1.00433 1.7584 0
M  V30 21 C 3.0531 -1.86275 0.559629 0
M  V30 22 O 2.3081 -1.90269 -0.457857 0
M  V30 23 C 2.6071 -1.91642 3.01675 0
M  V30 24 C 2.2731 -1.21548 4.34208 0
M  V30 25 C 0.9351 -1.02166 4.70229 0
M  V30 26 C 3.2871 -0.716684 5.16249 0
M  V30 27 C 0.6151 -0.316334 5.85847 0
M  V30 28 C 2.9671 -0.0249476 6.32595 0
M  V30 29 C 1.6311 0.180579 6.67256 0
M  V30 30 H 0.9011 -0.367509 0.643443 0
M  V30 31 H 3.5481 -0.276596 1.89492 0
M  V30 32 H 1.8531 -2.71037 2.82924 0
M  V30 33 H 3.5501 -2.48369 3.14824 0
M  V30 34 H 0.1401 -1.37645 4.05896 0
M  V30 35 H 4.3241 -0.854047 4.88896 0
M  V30 36 H -0.4199 -0.146378 6.11225 0
M  V30 37 H 3.7541 0.369311 6.9542 0
M  V30 38 H 1.3811 0.729098 7.56696 0
M  V30 39 N 2.9562 -1.48159 -0.537278 0
M  V30 40 C 4.3672 -1.49429 -1.11928 0
M  V30 41 C 4.7182 -0.26 -1.9447 0
M  V30 42 O 3.8432 0.633489 -2.0692 0
M  V30 43 C 4.4382 -2.70758 -2.03656 0
M  V30 44 C 2.9972 -2.74923 -2.57088 0
M  V30 45 C 2.1442 -2.42835 -1.3389 0
M  V30 46 H 5.0952 -1.55381 -0.322886 0
M  V30 47 H 5.1162 -2.48861 -2.87834 0
M  V30 48 H 4.6282 -3.60575 -1.43553 0
M  V30 49 H 2.7292 -1.89296 -3.20933 0
M  V30 50 H 2.8422 -3.76157 -2.9672 0
M  V30 51 H 1.2062 -1.93836 -1.65226 0
M  V30 52 H 1.9892 -3.34884 -0.755504 0
M  V30 53 N 4.4343 0.785586 -1.36625 0
M  V30 54 C 5.6823 1.54057 -1.30808 0
M  V30 55 C 6.0033 1.94683 0.111157 0
M  V30 56 O 5.2733 1.65241 1.05224 0
M  V30 57 H 3.8533 0.571354 -0.481211 0
M  V30 58 H 6.5153 0.935821 -1.70963 0
M  V30 59 H 5.6113 2.44637 -1.93801 0
M  V30 60 N 5.9124 1.20967 1.01018 0
M  V30 61 C 7.1524 1.03511 1.76252 0
M  V30 62 C 7.5164 -0.42458 1.87247 0
M  V30 63 O 8.7174 -0.719508 2.58991 0
M  V30 64 C 6.9884 1.70726 3.13986 0
M  V30 65 S 8.5474 1.68458 4.05176 0
M  V30 66 H 5.3654 0.371037 0.606508 0
M  V30 67 H 7.9674 1.53628 1.20908 0
M  V30 68 H 6.6714 2.76128 3.03614 0
M  V30 69 H 6.2024 1.20767 3.74405 0
M  V30 70 H 8.2174 0.721987 4.90919 0
M  V30 71 N 7.3905 -1.2043 1.01659 0
M  V30 72 C 8.8015 -1.71517 0.737482 0
M  V30 73 C 9.1525 -1.81547 -0.743973 0
M  V30 74 O 8.2775 -1.47803 -1.58061 0
M  V30 75 C 8.8725 -3.11515 1.33206 0
M  V30 76 C 7.4315 -3.59912 1.10183 0
M  V30 77 C 6.5785 -2.37116 1.43776 0
M  V30 78 H 9.5295 -1.05444 1.18606 0
M  V30 79 H 9.5505 -3.73575 0.722636 0
M  V30 80 H 9.0625 -3.04182 2.41028 0
M  V30 81 H 7.1635 -3.72577 0.0412756 0
M  V30 82 H 7.2765 -4.44731 1.78188 0
M  V30 83 H 5.6405 -2.39857 0.856778 0
M  V30 84 H 6.4235 -2.32424 2.52654 0
M  V30 85 N 8.8686 -0.792821 -1.36206 0
M  V30 86 C 10.2846 -0.474903 -1.52371 0
M  V30 87 C 10.4846 1.00622 -1.74578 0
M  V30 88 O 9.5406 1.79162 -1.77924 0
M  V30 89 C 10.8536 -1.3083 -2.70747 0
M  V30 90 C 12.4016 -1.30234 -2.84619 0
M  V30 91 C 12.8766 -2.11956 -4.06004 0
M  V30 92 N 14.3676 -2.09419 -4.13156 0
M  V30 93 C 15.1026 -2.69419 -5.06163 0
M  V30 94 N 14.5986 -3.3829 -6.04592 0
M  V30 95 N 16.3916 -2.59134 -4.98804 0
M  V30 96 H 8.5426 -1.75222 -1.20046 0
M  V30 97 H 10.8056 -0.745024 -0.586211 0
M  V30 98 H 10.5116 -2.35881 -2.6087 0
M  V30 99 H 10.3856 -0.95196 -3.6499 0
M  V30 100 H 12.7726 -0.259748 -2.93955 0
M  V30 101 H 12.8536 -1.69847 -1.91274 0
M  V30 102 H 12.4976 -3.16248 -3.97429 0
M  V30 103 H 12.4276 -1.69711 -4.98503 0
M  V30 104 H 14.9186 -1.59297 -3.42685 0
M  V30 105 H 15.2316 -3.81394 -6.7213 0
M  V30 106 H 13.5766 -3.42393 -6.04807 0
M  V30 107 H 16.7676 -2.04927 -4.20859 0
M  V30 108 H 16.9406 -3.06185 -5.711 0
M  V30 109 N 10.3467 1.47872 -0.545128 0
M  V30 110 C 11.2767 2.32661 0.197793 0
M  V30 111 C 12.2577 1.43041 0.920504 0
M  V30 112 O 13.4427 1.71912 0.90333 0
M  V30 113 C 10.5727 3.24569 1.23582 0
M  V30 114 C 9.5267 4.23333 0.630323 0
M  V30 115 C 8.8527 5.0448 1.77211 0
M  V30 116 C 10.1527 5.20704 -0.407974 0
M  V30 117 H 11.8467 2.95024 -0.510045 0
M  V30 118 H 9.3927 1.4187 -0.246731 0
M  V30 119 H 11.3457 3.8272 1.76362 0
M  V30 120 H 10.0697 2.60236 1.97344 0
M  V30 121 H 8.7287 3.6639 0.123922 0
M  V30 122 H 8.3767 4.36561 2.49847 0
M  V30 123 H 8.0767 5.71339 1.37281 0
M  V30 124 H 9.6007 5.65487 2.3034 0
M  V30 125 H 11.0147 5.7329 0.033305 0
M  V30 126 H 9.4117 5.95699 -0.725486 0
M  V30 127 H 10.4817 4.66917 -1.30828 0
M  V30 128 N 11.8248 0.280983 1.55075 0
M  V30 129 C 13.0708 -0.327573 2.00745 0
M  V30 130 C 13.4258 -1.53045 1.16598 0
M  V30 131 O 12.7188 -1.90221 0.229451 0
M  V30 132 C 12.9128 -0.754656 3.49342 0
M  V30 133 C 12.7418 0.40529 4.4787 0
M  V30 134 C 11.5118 0.890947 4.97383 0
M  V30 135 C 13.7098 1.24371 4.99035 0
M  V30 136 N 11.6918 2.01975 5.79724 0
M  V30 137 C 13.0628 2.22031 5.7888 0
M  V30 138 C 15.1178 1.27638 4.81262 0
M  V30 139 C 13.8208 3.22709 6.42846 0
M  V30 140 C 15.8468 2.27164 5.46031 0
M  V30 141 C 15.2088 3.23556 6.25692 0
M  V30 142 H 11.3078 -0.0848774 0.77738 0
M  V30 143 H 13.8918 0.406342 1.90413 0
M  V30 144 H 12.0628 -1.45778 3.60005 0
M  V30 145 H 13.7948 -1.34105 3.81835 0
M  V30 146 H 10.5498 0.469262 4.71269 0
M  V30 147 H 10.9738 2.58794 6.25584 0
M  V30 148 H 15.6158 0.544936 4.19274 0
M  V30 149 H 13.3338 3.96784 7.0398 0
M  V30 150 H 16.9198 2.30441 5.34217 0
M  V30 151 H 15.7998 3.99309 6.74924 0
M  V30 152 N 13.3029 -1.57598 0.00835791 0
M  V30 153 C 14.5489 -1.91211 -0.675732 0
M  V30 154 C 14.8819 -0.883139 -1.72958 0
M  V30 155 O 14.1569 0.097016 -1.94258 0
M  V30 156 C 14.4399 -3.35379 -1.31123 0
M  V30 157 C 14.2929 -4.48999 -0.268356 0
M  V30 158 C 15.6119 -3.7912 -2.23508 0
M  V30 159 H 12.7309 -0.695374 -0.244179 0
M  V30 160 H 15.3729 -1.89901 0.0613655 0
M  V30 161 H 13.5229 -3.36626 -1.93946 0
M  V30 162 H 15.1949 -4.59887 0.360844 0
M  V30 163 H 13.4379 -4.31873 0.408482 0
M  V30 164 H 14.1089 -5.46851 -0.752218 0
M  V30 165 H 16.5849 -3.79477 -1.70693 0
M  V30 166 H 15.4609 -4.80729 -2.64936 0
M  V30 167 H 15.7219 -3.13455 -3.11766 0
M  V30 168 N 14.781 0.264519 -1.55364 0
M  V30 169 C 15.711 1.33121 -1.91836 0
M  V30 170 C 16.692 1.51101 -0.781192 0
M  V30 171 O 17.877 1.64003 -1.04003 0
M  V30 172 C 15.007 2.68921 -2.19769 0
M  V30 173 C 13.961 2.65661 -3.35571 0
M  V30 174 C 13.287 4.05093 -3.49004 0
M  V30 175 C 14.587 2.24187 -4.71739 0
M  V30 176 H 16.281 1.02844 -2.81182 0
M  V30 177 H 13.827 0.493286 -1.35287 0
M  V30 178 H 15.78 3.43663 -2.43872 0
M  V30 179 H 14.504 3.00799 -1.27231 0
M  V30 180 H 13.163 1.93377 -3.1145 0
M  V30 181 H 12.811 4.34206 -2.53917 0
M  V30 182 H 12.511 4.03804 -4.26868 0
M  V30 183 H 14.035 4.81561 -3.75408 0
M  V30 184 H 15.449 2.88654 -4.9533 0
M  V30 185 H 13.846 2.34044 -5.52579 0
M  V30 186 H 14.916 1.19327 -4.69988 0
M  V30 187 N 16.2591 1.48442 0.529413 0
M  V30 188 C 17.5051 1.5672 1.28711 0
M  V30 189 C 17.8381 0.2406 1.92704 0
M  V30 190 O 17.1131 -0.753454 1.79313 0
M  V30 191 C 17.3961 2.70587 2.37603 0
M  V30 192 C 17.2491 4.12953 1.78297 0
M  V30 193 C 18.5681 2.80212 3.39366 0
M  V30 194 H 15.6871 0.570474 0.466613 0
M  V30 195 H 18.3291 1.80617 0.589706 0
M  V30 196 H 16.4791 2.50342 2.97088 0
M  V30 197 H 18.1511 4.44639 1.22858 0
M  V30 198 H 16.3941 4.19927 1.0883 0
M  V30 199 H 17.0651 4.88448 2.57144 0
M  V30 200 H 19.5411 2.98553 2.89836 0
M  V30 201 H 18.4171 3.61611 4.12951 0
M  V30 202 H 18.6781 1.88393 3.99951 0
M  V30 203 N 17.7372 -0.778329 1.37039 0
M  V30 204 C 18.9832 -1.53892 1.32079 0
M  V30 205 C 19.3162 -1.9396 -0.0965386 0
M  V30 206 O 18.5912 -1.63568 -1.05242 0
M  V30 207 C 18.8742 -2.80847 2.25382 0
M  V30 208 C 18.7272 -2.47076 3.75864 0
M  V30 209 C 20.0462 -3.82741 2.1725 0
M  V30 210 H 17.1652 -0.558303 0.48111 0
M  V30 211 H 19.8072 -0.893397 1.67685 0
M  V30 212 H 17.9572 -3.35931 1.95148 0
M  V30 213 H 19.6292 -1.97957 4.16666 0
M  V30 214 H 17.8722 -1.79863 3.94755 0
M  V30 215 H 18.5432 -3.37798 4.36574 0
M  V30 216 H 21.0192 -3.37133 2.43887 0
M  V30 217 H 19.8952 -4.69303 2.84686 0
M  V30 218 H 20.1562 -4.2652 1.16331 0
M  V30 219 N 19.2153 -1.21501 -1.00376 0
M  V30 220 C 20.1453 -0.999478 -2.11028 0
M  V30 221 C 21.1263 0.0759671 -1.6993 0
M  V30 222 O 22.3113 -0.0841106 -1.94018 0
M  V30 223 C 19.4413 -0.564709 -3.42678 0
M  V30 224 C 18.3953 -1.58486 -3.97576 0
M  V30 225 C 17.7213 -1.00628 -5.25146 0
M  V30 226 C 19.0213 -2.97204 -4.29496 0
M  V30 227 H 20.7153 -1.92495 -2.29317 0
M  V30 228 H 18.2613 -0.92693 -1.102 0
M  V30 229 H 20.2143 -0.401091 -4.19487 0
M  V30 230 H 18.9383 0.396411 -3.24185 0
M  V30 231 H 17.5973 -1.73606 -3.22888 0
M  V30 232 H 17.2453 -0.0368439 -5.02987 0
M  V30 233 H 16.9453 -1.68771 -5.62841 0
M  V30 234 H 18.4693 -0.854015 -6.04598 0
M  V30 235 H 19.8833 -2.8552 -4.97143 0
M  V30 236 H 18.2803 -3.62372 -4.78338 0
M  V30 237 H 19.3503 -3.47956 -3.3772 0
M  V30 238 N 20.6934 1.19889 -1.02296 0
M  V30 239 C 21.9414 1.89046 -0.714558 0
M  V30 240 C 22.2624 1.79636 0.758681 0
M  V30 241 O 21.5324 1.20292 1.54618 0
M  V30 242 H 20.1124 0.699802 -0.261317 0
M  V30 243 H 22.7744 1.45574 -1.29592 0
M  V30 244 H 21.8704 2.95524 -1.0036 0
M  V30 245 N 22.1715 0.800033 1.35784 0
M  V30 246 C 23.3995 0.389606 2.03199 0
M  V30 247 C 23.8145 -0.997375 1.60306 0
M  V30 248 O 23.1715 -1.64154 0.797481 0
M  V30 249 C 23.2225 0.455855 3.58614 0
M  V30 250 O 22.9435 1.78815 3.99946 0
M  V30 251 C 24.4445 0.0374032 4.43284 0
M  V30 252 H 21.6645 0.159132 0.651857 0
M  V30 253 H 24.2085 1.08183 1.73541 0
M  V30 254 H 22.3635 -0.188057 3.86943 0
M  V30 255 H 22.7775 1.74636 4.94573 0
M  V30 256 H 24.2515 0.134882 5.51835 0
M  V30 257 H 24.7285 -1.01651 4.27275 0
M  V30 258 H 25.3345 0.654215 4.20238 0
M  V30 259 N 23.6496 -1.47581 0.552962 0
M  V30 260 C 24.8746 -2.07378 0.0300593 0
M  V30 261 C 25.2996 -1.40355 -1.25229 0
M  V30 262 O 24.6576 -0.477099 -1.7491 0
M  V30 263 C 24.7056 -3.60274 -0.153231 0
M  V30 264 O 23.8096 -3.94041 -1.21678 0
M  V30 265 H 23.1506 -0.662158 0.0494182 0
M  V30 266 H 25.6806 -1.89662 0.767434 0
M  V30 267 H 25.6906 -4.0633 -0.368761 0
M  V30 268 H 24.3656 -4.08455 0.783397 0
M  V30 269 H 22.9426 -3.59735 -0.982079 0
M  V30 270 N 25.1277 -0.289203 -1.54924 0
M  V30 271 C 26.3737 0.316922 -2.00916 0
M  V30 272 C 26.7287 1.52424 -1.17408 0
M  V30 273 O 26.0217 1.90097 -0.239536 0
M  V30 274 C 26.2157 0.736119 -3.49737 0
M  V30 275 C 26.0447 -0.429036 -4.47649 0
M  V30 276 C 24.8147 -0.917311 -4.96904 0
M  V30 277 C 27.0127 -1.27016 -4.98369 0
M  V30 278 N 24.9947 -2.05046 -5.78644 0
M  V30 279 C 26.3657 -2.25097 -5.77695 0
M  V30 280 C 28.4207 -1.30188 -4.80578 0
M  V30 281 C 27.1237 -3.26114 -6.41126 0
M  V30 282 C 29.1497 -2.30057 -5.44819 0
M  V30 283 C 28.5117 -3.2687 -6.23968 0
M  V30 284 H 24.6107 0.0807535 -0.777819 0
M  V30 285 H 27.1947 -0.416434 -1.90194 0
M  V30 286 H 25.3657 1.43867 -3.60773 0
M  V30 287 H 27.0977 1.32078 -3.82541 0
M  V30 288 H 23.8527 -0.494248 -4.71014 0
M  V30 289 H 24.2767 -2.62108 -6.24202 0
M  V30 290 H 28.9187 -0.567163 -4.18979 0
M  V30 291 H 26.6367 -4.00512 -7.01866 0
M  V30 292 H 30.2227 -2.33271 -5.32988 0
M  V30 293 H 29.1027 -4.02883 -6.72796 0
M  V30 294 N 26.6058 1.57591 -0.0167156 0
M  V30 295 C 27.8518 1.91567 0.665582 0
M  V30 296 C 28.1848 0.892298 1.72487 0
M  V30 297 O 27.4598 -0.0867127 1.94307 0
M  V30 298 C 27.7428 3.36069 1.29342 0
M  V30 299 C 27.5958 4.49135 0.244541 0
M  V30 300 C 28.9148 3.803 2.21495 0
M  V30 301 H 26.0338 0.69666 0.240488 0
M  V30 302 H 28.6758 1.89866 -0.0714356 0
M  V30 303 H 26.8258 3.3765 1.92158 0
M  V30 304 H 28.4978 4.59689 -0.385228 0
M  V30 305 H 26.7408 4.3165 -0.431379 0
M  V30 306 H 27.4118 5.47242 0.723207 0
M  V30 307 H 29.8878 3.80377 1.68678 0
M  V30 308 H 28.7638 4.82127 2.62382 0
M  V30 309 H 29.0248 3.15104 3.101 0
M  V30 310 N 28.0839 -0.256276 1.55502 0
M  V30 311 C 29.3319 -0.983672 1.76545 0
M  V30 312 C 29.6529 -1.86206 0.578982 0
M  V30 313 O 28.9229 -1.91656 -0.405577 0
M  V30 314 H 27.5029 -0.366191 0.651086 0
M  V30 315 H 30.1649 -0.276479 1.92929 0
M  V30 316 H 29.2609 -1.61087 2.67315 0
M  V30 317 N 29.562 -1.4872 -0.521534 0
M  V30 318 C 30.808 -1.58378 -1.27624 0
M  V30 319 C 31.163 -0.258028 -1.90662 0
M  V30 320 O 30.456 0.739917 -1.76736 0
M  V30 321 C 30.65 -2.66497 -2.38148 0
M  V30 322 C 30.479 -4.09456 -1.85945 0
M  V30 323 C 29.249 -4.76495 -1.68168 0
M  V30 324 C 31.447 -4.95353 -1.3831 0
M  V30 325 N 29.429 -6.0384 -1.1068 0
M  V30 326 C 30.8 -6.13012 -0.928238 0
M  V30 327 C 32.855 -4.81512 -1.26692 0
M  V30 328 C 31.558 -7.18354 -0.368701 0
M  V30 329 C 33.584 -5.86984 -0.721368 0
M  V30 330 C 32.946 -7.03857 -0.276623 0
M  V30 331 H 29.045 -0.634045 -0.457724 0
M  V30 332 H 31.629 -1.85639 -0.587049 0
M  V30 333 H 29.8 -2.41043 -3.04553 0
M  V30 334 H 31.532 -2.65791 -3.05184 0
M  V30 335 H 28.287 -4.32962 -1.91939 0
M  V30 336 H 28.711 -6.71778 -0.839217 0
M  V30 337 H 33.353 -3.91487 -1.5968 0
M  V30 338 H 31.071 -8.08096 -0.0265122 0
M  V30 339 H 34.657 -5.78329 -0.634531 0
M  V30 340 H 33.537 -7.84077 0.138947 0
M  V30 341 N 31.0401 0.771051 -1.3745 0
M  V30 342 C 32.2881 1.52661 -1.32435 0
M  V30 343 C 32.6091 1.9479 0.0905024 0
M  V30 344 O 31.8791 1.66348 1.03466 0
M  V30 345 H 30.4591 0.566218 -0.487244 0
M  V30 346 H 33.1211 0.917636 -1.71946 0
M  V30 347 H 32.2171 2.42568 -1.96385 0
M  V30 348 N 32.5182 1.22032 0.997298 0
M  V30 349 C 33.7432 1.06921 1.77715 0
M  V30 350 C 34.1682 -0.376226 1.84299 0
M  V30 351 O 33.5262 -1.27165 1.29223 0
M  V30 352 C 33.5742 1.67996 3.19076 0
M  V30 353 O 32.6782 0.930653 4.01762 0
M  V30 354 H 32.0192 0.375814 0.547412 0
M  V30 355 H 34.5492 1.61737 1.25309 0
M  V30 356 H 34.5592 1.72538 3.69723 0
M  V30 357 H 33.2342 2.73182 3.13599 0
M  V30 358 H 31.8112 0.960917 3.60307 0
M  V30 359 N 33.9963 -1.19345 1.0293 0
M  V30 360 C 34.9283 -2.22036 0.56857 0
M  V30 361 C 35.9413 -1.58865 -0.355779 0
M  V30 362 O 37.1303 -1.77851 -0.152103 0
M  V30 363 C 34.2303 -3.38363 -0.190752 0
M  V30 364 C 33.4033 -4.31118 0.738643 0
M  V30 365 C 32.4623 -5.26194 0.0246497 0
M  V30 366 O 31.4883 -5.65461 0.651354 0
M  V30 367 N 32.6903 -5.66971 -1.24594 0
M  V30 368 H 35.4553 -2.6219 1.45177 0
M  V30 369 H 33.0163 -1.34015 0.908381 0
M  V30 370 H 35.0083 -3.98981 -0.677961 0
M  V30 371 H 33.5783 -2.96994 -0.975366 0
M  V30 372 H 32.7983 -3.68276 1.40593 0
M  V30 373 H 34.0863 -4.90001 1.37029 0
M  V30 374 H 33.4843 -5.37104 -1.77583 0
M  V30 375 H 32.0413 -6.2984 -1.67764 0
M  V30 376 N 35.4744 -0.807222 -1.35358 0
M  V30 377 C 36.7224 -0.387122 -1.98358 0
M  V30 378 C 37.0434 1.04942 -1.64354 0
M  V30 379 O 36.3134 1.72615 -0.926339 0
M  V30 380 H 34.8934 -0.140154 -0.733734 0
M  V30 381 H 37.5554 -1.0332 -1.6526 0
M  V30 382 H 36.6514 -0.493352 -3.08176 0
M  V30 383 N 36.9525 1.47285 -0.560781 0
M  V30 384 C 38.1805 2.06855 -0.0430262 0
M  V30 385 C 38.5955 1.41291 1.25229 0
M  V30 386 O 37.9525 0.510648 1.7521 0
M  V30 387 C 38.0035 3.61178 0.152518 0
M  V30 388 O 37.7245 4.24285 -1.0915 0
M  V30 389 C 39.2255 4.37624 0.707145 0
M  V30 390 H 36.4455 0.669319 -0.0474652 0
M  V30 391 H 38.9895 1.89237 -0.77521 0
M  V30 392 H 37.1445 3.78298 0.834843 0
M  V30 393 H 37.5585 5.16868 -0.891482 0
M  V30 394 H 39.0325 5.46271 0.793244 0
M  V30 395 H 39.5095 4.04152 1.71923 0
M  V30 396 H 40.1155 4.25257 0.0604027 0
M  V30 397 N 38.4306 0.297415 1.54768 0
M  V30 398 C 39.3406 -0.58983 2.27064 0
M  V30 399 C 40.3566 -1.15144 1.30453 0
M  V30 400 O 41.5326 -1.17699 1.63428 0
M  V30 401 C 38.5976 -1.74714 2.9946 0
M  V30 402 C 37.6586 -1.21997 4.11601 0
M  V30 403 C 36.8916 -2.32212 4.80535 0
M  V30 404 O 37.1146 -3.52036 4.48806 0
M  V30 405 O 36.0486 -1.99106 5.68014 0
M  V30 406 H 39.8746 -0.00348199 3.037 0
M  V30 407 H 37.4596 0.0640035 1.49263 0
M  V30 408 H 39.3416 -2.42147 3.44881 0
M  V30 409 H 38.0166 -2.32016 2.25722 0
M  V30 410 H 36.9236 -0.511458 3.70587 0
M  V30 411 H 38.2566 -0.692419 4.87305 0
M  V30 412 N 39.9087 -1.5758 0.0250728 0
M  V30 413 C 40.8717 -2.08896 -0.943139 0
M  V30 414 C 41.8717 -1.00321 -1.25668 0
M  V30 415 O 43.0617 -1.26495 -1.19769 0
M  V30 416 C 40.1937 -2.55143 -2.26086 0
M  V30 417 H 41.3867 -2.95723 -0.498775 0
M  V30 418 H 38.9397 -1.54703 -0.222888 0
M  V30 419 H 39.6747 -1.71633 -2.75159 0
M  V30 420 H 39.4597 -3.34461 -2.04641 0
M  V30 421 H 40.9497 -2.95083 -2.95492 0
M  V30 422 N 41.3868 0.248026 -1.55636 0
M  V30 423 C 42.3498 1.29044 -1.89421 0
M  V30 424 C 43.3498 1.41134 -0.770581 0
M  V30 425 O 44.5398 1.39854 -1.03858 0
M  V30 426 C 41.6718 2.66831 -2.12165 0
M  V30 427 H 42.8648 1.00305 -2.82629 0
M  V30 428 H 40.4178 0.487265 -1.48511 0
M  V30 429 H 41.1528 3.00711 -1.21422 0
M  V30 430 H 40.9378 2.59438 -2.93997 0
M  V30 431 H 42.4278 3.42103 -2.3949 0
M  V30 432 N 42.8649 1.48995 0.513639 0
M  V30 433 C 43.7969 1.60836 1.63293 0
M  V30 434 C 44.8099 0.491701 1.55197 0
M  V30 435 O 45.9989 0.763238 1.6136 0
M  V30 436 C 43.0989 1.53731 3.02027 0
M  V30 437 C 42.2719 2.80715 3.35437 0
M  V30 438 C 41.3309 2.66837 4.53525 0
M  V30 439 O 40.3569 3.40753 4.55934 0
M  V30 440 N 41.5589 1.77539 5.52684 0
M  V30 441 H 44.3239 2.57366 1.53566 0
M  V30 442 H 41.8849 1.45925 0.701259 0
M  V30 443 H 43.8769 1.42118 3.78926 0
M  V30 444 H 42.4469 0.651092 3.05744 0
M  V30 445 H 41.6669 3.06772 2.47557 0
M  V30 446 H 42.9549 3.64927 3.54551 0
M  V30 447 H 42.3529 1.16719 5.53528 0
M  V30 448 H 40.9099 1.71856 6.28736 0
M  V30 449 N 44.343 -0.763751 1.37857 0
M  V30 450 C 45.273 -1.89103 1.36975 0
M  V30 451 C 46.254 -1.68439 0.237152 0
M  V30 452 O 47.439 -1.8918 0.438713 0
M  V30 453 C 44.569 -3.26496 1.18395 0
M  V30 454 C 43.523 -3.61741 2.28751 0
M  V30 455 C 42.849 -4.97762 1.95286 0
M  V30 456 C 44.149 -3.67665 3.70972 0
M  V30 457 H 45.843 -1.90099 2.31307 0
M  V30 458 H 43.389 -0.91319 1.11341 0
M  V30 459 H 45.342 -4.05003 1.16406 0
M  V30 460 H 44.066 -3.25955 0.205215 0
M  V30 461 H 42.725 -2.85547 2.29909 0
M  V30 462 H 42.373 -4.93769 0.959221 0
M  V30 463 H 42.073 -5.22313 2.69189 0
M  V30 464 H 43.597 -5.7866 1.94898 0
M  V30 465 H 45.011 -4.36307 3.719 0
M  V30 466 H 43.408 -4.03718 4.43995 0
M  V30 467 H 44.478 -2.68134 4.0402 0
M  V30 468 N 45.8211 -1.22559 -0.990812 0
M  V30 469 C 47.2371 -0.985996 -1.255 0
M  V30 470 C 47.4371 0.319173 -1.98956 0
M  V30 471 O 46.4931 1.04127 -2.3003 0
M  V30 472 C 47.8061 -2.18607 -2.06474 0
M  V30 473 C 49.3541 -2.22985 -2.19651 0
M  V30 474 C 49.8291 -3.4255 -3.04012 0
M  V30 475 N 51.3201 -3.42725 -3.11599 0
M  V30 476 C 52.0551 -4.31892 -3.7717 0
M  V30 477 N 51.5511 -5.31279 -4.44651 0
M  V30 478 N 53.3441 -4.19662 -3.73952 0
M  V30 479 H 45.4951 -2.06469 -0.49841 0
M  V30 480 H 47.7581 -0.904853 -0.282747 0
M  V30 481 H 47.4641 -3.13267 -1.59865 0
M  V30 482 H 47.3381 -2.18838 -3.07229 0
M  V30 483 H 49.7251 -1.28871 -2.65474 0
M  V30 484 H 49.8061 -2.26791 -1.18319 0
M  V30 485 H 49.4501 -4.36965 -2.58889 0
M  V30 486 H 49.3801 -3.35984 -4.0549 0
M  V30 487 H 51.8711 -2.70807 -2.63575 0
M  V30 488 H 52.1841 -5.95593 -4.92431 0
M  V30 489 H 50.5291 -5.3519 -4.43392 0
M  V30 490 H 53.7201 -3.41268 -3.20396 0
M  V30 491 H 53.8931 -4.89358 -4.24774 0
M  V30 492 N 47.2992 1.18797 -1.03562 0
M  V30 493 C 48.2312 2.21731 -0.580337 0
M  V30 494 C 49.2442 1.59051 0.347349 0
M  V30 495 O 50.4332 1.77929 0.142669 0
M  V30 496 C 47.5332 3.38459 0.172805 0
M  V30 497 C 46.7062 4.3072 -0.761496 0
M  V30 498 C 45.7652 5.26174 -0.0525547 0
M  V30 499 O 44.7912 5.65108 -0.681333 0
M  V30 500 N 45.9932 5.67624 1.21586 0
M  V30 501 H 48.7582 2.61417 -1.46565 0
M  V30 502 H 46.3192 1.33531 -0.915476 0
M  V30 503 H 48.3112 3.99335 0.656793 0
M  V30 504 H 46.8812 2.97507 0.959602 0
M  V30 505 H 46.1012 3.67525 -1.42544 0
M  V30 506 H 47.3892 4.89267 -1.39626 0
M  V30 507 H 46.7872 5.38038 1.74732 0
M  V30 508 H 45.3442 6.30721 1.64421 0
M  V30 509 N 48.7773 0.814389 1.34928 0
M  V30 510 C 50.0243 0.398423 1.98542 0
M  V30 511 C 50.3523 -1.03638 1.64589 0
M  V30 512 O 49.6073 -1.73509 0.90516 0
M  V30 513 C 49.9063 0.537781 3.53331 0
M  V30 514 C 49.5723 1.93704 4.07172 0
M  V30 515 C 48.2343 2.31984 4.21589 0
M  V30 516 C 50.5863 2.85213 4.36237 0
M  V30 517 C 47.9143 3.61125 4.62391 0
M  V30 518 C 50.2663 4.13809 4.78482 0
M  V30 519 C 48.9303 4.52077 4.91104 0
M  V30 520 H 48.2003 0.145793 0.726516 0
M  V30 521 H 50.8473 1.03669 1.61012 0
M  V30 522 H 49.1523 -0.183906 3.91368 0
M  V30 523 H 50.8493 0.196588 4.00518 0
M  V30 524 H 47.4393 1.62966 3.96409 0
M  V30 525 H 51.6233 2.56885 4.24645 0
M  V30 526 H 46.8793 3.90612 4.70353 0
M  V30 527 H 51.0533 4.84811 4.99932 0
M  V30 528 H 48.6803 5.52196 5.22478 0
M  V30 529 N 50.2554 -1.46986 0.568584 0
M  V30 530 C 51.4854 -2.0653 0.0539173 0
M  V30 531 C 51.8934 -1.42004 -1.25026 0
M  V30 532 O 51.2364 -0.514541 -1.76347 0
M  V30 533 C 51.2984 -3.58938 -0.200854 0
M  V30 534 C 50.9624 -4.45572 1.01559 0
M  V30 535 C 51.9594 -4.82986 1.92407 0
M  V30 536 C 49.6444 -4.8692 1.23346 0
M  V30 537 C 51.6384 -5.60559 3.03402 0
M  V30 538 C 49.3254 -5.64255 2.34649 0
M  V30 539 C 50.3234 -6.00986 3.24507 0
M  V30 540 O 50.0114 -6.76761 4.33878 0
M  V30 541 H 49.7434 -0.674292 0.0480234 0
M  V30 542 H 52.2974 -1.89812 0.784896 0
M  V30 543 H 50.5274 -3.73911 -0.986279 0
M  V30 544 H 52.2164 -4.0046 -0.662294 0
M  V30 545 H 52.9824 -4.51633 1.76785 0
M  V30 546 H 48.8614 -4.57789 0.543178 0
M  V30 547 H 52.4054 -5.89147 3.73565 0
M  V30 548 H 48.3024 -5.95021 2.5024 0
M  V30 549 H 49.0704 -6.95168 4.32068 0
M  V30 550 N 51.7335 -0.305618 -1.54608 0
M  V30 551 C 52.9795 0.302746 -2.00528 0
M  V30 552 C 53.3125 1.53184 -1.19367 0
M  V30 553 O 52.5875 1.92598 -0.271321 0
M  V30 554 C 52.8705 0.654756 -3.54097 0
M  V30 555 C 52.7235 -0.583793 -4.45995 0
M  V30 556 C 54.0425 1.47947 -4.14487 0
M  V30 557 H 51.1615 0.108564 -0.72896 0
M  V30 558 H 53.8035 -0.418634 -1.85331 0
M  V30 559 H 51.9535 1.26935 -3.67178 0
M  V30 560 H 53.6255 -1.22224 -4.44814 0
M  V30 561 H 51.8685 -1.21615 -4.16404 0
M  V30 562 H 52.5395 -0.293287 -5.5122 0
M  V30 563 H 55.0155 0.96013 -4.04871 0
M  V30 564 H 53.8915 1.69454 -5.22088 0
M  V30 565 H 54.1525 2.47011 -3.66658 0
M  V30 566 N 53.2116 1.57565 -0.0334293 0
M  V30 567 C 54.1746 2.09393 0.932048 0
M  V30 568 C 55.1746 1.00986 1.25134 0
M  V30 569 O 56.3646 1.27129 1.19096 0
M  V30 570 C 53.4966 2.56338 2.2473 0
M  V30 571 H 54.6896 2.95984 0.483085 0
M  V30 572 H 52.2426 1.54819 0.21468 0
M  V30 573 H 52.9776 1.7309 2.74245 0
M  V30 574 H 52.7626 3.35542 2.02865 0
M  V30 575 H 54.2526 2.96646 2.93923 0
M  V30 576 N 54.6897 -0.239769 1.55765 0
M  V30 577 C 55.6527 -1.28038 1.90103 0
M  V30 578 C 56.6527 -1.40723 0.778055 0
M  V30 579 O 57.8427 -1.39301 1.04599 0
M  V30 580 C 54.9747 -2.65702 2.13577 0
M  V30 581 H 56.1677 -0.988048 2.83157 0
M  V30 582 H 53.7207 -0.479382 1.48767 0
M  V30 583 H 54.4557 -3.00063 1.23015 0
M  V30 584 H 54.2407 -2.57875 2.95369 0
M  V30 585 H 55.7307 -3.40828 2.41301 0
M  V30 586 N 56.1678 -1.49265 -0.50573 0
M  V30 587 C 57.0998 -1.617 -1.62437 0
M  V30 588 C 58.1128 -0.499924 -1.54934 0
M  V30 589 O 59.3018 -0.771785 -1.60953 0
M  V30 590 C 56.4018 -1.5533 -3.01207 0
M  V30 591 C 55.5748 -2.8249 -3.33943 0
M  V30 592 C 54.6338 -2.69238 -4.52103 0
M  V30 593 O 53.6598 -3.43167 -4.5412 0
M  V30 594 N 54.8618 -1.80468 -5.51735 0
M  V30 595 H 57.6268 -2.58177 -1.52199 0
M  V30 596 H 55.1878 -1.46294 -0.693511 0
M  V30 597 H 57.1798 -1.44125 -3.78167 0
M  V30 598 H 55.7498 -0.667297 -3.05395 0
M  V30 599 H 54.9698 -3.08081 -2.45926 0
M  V30 600 H 56.2578 -3.66802 -3.5261 0
M  V30 601 H 55.6558 -1.19653 -5.52901 0
M  V30 602 H 54.2128 -1.75188 -6.27816 0
M  V30 603 N 57.6459 0.756429 -1.3826 0
M  V30 604 C 58.8939 1.51248 -1.34047 0
M  V30 605 C 59.2149 1.94875 0.0698372 0
M  V30 606 O 58.4849 1.67436 1.01696 0
M  V30 607 H 57.0649 0.561018 -0.493222 0
M  V30 608 H 59.7269 0.899347 -1.7291 0
M  V30 609 H 58.8229 2.40472 -1.98947 0
M  V30 610 N 59.124 1.23083 0.984299 0
M  V30 611 C 60.373 1.05466 1.71929 0
M  V30 612 C 60.686 -0.409211 1.91272 0
M  V30 613 O 61.892 -0.705226 2.62181 0
M  V30 614 C 60.348 1.83874 3.09384 0
M  V30 615 C 59.956 3.34566 2.97943 0
M  V30 616 C 61.7 1.74734 3.8687 0
M  V30 617 C 59.607 4.05381 4.30605 0
M  V30 618 H 58.537 0.391039 0.644674 0
M  V30 619 H 61.188 1.47013 1.09815 0
M  V30 620 H 59.57 1.35131 3.72231 0
M  V30 621 H 60.744 3.90767 2.44209 0
M  V30 622 H 59.059 3.44476 2.33934 0
M  V30 623 H 61.656 2.24957 4.85076 0
M  V30 624 H 61.999 0.709372 4.10212 0
M  V30 625 H 62.532 2.21067 3.30717 0
M  V30 626 H 59.271 5.09467 4.1246 0
M  V30 627 H 58.791 3.53967 4.84218 0
M  V30 628 H 60.47 4.11458 4.99311 0
M  V30 629 N 60.6021 -1.18246 1.0419 0
M  V30 630 C 61.8271 -1.92736 0.765996 0
M  V30 631 C 62.2521 -1.75728 -0.67091 0
M  V30 632 O 61.6101 -1.06825 -1.46486 0
M  V30 633 C 61.6581 -3.42148 1.13875 0
M  V30 634 O 60.7621 -4.11548 0.264954 0
M  V30 635 H 60.1031 -0.601238 0.281797 0
M  V30 636 H 62.6331 -1.49942 1.39207 0
M  V30 637 H 62.6431 -3.92858 1.1012 0
M  V30 638 H 61.3181 -3.53848 2.18551 0
M  V30 639 H 59.8951 -3.71137 0.362226 0
M  V30 640 N 62.0802 -0.821533 -1.34494 0
M  V30 641 C 63.3262 -0.418729 -1.99043 0
M  V30 642 C 63.6812 1.00672 -1.6396 0
M  V30 643 O 62.9742 1.69132 -0.900271 0
M  V30 644 C 63.1682 -0.556512 -3.53041 0
M  V30 645 C 62.9972 -1.9938 -4.03085 0
M  V30 646 C 61.7672 -2.62539 -4.31742 0
M  V30 647 C 63.9652 -2.96035 -4.20556 0
M  V30 648 N 61.9472 -3.97523 -4.67813 0
M  V30 649 C 63.3182 -4.15924 -4.59791 0
M  V30 650 C 65.3732 -2.9267 -4.02801 0
M  V30 651 C 64.0762 -5.32899 -4.83126 0
M  V30 652 C 66.1022 -4.08861 -4.27302 0
M  V30 653 C 65.4642 -5.275 -4.66822 0
M  V30 654 H 61.5632 -0.201299 -0.755647 0
M  V30 655 H 64.1472 -1.06594 -1.62929 0
M  V30 656 H 62.3182 0.0607924 -3.88352 0
M  V30 657 H 64.0502 -0.126842 -4.04501 0
M  V30 658 H 60.8052 -2.13789 -4.22601 0
M  V30 659 H 61.2292 -4.67061 -4.90085 0
M  V30 660 H 65.8712 -2.02088 -3.71376 0
M  V30 661 H 63.5892 -6.24041 -5.13418 0
M  V30 662 H 67.1752 -4.07654 -4.15101 0
M  V30 663 H 66.0552 -6.15913 -4.85408 0
M  V30 664 N 63.5583 1.46682 -0.576371 0
M  V30 665 C 64.7833 2.07304 -0.0630475 0
M  V30 666 C 65.2083 1.42329 1.2298 0
M  V30 667 O 64.5663 0.504865 1.74129 0
M  V30 668 C 64.6143 3.60472 0.095895 0
M  V30 669 O 63.7183 3.95927 1.15394 0
M  V30 670 H 63.0593 0.661288 -0.0599463 0
M  V30 671 H 65.5893 1.88417 -0.797511 0
M  V30 672 H 65.5993 4.06865 0.304071 0
M  V30 673 H 64.2743 4.07157 -0.84828 0
M  V30 674 H 62.8513 3.61252 0.924724 0
M  V30 675 N 65.0364 0.313813 1.54444 0
M  V30 676 C 66.2664 -0.293491 2.04505 0
M  V30 677 C 66.6744 -1.47086 1.19005 0
M  V30 678 O 66.0174 -1.82481 0.211257 0
M  V30 679 C 66.0794 -0.800455 3.50475 0
M  V30 680 C 65.7434 0.253322 4.56297 0
M  V30 681 C 66.7404 1.08612 5.08428 0
M  V30 682 C 64.4254 0.398708 5.00715 0
M  V30 683 C 66.4194 2.05013 6.0353 0
M  V30 684 C 64.1064 1.36614 5.95634 0
M  V30 685 C 65.1044 2.19033 6.46926 0
M  V30 686 O 64.7924 3.14134 7.39983 0
M  V30 687 H 64.5244 -0.0658325 0.672787 0
M  V30 688 H 67.0784 0.455177 2.00293 0
M  V30 689 H 65.3084 -1.59987 3.52053 0
M  V30 690 H 66.9974 -1.32504 3.83663 0
M  V30 691 H 67.7634 0.984736 4.74898 0
M  V30 692 H 63.6424 -0.23289 4.60411 0
M  V30 693 H 67.1864 2.69382 6.4349 0
M  V30 694 H 63.0834 1.4682 6.28581 0
M  V30 695 H 63.8514 3.0926 7.57826 0
M  V30 696 N 66.5145 -1.57545 0.0417849 0
M  V30 697 C 67.9305 -1.56467 -0.314704 0
M  V30 698 C 68.1305 -1.04859 -1.72066 0
M  V30 699 O 67.1865 -0.700983 -2.42575 0
M  V30 700 C 68.4995 -3.00317 -0.15174 0
M  V30 701 C 70.0475 -3.12201 -0.223553 0
M  V30 702 C 70.5225 -4.57913 -0.0892295 0
M  V30 703 N 72.0135 -4.6297 -0.145808 0
M  V30 704 C 72.7485 -5.73362 -0.0658459 0
M  V30 705 N 72.2445 -6.92769 0.0659282 0
M  V30 706 N 74.0375 -5.6197 -0.12075 0
M  V30 707 H 66.1885 -1.89416 0.961014 0
M  V30 708 H 68.4515 -0.871862 0.372237 0
M  V30 709 H 68.1575 -3.42073 0.817254 0
M  V30 710 H 68.0315 -3.65892 -0.916692 0
M  V30 711 H 70.4185 -2.70349 -1.18301 0
M  V30 712 H 70.4995 -2.49323 0.571994 0
M  V30 713 H 70.1435 -5.00448 0.866867 0
M  V30 714 H 70.0735 -5.18786 -0.903802 0
M  V30 715 H 72.5645 -3.7709 -0.247286 0
M  V30 716 H 72.8775 -7.72707 0.119905 0
M  V30 717 H 71.2225 -6.94927 0.100885 0
M  V30 718 H 74.4135 -4.67572 -0.222187 0
M  V30 719 H 74.5865 -6.47977 -0.0549735 0
M  V30 720 N 67.9926 0.231505 -1.5589 0
M  V30 721 C 69.4036 0.799327 -1.68724 0
M  V30 722 C 69.7546 1.85398 -0.642022 0
M  V30 723 O 68.8796 2.1539 0.208784 0
M  V30 724 C 69.4746 1.45664 -3.05888 0
M  V30 725 C 68.0336 1.97197 -3.20609 0
M  V30 726 C 67.1806 0.828552 -2.64632 0
M  V30 727 H 70.1316 0.00702616 -1.58698 0
M  V30 728 H 70.1526 2.32517 -3.01191 0
M  V30 729 H 69.6646 0.688808 -3.81939 0
M  V30 730 H 67.7656 2.76813 -2.4941 0
M  V30 731 H 67.8786 2.15878 -4.27707 0
M  V30 732 H 66.2426 1.23321 -2.22854 0
M  V30 733 H 67.0256 0.0735544 -3.43221 0
M  V30 734 N 69.4707 1.49531 0.497807 0
M  V30 735 C 70.3807 1.69176 1.62532 0
M  V30 736 C 71.3967 0.5744 1.64246 0
M  V30 737 O 72.5727 0.849497 1.82608 0
M  V30 738 C 69.6377 1.75695 2.98885 0
M  V30 739 C 68.6987 2.9929 3.07773 0
M  V30 740 C 67.9317 3.05488 4.37622 0
M  V30 741 O 68.1547 2.19192 5.26603 0
M  V30 742 O 67.0887 3.9798 4.51548 0
M  V30 743 H 70.9147 2.647 1.48887 0
M  V30 744 H 68.4997 1.3331 0.674441 0
M  V30 745 H 70.3817 1.82317 3.79919 0
M  V30 746 H 69.0567 0.8335 3.12785 0
M  V30 747 H 67.9637 2.98183 2.25915 0
M  V30 748 H 69.2967 3.91125 2.98801 0
M  V30 749 N 70.9488 -0.749086 1.3866 0
M  V30 750 C 72.3598 -1.32664 1.31366 0
M  V30 751 C 72.7108 -1.96179 -0.028484 0
M  V30 752 O 71.8358 -1.9537 -0.93057 0
M  V30 753 C 72.4308 -2.41219 2.37905 0
M  V30 754 C 70.9898 -2.94684 2.34176 0
M  V30 755 C 70.1368 -1.68108 2.20533 0
M  V30 756 H 73.0878 -0.547628 1.48952 0
M  V30 757 H 73.1088 -3.21268 2.0388 0
M  V30 758 H 72.6208 -1.94962 3.35576 0
M  V30 759 H 70.7218 -3.45258 1.401 0
M  V30 760 H 70.8348 -3.48757 3.2849 0
M  V30 761 H 69.1988 -1.91907 1.67463 0
M  V30 762 H 69.9818 -1.23923 3.20153 0
M  V30 763 N 72.4269 -1.23603 -0.977757 0
M  V30 764 C 73.6549 -1.09646 -1.75458 0
M  V30 765 C 74.0699 0.351859 -1.85492 0
M  V30 766 O 73.4269 1.24327 -1.336 0
M  V30 767 C 73.4779 -1.71895 -3.18016 0
M  V30 768 O 73.1989 -3.11063 -3.08498 0
M  V30 769 C 74.6999 -1.63415 -4.12081 0
M  V30 770 H 71.9199 -0.38359 -0.550545 0
M  V30 771 H 74.4639 -1.63507 -1.22824 0
M  V30 772 H 72.6189 -1.22061 -3.67668 0
M  V30 773 H 73.0329 -3.41305 -3.9826 0
M  V30 774 H 74.5069 -2.11669 -5.09804 0
M  V30 775 H 74.9839 -0.593462 -4.35172 0
M  V30 776 H 75.5899 -2.12628 -3.68334 0
M  V30 777 N 73.905 1.17692 -1.04816 0
M  V30 778 C 74.853 2.23632 -0.63966 0
M  V30 779 C 75.847 1.6601 0.337219 0
M  V30 780 O 77.053 1.78844 0.203693 0
M  V30 781 H 73.428 0.727949 -0.188665 0
M  V30 782 H 75.399 2.55387 -1.54337 0
M  V30 783 C 74.148 3.4769 -0.0264051 0
M  V30 784 H 73.471 3.92331 -0.769164 0
M  V30 785 H 74.911 4.23418 0.222098 0
M  V30 786 C 73.37 3.13807 1.22584 0
M  V30 787 O 73.9 3.28236 2.31569 0
M  V30 788 N 72.106 2.68065 1.12202 0
M  V30 789 H 71.653 2.56525 0.235133 0
M  V30 790 H 71.611 2.45767 1.96076 0
M  V30 791 N 75.3831 0.828654 1.34056 0
M  V30 792 C 76.6081 0.431637 2.02859 0
M  V30 793 C 77.0331 -0.956339 1.61975 0
M  V30 794 O 76.3911 -1.62338 0.807228 0
M  V30 795 C 76.4391 0.548323 3.56407 0
M  V30 796 O 75.5431 -0.429556 4.10157 0
M  V30 797 H 74.8841 0.176886 0.640006 0
M  V30 798 H 77.4141 1.12066 1.71179 0
M  V30 799 H 77.4241 0.426196 4.05768 0
M  V30 800 H 76.0991 1.5606 3.8551 0
M  V30 801 H 74.6761 -0.265836 3.71951 0
M  V30 802 N 76.8612 -1.46375 0.584142 0
M  V30 803 C 78.0862 -2.07268 0.0740405 0
M  V30 804 C 78.5112 -1.42979 -1.22223 0
M  V30 805 O 77.8692 -0.514092 -1.73859 0
M  V30 806 C 77.9172 -3.60518 -0.0767769 0
M  V30 807 O 77.0212 -3.96533 -1.13292 0
M  V30 808 H 76.3622 -0.660961 0.0634524 0
M  V30 809 H 78.8922 -1.87991 0.807492 0
M  V30 810 H 78.9022 -4.07021 -0.282489 0
M  V30 811 H 77.5772 -4.06702 0.86986 0
M  V30 812 H 76.1542 -3.61738 -0.905553 0
M  V30 813 N 78.3393 -0.321999 -1.54275 0
M  V30 814 C 79.2693 0.537411 -2.27231 0
M  V30 815 C 80.2503 1.12064 -1.27968 0
M  V30 816 O 81.4353 1.14606 -1.56777 0
M  V30 817 C 78.5653 1.69919 -3.02894 0
M  V30 818 C 77.5193 1.24534 -4.09482 0
M  V30 819 C 76.8453 2.49394 -4.72977 0
M  V30 820 C 78.1453 0.361335 -5.21049 0
M  V30 821 H 79.8393 -0.0711406 -2.99315 0
M  V30 822 H 77.3853 -0.0356555 -1.43956 0
M  V30 823 H 79.3383 2.30668 -3.52662 0
M  V30 824 H 78.0623 2.33431 -2.28424 0
M  V30 825 H 76.7213 0.660782 -3.60596 0
M  V30 826 H 76.3693 3.11265 -3.95124 0
M  V30 827 H 76.0693 2.19718 -5.44975 0
M  V30 828 H 77.5933 3.10908 -5.25517 0
M  V30 829 H 79.0073 0.875072 -5.66582 0
M  V30 830 H 77.4043 0.157428 -5.99893 0
M  V30 831 H 78.4743 -0.60822 -4.8107 0
M  V30 832 N 79.8174 1.5752 -0.0501392 0
M  V30 833 C 80.7654 2.12651 0.942459 0
M  V30 834 C 81.7594 1.05807 1.32292 0
M  V30 835 O 82.9654 1.24217 1.3027 0
M  V30 836 H 79.3404 0.679673 0.321789 0
M  V30 837 H 81.3114 2.94951 0.452356 0
M  V30 838 C 80.0604 2.68565 2.20836 0
M  V30 839 H 79.3834 3.50439 1.92439 0
M  V30 840 H 80.8234 3.10761 2.8845 0
M  V30 841 C 79.2824 1.62291 2.95234 0
M  V30 842 O 79.8124 1.03508 3.88135 0
M  V30 843 N 78.0184 1.33836 2.57946 0
M  V30 844 H 77.5654 1.81826 1.82475 0
M  V30 845 H 77.5234 0.629595 3.08032 0
M  V30 846 N 81.2955 -0.223234 1.56011 0
M  V30 847 C 82.2255 -1.27988 1.95298 0
M  V30 848 C 83.2065 -1.48976 0.820979 0
M  V30 849 O 84.3915 -1.61188 1.08315 0
M  V30 850 C 81.5215 -2.63 2.26822 0
M  V30 851 C 80.4755 -2.56671 3.42497 0
M  V30 852 C 79.8015 -3.95697 3.59622 0
M  V30 853 C 81.1015 -2.11601 4.77517 0
M  V30 854 H 82.7955 -0.953525 2.8381 0
M  V30 855 H 80.3415 -0.457244 1.36548 0
M  V30 856 H 82.2945 -3.37077 2.52898 0
M  V30 857 H 81.0185 -2.9732 1.35161 0
M  V30 858 H 79.6775 -1.85051 3.16467 0
M  V30 859 H 79.3255 -4.27322 2.6534 0
M  V30 860 H 79.0255 -3.92345 4.37424 0
M  V30 861 H 80.5495 -4.71438 3.88044 0
M  V30 862 H 81.9635 -2.7542 5.02809 0
M  V30 863 H 80.3605 -2.19311 5.5859 0
M  V30 864 H 81.4305 -1.06824 4.72987 0
M  V30 865 N 82.7736 -1.49793 -0.48987 0
M  V30 866 C 83.9986 -1.63836 -1.27172 0
M  V30 867 C 84.4236 -0.31402 -1.8546 0
M  V30 868 O 83.7816 0.719803 -1.66399 0
M  V30 869 C 83.8296 -2.71797 -2.36978 0
M  V30 870 O 82.9336 -2.31744 -3.41128 0
M  V30 871 H 82.2746 -0.547997 -0.37496 0
M  V30 872 H 84.8046 -1.96053 -0.585191 0
M  V30 873 H 84.8146 -2.94305 -2.82575 0
M  V30 874 H 83.4896 -3.67923 -1.93921 0
M  V30 875 H 82.0666 -2.1961 -3.01373 0
M  V30 876 N 84.2517 0.741722 -1.39055 0
M  V30 877 C 85.4977 1.50336 -1.36113 0
M  V30 878 C 85.8307 1.94148 0.0450796 0
M  V30 879 O 85.1057 1.66301 1.00868 0
M  V30 880 C 85.3887 2.74773 -2.32749 0
M  V30 881 C 85.2417 2.37023 -3.82283 0
M  V30 882 C 86.5607 3.76846 -2.27322 0
M  V30 883 H 83.6797 0.545351 -0.495743 0
M  V30 884 H 86.3217 0.848624 -1.69995 0
M  V30 885 H 84.4717 3.30639 -2.03986 0
M  V30 886 H 86.1437 1.8684 -4.21768 0
M  V30 887 H 84.3867 1.69334 -3.99385 0
M  V30 888 H 85.0577 3.26104 -4.45376 0
M  V30 889 H 87.5337 3.30548 -2.5274 0
M  V30 890 H 86.4097 4.6159 -2.97028 0
M  V30 891 H 86.6707 4.23286 -1.27599 0
M  V30 892 N 85.7298 1.2412 0.971189 0
M  V30 893 C 86.9578 1.10575 1.74874 0
M  V30 894 C 87.3728 -0.342017 1.85676 0
M  V30 895 O 86.7298 -1.23617 1.34258 0
M  V30 896 C 86.7808 1.73579 3.171 0
M  V30 897 O 86.5018 3.12695 3.06844 0
M  V30 898 C 88.0028 1.65598 4.11208 0
M  V30 899 H 85.2228 0.386504 0.548503 0
M  V30 900 H 87.7668 1.64156 1.21955 0
M  V30 901 H 85.9218 1.24009 3.67016 0
M  V30 902 H 86.3358 3.43412 3.96445 0
M  V30 903 H 87.8098 2.1437 5.08674 0
M  V30 904 H 88.2868 0.616532 4.34851 0
M  V30 905 H 88.8928 2.14578 3.67201 0
M  V30 906 N 87.2079 -1.17134 1.05439 0
M  V30 907 C 88.4329 -1.91913 0.786396 0
M  V30 908 C 88.8579 -1.7643 -0.652234 0
M  V30 909 O 88.2159 -1.08372 -1.45345 0
M  V30 910 C 88.2639 -3.40921 1.17497 0
M  V30 911 O 87.3679 -4.11244 0.308589 0
M  V30 912 H 86.7089 -0.598215 0.288158 0
M  V30 913 H 89.2389 -1.48457 1.4079 0
M  V30 914 H 89.2489 -3.91668 1.14281 0
M  V30 915 H 87.9239 -3.5151 2.22292 0
M  V30 916 H 86.5009 -3.70731 0.40157 0
M  V30 917 N 88.686 -0.835752 -1.33615 0
M  V30 918 C 89.933 -0.429959 -1.97883 0
M  V30 919 C 90.261 1.01006 -1.66217 0
M  V30 920 O 89.516 1.72047 -0.93265 0
M  V30 921 C 89.815 -0.593925 -3.52431 0
M  V30 922 C 89.481 -2.00158 -4.04039 0
M  V30 923 C 88.143 -2.38662 -4.17844 0
M  V30 924 C 90.495 -2.92117 -4.31644 0
M  V30 925 C 87.823 -3.68435 -4.56588 0
M  V30 926 C 90.175 -4.21368 -4.71838 0
M  V30 927 C 88.839 -4.59833 -4.83849 0
M  V30 928 H 88.109 -0.157333 -0.724104 0
M  V30 929 H 90.756 -1.06217 -1.59343 0
M  V30 930 H 89.061 0.121619 -3.91611 0
M  V30 931 H 90.758 -0.260282 -4.00154 0
M  V30 932 H 87.348 -1.69252 -3.93766 0
M  V30 933 H 91.532 -2.63608 -4.20505 0
M  V30 934 H 86.788 -3.98046 -4.64079 0
M  V30 935 H 90.962 -4.92703 -4.92155 0
M  V30 936 H 88.589 -5.60438 -5.13627 0
M  V30 937 N 90.1641 1.46063 -0.591896 0
M  V30 938 C 91.1111 2.30399 0.136069 0
M  V30 939 C 92.0811 1.41169 0.875238 0
M  V30 940 O 93.2661 1.70112 0.86409 0
M  V30 941 C 90.4061 3.25804 1.13781 0
M  V30 942 C 89.5191 4.30134 0.401137 0
M  V30 943 C 88.6541 5.12659 1.39121 0
M  V30 944 C 87.6931 6.0873 0.641462 0
M  V30 945 N 86.8301 6.8409 1.58004 0
M  V30 946 H 91.6701 2.92118 -0.589144 0
M  V30 947 H 89.2071 1.43959 -0.302342 0
M  V30 948 H 91.1651 3.79569 1.73156 0
M  V30 949 H 89.7951 2.65872 1.83062 0
M  V30 950 H 88.8471 3.79152 -0.307826 0
M  V30 951 H 90.1591 4.98458 -0.184565 0
M  V30 952 H 89.3131 5.70747 2.05749 0
M  V30 953 H 88.0521 4.44316 2.01084 0
M  V30 954 H 87.0571 5.49786 -0.0385419 0
M  V30 955 H 88.2821 6.79095 0.0270945 0
M  V30 956 H 86.2281 6.18449 2.18761 0
M  V30 957 H 86.1451 7.48709 1.04738 0
M  V30 958 H 87.4131 7.4673 2.23639 0
M  V30 959 N 91.6422 0.330177 1.54103 0
M  V30 960 C 92.5892 -0.532762 2.24567 0
M  V30 961 C 93.5592 -1.10635 1.23892 0
M  V30 962 O 94.7442 -1.14546 1.5259 0
M  V30 963 C 91.8842 -1.6845 3.01195 0
M  V30 964 C 90.9972 -1.13951 4.167 0
M  V30 965 C 90.1322 -2.25746 4.80845 0
M  V30 966 C 89.1712 -1.6853 5.88442 0
M  V30 967 N 88.3082 -2.74014 6.46421 0
M  V30 968 H 93.1482 0.0746905 2.97906 0
M  V30 969 H 90.6852 0.048632 1.4702 0
M  V30 970 H 92.6432 -2.36234 3.43874 0
M  V30 971 H 91.2732 -2.26314 2.30178 0
M  V30 972 H 90.3252 -0.35301 3.78758 0
M  V30 973 H 91.6372 -0.680892 4.94131 0
M  V30 974 H 90.7912 -3.01422 5.26526 0
M  V30 975 H 89.5302 -2.74947 4.0281 0
M  V30 976 H 88.5352 -0.913543 5.42157 0
M  V30 977 H 89.7602 -1.20198 6.68378 0
M  V30 978 H 87.7062 -3.22494 5.71256 0
M  V30 979 H 87.6232 -2.32735 7.19285 0
M  V30 980 H 88.8912 -3.49499 6.96757 0
M  V30 981 N 93.1203 -1.57491 0.0584922 0
M  V30 982 C 94.3693 -1.92155 -0.613146 0
M  V30 983 C 94.6823 -0.939334 -1.71569 0
M  V30 984 O 95.8883 -1.17829 -2.44599 0
M  V30 985 C 94.3443 -3.41303 -1.14195 0
M  V30 986 C 93.9523 -4.47944 -0.0711265 0
M  V30 987 C 95.6963 -3.84988 -1.78841 0
M  V30 988 C 93.6033 -5.88212 -0.613225 0
M  V30 989 H 92.5333 -0.717162 -0.232796 0
M  V30 990 H 95.1843 -1.83049 0.12857 0
M  V30 991 H 93.5663 -3.45437 -1.93621 0
M  V30 992 H 94.7403 -4.55408 0.702836 0
M  V30 993 H 93.0553 -4.13644 0.478313 0
M  V30 994 H 95.6523 -4.87159 -2.20408 0
M  V30 995 H 95.9953 -3.21632 -2.64308 0
M  V30 996 H 96.5283 -3.83401 -1.06059 0
M  V30 997 H 93.2673 -6.55183 0.203978 0
M  V30 998 H 92.7873 -5.84294 -1.35501 0
M  V30 999 H 94.4663 -6.37687 -1.09383 0
M  V30 1000 N 94.5984 0.214957 -1.56127 0
M  V30 1001 C 95.8444 0.939762 -1.79712 0
M  V30 1002 C 96.1774 1.83723 -0.629247 0
M  V30 1003 O 95.4524 1.90925 0.371197 0
M  V30 1004 C 95.7354 1.77306 -3.13424 0
M  V30 1005 C 95.5884 0.90164 -4.40671 0
M  V30 1006 C 96.9074 2.74956 -3.43638 0
M  V30 1007 H 94.0264 0.340214 -0.653776 0
M  V30 1008 H 96.6684 0.20824 -1.88855 0
M  V30 1009 H 94.8184 2.39673 -3.0576 0
M  V30 1010 H 96.4904 0.294206 -4.60361 0
M  V30 1011 H 94.7334 0.207368 -4.33304 0
M  V30 1012 H 95.4044 1.51923 -5.30682 0
M  V30 1013 H 97.8804 2.22724 -3.51473 0
M  V30 1014 H 96.7564 3.30358 -4.38355 0
M  V30 1015 H 97.0174 3.53023 -2.66134 0
M  V30 1016 N 96.0765 1.50051 0.48192 0
M  V30 1017 C 97.3065 1.63999 1.2565 0
M  V30 1018 C 97.7145 0.318288 1.86504 0
M  V30 1019 O 97.0575 -0.708534 1.69486 0
M  V30 1020 C 97.1195 2.66504 2.4128 0
M  V30 1021 C 96.7835 4.10352 2.01148 0
M  V30 1022 C 97.7805 4.96562 1.54021 0
M  V30 1023 C 95.4655 4.56203 2.10199 0
M  V30 1024 C 97.4595 6.26668 1.16473 0
M  V30 1025 C 95.1465 5.86318 1.72264 0
M  V30 1026 C 96.1445 6.71375 1.25477 0
M  V30 1027 O 95.8325 7.99062 0.880626 0
M  V30 1028 H 95.5645 0.55456 0.386574 0
M  V30 1029 H 98.1185 1.96954 0.582944 0
M  V30 1030 H 96.3485 2.28769 3.11772 0
M  V30 1031 H 98.0375 2.69783 3.03268 0
M  V30 1032 H 98.8035 4.62358 1.46458 0
M  V30 1033 H 94.6825 3.90152 2.45566 0
M  V30 1034 H 98.2265 6.93011 0.798841 0
M  V30 1035 H 94.1235 6.20046 1.79482 0
M  V30 1036 H 94.8915 8.12239 1.01043 0
M  V30 1037 N 97.5546 -0.734337 1.39446 0
M  V30 1038 C 98.9706 -1.03997 1.21065 0
M  V30 1039 C 99.1706 -2.01369 0.0727019 0
M  V30 1040 O 98.2266 -2.45856 -0.575426 0
M  V30 1041 C 99.5396 -1.60163 2.54496 0
M  V30 1042 C 101.088 -1.7224 2.61347 0
M  V30 1043 C 101.563 -2.31814 3.95002 0
M  V30 1044 N 103.054 -2.39223 3.96644 0
M  V30 1045 C 103.789 -2.86258 4.96834 0
M  V30 1046 N 103.285 -3.33184 6.07421 0
M  V30 1047 N 105.078 -2.85473 4.84213 0
M  V30 1048 H 97.2286 -0.0885624 2.12215 0
M  V30 1049 H 99.4916 -0.10191 0.942506 0
M  V30 1050 H 99.1976 -0.960811 3.38321 0
M  V30 1051 H 99.0716 -2.5896 2.74262 0
M  V30 1052 H 101.459 -2.35443 1.77906 0
M  V30 1053 H 101.54 -0.720939 2.4543 0
M  V30 1054 H 101.184 -1.69238 4.78875 0
M  V30 1055 H 101.114 -3.32638 4.08239 0
M  V30 1056 H 103.605 -2.06057 3.16779 0
M  V30 1057 H 103.918 -3.67586 6.7978 0
M  V30 1058 H 102.263 -3.31191 6.11013 0
M  V30 1059 H 105.454 -2.48136 3.96921 0
M  V30 1060 H 105.627 -3.21814 5.62441 0
M  V30 1061 N 99.0327 -1.24633 -0.964593 0
M  V30 1062 C 99.9427 -1.05859 -2.09359 0
M  V30 1063 C 100.959 0.00148855 -1.74 0
M  V30 1064 O 102.135 -0.197346 -2.00431 0
M  V30 1065 C 99.1997 -0.668879 -3.40187 0
M  V30 1066 C 98.2607 -1.80578 -3.89474 0
M  V30 1067 C 97.4937 -1.43457 -5.14058 0
M  V30 1068 O 97.7167 -0.325775 -5.69469 0
M  V30 1069 O 96.6507 -2.2613 -5.57807 0
M  V30 1070 H 100.477 -2.00516 -2.28094 0
M  V30 1071 H 98.0617 -1.03481 -1.0776 0
M  V30 1072 H 99.9437 -0.463211 -4.18846 0
M  V30 1073 H 98.6187 0.248536 -3.22744 0
M  V30 1074 H 97.5257 -2.06623 -3.11862 0
M  V30 1075 H 98.8587 -2.70208 -4.11398 0
M  V30 1076 N 100.511 1.16574 -1.06058 0
M  V30 1077 C 101.741 1.90675 -0.795397 0
M  V30 1078 C 102.149 1.77547 0.653735 0
M  V30 1079 O 101.492 1.11611 1.45907 0
M  V30 1080 C 101.554 3.42011 -1.10764 0
M  V30 1081 C 101.218 3.78924 -2.55471 0
M  V30 1082 C 102.215 3.81042 -3.53699 0
M  V30 1083 C 99.8998 4.09626 -2.90708 0
M  V30 1084 C 101.894 4.13346 -4.85205 0
M  V30 1085 C 99.5808 4.41597 -4.22416 0
M  V30 1086 C 100.579 4.43436 -5.19474 0
M  V30 1087 O 100.267 4.74649 -6.48817 0
M  V30 1088 H 99.9988 0.611554 -0.288058 0
M  V30 1089 H 102.553 1.48711 -1.41683 0
M  V30 1090 H 100.783 3.84312 -0.429128 0
M  V30 1091 H 102.472 3.97384 -0.827077 0
M  V30 1092 H 103.238 3.57437 -3.27817 0
M  V30 1093 H 99.1168 4.07361 -2.15819 0
M  V30 1094 H 102.661 4.14696 -5.60957 0
M  V30 1095 H 98.5578 4.64667 -4.48056 0
M  V30 1096 H 99.3258 4.9247 -6.5377 0
M  V30 1097 N 101.989 0.842826 1.3317 0
M  V30 1098 C 102.899 0.281444 2.32906 0
M  V30 1099 C 103.915 -0.594587 1.63526 0
M  V30 1100 O 105.091 -0.49777 1.95152 0
M  V30 1101 C 102.156 -0.530929 3.42611 0
M  V30 1102 C 101.217 0.369843 4.27704 0
M  V30 1103 C 100.45 -0.403853 5.3217 0
M  V30 1104 O 100.673 -1.63513 5.46461 0
M  V30 1105 O 99.6069 0.224199 6.01482 0
M  V30 1106 H 103.433 1.10744 2.82789 0
M  V30 1107 H 101.018 0.60545 1.36582 0
M  V30 1108 H 102.9 -0.992437 4.09547 0
M  V30 1109 H 101.575 -1.33392 2.94938 0
M  V30 1110 H 100.482 0.879275 3.6362 0
M  V30 1111 H 101.815 1.13771 4.78871 0
M  V30 1112 N 103.467 -1.45747 0.599634 0
M  V30 1113 C 104.878 -1.85853 0.177681 0
M  V30 1114 C 105.229 -1.50102 -1.26348 0
M  V30 1115 O 104.354 -0.923905 -1.95686 0
M  V30 1116 C 104.949 -3.37326 0.315688 0
M  V30 1117 C 103.508 -3.76365 -0.0515144 0
M  V30 1118 C 102.655 -2.69722 0.643822 0
M  V30 1119 H 105.606 -1.36661 0.806814 0
M  V30 1120 H 105.627 -3.77778 -0.454321 0
M  V30 1121 H 105.139 -3.63315 1.36468 0
M  V30 1122 H 103.24 -3.55993 -1.09999 0
M  V30 1123 H 103.353 -4.77916 0.336594 0
M  V30 1124 H 101.717 -2.54567 0.0822881 0
M  V30 1125 H 102.5 -2.98549 1.6948 0
M  V30 1126 N 104.945 -0.338344 -1.53925 0
M  V30 1127 C 106.175 0.260919 -2.04946 0
M  V30 1128 C 106.583 1.45174 -1.2133 0
M  V30 1129 O 105.926 1.82122 -0.240262 0
M  V30 1130 C 105.988 0.744596 -3.51704 0
M  V30 1131 C 105.652 -0.325883 -4.55837 0
M  V30 1132 C 106.649 -1.16687 -5.06636 0
M  V30 1133 C 104.334 -0.478317 -5.00017 0
M  V30 1134 C 106.328 -2.14588 -6.00192 0
M  V30 1135 C 104.015 -1.46073 -5.93385 0
M  V30 1136 C 105.013 -2.29297 -6.4336 0
M  V30 1137 O 104.701 -3.25867 -7.34892 0
M  V30 1138 H 104.433 0.0551207 -0.673749 0
M  V30 1139 H 106.987 -0.486984 -1.99544 0
M  V30 1140 H 105.217 1.54366 -3.54553 0
M  V30 1141 H 106.906 1.26383 -3.85723 0
M  V30 1142 H 107.672 -1.06016 -4.73271 0
M  V30 1143 H 103.551 0.159613 -4.60724 0
M  V30 1144 H 107.095 -2.79585 -6.39123 0
M  V30 1145 H 102.992 -1.56802 -6.26166 0
M  V30 1146 H 103.76 -3.21278 -7.5281 0
M  V30 1147 N 106.423 1.57458 -0.0668435 0
M  V30 1148 C 107.67 1.93301 0.603406 0
M  V30 1149 C 107.998 0.946486 1.69917 0
M  V30 1150 O 107.253 -0.0387021 1.95662 0
M  V30 1151 C 107.552 3.35784 1.22409 0
M  V30 1152 C 107.218 4.50179 0.254955 0
M  V30 1153 C 105.88 4.81199 -0.0116746 0
M  V30 1154 C 108.232 5.19598 -0.408338 0
M  V30 1155 C 105.56 5.78978 -0.94877 0
M  V30 1156 C 107.912 6.18381 -1.33372 0
M  V30 1157 C 106.576 6.47821 -1.60887 0
M  V30 1158 H 105.846 0.707338 0.220802 0
M  V30 1159 H 108.493 1.91012 -0.136665 0
M  V30 1160 H 106.798 3.34515 2.03978 0
M  V30 1161 H 108.495 3.60804 1.74989 0
M  V30 1162 H 105.085 4.25983 0.472954 0
M  V30 1163 H 109.269 4.95832 -0.215456 0
M  V30 1164 H 104.525 6.00115 -1.16925 0
M  V30 1165 H 108.699 6.71277 -1.85367 0
M  V30 1166 H 106.326 7.23399 -2.33661 0
M  V30 1167 N 107.901 -0.206675 1.56239 0
M  V30 1168 C 108.848 -1.25617 1.93621 0
M  V30 1169 C 109.818 -1.45824 0.795274 0
M  V30 1170 O 111.003 -1.59148 1.05245 0
M  V30 1171 C 108.143 -2.59839 2.27107 0
M  V30 1172 C 107.256 -2.47308 3.54207 0
M  V30 1173 C 106.391 -3.74155 3.7707 0
M  V30 1174 C 105.43 -3.56407 4.97635 0
M  V30 1175 N 104.567 -4.75238 5.1681 0
M  V30 1176 H 109.407 -0.930383 2.83104 0
M  V30 1177 H 106.944 -0.448065 1.4011 0
M  V30 1178 H 108.902 -3.38021 2.44535 0
M  V30 1179 H 107.532 -2.90485 1.40778 0
M  V30 1180 H 106.584 -1.60483 3.4489 0
M  V30 1181 H 107.896 -2.30122 4.42544 0
M  V30 1182 H 107.05 -4.60778 3.94675 0
M  V30 1183 H 105.789 -3.94282 2.87042 0
M  V30 1184 H 104.794 -2.68168 4.79964 0
M  V30 1185 H 106.019 -3.37736 5.89161 0
M  V30 1186 H 103.965 -4.95651 4.29728 0
M  V30 1187 H 103.882 -4.60835 5.99306 0
M  V30 1188 H 105.15 -5.63246 5.38864 0
M  V30 1189 N 109.379 -1.50304 -0.473955 0
M  V30 1190 C 110.326 -1.68959 -1.57231 0
M  V30 1191 C 111.296 -0.530899 -1.57387 0
M  V30 1192 O 112.481 -0.761133 -1.74961 0
M  V30 1193 C 109.621 -1.7871 -2.95223 0
M  V30 1194 C 108.734 -3.06061 -3.04878 0
M  V30 1195 C 107.869 -3.06626 -4.33767 0
M  V30 1196 C 106.908 -4.28443 -4.37154 0
M  V30 1197 N 106.045 -4.26763 -5.5751 0
M  V30 1198 H 110.885 -2.6273 -1.40631 0
M  V30 1199 H 108.422 -1.30241 -0.683789 0
M  V30 1200 H 110.38 -1.82344 -3.75242 0
M  V30 1201 H 109.01 -0.883806 -3.10465 0
M  V30 1202 H 108.062 -3.11911 -2.17751 0
M  V30 1203 H 109.374 -3.96039 -3.0324 0
M  V30 1204 H 108.528 -3.08973 -5.22131 0
M  V30 1205 H 107.267 -2.14473 -4.3801 0
M  V30 1206 H 106.272 -4.2631 -3.47188 0
M  V30 1207 H 107.497 -5.2182 -4.34605 0
M  V30 1208 H 105.443 -3.37462 -5.62544 0
M  V30 1209 H 105.36 -5.10507 -5.57601 0
M  V30 1210 H 106.628 -4.33253 -6.48006 0
M  V30 1211 N 110.857 0.726932 -1.39834 0
M  V30 1212 C 111.767 1.87131 -1.41489 0
M  V30 1213 C 112.783 1.71239 -0.308757 0
M  V30 1214 O 113.959 1.93701 -0.551529 0
M  V30 1215 C 111.024 3.22811 -1.26468 0
M  V30 1216 C 110.085 3.51039 -2.47124 0
M  V30 1217 C 109.318 4.80245 -2.3281 0
M  V30 1218 O 109.541 5.54537 -1.33585 0
M  V30 1219 O 108.475 5.08554 -3.21957 0
M  V30 1220 H 112.301 1.8869 -2.3797 0
M  V30 1221 H 109.886 0.875837 -1.21035 0
M  V30 1222 H 111.768 4.03877 -1.20255 0
M  V30 1223 H 110.443 3.22005 -0.330862 0
M  V30 1224 H 109.35 2.70027 -2.58914 0
M  V30 1225 H 110.683 3.56632 -3.39227 0
M  V30 1226 N 112.336 1.25143 0.95797 0
M  V30 1227 C 113.283 1.05235 2.05412 0
M  V30 1228 C 114.253 -0.0374561 1.66058 0
M  V30 1229 O 115.438 0.119073 1.90428 0
M  V30 1230 C 112.578 0.673589 3.38462 0
M  V30 1231 C 111.691 1.8379 3.90954 0
M  V30 1232 C 110.826 1.40381 5.12315 0
M  V30 1233 C 109.865 2.53746 5.57027 0
M  V30 1234 N 109.002 2.11136 6.69601 0
M  V30 1235 H 113.842 1.99048 2.21774 0
M  V30 1236 H 111.379 0.991277 1.08683 0
M  V30 1237 H 113.337 0.434964 4.14926 0
M  V30 1238 H 111.967 -0.227554 3.21997 0
M  V30 1239 H 111.019 2.18992 3.11041 0
M  V30 1240 H 112.331 2.68937 4.20089 0
M  V30 1241 H 111.485 1.12464 5.96185 0
M  V30 1242 H 110.224 0.523015 4.84887 0
M  V30 1243 H 109.229 2.82412 4.71724 0
M  V30 1244 H 110.454 3.42398 5.86464 0
M  V30 1245 H 108.4 1.25468 6.4389 0
M  V30 1246 H 108.317 2.89832 6.98236 0
M  V30 1247 H 109.585 1.86385 7.56889 0
M  V30 1248 N 113.814 -1.1601 1.06675 0
M  V30 1249 C 115.225 -1.68235 0.809565 0
M  V30 1250 C 115.576 -1.8454 -0.666303 0
M  V30 1251 O 114.701 -1.54374 -1.5165 0
M  V30 1252 C 115.296 -3.05585 1.46299 0
M  V30 1253 C 113.855 -3.54915 1.25349 0
M  V30 1254 C 113.002 -2.30804 1.53703 0
M  V30 1255 H 115.953 -1.00318 1.22971 0
M  V30 1256 H 115.974 -3.70174 0.880431 0
M  V30 1257 H 115.486 -2.93686 2.53713 0
M  V30 1258 H 113.587 -3.72067 0.199261 0
M  V30 1259 H 113.7 -4.36774 1.9689 0
M  V30 1260 H 112.064 -2.36007 0.957739 0
M  V30 1261 H 112.847 -2.21499 2.62284 0
M  V30 1262 N 115.292 -0.849877 -1.32721 0
M  V30 1263 C 116.224 -0.248332 -2.27851 0
M  V30 1264 C 117.237 0.577218 -1.52224 0
M  V30 1265 O 118.426 0.402489 -1.73903 0
M  V30 1266 C 115.526 0.668107 -3.32249 0
M  V30 1267 C 114.699 -0.120534 -4.37234 0
M  V30 1268 C 113.758 0.720932 -5.21238 0
M  V30 1269 O 112.784 0.156166 -5.68986 0
M  V30 1270 N 113.986 2.03647 -5.43607 0
M  V30 1271 H 116.751 -1.06575 -2.80111 0
M  V30 1272 H 114.312 -0.709395 -1.45531 0
M  V30 1273 H 116.304 1.23627 -3.85355 0
M  V30 1274 H 114.874 1.38621 -2.80184 0
M  V30 1275 H 114.094 -0.870108 -3.84477 0
M  V30 1276 H 115.382 -0.662406 -5.0447 0
M  V30 1277 H 114.78 2.51871 -5.06535 0
M  V30 1278 H 113.337 2.55287 -5.99727 0
M  V30 1279 N 116.77 1.45427 -0.607355 0
M  V30 1280 C 117.995 2.07124 -0.107006 0
M  V30 1281 C 118.42 1.44906 1.19933 0
M  V30 1282 O 117.778 0.541687 1.73019 0
M  V30 1283 C 117.826 3.60595 0.0194119 0
M  V30 1284 O 116.93 3.98285 1.0697 0
M  V30 1285 H 116.271 0.659868 -0.0739597 0
M  V30 1286 H 118.801 1.86683 -0.837297 0
M  V30 1287 H 118.811 4.07419 0.2177 0
M  V30 1288 H 117.486 4.05266 -0.934453 0
M  V30 1289 H 116.063 3.63133 0.847889 0
M  V30 1290 N 118.248 0.346503 1.53744 0
M  V30 1291 C 119.476 -0.25041 2.05379 0
M  V30 1292 C 119.891 -1.43979 1.22129 0
M  V30 1293 O 119.248 -1.80677 0.257321 0
M  V30 1294 C 119.299 -0.662575 3.55376 0
M  V30 1295 O 119.02 0.479515 4.35468 0
M  V30 1296 C 120.521 -1.31989 4.23195 0
M  V30 1297 H 117.741 -0.0478198 0.669294 0
M  V30 1298 H 120.285 0.499346 1.9831 0
M  V30 1299 H 118.44 -1.36227 3.62658 0
M  V30 1300 H 118.854 0.15037 5.24284 0
M  V30 1301 H 120.328 -1.55902 5.29527 0
M  V30 1302 H 120.805 -2.27436 3.75725 0
M  V30 1303 H 121.411 -0.662154 4.20114 0
M  V30 1304 N 119.726 -1.57421 0.075193 0
M  V30 1305 C 120.975 -1.92794 -0.592731 0
M  V30 1306 C 121.288 -0.957478 -1.70563 0
M  V30 1307 O 122.494 -1.20417 -2.43335 0
M  V30 1308 C 120.95 -3.42495 -1.10569 0
M  V30 1309 C 120.558 -4.47994 -0.0236121 0
M  V30 1310 C 122.302 -3.86864 -1.74748 0
M  V30 1311 C 120.209 -5.88829 -0.550803 0
M  V30 1312 H 119.139 -0.719591 -0.225177 0
M  V30 1313 H 121.79 -1.82902 0.147978 0
M  V30 1314 H 120.172 -3.47471 -1.89947 0
M  V30 1315 H 121.346 -4.54637 0.751099 0
M  V30 1316 H 119.661 -4.13113 0.522159 0
M  V30 1317 H 122.258 -4.8947 -2.15229 0
M  V30 1318 H 122.601 -3.24417 -2.60882 0
M  V30 1319 H 123.134 -3.84504 -1.01986 0
M  V30 1320 H 119.873 -6.54929 0.273457 0
M  V30 1321 H 119.393 -5.85698 -1.29296 0
M  V30 1322 H 121.072 -6.38811 -1.02613 0
M  V30 1323 N 121.204 0.198386 -1.56346 0
M  V30 1324 C 122.429 0.939682 -1.84891 0
M  V30 1325 C 122.854 1.76202 -0.658369 0
M  V30 1326 O 122.212 1.76993 0.392851 0
M  V30 1327 C 122.26 1.81428 -3.11635 0
M  V30 1328 O 121.364 2.91265 -2.91956 0
M  V30 1329 H 120.705 0.264807 -0.608912 0
M  V30 1330 H 123.235 0.204695 -2.03573 0
M  V30 1331 H 123.245 2.21958 -3.42343 0
M  V30 1332 H 121.92 1.21004 -3.97908 0
M  V30 1333 H 120.497 2.54514 -2.72538 0
M  V30 1334 N 122.682 1.50554 0.465978 0
M  V30 1335 C 123.93 1.61479 1.21528 0
M  V30 1336 C 124.251 0.319596 1.92363 0
M  V30 1337 O 123.521 -0.663194 1.84333 0
M  V30 1338 H 122.101 0.595055 0.451573 0
M  V30 1339 H 124.763 1.87355 0.53704 0
M  V30 1340 H 123.859 2.42846 1.96042 0
M  V30 1341 N 124.16 -0.719506 1.40217 0
M  V30 1342 C 125.09 -1.8465 1.42922 0
M  V30 1343 C 126.071 -1.67599 0.29062 0
M  V30 1344 O 127.256 -1.87688 0.498677 0
M  V30 1345 C 124.386 -3.22565 1.28722 0
M  V30 1346 C 123.34 -3.54281 2.40144 0
M  V30 1347 C 122.666 -4.91298 2.11023 0
M  V30 1348 C 123.966 -3.55676 3.82481 0
M  V30 1349 H 125.66 -1.82644 2.37237 0
M  V30 1350 H 123.206 -0.877305 1.1419 0
M  V30 1351 H 125.159 -4.01095 1.29232 0
M  V30 1352 H 123.883 -3.25137 0.308811 0
M  V30 1353 H 122.542 -2.78088 2.38877 0
M  V30 1354 H 122.19 -4.90468 1.11582 0
M  V30 1355 H 121.89 -5.13485 2.8567 0
M  V30 1356 H 123.414 -5.72166 2.13209 0
M  V30 1357 H 124.828 -4.24254 3.85592 0
M  V30 1358 H 123.225 -3.89388 4.56614 0
M  V30 1359 H 124.295 -2.55144 4.12346 0
M  V30 1360 N 125.638 -1.25649 -0.95132 0
M  V30 1361 C 126.568 -1.08808 -2.06599 0
M  V30 1362 C 127.549 0.00382547 -1.701 0
M  V30 1363 O 128.734 -0.166325 -1.93486 0
M  V30 1364 C 125.864 -0.709542 -3.39975 0
M  V30 1365 C 124.818 -1.75206 -3.90496 0
M  V30 1366 C 124.144 -1.22811 -5.20405 0
M  V30 1367 C 125.444 -3.15153 -4.16504 0
M  V30 1368 H 127.138 -2.02048 -2.20946 0
M  V30 1369 H 124.684 -0.972835 -1.06169 0
M  V30 1370 H 126.637 -0.578649 -4.17408 0
M  V30 1371 H 125.361 0.258556 -3.25575 0
M  V30 1372 H 124.02 -1.87145 -3.15234 0
M  V30 1373 H 123.668 -0.250145 -5.02378 0
M  V30 1374 H 123.368 -1.92492 -5.55176 0
M  V30 1375 H 124.892 -1.10968 -6.00432 0
M  V30 1376 H 126.306 -3.06349 -4.84586 0
M  V30 1377 H 124.703 -3.82333 -4.62538 0
M  V30 1378 H 125.773 -3.61966 -3.22658 0
M  V30 1379 N 127.117 1.15442 -1.07289 0
M  V30 1380 C 128.365 1.85845 -0.794096 0
M  V30 1381 C 128.686 1.82692 0.681809 0
M  V30 1382 O 127.956 1.26741 1.49377 0
M  V30 1383 H 126.536 0.688089 -0.290763 0
M  V30 1384 H 129.198 1.39947 -1.3565 0
M  V30 1385 H 128.294 2.91001 -1.12804 0
M  V30 1386 N 128.595 0.856903 1.32268 0
M  V30 1387 C 130.006 0.515711 1.79436 0
M  V30 1388 C 130.357 -0.966586 1.70738 0
M  V30 1389 O 129.482 -1.75409 1.26731 0
M  V30 1390 C 130.077 0.929335 3.25805 0
M  V30 1391 C 128.636 0.640006 3.70919 0
M  V30 1392 C 127.783 1.12784 2.53328 0
M  V30 1393 H 130.734 1.04389 1.19535 0
M  V30 1394 H 130.755 0.246633 3.797 0
M  V30 1395 H 130.267 2.00821 3.32103 0
M  V30 1396 H 128.368 -0.428051 3.70133 0
M  V30 1397 H 128.481 1.20788 4.63624 0
M  V30 1398 H 126.845 0.548033 2.48734 0
M  V30 1399 H 127.628 2.21387 2.62379 0
M  V30 1400 N 130.073 -1.45103 0.615059 0
M  V30 1401 C 131.301 -2.06553 0.11977 0
M  V30 1402 C 131.716 -1.45842 -1.19898 0
M  V30 1403 O 131.073 -0.575325 -1.73194 0
M  V30 1404 C 131.124 -3.61495 -0.018364 0
M  V30 1405 O 130.845 -4.19942 1.24822 0
M  V30 1406 C 132.346 -4.39947 -0.544237 0
M  V30 1407 H 129.566 -0.667096 0.0722739 0
M  V30 1408 H 132.11 -1.8623 0.84491 0
M  V30 1409 H 130.265 -3.81135 -0.693865 0
M  V30 1410 H 130.679 -5.13204 1.0827 0
M  V30 1411 H 132.153 -5.48838 -0.589953 0
M  V30 1412 H 132.63 -4.10255 -1.56805 0
M  V30 1413 H 133.236 -4.25188 0.0974703 0
M  V30 1414 N 131.551 -0.354651 -1.53558 0
M  V30 1415 C 132.481 0.489091 -2.2832 0
M  V30 1416 C 133.462 1.09324 -1.30316 0
M  V30 1417 O 134.647 1.11255 -1.59173 0
M  V30 1418 C 131.777 1.63456 -3.0643 0
M  V30 1419 C 130.731 1.1582 -4.12031 0
M  V30 1420 C 130.057 2.39305 -4.7816 0
M  V30 1421 C 131.357 0.250731 -5.21698 0
M  V30 1422 H 133.051 -0.134614 -2.99097 0
M  V30 1423 H 130.597 -0.0661826 -1.43848 0
M  V30 1424 H 132.55 2.23136 -3.57475 0
M  V30 1425 H 131.274 2.28533 -2.33325 0
M  V30 1426 H 129.933 0.584146 -3.61916 0
M  V30 1427 H 129.581 3.02814 -4.01637 0
M  V30 1428 H 129.281 2.08109 -5.49513 0
M  V30 1429 H 130.805 2.99691 -5.31994 0
M  V30 1430 H 132.219 0.754695 -5.68311 0
M  V30 1431 H 130.616 0.0301468 -6.00092 0
M  V30 1432 H 131.686 -0.710125 -4.79672 0
M  V30 1433 N 133.029 1.57378 -0.0835403 0
M  V30 1434 C 134.259 1.97975 0.590713 0
M  V30 1435 C 134.667 0.961083 1.62972 0
M  V30 1436 O 134.01 -0.0590879 1.83605 0
M  V30 1437 C 134.072 3.34915 1.3066 0
M  V30 1438 C 133.736 4.55069 0.419698 0
M  V30 1439 C 134.733 5.18868 -0.32749 0
M  V30 1440 C 132.418 5.0114 0.341137 0
M  V30 1441 C 134.412 6.27098 -1.14134 0
M  V30 1442 C 132.099 6.0924 -0.476374 0
M  V30 1443 C 133.097 6.72083 -1.21627 0
M  V30 1444 O 132.785 7.781 -2.02028 0
M  V30 1445 H 132.517 0.655818 0.163947 0
M  V30 1446 H 135.071 2.04807 -0.156021 0
M  V30 1447 H 133.301 3.24733 2.09966 0
M  V30 1448 H 134.99 3.60037 1.87424 0
M  V30 1449 H 135.756 4.84211 -0.276459 0
M  V30 1450 H 131.635 4.51996 0.90668 0
M  V30 1451 H 135.179 6.7608 -1.71935 0
M  V30 1452 H 131.076 6.43329 -0.528927 0
M  V30 1453 H 131.844 7.95034 -1.94586 0
M  V30 1454 N 134.507 -0.190092 1.56449 0
M  V30 1455 C 135.47 -1.21925 1.9408 0
M  V30 1456 C 136.47 -1.38176 0.822431 0
M  V30 1457 O 137.66 -1.35903 1.08977 0
M  V30 1458 C 134.792 -2.58773 2.21922 0
M  V30 1459 H 135.985 -0.897464 2.86157 0
M  V30 1460 H 133.538 -0.43181 1.50217 0
M  V30 1461 H 134.273 -2.95998 1.32499 0
M  V30 1462 H 134.058 -2.48348 3.03424 0
M  V30 1463 H 135.548 -3.32978 2.52022 0
M  V30 1464 N 135.985 -1.50799 -0.457987 0
M  V30 1465 C 136.895 -1.73426 -1.57989 0
M  V30 1466 C 137.911 -0.617745 -1.62665 0
M  V30 1467 O 139.087 -0.897614 -1.80291 0
M  V30 1468 C 136.152 -1.83557 -2.94122 0
M  V30 1469 C 135.213 -3.07345 -2.99729 0
M  V30 1470 C 134.446 -3.16983 -4.29368 0
M  V30 1471 O 134.669 -2.33077 -5.20607 0
M  V30 1472 O 133.603 -4.09812 -4.40837 0
M  V30 1473 H 137.429 -2.68555 -1.41817 0
M  V30 1474 H 135.014 -1.35052 -0.638859 0
M  V30 1475 H 136.896 -1.92326 -3.74952 0
M  V30 1476 H 135.571 -0.916137 -3.10465 0
M  V30 1477 H 134.478 -3.04068 -2.1793 0
M  V30 1478 H 135.811 -3.9891 -2.88326 0
M  V30 1479 N 137.463 0.71206 -1.40597 0
M  V30 1480 C 138.709 1.47416 -1.39271 0
M  V30 1481 C 139.042 1.942 0.00388791 0
M  V30 1482 O 138.317 1.68403 0.973179 0
M  V30 1483 C 138.6 2.69774 -2.38525 0
M  V30 1484 C 138.453 2.28861 -3.87224 0
M  V30 1485 C 139.772 3.71939 -2.35264 0
M  V30 1486 H 136.891 0.534713 -0.5072 0
M  V30 1487 H 139.533 0.812375 -1.71757 0
M  V30 1488 H 137.683 3.26238 -2.10953 0
M  V30 1489 H 139.355 1.77852 -4.25636 0
M  V30 1490 H 137.598 1.60824 -4.02887 0
M  V30 1491 H 138.269 3.16584 -4.52193 0
M  V30 1492 H 140.745 3.25113 -2.59694 0
M  V30 1493 H 139.621 4.55186 -3.06753 0
M  V30 1494 H 139.882 4.20484 -1.36549 0
M  V30 1495 N 138.941 1.26152 0.944643 0
M  V30 1496 C 140.189 1.11271 1.6871 0
M  V30 1497 C 140.51 -0.345166 1.91921 0
M  V30 1498 O 139.78 -1.24387 1.51343 0
M  V30 1499 H 138.36 0.408783 0.625224 0
M  V30 1500 H 141.022 1.58427 1.1352 0
M  V30 1501 H 140.118 1.62879 2.66227 0
M  V30 1502 N 140.419 -1.14872 1.07899 0
M  V30 1503 C 141.696 -1.81928 0.71845 0
M  V30 1504 C 142.076 -1.95417 -0.798455 0
M  V30 1505 O 141.424 -1.50997 -1.715 0
M  V30 1506 C 141.634 -3.17937 1.43935 0
M  V30 1507 C 142.982 -3.93501 1.59506 0
M  V30 1508 O 144.006 -3.27509 1.40058 0
M  V30 1509 O 142.865 -5.1183 1.91551 0
M  V30 1510 H 139.959 -0.78628 0.256305 0
M  V30 1511 H 142.505 -1.21934 1.18026 0
M  V30 1512 H 141.277 -3.0325 2.47295 0
M  V30 1513 H 140.9 -3.85619 0.968687 0
M  V30 1514 N 141.898 -0.863906 -1.31812 0
M  V30 1515 C 143.147 -0.46801 -1.96195 0
M  V30 1516 C 143.46 0.983474 -1.69077 0
M  V30 1517 O 144.666 1.48523 -2.27273 0
M  V30 1518 C 143.122 -0.785995 -3.51212 0
M  V30 1519 C 142.73 -2.25383 -3.87178 0
M  V30 1520 C 144.474 -0.458274 -4.22019 0
M  V30 1521 C 142.381 -2.51455 -5.3528 0
M  V30 1522 H 141.311 -0.171283 -0.734287 0
M  V30 1523 H 143.962 -1.05597 -1.50072 0
M  V30 1524 H 142.344 -0.127359 -3.95795 0
M  V30 1525 H 143.518 -2.95502 -3.53575 0
M  V30 1526 H 141.833 -2.54698 -3.2942 0
M  V30 1527 H 144.43 -0.630369 -5.30971 0
M  V30 1528 H 144.773 0.600834 -4.11941 0
M  V30 1529 H 145.306 -1.07319 -3.8305 0
M  V30 1530 H 142.045 -3.56025 -5.50387 0
M  V30 1531 H 141.565 -1.85923 -5.70257 0
M  V30 1532 H 143.244 -2.35874 -6.02472 0
M  V30 1533 N 143.376 1.44774 -0.622745 0
M  V30 1534 C 144.625 2.01334 -0.121397 0
M  V30 1535 C 144.938 1.49505 1.26125 0
M  V30 1536 O 146.144 1.98139 1.85616 0
M  V30 1537 C 144.6 3.59516 -0.166298 0
M  V30 1538 C 144.208 4.20342 -1.54974 0
M  V30 1539 C 145.952 4.23582 0.279021 0
M  V30 1540 C 143.859 5.70721 -1.55021 0
M  V30 1541 H 142.789 0.752851 -0.0416172 0
M  V30 1542 H 145.44 1.66083 -0.780309 0
M  V30 1543 H 143.822 3.92027 0.559557 0
M  V30 1544 H 144.996 3.99381 -2.29851 0
M  V30 1545 H 143.311 3.68529 -1.93843 0
M  V30 1546 H 145.908 5.33868 0.298083 0
M  V30 1547 H 146.251 3.95327 1.30471 0
M  V30 1548 H 146.784 3.95843 -0.394063 0
M  V30 1549 H 143.523 6.03698 -2.55399 0
M  V30 1550 H 143.043 5.93829 -0.844245 0
M  V30 1551 H 144.722 6.34203 -1.28047 0
M  V30 1552 N 144.854 0.36279 1.53368 0
M  V30 1553 C 145.801 -0.485008 2.25646 0
M  V30 1554 C 146.771 -1.07982 1.2621 0
M  V30 1555 O 147.956 -1.11284 1.54986 0
M  V30 1556 C 145.096 -1.62023 3.04701 0
M  V30 1557 C 144.209 -1.05086 4.19024 0
M  V30 1558 C 143.344 -2.15496 4.85525 0
M  V30 1559 C 142.383 -1.5601 5.91884 0
M  V30 1560 N 141.52 -2.60241 6.52088 0
M  V30 1561 H 146.36 0.137864 2.97681 0
M  V30 1562 H 143.897 0.0798061 1.46883 0
M  V30 1563 H 145.855 -2.28887 3.48807 0
M  V30 1564 H 144.485 -2.2138 2.34927 0
M  V30 1565 H 143.537 -0.27259 3.79422 0
M  V30 1566 H 144.849 -0.575926 4.95464 0
M  V30 1567 H 144.003 -2.90186 5.32801 0
M  V30 1568 H 142.742 -2.66341 4.08551 0
M  V30 1569 H 141.747 -0.798338 5.43973 0
M  V30 1570 H 142.972 -1.05994 6.70777 0
M  V30 1571 H 140.918 -3.10304 5.77968 0
M  V30 1572 H 140.835 -2.17426 7.24059 0
M  V30 1573 H 142.103 -3.34641 7.04014 0
M  V30 1574 N 146.332 -1.57332 0.0918853 0
M  V30 1575 C 147.578 -1.94524 -0.573425 0
M  V30 1576 C 147.911 -0.973578 -1.68033 0
M  V30 1577 O 147.186 -0.00609226 -1.94499 0
M  V30 1578 C 147.469 -3.41858 -1.13161 0
M  V30 1579 C 147.322 -4.4979 -0.0299747 0
M  V30 1580 C 148.641 -3.90435 -2.03098 0
M  V30 1581 H 145.76 -0.70734 -0.206975 0
M  V30 1582 H 148.402 -1.89309 0.161942 0
M  V30 1583 H 146.552 -3.46433 -1.7583 0
M  V30 1584 H 148.224 -4.57327 0.604112 0
M  V30 1585 H 146.467 -4.291 0.636833 0
M  V30 1586 H 147.138 -5.50069 -0.461287 0
M  V30 1587 H 149.614 -3.87992 -1.50338 0
M  V30 1588 H 148.49 -4.94097 -2.39081 0
M  V30 1589 H 148.751 -3.29541 -2.94712 0
M  V30 1590 N 147.81 0.181792 -1.56548 0
M  V30 1591 C 148.76 1.22961 -1.92002 0
M  V30 1592 C 149.744 1.40331 -0.787146 0
M  V30 1593 O 150.936 1.42478 -1.05019 0
M  V30 1594 C 148.065 2.57144 -2.27446 0
M  V30 1595 C 147.151 2.43512 -3.47222 0
M  V30 1596 N 147.542 1.99577 -4.64761 0
M  V30 1597 C 145.84 2.74368 -3.51622 0
M  V30 1598 C 146.541 1.98156 -5.46909 0
M  V30 1599 N 145.517 2.40164 -4.8767 0
M  V30 1600 H 149.319 0.881462 -2.8037 0
M  V30 1601 H 146.833 0.390141 -1.57644 0
M  V30 1602 H 148.83 3.32847 -2.51035 0
M  V30 1603 H 147.49 2.92771 -1.40411 0
M  V30 1604 H 148.501 1.70078 -4.89177 0
M  V30 1605 H 145.178 3.14102 -2.75038 0
M  V30 1606 H 146.568 1.65975 -6.51077 0
M  V30 1607 N 149.288 1.51039 0.449983 0
M  V30 1608 C 150.535 1.63081 1.20045 0
M  V30 1609 C 150.863 0.341024 1.91487 0
M  V30 1610 O 150.118 -0.674276 1.83717 0
M  V30 1611 C 150.417 2.77556 2.25161 0
M  V30 1612 C 150.083 4.17289 1.70823 0
M  V30 1613 C 148.745 4.55305 1.55725 0
M  V30 1614 C 151.097 5.04536 1.3074 0
M  V30 1615 C 148.425 5.78287 0.989999 0
M  V30 1616 C 150.777 6.28085 0.754482 0
M  V30 1617 C 149.441 6.64885 0.590308 0
M  V30 1618 H 148.711 0.596755 0.439277 0
M  V30 1619 H 151.358 1.85037 0.49333 0
M  V30 1620 H 149.663 2.49771 3.01863 0
M  V30 1621 H 151.36 2.84073 2.83026 0
M  V30 1622 H 147.95 3.8731 1.83546 0
M  V30 1623 H 152.134 4.75782 1.41229 0
M  V30 1624 H 147.39 6.05456 0.850451 0
M  V30 1625 H 151.564 6.95038 0.435324 0
M  V30 1626 H 149.191 7.60055 0.14862 0
M  V30 1627 N 150.766 -0.704594 1.40972 0
M  V30 1628 C 151.713 -1.81862 1.42109 0
M  V30 1629 C 152.683 -1.63781 0.276593 0
M  V30 1630 O 153.868 -1.84759 0.4763 0
M  V30 1631 C 151.008 -3.19669 1.30022 0
M  V30 1632 C 150.121 -3.49246 2.54267 0
M  V30 1633 C 149.256 -4.76618 2.3454 0
M  V30 1634 C 148.295 -4.99133 3.54306 0
M  V30 1635 N 147.432 -6.17726 3.33706 0
M  V30 1636 H 152.272 -1.80226 2.37324 0
M  V30 1637 H 149.809 -0.880238 1.17857 0
M  V30 1638 H 151.767 -3.99263 1.21018 0
M  V30 1639 H 150.397 -3.20506 0.384192 0
M  V30 1640 H 149.449 -2.64125 2.73756 0
M  V30 1641 H 150.761 -3.61788 3.43381 0
M  V30 1642 H 149.915 -5.64249 2.22952 0
M  V30 1643 H 148.654 -4.66305 1.42867 0
M  V30 1644 H 147.659 -4.09953 3.66359 0
M  V30 1645 H 148.884 -5.11311 4.4692 0
M  V30 1646 H 146.83 -6.08642 2.44725 0
M  V30 1647 H 146.747 -6.30995 4.16391 0
M  V30 1648 H 148.015 -7.08115 3.25873 0
M  V30 1649 N 152.244 -1.26651 -0.937939 0
M  V30 1650 C 153.192 -1.08308 -2.05845 0
M  V30 1651 C 154.186 -0.0090757 -1.69398 0
M  V30 1652 O 155.392 -0.166007 -1.79233 0
M  V30 1653 H 151.767 -0.333416 -0.674046 0
M  V30 1654 H 153.738 -2.03261 -2.18467 0
M  V30 1655 C 152.487 -0.736229 -3.39816 0
M  V30 1656 H 151.81 -1.55453 -3.6834 0
M  V30 1657 H 153.25 -0.64769 -4.19024 0
M  V30 1658 C 151.709 0.558824 -3.32233 0
M  V30 1659 O 152.239 1.59621 -3.68624 0
M  V30 1660 N 150.445 0.550657 -2.85335 0
M  V30 1661 H 149.992 -0.293943 -2.55917 0
M  V30 1662 H 149.95 1.41726 -2.80644 0
M  V30 1663 N 153.722 1.14298 -1.08507 0
M  V30 1664 C 154.669 2.19414 -0.715965 0
M  V30 1665 C 155.639 1.63399 0.298326 0
M  V30 1666 O 156.824 1.89929 0.182101 0
M  V30 1667 C 153.964 3.44845 -0.132534 0
M  V30 1668 C 153.077 4.15007 -1.19973 0
M  V30 1669 C 152.212 5.28024 -0.580048 0
M  V30 1670 C 151.251 5.9002 -1.62921 0
M  V30 1671 N 150.388 6.94485 -1.03125 0
M  V30 1672 H 155.228 2.50336 -1.61666 0
M  V30 1673 H 152.765 1.2293 -0.807882 0
M  V30 1674 H 154.723 4.16601 0.223454 0
M  V30 1675 H 153.353 3.14403 0.731467 0
M  V30 1676 H 152.405 3.41629 -1.67313 0
M  V30 1677 H 153.717 4.57178 -1.99473 0
M  V30 1678 H 152.871 6.06455 -0.172364 0
M  V30 1679 H 151.61 4.87076 0.246603 0
M  V30 1680 H 150.615 5.10291 -2.04654 0
M  V30 1681 H 151.84 6.33042 -2.45835 0
M  V30 1682 H 149.786 6.55612 -0.225711 0
M  V30 1683 H 149.703 7.35148 -1.76334 0
M  V30 1684 H 150.971 7.7679 -0.649458 0
M  V30 1685 N 155.201 0.870884 1.31352 0
M  V30 1686 C 156.164 0.332243 2.26779 0
M  V30 1687 C 157.164 -0.517302 1.52252 0
M  V30 1688 O 158.354 -0.326477 1.71113 0
M  V30 1689 C 155.486 -0.528066 3.36785 0
M  V30 1690 H 156.679 1.17469 2.75937 0
M  V30 1691 H 154.232 0.64655 1.423 0
M  V30 1692 H 154.967 -1.39167 2.92922 0
M  V30 1693 H 154.752 0.0802582 3.92018 0
M  V30 1694 H 156.242 -0.897179 4.07849 0
M  V30 1695 N 156.679 -1.44442 0.630414 0
M  V30 1696 C 157.956 -1.9549 0.0655657 0
M  V30 1697 C 158.336 -1.5724 -1.40851 0
M  V30 1698 O 157.684 -0.846116 -2.12257 0
M  V30 1699 C 157.894 -3.47812 0.287691 0
M  V30 1700 C 159.242 -4.24216 0.180513 0
M  V30 1701 O 160.266 -3.55526 0.219019 0
M  V30 1702 O 159.125 -5.46434 0.0848493 0
M  V30 1703 H 156.219 -0.826688 -0.0227177 0
M  V30 1704 H 158.765 -1.54496 0.702068 0
M  V30 1705 H 157.537 -3.687 1.31056 0
M  V30 1706 H 157.16 -3.95751 -0.382984 0
M  V30 1707 N 158.157 -0.370918 -1.53173 0
M  V30 1708 C 159.104 0.473035 -2.259 0
M  V30 1709 C 160.074 1.07311 -1.26781 0
M  V30 1710 O 161.259 1.1046 -1.55574 0
M  V30 1711 C 158.399 1.60405 -3.05556 0
M  V30 1712 C 157.512 1.02863 -4.19575 0
M  V30 1713 C 156.647 2.12918 -4.86661 0
M  V30 1714 C 155.686 1.52869 -5.92704 0
M  V30 1715 N 154.823 2.56779 -6.53459 0
M  V30 1716 H 159.663 -0.153649 -2.97604 0
M  V30 1717 H 157.2 -0.0875946 -1.46839 0
M  V30 1718 H 159.158 2.27034 -3.50016 0
M  V30 1719 H 157.788 2.20131 -2.36097 0
M  V30 1720 H 156.84 0.252465 -3.79561 0
M  V30 1721 H 158.152 0.549642 -4.95762 0
M  V30 1722 H 157.306 2.87356 -5.34333 0
M  V30 1723 H 156.045 2.6417 -4.09958 0
M  V30 1724 H 155.05 0.769479 -5.44389 0
M  V30 1725 H 156.275 1.02435 -6.7133 0
M  V30 1726 H 154.221 3.07235 -5.79606 0
M  V30 1727 H 154.138 2.13583 -7.25202 0
M  V30 1728 H 155.406 3.30903 -7.05779 0
M  V30 1729 N 159.635 1.57281 -0.100228 0
M  V30 1730 C 161.046 1.81725 0.428107 0
M  V30 1731 C 161.397 1.01619 1.67833 0
M  V30 1732 O 160.522 0.247098 2.14985 0
M  V30 1733 C 161.117 3.29617 0.78347 0
M  V30 1734 C 159.676 3.54808 1.25653 0
M  V30 1735 C 158.823 2.76118 0.255752 0
M  V30 1736 H 161.774 1.55324 -0.325608 0
M  V30 1737 H 161.795 3.4322 1.64256 0
M  V30 1738 H 161.307 3.87893 -0.12665 0
M  V30 1739 H 159.408 3.01868 2.18418 0
M  V30 1740 H 159.521 4.63443 1.21482 0
M  V30 1741 H 157.885 2.43745 0.738956 0
M  V30 1742 H 158.668 3.37145 -0.647136 0
M  V30 1743 N 161.113 -0.173488 1.56642 0
M  V30 1744 C 162.043 -1.2171 1.99271 0
M  V30 1745 C 163.024 -1.46289 0.867959 0
M  V30 1746 O 164.209 -1.5766 1.13388 0
M  V30 1747 C 161.339 -2.55651 2.35074 0
M  V30 1748 C 160.293 -2.45645 3.50489 0
M  V30 1749 C 159.619 -3.84056 3.72028 0
M  V30 1750 C 160.919 -1.96302 4.84007 0
M  V30 1751 H 162.613 -0.86275 2.867 0
M  V30 1752 H 160.159 -0.413571 1.37933 0
M  V30 1753 H 162.112 -3.2886 2.63494 0
M  V30 1754 H 160.836 -2.92869 1.44552 0
M  V30 1755 H 159.495 -1.7489 3.22194 0
M  V30 1756 H 159.143 -4.18664 2.788 0
M  V30 1757 H 158.843 -3.7823 4.49684 0
M  V30 1758 H 160.367 -4.58854 4.02846 0
M  V30 1759 H 161.781 -2.59284 5.11317 0
M  V30 1760 H 160.178 -2.01429 5.65284 0
M  V30 1761 H 161.248 -0.917226 4.76146 0
M  V30 1762 N 162.591 -1.51276 -0.441967 0
M  V30 1763 C 163.816 -1.67799 -1.21895 0
M  V30 1764 C 164.241 -0.372864 -1.84367 0
M  V30 1765 O 163.599 0.666501 -1.68604 0
M  V30 1766 C 163.647 -2.79199 -2.28211 0
M  V30 1767 O 162.751 -2.42479 -3.33583 0
M  V30 1768 H 162.092 -0.559649 -0.357336 0
M  V30 1769 H 164.622 -1.97815 -0.522522 0
M  V30 1770 H 164.632 -3.03146 -2.73069 0
M  V30 1771 H 163.307 -3.73906 -1.82118 0
M  V30 1772 H 161.884 -2.29087 -2.94234 0
M  V30 1773 N 164.069 0.697108 -1.41344 0
M  V30 1774 C 165.318 1.45279 -1.39918 0
M  V30 1775 C 165.631 1.95597 -0.0109624 0
M  V30 1776 O 166.837 2.71208 0.125919 0
M  V30 1777 C 165.293 2.62695 -2.46007 0
M  V30 1778 C 164.901 2.19169 -3.90729 0
M  V30 1779 C 166.645 3.40336 -2.53715 0
M  V30 1780 C 164.552 3.33535 -4.88373 0
M  V30 1781 H 163.482 0.545692 -0.520323 0
M  V30 1782 H 166.133 0.756929 -1.67161 0
M  V30 1783 H 164.515 3.34541 -2.11892 0
M  V30 1784 H 165.689 1.54623 -4.34083 0
M  V30 1785 H 164.004 1.54525 -3.86666 0
M  V30 1786 H 166.601 4.2547 -3.2385 0
M  V30 1787 H 166.944 3.85418 -1.5735 0
M  V30 1788 H 167.477 2.75546 -2.86913 0
M  V30 1789 H 164.216 2.93468 -5.86137 0
M  V30 1790 H 163.736 3.96936 -4.49668 0
M  V30 1791 H 165.415 3.99335 -5.09059 0
M  V30 1792 N 165.547 1.27147 0.931209 0
M  V30 1793 C 166.497 1.06227 2.01742 0
M  V30 1794 C 167.481 -0.00859065 1.60898 0
M  V30 1795 O 168.673 0.209537 1.75755 0
M  V30 1796 C 165.802 0.707787 3.35924 0
M  V30 1797 C 164.888 1.81661 3.83223 0
M  V30 1798 N 165.279 3.05564 4.03069 0
M  V30 1799 C 163.577 1.70249 4.12227 0
M  V30 1800 C 164.278 3.77697 4.42403 0
M  V30 1801 N 163.254 3.0544 4.49675 0
M  V30 1802 H 167.056 2.00261 2.15111 0
M  V30 1803 H 164.57 1.1781 1.11779 0
M  V30 1804 H 166.567 0.539043 4.134 0
M  V30 1805 H 165.227 -0.224964 3.2392 0
M  V30 1806 H 166.238 3.41363 3.89476 0
M  V30 1807 H 162.915 0.840329 4.08956 0
M  V30 1808 H 164.305 4.84168 4.65866 0
M  V30 1809 N 167.025 -1.13721 1.09112 0
M  V30 1810 C 168.436 -1.6648 0.845068 0
M  V30 1811 C 168.787 -1.85911 -0.62701 0
M  V30 1812 O 167.912 -1.57556 -1.48341 0
M  V30 1813 C 168.507 -3.02413 1.52748 0
M  V30 1814 C 167.066 -3.52176 1.32849 0
M  V30 1815 C 166.213 -2.27492 1.58564 0
M  V30 1816 H 169.164 -0.976872 1.25072 0
M  V30 1817 H 169.185 -3.68223 0.958752 0
M  V30 1818 H 168.697 -2.88238 2.59885 0
M  V30 1819 H 166.798 -3.7156 0.278137 0
M  V30 1820 H 166.911 -4.32499 2.0611 0
M  V30 1821 H 165.275 -2.33923 1.00758 0
M  V30 1822 H 166.058 -2.15886 2.66924 0
M  V30 1823 N 168.503 -0.877838 -1.30888 0
M  V30 1824 C 169.435 -0.296607 -2.27273 0
M  V30 1825 C 170.448 0.544799 -1.53414 0
M  V30 1826 O 171.637 0.365511 -1.74718 0
M  V30 1827 C 168.737 0.597481 -3.33592 0
M  V30 1828 C 167.91 -0.213251 -4.3688 0
M  V30 1829 C 166.969 0.610208 -5.2265 0
M  V30 1830 O 165.995 0.035441 -5.69189 0
M  V30 1831 N 167.197 1.92071 -5.47804 0
M  V30 1832 H 169.962 -1.12492 -2.77787 0
M  V30 1833 H 167.523 -0.740105 -1.43993 0
M  V30 1834 H 169.515 1.15425 -3.87891 0
M  V30 1835 H 168.085 1.32647 -2.83061 0
M  V30 1836 H 167.305 -0.951466 -3.82545 0
M  V30 1837 H 168.593 -0.769262 -5.02951 0
M  V30 1838 H 167.991 2.4107 -5.11763 0
M  V30 1839 H 166.548 2.42508 -6.05007 0
M  V30 1840 N 169.982 1.44106 -0.638065 0
M  V30 1841 C 171.23 2.01579 -0.145043 0
M  V30 1842 C 171.551 1.50496 1.24 0
M  V30 1843 O 170.821 0.711374 1.82527 0
M  V30 1844 H 169.401 0.745282 -0.05063 0
M  V30 1845 H 172.063 1.76516 -0.826327 0
M  V30 1846 H 171.159 3.11877 -0.118039 0
M  V30 1847 N 171.46 0.379036 1.52974 0
M  V30 1848 C 172.709 -0.207612 2.00629 0
M  V30 1849 C 173.022 -1.48758 1.27006 0
M  V30 1850 O 174.228 -2.15365 1.65318 0
M  V30 1851 C 172.684 -0.42053 3.57435 0
M  V30 1852 C 172.292 0.845587 4.39948 0
M  V30 1853 C 174.036 -0.964102 4.13407 0
M  V30 1854 C 171.943 0.601513 5.88333 0
M  V30 1855 H 170.873 -0.0813591 0.749598 0
M  V30 1856 H 173.524 0.499853 1.76561 0
M  V30 1857 H 171.906 -1.18959 3.7771 0
M  V30 1858 H 173.08 1.61848 4.31442 0
M  V30 1859 H 171.395 1.31336 3.95145 0
M  V30 1860 H 173.992 -1.16225 5.21916 0
M  V30 1861 H 174.335 -1.93019 3.68849 0
M  V30 1862 H 174.868 -0.25487 3.96983 0
M  V30 1863 H 171.607 1.53831 6.37194 0
M  V30 1864 H 171.127 -0.132628 5.99653 0
M  V30 1865 H 172.806 0.232134 6.46583 0
M  V30 1866 N 172.938 -1.57226 0.108567 0
M  V30 1867 C 174.354 -1.5766 -0.248058 0
M  V30 1868 C 174.554 -1.12063 -1.67464 0
M  V30 1869 O 173.61 -0.803236 -2.39383 0
M  V30 1870 C 174.923 -3.0069 -0.0242287 0
M  V30 1871 C 176.471 -3.12868 -0.0909372 0
M  V30 1872 C 176.946 -4.57879 0.105067 0
M  V30 1873 N 178.437 -4.63172 0.0506846 0
M  V30 1874 C 179.172 -5.73126 0.177396 0
M  V30 1875 N 178.668 -6.91866 0.359696 0
M  V30 1876 N 180.461 -5.61977 0.117709 0
M  V30 1877 H 172.612 -1.85169 1.04049 0
M  V30 1878 H 174.875 -0.85529 0.40888 0
M  V30 1879 H 174.581 -3.38299 0.961604 0
M  V30 1880 H 174.455 -3.6945 -0.76068 0
M  V30 1881 H 176.842 -2.75124 -1.06729 0
M  V30 1882 H 176.923 -2.46672 0.677225 0
M  V30 1883 H 176.567 -4.96321 1.07834 0
M  V30 1884 H 176.497 -5.22153 -0.682954 0
M  V30 1885 H 178.988 -3.778 -0.0871266 0
M  V30 1886 H 179.301 -7.71503 0.447529 0
M  V30 1887 H 177.646 -6.93874 0.395536 0
M  V30 1888 H 180.837 -4.68094 -0.0236741 0
M  V30 1889 H 181.01 -6.47627 0.219905 0
M  V30 1890 N 174.416 0.165178 -1.56732 0
M  V30 1891 C 175.646 0.894919 -1.86212 0
M  V30 1892 C 176.054 1.76066 -0.692627 0
M  V30 1893 O 175.397 1.80387 0.347303 0
M  V30 1894 C 175.459 1.8174 -3.10179 0
M  V30 1895 C 175.123 1.13064 -4.42793 0
M  V30 1896 C 176.12 0.493169 -5.17556 0
M  V30 1897 C 173.805 1.12556 -4.89527 0
M  V30 1898 C 175.799 -0.140209 -6.37246 0
M  V30 1899 C 173.486 0.488366 -6.09145 0
M  V30 1900 C 174.484 -0.143411 -6.82849 0
M  V30 1901 O 174.172 -0.77055 -8.00199 0
M  V30 1902 H 173.904 0.265114 -0.621844 0
M  V30 1903 H 176.458 0.168242 -2.0471 0
M  V30 1904 H 174.688 2.58455 -2.87642 0
M  V30 1905 H 176.377 2.4175 -3.26055 0
M  V30 1906 H 177.143 0.489023 -4.82528 0
M  V30 1907 H 173.022 1.60672 -4.32094 0
M  V30 1908 H 176.566 -0.633932 -6.94714 0
M  V30 1909 H 172.463 0.490116 -6.43637 0
M  V30 1910 H 173.231 -0.670408 -8.1575 0
M  V30 1911 N 175.894 1.51508 0.433938 0
M  V30 1912 C 177.119 1.68443 1.21003 0
M  V30 1913 C 177.544 0.382636 1.84167 0
M  V30 1914 O 176.902 -0.65755 1.68956 0
M  V30 1915 C 176.95 2.80405 2.26727 0
M  V30 1916 O 176.054 2.44245 3.32292 0
M  V30 1917 H 175.395 0.561536 0.354363 0
M  V30 1918 H 177.925 1.9809 0.512024 0
M  V30 1919 H 177.935 3.0459 2.71457 0
M  V30 1920 H 176.61 3.74867 1.80132 0
M  V30 1921 H 175.187 2.30644 2.93015 0
M  V30 1922 N 177.372 -0.689602 1.41712 0
M  V30 1923 C 178.319 -1.80345 1.44029 0
M  V30 1924 C 179.289 -1.63478 0.293948 0
M  V30 1925 O 180.474 -1.84244 0.495869 0
M  V30 1926 C 177.614 -3.18272 1.33405 0
M  V30 1927 C 176.727 -3.46529 2.57956 0
M  V30 1928 C 175.862 -4.74103 2.39582 0
M  V30 1929 C 174.901 -4.95347 3.5958 0
M  V30 1930 N 174.038 -6.14151 3.40239 0
M  V30 1931 H 178.878 -1.77698 2.39222 0
M  V30 1932 H 176.415 -0.867688 1.18784 0
M  V30 1933 H 178.373 -3.97956 1.25246 0
M  V30 1934 H 177.003 -3.2008 0.418164 0
M  V30 1935 H 176.055 -2.61207 2.76542 0
M  V30 1936 H 177.367 -3.58126 3.47199 0
M  V30 1937 H 176.521 -5.61853 2.28924 0
M  V30 1938 H 175.26 -4.64763 1.47805 0
M  V30 1939 H 174.265 -4.06044 3.70686 0
M  V30 1940 H 175.49 -5.06542 4.52318 0
M  V30 1941 H 173.436 -6.06013 2.51167 0
M  V30 1942 H 173.353 -6.26543 4.23061 0
M  V30 1943 H 174.621 -7.04619 3.33365 0
M  V30 1944 N 178.85 -1.27639 -0.924453 0
M  V30 1945 C 179.78 -1.13166 -2.04244 0
M  V30 1946 C 180.761 -0.032256 -1.70069 0
M  V30 1947 O 181.946 -0.207328 -1.9309 0
M  V30 1948 C 179.076 -0.781496 -3.38393 0
M  V30 1949 C 178.03 -1.83449 -3.86692 0
M  V30 1950 C 177.356 -1.33822 -5.17683 0
M  V30 1951 C 178.656 -3.23917 -4.09726 0
M  V30 1952 H 180.35 -2.06689 -2.1661 0
M  V30 1953 H 177.896 -0.995136 -1.04082 0
M  V30 1954 H 179.849 -0.667057 -4.16087 0
M  V30 1955 H 178.573 0.189439 -3.2605 0
M  V30 1956 H 177.232 -1.93789 -3.11193 0
M  V30 1957 H 176.88 -0.35665 -5.01734 0
M  V30 1958 H 176.58 -2.04224 -5.50968 0
M  V30 1959 H 178.104 -1.23679 -5.97943 0
M  V30 1960 H 179.518 -3.16559 -4.77978 0
M  V30 1961 H 177.915 -3.92059 -4.54324 0
M  V30 1962 H 178.985 -3.68729 -3.14908 0
M  V30 1963 N 180.328 1.1314 -1.09713 0
M  V30 1964 C 181.553 1.88862 -0.857081 0
M  V30 1965 C 181.978 1.78729 0.586304 0
M  V30 1966 O 181.336 1.13692 1.41222 0
M  V30 1967 C 181.384 3.36325 -1.30069 0
M  V30 1968 O 180.488 4.09815 -0.461007 0
M  V30 1969 H 179.829 0.587108 -0.310162 0
M  V30 1970 H 182.359 1.43129 -1.46203 0
M  V30 1971 H 182.369 3.87157 -1.28738 0
M  V30 1972 H 181.044 3.43017 -2.35185 0
M  V30 1973 H 179.621 3.68986 -0.538888 0
M  V30 1974 N 181.806 0.884767 1.30421 0
M  V30 1975 C 182.716 0.355398 2.31892 0
M  V30 1976 C 183.732 -0.542261 1.65335 0
M  V30 1977 O 184.908 -0.435432 1.96637 0
M  V30 1978 C 181.973 -0.421661 3.44126 0
M  V30 1979 C 181.034 0.505727 4.26311 0
M  V30 1980 C 180.267 -0.234343 5.33185 0
M  V30 1981 O 180.49 -1.46045 5.51386 0
M  V30 1982 O 179.424 0.415443 6.00465 0
M  V30 1983 H 183.25 1.19685 2.79122 0
M  V30 1984 H 180.835 0.648596 1.34587 0
M  V30 1985 H 182.717 -0.861641 4.12497 0
M  V30 1986 H 181.392 -1.23942 2.99032 0
M  V30 1987 H 180.299 0.994513 3.60639 0
M  V30 1988 H 181.632 1.28948 4.75009 0
M  V30 1989 N 183.284 -1.43765 0.645699 0
M  V30 1990 C 184.532 -2.01499 0.155731 0
M  V30 1991 C 184.853 -1.51151 -1.232 0
M  V30 1992 O 184.123 -0.721044 -1.82148 0
M  V30 1993 H 182.703 -0.745003 0.0545817 0
M  V30 1994 H 185.365 -1.76075 0.835677 0
M  V30 1995 H 184.461 -3.1181 0.134577 0
M  V30 1996 N 184.763 -0.387143 -1.52771 0
M  V30 1997 C 185.726 0.436939 -2.24997 0
M  V30 1998 C 186.726 0.991991 -1.26555 0
M  V30 1999 O 187.916 0.874335 -1.50669 0
M  V30 2000 C 185.048 1.61281 -3.00335 0
M  V30 2001 H 186.241 -0.195365 -2.99263 0
M  V30 2002 H 183.794 -0.139218 -1.55679 0
M  V30 2003 H 184.529 2.2826 -2.30364 0
M  V30 2004 H 184.314 1.22154 -3.72587 0
M  V30 2005 H 185.804 2.19629 -3.5518 0
M  V30 2006 N 186.241 1.57166 -0.116904 0
M  V30 2007 C 187.466 1.999 0.55271 0
M  V30 2008 C 187.891 0.996039 1.59564 0
M  V30 2009 O 187.249 -0.032556 1.81271 0
M  V30 2010 C 187.297 3.4152 1.15742 0
M  V30 2011 O 186.401 3.44106 2.27299 0
M  V30 2012 H 185.742 0.649447 0.138258 0
M  V30 2013 H 188.272 2.03573 -0.204759 0
M  V30 2014 H 188.282 3.79684 1.49346 0
M  V30 2015 H 186.957 4.14034 0.393493 0
M  V30 2016 H 185.534 3.17759 1.9515 0
M  V30 2017 N 187.719 -0.156864 1.56817 0
M  V30 2018 C 188.949 -0.885031 1.86684 0
M  V30 2019 C 189.357 -1.75696 0.701954 0
M  V30 2020 O 188.7 -1.80569 -0.337732 0
M  V30 2021 C 188.762 -1.80092 3.11138 0
M  V30 2022 C 188.426 -1.10714 4.43386 0
M  V30 2023 C 189.423 -0.465714 5.1781 0
M  V30 2024 C 187.108 -1.09959 4.90117 0
M  V30 2025 C 189.102 0.174002 6.37162 0
M  V30 2026 C 186.789 -0.456055 6.09396 0
M  V30 2027 C 187.787 0.179622 6.82764 0
M  V30 2028 O 187.475 0.812975 7.99779 0
M  V30 2029 H 187.207 -0.261813 0.623242 0
M  V30 2030 H 189.761 -0.157383 2.04796 0
M  V30 2031 H 187.991 -2.56926 2.89009 0
M  V30 2032 H 189.68 -2.40018 3.27332 0
M  V30 2033 H 190.446 -0.463427 4.82781 0
M  V30 2034 H 186.325 -1.58378 4.3294 0
M  V30 2035 H 189.869 0.670765 6.94368 0
M  V30 2036 H 185.766 -0.455975 6.43888 0
M  V30 2037 H 186.534 0.71366 8.15383 0
M  V30 2038 N 189.197 -1.51736 -0.425897 0
M  V30 2039 C 190.127 -1.76827 -1.52494 0
M  V30 2040 C 191.108 -0.618524 -1.58456 0
M  V30 2041 O 192.293 -0.862416 -1.74 0
M  V30 2042 C 189.423 -1.90374 -2.90474 0
M  V30 2043 C 188.377 -3.0588 -2.99369 0
M  V30 2044 C 187.703 -3.04625 -4.3944 0
M  V30 2045 C 189.003 -4.45644 -2.72394 0
M  V30 2046 H 190.697 -2.68855 -1.31748 0
M  V30 2047 H 188.243 -1.29372 -0.632362 0
M  V30 2048 H 190.196 -2.0651 -3.6733 0
M  V30 2049 H 188.92 -0.95004 -3.12477 0
M  V30 2050 H 187.579 -2.89467 -2.24954 0
M  V30 2051 H 187.227 -2.0701 -4.58428 0
M  V30 2052 H 186.927 -3.82195 -4.46319 0
M  V30 2053 H 188.451 -3.22869 -5.18255 0
M  V30 2054 H 189.865 -4.62348 -3.38979 0
M  V30 2055 H 188.262 -5.25006 -2.9067 0
M  V30 2056 H 189.332 -4.54893 -1.67929 0
M  V30 2057 N 190.675 0.682077 -1.42076 0
M  V30 2058 C 191.952 1.43755 -1.32642 0
M  V30 2059 C 192.332 2.11063 0.0396611 0
M  V30 2060 O 191.68 2.02701 1.05474 0
M  V30 2061 C 191.89 2.44596 -2.48946 0
M  V30 2062 C 193.238 3.09454 -2.9073 0
M  V30 2063 O 194.262 2.54922 -2.48783 0
M  V30 2064 O 193.121 4.08253 -3.63307 0
M  V30 2065 H 190.215 0.640857 -0.522715 0
M  V30 2066 H 192.761 0.711415 -1.54068 0
M  V30 2067 H 191.533 1.93609 -3.40046 0
M  V30 2068 H 191.156 3.24701 -2.29467 0
M  V30 2069 N 192.153 1.28127 0.917671 0
M  V30 2070 C 193.103 1.08361 2.00604 0
M  V30 2071 C 194.087 0.00847518 1.60898 0
M  V30 2072 O 195.279 0.228167 1.75523 0
M  V30 2073 C 192.408 0.743376 3.35155 0
M  V30 2074 C 191.494 1.85716 3.81275 0
M  V30 2075 N 191.885 3.09822 3.99805 0
M  V30 2076 C 190.183 1.74612 4.10398 0
M  V30 2077 C 190.884 3.82368 4.38372 0
M  V30 2078 N 189.86 3.10192 4.4641 0
M  V30 2079 H 193.662 2.02531 2.12975 0
M  V30 2080 H 191.176 1.18989 1.10523 0
M  V30 2081 H 193.173 0.582859 4.12805 0
M  V30 2082 H 191.833 -0.190595 3.2414 0
M  V30 2083 H 192.844 3.45475 3.85833 0
M  V30 2084 H 189.521 0.883657 4.08041 0
M  V30 2085 H 190.911 4.89082 4.60704 0
M  V30 2086 N 193.631 -1.12557 1.10312 0
M  V30 2087 C 194.859 -1.87864 0.866873 0
M  V30 2088 C 195.274 -1.79588 -0.582557 0
M  V30 2089 O 194.631 -1.16887 -1.40156 0
M  V30 2090 C 194.682 -3.37125 1.30496 0
M  V30 2091 O 194.403 -3.45201 2.69755 0
M  V30 2092 C 195.904 -4.29373 1.10243 0
M  V30 2093 H 193.124 -0.594452 0.311236 0
M  V30 2094 H 195.668 -1.42429 1.46745 0
M  V30 2095 H 193.823 -3.80109 0.748081 0
M  V30 2096 H 194.237 -4.38056 2.88457 0
M  V30 2097 H 195.711 -5.32394 1.45811 0
M  V30 2098 H 196.188 -4.39181 0.0409492 0
M  V30 2099 H 196.794 -3.92169 1.64571 0
M  V30 2100 N 195.109 -0.891671 -1.2995 0
M  V30 2101 C 196.356 -0.513501 -1.95881 0
M  V30 2102 C 196.684 0.938655 -1.70351 0
M  V30 2103 O 195.939 1.67936 -1.00478 0
M  V30 2104 C 196.238 -0.742868 -3.49594 0
M  V30 2105 C 195.904 -2.17114 -3.95186 0
M  V30 2106 C 194.566 -2.56169 -4.07346 0
M  V30 2107 C 196.918 -3.10162 -4.18866 0
M  V30 2108 C 194.246 -3.87469 -4.4055 0
M  V30 2109 C 196.598 -4.41001 -4.53542 0
M  V30 2110 C 195.262 -4.79941 -4.63911 0
M  V30 2111 H 194.532 -0.187903 -0.71678 0
M  V30 2112 H 197.179 -1.1288 -1.54694 0
M  V30 2113 H 195.484 -0.044586 -3.91775 0
M  V30 2114 H 197.181 -0.429767 -3.9869 0
M  V30 2115 H 193.771 -1.85801 -3.86233 0
M  V30 2116 H 197.955 -2.81206 -4.08946 0
M  V30 2117 H 193.211 -4.17371 -4.46779 0
M  V30 2118 H 197.385 -5.13133 -4.70815 0
M  V30 2119 H 195.012 -5.81719 -4.89395 0
M  V30 2120 N 196.587 1.43421 -0.653314 0
M  V30 2121 C 197.998 1.85065 -0.246537 0
M  V30 2122 C 198.349 1.54688 1.2069 0
M  V30 2123 O 197.474 0.995896 1.92122 0
M  V30 2124 C 198.069 3.35922 -0.440666 0
M  V30 2125 C 196.628 3.76297 -0.0882064 0
M  V30 2126 C 195.775 2.67147 -0.743484 0
M  V30 2127 H 198.726 1.33572 -0.856979 0
M  V30 2128 H 198.747 3.79204 0.313798 0
M  V30 2129 H 198.259 3.58 -1.49858 0
M  V30 2130 H 196.36 3.5983 0.96711 0
M  V30 2131 H 196.473 4.76338 -0.513738 0
M  V30 2132 H 194.837 2.54086 -0.176712 0
M  V30 2133 H 195.62 2.92053 -1.80443 0
M  V30 2134 N 198.065 0.39524 1.52563 0
M  V30 2135 C 199.028 -0.425001 2.25225 0
M  V30 2136 C 200.028 -0.985266 1.27079 0
M  V30 2137 O 201.218 -0.866332 1.5113 0
M  V30 2138 C 198.35 -1.59686 3.01186 0
M  V30 2139 H 199.543 0.211233 2.99155 0
M  V30 2140 H 197.096 0.147472 1.55603 0
M  V30 2141 H 197.831 -2.27035 2.31572 0
M  V30 2142 H 197.616 -1.20176 3.73229 0
M  V30 2143 H 199.106 -2.17743 3.5634 0
M  V30 2144 N 199.544 -1.57102 0.125237 0
M  V30 2145 C 200.454 -2.19191 -0.8362 0
M  V30 2146 C 201.47 -1.16985 -1.28805 0
M  V30 2147 O 202.646 -1.49479 -1.34974 0
M  V30 2148 C 199.711 -2.78407 -2.06617 0
M  V30 2149 C 198.772 -3.9567 -1.66565 0
M  V30 2150 C 198.005 -4.52052 -2.83698 0
M  V30 2151 O 198.228 -4.07326 -3.99302 0
M  V30 2152 O 197.162 -5.42645 -2.60423 0
M  V30 2153 H 200.988 -3.01816 -0.337776 0
M  V30 2154 H 198.573 -1.4906 -0.100695 0
M  V30 2155 H 200.455 -3.16129 -2.7864 0
M  V30 2156 H 199.13 -1.9881 -2.55453 0
M  V30 2157 H 198.037 -3.62705 -0.916296 0
M  V30 2158 H 199.37 -4.76722 -1.22464 0
M  V30 2159 N 201.022 0.148545 -1.56898 0
M  V30 2160 C 201.969 1.18345 -1.98149 0
M  V30 2161 C 202.939 1.42772 -0.848848 0
M  V30 2162 O 204.124 1.55132 -1.11079 0
M  V30 2163 C 201.264 2.51231 -2.36594 0
M  V30 2164 C 200.377 2.33991 -3.63142 0
M  V30 2165 C 199.512 3.59902 -3.90697 0
M  V30 2166 C 198.551 3.37692 -5.1052 0
M  V30 2167 N 197.688 4.5573 -5.34092 0
M  V30 2168 H 202.528 0.82467 -2.86362 0
M  V30 2169 H 200.065 0.395756 -1.41676 0
M  V30 2170 H 202.023 3.28713 -2.56912 0
M  V30 2171 H 200.653 2.85059 -1.51463 0
M  V30 2172 H 199.705 1.47572 -3.50609 0
M  V30 2173 H 201.017 2.13539 -4.5078 0
M  V30 2174 H 200.171 4.45813 -4.11505 0
M  V30 2175 H 198.91 3.83357 -3.01477 0
M  V30 2176 H 197.915 2.5017 -4.89587 0
M  V30 2177 H 199.14 3.15637 -6.0129 0
M  V30 2178 H 197.086 4.79361 -4.47827 0
M  V30 2179 H 197.003 4.38274 -6.15996 0
M  V30 2180 H 198.271 5.42858 -5.59397 0
M  V30 2181 N 202.5 1.5196 0.417844 0
M  V30 2182 C 203.433 1.69387 1.52916 0
M  V30 2183 C 204.411 0.541419 1.53321 0
M  V30 2184 O 205.595 0.767695 1.72159 0
M  V30 2185 C 202.722 1.72525 2.91467 0
M  V30 2186 C 201.768 2.93967 3.09008 0
M  V30 2187 S 202.601 4.54461 2.83242 0
M  V30 2188 C 203.757 4.60372 4.24038 0
M  V30 2189 H 203.99 2.63382 1.37903 0
M  V30 2190 H 201.523 1.41889 0.608845 0
M  V30 2191 H 203.481 1.75018 3.7132 0
M  V30 2192 H 202.142 0.796733 3.03827 0
M  V30 2193 H 201.335 2.92619 4.10353 0
M  V30 2194 H 200.937 2.89316 2.37007 0
M  V30 2195 H 203.229 4.37213 5.17544 0
M  V30 2196 H 204.172 5.62273 4.30412 0
M  V30 2197 H 204.58 3.89492 4.08602 0
M  V30 2198 N 203.978 -0.674533 1.42435 0
M  V30 2199 C 205.255 -1.4305 1.33402 0
M  V30 2200 C 205.635 -2.11081 -0.0284674 0
M  V30 2201 O 204.983 -2.03257 -1.04397 0
M  V30 2202 C 205.193 -2.43272 2.50239 0
M  V30 2203 C 206.541 -3.07907 2.92367 0
M  V30 2204 O 207.565 -2.53599 2.50132 0
M  V30 2205 O 206.424 -4.0632 3.65467 0
M  V30 2206 H 203.518 -0.638076 0.526106 0
M  V30 2207 H 206.064 -0.703235 1.54443 0
M  V30 2208 H 204.836 -1.91803 3.41068 0
M  V30 2209 H 204.459 -3.23479 2.31186 0
M  V30 2210 N 205.456 -1.28612 -0.910864 0
M  V30 2211 C 206.733 -1.06632 -1.63979 0
M  V30 2212 C 207.113 0.393351 -2.07403 0
M  V30 2213 O 206.461 1.37999 -1.82122 0
M  V30 2214 C 206.671 -2.0436 -2.8291 0
M  V30 2215 C 208.019 -2.34666 -3.5386 0
M  V30 2216 O 209.043 -2.02467 -2.93062 0
M  V30 2217 O 207.902 -2.89631 -4.63439 0
M  V30 2218 H 204.996 -0.407737 -0.7195 0
M  V30 2219 H 207.542 -1.39942 -0.959914 0
M  V30 2220 H 206.314 -3.02727 -2.47936 0
M  V30 2221 H 205.937 -1.71714 -3.58609 0
M  V30 2222 N 206.934 1.1197 -1.10907 0
M  V30 2223 C 207.897 2.16031 -0.765707 0
M  V30 2224 C 208.897 1.59393 0.212235 0
M  V30 2225 O 210.087 1.74196 -0.0115441 0
M  V30 2226 C 207.219 3.40632 -0.135053 0
M  V30 2227 H 208.412 2.47919 -1.68748 0
M  V30 2228 H 205.965 1.27061 -0.910226 0
M  V30 2229 H 206.7 3.14348 0.797218 0
M  V30 2230 H 206.485 3.8302 -0.838937 0
M  V30 2231 H 207.975 4.17505 0.0892469 0
M  V30 2232 N 208.412 0.89855 1.29475 0
M  V30 2233 C 209.658 0.524658 1.95896 0
M  V30 2234 C 209.991 -0.926468 1.70676 0
M  V30 2235 O 209.266 -1.65665 1.01908 0
M  V30 2236 C 209.549 0.81633 3.50725 0
M  V30 2237 C 209.402 2.31907 3.85408 0
M  V30 2238 C 210.721 0.302038 4.39062 0
M  V30 2239 H 207.84 0.19209 0.711527 0
M  V30 2240 H 210.482 1.12502 1.53112 0
M  V30 2241 H 208.632 0.305369 3.87298 0
M  V30 2242 H 210.304 2.89949 3.58786 0
M  V30 2243 H 208.547 2.78027 3.32992 0
M  V30 2244 H 209.218 2.47373 4.93468 0
M  V30 2245 H 211.694 0.739551 4.09475 0
M  V30 2246 H 210.57 0.535331 5.46283 0
M  V30 2247 H 210.831 -0.797216 4.34853 0
M  V30 2248 N 209.89 -1.43072 0.660911 0
M  V30 2249 C 210.853 -2.29194 -0.0166406 0
M  V30 2250 C 211.853 -1.42609 -0.742912 0
M  V30 2251 O 213.043 -1.64155 -0.583004 0
M  V30 2252 C 210.175 -3.24831 -1.0343 0
M  V30 2253 H 211.368 -2.90596 0.741208 0
M  V30 2254 H 208.921 -1.5048 0.422532 0
M  V30 2255 H 209.656 -2.68339 -1.82111 0
M  V30 2256 H 209.441 -3.88676 -0.517082 0
M  V30 2257 H 210.931 -3.89451 -1.50723 0
M  V30 2258 N 211.368 -0.403325 -1.52352 0
M  V30 2259 C 212.779 0.0675782 -1.86578 0
M  V30 2260 C 213.13 1.44941 -1.32236 0
M  V30 2261 O 212.255 2.06112 -0.659307 0
M  V30 2262 C 212.85 0.129404 -3.38553 0
M  V30 2263 C 211.409 0.544629 -3.72439 0
M  V30 2264 C 210.556 -0.284551 -2.75836 0
M  V30 2265 H 213.507 -0.620631 -1.46061 0
M  V30 2266 H 213.528 0.94581 -3.68558 0
M  V30 2267 H 213.04 -0.87645 -3.78074 0
M  V30 2268 H 211.141 1.55734 -3.38493 0
M  V30 2269 H 211.254 0.293046 -4.78203 0
M  V30 2270 H 209.618 0.252258 -2.53448 0
M  V30 2271 H 210.401 -1.28865 -3.18196 0
M  V30 2272 N 212.846 1.57033 -0.133567 0
M  V30 2273 C 214.094 1.953 0.519848 0
M  V30 2274 C 214.415 1.01866 1.66278 0
M  V30 2275 O 213.685 0.0776513 1.95746 0
M  V30 2276 H 212.265 0.721091 0.195032 0
M  V30 2277 H 214.927 1.93809 -0.205921 0
M  V30 2278 H 214.023 2.98695 0.904854 0
M  V30 2279 N 214.325 -0.140222 1.56975 0
M  V30 2280 C 215.741 -0.493088 1.51792 0
M  V30 2281 C 215.941 -1.83013 0.843116 0
M  V30 2282 O 214.997 -2.49041 0.416493 0
M  V30 2283 C 216.31 -0.497144 2.96562 0
M  V30 2284 C 217.858 -0.582186 3.07538 0
M  V30 2285 C 218.333 -0.616838 4.53827 0
M  V30 2286 N 219.824 -0.678873 4.58198 0
M  V30 2287 C 220.559 -0.726782 5.68775 0
M  V30 2288 N 220.055 -0.733623 6.88905 0
M  V30 2289 N 221.848 -0.768179 5.56826 0
M  V30 2290 H 213.999 0.736108 1.99237 0
M  V30 2291 H 216.262 0.269182 0.90898 0
M  V30 2292 H 215.968 0.417217 3.49217 0
M  V30 2293 H 215.842 -1.33263 3.52875 0
M  V30 2294 H 218.229 -1.48697 2.54899 0
M  V30 2295 H 218.31 0.280581 2.54257 0
M  V30 2296 H 217.954 0.283812 5.07106 0
M  V30 2297 H 217.884 -1.49619 5.04898 0
M  V30 2298 H 220.375 -0.68061 3.7172 0
M  V30 2299 H 220.688 -0.772215 7.68932 0
M  V30 2300 H 219.033 -0.701389 6.91452 0
M  V30 2301 H 222.224 -0.760051 4.61888 0
M  V30 2302 H 222.397 -0.80205 6.43017 0
M  V30 2303 N 215.803 -1.52179 -0.40978 0
M  V30 2304 C 216.713 -1.78364 -1.52392 0
M  V30 2305 C 217.729 -0.669183 -1.60617 0
M  V30 2306 O 218.905 -0.954518 -1.77344 0
M  V30 2307 C 215.97 -1.92822 -2.88133 0
M  V30 2308 C 215.031 -3.16725 -2.898 0
M  V30 2309 C 214.264 -3.30483 -4.19067 0
M  V30 2310 O 214.487 -2.49522 -5.12928 0
M  V30 2311 O 213.421 -4.2363 -4.27576 0
M  V30 2312 H 217.247 -2.72931 -1.33201 0
M  V30 2313 H 214.832 -1.37016 -0.59557 0
M  V30 2314 H 216.714 -2.04157 -3.68643 0
M  V30 2315 H 215.389 -1.01444 -3.07393 0
M  V30 2316 H 214.296 -3.10848 -2.08146 0
M  V30 2317 H 215.629 -4.07881 -2.75489 0
M  V30 2318 N 217.281 0.66697 -1.42791 0
M  V30 2319 C 218.511 1.45294 -1.46878 0
M  V30 2320 C 218.919 1.89027 -0.0809861 0
M  V30 2321 O 218.262 1.59219 0.916246 0
M  V30 2322 C 218.324 2.72908 -2.34012 0
M  V30 2323 C 217.988 2.51203 -3.81767 0
M  V30 2324 C 218.985 2.15302 -4.73224 0
M  V30 2325 C 216.67 2.65954 -4.26115 0
M  V30 2326 C 218.664 1.94431 -6.07022 0
M  V30 2327 C 216.351 2.44699 -5.59969 0
M  V30 2328 C 217.349 2.08992 -6.5024 0
M  V30 2329 O 217.037 1.87948 -7.81621 0
M  V30 2330 H 216.769 0.453306 -0.501487 0
M  V30 2331 H 219.323 0.826232 -1.88049 0
M  V30 2332 H 217.553 3.38089 -1.87703 0
M  V30 2333 H 219.242 3.34816 -2.29462 0
M  V30 2334 H 220.008 2.03495 -4.40244 0
M  V30 2335 H 215.887 2.92724 -3.56137 0
M  V30 2336 H 219.431 1.66484 -6.77443 0
M  V30 2337 H 215.328 2.56105 -5.9252 0
M  V30 2338 H 216.096 2.02483 -7.93059 0
M  V30 2339 N 218.759 1.29093 0.90403 0
M  V30 2340 C 219.987 1.19689 1.68766 0
M  V30 2341 C 220.402 -0.243113 1.87228 0
M  V30 2342 O 219.759 -1.16326 1.40621 0
M  V30 2343 C 219.81 1.90144 3.07453 0
M  V30 2344 O 219.531 3.2852 2.89838 0
M  V30 2345 C 221.032 1.87162 4.01852 0
M  V30 2346 H 218.252 0.415035 0.527244 0
M  V30 2347 H 220.796 1.7039 1.13082 0
M  V30 2348 H 218.951 1.43289 3.59926 0
M  V30 2349 H 219.365 3.63944 3.77684 0
M  V30 2350 H 220.839 2.41032 4.96596 0
M  V30 2351 H 221.316 0.84617 4.30972 0
M  V30 2352 H 221.922 2.33741 3.5531 0
M  V30 2353 N 220.237 -1.11381 1.11499 0
M  V30 2354 C 221.467 -1.86663 0.885464 0
M  V30 2355 C 221.875 -1.80464 -0.568281 0
M  V30 2356 O 221.218 -1.18445 -1.40415 0
M  V30 2357 C 221.28 -3.36337 1.26956 0
M  V30 2358 C 220.944 -3.66304 2.73259 0
M  V30 2359 C 221.941 -3.63733 3.71476 0
M  V30 2360 C 219.626 -3.9529 3.09921 0
M  V30 2361 C 221.62 -3.89725 5.04374 0
M  V30 2362 C 219.307 -4.20941 4.43004 0
M  V30 2363 C 220.305 -4.18147 5.40039 0
M  V30 2364 O 219.993 -4.43153 6.70724 0
M  V30 2365 H 219.725 -0.597114 0.316908 0
M  V30 2366 H 222.279 -1.41782 1.48617 0
M  V30 2367 H 220.509 -3.81826 0.611999 0
M  V30 2368 H 222.198 -3.92986 1.01573 0
M  V30 2369 H 222.964 -3.41389 3.44498 0
M  V30 2370 H 218.843 -3.966 2.35009 0
M  V30 2371 H 222.387 -3.8746 5.80104 0
M  V30 2372 H 218.284 -4.42761 4.69716 0
M  V30 2373 H 219.052 -4.60717 6.76522 0
M  V30 2374 N 221.715 -0.905404 -1.28997 0
M  V30 2375 C 222.625 -0.392246 -2.31298 0
M  V30 2376 C 223.641 0.515889 -1.66176 0
M  V30 2377 O 224.817 0.404093 -1.97304 0
M  V30 2378 C 221.882 0.36686 -3.44754 0
M  V30 2379 C 220.943 -0.573485 -4.25452 0
M  V30 2380 C 220.176 0.149488 -5.33491 0
M  V30 2381 O 220.399 1.37255 -5.5364 0
M  V30 2382 O 219.333 -0.510919 -5.99728 0
M  V30 2383 H 223.159 -1.2411 -2.77183 0
M  V30 2384 H 220.744 -0.669926 -1.33538 0
M  V30 2385 H 222.626 0.795907 -4.13816 0
M  V30 2386 H 221.301 1.19169 -3.00966 0
M  V30 2387 H 220.208 -1.05176 -3.59011 0
M  V30 2388 H 221.541 -1.36489 -4.72897 0
M  V30 2389 N 223.193 1.4272 -0.668489 0
M  V30 2390 C 224.439 2.02443 -0.197076 0
M  V30 2391 C 224.794 1.51882 1.18109 0
M  V30 2392 O 224.087 0.708618 1.78015 0
M  V30 2393 C 224.281 3.57021 -0.164499 0
M  V30 2394 C 224.11 4.22583 -1.53797 0
M  V30 2395 C 222.88 4.58019 -2.13416 0
M  V30 2396 C 225.078 4.50588 -2.47941 0
M  V30 2397 N 223.06 5.08729 -3.4361 0
M  V30 2398 C 224.431 5.02782 -3.62782 0
M  V30 2399 C 226.486 4.32571 -2.46551 0
M  V30 2400 C 225.189 5.38852 -4.76478 0
M  V30 2401 C 227.215 4.69713 -3.59338 0
M  V30 2402 C 226.577 5.22053 -4.72906 0
M  V30 2403 H 222.676 0.773214 -0.116894 0
M  V30 2404 H 225.26 1.73673 -0.880108 0
M  V30 2405 H 223.431 3.85323 0.487925 0
M  V30 2406 H 225.163 4.03439 0.319207 0
M  V30 2407 H 221.918 4.43566 -1.65969 0
M  V30 2408 H 222.342 5.38521 -4.10273 0
M  V30 2409 H 226.984 3.91365 -1.59978 0
M  V30 2410 H 224.702 5.78993 -5.63731 0
M  V30 2411 H 228.288 4.57454 -3.59482 0
M  V30 2412 H 227.168 5.50258 -5.58736 0
M  V30 2413 N 224.671 0.411399 1.52136 0
M  V30 2414 C 225.896 -0.165538 2.06738 0
M  V30 2415 C 226.321 -1.379 1.27926 0
M  V30 2416 O 225.679 -1.78628 0.310114 0
M  V30 2417 C 225.727 -0.492124 3.57226 0
M  V30 2418 O 224.831 -1.58276 3.80818 0
M  V30 2419 H 224.172 -0.0132132 0.663869 0
M  V30 2420 H 226.702 0.585253 1.96051 0
M  V30 2421 H 226.712 -0.750104 4.01045 0
M  V30 2422 H 225.387 0.394922 4.14021 0
M  V30 2423 H 223.964 -1.31677 3.48877 0
M  V30 2424 N 226.149 -1.5696 0.141893 0
M  V30 2425 C 227.398 -1.95135 -0.510427 0
M  V30 2426 C 227.711 -1.02896 -1.66348 0
M  V30 2427 O 228.917 -1.30629 -2.38009 0
M  V30 2428 C 227.373 -3.46876 -0.959427 0
M  V30 2429 C 226.981 -4.47691 0.166419 0
M  V30 2430 C 228.725 -3.93927 -1.58183 0
M  V30 2431 C 226.632 -5.90636 -0.300565 0
M  V30 2432 H 225.562 -0.728494 -0.194454 0
M  V30 2433 H 228.213 -1.8211 0.22542 0
M  V30 2434 H 226.595 -3.55215 -1.75038 0
M  V30 2435 H 227.769 -4.51043 0.94325 0
M  V30 2436 H 226.084 -4.10527 0.696905 0
M  V30 2437 H 228.681 -4.98158 -1.94275 0
M  V30 2438 H 229.024 -3.3519 -2.46888 0
M  V30 2439 H 229.557 -3.88484 -0.855863 0
M  V30 2440 H 226.296 -6.5318 0.550989 0
M  V30 2441 H 225.816 -5.90655 -1.04338 0
M  V30 2442 H 227.495 -6.42588 -0.754265 0
M  V30 2443 N 227.627 0.131896 -1.57047 0
M  V30 2444 C 228.852 0.860418 -1.8871 0
M  V30 2445 C 229.277 1.73251 -0.73251 0
M  V30 2446 O 228.635 1.785 0.317429 0
M  V30 2447 C 228.683 1.68047 -3.19049 0
M  V30 2448 O 227.787 2.7862 -3.04047 0
M  V30 2449 H 227.128 0.238743 -0.619595 0
M  V30 2450 H 229.658 0.118169 -2.04258 0
M  V30 2451 H 229.668 2.07238 -3.51449 0
M  V30 2452 H 228.343 1.04018 -4.02682 0
M  V30 2453 H 226.92 2.42726 -2.83088 0
M  V30 2454 N 229.106 1.52395 0.401703 0
M  V30 2455 C 230.016 1.7917 1.51444 0
M  V30 2456 C 231.032 0.677691 1.6026 0
M  V30 2457 O 232.208 0.963909 1.76835 0
M  V30 2458 C 229.273 1.94347 2.87107 0
M  V30 2459 C 228.334 3.18257 2.88116 0
M  V30 2460 C 227.567 3.32701 4.17308 0
M  V30 2461 O 227.79 2.52238 5.11598 0
M  V30 2462 O 226.724 4.25891 4.25324 0
M  V30 2463 H 230.55 2.73633 1.31752 0
M  V30 2464 H 228.135 1.3733 0.588296 0
M  V30 2465 H 230.017 2.06109 3.67555 0
M  V30 2466 H 228.692 1.03073 3.06851 0
M  V30 2467 H 227.599 3.11947 2.06494 0
M  V30 2468 H 228.932 4.09336 2.73322 0
M  V30 2469 N 230.584 -0.659388 1.43143 0
M  V30 2470 C 231.861 -1.41627 1.34912 0
M  V30 2471 C 232.241 -2.11099 -0.00607785 0
M  V30 2472 O 231.589 -2.04353 -1.02236 0
M  V30 2473 C 231.799 -2.40604 2.52805 0
M  V30 2474 C 233.147 -3.04789 2.95616 0
M  V30 2475 O 234.171 -2.50932 2.52807 0
M  V30 2476 O 233.03 -4.02421 3.69756 0
M  V30 2477 H 230.124 -0.63246 0.532844 0
M  V30 2478 H 232.67 -0.686814 1.5518 0
M  V30 2479 H 231.442 -1.88174 3.43083 0
M  V30 2480 H 231.065 -3.21009 2.34604 0
M  V30 2481 N 232.062 -1.29571 -0.897171 0
M  V30 2482 C 233.287 -1.20705 -1.68656 0
M  V30 2483 C 233.712 0.228582 -1.86706 0
M  V30 2484 O 233.07 1.16494 -1.3892 0
M  V30 2485 C 233.118 -1.9282 -3.04717 0
M  V30 2486 O 232.222 -1.24697 -3.93096 0
M  V30 2487 H 231.563 -0.418126 -0.515816 0
M  V30 2488 H 234.093 -1.71183 -1.12061 0
M  V30 2489 H 234.103 -2.01372 -3.54843 0
M  V30 2490 H 232.778 -2.97239 -2.90899 0
M  V30 2491 H 231.355 -1.2442 -3.51531 0
M  V30 2492 N 233.54 1.10788 -1.12088 0
M  V30 2493 C 234.788 1.8231 -0.872205 0
M  V30 2494 C 235.109 1.85419 0.603709 0
M  V30 2495 O 234.379 1.32963 1.43867 0
M  V30 2496 H 232.959 0.675137 -0.319686 0
M  V30 2497 H 235.621 1.34068 -1.41463 0
M  V30 2498 H 234.717 2.85955 -1.25045 0
M  V30 2499 N 235.018 0.912232 1.28515 0
M  V30 2500 C 236.429 0.591352 1.77087 0
M  V30 2501 C 236.78 -0.8933 1.74684 0
M  V30 2502 O 235.905 -1.69876 1.34056 0
M  V30 2503 C 236.5 1.06668 3.2157 0
M  V30 2504 C 235.059 0.79675 3.67871 0
M  V30 2505 C 234.206 1.23427 2.48316 0
M  V30 2506 H 237.157 1.09365 1.15 0
M  V30 2507 H 237.178 0.407455 3.78312 0
M  V30 2508 H 236.69 2.14726 3.23287 0
M  V30 2509 H 234.791 -0.270679 3.71616 0
M  V30 2510 H 234.904 1.40343 4.58084 0
M  V30 2511 H 233.268 0.653036 2.46186 0
M  V30 2512 H 234.051 2.32316 2.52753 0
M  V30 2513 N 236.496 -1.42363 0.676048 0
M  V30 2514 C 237.724 -2.05859 0.207268 0
M  V30 2515 C 238.139 -1.50796 -1.13605 0
M  V30 2516 O 237.496 -0.648265 -1.70598 0
M  V30 2517 C 237.547 -3.61248 0.134975 0
M  V30 2518 O 237.268 -4.1427 1.42521 0
M  V30 2519 C 238.769 -4.41859 -0.357151 0
M  V30 2520 H 235.989 -0.663431 0.100503 0
M  V30 2521 H 238.533 -1.82479 0.923136 0
M  V30 2522 H 236.688 -3.83735 -0.531588 0
M  V30 2523 H 237.102 -5.0815 1.29939 0
M  V30 2524 H 238.576 -5.50847 -0.356641 0
M  V30 2525 H 239.053 -4.16536 -1.39264 0
M  V30 2526 H 239.659 -4.24392 0.27772 0
M  V30 2527 N 237.974 -0.419461 -1.51915 0
M  V30 2528 C 238.924 0.418496 -2.24126 0
M  V30 2529 C 239.908 1.00495 -1.25656 0
M  V30 2530 O 241.1 0.926058 -1.50842 0
M  V30 2531 C 238.229 1.52899 -3.07371 0
M  V30 2532 C 237.315 0.952797 -4.13258 0
M  V30 2533 N 237.706 0.104175 -5.05693 0
M  V30 2534 C 236.004 1.22224 -4.28926 0
M  V30 2535 C 236.705 -0.21752 -5.81293 0
M  V30 2536 N 235.681 0.394293 -5.42168 0
M  V30 2537 H 239.483 -0.236048 -2.92951 0
M  V30 2538 H 236.997 -0.230481 -1.60756 0
M  V30 2539 H 238.994 2.14199 -3.57665 0
M  V30 2540 H 237.654 2.18605 -2.40088 0
M  V30 2541 H 238.665 -0.260924 -5.17242 0
M  V30 2542 H 235.342 1.87812 -3.72871 0
M  V30 2543 H 236.732 -0.906992 -6.6575 0
M  V30 2544 N 239.452 1.56882 -0.150215 0
M  V30 2545 C 240.729 1.87844 0.545327 0
M  V30 2546 C 241.109 1.0567 1.82749 0
M  V30 2547 O 240.457 0.144442 2.28043 0
M  V30 2548 C 240.667 3.39526 0.80767 0
M  V30 2549 C 242.015 4.08814 1.14703 0
M  V30 2550 O 243.039 3.44723 0.896917 0
M  V30 2551 O 241.898 5.22004 1.61784 0
M  V30 2552 H 238.992 0.778677 0.278553 0
M  V30 2553 H 241.538 1.68666 -0.187068 0
M  V30 2554 H 240.31 3.91173 -0.0996096 0
M  V30 2555 H 239.933 3.64243 1.59413 0
M  V30 2556 N 240.93 -0.123565 1.57115 0
M  V30 2557 C 242.207 -0.862196 1.75572 0
M  V30 2558 C 242.587 -1.98279 0.724475 0
M  V30 2559 O 241.935 -2.27102 -0.252407 0
M  V30 2560 C 242.145 -1.38309 3.20424 0
M  V30 2561 C 243.493 -1.83724 3.82793 0
M  V30 2562 O 244.517 -1.47999 3.23998 0
M  V30 2563 O 243.376 -2.49685 4.86127 0
M  V30 2564 H 240.47 -0.409113 0.718718 0
M  V30 2565 H 243.016 -0.107661 1.69358 0
M  V30 2566 H 241.788 -0.578889 3.86994 0
M  V30 2567 H 241.411 -2.20046 3.31158 0
M  V30 2568 N 242.408 -1.52605 -0.393616 0
M  V30 2569 C 243.819 -1.59417 -0.971761 0
M  V30 2570 C 244.17 -0.444173 -1.91106 0
M  V30 2571 O 243.295 0.433382 -2.12016 0
M  V30 2572 C 243.89 -2.88936 -1.76921 0
M  V30 2573 C 242.449 -2.98175 -2.29714 0
M  V30 2574 C 241.596 -2.54491 -1.10135 0
M  V30 2575 H 244.547 -1.57751 -0.173317 0
M  V30 2576 H 244.568 -2.75163 -2.62804 0
M  V30 2577 H 244.08 -3.72616 -1.08532 0
M  V30 2578 H 242.181 -2.19024 -3.01429 0
M  V30 2579 H 242.294 -4.02726 -2.59517 0
M  V30 2580 H 240.658 -2.08702 -1.45999 0
M  V30 2581 H 241.441 -3.4056 -0.432874 0
M  V30 2582 N 243.887 0.651787 -1.4349 0
M  V30 2583 C 245.298 1.233 -1.40193 0
M  V30 2584 C 245.649 1.9591 -0.106727 0
M  V30 2585 O 244.774 2.01316 0.793773 0
M  V30 2586 C 245.369 2.24257 -2.53957 0
M  V30 2587 C 243.928 2.77852 -2.5392 0
M  V30 2588 C 243.075 1.52517 -2.3159 0
M  V30 2589 H 246.026 0.443717 -1.52371 0
M  V30 2590 H 246.047 3.0646 -2.25528 0
M  V30 2591 H 245.559 1.71382 -3.4821 0
M  V30 2592 H 243.66 3.34786 -1.63551 0
M  V30 2593 H 243.773 3.25299 -3.51735 0
M  V30 2594 H 242.137 1.79915 -1.80285 0
M  V30 2595 H 242.92 1.01574 -3.27929 0
M  V30 2596 N 245.365 1.30045 0.890287 0
M  V30 2597 C 246.605 1.19839 1.65584 0
M  V30 2598 C 246.969 -0.244175 1.90441 0
M  V30 2599 O 248.17 -0.469378 2.6467 0
M  V30 2600 C 246.441 1.99876 2.96284 0
M  V30 2601 S 248 2.06309 3.87275 0
M  V30 2602 H 244.818 0.427157 0.568382 0
M  V30 2603 H 247.42 1.64453 1.05715 0
M  V30 2604 H 246.124 3.03809 2.75913 0
M  V30 2605 H 245.655 1.55903 3.61189 0
M  V30 2606 H 247.67 1.18661 4.81803 0
M  V30 2607 N 246.843 -1.10192 1.12674 0
M  V30 2608 C 247.773 -2.18652 0.819362 0
M  V30 2609 C 248.754 -1.68698 -0.217915 0
M  V30 2610 O 249.939 -1.94041 -0.0785581 0
M  V30 2611 C 247.069 -3.46202 0.27594 0
M  V30 2612 C 246.023 -4.09444 1.24656 0
M  V30 2613 C 245.349 -5.31725 0.563258 0
M  V30 2614 C 246.649 -4.52863 2.60217 0
M  V30 2615 H 248.343 -2.44622 1.72628 0
M  V30 2616 H 245.889 -1.17571 0.831451 0
M  V30 2617 H 247.842 -4.21372 0.0486149 0
M  V30 2618 H 246.566 -3.1973 -0.666331 0
M  V30 2619 H 245.225 -3.36284 1.45974 0
M  V30 2620 H 244.873 -5.0153 -0.384235 0
M  V30 2621 H 244.573 -5.74991 1.21075 0
M  V30 2622 H 246.097 -6.09624 0.34503 0
M  V30 2623 H 247.511 -5.19294 2.42913 0
M  V30 2624 H 245.908 -5.06986 3.21068 0
M  V30 2625 H 246.978 -3.65656 3.18471 0
M  V30 2626 N 248.321 -0.919034 -1.28029 0
M  V30 2627 C 249.549 -0.570971 -1.98866 0
M  V30 2628 C 249.964 0.848996 -1.68634 0
M  V30 2629 O 249.321 1.56307 -0.942036 0
M  V30 2630 C 249.372 -0.776876 -3.53054 0
M  V30 2631 O 249.093 -2.14097 -3.82222 0
M  V30 2632 C 250.594 -0.436356 -4.41147 0
M  V30 2633 H 247.814 -0.217175 -0.634883 0
M  V30 2634 H 250.358 -1.23368 -1.63097 0
M  V30 2635 H 248.513 -0.161085 -3.87065 0
M  V30 2636 H 248.927 -2.18455 -4.76841 0
M  V30 2637 H 250.401 -0.63117 -5.4838 0
M  V30 2638 H 250.878 0.627686 -4.34692 0
M  V30 2639 H 251.484 -1.02991 -4.12641 0
M  V30 2640 N 249.799 1.42003 -0.683588 0
M  V30 2641 C 250.749 2.27997 0.0121992 0
M  V30 2642 C 251.733 1.4156 0.764822 0
M  V30 2643 O 252.925 1.64935 0.642287 0
M  V30 2644 C 250.054 3.29706 0.956482 0
M  V30 2645 C 249.14 4.23625 0.200739 0
M  V30 2646 N 249.531 4.99448 -0.799087 0
M  V30 2647 C 247.829 4.43845 0.437937 0
M  V30 2648 C 248.53 5.68102 -1.25041 0
M  V30 2649 N 247.506 5.40511 -0.578648 0
M  V30 2650 H 251.308 2.84048 -0.754564 0
M  V30 2651 H 248.822 1.54071 -0.513398 0
M  V30 2652 H 250.819 3.90124 1.47 0
M  V30 2653 H 249.479 2.75216 1.72297 0
M  V30 2654 H 250.49 5.04303 -1.17893 0
M  V30 2655 H 247.167 4.00382 1.18325 0
M  V30 2656 H 248.557 6.38913 -2.07942 0
M  V30 2657 N 251.277 0.427512 1.51691 0
M  V30 2658 C 252.526 -0.143679 2.01188 0
M  V30 2659 C 252.839 -1.44642 1.31674 0
M  V30 2660 O 254.045 -2.09997 1.72086 0
M  V30 2661 C 252.501 -0.306602 3.58592 0
M  V30 2662 C 252.109 0.985125 4.37035 0
M  V30 2663 C 253.853 -0.832091 4.16265 0
M  V30 2664 C 251.76 0.788382 5.86122 0
M  V30 2665 H 250.69 -0.0574701 0.751807 0
M  V30 2666 H 253.341 0.555772 1.74881 0
M  V30 2667 H 251.723 -1.06882 3.81303 0
M  V30 2668 H 252.897 1.75492 4.26074 0
M  V30 2669 H 251.212 1.4384 3.90767 0
M  V30 2670 H 253.809 -0.995617 5.25349 0
M  V30 2671 H 254.152 -1.81186 3.74803 0
M  V30 2672 H 254.685 -0.128444 3.97593 0
M  V30 2673 H 251.424 1.74025 6.31978 0
M  V30 2674 H 250.944 0.0582143 5.99772 0
M  V30 2675 H 252.623 0.437722 6.45518 0
M  V30 2676 N 252.755 -1.56801 0.158532 0
M  V30 2677 C 253.985 -2.00568 -0.495583 0
M  V30 2678 C 254.393 -1.03774 -1.58201 0
M  V30 2679 O 253.736 -0.0285797 -1.83678 0
M  V30 2680 C 253.798 -3.40768 -1.14532 0
M  V30 2681 C 253.462 -4.56553 -0.202101 0
M  V30 2682 C 254.459 -5.16714 0.574675 0
M  V30 2683 C 252.144 -5.02197 -0.101648 0
M  V30 2684 C 254.138 -6.20939 1.43924 0
M  V30 2685 C 251.825 -6.06274 0.766508 0
M  V30 2686 C 252.823 -6.65515 1.53555 0
M  V30 2687 O 252.511 -7.67575 2.38922 0
M  V30 2688 H 252.243 -0.662893 -0.13247 0
M  V30 2689 H 254.797 -2.03829 0.253559 0
M  V30 2690 H 253.027 -3.34381 -1.94233 0
M  V30 2691 H 254.716 -3.6857 -1.70033 0
M  V30 2692 H 255.482 -4.82341 0.507167 0
M  V30 2693 H 251.361 -4.55807 -0.689994 0
M  V30 2694 H 254.905 -6.67107 2.03996 0
M  V30 2695 H 250.802 -6.40073 0.835266 0
M  V30 2696 H 251.57 -7.84844 2.32296 0
M  V30 2697 N 254.233 0.115231 -1.57178 0
M  V30 2698 C 255.463 0.835224 -1.88964 0
M  V30 2699 C 255.871 1.73774 -0.74829 0
M  V30 2700 O 255.214 1.81401 0.289739 0
M  V30 2701 C 255.276 1.7178 -3.15804 0
M  V30 2702 C 254.94 0.989198 -4.46166 0
M  V30 2703 C 255.937 0.328263 -5.18863 0
M  V30 2704 C 253.622 0.969256 -4.9286 0
M  V30 2705 C 255.616 -0.342873 -6.36477 0
M  V30 2706 C 253.303 0.294324 -6.10391 0
M  V30 2707 C 254.301 -0.360582 -6.82048 0
M  V30 2708 O 253.989 -1.02474 -7.97342 0
M  V30 2709 H 253.721 0.245197 -0.629964 0
M  V30 2710 H 256.275 0.10303 -2.05141 0
M  V30 2711 H 254.505 2.49173 -2.95719 0
M  V30 2712 H 256.194 2.31255 -3.33581 0
M  V30 2713 H 256.96 0.335263 -4.8384 0
M  V30 2714 H 252.839 1.46844 -4.36987 0
M  V30 2715 H 256.383 -0.854629 -6.92345 0
M  V30 2716 H 252.28 0.285099 -6.4487 0
M  V30 2717 H 253.048 -0.929594 -8.13204 0
M  V30 2718 N 255.711 1.52812 0.385517 0
M  V30 2719 C 256.936 1.72207 1.15583 0
M  V30 2720 C 257.361 0.441034 1.82857 0
M  V30 2721 O 256.719 -0.603465 1.70962 0
M  V30 2722 C 256.767 2.87476 2.17692 0
M  V30 2723 O 255.871 2.54693 3.24354 0
M  V30 2724 H 255.212 0.572526 0.336319 0
M  V30 2725 H 257.742 1.99618 0.448744 0
M  V30 2726 H 257.752 3.13072 2.6163 0
M  V30 2727 H 256.427 3.80408 1.68115 0
M  V30 2728 H 255.004 2.3985 2.85529 0
M  V30 2729 N 257.189 -0.644168 1.43834 0
M  V30 2730 C 258.139 -1.7501 1.46135 0
M  V30 2731 C 259.123 -1.57507 0.328685 0
M  V30 2732 O 260.315 -1.67465 0.5731 0
M  V30 2733 C 257.444 -3.13641 1.39585 0
M  V30 2734 C 256.53 -3.3666 2.57916 0
M  V30 2735 N 256.921 -3.30107 3.83227 0
M  V30 2736 C 255.219 -3.67411 2.52834 0
M  V30 2737 C 255.92 -3.53456 4.61999 0
M  V30 2738 N 254.896 -3.75705 3.9287 0
M  V30 2739 H 258.698 -1.68382 2.40883 0
M  V30 2740 H 256.212 -0.846169 1.38614 0
M  V30 2741 H 258.209 -3.92933 1.39317 0
M  V30 2742 H 256.869 -3.21444 0.45865 0
M  V30 2743 H 257.88 -3.09316 4.15384 0
M  V30 2744 H 254.557 -3.82275 1.67845 0
M  V30 2745 H 255.947 -3.54093 5.71024 0
M  V30 2746 N 258.668 -1.30515 -0.883378 0
M  V30 2747 C 259.578 -1.18959 -2.02203 0
M  V30 2748 C 260.594 -0.109172 -1.73657 0
M  V30 2749 O 261.77 -0.324413 -1.9877 0
M  V30 2750 C 258.835 -0.883871 -3.35244 0
M  V30 2751 C 257.896 -2.04982 -3.77201 0
M  V30 2752 C 257.129 -1.75859 -5.03894 0
M  V30 2753 O 257.352 -0.687276 -5.66244 0
M  V30 2754 O 256.286 -2.61146 -5.42297 0
M  V30 2755 H 260.112 -2.14616 -2.1488 0
M  V30 2756 H 257.697 -1.10124 -1.0096 0
M  V30 2757 H 259.579 -0.728644 -4.15053 0
M  V30 2758 H 258.254 0.0427798 -3.23672 0
M  V30 2759 H 257.161 -2.26038 -2.9809 0
M  V30 2760 H 258.494 -2.95825 -3.93381 0
M  V30 2761 N 260.146 1.09593 -1.13257 0
M  V30 2762 C 261.094 2.18271 -0.803783 0
M  V30 2763 C 262.088 1.68054 0.213148 0
M  V30 2764 O 263.294 1.79862 0.0704699 0
M  V30 2765 H 259.669 0.711949 -0.242143 0
M  V30 2766 H 261.64 2.43235 -1.72856 0
M  V30 2767 C 260.389 3.46536 -0.28424 0
M  V30 2768 H 259.712 3.85545 -1.05807 0
M  V30 2769 H 261.152 4.23899 -0.0925945 0
M  V30 2770 C 259.611 3.22036 0.989684 0
M  V30 2771 O 260.141 3.44509 2.06584 0
M  V30 2772 N 258.347 2.7565 0.920086 0
M  V30 2773 H 257.894 2.57562 0.0442019 0
M  V30 2774 H 257.852 2.59635 1.77306 0
M  V30 2775 N 261.624 0.925811 1.2754 0
M  V30 2776 C 262.554 0.440748 2.29303 0
M  V30 2777 C 263.535 -0.497971 1.62648 0
M  V30 2778 O 264.72 -0.403126 1.8997 0
M  V30 2779 C 261.85 -0.309048 3.45922 0
M  V30 2780 C 260.804 0.54166 4.24559 0
M  V30 2781 C 260.13 -0.337191 5.33636 0
M  V30 2782 C 261.43 1.80516 4.90114 0
M  V30 2783 H 263.124 1.29121 2.70126 0
M  V30 2784 H 260.67 0.622323 1.29858 0
M  V30 2785 H 262.623 -0.659315 4.1621 0
M  V30 2786 H 261.347 -1.19352 3.04011 0
M  V30 2787 H 260.006 0.874609 3.56014 0
M  V30 2788 H 259.654 -1.22056 4.87966 0
M  V30 2789 H 259.354 0.228497 5.87156 0
M  V30 2790 H 260.878 -0.683072 6.06767 0
M  V30 2791 H 262.292 1.52307 5.52698 0
M  V30 2792 H 260.689 2.3142 5.53683 0
M  V30 2793 H 261.759 2.52581 4.13921 0
M  V30 2794 N 263.102 -1.41638 0.69111 0
M  V30 2795 C 264.351 -2.00526 0.217318 0
M  V30 2796 C 264.664 -1.55353 -1.18848 0
M  V30 2797 O 265.87 -2.06769 -1.75951 0
M  V30 2798 C 264.326 -3.58313 0.337639 0
M  V30 2799 C 263.934 -4.12469 1.74852 0
M  V30 2800 C 265.678 -4.24431 -0.0766066 0
M  V30 2801 C 263.585 -5.62675 1.82074 0
M  V30 2802 H 262.515 -0.750008 0.0774893 0
M  V30 2803 H 265.166 -1.6217 0.858661 0
M  V30 2804 H 263.548 -3.9425 -0.371879 0
M  V30 2805 H 264.722 -3.8796 2.48644 0
M  V30 2806 H 263.037 -3.58861 2.11205 0
M  V30 2807 H 265.634 -5.34683 -0.0430284 0
M  V30 2808 H 265.977 -4.01101 -1.1146 0
M  V30 2809 H 266.51 -3.93512 0.582476 0
M  V30 2810 H 263.249 -5.90826 2.83911 0
M  V30 2811 H 262.769 -5.89124 1.12661 0
M  V30 2812 H 264.448 -6.27371 1.58159 0
M  V30 2813 N 264.58 -0.43555 -1.51462 0
M  V30 2814 C 265.49 0.383001 -2.31453 0
M  V30 2815 C 266.506 1.02931 -1.4029 0
M  V30 2816 O 267.682 1.02507 -1.73362 0
M  V30 2817 C 264.747 1.47043 -3.13973 0
M  V30 2818 C 263.808 0.844433 -4.20913 0
M  V30 2819 C 263.041 1.88004 -4.9949 0
M  V30 2820 O 263.264 3.10199 -4.78678 0
M  V30 2821 O 262.198 1.47157 -5.83634 0
M  V30 2822 H 266.024 -0.269964 -3.02498 0
M  V30 2823 H 263.609 -0.19813 -1.4808 0
M  V30 2824 H 265.491 2.10113 -3.65281 0
M  V30 2825 H 264.166 2.10751 -2.45695 0
M  V30 2826 H 263.073 0.175729 -3.73687 0
M  V30 2827 H 264.406 0.250869 -4.9156 0
M  V30 2828 N 266.058 1.56714 -0.166846 0
M  V30 2829 C 267.335 1.88412 0.525373 0
M  V30 2830 C 267.715 1.07602 1.81618 0
M  V30 2831 O 267.063 0.168621 2.27877 0
M  V30 2832 C 267.273 3.40363 0.771613 0
M  V30 2833 C 268.621 4.10007 1.1036 0
M  V30 2834 O 269.645 3.45655 0.860304 0
M  V30 2835 O 268.504 5.2369 1.56239 0
M  V30 2836 H 265.598 0.781587 0.270278 0
M  V30 2837 H 268.144 1.68458 -0.204946 0
M  V30 2838 H 266.916 3.91046 -0.141093 0
M  V30 2839 H 266.539 3.65914 1.55541 0
M  V30 2840 N 267.536 -0.106894 1.57237 0
M  V30 2841 C 268.783 -0.812526 1.85484 0
M  V30 2842 C 269.111 -1.79304 0.753687 0
M  V30 2843 O 268.366 -1.94047 -0.253853 0
M  V30 2844 C 268.665 -1.58628 3.20268 0
M  V30 2845 C 268.331 -0.748967 4.44636 0
M  V30 2846 C 266.993 -0.518104 4.78403 0
M  V30 2847 C 269.345 -0.166122 5.20935 0
M  V30 2848 C 266.673 0.305659 5.85903 0
M  V30 2849 C 269.025 0.644899 6.29304 0
M  V30 2850 C 267.689 0.885965 6.61594 0
M  V30 2851 H 266.959 -0.297324 0.678734 0
M  V30 2852 H 269.606 -0.0744332 1.91355 0
M  V30 2853 H 267.911 -2.39562 3.10028 0
M  V30 2854 H 269.608 -2.13643 3.39349 0
M  V30 2855 H 266.198 -0.939006 4.18187 0
M  V30 2856 H 270.382 -0.33167 4.95191 0
M  V30 2857 H 265.638 0.501528 6.0934 0
M  V30 2858 H 269.812 1.10345 6.87602 0
M  V30 2859 H 267.439 1.52609 7.44725 0
M  V30 2860 N 269.014 -1.53014 -0.377408 0
M  V30 2861 C 269.962 -1.7927 -1.48206 0
M  V30 2862 C 270.956 -0.661195 -1.55963 0
M  V30 2863 O 272.162 -0.843908 -1.58991 0
M  V30 2864 H 268.537 -0.567425 -0.493491 0
M  V30 2865 H 270.508 -2.71753 -1.2326 0
M  V30 2866 C 269.257 -1.98894 -2.85196 0
M  V30 2867 H 268.58 -2.85395 -2.79981 0
M  V30 2868 H 270.02 -2.21249 -3.61698 0
M  V30 2869 C 268.479 -0.764691 -3.28107 0
M  V30 2870 O 269.009 0.0523226 -4.01666 0
M  V30 2871 N 267.215 -0.591493 -2.84517 0
M  V30 2872 H 266.762 -1.25749 -2.24822 0
M  V30 2873 H 266.72 0.226253 -3.13585 0
M  V30 2874 N 270.492 0.636531 -1.44174 0
M  V30 2875 C 271.717 1.42847 -1.50364 0
M  V30 2876 C 272.142 1.87665 -0.127867 0
M  V30 2877 O 271.5 1.58408 0.88185 0
M  V30 2878 C 271.548 2.62854 -2.4686 0
M  V30 2879 O 270.652 3.62501 -1.9664 0
M  V30 2880 H 269.993 0.427642 -0.507955 0
M  V30 2881 H 272.523 0.777422 -1.89255 0
M  V30 2882 H 272.533 3.10465 -2.64718 0
M  V30 2883 H 271.208 2.29578 -3.46795 0
M  V30 2884 H 269.785 3.21735 -1.88523 0
M  V30 2885 N 271.97 1.30982 0.876444 0
M  V30 2886 C 273.218 1.20058 1.62575 0
M  V30 2887 C 273.539 -0.242947 1.93481 0
M  V30 2888 O 272.809 -1.1619 1.57724 0
M  V30 2889 H 271.389 0.44135 0.602677 0
M  V30 2890 H 274.051 1.64222 1.04962 0
M  V30 2891 H 273.147 1.76762 2.57219 0
M  V30 2892 N 273.449 -1.08991 1.13837 0
M  V30 2893 C 274.379 -2.17771 0.842507 0
M  V30 2894 C 275.36 -1.6892 -0.20001 0
M  V30 2895 O 276.545 -1.94113 -0.0579731 0
M  V30 2896 C 273.675 -3.4589 0.312644 0
M  V30 2897 C 272.629 -4.08099 1.28992 0
M  V30 2898 C 271.955 -5.31098 0.619623 0
M  V30 2899 C 273.255 -4.50077 2.65005 0
M  V30 2900 H 274.949 -2.42777 1.75213 0
M  V30 2901 H 272.495 -1.16682 0.843875 0
M  V30 2902 H 274.448 -4.21297 0.0933043 0
M  V30 2903 H 273.172 -3.20419 -0.632382 0
M  V30 2904 H 271.831 -3.34717 1.49533 0
M  V30 2905 H 271.479 -5.0191 -0.33102 0
M  V30 2906 H 271.179 -5.73674 1.27167 0
M  V30 2907 H 272.703 -6.09224 0.409669 0
M  V30 2908 H 274.117 -5.16688 2.48407 0
M  V30 2909 H 272.514 -5.03553 3.26427 0
M  V30 2910 H 273.584 -3.62257 3.22332 0
M  V30 2911 N 274.927 -0.932562 -1.27047 0
M  V30 2912 C 276.176 -0.571351 -1.93439 0
M  V30 2913 C 276.489 0.892467 -1.74053 0
M  V30 2914 O 277.695 1.36267 -2.34826 0
M  V30 2915 C 276.151 -0.97106 -3.46552 0
M  V30 2916 C 275.759 -2.4559 -3.74686 0
M  V30 2917 C 277.503 -0.681333 -4.18997 0
M  V30 2918 C 275.41 -2.79475 -5.21198 0
M  V30 2919 H 274.34 -0.209966 -0.724176 0
M  V30 2920 H 276.991 -1.13403 -1.44263 0
M  V30 2921 H 275.373 -0.336983 -3.94564 0
M  V30 2922 H 276.547 -3.13829 -3.37414 0
M  V30 2923 H 274.862 -2.71802 -3.15456 0
M  V30 2924 H 277.459 -0.910939 -5.26883 0
M  V30 2925 H 277.802 0.381628 -4.14547 0
M  V30 2926 H 278.335 -1.27473 -3.76823 0
M  V30 2927 H 275.074 -3.847 -5.30741 0
M  V30 2928 H 274.594 -2.1589 -5.596 0
M  V30 2929 H 276.273 -2.67478 -5.89122 0
M  V30 2930 N 276.405 1.4127 -0.698611 0
M  V30 2931 C 277.653 2.00782 -0.230409 0
M  V30 2932 C 277.974 1.5562 1.17505 0
M  V30 2933 O 277.244 0.78815 1.79346 0
M  V30 2934 H 275.824 0.742464 -0.0821944 0
M  V30 2935 H 278.486 1.72852 -0.90045 0
M  V30 2936 H 277.582 3.11095 -0.25021 0
M  V30 2937 N 277.883 0.443576 1.51229 0
M  V30 2938 C 279.294 -0.0180867 1.86691 0
M  V30 2939 C 279.645 -1.41384 1.36033 0
M  V30 2940 O 278.77 -2.04291 0.713722 0
M  V30 2941 C 279.365 -0.039597 3.38777 0
M  V30 2942 C 277.924 -0.445692 3.73752 0
M  V30 2943 C 277.071 0.357584 2.74985 0
M  V30 2944 H 280.022 0.659138 1.44364 0
M  V30 2945 H 280.043 -0.847761 3.70936 0
M  V30 2946 H 279.555 0.976382 3.75617 0
M  V30 2947 H 277.656 -1.46704 3.42503 0
M  V30 2948 H 277.769 -0.166155 4.78812 0
M  V30 2949 H 276.133 -0.184973 2.54027 0
M  V30 2950 H 276.916 1.37256 3.14668 0
M  V30 2951 N 279.361 -1.56624 0.175154 0
M  V30 2952 C 280.291 -2.21155 -0.749195 0
M  V30 2953 C 281.272 -1.16836 -1.23626 0
M  V30 2954 O 282.457 -1.45277 -1.28873 0
M  V30 2955 C 279.587 -2.8553 -1.97711 0
M  V30 2956 C 278.541 -3.95921 -1.62575 0
M  V30 2957 C 277.867 -4.47365 -2.92864 0
M  V30 2958 C 279.167 -5.15323 -0.850838 0
M  V30 2959 H 280.861 -2.98653 -0.211295 0
M  V30 2960 H 278.407 -1.43651 -0.100188 0
M  V30 2961 H 280.36 -3.2935 -2.62881 0
M  V30 2962 H 279.084 -2.05406 -2.53921 0
M  V30 2963 H 277.743 -3.52762 -0.997719 0
M  V30 2964 H 277.391 -3.64027 -3.47122 0
M  V30 2965 H 277.091 -5.21839 -2.70106 0
M  V30 2966 H 278.615 -4.93873 -3.59056 0
M  V30 2967 H 280.029 -5.55812 -1.40521 0
M  V30 2968 H 278.426 -5.95739 -0.722154 0
M  V30 2969 H 279.496 -4.84661 0.152082 0
M  V30 2970 N 280.839 0.0985539 -1.57292 0
M  V30 2971 C 281.769 1.12064 -2.04851 0
M  V30 2972 C 282.75 1.41981 -0.936767 0
M  V30 2973 O 283.935 1.52071 -1.20781 0
M  V30 2974 C 281.065 2.44144 -2.47004 0
M  V30 2975 C 280.019 2.28643 -3.6181 0
M  V30 2976 C 279.345 3.65869 -3.89929 0
M  V30 2977 C 280.645 1.72986 -4.92822 0
M  V30 2978 H 282.339 0.724979 -2.9049 0
M  V30 2979 H 279.885 0.34729 -1.39749 0
M  V30 2980 H 281.838 3.15914 -2.78884 0
M  V30 2981 H 280.562 2.85639 -1.5836 0
M  V30 2982 H 279.221 1.59318 -3.30172 0
M  V30 2983 H 278.869 4.04885 -2.98458 0
M  V30 2984 H 278.569 3.56344 -4.67218 0
M  V30 2985 H 280.093 4.39112 -4.2428 0
M  V30 2986 H 281.507 2.34593 -5.23105 0
M  V30 2987 H 279.904 1.74229 -5.74251 0
M  V30 2988 H 280.974 0.689007 -4.7998 0
M  V30 2989 N 282.317 1.53212 0.369288 0
M  V30 2990 C 283.566 1.68436 1.10961 0
M  V30 2991 C 283.879 0.440738 1.9057 0
M  V30 2992 O 285.085 0.473446 2.6734 0
M  V30 2993 C 283.541 2.97744 2.0218 0
M  V30 2994 C 283.149 4.29355 1.279 0
M  V30 2995 C 284.893 3.22334 2.76226 0
M  V30 2996 C 282.8 5.49755 2.17999 0
M  V30 2997 H 281.73 0.627568 0.41794 0
M  V30 2998 H 284.381 1.79713 0.370884 0
M  V30 2999 H 282.763 2.8026 2.79768 0
M  V30 3000 H 283.937 4.57458 0.554007 0
M  V30 3001 H 282.252 4.11179 0.657311 0
M  V30 3002 H 284.849 4.09471 3.43857 0
M  V30 3003 H 285.192 2.38238 3.41392 0
M  V30 3004 H 285.725 3.40475 2.05723 0
M  V30 3005 H 282.464 6.36318 1.57417 0
M  V30 3006 H 281.984 5.25937 2.88359 0
M  V30 3007 H 283.663 5.84401 2.77641 0
M  V30 3008 N 283.795 -0.628877 1.44509 0
M  V30 3009 C 285.035 -1.39993 1.48934 0
M  V30 3010 C 285.399 -1.91627 0.119604 0
M  V30 3011 O 286.6 -2.68772 0.0385283 0
M  V30 3012 C 284.871 -2.53241 2.52198 0
M  V30 3013 S 286.43 -3.41383 2.75687 0
M  V30 3014 H 283.248 -0.477558 0.526744 0
M  V30 3015 H 285.85 -0.727804 1.81448 0
M  V30 3016 H 284.554 -2.13622 3.50419 0
M  V30 3017 H 284.085 -3.25278 2.21264 0
M  V30 3018 H 286.1 -4.50752 2.07453 0
M  V30 3019 N 285.273 -1.31445 -0.869486 0
M  V30 3020 C 286.22 -1.19135 -1.97675 0
M  V30 3021 C 287.19 -0.0770266 -1.65921 0
M  V30 3022 O 288.375 -0.249972 -1.89155 0
M  V30 3023 C 285.515 -0.905149 -3.33018 0
M  V30 3024 C 284.628 -2.10285 -3.77365 0
M  V30 3025 C 283.763 -1.75339 -5.01427 0
M  V30 3026 C 282.802 -2.91515 -5.38224 0
M  V30 3027 N 281.939 -2.56762 -6.53466 0
M  V30 3028 H 286.779 -2.13853 -2.07535 0
M  V30 3029 H 284.316 -1.06379 -1.01597 0
M  V30 3030 H 286.274 -0.719765 -4.10944 0
M  V30 3031 H 284.904 0.00519624 -3.228 0
M  V30 3032 H 283.956 -2.39899 -2.95216 0
M  V30 3033 H 285.268 -2.97237 -4.00564 0
M  V30 3034 H 284.422 -1.53266 -5.87022 0
M  V30 3035 H 283.161 -0.855801 -4.80133 0
M  V30 3036 H 282.166 -3.14237 -4.51149 0
M  V30 3037 H 283.391 -3.81985 -5.61484 0
M  V30 3038 H 281.337 -1.69526 -6.33717 0
M  V30 3039 H 281.254 -3.37243 -6.76612 0
M  V30 3040 H 282.522 -2.38083 -7.42251 0
M  V30 3041 N 286.751 1.08385 -1.14413 0
M  V30 3042 C 287.698 2.15311 -0.831265 0
M  V30 3043 C 288.668 1.64751 0.211292 0
M  V30 3044 O 289.853 1.90627 0.0811674 0
M  V30 3045 C 286.993 3.43658 -0.315143 0
M  V30 3046 C 286.106 4.08064 -1.41802 0
M  V30 3047 C 285.241 5.24207 -0.859126 0
M  V30 3048 C 284.28 5.80554 -1.93967 0
M  V30 3049 N 283.417 6.88042 -1.39793 0
M  V30 3050 H 288.257 2.41415 -1.74708 0
M  V30 3051 H 285.794 1.18474 -0.871909 0
M  V30 3052 H 287.752 4.172 0.00230884 0
M  V30 3053 H 286.382 3.17839 0.56378 0
M  V30 3054 H 285.434 3.3228 -1.85187 0
M  V30 3055 H 286.746 4.45962 -2.23427 0
M  V30 3056 H 285.9 6.04689 -0.49359 0
M  V30 3057 H 284.639 4.87699 -0.011932 0
M  V30 3058 H 283.644 4.98725 -2.31415 0
M  V30 3059 H 284.869 6.19121 -2.79046 0
M  V30 3060 H 282.815 6.53493 -0.572919 0
M  V30 3061 H 282.732 7.24767 -2.15054 0
M  V30 3062 H 284 7.72255 -1.0603 0
M  V30 3063 N 288.23 0.939286 1.26551 0
M  V30 3064 C 289.478 0.58469 1.93457 0
M  V30 3065 C 289.799 -0.878774 1.74076 0
M  V30 3066 O 289.069 -1.62421 1.09528 0
M  V30 3067 H 287.649 0.21325 0.715914 0
M  V30 3068 H 290.311 1.1942 1.54029 0
M  V30 3069 H 289.407 0.800849 3.0165 0
M  V30 3070 N 289.708 -1.40897 0.706093 0
M  V30 3071 C 290.936 -2.05373 0.250887 0
M  V30 3072 C 291.351 -1.53172 -1.10381 0
M  V30 3073 O 290.708 -0.684305 -1.69185 0
M  V30 3074 C 290.759 -3.6088 0.211571 0
M  V30 3075 O 290.48 -4.11153 1.51276 0
M  V30 3076 C 291.981 -4.42517 -0.263346 0
M  V30 3077 H 289.201 -0.66115 0.114552 0
M  V30 3078 H 291.745 -1.80479 0.961635 0
M  V30 3079 H 289.9 -3.84777 -0.450073 0
M  V30 3080 H 290.314 -5.05279 1.40689 0
M  V30 3081 H 291.788 -5.51479 -0.239718 0
M  V30 3082 H 292.265 -4.19396 -1.30397 0
M  V30 3083 H 292.871 -4.23708 0.367677 0
M  V30 3084 N 291.186 -0.45159 -1.50991 0
M  V30 3085 C 292.116 0.342898 -2.30969 0
M  V30 3086 C 293.097 1.00815 -1.37005 0
M  V30 3087 O 294.282 1.00907 -1.65926 0
M  V30 3088 C 291.412 1.43637 -3.16205 0
M  V30 3089 C 290.366 0.893818 -4.18563 0
M  V30 3090 C 289.692 2.08411 -4.92411 0
M  V30 3091 C 290.992 -0.0815568 -5.22236 0
M  V30 3092 H 292.686 -0.324556 -2.97636 0
M  V30 3093 H 290.232 -0.157531 -1.43136 0
M  V30 3094 H 292.185 1.9995 -3.70942 0
M  V30 3095 H 290.909 2.13232 -2.47386 0
M  V30 3096 H 289.568 0.352798 -3.64898 0
M  V30 3097 H 289.216 2.76658 -4.20082 0
M  V30 3098 H 288.916 1.72741 -5.61636 0
M  V30 3099 H 290.44 2.65251 -5.49976 0
M  V30 3100 H 291.854 0.391742 -5.7196 0
M  V30 3101 H 290.251 -0.351551 -5.99069 0
M  V30 3102 H 291.321 -1.01374 -4.74185 0
M  V30 3103 N 292.664 1.56529 -0.183458 0
M  V30 3104 C 293.892 2.01623 0.464285 0
M  V30 3105 C 294.307 1.06366 1.55986 0
M  V30 3106 O 293.664 0.0665398 1.82379 0
M  V30 3107 C 293.715 3.46475 1.03139 0
M  V30 3108 O 293.436 4.38095 -0.0204675 0
M  V30 3109 C 294.937 4.0703 1.75617 0
M  V30 3110 H 292.157 0.660596 0.117704 0
M  V30 3111 H 294.701 2.02451 -0.288751 0
M  V30 3112 H 292.856 3.46383 1.73486 0
M  V30 3113 H 293.27 5.22973 0.399952 0
M  V30 3114 H 294.744 5.10271 2.10542 0
M  V30 3115 H 295.221 3.49819 2.65563 0
M  V30 3116 H 295.827 4.1086 1.09882 0
M  V30 3117 N 294.142 -0.090211 1.57342 0
M  V30 3118 C 295.052 -1.12735 2.05738 0
M  V30 3119 C 296.068 -1.43557 0.983231 0
M  V30 3120 O 297.244 -1.54101 1.29672 0
M  V30 3121 C 294.309 -2.42659 2.47624 0
M  V30 3122 C 293.37 -2.18975 3.69254 0
M  V30 3123 C 292.603 -3.42704 4.09133 0
M  V30 3124 O 292.826 -4.51127 3.49057 0
M  V30 3125 O 291.76 -3.32003 5.02053 0
M  V30 3126 H 295.586 -0.746279 2.94388 0
M  V30 3127 H 293.171 -0.303064 1.46294 0
M  V30 3128 H 295.053 -3.19155 2.7517 0
M  V30 3129 H 293.728 -2.80182 1.62109 0
M  V30 3130 H 292.635 -1.40244 3.46818 0
M  V30 3131 H 293.968 -1.86342 4.55563 0
M  V30 3132 N 295.62 -1.53406 -0.361157 0
M  V30 3133 C 296.868 -1.69467 -1.10115 0
M  V30 3134 C 297.189 -0.451352 -1.89705 0
M  V30 3135 O 296.459 0.534636 -1.88463 0
M  V30 3136 H 295.039 -0.624749 -0.409508 0
M  V30 3137 H 297.701 -1.90609 -0.406699 0
M  V30 3138 H 296.797 -2.55774 -1.78847 0
M  V30 3139 N 297.098 0.621204 -1.44841 0
M  V30 3140 C 298.346 1.37783 -1.47852 0
M  V30 3141 C 298.667 1.94653 -0.116224 0
M  V30 3142 O 297.937 1.76367 0.852737 0
M  V30 3143 H 296.517 0.511453 -0.544449 0
M  V30 3144 H 299.179 0.730446 -1.80694 0
M  V30 3145 H 298.275 2.20414 -2.20961 0
M  V30 3146 N 298.576 1.31904 0.862503 0
M  V30 3147 C 299.804 1.24998 1.64873 0
M  V30 3148 C 300.219 -0.183425 1.87907 0
M  V30 3149 O 299.576 -1.11794 1.44251 0
M  V30 3150 C 299.627 1.99829 3.01248 0
M  V30 3151 O 299.348 3.37575 2.79239 0
M  V30 3152 C 300.849 1.99852 3.95694 0
M  V30 3153 H 298.069 0.431599 0.513773 0
M  V30 3154 H 300.613 1.73901 1.07604 0
M  V30 3155 H 298.768 1.54668 3.55185 0
M  V30 3156 H 299.182 3.75776 3.65914 0
M  V30 3157 H 300.656 2.56709 4.88676 0
M  V30 3158 H 301.133 0.982852 4.28062 0
M  V30 3159 H 301.739 2.44926 3.47694 0
M  V30 3160 N 300.054 -1.07777 1.14986 0
M  V30 3161 C 300.986 -2.14769 0.800436 0
M  V30 3162 C 301.999 -1.61739 -0.185595 0
M  V30 3163 O 303.188 -1.78462 0.0370358 0
M  V30 3164 C 300.288 -3.38481 0.168533 0
M  V30 3165 C 299.461 -4.20876 1.1909 0
M  V30 3166 C 298.52 -5.22976 0.581575 0
M  V30 3167 O 297.546 -5.55388 1.24633 0
M  V30 3168 N 298.748 -5.76976 -0.638706 0
M  V30 3169 H 301.513 -2.45348 1.72118 0
M  V30 3170 H 299.074 -1.23645 1.04515 0
M  V30 3171 H 301.066 -4.03916 -0.251764 0
M  V30 3172 H 299.636 -3.05651 -0.655467 0
M  V30 3173 H 298.856 -3.51322 1.78791 0
M  V30 3174 H 300.144 -4.7274 1.88133 0
M  V30 3175 H 299.542 -5.52886 -1.19723 0
M  V30 3176 H 298.099 -6.44061 -1.00142 0
M  V30 3177 N 301.532 -0.945985 -1.26051 0
M  V30 3178 C 302.479 -0.45809 -2.26208 0
M  V30 3179 C 303.449 0.484816 -1.58867 0
M  V30 3180 O 304.634 0.399969 -1.86561 0
M  V30 3181 C 301.774 0.266131 -3.44072 0
M  V30 3182 C 300.887 -0.713005 -4.26075 0
M  V30 3183 C 300.022 0.0329013 -5.3119 0
M  V30 3184 C 299.061 -0.93774 -6.04874 0
M  V30 3185 N 298.198 -0.223274 -7.01745 0
M  V30 3186 H 303.038 -1.3171 -2.67313 0
M  V30 3187 H 300.575 -0.66069 -1.31428 0
M  V30 3188 H 302.533 0.702514 -4.11243 0
M  V30 3189 H 301.163 1.08925 -3.03867 0
M  V30 3190 H 300.215 -1.26789 -3.58648 0
M  V30 3191 H 301.527 -1.45406 -4.77136 0
M  V30 3192 H 300.681 0.528335 -6.04395 0
M  V30 3193 H 299.42 0.806801 -4.8098 0
M  V30 3194 H 298.425 -1.44425 -5.30492 0
M  V30 3195 H 299.65 -1.71172 -6.57173 0
M  V30 3196 H 297.596 0.532046 -6.53839 0
M  V30 3197 H 297.513 -0.90357 -7.50581 0
M  V30 3198 H 298.781 0.250907 -7.79096 0
M  V30 3199 N 303.011 1.40521 -0.713556 0
M  V30 3200 C 304.239 2.05237 -0.261775 0
M  V30 3201 C 304.654 1.53755 1.09567 0
M  V30 3202 O 304.011 0.693268 1.6882 0
M  V30 3203 C 304.062 3.60763 -0.230706 0
M  V30 3204 O 303.783 4.10345 -1.53455 0
M  V30 3205 C 305.284 4.42651 0.239874 0
M  V30 3206 H 302.504 0.660533 -0.118057 0
M  V30 3207 H 305.048 1.79967 -0.971192 0
M  V30 3208 H 303.203 3.8501 0.429661 0
M  V30 3209 H 303.617 5.04526 -1.43366 0
M  V30 3210 H 305.091 5.51599 0.210468 0
M  V30 3211 H 305.568 4.20082 1.28171 0
M  V30 3212 H 306.174 4.23507 -0.390142 0
M  V30 3213 N 304.489 0.459591 1.5075 0
M  V30 3214 C 305.736 -0.0993495 2.02256 0
M  V30 3215 C 306.064 -1.40751 1.34237 0
M  V30 3216 O 305.319 -1.90379 0.453228 0
M  V30 3217 C 305.618 -0.342866 3.55752 0
M  V30 3218 C 305.284 0.88218 4.42186 0
M  V30 3219 C 303.946 1.21808 4.65528 0
M  V30 3220 C 306.298 1.69837 4.92752 0
M  V30 3221 C 303.626 2.37045 5.36681 0
M  V30 3222 C 305.978 2.84192 5.65171 0
M  V30 3223 C 304.642 3.1821 5.8677 0
M  V30 3224 H 303.912 -0.0363545 0.740108 0
M  V30 3225 H 306.559 0.611329 1.8148 0
M  V30 3226 H 304.864 -1.13567 3.7498 0
M  V30 3227 H 306.561 -0.789121 3.93159 0
M  V30 3228 H 303.151 0.610467 4.2423 0
M  V30 3229 H 307.335 1.45205 4.74583 0
M  V30 3230 H 302.591 2.63689 5.51614 0
M  V30 3231 H 306.765 3.4779 6.03337 0
M  V30 3232 H 304.392 4.07613 6.41682 0
M  V30 3233 N 305.967 -1.56429 0.191757 0
M  V30 3234 C 307.244 -1.89224 -0.495332 0
M  V30 3235 C 307.624 -1.10478 -1.79883 0
M  V30 3236 O 306.972 -0.204852 -2.2758 0
M  V30 3237 C 307.182 -3.41548 -0.717367 0
M  V30 3238 C 308.53 -4.11711 -1.03823 0
M  V30 3239 O 309.554 -3.4698 -0.805204 0
M  V30 3240 O 308.413 -5.2611 -1.47887 0
M  V30 3241 H 305.507 -0.785788 -0.25781 0
M  V30 3242 H 308.053 -1.68111 0.231721 0
M  V30 3243 H 306.825 -3.90772 0.203287 0
M  V30 3244 H 306.448 -3.68342 -1.497 0
M  V30 3245 N 307.445 0.0818655 -1.57387 0
M  V30 3246 C 308.392 1.09834 -2.0299 0
M  V30 3247 C 309.362 1.39043 -0.908639 0
M  V30 3248 O 310.547 1.50282 -1.17559 0
M  V30 3249 C 307.687 2.40971 -2.47037 0
M  V30 3250 C 306.8 2.18379 -3.7274 0
M  V30 3251 C 305.935 3.43008 -4.0561 0
M  V30 3252 C 304.974 3.15736 -5.24383 0
M  V30 3253 N 304.111 4.32667 -5.52941 0
M  V30 3254 H 308.951 0.702472 -2.89602 0
M  V30 3255 H 306.488 0.33531 -1.43227 0
M  V30 3256 H 308.446 3.1752 -2.70623 0
M  V30 3257 H 307.076 2.78379 -1.63417 0
M  V30 3258 H 306.128 1.32569 -3.56552 0
M  V30 3259 H 307.44 1.94227 -4.59431 0
M  V30 3260 H 306.594 4.27958 -4.30043 0
M  V30 3261 H 305.333 3.70225 -3.17466 0
M  V30 3262 H 304.338 2.2918 -4.99757 0
M  V30 3263 H 305.563 2.8985 -6.14136 0
M  V30 3264 H 303.509 4.59935 -4.67756 0
M  V30 3265 H 303.426 4.11753 -6.34031 0
M  V30 3266 H 304.694 5.18644 -5.81918 0
M  V30 3267 N 308.923 1.53595 0.353017 0
M  V30 3268 C 309.855 1.77219 1.45348 0
M  V30 3269 C 310.868 0.65324 1.49119 0
M  V30 3270 O 312.057 0.929775 1.52373 0
M  V30 3271 C 309.157 1.84841 2.84055 0
M  V30 3272 C 308.33 3.14649 3.03833 0
M  V30 3273 C 307.389 3.13351 4.22727 0
M  V30 3274 O 306.415 3.87107 4.17297 0
M  V30 3275 N 307.617 2.35052 5.30783 0
M  V30 3276 H 310.382 2.72178 1.25457 0
M  V30 3277 H 307.943 1.52528 0.542833 0
M  V30 3278 H 309.935 1.81435 3.61751 0
M  V30 3279 H 308.505 0.971114 2.97133 0
M  V30 3280 H 307.725 3.31256 2.13689 0
M  V30 3281 H 309.013 4.00411 3.13925 0
M  V30 3282 H 308.411 1.74663 5.38061 0
M  V30 3283 H 306.968 2.37453 6.07009 0
M  V30 3284 N 310.401 -0.613514 1.45168 0
M  V30 3285 C 311.65 -1.36874 1.4815 0
M  V30 3286 C 311.963 -1.952 0.124982 0
M  V30 3287 O 313.169 -2.71481 0.0324176 0
M  V30 3288 C 311.625 -2.47905 2.60904 0
M  V30 3289 C 311.233 -1.96016 4.02842 0
M  V30 3290 C 312.977 -3.24965 2.73126 0
M  V30 3291 C 310.884 -3.04494 5.06988 0
M  V30 3292 H 309.814 -0.514428 0.551253 0
M  V30 3293 H 312.465 -0.658182 1.7129 0
M  V30 3294 H 310.847 -3.21618 2.31037 0
M  V30 3295 H 312.021 -1.29051 4.4236 0
M  V30 3296 H 310.336 -1.31719 3.95018 0
M  V30 3297 H 312.933 -4.05865 3.48106 0
M  V30 3298 H 313.276 -3.75588 1.79553 0
M  V30 3299 H 313.809 -2.5835 3.0249 0
M  V30 3300 H 310.548 -2.58795 6.0225 0
M  V30 3301 H 310.068 -3.70044 4.72046 0
M  V30 3302 H 311.747 -3.68976 5.31475 0
M  V30 3303 N 311.879 -1.3236 -0.855495 0
M  V30 3304 C 313.125 -1.23054 -1.612 0
M  V30 3305 C 313.458 0.207404 -1.93089 0
M  V30 3306 O 312.733 1.14432 -1.57275 0
M  V30 3307 C 313.016 -2.08937 -2.93287 0
M  V30 3308 C 312.869 -3.61105 -2.68185 0
M  V30 3309 C 314.188 -1.94986 -3.94549 0
M  V30 3310 H 311.307 -0.448364 -0.584926 0
M  V30 3311 H 313.949 -1.62297 -0.987917 0
M  V30 3312 H 312.099 -1.75599 -3.46551 0
M  V30 3313 H 313.771 -4.04652 -2.21483 0
M  V30 3314 H 312.014 -3.83813 -2.02164 0
M  V30 3315 H 312.685 -4.16522 -3.62234 0
M  V30 3316 H 315.161 -2.24189 -3.5054 0
M  V30 3317 H 314.037 -2.57356 -4.84829 0
M  V30 3318 H 314.298 -0.917263 -4.3248 0
M  V30 3319 N 313.357 1.07166 -1.15556 0
M  V30 3320 C 314.287 2.16403 -0.877046 0
M  V30 3321 C 315.268 1.69217 0.173111 0
M  V30 3322 O 316.453 1.94181 0.027084 0
M  V30 3323 C 313.583 3.45349 -0.367632 0
M  V30 3324 C 312.537 4.05995 -1.35468 0
M  V30 3325 C 311.863 5.30045 -0.704038 0
M  V30 3326 C 313.163 4.45804 -2.72132 0
M  V30 3327 H 314.857 2.39959 -1.79053 0
M  V30 3328 H 312.403 1.15325 -0.862331 0
M  V30 3329 H 314.356 4.21095 -0.160317 0
M  V30 3330 H 313.08 3.21385 0.581326 0
M  V30 3331 H 311.739 3.32296 -1.54839 0
M  V30 3332 H 311.387 5.02373 0.251128 0
M  V30 3333 H 311.087 5.71579 -1.36277 0
M  V30 3334 H 312.611 6.08495 -0.50654 0
M  V30 3335 H 314.025 5.12671 -2.56595 0
M  V30 3336 H 312.422 4.98296 -3.34397 0
M  V30 3337 H 313.492 3.57083 -3.28054 0
M  V30 3338 N 314.835 0.952656 1.25548 0
M  V30 3339 C 315.765 0.489287 2.28316 0
M  V30 3340 C 316.746 -0.463359 1.63667 0
M  V30 3341 O 317.931 -0.36274 1.90782 0
M  V30 3342 C 315.061 -0.235603 3.465 0
M  V30 3343 C 314.015 0.631593 4.23314 0
M  V30 3344 C 313.341 -0.223923 5.34231 0
M  V30 3345 C 314.641 1.90871 4.86174 0
M  V30 3346 H 316.335 1.34822 2.67326 0
M  V30 3347 H 313.881 0.649728 1.28509 0
M  V30 3348 H 315.834 -0.570882 4.17515 0
M  V30 3349 H 314.558 -1.12877 3.06474 0
M  V30 3350 H 313.217 0.949929 3.54079 0
M  V30 3351 H 312.865 -1.11678 4.90446 0
M  V30 3352 H 312.565 0.35299 5.86539 0
M  V30 3353 H 314.089 -0.554214 6.0808 0
M  V30 3354 H 315.503 1.63997 5.49343 0
M  V30 3355 H 313.9 2.43112 5.4865 0
M  V30 3356 H 314.97 2.61304 4.08471 0
M  V30 3357 N 316.313 -1.40141 0.720998 0
M  V30 3358 C 317.56 -2.00787 0.262842 0
M  V30 3359 C 317.888 -1.5718 -1.14563 0
M  V30 3360 O 317.143 -0.785391 -1.79249 0
M  V30 3361 C 317.442 -3.56165 0.296892 0
M  V30 3362 C 317.108 -4.19373 1.65641 0
M  V30 3363 C 315.77 -4.36352 2.02855 0
M  V30 3364 C 318.122 -4.54578 2.54968 0
M  V30 3365 C 315.45 -4.8582 3.28931 0
M  V30 3366 C 317.802 -5.05447 3.80402 0
M  V30 3367 C 316.466 -5.20635 4.17726 0
M  V30 3368 H 315.736 -0.734731 0.0961807 0
M  V30 3369 H 318.383 -1.67673 0.925093 0
M  V30 3370 H 316.688 -3.8922 -0.448932 0
M  V30 3371 H 318.385 -4.00929 -0.0755208 0
M  V30 3372 H 314.975 -4.06549 1.35704 0
M  V30 3373 H 319.159 -4.41091 2.27491 0
M  V30 3374 H 314.415 -4.95764 3.57811 0
M  V30 3375 H 318.589 -5.31663 4.49786 0
M  V30 3376 H 316.216 -5.58728 5.15487 0
M  V30 3377 N 317.792 -0.46758 -1.50504 0
M  V30 3378 C 318.755 0.317059 -2.26996 0
M  V30 3379 C 319.755 0.923513 -1.31635 0
M  V30 3380 O 320.945 0.793239 -1.55091 0
M  V30 3381 C 318.077 1.45134 -3.08462 0
M  V30 3382 H 319.27 -0.353723 -2.97807 0
M  V30 3383 H 316.823 -0.221545 -1.54722 0
M  V30 3384 H 317.558 2.15728 -2.4214 0
M  V30 3385 H 317.343 1.02232 -3.78538 0
M  V30 3386 H 318.833 2.00493 -3.66323 0
M  V30 3387 N 319.27 1.56325 -0.20005 0
M  V30 3388 C 320.516 1.98012 0.438059 0
M  V30 3389 C 320.849 1.08702 1.60927 0
M  V30 3390 O 320.124 0.140064 1.93995 0
M  V30 3391 C 320.407 3.48841 0.893419 0
M  V30 3392 C 320.26 4.48928 -0.279947 0
M  V30 3393 C 321.579 4.03498 1.75719 0
M  V30 3394 H 318.698 0.719918 0.157757 0
M  V30 3395 H 321.34 1.87743 -0.291968 0
M  V30 3396 H 319.49 3.57723 1.51547 0
M  V30 3397 H 321.162 4.52079 -0.91772 0
M  V30 3398 H 319.405 4.23694 -0.930919 0
M  V30 3399 H 320.076 5.5194 0.0812601 0
M  V30 3400 H 322.552 3.97427 1.23253 0
M  V30 3401 H 321.428 5.09393 2.04476 0
M  V30 3402 H 321.689 3.4906 2.71311 0
M  V30 3403 N 320.748 -0.0735177 1.57428 0
M  V30 3404 C 321.995 -0.772999 1.87166 0
M  V30 3405 C 322.323 -1.77665 0.791551 0
M  V30 3406 O 321.578 -1.94541 -0.212636 0
M  V30 3407 C 321.877 -1.51799 3.23561 0
M  V30 3408 C 321.543 -0.654484 4.46125 0
M  V30 3409 C 320.205 -0.416511 4.79394 0
M  V30 3410 C 322.557 -0.0555862 5.2117 0
M  V30 3411 C 319.885 0.429869 5.85123 0
M  V30 3412 C 322.237 0.778239 6.27795 0
M  V30 3413 C 320.901 1.0261 6.59566 0
M  V30 3414 H 320.171 -0.282861 0.684888 0
M  V30 3415 H 322.818 -0.0338272 1.9147 0
M  V30 3416 H 321.123 -2.32932 3.1504 0
M  V30 3417 H 322.82 -2.06397 3.43804 0
M  V30 3418 H 319.41 -0.850091 4.20085 0
M  V30 3419 H 323.594 -0.226558 4.95783 0
M  V30 3420 H 318.85 0.630665 6.08139 0
M  V30 3421 H 323.024 1.24906 6.85107 0
M  V30 3422 H 320.651 1.68371 7.4132 0
M  V30 3423 N 322.226 -1.5378 -0.344866 0
M  V30 3424 C 323.503 -1.61589 -1.10219 0
M  V30 3425 C 323.883 -0.436316 -2.06542 0
M  V30 3426 O 323.231 0.571543 -2.21237 0
M  V30 3427 C 323.441 -2.97602 -1.82301 0
M  V30 3428 C 324.789 -3.5291 -2.36093 0
M  V30 3429 O 325.813 -2.99768 -1.924 0
M  V30 3430 O 324.672 -4.45859 -3.16026 0
M  V30 3431 H 321.766 -0.653522 -0.506792 0
M  V30 3432 H 324.312 -1.66126 -0.346465 0
M  V30 3433 H 323.084 -3.74893 -1.12121 0
M  V30 3434 H 322.707 -2.9665 -2.64735 0
M  V30 3435 N 323.704 0.605807 -1.45491 0
M  V30 3436 C 324.614 1.74466 -1.56839 0
M  V30 3437 C 325.63 1.68006 -0.452772 0
M  V30 3438 O 326.806 1.8833 -0.713708 0
M  V30 3439 C 323.871 3.10931 -1.53371 0
M  V30 3440 C 322.932 3.28832 -2.75986 0
M  V30 3441 C 322.165 4.58787 -2.72673 0
M  V30 3442 O 322.388 5.4122 -1.80102 0
M  V30 3443 O 321.322 4.79438 -3.63899 0
M  V30 3444 H 325.148 1.67843 -2.53106 0
M  V30 3445 H 322.733 0.770108 -1.28022 0
M  V30 3446 H 324.615 3.92233 -1.54051 0
M  V30 3447 H 323.29 3.18042 -0.602572 0
M  V30 3448 H 322.197 2.47112 -2.80867 0
M  V30 3449 H 323.53 3.26599 -3.68231 0
M  V30 3450 N 325.182 1.32811 0.848464 0
M  V30 3451 C 326.407 1.26882 1.6406 0
M  V30 3452 C 326.832 -0.15913 1.87426 0
M  V30 3453 O 326.19 -1.11258 1.43148 0
M  V30 3454 C 326.238 2.03997 2.97351 0
M  V30 3455 O 325.342 1.39201 3.88197 0
M  V30 3456 H 324.683 0.436982 0.499943 0
M  V30 3457 H 327.213 1.75224 1.0563 0
M  V30 3458 H 327.223 2.14403 3.47124 0
M  V30 3459 H 325.898 3.0783 2.79666 0
M  V30 3460 H 324.475 1.37381 3.46671 0
M  V30 3461 N 326.66 -1.06551 1.16123 0
M  V30 3462 C 327.607 -2.13961 0.865414 0
M  V30 3463 C 328.577 -1.65066 -0.185055 0
M  V30 3464 O 329.762 -1.90732 -0.05083 0
M  V30 3465 C 326.902 -3.43113 0.369776 0
M  V30 3466 C 326.015 -4.05756 1.48276 0
M  V30 3467 C 325.15 -5.22773 0.942414 0
M  V30 3468 C 324.189 -5.77395 2.03179 0
M  V30 3469 N 323.326 -6.85731 1.50721 0
M  V30 3470 H 328.166 -2.38605 1.78527 0
M  V30 3471 H 325.703 -1.17072 0.890646 0
M  V30 3472 H 327.661 -4.17151 0.0640643 0
M  V30 3473 H 326.291 -3.18695 -0.513143 0
M  V30 3474 H 325.343 -3.29292 1.9045 0
M  V30 3475 H 326.655 -4.42351 2.30493 0
M  V30 3476 H 325.809 -6.03827 0.589729 0
M  V30 3477 H 324.548 -4.87618 0.0895191 0
M  V30 3478 H 323.553 -4.94981 2.3932 0
M  V30 3479 H 324.778 -6.14603 2.8886 0
M  V30 3480 H 322.724 -6.52499 0.676811 0
M  V30 3481 H 322.641 -7.21254 2.26557 0
M  V30 3482 H 323.909 -7.7047 1.18303 0
M  V30 3483 N 328.138 -0.959301 -1.25041 0
M  V30 3484 C 329.363 -0.633507 -1.97488 0
M  V30 3485 C 329.788 0.788555 -1.70773 0
M  V30 3486 O 329.146 1.53394 -0.966431 0
M  V30 3487 C 329.194 -0.904057 -3.49083 0
M  V30 3488 O 328.298 0.0147939 -4.12397 0
M  V30 3489 H 327.639 -0.240368 -0.618966 0
M  V30 3490 H 330.169 -1.28717 -1.59038 0
M  V30 3491 H 330.179 -0.832203 -3.99423 0
M  V30 3492 H 328.854 -1.94048 -3.67856 0
M  V30 3493 H 327.431 -0.109664 -3.72739 0
M  V30 3494 N 329.616 1.39756 -0.72842 0
M  V30 3495 C 330.862 2.01425 -0.282761 0
M  V30 3496 C 331.217 1.56754 1.11561 0
M  V30 3497 O 330.51 0.783482 1.74849 0
M  V30 3498 C 330.704 3.56002 -0.315776 0
M  V30 3499 C 330.533 4.1568 -1.71582 0
M  V30 3500 C 329.303 4.48555 -2.32651 0
M  V30 3501 C 331.501 4.39667 -2.66829 0
M  V30 3502 N 329.483 4.93698 -3.64877 0
M  V30 3503 C 330.854 4.86942 -3.8378 0
M  V30 3504 C 332.909 4.21724 -2.64675 0
M  V30 3505 C 331.612 5.18158 -4.98904 0
M  V30 3506 C 333.638 4.54049 -3.78937 0
M  V30 3507 C 333 5.01525 -4.94623 0
M  V30 3508 H 329.099 0.76756 -0.149583 0
M  V30 3509 H 331.683 1.69784 -0.952976 0
M  V30 3510 H 329.854 3.87046 0.324057 0
M  V30 3511 H 331.586 4.0443 0.147808 0
M  V30 3512 H 328.341 4.36128 -1.84633 0
M  V30 3513 H 328.765 5.20635 -4.32744 0
M  V30 3514 H 333.407 3.84228 -1.76433 0
M  V30 3515 H 331.125 5.54562 -5.87781 0
M  V30 3516 H 334.711 4.41795 -3.78561 0
M  V30 3517 H 333.591 5.26065 -5.81572 0
M  V30 3518 N 331.094 0.475555 1.50254 0
M  V30 3519 C 332.319 -0.0777042 2.07254 0
M  V30 3520 C 332.744 -1.3235 1.3366 0
M  V30 3521 O 332.102 -1.77152 0.385597 0
M  V30 3522 C 332.15 -0.340169 3.58992 0
M  V30 3523 O 331.254 -1.41982 3.87188 0
M  V30 3524 H 330.595 0.0149556 0.663832 0
M  V30 3525 H 333.125 0.667878 1.93392 0
M  V30 3526 H 333.135 -0.579332 4.03866 0
M  V30 3527 H 331.81 0.570167 4.11973 0
M  V30 3528 H 330.387 -1.16762 3.54148 0
M  V30 3529 N 332.573 -1.56217 0.208337 0
M  V30 3530 C 333.505 -2.1695 -0.739276 0
M  V30 3531 C 334.518 -1.13492 -1.1672 0
M  V30 3532 O 335.707 -1.40529 -1.10063 0
M  V30 3533 C 332.807 -2.72755 -2.01142 0
M  V30 3534 C 331.98 -4.0125 -1.74118 0
M  V30 3535 C 331.039 -4.41749 -2.85909 0
M  V30 3536 O 330.065 -5.08912 -2.54946 0
M  V30 3537 N 331.267 -4.06342 -4.14568 0
M  V30 3538 H 334.032 -2.98893 -0.219837 0
M  V30 3539 H 331.593 -1.61878 0.0268445 0
M  V30 3540 H 333.585 -2.96826 -2.75094 0
M  V30 3541 H 332.155 -1.95191 -2.4417 0
M  V30 3542 H 331.375 -3.85173 -0.838775 0
M  V30 3543 H 332.663 -4.851 -1.53477 0
M  V30 3544 H 332.061 -3.52345 -4.42571 0
M  V30 3545 H 330.618 -4.35335 -4.85105 0
M  V30 3546 N 334.051 0.0651679 -1.57465 0
M  V30 3547 C 335.276 0.779605 -1.9219 0
M  V30 3548 C 335.701 1.69988 -0.805333 0
M  V30 3549 O 335.059 1.79685 0.241435 0
M  V30 3550 C 335.107 1.54364 -3.2589 0
M  V30 3551 O 334.211 2.65474 -3.1559 0
M  V30 3552 H 333.552 0.212249 -0.629163 0
M  V30 3553 H 336.082 0.0314294 -2.04576 0
M  V30 3554 H 336.092 1.92146 -3.59922 0
M  V30 3555 H 334.767 0.868457 -4.06732 0
M  V30 3556 H 333.344 2.30501 -2.93128 0
M  V30 3557 N 335.529 1.53961 0.336706 0
M  V30 3558 C 336.754 1.75797 1.10046 0
M  V30 3559 C 337.179 0.498985 1.81361 0
M  V30 3560 O 336.537 -0.548769 1.72795 0
M  V30 3561 C 336.585 2.94257 2.08436 0
M  V30 3562 O 335.689 2.64883 3.16087 0
M  V30 3563 H 335.03 0.582936 0.317934 0
M  V30 3564 H 337.56 2.00945 0.38501 0
M  V30 3565 H 337.57 3.21237 2.51537 0
M  V30 3566 H 336.245 3.85564 1.55927 0
M  V30 3567 H 334.822 2.48812 2.77753 0
M  V30 3568 N 337.007 -0.598083 1.45811 0
M  V30 3569 C 338.232 -1.3881 1.54099 0
M  V30 3570 C 338.657 -1.8726 0.177578 0
M  V30 3571 O 338.015 -1.6069 -0.839541 0
M  V30 3572 C 338.063 -2.56217 2.53743 0
M  V30 3573 O 337.167 -3.5716 2.06182 0
M  V30 3574 H 336.508 -0.414024 0.519115 0
M  V30 3575 H 339.038 -0.726971 1.91249 0
M  V30 3576 H 339.048 -3.03337 2.72856 0
M  V30 3577 H 337.723 -2.20303 3.5276 0
M  V30 3578 H 336.3 -3.16624 1.96987 0
M  V30 3579 N 338.485 -1.33259 -0.841409 0
M  V30 3580 C 339.415 -1.25926 -1.96634 0
M  V30 3581 C 340.396 -0.140349 -1.6952 0
M  V30 3582 O 341.581 -0.329707 -1.91381 0
M  V30 3583 C 338.711 -0.99512 -3.32738 0
M  V30 3584 C 337.665 -2.0767 -3.74242 0
M  V30 3585 C 336.991 -1.66474 -5.08125 0
M  V30 3586 C 338.291 -3.49318 -3.88297 0
M  V30 3587 H 339.985 -2.20046 -2.03027 0
M  V30 3588 H 337.531 -1.05931 -0.975425 0
M  V30 3589 H 339.484 -0.930323 -4.11002 0
M  V30 3590 H 338.208 -0.0183004 -3.26595 0
M  V30 3591 H 336.867 -2.13187 -2.98239 0
M  V30 3592 H 336.515 -0.675012 -4.9845 0
M  V30 3593 H 336.215 -2.3885 -5.36865 0
M  V30 3594 H 337.739 -1.61455 -5.88867 0
M  V30 3595 H 339.153 -3.46316 -4.56879 0
M  V30 3596 H 337.55 -4.20158 -4.28471 0
M  V30 3597 H 338.62 -3.8801 -2.9082 0
M  V30 3598 N 339.963 1.05934 -1.16686 0
M  V30 3599 C 340.896 2.1295 -0.820225 0
M  V30 3600 C 341.874 1.61242 0.209722 0
M  V30 3601 O 343.058 1.88271 0.0929688 0
M  V30 3602 C 340.185 3.3797 -0.22223 0
M  V30 3603 C 339.231 4.08488 -1.22637 0
M  V30 3604 S 340.064 4.58015 -2.77457 0
M  V30 3605 C 341.22 5.86292 -2.19117 0
M  V30 3606 H 341.453 2.42025 -1.72659 0
M  V30 3607 H 338.986 1.18423 -0.990722 0
M  V30 3608 H 340.944 4.10335 0.116322 0
M  V30 3609 H 339.605 3.07045 0.66196 0
M  V30 3610 H 338.798 4.98291 -0.756455 0
M  V30 3611 H 338.4 3.42154 -1.51019 0
M  V30 3612 H 340.692 6.59246 -1.56209 0
M  V30 3613 H 341.635 6.38019 -3.07144 0
M  V30 3614 H 342.043 5.40497 -1.62858 0
M  V30 3615 N 341.441 0.965919 1.2453 0
M  V30 3616 C 342.671 0.643451 1.96324 0
M  V30 3617 C 343.079 -0.790927 1.71875 0
M  V30 3618 O 342.422 -1.54208 0.998273 0
M  V30 3619 C 342.484 0.836078 3.49643 0
M  V30 3620 C 342.148 2.24975 3.97788 0
M  V30 3621 C 343.145 3.22735 4.07601 0
M  V30 3622 C 340.83 2.57697 4.31158 0
M  V30 3623 C 342.824 4.51303 4.50116 0
M  V30 3624 C 340.511 3.86492 4.73357 0
M  V30 3625 C 341.509 4.83107 4.828 0
M  V30 3626 O 341.197 6.09605 5.24058 0
M  V30 3627 H 340.929 0.239223 0.632257 0
M  V30 3628 H 343.483 1.29587 1.59362 0
M  V30 3629 H 341.713 0.12649 3.86493 0
M  V30 3630 H 343.402 0.512965 4.02646 0
M  V30 3631 H 344.168 2.98783 3.82039 0
M  V30 3632 H 340.047 1.83216 4.23028 0
M  V30 3633 H 343.591 5.26716 4.57401 0
M  V30 3634 H 339.488 4.10245 4.98366 0
M  V30 3635 H 340.256 6.13146 5.42213 0
M  V30 3636 N 342.919 -1.39368 0.735821 0
M  V30 3637 C 344.147 -2.04795 0.294393 0
M  V30 3638 C 344.562 -1.55478 -1.07107 0
M  V30 3639 O 343.919 -0.720038 -1.67695 0
M  V30 3640 C 343.97 -3.6035 0.288071 0
M  V30 3641 O 343.691 -4.07852 1.59963 0
M  V30 3642 C 345.192 -4.42976 -0.169422 0
M  V30 3643 H 342.412 -0.658571 0.128551 0
M  V30 3644 H 344.956 -1.78399 0.999701 0
M  V30 3645 H 343.111 -3.85645 -0.368355 0
M  V30 3646 H 343.525 -5.02181 1.51375 0
M  V30 3647 H 344.999 -5.51864 -0.122687 0
M  V30 3648 H 345.476 -4.22068 -1.21472 0
M  V30 3649 H 346.082 -4.22832 0.457469 0
M  V30 3650 N 344.397 -0.483516 -1.5 0
M  V30 3651 C 345.643 0.0672592 -2.02688 0
M  V30 3652 C 345.976 1.38247 -1.36387 0
M  V30 3653 O 345.251 1.88131 -0.493675 0
M  V30 3654 C 345.534 0.238109 -3.59312 0
M  V30 3655 C 345.387 -1.099 -4.36168 0
M  V30 3656 C 346.706 0.986916 -4.28892 0
M  V30 3657 H 343.825 0.0229696 -0.736642 0
M  V30 3658 H 346.467 -0.631527 -1.79197 0
M  V30 3659 H 344.617 0.8333 -3.79458 0
M  V30 3660 H 346.289 -1.73172 -4.27562 0
M  V30 3661 H 344.532 -1.69261 -3.99416 0
M  V30 3662 H 345.203 -0.932954 -5.44059 0
M  V30 3663 H 347.679 0.482302 -4.13295 0
M  V30 3664 H 346.555 1.07527 -5.38265 0
M  V30 3665 H 346.816 2.0265 -3.92919 0
M  V30 3666 N 345.875 1.56104 -0.216619 0
M  V30 3667 C 346.823 2.21434 0.712036 0
M  V30 3668 C 347.817 1.19218 1.20348 0
M  V30 3669 O 349.023 1.3731 1.16387 0
M  V30 3670 H 345.398 0.70992 0.248026 0
M  V30 3671 H 347.369 2.98083 0.137558 0
M  V30 3672 C 346.118 2.90434 1.91163 0
M  V30 3673 H 345.441 3.68842 1.54258 0
M  V30 3674 H 346.881 3.39552 2.5393 0
M  V30 3675 C 345.34 1.92635 2.76394 0
M  V30 3676 O 345.87 1.44017 3.74996 0
M  V30 3677 N 344.076 1.60392 2.42328 0
M  V30 3678 H 343.623 2.00122 1.622 0
M  V30 3679 H 343.581 0.952159 2.99635 0
M  V30 3680 N 347.353 -0.0568162 1.57498 0
M  V30 3681 C 348.601 -0.751617 1.87604 0
M  V30 3682 C 348.922 -1.77351 0.81066 0
M  V30 3683 O 348.192 -1.95254 -0.159018 0
M  V30 3684 H 346.772 -0.280583 0.692302 0
M  V30 3685 H 349.434 -0.0293483 1.94878 0
M  V30 3686 H 348.53 -1.25852 2.856 0
M  V30 3687 N 348.832 -1.54138 -0.328536 0
M  V30 3688 C 350.062 -1.75807 -1.08516 0
M  V30 3689 C 350.47 -0.50428 -1.82356 0
M  V30 3690 O 349.813 0.534451 -1.75754 0
M  V30 3691 C 349.875 -2.89423 -2.13248 0
M  V30 3692 C 349.539 -4.28504 -1.5885 0
M  V30 3693 C 350.536 -5.09536 -1.03289 0
M  V30 3694 C 348.221 -4.75034 -1.63243 0
M  V30 3695 C 350.215 -6.35206 -0.52845 0
M  V30 3696 C 347.902 -6.00672 -1.12411 0
M  V30 3697 C 348.9 -6.80592 -0.573062 0
M  V30 3698 O 348.588 -8.03867 -0.0723692 0
M  V30 3699 H 348.32 -0.590633 -0.328829 0
M  V30 3700 H 350.874 -2.01819 -0.381868 0
M  V30 3701 H 349.104 -2.5897 -2.87178 0
M  V30 3702 H 350.793 -2.98921 -2.74592 0
M  V30 3703 H 351.559 -4.74745 -0.99206 0
M  V30 3704 H 347.438 -4.12875 -2.05074 0
M  V30 3705 H 350.982 -6.97532 -0.0976774 0
M  V30 3706 H 346.879 -6.34955 -1.162 0
M  V30 3707 H 347.647 -8.18283 -0.188258 0
M  V30 3708 N 350.31 0.590341 -1.46126 0
M  V30 3709 C 351.556 1.35082 -1.51264 0
M  V30 3710 C 351.889 1.93534 -0.160711 0
M  V30 3711 O 351.164 1.76045 0.826956 0
M  V30 3712 C 351.447 2.48588 -2.6053 0
M  V30 3713 C 351.3 1.95221 -4.05227 0
M  V30 3714 C 352.619 3.50662 -2.6594 0
M  V30 3715 H 349.738 0.489803 -0.550692 0
M  V30 3716 H 352.38 0.663887 -1.78024 0
M  V30 3717 H 350.53 3.07186 -2.37843 0
M  V30 3718 H 352.202 1.41139 -4.39178 0
M  V30 3719 H 350.445 1.26101 -4.15068 0
M  V30 3720 H 351.116 2.77121 -4.77397 0
M  V30 3721 H 353.592 3.01934 -2.86313 0
M  V30 3722 H 352.468 4.27551 -3.44226 0
M  V30 3723 H 352.729 4.07399 -1.71694 0
M  V30 3724 N 351.788 1.33704 0.83433 0
M  V30 3725 C 352.736 1.24323 1.96587 0
M  V30 3726 C 353.73 0.143659 1.6879 0
M  V30 3727 O 354.936 0.30791 1.77347 0
M  V30 3728 H 351.311 0.385925 0.645419 0
M  V30 3729 H 353.282 2.19978 2.01624 0
M  V30 3730 C 352.031 1.00394 3.32891 0
M  V30 3731 H 351.354 1.84231 3.54822 0
M  V30 3732 H 352.794 0.97862 4.12552 0
M  V30 3733 C 351.253 -0.293047 3.35623 0
M  V30 3734 O 351.783 -1.29823 3.80143 0
M  V30 3735 N 349.989 -0.322174 2.88809 0
M  V30 3736 H 349.536 0.496379 2.52772 0
M  V30 3737 H 349.494 -1.18977 2.91019 0
M  V30 3738 N 353.266 -1.05314 1.17247 0
M  V30 3739 C 354.514 -1.77941 0.958194 0
M  V30 3740 C 354.835 -1.88089 -0.514556 0
M  V30 3741 O 354.105 -1.39676 -1.37359 0
M  V30 3742 H 352.685 -0.659116 0.351533 0
M  V30 3743 H 355.347 -1.27166 1.47699 0
M  V30 3744 H 354.443 -2.79663 1.38546 0
M  V30 3745 N 354.744 -0.972509 -1.24016 0
M  V30 3746 C 355.972 -0.654803 -1.96265 0
M  V30 3747 C 356.387 0.776708 -1.72083 0
M  V30 3748 O 355.744 1.52171 -1.00748 0
M  V30 3749 C 355.795 -0.92592 -3.49441 0
M  V30 3750 O 355.516 -2.30116 -3.72798 0
M  V30 3751 C 357.017 -0.623068 -4.38899 0
M  V30 3752 H 354.237 -0.243907 -0.6251 0
M  V30 3753 H 356.781 -1.30175 -1.57717 0
M  V30 3754 H 354.936 -0.325108 -3.86033 0
M  V30 3755 H 355.35 -2.38483 -4.67147 0
M  V30 3756 H 356.824 -0.863189 -5.45209 0
M  V30 3757 H 357.301 0.442754 -4.36963 0
M  V30 3758 H 357.907 -1.204 -4.07902 0
M  V30 3759 N 356.222 1.38976 -0.743202 0
M  V30 3760 C 357.155 2.28128 -0.0572165 0
M  V30 3761 C 358.133 1.44827 0.739182 0
M  V30 3762 O 359.317 1.74207 0.720009 0
M  V30 3763 C 356.444 3.25796 0.926001 0
M  V30 3764 C 355.49 4.25947 0.217099 0
M  V30 3765 S 356.323 5.24604 -1.07477 0
M  V30 3766 C 357.479 6.25829 -0.0943545 0
M  V30 3767 H 357.712 2.85961 -0.813246 0
M  V30 3768 H 355.245 1.44822 -0.535341 0
M  V30 3769 H 357.203 3.82583 1.48797 0
M  V30 3770 H 355.864 2.66966 1.65493 0
M  V30 3771 H 355.057 4.94746 0.961372 0
M  V30 3772 H 354.659 3.73002 -0.273059 0
M  V30 3773 H 356.951 6.73411 0.743239 0
M  V30 3774 H 357.894 7.0412 -0.749713 0
M  V30 3775 H 358.302 5.63797 0.281706 0
M  V30 3776 N 357.7 0.491464 1.49741 0
M  V30 3777 C 359.111 0.0413169 1.86654 0
M  V30 3778 C 359.462 -1.36985 1.40462 0
M  V30 3779 O 358.587 -2.01917 0.778354 0
M  V30 3780 C 359.182 0.0682023 3.38731 0
M  V30 3781 C 357.741 -0.32656 3.74981 0
M  V30 3782 C 356.888 0.444888 2.73708 0
M  V30 3783 H 359.839 0.704733 1.42194 0
M  V30 3784 H 359.86 -0.729322 3.73445 0
M  V30 3785 H 359.372 1.09539 3.72321 0
M  V30 3786 H 357.473 -1.35734 3.46997 0
M  V30 3787 H 357.586 -0.013741 4.79098 0
M  V30 3788 H 355.95 -0.104062 2.54487 0
M  V30 3789 H 356.733 1.47197 3.10142 0
M  V30 3790 N 359.178 -1.55987 0.224894 0
M  V30 3791 C 360.455 -1.90232 -0.455083 0
M  V30 3792 C 360.835 -1.14269 -1.77499 0
M  V30 3793 O 360.183 -0.253079 -2.27094 0
M  V30 3794 C 360.393 -3.42993 -0.644758 0
M  V30 3795 C 361.741 -4.13821 -0.950669 0
M  V30 3796 O 362.765 -3.4861 -0.731423 0
M  V30 3797 O 361.624 -5.29128 -1.36695 0
M  V30 3798 H 358.718 -0.79108 -0.241084 0
M  V30 3799 H 361.264 -1.67581 0.267327 0
M  V30 3800 H 360.036 -3.90252 0.28613 0
M  V30 3801 H 359.659 -3.71434 -1.41853 0
M  V30 3802 N 360.656 0.0484629 -1.57525 0
M  V30 3803 C 361.905 0.742065 -1.87553 0
M  V30 3804 C 362.218 1.77545 -0.820802 0
M  V30 3805 O 363.424 2.52027 -1.00967 0
M  V30 3806 C 361.88 1.37081 -3.32771 0
M  V30 3807 C 361.488 0.374786 -4.4643 0
M  V30 3808 C 363.232 2.04542 -3.71972 0
M  V30 3809 C 361.139 1.01077 -5.82698 0
M  V30 3810 H 360.069 0.280903 -0.699721 0
M  V30 3811 H 362.72 -0.00411877 -1.835 0
M  V30 3812 H 361.102 2.16605 -3.31509 0
M  V30 3813 H 362.276 -0.392331 -4.59127 0
M  V30 3814 H 360.591 -0.196653 -4.15935 0
M  V30 3815 H 363.188 2.52943 -4.71088 0
M  V30 3816 H 363.531 2.85515 -3.02964 0
M  V30 3817 H 364.064 1.31819 -3.75325 0
M  V30 3818 H 360.803 0.240878 -6.55057 0
M  V30 3819 H 360.323 1.74819 -5.73758 0
M  V30 3820 H 362.002 1.52383 -6.28799 0
M  V30 3821 N 362.134 1.5431 0.320358 0
M  V30 3822 C 363.362 1.76636 1.07738 0
M  V30 3823 C 363.777 0.51649 1.81598 0
M  V30 3824 O 363.134 -0.512942 1.75143 0
M  V30 3825 C 363.185 2.96158 2.07299 0
M  V30 3826 O 362.906 4.16313 1.36438 0
M  V30 3827 C 364.407 3.3072 2.95193 0
M  V30 3828 H 361.627 0.589597 0.320339 0
M  V30 3829 H 364.171 2.01207 0.36551 0
M  V30 3830 H 362.326 2.73851 2.74016 0
M  V30 3831 H 362.74 4.83565 2.03138 0
M  V30 3832 H 364.214 4.17643 3.60941 0
M  V30 3833 H 364.691 2.48026 3.62463 0
M  V30 3834 H 365.297 3.55117 2.34034 0
M  V30 3835 N 363.613 -0.582584 1.46437 0
M  V30 3836 C 364.859 -1.34278 1.51978 0
M  V30 3837 C 365.192 -1.93446 0.170973 0
M  V30 3838 O 364.467 -1.76481 -0.817608 0
M  V30 3839 C 364.75 -2.47203 2.61845 0
M  V30 3840 C 364.603 -1.93069 4.06257 0
M  V30 3841 C 365.922 -3.49247 2.67795 0
M  V30 3842 H 363.041 -0.486876 0.553282 0
M  V30 3843 H 365.683 -0.654437 1.78374 0
M  V30 3844 H 363.833 -3.0592 2.39469 0
M  V30 3845 H 365.505 -1.38808 4.3992 0
M  V30 3846 H 363.748 -1.23898 4.1573 0
M  V30 3847 H 364.419 -2.74586 4.7886 0
M  V30 3848 H 366.895 -3.00411 2.8791 0
M  V30 3849 H 365.771 -4.25719 3.46489 0
M  V30 3850 H 366.032 -4.06482 1.73852 0
M  V30 3851 N 365.091 -1.34144 -0.827227 0
M  V30 3852 C 366.331 -1.27603 -1.59677 0
M  V30 3853 C 366.695 0.153035 -1.91389 0
M  V30 3854 O 367.896 0.342566 -2.66608 0
M  V30 3855 C 366.167 -2.13784 -2.86411 0
M  V30 3856 S 367.726 -2.24552 -3.76991 0
M  V30 3857 H 364.544 -0.453789 -0.547354 0
M  V30 3858 H 367.146 -1.69309 -0.977479 0
M  V30 3859 H 365.85 -3.16627 -2.61104 0
M  V30 3860 H 365.381 -1.72959 -3.5334 0
M  V30 3861 H 367.396 -1.41514 -4.75593 0
M  V30 3862 N 366.569 1.04691 -1.17803 0
M  V30 3863 C 367.532 2.10724 -0.901545 0
M  V30 3864 C 368.532 1.6042 0.110437 0
M  V30 3865 O 369.722 1.7377 -0.122303 0
M  V30 3866 C 366.854 3.39084 -0.351409 0
M  V30 3867 H 368.047 2.36686 -1.84174 0
M  V30 3868 H 365.6 1.21015 -0.98919 0
M  V30 3869 H 366.335 3.18782 0.59569 0
M  V30 3870 H 366.12 3.76909 -1.08083 0
M  V30 3871 H 367.61 4.17227 -0.176451 0
M  V30 3872 N 368.047 0.979072 1.23499 0
M  V30 3873 C 368.997 0.489378 2.22686 0
M  V30 3874 C 369.981 -0.434871 1.54912 0
M  V30 3875 O 371.173 -0.263941 1.75021 0
M  V30 3876 C 368.302 -0.208178 3.42668 0
M  V30 3877 C 367.388 0.735563 4.17672 0
M  V30 3878 N 367.779 1.87763 4.69658 0
M  V30 3879 C 366.077 0.548625 4.42613 0
M  V30 3880 C 366.778 2.46886 5.26709 0
M  V30 3881 N 365.754 1.75287 5.14563 0
M  V30 3882 H 369.556 1.36062 2.60508 0
M  V30 3883 H 367.07 0.83958 1.39014 0
M  V30 3884 H 369.067 -0.576295 4.12898 0
M  V30 3885 H 367.727 -1.07572 3.06363 0
M  V30 3886 H 368.738 2.25885 4.66043 0
M  V30 3887 H 365.415 -0.274006 4.166 0
M  V30 3888 H 366.805 3.43326 5.77561 0
M  V30 3889 N 369.525 -1.3858 0.750561 0
M  V30 3890 C 370.802 -1.94231 0.231009 0
M  V30 3891 C 371.182 -1.68611 -1.27018 0
M  V30 3892 O 370.53 -1.02296 -2.04323 0
M  V30 3893 C 370.74 -3.44123 0.581428 0
M  V30 3894 C 372.088 -4.2116 0.539389 0
M  V30 3895 O 373.112 -3.52391 0.519541 0
M  V30 3896 O 371.971 -5.43749 0.54765 0
M  V30 3897 H 369.065 -0.825639 0.0474263 0
M  V30 3898 H 371.611 -1.4799 0.830478 0
M  V30 3899 H 370.383 -3.56267 1.61833 0
M  V30 3900 H 370.006 -3.97573 -0.0462047 0
M  V30 3901 N 371.003 -0.499398 -1.49478 0
M  V30 3902 C 371.953 0.299103 -2.2603 0
M  V30 3903 C 372.937 0.936934 -1.30807 0
M  V30 3904 O 374.129 0.844798 -1.55538 0
M  V30 3905 C 371.258 1.36391 -3.15044 0
M  V30 3906 C 370.344 0.732398 -4.17728 0
M  V30 3907 N 370.735 -0.164028 -5.05534 0
M  V30 3908 C 369.033 0.993162 -4.34801 0
M  V30 3909 C 369.734 -0.525345 -5.79323 0
M  V30 3910 N 368.71 0.106348 -5.43496 0
M  V30 3911 H 372.512 -0.391003 -2.91287 0
M  V30 3912 H 370.026 -0.31537 -1.59308 0
M  V30 3913 H 372.023 1.94939 -3.68516 0
M  V30 3914 H 370.683 2.05571 -2.51338 0
M  V30 3915 H 371.694 -0.534736 -5.15132 0
M  V30 3916 H 368.371 1.67783 -3.82302 0
M  V30 3917 H 369.761 -1.25862 -6.60006 0
M  V30 3918 N 372.481 1.55866 -0.233164 0
M  V30 3919 C 373.73 1.97779 0.39579 0
M  V30 3920 C 374.043 1.12419 1.60066 0
M  V30 3921 O 375.249 1.44283 2.29988 0
M  V30 3922 C 373.705 3.5188 0.755556 0
M  V30 3923 C 373.313 4.45959 -0.427152 0
M  V30 3924 C 375.057 4.02479 1.34946 0
M  V30 3925 C 372.964 5.91383 -0.0443043 0
M  V30 3926 H 371.894 0.738592 0.15165 0
M  V30 3927 H 374.545 1.80486 -0.331212 0
M  V30 3928 H 372.927 3.64816 1.5403 0
M  V30 3929 H 374.101 4.44776 -1.20462 0
M  V30 3930 H 372.416 4.05765 -0.935068 0
M  V30 3931 H 375.013 5.08637 1.649 0
M  V30 3932 H 375.356 3.49014 2.26925 0
M  V30 3933 H 375.889 3.92813 0.62791 0
M  V30 3934 H 372.628 6.48857 -0.930874 0
M  V30 3935 H 372.148 5.95734 0.697238 0
M  V30 3936 H 373.827 6.45893 0.378334 0
M  V30 3937 N 373.959 -0.0401083 1.57549 0
M  V30 3938 C 375.184 -0.748931 1.93406 0
M  V30 3939 C 375.609 -1.68686 0.832274 0
M  V30 3940 O 374.967 -1.80047 -0.212818 0
M  V30 3941 C 375.015 -1.4916 3.28304 0
M  V30 3942 O 374.119 -2.6042 3.19774 0
M  V30 3943 H 373.46 -0.202212 0.63246 0
M  V30 3944 H 375.99 0.00112086 2.046 0
M  V30 3945 H 376 -1.86395 3.62934 0
M  V30 3946 H 374.675 -0.80364 4.08062 0
M  V30 3947 H 373.252 -2.25808 2.96758 0
M  V30 3948 N 375.437 -1.54477 -0.31217 0
M  V30 3949 C 376.683 -1.74417 -1.04644 0
M  V30 3950 C 377.038 -0.517641 -1.85306 0
M  V30 3951 O 376.331 0.489973 -1.85229 0
M  V30 3952 C 376.525 -2.967 -1.99258 0
M  V30 3953 C 376.354 -4.31128 -1.27901 0
M  V30 3954 C 375.124 -4.95087 -1.01079 0
M  V30 3955 C 377.322 -5.09662 -0.689119 0
M  V30 3956 N 375.304 -6.13322 -0.266323 0
M  V30 3957 C 376.675 -6.19952 -0.0768523 0
M  V30 3958 C 378.73 -4.94355 -0.593061 0
M  V30 3959 C 377.433 -7.16604 0.622165 0
M  V30 3960 C 379.459 -5.91328 0.0922792 0
M  V30 3961 C 378.821 -7.00978 0.693443 0
M  V30 3962 H 374.92 -0.69094 -0.366231 0
M  V30 3963 H 377.504 -1.91946 -0.326319 0
M  V30 3964 H 375.675 -2.80616 -2.68532 0
M  V30 3965 H 377.407 -3.05216 -2.65755 0
M  V30 3966 H 374.162 -4.55235 -1.30607 0
M  V30 3967 H 374.586 -6.76937 0.0920973 0
M  V30 3968 H 379.228 -4.09719 -1.04355 0
M  V30 3969 H 376.946 -8.0079 1.08445 0
M  V30 3970 H 380.532 -5.81562 0.166396 0
M  V30 3971 H 379.412 -7.74725 1.21533 0
M  V30 3972 N 376.915 0.57481 -1.46744 0
M  V30 3973 C 377.865 1.67838 -1.54319 0
M  V30 3974 C 378.849 1.55759 -0.40346 0
M  V30 3975 O 380.041 1.6454 -0.652347 0
M  V30 3976 C 377.17 3.06624 -1.5439 0
M  V30 3977 C 376.256 3.23971 -2.73685 0
M  V30 3978 N 376.647 3.11447 -3.9854 0
M  V30 3979 C 374.945 3.5493 -2.70075 0
M  V30 3980 C 375.646 3.31011 -4.78337 0
M  V30 3981 N 374.622 3.56533 -4.10348 0
M  V30 3982 H 378.424 1.56698 -2.48642 0
M  V30 3983 H 375.938 0.779071 -1.42493 0
M  V30 3984 H 377.935 3.85839 -1.57905 0
M  V30 3985 H 376.595 3.1889 -0.611493 0
M  V30 3986 H 377.606 2.89145 -4.29669 0
M  V30 3987 H 374.283 3.73832 -1.85893 0
M  V30 3988 H 375.673 3.26445 -5.87268 0
M  V30 3989 N 378.394 1.34581 0.820102 0
M  V30 3990 C 379.324 1.29038 1.94606 0
M  V30 3991 C 380.305 0.1673 1.69275 0
M  V30 3992 O 381.49 0.360112 1.90832 0
M  V30 3993 C 378.62 1.04793 3.31113 0
M  V30 3994 C 377.574 2.13597 3.70891 0
M  V30 3995 C 376.9 1.74537 5.05412 0
M  V30 3996 C 378.2 3.55451 3.8269 0
M  V30 3997 H 379.894 2.23248 1.99501 0
M  V30 3998 H 377.44 1.0747 0.958449 0
M  V30 3999 H 379.393 0.995592 4.0947 0
M  V30 4000 H 378.117 0.0702565 3.26524 0
M  V30 4001 H 376.776 2.17905 2.9481 0
M  V30 4002 H 376.424 0.754226 4.97313 0
M  V30 4003 H 376.124 2.47361 5.32997 0
M  V30 4004 H 377.648 1.70803 5.86224 0
M  V30 4005 H 379.062 3.5354 4.51312 0
M  V30 4006 H 377.459 4.26922 4.21732 0
M  V30 4007 H 378.529 3.92587 2.84611 0
M  V30 4008 N 379.872 -1.04064 1.18357 0
M  V30 4009 C 380.802 -2.14001 0.934113 0
M  V30 4010 C 381.783 -1.69616 -0.128186 0
M  V30 4011 O 382.968 -1.94185 0.0244093 0
M  V30 4012 C 380.098 -3.44253 0.459066 0
M  V30 4013 C 379.052 -4.02261 1.46185 0
M  V30 4014 C 378.378 -5.27992 0.844322 0
M  V30 4015 C 379.678 -4.38432 2.83856 0
M  V30 4016 H 381.372 -2.35127 1.85352 0
M  V30 4017 H 378.918 -1.12998 0.892604 0
M  V30 4018 H 380.871 -4.20522 0.271907 0
M  V30 4019 H 379.595 -3.22813 -0.495912 0
M  V30 4020 H 378.254 -3.28074 1.63595 0
M  V30 4021 H 377.902 -5.02862 -0.117845 0
M  V30 4022 H 377.602 -5.67765 1.51384 0
M  V30 4023 H 379.126 -6.06938 0.667693 0
M  V30 4024 H 380.54 -5.05688 2.70098 0
M  V30 4025 H 378.937 -4.89254 3.47491 0
M  V30 4026 H 380.007 -3.4826 3.37406 0
M  V30 4027 N 381.35 -0.985608 -1.22978 0
M  V30 4028 C 382.598 -0.656087 -1.91154 0
M  V30 4029 C 382.919 0.813561 -1.77218 0
M  V30 4030 O 382.189 1.58244 -1.1548 0
M  V30 4031 H 380.769 -0.239674 -0.707506 0
M  V30 4032 H 383.431 -1.25054 -1.49491 0
M  V30 4033 H 382.527 -0.912253 -2.9847 0
M  V30 4034 N 382.828 1.3818 -0.7579 0
M  V30 4035 C 383.761 2.28055 -0.0814093 0
M  V30 4036 C 384.739 1.45603 0.723779 0
M  V30 4037 O 385.923 1.74961 0.701491 0
M  V30 4038 C 383.05 3.2676 0.891394 0
M  V30 4039 C 382.096 4.26153 0.171909 0
M  V30 4040 S 382.929 5.23434 -1.13035 0
M  V30 4041 C 384.085 6.25694 -0.160727 0
M  V30 4042 H 384.318 2.85082 -0.84353 0
M  V30 4043 H 381.851 1.44246 -0.550671 0
M  V30 4044 H 383.809 3.8414 1.44731 0
M  V30 4045 H 382.47 2.68706 1.62652 0
M  V30 4046 H 381.663 4.95738 0.908843 0
M  V30 4047 H 381.265 3.72691 -0.312606 0
M  V30 4048 H 383.557 6.74161 0.671773 0
M  V30 4049 H 384.5 7.03285 -0.824353 0
M  V30 4050 H 384.908 5.64064 0.221892 0
M  V30 4051 N 384.306 0.507319 1.49211 0
M  V30 4052 C 385.531 -0.033725 2.07373 0
M  V30 4053 C 385.956 -1.29485 1.36437 0
M  V30 4054 O 385.314 -1.76294 0.423087 0
M  V30 4055 C 385.362 -0.263945 3.59633 0
M  V30 4056 O 384.466 -1.33737 3.90113 0
M  V30 4057 H 383.807 0.0290331 0.663365 0
M  V30 4058 H 386.337 0.708749 1.91932 0
M  V30 4059 H 386.347 -0.493536 4.05004 0
M  V30 4060 H 385.022 0.657424 4.10671 0
M  V30 4061 H 383.599 -1.09224 3.56545 0
M  V30 4062 N 385.784 -1.5574 0.241426 0
M  V30 4063 C 387.009 -2.0366 -0.392111 0
M  V30 4064 C 387.434 -1.11969 -1.51144 0
M  V30 4065 O 386.792 -0.111594 -1.80956 0
M  V30 4066 C 386.84 -3.49638 -0.882371 0
M  V30 4067 O 385.944 -3.6108 -1.99235 0
M  V30 4068 H 385.285 -0.658379 -0.0862122 0
M  V30 4069 H 387.815 -2.01302 0.365881 0
M  V30 4070 H 387.825 -3.90351 -1.18702 0
M  V30 4071 H 386.5 -4.15852 -0.0632361 0
M  V30 4072 H 385.077 -3.32262 -1.69282 0
M  V30 4073 N 387.262 0.0317525 -1.57568 0
M  V30 4074 C 388.51 0.721676 -1.88776 0
M  V30 4075 C 388.831 1.76039 -0.838772 0
M  V30 4076 O 388.101 1.95482 0.127935 0
M  V30 4077 H 386.681 0.269534 -0.696678 0
M  V30 4078 H 389.343 -0.00165879 -1.949 0
M  V30 4079 H 388.439 1.21293 -2.87566 0
M  V30 4080 N 388.74 1.54641 0.303973 0
M  V30 4081 C 390.151 1.64811 0.877163 0
M  V30 4082 C 390.502 0.554838 1.88191 0
M  V30 4083 O 389.627 -0.309033 2.14182 0
M  V30 4084 C 390.222 2.9876 1.59775 0
M  V30 4085 C 388.781 3.11061 2.11938 0
M  V30 4086 C 387.928 2.60479 0.951097 0
M  V30 4087 H 390.879 1.58493 0.0810486 0
M  V30 4088 H 390.9 2.90017 2.46314 0
M  V30 4089 H 390.412 3.7831 0.866226 0
M  V30 4090 H 388.513 2.36225 2.88146 0
M  V30 4091 H 388.626 4.17171 2.35595 0
M  V30 4092 H 386.99 2.16859 1.33583 0
M  V30 4093 H 387.773 3.42504 0.233581 0
M  V30 4094 N 390.218 -0.567019 1.47046 0
M  V30 4095 C 391.128 -1.70247 1.6141 0
M  V30 4096 C 392.144 -1.66746 0.497157 0
M  V30 4097 O 393.32 -1.86371 0.763389 0
M  V30 4098 C 390.385 -3.06756 1.61561 0
M  V30 4099 C 389.446 -3.21399 2.84607 0
M  V30 4100 C 388.679 -4.51396 2.84741 0
M  V30 4101 O 388.902 -5.36255 1.94388 0
M  V30 4102 O 387.836 -4.69621 3.76483 0
M  V30 4103 H 391.662 -1.61073 2.57467 0
M  V30 4104 H 389.247 -0.735894 1.30019 0
M  V30 4105 H 391.129 -3.8801 1.64396 0
M  V30 4106 H 389.804 -3.16333 0.686684 0
M  V30 4107 H 388.711 -2.39579 2.8732 0
M  V30 4108 H 390.044 -3.16721 3.76761 0
M  V30 4109 N 391.696 -1.35014 -0.812953 0
M  V30 4110 C 392.626 -1.30069 -1.93919 0
M  V30 4111 C 393.607 -0.176275 -1.69184 0
M  V30 4112 O 394.792 -0.370227 -1.90638 0
M  V30 4113 C 391.922 -1.06547 -3.30552 0
M  V30 4114 C 390.876 -2.15561 -3.69753 0
M  V30 4115 C 390.202 -1.77214 -5.04479 0
M  V30 4116 C 391.502 -3.57476 -3.808 0
M  V30 4117 H 393.196 -2.24303 -1.98314 0
M  V30 4118 H 390.742 -1.07977 -0.952736 0
M  V30 4119 H 392.695 -1.01729 -4.08937 0
M  V30 4120 H 391.419 -0.0875719 -3.26483 0
M  V30 4121 H 390.078 -2.19466 -2.9365 0
M  V30 4122 H 389.726 -0.780589 -4.96906 0
M  V30 4123 H 389.426 -2.50184 -5.31678 0
M  V30 4124 H 390.95 -1.7391 -5.8531 0
M  V30 4125 H 392.364 -3.55929 -4.4943 0
M  V30 4126 H 390.761 -4.29152 -4.19462 0
M  V30 4127 H 391.831 -3.94091 -2.82525 0
M  V30 4128 N 393.175 1.03435 -1.18907 0
M  V30 4129 C 394.422 1.76743 -0.988334 0
M  V30 4130 C 394.75 1.88447 0.481441 0
M  V30 4131 O 394.005 1.39383 1.37371 0
M  V30 4132 C 394.304 3.19792 -1.59586 0
M  V30 4133 C 393.97 3.28108 -3.09283 0
M  V30 4134 C 392.632 3.30084 -3.5014 0
M  V30 4135 C 394.984 3.27696 -4.05296 0
M  V30 4136 C 392.312 3.29299 -4.85571 0
M  V30 4137 C 394.664 3.28451 -5.4065 0
M  V30 4138 C 393.328 3.28723 -5.80946 0
M  V30 4139 H 392.598 0.64675 -0.361657 0
M  V30 4140 H 395.245 1.21442 -1.48068 0
M  V30 4141 H 393.55 3.78136 -1.02568 0
M  V30 4142 H 395.247 3.75171 -1.41589 0
M  V30 4143 H 391.837 3.27294 -2.76725 0
M  V30 4144 H 396.021 3.25354 -3.74778 0
M  V30 4145 H 391.277 3.2783 -5.16079 0
M  V30 4146 H 395.451 3.27082 -6.14809 0
M  V30 4147 H 393.078 3.27868 -6.85862 0
M  V30 4148 N 394.653 0.992116 1.22453 0
M  V30 4149 C 395.878 0.685644 1.95739 0
M  V30 4150 C 396.303 -0.743 1.72804 0
M  V30 4151 O 395.661 -1.50778 1.00676 0
M  V30 4152 C 395.709 0.996293 3.46564 0
M  V30 4153 O 394.813 0.0945512 4.12292 0
M  V30 4154 H 394.154 0.256694 0.612376 0
M  V30 4155 H 396.684 1.32888 1.5557 0
M  V30 4156 H 396.694 0.93781 3.97076 0
M  V30 4157 H 395.369 2.03733 3.62582 0
M  V30 4158 H 393.946 0.208451 3.72317 0
M  V30 4159 N 396.131 -1.37776 0.765217 0
M  V30 4160 C 397.38 -1.99092 0.323307 0
M  V30 4161 C 397.693 -1.61434 -1.10446 0
M  V30 4162 O 398.899 -2.15805 -1.64743 0
M  V30 4163 C 397.355 -3.56019 0.527098 0
M  V30 4164 C 396.963 -4.0262 1.96471 0
M  V30 4165 C 398.707 -4.2424 0.148483 0
M  V30 4166 C 396.614 -5.52233 2.11644 0
M  V30 4167 H 395.544 -0.744846 0.117137 0
M  V30 4168 H 398.195 -1.57391 0.943417 0
M  V30 4169 H 396.577 -3.95667 -0.162372 0
M  V30 4170 H 397.751 -3.74234 2.68859 0
M  V30 4171 H 396.066 -3.47161 2.29931 0
M  V30 4172 H 398.663 -5.34159 0.240456 0
M  V30 4173 H 399.006 -4.06446 -0.900422 0
M  V30 4174 H 399.539 -3.89872 0.79025 0
M  V30 4175 H 396.278 -5.74945 3.1483 0
M  V30 4176 H 395.798 -5.82324 1.4373 0
M  V30 4177 H 397.477 -6.18106 1.91193 0
M  V30 4178 N 397.609 -0.515225 -1.4894 0
M  V30 4179 C 398.559 0.275113 -2.26334 0
M  V30 4180 C 399.543 0.923007 -1.31793 0
M  V30 4181 O 400.735 0.828254 -1.56426 0
M  V30 4182 C 397.864 1.33041 -3.16473 0
M  V30 4183 C 396.95 0.688051 -4.18481 0
M  V30 4184 N 397.341 -0.217638 -5.05332 0
M  V30 4185 C 395.639 0.94699 -4.3583 0
M  V30 4186 C 396.34 -0.58676 -5.78733 0
M  V30 4187 N 395.316 0.0486966 -5.43578 0
M  V30 4188 H 399.118 -0.421876 -2.90856 0
M  V30 4189 H 396.632 -0.332249 -1.58965 0
M  V30 4190 H 398.629 1.9102 -3.70563 0
M  V30 4191 H 397.289 2.02894 -2.53504 0
M  V30 4192 H 398.3 -0.589343 -5.14536 0
M  V30 4193 H 394.977 1.63719 -3.8406 0
M  V30 4194 H 396.367 -1.32855 -6.58634 0
M  V30 4195 N 399.087 1.5561 -0.249682 0
M  V30 4196 C 400.334 1.99011 0.374287 0
M  V30 4197 C 400.662 1.13785 1.57744 0
M  V30 4198 O 399.917 0.189326 1.94782 0
M  V30 4199 C 400.216 3.4775 0.824887 0
M  V30 4200 C 399.882 4.50086 -0.270819 0
M  V30 4201 C 398.544 4.77791 -0.571746 0
M  V30 4202 C 400.896 5.11312 -1.01041 0
M  V30 4203 C 398.224 5.63997 -1.61629 0
M  V30 4204 C 400.576 5.98651 -2.0445 0
M  V30 4205 C 399.24 6.24688 -2.35204 0
M  V30 4206 H 398.51 0.728233 0.136961 0
M  V30 4207 H 401.157 1.88122 -0.358087 0
M  V30 4208 H 399.462 3.55985 1.63651 0
M  V30 4209 H 401.159 3.78721 1.31799 0
M  V30 4210 H 397.749 4.28592 -0.026136 0
M  V30 4211 H 401.933 4.89953 -0.791177 0
M  V30 4212 H 397.189 5.82425 -1.85988 0
M  V30 4213 H 401.363 6.45135 -2.62248 0
M  V30 4214 H 398.99 6.91281 -3.16282 0
M  V30 4215 N 400.565 -0.0233959 1.57583 0
M  V30 4216 C 401.513 -1.04063 2.08023 0
M  V30 4217 C 402.507 -1.37084 0.995204 0
M  V30 4218 O 403.713 -1.35923 1.18004 0
M  V30 4219 H 400.088 -0.353144 0.663922 0
M  V30 4220 H 402.059 -0.589453 2.9252 0
M  V30 4221 C 400.808 -2.33123 2.57971 0
M  V30 4222 H 400.131 -2.08577 3.4108 0
M  V30 4223 H 401.571 -3.02632 2.96967 0
M  V30 4224 C 400.03 -3.02483 1.48342 0
M  V30 4225 O 400.56 -3.92541 0.852898 0
M  V30 4226 N 398.766 -2.63909 1.21658 0
M  V30 4227 H 398.313 -1.90758 1.73116 0
M  V30 4228 H 398.271 -3.10633 0.485218 0
M  V30 4229 N 402.043 -1.548 -0.295768 0
M  V30 4230 C 403.291 -1.73985 -1.02828 0
M  V30 4231 C 403.612 -0.531406 -1.87619 0
M  V30 4232 O 402.882 0.454221 -1.90561 0
M  V30 4233 H 401.462 -0.641556 -0.382642 0
M  V30 4234 H 404.124 -1.92163 -0.325489 0
M  V30 4235 H 403.22 -2.63129 -1.67838 0
M  V30 4236 N 403.521 0.559213 -1.47345 0
M  V30 4237 C 404.453 1.68161 -1.55738 0
M  V30 4238 C 405.466 1.56636 -0.443744 0
M  V30 4239 O 406.655 1.6363 -0.713258 0
M  V30 4240 C 403.755 3.06611 -1.4437 0
M  V30 4241 C 402.928 3.4391 -2.70268 0
M  V30 4242 C 401.987 4.61515 -2.52765 0
M  V30 4243 O 401.013 4.66197 -3.26572 0
M  V30 4244 N 402.215 5.57883 -1.6046 0
M  V30 4245 H 404.98 1.61408 -2.52522 0
M  V30 4246 H 402.541 0.7458 -1.43699 0
M  V30 4247 H 404.533 3.83117 -1.30398 0
M  V30 4248 H 403.103 3.07602 -0.556766 0
M  V30 4249 H 402.323 2.56873 -2.99015 0
M  V30 4250 H 403.611 3.65605 -3.53851 0
M  V30 4251 H 403.009 5.56855 -0.996422 0
M  V30 4252 H 401.566 6.33723 -1.52441 0
M  V30 4253 N 404.999 1.35443 0.805782 0
M  V30 4254 C 406.245 1.28952 1.56522 0
M  V30 4255 C 406.578 -0.135597 1.93726 0
M  V30 4256 O 405.853 -1.08516 1.61414 0
M  V30 4257 C 406.136 2.19678 2.85331 0
M  V30 4258 C 405.989 3.7081 2.54598 0
M  V30 4259 C 407.308 2.09495 3.8704 0
M  V30 4260 H 404.427 0.469764 0.567883 0
M  V30 4261 H 407.069 1.65851 0.927001 0
M  V30 4262 H 405.219 1.8834 3.39795 0
M  V30 4263 H 406.891 4.12593 2.06312 0
M  V30 4264 H 405.134 3.91051 1.8778 0
M  V30 4265 H 405.805 4.29679 3.46525 0
M  V30 4266 H 408.281 2.37045 3.41978 0
M  V30 4267 H 407.157 2.75173 4.74943 0
M  V30 4268 H 407.418 1.07714 4.28777 0
M  V30 4269 N 406.477 -1.02803 1.19454 0
M  V30 4270 C 407.407 -2.12999 0.956758 0
M  V30 4271 C 408.388 -1.69743 -0.110188 0
M  V30 4272 O 409.573 -1.94148 0.0450038 0
M  V30 4273 C 406.703 -3.43746 0.495553 0
M  V30 4274 C 405.657 -4.00688 1.50443 0
M  V30 4275 C 404.983 -5.27067 0.900275 0
M  V30 4276 C 406.283 -4.35397 2.8849 0
M  V30 4277 H 407.977 -2.33148 1.87836 0
M  V30 4278 H 405.523 -1.12045 0.904539 0
M  V30 4279 H 407.476 -4.2021 0.316493 0
M  V30 4280 H 406.2 -3.23321 -0.461646 0
M  V30 4281 H 404.859 -3.2632 1.67065 0
M  V30 4282 H 404.507 -5.02959 -0.064503 0
M  V30 4283 H 404.207 -5.66127 1.57397 0
M  V30 4284 H 405.731 -6.06196 0.73203 0
M  V30 4285 H 407.145 -5.02795 2.75446 0
M  V30 4286 H 405.542 -4.85541 3.52661 0
M  V30 4287 H 406.612 -3.44662 3.41081 0
M  V30 4288 N 407.956 -0.998596 -1.21925 0
M  V30 4289 C 408.866 -0.562736 -2.27751 0
M  V30 4290 C 409.882 0.391203 -1.69545 0
M  V30 4291 O 411.058 0.256625 -1.99758 0
M  V30 4292 C 408.123 0.11012 -3.46525 0
M  V30 4293 C 407.184 -0.887495 -4.20026 0
M  V30 4294 C 406.417 -0.246654 -5.3313 0
M  V30 4295 O 406.64 0.958088 -5.62296 0
M  V30 4296 O 405.574 -0.954374 -5.94286 0
M  V30 4297 H 409.4 -1.44329 -2.67213 0
M  V30 4298 H 406.985 -0.767135 -1.28201 0
M  V30 4299 H 408.867 0.486756 -4.18579 0
M  V30 4300 H 407.542 0.965154 -3.08976 0
M  V30 4301 H 406.449 -1.31517 -3.5022 0
M  V30 4302 H 407.782 -1.71191 -4.6147 0
M  V30 4303 N 409.434 1.37368 -0.772513 0
M  V30 4304 C 410.366 2.28899 -0.117502 0
M  V30 4305 C 411.379 1.4867 0.663405 0
M  V30 4306 O 412.568 1.71314 0.501372 0
M  V30 4307 C 409.668 3.2788 0.857192 0
M  V30 4308 C 408.841 4.37207 0.129938 0
M  V30 4309 C 407.9 5.16257 1.01811 0
M  V30 4310 O 406.926 5.67159 0.481601 0
M  V30 4311 N 408.128 5.31058 2.3443 0
M  V30 4312 H 410.893 2.85752 -0.903662 0
M  V30 4313 H 408.454 1.49353 -0.62493 0
M  V30 4314 H 410.446 3.77647 1.45482 0
M  V30 4315 H 409.016 2.7179 1.54432 0
M  V30 4316 H 408.236 3.88827 -0.648605 0
M  V30 4317 H 409.524 5.07434 -0.372559 0
M  V30 4318 H 408.922 4.91287 2.80452 0
M  V30 4319 H 407.479 5.84131 2.89197 0
M  V30 4320 N 410.912 0.523116 1.48665 0
M  V30 4321 C 411.86 -0.256859 2.31177 0
M  V30 4322 C 412.854 -0.94199 1.40794 0
M  V30 4323 O 414.06 -0.867157 1.57735 0
M  V30 4324 H 410.435 -0.1017 0.745091 0
M  V30 4325 H 412.406 0.458739 2.94853 0
M  V30 4326 C 411.155 -1.29503 3.22683 0
M  V30 4327 H 410.478 -0.777248 3.92172 0
M  V30 4328 H 411.918 -1.81233 3.83315 0
M  V30 4329 C 410.377 -2.32501 2.43813 0
M  V30 4330 O 410.907 -3.3881 2.15803 0
M  V30 4331 N 409.113 -2.05538 2.05432 0
M  V30 4332 H 408.66 -1.19104 2.28412 0
M  V30 4333 H 408.618 -2.74676 1.52973 0
M  V30 4334 N 412.39 -1.55475 0.257931 0
M  V30 4335 C 413.34 -2.18506 -0.651094 0
M  V30 4336 C 414.324 -1.14431 -1.13112 0
M  V30 4337 O 415.516 -1.40305 -1.07905 0
M  V30 4338 C 412.645 -2.89653 -1.84272 0
M  V30 4339 C 411.731 -4.00996 -1.38068 0
M  V30 4340 N 412.122 -5.01816 -0.633609 0
M  V30 4341 C 410.42 -4.13753 -1.66506 0
M  V30 4342 C 411.121 -5.80371 -0.392922 0
M  V30 4343 N 410.097 -5.3505 -0.960359 0
M  V30 4344 H 413.899 -2.93811 -0.0722883 0
M  V30 4345 H 411.413 -1.62286 0.0607256 0
M  V30 4346 H 413.41 -3.33245 -2.50506 0
M  V30 4347 H 412.07 -2.15854 -2.42564 0
M  V30 4348 H 413.081 -5.17128 -0.282626 0
M  V30 4349 H 409.758 -3.51133 -2.25858 0
M  V30 4350 H 411.148 -6.7159 0.204235 0
M  V30 4351 N 413.868 0.0150385 -1.57593 0
M  V30 4352 C 414.818 1.01943 -2.0394 0
M  V30 4353 C 415.802 1.31209 -0.931286 0
M  V30 4354 O 416.994 1.30559 -1.19513 0
M  V30 4355 C 414.123 2.31621 -2.53391 0
M  V30 4356 C 413.209 2.05384 -3.7105 0
M  V30 4357 N 413.6 1.49253 -4.83278 0
M  V30 4358 C 411.898 2.35601 -3.78693 0
M  V30 4359 C 412.599 1.39143 -5.64813 0
M  V30 4360 N 411.575 1.87187 -5.10355 0
M  V30 4361 H 415.377 0.57969 -2.88126 0
M  V30 4362 H 412.891 0.221056 -1.60888 0
M  V30 4363 H 414.888 3.044 -2.84862 0
M  V30 4364 H 413.548 2.76261 -1.70616 0
M  V30 4365 H 414.559 1.17334 -5.04433 0
M  V30 4366 H 411.236 2.8322 -3.06746 0
M  V30 4367 H 412.626 0.961153 -6.6499 0
M  V30 4368 N 415.346 1.54954 0.287554 0
M  V30 4369 C 416.293 1.86834 1.35505 0
M  V30 4370 C 417.263 0.718452 1.49758 0
M  V30 4371 O 418.448 0.968358 1.644 0
M  V30 4372 C 415.588 2.13303 2.71286 0
M  V30 4373 C 414.701 3.40883 2.65373 0
M  V30 4374 C 413.836 3.57125 3.93236 0
M  V30 4375 C 412.875 4.78449 3.81776 0
M  V30 4376 N 412.012 4.91426 5.01443 0
M  V30 4377 H 416.852 2.77889 1.07619 0
M  V30 4378 H 414.389 1.37593 0.520241 0
M  V30 4379 H 416.347 2.26646 3.50267 0
M  V30 4380 H 414.977 1.25499 2.97405 0
M  V30 4381 H 414.029 3.36088 1.78182 0
M  V30 4382 H 415.341 4.29993 2.52799 0
M  V30 4383 H 414.495 3.70207 4.80658 0
M  V30 4384 H 413.234 2.66173 4.0866 0
M  V30 4385 H 412.239 4.65386 2.92738 0
M  V30 4386 H 413.464 5.70822 3.67884 0
M  V30 4387 H 411.41 4.03401 5.17304 0
M  V30 4388 H 411.327 5.74559 4.91343 0
M  V30 4389 H 412.595 5.08879 5.90477 0
M  V30 4390 N 416.824 -0.551391 1.4764 0
M  V30 4391 C 418.07 -1.31024 1.54792 0
M  V30 4392 C 418.403 -1.9304 0.211967 0
M  V30 4393 O 417.678 -1.78175 -0.77999 0
M  V30 4394 C 417.961 -2.41593 2.67029 0
M  V30 4395 C 417.814 -1.84408 4.10261 0
M  V30 4396 C 419.133 -3.43488 2.75143 0
M  V30 4397 H 416.252 -0.475031 0.563485 0
M  V30 4398 H 418.894 -0.616454 1.79722 0
M  V30 4399 H 417.044 -3.00772 2.45904 0
M  V30 4400 H 418.716 -1.29445 4.42766 0
M  V30 4401 H 416.959 -1.15051 4.18265 0
M  V30 4402 H 417.63 -2.64367 4.84576 0
M  V30 4403 H 420.106 -2.94236 2.94218 0
M  V30 4404 H 418.982 -4.18274 3.55441 0
M  V30 4405 H 419.243 -4.02703 1.82435 0
M  V30 4406 N 418.302 -1.35869 -0.798587 0
M  V30 4407 C 419.527 -1.32883 -1.59238 0
M  V30 4408 C 419.952 0.0894587 -1.87887 0
M  V30 4409 O 419.31 1.05869 -1.47178 0
M  V30 4410 C 419.358 -2.14892 -2.89575 0
M  V30 4411 O 418.462 -1.53512 -3.82763 0
M  V30 4412 H 417.803 -0.455236 -0.48338 0
M  V30 4413 H 420.333 -1.79024 -0.990539 0
M  V30 4414 H 420.343 -2.27139 -3.38928 0
M  V30 4415 H 419.018 -3.17998 -2.68049 0
M  V30 4416 H 417.595 -1.50153 -3.41334 0
M  V30 4417 N 419.78 1.02168 -1.19998 0
M  V30 4418 C 420.743 2.08765 -0.94604 0
M  V30 4419 C 421.743 1.60618 0.0763846 0
M  V30 4420 O 422.933 1.73472 -0.159135 0
M  V30 4421 C 420.065 3.38262 -0.423255 0
M  V30 4422 H 421.258 2.32726 -1.89153 0
M  V30 4423 H 418.811 1.1889 -1.01464 0
M  V30 4424 H 419.546 3.19974 0.527938 0
M  V30 4425 H 419.331 3.74532 -1.16053 0
M  V30 4426 H 420.821 4.16759 -0.264911 0
M  V30 4427 N 421.258 1.00505 1.21394 0
M  V30 4428 C 422.507 0.683159 1.89778 0
M  V30 4429 C 422.82 -0.789471 1.7896 0
M  V30 4430 O 424.026 -1.22344 2.42372 0
M  V30 4431 C 422.482 1.17146 3.40301 0
M  V30 4432 C 422.09 2.67017 3.5973 0
M  V30 4433 C 423.834 0.924461 4.14311 0
M  V30 4434 C 421.741 3.09387 5.04017 0
M  V30 4435 H 420.671 0.25183 0.710702 0
M  V30 4436 H 423.322 1.21622 1.37406 0
M  V30 4437 H 421.704 0.566451 3.91928 0
M  V30 4438 H 422.878 3.32968 3.18542 0
M  V30 4439 H 421.193 2.89732 2.99073 0
M  V30 4440 H 423.79 1.21658 5.20676 0
M  V30 4441 H 424.133 -0.139286 4.16067 0
M  V30 4442 H 424.666 1.49226 3.6875 0
M  V30 4443 H 421.405 4.14989 5.07409 0
M  V30 4444 H 420.925 2.48149 5.46061 0
M  V30 4445 H 422.604 3.01371 5.72525 0
M  V30 4446 N 422.737 -1.36956 0.779787 0
M  V30 4447 C 423.965 -2.03755 0.359398 0
M  V30 4448 C 424.38 -1.58807 -1.02106 0
M  V30 4449 O 423.737 -0.773024 -1.6532 0
M  V30 4450 C 423.788 -3.59251 0.402568 0
M  V30 4451 O 423.509 -4.02557 1.72858 0
M  V30 4452 C 425.01 -4.43291 -0.0284068 0
M  V30 4453 H 422.23 -0.654148 0.149437 0
M  V30 4454 H 424.774 -1.75128 1.05595 0
M  V30 4455 H 422.929 -3.86621 -0.245478 0
M  V30 4456 H 423.343 -4.97111 1.67275 0
M  V30 4457 H 424.817 -5.51975 0.0529466 0
M  V30 4458 H 425.294 -4.25719 -1.07982 0
M  V30 4459 H 425.9 -4.21163 0.591758 0
M  V30 4460 N 424.215 -0.530993 -1.48385 0
M  V30 4461 C 425.145 0.219985 -2.32461 0
M  V30 4462 C 426.126 0.934111 -1.42156 0
M  V30 4463 O 427.311 0.919694 -1.71042 0
M  V30 4464 C 424.441 1.26674 -3.23375 0
M  V30 4465 C 423.395 0.67069 -4.22712 0
M  V30 4466 C 422.721 1.82017 -5.02766 0
M  V30 4467 C 424.021 -0.358268 -5.2107 0
M  V30 4468 H 425.715 -0.48187 -2.95497 0
M  V30 4469 H 423.261 -0.233182 -1.42099 0
M  V30 4470 H 425.214 1.80006 -3.81019 0
M  V30 4471 H 423.938 1.99818 -2.58341 0
M  V30 4472 H 422.597 0.158878 -3.66256 0
M  V30 4473 H 422.245 2.54002 -4.34157 0
M  V30 4474 H 421.945 1.42727 -5.70003 0
M  V30 4475 H 423.469 2.35725 -5.63264 0
M  V30 4476 H 424.883 0.0880081 -5.73232 0
M  V30 4477 H 423.28 -0.66861 -5.96364 0
M  V30 4478 H 424.35 -1.26367 -4.68145 0
M  V30 4479 N 425.693 1.55336 -0.266172 0
M  V30 4480 C 426.939 1.99692 0.353681 0
M  V30 4481 C 427.272 1.1543 1.56172 0
M  V30 4482 O 426.547 0.222218 1.93226 0
M  V30 4483 C 426.83 3.52316 0.74466 0
M  V30 4484 C 426.683 4.47337 -0.470101 0
M  V30 4485 C 428.002 4.10588 1.58447 0
M  V30 4486 H 425.121 0.725961 0.12708 0
M  V30 4487 H 427.763 1.86336 -0.371333 0
M  V30 4488 H 425.913 3.63829 1.36239 0
M  V30 4489 H 427.585 4.4778 -1.10864 0
M  V30 4490 H 425.828 4.19364 -1.10978 0
M  V30 4491 H 426.499 5.51788 -0.15291 0
M  V30 4492 H 428.975 4.02297 1.06286 0
M  V30 4493 H 427.851 5.17607 1.82686 0
M  V30 4494 H 428.112 3.60253 2.56262 0
M  V30 4495 N 427.171 -0.0066808 1.57599 0
M  V30 4496 C 428.396 -0.707738 1.94951 0
M  V30 4497 C 428.821 -1.66882 0.867868 0
M  V30 4498 O 428.179 -1.80457 -0.17458 0
M  V30 4499 C 428.227 -1.42162 3.31394 0
M  V30 4500 O 427.331 -2.53578 3.25226 0
M  V30 4501 H 426.672 -0.188752 0.636607 0
M  V30 4502 H 429.202 0.0445193 2.04552 0
M  V30 4503 H 429.212 -1.78655 3.66806 0
M  V30 4504 H 427.887 -0.716903 4.09675 0
M  V30 4505 H 426.464 -2.19463 3.01481 0
M  V30 4506 N 428.649 -1.55105 -0.279332 0
M  V30 4507 C 429.612 -1.86783 -1.32834 0
M  V30 4508 C 430.612 -0.74199 -1.42657 0
M  V30 4509 O 431.802 -1.0102 -1.41918 0
M  V30 4510 C 428.934 -2.06746 -2.71052 0
M  V30 4511 H 430.127 -2.8055 -1.05979 0
M  V30 4512 H 427.68 -1.47499 -0.517087 0
M  V30 4513 H 428.415 -1.15339 -3.03097 0
M  V30 4514 H 428.2 -2.88711 -2.65309 0
M  V30 4515 H 429.69 -2.32549 -3.46858 0
M  V30 4516 N 430.127 0.543554 -1.4793 0
M  V30 4517 C 431.355 1.32516 -1.58894 0
M  V30 4518 C 431.77 1.87215 -0.244131 0
M  V30 4519 O 431.127 1.65709 0.764652 0
M  V30 4520 C 431.178 2.48554 -2.62494 0
M  V30 4521 O 430.899 1.96112 -3.91755 0
M  V30 4522 C 432.4 3.40572 -2.8377 0
M  V30 4523 H 429.62 0.403472 -0.536145 0
M  V30 4524 H 432.164 0.657106 -1.93655 0
M  V30 4525 H 430.319 3.1127 -2.30629 0
M  V30 4526 H 430.733 2.71967 -4.4848 0
M  V30 4527 H 432.207 4.18375 -3.60093 0
M  V30 4528 H 432.684 3.94965 -1.92092 0
M  V30 4529 H 433.29 2.8366 -3.16887 0
M  V30 4530 N 431.605 1.3629 0.791371 0
M  V30 4531 C 432.83 1.33726 1.58531 0
M  V30 4532 C 433.255 -0.0794933 1.87932 0
M  V30 4533 O 432.613 -1.05087 1.47738 0
M  V30 4534 C 432.661 2.16425 2.88431 0
M  V30 4535 O 431.765 1.5554 3.81944 0
M  V30 4536 H 431.106 0.457793 0.480959 0
M  V30 4537 H 433.636 1.79547 0.981031 0
M  V30 4538 H 433.646 2.28933 3.37718 0
M  V30 4539 H 432.321 3.19415 2.66359 0
M  V30 4540 H 430.898 1.51961 3.40532 0
M  V30 4541 N 433.083 -1.0153 1.20538 0
M  V30 4542 C 434.311 -1.78746 1.04199 0
M  V30 4543 C 434.726 -1.84323 -0.408733 0
M  V30 4544 O 434.083 -1.29714 -1.28377 0
M  V30 4545 C 434.134 -3.23152 1.62035 0
M  V30 4546 O 433.855 -3.17918 3.0143 0
M  V30 4547 C 435.356 -4.16911 1.50666 0
M  V30 4548 H 432.576 -0.56208 0.366479 0
M  V30 4549 H 435.12 -1.27794 1.59653 0
M  V30 4550 H 433.275 -3.71248 1.10697 0
M  V30 4551 H 433.689 -4.08567 3.28897 0
M  V30 4552 H 435.163 -5.16072 1.95892 0
M  V30 4553 H 435.64 -4.36791 0.459363 0
M  V30 4554 H 436.246 -3.74698 2.01201 0
M  V30 4555 N 434.561 -1.01147 -1.20859 0
M  V30 4556 C 435.789 -0.716911 -1.94082 0
M  V30 4557 C 436.204 0.721568 -1.74467 0
M  V30 4558 O 435.561 1.48889 -1.05539 0
M  V30 4559 C 435.612 -1.03662 -3.46318 0
M  V30 4560 O 435.333 -2.4186 -3.65288 0
M  V30 4561 C 436.834 -0.762386 -4.36695 0
M  V30 4562 H 434.054 -0.26367 -0.617024 0
M  V30 4563 H 436.598 -1.35127 -1.53496 0
M  V30 4564 H 434.753 -0.447757 -3.84804 0
M  V30 4565 H 435.167 -2.53224 -4.59323 0
M  V30 4566 H 436.641 -1.03621 -5.42187 0
M  V30 4567 H 437.118 0.303514 -4.3815 0
M  V30 4568 H 437.724 -1.33316 -4.03865 0
M  V30 4569 N 436.039 1.36541 -0.78704 0
M  V30 4570 C 437.002 2.28413 -0.189778 0
M  V30 4571 C 438.002 1.48719 0.611499 0
M  V30 4572 O 439.192 1.68737 0.432842 0
M  V30 4573 C 436.324 3.32824 0.737638 0
M  V30 4574 H 437.517 2.82743 -0.999831 0
M  V30 4575 H 435.07 1.46065 -0.556298 0
M  V30 4576 H 435.805 2.83646 1.57212 0
M  V30 4577 H 435.59 3.91752 0.165044 0
M  V30 4578 H 437.08 4.0144 1.15047 0
M  V30 4579 N 437.518 0.538854 1.48102 0
M  V30 4580 C 438.466 -0.232325 2.31437 0
M  V30 4581 C 439.46 -0.927004 1.41785 0
M  V30 4582 O 440.666 -0.850378 1.58646 0
M  V30 4583 H 437.041 -0.0937916 0.746128 0
M  V30 4584 H 439.012 0.489986 2.9435 0
M  V30 4585 C 437.761 -1.26074 3.24038 0
M  V30 4586 H 437.084 -0.735609 3.92974 0
M  V30 4587 H 438.524 -1.77157 3.85216 0
M  V30 4588 C 436.983 -2.29902 2.46265 0
M  V30 4589 O 437.513 -3.36502 2.19384 0
M  V30 4590 N 435.719 -2.03348 2.07601 0
M  V30 4591 H 435.266 -1.16675 2.29662 0
M  V30 4592 H 435.224 -2.73038 1.55877 0
M  V30 4593 N 438.996 -1.55193 0.274407 0
M  V30 4594 C 439.929 -2.18606 -0.654712 0
M  V30 4595 C 440.907 -1.14677 -1.15273 0
M  V30 4596 O 442.091 -1.43198 -1.22583 0
M  V30 4597 C 439.218 -2.80875 -1.89281 0
M  V30 4598 C 438.264 -3.981 -1.53032 0
M  V30 4599 S 439.097 -5.32025 -0.609107 0
M  V30 4600 C 440.253 -5.97761 -1.85559 0
M  V30 4601 H 440.486 -2.97074 -0.115894 0
M  V30 4602 H 438.019 -1.54288 0.05867 0
M  V30 4603 H 439.977 -3.17381 -2.60345 0
M  V30 4604 H 438.638 -2.02302 -2.40277 0
M  V30 4605 H 437.831 -4.40356 -2.45158 0
M  V30 4606 H 437.433 -3.63013 -0.899874 0
M  V30 4607 H 439.725 -6.16951 -2.7996 0
M  V30 4608 H 440.668 -6.92545 -1.47605 0
M  V30 4609 H 441.076 -5.27113 -2.02021 0
M  V30 4610 N 440.474 -0.00167713 -1.576 0
M  V30 4611 C 441.702 0.693759 -1.94922 0
M  V30 4612 C 442.117 1.67215 -0.876626 0
M  V30 4613 O 441.474 1.81929 0.144279 0
M  V30 4614 C 441.525 1.42416 -3.32265 0
M  V30 4615 O 441.246 0.485014 -4.35407 0
M  V30 4616 C 442.747 2.21395 -3.84056 0
M  V30 4617 H 439.967 0.193118 -0.642609 0
M  V30 4618 H 442.511 -0.0532952 -2.04431 0
M  V30 4619 H 440.666 2.12284 -3.24059 0
M  V30 4620 H 441.08 1.00053 -5.14868 0
M  V30 4621 H 442.554 2.67996 -4.82578 0
M  V30 4622 H 443.031 3.04142 -3.16851 0
M  V30 4623 H 443.637 1.56542 -3.95443 0
M  V30 4624 N 441.952 1.55251 0.271103 0
M  V30 4625 C 443.198 1.76207 1.00394 0
M  V30 4626 C 443.531 0.562604 1.85872 0
M  V30 4627 O 442.806 -0.439785 1.89463 0
M  V30 4628 C 443.089 3.06828 1.8849 0
M  V30 4629 C 442.942 4.37134 1.05992 0
M  V30 4630 C 444.261 3.33503 2.87165 0
M  V30 4631 H 441.38 0.641086 0.363562 0
M  V30 4632 H 444.022 1.87982 0.276189 0
M  V30 4633 H 442.172 2.96921 2.5054 0
M  V30 4634 H 443.844 4.59001 0.459978 0
M  V30 4635 H 442.087 4.32275 0.363443 0
M  V30 4636 H 442.758 5.2486 1.70955 0
M  V30 4637 H 445.234 3.43215 2.3525 0
M  V30 4638 H 444.11 4.2616 3.45946 0
M  V30 4639 H 444.371 2.53235 3.62387 0
M  V30 4640 N 443.43 -0.535701 1.48216 0
M  V30 4641 C 444.678 -1.28928 1.55634 0
M  V30 4642 C 444.999 -1.93645 0.229514 0
M  V30 4643 O 444.269 -1.81038 -0.74846 0
M  V30 4644 H 442.849 -0.47884 0.573342 0
M  V30 4645 H 445.511 -0.623853 1.84646 0
M  V30 4646 H 444.607 -2.07157 2.33436 0
M  V30 4647 N 444.908 -1.36708 -0.784132 0
M  V30 4648 C 446.319 -1.27947 -1.35965 0
M  V30 4649 C 446.67 0.0784013 -1.96043 0
M  V30 4650 O 445.795 0.979989 -1.92938 0
M  V30 4651 C 446.39 -2.31689 -2.47195 0
M  V30 4652 C 444.949 -2.26601 -3.00548 0
M  V30 4653 C 444.096 -2.16184 -1.73666 0
M  V30 4654 H 447.047 -1.4751 -0.585358 0
M  V30 4655 H 447.068 -1.95638 -3.26352 0
M  V30 4656 H 446.58 -3.30506 -2.03439 0
M  V30 4657 H 444.681 -1.31268 -3.48711 0
M  V30 4658 H 444.794 -3.19508 -3.57004 0
M  V30 4659 H 443.158 -1.62524 -1.96107 0
M  V30 4660 H 443.941 -3.16896 -1.32031 0
M  V30 4661 N 446.386 1.0089 -1.21074 0
M  V30 4662 C 447.296 2.13039 -0.982425 0
M  V30 4663 C 448.312 1.73881 0.0642161 0
M  V30 4664 O 449.488 2.01012 -0.12496 0
M  V30 4665 C 446.553 3.42377 -0.545803 0
M  V30 4666 C 445.614 3.95731 -1.6642 0
M  V30 4667 C 444.847 5.18896 -1.24832 0
M  V30 4668 O 445.07 5.70273 -0.120265 0
M  V30 4669 O 444.004 5.65597 -2.05873 0
M  V30 4670 H 447.83 2.35175 -1.92163 0
M  V30 4671 H 445.415 1.1142 -0.995285 0
M  V30 4672 H 447.297 4.20244 -0.311912 0
M  V30 4673 H 445.972 3.21639 0.364727 0
M  V30 4674 H 444.879 3.19108 -1.95246 0
M  V30 4675 H 446.212 4.20872 -2.55201 0
M  V30 4676 N 447.864 1.01787 1.20321 0
M  V30 4677 C 449.112 0.706538 1.89347 0
M  V30 4678 C 449.433 -0.766289 1.79313 0
M  V30 4679 O 448.703 -1.55126 1.19635 0
M  V30 4680 H 447.283 0.258348 0.700903 0
M  V30 4681 H 449.945 1.28974 1.46122 0
M  V30 4682 H 449.041 0.991066 2.95946 0
M  V30 4683 N 449.342 -1.36122 0.79427 0
M  V30 4684 C 450.289 -2.29982 0.194101 0
M  V30 4685 C 451.259 -1.52214 -0.664833 0
M  V30 4686 O 452.444 -1.80702 -0.612498 0
M  V30 4687 C 449.584 -3.38706 -0.661244 0
M  V30 4688 C 448.697 -4.31456 0.216766 0
M  V30 4689 C 447.832 -5.27265 -0.645411 0
M  V30 4690 C 446.871 -6.11653 0.233756 0
M  V30 4691 N 446.008 -6.99636 -0.587682 0
M  V30 4692 H 450.848 -2.80722 0.999965 0
M  V30 4693 H 448.385 -1.38172 0.504677 0
M  V30 4694 H 450.343 -4.00394 -1.17219 0
M  V30 4695 H 448.973 -2.89274 -1.43249 0
M  V30 4696 H 448.025 -3.7088 0.845724 0
M  V30 4697 H 449.337 -4.90724 0.893973 0
M  V30 4698 H 448.491 -5.94266 -1.22198 0
M  V30 4699 H 447.23 -4.68463 -1.35623 0
M  V30 4700 H 446.235 -5.4361 0.82269 0
M  V30 4701 H 447.46 -6.72531 0.942247 0
M  V30 4702 H 445.406 -6.43337 -1.2827 0
M  V30 4703 H 445.323 -7.55993 0.0317402 0
M  V30 4704 H 446.591 -7.71001 -1.14792 0
M  V30 4705 N 450.82 -0.546701 -1.47814 0
M  V30 4706 C 452.066 -0.0269594 -2.03382 0
M  V30 4707 C 452.421 1.30406 -1.41464 0
M  V30 4708 O 451.714 1.8332 -0.557151 0
M  V30 4709 C 451.908 0.134869 -3.57145 0
M  V30 4710 C 451.737 -1.17891 -4.33972 0
M  V30 4711 C 450.507 -1.74336 -4.74273 0
M  V30 4712 C 452.705 -2.09361 -4.69758 0
M  V30 4713 N 450.687 -2.99829 -5.35701 0
M  V30 4714 C 452.058 -3.19431 -5.31379 0
M  V30 4715 C 454.113 -2.09484 -4.51687 0
M  V30 4716 C 452.816 -4.2971 -5.76838 0
M  V30 4717 C 454.842 -3.18767 -4.98138 0
M  V30 4718 C 454.204 -4.27557 -5.59799 0
M  V30 4719 H 450.303 -0.0517733 -0.780284 0
M  V30 4720 H 452.887 -0.731673 -1.80429 0
M  V30 4721 H 451.058 0.80869 -3.79888 0
M  V30 4722 H 452.79 0.655726 -3.99352 0
M  V30 4723 H 449.545 -1.28265 -4.559 0
M  V30 4724 H 449.969 -3.63765 -5.70968 0
M  V30 4725 H 454.611 -1.26663 -4.03381 0
M  V30 4726 H 452.329 -5.13297 -6.24141 0
M  V30 4727 H 455.915 -3.19937 -4.85934 0
M  V30 4728 H 454.795 -5.10725 -5.95088 0
M  V30 4729 N 452.299 1.55045 -0.282633 0
M  V30 4730 C 453.548 1.98938 0.332667 0
M  V30 4731 C 453.861 1.17455 1.56409 0
M  V30 4732 O 455.067 1.51527 2.25282 0
M  V30 4733 C 453.523 3.54105 0.643226 0
M  V30 4734 C 453.131 4.44374 -0.568814 0
M  V30 4735 C 454.875 4.06569 1.22074 0
M  V30 4736 C 452.782 5.90943 -0.232426 0
M  V30 4737 H 451.712 0.743043 0.128075 0
M  V30 4738 H 454.363 1.79341 -0.388464 0
M  V30 4739 H 452.745 3.69532 1.42346 0
M  V30 4740 H 453.919 4.40718 -1.34551 0
M  V30 4741 H 452.234 4.02585 -1.06369 0
M  V30 4742 H 454.831 5.13626 1.48635 0
M  V30 4743 H 455.174 3.56057 2.15707 0
M  V30 4744 H 455.707 3.94612 0.502621 0
M  V30 4745 H 452.446 6.45567 -1.13683 0
M  V30 4746 H 451.966 5.9765 0.507357 0
M  V30 4747 H 453.645 6.4677 0.172657 0
M  V30 4748 N 453.777 0.010035 1.57597 0
M  V30 4749 C 455.026 -0.671945 1.90178 0
M  V30 4750 C 455.339 -1.74376 0.886131 0
M  V30 4751 O 456.545 -2.48107 1.10252 0
M  V30 4752 C 455.001 -1.24636 3.3763 0
M  V30 4753 C 454.609 -0.208838 4.47513 0
M  V30 4754 C 456.353 -1.90595 3.79307 0
M  V30 4755 C 454.26 -0.793814 5.86048 0
M  V30 4756 H 453.19 -0.25474 0.709665 0
M  V30 4757 H 455.841 0.0722206 1.83358 0
M  V30 4758 H 454.223 -2.04152 3.3932 0
M  V30 4759 H 455.397 0.562463 4.57354 0
M  V30 4760 H 453.712 0.350889 4.14919 0
M  V30 4761 H 456.309 -2.35284 4.80151 0
M  V30 4762 H 456.652 -2.74074 3.13352 0
M  V30 4763 H 457.185 -1.17798 3.79958 0
M  V30 4764 H 453.924 0.00240855 6.555 0
M  V30 4765 H 453.444 -1.53404 5.79851 0
M  V30 4766 H 455.123 -1.2894 6.34022 0
M  V30 4767 N 455.255 -1.55392 -0.262866 0
M  V30 4768 C 456.48 -1.80847 -1.01533 0
M  V30 4769 C 456.905 -0.584946 -1.78774 0
M  V30 4770 O 456.263 0.465701 -1.75217 0
M  V30 4771 C 456.311 -3.03866 -1.94159 0
M  V30 4772 O 455.415 -2.79662 -3.03089 0
M  V30 4773 H 454.756 -0.597441 -0.289759 0
M  V30 4774 H 457.286 -2.02553 -0.288698 0
M  V30 4775 H 457.296 -3.32872 -2.35924 0
M  V30 4776 H 455.971 -3.92564 -1.37354 0
M  V30 4777 H 454.548 -2.61781 -2.65566 0
M  V30 4778 N 456.733 0.527833 -1.48498 0
M  V30 4779 C 457.958 1.313 -1.60546 0
M  V30 4780 C 458.383 1.86199 -0.26672 0
M  V30 4781 O 457.741 1.64513 0.761918 0
M  V30 4782 C 457.789 2.43818 -2.65678 0
M  V30 4783 O 456.893 3.46916 -2.22987 0
M  V30 4784 H 456.234 0.388784 -0.538277 0
M  V30 4785 H 458.764 0.634896 -1.945 0
M  V30 4786 H 458.774 2.89973 -2.87018 0
M  V30 4787 H 457.449 2.03222 -3.62869 0
M  V30 4788 H 456.026 3.06864 -2.11869 0
M  V30 4789 N 458.211 1.37122 0.776871 0
M  V30 4790 C 459.141 1.35164 1.90402 0
M  V30 4791 C 460.122 0.221069 1.68657 0
M  V30 4792 O 461.307 0.420642 1.8959 0
M  V30 4793 C 458.437 1.15274 3.27611 0
M  V30 4794 C 457.391 2.25289 3.63908 0
M  V30 4795 C 456.717 1.90527 4.99603 0
M  V30 4796 C 458.017 3.67446 3.71188 0
M  V30 4797 H 459.711 2.29482 1.92297 0
M  V30 4798 H 457.257 1.10465 0.923773 0
M  V30 4799 H 459.21 1.12536 4.06096 0
M  V30 4800 H 457.934 0.174102 3.26136 0
M  V30 4801 H 456.593 2.27174 2.87728 0
M  V30 4802 H 456.241 0.91206 4.94662 0
M  V30 4803 H 455.941 2.64193 5.24858 0
M  V30 4804 H 457.465 1.89367 5.80493 0
M  V30 4805 H 458.879 3.67719 4.39836 0
M  V30 4806 H 457.276 4.40123 4.07936 0
M  V30 4807 H 458.346 4.01443 2.71977 0
M  V30 4808 N 459.689 -1.00246 1.21608 0
M  V30 4809 C 460.917 -1.77631 1.06089 0
M  V30 4810 C 461.332 -1.84746 -0.38916 0
M  V30 4811 O 460.689 -1.31068 -1.26994 0
M  V30 4812 C 460.74 -3.21415 1.65453 0
M  V30 4813 O 460.461 -3.14703 3.04785 0
M  V30 4814 C 461.962 -4.15289 1.55079 0
M  V30 4815 H 459.182 -0.558162 0.37242 0
M  V30 4816 H 461.726 -1.26093 1.60999 0
M  V30 4817 H 459.881 -3.70053 1.14629 0
M  V30 4818 H 460.295 -4.05056 3.33212 0
M  V30 4819 H 461.769 -5.13965 2.01355 0
M  V30 4820 H 462.246 -4.36279 0.505665 0
M  V30 4821 H 462.852 -3.72543 2.05163 0
M  V30 4822 N 461.167 -1.02423 -1.1978 0
M  V30 4823 C 462.578 -0.748389 -1.71044 0
M  V30 4824 C 462.929 0.732398 -1.82017 0
M  V30 4825 O 462.054 1.57116 -1.48807 0
M  V30 4826 C 462.649 -1.35187 -3.1066 0
M  V30 4827 C 461.208 -1.12472 -3.59203 0
M  V30 4828 C 460.355 -1.45283 -2.36195 0
M  V30 4829 H 463.306 -1.19275 -1.04686 0
M  V30 4830 H 463.327 -0.746408 -3.73107 0
M  V30 4831 H 462.839 -2.4296 -3.02642 0
M  V30 4832 H 460.94 -0.0649983 -3.72543 0
M  V30 4833 H 461.053 -1.81016 -4.43588 0
M  V30 4834 H 459.417 -0.872034 -2.39307 0
M  V30 4835 H 460.2 -2.54129 -2.30811 0
M  V30 4836 N 462.645 1.35699 -0.801477 0
M  V30 4837 C 463.592 2.29876 -0.206294 0
M  V30 4838 C 464.562 1.52565 0.656752 0
M  V30 4839 O 465.747 1.81024 0.602906 0
M  V30 4840 C 462.887 3.39052 0.643272 0
M  V30 4841 C 462 4.31335 -0.239644 0
M  V30 4842 C 461.135 5.27599 0.61744 0
M  V30 4843 C 460.174 6.11521 -0.26619 0
M  V30 4844 N 459.311 6.99938 0.550571 0
M  V30 4845 H 464.151 2.80187 -1.01484 0
M  V30 4846 H 461.688 1.37902 -0.511997 0
M  V30 4847 H 463.646 4.0101 1.15094 0
M  V30 4848 H 462.276 2.9003 1.41713 0
M  V30 4849 H 461.328 3.70426 -0.865381 0
M  V30 4850 H 462.64 4.90243 -0.919985 0
M  V30 4851 H 461.794 5.94906 1.19045 0
M  V30 4852 H 460.533 4.69176 1.33137 0
M  V30 4853 H 459.538 5.43166 -0.851507 0
M  V30 4854 H 460.763 6.72022 -0.9779 0
M  V30 4855 H 458.709 6.44008 1.24856 0
M  V30 4856 H 458.626 7.55966 -0.071832 0
M  V30 4857 H 459.894 7.71599 1.10702 0
M  V30 4858 N 464.123 0.554532 1.47522 0
M  V30 4859 C 465.073 -0.215008 2.26984 0
M  V30 4860 C 466.057 -0.88774 1.34194 0
M  V30 4861 O 467.249 -0.786489 1.58567 0
M  V30 4862 C 464.378 -1.24604 3.19889 0
M  V30 4863 C 463.464 -0.576857 4.20159 0
M  V30 4864 N 463.855 0.351541 5.04577 0
M  V30 4865 C 462.153 -0.831104 4.38188 0
M  V30 4866 C 462.854 0.739995 5.76974 0
M  V30 4867 N 461.83 0.0954407 5.43516 0
M  V30 4868 H 465.632 0.498843 2.89636 0
M  V30 4869 H 463.146 0.374279 1.58028 0
M  V30 4870 H 465.143 -1.81128 3.75498 0
M  V30 4871 H 463.803 -1.96101 2.58794 0
M  V30 4872 H 464.814 0.725556 5.12792 0
M  V30 4873 H 461.491 -1.53479 3.88266 0
M  V30 4874 H 462.881 1.50271 6.5488 0
M  V30 4875 N 465.601 -1.54893 0.290851 0
M  V30 4876 C 466.531 -2.26103 -0.583084 0
M  V30 4877 C 467.512 -1.25684 -1.14619 0
M  V30 4878 O 468.697 -1.54436 -1.17741 0
M  V30 4879 C 465.827 -2.99409 -1.75987 0
M  V30 4880 C 464.781 -4.0689 -1.32758 0
M  V30 4881 C 464.107 -4.67856 -2.58872 0
M  V30 4882 C 465.407 -5.20215 -0.46624 0
M  V30 4883 H 467.101 -2.99398 0.0108214 0
M  V30 4884 H 464.647 -1.43998 0.00664468 0
M  V30 4885 H 466.6 -3.47943 -2.37727 0
M  V30 4886 H 465.324 -2.23675 -2.37985 0
M  V30 4887 H 463.983 -3.59191 -0.733299 0
M  V30 4888 H 463.631 -3.88772 -3.19163 0
M  V30 4889 H 463.331 -5.40438 -2.30653 0
M  V30 4890 H 464.855 -5.19147 -3.21433 0
M  V30 4891 H 466.269 -5.64704 -0.989047 0
M  V30 4892 H 464.666 -5.99455 -0.27826 0
M  V30 4893 H 465.736 -4.82198 0.511173 0
M  V30 4894 N 467.08 -0.0183926 -1.57589 0
M  V30 4895 C 468.012 0.995557 -2.06449 0
M  V30 4896 C 469.025 1.29556 -0.985849 0
M  V30 4897 O 470.214 1.2621 -1.26227 0
M  V30 4898 C 467.314 2.32572 -2.46502 0
M  V30 4899 C 466.487 2.21245 -3.77319 0
M  V30 4900 C 465.546 3.37104 -4.04039 0
M  V30 4901 O 464.572 3.14468 -4.74445 0
M  V30 4902 N 465.774 4.60553 -3.53372 0
M  V30 4903 H 468.539 0.578746 -2.94059 0
M  V30 4904 H 466.1 0.168603 -1.6102 0
M  V30 4905 H 468.092 3.08887 -2.61478 0
M  V30 4906 H 466.662 2.65931 -1.64315 0
M  V30 4907 H 465.882 1.29723 -3.72244 0
M  V30 4908 H 467.17 2.10868 -4.63047 0
M  V30 4909 H 466.568 4.81839 -2.96391 0
M  V30 4910 H 465.125 5.34072 -3.73644 0
M  V30 4911 N 468.558 1.5553 0.254621 0
M  V30 4912 C 469.521 1.88872 1.29846 0
M  V30 4913 C 470.521 0.764591 1.41459 0
M  V30 4914 O 471.711 1.03265 1.40293 0
M  V30 4915 C 468.843 2.11032 2.67728 0
M  V30 4916 H 470.036 2.82201 1.01502 0
M  V30 4917 H 467.589 1.48303 0.493556 0
M  V30 4918 H 468.324 1.20146 3.01223 0
M  V30 4919 H 468.109 2.92895 2.60682 0
M  V30 4920 H 469.599 2.38038 3.43115 0
M  V30 4921 N 470.036 -0.519951 1.48776 0
M  V30 4922 C 471.284 -1.2727 1.56993 0
M  V30 4923 C 471.605 -1.9339 0.25004 0
M  V30 4924 O 470.875 -1.81822 -0.729216 0
M  V30 4925 H 469.455 -0.472732 0.578389 0
M  V30 4926 H 472.117 -0.604234 1.85297 0
M  V30 4927 H 471.213 -2.04669 2.3562 0
M  V30 4928 N 471.514 -1.37532 -0.769588 0
M  V30 4929 C 472.447 -1.27839 -1.8903 0
M  V30 4930 C 473.425 -0.158504 -1.61826 0
M  V30 4931 O 474.609 -0.333086 -1.85534 0
M  V30 4932 C 471.736 -0.977072 -3.24301 0
M  V30 4933 C 470.782 -2.11414 -3.70414 0
M  V30 4934 S 471.615 -3.73409 -3.83831 0
M  V30 4935 C 472.771 -3.45432 -5.21946 0
M  V30 4936 H 473.004 -2.22694 -1.96963 0
M  V30 4937 H 470.537 -1.2318 -0.930914 0
M  V30 4938 H 472.495 -0.810049 -4.02428 0
M  V30 4939 H 471.156 -0.0459701 -3.14066 0
M  V30 4940 H 470.349 -1.85837 -4.68488 0
M  V30 4941 H 469.951 -2.24141 -2.99394 0
M  V30 4942 H 472.243 -3.00554 -6.07185 0
M  V30 4943 H 473.186 -4.42841 -5.52537 0
M  V30 4944 H 473.594 -2.80311 -4.89986 0
M  V30 4945 N 472.992 0.995999 -1.22138 0
M  V30 4946 C 473.924 2.08745 -0.946485 0
M  V30 4947 C 474.937 1.62633 0.0737356 0
M  V30 4948 O 476.126 1.77782 -0.159886 0
M  V30 4949 C 473.226 3.36516 -0.401305 0
M  V30 4950 C 472.399 4.11672 -1.47801 0
M  V30 4951 C 471.458 5.17728 -0.940461 0
M  V30 4952 O 470.484 5.45482 -1.62596 0
M  V30 4953 N 471.686 5.80005 0.239723 0
M  V30 4954 H 474.451 2.32908 -1.88611 0
M  V30 4955 H 472.012 1.16152 -1.12785 0
M  V30 4956 H 474.004 4.04691 -0.0270837 0
M  V30 4957 H 472.574 3.0944 0.443354 0
M  V30 4958 H 471.794 3.38171 -2.02568 0
M  V30 4959 H 473.082 4.58657 -2.20253 0
M  V30 4960 H 472.48 5.5982 0.813518 0
M  V30 4961 H 471.037 6.4943 0.555361 0
M  V30 4962 N 474.47 1.03057 1.19235 0
M  V30 4963 C 475.433 0.617418 2.20727 0
M  V30 4964 C 476.433 -0.319856 1.57587 0
M  V30 4965 O 477.623 -0.106633 1.73873 0
M  V30 4966 C 474.755 -0.096296 3.40764 0
M  V30 4967 H 475.948 1.51544 2.58794 0
M  V30 4968 H 473.501 0.821949 1.32942 0
M  V30 4969 H 474.236 -1.00859 3.08217 0
M  V30 4970 H 474.021 0.577217 3.87828 0
M  V30 4971 H 475.511 -0.372219 4.15938 0
M  V30 4972 N 475.948 -1.35272 0.808662 0
M  V30 4973 C 477.178 -2.02652 0.401953 0
M  V30 4974 C 477.586 -1.6108 -0.992462 0
M  V30 4975 O 476.929 -0.804984 -1.65123 0
M  V30 4976 C 476.991 -3.57174 0.408246 0
M  V30 4977 C 476.655 -4.22019 1.75353 0
M  V30 4978 C 477.652 -4.43552 2.71215 0
M  V30 4979 C 475.337 -4.59093 2.03811 0
M  V30 4980 C 477.331 -5.01264 3.93717 0
M  V30 4981 C 475.018 -5.16519 3.26576 0
M  V30 4982 C 476.016 -5.37546 4.21347 0
M  V30 4983 O 475.704 -5.93761 5.41944 0
M  V30 4984 H 475.436 -0.656495 0.161216 0
M  V30 4985 H 477.99 -1.73829 1.0942 0
M  V30 4986 H 476.22 -3.85197 -0.340608 0
M  V30 4987 H 477.909 -4.05893 0.0235623 0
M  V30 4988 H 478.675 -4.15288 2.50522 0
M  V30 4989 H 474.554 -4.42039 1.30854 0
M  V30 4990 H 478.098 -5.17592 4.67701 0
M  V30 4991 H 473.995 -5.4421 3.47139 0
M  V30 4992 H 474.763 -6.1221 5.43269 0
M  V30 4993 N 477.426 -0.562348 -1.47226 0
M  V30 4994 C 478.675 -0.038041 -2.01664 0
M  V30 4995 C 478.988 1.32199 -1.44162 0
M  V30 4996 O 480.194 1.9365 -1.90294 0
M  V30 4997 C 478.65 -0.0174958 -3.59896 0
M  V30 4998 C 478.258 -1.3746 -4.2639 0
M  V30 4999 C 480.002 0.453934 -4.22066 0
M  V30 5000 C 477.909 -1.31289 -5.76643 0
M  V30 5001 H 476.839 -0.0104511 -0.753928 0
M  V30 5002 H 479.49 -0.710966 -1.69167 0
M  V30 5003 H 477.872 0.721182 -3.89378 0
M  V30 5004 H 479.046 -2.1314 -4.08544 0
M  V30 5005 H 477.361 -1.78438 -3.7623 0
M  V30 5006 H 479.958 0.518584 -5.32179 0
M  V30 5007 H 480.301 1.46706 -3.89594 0
M  V30 5008 H 480.834 -0.230044 -3.97134 0
M  V30 5009 H 477.573 -2.30217 -6.13743 0
M  V30 5010 H 477.093 -0.597973 -5.96812 0
M  V30 5011 H 478.772 -1.01713 -6.38955 0
M  V30 5012 N 478.904 1.54736 -0.299062 0
M  V30 5013 C 480.181 1.92187 0.363802 0
M  V30 5014 C 480.561 1.22607 1.71845 0
M  V30 5015 O 479.909 0.361141 2.25628 0
M  V30 5016 C 480.119 3.45678 0.480377 0
M  V30 5017 C 481.467 4.17885 0.752147 0
M  V30 5018 O 482.491 3.51702 0.564264 0
M  V30 5019 O 481.35 5.35048 1.11294 0
M  V30 5020 H 478.444 0.801681 0.203066 0
M  V30 5021 H 480.99 1.66115 -0.346978 0
M  V30 5022 H 479.762 3.88443 -0.471999 0
M  V30 5023 H 479.385 3.77779 1.2397 0
M  V30 5024 N 480.382 0.0267497 1.57577 0
M  V30 5025 C 481.631 -0.651736 1.9088 0
M  V30 5026 C 481.944 -1.73427 0.904576 0
M  V30 5027 O 483.15 -2.46923 1.12877 0
M  V30 5028 C 481.606 -1.21048 3.38933 0
M  V30 5029 C 481.214 -0.161362 4.47709 0
M  V30 5030 C 482.958 -1.86562 3.81307 0
M  V30 5031 C 480.865 -0.731611 5.86857 0
M  V30 5032 H 479.795 -0.247198 0.712326 0
M  V30 5033 H 482.446 0.0916641 1.83271 0
M  V30 5034 H 480.828 -2.00542 3.41466 0
M  V30 5035 H 482.002 0.61094 4.56732 0
M  V30 5036 H 480.317 0.394877 4.14523 0
M  V30 5037 H 482.914 -2.30178 4.8262 0
M  V30 5038 H 483.257 -2.70735 3.16241 0
M  V30 5039 H 483.79 -1.13762 3.81186 0
M  V30 5040 H 480.529 0.0719329 6.55461 0
M  V30 5041 H 480.049 -1.47245 5.81445 0
M  V30 5042 H 481.728 -1.22208 6.35354 0
M  V30 5043 N 481.861 -1.55662 -0.24637 0
M  V30 5044 C 482.808 -1.90361 -1.30504 0
M  V30 5045 C 483.778 -0.757905 -1.47801 0
M  V30 5046 O 484.963 -1.01161 -1.61775 0
M  V30 5047 C 482.103 -2.2042 -2.65535 0
M  V30 5048 C 481.216 -3.47799 -2.56242 0
M  V30 5049 C 480.351 -3.67426 -3.8363 0
M  V30 5050 C 479.39 -4.88403 -3.68956 0
M  V30 5051 N 478.527 -5.04548 -4.88237 0
M  V30 5052 H 483.367 -2.80645 -1.00213 0
M  V30 5053 H 480.904 -1.38924 -0.483577 0
M  V30 5054 H 482.862 -2.35853 -3.44135 0
M  V30 5055 H 481.492 -1.3334 -2.93973 0
M  V30 5056 H 480.544 -3.40694 -1.69208 0
M  V30 5057 H 481.856 -4.36544 -2.4131 0
M  V30 5058 H 481.01 -3.82821 -4.70673 0
M  V30 5059 H 479.749 -2.76914 -4.01459 0
M  V30 5060 H 478.754 -4.72984 -2.80296 0
M  V30 5061 H 479.979 -5.80375 -3.52621 0
M  V30 5062 H 477.925 -4.16974 -5.06427 0
M  V30 5063 H 477.842 -5.87384 -4.75937 0
M  V30 5064 H 479.11 -5.24355 -5.76777 0
M  V30 5065 N 483.339 0.512053 -1.4905 0
M  V30 5066 C 484.287 1.63568 -1.65373 0
M  V30 5067 C 485.281 1.61228 -0.519806 0
M  V30 5068 O 486.487 1.65869 -0.699101 0
M  V30 5069 H 482.862 0.542019 -0.521267 0
M  V30 5070 H 484.833 1.4695 -2.59708 0
M  V30 5071 C 483.582 3.01761 -1.7273 0
M  V30 5072 H 482.905 3.04263 -2.59353 0
M  V30 5073 H 484.345 3.79948 -1.8819 0
M  V30 5074 C 482.804 3.33609 -0.46973 0
M  V30 5075 O 483.334 3.99607 0.409492 0
M  V30 5076 N 481.54 2.88651 -0.336003 0
M  V30 5077 H 481.087 2.35119 -1.05247 0
M  V30 5078 H 481.045 3.10328 0.504363 0
M  V30 5079 N 484.817 1.37938 0.762283 0
M  V30 5080 C 486.057 1.35076 1.53407 0
M  V30 5081 C 486.421 -0.061546 1.91901 0
M  V30 5082 O 487.622 -0.214973 2.67939 0
M  V30 5083 C 485.893 2.27206 2.75884 0
M  V30 5084 S 487.452 2.42283 3.65848 0
M  V30 5085 H 484.27 0.479387 0.52508 0
M  V30 5086 H 486.872 1.7378 0.895586 0
M  V30 5087 H 485.576 3.28724 2.457 0
M  V30 5088 H 485.107 1.8962 3.44685 0
M  V30 5089 H 487.122 1.64044 4.68299 0
M  V30 5090 N 486.295 -0.989507 1.22664 0
M  V30 5091 C 487.706 -1.54406 1.04955 0
M  V30 5092 C 488.057 -1.92366 -0.385951 0
M  V30 5093 O 487.182 -1.75111 -1.27142 0
M  V30 5094 C 487.777 -2.80578 1.89899 0
M  V30 5095 C 486.336 -3.32464 1.76478 0
M  V30 5096 C 485.483 -2.05524 1.86159 0
M  V30 5097 H 488.434 -0.810211 1.3646 0
M  V30 5098 H 488.455 -3.53075 1.4184 0
M  V30 5099 H 487.967 -2.52918 2.94371 0
M  V30 5100 H 486.068 -3.65024 0.747528 0
M  V30 5101 H 486.181 -4.02838 2.59342 0
M  V30 5102 H 484.545 -2.19241 1.29636 0
M  V30 5103 H 485.328 -1.80258 2.92168 0
M  V30 5104 N 487.773 -1.03688 -1.18687 0
M  V30 5105 C 488.72 -0.624624 -2.22187 0
M  V30 5106 C 489.69 0.365636 -1.62026 0
M  V30 5107 O 490.875 0.260481 -1.89014 0
M  V30 5108 C 488.015 0.0101738 -3.45099 0
M  V30 5109 C 487.128 -1.02709 -4.19613 0
M  V30 5110 C 486.263 -0.361213 -5.2997 0
M  V30 5111 C 485.302 -1.38384 -5.96252 0
M  V30 5112 N 484.439 -0.743196 -6.98155 0
M  V30 5113 H 489.279 -1.51176 -2.56807 0
M  V30 5114 H 486.816 -0.75636 -1.26165 0
M  V30 5115 H 488.774 0.395528 -4.15321 0
M  V30 5116 H 487.404 0.860848 -3.1111 0
M  V30 5117 H 486.456 -1.53043 -3.48256 0
M  V30 5118 H 487.768 -1.80398 -4.65036 0
M  V30 5119 H 486.922 0.0785537 -6.06649 0
M  V30 5120 H 485.661 0.447799 -4.8564 0
M  V30 5121 H 484.666 -1.83378 -5.18317 0
M  V30 5122 H 485.891 -2.19448 -6.42666 0
M  V30 5123 H 483.837 0.0455789 -6.55984 0
M  V30 5124 H 483.754 -1.45784 -7.41811 0
M  V30 5125 H 485.022 -0.327698 -7.78811 0
M  V30 5126 N 489.251 1.34841 -0.815825 0
M  V30 5127 C 490.198 2.29644 -0.230664 0
M  V30 5128 C 491.168 1.53253 0.640533 0
M  V30 5129 O 492.353 1.81653 0.583672 0
M  V30 5130 C 489.493 3.39715 0.607275 0
M  V30 5131 C 488.606 4.31056 -0.28538 0
M  V30 5132 C 487.741 5.28225 0.561446 0
M  V30 5133 C 486.78 6.11204 -0.331035 0
M  V30 5134 N 485.917 7.00483 0.476302 0
M  V30 5135 H 490.757 2.79095 -1.0445 0
M  V30 5136 H 488.294 1.37351 -0.526595 0
M  V30 5137 H 490.252 4.02208 1.10835 0
M  V30 5138 H 488.882 2.91517 1.38629 0
M  V30 5139 H 487.934 3.69487 -0.904621 0
M  V30 5140 H 489.246 4.89239 -0.97193 0
M  V30 5141 H 488.4 5.96135 1.12728 0
M  V30 5142 H 487.139 4.70562 1.28153 0
M  V30 5143 H 486.144 5.42232 -0.909069 0
M  V30 5144 H 487.369 6.70947 -1.04912 0
M  V30 5145 H 485.315 6.45296 1.18019 0
M  V30 5146 H 485.232 7.55847 -0.152008 0
M  V30 5147 H 486.5 7.7273 1.02512 0
M  V30 5148 N 490.729 0.570148 1.46925 0
M  V30 5149 C 491.957 0.0561966 2.06824 0
M  V30 5150 C 492.372 -1.24326 1.42086 0
M  V30 5151 O 491.729 -1.74882 0.521794 0
M  V30 5152 C 491.78 -0.129517 3.61268 0
M  V30 5153 O 491.501 1.1185 4.23581 0
M  V30 5154 C 493.002 -0.679266 4.38065 0
M  V30 5155 H 490.222 0.0517261 0.669003 0
M  V30 5156 H 492.766 0.787243 1.8874 0
M  V30 5157 H 490.921 -0.810739 3.78822 0
M  V30 5158 H 491.335 0.924375 5.1629 0
M  V30 5159 H 492.809 -0.758445 5.46765 0
M  V30 5160 H 493.286 -1.69346 4.05239 0
M  V30 5161 H 493.892 -0.0333237 4.25287 0
M  V30 5162 N 492.207 -1.54576 0.307264 0
M  V30 5163 C 493.623 -1.59534 -0.0459251 0
M  V30 5164 C 493.823 -1.32414 -1.51884 0
M  V30 5165 O 492.879 -1.1006 -2.27251 0
M  V30 5166 C 494.192 -2.98566 0.357649 0
M  V30 5167 C 495.74 -3.11491 0.306937 0
M  V30 5168 C 496.215 -4.52842 0.685427 0
M  V30 5169 N 497.706 -4.58782 0.638203 0
M  V30 5170 C 498.441 -5.66238 0.903458 0
M  V30 5171 N 497.937 -6.81703 1.23501 0
M  V30 5172 N 499.73 -5.55937 0.830102 0
M  V30 5173 H 491.881 -1.70464 1.26712 0
M  V30 5174 H 494.144 -0.79647 0.514139 0
M  V30 5175 H 493.85 -3.23356 1.38325 0
M  V30 5176 H 493.724 -3.76117 -0.285565 0
M  V30 5177 H 496.111 -2.86446 -0.709424 0
M  V30 5178 H 496.192 -2.36081 0.984861 0
M  V30 5179 H 495.836 -4.78618 1.69963 0
M  V30 5180 H 495.766 -5.26598 -0.0146346 0
M  V30 5181 H 498.257 -3.75849 0.393138 0
M  V30 5182 H 498.57 -7.59582 1.42322 0
M  V30 5183 H 496.915 -6.8324 1.27311 0
M  V30 5184 H 500.106 -4.64608 0.570693 0
M  V30 5185 H 500.279 -6.39597 1.04019 0
M  V30 5186 N 493.685 -0.035106 -1.57561 0
M  V30 5187 C 494.633 0.962707 -2.11742 0
M  V30 5188 C 495.627 1.33296 -1.0454 0
M  V30 5189 O 496.833 1.31449 -1.22968 0
M  V30 5190 H 493.208 0.32826 -0.676572 0
M  V30 5191 H 495.179 0.48048 -2.94506 0
M  V30 5192 C 493.928 2.23388 -2.66445 0
M  V30 5193 H 493.251 1.95774 -3.48587 0
M  V30 5194 H 494.691 2.91402 -3.07995 0
M  V30 5195 C 493.15 2.96769 -1.59467 0
M  V30 5196 O 493.68 3.89105 -0.998 0
M  V30 5197 N 491.886 2.59212 -1.31369 0
M  V30 5198 H 491.433 1.84202 -1.80076 0
M  V30 5199 H 491.391 3.08618 -0.600173 0
M  V30 5200 N 495.163 1.55791 0.238111 0
M  V30 5201 C 496.093 1.94068 1.29846 0
M  V30 5202 C 497.074 0.806726 1.49753 0
M  V30 5203 O 498.259 1.06772 1.62214 0
M  V30 5204 C 495.389 2.24302 2.65153 0
M  V30 5205 C 494.343 3.40032 2.59927 0
M  V30 5206 C 493.669 3.55829 3.99111 0
M  V30 5207 C 494.969 4.75476 2.16148 0
M  V30 5208 H 496.663 2.82887 0.980563 0
M  V30 5209 H 494.209 1.36105 0.470253 0
M  V30 5210 H 496.162 2.4967 3.39475 0
M  V30 5211 H 494.886 1.32318 2.98596 0
M  V30 5212 H 493.545 3.14687 1.88063 0
M  V30 5213 H 493.193 2.6125 4.29834 0
M  V30 5214 H 492.893 4.3366 3.96501 0
M  V30 5215 H 494.417 3.83528 4.7512 0
M  V30 5216 H 495.831 5.00158 2.80205 0
M  V30 5217 H 494.228 5.56472 2.24631 0
M  V30 5218 H 495.298 4.71946 1.11333 0
M  V30 5219 N 496.642 -0.504142 1.49319 0
M  V30 5220 C 497.589 -1.60603 1.65756 0
M  V30 5221 C 498.559 -1.58425 0.499082 0
M  V30 5222 O 499.744 -1.76459 0.725728 0
M  V30 5223 C 496.884 -2.98764 1.72726 0
M  V30 5224 C 495.997 -3.10982 2.99857 0
M  V30 5225 C 495.132 -4.39857 2.97824 0
M  V30 5226 C 494.171 -4.45697 4.19548 0
M  V30 5227 N 493.308 -5.65995 4.15444 0
M  V30 5228 H 498.148 -1.45895 2.59843 0
M  V30 5229 H 495.685 -0.709891 1.28837 0
M  V30 5230 H 497.643 -3.78839 1.74747 0
M  V30 5231 H 496.273 -3.12183 0.821075 0
M  V30 5232 H 495.325 -2.23991 3.07461 0
M  V30 5233 H 496.637 -3.11157 3.89849 0
M  V30 5234 H 495.791 -5.2825 2.98391 0
M  V30 5235 H 494.53 -4.42242 2.05604 0
M  V30 5236 H 493.535 -3.55707 4.19229 0
M  V30 5237 H 494.76 -4.4503 5.12957 0
M  V30 5238 H 492.706 -5.69229 3.26059 0
M  V30 5239 H 492.623 -5.67773 4.99169 0
M  V30 5240 H 493.891 -6.56604 4.20109 0
M  V30 5241 N 498.12 -1.38341 -0.754957 0
M  V30 5242 C 499.067 -1.3546 -1.86867 0
M  V30 5243 C 500.037 -0.217369 -1.64672 0
M  V30 5244 O 501.222 -0.409383 -1.86356 0
M  V30 5245 C 498.362 -1.18413 -3.24149 0
M  V30 5246 C 497.475 -2.41511 -3.58185 0
M  V30 5247 C 496.61 -2.17205 -4.84763 0
M  V30 5248 C 495.649 -3.36081 -5.11582 0
M  V30 5249 N 494.786 -3.11219 -6.29354 0
M  V30 5250 H 499.626 -2.30672 -1.88664 0
M  V30 5251 H 497.163 -1.14607 -0.922154 0
M  V30 5252 H 499.121 -1.06545 -4.03366 0
M  V30 5253 H 497.751 -0.268397 -3.21682 0
M  V30 5254 H 496.803 -2.64056 -2.73822 0
M  V30 5255 H 498.115 -3.30115 -3.73932 0
M  V30 5256 H 497.269 -2.02465 -5.7192 0
M  V30 5257 H 496.008 -1.25964 -4.71152 0
M  V30 5258 H 495.013 -3.51341 -4.22894 0
M  V30 5259 H 496.238 -4.28196 -5.27091 0
M  V30 5260 H 494.184 -2.22624 -6.17069 0
M  V30 5261 H 494.101 -3.93373 -6.45596 0
M  V30 5262 H 495.369 -3.00132 -7.19403 0
M  V30 5263 N 499.598 0.982988 -1.23187 0
M  V30 5264 C 500.847 1.71817 -1.05649 0
M  V30 5265 C 501.16 1.91315 0.407176 0
M  V30 5266 O 502.366 2.62256 0.702436 0
M  V30 5267 C 500.822 3.09188 -1.84203 0
M  V30 5268 C 500.43 2.97586 -3.34882 0
M  V30 5269 C 502.174 3.86684 -1.75146 0
M  V30 5270 C 500.081 4.30173 -4.05839 0
M  V30 5271 H 499.011 0.644258 -0.391724 0
M  V30 5272 H 501.662 1.09659 -1.4713 0
M  V30 5273 H 500.044 3.72087 -1.35527 0
M  V30 5274 H 501.218 2.43793 -3.91026 0
M  V30 5275 H 499.533 2.33567 -3.44725 0
M  V30 5276 H 502.13 4.84836 -2.25473 0
M  V30 5277 H 502.473 4.10136 -0.713737 0
M  V30 5278 H 503.006 3.30482 -2.21419 0
M  V30 5279 H 499.745 4.11918 -5.09906 0
M  V30 5280 H 499.265 4.83841 -3.54482 0
M  V30 5281 H 500.944 4.98873 -4.11989 0
M  V30 5282 N 501.076 1.04316 1.18135 0
M  V30 5283 C 502.304 0.768117 1.92113 0
M  V30 5284 C 502.719 -0.675057 1.76319 0
M  V30 5285 O 502.076 -1.46038 1.09449 0
M  V30 5286 C 502.127 1.12808 3.43448 0
M  V30 5287 O 501.848 2.5146 3.58747 0
M  V30 5288 C 503.349 0.8779 4.3452 0
M  V30 5289 H 500.569 0.279937 0.609817 0
M  V30 5290 H 503.113 1.39149 1.49859 0
M  V30 5291 H 501.268 0.549623 3.83481 0
M  V30 5292 H 501.682 2.65313 4.52448 0
M  V30 5293 H 503.156 1.17959 5.39249 0
M  V30 5294 H 503.633 -0.187239 4.38801 0
M  V30 5295 H 504.239 1.43977 4.00188 0
M  V30 5296 N 502.554 -1.34406 0.822964 0
M  V30 5297 C 503.97 -1.51275 0.508727 0
M  V30 5298 C 504.17 -1.76776 -0.967083 0
M  V30 5299 O 503.226 -1.81871 -1.75155 0
M  V30 5300 C 504.539 -2.67765 1.36829 0
M  V30 5301 C 506.087 -2.81647 1.36542 0
M  V30 5302 C 506.562 -4.01181 2.20947 0
M  V30 5303 N 508.053 -4.08388 2.18571 0
M  V30 5304 C 508.788 -5.00036 2.80627 0
M  V30 5305 N 508.284 -5.96906 3.51674 0
M  V30 5306 N 510.077 -4.92908 2.70181 0
M  V30 5307 H 502.228 -1.16113 1.77852 0
M  V30 5308 H 504.491 -0.56947 0.757897 0
M  V30 5309 H 504.197 -2.55551 2.41633 0
M  V30 5310 H 504.071 -3.62779 1.03303 0
M  V30 5311 H 506.458 -2.93303 0.325163 0
M  V30 5312 H 506.539 -1.87443 1.74066 0
M  V30 5313 H 506.183 -3.90286 3.25022 0
M  V30 5314 H 506.113 -4.94599 1.80774 0
M  V30 5315 H 508.604 -3.39051 1.66891 0
M  V30 5316 H 508.917 -6.63468 3.96271 0
M  V30 5317 H 507.262 -5.9703 3.5578 0
M  V30 5318 H 510.453 -4.1619 2.14251 0
M  V30 5319 H 510.626 -5.64137 3.18831 0
M  V30 5320 N 504.032 -0.577932 -1.46621 0
M  V30 5321 C 504.942 0.160651 -2.34049 0
M  V30 5322 C 505.958 0.890911 -1.49462 0
M  V30 5323 O 507.134 0.855166 -1.82343 0
M  V30 5324 C 504.199 1.16447 -3.26559 0
M  V30 5325 C 503.26 0.4394 -4.27045 0
M  V30 5326 C 502.493 1.3954 -5.15135 0
M  V30 5327 O 502.716 2.63162 -5.06065 0
M  V30 5328 O 501.65 0.908585 -5.95003 0
M  V30 5329 H 505.476 -0.557057 -2.98547 0
M  V30 5330 H 503.061 -0.338369 -1.45518 0
M  V30 5331 H 504.943 1.7434 -3.83645 0
M  V30 5332 H 503.618 1.86373 -2.64663 0
M  V30 5333 H 502.525 -0.181247 -3.73661 0
M  V30 5334 H 503.858 -0.218799 -4.91713 0
M  V30 5335 N 505.51 1.54411 -0.315457 0
M  V30 5336 C 506.442 2.21527 0.588067 0
M  V30 5337 C 507.455 1.21263 1.08624 0
M  V30 5338 O 508.644 1.47777 1.00121 0
M  V30 5339 C 505.744 2.85963 1.81875 0
M  V30 5340 C 504.917 4.12291 1.46063 0
M  V30 5341 C 503.976 4.60396 2.54799 0
M  V30 5342 O 503.002 5.25265 2.19283 0
M  V30 5343 N 504.204 4.33935 3.85591 0
M  V30 5344 H 506.969 2.99697 0.013414 0
M  V30 5345 H 504.53 1.61308 -0.138295 0
M  V30 5346 H 506.522 3.15071 2.53993 0
M  V30 5347 H 505.092 2.11548 2.30144 0
M  V30 5348 H 504.312 3.90036 0.571445 0
M  V30 5349 H 505.6 4.9452 1.19695 0
M  V30 5350 H 504.998 3.81996 4.17248 0
M  V30 5351 H 503.555 4.67718 4.53964 0
M  V30 5352 N 506.988 0.0434614 1.5754 0
M  V30 5353 C 508.404 -0.313039 1.565 0
M  V30 5354 C 508.604 -1.71954 1.05043 0
M  V30 5355 O 507.66 -2.425 0.703564 0
M  V30 5356 C 508.973 -0.148544 3.00333 0
M  V30 5357 C 510.521 -0.220231 3.12224 0
M  V30 5358 C 510.996 -0.0843565 4.57922 0
M  V30 5359 N 512.487 -0.140881 4.62986 0
M  V30 5360 C 513.222 -0.0597443 5.73369 0
M  V30 5361 N 512.718 0.0733004 6.92761 0
M  V30 5362 N 514.511 -0.11477 5.61983 0
M  V30 5363 H 506.662 0.96303 1.89313 0
M  V30 5364 H 508.925 0.373164 0.871466 0
M  V30 5365 H 508.631 0.820894 3.41986 0
M  V30 5366 H 508.505 -0.912798 3.65989 0
M  V30 5367 H 510.892 -1.18014 2.70475 0
M  V30 5368 H 510.973 0.574646 2.49262 0
M  V30 5369 H 510.617 0.872192 5.00355 0
M  V30 5370 H 510.547 -0.898281 5.18882 0
M  V30 5371 H 513.038 -0.243273 3.77116 0
M  V30 5372 H 513.351 0.128128 7.72694 0
M  V30 5373 H 511.696 0.10828 6.94916 0
M  V30 5374 H 514.887 -0.217212 4.67596 0
M  V30 5375 H 515.06 -0.0480779 6.47982 0
M  V30 5376 N 508.466 -1.55915 -0.229846 0
M  V30 5377 C 509.882 -1.48721 -0.579166 0
M  V30 5378 C 510.082 -0.736976 -1.87539 0
M  V30 5379 O 509.138 -0.273258 -2.51017 0
M  V30 5380 C 510.451 -2.9323 -0.666082 0
M  V30 5381 C 511.999 -3.03701 -0.757267 0
M  V30 5382 C 512.474 -4.49552 -0.8756 0
M  V30 5383 N 513.965 -4.53561 -0.940035 0
M  V30 5384 C 514.7 -5.63683 -1.05116 0
M  V30 5385 N 514.196 -6.83576 -1.12675 0
M  V30 5386 N 515.989 -5.51516 -1.08565 0
M  V30 5387 H 508.14 -2.03123 0.620857 0
M  V30 5388 H 510.403 -0.922898 0.21671 0
M  V30 5389 H 510.109 -3.51032 0.21664 0
M  V30 5390 H 509.983 -3.44668 -1.53243 0
M  V30 5391 H 512.37 -2.45969 -1.63043 0
M  V30 5392 H 512.451 -2.55446 0.134583 0
M  V30 5393 H 512.095 -5.079 -0.00692351 0
M  V30 5394 H 512.025 -4.95506 -1.78274 0
M  V30 5395 H 514.516 -3.67215 -0.892269 0
M  V30 5396 H 514.829 -7.63251 -1.21109 0
M  V30 5397 H 513.174 -6.86303 -1.09603 0
M  V30 5398 H 516.365 -4.5678 -1.02319 0
M  V30 5399 H 516.538 -6.37372 -1.1688 0
M  V30 5400 N 509.944 0.496216 -1.49584 0
M  V30 5401 C 510.894 1.59422 -1.62999 0
M  V30 5402 C 511.878 1.53402 -0.485457 0
M  V30 5403 O 513.07 1.60851 -0.738649 0
M  V30 5404 C 510.199 2.98009 -1.70427 0
M  V30 5405 C 509.285 3.09008 -2.90473 0
M  V30 5406 N 509.676 2.89884 -4.14489 0
M  V30 5407 C 507.974 3.40115 -2.8851 0
M  V30 5408 C 508.675 3.0519 -4.95211 0
M  V30 5409 N 507.651 3.3428 -4.2867 0
M  V30 5410 H 511.453 1.43297 -2.56599 0
M  V30 5411 H 508.967 0.702443 -1.46422 0
M  V30 5412 H 510.964 3.76926 -1.78136 0
M  V30 5413 H 509.624 3.152 -0.77967 0
M  V30 5414 H 510.635 2.65963 -4.44392 0
M  V30 5415 H 507.312 3.63452 -2.05448 0
M  V30 5416 H 508.702 2.94856 -6.03746 0
M  V30 5417 N 511.423 1.38739 0.74761 0
M  V30 5418 C 512.356 1.3083 1.86972 0
M  V30 5419 C 513.334 0.184229 1.61553 0
M  V30 5420 O 514.518 0.36256 1.8498 0
M  V30 5421 C 511.645 1.02854 3.22705 0
M  V30 5422 C 510.691 2.17281 3.67003 0
M  V30 5423 S 511.524 3.79468 3.77842 0
M  V30 5424 C 512.68 3.53692 5.16385 0
M  V30 5425 H 512.913 2.258 1.93395 0
M  V30 5426 H 510.446 1.24646 0.911199 0
M  V30 5427 H 512.404 0.87397 4.01089 0
M  V30 5428 H 511.065 0.0959295 3.13953 0
M  V30 5429 H 510.258 1.93267 4.65472 0
M  V30 5430 H 509.86 2.28876 2.9579 0
M  V30 5431 H 512.152 3.10176 6.02327 0
M  V30 5432 H 513.095 4.51576 5.45422 0
M  V30 5433 H 513.503 2.8807 4.85464 0
M  V30 5434 N 512.901 -0.976442 1.23707 0
M  V30 5435 C 513.848 -2.06952 1.02174 0
M  V30 5436 C 514.818 -1.65984 -0.0621034 0
M  V30 5437 O 516.003 -1.90584 0.0907906 0
M  V30 5438 C 513.143 -3.39425 0.62327 0
M  V30 5439 C 512.256 -3.9364 1.77966 0
M  V30 5440 C 511.391 -5.14343 1.3276 0
M  V30 5441 C 510.43 -5.60733 2.45449 0
M  V30 5442 N 509.567 -6.72662 2.01172 0
M  V30 5443 H 514.407 -2.24704 1.95734 0
M  V30 5444 H 511.944 -1.10143 0.975034 0
M  V30 5445 H 513.902 -4.15526 0.37332 0
M  V30 5446 H 512.532 -3.21624 -0.275329 0
M  V30 5447 H 511.584 -3.14258 2.14351 0
M  V30 5448 H 512.896 -4.24035 2.62671 0
M  V30 5449 H 512.05 -5.97789 1.03601 0
M  V30 5450 H 510.789 -4.8561 0.450975 0
M  V30 5451 H 509.794 -4.75865 2.75378 0
M  V30 5452 H 511.019 -5.91483 3.33654 0
M  V30 5453 H 508.965 -6.45681 1.15895 0
M  V30 5454 H 508.882 -7.02462 2.79434 0
M  V30 5455 H 510.15 -7.59572 1.75129 0
M  V30 5456 N 514.379 -1.04941 -1.1758 0
M  V30 5457 C 515.795 -0.770282 -1.39781 0
M  V30 5458 C 515.995 0.636417 -1.91186 0
M  V30 5459 O 515.051 1.39923 -2.10185 0
M  V30 5460 C 516.364 -1.82376 -2.3908 0
M  V30 5461 C 517.912 -1.84569 -2.52791 0
M  V30 5462 C 518.387 -2.88933 -3.55361 0
M  V30 5463 N 519.878 -2.8788 -3.62877 0
M  V30 5464 C 520.613 -3.65282 -4.41992 0
M  V30 5465 N 520.109 -4.52461 -5.24643 0
M  V30 5466 N 521.902 -3.53732 -4.36841 0
M  V30 5467 H 514.053 -1.95705 -0.825438 0
M  V30 5468 H 516.316 -0.847284 -0.425222 0
M  V30 5469 H 516.022 -2.83323 -2.08376 0
M  V30 5470 H 515.896 -1.66327 -3.38549 0
M  V30 5471 H 518.283 -0.842879 -2.82807 0
M  V30 5472 H 518.364 -2.04696 -1.53406 0
M  V30 5473 H 518.008 -3.89398 -3.26085 0
M  V30 5474 H 517.938 -2.66059 -4.54445 0
M  V30 5475 H 520.429 -2.24666 -3.03864 0
M  V30 5476 H 520.742 -5.08211 -5.82187 0
M  V30 5477 H 519.087 -4.56524 -5.24033 0
M  V30 5478 H 522.278 -2.85021 -3.71323 0
M  V30 5479 H 522.451 -4.14302 -4.98255 0
M  V30 5480 N 515.857 1.33968 -0.830081 0
M  V30 5481 C 517.103 1.98773 -0.431394 0
M  V30 5482 C 517.458 1.64598 0.99626 0
M  V30 5483 O 516.751 0.911022 1.68555 0
M  V30 5484 C 516.945 3.52679 -0.57898 0
M  V30 5485 C 516.774 4.01807 -2.01943 0
M  V30 5486 C 515.544 4.30062 -2.65282 0
M  V30 5487 C 517.742 4.18663 -2.98707 0
M  V30 5488 N 515.724 4.65272 -4.00493 0
M  V30 5489 C 517.095 4.57133 -4.18843 0
M  V30 5490 C 519.15 4.00929 -2.95229 0
M  V30 5491 C 517.853 4.79723 -5.35965 0
M  V30 5492 C 519.879 4.2469 -4.11573 0
M  V30 5493 C 519.241 4.63454 -5.30462 0
M  V30 5494 H 515.34 0.75435 -0.206107 0
M  V30 5495 H 517.924 1.62247 -1.07629 0
M  V30 5496 H 516.095 3.88383 0.0360632 0
M  V30 5497 H 517.827 4.04412 -0.152596 0
M  V30 5498 H 514.582 4.21231 -2.16475 0
M  V30 5499 H 515.006 4.87101 -4.70172 0
M  V30 5500 H 519.648 3.70082 -2.04448 0
M  V30 5501 H 517.366 5.09434 -6.27297 0
M  V30 5502 H 520.952 4.12497 -4.10289 0
M  V30 5503 H 519.832 4.81476 -6.18992 0
M  V30 5504 N 517.335 0.585699 1.46312 0
M  V30 5505 C 518.245 -0.148236 2.34131 0
M  V30 5506 C 519.261 -0.882972 1.49932 0
M  V30 5507 O 520.437 -0.845484 1.82794 0
M  V30 5508 C 517.502 -1.14714 3.27172 0
M  V30 5509 C 516.563 -0.416746 4.27272 0
M  V30 5510 C 515.796 -1.36806 5.15868 0
M  V30 5511 O 516.019 -2.60475 5.07454 0
M  V30 5512 O 514.953 -0.877018 5.95476 0
M  V30 5513 H 518.779 0.572882 2.98248 0
M  V30 5514 H 516.364 0.346082 1.45336 0
M  V30 5515 H 518.246 -1.72303 3.84564 0
M  V30 5516 H 516.921 -1.84967 2.65648 0
M  V30 5517 H 515.828 0.201061 3.73559 0
M  V30 5518 H 517.161 0.244872 4.9159 0
M  V30 5519 N 518.813 -1.54241 0.323641 0
M  V30 5520 C 520.043 -2.04687 -0.280464 0
M  V30 5521 C 520.451 -1.19939 -1.46326 0
M  V30 5522 O 519.794 -0.222872 -1.82343 0
M  V30 5523 C 519.856 -3.50978 -0.778123 0
M  V30 5524 C 519.52 -4.56127 0.282371 0
M  V30 5525 C 520.517 -5.07726 1.11847 0
M  V30 5526 C 518.202 -5.00451 0.430582 0
M  V30 5527 C 520.196 -6.02212 2.08851 0
M  V30 5528 C 517.883 -5.94752 1.40404 0
M  V30 5529 C 518.881 -6.45519 2.23147 0
M  V30 5530 O 518.569 -7.37968 3.1884 0
M  V30 5531 H 518.301 -0.673192 -0.0615473 0
M  V30 5532 H 520.855 -1.99999 0.467921 0
M  V30 5533 H 519.085 -3.53064 -1.57742 0
M  V30 5534 H 520.774 -3.84499 -1.30058 0
M  V30 5535 H 521.54 -4.74261 1.01496 0
M  V30 5536 H 517.419 -4.6055 -0.203569 0
M  V30 5537 H 520.963 -6.41761 2.73474 0
M  V30 5538 H 516.86 -6.27633 1.5082 0
M  V30 5539 H 517.628 -7.55841 3.14079 0
M  V30 5540 N 520.291 -0.0518155 -1.57515 0
M  V30 5541 C 521.538 0.621823 -1.92716 0
M  V30 5542 C 521.866 1.70813 -0.930229 0
M  V30 5543 O 521.121 1.95616 0.0573708 0
M  V30 5544 C 521.42 1.25607 -3.34601 0
M  V30 5545 C 521.086 0.297901 -4.49915 0
M  V30 5546 C 519.748 0.034243 -4.81188 0
M  V30 5547 C 522.1 -0.358738 -5.19964 0
M  V30 5548 C 519.428 -0.893479 -5.79857 0
M  V30 5549 C 521.78 -1.27466 -6.19625 0
M  V30 5550 C 520.444 -1.54698 -6.49326 0
M  V30 5551 H 519.714 0.227541 -0.705199 0
M  V30 5552 H 522.361 -0.118432 -1.91133 0
M  V30 5553 H 520.666 2.07161 -3.32553 0
M  V30 5554 H 522.363 1.78424 -3.59118 0
M  V30 5555 H 518.953 0.513581 -4.25512 0
M  V30 5556 H 523.137 -0.168133 -4.96015 0
M  V30 5557 H 518.393 -1.11193 -6.01204 0
M  V30 5558 H 522.567 -1.78953 -6.73015 0
M  V30 5559 H 520.194 -2.26748 -7.25596 0
M  V30 5560 N 521.769 1.56035 0.221574 0
M  V30 5561 C 523.018 1.78245 0.944016 0
M  V30 5562 C 523.331 0.620371 1.85501 0
M  V30 5563 O 524.537 0.726103 2.6161 0
M  V30 5564 C 522.993 3.15659 1.7288 0
M  V30 5565 C 522.601 4.39591 0.863942 0
M  V30 5566 C 524.345 3.47195 2.44246 0
M  V30 5567 C 522.252 5.6803 1.64607 0
M  V30 5568 H 521.182 0.664547 0.356222 0
M  V30 5569 H 523.833 1.8243 0.197904 0
M  V30 5570 H 522.215 3.0565 2.51781 0
M  V30 5571 H 523.389 4.60655 0.115464 0
M  V30 5572 H 521.704 4.15572 0.262407 0
M  V30 5573 H 524.301 4.40381 3.03263 0
M  V30 5574 H 524.644 2.69693 3.1713 0
M  V30 5575 H 525.177 3.58533 1.72334 0
M  V30 5576 H 521.916 6.48425 0.960507 0
M  V30 5577 H 521.436 5.51027 2.36917 0
M  V30 5578 H 523.115 6.08203 2.20675 0
M  V30 5579 N 523.247 -0.488276 1.49845 0
M  V30 5580 C 524.21 -1.57069 1.66919 0
M  V30 5581 C 525.21 -1.51445 0.540479 0
M  V30 5582 O 526.4 -1.5437 0.807188 0
M  V30 5583 C 523.532 -2.96718 1.67844 0
M  V30 5584 H 524.725 -1.43254 2.63474 0
M  V30 5585 H 522.278 -0.713435 1.39068 0
M  V30 5586 H 523.013 -3.15996 0.7292 0
M  V30 5587 H 522.798 -3.02208 2.49826 0
M  V30 5588 H 524.288 -3.75335 1.83066 0
M  V30 5589 N 524.725 -1.39134 -0.740242 0
M  V30 5590 C 525.688 -1.37217 -1.83587 0
M  V30 5591 C 526.688 -0.270221 -1.58513 0
M  V30 5592 O 527.878 -0.527843 -1.6601 0
M  V30 5593 C 525.01 -1.13959 -3.21288 0
M  V30 5594 H 526.203 -2.34705 -1.86691 0
M  V30 5595 H 523.756 -1.24622 -0.94335 0
M  V30 5596 H 524.491 -0.17131 -3.23847 0
M  V30 5597 H 524.276 -1.93754 -3.40884 0
M  V30 5598 H 525.766 -1.15346 -4.01354 0
M  V30 5599 N 526.204 0.969867 -1.24223 0
M  V30 5600 C 527.114 2.09806 -1.0497 0
M  V30 5601 C 528.13 1.73998 0.00886455 0
M  V30 5602 O 529.306 2.00513 -0.188848 0
M  V30 5603 C 526.371 3.40467 -0.654452 0
M  V30 5604 C 525.432 3.90236 -1.78926 0
M  V30 5605 C 524.665 5.14662 -1.41277 0
M  V30 5606 O 524.888 5.69602 -0.301632 0
M  V30 5607 O 523.822 5.58761 -2.23763 0
M  V30 5608 H 527.648 2.28942 -1.99548 0
M  V30 5609 H 525.233 1.08197 -1.03023 0
M  V30 5610 H 527.115 4.19039 -0.445452 0
M  V30 5611 H 525.79 3.22636 0.262216 0
M  V30 5612 H 524.697 3.12735 -2.05299 0
M  V30 5613 H 526.03 4.1254 -2.68462 0
M  V30 5614 N 527.682 1.05563 1.17022 0
M  V30 5615 C 528.592 0.670758 2.24807 0
M  V30 5616 C 529.608 -0.309865 1.71219 0
M  V30 5617 O 530.784 -0.161025 2.00755 0
M  V30 5618 C 527.849 0.055337 3.46656 0
M  V30 5619 C 526.91 1.08688 4.15314 0
M  V30 5620 C 526.143 0.500736 5.31346 0
M  V30 5621 O 526.366 -0.688718 5.66227 0
M  V30 5622 O 525.3 1.23683 5.89055 0
M  V30 5623 H 529.126 1.56914 2.60023 0
M  V30 5624 H 526.711 0.827428 1.24395 0
M  V30 5625 H 528.593 -0.286492 4.20425 0
M  V30 5626 H 527.268 -0.816638 3.13229 0
M  V30 5627 H 526.175 1.48077 3.43546 0
M  V30 5628 H 527.508 1.93014 4.52777 0
M  V30 5629 N 529.16 -1.33526 0.837174 0
M  V30 5630 C 530.406 -1.9813 0.432704 0
M  V30 5631 C 530.739 -1.66168 -1.00508 0
M  V30 5632 O 530.014 -0.94069 -1.70239 0
M  V30 5633 C 530.297 -3.54151 0.651834 0
M  V30 5634 C 530.15 -3.95806 2.13676 0
M  V30 5635 C 531.469 -4.39993 0.0968937 0
M  V30 5636 H 528.588 -0.719713 0.15869 0
M  V30 5637 H 531.23 -1.58193 1.05237 0
M  V30 5638 H 529.38 -3.88301 0.124369 0
M  V30 5639 H 531.052 -3.71921 2.72896 0
M  V30 5640 H 529.295 -3.45599 2.62191 0
M  V30 5641 H 529.966 -5.0447 2.24084 0
M  V30 5642 H 532.442 -4.12479 0.547733 0
M  V30 5643 H 531.318 -5.48186 0.279917 0
M  V30 5644 H 531.579 -4.3066 -0.9992 0
M  V30 5645 N 530.638 -0.59345 -1.46 0
M  V30 5646 C 531.887 -0.0808084 -2.01538 0
M  V30 5647 C 532.2 1.29112 -1.46934 0
M  V30 5648 O 533.406 1.8957 -1.94359 0
M  V30 5649 C 531.862 -0.0938311 -3.59778 0
M  V30 5650 C 531.47 -1.46474 -4.23379 0
M  V30 5651 C 533.214 0.364306 -4.22934 0
M  V30 5652 C 531.121 -1.4349 -5.73729 0
M  V30 5653 H 530.051 -0.0264407 -0.753536 0
M  V30 5654 H 532.702 -0.746689 -1.67621 0
M  V30 5655 H 531.084 0.638427 -3.9082 0
M  V30 5656 H 532.258 -2.21758 -4.03931 0
M  V30 5657 H 530.573 -1.86379 -3.7236 0
M  V30 5658 H 533.17 0.405584 -5.3316 0
M  V30 5659 H 533.513 1.38409 -3.92618 0
M  V30 5660 H 534.046 -0.31423 -3.96557 0
M  V30 5661 H 530.785 -2.43184 -6.08722 0
M  V30 5662 H 530.305 -0.724431 -5.95409 0
M  V30 5663 H 531.984 -1.15243 -6.36654 0
M  V30 5664 N 532.116 1.54067 -0.331816 0
M  V30 5665 C 533.362 2.01713 0.261395 0
M  V30 5666 C 533.717 1.21566 1.49129 0
M  V30 5667 O 533.01 0.291867 1.89364 0
M  V30 5668 C 533.204 3.51634 0.639392 0
M  V30 5669 C 533.033 4.46295 -0.552321 0
M  V30 5670 C 531.803 4.94185 -1.05399 0
M  V30 5671 C 534.001 4.94677 -1.40711 0
M  V30 5672 N 531.983 5.7277 -2.20925 0
M  V30 5673 C 533.354 5.71267 -2.40943 0
M  V30 5674 C 535.409 4.76805 -1.43392 0
M  V30 5675 C 534.112 6.31889 -3.4367 0
M  V30 5676 C 536.138 5.38268 -2.44994 0
M  V30 5677 C 535.5 6.14716 -3.43952 0
M  V30 5678 H 531.599 0.77975 0.0592729 0
M  V30 5679 H 534.183 1.88974 -0.468726 0
M  V30 5680 H 532.354 3.64603 1.33863 0
M  V30 5681 H 534.086 3.86038 1.21478 0
M  V30 5682 H 530.841 4.69472 -0.623952 0
M  V30 5683 H 531.265 6.16737 -2.79222 0
M  V30 5684 H 535.907 4.17255 -0.682489 0
M  V30 5685 H 533.625 6.90554 -4.19715 0
M  V30 5686 H 537.211 5.26352 -2.4788 0
M  V30 5687 H 536.091 6.6143 -4.21283 0
M  V30 5688 N 533.594 0.0601682 1.57485 0
M  V30 5689 C 534.871 -0.651956 1.84415 0
M  V30 5690 C 535.251 -1.88498 0.950361 0
M  V30 5691 O 534.599 -2.28496 0.0136719 0
M  V30 5692 C 534.809 -1.00069 3.34346 0
M  V30 5693 C 536.157 -1.37915 4.01578 0
M  V30 5694 O 537.181 -1.09277 3.39024 0
M  V30 5695 O 536.04 -1.91399 5.11887 0
M  V30 5696 H 533.134 -0.322668 0.761455 0
M  V30 5697 H 535.68 0.0902159 1.6946 0
M  V30 5698 H 534.452 -0.124463 3.91102 0
M  V30 5699 H 534.075 -1.80001 3.54521 0
M  V30 5700 N 535.072 -1.5615 -0.213296 0
M  V30 5701 C 536.302 -1.83372 -0.951757 0
M  V30 5702 C 536.71 -0.638158 -1.78113 0
M  V30 5703 O 536.053 0.402609 -1.79234 0
M  V30 5704 C 536.115 -3.04444 -1.91192 0
M  V30 5705 C 535.779 -4.39107 -1.26627 0
M  V30 5706 C 536.776 -5.15794 -0.652087 0
M  V30 5707 C 534.461 -4.85834 -1.27556 0
M  V30 5708 C 536.455 -6.37376 -0.055814 0
M  V30 5709 C 534.142 -6.07356 -0.675451 0
M  V30 5710 C 535.14 -6.82967 -0.0666367 0
M  V30 5711 O 534.828 -8.0219 0.524119 0
M  V30 5712 H 534.56 -0.613398 -0.284111 0
M  V30 5713 H 537.114 -2.04096 -0.231112 0
M  V30 5714 H 535.344 -2.79559 -2.67178 0
M  V30 5715 H 537.033 -3.18466 -2.51662 0
M  V30 5716 H 537.799 -4.80796 -0.637172 0
M  V30 5717 H 533.678 -4.26949 -1.73883 0
M  V30 5718 H 537.222 -6.96334 0.420004 0
M  V30 5719 H 533.119 -6.41825 -0.687806 0
M  V30 5720 H 533.887 -8.17426 0.419243 0
M  V30 5721 N 536.55 0.480323 -1.50102 0
M  V30 5722 C 537.513 1.56181 -1.6775 0
M  V30 5723 C 538.513 1.51156 -0.548503 0
M  V30 5724 O 539.703 1.5394 -0.815363 0
M  V30 5725 C 536.835 2.95823 -1.69415 0
M  V30 5726 H 538.028 1.41855 -2.6423 0
M  V30 5727 H 535.581 0.70605 -1.39444 0
M  V30 5728 H 536.316 3.15604 -0.745948 0
M  V30 5729 H 536.101 3.00878 -2.51425 0
M  V30 5730 H 537.591 3.74359 -1.85054 0
M  V30 5731 N 538.028 1.39524 0.732853 0
M  V30 5732 C 539.439 1.32905 1.31122 0
M  V30 5733 C 539.79 -0.00558708 1.96199 0
M  V30 5734 O 538.915 -0.907706 1.96443 0
M  V30 5735 C 539.51 2.40704 2.38426 0
M  V30 5736 C 538.069 2.37599 2.91931 0
M  V30 5737 C 537.216 2.2248 1.65523 0
M  V30 5738 H 540.167 1.49581 0.530207 0
M  V30 5739 H 540.188 2.07616 3.18867 0
M  V30 5740 H 539.7 3.37829 1.91033 0
M  V30 5741 H 537.801 1.44119 3.43599 0
M  V30 5742 H 537.914 3.32538 3.44899 0
M  V30 5743 H 536.278 1.69691 1.8994 0
M  V30 5744 H 537.061 3.21577 1.20178 0
M  V30 5745 N 539.506 -0.963266 1.24736 0
M  V30 5746 C 540.752 -1.70933 1.09131 0
M  V30 5747 C 541.085 -1.90676 -0.368273 0
M  V30 5748 O 540.36 -1.47147 -1.27193 0
M  V30 5749 C 540.643 -3.09744 1.83658 0
M  V30 5750 C 540.496 -2.97465 3.37394 0
M  V30 5751 C 541.815 -4.09483 1.61282 0
M  V30 5752 H 538.934 -0.620398 0.397838 0
M  V30 5753 H 541.576 -1.12028 1.53459 0
M  V30 5754 H 539.726 -3.60031 1.4598 0
M  V30 5755 H 541.398 -2.54571 3.84696 0
M  V30 5756 H 539.641 -2.33576 3.65547 0
M  V30 5757 H 540.312 -3.95822 3.84745 0
M  V30 5758 H 542.788 -3.68073 1.94066 0
M  V30 5759 H 541.664 -5.04666 2.15878 0
M  V30 5760 H 541.925 -4.38639 0.552102 0
M  V30 5761 N 540.985 -1.06182 -1.16461 0
M  V30 5762 C 542.234 -0.772927 -1.86303 0
M  V30 5763 C 542.547 0.703187 -1.82523 0
M  V30 5764 O 543.753 1.10641 -2.47933 0
M  V30 5765 C 542.209 -1.33249 -3.34324 0
M  V30 5766 C 541.817 -2.83876 -3.46581 0
M  V30 5767 C 543.561 -1.12108 -4.09429 0
M  V30 5768 C 541.468 -3.33082 -4.88682 0
M  V30 5769 H 540.398 -0.285452 -0.697878 0
M  V30 5770 H 543.049 -1.28039 -1.31447 0
M  V30 5771 H 541.431 -0.7528 -3.88779 0
M  V30 5772 H 542.605 -3.47786 -3.02293 0
M  V30 5773 H 540.92 -3.03671 -2.84909 0
M  V30 5774 H 543.517 -1.46361 -5.14279 0
M  V30 5775 H 543.86 -0.0593832 -4.16258 0
M  V30 5776 H 544.393 -1.6665 -3.6121 0
M  V30 5777 H 541.132 -4.38726 -4.87032 0
M  V30 5778 H 540.652 -2.73919 -5.33599 0
M  V30 5779 H 542.331 -3.28344 -5.57494 0
M  V30 5780 N 542.463 1.3308 -0.844243 0
M  V30 5781 C 543.874 1.7992 -0.498566 0
M  V30 5782 C 544.225 1.69808 0.982834 0
M  V30 5783 O 543.35 1.25051 1.7661 0
M  V30 5784 C 543.945 3.26677 -0.898204 0
M  V30 5785 C 542.504 3.71513 -0.604583 0
M  V30 5786 C 541.651 2.54393 -1.10362 0
M  V30 5787 H 544.602 1.20526 -1.03244 0
M  V30 5788 H 544.623 3.79918 -0.21039 0
M  V30 5789 H 544.135 3.34004 -1.97643 0
M  V30 5790 H 542.236 3.69708 0.46335 0
M  V30 5791 H 542.349 4.64755 -1.16358 0
M  V30 5792 H 540.713 2.49246 -0.524273 0
M  V30 5793 H 541.496 2.6448 -2.18873 0
M  V30 5794 N 543.941 0.601185 1.45683 0
M  V30 5795 C 544.904 -0.111398 2.28929 0
M  V30 5796 C 545.904 -0.801246 1.39416 0
M  V30 5797 O 547.094 -0.650383 1.61603 0
M  V30 5798 C 544.226 -1.16773 3.20276 0
M  V30 5799 H 545.419 0.620412 2.93413 0
M  V30 5800 H 542.972 0.359946 1.52099 0
M  V30 5801 H 543.707 -1.93051 2.60579 0
M  V30 5802 H 543.492 -0.677358 3.86205 0
M  V30 5803 H 544.982 -1.66698 3.82886 0
M  V30 5804 N 545.419 -1.53889 0.339982 0
M  V30 5805 C 546.367 -2.26391 -0.533822 0
M  V30 5806 C 547.361 -1.28404 -1.10493 0
M  V30 5807 O 548.567 -1.46124 -1.05108 0
M  V30 5808 H 544.942 -0.727385 -0.190828 0
M  V30 5809 H 546.913 -2.98233 0.0997484 0
M  V30 5810 C 545.662 -3.04707 -1.67479 0
M  V30 5811 H 544.985 -3.79934 -1.2446 0
M  V30 5812 H 546.425 -3.58657 -2.26144 0
M  V30 5813 C 544.884 -2.13989 -2.60212 0
M  V30 5814 O 545.414 -1.73361 -3.62366 0
M  V30 5815 N 543.62 -1.79141 -2.28816 0
M  V30 5816 H 543.167 -2.12378 -1.45785 0
M  V30 5817 H 543.125 -1.18725 -2.91121 0
M  V30 5818 N 546.897 -0.0685191 -1.57451 0
M  V30 5819 C 547.83 0.935736 -2.08133 0
M  V30 5820 C 548.808 1.29317 -0.985698 0
M  V30 5821 O 549.992 1.40304 -1.25886 0
M  V30 5822 C 547.119 2.2448 -2.53627 0
M  V30 5823 C 546.165 2.03917 -3.74593 0
M  V30 5824 S 546.998 1.30154 -5.19442 0
M  V30 5825 C 548.154 2.62346 -5.68265 0
M  V30 5826 H 548.387 0.504473 -2.92989 0
M  V30 5827 H 545.92 0.144169 -1.53725 0
M  V30 5828 H 547.878 2.99718 -2.80499 0
M  V30 5829 H 546.539 2.64731 -1.69045 0
M  V30 5830 H 545.732 3.00788 -4.04404 0
M  V30 5831 H 545.334 1.36815 -3.48077 0
M  V30 5832 H 547.626 3.58448 -5.7491 0
M  V30 5833 H 548.569 2.3715 -6.67207 0
M  V30 5834 H 548.977 2.69401 -4.96068 0
M  V30 5835 N 548.375 1.56261 0.205012 0
M  V30 5836 C 549.652 1.70856 0.952233 0
M  V30 5837 C 550.032 0.620501 2.01775 0
M  V30 5838 O 549.38 -0.370035 2.25484 0
M  V30 5839 C 549.59 3.12807 1.54767 0
M  V30 5840 C 550.938 3.72733 2.0336 0
M  V30 5841 O 551.962 3.15873 1.64629 0
M  V30 5842 O 550.821 4.72501 2.746 0
M  V30 5843 H 547.915 0.696496 0.445895 0
M  V30 5844 H 550.461 1.6857 0.195489 0
M  V30 5845 H 549.233 3.83465 0.779132 0
M  V30 5846 H 548.856 3.1928 2.36951 0
M  V30 5847 N 549.853 -0.472356 1.50355 0
M  V30 5848 C 550.8 -1.57051 1.69126 0
M  V30 5849 C 551.77 -1.5733 0.532574 0
M  V30 5850 O 552.955 -1.7488 0.762994 0
M  V30 5851 C 550.095 -2.95033 1.79024 0
M  V30 5852 C 549.208 -3.04552 3.06386 0
M  V30 5853 C 548.343 -4.33441 3.07087 0
M  V30 5854 C 547.382 -4.36697 4.28908 0
M  V30 5855 N 546.519 -5.57056 4.27356 0
M  V30 5856 H 551.359 -1.40351 2.62879 0
M  V30 5857 H 548.896 -0.682403 1.30314 0
M  V30 5858 H 550.854 -3.75048 1.82744 0
M  V30 5859 H 549.484 -3.10371 0.887109 0
M  V30 5860 H 548.536 -2.17419 3.12143 0
M  V30 5861 H 549.848 -3.02818 3.96362 0
M  V30 5862 H 549.002 -5.21801 3.09529 0
M  V30 5863 H 547.741 -4.37782 2.14939 0
M  V30 5864 H 546.746 -3.46734 4.2668 0
M  V30 5865 H 547.971 -4.34049 5.22282 0
M  V30 5866 H 545.917 -5.62184 3.3806 0
M  V30 5867 H 545.834 -5.57058 5.111 0
M  V30 5868 H 547.102 -6.47545 4.33942 0
M  V30 5869 N 551.331 -1.39911 -0.725443 0
M  V30 5870 C 552.278 -1.39393 -1.83952 0
M  V30 5871 C 553.248 -0.252249 -1.64173 0
M  V30 5872 O 554.433 -0.44882 -1.85446 0
M  V30 5873 C 551.573 -1.25262 -3.21564 0
M  V30 5874 C 550.686 -2.49054 -3.52982 0
M  V30 5875 C 549.821 -2.27439 -4.80047 0
M  V30 5876 C 548.86 -3.46857 -5.04338 0
M  V30 5877 N 547.997 -3.24499 -6.22611 0
M  V30 5878 H 552.837 -2.34622 -1.83729 0
M  V30 5879 H 550.374 -1.16537 -0.897636 0
M  V30 5880 H 552.332 -1.15077 -4.01015 0
M  V30 5881 H 550.962 -0.33657 -3.21041 0
M  V30 5882 H 550.014 -2.69805 -2.6816 0
M  V30 5883 H 551.326 -3.37973 -3.66846 0
M  V30 5884 H 550.48 -2.14551 -5.67497 0
M  V30 5885 H 549.219 -1.35929 -4.68374 0
M  V30 5886 H 548.224 -3.60232 -4.15346 0
M  V30 5887 H 549.449 -4.3928 -5.17889 0
M  V30 5888 H 547.395 -2.35663 -6.12208 0
M  V30 5889 H 547.312 -4.06978 -6.37106 0
M  V30 5890 H 548.58 -3.15325 -7.12875 0
M  V30 5891 N 552.809 0.956637 -1.25245 0
M  V30 5892 C 554.039 1.7332 -1.12445 0
M  V30 5893 C 554.447 1.86392 0.324732 0
M  V30 5894 O 553.79 1.35967 1.23526 0
M  V30 5895 C 553.852 3.16603 -1.70303 0
M  V30 5896 C 553.516 3.26966 -3.19284 0
M  V30 5897 C 554.513 3.11434 -4.16299 0
M  V30 5898 C 552.198 3.50851 -3.59456 0
M  V30 5899 C 554.192 3.1963 -5.51467 0
M  V30 5900 C 551.879 3.58684 -4.94761 0
M  V30 5901 C 552.877 3.43087 -5.90576 0
M  V30 5902 O 552.565 3.50598 -7.2342 0
M  V30 5903 H 552.297 0.549981 -0.393061 0
M  V30 5904 H 554.851 1.20892 -1.66055 0
M  V30 5905 H 553.081 3.70385 -1.11138 0
M  V30 5906 H 554.77 3.76109 -1.52632 0
M  V30 5907 H 555.536 2.92853 -3.86604 0
M  V30 5908 H 551.415 3.62053 -2.85375 0
M  V30 5909 H 554.959 3.07373 -6.26233 0
M  V30 5910 H 550.856 3.76782 -5.24124 0
M  V30 5911 H 551.624 3.67242 -7.31489 0
M  V30 5912 N 554.287 1.06798 1.15896 0
M  V30 5913 C 555.703 0.792423 1.38538 0
M  V30 5914 C 555.903 -0.60592 1.92174 0
M  V30 5915 O 554.959 -1.36561 2.12385 0
M  V30 5916 C 556.272 1.86157 2.36149 0
M  V30 5917 C 557.82 1.88567 2.49823 0
M  V30 5918 C 558.295 2.9455 3.5072 0
M  V30 5919 N 559.786 2.93616 3.58251 0
M  V30 5920 C 560.521 3.72267 4.36125 0
M  V30 5921 N 560.017 4.60751 5.17379 0
M  V30 5922 N 561.81 3.60637 4.31158 0
M  V30 5923 H 553.961 1.96993 0.794198 0
M  V30 5924 H 556.224 0.853942 0.411688 0
M  V30 5925 H 555.93 2.86603 2.03843 0
M  V30 5926 H 555.804 1.71692 3.3586 0
M  V30 5927 H 558.191 0.887765 2.8143 0
M  V30 5928 H 558.272 2.0711 1.5013 0
M  V30 5929 H 557.916 3.94537 3.19849 0
M  V30 5930 H 557.846 2.73255 4.50155 0
M  V30 5931 H 560.337 2.29472 3.00252 0
M  V30 5932 H 560.65 5.17408 5.74028 0
M  V30 5933 H 558.995 4.64803 5.16704 0
M  V30 5934 H 562.186 2.90892 3.66742 0
M  V30 5935 H 562.359 4.22176 4.91601 0
M  V30 5936 N 555.766 -1.3263 0.851289 0
M  V30 5937 C 556.991 -2.02097 0.466006 0
M  V30 5938 C 557.416 -1.63574 -0.928709 0
M  V30 5939 O 556.774 -0.834665 -1.60944 0
M  V30 5940 C 556.822 -3.55425 0.608737 0
M  V30 5941 O 555.926 -4.10827 -0.359878 0
M  V30 5942 H 555.267 -0.636911 0.187724 0
M  V30 5943 H 557.797 -1.69253 1.14955 0
M  V30 5944 H 557.807 -4.04986 0.495006 0
M  V30 5945 H 556.482 -3.82806 1.62581 0
M  V30 5946 H 555.059 -3.72349 -0.202666 0
M  V30 5947 N 557.244 -0.608902 -1.45362 0
M  V30 5948 C 558.176 0.147318 -2.28726 0
M  V30 5949 C 559.189 0.830468 -1.40025 0
M  V30 5950 O 560.378 0.695636 -1.64387 0
M  V30 5951 C 557.478 1.22968 -3.15804 0
M  V30 5952 C 556.651 0.633391 -4.3279 0
M  V30 5953 C 555.71 1.60682 -5.01067 0
M  V30 5954 O 554.736 1.13261 -5.57818 0
M  V30 5955 N 555.938 2.94123 -5.00472 0
M  V30 5956 H 558.703 -0.568014 -2.94268 0
M  V30 5957 H 556.264 -0.448479 -1.55564 0
M  V30 5958 H 558.256 1.88072 -3.58345 0
M  V30 5959 H 556.826 1.84752 -2.52162 0
M  V30 5960 H 556.046 -0.195762 -3.93714 0
M  V30 5961 H 557.334 0.215255 -5.08344 0
M  V30 5962 H 556.732 3.3525 -4.55657 0
M  V30 5963 H 555.289 3.54646 -5.46872 0
M  V30 5964 N 558.722 1.53707 -0.348139 0
M  V30 5965 C 559.672 2.2193 0.522592 0
M  V30 5966 C 560.656 1.20831 1.06248 0
M  V30 5967 O 561.848 1.46357 0.995415 0
M  V30 5968 C 558.977 2.99904 1.6707 0
M  V30 5969 C 558.063 4.08364 1.14454 0
M  V30 5970 N 558.454 5.04656 0.339958 0
M  V30 5971 C 556.752 4.22757 1.421 0
M  V30 5972 C 557.453 5.81675 0.0538806 0
M  V30 5973 N 556.429 5.39739 0.646776 0
M  V30 5974 H 560.231 2.93733 -0.099135 0
M  V30 5975 H 557.745 1.61656 -0.15524 0
M  V30 5976 H 559.742 3.47284 2.30651 0
M  V30 5977 H 558.402 2.29629 2.29566 0
M  V30 5978 H 559.413 5.17896 -0.0193552 0
M  V30 5979 H 556.09 3.63704 2.05002 0
M  V30 5980 H 557.48 6.69256 -0.595443 0
M  V30 5981 N 560.2 0.0768682 1.57412 0
M  V30 5982 C 561.13 -0.886026 2.16037 0
M  V30 5983 C 562.111 -1.30691 1.08876 0
M  V30 5984 O 563.296 -1.37705 1.36934 0
M  V30 5985 C 560.426 -2.1518 2.72608 0
M  V30 5986 C 559.38 -1.87015 3.8498 0
M  V30 5987 C 558.706 -3.20266 4.28175 0
M  V30 5988 C 560.006 -1.17143 5.08994 0
M  V30 5989 H 561.7 -0.397642 2.96748 0
M  V30 5990 H 559.246 -0.189823 1.42743 0
M  V30 5991 H 561.199 -2.82962 3.12266 0
M  V30 5992 H 559.923 -2.66269 1.89125 0
M  V30 5993 H 558.582 -1.21636 3.45833 0
M  V30 5994 H 558.23 -3.69207 3.41607 0
M  V30 5995 H 557.93 -3.0221 5.03927 0
M  V30 5996 H 559.454 -3.89237 4.70454 0
M  V30 5997 H 560.868 -1.75003 5.45937 0
M  V30 5998 H 559.265 -1.09328 5.90057 0
M  V30 5999 H 560.335 -0.151295 4.84664 0
M  V30 6000 N 561.678 -1.56367 -0.196722 0
M  V30 6001 C 562.955 -1.71359 -0.943159 0
M  V30 6002 C 563.335 -0.631192 -2.01443 0
M  V30 6003 O 562.683 0.358071 -2.25677 0
M  V30 6004 C 562.893 -3.13623 -1.53106 0
M  V30 6005 C 564.241 -3.73806 -2.01381 0
M  V30 6006 O 565.265 -3.16742 -1.62951 0
M  V30 6007 O 564.124 -4.73951 -2.7209 0
M  V30 6008 H 561.218 -0.698851 -0.442195 0
M  V30 6009 H 563.764 -1.68672 -0.186547 0
M  V30 6010 H 562.536 -3.83873 -0.758785 0
M  V30 6011 H 562.159 -3.20532 -2.35255 0
M  V30 6012 N 563.156 0.464375 -1.50603 0
M  V30 6013 C 564.104 1.58224 -1.70493 0
M  V30 6014 C 565.098 1.59492 -0.570836 0
M  V30 6015 O 566.304 1.63561 -0.751517 0
M  V30 6016 H 562.679 0.525161 -0.538247 0
M  V30 6017 H 564.65 1.38613 -2.64252 0
M  V30 6018 C 563.399 2.96113 -1.82243 0
M  V30 6019 H 562.722 2.95858 -2.68901 0
M  V30 6020 H 564.162 3.73769 -2.00182 0
M  V30 6021 C 562.621 3.31946 -0.575628 0
M  V30 6022 O 563.151 4.00708 0.282152 0
M  V30 6023 N 561.357 2.87436 -0.427665 0
M  V30 6024 H 560.904 2.31652 -1.12674 0
M  V30 6025 H 560.862 3.11776 0.405379 0
M  V30 6026 N 564.634 1.40294 0.718013 0
M  V30 6027 C 565.881 1.3844 1.47786 0
M  V30 6028 C 566.209 -0.0140838 1.94495 0
M  V30 6029 O 565.464 -0.998165 1.68331 0
M  V30 6030 C 565.763 2.31814 2.72024 0
M  V30 6031 C 565.429 3.79117 2.44093 0
M  V30 6032 C 564.091 4.19249 2.36185 0
M  V30 6033 C 566.443 4.72212 2.20602 0
M  V30 6034 C 563.771 5.50516 2.02851 0
M  V30 6035 C 566.123 6.03775 1.88781 0
M  V30 6036 C 564.787 6.42953 1.79354 0
M  V30 6037 H 564.057 0.506588 0.540786 0
M  V30 6038 H 566.704 1.72929 0.822663 0
M  V30 6039 H 565.009 1.90501 3.42369 0
M  V30 6040 H 566.706 2.27664 3.30106 0
M  V30 6041 H 563.296 3.47318 2.51133 0
M  V30 6042 H 567.48 4.42026 2.25669 0
M  V30 6043 H 562.736 5.79776 1.94088 0
M  V30 6044 H 566.91 6.75428 1.69617 0
M  V30 6045 H 564.537 7.44584 1.53291 0
M  V30 6046 N 566.112 -0.949982 1.2575 0
M  V30 6047 C 567.337 -1.73503 1.13628 0
M  V30 6048 C 567.762 -1.85601 -0.30559 0
M  V30 6049 O 567.12 -1.33984 -1.22139 0
M  V30 6050 C 567.168 -3.1243 1.80055 0
M  V30 6051 O 566.272 -3.97916 1.08336 0
M  V30 6052 H 565.613 -0.532665 0.396439 0
M  V30 6053 H 568.143 -1.19043 1.66403 0
M  V30 6054 H 568.153 -3.62866 1.86527 0
M  V30 6055 H 566.828 -3.02941 2.84956 0
M  V30 6056 H 565.405 -3.56375 1.09777 0
M  V30 6057 N 567.59 -1.07411 -1.15328 0
M  V30 6058 C 568.538 -0.689316 -2.22151 0
M  V30 6059 C 569.532 0.300156 -1.6672 0
M  V30 6060 O 570.738 0.163804 -1.79253 0
M  V30 6061 H 567.113 -0.204834 -0.723566 0
M  V30 6062 H 569.084 -1.59988 -2.51886 0
M  V30 6063 C 567.833 -0.103848 -3.47545 0
M  V30 6064 H 567.156 -0.856367 -3.90521 0
M  V30 6065 H 568.596 0.127725 -4.23808 0
M  V30 6066 C 567.055 1.15563 -3.1646 0
M  V30 6067 O 567.585 2.242 -3.33312 0
M  V30 6068 N 565.791 1.06203 -2.70498 0
M  V30 6069 H 565.338 0.177933 -2.56985 0
M  V30 6070 H 565.296 1.90553 -2.50074 0
M  V30 6071 N 569.068 1.32177 -0.85831 0
M  V30 6072 C 570 2.27688 -0.262835 0
M  V30 6073 C 571.013 1.52588 0.567513 0
M  V30 6074 O 572.202 1.74156 0.391407 0
M  V30 6075 C 569.302 3.32668 0.646937 0
M  V30 6076 C 568.475 4.37148 -0.148372 0
M  V30 6077 C 567.534 5.21686 0.687728 0
M  V30 6078 O 566.56 5.69074 0.119934 0
M  V30 6079 N 567.762 5.44892 2.00182 0
M  V30 6080 H 570.527 2.79426 -1.08356 0
M  V30 6081 H 568.088 1.45076 -0.718647 0
M  V30 6082 H 570.08 3.86134 1.2117 0
M  V30 6083 H 568.65 2.81061 1.36834 0
M  V30 6084 H 567.87 3.83915 -0.894572 0
M  V30 6085 H 569.158 5.04038 -0.694514 0
M  V30 6086 H 568.556 5.08128 2.4864 0
M  V30 6087 H 567.113 6.0134 2.51463 0
M  V30 6088 N 570.547 0.616602 1.45037 0
M  V30 6089 C 571.796 0.112861 2.01384 0
M  V30 6090 C 572.109 -1.26758 1.48969 0
M  V30 6091 O 573.315 -1.86454 1.9735 0
M  V30 6092 C 571.771 0.151057 3.59583 0
M  V30 6093 C 571.379 1.53191 4.20995 0
M  V30 6094 C 573.123 -0.296974 4.2346 0
M  V30 6095 C 571.03 1.526 5.71373 0
M  V30 6096 H 569.96 0.0384254 0.75302 0
M  V30 6097 H 572.611 0.773262 1.66412 0
M  V30 6098 H 570.993 -0.57617 3.91786 0
M  V30 6099 H 572.167 2.28156 4.00352 0
M  V30 6100 H 570.482 1.92279 3.69348 0
M  V30 6101 H 573.079 -0.320712 5.33737 0
M  V30 6102 H 573.422 -1.32145 3.9477 0
M  V30 6103 H 573.955 0.377279 3.96007 0
M  V30 6104 H 570.694 2.52837 6.04776 0
M  V30 6105 H 570.214 0.819064 5.94181 0
M  V30 6106 H 571.893 1.25357 6.3474 0
M  V30 6107 N 572.025 -1.5352 0.356285 0
M  V30 6108 C 573.273 -2.00719 -0.235837 0
M  V30 6109 C 573.594 -1.24551 -1.5004 0
M  V30 6110 O 572.864 -0.356185 -1.92635 0
M  V30 6111 H 571.444 -0.741542 -0.0901366 0
M  V30 6112 H 574.106 -1.88887 0.480378 0
M  V30 6113 H 573.202 -3.08551 -0.469357 0
M  V30 6114 N 573.503 -0.0852151 -1.57369 0
M  V30 6115 C 574.45 0.877268 -2.13478 0
M  V30 6116 C 575.42 1.28642 -1.05073 0
M  V30 6117 O 576.605 1.36992 -1.32808 0
M  V30 6118 C 573.745 2.13464 -2.71159 0
M  V30 6119 C 572.858 1.77691 -3.93764 0
M  V30 6120 C 571.993 2.98139 -4.39643 0
M  V30 6121 C 571.032 2.58447 -5.54862 0
M  V30 6122 N 570.169 3.71698 -5.95639 0
M  V30 6123 H 575.009 0.391933 -2.95411 0
M  V30 6124 H 572.546 0.181796 -1.45972 0
M  V30 6125 H 574.504 2.87086 -3.02717 0
M  V30 6126 H 573.134 2.59514 -1.91969 0
M  V30 6127 H 572.186 0.940768 -3.68583 0
M  V30 6128 H 573.498 1.44497 -4.77412 0
M  V30 6129 H 572.652 3.80026 -4.72933 0
M  V30 6130 H 571.391 3.34536 -3.54876 0
M  V30 6131 H 570.396 1.74984 -5.21211 0
M  V30 6132 H 571.621 2.23205 -6.41371 0
M  V30 6133 H 569.567 4.07831 -5.13819 0
M  V30 6134 H 569.484 3.42317 -6.74059 0
M  V30 6135 H 570.752 4.54123 -6.33555 0
M  V30 6136 N 574.981 1.5647 0.188427 0
M  V30 6137 C 575.931 1.91479 1.23774 0
M  V30 6138 C 576.915 0.78119 1.40664 0
M  V30 6139 O 578.107 1.04414 1.42922 0
M  V30 6140 C 575.236 2.26354 2.58106 0
M  V30 6141 C 574.322 3.46186 2.44981 0
M  V30 6142 N 574.713 4.63911 2.01546 0
M  V30 6143 C 573.011 3.50456 2.75856 0
M  V30 6144 C 573.712 5.46064 2.00472 0
M  V30 6145 N 572.688 4.86648 2.42229 0
M  V30 6146 H 576.49 2.79994 0.893339 0
M  V30 6147 H 574.004 1.57477 0.39682 0
M  V30 6148 H 576.001 2.49622 3.33908 0
M  V30 6149 H 574.661 1.39168 2.93364 0
M  V30 6150 H 575.672 4.88451 1.7215 0
M  V30 6151 H 572.349 2.73704 3.15265 0
M  V30 6152 H 573.739 6.50368 1.68734 0
M  V30 6153 N 576.459 -0.456382 1.50847 0
M  V30 6154 C 577.689 -1.22848 1.66108 0
M  V30 6155 C 578.097 -1.85936 0.349897 0
M  V30 6156 O 577.44 -1.70664 -0.679665 0
M  V30 6157 C 577.502 -2.36722 2.70561 0
M  V30 6158 C 577.166 -1.94154 4.13707 0
M  V30 6159 C 578.163 -1.4557 4.99105 0
M  V30 6160 C 575.848 -2.02426 4.59705 0
M  V30 6161 C 577.842 -1.0582 6.28555 0
M  V30 6162 C 575.529 -1.62287 5.89157 0
M  V30 6163 C 576.527 -1.14064 6.73408 0
M  V30 6164 O 576.215 -0.744873 8.00442 0
M  V30 6165 H 575.947 -0.377105 0.561042 0
M  V30 6166 H 578.501 -0.549431 1.97915 0
M  V30 6167 H 576.731 -3.07844 2.34027 0
M  V30 6168 H 578.42 -2.98646 2.74892 0
M  V30 6169 H 579.186 -1.38589 4.64777 0
M  V30 6170 H 575.065 -2.38908 3.94264 0
M  V30 6171 H 578.609 -0.6811 6.94267 0
M  V30 6172 H 574.506 -1.68932 6.23003 0
M  V30 6173 H 575.274 -0.87242 8.13837 0
M  V30 6174 N 577.937 -1.40673 -0.710563 0
M  V30 6175 C 578.884 -1.41336 -1.82463 0
M  V30 6176 C 579.854 -0.269648 -1.63897 0
M  V30 6177 O 581.039 -0.468463 -1.8496 0
M  V30 6178 C 578.179 -1.28665 -3.20218 0
M  V30 6179 C 577.292 -2.52784 -3.5032 0
M  V30 6180 C 576.427 -2.32517 -4.77608 0
M  V30 6181 C 575.466 -3.52187 -5.0063 0
M  V30 6182 N 574.603 -3.31084 -6.19135 0
M  V30 6183 H 579.443 -2.36558 -1.8123 0
M  V30 6184 H 576.98 -1.17483 -0.885226 0
M  V30 6185 H 578.938 -1.19324 -3.99772 0
M  V30 6186 H 577.568 -0.370602 -3.20666 0
M  V30 6187 H 576.62 -2.72634 -2.65283 0
M  V30 6188 H 577.932 -3.41845 -3.63241 0
M  V30 6189 H 577.086 -2.20558 -5.65189 0
M  V30 6190 H 575.825 -1.40889 -4.66906 0
M  V30 6191 H 574.83 -3.64617 -4.11502 0
M  V30 6192 H 576.055 -4.44749 -5.13201 0
M  V30 6193 H 574.001 -2.42143 -6.09674 0
M  V30 6194 H 573.918 -4.13713 -6.32754 0
M  V30 6195 H 575.186 -3.22868 -7.0949 0
M  V30 6196 N 579.415 0.9433 -1.26252 0
M  V30 6197 C 580.362 2.0417 -1.07625 0
M  V30 6198 C 581.332 1.6609 0.0180738 0
M  V30 6199 O 582.517 1.90276 -0.141289 0
M  V30 6200 C 579.657 3.37653 -0.713043 0
M  V30 6201 C 578.77 3.88783 -1.8834 0
M  V30 6202 C 577.905 5.10642 -1.4635 0
M  V30 6203 C 576.944 5.54028 -2.60229 0
M  V30 6204 N 576.081 6.67092 -2.18936 0
M  V30 6205 H 580.921 2.19436 -2.01623 0
M  V30 6206 H 578.458 1.07519 -1.00389 0
M  V30 6207 H 580.416 4.14391 -0.483358 0
M  V30 6208 H 579.046 3.22241 0.18996 0
M  V30 6209 H 578.098 3.08464 -2.22608 0
M  V30 6210 H 579.41 4.16922 -2.73821 0
M  V30 6211 H 578.564 5.94832 -1.19414 0
M  V30 6212 H 577.303 4.84244 -0.579568 0
M  V30 6213 H 576.308 4.68396 -2.87898 0
M  V30 6214 H 577.533 5.82429 -3.49219 0
M  V30 6215 H 575.479 6.42381 -1.32974 0
M  V30 6216 H 575.396 6.94806 -2.97961 0
M  V30 6217 H 576.664 7.54662 -1.95206 0
M  V30 6218 N 580.893 1.08022 1.14757 0
M  V30 6219 C 582.139 0.808705 1.85978 0
M  V30 6220 C 582.472 -0.663764 1.82504 0
M  V30 6221 O 581.747 -1.48765 1.25296 0
M  V30 6222 C 582.03 1.32623 3.34788 0
M  V30 6223 C 581.883 2.86375 3.46856 0
M  V30 6224 C 583.202 0.948291 4.29762 0
M  V30 6225 H 580.321 0.295244 0.675278 0
M  V30 6226 H 582.963 1.33917 1.34783 0
M  V30 6227 H 581.113 0.875002 3.78518 0
M  V30 6228 H 582.785 3.39839 3.11941 0
M  V30 6229 H 581.028 3.24232 2.88194 0
M  V30 6230 H 581.699 3.17658 4.51439 0
M  V30 6231 H 584.175 1.33722 3.94028 0
M  V30 6232 H 583.051 1.33765 5.32352 0
M  V30 6233 H 583.312 -0.145094 4.41862 0
M  V30 6234 N 582.371 -1.3172 0.865308 0
M  V30 6235 C 583.304 -2.26687 0.262376 0
M  V30 6236 C 584.282 -1.50894 -0.605787 0
M  V30 6237 O 585.466 -1.79982 -0.56024 0
M  V30 6238 C 582.593 -3.3281 -0.628915 0
M  V30 6239 C 581.639 -4.26172 0.167278 0
M  V30 6240 S 582.472 -5.12797 1.54272 0
M  V30 6241 C 583.628 -6.22438 0.657427 0
M  V30 6242 H 583.861 -2.77478 1.0674 0
M  V30 6243 H 581.394 -1.39414 0.663555 0
M  V30 6244 H 583.352 -3.94426 -1.13747 0
M  V30 6245 H 582.013 -2.80782 -1.40785 0
M  V30 6246 H 581.206 -5.01392 -0.51203 0
M  V30 6247 H 580.808 -3.69029 0.607777 0
M  V30 6248 H 583.1 -6.77368 -0.133925 0
M  V30 6249 H 584.043 -6.9451 1.38061 0
M  V30 6250 H 584.451 -5.64043 0.227044 0
M  V30 6251 N 583.85 -0.624285 -1.44708 0
M  V30 6252 C 585.08 -0.132726 -2.06173 0
M  V30 6253 C 585.488 1.19513 -1.46674 0
M  V30 6254 O 584.831 1.74254 -0.581491 0
M  V30 6255 C 584.893 0.0636732 -3.59444 0
M  V30 6256 C 584.557 -1.18496 -4.4137 0
M  V30 6257 C 585.553 -2.10706 -4.75288 0
M  V30 6258 C 583.239 -1.41846 -4.81856 0
M  V30 6259 C 585.233 -3.24582 -5.48567 0
M  V30 6260 C 582.92 -2.5602 -5.54885 0
M  V30 6261 C 583.918 -3.47215 -5.88159 0
M  V30 6262 O 583.606 -4.59399 -6.59703 0
M  V30 6263 H 583.338 -0.0737313 -0.671967 0
M  V30 6264 H 585.892 -0.856789 -1.86677 0
M  V30 6265 H 584.122 0.842809 -3.77404 0
M  V30 6266 H 585.811 0.508924 -4.02697 0
M  V30 6267 H 586.577 -1.93898 -4.44554 0
M  V30 6268 H 582.456 -0.717556 -4.55381 0
M  V30 6269 H 586 -3.95785 -5.74456 0
M  V30 6270 H 581.897 -2.72774 -5.85034 0
M  V30 6271 H 582.665 -4.58293 -6.78166 0
M  V30 6272 N 585.328 1.53329 -0.364422 0
M  V30 6273 C 586.556 2.05657 0.226424 0
M  V30 6274 C 586.971 1.23801 1.42544 0
M  V30 6275 O 586.328 0.27839 1.80364 0
M  V30 6276 C 586.379 3.56125 0.621056 0
M  V30 6277 O 586.1 4.34879 -0.530304 0
M  V30 6278 C 587.601 4.24706 1.27041 0
M  V30 6279 H 584.821 0.669806 0.0400056 0
M  V30 6280 H 587.365 1.97714 -0.522456 0
M  V30 6281 H 585.52 3.64223 1.31985 0
M  V30 6282 H 585.934 5.24073 -0.211546 0
M  V30 6283 H 587.408 5.3131 1.49711 0
M  V30 6284 H 587.885 3.78354 2.23036 0
M  V30 6285 H 588.491 4.20858 0.613079 0
M  V30 6286 N 586.806 0.0935595 1.57322 0
M  V30 6287 C 587.738 -0.895923 2.10964 0
M  V30 6288 C 588.751 -1.24705 1.04654 0
M  V30 6289 O 589.94 -1.20044 1.32105 0
M  V30 6290 C 587.04 -2.20546 2.57318 0
M  V30 6291 C 586.213 -2.0299 3.87445 0
M  V30 6292 C 585.272 -3.17443 4.19662 0
M  V30 6293 O 584.298 -2.91474 4.88909 0
M  V30 6294 N 585.5 -4.43168 3.74943 0
M  V30 6295 H 588.265 -0.437788 2.96485 0
M  V30 6296 H 585.826 -0.0915863 1.61641 0
M  V30 6297 H 587.818 -2.9606 2.75917 0
M  V30 6298 H 586.388 -2.57789 1.76816 0
M  V30 6299 H 585.608 -1.11815 3.78009 0
M  V30 6300 H 586.896 -1.88535 4.7258 0
M  V30 6301 H 586.294 -4.67149 3.19043 0
M  V30 6302 H 584.851 -5.15637 3.987 0
M  V30 6303 N 588.284 -1.56567 -0.180126 0
M  V30 6304 C 589.514 -1.85349 -0.912647 0
M  V30 6305 C 589.922 -0.675795 -1.76719 0
M  V30 6306 O 589.265 0.3645 -1.80047 0
M  V30 6307 C 589.327 -3.08431 -1.84691 0
M  V30 6308 C 588.991 -4.41694 -1.17284 0
M  V30 6309 C 589.988 -5.17062 -0.542532 0
M  V30 6310 C 587.673 -4.8843 -1.17223 0
M  V30 6311 C 589.667 -6.37351 0.0793953 0
M  V30 6312 C 587.354 -6.08652 -0.54647 0
M  V30 6313 C 588.352 -6.82955 0.0782458 0
M  V30 6314 O 588.04 -8.00897 0.694158 0
M  V30 6315 H 587.772 -0.619286 -0.271036 0
M  V30 6316 H 590.326 -2.0454 -0.187768 0
M  V30 6317 H 588.556 -2.85163 -2.61188 0
M  V30 6318 H 590.245 -3.23733 -2.44851 0
M  V30 6319 H 591.011 -4.8204 -0.535045 0
M  V30 6320 H 586.89 -4.30542 -1.64788 0
M  V30 6321 H 590.434 -6.95287 0.567612 0
M  V30 6322 H 586.331 -6.4314 -0.55151 0
M  V30 6323 H 587.099 -8.16352 0.592537 0
M  V30 6324 N 589.762 0.448376 -1.51087 0
M  V30 6325 C 590.672 1.56882 -1.74428 0
M  V30 6326 C 591.688 1.62268 -0.62809 0
M  V30 6327 O 592.864 1.79716 -0.909075 0
M  V30 6328 C 589.929 2.92947 -1.85426 0
M  V30 6329 C 588.99 2.97766 -3.09247 0
M  V30 6330 C 588.223 4.27341 -3.19711 0
M  V30 6331 O 588.446 5.19112 -2.36387 0
M  V30 6332 O 587.38 4.38219 -4.12611 0
M  V30 6333 H 591.206 1.40104 -2.69452 0
M  V30 6334 H 588.791 0.630247 -1.35456 0
M  V30 6335 H 590.673 3.73719 -1.94709 0
M  V30 6336 H 589.348 3.09876 -0.935887 0
M  V30 6337 H 588.255 2.15989 -3.0545 0
M  V30 6338 H 589.588 2.8578 -4.00738 0
M  V30 6339 N 591.24 1.41047 0.703093 0
M  V30 6340 C 592.517 1.30493 1.45708 0
M  V30 6341 C 592.897 -0.0709892 2.10981 0
M  V30 6342 O 592.245 -1.08471 2.01113 0
M  V30 6343 C 592.455 2.45287 2.48265 0
M  V30 6344 C 593.803 2.86104 3.13735 0
M  V30 6345 O 594.827 2.44971 2.58587 0
M  V30 6346 O 593.686 3.57206 4.13601 0
M  V30 6347 H 590.78 0.513144 0.648546 0
M  V30 6348 H 593.326 1.52995 0.734208 0
M  V30 6349 H 592.098 3.37135 1.98635 0
M  V30 6350 H 591.721 2.24622 3.28071 0
M  V30 6351 N 592.718 -0.936591 1.26751 0
M  V30 6352 C 593.628 -2.06949 1.10496 0
M  V30 6353 C 594.644 -1.7396 0.037271 0
M  V30 6354 O 595.82 -1.99941 0.241944 0
M  V30 6355 C 592.885 -3.38612 0.744491 0
M  V30 6356 C 591.946 -3.85355 1.89209 0
M  V30 6357 C 591.179 -5.10735 1.54873 0
M  V30 6358 O 591.402 -5.68602 0.452546 0
M  V30 6359 O 590.336 -5.52632 2.38499 0
M  V30 6360 H 594.162 -2.23571 2.05547 0
M  V30 6361 H 591.747 -1.05428 1.05855 0
M  V30 6362 H 593.629 -4.17711 0.556396 0
M  V30 6363 H 592.304 -3.23218 -0.176582 0
M  V30 6364 H 591.211 -3.07182 2.13518 0
M  V30 6365 H 592.544 -4.05277 2.79305 0
M  V30 6366 N 594.196 -1.08629 -1.14182 0
M  V30 6367 C 595.421 -0.83902 -1.89671 0
M  V30 6368 C 595.846 0.603332 -1.78161 0
M  V30 6369 O 595.204 1.42301 -1.12339 0
M  V30 6370 C 595.252 -1.26854 -3.37551 0
M  V30 6371 O 594.356 -0.42188 -4.10236 0
M  V30 6372 H 593.697 -0.304545 -0.590041 0
M  V30 6373 H 596.227 -1.4483 -1.44518 0
M  V30 6374 H 596.237 -1.25038 -3.88368 0
M  V30 6375 H 594.912 -2.31901 -3.45246 0
M  V30 6376 H 593.489 -0.503654 -3.69483 0
M  V30 6377 N 595.674 1.31259 -0.872281 0
M  V30 6378 C 596.921 1.96622 -0.484365 0
M  V30 6379 C 597.249 1.68939 0.963841 0
M  V30 6380 O 596.504 0.97974 1.6941 0
M  V30 6381 C 596.803 3.50659 -0.690889 0
M  V30 6382 C 596.469 3.98366 -2.11224 0
M  V30 6383 C 595.131 4.11104 -2.50094 0
M  V30 6384 C 597.483 4.23425 -3.0391 0
M  V30 6385 C 594.811 4.46254 -3.80887 0
M  V30 6386 C 597.163 4.60039 -4.3422 0
M  V30 6387 C 595.827 4.70984 -4.73001 0
M  V30 6388 H 595.097 0.71949 -0.177242 0
M  V30 6389 H 597.744 1.56353 -1.10571 0
M  V30 6390 H 596.049 3.91798 0.0135782 0
M  V30 6391 H 597.746 3.99284 -0.370534 0
M  V30 6392 H 594.336 3.88949 -1.80047 0
M  V30 6393 H 598.52 4.13075 -2.75104 0
M  V30 6394 H 593.776 4.52926 -4.10692 0
M  V30 6395 H 597.95 4.78381 -5.06088 0
M  V30 6396 H 595.577 4.97977 -5.7439 0
M  V30 6397 N 597.152 0.631951 1.44375 0
M  V30 6398 C 598.38 0.143867 2.06399 0
M  V30 6399 C 598.795 -1.18188 1.47231 0
M  V30 6400 O 598.152 -1.72511 0.595498 0
M  V30 6401 C 598.203 0.0238253 3.61492 0
M  V30 6402 O 597.924 1.29715 4.18456 0
M  V30 6403 C 599.425 -0.492856 4.40552 0
M  V30 6404 H 596.645 0.0800542 0.666207 0
M  V30 6405 H 599.189 0.866586 1.85231 0
M  V30 6406 H 597.344 -0.649338 3.81919 0
M  V30 6407 H 597.758 1.14252 5.11905 0
M  V30 6408 H 599.232 -0.525861 5.49489 0
M  V30 6409 H 599.709 -1.52006 4.12057 0
M  V30 6410 H 600.315 0.147085 4.25046 0
M  V30 6411 N 598.631 -1.53133 0.372548 0
M  V30 6412 C 599.578 -2.25951 -0.470631 0
M  V30 6413 C 600.548 -1.26895 -1.07176 0
M  V30 6414 O 601.733 -1.55691 -1.10294 0
M  V30 6415 C 598.873 -3.05726 -1.6008 0
M  V30 6416 C 597.986 -4.19684 -1.02416 0
M  V30 6417 C 597.121 -4.86888 -2.124 0
M  V30 6418 C 596.16 -5.92866 -1.52238 0
M  V30 6419 N 595.297 -6.53732 -2.56084 0
M  V30 6420 H 600.137 -2.97587 0.156816 0
M  V30 6421 H 597.674 -1.4683 0.0891571 0
M  V30 6422 H 599.632 -3.50258 -2.26661 0
M  V30 6423 H 598.262 -2.36331 -2.1988 0
M  V30 6424 H 597.314 -3.79588 -0.248426 0
M  V30 6425 H 598.626 -4.95821 -0.544366 0
M  V30 6426 H 597.78 -5.34638 -2.86787 0
M  V30 6427 H 596.519 -4.10239 -2.63734 0
M  V30 6428 H 595.524 -5.4447 -0.763685 0
M  V30 6429 H 596.749 -6.71439 -1.0172 0
M  V30 6430 H 594.695 -5.79932 -3.06618 0
M  V30 6431 H 594.612 -7.25429 -2.12811 0
M  V30 6432 H 595.88 -7.0613 -3.30152 0
M  V30 6433 N 600.109 -0.101901 -1.5727 0
M  V30 6434 C 601.059 0.865346 -2.1094 0
M  V30 6435 C 602.043 1.2394 -1.02605 0
M  V30 6436 O 603.235 1.21334 -1.28868 0
M  V30 6437 C 600.364 2.12187 -2.69874 0
M  V30 6438 C 599.45 1.77295 -3.85263 0
M  V30 6439 N 599.841 1.12993 -4.93017 0
M  V30 6440 C 598.139 2.06862 -3.95126 0
M  V30 6441 C 598.84 0.968631 -5.73579 0
M  V30 6442 N 597.816 1.48814 -5.22834 0
M  V30 6443 H 601.618 0.364368 -2.91633 0
M  V30 6444 H 599.132 0.101104 -1.62085 0
M  V30 6445 H 601.129 2.82431 -3.06657 0
M  V30 6446 H 599.789 2.62844 -1.90639 0
M  V30 6447 H 600.8 0.795935 -5.11747 0
M  V30 6448 H 597.477 2.59686 -3.26909 0
M  V30 6449 H 598.867 0.465231 -6.70287 0
M  V30 6450 N 601.587 1.56661 0.17182 0
M  V30 6451 C 602.815 1.861 0.904115 0
M  V30 6452 C 603.23 0.687227 1.75848 0
M  V30 6453 O 602.587 -0.343671 1.79235 0
M  V30 6454 C 602.638 3.14568 1.78127 0
M  V30 6455 O 602.359 4.27422 0.961366 0
M  V30 6456 C 603.86 3.5735 2.62327 0
M  V30 6457 H 601.08 0.617445 0.262684 0
M  V30 6458 H 603.624 2.03775 0.172068 0
M  V30 6459 H 601.779 2.98721 2.46666 0
M  V30 6460 H 602.193 5.00725 1.56123 0
M  V30 6461 H 603.667 4.50144 3.1949 0
M  V30 6462 H 604.144 2.81445 3.37173 0
M  V30 6463 H 604.75 3.75807 1.99121 0
M  V30 6464 N 603.065 -0.440357 1.51323 0
M  V30 6465 C 604.311 -1.19181 1.64085 0
M  V30 6466 C 604.644 -1.90936 0.354575 0
M  V30 6467 O 603.919 -1.8347 -0.645675 0
M  V30 6468 C 604.202 -2.2112 2.84215 0
M  V30 6469 C 604.055 -1.53468 4.22809 0
M  V30 6470 C 605.374 -3.22133 2.99864 0
M  V30 6471 H 602.493 -0.431924 0.597169 0
M  V30 6472 H 605.135 -0.481443 1.83799 0
M  V30 6473 H 603.285 -2.81703 2.67537 0
M  V30 6474 H 604.957 -0.962455 4.51148 0
M  V30 6475 H 603.2 -0.837086 4.25647 0
M  V30 6476 H 603.871 -2.27694 5.02852 0
M  V30 6477 H 606.347 -2.71601 3.15233 0
M  V30 6478 H 605.223 -3.90756 3.85488 0
M  V30 6479 H 605.484 -3.88061 2.11804 0
M  V30 6480 N 604.543 -1.41418 -0.695603 0
M  V30 6481 C 605.491 -1.43467 -1.83084 0
M  V30 6482 C 606.485 -0.312719 -1.66489 0
M  V30 6483 O 607.691 -0.484744 -1.7335 0
M  V30 6484 H 604.066 -0.448891 -0.603325 0
M  V30 6485 H 606.037 -2.39144 -1.78473 0
M  V30 6486 C 604.786 -1.3337 -3.21104 0
M  V30 6487 H 604.109 -2.18989 -3.3449 0
M  V30 6488 H 605.549 -1.38865 -4.00615 0
M  V30 6489 C 604.008 -0.0460484 -3.36869 0
M  V30 6490 O 604.538 0.909258 -3.91274 0
M  V30 6491 N 602.744 0.0300222 -2.90584 0
M  V30 6492 H 602.291 -0.748129 -2.46497 0
M  V30 6493 H 602.249 0.890991 -3.01511 0
M  V30 6494 N 606.021 0.929856 -1.27246 0
M  V30 6495 C 607.432 1.49223 -1.12203 0
M  V30 6496 C 607.783 1.93989 0.293731 0
M  V30 6497 O 606.908 1.80978 1.18642 0
M  V30 6498 C 607.503 2.71198 -2.0307 0
M  V30 6499 C 606.062 3.23666 -1.92139 0
M  V30 6500 C 605.209 1.96409 -1.95752 0
M  V30 6501 H 608.16 0.744181 -1.4017 0
M  V30 6502 H 608.181 3.45905 -1.58524 0
M  V30 6503 H 607.693 2.38585 -3.06102 0
M  V30 6504 H 605.794 3.61042 -0.920834 0
M  V30 6505 H 605.907 3.90006 -2.78267 0
M  V30 6506 H 604.271 2.12806 -1.39949 0
M  V30 6507 H 605.054 1.66113 -3.00436 0
M  V30 6508 N 607.499 1.09233 1.13605 0
M  V30 6509 C 608.447 0.724572 2.21027 0
M  V30 6510 C 609.441 -0.273595 1.67176 0
M  V30 6511 O 610.647 -0.135266 1.79491 0
M  V30 6512 H 607.022 0.216319 0.720215 0
M  V30 6513 H 608.993 1.63975 2.49309 0
M  V30 6514 C 607.742 0.159126 3.47336 0
M  V30 6515 H 607.065 0.918387 3.89109 0
M  V30 6516 H 608.505 -0.0602851 4.23957 0
M  V30 6517 C 606.964 -1.10514 3.18258 0
M  V30 6518 O 607.494 -2.18869 3.36837 0
M  V30 6519 N 605.7 -1.01886 2.72154 0
M  V30 6520 H 605.247 -0.137027 2.57235 0
M  V30 6521 H 605.205 -1.8655 2.53074 0
M  V30 6522 N 608.977 -1.30795 0.87923 0
M  V30 6523 C 609.91 -2.26396 0.286404 0
M  V30 6524 C 610.888 -1.51528 -0.589748 0
M  V30 6525 O 612.072 -1.80566 -0.541119 0
M  V30 6526 C 609.199 -3.33458 -0.593581 0
M  V30 6527 C 608.245 -4.2597 0.21247 0
M  V30 6528 S 609.078 -5.11132 1.59702 0
M  V30 6529 C 610.234 -6.21705 0.723408 0
M  V30 6530 H 610.467 -2.7633 1.09677 0
M  V30 6531 H 608 -1.38703 0.678305 0
M  V30 6532 H 609.958 -3.9561 -1.09557 0
M  V30 6533 H 608.619 -2.82259 -1.37799 0
M  V30 6534 H 607.812 -5.01907 -0.458822 0
M  V30 6535 H 607.414 -3.68363 0.646883 0
M  V30 6536 H 609.706 -6.77472 -0.0620739 0
M  V30 6537 H 610.649 -6.93007 1.4542 0
M  V30 6538 H 611.057 -5.63771 0.286855 0
M  V30 6539 N 610.455 -0.639598 -1.44038 0
M  V30 6540 C 611.402 0.0602458 -2.30721 0
M  V30 6541 C 612.372 0.828352 -1.43971 0
M  V30 6542 O 613.557 0.807693 -1.72861 0
M  V30 6543 C 610.697 1.03008 -3.29368 0
M  V30 6544 C 609.81 0.259502 -4.3122 0
M  V30 6545 C 608.945 1.22191 -5.16955 0
M  V30 6546 C 607.984 0.440978 -6.10509 0
M  V30 6547 N 607.121 1.35428 -6.88915 0
M  V30 6548 H 611.961 -0.684867 -2.90023 0
M  V30 6549 H 609.498 -0.349509 -1.42888 0
M  V30 6550 H 611.456 1.60583 -3.85057 0
M  V30 6551 H 610.086 1.74222 -2.71747 0
M  V30 6552 H 609.138 -0.432317 -3.77935 0
M  V30 6553 H 610.45 -0.348347 -4.97582 0
M  V30 6554 H 609.604 1.86873 -5.77203 0
M  V30 6555 H 608.343 1.86367 -4.50687 0
M  V30 6556 H 607.348 -0.219279 -5.49363 0
M  V30 6557 H 608.573 -0.196192 -6.78817 0
M  V30 6558 H 606.519 1.9831 -6.25307 0
M  V30 6559 H 606.436 0.800657 -7.51748 0
M  V30 6560 H 607.704 1.98967 -7.53679 0
M  V30 6561 N 611.933 1.52934 -0.380664 0
M  V30 6562 C 612.843 2.29921 0.466192 0
M  V30 6563 C 613.859 1.36488 1.07922 0
M  V30 6564 O 615.035 1.69553 1.0869 0
M  V30 6565 C 612.1 3.08468 1.58266 0
M  V30 6566 C 611.161 4.17595 0.995627 0
M  V30 6567 C 610.394 4.92387 2.05889 0
M  V30 6568 O 610.617 4.67184 3.27254 0
M  V30 6569 O 609.551 5.77949 1.68102 0
M  V30 6570 H 613.377 3.03274 -0.160735 0
M  V30 6571 H 610.962 1.48698 -0.144617 0
M  V30 6572 H 612.844 3.57469 2.23145 0
M  V30 6573 H 611.519 2.37937 2.19471 0
M  V30 6574 H 610.426 3.72811 0.310332 0
M  V30 6575 H 611.759 4.90336 0.427918 0
M  V30 6576 N 613.412 0.11024 1.57214 0
M  V30 6577 C 614.689 -0.592956 1.86396 0
M  V30 6578 C 615.069 -1.85379 1.00985 0
M  V30 6579 O 614.417 -2.28337 0.0863592 0
M  V30 6580 C 614.627 -0.893816 3.3736 0
M  V30 6581 C 615.975 -1.25069 4.05762 0
M  V30 6582 O 616.999 -0.984356 3.42329 0
M  V30 6583 O 615.858 -1.75017 5.17718 0
M  V30 6584 H 612.952 -0.29828 0.771335 0
M  V30 6585 H 615.498 0.144083 1.69087 0
M  V30 6586 H 614.27 2.6031e-05 3.913 0
M  V30 6587 H 613.893 -1.68631 3.60068 0
M  V30 6588 N 614.89 -1.56749 -0.16351 0
M  V30 6589 C 616.138 -1.82074 -0.87713 0
M  V30 6590 C 616.459 -0.688503 -1.82441 0
M  V30 6591 O 615.729 0.291085 -1.93725 0
M  V30 6592 H 614.309 -0.671677 -0.326893 0
M  V30 6593 H 616.971 -1.9423 -0.161459 0
M  V30 6594 H 616.067 -2.76407 -1.44934 0
M  V30 6595 N 616.368 0.432326 -1.51554 0
M  V30 6596 C 617.617 1.17831 -1.63703 0
M  V30 6597 C 617.93 1.92229 -0.36156 0
M  V30 6598 O 619.136 2.69069 -0.362495 0
M  V30 6599 C 617.592 2.14318 -2.89129 0
M  V30 6600 C 617.2 1.45544 -4.23699 0
M  V30 6601 C 618.944 2.89319 -3.10636 0
M  V30 6602 C 616.851 2.40545 -5.4027 0
M  V30 6603 H 615.781 0.443533 -0.60975 0
M  V30 6604 H 618.432 0.444878 -1.78026 0
M  V30 6605 H 616.814 2.91117 -2.68452 0
M  V30 6606 H 617.988 0.742693 -4.54775 0
M  V30 6607 H 616.303 0.826772 -4.0811 0
M  V30 6608 H 618.9 3.60495 -3.94902 0
M  V30 6609 H 619.243 3.50951 -2.23918 0
M  V30 6610 H 619.776 2.19625 -3.31677 0
M  V30 6611 H 616.515 1.83594 -6.29264 0
M  V30 6612 H 616.035 3.09859 -5.13563 0
M  V30 6613 H 617.714 3.01569 -5.72421 0
M  V30 6614 N 617.846 1.41785 0.688094 0
M  V30 6615 C 618.776 1.47 1.8142 0
M  V30 6616 C 619.757 0.327881 1.6691 0
M  V30 6617 O 620.942 0.540362 1.86531 0
M  V30 6618 C 618.072 1.35876 3.19617 0
M  V30 6619 C 617.026 2.47976 3.48844 0
M  V30 6620 C 616.352 2.21915 4.86475 0
M  V30 6621 C 617.652 3.90309 3.47068 0
M  V30 6622 H 619.346 2.41247 1.77314 0
M  V30 6623 H 616.892 1.16116 0.851651 0
M  V30 6624 H 618.845 1.38134 3.98117 0
M  V30 6625 H 617.569 0.38116 3.24368 0
M  V30 6626 H 616.228 2.45013 2.72698 0
M  V30 6627 H 615.876 1.2248 4.8786 0
M  V30 6628 H 615.576 2.97037 5.06994 0
M  V30 6629 H 617.1 2.25901 5.67275 0
M  V30 6630 H 618.514 3.94947 4.1556 0
M  V30 6631 H 616.911 4.65175 3.7912 0
M  V30 6632 H 617.981 4.17927 2.45896 0
M  V30 6633 N 619.324 -0.923095 1.27737 0
M  V30 6634 C 620.572 -1.66797 1.14119 0
M  V30 6635 C 620.893 -1.92479 -0.312541 0
M  V30 6636 O 620.163 -1.53432 -1.218 0
M  V30 6637 H 618.743 -0.618196 0.419336 0
M  V30 6638 H 621.405 -1.10815 1.60331 0
M  V30 6639 H 620.501 -2.63424 1.67374 0
M  V30 6640 N 620.802 -1.09834 -1.13024 0
M  V30 6641 C 622.213 -0.855651 -1.65938 0
M  V30 6642 C 622.564 0.615159 -1.86307 0
M  V30 6643 O 621.689 1.47335 -1.58497 0
M  V30 6644 C 622.284 -1.5467 -3.01434 0
M  V30 6645 C 620.843 -1.35088 -3.51323 0
M  V30 6646 C 619.99 -1.6001 -2.26478 0
M  V30 6647 H 622.941 -1.25691 -0.968889 0
M  V30 6648 H 622.962 -0.982179 -3.67605 0
M  V30 6649 H 622.474 -2.61715 -2.86578 0
M  V30 6650 H 620.575 -0.30179 -3.71376 0
M  V30 6651 H 620.688 -2.0886 -4.31178 0
M  V30 6652 H 619.052 -1.02246 -2.33276 0
M  V30 6653 H 619.835 -2.68293 -2.14182 0
M  V30 6654 N 622.28 1.30327 -0.886154 0
M  V30 6655 C 623.529 1.95373 -0.501243 0
M  V30 6656 C 623.842 1.70722 0.954634 0
M  V30 6657 O 625.048 2.29761 1.44644 0
M  V30 6658 C 623.504 3.49828 -0.845493 0
M  V30 6659 C 623.112 3.83296 -2.31922 0
M  V30 6660 C 624.856 4.2118 -0.529838 0
M  V30 6661 C 622.763 5.30935 -2.60504 0
M  V30 6662 H 621.693 0.731274 -0.183722 0
M  V30 6663 H 624.344 1.48258 -1.08129 0
M  V30 6664 H 622.726 3.95522 -0.19452 0
M  V30 6665 H 623.9 3.48508 -3.01461 0
M  V30 6666 H 622.215 3.2505 -2.60253 0
M  V30 6667 H 624.812 5.29825 -0.720401 0
M  V30 6668 H 625.155 4.12902 0.530828 0
M  V30 6669 H 625.688 3.81173 -1.13806 0
M  V30 6670 H 622.427 5.44265 -3.65316 0
M  V30 6671 H 621.947 5.67019 -1.95575 0
M  V30 6672 H 623.626 5.98381 -2.46066 0
M  V30 6673 N 623.758 0.647228 1.43697 0
M  V30 6674 C 625.007 0.155552 2.01099 0
M  V30 6675 C 625.32 -1.23569 1.51624 0
M  V30 6676 O 626.526 -1.82226 2.01261 0
M  V30 6677 C 624.982 0.227296 3.59182 0
M  V30 6678 C 624.59 1.62086 4.17651 0
M  V30 6679 C 626.334 -0.207085 4.23995 0
M  V30 6680 C 624.241 1.64685 5.68008 0
M  V30 6681 H 623.171 0.0543895 0.752036 0
M  V30 6682 H 625.822 0.808386 1.64734 0
M  V30 6683 H 624.204 -0.492937 3.9292 0
M  V30 6684 H 625.378 2.36597 3.95422 0
M  V30 6685 H 623.693 2.0007 3.65186 0
M  V30 6686 H 626.29 -0.207426 5.34298 0
M  V30 6687 H 626.633 -1.23742 3.97484 0
M  V30 6688 H 627.166 0.461193 3.95118 0
M  V30 6689 H 623.905 2.65608 5.99277 0
M  V30 6690 H 623.425 0.944914 5.9231 0
M  V30 6691 H 625.104 1.38792 6.31938 0
M  V30 6692 N 625.236 -1.5273 0.388769 0
M  V30 6693 C 626.652 -1.59553 0.0387049 0
M  V30 6694 C 626.852 -1.40278 -1.44652 0
M  V30 6695 O 625.908 -1.21951 -2.21098 0
M  V30 6696 C 627.221 -2.9625 0.515409 0
M  V30 6697 C 628.769 -3.09426 0.471621 0
M  V30 6698 C 629.244 -4.48572 0.924505 0
M  V30 6699 N 630.735 -4.54754 0.880496 0
M  V30 6700 C 631.47 -5.60653 1.20234 0
M  V30 6701 N 630.966 -6.74198 1.59463 0
M  V30 6702 N 632.759 -5.50755 1.12363 0
M  V30 6703 H 624.91 -1.63508 1.35569 0
M  V30 6704 H 627.173 -0.768097 0.555636 0
M  V30 6705 H 626.879 -3.15569 1.5527 0
M  V30 6706 H 626.753 -3.77102 -0.085792 0
M  V30 6707 H 629.14 -2.89804 -0.556588 0
M  V30 6708 H 629.221 -2.30528 1.10862 0
M  V30 6709 H 628.865 -4.68936 1.95094 0
M  V30 6710 H 628.795 -5.25935 0.264524 0
M  V30 6711 H 631.286 -3.73237 0.591815 0
M  V30 6712 H 631.599 -7.5097 1.82385 0
M  V30 6713 H 629.944 -6.75531 1.63349 0
M  V30 6714 H 633.135 -4.6093 0.816169 0
M  V30 6715 H 633.308 -6.33184 1.37777 0
M  V30 6716 N 626.714 -0.118576 -1.57153 0
M  V30 6717 C 627.677 0.817464 -2.14127 0
M  V30 6718 C 628.677 1.1949 -1.07604 0
M  V30 6719 O 629.867 1.12048 -1.33382 0
M  V30 6720 C 626.999 2.10541 -2.68115 0
M  V30 6721 H 628.192 0.322339 -2.98163 0
M  V30 6722 H 625.745 0.130655 -1.55753 0
M  V30 6723 H 626.48 2.64485 -1.87665 0
M  V30 6724 H 626.265 1.84425 -3.4602 0
M  V30 6725 H 627.755 2.77453 -3.12105 0
M  V30 6726 N 628.193 1.56834 0.155195 0
M  V30 6727 C 629.125 1.94235 1.21677 0
M  V30 6728 C 630.138 0.83724 1.39621 0
M  V30 6729 O 631.327 1.11567 1.39338 0
M  V30 6730 C 628.427 2.19402 2.58294 0
M  V30 6731 C 627.6 3.50671 2.61436 0
M  V30 6732 C 626.659 3.64475 3.79532 0
M  V30 6733 O 625.685 4.36945 3.64784 0
M  V30 6734 N 626.887 3.00526 4.96653 0
M  V30 6735 H 629.652 2.85901 0.898932 0
M  V30 6736 H 627.213 1.58185 0.34483 0
M  V30 6737 H 629.205 2.25886 3.35794 0
M  V30 6738 H 627.775 1.34042 2.82403 0
M  V30 6739 H 626.995 3.55702 1.69912 0
M  V30 6740 H 628.283 4.3702 2.60559 0
M  V30 6741 H 627.681 2.41549 5.11538 0
M  V30 6742 H 626.238 3.12583 5.71958 0
M  V30 6743 N 629.671 -0.424282 1.51781 0
M  V30 6744 C 630.917 -1.17434 1.6534 0
M  V30 6745 C 631.25 -1.90549 0.374806 0
M  V30 6746 O 630.525 -1.84145 -0.626179 0
M  V30 6747 C 630.808 -2.18093 2.86544 0
M  V30 6748 C 630.661 -1.48975 4.24413 0
M  V30 6749 C 631.98 -3.18934 3.03264 0
M  V30 6750 H 629.099 -0.425566 0.601716 0
M  V30 6751 H 631.741 -0.461921 1.84299 0
M  V30 6752 H 629.891 -2.78849 2.7051 0
M  V30 6753 H 631.563 -0.914551 4.52143 0
M  V30 6754 H 629.806 -0.791893 4.26511 0
M  V30 6755 H 630.477 -2.22347 5.05238 0
M  V30 6756 H 632.953 -2.68243 3.18096 0
M  V30 6757 H 631.829 -3.86645 3.89611 0
M  V30 6758 H 632.09 -3.85793 2.15908 0
M  V30 6759 N 631.149 -1.42148 -0.680565 0
M  V30 6760 C 632.565 -1.24947 -0.992995 0
M  V30 6761 C 632.765 -0.149527 -2.00944 0
M  V30 6762 O 631.821 0.481145 -2.47873 0
M  V30 6763 C 633.134 -2.60426 -1.5033 0
M  V30 6764 C 634.682 -2.67733 -1.62137 0
M  V30 6765 C 635.157 -4.03564 -2.16565 0
M  V30 6766 N 636.648 -4.05488 -2.23905 0
M  V30 6767 C 637.383 -5.07401 -2.67081 0
M  V30 6768 N 636.879 -6.19698 -3.09751 0
M  V30 6769 N 638.672 -4.94758 -2.66778 0
M  V30 6770 H 630.823 -2.12399 -0.0074788 0
M  V30 6771 H 633.086 -0.94571 -0.0658529 0
M  V30 6772 H 632.792 -3.41743 -0.830947 0
M  V30 6773 H 632.666 -2.83949 -2.483 0
M  V30 6774 H 635.053 -1.86765 -2.2848 0
M  V30 6775 H 635.134 -2.48004 -0.626713 0
M  V30 6776 H 634.778 -4.84987 -1.50833 0
M  V30 6777 H 634.708 -4.20641 -3.1681 0
M  V30 6778 H 637.199 -3.24415 -1.93812 0
M  V30 6779 H 637.512 -6.93318 -3.41365 0
M  V30 6780 H 635.857 -6.23212 -3.07623 0
M  V30 6781 H 639.048 -4.06105 -2.32801 0
M  V30 6782 H 639.221 -5.74317 -3.00107 0
M  V30 6783 N 632.627 0.916307 -1.28225 0
M  V30 6784 C 633.904 1.64429 -1.05936 0
M  V30 6785 C 634.284 2.07234 0.402139 0
M  V30 6786 O 633.632 1.81535 1.3877 0
M  V30 6787 C 633.842 2.83773 -2.03159 0
M  V30 6788 C 635.19 3.54852 -2.33164 0
M  V30 6789 O 636.214 2.93918 -2.01223 0
M  V30 6790 O 635.073 4.64663 -2.87664 0
M  V30 6791 H 632.167 0.721221 -0.404683 0
M  V30 6792 H 634.713 0.965838 -1.39534 0
M  V30 6793 H 633.485 2.49217 -3.01673 0
M  V30 6794 H 633.108 3.59333 -1.70192 0
M  V30 6795 N 634.105 1.10431 1.1244 0
M  V30 6796 C 635.333 0.868872 1.87772 0
M  V30 6797 C 635.748 -0.580645 1.7965 0
M  V30 6798 O 635.105 -1.40031 1.17036 0
M  V30 6799 C 635.156 1.30855 3.36986 0
M  V30 6800 O 634.877 2.70123 3.44914 0
M  V30 6801 C 636.378 1.107 4.29256 0
M  V30 6802 H 633.598 0.311868 0.59412 0
M  V30 6803 H 636.142 1.46897 1.42273 0
M  V30 6804 H 634.297 0.752126 3.80029 0
M  V30 6805 H 634.711 2.88923 4.37748 0
M  V30 6806 H 636.185 1.46378 5.32238 0
M  V30 6807 H 636.662 0.0456228 4.39176 0
M  V30 6808 H 637.268 1.64988 3.91994 0
M  V30 6809 N 635.583 -1.29855 0.893053 0
M  V30 6810 C 636.513 -2.3035 0.382249 0
M  V30 6811 C 637.494 -1.61328 -0.539203 0
M  V30 6812 O 638.679 -1.88882 -0.451342 0
M  V30 6813 C 635.809 -3.45024 -0.396983 0
M  V30 6814 C 634.763 -4.258 0.433437 0
M  V30 6815 C 634.089 -5.32605 -0.472889 0
M  V30 6816 C 635.389 -4.94549 1.67984 0
M  V30 6817 H 637.083 -2.73325 1.22205 0
M  V30 6818 H 634.629 -1.314 0.589073 0
M  V30 6819 H 636.582 -4.14398 -0.765024 0
M  V30 6820 H 635.306 -3.00875 -1.2705 0
M  V30 6821 H 633.965 -3.58125 0.783723 0
M  V30 6822 H 633.613 -4.84702 -1.34435 0
M  V30 6823 H 633.313 -5.87547 0.0789958 0
M  V30 6824 H 634.837 -6.04832 -0.837269 0
M  V30 6825 H 636.251 -5.56395 1.38192 0
M  V30 6826 H 634.648 -5.59393 2.17254 0
M  V30 6827 H 635.718 -4.20215 2.41965 0
M  V30 6828 N 637.061 -0.65484 -1.43351 0
M  V30 6829 C 638.008 0.0357713 -2.30772 0
M  V30 6830 C 638.978 0.813035 -1.44841 0
M  V30 6831 O 640.163 0.789314 -1.73708 0
M  V30 6832 C 637.303 0.995084 -3.30442 0
M  V30 6833 C 636.416 0.21375 -4.31471 0
M  V30 6834 C 635.551 1.16701 -5.18222 0
M  V30 6835 C 634.59 0.376201 -6.10943 0
M  V30 6836 N 633.727 1.28113 -6.90313 0
M  V30 6837 H 638.567 -0.71559 -2.89281 0
M  V30 6838 H 636.104 -0.364645 -1.42509 0
M  V30 6839 H 638.062 1.5649 -3.86739 0
M  V30 6840 H 636.692 1.7133 -2.7358 0
M  V30 6841 H 635.744 -0.472377 -3.77456 0
M  V30 6842 H 637.056 -0.401103 -4.97185 0
M  V30 6843 H 636.21 1.8074 -5.79153 0
M  V30 6844 H 634.949 1.81577 -4.52638 0
M  V30 6845 H 633.954 -0.277534 -5.49099 0
M  V30 6846 H 635.179 -0.268178 -6.7857 0
M  V30 6847 H 633.125 1.91666 -6.27376 0
M  V30 6848 H 633.042 0.720879 -7.52555 0
M  V30 6849 H 634.31 1.90962 -7.55747 0
M  V30 6850 N 638.539 1.52521 -0.396863 0
M  V30 6851 C 639.788 2.00857 0.184184 0
M  V30 6852 C 640.101 1.28733 1.47265 0
M  V30 6853 O 641.307 1.67821 2.13421 0
M  V30 6854 C 639.763 3.57901 0.378787 0
M  V30 6855 C 639.371 4.38931 -0.896873 0
M  V30 6856 C 641.115 4.14504 0.915789 0
M  V30 6857 C 639.022 5.87591 -0.670133 0
M  V30 6858 H 637.952 0.750496 0.0726055 0
M  V30 6859 H 640.603 1.75965 -0.520425 0
M  V30 6860 H 638.985 3.79072 1.14543 0
M  V30 6861 H 640.159 4.29524 -1.66872 0
M  V30 6862 H 638.474 3.93586 -1.35938 0
M  V30 6863 H 641.071 5.23236 1.10126 0
M  V30 6864 H 641.414 3.71076 1.88701 0
M  V30 6865 H 641.947 3.97253 0.208523 0
M  V30 6866 H 638.686 6.35355 -1.61257 0
M  V30 6867 H 638.206 5.99767 0.0626368 0
M  V30 6868 H 639.885 6.46268 -0.307577 0
M  V30 6869 N 640.017 0.126909 1.57088 0
M  V30 6870 C 641.263 -0.529952 1.95753 0
M  V30 6871 C 641.596 -1.65823 1.01077 0
M  V30 6872 O 640.871 -1.94437 0.0494162 0
M  V30 6873 C 641.154 -1.05517 3.44294 0
M  V30 6874 C 641.007 0.0702253 4.49745 0
M  V30 6875 C 642.326 -1.9435 3.94862 0
M  V30 6876 H 639.445 -0.191168 0.711775 0
M  V30 6877 H 642.087 0.204071 1.88901 0
M  V30 6878 H 640.237 -1.68069 3.50264 0
M  V30 6879 H 641.909 0.705834 4.55868 0
M  V30 6880 H 640.152 0.732259 4.27575 0
M  V30 6881 H 640.823 -0.338642 5.5096 0
M  V30 6882 H 643.299 -1.41658 3.91244 0
M  V30 6883 H 642.175 -2.28015 4.993 0
M  V30 6884 H 642.436 -2.87299 3.36024 0
M  V30 6885 N 641.495 -1.56914 -0.146875 0
M  V30 6886 C 642.742 -1.83356 -0.859467 0
M  V30 6887 C 643.07 -0.707811 -1.81164 0
M  V30 6888 O 642.325 0.303155 -1.93338 0
M  V30 6889 C 642.624 -3.16128 -1.66727 0
M  V30 6890 C 642.29 -4.42586 -0.861881 0
M  V30 6891 C 640.952 -4.76929 -0.639687 0
M  V30 6892 C 643.304 -5.20344 -0.298643 0
M  V30 6893 C 640.632 -5.86491 0.156451 0
M  V30 6894 C 642.984 -6.30742 0.484536 0
M  V30 6895 C 641.648 -6.63635 0.717306 0
M  V30 6896 H 640.918 -0.670947 -0.314501 0
M  V30 6897 H 643.565 -1.91104 -0.123108 0
M  V30 6898 H 641.87 -3.03831 -2.47374 0
M  V30 6899 H 643.567 -3.33802 -2.2221 0
M  V30 6900 H 640.157 -4.15662 -1.04513 0
M  V30 6901 H 644.341 -4.94186 -0.457585 0
M  V30 6902 H 639.597 -6.10419 0.346292 0
M  V30 6903 H 643.771 -6.90188 0.928105 0
M  V30 6904 H 641.398 -7.48367 1.33607 0
M  V30 6905 N 642.974 0.416227 -1.52004 0
M  V30 6906 C 643.921 1.50666 -1.74838 0
M  V30 6907 C 644.891 1.55245 -0.590599 0
M  V30 6908 O 646.076 1.71928 -0.827374 0
M  V30 6909 C 643.216 2.88185 -1.89851 0
M  V30 6910 C 642.329 2.92971 -3.17478 0
M  V30 6911 C 641.464 4.21745 -3.22962 0
M  V30 6912 C 640.503 4.20478 -4.4482 0
M  V30 6913 N 639.64 5.40811 -4.47736 0
M  V30 6914 H 644.48 1.30498 -2.67907 0
M  V30 6915 H 642.017 0.633568 -1.32757 0
M  V30 6916 H 643.975 3.68007 -1.96537 0
M  V30 6917 H 642.605 3.06865 -1.00169 0
M  V30 6918 H 641.657 2.05684 -3.19997 0
M  V30 6919 H 642.969 2.87899 -4.07328 0
M  V30 6920 H 642.123 5.09954 -3.28682 0
M  V30 6921 H 640.862 4.29503 -2.31038 0
M  V30 6922 H 639.867 3.30659 -4.39254 0
M  V30 6923 H 641.092 4.14366 -5.38031 0
M  V30 6924 H 639.038 5.4925 -3.58692 0
M  V30 6925 H 638.955 5.37705 -5.31422 0
M  V30 6926 H 640.223 6.30993 -4.57676 0
M  V30 6927 N 644.452 1.42507 0.673017 0
M  V30 6928 C 645.4 1.46362 1.80779 0
M  V30 6929 C 646.394 0.339166 1.6597 0
M  V30 6930 O 647.6 0.512262 1.72557 0
M  V30 6931 H 643.975 0.458433 0.596107 0
M  V30 6932 H 645.946 2.41953 1.74646 0
M  V30 6933 C 644.695 1.38462 3.18941 0
M  V30 6934 H 644.018 2.24283 3.30964 0
M  V30 6935 H 645.458 1.45221 3.98355 0
M  V30 6936 C 643.917 0.0996354 3.36753 0
M  V30 6937 O 644.447 -0.846894 3.92671 0
M  V30 6938 N 642.653 0.016211 2.90595 0
M  V30 6939 H 642.2 0.78725 2.45276 0
M  V30 6940 H 642.158 -0.84291 3.0289 0
M  V30 6941 N 645.93 -0.909495 1.28709 0
M  V30 6942 C 646.863 -2.01388 1.07323 0
M  V30 6943 C 647.841 -1.62596 -0.0119757 0
M  V30 6944 O 649.025 -1.88003 0.136796 0
M  V30 6945 C 646.152 -3.32755 0.631797 0
M  V30 6946 C 645.198 -3.90532 1.71428 0
M  V30 6947 S 646.031 -4.20853 3.31124 0
M  V30 6948 C 647.187 -5.55276 2.88825 0
M  V30 6949 H 647.42 -2.19219 2.00824 0
M  V30 6950 H 644.953 -1.05489 1.12745 0
M  V30 6951 H 646.911 -4.08702 0.38381 0
M  V30 6952 H 645.572 -3.12818 -0.283451 0
M  V30 6953 H 644.765 -4.85385 1.35712 0
M  V30 6954 H 644.367 -3.21237 1.91528 0
M  V30 6955 H 646.659 -6.35341 2.3526 0
M  V30 6956 H 647.602 -5.95907 3.82492 0
M  V30 6957 H 648.01 -5.16666 2.27412 0
M  V30 6958 N 647.408 -1.11026 -1.11852 0
M  V30 6959 C 648.371 -0.768006 -2.1595 0
M  V30 6960 C 649.371 0.210538 -1.59416 0
M  V30 6961 O 650.561 -0.0133978 -1.74195 0
M  V30 6962 C 647.693 -0.138678 -3.40618 0
M  V30 6963 H 648.886 -1.69012 -2.4774 0
M  V30 6964 H 646.439 -0.911578 -1.26964 0
M  V30 6965 H 647.174 0.793872 -3.14433 0
M  V30 6966 H 646.959 -0.843012 -3.8293 0
M  V30 6967 H 648.449 0.0848039 -4.17514 0
M  V30 6968 N 648.886 1.2938 -0.899927 0
M  V30 6969 C 650.111 2.00228 -0.540692 0
M  V30 6970 C 650.536 1.66909 0.867359 0
M  V30 6971 O 649.894 0.893824 1.57735 0
M  V30 6972 C 649.942 3.52921 -0.740232 0
M  V30 6973 O 649.046 4.11879 0.207154 0
M  V30 6974 H 648.387 0.629505 -0.211233 0
M  V30 6975 H 650.917 1.6487 -1.21158 0
M  V30 6976 H 650.927 4.0287 -0.644973 0
M  V30 6977 H 649.602 3.76508 -1.76677 0
M  V30 6978 H 648.179 3.72845 0.0643315 0
M  V30 6979 N 650.364 0.662433 1.43002 0
M  V30 6980 C 651.78 0.330835 1.56133 0
M  V30 6981 C 651.98 -1.16454 1.64441 0
M  V30 6982 O 651.036 -1.94964 1.60453 0
M  V30 6983 C 652.349 1.05029 2.81761 0
M  V30 6984 C 653.897 1.03142 2.95518 0
M  V30 6985 C 654.372 1.73196 4.2399 0
M  V30 6986 N 655.863 1.70004 4.30875 0
M  V30 6987 C 656.598 2.21074 5.29069 0
M  V30 6988 N 656.094 2.80473 6.33488 0
M  V30 6989 N 657.887 2.1152 5.20784 0
M  V30 6990 H 650.038 1.63272 1.35853 0
M  V30 6991 H 652.301 0.687149 0.653092 0
M  V30 6992 H 652.007 2.10542 2.81718 0
M  V30 6993 H 651.881 0.607664 3.72273 0
M  V30 6994 H 654.268 -0.0153339 2.95096 0
M  V30 6995 H 654.349 1.51282 2.0627 0
M  V30 6996 H 653.993 2.77833 4.25172 0
M  V30 6997 H 653.923 1.22515 5.1215 0
M  V30 6998 H 656.414 1.26667 3.56039 0
M  V30 6999 H 656.727 3.17094 7.04749 0
M  V30 7000 H 655.072 2.84538 6.34085 0
M  V30 7001 H 658.263 1.64814 4.38126 0
M  V30 7002 H 658.436 2.51629 5.97149 0
M  V30 7003 N 651.842 -1.52309 0.404946 0
M  V30 7004 C 653.253 -1.86585 -0.0655926 0
M  V30 7005 C 653.604 -1.3239 -1.44801 0
M  V30 7006 O 652.729 -0.6615 -2.06042 0
M  V30 7007 C 653.324 -3.38566 -0.125801 0
M  V30 7008 C 651.883 -3.72497 -0.540666 0
M  V30 7009 C 651.03 -2.75806 0.287487 0
M  V30 7010 H 653.981 -1.45995 0.622185 0
M  V30 7011 H 654.002 -3.68658 -0.941888 0
M  V30 7012 H 653.514 -3.77981 0.880473 0
M  V30 7013 H 651.615 -3.38659 -1.55373 0
M  V30 7014 H 651.728 -4.78234 -0.287956 0
M  V30 7015 H 650.092 -2.53474 -0.249561 0
M  V30 7016 H 650.875 -3.18059 1.29203 0
M  V30 7017 N 653.32 -0.135238 -1.57019 0
M  V30 7018 C 654.55 0.525303 -1.9981 0
M  V30 7019 C 654.958 1.59724 -1.01415 0
M  V30 7020 O 654.301 1.837 -0.00130938 0
M  V30 7021 C 654.363 1.19578 -3.3903 0
M  V30 7022 C 654.027 0.269855 -4.56203 0
M  V30 7023 C 655.024 -0.497905 -5.1751 0
M  V30 7024 C 652.709 0.176188 -5.01991 0
M  V30 7025 C 654.703 -1.3469 -6.23007 0
M  V30 7026 C 652.39 -0.676422 -6.07345 0
M  V30 7027 C 653.388 -1.43658 -6.67721 0
M  V30 7028 O 653.076 -2.27501 -7.71037 0
M  V30 7029 H 652.808 0.142296 -0.660854 0
M  V30 7030 H 655.362 -0.223272 -2.04183 0
M  V30 7031 H 653.592 1.99176 -3.3146 0
M  V30 7032 H 655.281 1.75486 -3.66005 0
M  V30 7033 H 656.047 -0.435507 -4.83041 0
M  V30 7034 H 651.926 0.757583 -4.54733 0
M  V30 7035 H 655.47 -1.9407 -6.70062 0
M  V30 7036 H 651.367 -0.740154 -6.41243 0
M  V30 7037 H 652.135 -2.20619 -7.88206 0
M  V30 7038 N 654.798 1.5699 0.138552 0
M  V30 7039 C 656.023 1.88344 0.86841 0
M  V30 7040 C 656.448 0.725159 1.7356 0
M  V30 7041 O 655.806 -0.324992 1.78363 0
M  V30 7042 C 655.854 3.18334 1.69398 0
M  V30 7043 O 654.958 3.02863 2.79907 0
M  V30 7044 H 654.299 0.618577 0.241367 0
M  V30 7045 H 656.829 2.04207 0.126826 0
M  V30 7046 H 656.839 3.50567 2.08726 0
M  V30 7047 H 655.514 4.02238 1.05725 0
M  V30 7048 H 654.091 2.82056 2.43924 0
M  V30 7049 N 656.276 -0.40816 1.52223 0
M  V30 7050 C 657.525 -1.15212 1.65557 0
M  V30 7051 C 657.838 -1.9163 0.392096 0
M  V30 7052 O 659.044 -2.68458 0.405256 0
M  V30 7053 C 657.5 -2.09691 2.92502 0
M  V30 7054 C 657.108 -1.38785 4.25961 0
M  V30 7055 C 658.852 -2.8434 3.152 0
M  V30 7056 C 656.759 -2.31919 5.44029 0
M  V30 7057 H 655.689 -0.433776 0.616729 0
M  V30 7058 H 658.34 -0.4165 1.78711 0
M  V30 7059 H 656.722 -2.8681 2.7305 0
M  V30 7060 H 657.896 -0.670248 4.55899 0
M  V30 7061 H 656.211 -0.761741 4.09373 0
M  V30 7062 H 658.808 -3.54166 4.00587 0
M  V30 7063 H 659.151 -3.47344 2.29473 0
M  V30 7064 H 659.684 -2.14321 3.35129 0
M  V30 7065 H 656.423 -1.7356 6.32105 0
M  V30 7066 H 655.943 -3.0165 5.18428 0
M  V30 7067 H 657.622 -2.92424 5.77146 0
M  V30 7068 N 657.755 -1.42862 -0.66545 0
M  V30 7069 C 658.985 -1.47032 -1.45138 0
M  V30 7070 C 659.393 -0.0829977 -1.89018 0
M  V30 7071 O 658.736 0.914551 -1.59316 0
M  V30 7072 C 658.798 -2.34302 -2.72659 0
M  V30 7073 C 658.462 -3.82034 -2.50796 0
M  V30 7074 C 659.459 -4.73453 -2.14799 0
M  V30 7075 C 657.144 -4.26397 -2.655 0
M  V30 7076 C 659.138 -6.07228 -1.93785 0
M  V30 7077 C 656.825 -5.6023 -2.44103 0
M  V30 7078 C 657.823 -6.50462 -2.08299 0
M  V30 7079 O 657.511 -7.8182 -1.87116 0
M  V30 7080 H 657.243 -0.501969 -0.452772 0
M  V30 7081 H 659.797 -1.88137 -0.82423 0
M  V30 7082 H 658.027 -1.88063 -3.37889 0
M  V30 7083 H 659.716 -2.29818 -3.34572 0
M  V30 7084 H 660.482 -4.4046 -2.03026 0
M  V30 7085 H 656.361 -3.56448 -2.92345 0
M  V30 7086 H 659.905 -6.7762 -1.65763 0
M  V30 7087 H 655.802 -5.92793 -2.55475 0
M  V30 7088 H 656.57 -7.93274 -2.01639 0
M  V30 7089 N 659.233 0.902656 -1.29189 0
M  V30 7090 C 660.644 1.46809 -1.15343 0
M  V30 7091 C 660.995 1.94568 0.252517 0
M  V30 7092 O 660.12 1.83454 1.14777 0
M  V30 7093 C 660.715 2.66829 -2.08776 0
M  V30 7094 C 659.274 3.19518 -1.98961 0
M  V30 7095 C 658.421 1.92212 -1.99874 0
M  V30 7096 H 661.372 0.714282 -1.41717 0
M  V30 7097 H 661.393 3.42465 -1.65826 0
M  V30 7098 H 660.905 2.32039 -3.11094 0
M  V30 7099 H 659.006 3.59008 -0.99721 0
M  V30 7100 H 659.119 3.84016 -2.86477 0
M  V30 7101 H 657.483 2.0979 -1.44431 0
M  V30 7102 H 658.266 1.59702 -3.03891 0
M  V30 7103 N 660.711 1.11618 1.11262 0
M  V30 7104 C 661.661 0.745274 2.15475 0
M  V30 7105 C 662.645 -0.251585 1.58921 0
M  V30 7106 O 663.837 -0.0584093 1.76904 0
M  V30 7107 C 660.966 0.192128 3.42762 0
M  V30 7108 C 660.052 1.21676 4.0627 0
M  V30 7109 N 660.443 2.41158 4.44608 0
M  V30 7110 C 658.741 1.06013 4.33217 0
M  V30 7111 C 659.442 3.0652 4.94389 0
M  V30 7112 N 658.418 2.33994 4.9066 0
M  V30 7113 H 662.22 1.65462 2.42898 0
M  V30 7114 H 659.734 0.995695 1.28295 0
M  V30 7115 H 661.731 -0.0917339 4.16799 0
M  V30 7116 H 660.391 -0.711778 3.16802 0
M  V30 7117 H 661.402 2.786 4.3658 0
M  V30 7118 H 658.079 0.212809 4.16957 0
M  V30 7119 H 659.469 4.08225 5.33669 0
M  V30 7120 N 662.189 -1.289 0.906776 0
M  V30 7121 C 663.437 -1.94883 0.535266 0
M  V30 7122 C 663.758 -1.71784 -0.922791 0
M  V30 7123 O 663.028 -1.05359 -1.65156 0
M  V30 7124 H 661.608 -0.721109 0.194962 0
M  V30 7125 H 664.27 -1.57018 1.15461 0
M  V30 7126 H 663.366 -3.03591 0.723821 0
M  V30 7127 N 663.667 -0.670007 -1.42649 0
M  V30 7128 C 664.913 -0.190568 -2.01903 0
M  V30 7129 C 665.246 1.19817 -1.52832 0
M  V30 7130 O 664.521 1.80342 -0.728485 0
M  V30 7131 C 664.804 -0.21991 -3.59428 0
M  V30 7132 C 664.657 -1.64376 -4.18689 0
M  V30 7133 C 665.976 0.434519 -4.3795 0
M  V30 7134 H 663.095 -0.0707219 -0.733599 0
M  V30 7135 H 665.737 -0.853883 -1.69732 0
M  V30 7136 H 663.887 0.344894 -3.86966 0
M  V30 7137 H 665.559 -2.26044 -4.02122 0
M  V30 7138 H 663.802 -2.18591 -3.747 0
M  V30 7139 H 664.473 -1.61601 -5.27815 0
M  V30 7140 H 666.949 -0.0462156 -4.16074 0
M  V30 7141 H 665.825 0.38333 -5.4756 0
M  V30 7142 H 666.086 1.51135 -4.15464 0
M  V30 7143 N 665.145 1.52092 -0.413018 0
M  V30 7144 C 666.373 2.06274 0.160881 0
M  V30 7145 C 666.788 1.28273 1.38533 0
M  V30 7146 O 666.145 0.33563 1.79387 0
M  V30 7147 C 666.196 3.57921 0.507443 0
M  V30 7148 O 665.917 4.32971 -0.668388 0
M  V30 7149 C 667.418 4.28533 1.13465 0
M  V30 7150 H 664.638 0.67074 0.0186759 0
M  V30 7151 H 667.182 1.95951 -0.585092 0
M  V30 7152 H 665.337 3.68238 1.20331 0
M  V30 7153 H 665.751 5.23135 -0.378169 0
M  V30 7154 H 667.225 5.35804 1.32732 0
M  V30 7155 H 667.702 3.85258 2.10886 0
M  V30 7156 H 668.308 4.22595 0.478876 0
M  V30 7157 N 666.623 0.143563 1.56945 0
M  V30 7158 C 667.87 -0.508407 1.96014 0
M  V30 7159 C 668.198 -1.65099 1.02824 0
M  V30 7160 O 667.453 -1.95618 0.0567764 0
M  V30 7161 C 667.752 -1.05885 3.41355 0
M  V30 7162 C 667.418 -0.0350809 4.50886 0
M  V30 7163 C 666.08 0.246362 4.80569 0
M  V30 7164 C 668.432 0.661282 5.16988 0
M  V30 7165 C 665.76 1.23003 5.73661 0
M  V30 7166 C 668.112 1.63375 6.11139 0
M  V30 7167 C 666.776 1.92292 6.39203 0
M  V30 7168 H 666.046 -0.186039 0.717266 0
M  V30 7169 H 668.693 0.229667 1.90118 0
M  V30 7170 H 666.998 -1.87419 3.44066 0
M  V30 7171 H 668.695 -1.57183 3.6891 0
M  V30 7172 H 665.285 -0.264622 4.27782 0
M  V30 7173 H 669.469 0.457038 4.94191 0
M  V30 7174 H 664.725 1.46056 5.93698 0
M  V30 7175 H 668.899 2.17887 6.61436 0
M  V30 7176 H 666.526 2.68666 7.11142 0
M  V30 7177 N 668.101 -1.57061 -0.130224 0
M  V30 7178 C 669.326 -1.88802 -0.858409 0
M  V30 7179 C 669.751 -0.734353 -1.73173 0
M  V30 7180 O 669.109 0.315529 -1.78533 0
M  V30 7181 C 669.157 -3.19228 -1.67708 0
M  V30 7182 O 668.261 -3.04343 -2.78297 0
M  V30 7183 H 667.602 -0.619849 -0.238083 0
M  V30 7184 H 670.132 -2.04271 -0.115995 0
M  V30 7185 H 670.142 -3.51669 -2.06864 0
M  V30 7186 H 668.817 -4.02793 -1.0359 0
M  V30 7187 H 667.394 -2.83346 -2.42425 0
M  V30 7188 N 669.579 0.400081 -1.52437 0
M  V30 7189 C 670.99 0.97851 -1.59003 0
M  V30 7190 C 671.341 1.91293 -0.436068 0
M  V30 7191 O 670.466 2.1183 0.442365 0
M  V30 7192 C 671.061 1.78145 -2.88184 0
M  V30 7193 C 669.62 2.30976 -2.97199 0
M  V30 7194 C 668.767 1.11212 -2.54022 0
M  V30 7195 H 671.718 0.180002 -1.57676 0
M  V30 7196 H 671.739 2.63968 -2.74046 0
M  V30 7197 H 671.251 1.1011 -3.72152 0
M  V30 7198 H 669.352 3.02355 -2.17744 0
M  V30 7199 H 669.465 2.61221 -4.01622 0
M  V30 7200 H 667.829 1.46882 -2.08081 0
M  V30 7201 H 668.612 0.447307 -3.40373 0
M  V30 7202 N 671.057 1.43213 0.657864 0
M  V30 7203 C 672.287 1.478 1.44356 0
M  V30 7204 C 672.695 0.0930206 1.88971 0
M  V30 7205 O 672.038 -0.906089 1.59799 0
M  V30 7206 C 672.1 2.35745 2.71412 0
M  V30 7207 C 671.764 3.83359 2.48767 0
M  V30 7208 C 672.761 4.74585 2.12285 0
M  V30 7209 C 670.446 4.27799 2.63235 0
M  V30 7210 C 672.44 6.08247 1.90562 0
M  V30 7211 C 670.127 5.61516 2.41128 0
M  V30 7212 C 671.125 6.51557 2.04847 0
M  V30 7213 O 670.813 7.82802 1.82967 0
M  V30 7214 H 670.545 0.504363 0.450104 0
M  V30 7215 H 673.099 1.88572 0.814241 0
M  V30 7216 H 671.329 1.89852 3.36887 0
M  V30 7217 H 673.018 2.31589 3.33348 0
M  V30 7218 H 673.784 4.41531 2.00687 0
M  V30 7219 H 669.663 3.57993 2.90451 0
M  V30 7220 H 673.207 6.78489 1.62168 0
M  V30 7221 H 669.104 5.94139 2.52327 0
M  V30 7222 H 669.872 7.94332 1.97429 0
M  V30 7223 N 672.536 -0.895792 1.29666 0
M  V30 7224 C 673.446 -2.03329 1.17024 0
M  V30 7225 C 674.462 -1.73753 0.0925962 0
M  V30 7226 O 675.638 -1.99071 0.305431 0
M  V30 7227 C 672.703 -3.36072 0.851841 0
M  V30 7228 C 671.764 -3.7914 2.01373 0
M  V30 7229 C 670.997 -5.05549 1.71043 0
M  V30 7230 O 671.22 -5.66874 0.633213 0
M  V30 7231 O 670.154 -5.44764 2.5596 0
M  V30 7232 H 673.98 -2.16918 2.12556 0
M  V30 7233 H 671.565 -1.02007 1.09156 0
M  V30 7234 H 673.447 -4.15729 0.689006 0
M  V30 7235 H 672.122 -3.23616 -0.0736634 0
M  V30 7236 H 671.029 -3.00233 2.23183 0
M  V30 7237 H 672.362 -3.96186 2.92058 0
M  V30 7238 N 674.014 -1.12206 -1.10668 0
M  V30 7239 C 675.291 -0.787382 -1.79052 0
M  V30 7240 C 675.671 0.723267 -1.98323 0
M  V30 7241 O 675.019 1.6561 -1.57434 0
M  V30 7242 C 675.229 -1.55968 -3.1221 0
M  V30 7243 C 676.577 -1.74413 -3.87125 0
M  V30 7244 O 677.601 -1.5246 -3.21923 0
M  V30 7245 O 676.46 -2.10952 -5.04144 0
M  V30 7246 H 673.554 -0.286137 -0.775922 0
M  V30 7247 H 676.1 -1.22595 -1.1734 0
M  V30 7248 H 674.872 -2.58692 -2.93588 0
M  V30 7249 H 674.495 -1.1152 -3.8164 0
M  V30 7250 N 675.492 1.28418 -0.913599 0
M  V30 7251 C 676.402 2.31043 -0.406965 0
M  V30 7252 C 677.418 1.66501 0.505298 0
M  V30 7253 O 678.594 1.97558 0.391522 0
M  V30 7254 C 675.659 3.4498 0.344901 0
M  V30 7255 C 674.72 4.25078 -0.600563 0
M  V30 7256 C 673.953 5.33575 0.115516 0
M  V30 7257 O 674.176 5.54503 1.33727 0
M  V30 7258 O 673.11 5.9939 -0.549095 0
M  V30 7259 H 676.936 2.76387 -1.25873 0
M  V30 7260 H 674.521 1.33109 -0.678415 0
M  V30 7261 H 676.403 4.14314 0.769542 0
M  V30 7262 H 675.078 3.01719 1.1725 0
M  V30 7263 H 673.985 3.58334 -1.0746 0
M  V30 7264 H 675.318 4.72018 -1.39497 0
M  V30 7265 N 676.97 0.677563 1.42291 0
M  V30 7266 C 678.216 0.201272 2.01799 0
M  V30 7267 C 678.549 -1.19004 1.53465 0
M  V30 7268 O 677.824 -1.79953 0.738039 0
M  V30 7269 C 678.107 0.238968 3.59306 0
M  V30 7270 C 677.96 1.66594 4.17812 0
M  V30 7271 C 679.279 -0.411287 4.38174 0
M  V30 7272 H 676.398 0.0746114 0.733214 0
M  V30 7273 H 679.04 0.862872 1.69276 0
M  V30 7274 H 677.19 -0.324368 3.87144 0
M  V30 7275 H 678.862 2.28173 4.00917 0
M  V30 7276 H 677.105 2.20576 3.73536 0
M  V30 7277 H 677.776 1.64398 5.26951 0
M  V30 7278 H 680.252 0.0682804 4.16044 0
M  V30 7279 H 679.128 -0.354286 5.47755 0
M  V30 7280 H 679.389 -1.4893 4.1626 0
M  V30 7281 N 678.448 -1.51871 0.421078 0
M  V30 7282 C 679.396 -2.28903 -0.413066 0
M  V30 7283 C 680.39 -1.3408 -1.03532 0
M  V30 7284 O 681.596 -1.5149 -0.972146 0
M  V30 7285 H 677.971 -0.736478 -0.152003 0
M  V30 7286 H 679.942 -2.97285 0.257695 0
M  V30 7287 C 678.691 -3.13156 -1.51091 0
M  V30 7288 H 678.014 -3.85997 -1.04145 0
M  V30 7289 H 679.454 -3.7014 -2.06814 0
M  V30 7290 C 677.913 -2.27482 -2.48503 0
M  V30 7291 O 678.443 -1.92325 -3.52667 0
M  V30 7292 N 676.649 -1.91019 -2.18998 0
M  V30 7293 H 676.196 -2.19808 -1.34322 0
M  V30 7294 H 676.154 -1.3399 -2.84419 0
M  V30 7295 N 679.926 -0.151884 -1.56866 0
M  V30 7296 C 681.151 0.508044 -2.01081 0
M  V30 7297 C 681.576 1.57306 -1.03134 0
M  V30 7298 O 680.934 1.81298 -0.0078309 0
M  V30 7299 C 680.982 1.08106 -3.44014 0
M  V30 7300 O 680.086 2.19577 -3.49084 0
M  V30 7301 H 679.427 0.123757 -0.652365 0
M  V30 7302 H 681.957 -0.250055 -2.03066 0
M  V30 7303 H 681.967 1.40851 -3.82916 0
M  V30 7304 H 680.642 0.301168 -4.14808 0
M  V30 7305 H 679.219 1.88023 -3.22027 0
M  V30 7306 N 681.404 1.57128 0.121893 0
M  V30 7307 C 682.629 1.89254 0.848385 0
M  V30 7308 C 683.054 0.743527 1.72781 0
M  V30 7309 O 682.412 -0.306056 1.78698 0
M  V30 7310 C 682.46 3.20113 1.66012 0
M  V30 7311 O 681.564 3.05815 2.76679 0
M  V30 7312 H 680.905 0.621103 0.234793 0
M  V30 7313 H 683.435 2.0433 0.10516 0
M  V30 7314 H 683.445 3.52761 2.04996 0
M  V30 7315 H 682.12 4.03336 1.01452 0
M  V30 7316 H 680.697 2.84627 2.40918 0
M  V30 7317 N 682.882 -0.391992 1.52647 0
M  V30 7318 C 684.129 -1.13732 1.67545 0
M  V30 7319 C 684.457 -1.90045 0.413881 0
M  V30 7320 O 683.712 -1.86157 -0.603646 0
M  V30 7321 C 684.011 -2.14401 2.85949 0
M  V30 7322 C 683.677 -1.54767 4.23507 0
M  V30 7323 C 682.339 -1.38229 4.60919 0
M  V30 7324 C 684.691 -1.11382 5.0916 0
M  V30 7325 C 682.019 -0.7685 5.81645 0
M  V30 7326 C 684.371 -0.514143 6.30507 0
M  V30 7327 C 683.035 -0.33604 6.66654 0
M  V30 7328 H 682.305 -0.416174 0.613091 0
M  V30 7329 H 684.952 -0.422327 1.86785 0
M  V30 7330 H 683.257 -2.92108 2.61114 0
M  V30 7331 H 684.954 -2.71974 2.94671 0
M  V30 7332 H 681.544 -1.68626 3.94035 0
M  V30 7333 H 685.728 -1.22962 4.80826 0
M  V30 7334 H 680.984 -0.618681 6.08262 0
M  V30 7335 H 685.158 -0.169657 6.96193 0
M  V30 7336 H 682.785 0.14166 7.60068 0
M  V30 7337 N 684.36 -1.4356 -0.65026 0
M  V30 7338 C 685.588 -1.48779 -1.43779 0
M  V30 7339 C 686.003 -0.106593 -1.88499 0
M  V30 7340 O 685.36 0.883766 -1.59674 0
M  V30 7341 C 685.411 -2.43618 -2.67081 0
M  V30 7342 O 685.132 -3.76367 -2.24231 0
M  V30 7343 C 686.633 -2.5811 -3.60409 0
M  V30 7344 H 683.853 -0.50521 -0.441593 0
M  V30 7345 H 686.397 -1.88332 -0.796941 0
M  V30 7346 H 684.552 -2.07253 -3.273 0
M  V30 7347 H 684.966 -4.27394 -3.0403 0
M  V30 7348 H 686.44 -3.28539 -4.43583 0
M  V30 7349 H 686.917 -1.627 -4.07953 0
M  V30 7350 H 687.523 -2.95298 -3.0607 0
M  V30 7351 N 685.838 0.888903 -1.30139 0
M  V30 7352 C 687.063 1.67884 -1.21777 0
M  V30 7353 C 687.488 1.86848 0.216689 0
M  V30 7354 O 686.846 1.39659 1.15608 0
M  V30 7355 C 686.894 3.03483 -1.94757 0
M  V30 7356 O 685.998 3.92294 -1.27198 0
M  V30 7357 H 685.339 0.513144 -0.421402 0
M  V30 7358 H 687.869 1.10968 -1.71893 0
M  V30 7359 H 687.879 3.53553 -2.03627 0
M  V30 7360 H 686.554 2.89 -2.99085 0
M  V30 7361 H 685.131 3.50732 -1.26655 0
M  V30 7362 N 687.317 1.12792 1.10072 0
M  V30 7363 C 688.565 0.883796 1.81751 0
M  V30 7364 C 688.886 -0.591891 1.858 0
M  V30 7365 O 688.156 -1.43017 1.33876 0
M  V30 7366 H 686.736 0.323978 0.673088 0
M  V30 7367 H 689.398 1.42314 1.33164 0
M  V30 7368 H 688.494 1.26863 2.85153 0
M  V30 7369 N 688.795 -1.27931 0.920396 0
M  V30 7370 C 690.211 -1.47085 0.619537 0
M  V30 7371 C 690.411 -1.83463 -0.833291 0
M  V30 7372 O 689.467 -1.94363 -1.61181 0
M  V30 7373 C 690.78 -2.56878 1.56314 0
M  V30 7374 C 692.328 -2.70743 1.57058 0
M  V30 7375 C 692.803 -3.83687 2.50097 0
M  V30 7376 N 694.294 -3.9105 2.48262 0
M  V30 7377 C 695.029 -4.77842 3.16945 0
M  V30 7378 N 694.525 -5.69176 3.94982 0
M  V30 7379 N 696.318 -4.71509 3.06 0
M  V30 7380 H 688.469 -1.02601 1.85975 0
M  V30 7381 H 690.732 -0.511682 0.798051 0
M  V30 7382 H 690.438 -2.36923 2.59923 0
M  V30 7383 H 690.312 -3.54117 1.29928 0
M  V30 7384 H 692.699 -2.90083 0.541832 0
M  V30 7385 H 692.78 -1.74015 1.8749 0
M  V30 7386 H 692.424 -3.65101 3.53077 0
M  V30 7387 H 692.354 -4.79827 2.16964 0
M  V30 7388 H 694.845 -3.25738 1.91581 0
M  V30 7389 H 695.158 -6.32245 4.44394 0
M  V30 7390 H 693.503 -5.68995 3.99086 0
M  V30 7391 H 696.694 -3.99151 2.44533 0
M  V30 7392 H 696.867 -5.38933 3.59799 0
M  V30 7393 N 690.273 -0.685099 -1.4193 0
M  V30 7394 C 691.221 -0.00165985 -2.326 0
M  V30 7395 C 692.215 0.779678 -1.50391 0
M  V30 7396 O 693.421 0.68648 -1.66395 0
M  V30 7397 H 689.796 0.0182616 -0.751778 0
M  V30 7398 H 691.767 -0.783592 -2.87928 0
M  V30 7399 C 690.516 0.928385 -3.35077 0
M  V30 7400 H 689.839 0.336578 -3.98381 0
M  V30 7401 H 691.279 1.37509 -4.01083 0
M  V30 7402 C 689.738 2.03964 -2.68142 0
M  V30 7403 O 690.268 3.12727 -2.5212 0
M  V30 7404 N 688.474 1.81433 -2.27003 0
M  V30 7405 H 688.021 0.929807 -2.40234 0
M  V30 7406 H 687.979 2.55973 -1.82552 0
M  V30 7407 N 691.751 1.51645 -0.429126 0
M  V30 7408 C 692.699 2.29119 0.400921 0
M  V30 7409 C 693.693 1.34628 1.02819 0
M  V30 7410 O 694.899 1.52004 0.964098 0
M  V30 7411 H 691.274 0.737273 0.148095 0
M  V30 7412 H 693.245 2.97144 -0.273457 0
M  V30 7413 C 691.994 3.13953 1.49429 0
M  V30 7414 H 691.317 3.86544 1.02097 0
M  V30 7415 H 692.757 3.71232 2.04849 0
M  V30 7416 C 691.216 2.28796 2.47293 0
M  V30 7417 O 691.746 1.94193 3.51642 0
M  V30 7418 N 689.952 1.92177 2.17982 0
M  V30 7419 H 689.499 2.20517 1.33154 0
M  V30 7420 H 689.457 1.35497 2.83704 0
M  V30 7421 N 693.229 0.160201 1.56784 0
M  V30 7422 C 694.457 -0.494165 2.00912 0
M  V30 7423 C 694.872 -1.57548 1.04038 0
M  V30 7424 O 694.229 -1.82457 0.0394581 0
M  V30 7425 C 694.28 -1.08271 3.44905 0
M  V30 7426 O 694.001 -0.0445704 4.38077 0
M  V30 7427 C 695.502 -1.8164 4.04378 0
M  V30 7428 H 692.722 -0.127498 0.658776 0
M  V30 7429 H 695.266 0.258665 2.02858 0
M  V30 7430 H 693.421 -1.78609 3.4377 0
M  V30 7431 H 693.835 -0.477544 5.22322 0
M  V30 7432 H 695.309 -2.18094 5.07089 0
M  V30 7433 H 695.786 -2.70727 3.45838 0
M  V30 7434 H 696.392 -1.15969 4.09184 0
M  V30 7435 N 694.707 -1.5719 -0.113559 0
M  V30 7436 C 695.64 -1.9595 -1.16957 0
M  V30 7437 C 696.618 -0.829951 -1.39823 0
M  V30 7438 O 697.802 -1.08861 -1.53888 0
M  V30 7439 C 694.929 -2.2604 -2.52237 0
M  V30 7440 C 693.975 -3.48571 -2.45765 0
M  V30 7441 S 694.808 -5.00962 -1.89203 0
M  V30 7442 C 695.964 -5.3421 -3.26145 0
M  V30 7443 H 696.197 -2.85214 -0.839069 0
M  V30 7444 H 693.73 -1.51036 -0.320529 0
M  V30 7445 H 695.688 -2.44054 -3.30073 0
M  V30 7446 H 694.349 -1.3738 -2.82463 0
M  V30 7447 H 693.542 -3.67008 -3.45429 0
M  V30 7448 H 693.144 -3.29972 -1.76053 0
M  V30 7449 H 695.436 -5.29725 -4.22371 0
M  V30 7450 H 696.379 -6.35398 -3.12529 0
M  V30 7451 H 696.787 -4.61681 -3.24825 0
M  V30 7452 N 696.185 0.383891 -1.52853 0
M  V30 7453 C 697.434 1.12563 -1.67369 0
M  V30 7454 C 697.747 1.90982 -0.422533 0
M  V30 7455 O 698.953 2.6778 -0.447914 0
M  V30 7456 C 697.409 2.05011 -2.95801 0
M  V30 7457 C 697.017 1.31991 -4.28115 0
M  V30 7458 C 698.761 2.79289 -3.19684 0
M  V30 7459 C 696.668 2.23235 -5.4765 0
M  V30 7460 H 695.598 0.42391 -0.623552 0
M  V30 7461 H 698.249 0.388016 -1.79351 0
M  V30 7462 H 696.631 2.82429 -2.77578 0
M  V30 7463 H 697.805 0.597633 -4.56908 0
M  V30 7464 H 696.12 0.696517 -4.10533 0
M  V30 7465 H 698.717 3.47749 -4.06171 0
M  V30 7466 H 699.06 3.43649 -2.3497 0
M  V30 7467 H 699.593 2.08962 -3.38496 0
M  V30 7468 H 696.332 1.63482 -6.34786 0
M  V30 7469 H 695.852 2.93364 -5.23161 0
M  V30 7470 H 697.531 2.83205 -5.81725 0
M  V30 7471 N 697.663 1.43903 0.642637 0
M  V30 7472 C 699.079 1.27536 0.959519 0
M  V30 7473 C 699.279 0.202751 2.00477 0
M  V30 7474 O 698.335 -0.415256 2.49062 0
M  V30 7475 C 699.648 2.6432 1.43372 0
M  V30 7476 C 701.196 2.71937 1.54981 0
M  V30 7477 C 701.671 4.09164 2.05789 0
M  V30 7478 N 703.162 4.11282 2.13076 0
M  V30 7479 C 703.897 5.14303 2.53534 0
M  V30 7480 N 703.393 6.27693 2.93212 0
M  V30 7481 N 705.186 5.01657 2.53567 0
M  V30 7482 H 697.337 2.12344 -0.0488376 0
M  V30 7483 H 699.6 0.947124 0.0407559 0
M  V30 7484 H 699.306 3.43826 0.740048 0
M  V30 7485 H 699.18 2.90432 2.40685 0
M  V30 7486 H 701.567 1.92757 2.23448 0
M  V30 7487 H 701.648 2.49578 0.560739 0
M  V30 7488 H 701.292 4.88815 1.37921 0
M  V30 7489 H 701.222 4.28893 3.05546 0
M  V30 7490 H 703.713 3.2944 1.85143 0
M  V30 7491 H 704.026 7.02125 3.22863 0
M  V30 7492 H 702.371 6.31149 2.90991 0
M  V30 7493 H 705.562 4.12134 2.21952 0
M  V30 7494 H 705.735 5.82072 2.84774 0
M  V30 7495 N 699.141 -0.881989 1.30609 0
M  V30 7496 C 700.104 -1.96957 1.1722 0
M  V30 7497 C 701.104 -1.60472 0.102598 0
M  V30 7498 O 702.294 -1.70628 0.350943 0
M  V30 7499 C 699.426 -3.31463 0.796572 0
M  V30 7500 H 700.619 -2.10262 2.13846 0
M  V30 7501 H 698.172 -1.06877 1.14048 0
M  V30 7502 H 698.907 -3.23859 -0.169053 0
M  V30 7503 H 698.692 -3.59314 1.56959 0
M  V30 7504 H 700.182 -4.11233 0.72645 0
M  V30 7505 N 700.619 -1.13374 -1.09472 0
M  V30 7506 C 701.865 -0.896516 -1.81908 0
M  V30 7507 C 702.198 0.575933 -1.85463 0
M  V30 7508 O 701.473 1.42618 -1.32251 0
M  V30 7509 C 701.756 -1.48445 -3.28079 0
M  V30 7510 C 701.609 -3.02598 -3.32798 0
M  V30 7511 C 702.928 -1.15226 -4.24748 0
M  V30 7512 H 700.047 -0.327127 -0.660422 0
M  V30 7513 H 702.689 -1.40195 -1.2824 0
M  V30 7514 H 700.839 -1.0546 -3.73912 0
M  V30 7515 H 702.511 -3.54335 -2.95372 0
M  V30 7516 H 700.754 -3.37613 -2.72397 0
M  V30 7517 H 701.425 -3.38835 -4.3577 0
M  V30 7518 H 703.901 -1.52369 -3.87199 0
M  V30 7519 H 702.777 -1.59012 -5.25363 0
M  V30 7520 H 703.038 -0.0658891 -4.42051 0
M  V30 7521 N 702.098 1.27442 -0.927168 0
M  V30 7522 C 703.03 2.25975 -0.383158 0
M  V30 7523 C 704.043 1.55382 0.485832 0
M  V30 7524 O 705.232 1.75986 0.298541 0
M  V30 7525 C 702.332 3.35629 0.469688 0
M  V30 7526 C 701.505 4.35747 -0.379886 0
M  V30 7527 C 700.564 5.24598 0.410227 0
M  V30 7528 O 699.59 5.68909 -0.181888 0
M  V30 7529 N 700.792 5.54737 1.71017 0
M  V30 7530 H 703.557 2.7329 -1.23015 0
M  V30 7531 H 701.118 1.41063 -0.794539 0
M  V30 7532 H 703.11 3.92015 1.00532 0
M  V30 7533 H 701.68 2.87919 1.21744 0
M  V30 7534 H 700.9 3.78634 -1.09682 0
M  V30 7535 H 702.188 4.99648 -0.960717 0
M  V30 7536 H 701.586 5.20594 2.21356 0
M  V30 7537 H 700.143 6.13824 2.19234 0
M  V30 7538 N 703.576 0.692616 1.41565 0
M  V30 7539 C 704.987 0.297478 1.84315 0
M  V30 7540 C 705.338 -1.16379 1.57957 0
M  V30 7541 O 704.463 -1.89303 1.0485 0
M  V30 7542 C 705.058 0.533136 3.34579 0
M  V30 7543 C 703.617 0.191944 3.7591 0
M  V30 7544 C 702.764 0.816873 2.64995 0
M  V30 7545 H 705.715 0.893488 1.31158 0
M  V30 7546 H 705.736 -0.209105 3.79925 0
M  V30 7547 H 705.248 1.59674 3.53731 0
M  V30 7548 H 703.349 -0.867512 3.6236 0
M  V30 7549 H 703.462 0.644902 4.7474 0
M  V30 7550 H 701.826 0.246715 2.53502 0
M  V30 7551 H 702.609 1.88429 2.86966 0
M  V30 7552 N 705.054 -1.51416 0.437162 0
M  V30 7553 C 706.302 -2.01687 -0.129108 0
M  V30 7554 C 706.623 -1.32329 -1.43227 0
M  V30 7555 O 705.893 -0.457796 -1.90476 0
M  V30 7556 H 704.473 -0.745277 -0.0507023 0
M  V30 7557 H 707.135 -1.86075 0.579828 0
M  V30 7558 H 706.231 -3.10605 -0.305141 0
M  V30 7559 N 706.532 -0.168513 -1.56696 0
M  V30 7560 C 707.442 0.775435 -2.21414 0
M  V30 7561 C 708.458 1.25529 -1.20492 0
M  V30 7562 O 709.634 1.30801 -1.53144 0
M  V30 7563 C 706.699 1.9886 -2.83999 0
M  V30 7564 C 705.76 1.5559 -4.00113 0
M  V30 7565 C 704.993 2.71124 -4.59704 0
M  V30 7566 O 705.216 3.87917 -4.18182 0
M  V30 7567 O 704.15 2.4536 -5.4962 0
M  V30 7568 H 707.976 0.254416 -3.02632 0
M  V30 7569 H 705.561 0.0595507 -1.49281 0
M  V30 7570 H 707.443 2.69816 -3.23693 0
M  V30 7571 H 706.118 2.49874 -2.05779 0
M  V30 7572 H 705.025 0.815924 -3.65094 0
M  V30 7573 H 706.358 1.09271 -4.79917 0
M  V30 7574 N 708.01 1.57248 0.105221 0
M  V30 7575 C 709.238 1.89768 0.82437 0
M  V30 7576 C 709.653 0.761192 1.72775 0
M  V30 7577 O 709.01 -0.267342 1.80531 0
M  V30 7578 C 709.061 3.2184 1.64625 0
M  V30 7579 O 708.782 4.31115 0.779217 0
M  V30 7580 C 710.283 3.68155 2.46935 0
M  V30 7581 H 707.503 0.628031 0.236259 0
M  V30 7582 H 710.047 2.04321 0.085485 0
M  V30 7583 H 708.202 3.08915 2.33775 0
M  V30 7584 H 708.616 5.06897 1.34745 0
M  V30 7585 H 710.09 4.6329 3.00111 0
M  V30 7586 H 710.567 2.95492 3.24932 0
M  V30 7587 H 711.173 3.83914 1.83002 0
M  V30 7588 N 709.488 -0.375779 1.53054 0
M  V30 7589 C 710.718 -1.1387 1.72386 0
M  V30 7590 C 711.126 -1.8382 0.447966 0
M  V30 7591 O 710.469 -1.74027 -0.588244 0
M  V30 7592 C 710.531 -2.22047 2.82728 0
M  V30 7593 C 710.195 -1.71951 4.23417 0
M  V30 7594 C 711.192 -1.18909 5.06119 0
M  V30 7595 C 708.877 -1.77773 4.69789 0
M  V30 7596 C 710.871 -0.723529 6.3328 0
M  V30 7597 C 708.558 -1.30829 5.96931 0
M  V30 7598 C 709.556 -0.782077 6.78508 0
M  V30 7599 O 709.244 -0.319529 8.03265 0
M  V30 7600 H 708.976 -0.346835 0.580242 0
M  V30 7601 H 711.53 -0.443748 2.00549 0
M  V30 7602 H 709.76 -2.95006 2.50017 0
M  V30 7603 H 711.449 -2.83654 2.90336 0
M  V30 7604 H 712.215 -1.13758 4.7147 0
M  V30 7605 H 708.094 -2.17673 4.06373 0
M  V30 7606 H 711.638 -0.312126 6.96901 0
M  V30 7607 H 707.535 -1.3567 6.31081 0
M  V30 7608 H 708.303 -0.439796 8.17318 0
M  V30 7609 N 710.966 -1.44241 -0.634997 0
M  V30 7610 C 712.194 -1.50296 -1.42193 0
M  V30 7611 C 712.609 -0.12658 -1.88375 0
M  V30 7612 O 711.966 0.86678 -1.60603 0
M  V30 7613 C 712.017 -2.46437 -2.64482 0
M  V30 7614 O 711.738 -3.78724 -2.20226 0
M  V30 7615 C 713.239 -2.61918 -3.57651 0
M  V30 7616 H 710.459 -0.509865 -0.43621 0
M  V30 7617 H 713.003 -1.89167 -0.776921 0
M  V30 7618 H 711.158 -2.10712 -3.25083 0
M  V30 7619 H 711.572 -4.30595 -2.9948 0
M  V30 7620 H 713.046 -3.33225 -4.40074 0
M  V30 7621 H 713.523 -1.67017 -4.06204 0
M  V30 7622 H 714.129 -2.98528 -3.02921 0
M  V30 7623 N 712.444 0.87505 -1.31075 0
M  V30 7624 C 713.674 1.65818 -1.2324 0
M  V30 7625 C 714.082 1.8808 0.205536 0
M  V30 7626 O 713.425 1.43548 1.14628 0
M  V30 7627 C 713.487 3.05131 -1.90093 0
M  V30 7628 C 713.151 3.05999 -3.39432 0
M  V30 7629 C 714.148 2.84328 -4.35263 0
M  V30 7630 C 711.833 3.27281 -3.81041 0
M  V30 7631 C 713.827 2.83912 -5.70678 0
M  V30 7632 C 711.514 3.26493 -5.16571 0
M  V30 7633 C 712.512 3.04834 -6.112 0
M  V30 7634 O 712.2 3.03882 -7.44252 0
M  V30 7635 H 711.932 0.52387 -0.427242 0
M  V30 7636 H 714.486 1.10086 -1.73408 0
M  V30 7637 H 712.716 3.62568 -1.34468 0
M  V30 7638 H 714.405 3.65641 -1.76242 0
M  V30 7639 H 715.171 2.67673 -4.04445 0
M  V30 7640 H 711.05 3.43171 -3.07822 0
M  V30 7641 H 714.594 2.66925 -6.44513 0
M  V30 7642 H 710.491 3.42687 -5.47025 0
M  V30 7643 H 711.259 3.19979 -7.53363 0
M  V30 7644 N 713.922 1.13953 1.08869 0
M  V30 7645 C 714.869 0.82213 2.15661 0
M  V30 7646 C 715.839 -0.218274 1.6466 0
M  V30 7647 O 717.024 -0.0892475 1.90591 0
M  V30 7648 C 714.164 0.300572 3.43789 0
M  V30 7649 C 713.277 1.40071 4.08661 0
M  V30 7650 C 712.412 0.836897 5.24566 0
M  V30 7651 C 711.451 1.91504 5.81371 0
M  V30 7652 N 710.588 1.36875 6.88629 0
M  V30 7653 H 715.428 1.73683 2.42153 0
M  V30 7654 H 712.965 0.866879 1.18843 0
M  V30 7655 H 714.923 -0.0199943 4.17195 0
M  V30 7656 H 713.553 -0.577248 3.17597 0
M  V30 7657 H 712.605 1.83776 3.33062 0
M  V30 7658 H 713.917 2.21534 4.46905 0
M  V30 7659 H 713.071 0.467953 6.04893 0
M  V30 7660 H 711.81 -0.00874207 4.87699 0
M  V30 7661 H 710.815 2.29299 4.99702 0
M  V30 7662 H 712.04 2.76419 6.20298 0
M  V30 7663 H 709.986 0.545211 6.5373 0
M  V30 7664 H 709.903 2.1198 7.25672 0
M  V30 7665 H 711.171 1.02756 7.72698 0
M  V30 7666 N 715.4 -1.26948 0.933913 0
M  V30 7667 C 716.646 -1.94716 0.587985 0
M  V30 7668 C 717.001 -1.71994 -0.862312 0
M  V30 7669 O 716.294 -1.04208 -1.60783 0
M  V30 7670 C 716.488 -3.46963 0.857406 0
M  V30 7671 C 716.317 -3.84489 2.33234 0
M  V30 7672 C 715.087 -4.07621 2.98618 0
M  V30 7673 C 717.285 -3.93602 3.31031 0
M  V30 7674 N 715.267 -4.31976 4.362 0
M  V30 7675 C 716.638 -4.22404 4.53845 0
M  V30 7676 C 718.693 -3.76201 3.26155 0
M  V30 7677 C 717.396 -4.35615 5.72391 0
M  V30 7678 C 719.422 -3.90641 4.4402 0
M  V30 7679 C 718.784 -4.19835 5.65613 0
M  V30 7680 H 714.883 -0.735586 0.2654 0
M  V30 7681 H 717.467 -1.53181 1.20182 0
M  V30 7682 H 715.638 -3.87442 0.27268 0
M  V30 7683 H 717.37 -4.01921 0.47348 0
M  V30 7684 H 714.125 -4.02696 2.49264 0
M  V30 7685 H 714.549 -4.48199 5.07392 0
M  V30 7686 H 719.191 -3.52665 2.3321 0
M  V30 7687 H 716.909 -4.57975 6.65796 0
M  V30 7688 H 720.495 -3.78589 4.41771 0
M  V30 7689 H 719.375 -4.30765 6.55295 0
M  V30 7690 N 716.879 -0.700114 -1.41195 0
M  V30 7691 C 717.827 -0.0263301 -2.32585 0
M  V30 7692 C 718.821 0.763683 -1.51209 0
M  V30 7693 O 720.027 0.668793 -1.67114 0
M  V30 7694 H 716.402 0.0102869 -0.75193 0
M  V30 7695 H 718.373 -0.814087 -2.8708 0
M  V30 7696 C 717.122 0.892793 -3.36042 0
M  V30 7697 H 716.445 0.294306 -3.98715 0
M  V30 7698 H 717.885 1.33247 -4.02518 0
M  V30 7699 C 716.344 2.01109 -2.7029 0
M  V30 7700 O 716.874 3.10035 -2.55423 0
M  V30 7701 N 715.08 1.79015 -2.28915 0
M  V30 7702 H 714.627 0.904275 -2.41207 0
M  V30 7703 H 714.585 2.54022 -1.85257 0
M  V30 7704 N 718.357 1.51182 -0.445186 0
M  V30 7705 C 719.606 2.01342 0.120189 0
M  V30 7706 C 719.919 1.33353 1.43095 0
M  V30 7707 O 721.125 1.74525 2.07974 0
M  V30 7708 C 719.581 3.58925 0.264732 0
M  V30 7709 C 719.189 4.35855 -1.03606 0
M  V30 7710 C 720.933 4.17208 0.783455 0
M  V30 7711 C 718.84 5.85162 -0.856731 0
M  V30 7712 H 717.77 0.752426 0.0486922 0
M  V30 7713 H 720.421 1.74221 -0.576143 0
M  V30 7714 H 718.803 3.82525 1.02425 0
M  V30 7715 H 719.977 4.23997 -1.80452 0
M  V30 7716 H 718.292 3.89062 -1.48391 0
M  V30 7717 H 720.889 5.26475 0.934239 0
M  V30 7718 H 721.232 3.76892 1.768 0
M  V30 7719 H 721.765 3.97715 0.0820346 0
M  V30 7720 H 718.504 6.29904 -1.81388 0
M  V30 7721 H 718.024 5.99663 -0.128206 0
M  V30 7722 H 719.703 6.44963 -0.513027 0
M  V30 7723 N 719.835 0.176821 1.56605 0
M  V30 7724 C 720.765 -0.746841 2.21234 0
M  V30 7725 C 721.746 -1.23502 1.16967 0
M  V30 7726 O 722.931 -1.28718 1.45414 0
M  V30 7727 C 720.061 -1.97407 2.8574 0
M  V30 7728 C 719.015 -1.62153 3.96094 0
M  V30 7729 C 718.341 -2.92387 4.47676 0
M  V30 7730 C 719.641 -0.845353 5.15413 0
M  V30 7731 H 721.335 -0.208116 2.98676 0
M  V30 7732 H 718.881 -0.0986594 1.43662 0
M  V30 7733 H 720.834 -2.62531 3.2963 0
M  V30 7734 H 719.558 -2.53703 2.05676 0
M  V30 7735 H 718.217 -0.993964 3.52868 0
M  V30 7736 H 717.865 -3.46734 3.64396 0
M  V30 7737 H 717.565 -2.69551 5.22127 0
M  V30 7738 H 719.089 -3.5853 4.94255 0
M  V30 7739 H 720.503 -1.39929 5.55961 0
M  V30 7740 H 718.9 -0.715814 5.95815 0
M  V30 7741 H 719.97 0.157239 4.84645 0
M  V30 7742 N 721.313 -1.57302 -0.09688 0
M  V30 7743 C 722.223 -2.05258 -1.13606 0
M  V30 7744 C 723.239 -0.977137 -1.43972 0
M  V30 7745 O 724.415 -1.29018 -1.54649 0
M  V30 7746 C 721.48 -2.46593 -2.43706 0
M  V30 7747 C 720.541 -3.68322 -2.20538 0
M  V30 7748 C 719.774 -4.07676 -3.44435 0
M  V30 7749 O 719.997 -3.47141 -4.52603 0
M  V30 7750 O 718.931 -5.00641 -3.34129 0
M  V30 7751 H 722.757 -2.94069 -0.758752 0
M  V30 7752 H 720.342 -1.46164 -0.309263 0
M  V30 7753 H 722.224 -2.73814 -3.20318 0
M  V30 7754 H 720.899 -1.6092 -2.80867 0
M  V30 7755 H 719.806 -3.4622 -1.41713 0
M  V30 7756 H 721.139 -4.54769 -1.88271 0
M  V30 7757 N 722.791 0.367657 -1.53252 0
M  V30 7758 C 724.038 1.11052 -1.69333 0
M  V30 7759 C 724.366 1.89363 -0.444064 0
M  V30 7760 O 723.621 1.87094 0.573953 0
M  V30 7761 C 723.92 2.09825 -2.89324 0
M  V30 7762 C 723.586 1.4801 -4.25915 0
M  V30 7763 C 722.248 1.30879 -4.6306 0
M  V30 7764 C 724.6 1.03268 -5.10867 0
M  V30 7765 C 721.928 0.675868 -5.82794 0
M  V30 7766 C 724.28 0.41377 -6.31245 0
M  V30 7767 C 722.944 0.229939 -6.67104 0
M  V30 7768 H 722.214 0.406367 -0.619634 0
M  V30 7769 H 724.861 0.392558 -1.87433 0
M  V30 7770 H 723.166 2.87917 -2.65728 0
M  V30 7771 H 724.863 2.67252 -2.98961 0
M  V30 7772 H 721.453 1.62336 -3.96667 0
M  V30 7773 H 725.637 1.15297 -4.82722 0
M  V30 7774 H 720.893 0.521833 -6.09169 0
M  V30 7775 H 725.067 0.0588768 -6.96375 0
M  V30 7776 H 722.694 -0.262562 -7.59746 0
M  V30 7777 N 724.269 1.44576 0.627338 0
M  V30 7778 C 725.546 1.38033 1.38586 0
M  V30 7779 C 725.926 0.0409468 2.1106 0
M  V30 7780 O 725.274 -0.976582 2.0658 0
M  V30 7781 C 725.484 2.58102 2.34913 0
M  V30 7782 C 726.832 3.02332 2.98129 0
M  V30 7783 O 727.856 2.58334 2.45238 0
M  V30 7784 O 726.715 3.78628 3.94085 0
M  V30 7785 H 723.809 0.546801 0.620434 0
M  V30 7786 H 726.355 1.56672 0.652077 0
M  V30 7787 H 725.127 3.4719 1.80485 0
M  V30 7788 H 724.75 2.41696 3.15703 0
M  V30 7789 N 725.747 -0.868086 1.31537 0
M  V30 7790 C 726.657 -2.00801 1.21311 0
M  V30 7791 C 727.673 -1.73518 0.129431 0
M  V30 7792 O 728.849 -1.98378 0.347588 0
M  V30 7793 C 725.914 -3.3419 0.922935 0
M  V30 7794 C 724.975 -3.74783 2.0937 0
M  V30 7795 C 724.208 -5.01807 1.81728 0
M  V30 7796 O 724.431 -5.65404 0.753313 0
M  V30 7797 O 723.365 -5.39213 2.67457 0
M  V30 7798 H 727.191 -2.12361 2.17109 0
M  V30 7799 H 724.776 -0.996684 1.11295 0
M  V30 7800 H 726.658 -4.14174 0.777033 0
M  V30 7801 H 725.333 -3.237 -0.00500301 0
M  V30 7802 H 724.24 -2.95432 2.29501 0
M  V30 7803 H 725.573 -3.89902 3.00396 0
M  V30 7804 N 727.225 -1.14528 -1.08264 0
M  V30 7805 C 728.636 -0.925261 -1.6216 0
M  V30 7806 C 728.987 0.535587 -1.88748 0
M  V30 7807 O 728.112 1.4048 -1.64604 0
M  V30 7808 C 728.707 -1.67316 -2.94603 0
M  V30 7809 C 727.266 -1.49868 -3.45278 0
M  V30 7810 C 726.413 -1.69471 -2.19487 0
M  V30 7811 H 729.364 -1.29687 -0.914707 0
M  V30 7812 H 729.385 -1.13721 -3.63109 0
M  V30 7813 H 728.897 -2.73635 -2.75219 0
M  V30 7814 H 726.998 -0.459032 -3.69762 0
M  V30 7815 H 727.111 -2.2696 -4.21931 0
M  V30 7816 H 725.475 -1.12048 -2.2873 0
M  V30 7817 H 726.258 -2.77136 -2.0261 0
M  V30 7818 N 728.703 1.26451 -0.940633 0
M  V30 7819 C 729.931 1.97868 -0.604642 0
M  V30 7820 C 730.346 1.70051 0.820251 0
M  V30 7821 O 729.703 0.96843 1.54686 0
M  V30 7822 C 729.754 3.51684 -0.836689 0
M  V30 7823 O 729.475 3.78533 -2.20554 0
M  V30 7824 C 730.976 4.40343 -0.511169 0
M  V30 7825 H 728.196 0.631105 -0.227919 0
M  V30 7826 H 730.74 1.60979 -1.26119 0
M  V30 7827 H 728.895 3.86736 -0.226759 0
M  V30 7828 H 729.309 4.73065 -2.26517 0
M  V30 7829 H 730.783 5.47229 -0.724157 0
M  V30 7830 H 731.26 4.35694 0.553815 0
M  V30 7831 H 731.866 4.10834 -1.0998 0
M  V30 7832 N 730.181 0.707592 1.40822 0
M  V30 7833 C 731.091 0.0507246 2.34545 0
M  V30 7834 C 732.107 -0.752727 1.56876 0
M  V30 7835 O 733.283 -0.687524 1.89302 0
M  V30 7836 C 730.348 -0.865731 3.35717 0
M  V30 7837 C 729.409 -0.0531313 4.29267 0
M  V30 7838 C 728.642 -0.925939 5.25606 0
M  V30 7839 O 728.865 -2.16531 5.27703 0
M  V30 7840 O 727.799 -0.369194 6.00767 0
M  V30 7841 H 731.625 0.823587 2.9232 0
M  V30 7842 H 729.21 0.46801 1.4188 0
M  V30 7843 H 731.092 -1.39091 3.97783 0
M  V30 7844 H 729.767 -1.61788 2.80368 0
M  V30 7845 H 728.674 0.516931 3.70511 0
M  V30 7846 H 730.007 0.660617 4.87747 0
M  V30 7847 N 731.66 -1.50943 0.453197 0
M  V30 7848 C 732.608 -2.29728 -0.364419 0
M  V30 7849 C 733.602 -1.36246 -1.00664 0
M  V30 7850 O 734.808 -1.53518 -0.939794 0
M  V30 7851 H 731.183 -0.739536 -0.136347 0
M  V30 7852 H 733.154 -2.96672 0.320696 0
M  V30 7853 C 731.903 -3.1629 -1.44415 0
M  V30 7854 H 731.226 -3.88119 -0.959343 0
M  V30 7855 H 732.666 -3.74444 -1.98917 0
M  V30 7856 C 731.125 -2.32702 -2.43622 0
M  V30 7857 O 731.655 -1.99763 -3.48508 0
M  V30 7858 N 729.861 -1.95621 -2.14897 0
M  V30 7859 H 729.408 -2.22607 -1.29629 0
M  V30 7860 H 729.366 -1.39993 -2.81513 0
M  V30 7861 N 733.138 -0.185124 -1.56509 0
M  V30 7862 C 734.415 0.503348 -1.89013 0
M  V30 7863 C 734.795 1.80349 -1.09715 0
M  V30 7864 O 734.143 2.27665 -0.195203 0
M  V30 7865 C 734.353 0.731839 -3.41241 0
M  V30 7866 C 735.701 1.05568 -4.11267 0
M  V30 7867 O 736.725 0.819906 -3.46635 0
M  V30 7868 O 735.584 1.50116 -5.25478 0
M  V30 7869 H 732.678 0.261139 -0.784688 0
M  V30 7870 H 735.224 -0.224592 -1.68207 0
M  V30 7871 H 733.996 -0.18672 -3.90854 0
M  V30 7872 H 733.619 1.5126 -3.67704 0
M  V30 7873 N 734.616 1.57351 0.0885366 0
M  V30 7874 C 735.579 2.01557 1.09121 0
M  V30 7875 C 736.579 0.910052 1.3257 0
M  V30 7876 O 737.769 1.17537 1.28572 0
M  V30 7877 C 734.901 2.38189 2.43883 0
M  V30 7878 H 736.094 2.91361 0.710562 0
M  V30 7879 H 733.647 1.52694 0.333779 0
M  V30 7880 H 734.382 1.5136 2.86811 0
M  V30 7881 H 734.167 3.18846 2.28209 0
M  V30 7882 H 735.657 2.73025 3.15986 0
M  V30 7883 N 736.094 -0.359525 1.53444 0
M  V30 7884 C 737.026 -1.46098 1.76602 0
M  V30 7885 C 738.039 -1.49395 0.646912 0
M  V30 7886 O 739.228 -1.52765 0.923307 0
M  V30 7887 C 736.328 -2.84836 1.83635 0
M  V30 7888 C 735.501 -3.05164 3.13358 0
M  V30 7889 C 734.56 -4.24051 3.11556 0
M  V30 7890 O 733.586 -4.18935 3.85334 0
M  V30 7891 N 734.788 -5.31775 2.328 0
M  V30 7892 H 737.553 -1.2661 2.71643 0
M  V30 7893 H 735.114 -0.549294 1.52297 0
M  V30 7894 H 737.106 -3.62516 1.799 0
M  V30 7895 H 735.676 -2.97542 0.958509 0
M  V30 7896 H 734.896 -2.15091 3.30348 0
M  V30 7897 H 736.184 -3.15619 3.99076 0
M  V30 7898 H 735.582 -5.38796 1.7238 0
M  V30 7899 H 734.139 -6.0801 2.34877 0
M  V30 7900 N 737.572 -1.44907 -0.619662 0
M  V30 7901 C 738.812 -1.49822 -1.39042 0
M  V30 7902 C 739.176 -0.131803 -1.91547 0
M  V30 7903 O 740.377 -0.0556413 -2.68742 0
M  V30 7904 C 738.648 -2.53805 -2.5163 0
M  V30 7905 S 740.207 -2.77855 -3.3962 0
M  V30 7906 H 737.025 -0.529774 -0.474195 0
M  V30 7907 H 739.627 -1.81907 -0.716236 0
M  V30 7908 H 738.331 -3.51772 -2.11387 0
M  V30 7909 H 737.862 -2.23331 -3.23863 0
M  V30 7910 H 739.877 -2.10319 -4.49422 0
M  V30 7911 N 739.05 0.861098 -1.31996 0
M  V30 7912 C 739.98 1.98482 -1.22993 0
M  V30 7913 C 740.961 1.6971 -0.115168 0
M  V30 7914 O 742.146 1.91849 -0.30126 0
M  V30 7915 C 739.276 3.34179 -0.945615 0
M  V30 7916 C 738.23 3.77284 -2.02091 0
M  V30 7917 C 737.556 5.1054 -1.58912 0
M  V30 7918 C 738.856 3.93439 -3.43515 0
M  V30 7919 H 740.55 2.06271 -2.17008 0
M  V30 7920 H 738.096 0.991043 -1.04472 0
M  V30 7921 H 740.049 4.12338 -0.869206 0
M  V30 7922 H 738.773 3.26586 0.0301849 0
M  V30 7923 H 737.432 3.01371 -2.08737 0
M  V30 7924 H 737.08 4.99397 -0.600942 0
M  V30 7925 H 736.78 5.40352 -2.30854 0
M  V30 7926 H 738.304 5.91199 -1.52696 0
M  V30 7927 H 739.718 4.6197 -3.39495 0
M  V30 7928 H 738.115 4.34661 -4.13751 0
M  V30 7929 H 739.185 2.96548 -3.8365 0
M  V30 7930 N 740.528 1.15101 1.07655 0
M  V30 7931 C 741.756 0.947731 1.83918 0
M  V30 7932 C 742.171 -0.503927 1.81951 0
M  V30 7933 O 741.528 -1.34941 1.2287 0
M  V30 7934 C 741.579 1.4503 3.31132 0
M  V30 7935 O 741.3 2.84508 3.33146 0
M  V30 7936 C 742.801 1.28806 4.24174 0
M  V30 7937 H 740.021 0.336786 0.580358 0
M  V30 7938 H 742.565 1.52799 1.35914 0
M  V30 7939 H 740.72 0.912632 3.76497 0
M  V30 7940 H 741.134 3.0723 4.251 0
M  V30 7941 H 742.608 1.6882 5.25551 0
M  V30 7942 H 743.085 0.231851 4.38588 0
M  V30 7943 H 743.691 1.81465 3.84643 0
M  V30 7944 N 742.006 -1.2595 0.947325 0
M  V30 7945 C 743.422 -1.45737 0.650597 0
M  V30 7946 C 743.622 -1.85189 -0.794188 0
M  V30 7947 O 742.678 -1.97738 -1.57022 0
M  V30 7948 C 743.991 -2.53505 1.61728 0
M  V30 7949 C 745.539 -2.67351 1.62765 0
M  V30 7950 C 746.014 -3.78296 2.58179 0
M  V30 7951 N 747.505 -3.85696 2.56501 0
M  V30 7952 C 748.24 -4.71012 3.2701 0
M  V30 7953 N 747.736 -5.60669 4.06966 0
M  V30 7954 N 749.529 -4.64912 3.15932 0
M  V30 7955 H 741.68 -0.986327 1.8811 0
M  V30 7956 H 743.943 -0.494639 0.808725 0
M  V30 7957 H 743.649 -2.31357 2.6489 0
M  V30 7958 H 743.523 -3.51281 1.3741 0
M  V30 7959 H 745.91 -2.88869 0.603241 0
M  V30 7960 H 745.991 -1.69998 1.91139 0
M  V30 7961 H 745.635 -3.5753 3.60742 0
M  V30 7962 H 745.565 -4.75117 2.27093 0
M  V30 7963 H 748.056 -3.21601 1.98447 0
M  V30 7964 H 748.369 -6.22677 4.57704 0
M  V30 7965 H 746.714 -5.60402 4.11066 0
M  V30 7966 H 749.905 -3.93874 2.52945 0
M  V30 7967 H 750.078 -5.3118 3.71149 0
M  V30 7968 N 743.484 -0.715051 -1.40445 0
M  V30 7969 C 744.895 -0.326763 -1.83818 0
M  V30 7970 C 745.246 1.13851 -1.59789 0
M  V30 7971 O 744.371 1.87611 -1.07848 0
M  V30 7972 C 744.966 -0.586297 -3.33688 0
M  V30 7973 C 743.525 -0.251724 -3.75557 0
M  V30 7974 C 742.672 -0.858928 -2.63662 0
M  V30 7975 H 745.623 -0.914241 -1.2972 0
M  V30 7976 H 745.644 0.148636 -3.8021 0
M  V30 7977 H 745.156 -1.65281 -3.51146 0
M  V30 7978 H 743.257 0.809754 -3.63695 0
M  V30 7979 H 743.37 -0.720348 -4.73654 0
M  V30 7980 H 741.734 -0.287013 -2.53078 0
M  V30 7981 H 742.517 -1.9297 -2.83932 0
M  V30 7982 N 744.962 1.50701 -0.461195 0
M  V30 7983 C 746.192 2.06381 0.0950376 0
M  V30 7984 C 746.6 1.32627 1.34933 0
M  V30 7985 O 745.943 0.386137 1.79596 0
M  V30 7986 C 746.005 3.56558 0.458965 0
M  V30 7987 C 745.669 4.51732 -0.691891 0
M  V30 7988 C 746.666 4.95594 -1.57105 0
M  V30 7989 C 744.351 4.94542 -0.879407 0
M  V30 7990 C 746.345 5.80963 -2.62223 0
M  V30 7991 C 744.032 5.79695 -1.93382 0
M  V30 7992 C 745.03 6.22806 -2.80359 0
M  V30 7993 O 744.718 7.06265 -3.83986 0
M  V30 7994 H 744.45 0.676 0.000687488 0
M  V30 7995 H 747.004 1.94974 -0.646087 0
M  V30 7996 H 745.234 3.65832 1.25314 0
M  V30 7997 H 746.923 3.94647 0.949124 0
M  V30 7998 H 747.689 4.63197 -1.43783 0
M  V30 7999 H 743.568 4.60513 -0.211907 0
M  V30 8000 H 747.112 6.14533 -3.30143 0
M  V30 8001 H 743.009 6.11506 -2.06715 0
M  V30 8002 H 743.777 7.24494 -3.80855 0
M  V30 8003 N 746.441 0.193421 1.56409 0
M  V30 8004 C 747.671 -0.450783 2.01622 0
M  V30 8005 C 748.079 -1.5585 1.07273 0
M  V30 8006 O 747.422 -1.83569 0.0694875 0
M  V30 8007 C 747.484 -1.06913 3.43235 0
M  V30 8008 C 747.148 -0.100352 4.5689 0
M  V30 8009 C 748.145 0.689633 5.15306 0
M  V30 8010 C 745.83 0.0102436 5.02299 0
M  V30 8011 C 747.824 1.5772 6.17579 0
M  V30 8012 C 745.511 0.901368 6.04416 0
M  V30 8013 C 746.509 1.68341 6.61929 0
M  V30 8014 O 746.197 2.5596 7.62063 0
M  V30 8015 H 745.929 -0.117671 0.66568 0
M  V30 8016 H 748.483 0.2989 2.03214 0
M  V30 8017 H 746.713 -1.86736 3.38624 0
M  V30 8018 H 748.402 -1.61781 3.72266 0
M  V30 8019 H 749.168 0.614485 4.81092 0
M  V30 8020 H 745.047 -0.58829 4.57231 0
M  V30 8021 H 748.591 2.18805 6.62397 0
M  V30 8022 H 744.488 0.977637 6.38054 0
M  V30 8023 H 745.256 2.49721 7.79475 0
M  V30 8024 N 747.919 -1.57396 -0.0801906 0
M  V30 8025 C 749.144 -1.91437 -0.797909 0
M  V30 8026 C 749.569 -0.789075 -1.70749 0
M  V30 8027 O 748.927 0.25857 -1.79447 0
M  V30 8028 C 748.975 -3.24402 -1.57467 0
M  V30 8029 O 748.079 -3.13043 -2.68473 0
M  V30 8030 H 747.42 -0.627109 -0.218243 0
M  V30 8031 H 749.95 -2.04537 -0.050949 0
M  V30 8032 H 749.96 -3.58072 -1.95571 0
M  V30 8033 H 748.635 -4.05884 -0.907229 0
M  V30 8034 H 747.212 -2.90915 -2.33287 0
M  V30 8035 N 749.397 0.351382 -1.53633 0
M  V30 8036 C 750.674 1.10903 -1.6112 0
M  V30 8037 C 751.054 2.06725 -0.427556 0
M  V30 8038 O 750.402 2.20992 0.580916 0
M  V30 8039 C 750.612 1.83561 -2.96827 0
M  V30 8040 C 751.96 2.37587 -3.51906 0
M  V30 8041 O 752.984 1.93669 -2.9895 0
M  V30 8042 O 751.843 3.17913 -4.44515 0
M  V30 8043 H 748.937 0.509558 -0.651368 0
M  V30 8044 H 751.483 0.353504 -1.65977 0
M  V30 8045 H 750.255 1.1371 -3.74414 0
M  V30 8046 H 749.878 2.6599 -2.95525 0
M  V30 8047 N 750.875 1.45233 0.611969 0
M  V30 8048 C 752.121 1.49242 1.37312 0
M  V30 8049 C 752.454 0.131963 1.93751 0
M  V30 8050 O 751.729 -0.852999 1.74798 0
M  V30 8051 C 752.012 2.56811 2.52428 0
M  V30 8052 C 751.865 4.02284 2.01215 0
M  V30 8053 C 753.184 2.60705 3.54572 0
M  V30 8054 H 750.303 0.54336 0.497925 0
M  V30 8055 H 752.945 1.77019 0.690242 0
M  V30 8056 H 751.095 2.33256 3.10683 0
M  V30 8057 H 752.767 4.37035 1.47643 0
M  V30 8058 H 751.01 4.1315 1.32248 0
M  V30 8059 H 751.681 4.7323 2.84178 0
M  V30 8060 H 754.157 2.81799 3.06151 0
M  V30 8061 H 753.033 3.37841 4.32614 0
M  V30 8062 H 753.294 1.65627 4.09903 0
M  V30 8063 N 752.353 -0.854086 1.3245 0
M  V30 8064 C 753.63 -1.59188 1.1366 0
M  V30 8065 C 754.01 -2.08917 -0.302807 0
M  V30 8066 O 753.358 -1.8795 -1.29951 0
M  V30 8067 C 753.568 -2.73757 2.16467 0
M  V30 8068 C 754.916 -3.43323 2.49829 0
M  V30 8069 O 755.94 -2.83983 2.15017 0
M  V30 8070 O 754.799 -4.50409 3.09506 0
M  V30 8071 H 751.893 -0.701092 0.438633 0
M  V30 8072 H 754.439 -0.898165 1.43983 0
M  V30 8073 H 753.211 -2.3454 3.1322 0
M  V30 8074 H 752.834 -3.50804 1.87142 0
M  V30 8075 N 753.831 -1.1567 -1.07043 0
M  V30 8076 C 755.08 -0.928039 -1.79082 0
M  V30 8077 C 755.393 0.545968 -1.87826 0
M  V30 8078 O 756.599 0.892308 -2.56418 0
M  V30 8079 C 755.055 -1.61103 -3.21829 0
M  V30 8080 C 754.663 -3.12228 -3.21275 0
M  V30 8081 C 756.407 -1.46404 -3.98455 0
M  V30 8082 C 754.314 -3.733 -4.58695 0
M  V30 8083 H 753.244 -0.34357 -0.671175 0
M  V30 8084 H 755.895 -1.38718 -1.20123 0
M  V30 8085 H 754.277 -1.07958 -3.81 0
M  V30 8086 H 755.451 -3.72155 -2.71731 0
M  V30 8087 H 753.766 -3.26725 -2.58147 0
M  V30 8088 H 756.363 -1.8942 -5.00024 0
M  V30 8089 H 756.706 -0.41195 -4.14257 0
M  V30 8090 H 757.239 -1.96663 -3.45787 0
M  V30 8091 H 753.978 -4.78423 -4.48098 0
M  V30 8092 H 753.498 -3.18157 -5.08465 0
M  V30 8093 H 755.177 -3.7441 -5.27661 0
M  V30 8094 N 755.309 1.25446 -0.953992 0
M  V30 8095 C 756.242 2.24341 -0.417912 0
M  V30 8096 C 757.22 1.54709 0.5004 0
M  V30 8097 O 758.404 1.83414 0.434923 0
M  V30 8098 C 755.531 3.36352 0.398155 0
M  V30 8099 C 754.577 4.24007 -0.460461 0
M  V30 8100 S 755.41 5.00951 -1.89231 0
M  V30 8101 C 756.566 6.1643 -1.08465 0
M  V30 8102 H 756.799 2.69465 -1.25602 0
M  V30 8103 H 754.332 1.34512 -0.758018 0
M  V30 8104 H 756.29 4.01325 0.863059 0
M  V30 8105 H 754.951 2.89813 1.21108 0
M  V30 8106 H 754.144 5.03728 0.165415 0
M  V30 8107 H 753.746 3.63965 -0.860549 0
M  V30 8108 H 756.038 6.76681 -0.333017 0
M  V30 8109 H 756.981 6.8335 -1.85577 0
M  V30 8110 H 757.389 5.61139 -0.615062 0
M  V30 8111 N 756.787 0.722489 1.40064 0
M  V30 8112 C 758.203 0.396758 1.5459 0
M  V30 8113 C 758.403 -1.09375 1.69232 0
M  V30 8114 O 757.459 -1.87984 1.68578 0
M  V30 8115 C 758.772 1.16885 2.77053 0
M  V30 8116 C 760.32 1.15583 2.90877 0
M  V30 8117 C 760.795 1.91023 4.16262 0
M  V30 8118 N 762.286 1.88126 4.23276 0
M  V30 8119 C 763.021 2.43315 5.19216 0
M  V30 8120 N 762.517 3.07089 6.21022 0
M  V30 8121 N 764.31 2.33418 5.11344 0
M  V30 8122 H 756.461 1.68887 1.28806 0
M  V30 8123 H 758.724 0.714231 0.62336 0
M  V30 8124 H 758.43 2.22301 2.72534 0
M  V30 8125 H 758.304 0.765011 3.69361 0
M  V30 8126 H 760.691 0.10984 2.94896 0
M  V30 8127 H 760.772 1.59895 1.99668 0
M  V30 8128 H 760.416 2.95616 4.13006 0
M  V30 8129 H 760.346 1.44126 5.06493 0
M  V30 8130 H 762.837 1.41654 3.50346 0
M  V30 8131 H 763.15 3.467 6.90666 0
M  V30 8132 H 761.495 3.11175 6.21446 0
M  V30 8133 H 764.686 1.83248 4.30741 0
M  V30 8134 H 764.859 2.7673 5.85939 0
M  V30 8135 N 758.265 -1.50454 0.469181 0
M  V30 8136 C 759.542 -1.9504 -0.147955 0
M  V30 8137 C 759.922 -1.40946 -1.57154 0
M  V30 8138 O 759.27 -0.609663 -2.20217 0
M  V30 8139 C 759.48 -3.48875 -0.0932198 0
M  V30 8140 C 760.828 -4.23655 -0.283056 0
M  V30 8141 O 761.852 -3.55795 -0.169892 0
M  V30 8142 O 760.711 -5.44102 -0.511396 0
M  V30 8143 H 757.805 -0.819283 -0.11271 0
M  V30 8144 H 760.351 -1.6123 0.529446 0
M  V30 8145 H 759.123 -3.80791 0.900784 0
M  V30 8146 H 758.746 -3.89217 -0.812161 0
M  V30 8147 N 759.743 -0.201713 -1.56304 0
M  V30 8148 C 760.992 0.435557 -1.96941 0
M  V30 8149 C 761.305 1.62299 -1.09172 0
M  V30 8150 O 762.511 2.32849 -1.3962 0
M  V30 8151 C 760.967 0.826298 -3.50286 0
M  V30 8152 C 760.575 -0.337216 -4.46729 0
M  V30 8153 C 762.319 1.43028 -3.99679 0
M  V30 8154 C 760.226 0.0748539 -5.91353 0
M  V30 8155 H 759.156 0.1665 -0.735387 0
M  V30 8156 H 761.807 -0.294781 -1.81117 0
M  V30 8157 H 760.189 1.61349 -3.61639 0
M  V30 8158 H 761.363 -1.11476 -4.47113 0
M  V30 8159 H 759.678 -0.853126 -4.07567 0
M  V30 8160 H 762.275 1.75115 -5.05212 0
M  V30 8161 H 762.618 2.33911 -3.44371 0
M  V30 8162 H 763.151 0.706924 -3.91468 0
M  V30 8163 H 759.89 -0.799957 -6.506 0
M  V30 8164 H 759.41 0.817122 -5.94208 0
M  V30 8165 H 761.089 0.508389 -6.45 0
M  V30 8166 N 761.222 1.57436 0.0718424 0
M  V30 8167 C 762.185 2.02703 1.06977 0
M  V30 8168 C 763.185 0.924062 1.31597 0
M  V30 8169 O 764.375 1.18894 1.27318 0
M  V30 8170 C 761.507 2.40763 2.41342 0
M  V30 8171 H 762.7 2.92098 0.679619 0
M  V30 8172 H 760.253 1.5304 0.317565 0
M  V30 8173 H 760.988 1.54394 2.8519 0
M  V30 8174 H 760.773 3.21249 2.24814 0
M  V30 8175 H 762.263 2.76361 3.13073 0
M  V30 8176 N 762.7 -0.34323 1.53817 0
M  V30 8177 C 763.925 -1.1079 1.75329 0
M  V30 8178 C 764.35 -1.81571 0.491293 0
M  V30 8179 O 763.708 -1.72561 -0.556089 0
M  V30 8180 C 763.756 -2.09681 2.9337 0
M  V30 8181 O 762.86 -3.17207 2.63541 0
M  V30 8182 H 762.201 -0.320402 0.581583 0
M  V30 8183 H 764.731 -0.393525 2.0078 0
M  V30 8184 H 764.741 -2.52897 3.20168 0
M  V30 8185 H 763.416 -1.5756 3.84899 0
M  V30 8186 H 761.993 -2.78806 2.47632 0
M  V30 8187 N 764.178 -1.45556 -0.604258 0
M  V30 8188 C 765.426 -1.4945 -1.36048 0
M  V30 8189 C 765.747 -0.138933 -1.94504 0
M  V30 8190 O 765.017 0.832097 -1.7735 0
M  V30 8191 H 763.597 -0.550381 -0.505064 0
M  V30 8192 H 766.259 -1.81535 -0.709308 0
M  V30 8193 H 765.355 -2.23519 -2.17821 0
M  V30 8194 N 765.656 0.84705 -1.32902 0
M  V30 8195 C 766.586 1.97166 -1.25091 0
M  V30 8196 C 767.567 1.69578 -0.133161 0
M  V30 8197 O 768.752 1.91519 -0.321591 0
M  V30 8198 C 765.882 3.33157 -0.981006 0
M  V30 8199 C 764.836 3.75119 -2.06082 0
M  V30 8200 C 764.162 5.08826 -1.64318 0
M  V30 8201 C 765.462 3.89774 -3.47669 0
M  V30 8202 H 767.156 2.03958 -2.19184 0
M  V30 8203 H 764.702 0.979907 -1.05517 0
M  V30 8204 H 766.655 4.11393 -0.912891 0
M  V30 8205 H 765.379 3.266 -0.00445559 0
M  V30 8206 H 764.038 2.9914 -2.11921 0
M  V30 8207 H 763.686 4.98732 -0.653876 0
M  V30 8208 H 763.386 5.37873 -2.36572 0
M  V30 8209 H 764.91 5.89546 -1.58958 0
M  V30 8210 H 766.324 4.58343 -3.44376 0
M  V30 8211 H 764.721 4.30248 -4.18338 0
M  V30 8212 H 765.791 2.92463 -3.86773 0
M  V30 8213 N 767.134 1.16236 1.06428 0
M  V30 8214 C 768.383 0.937523 1.78587 0
M  V30 8215 C 768.696 -0.536 1.88113 0
M  V30 8216 O 769.902 -0.878697 2.56887 0
M  V30 8217 C 768.358 1.62808 3.2097 0
M  V30 8218 C 767.966 3.13927 3.19615 0
M  V30 8219 C 769.71 1.48515 3.97673 0
M  V30 8220 C 767.617 3.75727 4.56709 0
M  V30 8221 H 766.547 0.347125 0.669343 0
M  V30 8222 H 769.198 1.39353 1.19385 0
M  V30 8223 H 767.58 1.09977 3.80422 0
M  V30 8224 H 768.754 3.7359 2.69753 0
M  V30 8225 H 767.069 3.28089 2.56411 0
M  V30 8226 H 769.666 1.92069 4.99013 0
M  V30 8227 H 770.009 0.433913 4.14032 0
M  V30 8228 H 770.542 1.98494 3.44739 0
M  V30 8229 H 767.281 4.80793 4.45554 0
M  V30 8230 H 766.801 3.20849 5.0677 0
M  V30 8231 H 768.48 3.77203 5.25668 0
M  V30 8232 N 768.612 -1.24939 0.960631 0
M  V30 8233 C 769.86 -1.92437 0.617441 0
M  V30 8234 C 770.181 -1.75543 -0.849101 0
M  V30 8235 O 769.451 -1.12269 -1.60538 0
M  V30 8236 H 768.031 -0.712192 0.225371 0
M  V30 8237 H 770.693 -1.5198 1.22017 0
M  V30 8238 H 769.789 -3.00247 0.851933 0
M  V30 8239 N 770.09 -0.729906 -1.39679 0
M  V30 8240 C 771.02 -0.101618 -2.33279 0
M  V30 8241 C 772.001 0.729854 -1.53646 0
M  V30 8242 O 773.186 0.67587 -1.82059 0
M  V30 8243 C 770.316 0.81024 -3.37716 0
M  V30 8244 C 769.27 0.0833126 -4.27919 0
M  V30 8245 C 768.596 1.11185 -5.23012 0
M  V30 8246 C 769.896 -1.07107 -5.112 0
M  V30 8247 H 771.59 -0.883452 -2.86069 0
M  V30 8248 H 769.136 -0.426283 -1.37546 0
M  V30 8249 H 771.089 1.25927 -4.02145 0
M  V30 8250 H 769.813 1.62413 -2.83354 0
M  V30 8251 H 768.472 -0.346043 -3.64963 0
M  V30 8252 H 768.12 1.91917 -4.64948 0
M  V30 8253 H 767.82 0.63026 -5.8421 0
M  V30 8254 H 769.344 1.56068 -5.90318 0
M  V30 8255 H 770.758 -0.700726 -5.69002 0
M  V30 8256 H 769.155 -1.48196 -5.81514 0
M  V30 8257 H 770.225 -1.89513 -4.46332 0
M  V30 8258 N 771.568 1.50203 -0.477153 0
M  V30 8259 C 772.498 2.31517 0.303646 0
M  V30 8260 C 773.479 1.38696 0.984753 0
M  V30 8261 O 774.664 1.67615 0.980758 0
M  V30 8262 C 771.794 3.18598 1.38249 0
M  V30 8263 C 770.748 4.2002 0.822645 0
M  V30 8264 C 770.074 4.95878 2.00024 0
M  V30 8265 C 771.374 5.22023 -0.170185 0
M  V30 8266 H 773.068 2.97042 -0.375027 0
M  V30 8267 H 770.614 1.42848 -0.181802 0
M  V30 8268 H 772.567 3.74282 1.93625 0
M  V30 8269 H 771.291 2.5097 2.09002 0
M  V30 8270 H 769.95 3.65445 0.290813 0
M  V30 8271 H 769.598 4.24717 2.69489 0
M  V30 8272 H 769.298 5.64487 1.63183 0
M  V30 8273 H 770.822 5.54399 2.55878 0
M  V30 8274 H 772.236 5.72543 0.294606 0
M  V30 8275 H 770.633 5.98386 -0.453181 0
M  V30 8276 H 771.703 4.72396 -1.09408 0
M  V30 8277 N 773.046 0.209999 1.56195 0
M  V30 8278 C 773.976 -0.699746 2.22769 0
M  V30 8279 C 774.957 -1.20993 1.1956 0
M  V30 8280 O 776.142 -1.25605 1.48112 0
M  V30 8281 C 773.272 -1.91302 2.89863 0
M  V30 8282 C 772.226 -1.53715 3.99444 0
M  V30 8283 C 771.552 -2.82826 4.53777 0
M  V30 8284 C 772.852 -0.735836 5.17091 0
M  V30 8285 H 774.546 -0.144716 2.9905 0
M  V30 8286 H 772.092 -0.0681645 1.43839 0
M  V30 8287 H 774.045 -2.5548 3.35124 0
M  V30 8288 H 772.769 -2.49283 2.11011 0
M  V30 8289 H 771.428 -0.918892 3.54897 0
M  V30 8290 H 771.076 -3.38927 3.71669 0
M  V30 8291 H 770.776 -2.58415 5.27727 0
M  V30 8292 H 772.3 -3.47966 5.01749 0
M  V30 8293 H 773.714 -1.28105 5.58804 0
M  V30 8294 H 772.111 -0.589272 5.972 0
M  V30 8295 H 773.181 0.260004 4.84202 0
M  V30 8296 N 774.524 -1.57472 -0.0634922 0
M  V30 8297 C 775.773 -1.86837 -0.759928 0
M  V30 8298 C 776.086 -0.803823 -1.7832 0
M  V30 8299 O 777.292 -0.985578 -2.52979 0
M  V30 8300 C 775.748 -3.31448 -1.4025 0
M  V30 8301 C 775.356 -4.46052 -0.417368 0
M  V30 8302 C 777.1 -3.70003 -2.08082 0
M  V30 8303 C 775.007 -5.81707 -1.06633 0
M  V30 8304 H 773.937 -0.697009 -0.287567 0
M  V30 8305 H 776.588 -1.83495 -0.0133914 0
M  V30 8306 H 774.97 -3.29427 -2.19759 0
M  V30 8307 H 776.144 -4.5948 0.348503 0
M  V30 8308 H 774.459 -4.16104 0.156955 0
M  V30 8309 H 777.056 -4.68653 -2.57426 0
M  V30 8310 H 777.399 -3.00226 -2.88393 0
M  V30 8311 H 777.932 -3.7405 -1.35394 0
M  V30 8312 H 774.671 -6.54798 -0.303374 0
M  V30 8313 H 774.191 -5.72064 -1.80286 0
M  V30 8314 H 775.87 -6.27317 -1.58376 0
M  V30 8315 N 776.003 0.335068 -1.53997 0
M  V30 8316 C 777.243 1.0827 -1.7337 0
M  V30 8317 C 777.607 1.85618 -0.490913 0
M  V30 8318 O 778.808 2.62864 -0.561799 0
M  V30 8319 C 777.079 1.99212 -2.96731 0
M  V30 8320 S 778.638 2.81083 -3.36954 0
M  V30 8321 H 775.456 0.365698 -0.609743 0
M  V30 8322 H 778.058 0.360079 -1.92155 0
M  V30 8323 H 776.762 1.41204 -3.85344 0
M  V30 8324 H 776.293 2.75898 -2.80436 0
M  V30 8325 H 778.308 4.01657 -2.91352 0
M  V30 8326 N 777.481 1.45874 0.596531 0
M  V30 8327 C 778.428 1.55389 1.70655 0
M  V30 8328 C 779.398 0.399036 1.61236 0
M  V30 8329 O 780.583 0.61396 1.80652 0
M  V30 8330 C 777.723 1.53705 3.0898 0
M  V30 8331 C 776.836 2.79823 3.29125 0
M  V30 8332 C 775.971 2.69735 4.5762 0
M  V30 8333 C 775.01 3.90856 4.71061 0
M  V30 8334 N 774.147 3.79237 5.90867 0
M  V30 8335 H 778.987 2.50211 1.61859 0
M  V30 8336 H 776.524 1.24146 0.789069 0
M  V30 8337 H 778.482 1.50715 3.89026 0
M  V30 8338 H 777.112 0.624247 3.16706 0
M  V30 8339 H 776.164 2.92852 2.42779 0
M  V30 8340 H 777.476 3.69628 3.34927 0
M  V30 8341 H 776.63 2.64773 5.45875 0
M  V30 8342 H 775.369 1.77547 4.54234 0
M  V30 8343 H 774.374 3.96164 3.81227 0
M  V30 8344 H 775.599 4.84124 4.76236 0
M  V30 8345 H 773.545 2.89825 5.88504 0
M  V30 8346 H 773.462 4.62686 5.97877 0
M  V30 8347 H 774.73 3.78227 6.8159 0
M  V30 8348 N 778.959 -0.83999 1.33349 0
M  V30 8349 C 780.184 -1.63249 1.27924 0
M  V30 8350 C 780.609 -1.87523 -0.147193 0
M  V30 8351 O 779.967 -1.43853 -1.10345 0
M  V30 8352 C 780.015 -2.96046 2.05886 0
M  V30 8353 O 779.119 -3.87303 1.4167 0
M  V30 8354 H 778.46 -0.49715 0.440157 0
M  V30 8355 H 780.99 -1.04512 1.75893 0
M  V30 8356 H 781 -3.45752 2.16609 0
M  V30 8357 H 779.675 -2.77701 3.09605 0
M  V30 8358 H 778.252 -3.45789 1.39585 0
M  V30 8359 N 780.437 -1.16799 -1.0581 0
M  V30 8360 C 781.853 -0.913935 -1.30841 0
M  V30 8361 C 782.053 0.430439 -1.96849 0
M  V30 8362 O 781.109 1.16885 -2.23817 0
M  V30 8363 C 782.422 -2.06662 -2.18429 0
M  V30 8364 C 783.97 -2.10294 -2.31831 0
M  V30 8365 C 784.445 -3.2493 -3.22776 0
M  V30 8366 N 785.936 -3.24678 -3.30361 0
M  V30 8367 C 786.671 -4.10021 -4.00837 0
M  V30 8368 N 786.167 -5.05461 -4.73795 0
M  V30 8369 N 787.96 -3.97991 -3.96937 0
M  V30 8370 H 780.111 -2.03343 -0.613613 0
M  V30 8371 H 782.374 -0.88754 -0.333133 0
M  V30 8372 H 782.08 -3.03791 -1.77211 0
M  V30 8373 H 781.954 -2.01233 -3.19038 0
M  V30 8374 H 784.341 -1.13754 -2.72294 0
M  V30 8375 H 784.422 -2.19786 -1.30873 0
M  V30 8376 H 784.066 -4.21731 -2.83028 0
M  V30 8377 H 783.996 -3.12674 -4.23725 0
M  V30 8378 H 786.487 -2.55573 -2.78372 0
M  V30 8379 H 786.8 -5.66989 -5.25113 0
M  V30 8380 H 785.145 -5.09436 -4.72758 0
M  V30 8381 H 788.336 -3.2273 -3.39062 0
M  V30 8382 H 788.509 -4.64722 -4.51594 0
M  V30 8383 N 781.915 1.24427 -0.967243 0
M  V30 8384 C 783.14 1.9708 -0.646069 0
M  V30 8385 C 783.565 1.71272 0.777665 0
M  V30 8386 O 782.923 0.976179 1.52776 0
M  V30 8387 C 782.971 3.48501 -0.926266 0
M  V30 8388 O 782.075 4.12398 -0.0114653 0
M  V30 8389 H 781.416 0.617423 -0.244304 0
M  V30 8390 H 783.946 1.58215 -1.29727 0
M  V30 8391 H 783.956 3.98885 -0.857619 0
M  V30 8392 H 782.631 3.66613 -1.96386 0
M  V30 8393 H 781.208 3.72661 -0.133396 0
M  V30 8394 N 783.393 0.737304 1.3929 0
M  V30 8395 C 784.323 0.113988 2.33222 0
M  V30 8396 C 785.304 -0.721695 1.54031 0
M  V30 8397 O 786.489 -0.666206 1.82415 0
M  V30 8398 C 783.619 -0.792319 3.38141 0
M  V30 8399 C 782.573 -0.0606178 4.27957 0
M  V30 8400 C 781.899 -1.08409 5.23595 0
M  V30 8401 C 783.199 1.09817 5.10625 0
M  V30 8402 H 784.893 0.898611 2.85596 0
M  V30 8403 H 782.439 0.433571 1.37318 0
M  V30 8404 H 784.392 -1.23793 4.02807 0
M  V30 8405 H 783.116 -1.60908 2.84211 0
M  V30 8406 H 781.775 0.365393 3.64775 0
M  V30 8407 H 781.423 -1.89449 4.6596 0
M  V30 8408 H 781.123 -0.599269 5.84536 0
M  V30 8409 H 782.647 -1.52936 5.91137 0
M  V30 8410 H 784.061 0.730892 5.68622 0
M  V30 8411 H 782.458 1.51278 5.80719 0
M  V30 8412 H 783.528 1.91878 4.45321 0
M  V30 8413 N 784.871 -1.49948 0.485112 0
M  V30 8414 C 786.148 -1.95186 -0.12726 0
M  V30 8415 C 786.528 -1.42605 -1.5565 0
M  V30 8416 O 785.876 -0.632986 -2.19558 0
M  V30 8417 C 786.086 -3.48955 -0.0562117 0
M  V30 8418 C 787.434 -4.23932 -0.238106 0
M  V30 8419 O 788.458 -3.55955 -0.132145 0
M  V30 8420 O 787.317 -5.44614 -0.453658 0
M  V30 8421 H 784.411 -0.820433 -0.104014 0
M  V30 8422 H 786.957 -1.60659 0.546517 0
M  V30 8423 H 785.729 -3.79814 0.941122 0
M  V30 8424 H 785.352 -3.90056 -0.770834 0
M  V30 8425 N 786.349 -0.21828 -1.56081 0
M  V30 8426 C 787.765 0.137168 -1.59009 0
M  V30 8427 C 787.965 1.59215 -1.23503 0
M  V30 8428 O 787.021 2.33178 -0.968716 0
M  V30 8429 C 788.334 -0.186162 -3.00123 0
M  V30 8430 C 789.882 -0.128135 -3.12738 0
M  V30 8431 C 790.357 -0.425094 -4.56023 0
M  V30 8432 N 791.848 -0.374547 -4.61683 0
M  V30 8433 C 792.583 -0.57786 -5.70481 0
M  V30 8434 N 792.079 -0.842771 -6.87655 0
M  V30 8435 N 793.872 -0.510521 -5.59777 0
M  V30 8436 H 786.023 -1.16746 -1.77437 0
M  V30 8437 H 788.286 -0.467706 -0.824594 0
M  V30 8438 H 787.992 -1.19589 -3.30744 0
M  V30 8439 H 787.866 0.500388 -3.73866 0
M  V30 8440 H 790.253 0.872224 -2.81915 0
M  V30 8441 H 790.334 -0.848112 -2.41331 0
M  V30 8442 H 789.978 -1.42288 -4.87562 0
M  V30 8443 H 789.908 0.316038 -5.25651 0
M  V30 8444 H 792.399 -0.177356 -3.77484 0
M  V30 8445 H 792.712 -0.986095 -7.66483 0
M  V30 8446 H 791.057 -0.879929 -6.89407 0
M  V30 8447 H 794.248 -0.303813 -4.67113 0
M  V30 8448 H 794.421 -0.672378 -6.44502 0
M  V30 8449 N 787.827 1.57504 0.0551401 0
M  V30 8450 C 789.243 1.54236 0.410292 0
M  V30 8451 C 789.443 0.940839 1.78187 0
M  V30 8452 O 788.499 0.550541 2.46425 0
M  V30 8453 C 789.812 2.98816 0.336064 0
M  V30 8454 C 791.36 3.10236 0.415047 0
M  V30 8455 C 791.835 4.56499 0.37055 0
M  V30 8456 N 793.326 4.61199 0.43013 0
M  V30 8457 C 794.061 5.71873 0.418179 0
M  V30 8458 N 793.557 6.91864 0.360056 0
M  V30 8459 N 795.35 5.60165 0.465977 0
M  V30 8460 H 787.501 1.94965 -0.842759 0
M  V30 8461 H 789.764 0.893096 -0.317937 0
M  V30 8462 H 789.47 3.4645 -0.605429 0
M  V30 8463 H 789.344 3.59564 1.13988 0
M  V30 8464 H 791.731 2.62566 1.34697 0
M  V30 8465 H 791.812 2.52367 -0.417648 0
M  V30 8466 H 791.456 5.0483 -0.557592 0
M  V30 8467 H 791.386 5.12249 1.221 0
M  V30 8468 H 793.877 3.74857 0.478623 0
M  V30 8469 H 794.19 7.71983 0.35532 0
M  V30 8470 H 792.535 6.94233 0.326492 0
M  V30 8471 H 795.726 4.65322 0.509194 0
M  V30 8472 H 795.899 6.46413 0.453194 0
M  V30 8473 N 789.305 -0.326896 1.54172 0
M  V30 8474 C 790.553 -1.06313 1.71878 0
M  V30 8475 C 790.874 -1.88652 0.493498 0
M  V30 8476 O 790.144 -1.89608 -0.492522 0
M  V30 8477 H 788.724 -0.39549 0.633716 0
M  V30 8478 H 791.386 -0.364139 1.91468 0
M  V30 8479 H 790.482 -1.73105 2.59694 0
M  V30 8480 N 790.784 -1.46188 -0.588786 0
M  V30 8481 C 792.033 -1.50452 -1.34339 0
M  V30 8482 C 792.346 -0.158096 -1.9496 0
M  V30 8483 O 793.552 -0.0784918 -2.71387 0
M  V30 8484 C 792.008 -2.65074 -2.43441 0
M  V30 8485 C 791.616 -4.06111 -1.8915 0
M  V30 8486 C 793.36 -2.78603 -3.20282 0
M  V30 8487 C 791.267 -5.12084 -2.95845 0
M  V30 8488 H 790.197 -0.559905 -0.504997 0
M  V30 8489 H 792.848 -1.72382 -0.629014 0
M  V30 8490 H 791.23 -2.36462 -3.1765 0
M  V30 8491 H 792.404 -4.44487 -1.21524 0
M  V30 8492 H 790.719 -3.97197 -1.24995 0
M  V30 8493 H 793.316 -3.54944 -3.99898 0
M  V30 8494 H 793.659 -1.85902 -3.72486 0
M  V30 8495 H 794.192 -3.06832 -2.53178 0
M  V30 8496 H 790.931 -6.06556 -2.48535 0
M  V30 8497 H 790.451 -4.78259 -3.61979 0
M  V30 8498 H 792.13 -5.37661 -3.59902 0
M  V30 8499 N 792.262 0.832906 -1.33792 0
M  V30 8500 C 793.194 1.95042 -1.2038 0
M  V30 8501 C 794.207 1.62253 -0.133299 0
M  V30 8502 O 795.396 1.74315 -0.384261 0
M  V30 8503 C 792.496 3.287 -0.825215 0
M  V30 8504 C 791.669 3.89581 -1.98861 0
M  V30 8505 C 790.728 5.01602 -1.59003 0
M  V30 8506 O 789.754 5.20431 -2.30522 0
M  V30 8507 N 790.956 5.78356 -0.498446 0
M  V30 8508 H 793.721 2.07083 -2.16649 0
M  V30 8509 H 791.282 1.00896 -1.26616 0
M  V30 8510 H 793.274 4.01074 -0.540559 0
M  V30 8511 H 791.844 3.12565 0.0469796 0
M  V30 8512 H 791.064 3.09723 -2.43856 0
M  V30 8513 H 792.352 4.26989 -2.76691 0
M  V30 8514 H 791.75 5.65618 0.0963297 0
M  V30 8515 H 790.307 6.51226 -0.273485 0
M  V30 8516 N 793.74 1.17359 1.05189 0
M  V30 8517 C 795.156 0.920861 1.30355 0
M  V30 8518 C 795.356 -0.419993 1.97074 0
M  V30 8519 O 794.412 -1.15696 2.24434 0
M  V30 8520 C 795.725 2.07818 2.1733 0
M  V30 8521 C 797.273 2.1152 2.30712 0
M  V30 8522 C 797.748 3.26637 3.21048 0
M  V30 8523 N 799.239 3.26426 3.28634 0
M  V30 8524 C 799.974 4.12141 3.98657 0
M  V30 8525 N 799.47 5.07966 4.71107 0
M  V30 8526 N 801.263 4.00091 3.94821 0
M  V30 8527 H 793.414 2.03666 0.602821 0
M  V30 8528 H 795.677 0.889294 0.328421 0
M  V30 8529 H 795.383 3.04727 1.75597 0
M  V30 8530 H 795.257 2.02922 3.17966 0
M  V30 8531 H 797.644 1.15196 2.71687 0
M  V30 8532 H 797.725 2.20477 1.29706 0
M  V30 8533 H 797.369 4.23227 2.80788 0
M  V30 8534 H 797.299 3.14917 4.2206 0
M  V30 8535 H 799.79 2.57045 2.77013 0
M  V30 8536 H 800.103 5.69766 5.22099 0
M  V30 8537 H 798.448 5.11936 4.7005 0
M  V30 8538 H 801.639 3.24523 3.37346 0
M  V30 8539 H 801.812 4.6711 4.49123 0
M  V30 8540 N 795.218 -1.23913 0.973828 0
M  V30 8541 C 796.181 -2.23367 0.51378 0
M  V30 8542 C 797.181 -1.55923 -0.39302 0
M  V30 8543 O 798.371 -1.73187 -0.187626 0
M  V30 8544 C 795.503 -3.39944 -0.255152 0
M  V30 8545 H 796.696 -2.65581 1.39307 0
M  V30 8546 H 794.249 -1.36632 0.759039 0
M  V30 8547 H 794.984 -3.03177 -1.15127 0
M  V30 8548 H 794.769 -3.90098 0.395673 0
M  V30 8549 H 796.259 -4.13749 -0.565842 0
M  V30 8550 N 796.696 -0.74468 -1.38897 0
M  V30 8551 C 797.659 -0.11945 -2.28889 0
M  V30 8552 C 798.659 0.656942 -1.46768 0
M  V30 8553 O 799.849 0.484525 -1.67326 0
M  V30 8554 C 796.981 0.839635 -3.30398 0
M  V30 8555 H 798.174 -0.912414 -2.85683 0
M  V30 8556 H 795.727 -0.511119 -1.47707 0
M  V30 8557 H 796.462 1.6586 -2.78677 0
M  V30 8558 H 796.247 0.285432 -3.9106 0
M  V30 8559 H 797.737 1.27337 -3.97712 0
M  V30 8560 N 798.174 1.49689 -0.493057 0
M  V30 8561 C 799.451 1.9525 0.116907 0
M  V30 8562 C 799.831 1.43429 1.54892 0
M  V30 8563 O 799.179 0.644621 2.19219 0
M  V30 8564 C 799.389 3.4898 0.037705 0
M  V30 8565 C 800.737 4.24052 0.215621 0
M  V30 8566 O 801.761 3.5602 0.113266 0
M  V30 8567 O 800.62 5.44847 0.42477 0
M  V30 8568 H 797.714 0.820973 0.099662 0
M  V30 8569 H 800.26 1.60367 -0.555029 0
M  V30 8570 H 799.032 3.79309 -0.961251 0
M  V30 8571 H 798.655 3.9046 0.750137 0
M  V30 8572 N 799.652 0.226554 1.55963 0
M  V30 8573 C 800.901 -0.40417 1.97609 0
M  V30 8574 C 801.214 -1.60541 1.1174 0
M  V30 8575 O 802.42 -2.30598 1.43307 0
M  V30 8576 C 800.876 -0.770466 3.51556 0
M  V30 8577 C 800.484 0.408244 4.46136 0
M  V30 8578 C 802.228 -1.36651 4.01904 0
M  V30 8579 C 800.135 0.0192347 5.91397 0
M  V30 8580 H 799.065 -0.15478 0.737943 0
M  V30 8581 H 801.716 0.323558 1.80625 0
M  V30 8582 H 800.098 -1.55575 3.6416 0
M  V30 8583 H 801.272 1.18575 4.45283 0
M  V30 8584 H 799.587 0.917859 4.06158 0
M  V30 8585 H 802.184 -1.67055 5.07934 0
M  V30 8586 H 802.527 -2.28403 3.48049 0
M  V30 8587 H 803.06 -0.644556 3.92543 0
M  V30 8588 H 799.799 0.90336 6.49245 0
M  V30 8589 H 799.319 -0.722485 5.95433 0
M  V30 8590 H 800.998 -0.405711 6.45727 0
M  V30 8591 N 801.13 -1.57531 -0.0467866 0
M  V30 8592 C 802.04 -2.08768 -1.07018 0
M  V30 8593 C 803.056 -1.02245 -1.40791 0
M  V30 8594 O 804.232 -1.33873 -1.50466 0
M  V30 8595 C 801.297 -2.54221 -2.35738 0
M  V30 8596 C 800.358 -3.75152 -2.08709 0
M  V30 8597 C 799.591 -4.18428 -3.31291 0
M  V30 8598 O 799.814 -3.61365 -4.4133 0
M  V30 8599 O 798.748 -5.11018 -3.18032 0
M  V30 8600 H 802.574 -2.96334 -0.664812 0
M  V30 8601 H 800.159 -1.47074 -0.262605 0
M  V30 8602 H 802.041 -2.83866 -3.11445 0
M  V30 8603 H 800.716 -1.69774 -2.75605 0
M  V30 8604 H 799.623 -3.50553 -1.30627 0
M  V30 8605 H 800.956 -4.60528 -1.73708 0
M  V30 8606 N 802.608 0.318715 -1.54344 0
M  V30 8607 C 803.54 1.41364 -1.80413 0
M  V30 8608 C 804.553 1.47627 -0.686294 0
M  V30 8609 O 805.742 1.50264 -0.963486 0
M  V30 8610 C 802.842 2.79867 -1.91123 0
M  V30 8611 C 802.015 2.96749 -3.21339 0
M  V30 8612 C 801.074 4.15642 -3.22689 0
M  V30 8613 O 800.1 4.08571 -3.96306 0
M  V30 8614 N 801.302 5.25416 -2.46817 0
M  V30 8615 H 804.067 1.19363 -2.74905 0
M  V30 8616 H 801.628 0.508722 -1.537 0
M  V30 8617 H 803.62 3.57619 -1.89448 0
M  V30 8618 H 802.19 2.94896 -1.03706 0
M  V30 8619 H 801.41 2.06257 -3.35934 0
M  V30 8620 H 802.698 3.04927 -4.07304 0
M  V30 8621 H 802.096 5.34037 -1.86605 0
M  V30 8622 H 800.653 6.01569 -2.50915 0
M  V30 8623 N 804.086 1.46499 0.581025 0
M  V30 8624 C 805.018 1.53225 1.70455 0
M  V30 8625 C 806.031 0.420443 1.57277 0
M  V30 8626 O 807.22 0.688888 1.64671 0
M  V30 8627 C 804.32 1.39803 3.08721 0
M  V30 8628 C 803.493 2.65132 3.47884 0
M  V30 8629 C 802.552 2.45886 4.65217 0
M  V30 8630 O 801.578 3.19615 4.70993 0
M  V30 8631 N 802.78 1.5216 5.60203 0
M  V30 8632 H 805.545 2.50098 1.65139 0
M  V30 8633 H 803.106 1.42576 0.76705 0
M  V30 8634 H 805.098 1.24697 3.8501 0
M  V30 8635 H 803.668 0.51104 3.08394 0
M  V30 8636 H 802.888 2.95169 2.61284 0
M  V30 8637 H 804.176 3.48385 3.70817 0
M  V30 8638 H 803.574 0.913646 5.58273 0
M  V30 8639 H 802.131 1.43017 6.35916 0
M  V30 8640 N 805.565 -0.825799 1.34232 0
M  V30 8641 C 806.528 -1.91808 1.25468 0
M  V30 8642 C 807.528 -1.59893 0.170567 0
M  V30 8643 O 808.718 -1.68986 0.422996 0
M  V30 8644 C 805.85 -3.27786 0.93644 0
M  V30 8645 H 807.043 -2.01003 2.22571 0
M  V30 8646 H 804.596 -1.01944 1.18479 0
M  V30 8647 H 805.331 -3.24285 -0.0315408 0
M  V30 8648 H 805.116 -3.52333 1.72057 0
M  V30 8649 H 806.606 -4.07782 0.900214 0
M  V30 8650 N 807.043 -1.17915 -1.04565 0
M  V30 8651 C 808.289 -0.972863 -1.77942 0
M  V30 8652 C 808.622 0.496753 -1.87739 0
M  V30 8653 O 807.897 1.3688 -1.38181 0
M  V30 8654 C 808.18 -1.62227 -3.21488 0
M  V30 8655 C 808.033 -3.16441 -3.19664 0
M  V30 8656 C 809.352 -1.33137 -4.19479 0
M  V30 8657 H 806.471 -0.354843 -0.645953 0
M  V30 8658 H 809.113 -1.45508 -1.22178 0
M  V30 8659 H 807.263 -1.21224 -3.69103 0
M  V30 8660 H 808.935 -3.66544 -2.80077 0
M  V30 8661 H 807.178 -3.48863 -2.57832 0
M  V30 8662 H 807.849 -3.57012 -4.21006 0
M  V30 8663 H 810.325 -1.68654 -3.80388 0
M  V30 8664 H 809.201 -1.81151 -5.18146 0
M  V30 8665 H 809.462 -0.253319 -4.41374 0
M  V30 8666 N 808.521 1.23394 -0.980386 0
M  V30 8667 C 809.768 1.91809 -0.649261 0
M  V30 8668 C 810.096 1.765 0.817197 0
M  V30 8669 O 809.351 1.11979 1.60497 0
M  V30 8670 C 809.65 3.43542 -0.985588 0
M  V30 8671 C 809.316 3.79031 -2.44225 0
M  V30 8672 C 807.978 3.88429 -2.84035 0
M  V30 8673 C 810.33 3.96145 -3.38702 0
M  V30 8674 C 807.658 4.12368 -4.17336 0
M  V30 8675 C 810.01 4.21583 -4.71646 0
M  V30 8676 C 808.674 4.29203 -5.11215 0
M  V30 8677 H 807.944 0.70188 -0.237581 0
M  V30 8678 H 810.591 1.4642 -1.23424 0
M  V30 8679 H 808.896 3.90503 -0.318521 0
M  V30 8680 H 810.593 3.94708 -0.707596 0
M  V30 8681 H 807.183 3.7229 -2.12362 0
M  V30 8682 H 811.367 3.88274 -3.09123 0
M  V30 8683 H 806.623 4.1649 -4.47601 0
M  V30 8684 H 810.797 4.33769 -5.4481 0
M  V30 8685 H 808.424 4.47505 -6.14527 0
M  V30 8686 N 809.999 0.752036 1.385 0
M  V30 8687 C 810.962 0.131587 2.28822 0
M  V30 8688 C 811.962 -0.649149 1.47115 0
M  V30 8689 O 813.152 -0.475645 1.67581 0
M  V30 8690 C 810.284 -0.822101 3.30839 0
M  V30 8691 H 811.477 0.927551 2.85196 0
M  V30 8692 H 809.03 0.518945 1.47434 0
M  V30 8693 H 809.765 -1.6438 2.79553 0
M  V30 8694 H 809.55 -0.264689 3.91206 0
M  V30 8695 H 811.04 -1.25226 3.98382 0
M  V30 8696 N 811.477 -1.49425 0.500989 0
M  V30 8697 C 812.723 -2.02753 -0.0436 0
M  V30 8698 C 813.056 -1.37991 -1.36646 0
M  V30 8699 O 812.331 -0.515597 -1.87542 0
M  V30 8700 C 812.614 -3.59565 -0.19616 0
M  V30 8701 C 812.467 -4.34855 1.14982 0
M  V30 8702 C 813.786 -4.30014 -0.936795 0
M  V30 8703 H 810.905 -0.73686 -0.0143711 0
M  V30 8704 H 813.547 -1.78448 0.652397 0
M  V30 8705 H 811.697 -3.80405 -0.788959 0
M  V30 8706 H 813.369 -4.25512 1.7815 0
M  V30 8707 H 811.612 -3.97414 1.73911 0
M  V30 8708 H 812.283 -5.42933 0.996385 0
M  V30 8709 H 814.759 -4.1383 -0.434036 0
M  V30 8710 H 813.635 -5.39483 -1.01238 0
M  V30 8711 H 813.896 -3.95257 -1.9805 0
M  V30 8712 N 812.955 -0.234822 -1.55841 0
M  V30 8713 C 814.202 0.39326 -1.98645 0
M  V30 8714 C 814.53 1.58823 -1.12274 0
M  V30 8715 O 813.785 1.94954 -0.170731 0
M  V30 8716 C 814.084 0.858032 -3.46947 0
M  V30 8717 C 813.75 -0.227858 -4.50324 0
M  V30 8718 C 812.412 -0.526128 -4.78315 0
M  V30 8719 C 814.764 -0.961576 -5.12253 0
M  V30 8720 C 812.092 -1.5624 -5.65514 0
M  V30 8721 C 814.444 -1.98728 -6.00575 0
M  V30 8722 C 813.108 -2.29233 -6.26904 0
M  V30 8723 H 812.378 0.143904 -0.726892 0
M  V30 8724 H 815.025 -0.34012 -1.88455 0
M  V30 8725 H 813.33 1.67041 -3.54408 0
M  V30 8726 H 815.027 1.35407 -3.77447 0
M  V30 8727 H 811.617 0.0147624 -4.28597 0
M  V30 8728 H 815.801 -0.744388 -4.90686 0
M  V30 8729 H 811.057 -1.80422 -5.84173 0
M  V30 8730 H 815.231 -2.5608 -6.47608 0
M  V30 8731 H 812.858 -3.09671 -6.94268 0
M  V30 8732 N 814.433 1.57553 0.0384317 0
M  V30 8733 C 815.71 1.79977 0.766002 0
M  V30 8734 C 816.09 0.830625 1.94072 0
M  V30 8735 O 815.438 -0.129243 2.28134 0
M  V30 8736 C 815.648 3.27434 1.20781 0
M  V30 8737 C 816.996 3.92167 1.62758 0
M  V30 8738 O 818.02 3.31527 1.30263 0
M  V30 8739 O 816.879 4.98917 2.23035 0
M  V30 8740 H 813.973 0.739787 0.369654 0
M  V30 8741 H 816.519 1.69693 0.0159312 0
M  V30 8742 H 815.291 3.89558 0.368792 0
M  V30 8743 H 814.914 3.42571 2.01819 0
M  V30 8744 N 815.911 -0.310526 1.54511 0
M  V30 8745 C 816.821 -1.4054 1.87844 0
M  V30 8746 C 817.837 -1.55954 0.771635 0
M  V30 8747 O 819.013 -1.70801 1.06719 0
M  V30 8748 C 816.078 -2.75063 2.11048 0
M  V30 8749 C 815.139 -2.68715 3.348 0
M  V30 8750 C 814.372 -3.96821 3.56887 0
M  V30 8751 O 814.595 -4.95721 2.82165 0
M  V30 8752 O 813.529 -3.99291 4.50389 0
M  V30 8753 H 817.355 -1.15275 2.80972 0
M  V30 8754 H 814.94 -0.505732 1.4058 0
M  V30 8755 H 816.822 -3.54671 2.27566 0
M  V30 8756 H 815.497 -3.00191 1.21108 0
M  V30 8757 H 814.404 -1.87611 3.23655 0
M  V30 8758 H 815.737 -2.4854 4.2484 0
M  V30 8759 N 817.389 -1.46805 -0.573248 0
M  V30 8760 C 818.337 -1.58468 -1.70267 0
M  V30 8761 C 819.331 -0.452694 -1.63239 0
M  V30 8762 O 820.537 -0.629915 -1.68618 0
M  V30 8763 H 816.912 -0.498408 -0.56311 0
M  V30 8764 H 818.883 -2.5341 -1.57563 0
M  V30 8765 C 817.632 -1.60104 -3.08645 0
M  V30 8766 H 816.955 -2.4655 -3.14727 0
M  V30 8767 H 818.395 -1.72318 -3.87405 0
M  V30 8768 C 816.854 -0.33138 -3.35266 0
M  V30 8769 O 817.384 0.57438 -3.97572 0
M  V30 8770 N 815.59 -0.216358 -2.89793 0
M  V30 8771 H 815.137 -0.954345 -2.3927 0
M  V30 8772 H 815.095 0.632253 -3.07977 0
M  V30 8773 N 818.867 0.818669 -1.34668 0
M  V30 8774 C 819.814 1.92983 -1.26595 0
M  V30 8775 C 820.784 1.65506 -0.140315 0
M  V30 8776 O 821.969 1.88063 -0.322005 0
M  V30 8777 C 819.109 3.2932 -1.03163 0
M  V30 8778 C 818.222 3.69061 -2.24539 0
M  V30 8779 C 817.357 4.94368 -1.94355 0
M  V30 8780 C 816.396 5.26702 -3.11851 0
M  V30 8781 N 815.533 6.43187 -2.81522 0
M  V30 8782 H 820.373 1.99219 -2.2162 0
M  V30 8783 H 817.91 0.974612 -1.1018 0
M  V30 8784 H 819.868 4.07897 -0.87613 0
M  V30 8785 H 818.498 3.22584 -0.118045 0
M  V30 8786 H 817.55 2.85842 -2.50995 0
M  V30 8787 H 818.862 3.88924 -3.12313 0
M  V30 8788 H 818.016 5.80742 -1.75566 0
M  V30 8789 H 816.755 4.76515 -1.03848 0
M  V30 8790 H 815.76 4.38823 -3.31231 0
M  V30 8791 H 816.985 5.46492 -4.03142 0
M  V30 8792 H 814.931 6.26783 -1.93596 0
M  V30 8793 H 814.848 6.63243 -3.62829 0
M  V30 8794 H 816.116 7.32621 -2.66247 0
M  V30 8795 N 820.346 1.18468 1.03938 0
M  V30 8796 C 821.571 1.00638 1.81347 0
M  V30 8797 C 821.996 -0.440477 1.8287 0
M  V30 8798 O 821.354 -1.31609 1.24695 0
M  V30 8799 C 821.402 1.5673 3.24759 0
M  V30 8800 O 820.506 0.789517 4.04772 0
M  V30 8801 H 819.847 0.356432 0.560225 0
M  V30 8802 H 822.377 1.57253 1.30891 0
M  V30 8803 H 822.387 1.59496 3.75533 0
M  V30 8804 H 821.062 2.62043 3.22965 0
M  V30 8805 H 819.639 0.834267 3.63448 0
M  V30 8806 N 821.824 -1.22873 0.986916 0
M  V30 8807 C 823.07 -1.92047 0.670042 0
M  V30 8808 C 823.425 -1.75497 -0.788587 0
M  V30 8809 O 822.718 -1.10934 -1.56218 0
M  V30 8810 C 822.912 -3.43014 1.00379 0
M  V30 8811 C 822.741 -3.74251 2.49332 0
M  V30 8812 C 821.511 -3.94589 3.15638 0
M  V30 8813 C 823.709 -3.79208 3.47428 0
M  V30 8814 N 821.691 -4.13086 4.54129 0
M  V30 8815 C 823.062 -4.02775 4.71352 0
M  V30 8816 C 825.117 -3.62029 3.41818 0
M  V30 8817 C 823.82 -4.10946 5.90352 0
M  V30 8818 C 825.846 -3.71457 4.60189 0
M  V30 8819 C 825.208 -3.95468 5.82911 0
M  V30 8820 H 821.307 -0.723668 0.29636 0
M  V30 8821 H 823.891 -1.47946 1.26571 0
M  V30 8822 H 822.062 -3.85936 0.436762 0
M  V30 8823 H 823.794 -3.99551 0.643522 0
M  V30 8824 H 820.549 -3.91762 2.66119 0
M  V30 8825 H 820.973 -4.26275 5.25945 0
M  V30 8826 H 825.615 -3.42457 2.47958 0
M  V30 8827 H 823.333 -4.29324 6.84621 0
M  V30 8828 H 826.919 -3.59511 4.57431 0
M  V30 8829 H 825.799 -4.02584 6.72975 0
M  V30 8830 N 823.302 -0.75937 -1.38099 0
M  V30 8831 C 824.532 -0.328634 -2.0397 0
M  V30 8832 C 824.94 1.04989 -1.57398 0
M  V30 8833 O 824.283 1.67918 -0.744932 0
M  V30 8834 C 824.345 -0.279216 -3.58414 0
M  V30 8835 C 824.009 -1.60025 -4.28067 0
M  V30 8836 C 825.006 -2.55048 -4.53041 0
M  V30 8837 C 822.691 -1.87128 -4.66142 0
M  V30 8838 C 824.685 -3.7539 -5.15132 0
M  V30 8839 C 822.372 -3.07742 -5.27956 0
M  V30 8840 C 823.37 -4.01694 -5.52387 0
M  V30 8841 O 823.058 -5.20186 -6.12912 0
M  V30 8842 H 822.79 -0.137443 -0.66188 0
M  V30 8843 H 825.344 -1.03082 -1.77661 0
M  V30 8844 H 823.574 0.479254 -3.83719 0
M  V30 8845 H 825.263 0.122781 -4.05714 0
M  V30 8846 H 826.029 -2.35387 -4.24049 0
M  V30 8847 H 821.908 -1.14833 -4.46469 0
M  V30 8848 H 825.452 -4.48737 -5.34117 0
M  V30 8849 H 821.349 -3.27294 -5.56371 0
M  V30 8850 H 822.117 -5.20846 -6.31397 0
M  V30 8851 N 824.78 1.49157 -0.508906 0
M  V30 8852 C 825.71 2.32109 0.254469 0
M  V30 8853 C 826.691 1.40754 0.955111 0
M  V30 8854 O 827.876 1.69658 0.944983 0
M  V30 8855 C 825.006 3.21458 1.3146 0
M  V30 8856 C 823.96 4.2167 0.733368 0
M  V30 8857 C 823.286 5.00009 1.8946 0
M  V30 8858 C 824.586 5.21544 -0.280875 0
M  V30 8859 H 826.28 2.9618 -0.43795 0
M  V30 8860 H 823.826 1.4243 -0.212062 0
M  V30 8861 H 825.779 3.78305 1.85643 0
M  V30 8862 H 824.503 2.55346 2.03632 0
M  V30 8863 H 823.162 3.65979 0.213231 0
M  V30 8864 H 822.81 4.30338 2.60419 0
M  V30 8865 H 822.51 5.67821 1.51173 0
M  V30 8866 H 824.034 5.59702 2.44061 0
M  V30 8867 H 825.448 5.73039 0.173095 0
M  V30 8868 H 823.845 5.97291 -0.580006 0
M  V30 8869 H 824.915 4.69969 -1.19404 0
M  V30 8870 N 826.258 0.243083 1.55714 0
M  V30 8871 C 827.168 -0.668913 2.24862 0
M  V30 8872 C 828.184 -1.19638 1.26344 0
M  V30 8873 O 829.36 -1.23345 1.5921 0
M  V30 8874 C 826.425 -1.85084 2.93163 0
M  V30 8875 C 825.486 -1.36323 4.07081 0
M  V30 8876 C 824.719 -2.48882 4.72116 0
M  V30 8877 O 824.942 -3.67523 4.36214 0
M  V30 8878 O 823.876 -2.18857 5.60701 0
M  V30 8879 H 827.702 -0.109737 3.03502 0
M  V30 8880 H 825.287 0.0117411 1.49395 0
M  V30 8881 H 827.169 -2.54065 3.36197 0
M  V30 8882 H 825.844 -2.39771 2.17466 0
M  V30 8883 H 824.751 -0.640804 3.68571 0
M  V30 8884 H 826.084 -0.86249 4.84584 0
M  V30 8885 N 827.736 -1.57571 -0.0300757 0
M  V30 8886 C 829.013 -1.80381 -0.756447 0
M  V30 8887 C 829.393 -0.840906 -1.93628 0
M  V30 8888 O 828.741 0.117143 -2.282 0
M  V30 8889 C 828.951 -3.2807 -1.19043 0
M  V30 8890 C 830.299 -3.93025 -1.60676 0
M  V30 8891 O 831.323 -3.32213 -1.28503 0
M  V30 8892 O 830.182 -5.00092 -2.20386 0
M  V30 8893 H 827.276 -0.741737 -0.365725 0
M  V30 8894 H 829.822 -1.69699 -0.00693177 0
M  V30 8895 H 828.594 -3.89748 -0.348128 0
M  V30 8896 H 828.217 -3.43637 -1.99999 0
M  V30 8897 N 829.214 0.302327 -1.54673 0
M  V30 8898 C 830.162 1.39286 -1.86285 0
M  V30 8899 C 831.156 1.52553 -0.736478 0
M  V30 8900 O 832.362 1.54686 -0.92045 0
M  V30 8901 H 828.737 0.465228 -0.590819 0
M  V30 8902 H 830.708 1.09859 -2.77441 0
M  V30 8903 C 829.457 2.75155 -2.12567 0
M  V30 8904 H 828.78 2.65728 -2.98712 0
M  V30 8905 H 830.22 3.50476 -2.38627 0
M  V30 8906 C 828.679 3.23987 -0.923813 0
M  V30 8907 O 829.209 4.01443 -0.143649 0
M  V30 8908 N 827.415 2.81293 -0.72956 0
M  V30 8909 H 826.962 2.18421 -1.36565 0
M  V30 8910 H 826.92 3.14315 0.0730351 0
M  V30 8911 N 830.692 1.47107 0.565454 0
M  V30 8912 C 831.941 1.5257 1.31929 0
M  V30 8913 C 832.254 0.189092 1.94684 0
M  V30 8914 O 833.46 0.121657 2.71227 0
M  V30 8915 C 831.916 2.68914 2.39193 0
M  V30 8916 C 831.524 4.09069 1.82665 0
M  V30 8917 C 833.268 2.83663 3.1581 0
M  V30 8918 C 831.175 5.16726 2.87661 0
M  V30 8919 H 830.105 0.567869 0.496025 0
M  V30 8920 H 832.756 1.73361 0.60151 0
M  V30 8921 H 831.138 2.41486 3.13848 0
M  V30 8922 H 832.312 4.46364 1.14438 0
M  V30 8923 H 830.627 3.99135 1.1866 0
M  V30 8924 H 833.224 3.61261 3.94201 0
M  V30 8925 H 833.567 1.91804 3.69482 0
M  V30 8926 H 834.1 3.10821 2.48265 0
M  V30 8927 H 830.839 6.10433 2.38854 0
M  V30 8928 H 830.359 4.83957 3.54324 0
M  V30 8929 H 832.038 5.43319 3.51303 0
M  V30 8930 N 832.17 -0.811516 1.35101 0
M  V30 8931 C 833.118 -1.94449 1.27642 0
M  V30 8932 C 834.112 -1.68522 0.172287 0
M  V30 8933 O 835.318 -1.76799 0.337967 0
M  V30 8934 H 831.693 -0.638776 0.396824 0
M  V30 8935 H 833.664 -1.97861 2.23369 0
M  V30 8936 C 832.413 -3.31139 1.06029 0
M  V30 8937 H 831.736 -3.51644 1.90227 0
M  V30 8938 H 833.176 -4.10831 1.0485 0
M  V30 8939 C 831.635 -3.36072 -0.236039 0
M  V30 8940 O 832.165 -3.82292 -1.23353 0
M  V30 8941 N 830.371 -2.89314 -0.273107 0
M  V30 8942 H 829.918 -2.51893 0.539211 0
M  V30 8943 H 829.876 -2.92996 -1.1402 0
M  V30 8944 N 833.648 -1.19017 -1.03309 0
M  V30 8945 C 834.595 -0.924088 -2.11493 0
M  V30 8946 C 835.565 0.139464 -1.65513 0
M  V30 8947 O 836.75 -0.00178761 -1.908 0
M  V30 8948 C 833.89 -0.464255 -3.41963 0
M  V30 8949 C 833.003 -1.5941 -4.01513 0
M  V30 8950 C 832.138 -1.08622 -5.19976 0
M  V30 8951 C 831.177 -2.19024 -5.71572 0
M  V30 8952 N 830.314 -1.69575 -6.81314 0
M  V30 8953 H 835.154 -1.85039 -2.33591 0
M  V30 8954 H 832.691 -0.922593 -1.14572 0
M  V30 8955 H 834.649 -0.179078 -4.16815 0
M  V30 8956 H 833.279 0.425062 -3.19989 0
M  V30 8957 H 832.331 -1.99458 -3.23915 0
M  V30 8958 H 833.643 -2.42604 -4.35826 0
M  V30 8959 H 832.797 -0.756022 -6.01971 0
M  V30 8960 H 831.536 -0.223955 -4.87186 0
M  V30 8961 H 830.541 -2.5288 -4.88193 0
M  V30 8962 H 831.766 -3.05699 -6.06403 0
M  V30 8963 H 829.712 -0.856494 -6.50385 0
M  V30 8964 H 829.629 -2.46361 -7.14732 0
M  V30 8965 H 830.897 -1.39505 -7.66915 0
M  V30 8966 N 835.127 1.22348 -0.993418 0
M  V30 8967 C 836.374 1.9111 -0.669568 0
M  V30 8968 C 836.702 1.77357 0.79843 0
M  V30 8969 O 835.957 1.13675 1.593 0
M  V30 8970 C 836.256 3.42477 -1.02197 0
M  V30 8971 C 835.922 3.7642 -2.48232 0
M  V30 8972 C 834.584 3.85395 -2.88139 0
M  V30 8973 C 836.936 3.9253 -3.42884 0
M  V30 8974 C 834.264 4.07918 -4.21687 0
M  V30 8975 C 836.616 4.16557 -4.76091 0
M  V30 8976 C 835.28 4.23757 -5.15739 0
M  V30 8977 H 834.55 0.699321 -0.245012 0
M  V30 8978 H 837.197 1.45102 -1.2497 0
M  V30 8979 H 835.502 3.90143 -0.359921 0
M  V30 8980 H 837.199 3.93935 -0.74942 0
M  V30 8981 H 833.789 3.70017 -2.16299 0
M  V30 8982 H 837.973 3.84974 -3.13224 0
M  V30 8983 H 833.229 4.11719 -4.51993 0
M  V30 8984 H 837.403 4.27966 -5.4938 0
M  V30 8985 H 835.03 4.40962 -6.19239 0
M  V30 8986 N 836.605 0.766683 1.37694 0
M  V30 8987 C 837.845 0.333815 2.01656 0
M  V30 8988 C 838.209 -1.06813 1.59546 0
M  V30 8989 O 839.41 -1.60084 2.15932 0
M  V30 8990 C 837.681 0.467032 3.54335 0
M  V30 8991 S 839.24 0.118679 4.38639 0
M  V30 8992 H 836.058 0.128723 0.699251 0
M  V30 8993 H 838.66 1.00018 1.67978 0
M  V30 8994 H 837.364 1.48808 3.82471 0
M  V30 8995 H 836.895 -0.216066 3.92806 0
M  V30 8996 H 838.91 -1.08746 4.84137 0
M  V30 8997 N 838.083 -1.48885 0.516809 0
M  V30 8998 C 838.993 -2.33185 -0.257293 0
M  V30 8999 C 840.009 -1.4565 -0.951952 0
M  V30 9000 O 841.185 -1.78651 -0.929834 0
M  V30 9001 C 838.25 -3.21465 -1.29851 0
M  V30 9002 C 837.311 -4.24863 -0.615608 0
M  V30 9003 C 836.544 -5.08925 -1.60722 0
M  V30 9004 O 836.767 -4.9475 -2.83863 0
M  V30 9005 O 835.701 -5.90737 -1.15384 0
M  V30 9006 H 839.527 -3.00596 0.433131 0
M  V30 9007 H 837.112 -1.46792 0.277908 0
M  V30 9008 H 838.994 -3.76108 -1.90055 0
M  V30 9009 H 837.669 -2.5673 -1.97158 0
M  V30 9010 H 836.576 -3.74091 0.0265829 0
M  V30 9011 H 837.909 -4.92198 0.0152871 0
M  V30 9012 N 839.561 -0.251338 -1.55583 0
M  V30 9013 C 840.509 0.662534 -2.22965 0
M  V30 9014 C 841.503 1.17662 -1.21869 0
M  V30 9015 O 842.709 1.133 -1.39868 0
M  V30 9016 H 839.084 0.232151 -0.715269 0
M  V30 9017 H 841.055 0.0711252 -2.98315 0
M  V30 9018 C 839.804 1.84646 -2.94621 0
M  V30 9019 H 839.127 1.46003 -3.72187 0
M  V30 9020 H 840.567 2.46303 -3.45124 0
M  V30 9021 C 839.026 2.72034 -1.98744 0
M  V30 9022 O 839.556 3.71695 -1.52335 0
M  V30 9023 N 837.762 2.38695 -1.6575 0
M  V30 9024 H 837.309 1.57702 -2.03685 0
M  V30 9025 H 837.267 2.9744 -1.01867 0
M  V30 9026 N 841.039 1.57585 0.0217189 0
M  V30 9027 C 842.45 1.7787 0.567377 0
M  V30 9028 C 842.801 0.883337 1.7519 0
M  V30 9029 O 841.926 0.0800819 2.16252 0
M  V30 9030 C 842.521 3.2257 1.03606 0
M  V30 9031 C 841.08 3.44026 1.52718 0
M  V30 9032 C 840.227 2.73313 0.468545 0
M  V30 9033 H 843.178 1.57377 -0.2045 0
M  V30 9034 H 843.199 3.29488 1.9031 0
M  V30 9035 H 842.711 3.87711 0.173739 0
M  V30 9036 H 840.812 2.8407 2.41111 0
M  V30 9037 H 840.925 4.52659 1.56962 0
M  V30 9038 H 839.289 2.37299 0.925263 0
M  V30 9039 H 840.072 3.41141 -0.384438 0
M  V30 9040 N 842.517 -0.29412 1.54831 0
M  V30 9041 C 843.794 -1.04847 1.65126 0
M  V30 9042 C 844.174 -2.04996 0.503986 0
M  V30 9043 O 843.522 -2.22996 -0.498496 0
M  V30 9044 C 843.732 -1.72418 3.03435 0
M  V30 9045 C 845.08 -2.24362 3.60481 0
M  V30 9046 O 846.104 -1.8244 3.05932 0
M  V30 9047 O 844.963 -3.01196 4.56008 0
M  V30 9048 H 842.057 -0.485032 0.669831 0
M  V30 9049 H 844.603 -0.291659 1.67175 0
M  V30 9050 H 843.375 -0.997351 3.78376 0
M  V30 9051 H 842.998 -2.54839 3.05193 0
M  V30 9052 N 843.995 -1.47404 -0.557645 0
M  V30 9053 C 844.905 -1.62491 -1.69216 0
M  V30 9054 C 845.921 -0.507764 -1.66426 0
M  V30 9055 O 847.097 -0.775241 -1.85882 0
M  V30 9056 C 844.162 -1.63511 -3.05721 0
M  V30 9057 C 843.223 -2.86648 -3.1958 0
M  V30 9058 C 842.456 -2.87609 -4.49574 0
M  V30 9059 O 842.679 -1.97799 -5.35006 0
M  V30 9060 O 841.613 -3.79465 -4.67215 0
M  V30 9061 H 845.439 -2.58487 -1.59431 0
M  V30 9062 H 843.024 -1.30485 -0.7276 0
M  V30 9063 H 844.906 -1.66863 -3.86956 0
M  V30 9064 H 843.581 -0.706812 -3.15889 0
M  V30 9065 H 842.488 -2.8884 -2.37744 0
M  V30 9066 H 843.821 -3.7877 -3.14316 0
M  V30 9067 N 845.473 0.80434 -1.35529 0
M  V30 9068 C 846.719 1.56385 -1.29118 0
M  V30 9069 C 847.052 1.9374 0.133536 0
M  V30 9070 O 846.327 1.6153 1.08344 0
M  V30 9071 C 846.61 2.85097 -2.19981 0
M  V30 9072 C 846.463 2.54204 -3.7108 0
M  V30 9073 C 847.782 3.86817 -2.09907 0
M  V30 9074 H 844.901 0.567382 -0.470368 0
M  V30 9075 H 847.543 0.925235 -1.6595 0
M  V30 9076 H 845.693 3.39594 -1.88701 0
M  V30 9077 H 847.365 2.05872 -4.12813 0
M  V30 9078 H 845.608 1.87364 -3.91251 0
M  V30 9079 H 846.279 3.46068 -4.30048 0
M  V30 9080 H 848.755 3.41725 -2.37409 0
M  V30 9081 H 847.631 4.7465 -2.75678 0
M  V30 9082 H 847.892 4.28663 -1.08171 0
M  V30 9083 N 846.951 1.19563 1.02676 0
M  V30 9084 C 847.898 0.935291 2.11 0
M  V30 9085 C 848.868 -0.130685 1.65585 0
M  V30 9086 O 850.053 0.0119062 1.90796 0
M  V30 9087 C 847.193 0.482384 3.41712 0
M  V30 9088 C 846.306 1.61537 4.00662 0
M  V30 9089 C 845.441 1.11378 5.19392 0
M  V30 9090 C 844.48 2.22052 5.70403 0
M  V30 9091 N 843.617 1.73185 6.80405 0
M  V30 9092 H 848.457 1.86275 2.32606 0
M  V30 9093 H 845.994 0.928656 1.14081 0
M  V30 9094 H 847.952 0.20118 4.16715 0
M  V30 9095 H 846.582 -0.408086 3.2021 0
M  V30 9096 H 845.634 2.01173 3.22852 0
M  V30 9097 H 846.946 2.44912 4.34534 0
M  V30 9098 H 846.1 0.787935 6.01562 0
M  V30 9099 H 844.839 0.249789 4.8706 0
M  V30 9100 H 843.844 2.55465 4.86845 0
M  V30 9101 H 845.069 3.08911 6.04774 0
M  V30 9102 H 843.015 0.890973 6.49921 0
M  V30 9103 H 842.932 2.50148 7.13416 0
M  V30 9104 H 844.2 1.4357 7.66164 0
M  V30 9105 N 848.429 -1.21819 0.999893 0
M  V30 9106 C 849.845 -1.42847 0.711824 0
M  V30 9107 C 850.045 -1.88391 -0.714928 0
M  V30 9108 O 849.101 -2.0422 -1.48494 0
M  V30 9109 C 850.414 -2.46417 1.72334 0
M  V30 9110 C 851.962 -2.60207 1.73958 0
M  V30 9111 C 852.437 -3.67005 2.73992 0
M  V30 9112 N 853.928 -3.7447 2.72628 0
M  V30 9113 C 854.663 -4.56718 3.46693 0
M  V30 9114 N 854.159 -5.42904 4.3038 0
M  V30 9115 N 855.952 -4.51094 3.35366 0
M  V30 9116 H 848.103 -0.905656 1.92124 0
M  V30 9117 H 850.366 -0.459893 0.828977 0
M  V30 9118 H 850.072 -2.19914 2.74465 0
M  V30 9119 H 849.946 -3.45137 1.52186 0
M  V30 9120 H 852.333 -2.8605 0.725217 0
M  V30 9121 H 852.414 -1.61739 1.98177 0
M  V30 9122 H 852.058 -3.41908 3.75582 0
M  V30 9123 H 851.988 -4.65058 2.4704 0
M  V30 9124 H 854.479 -3.12895 2.11909 0
M  V30 9125 H 854.792 -6.02704 4.83702 0
M  V30 9126 H 853.137 -5.42463 4.34464 0
M  V30 9127 H 856.328 -3.82791 2.69423 0
M  V30 9128 H 856.501 -5.1496 3.93344 0
M  V30 9129 N 849.908 -0.773975 -1.37286 0
M  V30 9130 C 851.185 -0.263942 -1.93811 0
M  V30 9131 C 851.565 1.24138 -1.70743 0
M  V30 9132 O 850.913 2.02557 -1.05749 0
M  V30 9133 C 851.123 -0.639753 -3.43086 0
M  V30 9134 C 852.471 -0.610796 -4.20184 0
M  V30 9135 O 853.495 -0.579278 -3.51458 0
M  V30 9136 O 852.354 -0.639862 -5.42741 0
M  V30 9137 H 849.448 -0.0614331 -0.824715 0
M  V30 9138 H 851.994 -0.855477 -1.46559 0
M  V30 9139 H 850.766 -1.67856 -3.53469 0
M  V30 9140 H 850.389 -0.0212827 -3.97594 0
M  V30 9141 N 851.386 1.48609 -0.524698 0
M  V30 9142 C 852.663 1.95454 0.075465 0
M  V30 9143 C 853.043 1.46682 1.51814 0
M  V30 9144 O 852.391 0.690975 2.17802 0
M  V30 9145 C 852.601 3.48981 -0.0363273 0
M  V30 9146 C 853.949 4.24414 0.125624 0
M  V30 9147 O 854.973 3.5618 0.0377239 0
M  V30 9148 O 853.832 5.45625 0.309104 0
M  V30 9149 H 850.926 0.822902 0.0822256 0
M  V30 9150 H 853.472 1.59153 -0.588921 0
M  V30 9151 H 852.244 3.77185 -1.04149 0
M  V30 9152 H 851.867 3.91963 0.667146 0
M  V30 9153 N 852.864 0.259585 1.55447 0
M  V30 9154 C 854.275 -0.241165 1.85136 0
M  V30 9155 C 854.626 -1.56634 1.18153 0
M  V30 9156 O 853.751 -2.11359 0.464351 0
M  V30 9157 C 854.346 -0.444355 3.35873 0
M  V30 9158 C 852.905 -0.889354 3.65742 0
M  V30 9159 C 852.052 0.0262474 2.77288 0
M  V30 9160 H 855.003 0.481808 1.51209 0
M  V30 9161 H 855.024 -1.28517 3.58139 0
M  V30 9162 H 854.536 0.520289 3.84597 0
M  V30 9163 H 852.637 -1.86602 3.22507 0
M  V30 9164 H 852.75 -0.737432 4.73391 0
M  V30 9165 H 851.114 -0.487361 2.49994 0
M  V30 9166 H 851.897 0.986494 3.28821 0
M  V30 9167 N 854.342 -1.57594 -0.0133615 0
M  V30 9168 C 855.289 -2.07574 -1.00905 0
M  V30 9169 C 856.259 -0.968231 -1.34961 0
M  V30 9170 O 857.444 -1.23981 -1.45028 0
M  V30 9171 C 854.584 -2.5728 -2.30002 0
M  V30 9172 C 853.697 -3.81881 -2.01967 0
M  V30 9173 C 852.832 -4.20139 -3.25049 0
M  V30 9174 C 851.871 -5.37614 -2.92639 0
M  V30 9175 N 851.008 -5.71229 -4.08218 0
M  V30 9176 H 855.848 -2.92382 -0.575899 0
M  V30 9177 H 853.385 -1.4455 -0.272722 0
M  V30 9178 H 855.343 -2.84171 -3.05454 0
M  V30 9179 H 853.973 -1.75365 -2.71011 0
M  V30 9180 H 853.025 -3.61979 -1.16942 0
M  V30 9181 H 854.337 -4.67441 -1.74069 0
M  V30 9182 H 853.491 -4.48242 -4.08857 0
M  V30 9183 H 852.23 -3.33262 -3.56073 0
M  V30 9184 H 851.235 -5.09248 -2.07235 0
M  V30 9185 H 852.46 -6.26157 -2.62876 0
M  V30 9186 H 850.406 -4.8731 -4.39164 0
M  V30 9187 H 850.323 -6.51333 -3.83799 0
M  V30 9188 H 851.591 -6.03917 -4.92854 0
M  V30 9189 N 855.82 0.285905 -1.54985 0
M  V30 9190 C 857.067 1.0192 -1.74982 0
M  V30 9191 C 857.395 1.86743 -0.543816 0
M  V30 9192 O 856.65 1.89874 0.473972 0
M  V30 9193 C 856.949 1.94193 -3.0004 0
M  V30 9194 C 856.615 1.25225 -4.33162 0
M  V30 9195 C 855.277 1.06149 -4.69346 0
M  V30 9196 C 857.629 0.760427 -5.15623 0
M  V30 9197 C 854.957 0.365991 -5.85557 0
M  V30 9198 C 857.309 0.0785787 -6.32551 0
M  V30 9199 C 855.973 -0.124002 -6.67385 0
M  V30 9200 H 855.243 0.372951 -0.640304 0
M  V30 9201 H 857.89 0.292652 -1.89251 0
M  V30 9202 H 856.195 2.73426 -2.80616 0
M  V30 9203 H 857.892 2.51029 -3.12707 0
M  V30 9204 H 854.482 1.41081 -4.04715 0
M  V30 9205 H 858.666 0.895466 -4.88155 0
M  V30 9206 H 853.922 0.198193 -6.11079 0
M  V30 9207 H 858.096 -0.310339 -6.95708 0
M  V30 9208 H 855.723 -0.664918 -7.57287 0
M  V30 9209 N 857.298 1.47698 0.54982 0
M  V30 9210 C 858.528 1.58101 1.32995 0
M  V30 9211 C 858.936 0.232939 1.87761 0
M  V30 9212 O 858.279 -0.785058 1.6608 0
M  V30 9213 C 858.341 2.55228 2.53178 0
M  V30 9214 C 858.005 4.00756 2.19645 0
M  V30 9215 C 859.002 4.89025 1.76496 0
M  V30 9216 C 856.687 4.46147 2.30777 0
M  V30 9217 C 858.681 6.20707 1.44919 0
M  V30 9218 C 856.368 5.77856 1.98812 0
M  V30 9219 C 857.366 6.64957 1.55952 0
M  V30 9220 O 857.054 7.94217 1.24396 0
M  V30 9221 H 856.786 0.536362 0.411451 0
M  V30 9222 H 859.34 1.94092 0.67212 0
M  V30 9223 H 857.57 2.14319 3.21876 0
M  V30 9224 H 859.259 2.55678 3.15251 0
M  V30 9225 H 860.025 4.55201 1.67383 0
M  V30 9226 H 855.904 3.78552 2.63096 0
M  V30 9227 H 859.448 6.88649 1.11392 0
M  V30 9228 H 855.345 6.11219 2.0756 0
M  V30 9229 H 856.113 8.06789 1.37964 0
M  V30 9230 N 858.776 -0.797141 1.35954 0
M  V30 9231 C 859.686 -1.94088 1.31784 0
M  V30 9232 C 860.702 -1.72588 0.221227 0
M  V30 9233 O 861.878 -1.96256 0.452255 0
M  V30 9234 C 858.943 -3.28828 1.09878 0
M  V30 9235 C 858.004 -3.63158 2.28942 0
M  V30 9236 C 857.237 -4.91469 2.08072 0
M  V30 9237 O 857.46 -5.60616 1.05196 0
M  V30 9238 O 856.394 -5.24277 2.95664 0
M  V30 9239 H 860.22 -2.00554 2.28061 0
M  V30 9240 H 857.805 -0.936288 1.16422 0
M  V30 9241 H 859.687 -4.09473 0.995485 0
M  V30 9242 H 858.362 -3.23271 0.16659 0
M  V30 9243 H 857.269 -2.82851 2.44839 0
M  V30 9244 H 858.602 -3.7343 3.20641 0
M  V30 9245 N 860.254 -1.20106 -1.0204 0
M  V30 9246 C 861.479 -1.0351 -1.79723 0
M  V30 9247 C 861.904 0.411328 -1.83548 0
M  V30 9248 O 861.262 1.29608 -1.26773 0
M  V30 9249 C 861.31 -1.61876 -3.22224 0
M  V30 9250 O 860.414 -0.853813 -4.03465 0
M  V30 9251 H 859.755 -0.365299 -0.554484 0
M  V30 9252 H 862.285 -1.59316 -1.28373 0
M  V30 9253 H 862.295 -1.65451 -3.72948 0
M  V30 9254 H 860.97 -2.67148 -3.18755 0
M  V30 9255 H 859.547 -0.891983 -3.62075 0
M  V30 9256 N 861.732 1.21287 -1.00634 0
M  V30 9257 C 862.68 2.25733 -0.561026 0
M  V30 9258 C 863.674 1.64728 0.395095 0
M  V30 9259 O 864.88 1.78022 0.266141 0
M  V30 9260 H 861.255 0.734104 -0.163081 0
M  V30 9261 H 863.226 2.60631 -1.45307 0
M  V30 9262 C 861.975 3.47569 0.0952587 0
M  V30 9263 H 861.298 3.94782 -0.631427 0
M  V30 9264 H 862.738 4.22382 0.370105 0
M  V30 9265 C 861.197 3.09326 1.33488 0
M  V30 9266 O 861.727 3.19933 2.42912 0
M  V30 9267 N 859.933 2.63976 1.21512 0
M  V30 9268 H 859.48 2.55545 0.324741 0
M  V30 9269 H 859.438 2.38757 2.04555 0
M  V30 9270 N 863.21 0.781244 1.36873 0
M  V30 9271 C 864.459 0.34652 1.98701 0
M  V30 9272 C 864.772 -1.08555 1.62712 0
M  V30 9273 O 865.978 -1.62213 2.17713 0
M  V30 9274 C 864.434 0.568611 3.5538 0
M  V30 9275 C 864.042 2.01156 4.003 0
M  V30 9276 C 865.786 0.197983 4.24038 0
M  V30 9277 C 863.693 2.18074 5.49725 0
M  V30 9278 H 862.623 0.125821 0.743428 0
M  V30 9279 H 865.274 0.961721 1.56279 0
M  V30 9280 H 863.656 -0.116185 3.9583 0
M  V30 9281 H 864.83 2.73209 3.71071 0
M  V30 9282 H 863.145 2.33967 3.44454 0
M  V30 9283 H 865.742 0.302778 5.33842 0
M  V30 9284 H 866.085 -0.852927 4.07469 0
M  V30 9285 H 866.618 0.835696 3.88923 0
M  V30 9286 H 863.357 3.21519 5.71232 0
M  V30 9287 H 862.877 1.50517 5.80607 0
M  V30 9288 H 864.556 1.98393 6.15832 0
M  V30 9289 N 864.689 -1.48329 0.532571 0
M  V30 9290 C 865.622 -2.26524 -0.2761 0
M  V30 9291 C 866.6 -1.32498 -0.942496 0
M  V30 9292 O 867.784 -1.61844 -0.966376 0
M  V30 9293 C 864.911 -3.08808 -1.39124 0
M  V30 9294 C 863.957 -4.18227 -0.835984 0
M  V30 9295 S 864.79 -5.34669 0.298186 0
M  V30 9296 C 865.946 -6.20514 -0.81937 0
M  V30 9297 H 866.179 -2.94764 0.387502 0
M  V30 9298 H 863.712 -1.51081 0.318407 0
M  V30 9299 H 865.67 -3.56792 -2.03002 0
M  V30 9300 H 864.331 -2.39976 -2.02658 0
M  V30 9301 H 863.524 -4.75435 -1.67264 0
M  V30 9302 H 863.126 -3.72996 -0.27385 0
M  V30 9303 H 865.418 -6.55371 -1.7174 0
M  V30 9304 H 866.361 -7.07525 -0.285199 0
M  V30 9305 H 866.769 -5.5366 -1.10094 0
M  V30 9306 N 866.167 -0.267825 -1.55308 0
M  V30 9307 C 867.392 0.357487 -2.04296 0
M  V30 9308 C 867.817 1.49222 -1.14518 0
M  V30 9309 O 867.175 1.80741 -0.142292 0
M  V30 9310 C 867.223 0.822899 -3.51085 0
M  V30 9311 O 866.327 1.93078 -3.6441 0
M  V30 9312 H 865.668 0.075025 -0.659748 0
M  V30 9313 H 868.198 -0.399996 -2.00652 0
M  V30 9314 H 868.208 1.12059 -3.92309 0
M  V30 9315 H 866.883 -0.0073562 -4.15899 0
M  V30 9316 H 865.46 1.63618 -3.35087 0
M  V30 9317 N 867.645 1.57599 0.00500368 0
M  V30 9318 C 868.873 1.94626 0.702016 0
M  V30 9319 C 869.288 0.86953 1.67585 0
M  V30 9320 O 868.645 -0.15199 1.81866 0
M  V30 9321 C 868.696 3.31658 1.43824 0
M  V30 9322 O 868.417 4.35197 0.503467 0
M  V30 9323 C 869.918 3.83114 2.23021 0
M  V30 9324 H 867.138 0.641785 0.195841 0
M  V30 9325 H 869.682 2.04451 -0.0446287 0
M  V30 9326 H 867.837 3.23156 2.13655 0
M  V30 9327 H 868.251 5.1444 1.02235 0
M  V30 9328 H 869.725 4.81438 2.7004 0
M  V30 9329 H 870.202 3.15559 3.05482 0
M  V30 9330 H 870.808 3.94775 1.58216 0
M  V30 9331 N 869.123 -0.277682 1.55134 0
M  V30 9332 C 870.372 -1.00766 1.74726 0
M  V30 9333 C 870.685 -1.87617 0.553092 0
M  V30 9334 O 871.891 -2.64058 0.631318 0
M  V30 9335 C 870.347 -1.84147 3.09221 0
M  V30 9336 C 869.955 -1.02186 4.3619 0
M  V30 9337 C 871.699 -2.56604 3.38164 0
M  V30 9338 C 869.606 -1.84978 5.61727 0
M  V30 9339 H 868.536 -0.379948 0.651273 0
M  V30 9340 H 871.187 -0.263543 1.81598 0
M  V30 9341 H 869.569 -2.62637 2.96375 0
M  V30 9342 H 870.743 -0.281459 4.5994 0
M  V30 9343 H 869.058 -0.412054 4.14356 0
M  V30 9344 H 871.655 -3.18942 4.29162 0
M  V30 9345 H 871.998 -3.26647 2.58085 0
M  V30 9346 H 872.531 -1.85147 3.52087 0
M  V30 9347 H 869.27 -1.19365 6.4454 0
M  V30 9348 H 868.79 -2.56628 5.42128 0
M  V30 9349 H 870.469 -2.42458 5.99853 0
M  V30 9350 N 870.601 -1.47988 -0.541979 0
M  V30 9351 C 871.549 -1.62044 -1.66867 0
M  V30 9352 C 872.543 -0.487217 -1.62242 0
M  V30 9353 O 873.749 -0.66554 -1.67244 0
M  V30 9354 H 870.124 -0.51024 -0.552412 0
M  V30 9355 H 872.095 -2.56695 -1.52153 0
M  V30 9356 C 870.844 -1.66615 -3.0518 0
M  V30 9357 H 870.167 -2.5317 -3.09427 0
M  V30 9358 H 871.607 -1.80496 -3.83663 0
M  V30 9359 C 870.066 -0.402421 -3.34488 0
M  V30 9360 O 870.596 0.48992 -3.98701 0
M  V30 9361 N 868.802 -0.277778 -2.89269 0
M  V30 9362 H 868.349 -1.00488 -2.37192 0
M  V30 9363 H 868.307 0.566784 -3.09249 0
M  V30 9364 N 872.079 0.78992 -1.36375 0
M  V30 9365 C 873.327 1.54472 -1.30319 0
M  V30 9366 C 873.648 1.94647 0.117338 0
M  V30 9367 O 872.918 1.64906 1.05748 0
M  V30 9368 H 871.498 0.572879 -0.479394 0
M  V30 9369 H 874.16 0.941245 -1.70665 0
M  V30 9370 H 873.256 2.45252 -1.93024 0
M  V30 9371 N 873.557 1.20646 1.01402 0
M  V30 9372 C 874.787 1.04238 1.78376 0
M  V30 9373 C 875.195 -0.411327 1.84675 0
M  V30 9374 O 874.538 -1.29734 1.30057 0
M  V30 9375 C 874.6 1.55349 3.24202 0
M  V30 9376 C 874.264 3.03684 3.41504 0
M  V30 9377 C 875.261 4.01318 3.30514 0
M  V30 9378 C 872.946 3.42698 3.67237 0
M  V30 9379 C 874.94 5.35956 3.45007 0
M  V30 9380 C 872.627 4.77491 3.81373 0
M  V30 9381 C 873.625 5.73929 3.70263 0
M  V30 9382 O 873.313 7.06277 3.83963 0
M  V30 9383 H 873.045 0.366978 0.567718 0
M  V30 9384 H 875.599 1.60235 1.28506 0
M  V30 9385 H 873.829 0.93739 3.75166 0
M  V30 9386 H 875.518 1.34921 3.8282 0
M  V30 9387 H 876.284 3.72522 3.10568 0
M  V30 9388 H 872.163 2.68175 3.74971 0
M  V30 9389 H 875.707 6.11212 3.36252 0
M  V30 9390 H 871.604 5.05977 4.00821 0
M  V30 9391 H 872.372 7.13561 4.00965 0
M  V30 9392 N 875.035 -1.20752 1.01276 0
M  V30 9393 C 876.281 -1.90302 0.700924 0
M  V30 9394 C 876.614 -1.78406 -0.767142 0
M  V30 9395 O 875.889 -1.16575 -1.55694 0
M  V30 9396 C 876.172 -3.41831 1.13242 0
M  V30 9397 C 876.025 -3.6268 2.66051 0
M  V30 9398 C 877.344 -4.34486 0.700738 0
M  V30 9399 H 874.463 -0.69107 0.256107 0
M  V30 9400 H 877.105 -1.42227 1.25982 0
M  V30 9401 H 875.255 -3.82906 0.656902 0
M  V30 9402 H 876.927 -3.30882 3.21426 0
M  V30 9403 H 875.17 -3.06281 3.07204 0
M  V30 9404 H 875.841 -4.68882 2.91296 0
M  V30 9405 H 878.317 -4.01036 1.10948 0
M  V30 9406 H 877.193 -5.39136 1.03073 0
M  V30 9407 H 877.454 -4.40307 -0.39778 0
M  V30 9408 N 876.513 -0.788492 -1.36457 0
M  V30 9409 C 877.924 -0.423742 -1.81828 0
M  V30 9410 C 878.275 1.05221 -1.65599 0
M  V30 9411 O 877.4 1.8163 -1.17641 0
M  V30 9412 C 877.995 -0.762354 -3.30112 0
M  V30 9413 C 876.554 -0.450445 -3.73695 0
M  V30 9414 C 875.701 -0.997482 -2.58738 0
M  V30 9415 H 878.652 -0.981718 -1.24692 0
M  V30 9416 H 878.673 -0.0531136 -3.80463 0
M  V30 9417 H 878.185 -1.83662 -3.41891 0
M  V30 9418 H 876.286 0.615829 -3.67476 0
M  V30 9419 H 876.399 -0.970408 -4.69169 0
M  V30 9420 H 874.763 -0.420761 -2.51201 0
M  V30 9421 H 875.546 -2.07749 -2.73304 0
M  V30 9422 N 877.991 1.48044 -0.54043 0
M  V30 9423 C 878.901 2.33565 0.220163 0
M  V30 9424 C 879.917 1.47146 0.928659 0
M  V30 9425 O 881.093 1.80107 0.901295 0
M  V30 9426 C 878.158 3.2349 1.2472 0
M  V30 9427 C 877.219 4.25789 0.547938 0
M  V30 9428 C 876.452 5.11417 1.52605 0
M  V30 9429 O 876.675 4.99204 2.75956 0
M  V30 9430 O 875.609 5.92498 1.05972 0
M  V30 9431 H 879.435 2.99868 -0.480898 0
M  V30 9432 H 877.02 1.46332 -0.301226 0
M  V30 9433 H 878.902 3.79084 1.84047 0
M  V30 9434 H 877.577 2.59835 1.93048 0
M  V30 9435 H 876.484 3.74001 -0.0860941 0
M  V30 9436 H 877.817 4.92111 -0.0935896 0
M  V30 9437 N 879.47 0.276058 1.55163 0
M  V30 9438 C 880.695 -0.346648 2.04483 0
M  V30 9439 C 881.12 -1.48613 1.15308 0
M  V30 9440 O 880.478 -1.80663 0.151875 0
M  V30 9441 C 880.526 -0.804268 3.51517 0
M  V30 9442 O 879.63 -1.91143 3.65429 0
M  V30 9443 H 878.971 -0.0715251 0.660136 0
M  V30 9444 H 881.501 0.410631 2.00437 0
M  V30 9445 H 881.511 -1.09977 3.92898 0
M  V30 9446 H 880.186 0.0294123 4.1589 0
M  V30 9447 H 878.763 -1.61839 3.3595 0
M  V30 9448 N 880.948 -1.576 0.00335426 0
M  V30 9449 C 882.197 -1.89892 -0.680001 0
M  V30 9450 C 882.51 -0.878731 -1.7475 0
M  V30 9451 O 883.716 -1.09199 -2.48572 0
M  V30 9452 C 882.172 -3.37098 -1.26066 0
M  V30 9453 C 881.78 -4.4742 -0.227807 0
M  V30 9454 C 883.524 -3.78495 -1.92202 0
M  V30 9455 C 881.431 -5.85706 -0.81865 0
M  V30 9456 H 880.361 -0.708578 -0.257746 0
M  V30 9457 H 883.012 -1.83387 0.0644472 0
M  V30 9458 H 881.394 -3.38451 -2.05589 0
M  V30 9459 H 882.568 -4.57589 0.54307 0
M  V30 9460 H 880.883 -4.15064 0.333297 0
M  V30 9461 H 883.48 -4.7915 -2.37318 0
M  V30 9462 H 883.823 -3.12187 -2.75399 0
M  V30 9463 H 884.356 -3.79456 -1.19408 0
M  V30 9464 H 881.095 -6.55495 -0.0253787 0
M  V30 9465 H 880.615 -5.79196 -1.55861 0
M  V30 9466 H 882.294 -6.33469 -1.31627 0
M  V30 9467 N 882.426 0.269451 -1.5528 0
M  V30 9468 C 883.654 1.01872 -1.80082 0
M  V30 9469 C 884.069 1.79802 -0.575917 0
M  V30 9470 O 883.426 1.76735 0.455081 0
M  V30 9471 C 883.477 1.9745 -3.02813 0
M  V30 9472 O 883.198 1.22677 -4.20573 0
M  V30 9473 C 884.699 2.8416 -3.40247 0
M  V30 9474 H 881.919 0.300781 -0.59981 0
M  V30 9475 H 884.463 0.29916 -2.023 0
M  V30 9476 H 882.618 2.64864 -2.82712 0
M  V30 9477 H 883.032 1.87129 -4.89982 0
M  V30 9478 H 884.506 3.47014 -4.29284 0
M  V30 9479 H 884.983 3.54113 -2.59809 0
M  V30 9480 H 885.589 2.22232 -3.6262 0
M  V30 9481 N 883.904 1.48273 0.534124 0
M  V30 9482 C 885.132 1.59734 1.31501 0
M  V30 9483 C 885.547 0.256047 1.87056 0
M  V30 9484 O 884.904 -0.754086 1.66192 0
M  V30 9485 C 884.955 2.64072 2.46877 0
M  V30 9486 O 884.676 3.92995 1.93613 0
M  V30 9487 C 886.177 2.85933 3.38758 0
M  V30 9488 H 883.397 0.538703 0.40005 0
M  V30 9489 H 885.941 1.9407 0.644762 0
M  V30 9490 H 884.096 2.32606 3.09795 0
M  V30 9491 H 884.51 4.50203 2.69106 0
M  V30 9492 H 885.984 3.62749 4.16073 0
M  V30 9493 H 886.461 1.94603 3.93734 0
M  V30 9494 H 887.067 3.18687 2.81636 0
M  V30 9495 N 885.382 -0.782676 1.36792 0
M  V30 9496 C 886.312 -1.90973 1.34356 0
M  V30 9497 C 887.293 -1.6875 0.213917 0
M  V30 9498 O 888.478 -1.89766 0.412601 0
M  V30 9499 C 885.608 -3.28097 1.13884 0
M  V30 9500 C 884.562 -3.6486 2.23744 0
M  V30 9501 C 883.888 -5.00406 1.88408 0
M  V30 9502 C 885.188 -3.72742 3.6587 0
M  V30 9503 H 886.882 -1.93268 2.28665 0
M  V30 9504 H 884.428 -0.928447 1.10072 0
M  V30 9505 H 886.381 -4.06569 1.10813 0
M  V30 9506 H 885.105 -3.26206 0.160275 0
M  V30 9507 H 883.764 -2.88689 2.25952 0
M  V30 9508 H 883.412 -4.95044 0.891083 0
M  V30 9509 H 883.112 -5.25973 2.61966 0
M  V30 9510 H 884.636 -5.81291 1.86905 0
M  V30 9511 H 886.05 -4.4139 3.65852 0
M  V30 9512 H 884.447 -4.09798 4.38389 0
M  V30 9513 H 885.517 -2.73676 4.00287 0
M  V30 9514 N 886.86 -1.21182 -1.00761 0
M  V30 9515 C 888.108 -1.02543 -1.74153 0
M  V30 9516 C 888.429 0.442372 -1.89916 0
M  V30 9517 O 887.699 1.31927 -1.44818 0
M  V30 9518 H 886.279 -0.37644 -0.645214 0
M  V30 9519 H 888.941 -1.52446 -1.21434 0
M  V30 9520 H 888.037 -1.49122 -2.7417 0
M  V30 9521 N 888.338 1.20213 -1.01915 0
M  V30 9522 C 889.585 1.89647 -0.709955 0
M  V30 9523 C 889.913 1.7901 0.760631 0
M  V30 9524 O 889.168 1.17028 1.56853 0
M  V30 9525 C 889.467 3.40232 -1.09438 0
M  V30 9526 C 889.133 3.7107 -2.5616 0
M  V30 9527 C 887.795 3.79196 -2.96249 0
M  V30 9528 C 890.147 3.85169 -3.51133 0
M  V30 9529 C 887.475 3.98882 -4.30244 0
M  V30 9530 C 889.827 4.06365 -4.8482 0
M  V30 9531 C 888.491 4.12722 -5.24611 0
M  V30 9532 H 887.761 0.693967 -0.259791 0
M  V30 9533 H 890.408 1.42419 -1.2802 0
M  V30 9534 H 888.713 3.89292 -0.442596 0
M  V30 9535 H 890.41 3.92257 -0.832811 0
M  V30 9536 H 887 3.65346 -2.24099 0
M  V30 9537 H 891.184 3.78243 -3.21319 0
M  V30 9538 H 886.44 4.02039 -4.60624 0
M  V30 9539 H 890.614 4.16216 -5.58334 0
M  V30 9540 H 888.241 4.27728 -6.28453 0
M  V30 9541 N 889.816 0.795718 1.36037 0
M  V30 9542 C 891.056 0.376514 2.00902 0
M  V30 9543 C 891.42 -1.03405 1.61776 0
M  V30 9544 O 892.621 -1.55468 2.19279 0
M  V30 9545 C 890.892 0.542086 3.53265 0
M  V30 9546 S 892.451 0.211694 4.38289 0
M  V30 9547 H 889.269 0.143527 0.696363 0
M  V30 9548 H 891.871 1.03559 1.65819 0
M  V30 9549 H 890.575 1.56888 3.79229 0
M  V30 9550 H 890.106 -0.132698 3.93176 0
M  V30 9551 H 892.121 -0.98452 4.86335 0
M  V30 9552 N 891.294 -1.47756 0.548274 0
M  V30 9553 C 892.541 -2.02489 0.0208955 0
M  V30 9554 C 892.869 -1.42356 -1.32533 0
M  V30 9555 O 892.124 -0.565448 -1.87353 0
M  V30 9556 C 892.423 -3.5716 -0.131069 0
M  V30 9557 C 892.089 -4.36169 1.14313 0
M  V30 9558 C 890.751 -4.57476 1.4923 0
M  V30 9559 C 893.103 -4.81801 1.9879 0
M  V30 9560 C 890.431 -5.21662 2.68487 0
M  V30 9561 C 892.783 -5.47303 3.17242 0
M  V30 9562 C 891.447 -5.66844 3.52483 0
M  V30 9563 H 890.717 -0.740961 0.00764621 0
M  V30 9564 H 893.364 -1.77531 0.717987 0
M  V30 9565 H 891.669 -3.8106 -0.911063 0
M  V30 9566 H 893.366 -3.9715 -0.55433 0
M  V30 9567 H 889.956 -4.19858 0.861235 0
M  V30 9568 H 894.14 -4.65126 1.73123 0
M  V30 9569 H 889.396 -5.34987 2.95971 0
M  V30 9570 H 893.57 -5.81626 3.82994 0
M  V30 9571 H 891.197 -6.16352 4.44988 0
M  V30 9572 N 892.772 -0.284283 -1.55015 0
M  V30 9573 C 894.049 0.382125 -1.91831 0
M  V30 9574 C 894.429 1.73007 -1.20962 0
M  V30 9575 O 893.777 2.25962 -0.339594 0
M  V30 9576 C 893.987 0.513341 -3.45204 0
M  V30 9577 C 895.335 0.791989 -4.17148 0
M  V30 9578 O 896.359 0.597799 -3.51148 0
M  V30 9579 O 895.218 1.16394 -5.33961 0
M  V30 9580 H 892.312 0.210707 -0.799707 0
M  V30 9581 H 894.858 -0.331111 -1.66438 0
M  V30 9582 H 893.63 -0.434911 -3.88876 0
M  V30 9583 H 893.253 1.27569 -3.76579 0
M  V30 9584 N 894.251 1.57596 -0.0117121 0
M  V30 9585 C 895.528 1.82323 0.708356 0
M  V30 9586 C 895.908 0.891947 1.91331 0
M  V30 9587 O 895.256 -0.0565984 2.2843 0
M  V30 9588 C 895.466 3.31111 1.10303 0
M  V30 9589 C 896.814 3.97147 1.50199 0
M  V30 9590 O 897.838 3.35503 1.1965 0
M  V30 9591 O 896.697 5.0576 2.07049 0
M  V30 9592 H 893.791 0.751173 0.345931 0
M  V30 9593 H 896.337 1.69657 -0.0380632 0
M  V30 9594 H 895.109 3.90534 0.24467 0
M  V30 9595 H 894.732 3.48818 1.90818 0
M  V30 9596 N 895.729 -0.261212 1.5542 0
M  V30 9597 C 896.957 -1.00916 1.8062 0
M  V30 9598 C 897.372 -1.79494 0.585444 0
M  V30 9599 O 896.729 -1.76974 -0.445702 0
M  V30 9600 C 896.78 -1.95841 3.03856 0
M  V30 9601 O 896.501 -1.20445 4.21218 0
M  V30 9602 C 898.002 -2.82352 3.41749 0
M  V30 9603 H 895.222 -0.297596 0.601397 0
M  V30 9604 H 897.766 -0.288427 2.02456 0
M  V30 9605 H 895.921 -2.63361 2.84112 0
M  V30 9606 H 896.335 -1.84528 4.90968 0
M  V30 9607 H 897.809 -3.44733 4.31118 0
M  V30 9608 H 898.286 -3.5273 2.61683 0
M  V30 9609 H 898.892 -2.20306 3.63793 0
M  V30 9610 N 897.207 -1.48554 -0.526253 0
M  V30 9611 C 898.453 -1.56994 -1.28378 0
M  V30 9612 C 898.786 -0.244701 -1.92652 0
M  V30 9613 O 898.061 0.749636 -1.79473 0
M  V30 9614 C 898.344 -2.71092 -2.37026 0
M  V30 9615 C 898.197 -4.13331 -1.77418 0
M  V30 9616 C 899.516 -2.80934 -3.38769 0
M  V30 9617 H 896.635 -0.571466 -0.465398 0
M  V30 9618 H 899.277 -1.80742 -0.585861 0
M  V30 9619 H 897.427 -2.50973 -2.96555 0
M  V30 9620 H 899.099 -4.44899 -1.21912 0
M  V30 9621 H 897.342 -4.20158 -1.07936 0
M  V30 9622 H 898.013 -4.88994 -2.56104 0
M  V30 9623 H 900.489 -2.9917 -2.892 0
M  V30 9624 H 899.365 -3.62489 -4.12181 0
M  V30 9625 H 899.626 -1.89244 -3.99549 0
M  V30 9626 N 898.685 0.775411 -1.37205 0
M  V30 9627 C 899.617 1.89761 -1.28544 0
M  V30 9628 C 900.63 1.61542 -0.201996 0
M  V30 9629 O 901.819 1.72528 -0.457848 0
M  V30 9630 C 898.919 3.24904 -0.963885 0
M  V30 9631 C 898.092 3.80796 -2.15205 0
M  V30 9632 C 897.151 4.94407 -1.80135 0
M  V30 9633 O 896.177 5.10185 -2.52388 0
M  V30 9634 N 897.379 5.75722 -0.743298 0
M  V30 9635 H 900.144 1.97708 -2.25237 0
M  V30 9636 H 897.705 0.954348 -1.30782 0
M  V30 9637 H 899.697 3.9842 -0.710182 0
M  V30 9638 H 898.267 3.12483 -0.085632 0
M  V30 9639 H 897.487 2.99101 -2.56773 0
M  V30 9640 H 898.775 4.1487 -2.94552 0
M  V30 9641 H 898.173 5.65518 -0.143655 0
M  V30 9642 H 896.73 6.4948 -0.549446 0
M  V30 9643 N 900.163 1.21714 1.00117 0
M  V30 9644 C 901.409 1.04829 1.74306 0
M  V30 9645 C 901.764 -0.413387 1.87907 0
M  V30 9646 O 901.057 -1.30258 1.40512 0
M  V30 9647 C 901.251 1.68345 3.15269 0
M  V30 9648 C 901.08 3.20537 3.15414 0
M  V30 9649 C 899.85 3.896 3.21776 0
M  V30 9650 C 902.048 4.17576 3.00224 0
M  V30 9651 N 900.03 5.28949 3.11587 0
M  V30 9652 C 901.401 5.43701 2.97974 0
M  V30 9653 C 903.456 4.08575 2.84554 0
M  V30 9654 C 902.159 6.61861 2.8166 0
M  V30 9655 C 904.185 5.26375 2.69598 0
M  V30 9656 C 903.547 6.51414 2.68028 0
M  V30 9657 H 899.646 0.437964 0.647852 0
M  V30 9658 H 902.23 1.54128 1.18965 0
M  V30 9659 H 900.401 1.21607 3.68872 0
M  V30 9660 H 902.133 1.44629 3.77974 0
M  V30 9661 H 898.888 3.40548 3.29126 0
M  V30 9662 H 899.312 6.01945 3.09825 0
M  V30 9663 H 903.954 3.12696 2.84571 0
M  V30 9664 H 901.672 7.57896 2.8039 0
M  V30 9665 H 905.258 5.21235 2.58468 0
M  V30 9666 H 904.138 7.41033 2.56593 0
M  V30 9667 N 901.641 -1.19671 1.02551 0
M  V30 9668 C 902.591 -2.20655 0.574037 0
M  V30 9669 C 903.575 -1.56459 -0.375412 0
M  V30 9670 O 904.767 -1.75901 -0.196929 0
M  V30 9671 C 901.896 -3.43213 -0.0772031 0
M  V30 9672 C 900.982 -4.1456 0.894485 0
M  V30 9673 N 901.373 -4.62147 2.05557 0
M  V30 9674 C 899.671 -4.40196 0.717205 0
M  V30 9675 C 900.372 -5.16899 2.66814 0
M  V30 9676 N 899.348 -5.07496 1.94804 0
M  V30 9677 H 903.15 -2.55124 1.45908 0
M  V30 9678 H 900.664 -1.35707 0.89204 0
M  V30 9679 H 902.661 -4.14797 -0.41824 0
M  V30 9680 H 901.321 -3.10247 -0.957973 0
M  V30 9681 H 902.332 -4.5708 2.43513 0
M  V30 9682 H 899.009 -4.17342 -0.114758 0
M  V30 9683 H 900.399 -5.64032 3.65126 0
M  V30 9684 N 903.119 -0.802921 -1.35613 0
M  V30 9685 C 904.366 -0.381576 -1.98872 0
M  V30 9686 C 904.694 1.0503 -1.63704 0
M  V30 9687 O 903.949 1.7427 -0.890418 0
M  V30 9688 C 904.248 -0.507806 -3.53774 0
M  V30 9689 C 903.914 -1.90245 -4.088 0
M  V30 9690 C 902.576 -2.28401 -4.2354 0
M  V30 9691 C 904.928 -2.81504 -4.3864 0
M  V30 9692 C 902.256 -3.57192 -4.65436 0
M  V30 9693 C 904.608 -4.09737 -4.81973 0
M  V30 9694 C 903.272 -4.47897 -4.94919 0
M  V30 9695 H 902.542 -0.139629 -0.727726 0
M  V30 9696 H 905.189 -1.023 -1.61886 0
M  V30 9697 H 903.494 0.21708 -3.91198 0
M  V30 9698 H 905.191 -0.162625 -4.0067 0
M  V30 9699 H 901.781 -1.596 -3.97776 0
M  V30 9700 H 905.965 -2.53276 -4.26808 0
M  V30 9701 H 901.221 -3.86611 -4.73648 0
M  V30 9702 H 905.395 -4.80555 -5.04024 0
M  V30 9703 H 903.022 -5.47747 -5.27141 0
M  V30 9704 N 904.597 1.47463 -0.556102 0
M  V30 9705 C 905.837 2.04372 -0.0339743 0
M  V30 9706 C 906.201 1.42125 1.29091 0
M  V30 9707 O 907.402 1.90074 1.90066 0
M  V30 9708 C 905.673 3.57352 0.0585316 0
M  V30 9709 S 907.232 4.35625 0.526943 0
M  V30 9710 H 904.05 0.710574 -0.0246115 0
M  V30 9711 H 906.652 1.80848 -0.742585 0
M  V30 9712 H 905.356 4.00181 -0.910116 0
M  V30 9713 H 904.887 3.85371 0.790731 0
M  V30 9714 H 906.902 4.62911 1.78683 0
M  V30 9715 N 906.075 0.2925 1.54862 0
M  V30 9716 C 907.3 -0.32494 2.04839 0
M  V30 9717 C 907.725 -1.47381 1.16877 0
M  V30 9718 O 907.083 -1.80492 0.171028 0
M  V30 9719 C 907.131 -0.76694 3.5235 0
M  V30 9720 O 906.235 -1.87256 3.67436 0
M  V30 9721 H 905.576 -0.0645195 0.660858 0
M  V30 9722 H 908.106 0.431867 1.9999 0
M  V30 9723 H 908.116 -1.05804 3.94043 0
M  V30 9724 H 906.791 0.0735212 4.15835 0
M  V30 9725 H 905.368 -1.58266 3.37648 0
M  V30 9726 N 907.553 -1.57587 0.0200696 0
M  V30 9727 C 908.799 -1.91708 -0.661503 0
M  V30 9728 C 909.132 -0.895968 -1.72296 0
M  V30 9729 O 908.407 0.082577 -1.94325 0
M  V30 9730 C 908.69 -3.36344 -1.28627 0
M  V30 9731 C 908.543 -4.49186 -0.234982 0
M  V30 9732 C 909.862 -3.80771 -2.20685 0
M  V30 9733 H 906.981 -0.69717 -0.239005 0
M  V30 9734 H 909.623 -1.8985 0.0754764 0
M  V30 9735 H 907.773 -3.38058 -1.91439 0
M  V30 9736 H 909.445 -4.59606 0.395011 0
M  V30 9737 H 907.688 -4.31557 0.440565 0
M  V30 9738 H 908.359 -5.47395 -0.711558 0
M  V30 9739 H 910.835 -3.80735 -1.67868 0
M  V30 9740 H 909.711 -4.82685 -2.61356 0
M  V30 9741 H 909.972 -3.15764 -3.09428 0
M  V30 9742 N 909.032 0.252966 -1.55557 0
M  V30 9743 C 910.28 0.979912 -1.76754 0
M  V30 9744 C 910.601 1.86083 -0.582944 0
M  V30 9745 O 909.871 1.91742 0.401497 0
M  V30 9746 H 908.451 0.364805 -0.651864 0
M  V30 9747 H 911.113 0.272372 -1.92987 0
M  V30 9748 H 910.209 1.60518 -2.67657 0
M  V30 9749 N 910.51 1.48831 0.518367 0
M  V30 9750 C 911.738 1.6112 1.298 0
M  V30 9751 C 912.153 0.275872 1.86774 0
M  V30 9752 O 911.51 -0.736416 1.66983 0
M  V30 9753 C 911.561 2.66675 2.44063 0
M  V30 9754 O 911.282 3.95027 1.89434 0
M  V30 9755 C 912.783 2.8951 3.35706 0
M  V30 9756 H 910.003 0.542916 0.394314 0
M  V30 9757 H 912.547 1.94743 0.624142 0
M  V30 9758 H 910.702 2.35879 3.07311 0
M  V30 9759 H 911.116 4.53031 2.64316 0
M  V30 9760 H 912.59 3.67142 4.12202 0
M  V30 9761 H 913.067 1.98768 3.91648 0
M  V30 9762 H 913.673 3.21656 2.7824 0
M  V30 9763 N 911.988 -0.768124 1.37614 0
M  V30 9764 C 912.92 -1.89076 1.29548 0
M  V30 9765 C 913.933 -1.61433 0.21056 0
M  V30 9766 O 915.122 -1.72283 0.466992 0
M  V30 9767 C 912.222 -3.24388 0.981102 0
M  V30 9768 C 911.395 -3.79649 2.17222 0
M  V30 9769 C 910.454 -4.93444 1.82754 0
M  V30 9770 O 909.48 -5.0884 2.5509 0
M  V30 9771 N 910.682 -5.75319 0.773819 0
M  V30 9772 H 913.447 -1.9651 2.26283 0
M  V30 9773 H 911.008 -0.947399 1.31286 0
M  V30 9774 H 913 -3.98038 0.731301 0
M  V30 9775 H 911.57 -3.12433 0.102203 0
M  V30 9776 H 910.79 -2.97735 2.58355 0
M  V30 9777 H 912.078 -4.13302 2.96748 0
M  V30 9778 H 911.476 -5.65433 0.173644 0
M  V30 9779 H 910.033 -6.4918 0.583882 0
M  V30 9780 N 913.466 -1.22244 -0.994698 0
M  V30 9781 C 914.414 -0.988118 -2.10568 0
M  V30 9782 C 915.408 0.0681541 -1.69263 0
M  V30 9783 O 916.614 -0.0841311 -1.79803 0
M  V30 9784 H 912.989 -0.302343 -0.688544 0
M  V30 9785 H 914.96 -1.93091 -2.27505 0
M  V30 9786 C 913.709 -0.580557 -3.42819 0
M  V30 9787 H 913.032 -1.385 -3.75044 0
M  V30 9788 H 914.472 -0.456004 -4.21541 0
M  V30 9789 C 912.931 0.709692 -3.2934 0
M  V30 9790 O 913.461 1.76259 -3.60965 0
M  V30 9791 N 911.667 0.680155 -2.82528 0
M  V30 9792 H 911.214 -0.176977 -2.56991 0
M  V30 9793 H 911.172 1.54372 -2.73892 0
M  V30 9794 N 914.944 1.19125 -1.03184 0
M  V30 9795 C 915.854 2.26112 -0.625329 0
M  V30 9796 C 916.87 1.7056 0.344298 0
M  V30 9797 O 918.046 2.0039 0.20144 0
M  V30 9798 C 915.111 3.46697 0.0145169 0
M  V30 9799 C 914.172 4.17419 -1.00299 0
M  V30 9800 C 913.405 5.32247 -0.393581 0
M  V30 9801 O 913.628 5.64724 0.802659 0
M  V30 9802 O 912.562 5.91428 -1.1179 0
M  V30 9803 H 916.388 2.63131 -1.51643 0
M  V30 9804 H 913.973 1.26036 -0.802197 0
M  V30 9805 H 915.855 4.19762 0.371139 0
M  V30 9806 H 914.53 3.11521 0.879581 0
M  V30 9807 H 913.437 3.4646 -1.41125 0
M  V30 9808 H 914.77 4.56573 -1.83852 0
M  V30 9809 N 916.422 0.810101 1.35185 0
M  V30 9810 C 917.671 0.388589 1.97921 0
M  V30 9811 C 917.984 -1.05079 1.64978 0
M  V30 9812 O 919.19 -1.57559 2.21105 0
M  V30 9813 C 917.646 0.643864 3.54094 0
M  V30 9814 C 917.254 2.09602 3.95943 0
M  V30 9815 C 918.998 0.287883 4.23523 0
M  V30 9816 C 916.905 2.29686 5.44976 0
M  V30 9817 H 915.835 0.141562 0.740592 0
M  V30 9818 H 918.486 0.994653 1.54204 0
M  V30 9819 H 916.868 -0.0321978 3.95987 0
M  V30 9820 H 918.042 2.81018 3.65192 0
M  V30 9821 H 916.357 2.4122 3.39414 0
M  V30 9822 H 918.954 0.415946 5.3308 0
M  V30 9823 H 919.297 -0.766305 4.09186 0
M  V30 9824 H 919.83 0.918004 3.87063 0
M  V30 9825 H 916.569 3.33563 5.64284 0
M  V30 9826 H 916.089 1.62798 5.77284 0
M  V30 9827 H 917.768 2.11411 6.11485 0
M  V30 9828 N 917.9 -1.47166 0.563914 0
M  V30 9829 C 918.83 -2.32894 -0.168148 0
M  V30 9830 C 919.811 -1.44202 -0.902214 0
M  V30 9831 O 920.996 -1.73048 -0.881365 0
M  V30 9832 C 918.126 -3.26116 -1.19439 0
M  V30 9833 C 917.08 -4.24101 -0.576363 0
M  V30 9834 C 916.406 -5.06696 -1.70772 0
M  V30 9835 C 917.706 -5.20142 0.47425 0
M  V30 9836 H 919.4 -2.9435 0.547573 0
M  V30 9837 H 916.946 -1.41545 0.264778 0
M  V30 9838 H 918.899 -3.84935 -1.71474 0
M  V30 9839 H 917.623 -2.62728 -1.94014 0
M  V30 9840 H 916.282 -3.66519 -0.0772534 0
M  V30 9841 H 915.93 -4.39707 -2.44268 0
M  V30 9842 H 915.63 -5.7304 -1.29994 0
M  V30 9843 H 917.154 -5.68375 -2.2312 0
M  V30 9844 H 918.568 -5.73286 0.0397035 0
M  V30 9845 H 916.965 -5.94726 0.801287 0
M  V30 9846 H 918.035 -4.65214 1.36764 0
M  V30 9847 N 919.378 -0.300708 -1.54705 0
M  V30 9848 C 920.606 0.31127 -2.04545 0
M  V30 9849 C 921.021 1.47542 -1.178 0
M  V30 9850 O 920.378 1.81361 -0.203571 0
M  V30 9851 C 920.429 0.767783 -3.53253 0
M  V30 9852 O 920.15 -0.350027 -4.36699 0
M  V30 9853 C 921.651 1.44494 -4.1909 0
M  V30 9854 H 918.871 0.067668 -0.667579 0
M  V30 9855 H 921.415 -0.440254 -1.99705 0
M  V30 9856 H 919.57 1.46933 -3.58454 0
M  V30 9857 H 919.984 0.00534038 -5.245 0
M  V30 9858 H 921.458 1.71553 -5.24665 0
M  V30 9859 H 921.935 2.3849 -3.68808 0
M  V30 9860 H 922.541 0.786581 -4.17963 0
M  V30 9861 N 920.856 1.57574 -0.0284266 0
M  V30 9862 C 922.105 1.9095 0.649704 0
M  V30 9863 C 922.418 0.906421 1.7333 0
M  V30 9864 O 923.624 1.1314 2.46803 0
M  V30 9865 C 922.08 3.39061 1.20687 0
M  V30 9866 C 921.688 4.47726 0.156597 0
M  V30 9867 C 923.432 3.81505 1.86156 0
M  V30 9868 C 921.339 5.86935 0.725365 0
M  V30 9869 H 920.269 0.712589 0.24644 0
M  V30 9870 H 922.92 1.83261 -0.0936143 0
M  V30 9871 H 921.302 3.41679 2.00178 0
M  V30 9872 H 922.476 4.56667 -0.6158 0
M  V30 9873 H 920.791 4.14481 -0.399288 0
M  V30 9874 H 923.388 4.82865 2.29665 0
M  V30 9875 H 923.731 3.16529 2.70398 0
M  V30 9876 H 924.264 3.81307 1.13356 0
M  V30 9877 H 921.003 6.55453 -0.0789081 0
M  V30 9878 H 920.523 5.81602 1.46627 0
M  V30 9879 H 922.202 6.35483 1.21532 0
M  V30 9880 N 922.334 -0.244713 1.55689 0
M  V30 9881 C 923.284 -1.30596 1.86892 0
M  V30 9882 C 924.268 -1.43388 0.729972 0
M  V30 9883 O 925.46 -1.46593 0.99194 0
M  V30 9884 C 922.589 -2.66099 2.16902 0
M  V30 9885 C 921.675 -2.57302 3.37129 0
M  V30 9886 N 922.066 -2.18139 4.56343 0
M  V30 9887 C 920.364 -2.88311 3.40283 0
M  V30 9888 C 921.065 -2.20028 5.38482 0
M  V30 9889 N 920.041 -2.59616 4.77599 0
M  V30 9890 H 923.843 -0.993699 2.76591 0
M  V30 9891 H 921.357 -0.453334 1.55944 0
M  V30 9892 H 923.354 -3.4269 2.37422 0
M  V30 9893 H 922.014 -2.9819 1.28502 0
M  V30 9894 H 923.025 -1.89647 4.81928 0
M  V30 9895 H 919.702 -3.24928 2.62161 0
M  V30 9896 H 921.092 -1.9207 6.43862 0
M  V30 9897 N 923.813 -1.49104 -0.510467 0
M  V30 9898 C 925.06 -1.58112 -1.26518 0
M  V30 9899 C 925.388 -0.263603 -1.92705 0
M  V30 9900 O 924.643 0.747743 -1.80852 0
M  V30 9901 C 924.942 -2.68259 -2.36161 0
M  V30 9902 C 924.608 -4.10069 -1.87495 0
M  V30 9903 C 923.27 -4.48662 -1.73942 0
M  V30 9904 C 925.622 -4.98859 -1.5096 0
M  V30 9905 C 922.95 -5.73829 -1.22217 0
M  V30 9906 C 925.302 -6.24535 -1.00691 0
M  V30 9907 C 923.966 -6.61967 -0.857691 0
M  V30 9908 H 923.236 -0.578574 -0.462962 0
M  V30 9909 H 925.883 -1.82899 -0.567475 0
M  V30 9910 H 924.188 -2.37407 -3.11681 0
M  V30 9911 H 925.885 -2.7244 -2.9424 0
M  V30 9912 H 922.475 -3.79601 -1.99001 0
M  V30 9913 H 926.659 -4.69706 -1.60282 0
M  V30 9914 H 921.915 -6.01539 -1.09368 0
M  V30 9915 H 926.089 -6.9272 -0.71498 0
M  V30 9916 H 923.716 -7.58839 -0.454702 0
M  V30 9917 N 925.291 0.760815 -1.38019 0
M  V30 9918 C 926.519 1.55001 -1.37048 0
M  V30 9919 C 926.934 1.88754 0.0415261 0
M  V30 9920 O 926.291 1.52254 1.00624 0
M  V30 9921 C 926.342 2.8536 -2.21928 0
M  V30 9922 O 926.063 2.53049 -3.57628 0
M  V30 9923 C 927.564 3.79536 -2.29057 0
M  V30 9924 H 924.784 0.479844 -0.469032 0
M  V30 9925 H 927.328 0.942148 -1.81504 0
M  V30 9926 H 925.483 3.42542 -1.80953 0
M  V30 9927 H 925.897 3.36604 -4.02241 0
M  V30 9928 H 927.371 4.67977 -2.92749 0
M  V30 9929 H 927.848 4.19453 -1.30213 0
M  V30 9930 H 928.454 3.28281 -2.70392 0
M  V30 9931 N 926.769 1.22769 0.988202 0
M  V30 9932 C 928.017 1.05301 1.725 0
M  V30 9933 C 928.338 -0.412103 1.90596 0
M  V30 9934 O 927.608 -1.29606 1.46898 0
M  V30 9935 H 926.188 0.386658 0.639144 0
M  V30 9936 H 928.85 1.54359 1.18993 0
M  V30 9937 H 927.946 1.53465 2.71763 0
M  V30 9938 N 928.247 -1.18576 1.03814 0
M  V30 9939 C 929.197 -2.20034 0.597409 0
M  V30 9940 C 930.181 -1.56849 -0.358796 0
M  V30 9941 O 931.373 -1.761 -0.178262 0
M  V30 9942 C 928.502 -3.43276 -0.0407965 0
M  V30 9943 C 927.588 -4.13588 0.938404 0
M  V30 9944 N 927.979 -4.59941 2.10447 0
M  V30 9945 C 926.277 -4.3941 0.763853 0
M  V30 9946 C 926.978 -5.1404 2.72282 0
M  V30 9947 N 925.954 -5.05401 2.00176 0
M  V30 9948 H 929.756 -2.53562 1.48606 0
M  V30 9949 H 927.27 -1.34753 0.906384 0
M  V30 9950 H 929.267 -4.15217 -0.374222 0
M  V30 9951 H 927.927 -3.11245 -0.925014 0
M  V30 9952 H 928.938 -4.54471 2.48347 0
M  V30 9953 H 925.615 -4.1744 -0.0704869 0
M  V30 9954 H 927.005 -5.60128 3.71088 0
M  V30 9955 N 929.725 -0.817259 -1.34754 0
M  V30 9956 C 930.95 -0.414423 -2.03217 0
M  V30 9957 C 931.375 0.970037 -1.61158 0
M  V30 9958 O 930.733 1.63016 -0.793436 0
M  V30 9959 C 930.781 -0.518087 -3.56859 0
M  V30 9960 O 929.885 0.464314 -4.09778 0
M  V30 9961 H 929.226 -0.171454 -0.641482 0
M  V30 9962 H 931.756 -1.10611 -1.72123 0
M  V30 9963 H 931.766 -0.391779 -4.06115 0
M  V30 9964 H 930.441 -1.52786 -3.86819 0
M  V30 9965 H 929.018 0.297361 -3.71712 0
M  V30 9966 N 931.203 1.46865 -0.571711 0
M  V30 9967 C 932.45 2.0243 -0.0531071 0
M  V30 9968 C 932.778 1.44446 1.30252 0
M  V30 9969 O 932.033 0.595182 1.8643 0
M  V30 9970 C 932.332 3.57323 0.0742311 0
M  V30 9971 C 931.998 4.34295 -1.21237 0
M  V30 9972 C 930.66 4.55044 -1.56489 0
M  V30 9973 C 933.012 4.78577 -2.0643 0
M  V30 9974 C 930.34 5.17325 -2.76752 0
M  V30 9975 C 932.692 5.42186 -3.25909 0
M  V30 9976 C 931.356 5.61165 -3.61456 0
M  V30 9977 H 930.626 0.740745 -0.0194333 0
M  V30 9978 H 933.273 1.76366 -0.74614 0
M  V30 9979 H 931.578 3.82461 0.850325 0
M  V30 9980 H 933.275 3.97982 0.491077 0
M  V30 9981 H 929.865 4.18435 -0.927922 0
M  V30 9982 H 934.049 4.62313 -1.80501 0
M  V30 9983 H 929.305 5.30211 -3.04444 0
M  V30 9984 H 933.479 5.75459 -3.92198 0
M  V30 9985 H 931.106 6.09195 -4.54737 0
M  V30 9986 N 932.681 0.308908 1.54543 0
M  V30 9987 C 933.93 -0.298854 1.99474 0
M  V30 9988 C 934.243 -1.54393 1.20093 0
M  V30 9989 O 935.449 -2.22677 1.55329 0
M  V30 9990 C 933.905 -0.58303 3.55146 0
M  V30 9991 C 933.513 0.644157 4.43345 0
M  V30 9992 C 935.257 -1.15155 4.08582 0
M  V30 9993 C 933.164 0.332694 5.90463 0
M  V30 9994 H 932.094 -0.115445 0.74511 0
M  V30 9995 H 934.745 0.418848 1.78656 0
M  V30 9996 H 933.127 -1.36053 3.71894 0
M  V30 9997 H 934.301 1.42012 4.38371 0
M  V30 9998 H 932.616 1.13186 4.00722 0
M  V30 9999 H 935.213 -1.39896 5.16075 0
M  V30 10000 H 935.556 -2.09632 3.59667 0
M  V30 10001 H 936.089 -0.435571 3.95408 0
M  V30 10002 H 932.828 1.24624 6.43544 0
M  V30 10003 H 932.348 -0.405844 5.98425 0
M  V30 10004 H 934.027 -0.0628545 6.46969 0
M  V30 10005 N 934.159 -1.57557 0.0367827 0
M  V30 10006 C 935.389 -1.96134 -0.649225 0
M  V30 10007 C 935.797 -0.912279 -1.65753 0
M  V30 10008 O 935.14 0.113569 -1.83349 0
M  V30 10009 C 935.202 -3.30889 -1.40545 0
M  V30 10010 C 934.866 -4.53622 -0.554609 0
M  V30 10011 C 935.863 -5.19611 0.17331 0
M  V30 10012 C 933.548 -4.99907 -0.48976 0
M  V30 10013 C 935.542 -6.3021 0.95467 0
M  V30 10014 C 933.229 -6.10386 0.295299 0
M  V30 10015 C 934.227 -6.75398 1.01621 0
M  V30 10016 O 933.915 -7.83755 1.78839 0
M  V30 10017 H 933.647 -0.650662 -0.183344 0
M  V30 10018 H 936.201 -2.05179 0.0951512 0
M  V30 10019 H 934.431 -3.18356 -2.19513 0
M  V30 10020 H 936.12 -3.54315 -1.9803 0
M  V30 10021 H 936.886 -4.84819 0.132589 0
M  V30 10022 H 932.765 -4.49105 -1.04046 0
M  V30 10023 H 936.309 -6.80886 1.51789 0
M  V30 10024 H 932.206 -6.44616 0.33771 0
M  V30 10025 H 932.974 -8.0046 1.70898 0
M  V30 10026 N 935.637 0.236453 -1.55816 0
M  V30 10027 C 936.885 0.96111 -1.77784 0
M  V30 10028 C 937.206 1.85454 -0.602648 0
M  V30 10029 O 936.476 1.92157 0.381137 0
M  V30 10030 H 935.056 0.35787 -0.655697 0
M  V30 10031 H 937.718 0.251888 -1.93265 0
M  V30 10032 H 936.814 1.5767 -2.69345 0
M  V30 10033 N 937.115 1.49373 0.502552 0
M  V30 10034 C 938.062 1.65927 1.60427 0
M  V30 10035 C 939.032 0.500768 1.58371 0
M  V30 10036 O 940.217 0.727606 1.76382 0
M  V30 10037 C 937.357 1.73043 2.9858 0
M  V30 10038 C 936.47 3.00187 3.10663 0
M  V30 10039 C 935.605 2.98292 4.3954 0
M  V30 10040 C 934.644 4.20022 4.4525 0
M  V30 10041 N 933.781 4.16046 5.65553 0
M  V30 10042 H 938.621 2.59998 1.45619 0
M  V30 10043 H 936.158 1.28912 0.708519 0
M  V30 10044 H 938.116 1.7515 3.78653 0
M  V30 10045 H 936.746 0.824397 3.12095 0
M  V30 10046 H 935.798 3.07699 2.23663 0
M  V30 10047 H 937.11 3.9018 3.10742 0
M  V30 10048 H 936.264 2.98953 5.27932 0
M  V30 10049 H 935.003 2.06075 4.42023 0
M  V30 10050 H 934.008 4.19607 3.5526 0
M  V30 10051 H 935.233 5.13431 4.44484 0
M  V30 10052 H 933.179 3.26665 5.68881 0
M  V30 10053 H 933.096 4.99773 5.67242 0
M  V30 10054 H 934.364 4.20807 6.56156 0
M  V30 10055 N 938.594 -0.753485 1.38421 0
M  V30 10056 C 940.01 -1.05656 1.1962 0
M  V30 10057 C 940.21 -2.0145 0.0449443 0
M  V30 10058 O 939.266 -2.45039 -0.609253 0
M  V30 10059 C 940.579 -1.63655 2.52265 0
M  V30 10060 C 942.127 -1.75825 2.58949 0
M  V30 10061 C 942.602 -2.37236 3.91769 0
M  V30 10062 N 944.093 -2.44666 3.9331 0
M  V30 10063 C 944.828 -2.93077 4.92842 0
M  V30 10064 N 944.324 -3.41523 6.02772 0
M  V30 10065 N 946.117 -2.92118 4.80232 0
M  V30 10066 H 938.268 -0.117799 2.12073 0
M  V30 10067 H 940.531 -0.114889 0.941012 0
M  V30 10068 H 940.237 -1.00734 3.36965 0
M  V30 10069 H 940.111 -2.62715 2.70667 0
M  V30 10070 H 942.498 -2.37873 1.74644 0
M  V30 10071 H 942.579 -0.754693 2.44414 0
M  V30 10072 H 942.223 -1.75822 4.76497 0
M  V30 10073 H 942.153 -3.38233 4.03616 0
M  V30 10074 H 944.644 -2.10403 3.1391 0
M  V30 10075 H 944.957 -3.76919 6.74649 0
M  V30 10076 H 943.302 -3.3958 6.06391 0
M  V30 10077 H 946.493 -2.53582 3.93464 0
M  V30 10078 H 946.666 -3.29535 5.57952 0
M  V30 10079 N 940.072 -1.23292 -0.981677 0
M  V30 10080 C 941.022 -0.980133 -2.05858 0
M  V30 10081 C 942.006 0.0734044 -1.60732 0
M  V30 10082 O 943.198 -0.138561 -1.76457 0
M  V30 10083 C 940.327 -0.571879 -3.38503 0
M  V30 10084 C 939.413 -1.66075 -3.90231 0
M  V30 10085 N 939.804 -2.89077 -4.15052 0
M  V30 10086 C 938.102 -1.53503 -4.18751 0
M  V30 10087 C 938.803 -3.59567 -4.5726 0
M  V30 10088 N 937.779 -2.87076 -4.61615 0
M  V30 10089 H 941.581 -1.91432 -2.23005 0
M  V30 10090 H 939.095 -1.13211 -1.16434 0
M  V30 10091 H 941.092 -0.372059 -4.15236 0
M  V30 10092 H 939.752 0.355278 -3.2275 0
M  V30 10093 H 940.763 -3.25395 -4.02912 0
M  V30 10094 H 937.44 -0.674891 -4.12009 0
M  V30 10095 H 938.83 -4.65007 -4.84993 0
M  V30 10096 N 941.55 1.18024 -1.04442 0
M  V30 10097 C 942.46 2.25436 -0.649276 0
M  V30 10098 C 943.476 1.70915 0.326189 0
M  V30 10099 O 944.652 2.00592 0.180174 0
M  V30 10100 C 941.717 3.46693 -0.0222558 0
M  V30 10101 C 940.778 4.16332 -1.0472 0
M  V30 10102 C 940.011 5.31799 -0.450011 0
M  V30 10103 O 940.234 5.65544 0.742717 0
M  V30 10104 O 939.168 5.90209 -1.18056 0
M  V30 10105 H 942.994 2.61508 -1.54426 0
M  V30 10106 H 940.579 1.25178 -0.81552 0
M  V30 10107 H 942.461 4.20132 0.326597 0
M  V30 10108 H 941.136 3.12436 0.84649 0
M  V30 10109 H 940.043 3.44944 -1.44792 0
M  V30 10110 H 941.376 4.54598 -1.88684 0
M  V30 10111 N 943.028 0.824394 1.34319 0
M  V30 10112 C 944.305 0.335692 1.92698 0
M  V30 10113 C 944.685 -1.17715 1.75232 0
M  V30 10114 O 944.033 -1.98493 1.13194 0
M  V30 10115 C 944.243 0.766647 3.40475 0
M  V30 10116 C 945.591 0.766323 4.17627 0
M  V30 10117 O 946.615 0.709321 3.49066 0
M  V30 10118 O 945.474 0.840856 5.39992 0
M  V30 10119 H 942.568 0.0919996 0.821867 0
M  V30 10120 H 945.114 0.909282 1.43283 0
M  V30 10121 H 943.886 1.80859 3.46995 0
M  V30 10122 H 943.509 0.168833 3.97241 0
M  V30 10123 N 944.506 -1.46559 0.579492 0
M  V30 10124 C 945.734 -2.06784 0.0693648 0
M  V30 10125 C 946.149 -1.42875 -1.23419 0
M  V30 10126 O 945.506 -0.532919 -1.74546 0
M  V30 10127 C 945.557 -3.61343 -0.106511 0
M  V30 10128 O 945.278 -4.22861 1.14545 0
M  V30 10129 C 946.779 -4.38489 -0.651359 0
M  V30 10130 H 943.999 -0.66866 0.0559848 0
M  V30 10131 H 946.543 -1.88235 0.799245 0
M  V30 10132 H 944.698 -3.7933 -0.786601 0
M  V30 10133 H 945.112 -5.15691 0.95723 0
M  V30 10134 H 946.586 -5.47237 -0.723615 0
M  V30 10135 H 947.063 -4.06309 -1.66763 0
M  V30 10136 H 947.669 -4.253 -0.0062433 0
M  V30 10137 N 945.984 -0.3171 -1.54377 0
M  V30 10138 C 946.914 0.544623 -2.2706 0
M  V30 10139 C 947.895 1.12469 -1.27611 0
M  V30 10140 O 949.08 1.15103 -1.56413 0
M  V30 10141 C 946.21 1.70879 -3.02353 0
M  V30 10142 C 945.164 1.25833 -4.09084 0
M  V30 10143 C 944.49 2.50894 -4.72182 0
M  V30 10144 C 945.79 0.377876 -5.20931 0
M  V30 10145 H 947.484 -0.0616372 -2.99337 0
M  V30 10146 H 945.03 -0.0310848 -1.43966 0
M  V30 10147 H 946.983 2.31787 -3.51927 0
M  V30 10148 H 945.707 2.34155 -2.27682 0
M  V30 10149 H 944.366 0.672228 -3.60384 0
M  V30 10150 H 944.014 3.12518 -3.94134 0
M  V30 10151 H 943.714 2.21447 -5.44275 0
M  V30 10152 H 945.238 3.12575 -5.24528 0
M  V30 10153 H 946.652 0.893056 -5.66302 0
M  V30 10154 H 945.049 0.176474 -5.9984 0
M  V30 10155 H 946.119 -0.592943 -4.81261 0
M  V30 10156 N 947.462 1.57535 -0.0451378 0
M  V30 10157 C 948.69 1.96761 0.639742 0
M  V30 10158 C 949.105 0.922405 1.64734 0
M  V30 10159 O 948.462 -0.0940535 1.82257 0
M  V30 10160 C 948.513 3.36066 1.33199 0
M  V30 10161 O 948.234 4.36579 0.364757 0
M  V30 10162 C 949.735 3.90015 2.1072 0
M  V30 10163 H 946.955 0.64769 0.175324 0
M  V30 10164 H 949.499 2.04206 -0.109651 0
M  V30 10165 H 947.654 3.2979 2.03266 0
M  V30 10166 H 948.068 5.17432 0.858168 0
M  V30 10167 H 949.542 4.89785 2.54586 0
M  V30 10168 H 950.019 3.25117 2.95288 0
M  V30 10169 H 950.625 3.99609 1.45577 0
M  V30 10170 N 948.94 -0.228186 1.55939 0
M  V30 10171 C 949.87 -1.28607 1.94891 0
M  V30 10172 C 950.851 -1.49236 0.816245 0
M  V30 10173 O 952.036 -1.61531 1.07803 0
M  V30 10174 C 949.166 -2.63719 2.25986 0
M  V30 10175 C 948.12 -2.57757 3.4168 0
M  V30 10176 C 947.446 -3.96837 3.58364 0
M  V30 10177 C 948.746 -2.13116 4.76843 0
M  V30 10178 H 950.44 -0.962531 2.83506 0
M  V30 10179 H 947.986 -0.461577 1.36402 0
M  V30 10180 H 949.939 -3.37878 2.51826 0
M  V30 10181 H 948.663 -2.97747 1.34217 0
M  V30 10182 H 947.322 -1.86055 3.15878 0
M  V30 10183 H 946.97 -4.28162 2.63982 0
M  V30 10184 H 946.67 -3.93731 4.36176 0
M  V30 10185 H 948.194 -4.72668 3.86545 0
M  V30 10186 H 949.608 -2.77015 5.01932 0
M  V30 10187 H 948.005 -2.21083 5.57891 0
M  V30 10188 H 949.075 -1.08326 4.72645 0
M  V30 10189 N 950.418 -1.49637 -0.494624 0
M  V30 10190 C 951.665 -1.59445 -1.24834 0
M  V30 10191 C 951.993 -0.284028 -1.92415 0
M  V30 10192 O 951.248 0.728519 -1.81634 0
M  V30 10193 C 951.547 -2.70749 -2.33302 0
M  V30 10194 C 951.213 -4.12034 -1.83135 0
M  V30 10195 C 949.875 -4.50482 -1.69173 0
M  V30 10196 C 952.227 -5.00432 -1.4566 0
M  V30 10197 C 949.555 -5.75093 -1.16124 0
M  V30 10198 C 951.907 -6.25568 -0.940608 0
M  V30 10199 C 950.571 -6.62839 -0.787432 0
M  V30 10200 H 949.841 -0.583451 -0.456799 0
M  V30 10201 H 952.488 -1.8349 -0.548044 0
M  V30 10202 H 950.793 -2.407 -3.09145 0
M  V30 10203 H 952.49 -2.75546 -2.91334 0
M  V30 10204 H 949.08 -3.8169 -1.94964 0
M  V30 10205 H 953.264 -4.71379 -1.55291 0
M  V30 10206 H 948.52 -6.02665 -1.02982 0
M  V30 10207 H 952.694 -6.93439 -0.641467 0
M  V30 10208 H 950.321 -7.59279 -0.374191 0
M  V30 10209 N 951.896 0.746133 -1.38819 0
M  V30 10210 C 953.307 1.32384 -1.31648 0
M  V30 10211 C 953.658 1.96185 0.0243086 0
M  V30 10212 O 952.783 1.95567 0.92641 0
M  V30 10213 C 953.378 2.40712 -2.38418 0
M  V30 10214 C 951.937 2.94185 -2.34803 0
M  V30 10215 C 951.084 1.67639 -2.20891 0
M  V30 10216 H 954.035 0.544457 -1.49068 0
M  V30 10217 H 954.056 3.20833 -2.04564 0
M  V30 10218 H 953.568 1.94247 -3.3599 0
M  V30 10219 H 951.669 3.44959 -1.40834 0
M  V30 10220 H 951.782 3.48057 -3.29231 0
M  V30 10221 H 950.146 1.9155 -1.67871 0
M  V30 10222 H 950.929 1.23242 -3.20416 0
M  V30 10223 N 953.375 1.23811 0.975125 0
M  V30 10224 C 954.308 0.967173 2.06691 0
M  V30 10225 C 955.286 -0.09642 1.62314 0
M  V30 10226 O 956.47 0.0389532 1.8846 0
M  V30 10227 C 953.597 0.458094 3.35588 0
M  V30 10228 C 952.643 1.5091 3.98909 0
M  V30 10229 S 953.476 3.08815 4.37485 0
M  V30 10230 C 954.632 2.59591 5.69529 0
M  V30 10231 H 954.865 1.89166 2.29355 0
M  V30 10232 H 952.398 1.07113 1.11203 0
M  V30 10233 H 954.356 0.170991 4.10144 0
M  V30 10234 H 953.017 -0.445562 3.10924 0
M  V30 10235 H 952.21 1.10315 4.91779 0
M  V30 10236 H 951.812 1.74582 3.30752 0
M  V30 10237 H 954.104 2.0194 6.46704 0
M  V30 10238 H 955.047 3.51021 6.14971 0
M  V30 10239 H 955.455 2.00267 5.27782 0
M  V30 10240 N 954.853 -1.17469 1.05066 0
M  V30 10241 C 956.269 -1.39699 0.771769 0
M  V30 10242 C 956.469 -1.91253 -0.634382 0
M  V30 10243 O 955.525 -2.10334 -1.39699 0
M  V30 10244 C 956.838 -2.38886 1.82631 0
M  V30 10245 C 958.386 -2.52595 1.84838 0
M  V30 10246 C 958.861 -3.55054 2.89311 0
M  V30 10247 N 960.352 -3.6257 2.88266 0
M  V30 10248 C 961.087 -4.41603 3.65752 0
M  V30 10249 N 960.583 -5.24162 4.53019 0
M  V30 10250 N 962.376 -4.36464 3.54197 0
M  V30 10251 H 954.527 -0.823355 1.95792 0
M  V30 10252 H 956.79 -0.42432 0.847736 0
M  V30 10253 H 956.496 -2.08075 2.83545 0
M  V30 10254 H 956.37 -3.38371 1.66687 0
M  V30 10255 H 958.757 -2.82717 0.845888 0
M  V30 10256 H 958.838 -1.53188 2.04859 0
M  V30 10257 H 958.482 -3.2567 3.89745 0
M  V30 10258 H 958.412 -4.54162 2.66542 0
M  V30 10259 H 960.903 -3.03625 2.24989 0
M  V30 10260 H 961.216 -5.81646 5.0883 0
M  V30 10261 H 959.561 -5.23547 4.57081 0
M  V30 10262 H 962.752 -3.7102 2.85416 0
M  V30 10263 H 962.925 -4.97814 4.14832 0
M  V30 10264 N 956.331 -0.831506 -1.3388 0
M  V30 10265 C 957.579 -0.422837 -1.97627 0
M  V30 10266 C 957.9 1.01961 -1.6622 0
M  V30 10267 O 957.17 1.70916 -0.957323 0
M  V30 10268 H 955.75 -0.153365 -0.731087 0
M  V30 10269 H 958.412 -1.06284 -1.6337 0
M  V30 10270 H 957.508 -0.548858 -3.07236 0
M  V30 10271 N 957.809 1.4625 -0.587256 0
M  V30 10272 C 958.719 2.34147 0.145744 0
M  V30 10273 C 959.735 1.50026 0.881376 0
M  V30 10274 O 960.911 1.82884 0.843539 0
M  V30 10275 C 957.976 3.27294 1.14366 0
M  V30 10276 C 957.037 4.27317 0.412199 0
M  V30 10277 C 956.27 5.16013 1.36257 0
M  V30 10278 O 956.493 5.0773 2.59934 0
M  V30 10279 O 955.427 5.95569 0.870681 0
M  V30 10280 H 959.253 2.98187 -0.576055 0
M  V30 10281 H 956.838 1.45299 -0.347628 0
M  V30 10282 H 958.72 3.84747 1.71894 0
M  V30 10283 H 957.395 2.65845 1.84684 0
M  V30 10284 H 956.302 3.73538 -0.205036 0
M  V30 10285 H 957.635 4.91564 -0.250104 0
M  V30 10286 N 959.287 0.325282 1.54207 0
M  V30 10287 C 960.512 -0.281418 2.05482 0
M  V30 10288 C 960.937 -1.44869 1.19977 0
M  V30 10289 O 960.295 -1.80088 0.209275 0
M  V30 10290 C 960.343 -0.692029 3.53897 0
M  V30 10291 O 959.447 -1.7942 3.71325 0
M  V30 10292 H 958.788 -0.0504872 0.662078 0
M  V30 10293 H 961.318 0.474191 1.99029 0
M  V30 10294 H 961.328 -0.974219 3.96198 0
M  V30 10295 H 960.003 0.161709 4.15586 0
M  V30 10296 H 958.58 -1.51069 3.40929 0
M  V30 10297 N 960.765 -1.57509 0.0534917 0
M  V30 10298 C 962.011 -1.93068 -0.62069 0
M  V30 10299 C 962.344 -0.932313 -1.70357 0
M  V30 10300 O 961.619 0.0413393 -1.94456 0
M  V30 10301 C 961.902 -3.38997 -1.21463 0
M  V30 10302 C 961.755 -4.49583 -0.13965 0
M  V30 10303 C 963.074 -3.85366 -2.12558 0
M  V30 10304 H 960.193 -0.702083 -0.224163 0
M  V30 10305 H 962.835 -1.89647 0.115729 0
M  V30 10306 H 960.985 -3.42043 -1.84226 0
M  V30 10307 H 962.657 -4.58664 0.492411 0
M  V30 10308 H 960.9 -4.30525 0.532006 0
M  V30 10309 H 961.571 -5.48781 -0.595287 0
M  V30 10310 H 964.047 -3.8421 -1.59755 0
M  V30 10311 H 962.923 -4.8812 -2.51058 0
M  V30 10312 H 963.184 -3.22256 -3.02661 0
M  V30 10313 N 962.243 0.219913 -1.56058 0
M  V30 10314 C 963.471 0.960915 -1.83232 0
M  V30 10315 C 963.886 1.77878 -0.632828 0
M  V30 10316 O 963.243 1.78093 0.398624 0
M  V30 10317 C 963.294 1.87716 -3.08942 0
M  V30 10318 O 963.015 1.09235 -4.24263 0
M  V30 10319 C 964.516 2.73192 -3.49115 0
M  V30 10320 H 961.736 0.281546 -0.609075 0
M  V30 10321 H 964.28 0.234648 -2.03149 0
M  V30 10322 H 962.435 2.55736 -2.90995 0
M  V30 10323 H 962.849 1.71446 -4.95688 0
M  V30 10324 H 964.323 3.33181 -4.40107 0
M  V30 10325 H 964.8 3.45668 -2.70943 0
M  V30 10326 H 965.406 2.10583 -3.69506 0
M  V30 10327 N 963.721 1.49897 0.486681 0
M  V30 10328 C 964.967 1.60342 1.2417 0
M  V30 10329 C 965.3 0.295694 1.91936 0
M  V30 10330 O 964.575 -0.701788 1.81398 0
M  V30 10331 C 964.858 2.77281 2.29755 0
M  V30 10332 C 964.711 4.1789 1.66397 0
M  V30 10333 C 966.03 2.89817 3.31201 0
M  V30 10334 H 963.149 0.583605 0.450083 0
M  V30 10335 H 965.791 1.82232 0.537734 0
M  V30 10336 H 963.941 2.58748 2.89796 0
M  V30 10337 H 965.613 4.47975 1.10073 0
M  V30 10338 H 963.856 4.22872 0.967579 0
M  V30 10339 H 964.527 4.95612 2.43049 0
M  V30 10340 H 967.003 3.06732 2.81167 0
M  V30 10341 H 965.879 3.7329 4.02425 0
M  V30 10342 H 966.14 1.9977 3.94391 0
M  V30 10343 N 965.199 -0.738761 1.39212 0
M  V30 10344 C 966.427 -1.52801 1.39497 0
M  V30 10345 C 966.842 -1.88797 -0.0114917 0
M  V30 10346 O 966.199 -1.53835 -0.981887 0
M  V30 10347 C 966.25 -2.81793 2.2644 0
M  V30 10348 O 965.971 -2.47328 3.61608 0
M  V30 10349 C 967.472 -3.75844 2.35067 0
M  V30 10350 H 964.692 -0.472322 0.476606 0
M  V30 10351 H 967.236 -0.913153 1.8298 0
M  V30 10352 H 965.391 -3.3962 1.8638 0
M  V30 10353 H 965.805 -3.30162 4.07545 0
M  V30 10354 H 967.279 -4.6326 3.00157 0
M  V30 10355 H 967.756 -4.17329 1.3687 0
M  V30 10356 H 968.362 -3.23937 2.75581 0
M  V30 10357 N 966.677 -1.24326 -0.968545 0
M  V30 10358 C 967.61 -0.978121 -2.06175 0
M  V30 10359 C 968.588 0.0878107 -1.62363 0
M  V30 10360 O 969.772 -0.0489472 -1.88436 0
M  V30 10361 C 966.899 -0.475884 -3.3534 0
M  V30 10362 C 965.945 -1.53023 -3.98103 0
M  V30 10363 S 966.778 -3.11131 -4.35841 0
M  V30 10364 C 967.934 -2.62608 -5.68144 0
M  V30 10365 H 968.167 -1.9038 -2.28348 0
M  V30 10366 H 965.7 -1.07701 -1.10633 0
M  V30 10367 H 967.658 -0.192739 -4.10047 0
M  V30 10368 H 966.319 0.429067 -3.11156 0
M  V30 10369 H 965.512 -1.12922 -4.91187 0
M  V30 10370 H 965.114 -1.76334 -3.29822 0
M  V30 10371 H 967.406 -2.05367 -6.45624 0
M  V30 10372 H 968.349 -3.54277 -6.13101 0
M  V30 10373 H 968.757 -2.03063 -5.26712 0
M  V30 10374 N 968.156 1.1691 -1.05688 0
M  V30 10375 C 969.433 1.83266 -0.683601 0
M  V30 10376 C 969.813 1.93858 0.835602 0
M  V30 10377 O 969.161 1.47696 1.7435 0
M  V30 10378 C 969.371 3.20625 -1.37842 0
M  V30 10379 C 970.719 3.96473 -1.51967 0
M  V30 10380 O 971.743 3.30122 -1.33783 0
M  V30 10381 O 970.602 5.15393 -1.81749 0
M  V30 10382 H 967.696 0.791028 -0.241254 0
M  V30 10383 H 970.242 1.24165 -1.15677 0
M  V30 10384 H 969.014 3.07914 -2.41463 0
M  V30 10385 H 968.637 3.87398 -0.894921 0
M  V30 10386 N 969.634 0.838594 1.33437 0
M  V30 10387 C 970.582 0.260158 2.31141 0
M  V30 10388 C 971.576 -0.607706 1.58124 0
M  V30 10389 O 972.782 -0.497298 1.72994 0
M  V30 10390 H 969.157 0.0654031 0.74915 0
M  V30 10391 H 971.128 1.09874 2.77435 0
M  V30 10392 C 969.877 -0.550234 3.43319 0
M  V30 10393 H 969.2 0.108262 3.99653 0
M  V30 10394 H 970.64 -0.920815 4.1388 0
M  V30 10395 C 969.099 -1.729 2.89149 0
M  V30 10396 O 969.629 -2.82769 2.85315 0
M  V30 10397 N 967.835 -1.5508 2.45761 0
M  V30 10398 H 967.382 -0.657055 2.49079 0
M  V30 10399 H 967.34 -2.34099 2.0987 0
M  V30 10400 N 971.112 -1.45937 0.595003 0
M  V30 10401 C 972.358 -2.0262 0.0854317 0
M  V30 10402 C 972.691 -1.46402 -1.27594 0
M  V30 10403 O 971.966 -0.633823 -1.83883 0
M  V30 10404 C 972.249 -3.60085 0.0329075 0
M  V30 10405 C 972.102 -4.26663 1.42405 0
M  V30 10406 C 973.421 -4.35101 -0.661426 0
M  V30 10407 H 970.54 -0.736282 0.0325196 0
M  V30 10408 H 973.182 -1.73938 0.764563 0
M  V30 10409 H 971.332 -3.84652 -0.545439 0
M  V30 10410 H 973.004 -4.13321 2.04851 0
M  V30 10411 H 971.247 -3.85549 1.98833 0
M  V30 10412 H 971.918 -5.35497 1.33965 0
M  V30 10413 H 974.394 -4.15753 -0.169977 0
M  V30 10414 H 973.27 -5.44829 -0.667243 0
M  V30 10415 H 973.531 -4.07053 -1.72513 0
M  V30 10416 N 972.59 -0.333456 -1.54032 0
M  V30 10417 C 973.838 0.265608 -2.00347 0
M  V30 10418 C 974.159 1.51873 -1.2231 0
M  V30 10419 O 973.429 1.93142 -0.327549 0
M  V30 10420 H 972.009 0.101135 -0.740122 0
M  V30 10421 H 974.671 -0.452285 -1.8958 0
M  V30 10422 H 973.767 0.51511 -3.0782 0
M  V30 10423 N 974.068 1.57479 -0.061844 0
M  V30 10424 C 975.296 1.97429 0.618837 0
M  V30 10425 C 975.711 0.939826 1.63746 0
M  V30 10426 O 975.068 -0.0747173 1.82347 0
M  V30 10427 C 975.119 3.3746 1.29628 0
M  V30 10428 O 974.84 4.36941 0.318431 0
M  V30 10429 C 976.341 3.92228 2.06572 0
M  V30 10430 H 973.561 0.649513 0.168444 0
M  V30 10431 H 976.105 2.04078 -0.131303 0
M  V30 10432 H 974.26 3.31928 1.99757 0
M  V30 10433 H 974.674 5.18313 0.803239 0
M  V30 10434 H 976.148 4.92458 2.49377 0
M  V30 10435 H 976.625 3.28231 2.91824 0
M  V30 10436 H 977.231 4.01131 1.4133 0
M  V30 10437 N 975.546 -0.211634 1.56173 0
M  V30 10438 C 976.792 -0.931479 1.80818 0
M  V30 10439 C 977.147 -1.81571 0.636373 0
M  V30 10440 O 976.44 -1.8801 -0.369182 0
M  V30 10441 C 976.634 -1.79657 3.08963 0
M  V30 10442 C 976.463 -0.997577 4.38496 0
M  V30 10443 C 975.233 -0.688558 5.00587 0
M  V30 10444 C 977.431 -0.358138 5.13052 0
M  V30 10445 N 975.413 0.130797 6.13761 0
M  V30 10446 C 976.784 0.324159 6.19152 0
M  V30 10447 C 978.839 -0.272178 4.97156 0
M  V30 10448 C 977.542 1.08421 7.11082 0
M  V30 10449 C 979.568 0.474428 5.89494 0
M  V30 10450 C 978.93 1.14523 6.95028 0
M  V30 10451 H 975.029 -0.32079 0.713174 0
M  V30 10452 H 977.613 -0.201528 1.93654 0
M  V30 10453 H 975.784 -2.49826 2.97392 0
M  V30 10454 H 977.516 -2.45464 3.2176 0
M  V30 10455 H 974.271 -1.00899 4.62727 0
M  V30 10456 H 974.695 0.5296 6.74925 0
M  V30 10457 H 979.337 -0.776448 4.15609 0
M  V30 10458 H 977.055 1.59996 7.92103 0
M  V30 10459 H 980.641 0.542076 5.79269 0
M  V30 10460 H 979.521 1.71371 7.65246 0
M  V30 10461 N 977.024 -1.50153 -0.478725 0
M  V30 10462 C 977.957 -1.63089 -1.59616 0
M  V30 10463 C 978.935 -0.479211 -1.55378 0
M  V30 10464 O 980.119 -0.697715 -1.75112 0
M  V30 10465 C 977.246 -1.60643 -2.9818 0
M  V30 10466 C 976.292 -2.81279 -3.206 0
M  V30 10467 S 977.125 -4.42681 -3.0132 0
M  V30 10468 C 978.281 -4.42915 -4.42241 0
M  V30 10469 H 978.514 -2.57612 -1.48402 0
M  V30 10470 H 976.047 -1.39321 -0.665513 0
M  V30 10471 H 978.005 -1.59917 -3.7807 0
M  V30 10472 H 976.666 -0.673684 -3.0679 0
M  V30 10473 H 975.859 -2.7585 -4.21809 0
M  V30 10474 H 975.461 -2.79533 -2.4847 0
M  V30 10475 H 977.753 -4.16007 -5.34737 0
M  V30 10476 H 978.696 -5.44477 -4.52715 0
M  V30 10477 H 979.104 -3.72715 -4.23962 0
M  V30 10478 N 978.502 0.731368 -1.39602 0
M  V30 10479 C 979.432 1.85855 -1.41351 0
M  V30 10480 C 980.413 1.67839 -0.2764 0
M  V30 10481 O 981.598 1.88104 -0.482747 0
M  V30 10482 C 978.728 3.23644 -1.25983 0
M  V30 10483 C 977.682 3.56304 -2.37132 0
M  V30 10484 C 977.008 4.93069 -2.0685 0
M  V30 10485 C 978.308 3.58906 -3.79452 0
M  V30 10486 H 980.002 1.84648 -2.3568 0
M  V30 10487 H 977.548 0.886955 -1.13442 0
M  V30 10488 H 979.501 4.02176 -1.25826 0
M  V30 10489 H 978.225 3.25387 -0.281234 0
M  V30 10490 H 976.884 2.80104 -2.36511 0
M  V30 10491 H 976.532 4.91396 -1.0742 0
M  V30 10492 H 976.232 5.15888 -2.81306 0
M  V30 10493 H 977.756 5.73953 -2.0835 0
M  V30 10494 H 979.17 4.27508 -3.81982 0
M  V30 10495 H 977.567 3.93246 -4.53297 0
M  V30 10496 H 978.637 2.58631 -4.10168 0
M  V30 10497 N 979.98 1.24838 0.961938 0
M  V30 10498 C 981.208 1.11871 1.74047 0
M  V30 10499 C 981.623 -0.328209 1.85925 0
M  V30 10500 O 980.98 -1.22616 1.35173 0
M  V30 10501 C 981.031 1.75931 3.15801 0
M  V30 10502 O 980.752 3.14967 3.04512 0
M  V30 10503 C 982.253 1.68649 4.09966 0
M  V30 10504 H 979.473 0.390569 0.545616 0
M  V30 10505 H 982.017 1.65058 1.20732 0
M  V30 10506 H 980.172 1.26733 3.66084 0
M  V30 10507 H 980.586 3.46349 3.93882 0
M  V30 10508 H 982.06 2.18144 5.07067 0
M  V30 10509 H 982.537 0.648831 4.34381 0
M  V30 10510 H 983.143 2.17301 3.65596 0
M  V30 10511 N 981.458 -1.16348 1.06306 0
M  V30 10512 C 982.683 -1.91323 0.800636 0
M  V30 10513 C 983.108 -1.7691 -0.639105 0
M  V30 10514 O 982.466 -1.0945 -1.44535 0
M  V30 10515 C 982.514 -3.40038 1.20027 0
M  V30 10516 O 981.618 -4.11003 0.339142 0
M  V30 10517 H 980.959 -0.596057 0.292595 0
M  V30 10518 H 983.489 -1.47406 1.41889 0
M  V30 10519 H 983.499 -3.90808 1.17188 0
M  V30 10520 H 982.174 -3.49848 2.24898 0
M  V30 10521 H 980.751 -3.70423 0.42911 0
M  V30 10522 N 982.937 -0.845659 -1.3299 0
M  V30 10523 C 983.87 -0.228695 -2.27051 0
M  V30 10524 C 984.848 0.62812 -1.49978 0
M  V30 10525 O 986.032 0.586897 -1.79131 0
M  V30 10526 C 983.159 0.678251 -3.31839 0
M  V30 10527 C 982.205 -0.103994 -4.26373 0
M  V30 10528 S 983.038 -1.46642 -5.1503 0
M  V30 10529 C 984.194 -0.564953 -6.23345 0
M  V30 10530 H 984.427 -1.02609 -2.79032 0
M  V30 10531 H 981.96 -0.642786 -1.40384 0
M  V30 10532 H 983.918 1.1959 -3.92694 0
M  V30 10533 H 982.579 1.44937 -2.78661 0
M  V30 10534 H 981.772 0.586406 -5.00577 0
M  V30 10535 H 981.374 -0.552927 -3.6989 0
M  V30 10536 H 983.666 0.234466 -6.77094 0
M  V30 10537 H 984.609 -1.27736 -6.96483 0
M  V30 10538 H 985.017 -0.143286 -5.64318 0
M  V30 10539 N 984.415 1.45619 -0.602734 0
M  V30 10540 C 985.363 2.32228 0.131484 0
M  V30 10541 C 986.357 1.45681 0.864484 0
M  V30 10542 O 987.563 1.62193 0.7806 0
M  V30 10543 H 983.938 0.7495 0.0612638 0
M  V30 10544 H 985.909 2.91941 -0.617496 0
M  V30 10545 C 984.658 3.29213 1.11866 0
M  V30 10546 H 983.981 3.95801 0.564061 0
M  V30 10547 H 985.421 3.92554 1.60242 0
M  V30 10548 C 983.88 2.56028 2.18978 0
M  V30 10549 O 984.41 2.33806 3.26646 0
M  V30 10550 N 982.616 2.16245 1.94129 0
M  V30 10551 H 982.163 2.34518 1.06579 0
M  V30 10552 H 982.121 1.67601 2.66003 0
M  V30 10553 N 985.893 0.34162 1.53853 0
M  V30 10554 C 987.118 -0.259608 2.05769 0
M  V30 10555 C 987.543 -1.43588 1.21507 0
M  V30 10556 O 986.901 -1.79856 0.228364 0
M  V30 10557 C 986.949 -0.654455 3.54611 0
M  V30 10558 O 986.053 -1.75472 3.73207 0
M  V30 10559 H 985.394 -0.0434621 0.662576 0
M  V30 10560 H 987.924 0.495274 1.98515 0
M  V30 10561 H 987.934 -0.932142 3.97209 0
M  V30 10562 H 986.609 0.205779 4.15391 0
M  V30 10563 H 985.186 -1.47444 3.42512 0
M  V30 10564 N 987.371 -1.57444 0.0701946 0
M  V30 10565 C 988.596 -1.98171 -0.61181 0
M  V30 10566 C 989.021 -0.94823 -1.62451 0
M  V30 10567 O 988.379 0.0863553 -1.81094 0
M  V30 10568 C 988.427 -3.37934 -1.2583 0
M  V30 10569 O 987.531 -3.37207 -2.37414 0
M  V30 10570 H 986.872 -0.645056 -0.157477 0
M  V30 10571 H 989.402 -2.04091 0.144235 0
M  V30 10572 H 989.412 -3.75083 -1.60552 0
M  V30 10573 H 988.087 -4.12684 -0.516234 0
M  V30 10574 H 986.664 -3.11826 -2.04497 0
M  V30 10575 N 988.849 0.203349 -1.56283 0
M  V30 10576 C 990.26 0.768764 -1.70138 0
M  V30 10577 C 990.611 1.8421 -0.675358 0
M  V30 10578 O 989.736 2.15732 0.1699 0
M  V30 10579 C 990.331 1.40123 -3.08466 0
M  V30 10580 C 988.89 1.91382 -3.24114 0
M  V30 10581 C 988.037 0.780685 -2.66084 0
M  V30 10582 H 990.988 -0.0215997 -1.58685 0
M  V30 10583 H 991.009 2.27046 -3.05336 0
M  V30 10584 H 990.521 0.619805 -3.83119 0
M  V30 10585 H 988.622 2.7227 -2.54362 0
M  V30 10586 H 988.735 2.08128 -4.31531 0
M  V30 10587 H 987.099 1.19281 -2.25042 0
M  V30 10588 H 987.882 0.0116351 -3.43298 0
M  V30 10589 N 990.327 1.50405 0.470755 0
M  V30 10590 C 991.743 1.37838 0.804534 0
M  V30 10591 C 991.943 0.434743 1.96754 0
M  V30 10592 O 990.999 -0.122507 2.52203 0
M  V30 10593 C 992.312 2.79212 1.11629 0
M  V30 10594 C 993.86 2.88129 1.22272 0
M  V30 10595 C 994.335 4.30337 1.5676 0
M  V30 10596 N 995.826 4.3329 1.63751 0
M  V30 10597 C 996.561 5.4032 1.91942 0
M  V30 10598 N 996.057 6.57558 2.18151 0
M  V30 10599 N 997.85 5.27764 1.93446 0
M  V30 10600 H 990.001 2.10332 -0.295689 0
M  V30 10601 H 992.264 0.945429 -0.0697733 0
M  V30 10602 H 991.97 3.50103 0.334778 0
M  V30 10603 H 991.844 3.16475 2.0524 0
M  V30 10604 H 994.231 2.17457 1.9949 0
M  V30 10605 H 994.312 2.54409 0.2664 0
M  V30 10606 H 993.956 5.01547 0.800817 0
M  V30 10607 H 993.886 4.61545 2.53543 0
M  V30 10608 H 996.377 3.48752 1.45535 0
M  V30 10609 H 996.69 7.34935 2.38936 0
M  V30 10610 H 995.035 6.60732 2.15542 0
M  V30 10611 H 998.226 4.35169 1.72468 0
M  V30 10612 H 998.399 6.11264 2.15081 0
M  V30 10613 N 991.805 -0.723954 1.39988 0
M  V30 10614 C 993.03 -1.5182 1.41299 0
M  V30 10615 C 993.455 -1.88096 0.0122636 0
M  V30 10616 O 992.813 -1.52687 -0.977559 0
M  V30 10617 C 992.861 -2.77532 2.30235 0
M  V30 10618 O 991.965 -3.73903 1.73984 0
M  V30 10619 H 991.306 -0.458058 0.480707 0
M  V30 10620 H 993.836 -0.892291 1.84118 0
M  V30 10621 H 993.846 -3.2615 2.45132 0
M  V30 10622 H 992.521 -2.50462 3.32026 0
M  V30 10623 H 991.098 -3.32715 1.68389 0
M  V30 10624 N 993.283 -1.25346 -0.955304 0
M  V30 10625 C 994.23 -1.05672 -2.05188 0
M  V30 10626 C 995.2 0.0339217 -1.66065 0
M  V30 10627 O 996.385 -0.123126 -1.90402 0
M  V30 10628 C 993.525 -0.680791 -3.38318 0
M  V30 10629 C 992.638 -1.84622 -3.90562 0
M  V30 10630 C 991.773 -1.41471 -5.12015 0
M  V30 10631 C 990.812 -2.54931 -5.56486 0
M  V30 10632 N 989.949 -2.1256 -6.69151 0
M  V30 10633 H 994.789 -1.9952 -2.2135 0
M  V30 10634 H 992.326 -0.993588 -1.08472 0
M  V30 10635 H 994.284 -0.443794 -4.14833 0
M  V30 10636 H 992.914 0.2207 -3.22045 0
M  V30 10637 H 991.966 -2.19654 -3.10574 0
M  V30 10638 H 993.278 -2.6983 -4.19515 0
M  V30 10639 H 992.432 -1.13732 -5.95945 0
M  V30 10640 H 991.171 -0.533334 -4.84775 0
M  V30 10641 H 990.176 -2.83415 -4.71122 0
M  V30 10642 H 991.401 -3.43645 -5.85734 0
M  V30 10643 H 989.347 -1.26838 -6.43621 0
M  V30 10644 H 989.264 -2.91317 -6.97618 0
M  V30 10645 H 990.532 -1.87996 -7.5649 0
M  V30 10646 N 994.761 1.15782 -1.06922 0
M  V30 10647 C 995.708 2.2038 -0.685659 0
M  V30 10648 C 996.678 1.62972 0.320816 0
M  V30 10649 O 997.863 1.8966 0.208258 0
M  V30 10650 C 995.003 3.44995 -0.084998 0
M  V30 10651 C 994.116 4.16621 -1.14242 0
M  V30 10652 C 993.251 5.28773 -0.507226 0
M  V30 10653 C 992.29 5.92209 -1.54774 0
M  V30 10654 N 991.427 6.9584 -0.935443 0
M  V30 10655 H 996.267 2.5254 -1.58201 0
M  V30 10656 H 993.804 1.24031 -0.790864 0
M  V30 10657 H 995.762 4.16254 0.280845 0
M  V30 10658 H 994.392 3.13365 0.774725 0
M  V30 10659 H 993.444 3.43903 -1.62589 0
M  V30 10660 H 994.756 4.59884 -1.93154 0
M  V30 10661 H 993.91 6.06635 -0.0887719 0
M  V30 10662 H 992.649 4.8669 0.313704 0
M  V30 10663 H 991.654 5.13063 -1.97602 0
M  V30 10664 H 992.879 6.3637 -2.37088 0
M  V30 10665 H 990.825 6.5586 -0.135339 0
M  V30 10666 H 990.742 7.37508 -1.66186 0
M  V30 10667 H 992.01 7.77611 -0.542346 0
M  V30 10668 N 996.239 0.8527 1.3254 0
M  V30 10669 C 997.169 0.311234 2.31416 0
M  V30 10670 C 998.15 -0.588557 1.59593 0
M  V30 10671 O 999.335 -0.509211 1.87405 0
M  V30 10672 C 996.465 -0.502892 3.4364 0
M  V30 10673 C 995.419 0.302296 4.26931 0
M  V30 10674 C 994.745 -0.636445 5.30899 0
M  V30 10675 C 996.045 1.52697 4.99481 0
M  V30 10676 H 997.739 1.13742 2.76953 0
M  V30 10677 H 995.285 0.548389 1.33149 0
M  V30 10678 H 997.238 -0.892092 4.11849 0
M  V30 10679 H 995.962 -1.36242 2.96826 0
M  V30 10680 H 994.621 0.673226 3.60365 0
M  V30 10681 H 994.269 -1.49277 4.80339 0
M  V30 10682 H 993.969 -0.101716 5.87512 0
M  V30 10683 H 995.493 -1.02286 6.01972 0
M  V30 10684 H 996.907 1.21017 5.60382 0
M  V30 10685 H 995.304 1.9995 5.65809 0
M  V30 10686 H 996.374 2.28929 4.27457 0
M  V30 10687 N 997.718 -1.45297 0.610449 0
M  V30 10688 C 999.134 -1.57225 0.274332 0
M  V30 10689 C 999.334 -1.60136 -1.22306 0
M  V30 10690 O 998.39 -1.5332 -2.00622 0
M  V30 10691 C 999.703 -2.85365 0.948028 0
M  V30 10692 C 1001.25 -2.99044 0.924216 0
M  V30 10693 C 1001.73 -4.29958 1.57798 0
M  V30 10694 N 1003.22 -4.36723 1.5436 0
M  V30 10695 C 1003.95 -5.36695 2.01857 0
M  V30 10696 N 1003.45 -6.43187 2.57453 0
M  V30 10697 N 1005.24 -5.28071 1.92608 0
M  V30 10698 H 997.392 -1.41651 1.58268 0
M  V30 10699 H 999.655 -0.67744 0.663158 0
M  V30 10700 H 999.361 -2.89125 2.00249 0
M  V30 10701 H 999.235 -3.74222 0.473062 0
M  V30 10702 H 1001.62 -2.94849 -0.121709 0
M  V30 10703 H 1001.7 -2.1159 1.43748 0
M  V30 10704 H 1001.35 -4.34912 2.62325 0
M  V30 10705 H 1001.28 -5.16234 1.03972 0
M  V30 10706 H 1003.77 -3.60374 1.13749 0
M  V30 10707 H 1004.08 -7.15722 2.91482 0
M  V30 10708 H 1002.43 -6.4393 2.61493 0
M  V30 10709 H 1005.62 -4.43783 1.48912 0
M  V30 10710 H 1005.79 -6.05832 2.29938 0
M  V30 10711 N 999.196 -0.349774 -1.5367 0
M  V30 10712 C 1000.13 0.496338 -2.28164 0
M  V30 10713 C 1001.11 1.09737 -1.29968 0
M  V30 10714 O 1002.29 1.11759 -1.58819 0
M  V30 10715 C 999.422 1.64428 -3.0591 0
M  V30 10716 C 998.376 1.17127 -4.11661 0
M  V30 10717 C 997.702 2.40822 -4.77398 0
M  V30 10718 C 999.002 0.267293 -5.21616 0
M  V30 10719 H 1000.7 -0.125117 -2.99138 0
M  V30 10720 H 998.242 -0.0616152 -1.43868 0
M  V30 10721 H 1000.19 2.2427 -3.56765 0
M  V30 10722 H 998.919 2.29272 -2.32598 0
M  V30 10723 H 997.578 0.595634 -3.61729 0
M  V30 10724 H 997.226 3.04088 -4.00674 0
M  V30 10725 H 996.926 2.09852 -5.48849 0
M  V30 10726 H 998.45 3.01378 -5.3104 0
M  V30 10727 H 999.864 0.772734 -5.68068 0
M  V30 10728 H 998.261 0.0491991 -6.0008 0
M  V30 10729 H 999.331 -0.694892 -4.79895 0
M  V30 10730 N 1000.67 1.57404 -0.0785433 0
M  V30 10731 C 1001.62 2.13104 0.88631 0
M  V30 10732 C 1002.59 1.04527 1.29086 0
M  V30 10733 O 1003.78 1.32226 1.37553 0
M  V30 10734 C 1000.92 2.70252 2.14611 0
M  V30 10735 C 1000.03 3.93007 1.79358 0
M  V30 10736 C 999.164 4.38376 3 0
M  V30 10737 C 998.203 5.53761 2.60796 0
M  V30 10738 N 997.34 5.94058 3.74219 0
M  V30 10739 H 1002.18 2.95243 0.404452 0
M  V30 10740 H 999.717 1.45894 0.187982 0
M  V30 10741 H 1001.67 3.01497 2.88367 0
M  V30 10742 H 1000.3 1.90868 2.60326 0
M  V30 10743 H 999.357 3.68181 0.956384 0
M  V30 10744 H 1000.67 4.76795 1.4652 0
M  V30 10745 H 999.823 4.71317 3.82027 0
M  V30 10746 H 998.562 3.53455 3.36037 0
M  V30 10747 H 997.567 5.20464 1.77192 0
M  V30 10748 H 998.792 6.40419 2.25922 0
M  V30 10749 H 996.738 5.12085 4.10005 0
M  V30 10750 H 996.655 6.72602 3.45171 0
M  V30 10751 H 997.923 6.31624 4.56805 0
M  V30 10752 N 1002.15 -0.195058 1.56388 0
M  V30 10753 C 1003.4 -0.915444 1.80626 0
M  V30 10754 C 1003.73 -1.83255 0.651768 0
M  V30 10755 O 1002.98 -1.92314 -0.362464 0
M  V30 10756 C 1003.28 -1.7637 3.10851 0
M  V30 10757 C 1002.95 -0.997572 4.39726 0
M  V30 10758 C 1001.61 -0.786043 4.74737 0
M  V30 10759 C 1003.96 -0.45851 5.19179 0
M  V30 10760 C 1001.29 -0.023972 5.86695 0
M  V30 10761 C 1003.64 0.29035 6.31933 0
M  V30 10762 C 1002.3 0.512895 6.65527 0
M  V30 10763 H 1001.57 -0.334985 0.660959 0
M  V30 10764 H 1004.22 -0.181815 1.90635 0
M  V30 10765 H 1002.53 -2.566 2.9608 0
M  V30 10766 H 1004.22 -2.3237 3.26811 0
M  V30 10767 H 1000.81 -1.17245 4.12252 0
M  V30 10768 H 1005 -0.609334 4.92545 0
M  V30 10769 H 1000.25 0.158421 6.11195 0
M  V30 10770 H 1004.43 0.715429 6.92715 0
M  V30 10771 H 1002.05 1.10531 7.52122 0
M  V30 10772 N 1003.63 -1.50653 -0.462772 0
M  V30 10773 C 1005.05 -1.38263 -0.797213 0
M  V30 10774 C 1005.25 -0.445172 -1.96521 0
M  V30 10775 O 1004.3 0.10913 -2.52264 0
M  V30 10776 C 1005.61 -2.798 -1.10146 0
M  V30 10777 C 1007.16 -2.88774 -1.20742 0
M  V30 10778 C 1007.64 -4.31163 -1.54476 0
M  V30 10779 N 1009.13 -4.34152 -1.61451 0
M  V30 10780 C 1009.86 -5.4133 -1.89074 0
M  V30 10781 N 1009.36 -6.58705 -2.1466 0
M  V30 10782 N 1011.15 -5.28783 -1.90645 0
M  V30 10783 H 1003.3 -2.10172 0.30684 0
M  V30 10784 H 1005.57 -0.945046 0.0747862 0
M  V30 10785 H 1005.27 -3.50276 -0.316207 0
M  V30 10786 H 1005.15 -3.17559 -2.03559 0
M  V30 10787 H 1007.53 -2.18512 -1.98334 0
M  V30 10788 H 1007.61 -2.54547 -0.252904 0
M  V30 10789 H 1007.26 -5.01965 -0.774207 0
M  V30 10790 H 1007.19 -4.62883 -2.51092 0
M  V30 10791 H 1009.68 -3.49519 -1.43684 0
M  V30 10792 H 1009.99 -7.36192 -2.35035 0
M  V30 10793 H 1008.34 -6.61866 -2.12035 0
M  V30 10794 H 1011.53 -4.36078 -1.70158 0
M  V30 10795 H 1011.7 -6.12396 -2.11836 0
M  V30 10796 N 1005.11 0.71652 -1.4037 0
M  V30 10797 C 1006.39 1.46947 -1.29097 0
M  V30 10798 C 1006.77 2.10903 0.0911182 0
M  V30 10799 O 1006.11 2.00068 1.10385 0
M  V30 10800 C 1006.32 2.50594 -2.42907 0
M  V30 10801 C 1007.67 3.16451 -2.83097 0
M  V30 10802 O 1008.7 2.60913 -2.42493 0
M  V30 10803 O 1007.55 4.16991 -3.53244 0
M  V30 10804 H 1004.65 0.653413 -0.506932 0
M  V30 10805 H 1007.19 0.748774 -1.52287 0
M  V30 10806 H 1005.97 2.01843 -3.35224 0
M  V30 10807 H 1005.59 3.302 -2.21481 0
M  V30 10808 N 1006.59 1.25851 0.948643 0
M  V30 10809 C 1007.83 1.11119 1.69648 0
M  V30 10810 C 1008.17 -0.345995 1.91093 0
M  V30 10811 O 1007.44 -1.25467 1.48621 0
M  V30 10812 C 1007.72 1.87261 3.0758 0
M  V30 10813 C 1007.58 3.40842 2.93507 0
M  V30 10814 C 1008.9 1.6605 4.07573 0
M  V30 10815 H 1006.01 0.405052 0.615713 0
M  V30 10816 H 1008.66 1.54756 1.10229 0
M  V30 10817 H 1006.81 1.50172 3.58303 0
M  V30 10818 H 1008.48 3.87641 2.50064 0
M  V30 10819 H 1006.72 3.68248 2.29294 0
M  V30 10820 H 1007.39 3.89339 3.91305 0
M  V30 10821 H 1009.87 1.98348 3.65783 0
M  V30 10822 H 1008.74 2.21753 5.02113 0
M  V30 10823 H 1009.01 0.603256 4.37965 0
M  V30 10824 N 1008.06 -1.15214 1.07534 0
M  V30 10825 C 1009.01 -2.20013 0.697337 0
M  V30 10826 C 1009.98 -1.6314 -0.312168 0
M  V30 10827 O 1011.17 -1.89768 -0.198196 0
M  V30 10828 C 1008.31 -3.44945 0.103293 0
M  V30 10829 C 1007.42 -4.16009 1.1645 0
M  V30 10830 C 1006.55 -5.28496 0.535261 0
M  V30 10831 C 1005.59 -5.9138 1.57912 0
M  V30 10832 N 1004.73 -6.95335 0.972332 0
M  V30 10833 H 1009.57 -2.51698 1.59538 0
M  V30 10834 H 1007.11 -1.2361 0.797431 0
M  V30 10835 H 1009.07 -4.16397 -0.258766 0
M  V30 10836 H 1007.7 -3.13772 -0.758096 0
M  V30 10837 H 1006.75 -3.43035 1.64411 0
M  V30 10838 H 1008.06 -4.58853 1.9559 0
M  V30 10839 H 1007.21 -6.06579 0.120942 0
M  V30 10840 H 1005.95 -4.8685 -0.287889 0
M  V30 10841 H 1004.96 -5.12008 2.0032 0
M  V30 10842 H 1006.18 -6.35103 2.40459 0
M  V30 10843 H 1004.13 -6.55779 0.170119 0
M  V30 10844 H 1004.05 -7.36616 1.70095 0
M  V30 10845 H 1005.31 -7.77312 0.583577 0
M  V30 10846 N 1009.54 -0.859717 -1.32086 0
M  V30 10847 C 1010.78 -0.471939 -1.98877 0
M  V30 10848 C 1011.15 0.955689 -1.66525 0
M  V30 10849 O 1012.35 1.44829 -2.26447 0
M  V30 10850 C 1010.62 -0.710016 -3.50276 0
M  V30 10851 S 1012.18 -0.420566 -4.3678 0
M  V30 10852 H 1009 -0.176588 -0.688722 0
M  V30 10853 H 1011.6 -1.11352 -1.60689 0
M  V30 10854 H 1010.3 -1.74803 -3.71311 0
M  V30 10855 H 1009.83 -0.0550429 -3.93361 0
M  V30 10856 H 1011.85 0.751362 -4.90478 0
M  V30 10857 N 1011.02 1.44971 -0.618145 0
M  V30 10858 C 1012.27 2.01372 -0.115004 0
M  V30 10859 C 1012.58 1.49104 1.26599 0
M  V30 10860 O 1013.79 1.97549 1.86244 0
M  V30 10861 C 1012.24 3.59567 -0.154883 0
M  V30 10862 C 1011.85 4.20832 -1.53639 0
M  V30 10863 C 1013.6 4.23491 0.292468 0
M  V30 10864 C 1011.5 5.7121 -1.53208 0
M  V30 10865 H 1010.43 0.752979 -0.0392267 0
M  V30 10866 H 1013.08 1.66329 -0.775032 0
M  V30 10867 H 1011.47 3.91847 0.572001 0
M  V30 10868 H 1012.64 4.00109 -2.28582 0
M  V30 10869 H 1010.96 3.69143 -1.92672 0
M  V30 10870 H 1013.55 5.33771 0.315032 0
M  V30 10871 H 1013.9 3.9491 1.31725 0
M  V30 10872 H 1014.43 3.95967 -0.381493 0
M  V30 10873 H 1011.17 6.04506 -2.53481 0
M  V30 10874 H 1010.69 5.94094 -0.825387 0
M  V30 10875 H 1012.37 6.34606 -1.26032 0
M  V30 10876 N 1012.5 0.357919 1.53482 0
M  V30 10877 C 1013.91 -0.122938 1.86295 0
M  V30 10878 C 1014.26 -1.48803 1.27875 0
M  V30 10879 O 1013.39 -2.07978 0.597828 0
M  V30 10880 C 1013.98 -0.229853 3.38019 0
M  V30 10881 C 1012.54 -0.654955 3.70658 0
M  V30 10882 C 1011.69 0.202539 2.76559 0
M  V30 10883 H 1014.64 0.576997 1.47839 0
M  V30 10884 H 1014.66 -1.05481 3.65587 0
M  V30 10885 H 1014.17 0.763825 3.80509 0
M  V30 10886 H 1012.27 -1.65714 3.33721 0
M  V30 10887 H 1012.38 -0.43488 4.77122 0
M  V30 10888 H 1010.75 -0.327388 2.52587 0
M  V30 10889 H 1011.53 1.19361 3.21882 0
M  V30 10890 N 1013.98 -1.5736 0.0868897 0
M  V30 10891 C 1015.25 -1.85495 -0.620561 0
M  V30 10892 C 1015.63 -0.982218 -1.86857 0
M  V30 10893 O 1014.98 -0.0524529 -2.2844 0
M  V30 10894 C 1015.19 -3.35996 -0.943798 0
M  V30 10895 C 1016.54 -4.03861 -1.31079 0
M  V30 10896 O 1017.56 -3.4083 -1.03507 0
M  V30 10897 O 1016.42 -5.15062 -1.82683 0
M  V30 10898 H 1013.52 -0.766822 -0.309697 0
M  V30 10899 H 1016.06 -1.69282 0.118966 0
M  V30 10900 H 1014.83 -3.91257 -0.0580628 0
M  V30 10901 H 1014.46 -3.57525 -1.73958 0
M  V30 10902 N 1015.45 0.186762 -1.56489 0
M  V30 10903 C 1016.73 0.932229 -1.71956 0
M  V30 10904 C 1017.11 2.01037 -0.644006 0
M  V30 10905 O 1016.46 2.259 0.343694 0
M  V30 10906 C 1016.67 1.51106 -3.14592 0
M  V30 10907 C 1018.02 1.98997 -3.75081 0
M  V30 10908 O 1019.04 1.60931 -3.17773 0
M  V30 10909 O 1017.9 2.69067 -4.75673 0
M  V30 10910 H 1014.99 0.437736 -0.701652 0
M  V30 10911 H 1017.54 0.175803 -1.68787 0
M  V30 10912 H 1016.31 0.734327 -3.84348 0
M  V30 10913 H 1015.94 2.33209 -3.22024 0
M  V30 10914 N 1016.93 1.50896 0.454776 0
M  V30 10915 C 1018.21 1.53227 1.21576 0
M  V30 10916 C 1018.59 0.286358 2.09149 0
M  V30 10917 O 1017.94 -0.729469 2.16543 0
M  V30 10918 C 1018.15 2.83693 2.03271 0
M  V30 10919 C 1019.5 3.34981 2.60908 0
M  V30 10920 O 1020.52 2.85126 2.13499 0
M  V30 10921 O 1019.38 4.21929 3.4733 0
M  V30 10922 H 1016.47 0.615306 0.552564 0
M  V30 10923 H 1019.02 1.63197 0.465266 0
M  V30 10924 H 1017.79 3.65839 1.38843 0
M  V30 10925 H 1017.41 2.76803 2.85422 0
M  V30 10926 N 1018.41 -0.709066 1.40748 0
M  V30 10927 C 1019.32 -1.85314 1.43861 0
M  V30 10928 C 1020.34 -1.70832 0.330539 0
M  V30 10929 O 1021.51 -1.92983 0.576152 0
M  V30 10930 C 1018.58 -3.21174 1.30568 0
M  V30 10931 C 1017.64 -3.47863 2.51574 0
M  V30 10932 C 1016.87 -4.77241 2.38906 0
M  V30 10933 O 1017.09 -5.52791 1.40636 0
M  V30 10934 O 1016.03 -5.04413 3.28407 0
M  V30 10935 H 1019.85 -1.85644 2.40354 0
M  V30 10936 H 1017.44 -0.860352 1.2214 0
M  V30 10937 H 1019.32 -4.02313 1.25388 0
M  V30 10938 H 1018 -3.21557 0.371841 0
M  V30 10939 H 1016.9 -2.66708 2.62331 0
M  V30 10940 H 1018.24 -3.52283 3.43741 0
M  V30 10941 N 1019.89 -1.26353 -0.941956 0
M  V30 10942 C 1021.17 -1.02601 -1.6653 0
M  V30 10943 C 1021.55 0.44381 -2.06382 0
M  V30 10944 O 1020.89 1.42399 -1.78703 0
M  V30 10945 C 1021.1 -1.97401 -2.87809 0
M  V30 10946 C 1022.45 -2.25967 -3.59478 0
M  V30 10947 O 1023.48 -1.95261 -2.97912 0
M  V30 10948 O 1022.34 -2.78244 -4.70364 0
M  V30 10949 H 1019.43 -0.39007 -0.729228 0
M  V30 10950 H 1021.98 -1.37559 -0.993754 0
M  V30 10951 H 1020.75 -2.9659 -2.55245 0
M  V30 10952 H 1020.37 -1.62918 -3.62689 0
M  V30 10953 N 1021.37 1.14642 -1.08144 0
M  V30 10954 C 1022.59 1.90025 -0.830972 0
M  V30 10955 C 1023.02 1.77904 0.610879 0
M  V30 10956 O 1022.38 1.11735 1.42776 0
M  V30 10957 C 1022.42 3.38085 -1.25422 0
M  V30 10958 O 1021.53 4.10412 -0.404486 0
M  V30 10959 H 1020.87 0.591327 -0.302041 0
M  V30 10960 H 1023.4 1.4513 -1.44216 0
M  V30 10961 H 1023.41 3.88894 -1.23391 0
M  V30 10962 H 1022.08 3.46226 -2.30435 0
M  V30 10963 H 1020.66 3.69693 -0.487987 0
M  V30 10964 N 1022.85 0.866709 1.31628 0
M  V30 10965 C 1024.08 0.489679 2.00713 0
M  V30 10966 C 1024.48 -0.921492 1.65243 0
M  V30 10967 O 1023.83 -1.61467 0.876012 0
M  V30 10968 C 1023.89 0.563148 3.55062 0
M  V30 10969 C 1023.55 1.93535 4.13996 0
M  V30 10970 C 1024.55 2.90243 4.31341 0
M  V30 10971 C 1022.23 2.23578 4.49798 0
M  V30 10972 C 1024.23 4.15138 4.83673 0
M  V30 10973 C 1021.92 3.48723 5.01832 0
M  V30 10974 C 1022.91 4.44319 5.18719 0
M  V30 10975 O 1022.6 5.67247 5.69637 0
M  V30 10976 H 1022.33 0.189605 0.648865 0
M  V30 10977 H 1024.89 1.16874 1.68907 0
M  V30 10978 H 1023.12 -0.172815 3.86314 0
M  V30 10979 H 1024.81 0.200009 4.05407 0
M  V30 10980 H 1025.57 2.6834 4.04003 0
M  V30 10981 H 1021.45 1.49949 4.35932 0
M  V30 10982 H 1025 4.89762 4.96769 0
M  V30 10983 H 1020.89 3.70471 5.28603 0
M  V30 10984 H 1021.66 5.69372 5.88011 0
M  V30 10985 N 1024.32 -1.44642 0.625825 0
M  V30 10986 C 1025.23 -2.34451 -0.0836134 0
M  V30 10987 C 1026.25 -1.5231 -0.841289 0
M  V30 10988 O 1027.43 -1.85056 -0.794754 0
M  V30 10989 C 1024.49 -3.30211 -1.05648 0
M  V30 10990 C 1023.55 -4.28259 -0.298759 0
M  V30 10991 C 1022.78 -5.19444 -1.22528 0
M  V30 10992 O 1023.01 -5.14444 -2.46382 0
M  V30 10993 O 1021.94 -5.97668 -0.71247 0
M  V30 10994 H 1025.77 -2.96555 0.654912 0
M  V30 10995 H 1023.35 -1.44327 0.386029 0
M  V30 10996 H 1025.23 -3.8917 -1.61632 0
M  V30 10997 H 1023.91 -2.70648 -1.77571 0
M  V30 10998 H 1022.82 -3.72863 0.304001 0
M  V30 10999 H 1024.15 -4.90728 0.380345 0
M  V30 11000 N 1025.8 -0.366053 -1.5329 0
M  V30 11001 C 1027.05 0.224614 -2.00445 0
M  V30 11002 C 1027.36 1.49829 -1.2574 0
M  V30 11003 O 1028.57 2.16759 -1.63487 0
M  V30 11004 C 1027.03 0.450818 -3.57065 0
M  V30 11005 C 1026.63 -0.808257 -4.40649 0
M  V30 11006 C 1028.38 0.999116 -4.12575 0
M  V30 11007 C 1026.28 -0.551612 -5.88822 0
M  V30 11008 H 1025.21 0.0877114 -0.748881 0
M  V30 11009 H 1027.87 -0.484866 -1.76978 0
M  V30 11010 H 1026.25 1.22157 -3.76688 0
M  V30 11011 H 1027.42 -1.58184 -4.32798 0
M  V30 11012 H 1025.74 -1.27981 -3.96245 0
M  V30 11013 H 1028.33 1.20646 -5.20911 0
M  V30 11014 H 1028.68 1.96139 -3.67199 0
M  V30 11015 H 1029.21 0.288518 -3.96752 0
M  V30 11016 H 1025.95 -1.48423 -6.38475 0
M  V30 11017 H 1025.47 0.183462 -5.99519 0
M  V30 11018 H 1027.15 -0.177307 -6.46757 0
M  V30 11019 N 1027.28 1.57312 -0.0952337 0
M  V30 11020 C 1028.53 1.94358 0.568442 0
M  V30 11021 C 1028.85 0.97698 1.68182 0
M  V30 11022 O 1028.11 -0.00340398 1.957 0
M  V30 11023 C 1028.41 3.37937 1.16332 0
M  V30 11024 C 1028.07 4.50565 0.173715 0
M  V30 11025 C 1026.74 4.81099 -0.0984673 0
M  V30 11026 C 1029.09 5.18777 -0.501992 0
M  V30 11027 C 1026.42 5.77172 -1.05305 0
M  V30 11028 C 1028.77 6.15874 -1.44505 0
M  V30 11029 C 1027.43 6.44813 -1.72546 0
M  V30 11030 H 1026.7 0.711206 0.208007 0
M  V30 11031 H 1029.35 1.90734 -0.171096 0
M  V30 11032 H 1027.65 3.3814 1.97911 0
M  V30 11033 H 1029.35 3.63902 1.68453 0
M  V30 11034 H 1025.94 4.26766 0.396042 0
M  V30 11035 H 1030.13 4.95363 -0.304855 0
M  V30 11036 H 1025.38 5.97909 -1.2773 0
M  V30 11037 H 1029.56 6.67824 -1.97444 0
M  V30 11038 H 1027.18 7.19067 -2.46671 0
M  V30 11039 N 1028.76 -0.17846 1.56586 0
M  V30 11040 C 1029.67 -1.24115 1.9908 0
M  V30 11041 C 1030.68 -1.48854 0.901031 0
M  V30 11042 O 1031.86 -1.61142 1.2081 0
M  V30 11043 C 1028.92 -2.56187 2.33601 0
M  V30 11044 C 1027.99 -2.39373 3.56369 0
M  V30 11045 C 1027.22 -3.65147 3.89234 0
M  V30 11046 O 1027.44 -4.70024 3.23162 0
M  V30 11047 O 1026.38 -3.59683 4.82609 0
M  V30 11048 H 1030.2 -0.910482 2.89731 0
M  V30 11049 H 1027.79 -0.38477 1.4436 0
M  V30 11050 H 1029.67 -3.34109 2.56806 0
M  V30 11051 H 1028.34 -2.88847 1.46113 0
M  V30 11052 H 1027.25 -1.59506 3.38391 0
M  V30 11053 H 1028.58 -2.1164 4.44375 0
M  V30 11054 N 1030.24 -1.51135 -0.446768 0
M  V30 11055 C 1031.65 -1.55919 -1.02694 0
M  V30 11056 C 1032 -0.377038 -1.92543 0
M  V30 11057 O 1031.12 0.507295 -2.1037 0
M  V30 11058 C 1031.72 -2.8257 -1.86922 0
M  V30 11059 C 1030.28 -2.89956 -2.40005 0
M  V30 11060 C 1029.42 -2.50482 -1.18971 0
M  V30 11061 H 1032.37 -1.57048 -0.228403 0
M  V30 11062 H 1032.4 -2.65799 -2.7227 0
M  V30 11063 H 1031.91 -3.6859 -1.21502 0
M  V30 11064 H 1030.01 -2.08343 -3.08907 0
M  V30 11065 H 1030.12 -3.93399 -2.73448 0
M  V30 11066 H 1028.49 -2.03466 -1.53211 0
M  V30 11067 H 1029.27 -3.38837 -0.551762 0
M  V30 11068 N 1031.71 0.701592 -1.41122 0
M  V30 11069 C 1033.12 1.28129 -1.35793 0
M  V30 11070 C 1033.48 1.96163 -0.0381185 0
M  V30 11071 O 1032.6 1.98416 0.863723 0
M  V30 11072 C 1033.2 2.33005 -2.45955 0
M  V30 11073 C 1031.75 2.86566 -2.44043 0
M  V30 11074 C 1030.9 1.60526 -2.26112 0
M  V30 11075 H 1033.85 0.496756 -1.50725 0
M  V30 11076 H 1033.87 3.14163 -2.14667 0
M  V30 11077 H 1033.39 1.8346 -3.42 0
M  V30 11078 H 1031.49 3.40304 -1.51737 0
M  V30 11079 H 1031.6 3.37406 -3.40138 0
M  V30 11080 H 1029.96 1.86113 -1.7388 0
M  V30 11081 H 1030.75 1.12985 -3.24175 0
M  V30 11082 N 1033.19 1.2685 0.935242 0
M  V30 11083 C 1034.1 1.10716 2.06831 0
M  V30 11084 C 1035.12 0.0391222 1.73956 0
M  V30 11085 O 1036.29 0.244071 1.99916 0
M  V30 11086 C 1033.36 0.748093 3.38533 0
M  V30 11087 C 1032.42 1.89619 3.85153 0
M  V30 11088 C 1031.65 1.55416 5.1057 0
M  V30 11089 O 1031.88 0.458596 5.68553 0
M  V30 11090 O 1030.81 2.39087 5.52378 0
M  V30 11091 H 1034.64 2.05785 2.23352 0
M  V30 11092 H 1032.22 1.05967 1.05315 0
M  V30 11093 H 1034.1 0.560841 4.17651 0
M  V30 11094 H 1032.78 -0.173142 3.23237 0
M  V30 11095 H 1031.68 2.13845 3.06954 0
M  V30 11096 H 1033.02 2.79737 4.04979 0
M  V30 11097 N 1034.67 -1.14067 1.0875 0
M  V30 11098 C 1035.9 -1.89582 0.841038 0
M  V30 11099 C 1036.32 -1.78226 -0.601436 0
M  V30 11100 O 1035.68 -1.12491 -1.42181 0
M  V30 11101 C 1035.73 -3.37415 1.27213 0
M  V30 11102 O 1034.83 -4.10191 0.426246 0
M  V30 11103 H 1034.17 -0.589716 0.305173 0
M  V30 11104 H 1036.7 -1.44364 1.44984 0
M  V30 11105 H 1036.71 -3.88234 1.25451 0
M  V30 11106 H 1035.39 -3.44999 2.32268 0
M  V30 11107 H 1033.96 -3.69429 0.507585 0
M  V30 11108 N 1036.15 -0.873678 -1.31166 0
M  V30 11109 C 1037.38 -0.501043 -2.00742 0
M  V30 11110 C 1037.79 0.907477 -1.65561 0
M  V30 11111 O 1037.15 1.59507 -0.886771 0
M  V30 11112 C 1037.2 -0.652877 -3.55556 0
M  V30 11113 O 1036.92 -2.00593 -3.89479 0
M  V30 11114 C 1038.42 -0.281742 -4.42404 0
M  V30 11115 H 1035.64 -0.194829 -0.642092 0
M  V30 11116 H 1038.19 -1.17587 -1.67313 0
M  V30 11117 H 1036.34 -0.0255627 -3.87392 0
M  V30 11118 H 1036.75 -2.01638 -4.84193 0
M  V30 11119 H 1038.23 -0.43892 -5.50252 0
M  V30 11120 H 1038.71 0.779389 -4.32229 0
M  V30 11121 H 1039.31 -0.88491 -4.15992 0
M  V30 11122 N 1037.63 1.44308 -0.633487 0
M  V30 11123 C 1038.87 2.02322 -0.139123 0
M  V30 11124 C 1039.21 1.49733 1.23667 0
M  V30 11125 O 1038.48 0.682353 1.82138 0
M  V30 11126 C 1038.76 3.59871 -0.128366 0
M  V30 11127 C 1038.62 4.22737 -1.53667 0
M  V30 11128 C 1039.94 4.36702 0.545834 0
M  V30 11129 H 1037.05 0.735161 -0.0520293 0
M  V30 11130 H 1039.7 1.7185 -0.810411 0
M  V30 11131 H 1037.85 3.85963 0.443263 0
M  V30 11132 H 1039.52 4.07744 -2.15737 0
M  V30 11133 H 1037.76 3.80142 -2.08985 0
M  V30 11134 H 1038.43 5.31757 -1.48116 0
M  V30 11135 H 1040.91 4.16057 0.0596879 0
M  V30 11136 H 1039.78 5.46407 0.522557 0
M  V30 11137 H 1040.05 4.11483 1.6166 0
M  V30 11138 N 1039.1 0.374177 1.53094 0
M  V30 11139 C 1040.04 -0.511995 2.22382 0
M  V30 11140 C 1041.02 -1.07617 1.2189 0
M  V30 11141 O 1042.2 -1.13068 1.50824 0
M  V30 11142 C 1039.33 -1.70724 2.92525 0
M  V30 11143 C 1038.37 -1.26972 4.07161 0
M  V30 11144 S 1039.21 -0.263835 5.3485 0
M  V30 11145 C 1040.36 -1.46521 6.08508 0
M  V30 11146 H 1040.59 0.0764311 2.97202 0
M  V30 11147 H 1038.13 0.158307 1.53586 0
M  V30 11148 H 1040.09 -2.39279 3.3355 0
M  V30 11149 H 1038.75 -2.26693 2.17414 0
M  V30 11150 H 1037.94 -2.16172 4.55286 0
M  V30 11151 H 1037.54 -0.663273 3.68072 0
M  V30 11152 H 1039.83 -2.39483 6.33762 0
M  V30 11153 H 1040.78 -1.02517 7.0064 0
M  V30 11154 H 1041.18 -1.67516 5.39072 0
M  V30 11155 N 1040.58 -1.57259 0.103575 0
M  V30 11156 C 1041.55 -2.13337 -0.837859 0
M  V30 11157 C 1042.55 -1.06459 -1.20512 0
M  V30 11158 O 1043.74 -1.32307 -1.13316 0
M  V30 11159 C 1040.87 -2.66093 -2.13089 0
M  V30 11160 H 1042.06 -2.97842 -0.350775 0
M  V30 11161 H 1039.61 -1.55621 -0.145511 0
M  V30 11162 H 1040.35 -1.85133 -2.66264 0
M  V30 11163 H 1040.13 -3.44244 -1.87719 0
M  V30 11164 H 1041.62 -3.09443 -2.80419 0
M  V30 11165 N 1042.06 0.170153 -1.56679 0
M  V30 11166 C 1043.29 0.902134 -1.86197 0
M  V30 11167 C 1043.7 1.75775 -0.689098 0
M  V30 11168 O 1043.06 1.79271 0.341763 0
M  V30 11169 C 1043.11 1.77792 -3.14757 0
M  V30 11170 O 1042.83 0.956817 -4.27524 0
M  V30 11171 C 1044.33 2.61947 -3.57629 0
M  V30 11172 H 1041.55 0.262026 -0.617724 0
M  V30 11173 H 1044.1 0.169899 -2.03793 0
M  V30 11174 H 1042.25 2.46348 -2.98984 0
M  V30 11175 H 1042.67 1.5559 -5.00891 0
M  V30 11176 H 1044.14 3.19011 -4.50484 0
M  V30 11177 H 1044.62 3.36873 -2.81803 0
M  V30 11178 H 1045.22 1.98721 -3.76019 0
M  V30 11179 N 1043.54 1.5137 0.438746 0
M  V30 11180 C 1044.95 1.39514 0.775116 0
M  V30 11181 C 1045.15 0.47638 1.95788 0
M  V30 11182 O 1044.21 -0.0689832 2.52406 0
M  V30 11183 C 1045.52 2.81517 1.05681 0
M  V30 11184 C 1047.07 2.90658 1.16133 0
M  V30 11185 C 1047.55 4.33566 1.47597 0
M  V30 11186 N 1049.04 4.36665 1.54524 0
M  V30 11187 C 1049.77 5.4427 1.80438 0
M  V30 11188 N 1049.27 6.62037 2.04154 0
M  V30 11189 N 1051.06 5.31749 1.82208 0
M  V30 11190 H 1043.21 2.09657 -0.340237 0
M  V30 11191 H 1045.48 0.943736 -0.0898115 0
M  V30 11192 H 1045.18 3.50734 0.260441 0
M  V30 11193 H 1045.06 3.20757 1.98481 0
M  V30 11194 H 1047.44 2.2164 1.94833 0
M  V30 11195 H 1047.52 2.54917 0.212376 0
M  V30 11196 H 1047.17 5.03133 0.694251 0
M  V30 11197 H 1047.1 4.66819 2.43696 0
M  V30 11198 H 1049.59 3.51761 1.38105 0
M  V30 11199 H 1049.9 7.39838 2.23293 0
M  V30 11200 H 1048.25 6.65155 2.01479 0
M  V30 11201 H 1051.44 4.3873 1.63198 0
M  V30 11202 H 1051.61 6.15689 2.02067 0
M  V30 11203 N 1045.02 -0.694098 1.41492 0
M  V30 11204 C 1045.96 -1.80801 1.43456 0
M  V30 11205 C 1046.93 -1.63571 0.288757 0
M  V30 11206 O 1048.12 -1.844 0.490017 0
M  V30 11207 C 1045.26 -3.18694 1.32394 0
M  V30 11208 C 1044.37 -3.47346 2.56855 0
M  V30 11209 C 1043.51 -4.74862 2.38075 0
M  V30 11210 C 1042.55 -4.96486 3.58005 0
M  V30 11211 N 1041.68 -6.15229 3.38287 0
M  V30 11212 H 1046.52 -1.78457 2.38657 0
M  V30 11213 H 1044.06 -0.871455 1.18508 0
M  V30 11214 H 1046.02 -3.98352 1.23982 0
M  V30 11215 H 1044.65 -3.20211 0.407999 0
M  V30 11216 H 1043.7 -2.62083 2.75711 0
M  V30 11217 H 1045.01 -3.59226 3.4606 0
M  V30 11218 H 1044.17 -5.62577 2.27139 0
M  V30 11219 H 1042.9 -4.6523 1.46329 0
M  V30 11220 H 1041.91 -4.07219 3.69395 0
M  V30 11221 H 1043.13 -5.07976 4.50708 0
M  V30 11222 H 1041.08 -6.06807 2.49242 0
M  V30 11223 H 1041 -6.27883 4.21069 0
M  V30 11224 H 1042.27 -7.05674 3.31126 0
M  V30 11225 N 1046.49 -1.27344 -0.928501 0
M  V30 11226 C 1047.43 -1.04322 -2.02959 0
M  V30 11227 C 1048.41 0.0361118 -1.6256 0
M  V30 11228 O 1049.59 -0.108872 -1.88185 0
M  V30 11229 C 1046.72 -0.582329 -3.33656 0
M  V30 11230 C 1045.76 -1.65611 -3.93033 0
M  V30 11231 S 1046.6 -3.2484 -4.25722 0
M  V30 11232 C 1047.75 -2.8055 -5.59502 0
M  V30 11233 H 1047.98 -1.97548 -2.22176 0
M  V30 11234 H 1045.52 -1.11167 -1.07151 0
M  V30 11235 H 1047.48 -0.323095 -4.09227 0
M  V30 11236 H 1046.14 0.329858 -3.12363 0
M  V30 11237 H 1045.33 -1.28491 -4.87346 0
M  V30 11238 H 1044.93 -1.86738 -3.24045 0
M  V30 11239 H 1047.22 -2.25803 -6.38764 0
M  V30 11240 H 1048.17 -3.73603 -6.0152 0
M  V30 11241 H 1048.57 -2.19717 -5.19985 0
M  V30 11242 N 1047.97 1.13488 -1.09353 0
M  V30 11243 C 1048.92 2.16933 -0.701709 0
M  V30 11244 C 1049.91 1.58382 0.283553 0
M  V30 11245 O 1051.1 1.7675 0.0940391 0
M  V30 11246 C 1048.23 3.43079 -0.123031 0
M  V30 11247 C 1047.31 4.08639 -1.13466 0
M  V30 11248 N 1047.7 4.49377 -2.32152 0
M  V30 11249 C 1046 4.35265 -0.972632 0
M  V30 11250 C 1046.7 5.00464 -2.96497 0
M  V30 11251 N 1045.68 4.95275 -2.24061 0
M  V30 11252 H 1049.48 2.46183 -1.60534 0
M  V30 11253 H 1047 1.30275 -0.969644 0
M  V30 11254 H 1048.99 4.1653 0.17569 0
M  V30 11255 H 1047.65 3.15304 0.775461 0
M  V30 11256 H 1048.66 4.42105 -2.69748 0
M  V30 11257 H 1045.34 4.17301 -0.12876 0
M  V30 11258 H 1046.73 5.41785 -3.9739 0
M  V30 11259 N 1049.45 0.880621 1.30701 0
M  V30 11260 C 1050.73 0.41712 1.91101 0
M  V30 11261 C 1051.11 -1.10177 1.80067 0
M  V30 11262 O 1050.46 -1.93513 1.21511 0
M  V30 11263 C 1050.67 0.910364 3.36917 0
M  V30 11264 C 1052.01 0.942764 4.14001 0
M  V30 11265 O 1053.04 0.856733 3.45743 0
M  V30 11266 O 1051.9 1.06913 5.3594 0
M  V30 11267 H 1048.99 0.126775 0.817225 0
M  V30 11268 H 1051.54 0.969236 1.39298 0
M  V30 11269 H 1050.31 1.95414 3.39012 0
M  V30 11270 H 1049.93 0.337164 3.96168 0
M  V30 11271 N 1050.93 -1.4397 0.641131 0
M  V30 11272 C 1052.35 -1.56607 0.30762 0
M  V30 11273 C 1052.55 -1.62694 -1.18882 0
M  V30 11274 O 1051.6 -1.57541 -1.97325 0
M  V30 11275 C 1052.91 -2.83289 1.00834 0
M  V30 11276 C 1054.46 -2.97016 0.98744 0
M  V30 11277 C 1054.94 -4.26514 1.66882 0
M  V30 11278 N 1056.43 -4.33351 1.63589 0
M  V30 11279 C 1057.16 -5.32292 2.13196 0
M  V30 11280 N 1056.66 -6.37582 2.71038 0
M  V30 11281 N 1058.45 -5.23866 2.03766 0
M  V30 11282 H 1050.6 -1.38262 1.61237 0
M  V30 11283 H 1052.87 -0.663221 0.677378 0
M  V30 11284 H 1052.57 -2.84812 2.06337 0
M  V30 11285 H 1052.45 -3.73134 0.552333 0
M  V30 11286 H 1054.83 -2.95041 -0.0591395 0
M  V30 11287 H 1054.91 -2.08493 1.48203 0
M  V30 11288 H 1054.56 -4.2925 2.71491 0
M  V30 11289 H 1054.49 -5.13912 1.14898 0
M  V30 11290 H 1056.98 -3.5788 1.21368 0
M  V30 11291 H 1057.29 -7.09378 3.06597 0
M  V30 11292 H 1055.64 -6.38239 2.75093 0
M  V30 11293 H 1058.83 -4.40524 1.58291 0
M  V30 11294 H 1059 -6.00819 2.42737 0
M  V30 11295 N 1052.41 -0.382291 -1.52893 0
M  V30 11296 C 1053.34 0.447829 -2.29165 0
M  V30 11297 C 1054.32 1.06956 -1.32267 0
M  V30 11298 O 1055.5 1.08365 -1.61154 0
M  V30 11299 C 1052.63 1.57902 -3.09329 0
M  V30 11300 C 1051.59 1.08369 -4.14053 0
M  V30 11301 C 1050.91 2.30641 -4.82399 0
M  V30 11302 C 1052.21 0.156591 -5.22065 0
M  V30 11303 H 1053.91 -0.188541 -2.98806 0
M  V30 11304 H 1051.45 -0.0921179 -1.43705 0
M  V30 11305 H 1053.41 2.16652 -3.61442 0
M  V30 11306 H 1052.13 2.24287 -2.37409 0
M  V30 11307 H 1050.79 0.518772 -3.62911 0
M  V30 11308 H 1050.44 2.9552 -4.07034 0
M  V30 11309 H 1050.14 1.98163 -5.53177 0
M  V30 11310 H 1051.66 2.90047 -5.37313 0
M  V30 11311 H 1053.08 0.652065 -5.6958 0
M  V30 11312 H 1051.47 -0.0780978 -6.00049 0
M  V30 11313 H 1052.54 -0.796529 -4.78313 0
M  V30 11314 N 1053.89 1.57202 -0.111913 0
M  V30 11315 C 1054.8 2.18475 0.854753 0
M  V30 11316 C 1055.81 1.15888 1.29792 0
M  V30 11317 O 1056.99 1.48329 1.36237 0
M  V30 11318 C 1054.05 2.76645 2.0897 0
M  V30 11319 C 1053.11 3.94244 1.69913 0
M  V30 11320 C 1052.35 4.49631 2.8752 0
M  V30 11321 O 1052.57 4.03926 4.02741 0
M  V30 11322 O 1051.5 5.40417 2.65015 0
M  V30 11323 H 1055.33 3.01519 0.363352 0
M  V30 11324 H 1052.91 1.4897 0.113329 0
M  V30 11325 H 1054.8 3.13755 2.81311 0
M  V30 11326 H 1053.47 1.96637 2.5713 0
M  V30 11327 H 1052.38 3.61915 0.947013 0
M  V30 11328 H 1053.71 4.75666 1.26501 0
M  V30 11329 N 1055.36 -0.161842 1.56767 0
M  V30 11330 C 1056.77 -0.723385 1.72116 0
M  V30 11331 C 1057.13 -1.82355 0.723961 0
M  V30 11332 O 1056.25 -2.16107 -0.112643 0
M  V30 11333 C 1056.85 -1.31895 3.12072 0
M  V30 11334 C 1055.4 -1.82722 3.29074 0
M  V30 11335 C 1054.55 -0.709863 2.6806 0
M  V30 11336 H 1057.5 0.0636647 1.58572 0
M  V30 11337 H 1057.52 -2.18871 3.11249 0
M  V30 11338 H 1057.04 -0.51801 3.84627 0
M  V30 11339 H 1055.14 -2.6543 2.61491 0
M  V30 11340 H 1055.25 -1.96614 4.36898 0
M  V30 11341 H 1053.61 -1.13273 2.28126 0
M  V30 11342 H 1054.4 0.0793884 3.43208 0
M  V30 11343 N 1056.84 -1.516 -0.430713 0
M  V30 11344 C 1057.75 -1.76247 -1.54836 0
M  V30 11345 C 1058.77 -0.646985 -1.61524 0
M  V30 11346 O 1059.94 -0.929987 -1.78643 0
M  V30 11347 C 1057.01 -1.88833 -2.90763 0
M  V30 11348 C 1056.07 -3.12701 -2.94137 0
M  V30 11349 C 1055.3 -3.24676 -4.23581 0
M  V30 11350 O 1055.53 -2.42429 -5.16318 0
M  V30 11351 O 1054.46 -4.17697 -4.33374 0
M  V30 11352 H 1058.29 -2.71069 -1.3695 0
M  V30 11353 H 1055.87 -1.36182 -0.614396 0
M  V30 11354 H 1057.75 -1.99057 -3.71422 0
M  V30 11355 H 1056.43 -0.971987 -3.08762 0
M  V30 11356 H 1055.33 -3.0795 -2.1241 0
M  V30 11357 H 1056.67 -4.04045 -2.81084 0
M  V30 11358 N 1058.32 0.686584 -1.41858 0
M  V30 11359 C 1059.6 1.44176 -1.32185 0
M  V30 11360 C 1059.98 2.11049 0.046362 0
M  V30 11361 O 1059.32 2.02365 1.06117 0
M  V30 11362 C 1059.53 2.45385 -2.48168 0
M  V30 11363 C 1060.88 3.10375 -2.89746 0
M  V30 11364 O 1061.91 2.55711 -2.47973 0
M  V30 11365 O 1060.77 4.09404 -3.62009 0
M  V30 11366 H 1057.86 0.642513 -0.520678 0
M  V30 11367 H 1060.41 0.716303 -1.53841 0
M  V30 11368 H 1059.18 1.94687 -3.3943 0
M  V30 11369 H 1058.8 3.25428 -2.28435 0
M  V30 11370 N 1059.8 1.27835 0.921735 0
M  V30 11371 C 1060.71 1.12904 2.05645 0
M  V30 11372 C 1061.72 0.0575704 1.73905 0
M  V30 11373 O 1062.9 0.265261 1.99645 0
M  V30 11374 C 1059.96 0.783957 3.3772 0
M  V30 11375 C 1059.03 1.93694 3.8312 0
M  V30 11376 C 1058.26 1.60823 5.08893 0
M  V30 11377 O 1058.48 0.518873 5.68035 0
M  V30 11378 O 1057.42 2.44932 5.49811 0
M  V30 11379 H 1061.24 2.08143 2.21157 0
M  V30 11380 H 1058.83 1.07078 1.04185 0
M  V30 11381 H 1060.71 0.605107 4.17033 0
M  V30 11382 H 1059.38 -0.138849 3.23402 0
M  V30 11383 H 1058.29 2.17089 3.04669 0
M  V30 11384 H 1059.62 2.84016 4.0199 0
M  V30 11385 N 1061.28 -1.12907 1.09954 0
M  V30 11386 C 1062.19 -2.22082 0.756095 0
M  V30 11387 C 1063.2 -1.72277 -0.244272 0
M  V30 11388 O 1064.38 -2.01224 -0.0842637 0
M  V30 11389 C 1061.44 -3.46192 0.187642 0
M  V30 11390 C 1060.5 -4.10861 1.24465 0
M  V30 11391 C 1059.74 -5.29047 0.703227 0
M  V30 11392 O 1059.96 -5.68443 -0.472043 0
M  V30 11393 O 1058.89 -5.83904 1.46082 0
M  V30 11394 H 1062.72 -2.53842 1.66727 0
M  V30 11395 H 1060.3 -1.21145 0.874316 0
M  V30 11396 H 1062.19 -4.21212 -0.125774 0
M  V30 11397 H 1060.86 -3.16119 -0.696459 0
M  V30 11398 H 1059.77 -3.37643 1.61085 0
M  V30 11399 H 1061.1 -4.45078 2.10159 0
M  V30 11400 N 1062.75 -0.88754 -1.30232 0
M  V30 11401 C 1063.98 -0.521562 -2.00735 0
M  V30 11402 C 1064.4 0.883247 -1.66073 0
M  V30 11403 O 1063.76 1.58581 -0.878731 0
M  V30 11404 C 1063.81 -0.706521 -3.53611 0
M  V30 11405 O 1062.91 0.246447 -4.11663 0
M  V30 11406 H 1062.25 -0.205216 -0.631492 0
M  V30 11407 H 1064.78 -1.19579 -1.66018 0
M  V30 11408 H 1064.79 -0.606501 -4.03467 0
M  V30 11409 H 1063.47 -1.73076 -3.78177 0
M  V30 11410 H 1062.05 0.0999062 -3.72766 0
M  V30 11411 N 1064.23 1.43628 -0.648757 0
M  V30 11412 C 1065.51 1.95391 -0.0904551 0
M  V30 11413 C 1065.89 1.59021 1.38837 0
M  V30 11414 O 1065.24 0.873078 2.11163 0
M  V30 11415 C 1065.45 3.47418 -0.33196 0
M  V30 11416 C 1066.8 4.23952 -0.234521 0
M  V30 11417 O 1067.82 3.55218 -0.264276 0
M  V30 11418 O 1066.68 5.46282 -0.154428 0
M  V30 11419 H 1063.77 0.82691 0.0121884 0
M  V30 11420 H 1066.32 1.5359 -0.721685 0
M  V30 11421 H 1065.09 3.67001 -1.35741 0
M  V30 11422 H 1064.71 3.96207 0.332556 0
M  V30 11423 N 1065.71 0.390394 1.52688 0
M  V30 11424 C 1066.67 -0.432149 2.25089 0
M  V30 11425 C 1067.67 -0.989296 1.26766 0
M  V30 11426 O 1068.86 -0.871126 1.50854 0
M  V30 11427 C 1066 -1.60642 3.00678 0
M  V30 11428 H 1067.19 0.201734 2.99221 0
M  V30 11429 H 1064.74 0.142531 1.55649 0
M  V30 11430 H 1065.48 -2.2777 2.3085 0
M  V30 11431 H 1065.26 -1.21361 3.72846 0
M  V30 11432 H 1066.75 -2.18873 3.55647 0
M  V30 11433 N 1067.19 -1.57141 0.120249 0
M  V30 11434 C 1068.47 -1.8677 -0.581075 0
M  V30 11435 C 1068.85 -1.02163 -1.84732 0
M  V30 11436 O 1068.19 -0.100897 -2.28277 0
M  V30 11437 C 1068.4 -3.37923 -0.872316 0
M  V30 11438 C 1069.75 -4.0655 -1.22483 0
M  V30 11439 O 1070.78 -3.42948 -0.962539 0
M  V30 11440 O 1069.63 -5.18821 -1.71717 0
M  V30 11441 H 1066.73 -0.773219 -0.293362 0
M  V30 11442 H 1069.27 -1.68992 0.154846 0
M  V30 11443 H 1068.05 -3.91292 0.0249416 0
M  V30 11444 H 1067.67 -3.61135 -1.66335 0
M  V30 11445 N 1068.67 0.153526 -1.5685 0
M  V30 11446 C 1069.9 0.881055 -1.86872 0
M  V30 11447 C 1070.3 1.75547 -0.705692 0
M  V30 11448 O 1069.65 1.8064 0.333888 0
M  V30 11449 C 1069.71 1.79429 -3.11521 0
M  V30 11450 C 1069.37 1.0977 -4.43621 0
M  V30 11451 C 1070.37 0.454693 -5.17908 0
M  V30 11452 C 1068.06 1.08915 -4.9035 0
M  V30 11453 C 1070.05 -0.187562 -6.37124 0
M  V30 11454 C 1067.74 0.443084 -6.09492 0
M  V30 11455 C 1068.73 -0.194154 -6.82724 0
M  V30 11456 O 1068.42 -0.829995 -7.99604 0
M  V30 11457 H 1068.15 0.260486 -0.623797 0
M  V30 11458 H 1070.71 0.153024 -2.04829 0
M  V30 11459 H 1068.94 2.5631 -2.89555 0
M  V30 11460 H 1070.63 2.39321 -3.27842 0
M  V30 11461 H 1071.39 0.453151 -4.82878 0
M  V30 11462 H 1067.27 1.57456 -4.33276 0
M  V30 11463 H 1070.82 -0.685542 -6.94223 0
M  V30 11464 H 1066.71 0.44227 -6.43983 0
M  V30 11465 H 1067.48 -0.731013 -8.15229 0
M  V30 11466 N 1070.14 1.51827 0.422667 0
M  V30 11467 C 1071.42 1.55772 1.18299 0
M  V30 11468 C 1071.8 0.330657 2.08494 0
M  V30 11469 O 1071.15 -0.683373 2.18042 0
M  V30 11470 C 1071.36 2.87941 1.97208 0
M  V30 11471 C 1072.71 3.4044 2.53744 0
M  V30 11472 O 1073.73 2.8959 2.07403 0
M  V30 11473 O 1072.59 4.29201 3.38303 0
M  V30 11474 H 1069.68 0.626889 0.539388 0
M  V30 11475 H 1072.23 1.64147 0.430545 0
M  V30 11476 H 1071 3.68702 1.31052 0
M  V30 11477 H 1070.63 2.82795 2.79486 0
M  V30 11478 N 1071.62 -0.679052 1.4222 0
M  V30 11479 C 1072.85 -1.46534 1.45641 0
M  V30 11480 C 1073.26 -1.89088 0.0649574 0
M  V30 11481 O 1072.6 -1.58436 -0.929712 0
M  V30 11482 C 1072.67 -2.74882 2.3169 0
M  V30 11483 C 1072.33 -2.5443 3.79624 0
M  V30 11484 C 1073.33 -2.19307 4.71382 0
M  V30 11485 C 1071.01 -2.69557 4.23845 0
M  V30 11486 C 1073.01 -1.99571 6.05351 0
M  V30 11487 C 1070.69 -2.49437 5.57875 0
M  V30 11488 C 1071.69 -2.14497 6.48444 0
M  V30 11489 O 1071.38 -1.94567 7.79999 0
M  V30 11490 H 1071.11 -0.457542 0.497626 0
M  V30 11491 H 1073.66 -0.842145 1.87342 0
M  V30 11492 H 1071.89 -3.39669 1.8483 0
M  V30 11493 H 1073.58 -3.3675 2.26615 0
M  V30 11494 H 1074.35 -2.0722 4.38503 0
M  V30 11495 H 1070.23 -2.95733 3.53642 0
M  V30 11496 H 1073.77 -1.72222 6.76007 0
M  V30 11497 H 1069.67 -2.61119 5.90328 0
M  V30 11498 H 1070.44 -2.092 7.91314 0
M  V30 11499 N 1073.1 -1.28322 -0.914942 0
M  V30 11500 C 1074.03 -1.07947 -2.02188 0
M  V30 11501 C 1075.05 -0.0315743 -1.62769 0
M  V30 11502 O 1076.23 -0.274503 -1.76377 0
M  V30 11503 C 1073.33 -0.61805 -3.33217 0
M  V30 11504 C 1072.51 -1.74109 -4.01254 0
M  V30 11505 C 1071.57 -1.27325 -5.10563 0
M  V30 11506 O 1070.59 -1.97526 -5.33828 0
M  V30 11507 N 1071.79 -0.1358 -5.80341 0
M  V30 11508 H 1074.56 -2.03275 -2.20225 0
M  V30 11509 H 1072.12 -1.20059 -1.08616 0
M  V30 11510 H 1074.11 -0.288693 -4.03669 0
M  V30 11511 H 1072.68 0.242348 -3.11659 0
M  V30 11512 H 1071.9 -2.2401 -3.24366 0
M  V30 11513 H 1073.19 -2.49448 -4.43456 0
M  V30 11514 H 1072.59 0.449846 -5.63909 0
M  V30 11515 H 1071.15 0.134289 -6.51662 0
M  V30 11516 N 1074.58 1.12322 -1.10551 0
M  V30 11517 C 1075.53 2.20166 -0.750317 0
M  V30 11518 C 1076.52 1.67484 0.254066 0
M  V30 11519 O 1077.73 1.79637 0.114309 0
M  V30 11520 H 1074.1 0.717642 -0.22471 0
M  V30 11521 H 1076.07 2.47378 -1.66873 0
M  V30 11522 C 1074.82 3.47126 -0.199651 0
M  V30 11523 H 1074.14 3.88011 -0.963735 0
M  V30 11524 H 1075.58 4.23999 0.0108033 0
M  V30 11525 C 1074.04 3.19526 1.06792 0
M  V30 11526 O 1074.57 3.39368 2.14923 0
M  V30 11527 N 1072.78 2.73324 0.987032 0
M  V30 11528 H 1072.33 2.57378 0.106997 0
M  V30 11529 H 1072.28 2.55234 1.83584 0
M  V30 11530 N 1076.06 0.894434 1.2976 0
M  V30 11531 C 1077.47 0.589778 1.48303 0
M  V30 11532 C 1077.67 -0.870085 1.81746 0
M  V30 11533 O 1076.73 -1.65065 1.91076 0
M  V30 11534 C 1078.04 1.51107 2.59975 0
M  V30 11535 C 1079.59 1.51571 2.73853 0
M  V30 11536 C 1080.06 2.42316 3.88648 0
M  V30 11537 N 1081.56 2.40333 3.95973 0
M  V30 11538 C 1082.29 3.07254 4.84131 0
M  V30 11539 N 1081.79 3.83435 5.77018 0
M  V30 11540 N 1083.58 2.96438 4.77578 0
M  V30 11541 H 1075.73 1.83871 1.06327 0
M  V30 11542 H 1077.99 0.78758 0.527657 0
M  V30 11543 H 1077.7 2.55097 2.42112 0
M  V30 11544 H 1077.57 1.22767 3.56662 0
M  V30 11545 H 1079.96 0.483277 2.91116 0
M  V30 11546 H 1080.04 1.83946 1.77757 0
M  V30 11547 H 1079.69 3.4565 3.72141 0
M  V30 11548 H 1079.62 2.07252 4.84101 0
M  V30 11549 H 1082.11 1.84979 3.29532 0
M  V30 11550 H 1082.42 4.31565 6.4107 0
M  V30 11551 H 1080.76 3.87542 5.7692 0
M  V30 11552 H 1083.96 2.36442 4.03996 0
M  V30 11553 H 1084.13 3.48867 5.46073 0
M  V30 11554 N 1077.53 -1.43282 0.656365 0
M  V30 11555 C 1078.46 -2.33492 -0.0196962 0
M  V30 11556 C 1079.45 -1.49647 -0.80868 0
M  V30 11557 O 1080.63 -1.78303 -0.769529 0
M  V30 11558 C 1077.76 -3.33052 -0.984574 0
M  V30 11559 C 1076.71 -4.26908 -0.305483 0
M  V30 11560 C 1076.04 -5.16531 -1.38202 0
M  V30 11561 C 1077.34 -5.16073 0.804081 0
M  V30 11562 H 1079.03 -2.90272 0.733661 0
M  V30 11563 H 1076.58 -1.39574 0.354259 0
M  V30 11564 H 1078.53 -3.9506 -1.46647 0
M  V30 11565 H 1077.26 -2.74535 -1.76913 0
M  V30 11566 H 1075.92 -3.66268 0.155995 0
M  V30 11567 H 1075.56 -4.54351 -2.1581 0
M  V30 11568 H 1075.26 -5.80148 -0.932878 0
M  V30 11569 H 1076.79 -5.81414 -1.86522 0
M  V30 11570 H 1078.2 -5.71873 0.404212 0
M  V30 11571 H 1076.6 -5.88427 1.17789 0
M  V30 11572 H 1077.67 -4.55574 1.66073 0
M  V30 11573 N 1079.01 -0.398486 -1.52479 0
M  V30 11574 C 1079.98 0.420206 -2.25315 0
M  V30 11575 C 1080.98 0.982559 -1.27289 0
M  V30 11576 O 1082.17 0.863113 -1.51314 0
M  V30 11577 C 1079.3 1.59045 -3.01525 0
M  V30 11578 H 1080.49 -0.217599 -2.9911 0
M  V30 11579 H 1078.04 -0.150784 -1.55571 0
M  V30 11580 H 1078.78 2.26542 -2.32054 0
M  V30 11581 H 1078.56 1.19382 -3.73484 0
M  V30 11582 H 1080.05 2.16984 -3.56802 0
M  V30 11583 N 1080.49 1.57075 -0.12858 0
M  V30 11584 C 1081.45 2.14643 0.803813 0
M  V30 11585 C 1082.45 1.08363 1.18803 0
M  V30 11586 O 1083.64 1.34093 1.11197 0
M  V30 11587 C 1080.78 2.6945 2.08829 0
M  V30 11588 H 1081.97 2.98362 0.303347 0
M  V30 11589 H 1079.52 1.55833 0.120735 0
M  V30 11590 H 1080.26 1.89345 2.63285 0
M  V30 11591 H 1080.04 3.47187 1.82218 0
M  V30 11592 H 1081.53 3.13865 2.7546 0
M  V30 11593 N 1081.97 -0.145205 1.5693 0
M  V30 11594 C 1082.93 -1.16316 1.97492 0
M  V30 11595 C 1083.93 -1.35764 0.861668 0
M  V30 11596 O 1085.12 -1.32726 1.12825 0
M  V30 11597 C 1082.25 -2.52311 2.29242 0
M  V30 11598 H 1083.45 -0.815138 2.8861 0
M  V30 11599 H 1081 -0.38861 1.51392 0
M  V30 11600 H 1081.74 -2.92081 1.40922 0
M  V30 11601 H 1081.52 -2.39555 3.10412 0
M  V30 11602 H 1083.01 -3.25624 2.61456 0
M  V30 11603 N 1083.45 -1.52049 -0.414609 0
M  V30 11604 C 1084.38 -1.77956 -1.51175 0
M  V30 11605 C 1085.36 -0.630282 -1.57992 0
M  V30 11606 O 1086.54 -0.875324 -1.73354 0
M  V30 11607 C 1083.67 -1.92527 -2.89051 0
M  V30 11608 C 1082.63 -3.08096 -2.97087 0
M  V30 11609 C 1081.95 -3.07882 -4.37164 0
M  V30 11610 C 1083.25 -4.47656 -2.69075 0
M  V30 11611 H 1084.95 -2.69827 -1.29746 0
M  V30 11612 H 1082.49 -1.29839 -0.62273 0
M  V30 11613 H 1084.45 -2.09234 -3.65786 0
M  V30 11614 H 1083.17 -0.973235 -3.11762 0
M  V30 11615 H 1081.83 -2.91131 -2.22797 0
M  V30 11616 H 1081.48 -2.10411 -4.56877 0
M  V30 11617 H 1081.18 -3.85501 -4.43467 0
M  V30 11618 H 1082.7 -3.26712 -5.15841 0
M  V30 11619 H 1084.12 -4.64855 -3.35534 0
M  V30 11620 H 1082.51 -5.27151 -2.8676 0
M  V30 11621 H 1083.58 -4.56129 -1.64544 0
M  V30 11622 N 1084.93 0.6715 -1.42579 0
M  V30 11623 C 1086.17 1.42871 -1.42941 0
M  V30 11624 C 1086.49 1.94941 -0.0480483 0
M  V30 11625 O 1085.76 1.73275 0.913921 0
M  V30 11626 H 1084.34 0.530189 -0.526221 0
M  V30 11627 H 1087.01 0.793219 -1.78028 0
M  V30 11628 H 1086.1 2.2801 -2.13114 0
M  V30 11629 N 1086.4 1.28806 0.908124 0
M  V30 11630 C 1087.65 1.15663 1.65242 0
M  V30 11631 C 1087.97 -0.292883 1.93395 0
M  V30 11632 O 1089.17 -0.545509 2.65963 0
M  V30 11633 C 1087.63 2.02233 2.97707 0
M  V30 11634 C 1087.24 3.51958 2.77181 0
M  V30 11635 C 1088.98 1.97792 3.75604 0
M  V30 11636 C 1086.89 4.3066 4.05322 0
M  V30 11637 H 1085.82 0.42928 0.619867 0
M  V30 11638 H 1088.47 1.5338 1.00731 0
M  V30 11639 H 1086.85 1.57377 3.63385 0
M  V30 11640 H 1088.02 4.0481 2.20149 0
M  V30 11641 H 1086.34 3.57983 2.12691 0
M  V30 11642 H 1088.94 2.53858 4.70596 0
M  V30 11643 H 1089.28 0.955956 4.05175 0
M  V30 11644 H 1089.81 2.40648 3.16755 0
M  V30 11645 H 1086.55 5.3346 3.8092 0
M  V30 11646 H 1086.07 3.8258 4.61944 0
M  V30 11647 H 1087.75 4.40878 4.73535 0
M  V30 11648 N 1087.88 -1.11734 1.11145 0
M  V30 11649 C 1089.3 -1.35412 0.844736 0
M  V30 11650 C 1089.5 -1.94347 -0.532111 0
M  V30 11651 O 1088.55 -2.17443 -1.28353 0
M  V30 11652 C 1089.87 -2.28869 1.95037 0
M  V30 11653 C 1091.41 -2.42442 1.97967 0
M  V30 11654 C 1091.89 -3.39219 3.07725 0
M  V30 11655 N 1093.38 -3.4678 3.07079 0
M  V30 11656 C 1094.12 -4.21595 3.88646 0
M  V30 11657 N 1093.61 -4.99411 4.80167 0
M  V30 11658 N 1095.4 -4.17075 3.76835 0
M  V30 11659 H 1087.56 -0.718412 1.99881 0
M  V30 11660 H 1089.82 -0.378787 0.869037 0
M  V30 11661 H 1089.52 -1.92752 2.94176 0
M  V30 11662 H 1089.4 -3.2906 1.84389 0
M  V30 11663 H 1091.79 -2.77835 0.994561 0
M  V30 11664 H 1091.87 -1.42113 2.12691 0
M  V30 11665 H 1091.51 -3.04553 4.0646 0
M  V30 11666 H 1091.44 -4.39394 2.90242 0
M  V30 11667 H 1093.93 -2.91272 2.40767 0
M  V30 11668 H 1094.24 -5.53856 5.38946 0
M  V30 11669 H 1092.59 -4.98582 4.84191 0
M  V30 11670 H 1095.78 -3.55369 3.04681 0
M  V30 11671 H 1095.95 -4.75125 4.40637 0
M  V30 11672 N 1089.36 -0.901303 -1.29284 0
M  V30 11673 C 1090.58 -0.542823 -2.0017 0
M  V30 11674 C 1091.01 0.865583 -1.67001 0
M  V30 11675 O 1090.37 1.5764 -0.895502 0
M  V30 11676 C 1090.42 -0.743987 -3.52842 0
M  V30 11677 O 1089.52 0.202771 -4.11901 0
M  V30 11678 H 1088.86 -0.211903 -0.62928 0
M  V30 11679 H 1091.39 -1.21333 -1.64741 0
M  V30 11680 H 1091.4 -0.64926 -4.02801 0
M  V30 11681 H 1090.08 -1.77077 -3.7632 0
M  V30 11682 H 1088.65 0.0603637 -3.72851 0
M  V30 11683 N 1090.84 1.42931 -0.663954 0
M  V30 11684 C 1092.08 2.01683 -0.181738 0
M  V30 11685 C 1092.41 1.52437 1.20802 0
M  V30 11686 O 1091.67 0.71254 1.82267 0
M  V30 11687 C 1091.97 3.57072 -0.153163 0
M  V30 11688 C 1091.63 4.25706 -1.48612 0
M  V30 11689 C 1090.29 4.4417 -1.85111 0
M  V30 11690 C 1092.65 4.6448 -2.36448 0
M  V30 11691 C 1089.97 4.98677 -3.09092 0
M  V30 11692 C 1092.33 5.20362 -3.5973 0
M  V30 11693 C 1090.99 5.37041 -3.96412 0
M  V30 11694 H 1090.26 0.73801 -0.0665026 0
M  V30 11695 H 1092.91 1.71264 -0.856791 0
M  V30 11696 H 1091.21 3.87095 0.605372 0
M  V30 11697 H 1092.91 4.00299 0.236981 0
M  V30 11698 H 1089.5 4.11686 -1.19215 0
M  V30 11699 H 1093.68 4.49898 -2.09537 0
M  V30 11700 H 1088.94 5.09776 -3.37547 0
M  V30 11701 H 1093.11 5.49352 -4.28001 0
M  V30 11702 H 1090.74 5.79042 -4.92559 0
M  V30 11703 N 1092.32 0.406567 1.52266 0
M  V30 11704 C 1093.73 0.0573228 1.59497 0
M  V30 11705 C 1093.93 -1.43005 1.41957 0
M  V30 11706 O 1092.99 -2.19659 1.24523 0
M  V30 11707 C 1094.3 0.549947 2.95628 0
M  V30 11708 C 1095.85 0.5077 3.08855 0
M  V30 11709 C 1096.32 0.976792 4.47463 0
M  V30 11710 N 1097.81 0.933508 4.53696 0
M  V30 11711 C 1098.55 1.26769 5.59211 0
M  V30 11712 N 1098.05 1.6732 6.72292 0
M  V30 11713 N 1099.84 1.18782 5.49406 0
M  V30 11714 H 1091.99 1.37468 1.61914 0
M  V30 11715 H 1094.25 0.564562 0.76156 0
M  V30 11716 H 1093.96 1.58943 3.13736 0
M  V30 11717 H 1093.83 -0.0417767 3.77177 0
M  V30 11718 H 1096.22 -0.522728 2.90433 0
M  V30 11719 H 1096.3 1.13545 2.29219 0
M  V30 11720 H 1095.94 2.00554 4.66627 0
M  V30 11721 H 1095.87 0.325885 5.25591 0
M  V30 11722 H 1098.37 0.635333 3.72521 0
M  V30 11723 H 1098.68 1.91137 7.4879 0
M  V30 11724 H 1097.02 1.71221 6.73579 0
M  V30 11725 H 1100.21 0.869906 4.59946 0
M  V30 11726 H 1100.39 1.45157 6.31533 0
M  V30 11727 N 1093.79 -1.57004 0.136909 0
M  V30 11728 C 1094.74 -2.17524 -0.823784 0
M  V30 11729 C 1095.74 -1.1294 -1.26258 0
M  V30 11730 O 1096.94 -1.3121 -1.23223 0
M  V30 11731 H 1093.32 -0.696381 -0.283827 0
M  V30 11732 H 1095.29 -2.96997 -0.289052 0
M  V30 11733 C 1094.04 -2.80331 -2.05693 0
M  V30 11734 H 1093.36 -3.60515 -1.72825 0
M  V30 11735 H 1094.8 -3.26192 -2.70878 0
M  V30 11736 C 1093.26 -1.78322 -2.85837 0
M  V30 11737 O 1093.79 -1.2475 -3.81838 0
M  V30 11738 N 1092 -1.47854 -2.50175 0
M  V30 11739 H 1091.54 -1.9161 -1.72173 0
M  V30 11740 H 1091.5 -0.798464 -3.04092 0
M  V30 11741 N 1095.27 0.136881 -1.57004 0
M  V30 11742 C 1096.5 0.866405 -1.88436 0
M  V30 11743 C 1096.92 1.73483 -0.727006 0
M  V30 11744 O 1096.28 1.78398 0.323094 0
M  V30 11745 C 1096.33 1.69059 -3.18514 0
M  V30 11746 O 1095.43 2.79584 -3.03161 0
M  V30 11747 H 1094.77 0.240709 -0.618834 0
M  V30 11748 H 1097.3 0.124653 -2.0422 0
M  V30 11749 H 1097.31 2.08353 -3.50789 0
M  V30 11750 H 1095.99 1.05296 -4.0235 0
M  V30 11751 H 1094.57 2.43623 -2.82315 0
M  V30 11752 N 1096.75 1.52266 0.40654 0
M  V30 11753 C 1097.98 1.70598 1.17945 0
M  V30 11754 C 1098.4 0.415793 1.83447 0
M  V30 11755 O 1097.76 -0.626968 1.70114 0
M  V30 11756 C 1097.81 2.84449 2.21633 0
M  V30 11757 O 1096.91 2.50199 3.27833 0
M  V30 11758 H 1096.25 0.567837 0.344177 0
M  V30 11759 H 1098.78 1.98981 0.476211 0
M  V30 11760 H 1098.79 3.09436 2.65919 0
M  V30 11761 H 1097.47 3.78055 1.73341 0
M  V30 11762 H 1096.04 2.35892 2.88807 0
M  V30 11763 N 1098.23 -0.663929 1.42933 0
M  V30 11764 C 1099.16 -1.78899 1.50058 0
M  V30 11765 C 1100.14 -1.66329 0.356164 0
M  V30 11766 O 1101.32 -1.85587 0.571944 0
M  V30 11767 C 1098.45 -3.17265 1.41281 0
M  V30 11768 C 1097.41 -3.44584 2.53861 0
M  V30 11769 C 1096.73 -4.82638 2.3014 0
M  V30 11770 C 1098.03 -3.40394 3.96143 0
M  V30 11771 H 1099.73 -1.73194 2.44222 0
M  V30 11772 H 1097.27 -0.83182 1.17545 0
M  V30 11773 H 1099.23 -3.95715 1.44872 0
M  V30 11774 H 1097.95 -3.23675 0.43616 0
M  V30 11775 H 1096.61 -2.685 2.49606 0
M  V30 11776 H 1096.26 -4.85711 1.30743 0
M  V30 11777 H 1095.96 -5.01879 3.056 0
M  V30 11778 H 1097.48 -5.63359 2.35497 0
M  V30 11779 H 1098.9 -4.08796 4.01943 0
M  V30 11780 H 1097.29 -3.7117 4.71543 0
M  V30 11781 H 1098.36 -2.38767 4.22041 0
M  V30 11782 N 1099.71 -1.29285 -0.901281 0
M  V30 11783 C 1100.65 -1.14159 -2.02659 0
M  V30 11784 C 1101.65 -0.0575887 -1.69302 0
M  V30 11785 O 1102.85 -0.217273 -1.78684 0
M  V30 11786 H 1099.23 -0.352584 -0.66422 0
M  V30 11787 H 1101.2 -2.09434 -2.12555 0
M  V30 11788 C 1099.95 -0.833253 -3.37568 0
M  V30 11789 H 1099.27 -1.65939 -3.63737 0
M  V30 11790 H 1100.71 -0.767436 -4.16997 0
M  V30 11791 C 1099.17 0.46344 -3.33697 0
M  V30 11792 O 1099.7 1.48998 -3.73045 0
M  V30 11793 N 1097.91 0.468709 -2.86795 0
M  V30 11794 H 1097.45 -0.36712 -2.54971 0
M  V30 11795 H 1097.41 1.3363 -2.84588 0
M  V30 11796 N 1101.18 1.11143 -1.11736 0
M  V30 11797 C 1102.12 2.1705 -0.736325 0
M  V30 11798 C 1103.13 1.61116 0.233528 0
M  V30 11799 O 1104.32 1.78493 0.0159602 0
M  V30 11800 C 1101.42 3.38832 -0.067974 0
M  V30 11801 C 1100.59 4.24226 -1.06543 0
M  V30 11802 C 1099.65 5.24472 -0.426063 0
M  V30 11803 O 1098.68 5.58843 -1.0809 0
M  V30 11804 N 1099.88 5.74825 0.809711 0
M  V30 11805 H 1102.64 2.50349 -1.64758 0
M  V30 11806 H 1100.2 1.26693 -1.00799 0
M  V30 11807 H 1102.2 4.02991 0.371563 0
M  V30 11808 H 1100.77 3.0357 0.745917 0
M  V30 11809 H 1099.99 3.56475 -1.68283 0
M  V30 11810 H 1101.27 4.78117 -1.74016 0
M  V30 11811 H 1100.67 5.49088 1.36084 0
M  V30 11812 H 1099.23 6.40804 1.19218 0
M  V30 11813 N 1102.66 0.908147 1.28804 0
M  V30 11814 C 1103.57 0.397167 2.31214 0
M  V30 11815 C 1104.59 -0.512352 1.66286 0
M  V30 11816 O 1105.76 -0.399893 1.9739 0
M  V30 11817 C 1102.83 -0.359522 3.44831 0
M  V30 11818 C 1101.89 0.582539 4.25329 0
M  V30 11819 C 1101.12 -0.138133 5.33521 0
M  V30 11820 O 1101.35 -1.36076 5.53931 0
M  V30 11821 O 1100.28 0.523682 5.99618 0
M  V30 11822 H 1104.11 1.247 2.76918 0
M  V30 11823 H 1101.69 0.672766 1.33395 0
M  V30 11824 H 1103.57 -0.787098 4.13984 0
M  V30 11825 H 1102.25 -1.18528 3.01219 0
M  V30 11826 H 1101.16 1.0594 3.58786 0
M  V30 11827 H 1102.49 1.37495 4.72605 0
M  V30 11828 N 1104.14 -1.42577 0.671525 0
M  V30 11829 C 1105.05 -2.34598 -0.00898225 0
M  V30 11830 C 1106.07 -1.54909 -0.792407 0
M  V30 11831 O 1107.24 -1.87491 -0.735477 0
M  V30 11832 C 1104.31 -3.33405 -0.950888 0
M  V30 11833 C 1103.37 -4.28993 -0.16236 0
M  V30 11834 C 1102.6 -5.2308 -1.0594 0
M  V30 11835 O 1102.82 -5.22022 -2.2989 0
M  V30 11836 O 1101.76 -5.99632 -0.521966 0
M  V30 11837 H 1105.58 -2.94321 0.748927 0
M  V30 11838 H 1103.17 -1.43025 0.43175 0
M  V30 11839 H 1105.05 -3.94115 -1.49169 0
M  V30 11840 H 1103.73 -2.7616 -1.68871 0
M  V30 11841 H 1102.63 -3.71707 0.42247 0
M  V30 11842 H 1103.97 -4.8927 0.536274 0
M  V30 11843 N 1105.62 -0.414636 -1.52048 0
M  V30 11844 C 1106.53 0.414861 -2.30903 0
M  V30 11845 C 1107.54 1.04855 -1.38858 0
M  V30 11846 O 1108.72 1.04886 -1.71933 0
M  V30 11847 C 1105.79 1.51356 -3.11917 0
M  V30 11848 C 1104.85 0.902359 -4.19709 0
M  V30 11849 C 1104.08 1.9487 -4.96852 0
M  V30 11850 O 1104.3 3.16766 -4.74358 0
M  V30 11851 O 1103.24 1.55186 -5.8155 0
M  V30 11852 H 1107.06 -0.228251 -3.02841 0
M  V30 11853 H 1104.65 -0.177704 -1.48339 0
M  V30 11854 H 1106.53 2.15127 -3.62351 0
M  V30 11855 H 1105.2 2.14117 -2.42767 0
M  V30 11856 H 1104.11 0.22721 -3.73409 0
M  V30 11857 H 1105.44 0.318587 -4.91168 0
M  V30 11858 N 1107.1 1.56929 -0.145233 0
M  V30 11859 C 1108.01 2.20238 0.808219 0
M  V30 11860 C 1109.02 1.18615 1.27304 0
M  V30 11861 O 1110.2 1.51186 1.3306 0
M  V30 11862 C 1107.26 2.81016 2.03055 0
M  V30 11863 C 1106.32 3.97759 1.61512 0
M  V30 11864 C 1105.56 4.55628 2.77918 0
M  V30 11865 O 1105.78 4.12378 3.94082 0
M  V30 11866 O 1104.71 5.45917 2.53492 0
M  V30 11867 H 1108.54 3.02221 0.299314 0
M  V30 11868 H 1106.13 1.49176 0.0817051 0
M  V30 11869 H 1108.01 3.19652 2.74592 0
M  V30 11870 H 1106.68 2.02047 2.52901 0
M  V30 11871 H 1105.59 3.63842 0.870033 0
M  V30 11872 H 1106.92 4.78242 1.16383 0
M  V30 11873 N 1108.58 -0.128553 1.57075 0
M  V30 11874 C 1109.82 -0.83801 1.84347 0
M  V30 11875 C 1110.15 -1.80325 0.728906 0
M  V30 11876 O 1109.41 -1.93678 -0.280571 0
M  V30 11877 C 1109.7 -1.63027 3.18052 0
M  V30 11878 C 1109.37 -0.810171 4.43562 0
M  V30 11879 C 1108.03 -0.583984 4.77643 0
M  V30 11880 C 1110.38 -0.237896 5.20657 0
M  V30 11881 C 1107.71 0.224887 5.86269 0
M  V30 11882 C 1110.06 0.558114 6.30133 0
M  V30 11883 C 1108.73 0.794706 6.62752 0
M  V30 11884 H 1108 -0.30665 0.674572 0
M  V30 11885 H 1110.65 -0.100797 1.91235 0
M  V30 11886 H 1108.95 -2.43812 3.06697 0
M  V30 11887 H 1110.65 -2.183 3.36372 0
M  V30 11888 H 1107.24 -0.996547 4.16854 0
M  V30 11889 H 1111.42 -0.399881 4.94686 0
M  V30 11890 H 1106.68 0.417507 6.09973 0
M  V30 11891 H 1110.85 1.00859 6.89058 0
M  V30 11892 H 1108.48 1.42331 7.46757 0
M  V30 11893 N 1110.05 -1.5248 -0.398459 0
M  V30 11894 C 1111 -1.77211 -1.50662 0
M  V30 11895 C 1112 -0.639638 -1.5686 0
M  V30 11896 O 1113.2 -0.821917 -1.60139 0
M  V30 11897 H 1109.58 -0.56057 -0.501264 0
M  V30 11898 H 1111.55 -2.70028 -1.26993 0
M  V30 11899 C 1110.3 -1.94944 -2.8791 0
M  V30 11900 H 1109.62 -2.8151 -2.83888 0
M  V30 11901 H 1111.06 -2.16243 -3.64712 0
M  V30 11902 C 1109.52 -0.719402 -3.29129 0
M  V30 11903 O 1110.05 0.107671 -4.01556 0
M  V30 11904 N 1108.25 -0.552228 -2.85305 0
M  V30 11905 H 1107.8 -1.22638 -2.26534 0
M  V30 11906 H 1107.76 0.269447 -3.13243 0
M  V30 11907 N 1111.53 0.65634 -1.43283 0
M  V30 11908 C 1112.46 1.78101 -1.51004 0
M  V30 11909 C 1113.44 1.66138 -0.36498 0
M  V30 11910 O 1114.63 1.85281 -0.581778 0
M  V30 11911 C 1111.76 3.16511 -1.42961 0
M  V30 11912 C 1110.71 3.43233 -2.55685 0
M  V30 11913 C 1110.04 4.81411 -2.32696 0
M  V30 11914 C 1111.34 3.38288 -3.97943 0
M  V30 11915 H 1113.03 1.71896 -2.45137 0
M  V30 11916 H 1110.58 0.825575 -1.17984 0
M  V30 11917 H 1112.53 3.94941 -1.46968 0
M  V30 11918 H 1111.25 3.23439 -0.45332 0
M  V30 11919 H 1109.91 2.67173 -2.51026 0
M  V30 11920 H 1109.56 4.85011 -1.33317 0
M  V30 11921 H 1109.26 5.00251 -3.08257 0
M  V30 11922 H 1110.79 5.62102 -2.38481 0
M  V30 11923 H 1112.2 4.06659 -4.04106 0
M  V30 11924 H 1110.6 3.68664 -4.73505 0
M  V30 11925 H 1111.67 2.36525 -4.23301 0
M  V30 11926 N 1113.01 1.29761 0.894412 0
M  V30 11927 C 1114.24 1.2094 1.67872 0
M  V30 11928 C 1114.65 -0.229192 1.87404 0
M  V30 11929 O 1114.01 -1.15278 1.41482 0
M  V30 11930 C 1114.06 1.92424 3.06032 0
M  V30 11931 O 1113.78 3.30665 2.87388 0
M  V30 11932 C 1115.28 1.90144 4.0045 0
M  V30 11933 H 1112.5 0.418942 0.524145 0
M  V30 11934 H 1115.05 1.71226 1.11813 0
M  V30 11935 H 1113.2 1.4596 3.58851 0
M  V30 11936 H 1113.62 3.66741 3.74969 0
M  V30 11937 H 1115.09 2.44716 4.94791 0
M  V30 11938 H 1115.57 0.878175 4.30331 0
M  V30 11939 H 1116.17 2.36375 3.53563 0
M  V30 11940 N 1114.49 -1.10549 1.12324 0
M  V30 11941 C 1115.45 -2.15039 0.793156 0
M  V30 11942 C 1116.45 -1.59651 -0.19192 0
M  V30 11943 O 1117.64 -1.74167 0.0337262 0
M  V30 11944 C 1114.77 -3.40433 0.17842 0
M  V30 11945 H 1115.97 -2.4575 1.71892 0
M  V30 11946 H 1113.52 -1.25892 0.926333 0
M  V30 11947 H 1114.25 -3.15338 -0.757122 0
M  V30 11948 H 1114.04 -3.81921 0.887645 0
M  V30 11949 H 1115.53 -4.17584 -0.0360724 0
M  V30 11950 N 1115.97 -0.914965 -1.28321 0
M  V30 11951 C 1116.9 -0.421292 -2.29668 0
M  V30 11952 C 1117.88 0.511743 -1.6222 0
M  V30 11953 O 1119.06 0.419218 -1.89621 0
M  V30 11954 C 1116.19 0.338364 -3.45648 0
M  V30 11955 C 1115.15 -0.505646 -4.25003 0
M  V30 11956 C 1114.47 0.382421 -5.33331 0
M  V30 11957 C 1115.77 -1.76354 -4.91626 0
M  V30 11958 H 1117.47 -1.26826 -2.71211 0
M  V30 11959 H 1115.01 -0.611291 -1.30381 0
M  V30 11960 H 1116.96 0.694578 -4.15636 0
M  V30 11961 H 1115.69 1.21925 -3.02988 0
M  V30 11962 H 1114.35 -0.844395 -3.56743 0
M  V30 11963 H 1114 1.26189 -4.86914 0
M  V30 11964 H 1113.7 -0.17871 -5.87328 0
M  V30 11965 H 1115.22 0.73449 -6.06166 0
M  V30 11966 H 1116.63 -1.47616 -5.5397 0
M  V30 11967 H 1115.03 -2.26717 -5.55625 0
M  V30 11968 H 1116.1 -2.49063 -4.16048 0
M  V30 11969 N 1117.44 1.42219 -0.679077 0
M  V30 11970 C 1118.41 2.29197 -0.0125475 0
M  V30 11971 C 1119.41 1.43544 0.724691 0
M  V30 11972 O 1120.6 1.64884 0.562052 0
M  V30 11973 C 1117.73 3.26122 0.992846 0
M  V30 11974 H 1118.92 2.89629 -0.778154 0
M  V30 11975 H 1116.47 1.4993 -0.44166 0
M  V30 11976 H 1117.21 2.70637 1.78679 0
M  V30 11977 H 1116.99 3.89302 0.467544 0
M  V30 11978 H 1118.48 3.91339 1.45751 0
M  V30 11979 N 1118.92 0.422693 1.51826 0
M  V30 11980 C 1119.85 -0.386913 2.30272 0
M  V30 11981 C 1120.83 -1.03411 1.35056 0
M  V30 11982 O 1122.02 -1.04055 1.6397 0
M  V30 11983 C 1119.15 -1.49645 3.13407 0
M  V30 11984 C 1118.1 -0.973532 4.16781 0
M  V30 11985 C 1117.43 -2.1777 4.88344 0
M  V30 11986 C 1118.73 -0.0181194 5.22297 0
M  V30 11987 H 1120.42 0.267697 2.98201 0
M  V30 11988 H 1117.97 0.130186 1.4341 0
M  V30 11989 H 1119.92 -2.06993 3.67059 0
M  V30 11990 H 1118.64 -2.17914 2.43272 0
M  V30 11991 H 1117.3 -0.42237 3.64159 0
M  V30 11992 H 1116.95 -2.84625 4.14726 0
M  V30 11993 H 1116.65 -1.83427 5.58237 0
M  V30 11994 H 1118.18 -2.75699 5.44814 0
M  V30 11995 H 1119.59 -0.500822 5.71108 0
M  V30 11996 H 1117.99 0.237163 5.99631 0
M  V30 11997 H 1119.06 0.923065 4.76033 0
M  V30 11998 N 1120.4 -1.5685 0.153553 0
M  V30 11999 C 1121.31 -2.20664 -0.796528 0
M  V30 12000 C 1122.33 -1.19289 -1.26674 0
M  V30 12001 O 1123.5 -1.51889 -1.32256 0
M  V30 12002 C 1120.57 -2.82088 -2.01561 0
M  V30 12003 C 1119.63 -3.9861 -1.59401 0
M  V30 12004 C 1118.86 -4.57096 -2.75498 0
M  V30 12005 O 1119.08 -4.14462 -3.9189 0
M  V30 12006 O 1118.02 -5.47254 -2.50593 0
M  V30 12007 H 1121.84 -3.02376 -0.283282 0
M  V30 12008 H 1119.43 -1.49218 -0.0737927 0
M  V30 12009 H 1121.31 -3.21103 -2.72893 0
M  V30 12010 H 1119.99 -2.03385 -2.51826 0
M  V30 12011 H 1118.89 -3.64299 -0.850725 0
M  V30 12012 H 1120.23 -4.78853 -1.13845 0
M  V30 12013 N 1121.88 0.120221 -1.57141 0
M  V30 12014 C 1122.83 1.16654 -2.01233 0
M  V30 12015 C 1123.82 1.42943 -0.909053 0
M  V30 12016 O 1125.03 1.4292 -1.09426 0
M  V30 12017 H 1121.4 0.393289 -0.640958 0
M  V30 12018 H 1123.37 0.768156 -2.88343 0
M  V30 12019 C 1122.12 2.4854 -2.43152 0
M  V30 12020 H 1121.44 2.29149 -3.27614 0
M  V30 12021 H 1122.88 3.20315 -2.77802 0
M  V30 12022 C 1121.34 3.1103 -1.29468 0
M  V30 12023 O 1121.87 3.97042 -0.609982 0
M  V30 12024 N 1120.08 2.70888 -1.05205 0
M  V30 12025 H 1119.63 2.01039 -1.61062 0
M  V30 12026 H 1119.58 3.13028 -0.293347 0
M  V30 12027 N 1123.36 1.52689 0.390367 0
M  V30 12028 C 1124.6 1.67335 1.13329 0
M  V30 12029 C 1124.93 0.415068 1.90531 0
M  V30 12030 O 1124.2 -0.570504 1.87409 0
M  V30 12031 H 1122.78 0.616821 0.421356 0
M  V30 12032 H 1125.44 1.89799 0.443 0
M  V30 12033 H 1124.53 2.52314 1.83696 0
M  V30 12034 N 1124.83 -0.648732 1.43629 0
M  V30 12035 C 1126.06 -1.4362 1.48932 0
M  V30 12036 C 1126.48 -1.88487 0.108599 0
M  V30 12037 O 1125.83 -1.59768 -0.882066 0
M  V30 12038 C 1125.89 -2.66822 2.43903 0
M  V30 12039 O 1125.61 -2.2383 3.76606 0
M  V30 12040 C 1127.11 -3.60134 2.58493 0
M  V30 12041 H 1124.33 -0.441055 0.505679 0
M  V30 12042 H 1126.87 -0.794936 1.88417 0
M  V30 12043 H 1125.03 -3.27079 2.07601 0
M  V30 12044 H 1125.44 -3.03575 4.27718 0
M  V30 12045 H 1126.91 -4.43234 3.29011 0
M  V30 12046 H 1127.39 -4.07779 1.63134 0
M  V30 12047 H 1128 -3.05756 2.95624 0
M  V30 12048 N 1126.31 -1.30234 -0.887518 0
M  V30 12049 C 1127.22 -1.18316 -2.02579 0
M  V30 12050 C 1128.24 -0.103658 -1.73691 0
M  V30 12051 O 1129.41 -0.3181 -1.98872 0
M  V30 12052 C 1126.48 -0.873222 -3.35523 0
M  V30 12053 C 1125.54 -2.03783 -3.7785 0
M  V30 12054 C 1124.77 -1.74258 -5.0445 0
M  V30 12055 O 1125 -0.669295 -5.6646 0
M  V30 12056 O 1123.93 -2.59423 -5.43124 0
M  V30 12057 H 1127.76 -2.13933 -2.15561 0
M  V30 12058 H 1125.34 -1.09803 -1.0131 0
M  V30 12059 H 1127.22 -0.715463 -4.15282 0
M  V30 12060 H 1125.9 0.053056 -3.23657 0
M  V30 12061 H 1124.81 -2.2509 -2.98806 0
M  V30 12062 H 1126.14 -2.94574 -3.94318 0
M  V30 12063 N 1127.79 1.09952 -1.12909 0
M  V30 12064 C 1129.04 1.82016 -0.887482 0
M  V30 12065 C 1129.37 1.85445 0.586546 0
M  V30 12066 O 1128.62 1.31446 1.44984 0
M  V30 12067 C 1128.92 3.28252 -1.41369 0
M  V30 12068 C 1128.59 3.44965 -2.90362 0
M  V30 12069 C 1127.25 3.49233 -3.31043 0
M  V30 12070 C 1129.6 3.49947 -3.86247 0
M  V30 12071 C 1126.93 3.56057 -4.66305 0
M  V30 12072 C 1129.28 3.58305 -5.21345 0
M  V30 12073 C 1127.94 3.6084 -5.61561 0
M  V30 12074 H 1127.21 0.666046 -0.324753 0
M  V30 12075 H 1129.86 1.29568 -1.41012 0
M  V30 12076 H 1128.17 3.83301 -0.81163 0
M  V30 12077 H 1129.86 3.82533 -1.20289 0
M  V30 12078 H 1126.45 3.42323 -2.57901 0
M  V30 12079 H 1130.64 3.45895 -3.55908 0
M  V30 12080 H 1125.89 3.56305 -4.96847 0
M  V30 12081 H 1130.07 3.61104 -5.95463 0
M  V30 12082 H 1127.69 3.6588 -6.6636 0
M  V30 12083 N 1129.27 0.921757 1.27833 0
M  V30 12084 C 1130.51 0.559906 1.94918 0
M  V30 12085 C 1130.85 -0.895532 1.72319 0
M  V30 12086 O 1130.12 -1.638 1.04879 0
M  V30 12087 C 1130.41 0.879458 3.49196 0
M  V30 12088 C 1130.26 2.38821 3.81162 0
M  V30 12089 C 1131.58 0.381183 4.38446 0
M  V30 12090 H 1128.7 0.204893 0.707946 0
M  V30 12091 H 1131.34 1.15246 1.51058 0
M  V30 12092 H 1129.49 0.375177 3.86684 0
M  V30 12093 H 1131.16 2.96373 3.53498 0
M  V30 12094 H 1129.4 2.83988 3.27923 0
M  V30 12095 H 1130.07 2.56234 4.88926 0
M  V30 12096 H 1132.55 0.813289 4.08075 0
M  V30 12097 H 1131.43 0.633778 5.45229 0
M  V30 12098 H 1131.69 -0.718651 4.3622 0
M  V30 12099 N 1130.75 -1.41857 0.686609 0
M  V30 12100 C 1131.97 -2.06219 0.221037 0
M  V30 12101 C 1132.4 -1.51298 -1.11762 0
M  V30 12102 O 1131.75 -0.636253 -1.69769 0
M  V30 12103 C 1131.8 -3.60153 0.179425 0
M  V30 12104 O 1130.91 -4.03577 -0.848481 0
M  V30 12105 H 1130.25 -0.654787 0.110228 0
M  V30 12106 H 1132.78 -1.81783 0.938948 0
M  V30 12107 H 1132.79 -4.07999 0.00725332 0
M  V30 12108 H 1131.46 -3.99498 1.15647 0
M  V30 12109 H 1130.04 -3.67255 -0.646393 0
M  V30 12110 N 1132.22 -0.430739 -1.51599 0
M  V30 12111 C 1133.45 0.139197 -2.06932 0
M  V30 12112 C 1133.87 1.3626 -1.29672 0
M  V30 12113 O 1133.23 1.78219 -0.332836 0
M  V30 12114 C 1133.28 0.446593 -3.57824 0
M  V30 12115 O 1132.38 1.53414 -3.82803 0
M  V30 12116 H 1131.73 0.00475812 -0.663983 0
M  V30 12117 H 1134.26 -0.610171 -1.9529 0
M  V30 12118 H 1134.27 0.698972 -4.01968 0
M  V30 12119 H 1132.94 -0.447613 -4.13484 0
M  V30 12120 H 1131.52 1.27224 -3.50526 0
M  V30 12121 N 1133.7 1.56767 -0.161869 0
M  V30 12122 C 1134.65 2.18807 0.789074 0
M  V30 12123 C 1135.64 1.14934 1.24445 0
M  V30 12124 O 1136.85 1.33154 1.2112 0
M  V30 12125 H 1133.23 0.700808 0.272713 0
M  V30 12126 H 1135.2 2.97419 0.241766 0
M  V30 12127 C 1133.95 2.83568 2.01207 0
M  V30 12128 H 1133.27 3.63219 1.67068 0
M  V30 12129 H 1134.71 3.3046 2.65654 0
M  V30 12130 C 1133.17 1.82846 2.82964 0
M  V30 12131 O 1133.7 1.30809 3.79805 0
M  V30 12132 N 1131.9 1.51815 2.47791 0
M  V30 12133 H 1131.45 1.94325 1.69103 0
M  V30 12134 H 1131.41 0.846742 3.02783 0
M  V30 12135 N 1135.18 -0.111886 1.57202 0
M  V30 12136 C 1136.41 -0.832407 1.89416 0
M  V30 12137 C 1136.82 -1.73096 0.753861 0
M  V30 12138 O 1136.18 -1.80416 -0.274992 0
M  V30 12139 C 1136.23 -1.65988 3.21139 0
M  V30 12140 O 1135.95 -0.797485 4.3078 0
M  V30 12141 C 1137.45 -2.48493 3.67105 0
M  V30 12142 H 1134.67 -0.238919 0.627024 0
M  V30 12143 H 1137.22 -0.0941456 2.04283 0
M  V30 12144 H 1135.37 -2.35082 3.07921 0
M  V30 12145 H 1135.79 -1.36892 5.06321 0
M  V30 12146 H 1137.26 -3.02072 4.62014 0
M  V30 12147 H 1137.74 -3.26182 2.94112 0
M  V30 12148 H 1138.34 -1.84628 3.83135 0
M  V30 12149 N 1136.66 -1.52894 -0.382264 0
M  V30 12150 C 1137.94 -1.58853 -1.14127 0
M  V30 12151 C 1138.32 -0.38582 -2.07544 0
M  V30 12152 O 1137.66 0.625323 -2.19777 0
M  V30 12153 C 1137.87 -2.93068 -1.89504 0
M  V30 12154 C 1139.22 -3.47048 -2.44629 0
M  V30 12155 O 1140.25 -2.94987 -1.99652 0
M  V30 12156 O 1139.1 -4.3802 -3.26804 0
M  V30 12157 H 1136.2 -0.640969 -0.522578 0
M  V30 12158 H 1138.74 -1.65231 -0.386873 0
M  V30 12159 H 1137.52 -3.72047 -1.2123 0
M  V30 12160 H 1137.14 -2.90106 -2.7189 0
M  V30 12161 N 1138.14 0.641106 -1.43971 0
M  V30 12162 C 1139.39 1.39676 -1.45511 0
M  V30 12163 C 1139.7 1.95403 -0.0877084 0
M  V30 12164 O 1140.91 2.71493 0.0193965 0
M  V30 12165 C 1139.36 2.52839 -2.56126 0
M  V30 12166 C 1138.97 2.03668 -3.99028 0
M  V30 12167 C 1140.71 3.30118 -2.66875 0
M  V30 12168 C 1138.62 3.14114 -5.01085 0
M  V30 12169 H 1137.55 0.524854 -0.541336 0
M  V30 12170 H 1140.2 0.69075 -1.70003 0
M  V30 12171 H 1138.58 3.25968 -2.24857 0
M  V30 12172 H 1139.76 1.3747 -4.39817 0
M  V30 12173 H 1138.07 1.39233 -3.92432 0
M  V30 12174 H 1140.67 4.12434 -3.40297 0
M  V30 12175 H 1141.01 3.78946 -1.72353 0
M  V30 12176 H 1141.55 2.64075 -2.97505 0
M  V30 12177 H 1138.28 2.70241 -5.97202 0
M  V30 12178 H 1137.8 3.78985 -4.64898 0
M  V30 12179 H 1139.48 3.79051 -5.24337 0
M  V30 12180 N 1139.62 1.30703 0.880598 0
M  V30 12181 C 1140.86 1.19142 1.62752 0
M  V30 12182 C 1141.18 -0.251795 1.93973 0
M  V30 12183 O 1142.38 -0.488971 2.67061 0
M  V30 12184 C 1140.84 2.08503 2.93351 0
M  V30 12185 C 1140.45 3.57758 2.69653 0
M  V30 12186 C 1142.19 2.05715 3.71324 0
M  V30 12187 C 1140.1 4.39161 3.96096 0
M  V30 12188 H 1139.03 0.442332 0.610622 0
M  V30 12189 H 1141.68 1.55483 0.974547 0
M  V30 12190 H 1140.06 1.65049 3.59965 0
M  V30 12191 H 1141.24 4.09388 2.11513 0
M  V30 12192 H 1139.55 3.62414 2.0505 0
M  V30 12193 H 1142.15 2.63783 4.65105 0
M  V30 12194 H 1142.49 1.04168 4.03057 0
M  V30 12195 H 1143.02 2.47313 3.11579 0
M  V30 12196 H 1139.76 5.4142 3.69519 0
M  V30 12197 H 1139.28 3.92293 4.53725 0
M  V30 12198 H 1140.96 4.50823 4.64077 0
M  V30 12199 N 1141.09 -1.09351 1.1349 0
M  V30 12200 C 1142.34 -1.81812 0.898452 0
M  V30 12201 C 1142.67 -1.85525 -0.573959 0
M  V30 12202 O 1141.95 -1.32403 -1.42477 0
M  V30 12203 C 1142.23 -3.27921 1.48794 0
M  V30 12204 C 1142.08 -3.32476 3.02952 0
M  V30 12205 C 1143.4 -4.24625 1.15678 0
M  V30 12206 H 1140.52 -0.660074 0.327829 0
M  V30 12207 H 1143.16 -1.28091 1.40331 0
M  V30 12208 H 1141.31 -3.738 1.05858 0
M  V30 12209 H 1142.99 -2.94994 3.54649 0
M  V30 12210 H 1141.23 -2.72037 3.37903 0
M  V30 12211 H 1141.9 -4.35409 3.39298 0
M  V30 12212 H 1144.38 -3.87036 1.52781 0
M  V30 12213 H 1143.25 -5.25194 1.59571 0
M  V30 12214 H 1143.51 -4.42044 0.0705933 0
M  V30 12215 N 1142.57 -0.928524 -1.27343 0
M  V30 12216 C 1143.82 -0.568267 -1.93946 0
M  V30 12217 C 1144.14 0.893501 -1.73325 0
M  V30 12218 O 1143.41 1.63344 -1.08147 0
M  V30 12219 H 1141.99 -0.207173 -0.717696 0
M  V30 12220 H 1144.65 -1.1811 -1.55036 0
M  V30 12221 H 1143.75 -0.775246 -3.02318 0
M  V30 12222 N 1144.05 1.41491 -0.694123 0
M  V30 12223 C 1145.27 2.06099 -0.23197 0
M  V30 12224 C 1145.7 1.51888 1.10958 0
M  V30 12225 O 1145.06 0.645247 1.69429 0
M  V30 12226 C 1145.11 3.60053 -0.198522 0
M  V30 12227 O 1144.21 4.04021 0.827067 0
M  V30 12228 H 1143.55 0.654193 -0.113699 0
M  V30 12229 H 1146.08 1.81282 -0.948575 0
M  V30 12230 H 1146.09 4.0799 -0.0288904 0
M  V30 12231 H 1144.77 3.98879 -1.17764 0
M  V30 12232 H 1143.34 3.67593 0.626908 0
M  V30 12233 N 1145.53 0.438773 1.51369 0
M  V30 12234 C 1146.48 -0.386324 2.29369 0
M  V30 12235 C 1147.47 -1.0196 1.3528 0
M  V30 12236 O 1148.68 -0.9544 1.52615 0
M  V30 12237 H 1145.05 -0.143397 0.738201 0
M  V30 12238 H 1147.02 0.292372 2.96964 0
M  V30 12239 C 1145.77 -1.47426 3.14898 0
M  V30 12240 H 1145.09 -0.996335 3.87186 0
M  V30 12241 H 1146.53 -2.02481 3.72529 0
M  V30 12242 C 1144.99 -2.45831 2.30366 0
M  V30 12243 O 1145.52 -3.50398 1.96428 0
M  V30 12244 N 1143.73 -2.16754 1.93561 0
M  V30 12245 H 1143.28 -1.31748 2.2136 0
M  V30 12246 H 1143.23 -2.82836 1.373 0
M  V30 12247 N 1147.01 -1.56678 0.170181 0
M  V30 12248 C 1148.24 -2.00931 -0.480664 0
M  V30 12249 C 1148.64 -1.04947 -1.57425 0
M  V30 12250 O 1147.99 -0.042229 -1.83651 0
M  V30 12251 C 1148.05 -3.4161 -1.11996 0
M  V30 12252 C 1147.71 -4.5669 -0.168167 0
M  V30 12253 C 1148.71 -5.16273 0.613059 0
M  V30 12254 C 1146.39 -5.02259 -0.0643243 0
M  V30 12255 C 1148.39 -6.19852 1.48534 0
M  V30 12256 C 1146.08 -6.05687 0.811542 0
M  V30 12257 C 1147.07 -6.64355 1.58496 0
M  V30 12258 O 1146.76 -7.65778 2.44619 0
M  V30 12259 H 1146.49 -0.66386 -0.12754 0
M  V30 12260 H 1149.05 -2.03635 0.2687 0
M  V30 12261 H 1147.28 -3.35815 -1.91743 0
M  V30 12262 H 1148.97 -3.69823 -1.67289 0
M  V30 12263 H 1149.73 -4.81951 0.542999 0
M  V30 12264 H 1145.61 -4.56307 -0.656102 0
M  V30 12265 H 1149.16 -6.65572 2.08948 0
M  V30 12266 H 1145.05 -6.39435 0.88281 0
M  V30 12267 H 1145.82 -7.83096 2.38122 0
M  V30 12268 N 1148.48 0.103547 -1.57259 0
M  V30 12269 C 1149.71 0.82624 -1.90232 0
M  V30 12270 C 1150.13 1.71902 -0.763641 0
M  V30 12271 O 1149.49 1.79043 0.285181 0
M  V30 12272 C 1149.54 1.62265 -3.22029 0
M  V30 12273 O 1148.64 2.73091 -3.09023 0
M  V30 12274 H 1147.98 0.227528 -0.6238 0
M  V30 12275 H 1150.51 0.081307 -2.04438 0
M  V30 12276 H 1150.52 2.00865 -3.5513 0
M  V30 12277 H 1149.2 0.967383 -4.04493 0
M  V30 12278 H 1147.78 2.3758 -2.8742 0
M  V30 12279 N 1149.96 1.53094 0.37415 0
M  V30 12280 C 1151.19 1.73061 1.143 0
M  V30 12281 C 1151.61 0.454611 1.82524 0
M  V30 12282 O 1150.97 -0.590743 1.71406 0
M  V30 12283 C 1151.02 2.89086 2.15549 0
M  V30 12284 O 1150.12 2.57096 3.22452 0
M  V30 12285 H 1149.46 0.575009 0.332055 0
M  V30 12286 H 1151.99 1.99946 0.433897 0
M  V30 12287 H 1152 3.15007 2.59296 0
M  V30 12288 H 1150.68 3.81647 1.65283 0
M  V30 12289 H 1149.25 2.41965 2.83738 0
M  V30 12290 N 1151.44 -0.633461 1.44309 0
M  V30 12291 C 1152.85 -1.21504 1.41752 0
M  V30 12292 C 1153.2 -1.95758 0.131667 0
M  V30 12293 O 1152.33 -2.02311 -0.768072 0
M  V30 12294 C 1152.92 -2.21005 2.56792 0
M  V30 12295 C 1151.48 -2.74596 2.57438 0
M  V30 12296 C 1150.63 -1.49555 2.33513 0
M  V30 12297 H 1153.58 -0.424277 1.52923 0
M  V30 12298 H 1153.6 -3.03563 2.29412 0
M  V30 12299 H 1153.11 -1.66934 3.50364 0
M  V30 12300 H 1151.21 -3.32676 1.67801 0
M  V30 12301 H 1151.33 -3.20794 3.55849 0
M  V30 12302 H 1149.69 -1.77605 1.82561 0
M  V30 12303 H 1150.47 -0.973899 3.29196 0
M  V30 12304 N 1152.92 -1.31168 -0.873655 0
M  V30 12305 C 1154.14 -1.23728 -1.66452 0
M  V30 12306 C 1154.57 0.194869 -1.87088 0
M  V30 12307 O 1153.93 1.1397 -1.40998 0
M  V30 12308 C 1153.97 -1.98285 -3.0119 0
M  V30 12309 O 1153.08 -1.31767 -3.90783 0
M  V30 12310 H 1152.42 -0.427362 -0.508191 0
M  V30 12311 H 1154.95 -1.73176 -1.08955 0
M  V30 12312 H 1154.96 -2.0774 -3.51153 0
M  V30 12313 H 1153.63 -3.02437 -2.8549 0
M  V30 12314 H 1152.21 -1.3074 -3.4923 0
M  V30 12315 N 1154.4 1.08748 -1.14068 0
M  V30 12316 C 1155.34 2.17667 -0.819981 0
M  V30 12317 C 1156.34 1.68207 0.200654 0
M  V30 12318 O 1157.54 1.79909 0.0571014 0
M  V30 12319 H 1153.92 0.710129 -0.247427 0
M  V30 12320 H 1155.89 2.41944 -1.74659 0
M  V30 12321 C 1154.64 3.46315 -0.309985 0
M  V30 12322 H 1153.96 3.84748 -1.08669 0
M  V30 12323 H 1155.4 4.23818 -0.124094 0
M  V30 12324 C 1153.86 3.22762 0.965724 0
M  V30 12325 O 1154.39 3.46034 2.04018 0
M  V30 12326 N 1152.6 2.76326 0.899576 0
M  V30 12327 H 1152.14 2.57588 0.0250598 0
M  V30 12328 H 1152.1 2.60945 1.75371 0
M  V30 12329 N 1155.87 0.935264 1.26849 0
M  V30 12330 C 1157.12 0.575467 1.93317 0
M  V30 12331 C 1157.44 -0.88876 1.74242 0
M  V30 12332 O 1158.64 -1.35767 2.35116 0
M  V30 12333 C 1157.1 0.978433 3.46345 0
M  V30 12334 C 1156.71 2.46386 3.74163 0
M  V30 12335 C 1158.45 0.690249 4.18851 0
M  V30 12336 C 1156.36 2.80584 5.20602 0
M  V30 12337 H 1155.29 0.211506 0.723727 0
M  V30 12338 H 1157.94 1.1371 1.44022 0
M  V30 12339 H 1156.32 0.345379 3.94491 0
M  V30 12340 H 1157.49 3.14547 3.36745 0
M  V30 12341 H 1155.81 2.72473 3.14877 0
M  V30 12342 H 1158.41 0.922151 5.26688 0
M  V30 12343 H 1158.75 -0.372805 4.14627 0
M  V30 12344 H 1159.28 1.28275 3.76551 0
M  V30 12345 H 1156.02 3.85828 5.29921 0
M  V30 12346 H 1155.54 2.1708 5.59139 0
M  V30 12347 H 1157.22 2.68732 5.88551 0
M  V30 12348 N 1157.35 -1.41121 0.701616 0
M  V30 12349 C 1158.58 -2.05973 0.242896 0
M  V30 12350 C 1159 -1.52474 -1.10151 0
M  V30 12351 O 1158.36 -0.654224 -1.69085 0
M  V30 12352 C 1158.41 -3.59943 0.217614 0
M  V30 12353 O 1157.51 -4.04454 -0.805629 0
M  V30 12354 H 1156.85 -0.653581 0.117166 0
M  V30 12355 H 1159.38 -1.80777 0.958175 0
M  V30 12356 H 1159.39 -4.07969 0.0505267 0
M  V30 12357 H 1158.07 -3.98249 1.19877 0
M  V30 12358 H 1156.65 -3.6792 -0.607404 0
M  V30 12359 N 1158.83 -0.446794 -1.51134 0
M  V30 12360 C 1159.78 0.359865 -2.27977 0
M  V30 12361 C 1160.75 1.0086 -1.31972 0
M  V30 12362 O 1161.93 1.02569 -1.60886 0
M  V30 12363 C 1159.07 1.44978 -3.1317 0
M  V30 12364 C 1158.19 0.818243 -4.2418 0
M  V30 12365 C 1157.32 1.884 -4.96668 0
M  V30 12366 C 1156.36 1.2314 -5.99586 0
M  V30 12367 N 1155.5 2.23894 -6.65444 0
M  V30 12368 H 1160.34 -0.301775 -2.96468 0
M  V30 12369 H 1157.87 -0.160666 -1.4622 0
M  V30 12370 H 1159.83 2.09308 -3.60896 0
M  V30 12371 H 1158.46 2.08092 -2.46775 0
M  V30 12372 H 1157.51 0.0629889 -3.80348 0
M  V30 12373 H 1158.83 0.301885 -4.97886 0
M  V30 12374 H 1157.98 2.6037 -5.4799 0
M  V30 12375 H 1156.72 2.43411 -4.22614 0
M  V30 12376 H 1155.72 0.497215 -5.47547 0
M  V30 12377 H 1156.95 0.688505 -6.75601 0
M  V30 12378 H 1154.89 2.77967 -5.94197 0
M  V30 12379 H 1154.81 1.77176 -7.34945 0
M  V30 12380 H 1156.08 2.95318 -7.21393 0
M  V30 12381 N 1160.31 1.56586 -0.178487 0
M  V30 12382 C 1161.56 1.97098 0.464617 0
M  V30 12383 C 1161.88 1.06476 1.62767 0
M  V30 12384 O 1161.14 0.100337 1.95443 0
M  V30 12385 C 1161.44 3.43629 0.982552 0
M  V30 12386 C 1161.1 4.50853 -0.0653645 0
M  V30 12387 C 1159.77 4.79901 -0.353349 0
M  V30 12388 C 1162.12 5.15387 -0.776279 0
M  V30 12389 C 1159.45 5.70779 -1.35751 0
M  V30 12390 C 1161.8 6.07349 -1.76948 0
M  V30 12391 C 1160.46 6.34761 -2.06483 0
M  V30 12392 H 1159.73 0.721232 0.170016 0
M  V30 12393 H 1162.38 1.89559 -0.271959 0
M  V30 12394 H 1160.68 3.48155 1.79709 0
M  V30 12395 H 1162.38 3.7232 1.48926 0
M  V30 12396 H 1158.97 4.28266 0.169266 0
M  V30 12397 H 1163.15 4.9305 -0.567008 0
M  V30 12398 H 1158.41 5.90298 -1.59244 0
M  V30 12399 H 1162.58 6.56419 -2.32567 0
M  V30 12400 H 1160.21 7.0498 -2.84441 0
M  V30 12401 N 1161.79 -0.095206 1.57312 0
M  V30 12402 C 1163.01 -0.81227 1.90289 0
M  V30 12403 C 1163.43 -1.72287 0.772178 0
M  V30 12404 O 1162.79 -1.80698 -0.255841 0
M  V30 12405 C 1162.84 -1.62572 3.22882 0
M  V30 12406 O 1162.56 -0.75175 4.31602 0
M  V30 12407 C 1164.06 -2.44585 3.6972 0
M  V30 12408 H 1161.28 -0.232256 0.629522 0
M  V30 12409 H 1163.82 -0.0724733 2.04372 0
M  V30 12410 H 1161.98 -2.31803 3.10397 0
M  V30 12411 H 1162.39 -1.31514 5.07744 0
M  V30 12412 H 1163.87 -2.97155 4.65191 0
M  V30 12413 H 1164.34 -3.23044 2.97555 0
M  V30 12414 H 1164.95 -1.80554 3.85072 0
M  V30 12415 N 1163.26 -1.53291 -0.366026 0
M  V30 12416 C 1164.51 -1.69702 -1.11036 0
M  V30 12417 C 1164.84 -0.44728 -1.88979 0
M  V30 12418 O 1164.12 0.55542 -1.86401 0
M  V30 12419 C 1164.4 -2.94661 -2.06995 0
M  V30 12420 C 1164.25 -4.29791 -1.32663 0
M  V30 12421 C 1165.57 -3.15219 -3.07123 0
M  V30 12422 H 1162.69 -0.617525 -0.402284 0
M  V30 12423 H 1165.33 -1.85929 -0.391223 0
M  V30 12424 H 1163.48 -2.80958 -2.68318 0
M  V30 12425 H 1165.16 -4.55305 -0.741266 0
M  V30 12426 H 1163.4 -4.29223 -0.628484 0
M  V30 12427 H 1164.07 -5.13359 -2.02896 0
M  V30 12428 H 1166.55 -3.28105 -2.55903 0
M  V30 12429 H 1165.42 -4.04088 -3.71489 0
M  V30 12430 H 1165.68 -2.30479 -3.77269 0
M  V30 12431 N 1164.74 0.6258 -1.44643 0
M  V30 12432 C 1165.69 1.75869 -1.52226 0
M  V30 12433 C 1166.68 1.64765 -0.39355 0
M  V30 12434 O 1167.89 1.70779 -0.568718 0
M  V30 12435 H 1164.27 0.580712 -0.477784 0
M  V30 12436 H 1166.24 1.66596 -2.47565 0
M  V30 12437 C 1164.99 3.14217 -1.48873 0
M  V30 12438 H 1164.31 3.23411 -2.35043 0
M  V30 12439 H 1165.75 3.93365 -1.58239 0
M  V30 12440 C 1164.21 3.36243 -0.210299 0
M  V30 12441 O 1164.74 3.95243 0.717335 0
M  V30 12442 N 1162.94 2.90385 -0.111744 0
M  V30 12443 H 1162.49 2.42555 -0.867466 0
M  V30 12444 H 1162.45 3.05498 0.742871 0
M  V30 12445 N 1166.22 1.31629 0.866686 0
M  V30 12446 C 1167.17 1.19492 1.99561 0
M  V30 12447 C 1168.16 0.102456 1.6909 0
M  V30 12448 O 1169.37 0.264571 1.78045 0
M  V30 12449 H 1165.74 0.370071 0.654638 0
M  V30 12450 H 1167.71 2.14996 2.06928 0
M  V30 12451 C 1166.46 0.92246 3.3524 0
M  V30 12452 H 1165.79 1.75524 3.59209 0
M  V30 12453 H 1167.23 0.877726 4.14816 0
M  V30 12454 C 1165.69 -0.374803 3.34809 0
M  V30 12455 O 1166.22 -1.39055 3.76864 0
M  V30 12456 N 1164.42 -0.392506 2.87937 0
M  V30 12457 H 1163.97 0.434591 2.53908 0
M  V30 12458 H 1163.93 -1.26038 2.88031 0
M  V30 12459 N 1167.7 -1.08142 1.14644 0
M  V30 12460 C 1168.63 -2.17139 0.858667 0
M  V30 12461 C 1169.61 -1.69064 -0.187452 0
M  V30 12462 O 1170.8 -1.94151 -0.0435458 0
M  V30 12463 C 1167.93 -3.45648 0.33834 0
M  V30 12464 C 1166.88 -4.07129 1.32021 0
M  V30 12465 C 1166.21 -5.30623 0.659075 0
M  V30 12466 C 1167.51 -4.48095 2.68343 0
M  V30 12467 H 1169.2 -2.41468 1.77012 0
M  V30 12468 H 1166.75 -1.16052 0.852523 0
M  V30 12469 H 1168.7 -4.21216 0.124611 0
M  V30 12470 H 1167.42 -3.2088 -0.608553 0
M  V30 12471 H 1166.08 -3.33596 1.52016 0
M  V30 12472 H 1165.73 -5.02142 -0.293711 0
M  V30 12473 H 1165.43 -5.72714 1.31427 0
M  V30 12474 H 1166.95 -6.08903 0.454933 0
M  V30 12475 H 1168.37 -5.14828 2.5224 0
M  V30 12476 H 1166.76 -5.01113 3.30161 0
M  V30 12477 H 1167.83 -3.59852 3.25015 0
M  V30 12478 N 1169.18 -0.941978 -1.26351 0
M  V30 12479 C 1170.14 -0.456768 -2.24602 0
M  V30 12480 C 1171.14 0.432574 -1.54872 0
M  V30 12481 O 1172.33 0.23164 -1.72653 0
M  V30 12482 C 1169.46 0.341583 -3.39184 0
M  V30 12483 H 1170.66 -1.32503 -2.69041 0
M  V30 12484 H 1168.21 -0.724021 -1.38519 0
M  V30 12485 H 1168.94 1.22806 -3.00149 0
M  V30 12486 H 1168.73 -0.296268 -3.90979 0
M  V30 12487 H 1170.22 0.670955 -4.12175 0
M  V30 12488 N 1170.66 1.40747 -0.709091 0
M  V30 12489 C 1171.57 2.3454 -0.0532205 0
M  V30 12490 C 1172.58 1.56956 0.751057 0
M  V30 12491 O 1173.76 1.89375 0.685509 0
M  V30 12492 C 1170.82 3.35809 0.862157 0
M  V30 12493 C 1169.88 4.29273 0.0485632 0
M  V30 12494 C 1169.12 5.25705 0.920345 0
M  V30 12495 O 1169.34 5.27933 2.15969 0
M  V30 12496 O 1168.27 6.00806 0.3628 0
M  V30 12497 H 1172.1 2.92232 -0.826698 0
M  V30 12498 H 1169.68 1.4183 -0.469519 0
M  V30 12499 H 1171.57 3.97931 1.38668 0
M  V30 12500 H 1170.24 2.8054 1.61489 0
M  V30 12501 H 1169.15 3.70456 -0.520873 0
M  V30 12502 H 1170.48 4.87676 -0.665807 0
M  V30 12503 N 1172.13 0.454803 1.50895 0
M  V30 12504 C 1173.54 -0.00421212 1.867 0
M  V30 12505 C 1173.9 -1.4037 1.3708 0
M  V30 12506 O 1173.02 -2.03755 0.728884 0
M  V30 12507 C 1173.62 -0.0144196 3.38797 0
M  V30 12508 C 1172.17 -0.417905 3.74073 0
M  V30 12509 C 1171.32 0.37801 2.74711 0
M  V30 12510 H 1174.27 0.669849 1.4387 0
M  V30 12511 H 1174.29 -0.820172 3.71555 0
M  V30 12512 H 1173.81 1.00427 3.74881 0
M  V30 12513 H 1171.91 -1.44155 3.43584 0
M  V30 12514 H 1172.02 -0.130568 4.78922 0
M  V30 12515 H 1170.38 -0.166089 2.54158 0
M  V30 12516 H 1171.17 1.3959 3.13639 0
M  V30 12517 N 1173.61 -1.56489 0.186789 0
M  V30 12518 C 1174.54 -2.15911 -0.769104 0
M  V30 12519 C 1175.56 -1.11872 -1.18273 0
M  V30 12520 O 1176.75 -1.38999 -1.1199 0
M  V30 12521 C 1173.85 -2.69957 -2.04882 0
M  V30 12522 C 1173.02 -3.98812 -1.79631 0
M  V30 12523 C 1172.08 -4.37767 -2.9197 0
M  V30 12524 O 1171.1 -5.0535 -2.61935 0
M  V30 12525 N 1172.31 -4.0059 -4.20128 0
M  V30 12526 H 1175.07 -2.98561 -0.261007 0
M  V30 12527 H 1172.63 -1.61899 0.00453357 0
M  V30 12528 H 1174.62 -2.93006 -2.79158 0
M  V30 12529 H 1173.19 -1.91808 -2.46837 0
M  V30 12530 H 1172.41 -3.8398 -0.891776 0
M  V30 12531 H 1173.7 -4.82939 -1.60148 0
M  V30 12532 H 1173.1 -3.46213 -4.47385 0
M  V30 12533 H 1171.66 -4.28608 -4.91059 0
M  V30 12534 N 1175.09 0.086862 -1.5736 0
M  V30 12535 C 1176.04 1.10478 -2.02641 0
M  V30 12536 C 1177.01 1.39331 -0.904219 0
M  V30 12537 O 1178.19 1.50654 -1.17081 0
M  V30 12538 C 1175.33 2.41754 -2.4627 0
M  V30 12539 C 1174.44 2.19561 -3.72044 0
M  V30 12540 C 1173.58 3.44294 -4.04519 0
M  V30 12541 C 1172.62 3.17399 -5.23378 0
M  V30 12542 N 1171.76 4.3442 -5.51564 0
M  V30 12543 H 1176.6 0.711663 -2.89378 0
M  V30 12544 H 1174.13 0.339856 -1.4312 0
M  V30 12545 H 1176.09 3.18378 -2.69613 0
M  V30 12546 H 1174.72 2.78896 -1.62532 0
M  V30 12547 H 1173.77 1.337 -3.5613 0
M  V30 12548 H 1175.08 1.95685 -4.58812 0
M  V30 12549 H 1174.24 4.29321 -4.28682 0
M  V30 12550 H 1172.98 3.71232 -3.16289 0
M  V30 12551 H 1171.98 2.30765 -4.99026 0
M  V30 12552 H 1173.21 2.91799 -6.13213 0
M  V30 12553 H 1171.15 4.61418 -4.66293 0
M  V30 12554 H 1171.07 4.13764 -6.3272 0
M  V30 12555 H 1172.34 5.20489 -5.80269 0
M  V30 12556 N 1176.57 1.53483 0.357892 0
M  V30 12557 C 1177.53 1.79782 1.42166 0
M  V30 12558 C 1178.53 0.668441 1.46248 0
M  V30 12559 O 1179.72 0.936677 1.46874 0
M  V30 12560 C 1176.85 1.92686 2.8122 0
M  V30 12561 H 1178.05 2.74794 1.20117 0
M  V30 12562 H 1175.6 1.44677 0.591468 0
M  V30 12563 H 1176.33 0.997669 3.08573 0
M  V30 12564 H 1176.12 2.74837 2.79655 0
M  V30 12565 H 1177.61 2.14599 3.58242 0
M  V30 12566 N 1178.05 -0.61812 1.44973 0
M  V30 12567 C 1179.46 -1.19994 1.43033 0
M  V30 12568 C 1179.81 -1.95607 0.152422 0
M  V30 12569 O 1178.93 -2.03114 -0.746571 0
M  V30 12570 C 1179.53 -2.18269 2.59122 0
M  V30 12571 C 1178.09 -2.7185 2.60336 0
M  V30 12572 C 1177.23 -1.4707 2.35086 0
M  V30 12573 H 1180.18 -0.408034 1.53365 0
M  V30 12574 H 1180.21 -3.01113 2.32619 0
M  V30 12575 H 1179.72 -1.63208 3.52115 0
M  V30 12576 H 1177.82 -3.30878 1.7132 0
M  V30 12577 H 1177.93 -3.17001 3.59231 0
M  V30 12578 H 1176.3 -1.75658 1.84435 0
M  V30 12579 H 1177.08 -0.938928 3.30211 0
M  V30 12580 N 1179.52 -1.32087 -0.859693 0
M  V30 12581 C 1180.75 -1.25486 -1.6513 0
M  V30 12582 C 1181.17 0.175015 -1.87284 0
M  V30 12583 O 1180.53 1.12468 -1.42199 0
M  V30 12584 C 1180.58 -2.01469 -2.9907 0
M  V30 12585 O 1179.68 -1.35904 -3.89363 0
M  V30 12586 H 1179.02 -0.432728 -0.503629 0
M  V30 12587 H 1181.55 -1.74322 -1.07112 0
M  V30 12588 H 1181.56 -2.11452 -3.4893 0
M  V30 12589 H 1180.24 -3.05448 -2.82266 0
M  V30 12590 H 1178.82 -1.34437 -3.47823 0
M  V30 12591 N 1181 1.07532 -1.15215 0
M  V30 12592 C 1181.95 2.12909 -0.815714 0
M  V30 12593 C 1182.94 1.59662 0.1992 0
M  V30 12594 O 1184.13 1.77 0.000215597 0
M  V30 12595 C 1181.26 3.41945 -0.304717 0
M  V30 12596 C 1180.34 4.0205 -1.34968 0
M  V30 12597 N 1180.73 4.36439 -2.55646 0
M  V30 12598 C 1179.03 4.29498 -1.20199 0
M  V30 12599 C 1179.73 4.84044 -3.22609 0
M  V30 12600 N 1178.71 4.82702 -2.5 0
M  V30 12601 H 1182.51 2.37327 -1.73358 0
M  V30 12602 H 1180.02 1.24952 -1.03734 0
M  V30 12603 H 1182.02 4.16875 -0.0453503 0
M  V30 12604 H 1180.68 3.18971 0.607235 0
M  V30 12605 H 1181.69 4.27184 -2.92804 0
M  V30 12606 H 1178.37 4.16032 -0.349781 0
M  V30 12607 H 1179.76 5.19959 -4.2555 0
M  V30 12608 N 1182.48 0.948665 1.2585 0
M  V30 12609 C 1183.41 0.421458 2.25292 0
M  V30 12610 C 1184.43 -0.459389 1.56184 0
M  V30 12611 O 1185.61 -0.268627 1.76467 0
M  V30 12612 C 1182.71 -0.412653 3.36378 0
M  V30 12613 C 1181.89 0.453792 4.3504 0
M  V30 12614 C 1180.95 -0.321127 5.25219 0
M  V30 12615 O 1179.97 0.278424 5.68519 0
M  V30 12616 N 1181.17 -1.61576 5.5756 0
M  V30 12617 H 1183.94 1.27636 2.71162 0
M  V30 12618 H 1181.5 0.818367 1.39694 0
M  V30 12619 H 1183.49 -0.938637 3.93664 0
M  V30 12620 H 1182.06 -1.16839 2.89944 0
M  V30 12621 H 1181.28 1.16093 3.76718 0
M  V30 12622 H 1182.57 1.04538 4.97945 0
M  V30 12623 H 1181.97 -2.12488 5.24276 0
M  V30 12624 H 1180.53 -2.08783 6.17457 0
M  V30 12625 N 1183.96 -1.40369 0.716545 0
M  V30 12626 C 1184.89 -2.29186 0.0251905 0
M  V30 12627 C 1185.9 -1.45877 -0.722761 0
M  V30 12628 O 1187.09 -1.69155 -0.569982 0
M  V30 12629 C 1184.19 -3.24161 -0.988589 0
M  V30 12630 C 1183.37 -4.36329 -0.30597 0
M  V30 12631 C 1182.42 -5.11736 -1.22527 0
M  V30 12632 O 1181.45 -5.64758 -0.7097 0
M  V30 12633 N 1182.65 -5.21183 -2.55634 0
M  V30 12634 H 1185.42 -2.8916 0.787808 0
M  V30 12635 H 1182.98 -1.51749 0.564253 0
M  V30 12636 H 1184.97 -3.71479 -1.60578 0
M  V30 12637 H 1183.54 -2.65347 -1.65256 0
M  V30 12638 H 1182.76 -3.91125 0.491432 0
M  V30 12639 H 1184.05 -5.08523 0.167827 0
M  V30 12640 H 1183.45 -4.7959 -3.00017 0
M  V30 12641 H 1182 -5.72005 -3.12495 0
M  V30 12642 N 1185.44 -0.462799 -1.50652 0
M  V30 12643 C 1186.4 0.324264 -2.26895 0
M  V30 12644 C 1187.4 0.927687 -1.31342 0
M  V30 12645 O 1188.59 0.798159 -1.54839 0
M  V30 12646 C 1185.72 1.46113 -3.08 0
M  V30 12647 H 1186.91 -0.344266 -2.97917 0
M  V30 12648 H 1184.47 -0.216631 -1.54791 0
M  V30 12649 H 1185.2 2.16496 -2.41454 0
M  V30 12650 H 1184.99 1.03433 -3.78212 0
M  V30 12651 H 1186.48 2.01655 -3.65684 0
M  V30 12652 N 1186.91 1.56388 -0.195085 0
M  V30 12653 C 1188.14 2.01963 0.449289 0
M  V30 12654 C 1188.56 1.07522 1.55192 0
M  V30 12655 O 1187.91 0.0800915 1.82324 0
M  V30 12656 C 1187.97 3.47231 1.00561 0
M  V30 12657 O 1187.69 4.38068 -0.0530241 0
M  V30 12658 C 1189.19 4.08324 1.72587 0
M  V30 12659 H 1186.41 0.661452 0.112792 0
M  V30 12660 H 1188.95 2.02231 -0.303788 0
M  V30 12661 H 1187.11 3.47663 1.70907 0
M  V30 12662 H 1187.52 5.23256 0.361076 0
M  V30 12663 H 1188.99 5.11821 2.06744 0
M  V30 12664 H 1189.47 3.51782 2.62956 0
M  V30 12665 H 1190.08 4.11665 1.06826 0
M  V30 12666 N 1188.39 -0.0785156 1.57404 0
M  V30 12667 C 1189.62 -0.792042 1.9114 0
M  V30 12668 C 1190.04 -1.71458 0.790408 0
M  V30 12669 O 1189.39 -1.80959 -0.236662 0
M  V30 12670 C 1189.44 -1.59138 3.24588 0
M  V30 12671 O 1189.16 -0.705931 4.32375 0
M  V30 12672 C 1190.67 -2.4065 3.72293 0
M  V30 12673 H 1187.89 -0.225566 0.63195 0
M  V30 12674 H 1190.43 -0.0507929 2.04437 0
M  V30 12675 H 1188.58 -2.28498 3.12838 0
M  V30 12676 H 1189 -1.26121 5.09111 0
M  V30 12677 H 1190.47 -2.92204 4.68317 0
M  V30 12678 H 1190.95 -3.1987 3.00965 0
M  V30 12679 H 1191.56 -1.7646 3.86965 0
M  V30 12680 N 1189.87 -1.5367 -0.349747 0
M  V30 12681 C 1190.83 -1.80533 -1.41211 0
M  V30 12682 C 1191.83 -0.676188 -1.45892 0
M  V30 12683 O 1193.02 -0.944453 -1.46375 0
M  V30 12684 C 1190.16 -1.94175 -2.80195 0
M  V30 12685 H 1191.35 -2.75428 -1.18658 0
M  V30 12686 H 1188.9 -1.44988 -0.583787 0
M  V30 12687 H 1189.64 -1.01402 -3.08039 0
M  V30 12688 H 1189.42 -2.76316 -2.78194 0
M  V30 12689 H 1190.91 -2.16496 -3.57098 0
M  V30 12690 N 1191.35 0.610423 -1.45298 0
M  V30 12691 C 1192.6 1.3668 -1.48872 0
M  V30 12692 C 1192.92 1.94562 -0.130686 0
M  V30 12693 O 1192.19 1.76996 0.839607 0
M  V30 12694 H 1190.77 0.507393 -0.548235 0
M  V30 12695 H 1193.43 0.716997 -1.81232 0
M  V30 12696 H 1192.53 2.18766 -2.22593 0
M  V30 12697 N 1192.83 1.32541 0.852676 0
M  V30 12698 C 1194.05 1.2636 1.64462 0
M  V30 12699 C 1194.48 -0.16508 1.87374 0
M  V30 12700 O 1193.83 -1.11712 1.42794 0
M  V30 12701 C 1193.88 2.03052 2.97997 0
M  V30 12702 O 1192.99 1.37967 3.88637 0
M  V30 12703 H 1192.33 0.435393 0.501327 0
M  V30 12704 H 1194.86 1.74888 1.06186 0
M  V30 12705 H 1194.87 2.133 3.47803 0
M  V30 12706 H 1193.54 3.06941 2.80642 0
M  V30 12707 H 1192.12 1.36279 3.47106 0
M  V30 12708 N 1194.3 -1.0692 1.15784 0
M  V30 12709 C 1195.72 -1.61069 0.944123 0
M  V30 12710 C 1196.07 -1.8936 -0.513522 0
M  V30 12711 O 1195.19 -1.66232 -1.38549 0
M  V30 12712 C 1195.79 -2.9263 1.70743 0
M  V30 12713 C 1194.35 -3.43505 1.53887 0
M  V30 12714 C 1193.49 -2.17495 1.72021 0
M  V30 12715 H 1196.44 -0.89951 1.30746 0
M  V30 12716 H 1196.46 -3.61757 1.17951 0
M  V30 12717 H 1195.98 -2.72007 2.76828 0
M  V30 12718 H 1194.08 -3.69201 0.502153 0
M  V30 12719 H 1194.19 -4.19254 2.31868 0
M  V30 12720 H 1192.55 -2.27407 1.1471 0
M  V30 12721 H 1193.34 -1.99362 2.79481 0
M  V30 12722 N 1195.78 -0.955326 -1.25345 0
M  V30 12723 C 1196.71 -0.494145 -2.28211 0
M  V30 12724 C 1197.69 0.459875 -1.63766 0
M  V30 12725 O 1198.88 0.358679 -1.90859 0
M  V30 12726 C 1196.01 0.228228 -3.46549 0
M  V30 12727 C 1194.96 -0.640601 -4.23179 0
M  V30 12728 C 1194.29 0.212553 -5.34277 0
M  V30 12729 C 1195.59 -1.91906 -4.85767 0
M  V30 12730 H 1197.28 -1.35391 -2.67039 0
M  V30 12731 H 1194.83 -0.652462 -1.2837 0
M  V30 12732 H 1196.78 0.561995 -4.17636 0
M  V30 12733 H 1195.51 1.12224 -3.06714 0
M  V30 12734 H 1194.16 -0.957462 -3.53876 0
M  V30 12735 H 1193.81 1.10634 -4.90682 0
M  V30 12736 H 1193.51 -0.365473 -5.86462 0
M  V30 12737 H 1195.04 0.541271 -6.08196 0
M  V30 12738 H 1196.45 -1.65165 -5.48993 0
M  V30 12739 H 1194.85 -2.44279 -5.48131 0
M  V30 12740 H 1195.92 -2.62173 -4.07914 0
M  V30 12741 N 1197.26 1.39987 -0.723979 0
M  V30 12742 C 1198.68 1.54547 -0.398403 0
M  V30 12743 C 1198.88 1.69348 1.09194 0
M  V30 12744 O 1197.93 1.68778 1.87804 0
M  V30 12745 C 1199.25 2.76929 -1.1718 0
M  V30 12746 C 1200.79 2.90754 -1.15893 0
M  V30 12747 C 1201.27 4.16059 -1.91465 0
M  V30 12748 N 1202.76 4.23076 -1.88576 0
M  V30 12749 C 1203.5 5.18957 -2.43867 0
M  V30 12750 N 1202.99 6.20695 -3.0775 0
M  V30 12751 N 1204.78 5.11095 -2.33962 0
M  V30 12752 H 1196.94 1.28626 -1.69024 0
M  V30 12753 H 1199.2 0.6226 -0.714894 0
M  V30 12754 H 1198.9 2.72298 -2.22591 0
M  V30 12755 H 1198.78 3.69279 -0.768941 0
M  V30 12756 H 1201.17 2.94884 -0.112978 0
M  V30 12757 H 1201.25 1.99498 -1.60107 0
M  V30 12758 H 1200.89 4.12691 -2.96055 0
M  V30 12759 H 1200.82 5.06339 -1.44665 0
M  V30 12760 H 1203.31 3.50195 -1.42027 0
M  V30 12761 H 1203.62 6.90296 -3.47435 0
M  V30 12762 H 1201.97 6.21114 -3.11837 0
M  V30 12763 H 1205.16 4.30546 -1.83706 0
M  V30 12764 H 1205.33 5.85644 -2.77353 0
M  V30 12765 N 1198.74 0.470782 1.50404 0
M  V30 12766 C 1199.69 -0.342183 2.25418 0
M  V30 12767 C 1200.67 -0.961726 1.28995 0
M  V30 12768 O 1201.87 -0.874327 1.53898 0
M  V30 12769 C 1198.99 -1.42378 3.12383 0
M  V30 12770 C 1198.08 -0.811982 4.16254 0
M  V30 12771 N 1198.47 0.0675245 5.05755 0
M  V30 12772 C 1196.77 -1.07596 4.32827 0
M  V30 12773 C 1197.47 0.414693 5.8022 0
M  V30 12774 N 1196.45 -0.210047 5.43194 0
M  V30 12775 H 1200.25 0.335344 2.91981 0
M  V30 12776 H 1197.76 0.284911 1.59881 0
M  V30 12777 H 1199.76 -2.01936 3.64729 0
M  V30 12778 H 1198.42 -2.1033 2.47369 0
M  V30 12779 H 1199.43 0.436333 5.16059 0
M  V30 12780 H 1196.11 -1.75048 3.79031 0
M  V30 12781 H 1197.5 1.13243 6.62288 0
M  V30 12782 N 1200.22 -1.56282 0.203376 0
M  V30 12783 C 1201.15 -2.2247 -0.709183 0
M  V30 12784 C 1202.13 -1.19046 -1.21499 0
M  V30 12785 O 1203.31 -1.47578 -1.26231 0
M  V30 12786 C 1200.44 -2.8905 -1.92529 0
M  V30 12787 C 1199.4 -3.98789 -1.55407 0
M  V30 12788 C 1198.72 -4.52574 -2.84747 0
M  V30 12789 C 1200.02 -5.16774 -0.75775 0
M  V30 12790 H 1201.72 -2.98986 -0.157392 0
M  V30 12791 H 1199.26 -1.43808 -0.0742613 0
M  V30 12792 H 1201.22 -3.34038 -2.56898 0
M  V30 12793 H 1199.94 -2.09952 -2.50175 0
M  V30 12794 H 1198.6 -3.54504 -0.933928 0
M  V30 12795 H 1198.25 -3.70229 -3.40499 0
M  V30 12796 H 1197.95 -5.26627 -2.6065 0
M  V30 12797 H 1199.47 -5.00269 -3.5009 0
M  V30 12798 H 1200.89 -5.58256 -1.30472 0
M  V30 12799 H 1199.28 -5.96945 -0.614583 0
M  V30 12800 H 1200.35 -4.84308 0.239476 0
M  V30 12801 N 1201.7 0.070167 -1.57444 0
M  V30 12802 C 1202.94 0.767842 -1.86513 0
M  V30 12803 C 1203.26 1.78659 -0.796257 0
M  V30 12804 O 1204.46 2.53395 -0.974845 0
M  V30 12805 C 1202.92 1.41654 -3.30851 0
M  V30 12806 C 1202.53 0.436273 -4.45871 0
M  V30 12807 C 1204.27 2.09649 -3.69117 0
M  V30 12808 C 1202.18 1.09098 -5.8125 0
M  V30 12809 H 1201.11 0.290519 -0.695784 0
M  V30 12810 H 1203.76 0.0211697 -1.83488 0
M  V30 12811 H 1202.14 2.21153 -3.28493 0
M  V30 12812 H 1203.32 -0.329022 -4.59624 0
M  V30 12813 H 1201.63 -0.139314 -4.16167 0
M  V30 12814 H 1204.23 2.59411 -4.67558 0
M  V30 12815 H 1204.57 2.89663 -2.99 0
M  V30 12816 H 1205.1 1.36979 -3.73472 0
M  V30 12817 H 1201.84 0.331128 -6.54663 0
M  V30 12818 H 1201.36 1.8271 -5.71294 0
M  V30 12819 H 1203.04 1.61034 -6.2664 0
M  V30 12820 N 1203.17 1.53854 0.341593 0
M  V30 12821 C 1204.42 1.70856 1.07948 0
M  V30 12822 C 1204.74 0.475474 1.89114 0
M  V30 12823 O 1204.01 -0.510592 1.89129 0
M  V30 12824 H 1202.59 0.629914 0.401519 0
M  V30 12825 H 1205.25 1.91112 0.382393 0
M  V30 12826 H 1204.35 2.5803 1.75575 0
M  V30 12827 N 1204.65 -0.602709 1.4562 0
M  V30 12828 C 1205.6 -1.71312 1.54664 0
M  V30 12829 C 1206.57 -1.61403 0.392197 0
M  V30 12830 O 1207.75 -1.80911 0.606297 0
M  V30 12831 C 1204.89 -3.09629 1.52393 0
M  V30 12832 C 1204.01 -3.30308 2.78425 0
M  V30 12833 C 1203.14 -4.5876 2.67793 0
M  V30 12834 C 1202.18 -4.72713 3.88855 0
M  V30 12835 N 1201.32 -5.92469 3.76729 0
M  V30 12836 H 1206.16 -1.62918 2.49523 0
M  V30 12837 H 1203.69 -0.794324 1.2381 0
M  V30 12838 H 1205.65 -3.89661 1.49064 0
M  V30 12839 H 1204.28 -3.16968 0.610816 0
M  V30 12840 H 1203.33 -2.44018 2.9182 0
M  V30 12841 H 1204.65 -3.36491 3.68205 0
M  V30 12842 H 1203.8 -5.46993 2.62457 0
M  V30 12843 H 1202.54 -4.54983 1.75619 0
M  V30 12844 H 1201.54 -3.82903 3.94545 0
M  V30 12845 H 1202.77 -4.78284 4.82101 0
M  V30 12846 H 1200.72 -5.89728 2.87328 0
M  V30 12847 H 1200.63 -5.99833 4.60148 0
M  V30 12848 H 1201.9 -6.83187 3.75334 0
M  V30 12849 N 1206.13 -1.32992 -0.845635 0
M  V30 12850 C 1207.08 -1.22652 -1.97634 0
M  V30 12851 C 1208.07 -0.129344 -1.68905 0
M  V30 12852 O 1209.28 -0.292863 -1.77602 0
M  V30 12853 H 1205.65 -0.380439 -0.648668 0
M  V30 12854 H 1207.62 -2.18261 -2.03481 0
M  V30 12855 C 1206.37 -0.975677 -3.3373 0
M  V30 12856 H 1205.7 -1.81217 -3.56371 0
M  V30 12857 H 1207.14 -0.943608 -4.13367 0
M  V30 12858 C 1205.59 0.321491 -3.35363 0
M  V30 12859 O 1206.12 1.33042 -3.79029 0
M  V30 12860 N 1204.33 0.346648 -2.88525 0
M  V30 12861 H 1203.88 -0.474931 -2.53184 0
M  V30 12862 H 1203.84 1.2144 -2.9 0
M  V30 12863 N 1207.61 1.06304 -1.1635 0
M  V30 12864 C 1208.83 1.83338 -0.969639 0
M  V30 12865 C 1209.26 1.81945 0.477231 0
M  V30 12866 O 1208.62 1.22018 1.34094 0
M  V30 12867 C 1208.66 3.2785 -1.50155 0
M  V30 12868 O 1207.77 4.06281 -0.707805 0
M  V30 12869 H 1207.11 0.567293 -0.345072 0
M  V30 12870 H 1209.64 1.34033 -1.54584 0
M  V30 12871 H 1209.65 3.7867 -1.51898 0
M  V30 12872 H 1208.32 3.28179 -2.55483 0
M  V30 12873 H 1206.9 3.65055 -0.760872 0
M  V30 12874 N 1209.09 0.96196 1.24836 0
M  V30 12875 C 1210.33 0.621634 1.93038 0
M  V30 12876 C 1210.66 -0.840257 1.75081 0
M  V30 12877 O 1209.94 -1.60381 1.10038 0
M  V30 12878 C 1210.22 0.990107 3.46221 0
M  V30 12879 C 1210.08 2.50827 3.73371 0
M  V30 12880 C 1211.39 0.520478 4.37011 0
M  V30 12881 H 1208.51 0.227312 0.701069 0
M  V30 12882 H 1211.16 1.19993 1.47315 0
M  V30 12883 H 1209.31 0.498008 3.85295 0
M  V30 12884 H 1210.98 3.07469 3.4389 0
M  V30 12885 H 1209.22 2.94277 3.18722 0
M  V30 12886 H 1209.89 2.71659 4.80526 0
M  V30 12887 H 1212.37 0.942703 4.05281 0
M  V30 12888 H 1211.24 0.806918 5.42937 0
M  V30 12889 H 1211.5 -0.579507 4.38285 0
M  V30 12890 N 1210.56 -1.39601 0.731392 0
M  V30 12891 C 1211.49 -2.33268 0.1041 0
M  V30 12892 C 1212.47 -1.53724 -0.728219 0
M  V30 12893 O 1213.66 -1.82131 -0.673933 0
M  V30 12894 C 1210.79 -3.37802 -0.806646 0
M  V30 12895 C 1209.74 -4.27928 -0.0787588 0
M  V30 12896 C 1209.07 -5.23131 -1.10628 0
M  V30 12897 C 1210.37 -5.11086 1.07651 0
M  V30 12898 H 1212.06 -2.85975 0.886496 0
M  V30 12899 H 1209.61 -1.375 0.427746 0
M  V30 12900 H 1211.56 -4.02278 -1.25499 0
M  V30 12901 H 1210.29 -2.83527 -1.62112 0
M  V30 12902 H 1208.95 -3.64926 0.349926 0
M  V30 12903 H 1208.59 -4.65152 -1.91422 0
M  V30 12904 H 1208.29 -5.84277 -0.624043 0
M  V30 12905 H 1209.82 -5.90483 -1.5544 0
M  V30 12906 H 1211.23 -5.68927 0.706781 0
M  V30 12907 H 1209.63 -5.81356 1.48814 0
M  V30 12908 H 1210.7 -4.46131 1.89988 0
M  V30 12909 N 1212.04 -0.478751 -1.50152 0
M  V30 12910 C 1212.99 0.325375 -2.30313 0
M  V30 12911 C 1213.98 0.983372 -1.37935 0
M  V30 12912 O 1215.19 0.913601 -1.55091 0
M  V30 12913 H 1211.57 0.123775 -0.741744 0
M  V30 12914 H 1213.54 -0.371004 -2.96085 0
M  V30 12915 C 1212.29 1.39026 -3.18696 0
M  V30 12916 H 1211.61 0.893329 -3.89692 0
M  V30 12917 H 1213.05 1.92533 -3.77766 0
M  V30 12918 C 1211.51 2.39637 -2.36803 0
M  V30 12919 O 1212.04 3.45067 -2.05649 0
M  V30 12920 N 1210.24 2.11546 -1.9924 0
M  V30 12921 H 1209.79 1.25832 -2.24775 0
M  V30 12922 H 1209.75 2.79096 -1.44751 0
M  V30 12923 N 1213.52 1.56172 -0.211661 0
M  V30 12924 C 1214.75 2.02874 0.430905 0
M  V30 12925 C 1215.17 1.09064 1.53254 0
M  V30 12926 O 1214.53 0.0770408 1.81136 0
M  V30 12927 C 1214.58 3.4789 0.948933 0
M  V30 12928 O 1213.68 3.57213 2.0609 0
M  V30 12929 H 1213.02 0.656614 0.0987607 0
M  V30 12930 H 1215.55 2.01964 -0.327399 0
M  V30 12931 H 1215.56 3.88015 1.2613 0
M  V30 12932 H 1214.24 4.15656 0.142584 0
M  V30 12933 H 1212.81 3.28971 1.75592 0
M  V30 12934 N 1215 -0.0618163 1.57479 0
M  V30 12935 C 1216.22 -0.775513 1.92355 0
M  V30 12936 C 1216.65 -1.69816 0.808949 0
M  V30 12937 O 1216.01 -1.79736 -0.23761 0
M  V30 12938 C 1216.05 -1.5367 3.26218 0
M  V30 12939 O 1215.16 -2.64802 3.16155 0
M  V30 12940 H 1214.5 -0.210909 0.629614 0
M  V30 12941 H 1217.03 -0.0270752 2.04582 0
M  V30 12942 H 1217.04 -1.91379 3.6033 0
M  V30 12943 H 1215.71 -0.859798 4.06916 0
M  V30 12944 H 1214.29 -2.29876 2.93618 0
M  V30 12945 N 1216.48 -1.54033 -0.333429 0
M  V30 12946 C 1217.7 -1.75716 -1.09232 0
M  V30 12947 C 1218.12 -0.501076 -1.82029 0
M  V30 12948 O 1217.48 0.527772 -1.74702 0
M  V30 12949 C 1217.53 -2.9439 -2.09802 0
M  V30 12950 O 1217.25 -4.15141 -1.39963 0
M  V30 12951 C 1218.75 -3.28206 -2.97987 0
M  V30 12952 H 1215.97 -0.586859 -0.325326 0
M  V30 12953 H 1218.51 -2.0089 -0.382555 0
M  V30 12954 H 1216.67 -2.71518 -2.76327 0
M  V30 12955 H 1217.08 -4.81826 -2.0723 0
M  V30 12956 H 1218.56 -4.14568 -3.64469 0
M  V30 12957 H 1219.03 -2.44944 -3.64553 0
M  V30 12958 H 1219.64 -3.5312 -2.37036 0
M  V30 12959 N 1217.95 0.594978 -1.45938 0
M  V30 12960 C 1218.92 1.68688 -1.55168 0
M  V30 12961 C 1219.92 1.54945 -0.429951 0
M  V30 12962 O 1221.11 1.59785 -0.693859 0
M  V30 12963 C 1218.24 3.0804 -1.46027 0
M  V30 12964 H 1219.43 1.61866 -2.52467 0
M  V30 12965 H 1216.99 0.811785 -1.33565 0
M  V30 12966 H 1217.72 3.20428 -0.499614 0
M  V30 12967 H 1217.51 3.19423 -2.27401 0
M  V30 12968 H 1219 3.8755 -1.55546 0
M  V30 12969 N 1219.43 1.33438 0.838571 0
M  V30 12970 C 1220.34 1.25753 1.98049 0
M  V30 12971 C 1221.36 0.168051 1.73187 0
M  V30 12972 O 1222.53 0.391691 1.97554 0
M  V30 12973 C 1219.6 0.997148 3.32051 0
M  V30 12974 C 1218.66 2.17667 3.70027 0
M  V30 12975 C 1217.89 1.92861 4.97635 0
M  V30 12976 O 1218.12 0.879072 5.63585 0
M  V30 12977 O 1217.05 2.79402 5.33121 0
M  V30 12978 H 1220.88 2.21786 2.07472 0
M  V30 12979 H 1218.46 1.13488 0.971645 0
M  V30 12980 H 1220.34 0.869099 4.1234 0
M  V30 12981 H 1219.02 0.0671036 3.2363 0
M  V30 12982 H 1217.93 2.36025 2.90246 0
M  V30 12983 H 1219.26 3.09006 3.83114 0
M  V30 12984 N 1220.91 -1.05686 1.16912 0
M  V30 12985 C 1221.86 -2.11584 0.849483 0
M  V30 12986 C 1222.84 -1.59959 -0.173774 0
M  V30 12987 O 1224.04 -1.76978 0.0279436 0
M  V30 12988 C 1221.17 -3.41417 0.359079 0
M  V30 12989 C 1220.25 -3.99852 1.41347 0
M  V30 12990 N 1220.64 -4.32317 2.62557 0
M  V30 12991 C 1218.94 -4.27531 1.27017 0
M  V30 12992 C 1219.64 -4.7885 3.30269 0
M  V30 12993 N 1218.62 -4.78664 2.57647 0
M  V30 12994 H 1222.42 -2.34539 1.77112 0
M  V30 12995 H 1219.93 -1.23286 1.05708 0
M  V30 12996 H 1221.93 -4.1675 0.111666 0
M  V30 12997 H 1220.59 -3.19897 -0.556413 0
M  V30 12998 H 1221.6 -4.22472 2.99563 0
M  V30 12999 H 1218.28 -4.15423 0.415924 0
M  V30 13000 H 1219.67 -5.13123 4.33768 0
M  V30 13001 N 1222.39 -0.968567 -1.24324 0
M  V30 13002 C 1223.61 -0.648166 -1.97012 0
M  V30 13003 C 1224.04 0.775842 -1.71354 0
M  V30 13004 O 1223.4 1.52672 -0.977804 0
M  V30 13005 C 1223.44 -0.929974 -3.48402 0
M  V30 13006 O 1222.55 -0.015854 -4.12397 0
M  V30 13007 H 1221.89 -0.244961 -0.617163 0
M  V30 13008 H 1224.42 -1.29895 -1.58077 0
M  V30 13009 H 1224.43 -0.861863 -3.98793 0
M  V30 13010 H 1223.1 -1.96776 -3.66404 0
M  V30 13011 H 1221.68 -0.137361 -3.72647 0
M  V30 13012 N 1223.87 1.39211 -0.738786 0
M  V30 13013 C 1225.09 2.05256 -0.297421 0
M  V30 13014 C 1225.52 1.55341 1.06069 0
M  V30 13015 O 1224.87 0.698823 1.67291 0
M  V30 13016 C 1224.92 3.59239 -0.312969 0
M  V30 13017 O 1224.03 4.06448 0.698112 0
M  V30 13018 H 1223.37 0.650245 -0.134454 0
M  V30 13019 H 1225.9 1.78173 -1.00577 0
M  V30 13020 H 1225.91 4.07691 -0.158675 0
M  V30 13021 H 1224.58 3.94931 -1.30394 0
M  V30 13022 H 1223.16 3.69401 0.509643 0
M  V30 13023 N 1225.34 0.486708 1.49896 0
M  V30 13024 C 1226.76 0.0353906 1.86666 0
M  V30 13025 C 1227.11 -1.3743 1.40026 0
M  V30 13026 O 1226.23 -2.02163 0.77194 0
M  V30 13027 C 1226.83 0.0574475 3.38751 0
M  V30 13028 C 1225.39 -0.338464 3.74875 0
M  V30 13029 C 1224.53 0.436196 2.73848 0
M  V30 13030 H 1227.48 0.700215 1.42417 0
M  V30 13031 H 1227.5 -0.741175 3.73212 0
M  V30 13032 H 1227.02 1.08356 3.72667 0
M  V30 13033 H 1225.12 -1.36835 3.46565 0
M  V30 13034 H 1225.23 -0.0289519 4.79091 0
M  V30 13035 H 1223.59 -0.112141 2.54453 0
M  V30 13036 H 1224.38 1.46212 3.10608 0
M  V30 13037 N 1226.82 -1.56058 0.219941 0
M  V30 13038 C 1228.05 -2.02358 -0.416497 0
M  V30 13039 C 1228.46 -1.09903 -1.54007 0
M  V30 13040 O 1227.8 -0.100635 -1.83424 0
M  V30 13041 C 1227.87 -3.45 -1.01072 0
M  V30 13042 C 1227.53 -4.56994 -0.0227891 0
M  V30 13043 C 1228.53 -5.14061 0.776997 0
M  V30 13044 C 1226.21 -5.02209 0.0954981 0
M  V30 13045 C 1228.21 -6.14813 1.68179 0
M  V30 13046 C 1225.89 -6.02799 1.00383 0
M  V30 13047 C 1226.89 -6.58977 1.79552 0
M  V30 13048 O 1226.58 -7.57608 2.68858 0
M  V30 13049 H 1226.31 -0.667581 -0.106355 0
M  V30 13050 H 1228.87 -2.02677 0.333348 0
M  V30 13051 H 1227.1 -3.41745 -1.80962 0
M  V30 13052 H 1228.78 -3.74958 -1.55439 0
M  V30 13053 H 1229.55 -4.79979 0.696053 0
M  V30 13054 H 1225.43 -4.58164 -0.510599 0
M  V30 13055 H 1228.97 -6.58588 2.30017 0
M  V30 13056 H 1224.87 -6.36302 1.08579 0
M  V30 13057 H 1225.64 -7.75124 2.62915 0
M  V30 13058 N 1228.3 0.053464 -1.57509 0
M  V30 13059 C 1229.53 0.765301 -1.92764 0
M  V30 13060 C 1229.95 1.69385 -0.817943 0
M  V30 13061 O 1229.31 1.7986 0.228075 0
M  V30 13062 C 1229.36 1.51938 -3.27028 0
M  V30 13063 O 1228.46 2.63121 -3.17555 0
M  V30 13064 H 1227.8 0.207567 -0.630723 0
M  V30 13065 H 1230.33 0.0162254 -2.04594 0
M  V30 13066 H 1230.34 1.89466 -3.6134 0
M  V30 13067 H 1229.02 0.838207 -4.07366 0
M  V30 13068 H 1227.59 2.28316 -2.94832 0
M  V30 13069 N 1229.78 1.54207 0.325255 0
M  V30 13070 C 1230.69 1.86495 1.42326 0
M  V30 13071 C 1231.71 0.756718 1.56684 0
M  V30 13072 O 1232.88 1.05084 1.71812 0
M  V30 13073 C 1229.95 2.08414 2.77064 0
M  V30 13074 C 1229.01 3.32221 2.71897 0
M  V30 13075 C 1228.24 3.53085 4.00209 0
M  V30 13076 O 1228.46 2.77421 4.98391 0
M  V30 13077 O 1227.4 4.46559 4.0357 0
M  V30 13078 H 1231.22 2.79859 1.17951 0
M  V30 13079 H 1228.81 1.40091 0.519124 0
M  V30 13080 H 1230.69 2.24171 3.56827 0
M  V30 13081 H 1229.37 1.18238 3.01333 0
M  V30 13082 H 1228.27 3.21851 1.90691 0
M  V30 13083 H 1229.61 4.22449 2.52582 0
M  V30 13084 N 1231.26 -0.58723 1.46251 0
M  V30 13085 C 1232.53 -1.34727 1.41802 0
M  V30 13086 C 1232.91 -2.10867 0.0991354 0
M  V30 13087 O 1232.26 -2.09194 -0.919242 0
M  V30 13088 C 1232.47 -2.27706 2.64482 0
M  V30 13089 C 1233.82 -2.89678 3.10438 0
M  V30 13090 O 1234.84 -2.38021 2.64999 0
M  V30 13091 O 1233.7 -3.83493 3.89352 0
M  V30 13092 H 1230.8 -0.605119 0.563702 0
M  V30 13093 H 1233.34 -0.608623 1.5841 0
M  V30 13094 H 1232.12 -1.70842 3.52035 0
M  V30 13095 H 1231.74 -3.08918 2.50311 0
M  V30 13096 N 1232.74 -1.33881 -0.831482 0
M  V30 13097 C 1234.15 -1.23112 -1.40358 0
M  V30 13098 C 1234.5 0.146944 -1.95649 0
M  V30 13099 O 1233.62 1.04689 -1.89391 0
M  V30 13100 C 1234.22 -2.22899 -2.5515 0
M  V30 13101 C 1232.78 -2.15946 -3.08292 0
M  V30 13102 C 1231.92 -2.09975 -1.81124 0
M  V30 13103 H 1234.87 -1.45372 -0.63661 0
M  V30 13104 H 1234.9 -1.841 -3.32997 0
M  V30 13105 H 1234.41 -3.23186 -2.14878 0
M  V30 13106 H 1232.51 -1.18987 -3.53091 0
M  V30 13107 H 1232.62 -3.06822 -3.67964 0
M  V30 13108 H 1230.99 -1.55564 -2.01673 0
M  V30 13109 H 1231.77 -3.12082 -1.43037 0
M  V30 13110 N 1234.21 1.05064 -1.1747 0
M  V30 13111 C 1235.46 1.77481 -0.958301 0
M  V30 13112 C 1235.78 1.88725 0.51401 0
M  V30 13113 O 1236.98 2.57895 0.848657 0
M  V30 13114 C 1235.44 3.19048 -1.66543 0
M  V30 13115 C 1235.05 3.1593 -3.17636 0
M  V30 13116 C 1236.79 3.95912 -1.53146 0
M  V30 13117 C 1234.7 4.52293 -3.81032 0
M  V30 13118 H 1233.63 0.665247 -0.354913 0
M  V30 13119 H 1236.28 1.17751 -1.40737 0
M  V30 13120 H 1234.66 3.79113 -1.1441 0
M  V30 13121 H 1235.83 2.65375 -3.76713 0
M  V30 13122 H 1234.15 2.52564 -3.31059 0
M  V30 13123 H 1236.75 4.96737 -1.9788 0
M  V30 13124 H 1237.09 4.13498 -0.482203 0
M  V30 13125 H 1237.62 3.42399 -2.02504 0
M  V30 13126 H 1234.36 4.39913 -4.8596 0
M  V30 13127 H 1233.88 5.02991 -3.26741 0
M  V30 13128 H 1235.56 5.2123 -3.83312 0
M  V30 13129 N 1235.69 0.975146 1.23809 0
M  V30 13130 C 1236.6 0.51917 2.28783 0
M  V30 13131 C 1237.62 -0.423487 1.68768 0
M  V30 13132 O 1238.79 -0.294699 1.99232 0
M  V30 13133 C 1235.86 -0.176229 3.46252 0
M  V30 13134 C 1234.92 0.807177 4.21643 0
M  V30 13135 C 1234.15 0.144869 5.33503 0
M  V30 13136 O 1234.38 -1.06522 5.60365 0
M  V30 13137 O 1233.31 0.84079 5.95999 0
M  V30 13138 H 1237.14 1.39204 2.69919 0
M  V30 13139 H 1234.72 0.74253 1.29641 0
M  V30 13140 H 1236.6 -0.566547 4.17574 0
M  V30 13141 H 1235.28 -1.02394 3.07078 0
M  V30 13142 H 1234.18 1.2481 3.52666 0
M  V30 13143 H 1235.52 1.62354 4.64653 0
M  V30 13144 N 1237.17 -1.38817 0.746158 0
M  V30 13145 C 1238.45 -1.94303 0.224841 0
M  V30 13146 C 1238.83 -1.68207 -1.27552 0
M  V30 13147 O 1238.17 -1.01647 -2.04646 0
M  V30 13148 C 1238.38 -3.44306 0.5705 0
M  V30 13149 C 1239.73 -4.21329 0.526015 0
M  V30 13150 O 1240.76 -3.52554 0.508351 0
M  V30 13151 O 1239.62 -5.4392 0.530383 0
M  V30 13152 H 1236.71 -0.825785 0.0448047 0
M  V30 13153 H 1239.26 -1.48253 0.825775 0
M  V30 13154 H 1238.03 -3.56779 1.60701 0
M  V30 13155 H 1237.65 -3.97556 -0.0588271 0
M  V30 13156 N 1238.65 -0.49465 -1.49636 0
M  V30 13157 C 1240.06 -0.0452894 -1.86645 0
M  V30 13158 C 1240.41 1.36686 -1.40753 0
M  V30 13159 O 1239.53 2.01751 -0.78265 0
M  V30 13160 C 1240.13 -0.0754115 -3.38716 0
M  V30 13161 C 1238.69 0.318579 -3.75049 0
M  V30 13162 C 1237.84 -0.450712 -2.73613 0
M  V30 13163 H 1240.79 -0.707758 -1.42044 0
M  V30 13164 H 1240.81 0.721372 -3.73599 0
M  V30 13165 H 1240.32 -1.10331 -3.72087 0
M  V30 13166 H 1238.42 1.34995 -3.47285 0
M  V30 13167 H 1238.53 0.00354416 -4.791 0
M  V30 13168 H 1236.9 0.0986455 -2.54509 0
M  V30 13169 H 1237.68 -1.47857 -3.09828 0
M  V30 13170 N 1240.13 1.55939 -0.228214 0
M  V30 13171 C 1241.06 2.2357 0.6737 0
M  V30 13172 C 1242.04 1.20964 1.1959 0
M  V30 13173 O 1243.22 1.49568 1.23867 0
M  V30 13174 C 1240.35 2.92076 1.87906 0
M  V30 13175 C 1239.31 4.01211 1.49043 0
M  V30 13176 C 1238.63 4.57047 2.77511 0
M  V30 13177 C 1239.93 5.17914 0.67544 0
M  V30 13178 H 1241.63 2.99199 0.109806 0
M  V30 13179 H 1239.17 1.43908 0.0513732 0
M  V30 13180 H 1241.12 3.38083 2.51551 0
M  V30 13181 H 1239.85 2.13906 2.46803 0
M  V30 13182 H 1238.51 3.55945 0.877411 0
M  V30 13183 H 1238.16 3.75599 3.34566 0
M  V30 13184 H 1237.86 5.30707 2.52239 0
M  V30 13185 H 1239.38 5.05776 3.42087 0
M  V30 13186 H 1240.79 5.60261 1.21575 0
M  V30 13187 H 1239.19 5.97847 0.519536 0
M  V30 13188 H 1240.26 4.83866 -0.316495 0
M  V30 13189 N 1241.6 -0.0451101 1.57535 0
M  V30 13190 C 1242.54 -1.07792 2.02271 0
M  V30 13191 C 1243.55 -1.33423 0.932854 0
M  V30 13192 O 1244.74 -1.31193 1.2104 0
M  V30 13193 C 1241.84 -2.42314 2.36933 0
M  V30 13194 C 1241.01 -2.36266 3.68099 0
M  V30 13195 C 1240.07 -3.53108 3.9013 0
M  V30 13196 O 1239.1 -3.33327 4.61391 0
M  V30 13197 N 1240.3 -4.74415 3.3453 0
M  V30 13198 H 1243.06 -0.696744 2.91489 0
M  V30 13199 H 1240.62 -0.233336 1.6021 0
M  V30 13200 H 1242.62 -3.19171 2.48821 0
M  V30 13201 H 1241.19 -2.72335 1.53468 0
M  V30 13202 H 1240.41 -1.44615 3.66715 0
M  V30 13203 H 1241.69 -2.29351 4.54175 0
M  V30 13204 H 1241.09 -4.93388 2.76739 0
M  V30 13205 H 1239.65 -5.48692 3.51825 0
M  V30 13206 N 1243.08 -1.54377 -0.317073 0
M  V30 13207 C 1244.49 -1.64062 -0.891105 0
M  V30 13208 C 1244.84 -0.538863 -1.88655 0
M  V30 13209 O 1243.97 0.32718 -2.13912 0
M  V30 13210 C 1244.56 -2.97395 -1.62302 0
M  V30 13211 C 1243.12 -3.09253 -2.14568 0
M  V30 13212 C 1242.27 -2.59664 -0.973146 0
M  V30 13213 H 1245.22 -1.58418 -0.0944829 0
M  V30 13214 H 1245.24 -2.87918 -2.48764 0
M  V30 13215 H 1244.75 -3.77562 -0.898268 0
M  V30 13216 H 1242.86 -2.33774 -2.90139 0
M  V30 13217 H 1242.97 -4.15159 -2.39123 0
M  V30 13218 H 1241.33 -2.15719 -1.35416 0
M  V30 13219 H 1242.12 -3.42294 -0.262611 0
M  V30 13220 N 1244.56 0.579466 -1.4656 0
M  V30 13221 C 1245.84 1.33973 -1.42515 0
M  V30 13222 C 1246.22 2.10812 -0.110317 0
M  V30 13223 O 1245.57 2.09679 0.908135 0
M  V30 13224 C 1245.78 2.26301 -2.65686 0
M  V30 13225 C 1247.12 2.88027 -3.1197 0
M  V30 13226 O 1248.15 2.36612 -2.66257 0
M  V30 13227 O 1247.01 3.81423 -3.9138 0
M  V30 13228 H 1244.1 0.602121 -0.566903 0
M  V30 13229 H 1246.65 0.600214 -1.58731 0
M  V30 13230 H 1245.42 1.68973 -3.52936 0
M  V30 13231 H 1245.04 3.07586 -2.51945 0
M  V30 13232 N 1246.04 1.3432 0.824371 0
M  V30 13233 C 1247.28 1.26783 1.58284 0
M  V30 13234 C 1247.62 -0.162282 1.93521 0
M  V30 13235 O 1246.89 -1.1073 1.59903 0
M  V30 13236 C 1247.18 2.15725 2.88331 0
M  V30 13237 C 1247.03 3.67266 2.59684 0
M  V30 13238 C 1248.35 2.04141 3.8989 0
M  V30 13239 H 1245.47 0.461893 0.574303 0
M  V30 13240 H 1248.11 1.64558 0.949769 0
M  V30 13241 H 1246.26 1.83639 3.42358 0
M  V30 13242 H 1247.93 4.09711 2.11978 0
M  V30 13243 H 1246.17 3.88426 1.93151 0
M  V30 13244 H 1246.84 4.24863 3.52414 0
M  V30 13245 H 1249.32 2.3231 3.45212 0
M  V30 13246 H 1248.2 2.68601 4.7869 0
M  V30 13247 H 1248.46 1.01795 4.30221 0
M  V30 13248 N 1247.52 -1.0444 1.18026 0
M  V30 13249 C 1248.74 -1.81234 0.998089 0
M  V30 13250 C 1249.16 -1.83271 -0.453559 0
M  V30 13251 O 1248.52 -1.26545 -1.31502 0
M  V30 13252 C 1248.57 -3.27007 1.54106 0
M  V30 13253 O 1248.29 -3.25174 2.93587 0
M  V30 13254 C 1249.79 -4.20461 1.40455 0
M  V30 13255 H 1247.01 -0.57085 0.352663 0
M  V30 13256 H 1249.55 -1.31649 1.56489 0
M  V30 13257 H 1247.71 -3.73837 1.01611 0
M  V30 13258 H 1248.12 -4.16466 3.18836 0
M  V30 13259 H 1249.6 -5.20695 1.83249 0
M  V30 13260 H 1250.07 -4.37781 0.352713 0
M  V30 13261 H 1250.68 -3.79493 1.92004 0
M  V30 13262 N 1248.99 -0.981699 -1.2329 0
M  V30 13263 C 1250.24 -0.650015 -1.91361 0
M  V30 13264 C 1250.56 0.819184 -1.76959 0
M  V30 13265 O 1249.83 1.5861 -1.14977 0
M  V30 13266 H 1248.41 -0.237427 -0.708264 0
M  V30 13267 H 1251.08 -1.24579 -1.49887 0
M  V30 13268 H 1250.17 -0.902772 -2.98758 0
M  V30 13269 N 1250.47 1.3842 -0.753509 0
M  V30 13270 C 1251.72 1.99359 -0.306416 0
M  V30 13271 C 1252.03 1.60492 1.11811 0
M  V30 13272 O 1253.24 2.14401 1.66567 0
M  V30 13273 C 1251.7 3.56453 -0.496895 0
M  V30 13274 C 1251.3 4.04272 -1.9305 0
M  V30 13275 C 1253.05 4.24351 -0.11251 0
M  V30 13276 C 1250.96 5.54007 -2.06955 0
M  V30 13277 H 1249.89 0.745812 -0.110818 0
M  V30 13278 H 1252.54 1.58185 -0.930039 0
M  V30 13279 H 1250.92 3.95515 0.195912 0
M  V30 13280 H 1252.09 3.765 -2.65677 0
M  V30 13281 H 1250.41 3.49098 -2.26979 0
M  V30 13282 H 1253 5.34344 -0.195161 0
M  V30 13283 H 1253.35 4.05668 0.934849 0
M  V30 13284 H 1253.88 3.90528 -0.757168 0
M  V30 13285 H 1250.62 5.77594 -3.09944 0
M  V30 13286 H 1250.14 5.83522 -1.38788 0
M  V30 13287 H 1251.82 6.19704 -1.85945 0
M  V30 13288 N 1251.95 0.502579 1.49372 0
M  V30 13289 C 1253.37 0.158641 1.5881 0
M  V30 13290 C 1253.57 -1.33688 1.50764 0
M  V30 13291 O 1252.62 -2.11295 1.38241 0
M  V30 13292 C 1253.94 0.736843 2.91532 0
M  V30 13293 C 1255.48 0.703093 3.05001 0
M  V30 13294 C 1255.96 1.25938 4.40345 0
M  V30 13295 N 1257.45 1.22015 4.46841 0
M  V30 13296 C 1258.18 1.62076 5.50017 0
M  V30 13297 N 1257.68 2.09736 6.6029 0
M  V30 13298 N 1259.47 1.53482 5.4074 0
M  V30 13299 H 1251.62 1.47487 1.52844 0
M  V30 13300 H 1253.89 0.611851 0.724115 0
M  V30 13301 H 1253.59 1.78573 3.02992 0
M  V30 13302 H 1253.47 0.198178 3.76679 0
M  V30 13303 H 1255.85 -0.336965 2.9317 0
M  V30 13304 H 1255.94 1.27892 2.21534 0
M  V30 13305 H 1255.58 2.29823 4.52928 0
M  V30 13306 H 1255.51 0.659481 5.22454 0
M  V30 13307 H 1258 0.870957 3.67726 0
M  V30 13308 H 1258.31 2.3837 7.35119 0
M  V30 13309 H 1256.66 2.13712 6.61326 0
M  V30 13310 H 1259.85 1.16065 4.53483 0
M  V30 13311 H 1260.02 1.85026 6.21023 0
M  V30 13312 N 1253.43 -1.55816 0.23648 0
M  V30 13313 C 1254.36 -2.23924 -0.661834 0
M  V30 13314 C 1255.34 -1.21597 -1.18946 0
M  V30 13315 O 1256.52 -1.50222 -1.23073 0
M  V30 13316 C 1253.65 -2.93069 -1.86355 0
M  V30 13317 C 1252.61 -4.01996 -1.46913 0
M  V30 13318 C 1251.93 -4.58512 -2.75083 0
M  V30 13319 C 1253.23 -5.18265 -0.647964 0
M  V30 13320 H 1254.93 -2.99253 -0.0939368 0
M  V30 13321 H 1252.47 -1.43934 -0.0437407 0
M  V30 13322 H 1254.43 -3.39412 -2.49755 0
M  V30 13323 H 1253.15 -2.15212 -2.45665 0
M  V30 13324 H 1251.81 -3.56406 -0.858522 0
M  V30 13325 H 1251.46 -3.77368 -3.3257 0
M  V30 13326 H 1251.16 -5.32037 -2.49421 0
M  V30 13327 H 1252.68 -5.07583 -3.39399 0
M  V30 13328 H 1254.1 -5.60898 -1.18602 0
M  V30 13329 H 1252.49 -5.98114 -0.487823 0
M  V30 13330 H 1253.56 -4.83691 0.342151 0
M  V30 13331 N 1254.91 0.036755 -1.57557 0
M  V30 13332 C 1255.84 1.03939 -2.09091 0
M  V30 13333 C 1256.82 1.38196 -0.991761 0
M  V30 13334 O 1258 1.47214 -1.26656 0
M  V30 13335 C 1255.13 2.34263 -2.56394 0
M  V30 13336 C 1254.09 2.14269 -3.70504 0
M  V30 13337 C 1253.41 3.50286 -4.03985 0
M  V30 13338 C 1254.71 1.53514 -4.9923 0
M  V30 13339 H 1256.41 0.610429 -2.93111 0
M  V30 13340 H 1253.95 0.292183 -1.41005 0
M  V30 13341 H 1255.91 3.04727 -2.91066 0
M  V30 13342 H 1254.63 2.79205 -1.69447 0
M  V30 13343 H 1253.29 1.46239 -3.36169 0
M  V30 13344 H 1252.94 3.92861 -3.14116 0
M  V30 13345 H 1252.64 3.37735 -4.80842 0
M  V30 13346 H 1254.16 4.22124 -4.41184 0
M  V30 13347 H 1255.57 2.13885 -5.31908 0
M  V30 13348 H 1253.97 1.51561 -5.80646 0
M  V30 13349 H 1255.04 0.500126 -4.82314 0
M  V30 13350 N 1256.39 1.54543 0.308881 0
M  V30 13351 C 1257.61 1.77753 1.06857 0
M  V30 13352 C 1258.04 0.531616 1.80431 0
M  V30 13353 O 1257.39 -0.517513 1.73757 0
M  V30 13354 C 1257.44 2.97968 2.03094 0
M  V30 13355 O 1256.55 2.70541 3.11257 0
M  V30 13356 H 1255.89 0.588576 0.307368 0
M  V30 13357 H 1258.42 2.01607 0.348703 0
M  V30 13358 H 1258.43 3.25722 2.45702 0
M  V30 13359 H 1257.1 3.88314 1.48948 0
M  V30 13360 H 1255.68 2.53781 2.7322 0
M  V30 13361 N 1257.86 -0.571685 1.46866 0
M  V30 13362 C 1258.79 -1.68994 1.61131 0
M  V30 13363 C 1259.77 -1.63728 0.461222 0
M  V30 13364 O 1260.96 -1.81574 0.688813 0
M  V30 13365 C 1258.09 -3.07638 1.61172 0
M  V30 13366 C 1257.04 -3.27742 2.75262 0
M  V30 13367 C 1256.37 -4.67025 2.60368 0
M  V30 13368 C 1257.67 -3.14511 4.16989 0
M  V30 13369 H 1259.36 -1.57311 2.54742 0
M  V30 13370 H 1256.91 -0.755382 1.22597 0
M  V30 13371 H 1258.86 -3.857 1.69744 0
M  V30 13372 H 1257.59 -3.20245 0.641122 0
M  V30 13373 H 1256.25 -2.52083 2.66176 0
M  V30 13374 H 1255.89 -4.76413 1.61368 0
M  V30 13375 H 1255.59 -4.81428 3.36899 0
M  V30 13376 H 1257.12 -5.47242 2.70848 0
M  V30 13377 H 1258.53 -3.82407 4.27128 0
M  V30 13378 H 1256.93 -3.40431 4.94193 0
M  V30 13379 H 1258 -2.11443 4.36371 0
M  V30 13380 N 1259.34 -1.34755 -0.817236 0
M  V30 13381 C 1260.59 -1.2718 -1.57066 0
M  V30 13382 C 1260.91 0.156531 -1.94371 0
M  V30 13383 O 1260.18 1.09049 -1.62742 0
M  V30 13384 H 1258.76 -0.467755 -0.582421 0
M  V30 13385 H 1261.42 -1.68734 -0.975438 0
M  V30 13386 H 1260.52 -1.88043 -2.49091 0
M  V30 13387 N 1260.82 1.03812 -1.18578 0
M  V30 13388 C 1261.78 2.10049 -0.91718 0
M  V30 13389 C 1262.78 1.60498 0.0985122 0
M  V30 13390 O 1263.97 1.73674 -0.135213 0
M  V30 13391 C 1261.1 3.38813 -0.376599 0
M  V30 13392 H 1262.3 2.3531 -1.85927 0
M  V30 13393 H 1259.85 1.20277 -0.998156 0
M  V30 13394 H 1260.59 3.19216 0.571983 0
M  V30 13395 H 1260.37 3.76096 -1.10881 0
M  V30 13396 H 1261.86 4.17084 -0.207453 0
M  V30 13397 N 1262.3 0.988223 1.22768 0
M  V30 13398 C 1263.55 0.660154 1.91014 0
M  V30 13399 C 1263.87 -0.809788 1.77391 0
M  V30 13400 O 1263.14 -1.57998 1.15817 0
M  V30 13401 H 1261.72 0.24118 0.706995 0
M  V30 13402 H 1264.38 1.25372 1.49224 0
M  V30 13403 H 1263.47 0.918603 2.98275 0
M  V30 13404 N 1263.78 -1.38018 0.760839 0
M  V30 13405 C 1264.69 -2.34181 0.140232 0
M  V30 13406 C 1265.7 -1.59635 -0.692287 0
M  V30 13407 O 1266.88 -1.91788 -0.614752 0
M  V30 13408 C 1263.94 -3.38778 -0.73693 0
M  V30 13409 C 1263 -4.29157 0.110792 0
M  V30 13410 C 1262.24 -5.28758 -0.724599 0
M  V30 13411 O 1262.46 -5.35585 -1.96226 0
M  V30 13412 O 1261.39 -6.01738 -0.139565 0
M  V30 13413 H 1265.22 -2.88962 0.934588 0
M  V30 13414 H 1262.8 -1.3999 0.521835 0
M  V30 13415 H 1264.69 -4.02804 -1.23803 0
M  V30 13416 H 1263.36 -2.86341 -1.50966 0
M  V30 13417 H 1262.27 -3.68268 0.658007 0
M  V30 13418 H 1263.6 -4.84869 0.846346 0
M  V30 13419 N 1265.25 -0.510493 -1.49103 0
M  V30 13420 C 1266.5 0.0306436 -2.02477 0
M  V30 13421 C 1266.83 1.36113 -1.38937 0
M  V30 13422 O 1266.08 1.88731 -0.517584 0
M  V30 13423 C 1266.38 0.221921 -3.5671 0
M  V30 13424 C 1266.05 -1.03176 -4.38937 0
M  V30 13425 C 1264.71 -1.37539 -4.61125 0
M  V30 13426 C 1267.06 -1.86464 -4.86704 0
M  V30 13427 C 1264.39 -2.55124 -5.28326 0
M  V30 13428 C 1266.74 -3.03211 -5.55199 0
M  V30 13429 C 1265.41 -3.37943 -5.75631 0
M  V30 13430 H 1264.68 0.0112133 -0.740915 0
M  V30 13431 H 1267.32 -0.672574 -1.79301 0
M  V30 13432 H 1265.63 1.00775 -3.78618 0
M  V30 13433 H 1267.33 0.655223 -3.95611 0
M  V30 13434 H 1263.92 -0.754105 -4.21914 0
M  V30 13435 H 1268.1 -1.61229 -4.69381 0
M  V30 13436 H 1263.36 -2.8226 -5.42346 0
M  V30 13437 H 1267.53 -3.68068 -5.91185 0
M  V30 13438 H 1265.16 -4.29158 -6.27477 0
M  V30 13439 N 1266.73 1.55688 -0.24474 0
M  V30 13440 C 1267.68 2.21289 0.655723 0
M  V30 13441 C 1268.65 1.17606 1.17295 0
M  V30 13442 O 1269.83 1.46045 1.22782 0
M  V30 13443 C 1266.97 2.91453 1.84794 0
M  V30 13444 C 1266.09 4.09787 1.36744 0
M  V30 13445 C 1265.22 4.67672 2.51905 0
M  V30 13446 C 1264.26 5.78259 2.00706 0
M  V30 13447 N 1263.4 6.30336 3.09225 0
M  V30 13448 H 1268.24 2.97865 0.0896156 0
M  V30 13449 H 1265.77 1.47064 0.0324725 0
M  V30 13450 H 1267.73 3.30331 2.54828 0
M  V30 13451 H 1266.36 2.17355 2.38656 0
M  V30 13452 H 1265.41 3.76237 0.561228 0
M  V30 13453 H 1266.73 4.89627 0.952199 0
M  V30 13454 H 1265.88 5.09113 3.29984 0
M  V30 13455 H 1264.62 3.87044 2.9673 0
M  V30 13456 H 1263.62 5.36298 1.21097 0
M  V30 13457 H 1264.85 6.60737 1.56853 0
M  V30 13458 H 1262.8 5.52614 3.53489 0
M  V30 13459 H 1262.71 7.05364 2.72025 0
M  V30 13460 H 1263.98 6.76435 3.8737 0
M  V30 13461 N 1268.21 -0.0283989 1.57574 0
M  V30 13462 C 1269.43 -0.734537 1.93957 0
M  V30 13463 C 1269.86 -1.68062 0.844787 0
M  V30 13464 O 1269.22 -1.802 -0.199432 0
M  V30 13465 C 1269.27 -1.46716 3.29404 0
M  V30 13466 O 1268.37 -2.58036 3.217 0
M  V30 13467 H 1267.71 -0.197507 0.633946 0
M  V30 13468 H 1270.24 0.0163258 2.04593 0
M  V30 13469 H 1270.25 -1.83693 3.64309 0
M  V30 13470 H 1268.93 -0.773292 4.08648 0
M  V30 13471 H 1267.5 -2.23597 2.98427 0
M  V30 13472 N 1269.69 -1.54705 -0.300681 0
M  V30 13473 C 1270.62 -1.8205 -1.39249 0
M  V30 13474 C 1271.63 -0.703476 -1.46816 0
M  V30 13475 O 1272.82 -0.980957 -1.49129 0
M  V30 13476 C 1269.92 -1.94376 -2.77617 0
M  V30 13477 C 1269.09 -3.2478 -2.92979 0
M  V30 13478 C 1268.15 -3.27518 -4.11848 0
M  V30 13479 O 1267.18 -4.01047 -4.03918 0
M  V30 13480 N 1268.38 -2.52932 -5.22499 0
M  V30 13481 H 1271.15 -2.76279 -1.16146 0
M  V30 13482 H 1268.71 -1.54283 -0.49075 0
M  V30 13483 H 1270.7 -1.93609 -3.55384 0
M  V30 13484 H 1269.27 -1.07141 -2.93666 0
M  V30 13485 H 1268.49 -3.38319 -2.02322 0
M  V30 13486 H 1269.78 -4.10835 -3.00153 0
M  V30 13487 H 1269.18 -1.92825 -5.31822 0
M  V30 13488 H 1267.73 -2.57919 -5.98599 0
M  V30 13489 N 1271.17 0.563888 -1.47167 0
M  V30 13490 C 1272.08 1.69903 -1.61772 0
M  V30 13491 C 1273.09 1.6664 -0.500705 0
M  V30 13492 O 1274.27 1.86209 -0.767354 0
M  V30 13493 C 1271.33 3.06411 -1.62213 0
M  V30 13494 C 1270.39 3.20793 -2.8529 0
M  V30 13495 C 1269.63 4.50789 -2.85701 0
M  V30 13496 O 1269.85 5.3584 -1.95529 0
M  V30 13497 O 1268.78 4.68819 -3.77481 0
M  V30 13498 H 1272.61 1.60525 -2.57809 0
M  V30 13499 H 1270.2 0.733125 -1.30175 0
M  V30 13500 H 1272.08 3.87659 -1.65221 0
M  V30 13501 H 1270.75 3.16186 -0.693415 0
M  V30 13502 H 1269.66 2.38967 -2.87829 0
M  V30 13503 H 1270.99 3.15918 -3.77434 0
M  V30 13504 N 1272.64 1.35187 0.810078 0
M  V30 13505 C 1273.59 1.24366 1.91094 0
M  V30 13506 C 1274.58 0.139718 1.60292 0
M  V30 13507 O 1275.77 0.370609 1.73077 0
M  V30 13508 C 1272.9 1.01434 3.27973 0
M  V30 13509 C 1271.99 2.16203 3.64852 0
M  V30 13510 N 1272.38 3.41408 3.73195 0
M  V30 13511 C 1270.67 2.07512 3.94784 0
M  V30 13512 C 1271.38 4.16858 4.05714 0
M  V30 13513 N 1270.35 3.45579 4.19614 0
M  V30 13514 H 1274.15 2.19232 1.95741 0
M  V30 13515 H 1271.67 1.2761 1.00447 0
M  V30 13516 H 1273.66 0.91771 4.06674 0
M  V30 13517 H 1272.32 0.074495 3.24615 0
M  V30 13518 H 1273.34 3.75802 3.56361 0
M  V30 13519 H 1270.01 1.21362 3.99472 0
M  V30 13520 H 1271.4 5.25039 4.19266 0
M  V30 13521 N 1274.12 -1.03182 1.19127 0
M  V30 13522 C 1275.09 -2.09559 0.928307 0
M  V30 13523 C 1276.09 -1.60548 -0.0899992 0
M  V30 13524 O 1277.28 -1.736 0.144422 0
M  V30 13525 C 1274.41 -3.38609 0.394561 0
M  V30 13526 H 1275.6 -2.34321 1.87173 0
M  V30 13527 H 1273.15 -1.19746 1.00452 0
M  V30 13528 H 1273.89 -3.19515 -0.555046 0
M  V30 13529 H 1273.67 -3.75502 1.12873 0
M  V30 13530 H 1275.16 -4.16969 0.229569 0
M  V30 13531 N 1275.6 -0.99472 -1.22242 0
M  V30 13532 C 1276.55 -0.546504 -2.24236 0
M  V30 13533 C 1277.52 0.422101 -1.60647 0
M  V30 13534 O 1278.7 0.326452 -1.87987 0
M  V30 13535 C 1275.84 0.130909 -3.44852 0
M  V30 13536 C 1274.96 -0.879653 -4.22949 0
M  V30 13537 C 1274.09 -0.175569 -5.3091 0
M  V30 13538 C 1273.13 -1.17438 -6.00729 0
M  V30 13539 N 1272.27 -0.498474 -7.00328 0
M  V30 13540 H 1277.11 -1.42099 -2.61939 0
M  V30 13541 H 1274.64 -0.711755 -1.28734 0
M  V30 13542 H 1276.6 0.540596 -4.13683 0
M  V30 13543 H 1275.23 0.96917 -3.07907 0
M  V30 13544 H 1274.28 -1.40765 -3.53397 0
M  V30 13545 H 1275.6 -1.64017 -4.71062 0
M  V30 13546 H 1274.75 0.290756 -6.06003 0
M  V30 13547 H 1273.49 0.617438 -4.83776 0
M  V30 13548 H 1272.49 -1.65131 -5.24416 0
M  V30 13549 H 1273.72 -1.96829 -6.4995 0
M  V30 13550 H 1271.66 0.275063 -6.55423 0
M  V30 13551 H 1271.58 -1.19741 -7.46457 0
M  V30 13552 H 1272.85 -0.0550119 -7.79481 0
M  V30 13553 N 1277.08 1.37613 -0.768148 0
M  V30 13554 C 1278.03 2.27654 -0.125596 0
M  V30 13555 C 1279.01 1.45923 0.677883 0
M  V30 13556 O 1280.2 1.68515 0.541448 0
M  V30 13557 C 1277.33 3.34884 0.7555 0
M  V30 13558 C 1276.42 4.24064 -0.0556137 0
M  V30 13559 N 1276.81 4.93707 -1.09943 0
M  V30 13560 C 1275.11 4.4568 0.168932 0
M  V30 13561 C 1275.81 5.59508 -1.59142 0
M  V30 13562 N 1274.79 5.36027 -0.904208 0
M  V30 13563 H 1278.59 2.7897 -0.924828 0
M  V30 13564 H 1276.1 1.50687 -0.605561 0
M  V30 13565 H 1278.1 3.98294 1.23157 0
M  V30 13566 H 1276.76 2.85124 1.55352 0
M  V30 13567 H 1277.77 4.96258 -1.48151 0
M  V30 13568 H 1274.45 4.068 0.939144 0
M  V30 13569 H 1275.84 6.2518 -2.4617 0
M  V30 13570 N 1278.56 0.518393 1.4883 0
M  V30 13571 C 1279.5 -0.250684 2.29435 0
M  V30 13572 C 1280.47 -0.944481 1.36634 0
M  V30 13573 O 1281.66 -0.947766 1.65596 0
M  V30 13574 C 1278.8 -1.29871 3.1973 0
M  V30 13575 C 1277.91 -0.61493 4.27601 0
M  V30 13576 C 1277.05 -1.64489 5.05091 0
M  V30 13577 C 1276.09 -0.943932 6.04778 0
M  V30 13578 N 1275.22 -1.91889 6.75369 0
M  V30 13579 H 1280.06 0.44288 2.94691 0
M  V30 13580 H 1277.6 0.230246 1.45287 0
M  V30 13581 H 1279.56 -1.91851 3.70471 0
M  V30 13582 H 1278.19 -1.96081 2.56422 0
M  V30 13583 H 1277.24 0.118552 3.80215 0
M  V30 13584 H 1278.55 -0.063994 4.98759 0
M  V30 13585 H 1277.71 -2.33928 5.59788 0
M  V30 13586 H 1276.44 -2.2297 4.33746 0
M  V30 13587 H 1275.45 -0.235407 5.49296 0
M  V30 13588 H 1276.67 -0.365383 6.78116 0
M  V30 13589 H 1274.62 -2.493 6.06783 0
M  V30 13590 H 1274.54 -1.41909 7.42562 0
M  V30 13591 H 1275.81 -2.60563 7.34661 0
M  V30 13592 N 1280.03 -1.55556 0.252993 0
M  V30 13593 C 1281.28 -1.98697 -0.369319 0
M  V30 13594 C 1281.6 -1.14256 -1.58021 0
M  V30 13595 O 1280.87 -0.226779 -1.94583 0
M  V30 13596 H 1279.45 -0.733869 -0.139444 0
M  V30 13597 H 1282.12 -1.91673 0.353197 0
M  V30 13598 H 1281.21 -3.04728 -0.674312 0
M  V30 13599 N 1281.51 0.0200419 -1.57587 0
M  V30 13600 C 1282.92 0.565484 -1.7793 0
M  V30 13601 C 1283.27 1.75096 -0.885201 0
M  V30 13602 O 1282.4 2.16243 -0.0823831 0
M  V30 13603 C 1282.99 1.03263 -3.2268 0
M  V30 13604 C 1281.55 1.52352 -3.44189 0
M  V30 13605 C 1280.7 0.465637 -2.73363 0
M  V30 13606 H 1283.65 -0.206174 -1.57355 0
M  V30 13607 H 1283.67 1.89959 -3.2969 0
M  V30 13608 H 1283.18 0.169613 -3.87729 0
M  V30 13609 H 1281.29 2.40809 -2.84327 0
M  V30 13610 H 1281.4 1.5648 -4.52825 0
M  V30 13611 H 1279.76 0.922738 -2.37398 0
M  V30 13612 H 1280.55 -0.388068 -3.411 0
M  V30 13613 N 1282.99 1.54862 0.292472 0
M  V30 13614 C 1283.94 1.86403 1.36098 0
M  V30 13615 C 1284.91 0.713694 1.49985 0
M  V30 13616 O 1286.09 0.963134 1.64707 0
M  V30 13617 C 1283.23 2.1244 2.71962 0
M  V30 13618 C 1282.35 3.40038 2.66454 0
M  V30 13619 C 1281.48 3.55875 3.94368 0
M  V30 13620 C 1280.52 4.77235 3.83293 0
M  V30 13621 N 1279.66 4.89832 5.03 0
M  V30 13622 H 1284.5 2.77546 1.085 0
M  V30 13623 H 1282.03 1.37427 0.524607 0
M  V30 13624 H 1283.99 2.25533 3.50985 0
M  V30 13625 H 1282.62 1.24554 2.97802 0
M  V30 13626 H 1281.67 3.35521 1.79248 0
M  V30 13627 H 1282.99 4.29188 2.54163 0
M  V30 13628 H 1282.14 3.68679 4.8183 0
M  V30 13629 H 1280.88 2.64874 4.09503 0
M  V30 13630 H 1279.88 4.64455 2.94214 0
M  V30 13631 H 1281.11 5.69651 3.69695 0
M  V30 13632 H 1279.05 4.01756 5.18582 0
M  V30 13633 H 1278.97 5.72996 4.93165 0
M  V30 13634 H 1280.24 5.07001 5.92089 0
M  V30 13635 N 1284.47 -0.556076 1.47464 0
M  V30 13636 C 1285.71 -1.31515 1.54375 0
M  V30 13637 C 1286.05 -1.93106 0.205837 0
M  V30 13638 O 1285.32 -1.77927 -0.785643 0
M  V30 13639 C 1285.61 -2.4244 2.66261 0
M  V30 13640 C 1285.46 -1.8571 4.09673 0
M  V30 13641 C 1286.78 -3.4436 2.74051 0
M  V30 13642 H 1283.9 -0.476817 0.561974 0
M  V30 13643 H 1286.54 -0.622157 1.79525 0
M  V30 13644 H 1284.69 -3.01551 2.44948 0
M  V30 13645 H 1286.36 -1.30851 4.42353 0
M  V30 13646 H 1284.6 -1.16379 4.17898 0
M  V30 13647 H 1285.27 -2.65904 4.83735 0
M  V30 13648 H 1287.75 -2.95169 2.93282 0
M  V30 13649 H 1286.63 -4.194 3.54111 0
M  V30 13650 H 1286.89 -4.03281 1.81155 0
M  V30 13651 N 1285.95 -1.35615 -0.802897 0
M  V30 13652 C 1286.86 -1.3096 -1.94645 0
M  V30 13653 C 1287.87 -0.213909 -1.7268 0
M  V30 13654 O 1289.05 -0.443932 -1.96446 0
M  V30 13655 C 1286.11 -1.08483 -3.2929 0
M  V30 13656 C 1285.18 -2.27401 -3.64126 0
M  V30 13657 C 1284.41 -2.05987 -4.92347 0
M  V30 13658 O 1284.63 -1.02819 -5.61057 0
M  V30 13659 O 1283.57 -2.93439 -5.25526 0
M  V30 13660 H 1287.39 -2.27209 -2.01519 0
M  V30 13661 H 1284.98 -1.16024 -0.941214 0
M  V30 13662 H 1286.86 -0.978118 -4.09891 0
M  V30 13663 H 1285.53 -0.152885 -3.23339 0
M  V30 13664 H 1284.44 -2.43638 -2.83886 0
M  V30 13665 H 1285.77 -3.19055 -3.74786 0
M  V30 13666 N 1287.43 1.02549 -1.19673 0
M  V30 13667 C 1288.84 1.28271 -0.94967 0
M  V30 13668 C 1289.04 1.97961 0.37599 0
M  V30 13669 O 1288.1 2.26955 1.10668 0
M  V30 13670 C 1289.41 2.12647 -2.12607 0
M  V30 13671 C 1290.96 2.25943 -2.16607 0
M  V30 13672 C 1291.43 3.13693 -3.33708 0
M  V30 13673 N 1292.92 3.21281 -3.33665 0
M  V30 13674 C 1293.66 3.89377 -4.20919 0
M  V30 13675 N 1293.16 4.59675 -5.18334 0
M  V30 13676 N 1294.95 3.85811 -4.08786 0
M  V30 13677 H 1287.1 0.557304 -2.04958 0
M  V30 13678 H 1289.36 0.308531 -0.896389 0
M  V30 13679 H 1289.07 1.68766 -3.08563 0
M  V30 13680 H 1288.94 3.13367 -2.09955 0
M  V30 13681 H 1291.33 2.69053 -1.2122 0
M  V30 13682 H 1291.41 1.24762 -2.23311 0
M  V30 13683 H 1291.05 2.7129 -4.29376 0
M  V30 13684 H 1290.98 4.14941 -3.2424 0
M  V30 13685 H 1293.48 2.71218 -2.63152 0
M  V30 13686 H 1293.79 5.09277 -5.81254 0
M  V30 13687 H 1292.13 4.58529 -5.22279 0
M  V30 13688 H 1295.32 3.30033 -3.31957 0
M  V30 13689 H 1295.5 4.38607 -4.76999 0
M  V30 13690 N 1288.9 1.00119 1.21713 0
M  V30 13691 C 1290.18 0.597366 1.86255 0
M  V30 13692 C 1290.56 -0.925124 1.89749 0
M  V30 13693 O 1289.91 -1.8105 1.39402 0
M  V30 13694 C 1290.12 1.22735 3.26707 0
M  V30 13695 C 1291.47 1.33307 4.03131 0
M  V30 13696 O 1292.49 1.18237 3.36003 0
M  V30 13697 O 1291.35 1.57509 5.2331 0
M  V30 13698 H 1288.44 0.204091 0.801421 0
M  V30 13699 H 1290.99 1.09759 1.29426 0
M  V30 13700 H 1289.76 2.26837 3.18843 0
M  V30 13701 H 1289.38 0.713232 3.91151 0
M  V30 13702 N 1290.38 -1.37203 0.775435 0
M  V30 13703 C 1291.31 -2.28873 0.122374 0
M  V30 13704 C 1292.33 -1.48811 -0.660239 0
M  V30 13705 O 1293.52 -1.7142 -0.497724 0
M  V30 13706 C 1290.62 -3.28062 -0.850212 0
M  V30 13707 C 1289.79 -4.37234 -0.120633 0
M  V30 13708 C 1288.85 -5.16472 -1.00712 0
M  V30 13709 O 1287.87 -5.6726 -0.469528 0
M  V30 13710 N 1289.08 -5.31556 -2.33299 0
M  V30 13711 H 1291.84 -2.85559 0.909741 0
M  V30 13712 H 1289.4 -1.49219 0.628107 0
M  V30 13713 H 1291.39 -3.77956 -1.44678 0
M  V30 13714 H 1289.96 -2.72118 -1.53853 0
M  V30 13715 H 1289.18 -3.88688 0.656879 0
M  V30 13716 H 1290.47 -5.07354 0.383358 0
M  V30 13717 H 1289.87 -4.91883 -2.79406 0
M  V30 13718 H 1288.43 -5.84745 -2.87953 0
M  V30 13719 N 1291.86 -0.526279 -1.48553 0
M  V30 13720 C 1292.82 0.227739 -2.28066 0
M  V30 13721 C 1293.82 0.871146 -1.35158 0
M  V30 13722 O 1295.01 0.731769 -1.58085 0
M  V30 13723 C 1292.14 1.32918 -3.1392 0
M  V30 13724 H 1293.34 -0.470313 -2.96189 0
M  V30 13725 H 1290.89 -0.282089 -1.53733 0
M  V30 13726 H 1291.63 2.0606 -2.50419 0
M  V30 13727 H 1291.41 0.872991 -3.82258 0
M  V30 13728 H 1292.9 1.85964 -3.73908 0
M  V30 13729 N 1293.34 1.5542 -0.261239 0
M  V30 13730 C 1294.3 2.20683 0.619011 0
M  V30 13731 C 1295.3 1.18042 1.09192 0
M  V30 13732 O 1296.49 1.43035 0.99432 0
M  V30 13733 C 1293.62 2.86179 1.85242 0
M  V30 13734 H 1294.82 2.99859 0.0493924 0
M  V30 13735 H 1292.37 1.56296 -0.0117687 0
M  V30 13736 H 1293.1 2.10978 2.4629 0
M  V30 13737 H 1292.89 3.61381 1.52138 0
M  V30 13738 H 1294.38 3.36081 2.47869 0
M  V30 13739 N 1294.82 -0.0116844 1.57596 0
M  V30 13740 C 1295.76 -1.00684 2.07681 0
M  V30 13741 C 1296.73 -1.34858 0.969666 0
M  V30 13742 O 1297.92 -1.44896 1.24136 0
M  V30 13743 C 1295.06 -2.29729 2.57524 0
M  V30 13744 C 1294.17 -2.0156 3.82096 0
M  V30 13745 C 1293.31 -3.24601 4.20485 0
M  V30 13746 C 1292.34 -2.92066 5.37925 0
M  V30 13747 N 1291.48 -4.0761 5.71663 0
M  V30 13748 H 1296.32 -0.572787 2.92443 0
M  V30 13749 H 1293.86 -0.271184 1.44579 0
M  V30 13750 H 1295.82 -3.05152 2.84496 0
M  V30 13751 H 1294.45 -2.70824 1.75653 0
M  V30 13752 H 1293.5 -1.16556 3.62103 0
M  V30 13753 H 1294.81 -1.73572 4.67626 0
M  V30 13754 H 1293.96 -4.08379 4.48677 0
M  V30 13755 H 1292.7 -3.55718 3.3364 0
M  V30 13756 H 1291.71 -2.06693 5.09468 0
M  V30 13757 H 1292.93 -2.62209 6.26437 0
M  V30 13758 H 1290.88 -4.38645 4.87777 0
M  V30 13759 H 1290.8 -3.83105 6.51741 0
M  V30 13760 H 1292.06 -4.92211 6.04441 0
M  V30 13761 N 1296.29 -1.55015 -0.284256 0
M  V30 13762 C 1297.24 -1.83508 -1.3531 0
M  V30 13763 C 1298.23 -0.693244 -1.452 0
M  V30 13764 O 1299.42 -0.954312 -1.4907 0
M  V30 13765 C 1296.55 -2.10059 -2.71533 0
M  V30 13766 C 1295.63 -3.30472 -2.65799 0
M  V30 13767 N 1296.03 -4.50644 -2.29682 0
M  V30 13768 C 1294.32 -3.32836 -2.96878 0
M  V30 13769 C 1295.02 -5.32708 -2.33661 0
M  V30 13770 N 1294 -4.70837 -2.71687 0
M  V30 13771 H 1297.8 -2.73973 -1.06377 0
M  V30 13772 H 1295.32 -1.5474 -0.492875 0
M  V30 13773 H 1297.31 -2.28624 -3.48621 0
M  V30 13774 H 1295.97 -1.20872 -3.01364 0
M  V30 13775 H 1296.98 -4.76945 -2.0185 0
M  V30 13776 H 1293.66 -2.53807 -3.31494 0
M  V30 13777 H 1295.05 -6.38766 -2.08394 0
M  V30 13778 N 1297.77 0.548248 -1.47757 0
M  V30 13779 C 1299.19 0.875048 -1.33473 0
M  V30 13780 C 1299.39 1.98747 -0.331952 0
M  V30 13781 O 1298.44 2.51226 0.253348 0
M  V30 13782 C 1299.76 1.25982 -2.73037 0
M  V30 13783 C 1301.3 1.37074 -2.81389 0
M  V30 13784 C 1301.78 1.78902 -4.21613 0
M  V30 13785 N 1303.27 1.86037 -4.24198 0
M  V30 13786 C 1304.01 2.1975 -5.2962 0
M  V30 13787 N 1303.5 2.52013 -6.45338 0
M  V30 13788 N 1305.29 2.206 -5.17003 0
M  V30 13789 H 1297.45 -0.186033 -2.11584 0
M  V30 13790 H 1299.71 -0.0205687 -0.947777 0
M  V30 13791 H 1299.41 0.516188 -3.47891 0
M  V30 13792 H 1299.29 2.21402 -3.05387 0
M  V30 13793 H 1301.68 2.10517 -2.06801 0
M  V30 13794 H 1301.76 0.398193 -2.52682 0
M  V30 13795 H 1301.4 1.06026 -4.9671 0
M  V30 13796 H 1301.33 2.77176 -4.47751 0
M  V30 13797 H 1303.82 1.63455 -3.40721 0
M  V30 13798 H 1304.13 2.7679 -7.21531 0
M  V30 13799 H 1302.48 2.49573 -6.48643 0
M  V30 13800 H 1305.67 1.9484 -4.25623 0
M  V30 13801 H 1305.84 2.46543 -5.99267 0
M  V30 13802 N 1299.25 1.36039 0.795694 0
M  V30 13803 C 1300.5 1.29919 1.5533 0
M  V30 13804 C 1300.82 -0.123325 1.94109 0
M  V30 13805 O 1300.08 -1.09115 1.62457 0
M  V30 13806 C 1300.38 2.16166 2.84617 0
M  V30 13807 C 1300.04 3.64805 2.65006 0
M  V30 13808 C 1298.71 4.05319 2.59365 0
M  V30 13809 C 1301.06 4.59073 2.46781 0
M  V30 13810 C 1298.39 5.38251 2.33458 0
M  V30 13811 C 1300.74 5.92216 2.22402 0
M  V30 13812 C 1299.4 6.31862 2.1519 0
M  V30 13813 H 1298.67 0.475408 0.568391 0
M  V30 13814 H 1301.32 1.68035 0.918512 0
M  V30 13815 H 1299.62 1.70967 3.5253 0
M  V30 13816 H 1301.32 2.0876 3.42375 0
M  V30 13817 H 1297.91 3.32662 2.70248 0
M  V30 13818 H 1302.1 4.28651 2.50144 0
M  V30 13819 H 1297.35 5.67957 2.26352 0
M  V30 13820 H 1301.53 6.64833 2.07293 0
M  V30 13821 H 1299.15 7.34797 1.94878 0
M  V30 13822 N 1300.73 -1.01913 1.20215 0
M  V30 13823 C 1301.95 -1.79613 1.03702 0
M  V30 13824 C 1302.38 -1.83591 -0.409374 0
M  V30 13825 O 1301.74 -1.26911 -1.29473 0
M  V30 13826 C 1301.78 -3.22052 1.62219 0
M  V30 13827 O 1300.89 -4.03374 0.858106 0
M  V30 13828 H 1300.23 -0.554095 0.365889 0
M  V30 13829 H 1302.76 -1.28203 1.59452 0
M  V30 13830 H 1302.77 -3.72772 1.65847 0
M  V30 13831 H 1301.44 -3.18471 2.67487 0
M  V30 13832 H 1300.02 -3.6198 0.895835 0
M  V30 13833 N 1302.21 -1.00763 -1.2118 0
M  V30 13834 C 1303.45 -0.702542 -1.90882 0
M  V30 13835 C 1303.81 0.758686 -1.7681 0
M  V30 13836 O 1303.1 1.54313 -1.1357 0
M  V30 13837 C 1303.29 -1.06187 -3.41261 0
M  V30 13838 C 1303.12 -2.55648 -3.69965 0
M  V30 13839 C 1301.89 -3.2229 -3.89175 0
M  V30 13840 C 1304.09 -3.53814 -3.73256 0
M  V30 13841 N 1302.07 -4.61075 -4.05319 0
M  V30 13842 C 1303.44 -4.7812 -3.94716 0
M  V30 13843 C 1305.5 -3.47913 -3.56175 0
M  V30 13844 C 1304.2 -5.97242 -4.00867 0
M  V30 13845 C 1306.23 -4.66427 -3.63593 0
M  V30 13846 C 1305.59 -5.89539 -3.85517 0
M  V30 13847 H 1301.69 -0.3086 -0.718533 0
M  V30 13848 H 1304.27 -1.29063 -1.45776 0
M  V30 13849 H 1302.44 -0.502205 -3.8514 0
M  V30 13850 H 1304.18 -0.711246 -3.98401 0
M  V30 13851 H 1300.93 -2.7273 -3.87189 0
M  V30 13852 H 1301.36 -5.33105 -4.17287 0
M  V30 13853 H 1306 -2.53735 -3.38199 0
M  V30 13854 H 1303.72 -6.9181 -4.17642 0
M  V30 13855 H 1307.3 -4.63467 -3.51695 0
M  V30 13856 H 1306.18 -6.79711 -3.91104 0
M  V30 13857 N 1303.68 1.3679 -0.7827 0
M  V30 13858 C 1304.62 2.27871 -0.122531 0
M  V30 13859 C 1305.6 1.46885 0.697399 0
M  V30 13860 O 1306.78 1.76198 0.669819 0
M  V30 13861 C 1303.91 3.28314 0.832311 0
M  V30 13862 C 1302.95 4.26394 0.0950152 0
M  V30 13863 S 1303.79 5.2131 -1.22457 0
M  V30 13864 C 1304.94 6.25302 -0.273558 0
M  V30 13865 H 1305.17 2.83514 -0.894814 0
M  V30 13866 H 1302.71 1.43229 -0.5766 0
M  V30 13867 H 1304.67 3.86688 1.37778 0
M  V30 13868 H 1303.33 2.71597 1.57779 0
M  V30 13869 H 1302.52 4.97297 0.819278 0
M  V30 13870 H 1302.12 3.72067 -0.379778 0
M  V30 13871 H 1304.41 6.75263 0.550064 0
M  V30 13872 H 1305.36 7.01684 -0.951071 0
M  V30 13873 H 1305.76 5.64372 0.120115 0
M  V30 13874 N 1305.16 0.53415 1.48272 0
M  V30 13875 C 1306.11 -0.226335 2.29688 0
M  V30 13876 C 1307.08 -0.929937 1.37628 0
M  V30 13877 O 1308.26 -0.930149 1.66592 0
M  V30 13878 C 1305.4 -1.26472 3.2109 0
M  V30 13879 C 1304.52 -0.569542 4.28229 0
M  V30 13880 C 1303.65 -1.59122 5.06807 0
M  V30 13881 C 1302.69 -0.879734 6.05745 0
M  V30 13882 N 1301.83 -1.84715 6.77366 0
M  V30 13883 H 1306.67 0.474111 2.94204 0
M  V30 13884 H 1304.21 0.245643 1.45034 0
M  V30 13885 H 1306.16 -1.87911 3.72485 0
M  V30 13886 H 1304.79 -1.9335 2.58487 0
M  V30 13887 H 1303.85 0.158872 3.80068 0
M  V30 13888 H 1305.16 -0.0110904 4.98799 0
M  V30 13889 H 1304.31 -2.27977 5.62238 0
M  V30 13890 H 1303.05 -2.18357 4.36086 0
M  V30 13891 H 1302.06 -0.177134 5.49515 0
M  V30 13892 H 1303.28 -0.293439 6.78466 0
M  V30 13893 H 1301.23 -2.42851 6.09393 0
M  V30 13894 H 1301.14 -1.34025 7.44025 0
M  V30 13895 H 1302.41 -2.52756 7.37384 0
M  V30 13896 N 1306.64 -1.55279 0.269478 0
M  V30 13897 C 1307.57 -2.25278 -0.614188 0
M  V30 13898 C 1308.55 -1.24092 -1.1634 0
M  V30 13899 O 1309.74 -1.52799 -1.19858 0
M  V30 13900 C 1306.87 -2.96956 -1.80096 0
M  V30 13901 C 1305.82 -4.05021 -1.38353 0
M  V30 13902 C 1305.15 -4.64244 -2.65295 0
M  V30 13903 C 1306.45 -5.19523 -0.537886 0
M  V30 13904 H 1308.14 -2.99385 -0.0304397 0
M  V30 13905 H 1305.69 -1.43994 -0.0132004 0
M  V30 13906 H 1307.64 -3.44633 -2.42499 0
M  V30 13907 H 1306.36 -2.20374 -2.41045 0
M  V30 13908 H 1305.02 -3.58146 -0.78273 0
M  V30 13909 H 1304.67 -3.84337 -3.2449 0
M  V30 13910 H 1304.37 -5.37208 -2.38079 0
M  V30 13911 H 1305.89 -5.14668 -3.28557 0
M  V30 13912 H 1307.31 -5.63287 -1.06677 0
M  V30 13913 H 1305.71 -5.99014 -0.360845 0
M  V30 13914 H 1306.78 -4.82857 0.444672 0
M  V30 13915 N 1308.12 0.00332656 -1.576 0
M  V30 13916 C 1309.05 0.994803 -2.11248 0
M  V30 13917 C 1310.03 1.36061 -1.02085 0
M  V30 13918 O 1311.21 1.44494 -1.2975 0
M  V30 13919 C 1308.34 2.28772 -2.61306 0
M  V30 13920 C 1307.3 2.06362 -3.74965 0
M  V30 13921 C 1306.62 3.41638 -4.11324 0
M  V30 13922 C 1307.92 1.4289 -5.02374 0
M  V30 13923 H 1309.62 0.548119 -2.9434 0
M  V30 13924 H 1307.16 0.262208 -1.41593 0
M  V30 13925 H 1309.12 2.98485 -2.97464 0
M  V30 13926 H 1307.84 2.75547 -1.75332 0
M  V30 13927 H 1306.5 1.39076 -3.39195 0
M  V30 13928 H 1306.15 3.8611 -3.22379 0
M  V30 13929 H 1305.85 3.2746 -4.87897 0
M  V30 13930 H 1307.37 4.12671 -4.50039 0
M  V30 13931 H 1308.79 2.02555 -5.36325 0
M  V30 13932 H 1307.18 1.3921 -5.8373 0
M  V30 13933 H 1308.25 0.397708 -4.83266 0
M  V30 13934 N 1309.6 1.55164 0.276031 0
M  V30 13935 C 1310.56 1.87065 1.32436 0
M  V30 13936 C 1311.56 0.745024 1.42499 0
M  V30 13937 O 1312.75 1.01321 1.41702 0
M  V30 13938 C 1309.88 2.07322 2.70611 0
M  V30 13939 H 1311.07 2.80775 1.05382 0
M  V30 13940 H 1308.63 1.47609 0.513947 0
M  V30 13941 H 1309.36 1.15983 3.0285 0
M  V30 13942 H 1309.15 2.89275 2.64693 0
M  V30 13943 H 1310.64 2.33287 3.46362 0
M  V30 13944 N 1311.07 -0.540404 1.48045 0
M  V30 13945 C 1312.02 -1.64191 1.58194 0
M  V30 13946 C 1313.01 -1.54775 0.439703 0
M  V30 13947 O 1314.2 -1.62973 0.690572 0
M  V30 13948 C 1311.33 -3.02937 1.61505 0
M  V30 13949 C 1310.42 -3.17495 2.81172 0
M  V30 13950 N 1310.81 -3.02061 4.05701 0
M  V30 13951 C 1309.1 -3.4853 2.78286 0
M  V30 13952 C 1309.81 -3.19757 4.85932 0
M  V30 13953 N 1308.78 -3.46859 4.18557 0
M  V30 13954 H 1312.58 -1.50852 2.52232 0
M  V30 13955 H 1310.1 -0.745602 1.44272 0
M  V30 13956 H 1312.09 -3.82048 1.66868 0
M  V30 13957 H 1310.75 -3.17376 0.685753 0
M  V30 13958 H 1311.77 -2.79038 4.363 0
M  V30 13959 H 1308.44 -3.69391 1.94567 0
M  V30 13960 H 1309.83 -3.1265 5.94727 0
M  V30 13961 N 1312.55 -1.36459 -0.788468 0
M  V30 13962 C 1313.5 -1.30863 -1.90115 0
M  V30 13963 C 1314.47 -0.177148 -1.65153 0
M  V30 13964 O 1315.65 -0.363817 -1.87299 0
M  V30 13965 C 1312.79 -1.10473 -3.2694 0
M  V30 13966 C 1311.91 -2.32704 -3.63968 0
M  V30 13967 C 1311.04 -2.05319 -4.89916 0
M  V30 13968 C 1310.08 -3.23506 -5.19625 0
M  V30 13969 N 1309.22 -2.9578 -6.36756 0
M  V30 13970 H 1314.06 -2.26003 -1.94233 0
M  V30 13971 H 1311.6 -1.12324 -0.949827 0
M  V30 13972 H 1313.55 -0.966773 -4.05844 0
M  V30 13973 H 1312.18 -0.189873 -3.22241 0
M  V30 13974 H 1311.24 -2.573 -2.8018 0
M  V30 13975 H 1312.55 -3.20899 -3.81871 0
M  V30 13976 H 1311.7 -1.88459 -5.76687 0
M  V30 13977 H 1310.44 -1.14437 -4.74084 0
M  V30 13978 H 1309.45 -3.40924 -4.31336 0
M  V30 13979 H 1310.67 -4.15216 -5.37376 0
M  V30 13980 H 1308.62 -2.0751 -6.22315 0
M  V30 13981 H 1308.53 -3.77513 -6.54996 0
M  V30 13982 H 1309.8 -2.825 -7.26508 0
M  V30 13983 N 1314.03 1.01274 -1.20754 0
M  V30 13984 C 1315.28 1.75191 -1.02156 0
M  V30 13985 C 1315.61 1.89038 0.444791 0
M  V30 13986 O 1314.88 1.41903 1.33018 0
M  V30 13987 C 1315.17 3.16892 -1.71031 0
M  V30 13988 C 1315.02 3.10816 -3.25136 0
M  V30 13989 C 1316.34 4.15648 -1.44654 0
M  V30 13990 H 1313.46 0.635922 -0.372521 0
M  V30 13991 H 1316.1 1.18119 -1.48822 0
M  V30 13992 H 1314.25 3.6562 -1.31357 0
M  V30 13993 H 1315.92 2.69863 -3.74128 0
M  V30 13994 H 1314.17 2.48113 -3.5584 0
M  V30 13995 H 1314.84 4.11001 -3.68487 0
M  V30 13996 H 1317.31 3.75592 -1.7908 0
M  V30 13997 H 1316.19 5.12954 -1.95371 0
M  V30 13998 H 1316.45 4.40507 -0.37494 0
M  V30 13999 N 1315.51 1.01404 1.20644 0
M  V30 14000 C 1316.76 0.700523 1.89571 0
M  V30 14001 C 1317.08 -0.771978 1.79068 0
M  V30 14002 O 1316.35 -1.55506 1.19142 0
M  V30 14003 H 1314.93 0.256122 0.70172 0
M  V30 14004 H 1317.59 1.28509 1.46531 0
M  V30 14005 H 1316.69 0.981665 2.9626 0
M  V30 14006 N 1316.99 -1.36373 0.789944 0
M  V30 14007 C 1318.4 -1.52471 0.471686 0
M  V30 14008 C 1318.6 -1.74365 -1.0099 0
M  V30 14009 O 1317.66 -1.77546 -1.79538 0
M  V30 14010 C 1318.97 -2.71022 1.30259 0
M  V30 14011 C 1320.52 -2.84893 1.29633 0
M  V30 14012 C 1321 -4.0645 2.11098 0
M  V30 14013 N 1322.49 -4.13597 2.08547 0
M  V30 14014 C 1323.22 -5.06731 2.6835 0
M  V30 14015 N 1322.72 -6.05305 3.37013 0
M  V30 14016 N 1324.51 -4.9935 2.58081 0
M  V30 14017 H 1316.66 -1.20416 1.74968 0
M  V30 14018 H 1318.92 -0.587782 0.743785 0
M  V30 14019 H 1318.63 -2.61368 2.35329 0
M  V30 14020 H 1318.5 -3.6519 0.944254 0
M  V30 14021 H 1320.89 -2.94009 0.253542 0
M  V30 14022 H 1320.97 -1.91632 1.69443 0
M  V30 14023 H 1320.62 -3.98096 3.15408 0
M  V30 14024 H 1320.55 -4.98861 1.68659 0
M  V30 14025 H 1323.04 -3.4302 1.58573 0
M  V30 14026 H 1323.35 -6.72934 3.79974 0
M  V30 14027 H 1321.7 -6.05529 3.41116 0
M  V30 14028 H 1324.89 -4.21291 2.04039 0
M  V30 14029 H 1325.06 -5.71745 3.04979 0
M  V30 14030 N 1318.47 -0.542005 -1.47987 0
M  V30 14031 C 1319.42 0.234244 -2.26794 0
M  V30 14032 C 1320.4 0.899085 -1.33436 0
M  V30 14033 O 1321.59 0.799904 -1.57894 0
M  V30 14034 C 1318.72 1.27312 -3.18821 0
M  V30 14035 C 1317.81 0.612457 -4.19654 0
M  V30 14036 N 1318.2 -0.30875 -5.04857 0
M  V30 14037 C 1316.5 0.868224 -4.37468 0
M  V30 14038 C 1317.2 -0.691052 -5.77581 0
M  V30 14039 N 1316.17 -0.0493574 -5.43578 0
M  V30 14040 H 1319.97 -0.47427 -2.90048 0
M  V30 14041 H 1317.49 -0.360868 -1.5834 0
M  V30 14042 H 1319.49 1.84305 -3.73948 0
M  V30 14043 H 1318.15 1.98288 -2.57122 0
M  V30 14044 H 1319.16 -0.682054 -5.13389 0
M  V30 14045 H 1315.83 1.56765 -3.86951 0
M  V30 14046 H 1317.22 -1.44713 -6.56131 0
M  V30 14047 N 1319.94 1.55134 -0.277709 0
M  V30 14048 C 1320.87 2.256 0.602232 0
M  V30 14049 C 1321.85 1.24708 1.15681 0
M  V30 14050 O 1323.04 1.53433 1.19046 0
M  V30 14051 C 1320.17 2.97907 1.78519 0
M  V30 14052 C 1319.12 4.0575 1.36203 0
M  V30 14053 C 1318.45 4.65644 2.62829 0
M  V30 14054 C 1319.75 5.19801 0.510327 0
M  V30 14055 H 1321.44 2.99396 0.0145622 0
M  V30 14056 H 1318.99 1.43999 0.00556389 0
M  V30 14057 H 1320.94 3.45915 2.40668 0
M  V30 14058 H 1319.67 2.21649 2.39873 0
M  V30 14059 H 1318.33 3.58557 0.763726 0
M  V30 14060 H 1317.97 3.86053 3.22447 0
M  V30 14061 H 1317.67 5.38463 2.35227 0
M  V30 14062 H 1319.2 5.16403 3.25823 0
M  V30 14063 H 1320.61 5.63845 1.03689 0
M  V30 14064 H 1319.01 5.99197 0.329073 0
M  V30 14065 H 1320.08 4.82614 -0.470273 0
M  V30 14066 N 1321.42 0.00503138 1.57599 0
M  V30 14067 C 1322.65 -0.693231 1.95471 0
M  V30 14068 C 1323.07 -1.66233 0.880246 0
M  V30 14069 O 1322.43 -1.80582 -0.161164 0
M  V30 14070 C 1322.48 -1.39696 3.32442 0
M  V30 14071 O 1321.58 -2.51154 3.27101 0
M  V30 14072 H 1320.92 -0.184015 0.637992 0
M  V30 14073 H 1323.45 0.0597194 2.04513 0
M  V30 14074 H 1323.46 -1.75924 3.68123 0
M  V30 14075 H 1322.14 -0.686438 4.10196 0
M  V30 14076 H 1320.71 -2.17216 3.03103 0
M  V30 14077 N 1322.9 -1.55308 -0.267798 0
M  V30 14078 C 1323.83 -1.84963 -1.35356 0
M  V30 14079 C 1324.84 -0.73446 -1.45291 0
M  V30 14080 O 1326.03 -1.01237 -1.47015 0
M  V30 14081 C 1323.13 -2.00221 -2.73432 0
M  V30 14082 C 1322.31 -3.30922 -2.86024 0
M  V30 14083 C 1321.37 -3.3618 -4.04808 0
M  V30 14084 O 1320.39 -4.09525 -3.9532 0
M  V30 14085 N 1321.59 -2.63958 -5.17017 0
M  V30 14086 H 1324.36 -2.7868 -1.1026 0
M  V30 14087 H 1321.92 -1.55289 -0.457914 0
M  V30 14088 H 1323.91 -2.01103 -3.51197 0
M  V30 14089 H 1322.48 -1.13346 -2.91327 0
M  V30 14090 H 1321.7 -3.42534 -1.951 0
M  V30 14091 H 1322.99 -4.17109 -2.91371 0
M  V30 14092 H 1322.39 -2.04062 -5.27613 0
M  V30 14093 H 1320.94 -2.70558 -5.92994 0
M  V30 14094 N 1324.38 0.532545 -1.4833 0
M  V30 14095 C 1325.65 1.29371 -1.46705 0
M  V30 14096 C 1326.03 2.10354 -0.177329 0
M  V30 14097 O 1325.38 2.12462 0.840968 0
M  V30 14098 C 1325.59 2.17733 -2.72751 0
M  V30 14099 C 1326.94 2.77956 -3.20976 0
M  V30 14100 O 1327.96 2.28022 -2.7365 0
M  V30 14101 O 1326.82 3.68779 -4.03317 0
M  V30 14102 H 1323.92 0.58378 -0.585773 0
M  V30 14103 H 1326.46 0.549411 -1.6056 0
M  V30 14104 H 1325.24 1.57659 -3.58133 0
M  V30 14105 H 1324.86 2.99415 -2.61603 0
M  V30 14106 N 1325.86 1.36875 0.78122 0
M  V30 14107 C 1327.08 1.34732 1.57019 0
M  V30 14108 C 1327.5 -0.0695423 1.88672 0
M  V30 14109 O 1326.86 -1.02873 1.50743 0
M  V30 14110 C 1326.91 2.17668 2.88623 0
M  V30 14111 O 1326.63 3.53832 2.5833 0
M  V30 14112 C 1328.13 2.23398 3.82895 0
M  V30 14113 H 1325.35 0.461857 0.486754 0
M  V30 14114 H 1327.89 1.80086 0.968989 0
M  V30 14115 H 1326.05 1.75848 3.4519 0
M  V30 14116 H 1326.46 3.972 3.42538 0
M  V30 14117 H 1327.94 2.85769 4.72271 0
M  V30 14118 H 1328.41 1.23972 4.2134 0
M  V30 14119 H 1329.02 2.65489 3.32258 0
M  V30 14120 N 1327.33 -1.00632 1.21289 0
M  V30 14121 C 1328.58 -1.74044 1.02728 0
M  V30 14122 C 1328.9 -1.89963 -0.440351 0
M  V30 14123 O 1328.17 -1.44958 -1.31772 0
M  V30 14124 H 1326.75 -0.644813 0.377127 0
M  V30 14125 H 1329.41 -1.21272 1.52575 0
M  V30 14126 H 1328.51 -2.74011 1.49413 0
M  V30 14127 N 1328.81 -1.02043 -1.20104 0
M  V30 14128 C 1330.04 -0.731142 -1.94085 0
M  V30 14129 C 1330.46 0.702467 -1.74491 0
M  V30 14130 O 1329.82 1.48387 -1.04168 0
M  V30 14131 C 1329.87 -1.07691 -3.44144 0
M  V30 14132 O 1328.97 -0.190751 -4.11959 0
M  V30 14133 H 1328.31 -0.270917 -0.606218 0
M  V30 14134 H 1330.84 -1.36483 -1.52426 0
M  V30 14135 H 1330.85 -1.03023 -3.94779 0
M  V30 14136 H 1329.53 -2.1214 -3.57728 0
M  V30 14137 H 1328.1 -0.29529 -3.71729 0
M  V30 14138 N 1330.29 1.35952 -0.797165 0
M  V30 14139 C 1331.7 1.81554 -0.435311 0
M  V30 14140 C 1332.05 1.66266 1.04164 0
M  V30 14141 O 1331.18 1.18796 1.80877 0
M  V30 14142 C 1331.77 3.29619 -0.783358 0
M  V30 14143 C 1330.33 3.73401 -0.47423 0
M  V30 14144 C 1329.48 2.58098 -1.01394 0
M  V30 14145 H 1332.43 1.24064 -0.989638 0
M  V30 14146 H 1332.45 3.80421 -0.0773381 0
M  V30 14147 H 1331.96 3.40715 -1.85836 0
M  V30 14148 H 1330.06 3.6786 0.592418 0
M  V30 14149 H 1330.18 4.68542 -1.00026 0
M  V30 14150 H 1328.54 2.50927 -0.436747 0
M  V30 14151 H 1329.32 2.71976 -2.09485 0
M  V30 14152 N 1331.77 0.549846 1.47697 0
M  V30 14153 C 1332.99 0.0256819 2.07384 0
M  V30 14154 C 1333.42 -1.25525 1.4009 0
M  V30 14155 O 1332.78 -1.7501 0.473406 0
M  V30 14156 C 1332.82 -0.160835 3.60241 0
M  V30 14157 O 1331.93 -1.22509 3.93783 0
M  V30 14158 H 1331.27 0.0480204 0.662261 0
M  V30 14159 H 1333.8 0.763429 1.89823 0
M  V30 14160 H 1333.81 -0.377337 4.06251 0
M  V30 14161 H 1332.48 0.774774 4.0862 0
M  V30 14162 H 1331.06 -0.98967 3.59527 0
M  V30 14163 N 1333.25 -1.54984 0.285932 0
M  V30 14164 C 1334.49 -1.99436 -0.32709 0
M  V30 14165 C 1334.82 -1.17582 -1.55562 0
M  V30 14166 O 1334.09 -0.268002 -1.94058 0
M  V30 14167 H 1332.67 -0.736662 -0.123846 0
M  V30 14168 H 1335.33 -1.90881 0.393774 0
M  V30 14169 H 1334.42 -3.0609 -0.609523 0
M  V30 14170 N 1334.72 -0.0133892 -1.57594 0
M  V30 14171 C 1335.66 1.00798 -2.04731 0
M  V30 14172 C 1336.64 1.32686 -0.93985 0
M  V30 14173 O 1337.82 1.44622 -1.209 0
M  V30 14174 C 1334.95 2.33216 -2.45618 0
M  V30 14175 C 1333.99 2.16898 -3.67229 0
M  V30 14176 S 1334.83 1.48248 -5.14571 0
M  V30 14177 C 1335.98 2.82068 -5.58738 0
M  V30 14178 H 1336.21 0.606673 -2.91044 0
M  V30 14179 H 1333.75 0.197865 -1.53127 0
M  V30 14180 H 1335.71 3.09348 -2.69841 0
M  V30 14181 H 1334.37 2.70483 -1.59679 0
M  V30 14182 H 1333.56 3.14753 -3.93632 0
M  V30 14183 H 1333.16 1.4891 -3.43077 0
M  V30 14184 H 1335.45 3.78343 -5.62017 0
M  V30 14185 H 1336.4 2.60348 -6.58502 0
M  V30 14186 H 1336.8 2.86592 -4.86338 0
M  V30 14187 N 1336.2 1.55448 0.259558 0
M  V30 14188 C 1337.62 1.47588 0.607442 0
M  V30 14189 C 1337.82 0.701053 1.88911 0
M  V30 14190 O 1336.87 0.225305 2.51493 0
M  V30 14191 C 1338.19 2.91905 0.72192 0
M  V30 14192 C 1339.74 3.02201 0.815087 0
M  V30 14193 C 1340.21 4.47799 0.961231 0
M  V30 14194 N 1341.7 4.51684 1.02642 0
M  V30 14195 C 1342.44 5.61574 1.15854 0
M  V30 14196 N 1341.93 6.81301 1.257 0
M  V30 14197 N 1343.73 5.49344 1.1907 0
M  V30 14198 H 1335.88 2.04271 -0.581981 0
M  V30 14199 H 1338.14 0.926865 -0.199059 0
M  V30 14200 H 1337.85 3.51382 -0.149611 0
M  V30 14201 H 1337.72 3.41681 1.59793 0
M  V30 14202 H 1340.11 2.42813 1.67708 0
M  V30 14203 H 1340.19 2.55656 -0.0858102 0
M  V30 14204 H 1339.83 5.07794 0.103848 0
M  V30 14205 H 1339.76 4.92013 1.87698 0
M  V30 14206 H 1342.25 3.65446 0.962184 0
M  V30 14207 H 1342.57 7.60801 1.35652 0
M  V30 14208 H 1340.91 6.84087 1.2268 0
M  V30 14209 H 1344.1 4.54745 1.11018 0
M  V30 14210 H 1344.27 6.35025 1.29022 0
M  V30 14211 N 1337.68 -0.524672 1.4861 0
M  V30 14212 C 1339.09 -1.10655 1.50374 0
M  V30 14213 C 1339.44 -1.94242 0.276512 0
M  V30 14214 O 1338.57 -2.07451 -0.615887 0
M  V30 14215 C 1339.16 -2.01348 2.72478 0
M  V30 14216 C 1337.72 -2.54743 2.77097 0
M  V30 14217 C 1336.87 -1.31822 2.43964 0
M  V30 14218 H 1339.82 -0.309674 1.55649 0
M  V30 14219 H 1339.84 -2.85709 2.51297 0
M  V30 14220 H 1339.35 -1.40485 3.61781 0
M  V30 14221 H 1337.45 -3.19313 1.92016 0
M  V30 14222 H 1337.57 -2.93514 3.78664 0
M  V30 14223 H 1335.93 -1.63574 1.95233 0
M  V30 14224 H 1336.71 -0.727026 3.35513 0
M  V30 14225 N 1339.16 -1.37287 -0.77395 0
M  V30 14226 C 1340.4 -1.33577 -1.53391 0
M  V30 14227 C 1340.76 0.0798979 -1.92234 0
M  V30 14228 O 1340.05 1.03803 -1.61045 0
M  V30 14229 C 1340.25 -2.20667 -2.81142 0
M  V30 14230 C 1340.08 -3.70559 -2.54786 0
M  V30 14231 C 1338.85 -4.39675 -2.49025 0
M  V30 14232 C 1341.04 -4.63472 -2.22932 0
M  V30 14233 N 1339.03 -5.75121 -2.14729 0
M  V30 14234 C 1340.4 -5.87279 -1.98756 0
M  V30 14235 C 1342.45 -4.51879 -2.09068 0
M  V30 14236 C 1341.15 -7.00793 -1.62117 0
M  V30 14237 C 1343.18 -5.65276 -1.7383 0
M  V30 14238 C 1342.54 -6.88132 -1.50513 0
M  V30 14239 H 1338.64 -0.544075 -0.561699 0
M  V30 14240 H 1341.23 -1.72487 -0.903115 0
M  V30 14241 H 1339.4 -1.83976 -3.42063 0
M  V30 14242 H 1341.13 -2.08231 -3.47019 0
M  V30 14243 H 1337.88 -3.92653 -2.64804 0
M  V30 14244 H 1338.31 -6.46696 -2.00284 0
M  V30 14245 H 1342.95 -3.57468 -2.25779 0
M  V30 14246 H 1340.67 -7.9514 -1.44145 0
M  V30 14247 H 1344.25 -5.58276 -1.63765 0
M  V30 14248 H 1343.13 -7.74391 -1.23648 0
M  V30 14249 N 1340.64 0.999871 -1.21821 0
M  V30 14250 C 1341.55 2.12303 -0.99823 0
M  V30 14251 C 1342.56 1.73924 0.0512923 0
M  V30 14252 O 1343.74 2.00914 -0.139895 0
M  V30 14253 C 1340.8 3.41962 -0.571232 0
M  V30 14254 C 1339.86 3.94483 -1.69356 0
M  V30 14255 C 1339.1 5.17954 -1.28685 0
M  V30 14256 O 1339.32 5.70168 -0.162641 0
M  V30 14257 O 1338.25 5.64051 -2.10071 0
M  V30 14258 H 1342.08 2.3374 -1.93905 0
M  V30 14259 H 1339.67 1.10677 -1.00354 0
M  V30 14260 H 1341.55 4.20001 -0.343134 0
M  V30 14261 H 1340.22 3.21901 0.340814 0
M  V30 14262 H 1339.13 3.17648 -1.97612 0
M  V30 14263 H 1340.46 4.18964 -2.58322 0
M  V30 14264 N 1342.11 1.02678 1.19562 0
M  V30 14265 C 1343.39 0.63674 1.84946 0
M  V30 14266 C 1343.77 -0.884667 1.91669 0
M  V30 14267 O 1343.12 -1.78053 1.43211 0
M  V30 14268 C 1343.33 1.29637 3.2403 0
M  V30 14269 C 1344.68 1.41828 4.00212 0
M  V30 14270 O 1345.7 1.25338 3.3342 0
M  V30 14271 O 1344.56 1.68573 5.19851 0
M  V30 14272 H 1341.65 0.221044 0.796912 0
M  V30 14273 H 1344.2 1.1248 1.27068 0
M  V30 14274 H 1342.97 2.33549 3.1396 0
M  V30 14275 H 1342.6 0.796041 3.8955 0
M  V30 14276 N 1343.59 -1.35528 0.804364 0
M  V30 14277 C 1344.52 -2.32388 0.227604 0
M  V30 14278 C 1345.5 -1.57368 -0.645709 0
M  V30 14279 O 1346.69 -1.85448 -0.576441 0
M  V30 14280 C 1343.82 -3.41603 -0.62645 0
M  V30 14281 C 1342.77 -4.27743 0.148187 0
M  V30 14282 C 1342.1 -5.28259 -0.827425 0
M  V30 14283 C 1343.4 -5.04661 1.34591 0
M  V30 14284 H 1345.09 -2.80874 1.03684 0
M  V30 14285 H 1342.64 -1.3504 0.500031 0
M  V30 14286 H 1344.59 -4.08365 -1.03999 0
M  V30 14287 H 1343.32 -2.91721 -1.46855 0
M  V30 14288 H 1341.97 -3.62558 0.542874 0
M  V30 14289 H 1341.62 -4.74645 -1.66496 0
M  V30 14290 H 1341.32 -5.86763 -0.313453 0
M  V30 14291 H 1342.85 -5.97893 -1.23921 0
M  V30 14292 H 1344.26 -5.6438 1.00736 0
M  V30 14293 H 1342.66 -5.7265 1.79422 0
M  V30 14294 H 1343.73 -4.35432 2.1337 0
M  V30 14295 N 1345.07 -0.557671 -1.47404 0
M  V30 14296 C 1346.48 -0.124411 -1.86285 0
M  V30 14297 C 1346.83 1.30593 -1.46424 0
M  V30 14298 O 1345.96 1.9825 -0.867515 0
M  V30 14299 C 1346.55 -0.219005 -3.38091 0
M  V30 14300 C 1345.11 0.159221 -3.76063 0
M  V30 14301 C 1344.26 -0.566355 -2.71455 0
M  V30 14302 H 1347.21 -0.767367 -1.38914 0
M  V30 14303 H 1347.23 0.562267 -3.76323 0
M  V30 14304 H 1346.74 -1.26013 -3.67073 0
M  V30 14305 H 1344.84 1.20144 -3.52698 0
M  V30 14306 H 1344.96 -0.199662 -4.78684 0
M  V30 14307 H 1343.32 -0.00938921 -2.54698 0
M  V30 14308 H 1344.1 -1.60865 -3.03278 0
M  V30 14309 N 1346.55 1.54831 -0.294147 0
M  V30 14310 C 1347.77 2.04873 0.32276 0
M  V30 14311 C 1348.2 1.17034 1.47257 0
M  V30 14312 O 1347.56 0.172949 1.80473 0
M  V30 14313 C 1347.61 3.52431 0.76319 0
M  V30 14314 O 1346.71 3.67635 1.86865 0
M  V30 14315 H 1346.05 0.660926 0.0638162 0
M  V30 14316 H 1348.58 1.99944 -0.433995 0
M  V30 14317 H 1348.59 3.94155 1.05385 0
M  V30 14318 H 1347.27 4.15827 -0.0779464 0
M  V30 14319 H 1345.84 3.37816 1.57907 0
M  V30 14320 N 1348.03 0.0217466 1.57585 0
M  V30 14321 C 1348.96 -0.99116 2.06661 0
M  V30 14322 C 1349.97 -1.29346 0.988604 0
M  V30 14323 O 1351.16 -1.25941 1.26496 0
M  V30 14324 C 1348.26 -2.32047 2.46997 0
M  V30 14325 C 1347.43 -2.20441 3.77789 0
M  V30 14326 C 1346.49 -3.36243 4.04755 0
M  V30 14327 O 1345.52 -3.13458 4.75114 0
M  V30 14328 N 1346.72 -4.598 3.54351 0
M  V30 14329 H 1349.49 -0.572486 2.94181 0
M  V30 14330 H 1347.05 -0.165175 1.61055 0
M  V30 14331 H 1349.04 -3.0833 2.62135 0
M  V30 14332 H 1347.61 -2.65581 1.64881 0
M  V30 14333 H 1346.83 -1.28931 3.72519 0
M  V30 14334 H 1348.12 -2.09882 4.63494 0
M  V30 14335 H 1347.52 -4.81207 2.97416 0
M  V30 14336 H 1346.07 -5.33276 3.7478 0
M  V30 14337 N 1349.51 -1.55583 -0.251311 0
M  V30 14338 C 1350.78 -1.67954 -1.00254 0
M  V30 14339 C 1351.16 -0.560326 -2.03528 0
M  V30 14340 O 1350.51 0.436811 -2.24286 0
M  V30 14341 C 1350.72 -3.08075 -1.63985 0
M  V30 14342 C 1352.07 -3.66531 -2.14336 0
M  V30 14343 O 1353.09 -3.10846 -1.73934 0
M  V30 14344 O 1351.95 -4.64141 -2.88506 0
M  V30 14345 H 1349.05 -0.682952 -0.466375 0
M  V30 14346 H 1351.59 -1.67916 -0.245447 0
M  V30 14347 H 1350.36 -3.80983 -0.892627 0
M  V30 14348 H 1349.99 -3.12105 -2.46325 0
M  V30 14349 N 1350.98 0.516783 -1.48886 0
M  V30 14350 C 1352.21 1.29628 -1.61258 0
M  V30 14351 C 1352.63 1.86744 -0.27786 0
M  V30 14352 O 1351.98 1.67061 0.734639 0
M  V30 14353 C 1352.03 2.43779 -2.66935 0
M  V30 14354 O 1351.76 1.89014 -3.95228 0
M  V30 14355 C 1353.26 3.35398 -2.89867 0
M  V30 14356 H 1350.48 0.393736 -0.543335 0
M  V30 14357 H 1353.02 0.622069 -1.94809 0
M  V30 14358 H 1351.18 3.0706 -2.36206 0
M  V30 14359 H 1351.59 2.63833 -4.53312 0
M  V30 14360 H 1353.06 4.11812 -3.6758 0
M  V30 14361 H 1353.54 3.91436 -1.99185 0
M  V30 14362 H 1354.15 2.77898 -3.21952 0
M  V30 14363 N 1352.46 1.37696 0.766659 0
M  V30 14364 C 1353.71 1.32922 1.52237 0
M  V30 14365 C 1354.03 -0.0842833 1.94818 0
M  V30 14366 O 1353.3 -1.02934 1.66677 0
M  V30 14367 H 1351.88 0.489049 0.564659 0
M  V30 14368 H 1354.54 1.72238 0.912142 0
M  V30 14369 H 1353.64 1.97158 2.4194 0
M  V30 14370 N 1353.94 -0.993397 1.22349 0
M  V30 14371 C 1355.16 -1.77373 1.07488 0
M  V30 14372 C 1355.59 -1.84418 -0.37034 0
M  V30 14373 O 1354.95 -1.29629 -1.26752 0
M  V30 14374 C 1355 -3.18538 1.69014 0
M  V30 14375 O 1354.1 -4.01463 0.943474 0
M  V30 14376 H 1353.44 -0.546209 0.37756 0
M  V30 14377 H 1355.97 -1.24792 1.62136 0
M  V30 14378 H 1355.98 -3.6917 1.73717 0
M  V30 14379 H 1354.66 -3.12725 2.74182 0
M  V30 14380 H 1353.23 -3.59998 0.972415 0
M  V30 14381 N 1355.42 -1.03311 -1.19015 0
M  V30 14382 C 1356.83 -0.761079 -1.70483 0
M  V30 14383 C 1357.18 0.718851 -1.82557 0
M  V30 14384 O 1356.3 1.56006 -1.4997 0
M  V30 14385 C 1356.9 -1.37492 -3.09647 0
M  V30 14386 C 1355.46 -1.15138 -3.58358 0
M  V30 14387 C 1354.61 -1.47034 -2.35109 0
M  V30 14388 H 1357.56 -1.2005 -1.03797 0
M  V30 14389 H 1357.58 -0.774115 -3.72542 0
M  V30 14390 H 1357.09 -2.45203 -3.00828 0
M  V30 14391 H 1355.19 -0.0926822 -3.72485 0
M  V30 14392 H 1355.3 -1.84307 -4.4223 0
M  V30 14393 H 1353.67 -0.889794 -2.38652 0
M  V30 14394 H 1354.45 -2.55837 -2.28916 0
M  V30 14395 N 1356.9 1.35099 -0.81154 0
M  V30 14396 C 1358.12 2.03391 -0.405805 0
M  V30 14397 C 1358.55 1.60745 0.97686 0
M  V30 14398 O 1357.9 0.786518 1.63351 0
M  V30 14399 C 1357.95 3.57075 -0.502954 0
M  V30 14400 O 1357.06 4.09577 0.481681 0
M  V30 14401 H 1356.4 0.642203 -0.168733 0
M  V30 14402 H 1358.93 1.72591 -1.0988 0
M  V30 14403 H 1358.94 4.06277 -0.37456 0
M  V30 14404 H 1357.61 3.87463 -1.51145 0
M  V30 14405 H 1356.19 3.71583 0.313115 0
M  V30 14406 N 1358.37 0.56548 1.47106 0
M  V30 14407 C 1359.79 0.225855 1.57994 0
M  V30 14408 C 1359.99 -1.27173 1.56299 0
M  V30 14409 O 1359.05 -2.05242 1.47078 0
M  V30 14410 C 1360.36 0.859829 2.88145 0
M  V30 14411 C 1361.91 0.831821 3.01744 0
M  V30 14412 C 1362.38 1.44502 4.34607 0
M  V30 14413 N 1363.87 1.40857 4.41263 0
M  V30 14414 C 1364.61 1.85258 5.42648 0
M  V30 14415 N 1364.1 2.37553 6.508 0
M  V30 14416 N 1365.9 1.76279 5.33744 0
M  V30 14417 H 1358.05 1.53837 1.46451 0
M  V30 14418 H 1360.31 0.642013 0.697512 0
M  V30 14419 H 1360.02 1.91264 2.95146 0
M  V30 14420 H 1359.89 0.357762 3.755 0
M  V30 14421 H 1362.28 -0.212319 2.94335 0
M  V30 14422 H 1362.36 1.37173 2.1591 0
M  V30 14423 H 1362 2.48827 4.42773 0
M  V30 14424 H 1361.93 0.880479 5.19187 0
M  V30 14425 H 1364.42 1.02614 3.63702 0
M  V30 14426 H 1364.74 2.69335 7.24347 0
M  V30 14427 H 1363.08 2.41569 6.51667 0
M  V30 14428 H 1366.27 1.35195 4.48152 0
M  V30 14429 H 1366.45 2.11199 6.12616 0
M  V30 14430 N 1359.85 -1.54672 0.302354 0
M  V30 14431 C 1360.79 -2.19752 -0.615175 0
M  V30 14432 C 1361.76 -1.16737 -1.13186 0
M  V30 14433 O 1362.95 -1.45385 -1.19981 0
M  V30 14434 C 1360.07 -2.84243 -1.84184 0
M  V30 14435 C 1359.12 -4.00795 -1.45827 0
M  V30 14436 S 1359.95 -5.33037 -0.513046 0
M  V30 14437 C 1361.11 -6.01011 -1.74747 0
M  V30 14438 H 1361.34 -2.97235 -0.0622917 0
M  V30 14439 H 1358.88 -1.54158 0.0864897 0
M  V30 14440 H 1360.83 -3.22025 -2.54578 0
M  V30 14441 H 1359.49 -2.06603 -2.36589 0
M  V30 14442 H 1358.69 -4.44707 -2.37175 0
M  V30 14443 H 1358.29 -3.64577 -0.83425 0
M  V30 14444 H 1360.58 -6.21901 -2.68786 0
M  V30 14445 H 1361.52 -6.95095 -1.35089 0
M  V30 14446 H 1361.93 -5.30671 -1.9248 0
M  V30 14447 N 1361.33 -0.0301034 -1.57571 0
M  V30 14448 C 1362.75 0.326296 -1.56229 0
M  V30 14449 C 1362.95 1.72839 -1.03581 0
M  V30 14450 O 1362 2.43088 -0.682979 0
M  V30 14451 C 1363.32 0.174001 -3.00196 0
M  V30 14452 C 1364.86 0.246694 -3.12026 0
M  V30 14453 C 1365.34 0.123177 -4.57834 0
M  V30 14454 N 1366.83 0.180129 -4.6285 0
M  V30 14455 C 1367.56 0.108353 -5.73298 0
M  V30 14456 N 1367.06 -0.0145648 -6.92798 0
M  V30 14457 N 1368.85 0.162411 -5.61865 0
M  V30 14458 H 1361 -0.946945 -1.90123 0
M  V30 14459 H 1363.27 -0.365762 -0.874598 0
M  V30 14460 H 1362.97 -0.791871 -3.42669 0
M  V30 14461 H 1362.85 0.943794 -3.65202 0
M  V30 14462 H 1365.23 1.20303 -2.69465 0
M  V30 14463 H 1365.32 -0.553493 -2.4974 0
M  V30 14464 H 1364.96 -0.82974 -5.01077 0
M  V30 14465 H 1364.89 0.94224 -5.18102 0
M  V30 14466 H 1367.38 0.275236 -3.76896 0
M  V30 14467 H 1367.69 -0.062614 -7.72775 0
M  V30 14468 H 1366.04 -0.0493606 -6.94982 0
M  V30 14469 H 1369.23 0.256847 -4.67395 0
M  V30 14470 H 1369.4 0.103013 -6.47918 0
M  V30 14471 N 1362.81 1.55714 0.243056 0
M  V30 14472 C 1364.22 1.68126 0.811814 0
M  V30 14473 C 1364.57 0.628259 1.85869 0
M  V30 14474 O 1363.7 -0.224747 2.1523 0
M  V30 14475 C 1364.29 3.048 1.47928 0
M  V30 14476 C 1362.85 3.19138 1.99569 0
M  V30 14477 C 1362 2.64011 0.848149 0
M  V30 14478 H 1364.95 1.58689 0.0187918 0
M  V30 14479 H 1364.97 2.99459 2.34743 0
M  V30 14480 H 1364.48 3.81417 0.717106 0
M  V30 14481 H 1362.58 2.4735 2.78655 0
M  V30 14482 H 1362.69 4.26095 2.19043 0
M  V30 14483 H 1361.06 2.21934 1.2497 0
M  V30 14484 H 1361.84 3.43157 0.0989987 0
M  V30 14485 N 1364.29 -0.50888 1.49158 0
M  V30 14486 C 1365.53 -1.26274 1.59456 0
M  V30 14487 C 1365.89 -1.90436 0.274217 0
M  V30 14488 O 1365.18 -1.77359 -0.724875 0
M  V30 14489 C 1365.37 -2.35875 2.6851 0
M  V30 14490 C 1365.2 -1.8246 4.11021 0
M  V30 14491 C 1363.97 -1.64114 4.77907 0
M  V30 14492 C 1366.17 -1.34097 4.9651 0
M  V30 14493 N 1364.15 -1.05546 6.04759 0
M  V30 14494 C 1365.52 -0.876125 6.13779 0
M  V30 14495 C 1367.58 -1.22596 4.82571 0
M  V30 14496 C 1366.28 -0.307659 7.18642 0
M  V30 14497 C 1368.31 -0.671474 5.87576 0
M  V30 14498 C 1367.67 -0.216816 7.04066 0
M  V30 14499 H 1363.77 -0.452321 0.63791 0
M  V30 14500 H 1366.35 -0.571257 1.86131 0
M  V30 14501 H 1364.52 -3.02494 2.43622 0
M  V30 14502 H 1366.26 -3.02915 2.68374 0
M  V30 14503 H 1363.01 -1.88254 4.34577 0
M  V30 14504 H 1363.44 -0.782114 6.72467 0
M  V30 14505 H 1368.08 -1.56348 3.9283 0
M  V30 14506 H 1365.8 0.0421419 8.08089 0
M  V30 14507 H 1369.38 -0.585375 5.78848 0
M  V30 14508 H 1368.26 0.205554 7.83931 0
M  V30 14509 N 1365.76 -1.381 -0.759346 0
M  V30 14510 C 1366.71 -1.34866 -1.87296 0
M  V30 14511 C 1367.68 -0.212139 -1.6474 0
M  V30 14512 O 1368.87 -0.403464 -1.86485 0
M  V30 14513 C 1366.01 -1.17383 -3.24523 0
M  V30 14514 C 1365.12 -2.40372 -3.5895 0
M  V30 14515 C 1364.25 -2.15665 -4.8545 0
M  V30 14516 C 1363.29 -3.34455 -5.12646 0
M  V30 14517 N 1362.43 -3.0922 -6.30339 0
M  V30 14518 H 1367.27 -2.30072 -1.89396 0
M  V30 14519 H 1364.81 -1.14314 -0.925788 0
M  V30 14520 H 1366.77 -1.05264 -4.03702 0
M  V30 14521 H 1365.4 -0.258182 -3.21766 0
M  V30 14522 H 1364.45 -2.63185 -2.74659 0
M  V30 14523 H 1365.76 -3.28926 -3.74978 0
M  V30 14524 H 1364.91 -2.00649 -5.7256 0
M  V30 14525 H 1363.65 -1.24467 -4.7155 0
M  V30 14526 H 1362.66 -3.49997 -4.24007 0
M  V30 14527 H 1363.88 -4.26521 -5.28448 0
M  V30 14528 H 1361.83 -2.20664 -6.17773 0
M  V30 14529 H 1361.75 -3.91321 -6.46841 0
M  V30 14530 H 1363.01 -2.97847 -7.20352 0
M  V30 14531 N 1367.24 0.986894 -1.22875 0
M  V30 14532 C 1368.52 1.70121 -0.965311 0
M  V30 14533 C 1368.9 2.04648 0.517924 0
M  V30 14534 O 1368.25 1.73453 1.48749 0
M  V30 14535 C 1368.46 2.94738 -1.86897 0
M  V30 14536 C 1369.81 3.6739 -2.12861 0
M  V30 14537 O 1370.83 3.04758 -1.84394 0
M  V30 14538 O 1369.69 4.8009 -2.61106 0
M  V30 14539 H 1366.78 0.742817 -0.363527 0
M  V30 14540 H 1369.33 1.0427 -1.33887 0
M  V30 14541 H 1368.1 2.65771 -2.87196 0
M  V30 14542 H 1367.72 3.68327 -1.49736 0
M  V30 14543 N 1368.72 1.0394 1.18466 0
M  V30 14544 C 1370.13 0.77011 1.70077 0
M  V30 14545 C 1370.48 -0.70916 1.82935 0
M  V30 14546 O 1369.61 -1.55209 1.50795 0
M  V30 14547 C 1370.2 1.39132 3.08914 0
M  V30 14548 C 1368.76 1.17037 3.57742 0
M  V30 14549 C 1367.91 1.48279 2.34326 0
M  V30 14550 H 1370.86 1.20598 1.03159 0
M  V30 14551 H 1370.88 0.793861 3.72126 0
M  V30 14552 H 1370.39 2.46795 2.99523 0
M  V30 14553 H 1368.49 0.112435 3.7243 0
M  V30 14554 H 1368.61 1.8665 4.41247 0
M  V30 14555 H 1366.97 0.902438 2.38177 0
M  V30 14556 H 1367.75 2.57047 2.27556 0
M  V30 14557 N 1370.2 -1.34667 0.818693 0
M  V30 14558 C 1371.61 -1.80839 0.46414 0
M  V30 14559 C 1371.96 -1.67902 -1.01506 0
M  V30 14560 O 1371.09 -1.21658 -1.78964 0
M  V30 14561 C 1371.68 -3.28331 0.835698 0
M  V30 14562 C 1370.24 -3.72599 0.533575 0
M  V30 14563 C 1369.39 -2.56452 1.05487 0
M  V30 14564 H 1372.34 -1.22474 1.00925 0
M  V30 14565 H 1372.36 -3.8025 0.13785 0
M  V30 14566 H 1371.87 -3.37715 1.91233 0
M  V30 14567 H 1369.97 -3.68756 -0.533819 0
M  V30 14568 H 1370.08 -4.66891 1.07468 0
M  V30 14569 H 1368.45 -2.50201 0.476612 0
M  V30 14570 H 1369.23 -2.68608 2.13786 0
M  V30 14571 N 1371.68 -0.573274 -1.46804 0
M  V30 14572 C 1372.9 -0.0586717 -2.07317 0
M  V30 14573 C 1373.33 1.2328 -1.42069 0
M  V30 14574 O 1372.68 1.74235 -0.501188 0
M  V30 14575 C 1372.73 0.103503 -3.60451 0
M  V30 14576 O 1371.84 1.16229 -3.95682 0
M  V30 14577 H 1371.18 -0.0585504 -0.661414 0
M  V30 14578 H 1373.71 -0.793532 -1.88585 0
M  V30 14579 H 1373.72 0.312658 -4.068 0
M  V30 14580 H 1372.39 -0.839684 -4.07335 0
M  V30 14581 H 1370.97 0.932347 -3.61056 0
M  V30 14582 N 1373.15 1.5451 -0.310553 0
M  V30 14583 C 1374.43 1.92452 0.34951 0
M  V30 14584 C 1374.81 1.23881 1.70929 0
M  V30 14585 O 1374.16 0.377898 2.25353 0
M  V30 14586 C 1374.37 3.46026 0.454675 0
M  V30 14587 C 1375.72 4.18432 0.721071 0
M  V30 14588 O 1376.74 3.52112 0.538112 0
M  V30 14589 O 1375.6 5.3586 1.07314 0
M  V30 14590 H 1372.69 0.803168 0.197103 0
M  V30 14591 H 1375.24 1.65852 -0.359313 0
M  V30 14592 H 1374.01 3.88081 -0.500853 0
M  V30 14593 H 1373.64 3.7869 1.21159 0
M  V30 14594 N 1374.63 0.0384594 1.57553 0
M  V30 14595 C 1375.56 -0.938444 2.13812 0
M  V30 14596 C 1376.54 -1.33307 1.05657 0
M  V30 14597 O 1377.73 -1.41003 1.33535 0
M  V30 14598 C 1374.86 -2.21764 2.67279 0
M  V30 14599 C 1373.81 -1.96347 3.80305 0
M  V30 14600 C 1373.14 -3.30612 4.20238 0
M  V30 14601 C 1374.44 -1.2952 5.05986 0
M  V30 14602 H 1376.13 -0.469887 2.9569 0
M  V30 14603 H 1373.68 -0.224576 1.42238 0
M  V30 14604 H 1375.63 -2.90493 3.05273 0
M  V30 14605 H 1374.36 -2.70802 1.82576 0
M  V30 14606 H 1373.02 -1.30033 3.42764 0
M  V30 14607 H 1372.66 -3.77427 3.32502 0
M  V30 14608 H 1372.36 -3.14409 4.96408 0
M  V30 14609 H 1373.89 -4.00594 4.60822 0
M  V30 14610 H 1375.3 -1.88264 5.41507 0
M  V30 14611 H 1373.7 -1.23685 5.87216 0
M  V30 14612 H 1374.77 -0.269439 4.84151 0
M  V30 14613 N 1376.11 -1.55841 -0.234795 0
M  V30 14614 C 1377.04 -1.94344 -1.29432 0
M  V30 14615 C 1378.02 -0.809912 -1.49581 0
M  V30 14616 O 1379.21 -1.07117 -1.61986 0
M  V30 14617 C 1376.34 -2.24866 -2.64675 0
M  V30 14618 C 1375.29 -3.40584 -2.59203 0
M  V30 14619 C 1374.62 -3.56678 -3.98353 0
M  V30 14620 C 1375.92 -4.75935 -2.15135 0
M  V30 14621 H 1377.61 -2.83096 -0.97454 0
M  V30 14622 H 1375.16 -1.36205 -0.467355 0
M  V30 14623 H 1377.11 -2.50392 -3.38942 0
M  V30 14624 H 1375.83 -1.32953 -2.98314 0
M  V30 14625 H 1374.49 -3.15087 -1.87393 0
M  V30 14626 H 1374.14 -2.62164 -4.29277 0
M  V30 14627 H 1373.84 -4.34503 -3.95577 0
M  V30 14628 H 1375.37 -3.84538 -4.74302 0
M  V30 14629 H 1376.78 -5.00753 -2.7914 0
M  V30 14630 H 1375.18 -5.56949 -2.23446 0
M  V30 14631 H 1376.25 -4.72182 -1.10328 0
M  V30 14632 N 1377.59 0.500963 -1.49426 0
M  V30 14633 C 1378.52 1.61114 -1.69011 0
M  V30 14634 C 1379.5 1.61341 -0.538813 0
M  V30 14635 O 1380.69 1.78081 -0.77466 0
M  V30 14636 C 1377.82 2.99598 -1.75666 0
M  V30 14637 C 1376.77 3.14236 -2.90585 0
M  V30 14638 C 1376.1 4.54071 -2.82354 0
M  V30 14639 C 1377.4 2.94258 -4.3152 0
M  V30 14640 H 1379.09 1.44978 -2.61957 0
M  V30 14641 H 1376.64 0.69603 -1.26061 0
M  V30 14642 H 1378.59 3.77163 -1.87953 0
M  V30 14643 H 1377.31 3.16822 -0.793186 0
M  V30 14644 H 1375.97 2.39096 -2.779 0
M  V30 14645 H 1375.62 4.68172 -1.83914 0
M  V30 14646 H 1375.32 4.64806 -3.59485 0
M  V30 14647 H 1376.84 5.33696 -2.96649 0
M  V30 14648 H 1378.26 3.61592 -4.44886 0
M  V30 14649 H 1376.65 3.16464 -5.09873 0
M  V30 14650 H 1377.72 1.90383 -4.45962 0
M  V30 14651 N 1379.07 1.38501 0.752011 0
M  V30 14652 C 1380 1.38577 1.87933 0
M  V30 14653 C 1380.98 0.251454 1.68231 0
M  V30 14654 O 1382.16 0.45477 1.888 0
M  V30 14655 C 1379.29 1.21164 3.25479 0
M  V30 14656 C 1378.25 2.31816 3.59785 0
M  V30 14657 C 1377.57 1.99508 4.96085 0
M  V30 14658 C 1378.87 3.74082 3.645 0
M  V30 14659 H 1380.57 2.32913 1.88127 0
M  V30 14660 H 1378.11 1.12113 0.903698 0
M  V30 14661 H 1380.07 1.19842 4.04 0
M  V30 14662 H 1378.79 0.232899 3.25769 0
M  V30 14663 H 1377.45 2.32327 2.83584 0
M  V30 14664 H 1377.1 1.00114 4.92936 0
M  V30 14665 H 1376.8 2.73617 5.20007 0
M  V30 14666 H 1378.32 1.99807 5.76983 0
M  V30 14667 H 1379.74 3.75593 4.33131 0
M  V30 14668 H 1378.13 4.47409 3.99931 0
M  V30 14669 H 1379.2 4.06284 2.64692 0
M  V30 14670 N 1380.55 -0.980364 1.23396 0
M  V30 14671 C 1381.49 -2.07275 1.01516 0
M  V30 14672 C 1382.46 -1.65963 -0.0673729 0
M  V30 14673 O 1383.65 -1.90612 0.0847392 0
M  V30 14674 C 1380.79 -3.39621 0.61249 0
M  V30 14675 C 1379.9 -3.94203 1.76715 0
M  V30 14676 C 1379.04 -5.14761 1.31126 0
M  V30 14677 C 1378.07 -5.61509 2.43667 0
M  V30 14678 N 1377.21 -6.73297 1.99035 0
M  V30 14679 H 1382.05 -2.25325 1.9502 0
M  V30 14680 H 1379.59 -1.10452 0.971532 0
M  V30 14681 H 1381.55 -4.15643 0.360126 0
M  V30 14682 H 1380.18 -3.21535 -0.285539 0
M  V30 14683 H 1379.23 -3.14937 2.13352 0
M  V30 14684 H 1380.54 -4.24867 2.61323 0
M  V30 14685 H 1379.69 -5.98115 1.01702 0
M  V30 14686 H 1378.43 -4.85751 0.435555 0
M  V30 14687 H 1377.44 -4.76737 2.73865 0
M  V30 14688 H 1378.66 -5.92539 3.31774 0
M  V30 14689 H 1376.61 -6.46046 1.13845 0
M  V30 14690 H 1376.53 -7.03345 2.77203 0
M  V30 14691 H 1377.79 -7.60125 1.72716 0
M  V30 14692 N 1382.02 -1.04567 -1.17913 0
M  V30 14693 C 1382.96 -0.599154 -2.2123 0
M  V30 14694 C 1383.97 0.333824 -1.59341 0
M  V30 14695 O 1385.16 0.127548 -1.78044 0
M  V30 14696 C 1382.26 0.144045 -3.38594 0
M  V30 14697 C 1381.43 -0.798061 -4.30058 0
M  V30 14698 C 1380.49 -0.0972548 -5.2611 0
M  V30 14699 O 1379.52 -0.729318 -5.64508 0
M  V30 14700 N 1380.72 1.16759 -5.68637 0
M  V30 14701 H 1383.48 -1.48781 -2.60162 0
M  V30 14702 H 1381.04 -0.926787 -1.32749 0
M  V30 14703 H 1383.04 0.622843 -3.99878 0
M  V30 14704 H 1381.61 0.934292 -2.98311 0
M  V30 14705 H 1380.83 -1.45662 -3.66301 0
M  V30 14706 H 1382.11 -1.43777 -4.88063 0
M  V30 14707 H 1381.51 1.70155 -5.39503 0
M  V30 14708 H 1380.07 1.59057 -6.32095 0
M  V30 14709 N 1383.5 1.34231 -0.825823 0
M  V30 14710 C 1384.73 2.02949 -0.427354 0
M  V30 14711 C 1385.15 1.61772 0.959755 0
M  V30 14712 O 1384.51 0.803799 1.62508 0
M  V30 14713 C 1384.56 3.56522 -0.540799 0
M  V30 14714 O 1383.66 4.10065 0.438213 0
M  V30 14715 H 1383 0.640378 -0.175535 0
M  V30 14716 H 1385.53 1.71416 -1.11704 0
M  V30 14717 H 1385.54 4.05857 -0.41763 0
M  V30 14718 H 1384.22 3.85839 -1.55246 0
M  V30 14719 H 1382.79 3.71894 0.273687 0
M  V30 14720 N 1384.98 0.581051 1.46498 0
M  V30 14721 C 1385.93 -0.165944 2.32007 0
M  V30 14722 C 1386.92 -0.886015 1.44382 0
M  V30 14723 O 1388.13 -0.804592 1.61017 0
M  V30 14724 H 1384.5 -0.0723834 0.748508 0
M  V30 14725 H 1386.47 0.574089 2.92826 0
M  V30 14726 C 1385.22 -1.16741 3.27516 0
M  V30 14727 H 1384.55 -0.622756 3.9492 0
M  V30 14728 H 1385.99 -1.66052 3.90132 0
M  V30 14729 C 1384.44 -2.22755 2.52749 0
M  V30 14730 O 1384.97 -3.30081 2.28932 0
M  V30 14731 N 1383.18 -1.97318 2.1334 0
M  V30 14732 H 1382.73 -1.10049 2.3291 0
M  V30 14733 H 1382.69 -2.68461 1.63633 0
M  V30 14734 N 1386.46 -1.54343 0.318742 0
M  V30 14735 C 1387.68 -2.05361 -0.290126 0
M  V30 14736 C 1388.11 -1.19362 -1.45376 0
M  V30 14737 O 1387.47 -0.201639 -1.80175 0
M  V30 14738 C 1387.51 -3.53601 -0.707025 0
M  V30 14739 O 1386.62 -3.70561 -1.80992 0
M  V30 14740 H 1385.96 -0.661858 -0.0532933 0
M  V30 14741 H 1388.49 -1.99228 0.46575 0
M  V30 14742 H 1388.5 -3.95782 -0.991005 0
M  V30 14743 H 1387.17 -4.1565 0.144091 0
M  V30 14744 H 1385.75 -3.40286 -1.52513 0
M  V30 14745 N 1387.94 -0.0468143 -1.5753 0
M  V30 14746 C 1389.16 0.641161 -1.97241 0
M  V30 14747 C 1389.59 1.6384 -0.92401 0
M  V30 14748 O 1388.94 1.80946 0.113229 0
M  V30 14749 C 1388.99 1.30832 -3.36029 0
M  V30 14750 O 1388.1 2.42394 -3.33645 0
M  V30 14751 H 1387.44 0.167035 -0.642647 0
M  V30 14752 H 1389.97 -0.113921 -2.04283 0
M  V30 14753 H 1389.98 1.66102 -3.72658 0
M  V30 14754 H 1388.65 0.57744 -4.11872 0
M  V30 14755 H 1387.23 2.09104 -3.08756 0
M  V30 14756 N 1389.41 1.55964 0.226527 0
M  V30 14757 C 1390.36 1.92007 1.28069 0
M  V30 14758 C 1391.33 0.776666 1.46823 0
M  V30 14759 O 1392.52 1.03213 1.60474 0
M  V30 14760 C 1389.66 2.23784 2.62707 0
M  V30 14761 C 1388.77 3.51034 2.51792 0
M  V30 14762 C 1387.9 3.72281 3.7892 0
M  V30 14763 C 1386.94 4.93062 3.62707 0
M  V30 14764 N 1386.08 5.10725 4.81772 0
M  V30 14765 H 1390.92 2.81898 0.96631 0
M  V30 14766 H 1388.46 1.39529 0.465847 0
M  V30 14767 H 1390.42 2.40217 3.41104 0
M  V30 14768 H 1389.05 1.37073 2.92251 0
M  V30 14769 H 1388.1 3.42822 1.64856 0
M  V30 14770 H 1389.41 4.39582 2.35731 0
M  V30 14771 H 1388.56 3.88783 4.6576 0
M  V30 14772 H 1387.3 2.82004 3.97901 0
M  V30 14773 H 1386.31 4.76515 2.7425 0
M  V30 14774 H 1387.53 5.84819 3.45201 0
M  V30 14775 H 1385.48 4.2339 5.01076 0
M  V30 14776 H 1385.4 5.93397 4.68419 0
M  V30 14777 H 1386.66 5.31658 5.70053 0
M  V30 14778 N 1390.89 -0.493031 1.4969 0
M  V30 14779 C 1392.14 -1.2433 1.58823 0
M  V30 14780 C 1392.45 -1.9353 0.283823 0
M  V30 14781 O 1393.66 -2.70311 0.253801 0
M  V30 14782 C 1392.12 -2.25792 2.8026 0
M  V30 14783 C 1391.72 -1.62496 4.17491 0
M  V30 14784 C 1393.47 -3.01598 2.98729 0
M  V30 14785 C 1391.38 -2.62115 5.30141 0
M  V30 14786 H 1390.31 -0.467738 0.591386 0
M  V30 14787 H 1392.96 -0.516238 1.76089 0
M  V30 14788 H 1391.34 -3.01696 2.56506 0
M  V30 14789 H 1392.51 -0.925305 4.51414 0
M  V30 14790 H 1390.83 -0.990516 4.04447 0
M  V30 14791 H 1393.42 -3.76111 3.80058 0
M  V30 14792 H 1393.77 -3.59687 2.09597 0
M  V30 14793 H 1394.3 -2.32809 3.2256 0
M  V30 14794 H 1391.04 -2.08797 6.21357 0
M  V30 14795 H 1390.56 -3.30298 5.00663 0
M  V30 14796 H 1392.24 -3.24385 5.59807 0
M  V30 14797 N 1392.37 -1.38898 -0.744656 0
M  V30 14798 C 1393.3 -1.39571 -1.87195 0
M  V30 14799 C 1394.28 -0.260372 -1.68095 0
M  V30 14800 O 1395.47 -0.464776 -1.88556 0
M  V30 14801 C 1392.6 -1.22889 -3.24832 0
M  V30 14802 C 1391.55 -2.33721 -3.58551 0
M  V30 14803 C 1390.88 -2.02136 -4.9502 0
M  V30 14804 C 1392.18 -3.7601 -3.62511 0
M  V30 14805 H 1393.87 -2.33908 -1.86889 0
M  V30 14806 H 1391.42 -1.12591 -0.897739 0
M  V30 14807 H 1393.37 -1.21983 -4.03359 0
M  V30 14808 H 1392.09 -0.250172 -3.2564 0
M  V30 14809 H 1390.75 -2.33828 -2.82348 0
M  V30 14810 H 1390.4 -1.02726 -4.92399 0
M  V30 14811 H 1390.1 -2.76371 -5.18549 0
M  V30 14812 H 1391.62 -2.02864 -5.75915 0
M  V30 14813 H 1393.04 -3.77885 -4.31133 0
M  V30 14814 H 1391.44 -4.49524 -3.97553 0
M  V30 14815 H 1392.51 -4.07682 -2.62533 0
M  V30 14816 N 1393.85 0.973806 -1.23914 0
M  V30 14817 C 1395.09 1.71852 -1.07678 0
M  V30 14818 C 1395.43 1.90357 0.384425 0
M  V30 14819 O 1394.7 1.46063 1.28436 0
M  V30 14820 C 1394.99 3.1129 -1.81026 0
M  V30 14821 C 1394.84 3.00315 -3.3486 0
M  V30 14822 C 1396.16 4.10835 -1.57805 0
M  V30 14823 H 1393.28 0.623749 -0.392564 0
M  V30 14824 H 1395.92 1.13325 -1.52504 0
M  V30 14825 H 1394.07 3.61255 -1.42922 0
M  V30 14826 H 1395.74 2.57823 -3.82524 0
M  V30 14827 H 1393.98 2.36667 -3.63553 0
M  V30 14828 H 1394.65 3.9907 -3.81376 0
M  V30 14829 H 1397.13 3.69705 -1.90939 0
M  V30 14830 H 1396.01 5.06478 -2.11591 0
M  V30 14831 H 1396.27 4.39091 -0.514894 0
M  V30 14832 N 1395.33 1.05191 1.17357 0
M  V30 14833 C 1396.57 0.760479 1.87246 0
M  V30 14834 C 1396.9 -0.714618 1.81434 0
M  V30 14835 O 1396.17 -1.51636 1.24029 0
M  V30 14836 H 1394.75 0.278317 0.693216 0
M  V30 14837 H 1397.41 1.33106 1.42369 0
M  V30 14838 H 1396.5 1.07542 2.92987 0
M  V30 14839 N 1396.8 -1.33791 0.83293 0
M  V30 14840 C 1398.22 -1.50893 0.519955 0
M  V30 14841 C 1398.42 -1.7749 -0.953919 0
M  V30 14842 O 1397.48 -1.83168 -1.73798 0
M  V30 14843 C 1398.79 -2.66741 1.38815 0
M  V30 14844 C 1400.34 -2.80625 1.38631 0
M  V30 14845 C 1400.81 -3.99528 2.23922 0
M  V30 14846 N 1402.3 -4.06753 2.21599 0
M  V30 14847 C 1403.04 -4.97937 2.84335 0
M  V30 14848 N 1402.53 -5.94276 3.561 0
M  V30 14849 N 1404.33 -4.90887 2.73837 0
M  V30 14850 H 1396.48 -1.14788 1.7871 0
M  V30 14851 H 1398.74 -0.563822 0.762108 0
M  V30 14852 H 1398.45 -2.53748 2.43525 0
M  V30 14853 H 1398.32 -3.62001 1.05996 0
M  V30 14854 H 1400.71 -2.93053 0.346951 0
M  V30 14855 H 1400.79 -1.86144 1.75454 0
M  V30 14856 H 1400.43 -3.8786 3.27914 0
M  V30 14857 H 1400.36 -4.93242 1.84444 0
M  V30 14858 H 1402.85 -3.37802 1.69406 0
M  V30 14859 H 1403.17 -6.60504 4.01191 0
M  V30 14860 H 1401.51 -5.9437 3.60207 0
M  V30 14861 H 1404.7 -4.14586 2.17338 0
M  V30 14862 H 1404.88 -5.61752 3.23014 0
M  V30 14863 N 1398.28 -0.588812 -1.46187 0
M  V30 14864 C 1399.53 -0.0851986 -2.03221 0
M  V30 14865 C 1399.88 1.26301 -1.45141 0
M  V30 14866 O 1399.18 1.8165 -0.609427 0
M  V30 14867 C 1399.37 0.0325249 -3.57385 0
M  V30 14868 C 1399.2 -1.30272 -4.30418 0
M  V30 14869 C 1397.97 -1.87848 -4.69085 0
M  V30 14870 C 1400.17 -2.2273 -4.63569 0
M  V30 14871 N 1398.15 -3.15048 -5.26894 0
M  V30 14872 C 1399.52 -3.34519 -5.22012 0
M  V30 14873 C 1401.58 -2.22334 -4.45502 0
M  V30 14874 C 1400.28 -4.46054 -5.64294 0
M  V30 14875 C 1402.3 -3.32904 -4.88804 0
M  V30 14876 C 1401.67 -4.43414 -5.47324 0
M  V30 14877 H 1397.77 -0.0741 -0.778481 0
M  V30 14878 H 1400.35 -0.783049 -1.78259 0
M  V30 14879 H 1398.52 0.699556 -3.82048 0
M  V30 14880 H 1400.25 0.54108 -4.01067 0
M  V30 14881 H 1397.01 -1.4127 -4.5204 0
M  V30 14882 H 1397.43 -3.79969 -5.60315 0
M  V30 14883 H 1402.07 -1.38165 -3.99588 0
M  V30 14884 H 1399.79 -5.30963 -6.09183 0
M  V30 14885 H 1403.38 -3.33723 -4.76571 0
M  V30 14886 H 1402.26 -5.27559 -5.80216 0
M  V30 14887 N 1399.76 1.54172 -0.326923 0
M  V30 14888 C 1400.71 2.21189 0.553126 0
M  V30 14889 C 1401.69 1.19356 1.07903 0
M  V30 14890 O 1402.89 1.44972 1.01549 0
M  V30 14891 C 1400.02 2.97573 1.71188 0
M  V30 14892 C 1399.1 4.06748 1.20071 0
M  V30 14893 N 1399.49 5.0414 0.409473 0
M  V30 14894 C 1397.79 4.20759 1.47913 0
M  V30 14895 C 1398.49 5.81546 0.134036 0
M  V30 14896 N 1397.47 5.38796 0.721097 0
M  V30 14897 H 1401.27 2.93841 -0.0586462 0
M  V30 14898 H 1398.78 1.61855 -0.132947 0
M  V30 14899 H 1400.78 3.44072 2.35415 0
M  V30 14900 H 1399.44 2.26443 2.32709 0
M  V30 14901 H 1400.45 5.17874 0.0520181 0
M  V30 14902 H 1397.13 3.60844 2.09995 0
M  V30 14903 H 1398.52 6.70013 -0.503156 0
M  V30 14904 N 1401.24 0.0551678 1.57503 0
M  V30 14905 C 1402.17 -0.915714 2.14795 0
M  V30 14906 C 1403.15 -1.32179 1.07065 0
M  V30 14907 O 1404.33 -1.39579 1.35023 0
M  V30 14908 C 1401.46 -2.18916 2.69616 0
M  V30 14909 C 1400.42 -1.92303 3.82366 0
M  V30 14910 C 1399.74 -3.26136 4.23721 0
M  V30 14911 C 1401.04 -1.24146 5.07331 0
M  V30 14912 H 1402.74 -0.438499 2.96171 0
M  V30 14913 H 1400.28 -0.209477 1.42468 0
M  V30 14914 H 1402.24 -2.87239 3.08337 0
M  V30 14915 H 1400.96 -2.6885 1.85437 0
M  V30 14916 H 1399.62 -1.26391 3.44123 0
M  V30 14917 H 1399.27 -3.73879 3.36487 0
M  V30 14918 H 1398.97 -3.09126 4.99715 0
M  V30 14919 H 1400.49 -3.95684 4.65045 0
M  V30 14920 H 1401.91 -1.8251 5.43473 0
M  V30 14921 H 1400.3 -1.17449 5.88494 0
M  V30 14922 H 1401.37 -0.218073 4.84409 0
M  V30 14923 N 1402.72 -1.56081 -0.218252 0
M  V30 14924 C 1403.68 -1.91851 -1.25402 0
M  V30 14925 C 1404.68 -0.797399 -1.39636 0
M  V30 14926 O 1405.87 -1.06511 -1.37844 0
M  V30 14927 C 1403 -2.17223 -2.6273 0
M  V30 14928 H 1404.19 -2.84493 -0.948882 0
M  V30 14929 H 1401.75 -1.49414 -0.458809 0
M  V30 14930 H 1402.48 -1.27144 -2.98337 0
M  V30 14931 H 1402.27 -2.98899 -2.53775 0
M  V30 14932 H 1403.76 -2.45981 -3.37466 0
M  V30 14933 N 1404.2 0.485086 -1.49949 0
M  V30 14934 C 1405.42 1.26648 -1.64241 0
M  V30 14935 C 1405.85 1.85359 -0.319939 0
M  V30 14936 O 1405.2 1.66628 0.714487 0
M  V30 14937 C 1405.25 2.36109 -2.72552 0
M  V30 14938 O 1404.36 3.40387 -2.32832 0
M  V30 14939 H 1403.7 0.373208 -0.549192 0
M  V30 14940 H 1406.23 0.578929 -1.96239 0
M  V30 14941 H 1406.24 2.81634 -2.95205 0
M  V30 14942 H 1404.91 1.92745 -3.6854 0
M  V30 14943 H 1403.49 3.0067 -2.20571 0
M  V30 14944 N 1405.67 1.39291 0.737279 0
M  V30 14945 C 1406.58 1.40098 1.88175 0
M  V30 14946 C 1407.6 0.296053 1.71463 0
M  V30 14947 O 1408.78 0.537153 1.94105 0
M  V30 14948 C 1405.84 1.24071 3.2374 0
M  V30 14949 C 1404.9 2.44515 3.52861 0
M  V30 14950 C 1404.13 2.29243 4.81958 0
M  V30 14951 O 1404.36 1.2947 5.55512 0
M  V30 14952 O 1403.29 3.18178 5.10927 0
M  V30 14953 H 1407.12 2.36565 1.90449 0
M  V30 14954 H 1404.7 1.20382 0.884786 0
M  V30 14955 H 1406.58 1.17257 4.04758 0
M  V30 14956 H 1405.26 0.30698 3.22241 0
M  V30 14957 H 1404.17 2.56905 2.71939 0
M  V30 14958 H 1405.5 3.36573 3.59137 0
M  V30 14959 N 1407.15 -0.967221 1.24429 0
M  V30 14960 C 1408.1 -2.06187 1.03709 0
M  V30 14961 C 1409.07 -1.66025 -0.0497665 0
M  V30 14962 O 1410.25 -1.90511 0.104951 0
M  V30 14963 C 1407.39 -3.38952 0.648477 0
M  V30 14964 C 1406.51 -3.92306 1.80886 0
M  V30 14965 C 1405.64 -5.13342 1.36579 0
M  V30 14966 C 1404.68 -5.58893 2.49609 0
M  V30 14967 N 1403.82 -6.71148 2.06165 0
M  V30 14968 H 1408.66 -2.23244 1.97399 0
M  V30 14969 H 1406.19 -1.09415 0.983192 0
M  V30 14970 H 1408.15 -4.15237 0.40419 0
M  V30 14971 H 1406.78 -3.21819 -0.25142 0
M  V30 14972 H 1405.83 -3.12656 2.1668 0
M  V30 14973 H 1407.15 -4.22071 2.65815 0
M  V30 14974 H 1406.3 -5.97003 1.0804 0
M  V30 14975 H 1405.04 -4.85262 0.487051 0
M  V30 14976 H 1404.04 -4.73805 2.78906 0
M  V30 14977 H 1405.27 -5.88987 3.3804 0
M  V30 14978 H 1403.22 -6.44802 1.20691 0
M  V30 14979 H 1403.13 -7.00366 2.84647 0
M  V30 14980 H 1404.4 -7.5825 1.80769 0
M  V30 14981 N 1408.63 -1.05812 -1.16797 0
M  V30 14982 C 1409.88 -0.770398 -1.8684 0
M  V30 14983 C 1410.2 0.704986 -1.8181 0
M  V30 14984 O 1409.47 1.50977 -1.24832 0
M  V30 14985 H 1408.05 -0.281989 -0.691731 0
M  V30 14986 H 1410.71 -1.33859 -1.41661 0
M  V30 14987 H 1409.81 -1.09094 -2.92412 0
M  V30 14988 N 1410.11 1.33347 -0.840014 0
M  V30 14989 C 1411.33 2.02485 -0.448856 0
M  V30 14990 C 1411.76 1.62781 0.942543 0
M  V30 14991 O 1411.12 0.82099 1.61646 0
M  V30 14992 C 1411.16 3.55928 -0.578582 0
M  V30 14993 O 1410.27 4.10507 0.394695 0
M  V30 14994 H 1409.61 0.63848 -0.182317 0
M  V30 14995 H 1412.14 1.70221 -1.13516 0
M  V30 14996 H 1412.15 4.05391 -0.460653 0
M  V30 14997 H 1410.82 3.8417 -1.5933 0
M  V30 14998 H 1409.4 3.72164 0.234227 0
M  V30 14999 N 1411.59 0.596556 1.45873 0
M  V30 15000 C 1412.82 0.093357 2.06389 0
M  V30 15001 C 1413.22 -1.2229 1.44367 0
M  V30 15002 O 1412.57 -1.75332 0.548131 0
M  V30 15003 C 1412.63 -0.132256 3.59257 0
M  V30 15004 C 1412.29 1.10051 4.43551 0
M  V30 15005 C 1413.29 2.01598 4.79223 0
M  V30 15006 C 1410.97 1.32625 4.84475 0
M  V30 15007 C 1412.97 3.14054 5.54661 0
M  V30 15008 C 1410.66 2.45384 5.5967 0
M  V30 15009 C 1411.65 3.35927 5.94678 0
M  V30 15010 O 1411.34 4.46726 6.6835 0
M  V30 15011 H 1411.07 0.0608944 0.673252 0
M  V30 15012 H 1413.63 0.821009 1.88278 0
M  V30 15013 H 1411.86 -0.914678 3.75727 0
M  V30 15014 H 1413.55 -0.585681 4.01652 0
M  V30 15015 H 1414.31 1.85379 4.48174 0
M  V30 15016 H 1410.19 0.630522 4.56668 0
M  V30 15017 H 1413.74 3.8475 5.81904 0
M  V30 15018 H 1409.63 2.6156 5.90133 0
M  V30 15019 H 1410.4 4.45268 6.86789 0
M  V30 15020 N 1413.06 -1.53996 0.335095 0
M  V30 15021 C 1413.97 -2.28436 -0.534244 0
M  V30 15022 C 1414.99 -1.33224 -1.11926 0
M  V30 15023 O 1416.17 -1.66252 -1.13676 0
M  V30 15024 C 1413.23 -3.03634 -1.67354 0
M  V30 15025 C 1412.29 -4.14455 -1.11916 0
M  V30 15026 C 1411.52 -4.86058 -2.20416 0
M  V30 15027 O 1411.75 -4.57263 -3.40979 0
M  V30 15028 O 1410.68 -5.72704 -1.85185 0
M  V30 15029 H 1414.51 -3.03618 0.0706314 0
M  V30 15030 H 1412.09 -1.49062 0.100409 0
M  V30 15031 H 1413.97 -3.50687 -2.33659 0
M  V30 15032 H 1412.65 -2.31317 -2.26438 0
M  V30 15033 H 1411.56 -3.71725 -0.420871 0
M  V30 15034 H 1412.89 -4.8885 -0.573295 0
M  V30 15035 N 1414.54 -0.0635198 -1.57472 0
M  V30 15036 C 1415.79 0.607008 -1.92349 0
M  V30 15037 C 1416.1 1.71268 -0.944806 0
M  V30 15038 O 1417.31 2.44221 -1.18609 0
M  V30 15039 C 1415.77 1.13105 -3.41666 0
M  V30 15040 C 1415.37 0.0568256 -4.47964 0
M  V30 15041 C 1417.12 1.77611 -3.85557 0
M  V30 15042 C 1415.02 0.594443 -5.88405 0
M  V30 15043 H 1413.95 0.230506 -0.717902 0
M  V30 15044 H 1416.61 -0.134413 -1.83007 0
M  V30 15045 H 1414.99 1.92517 -3.46054 0
M  V30 15046 H 1416.16 -0.717371 -4.55182 0
M  V30 15047 H 1414.48 -0.491517 -4.13489 0
M  V30 15048 H 1417.07 2.18852 -4.87861 0
M  V30 15049 H 1417.42 2.6328 -3.22474 0
M  V30 15050 H 1417.95 1.04834 -3.83738 0
M  V30 15051 H 1414.69 -0.224893 -6.55114 0
M  V30 15052 H 1414.21 1.33635 -5.84724 0
M  V30 15053 H 1415.89 1.07346 -6.38033 0
M  V30 15054 N 1416.02 1.56195 0.209972 0
M  V30 15055 C 1417.27 1.78941 0.930744 0
M  V30 15056 C 1417.58 0.634139 1.85035 0
M  V30 15057 O 1418.79 0.745524 2.61064 0
M  V30 15058 C 1417.24 3.16935 1.70529 0
M  V30 15059 C 1416.85 4.40221 0.83125 0
M  V30 15060 C 1418.6 3.49 2.41659 0
M  V30 15061 C 1416.5 5.69238 1.60381 0
M  V30 15062 H 1415.43 0.667176 0.351273 0
M  V30 15063 H 1418.08 1.82572 0.184341 0
M  V30 15064 H 1416.47 3.07513 2.49503 0
M  V30 15065 H 1417.64 4.60728 0.081227 0
M  V30 15066 H 1415.95 4.15756 0.231517 0
M  V30 15067 H 1418.55 4.42623 2.99982 0
M  V30 15068 H 1418.89 2.72042 3.15117 0
M  V30 15069 H 1419.43 3.59804 1.69665 0
M  V30 15070 H 1416.17 6.49121 0.912292 0
M  V30 15071 H 1415.69 5.52772 2.32815 0
M  V30 15072 H 1417.37 6.09827 2.16149 0
M  V30 15073 N 1417.5 -0.477127 1.50204 0
M  V30 15074 C 1418.43 -1.59319 1.64773 0
M  V30 15075 C 1419.44 -1.53951 0.529427 0
M  V30 15076 O 1420.63 -1.59449 0.802388 0
M  V30 15077 C 1417.73 -2.98185 1.61055 0
M  V30 15078 C 1416.9 -3.28486 2.88817 0
M  V30 15079 C 1415.96 -4.46878 2.77825 0
M  V30 15080 O 1414.99 -4.47483 3.51778 0
M  V30 15081 N 1416.19 -5.48187 1.90974 0
M  V30 15082 H 1418.96 -1.4724 2.61037 0
M  V30 15083 H 1416.52 -0.66544 1.47592 0
M  V30 15084 H 1418.51 -3.75345 1.51323 0
M  V30 15085 H 1417.08 -3.04064 0.725509 0
M  V30 15086 H 1416.3 -2.39997 3.12722 0
M  V30 15087 H 1417.59 -3.4554 3.7347 0
M  V30 15088 H 1416.99 -5.50515 1.30192 0
M  V30 15089 H 1415.54 -6.24355 1.87148 0
M  V30 15090 N 1418.98 -1.3968 -0.729882 0
M  V30 15091 C 1420.25 -1.27689 -1.48172 0
M  V30 15092 C 1420.63 0.111239 -2.10807 0
M  V30 15093 O 1419.98 1.12289 -1.99006 0
M  V30 15094 C 1420.19 -2.40505 -2.529 0
M  V30 15095 C 1421.54 -2.80064 -3.19138 0
M  V30 15096 O 1422.56 -2.39992 -2.63215 0
M  V30 15097 O 1421.42 -3.49248 -4.20342 0
M  V30 15098 H 1418.52 -0.500674 -0.658221 0
M  V30 15099 H 1421.06 -1.51566 -0.763272 0
M  V30 15100 H 1419.83 -3.33282 -2.05033 0
M  V30 15101 H 1419.46 -2.1832 -3.32298 0
M  V30 15102 N 1420.45 0.960609 -1.2494 0
M  V30 15103 C 1421.68 1.73928 -1.12057 0
M  V30 15104 C 1422.1 1.8596 0.32623 0
M  V30 15105 O 1421.45 1.35303 1.22472 0
M  V30 15106 C 1421.51 3.15614 -1.76267 0
M  V30 15107 O 1421.23 3.04177 -3.15291 0
M  V30 15108 C 1422.73 4.09786 -1.69086 0
M  V30 15109 H 1419.95 0.5452 -0.39115 0
M  V30 15110 H 1422.49 1.20556 -1.65186 0
M  V30 15111 H 1420.65 3.65949 -1.27123 0
M  V30 15112 H 1421.06 3.93513 -3.46768 0
M  V30 15113 H 1422.53 5.06835 -2.18683 0
M  V30 15114 H 1423.01 4.34312 -0.653453 0
M  V30 15115 H 1423.62 3.65365 -2.1769 0
M  V30 15116 N 1421.93 1.0643 1.16234 0
M  V30 15117 C 1423.21 0.695256 1.82827 0
M  V30 15118 C 1423.59 -0.823242 1.94386 0
M  V30 15119 O 1422.94 -1.73406 1.48804 0
M  V30 15120 C 1423.15 1.3988 3.19741 0
M  V30 15121 C 1424.5 1.54489 3.95498 0
M  V30 15122 O 1425.52 1.35882 3.29264 0
M  V30 15123 O 1424.38 1.85027 5.14225 0
M  V30 15124 H 1421.47 0.246285 0.789476 0
M  V30 15125 H 1424.02 1.16466 1.23426 0
M  V30 15126 H 1422.79 2.43419 3.06371 0
M  V30 15127 H 1422.41 0.91957 3.8682 0
M  V30 15128 N 1423.41 -1.329 0.847073 0
M  V30 15129 C 1424.32 -2.32815 0.288878 0
M  V30 15130 C 1425.34 -1.63715 -0.589363 0
M  V30 15131 O 1426.51 -1.9531 -0.491537 0
M  V30 15132 C 1423.58 -3.42778 -0.519988 0
M  V30 15133 C 1422.64 -4.27584 0.383496 0
M  V30 15134 C 1421.87 -5.32296 -0.386862 0
M  V30 15135 O 1422.09 -5.4698 -1.61768 0
M  V30 15136 O 1421.03 -6.01408 0.2434 0
M  V30 15137 H 1424.85 -2.82434 1.11647 0
M  V30 15138 H 1422.44 -1.36388 0.609807 0
M  V30 15139 H 1424.32 -4.09862 -0.979357 0
M  V30 15140 H 1423 -2.95362 -1.3245 0
M  V30 15141 H 1421.9 -3.63338 0.890879 0
M  V30 15142 H 1423.24 -4.78505 1.15299 0
M  V30 15143 N 1424.89 -0.604284 -1.45555 0
M  V30 15144 C 1426.17 -0.0303285 -1.95576 0
M  V30 15145 C 1426.55 1.43661 -1.54676 0
M  V30 15146 O 1425.89 2.13747 -0.807731 0
M  V30 15147 C 1426.1 -0.22497 -3.48274 0
M  V30 15148 C 1427.45 -0.104042 -4.24473 0
M  V30 15149 O 1428.48 -0.154919 -3.55863 0
M  V30 15150 O 1427.33 0.0136297 -5.46498 0
M  V30 15151 H 1424.43 0.0376106 -0.826144 0
M  V30 15152 H 1426.97 -0.674114 -1.55736 0
M  V30 15153 H 1425.75 -1.24391 -3.71002 0
M  V30 15154 H 1425.37 0.454234 -3.94997 0
M  V30 15155 N 1426.37 1.53816 -0.343257 0
M  V30 15156 C 1427.59 2.05326 0.254744 0
M  V30 15157 C 1428.01 1.21824 1.44237 0
M  V30 15158 O 1427.37 0.253507 1.80731 0
M  V30 15159 C 1427.42 3.55235 0.670075 0
M  V30 15160 O 1427.14 4.35568 -0.470322 0
M  V30 15161 C 1428.64 4.22915 1.32882 0
M  V30 15162 H 1425.86 0.669191 0.0492324 0
M  V30 15163 H 1428.4 1.98415 -0.495159 0
M  V30 15164 H 1426.56 3.6237 1.36992 0
M  V30 15165 H 1426.97 5.24315 -0.139303 0
M  V30 15166 H 1428.45 5.29197 1.57019 0
M  V30 15167 H 1428.92 3.75244 2.28229 0
M  V30 15168 H 1429.53 4.19973 0.67102 0
M  V30 15169 N 1427.84 0.0718701 1.57436 0
M  V30 15170 C 1428.81 -0.880671 2.11605 0
M  V30 15171 C 1429.81 -1.22632 1.0401 0
M  V30 15172 O 1431 -1.15958 1.29997 0
M  V30 15173 C 1428.13 -2.18407 2.61746 0
M  V30 15174 H 1429.32 -0.410712 2.97074 0
M  V30 15175 H 1426.88 -0.176836 1.55296 0
M  V30 15176 H 1427.61 -2.6994 1.79731 0
M  V30 15177 H 1427.4 -1.94616 3.40392 0
M  V30 15178 H 1428.89 -2.86596 3.03731 0
M  V30 15179 N 1429.32 -1.56304 -0.201686 0
M  V30 15180 C 1430.57 -1.80504 -0.92446 0
M  V30 15181 C 1430.9 -0.644832 -1.83182 0
M  V30 15182 O 1430.18 0.354963 -1.91234 0
M  V30 15183 C 1430.46 -3.14919 -1.74636 0
M  V30 15184 C 1430.31 -4.41421 -0.864169 0
M  V30 15185 C 1431.63 -3.45962 -2.72026 0
M  V30 15186 H 1428.75 -0.656643 -0.334648 0
M  V30 15187 H 1431.39 -1.89025 -0.192188 0
M  V30 15188 H 1429.54 -3.07785 -2.37066 0
M  V30 15189 H 1431.21 -4.60594 -0.255084 0
M  V30 15190 H 1429.46 -4.33465 -0.170548 0
M  V30 15191 H 1430.13 -5.31954 -1.47409 0
M  V30 15192 H 1432.6 -3.53353 -2.1973 0
M  V30 15193 H 1431.48 -4.41146 -3.26622 0
M  V30 15194 H 1431.74 -2.69124 -3.50749 0
M  V30 15195 N 1430.8 0.469154 -1.50455 0
M  V30 15196 C 1431.75 1.58765 -1.6999 0
M  V30 15197 C 1432.74 1.59673 -0.56577 0
M  V30 15198 O 1433.95 1.63799 -0.74632 0
M  V30 15199 H 1430.32 0.526868 -0.536577 0
M  V30 15200 H 1432.29 1.39451 -2.6381 0
M  V30 15201 C 1431.04 2.9669 -1.81302 0
M  V30 15202 H 1430.37 2.96711 -2.67961 0
M  V30 15203 H 1431.81 3.74403 -1.98994 0
M  V30 15204 C 1430.27 3.32127 -0.565086 0
M  V30 15205 O 1430.8 4.00616 0.294873 0
M  V30 15206 N 1429 2.8757 -0.418537 0
M  V30 15207 H 1428.55 2.32008 -1.11938 0
M  V30 15208 H 1428.51 3.11645 0.415276 0
M  V30 15209 N 1432.28 1.40065 0.722464 0
M  V30 15210 C 1433.23 1.39947 1.85789 0
M  V30 15211 C 1434.22 0.28089 1.67055 0
M  V30 15212 O 1435.43 0.451575 1.74244 0
M  V30 15213 H 1431.8 0.437296 0.611781 0
M  V30 15214 H 1433.77 2.35695 1.83004 0
M  V30 15215 C 1432.52 1.27218 3.2359 0
M  V30 15216 H 1431.84 2.12566 3.38609 0
M  V30 15217 H 1433.28 1.31194 4.03192 0
M  V30 15218 C 1431.74 -0.0182466 3.36895 0
M  V30 15219 O 1432.27 -0.983761 3.89468 0
M  V30 15220 N 1430.48 -0.0854707 2.90474 0
M  V30 15221 H 1430.03 0.700953 2.4788 0
M  V30 15222 H 1429.98 -0.948367 2.99755 0
M  V30 15223 N 1433.76 -0.95397 1.25448 0
M  V30 15224 C 1435 -1.70177 1.11407 0
M  V30 15225 C 1435.36 -1.89348 -0.341348 0
M  V30 15226 O 1434.65 -1.45382 -1.24798 0
M  V30 15227 C 1434.85 -3.08613 1.80258 0
M  V30 15228 C 1434.67 -3.02947 3.32345 0
M  V30 15229 C 1433.44 -3.06667 4.01601 0
M  V30 15230 C 1435.64 -2.84063 4.28734 0
M  V30 15231 N 1433.62 -2.91166 5.40459 0
M  V30 15232 C 1435 -2.77 5.54681 0
M  V30 15233 C 1437.05 -2.68748 4.19141 0
M  V30 15234 C 1435.75 -2.56186 6.72132 0
M  V30 15235 C 1437.78 -2.49306 5.36284 0
M  V30 15236 C 1437.14 -2.42963 6.61172 0
M  V30 15237 H 1433.24 -0.630659 0.462378 0
M  V30 15238 H 1435.82 -1.12994 1.58558 0
M  V30 15239 H 1434 -3.6396 1.35601 0
M  V30 15240 H 1435.73 -3.72177 1.58953 0
M  V30 15241 H 1432.48 -3.15885 3.52865 0
M  V30 15242 H 1432.91 -2.86618 6.13334 0
M  V30 15243 H 1437.55 -2.72426 3.23333 0
M  V30 15244 H 1435.27 -2.51251 7.68049 0
M  V30 15245 H 1438.85 -2.3838 5.30722 0
M  V30 15246 H 1437.73 -2.28115 7.50289 0
M  V30 15247 N 1435.24 -1.07045 -1.15668 0
M  V30 15248 C 1436.17 -0.709413 -2.22463 0
M  V30 15249 C 1437.15 0.30169 -1.67403 0
M  V30 15250 O 1438.33 0.175131 -1.93409 0
M  V30 15251 C 1435.46 -0.103121 -3.47147 0
M  V30 15252 C 1434.42 -1.04103 -4.15146 0
M  V30 15253 C 1433.74 -0.297656 -5.33871 0
M  V30 15254 C 1435.04 -2.37332 -4.65264 0
M  V30 15255 H 1436.74 -1.60227 -2.52918 0
M  V30 15256 H 1434.28 -0.771846 -1.21567 0
M  V30 15257 H 1436.23 0.161371 -4.21091 0
M  V30 15258 H 1434.96 0.824792 -3.16014 0
M  V30 15259 H 1433.62 -1.2904 -3.43139 0
M  V30 15260 H 1433.27 0.633618 -4.98993 0
M  V30 15261 H 1432.97 -0.922789 -5.80309 0
M  V30 15262 H 1434.49 -0.0408892 -6.10586 0
M  V30 15263 H 1435.9 -2.1674 -5.30751 0
M  V30 15264 H 1434.3 -2.95412 -5.22352 0
M  V30 15265 H 1435.37 -2.99859 -3.81068 0
M  V30 15266 N 1436.71 1.32449 -0.85411 0
M  V30 15267 C 1437.96 1.96537 -0.453451 0
M  V30 15268 C 1438.28 1.68344 0.995982 0
M  V30 15269 O 1439.48 2.26166 1.50204 0
M  V30 15270 C 1437.94 3.51785 -0.759934 0
M  V30 15271 C 1437.55 3.88838 -2.22506 0
M  V30 15272 C 1439.29 4.22347 -0.426973 0
M  V30 15273 C 1437.2 5.37129 -2.47479 0
M  V30 15274 H 1436.13 0.735537 -0.165835 0
M  V30 15275 H 1438.78 1.50851 -1.04481 0
M  V30 15276 H 1437.16 3.95879 -0.0980116 0
M  V30 15277 H 1438.33 3.55756 -2.92873 0
M  V30 15278 H 1436.65 3.31299 -2.52249 0
M  V30 15279 H 1439.25 5.31424 -0.590986 0
M  V30 15280 H 1439.59 4.11485 0.631359 0
M  V30 15281 H 1440.12 3.83835 -1.04477 0
M  V30 15282 H 1436.86 5.53012 -3.51935 0
M  V30 15283 H 1436.38 5.71619 -1.8169 0
M  V30 15284 H 1438.06 6.04204 -2.31401 0
M  V30 15285 N 1438.19 0.611994 1.45232 0
M  V30 15286 C 1439.42 0.113618 2.07089 0
M  V30 15287 C 1439.84 -1.1947 1.45288 0
M  V30 15288 O 1439.2 -1.72845 0.547207 0
M  V30 15289 C 1439.25 -0.00789978 3.60599 0
M  V30 15290 O 1438.35 -1.05697 3.98625 0
M  V30 15291 H 1437.69 0.076066 0.659629 0
M  V30 15292 H 1440.22 0.843253 1.86415 0
M  V30 15293 H 1440.23 -0.204692 4.07486 0
M  V30 15294 H 1438.91 0.947386 4.04966 0
M  V30 15295 H 1437.48 -0.836291 3.63401 0
M  V30 15296 N 1439.67 -1.53632 0.351409 0
M  V30 15297 C 1441.08 -1.86241 -0.130834 0
M  V30 15298 C 1441.43 -1.27243 -1.49344 0
M  V30 15299 O 1440.56 -0.589006 -2.0823 0
M  V30 15300 C 1441.15 -3.37919 -0.244179 0
M  V30 15301 C 1439.71 -3.70377 -0.670662 0
M  V30 15302 C 1438.86 -2.76643 0.190813 0
M  V30 15303 H 1441.81 -1.48083 0.570724 0
M  V30 15304 H 1441.83 -3.65137 -1.07029 0
M  V30 15305 H 1441.34 -3.8083 0.747688 0
M  V30 15306 H 1439.44 -3.33015 -1.67127 0
M  V30 15307 H 1439.56 -4.76934 -0.455102 0
M  V30 15308 H 1437.92 -2.52446 -0.338092 0
M  V30 15309 H 1438.7 -3.22385 1.17996 0
M  V30 15310 N 1441.15 -0.0802183 -1.57396 0
M  V30 15311 C 1442.08 0.913777 -2.10197 0
M  V30 15312 C 1443.09 1.25588 -1.03593 0
M  V30 15313 O 1444.28 1.21159 -1.31083 0
M  V30 15314 C 1441.38 2.2272 -2.55439 0
M  V30 15315 C 1440.55 2.06268 -3.8571 0
M  V30 15316 C 1439.61 3.20989 -4.16956 0
M  V30 15317 O 1438.64 2.95608 -4.8642 0
M  V30 15318 N 1439.84 4.46331 -3.71172 0
M  V30 15319 H 1442.61 0.462908 -2.96103 0
M  V30 15320 H 1440.17 0.105287 -1.61557 0
M  V30 15321 H 1442.16 2.98389 -2.73397 0
M  V30 15322 H 1440.73 2.59278 -1.74624 0
M  V30 15323 H 1439.95 1.15016 -3.77048 0
M  V30 15324 H 1441.24 1.92535 -4.70965 0
M  V30 15325 H 1440.64 4.69837 -3.15071 0
M  V30 15326 H 1439.19 5.18999 -3.94314 0
M  V30 15327 N 1442.63 1.56409 0.193394 0
M  V30 15328 C 1443.57 1.95572 1.25914 0
M  V30 15329 C 1444.57 0.841384 1.47028 0
M  V30 15330 O 1445.77 1.0264 1.47868 0
M  V30 15331 H 1442.15 0.621914 0.422761 0
M  V30 15332 H 1444.12 2.84446 0.901827 0
M  V30 15333 C 1442.87 2.31293 2.59613 0
M  V30 15334 H 1442.19 3.16568 2.44182 0
M  V30 15335 H 1443.63 2.62558 3.32926 0
M  V30 15336 C 1442.09 1.14818 3.16731 0
M  V30 15337 O 1442.62 0.424105 3.99455 0
M  V30 15338 N 1440.83 0.924536 2.75501 0
M  V30 15339 H 1440.37 1.51509 2.08334 0
M  V30 15340 H 1440.33 0.147006 3.14056 0
M  V30 15341 N 1444.1 -0.461169 1.50702 0
M  V30 15342 C 1445.07 -1.54032 1.69725 0
M  V30 15343 C 1446.07 -1.50445 0.567707 0
M  V30 15344 O 1447.26 -1.52889 0.834901 0
M  V30 15345 C 1444.39 -2.93642 1.73168 0
M  V30 15346 H 1445.58 -1.38478 2.66015 0
M  V30 15347 H 1443.13 -0.688235 1.40332 0
M  V30 15348 H 1443.87 -3.14629 0.786078 0
M  V30 15349 H 1443.65 -2.97652 2.55236 0
M  V30 15350 H 1445.14 -3.71972 1.89807 0
M  V30 15351 N 1445.58 -1.40446 -0.715026 0
M  V30 15352 C 1446.81 -1.42263 -1.50917 0
M  V30 15353 C 1447.23 -0.0242402 -1.88084 0
M  V30 15354 O 1446.59 0.967817 -1.53307 0
M  V30 15355 C 1446.64 -2.31998 -2.7606 0
M  V30 15356 O 1445.74 -1.76361 -3.72787 0
M  V30 15357 H 1445.08 -0.483614 -0.454988 0
M  V30 15358 H 1447.61 -1.84682 -0.880549 0
M  V30 15359 H 1447.62 -2.47204 -3.24583 0
M  V30 15360 H 1446.3 -3.33614 -2.48343 0
M  V30 15361 H 1444.87 -1.70504 -3.31636 0
M  V30 15362 N 1447.06 0.947303 -1.25952 0
M  V30 15363 C 1448.48 1.21972 -1.02932 0
M  V30 15364 C 1448.68 1.99951 0.249333 0
M  V30 15365 O 1447.73 2.33534 0.960108 0
M  V30 15366 C 1449.04 1.98695 -2.257 0
M  V30 15367 C 1450.59 2.11711 -2.30538 0
M  V30 15368 C 1451.07 2.91835 -3.52982 0
M  V30 15369 N 1452.56 2.99411 -3.53422 0
M  V30 15370 C 1453.29 3.6182 -4.4483 0
M  V30 15371 N 1452.79 4.25781 -5.46519 0
M  V30 15372 N 1454.58 3.59033 -4.32495 0
M  V30 15373 H 1446.73 0.42583 -2.08088 0
M  V30 15374 H 1449 0.250899 -0.914196 0
M  V30 15375 H 1448.7 1.48801 -3.18671 0
M  V30 15376 H 1448.58 2.9938 -2.29459 0
M  V30 15377 H 1450.96 2.608 -1.38085 0
M  V30 15378 H 1451.04 1.10308 -2.30794 0
M  V30 15379 H 1450.69 2.43435 -4.4576 0
M  V30 15380 H 1450.62 3.9348 -3.49973 0
M  V30 15381 H 1453.11 2.53934 -2.79868 0
M  V30 15382 H 1453.42 4.71281 -6.12466 0
M  V30 15383 H 1451.77 4.24386 -5.50383 0
M  V30 15384 H 1454.96 3.08254 -3.52274 0
M  V30 15385 H 1455.13 4.07384 -5.03927 0
M  V30 15386 N 1448.54 1.07657 1.15099 0
M  V30 15387 C 1449.5 0.703558 2.18135 0
M  V30 15388 C 1450.5 -0.257771 1.5872 0
M  V30 15389 O 1451.69 -0.0383211 1.74158 0
M  V30 15390 C 1448.82 0.0374978 3.40879 0
M  V30 15391 H 1450.02 1.61583 2.52648 0
M  V30 15392 H 1447.57 0.873484 1.29615 0
M  V30 15393 H 1448.3 -0.886868 3.11938 0
M  V30 15394 H 1448.09 0.728961 3.85264 0
M  V30 15395 H 1449.58 -0.208714 4.17078 0
M  V30 15396 N 1450.02 -1.31994 0.861122 0
M  V30 15397 C 1451.26 -1.97712 0.477669 0
M  V30 15398 C 1451.62 -1.66878 -0.957573 0
M  V30 15399 O 1450.91 -0.950114 -1.66383 0
M  V30 15400 C 1451.1 -3.51232 0.661135 0
M  V30 15401 C 1450.93 -3.96985 2.11266 0
M  V30 15402 C 1449.7 -4.23753 2.75247 0
M  V30 15403 C 1451.9 -4.11577 3.08397 0
M  V30 15404 N 1449.88 -4.55798 4.11243 0
M  V30 15405 C 1451.25 -4.47233 4.29398 0
M  V30 15406 C 1453.31 -3.9393 3.04506 0
M  V30 15407 C 1452.01 -4.67083 5.47015 0
M  V30 15408 C 1454.04 -4.14968 4.21373 0
M  V30 15409 C 1453.4 -4.50947 5.41134 0
M  V30 15410 H 1449.5 -0.749334 0.223657 0
M  V30 15411 H 1452.08 -1.59691 1.11387 0
M  V30 15412 H 1450.25 -3.88362 0.0545925 0
M  V30 15413 H 1451.99 -4.03946 0.246941 0
M  V30 15414 H 1448.74 -4.16064 2.26248 0
M  V30 15415 H 1449.17 -4.75995 4.81412 0
M  V30 15416 H 1453.81 -3.6521 2.1303 0
M  V30 15417 H 1451.53 -4.94655 6.39016 0
M  V30 15418 H 1455.11 -4.02809 4.19805 0
M  V30 15419 H 1453.99 -4.66898 6.3006 0
M  V30 15420 N 1451.49 -0.619688 -1.44906 0
M  V30 15421 C 1452.74 -0.119397 -2.01747 0
M  V30 15422 C 1453.06 1.25904 -1.48907 0
M  V30 15423 O 1452.33 1.83417 -0.688104 0
M  V30 15424 H 1450.91 -0.0411482 -0.745866 0
M  V30 15425 H 1453.58 -0.803813 -1.77552 0
M  V30 15426 H 1452.67 -0.078368 -3.12002 0
M  V30 15427 N 1452.97 1.53444 -0.359552 0
M  V30 15428 C 1453.88 2.29257 0.497834 0
M  V30 15429 C 1454.9 1.34987 1.09793 0
M  V30 15430 O 1456.07 1.68039 1.11017 0
M  V30 15431 C 1453.14 3.06258 1.62502 0
M  V30 15432 C 1452.2 4.16183 1.05308 0
M  V30 15433 C 1451.43 4.89503 2.12655 0
M  V30 15434 O 1451.66 4.6263 3.33661 0
M  V30 15435 O 1450.59 5.75578 1.76051 0
M  V30 15436 H 1454.42 3.03467 -0.118925 0
M  V30 15437 H 1452 1.48884 -0.124111 0
M  V30 15438 H 1453.88 3.5436 2.2805 0
M  V30 15439 H 1452.56 2.3489 2.22729 0
M  V30 15440 H 1451.47 3.72348 0.361679 0
M  V30 15441 H 1452.8 4.897 0.49545 0
M  V30 15442 N 1454.45 0.0885642 1.57351 0
M  V30 15443 C 1455.68 -0.588641 1.98871 0
M  V30 15444 C 1456.1 -1.61333 0.967125 0
M  V30 15445 O 1455.46 -1.81183 -0.0652149 0
M  V30 15446 C 1455.51 -1.21877 3.39379 0
M  V30 15447 O 1454.61 -2.33462 3.39955 0
M  V30 15448 H 1453.95 -0.149938 0.64685 0
M  V30 15449 H 1456.48 0.168043 2.03909 0
M  V30 15450 H 1456.49 -1.56163 3.76931 0
M  V30 15451 H 1455.17 -0.468037 4.13258 0
M  V30 15452 H 1453.74 -2.00844 3.14191 0
M  V30 15453 N 1455.93 -1.56509 -0.185096 0
M  V30 15454 C 1457.16 -1.85327 -0.91986 0
M  V30 15455 C 1457.57 -0.672294 -1.76425 0
M  V30 15456 O 1456.93 0.358854 -1.78937 0
M  V30 15457 C 1456.98 -3.13047 -1.80787 0
M  V30 15458 O 1456.7 -4.26591 -0.997569 0
M  V30 15459 C 1458.2 -3.55114 -2.65347 0
M  V30 15460 H 1455.42 -0.615196 -0.267909 0
M  V30 15461 H 1457.97 -2.03622 -0.189338 0
M  V30 15462 H 1456.12 -2.96619 -2.4919 0
M  V30 15463 H 1456.53 -4.99384 -1.60362 0
M  V30 15464 H 1458.01 -4.47419 -3.23295 0
M  V30 15465 H 1458.49 -2.78576 -3.39547 0
M  V30 15466 H 1459.09 -3.74105 -2.023 0
M  V30 15467 N 1457.41 0.45317 -1.50944 0
M  V30 15468 C 1458.82 1.03354 -1.55482 0
M  V30 15469 C 1459.17 1.92701 -0.368873 0
M  V30 15470 O 1458.29 2.10153 0.516208 0
M  V30 15471 C 1458.89 1.88118 -2.81775 0
M  V30 15472 C 1457.45 2.41232 -2.88936 0
M  V30 15473 C 1456.59 1.20032 -2.49975 0
M  V30 15474 H 1459.55 0.235059 -1.5695 0
M  V30 15475 H 1459.57 2.73394 -2.64643 0
M  V30 15476 H 1459.08 1.23064 -3.68072 0
M  V30 15477 H 1457.18 3.09788 -2.07032 0
M  V30 15478 H 1457.29 2.75113 -3.92237 0
M  V30 15479 H 1455.66 1.54072 -2.02815 0
M  V30 15480 H 1456.44 0.56612 -3.386 0
M  V30 15481 N 1458.88 1.40823 0.707568 0
M  V30 15482 C 1459.81 1.44485 1.83429 0
M  V30 15483 C 1460.8 0.304848 1.67346 0
M  V30 15484 O 1461.98 0.514605 1.87258 0
M  V30 15485 C 1459.11 1.31458 3.21459 0
M  V30 15486 C 1458.06 2.43145 3.52228 0
M  V30 15487 C 1457.39 2.15189 4.89487 0
M  V30 15488 C 1458.69 3.85489 3.52414 0
M  V30 15489 H 1460.38 2.38781 1.80622 0
M  V30 15490 H 1457.93 1.14931 0.867572 0
M  V30 15491 H 1459.88 1.32635 3.99983 0
M  V30 15492 H 1458.61 0.336422 3.24863 0
M  V30 15493 H 1457.27 2.41231 2.76049 0
M  V30 15494 H 1456.91 1.15745 4.89502 0
M  V30 15495 H 1456.61 2.90022 5.11039 0
M  V30 15496 H 1458.14 2.18062 5.70334 0
M  V30 15497 H 1459.55 3.89183 4.20963 0
M  V30 15498 H 1457.95 4.59906 3.85495 0
M  V30 15499 H 1459.02 4.14499 2.51632 0
M  V30 15500 N 1460.36 -0.94061 1.26453 0
M  V30 15501 C 1461.33 -2.02096 1.0812 0
M  V30 15502 C 1462.33 -1.60773 0.0293393 0
M  V30 15503 O 1463.52 -1.72051 0.272796 0
M  V30 15504 C 1460.65 -3.34749 0.644646 0
M  V30 15505 H 1461.84 -2.19792 2.04038 0
M  V30 15506 H 1459.39 -1.11965 1.09058 0
M  V30 15507 H 1460.13 -3.22752 -0.316509 0
M  V30 15508 H 1459.91 -3.66095 1.40416 0
M  V30 15509 H 1461.4 -4.14117 0.538233 0
M  V30 15510 N 1461.84 -1.08266 -1.14527 0
M  V30 15511 C 1462.79 -0.705807 -2.21633 0
M  V30 15512 C 1463.78 0.287758 -1.66938 0
M  V30 15513 O 1464.99 0.150479 -1.7937 0
M  V30 15514 H 1461.36 -0.210206 -0.722023 0
M  V30 15515 H 1463.33 -1.61855 -2.5069 0
M  V30 15516 C 1462.08 -0.129673 -3.47458 0
M  V30 15517 H 1461.41 -0.885365 -3.89873 0
M  V30 15518 H 1462.85 0.0962264 -4.23891 0
M  V30 15519 C 1461.31 1.13208 -3.1731 0
M  V30 15520 O 1461.84 2.21717 -3.34969 0
M  V30 15521 N 1460.04 1.0419 -2.7128 0
M  V30 15522 H 1459.59 0.15883 -2.5711 0
M  V30 15523 H 1459.55 1.88689 -2.51483 0
M  V30 15524 N 1463.32 1.31536 -0.86811 0
M  V30 15525 C 1464.27 2.28562 -0.320602 0
M  V30 15526 C 1465.24 1.55648 0.579902 0
M  V30 15527 O 1466.42 1.83804 0.51194 0
M  V30 15528 C 1463.56 3.41836 0.473499 0
M  V30 15529 C 1462.67 4.29604 -0.454311 0
M  V30 15530 C 1461.81 5.30021 0.353733 0
M  V30 15531 C 1460.85 6.09434 -0.570624 0
M  V30 15532 N 1459.99 7.01812 0.201058 0
M  V30 15533 H 1464.83 2.74782 -1.15322 0
M  V30 15534 H 1462.36 1.35179 -0.580088 0
M  V30 15535 H 1464.32 4.06248 0.949662 0
M  V30 15536 H 1462.95 2.96732 1.27083 0
M  V30 15537 H 1462 3.65653 -1.04892 0
M  V30 15538 H 1463.31 4.85048 -1.16316 0
M  V30 15539 H 1462.47 6.001 0.892484 0
M  V30 15540 H 1461.21 4.75228 1.09589 0
M  V30 15541 H 1460.21 5.38247 -1.12115 0
M  V30 15542 H 1461.44 6.66314 -1.3116 0
M  V30 15543 H 1459.38 6.49431 0.926058 0
M  V30 15544 H 1459.3 7.54668 -0.448494 0
M  V30 15545 H 1460.57 7.76157 0.7211 0
M  V30 15546 N 1464.8 0.627364 1.44575 0
M  V30 15547 C 1466.21 0.213149 1.85479 0
M  V30 15548 C 1466.56 -1.23458 1.52488 0
M  V30 15549 O 1465.68 -1.93885 0.961115 0
M  V30 15550 C 1466.28 0.380063 3.36661 0
M  V30 15551 C 1464.84 0.020385 3.76394 0
M  V30 15552 C 1463.99 0.695225 2.68444 0
M  V30 15553 H 1466.94 0.832771 1.35095 0
M  V30 15554 H 1466.96 -0.382078 3.78577 0
M  V30 15555 H 1466.47 1.43383 3.60642 0
M  V30 15556 H 1464.57 -1.03179 3.58029 0
M  V30 15557 H 1464.68 0.42782 4.77186 0
M  V30 15558 H 1463.05 0.130898 2.54363 0
M  V30 15559 H 1463.83 1.75151 2.95257 0
M  V30 15560 N 1466.28 -1.53251 0.367684 0
M  V30 15561 C 1467.52 -2.00889 -0.220914 0
M  V30 15562 C 1467.84 -1.25662 -1.4911 0
M  V30 15563 O 1467.11 -0.370491 -1.92365 0
M  V30 15564 H 1465.69 -0.742191 -0.0846233 0
M  V30 15565 H 1468.36 -1.88525 0.494402 0
M  V30 15566 H 1467.45 -3.08891 -0.446414 0
M  V30 15567 N 1467.75 -0.0969077 -1.57302 0
M  V30 15568 C 1468.7 0.861379 -2.14124 0
M  V30 15569 C 1469.67 1.27858 -1.06026 0
M  V30 15570 O 1470.86 1.36001 -1.33822 0
M  V30 15571 C 1468 2.11443 -2.72738 0
M  V30 15572 C 1467.11 1.7476 -3.95074 0
M  V30 15573 C 1466.24 2.94864 -4.41847 0
M  V30 15574 C 1465.28 2.54316 -5.56767 0
M  V30 15575 N 1464.42 3.67261 -5.98384 0
M  V30 15576 H 1469.26 0.369968 -2.95694 0
M  V30 15577 H 1466.8 0.170943 -1.46103 0
M  V30 15578 H 1468.75 2.84829 -3.04842 0
M  V30 15579 H 1467.38 2.5808 -1.93893 0
M  V30 15580 H 1466.44 0.91335 -3.69272 0
M  V30 15581 H 1467.75 1.40946 -4.78472 0
M  V30 15582 H 1466.9 3.76501 -4.75744 0
M  V30 15583 H 1465.64 3.31889 -3.57352 0
M  V30 15584 H 1464.65 1.71106 -5.22497 0
M  V30 15585 H 1465.87 2.18432 -6.43012 0
M  V30 15586 H 1463.82 4.04001 -5.16836 0
M  V30 15587 H 1463.73 3.37298 -6.76584 0
M  V30 15588 H 1465 4.49403 -6.36912 0
M  V30 15589 N 1469.23 1.56605 0.176793 0
M  V30 15590 C 1470.16 1.9254 1.24342 0
M  V30 15591 C 1471.18 0.81792 1.40762 0
M  V30 15592 O 1472.37 1.09636 1.40862 0
M  V30 15593 C 1469.47 2.15822 2.61293 0
M  V30 15594 C 1468.64 3.47035 2.66243 0
M  V30 15595 C 1467.7 3.5921 3.84519 0
M  V30 15596 O 1466.72 4.31876 3.70771 0
M  V30 15597 N 1467.93 2.93653 5.00748 0
M  V30 15598 H 1470.69 2.84635 0.938246 0
M  V30 15599 H 1468.25 1.57695 0.366597 0
M  V30 15600 H 1470.24 2.21237 3.38875 0
M  V30 15601 H 1468.81 1.30138 2.84223 0
M  V30 15602 H 1468.03 3.53326 1.74798 0
M  V30 15603 H 1469.32 4.33388 2.66557 0
M  V30 15604 H 1468.72 2.34476 5.14818 0
M  V30 15605 H 1467.28 3.04671 5.76211 0
M  V30 15606 N 1470.71 -0.445159 1.51182 0
M  V30 15607 C 1471.93 -1.22249 1.67541 0
M  V30 15608 C 1472.36 -1.84446 0.368972 0
M  V30 15609 O 1471.72 -1.68463 -0.670058 0
M  V30 15610 C 1471.77 -2.288 2.78717 0
M  V30 15611 O 1470.87 -3.34094 2.41775 0
M  V30 15612 H 1470.21 -0.358516 0.558894 0
M  V30 15613 H 1472.74 -0.526696 1.97704 0
M  V30 15614 H 1472.75 -2.73708 3.02569 0
M  V30 15615 H 1471.43 -1.82906 3.73521 0
M  V30 15616 H 1470 -2.94717 2.28466 0
M  V30 15617 N 1472.19 -1.41197 -0.700089 0
M  V30 15618 C 1473.44 -1.40034 -1.45722 0
M  V30 15619 C 1473.76 -0.00876281 -1.94998 0
M  V30 15620 O 1473.03 0.948647 -1.71399 0
M  V30 15621 H 1471.61 -0.515433 -0.540683 0
M  V30 15622 H 1474.27 -1.76394 -0.828926 0
M  V30 15623 H 1473.36 -2.08477 -2.32258 0
M  V30 15624 N 1473.67 0.933891 -1.2695 0
M  V30 15625 C 1474.62 2.01966 -1.05801 0
M  V30 15626 C 1475.6 1.60896 0.0119868 0
M  V30 15627 O 1476.79 1.75799 -0.205827 0
M  V30 15628 C 1473.92 3.36073 -0.700695 0
M  V30 15629 C 1473.01 3.83606 -1.80852 0
M  V30 15630 N 1473.4 4.03713 -3.04712 0
M  V30 15631 C 1471.7 4.12586 -1.69378 0
M  V30 15632 C 1472.4 4.43199 -3.76762 0
M  V30 15633 N 1471.37 4.50319 -3.0449 0
M  V30 15634 H 1475.17 2.15534 -1.99806 0
M  V30 15635 H 1472.69 1.12027 -1.17574 0
M  V30 15636 H 1474.69 4.13513 -0.530316 0
M  V30 15637 H 1473.35 3.23872 0.231801 0
M  V30 15638 H 1474.36 3.90196 -3.4054 0
M  V30 15639 H 1471.03 4.09132 -0.831695 0
M  V30 15640 H 1472.42 4.66887 -4.83184 0
M  V30 15641 N 1475.14 1.08871 1.13951 0
M  V30 15642 C 1476.55 0.841552 1.66658 0
M  V30 15643 C 1476.91 -0.630932 1.85779 0
M  V30 15644 O 1476.03 -1.48673 1.57243 0
M  V30 15645 C 1476.63 1.52109 3.02735 0
M  V30 15646 C 1475.18 1.32105 3.52456 0
M  V30 15647 C 1474.33 1.58084 2.27826 0
M  V30 15648 H 1477.28 1.24865 0.97951 0
M  V30 15649 H 1477.3 0.950978 3.68425 0
M  V30 15650 H 1476.82 2.59276 2.88786 0
M  V30 15651 H 1474.92 0.270294 3.71618 0
M  V30 15652 H 1475.03 2.05197 4.32933 0
M  V30 15653 H 1473.39 1.00264 2.34135 0
M  V30 15654 H 1474.18 2.66467 2.16449 0
M  V30 15655 N 1476.62 -1.31073 0.875073 0
M  V30 15656 C 1477.57 -2.28389 0.332718 0
M  V30 15657 C 1478.54 -1.55954 -0.571639 0
M  V30 15658 O 1479.72 -1.84073 -0.502185 0
M  V30 15659 C 1476.86 -3.42083 -0.455364 0
M  V30 15660 C 1475.98 -4.29358 0.477088 0
M  V30 15661 C 1475.11 -5.30201 -0.325619 0
M  V30 15662 C 1474.15 -6.09123 0.602935 0
M  V30 15663 N 1473.29 -7.01909 -0.163836 0
M  V30 15664 H 1478.13 -2.74166 1.16777 0
M  V30 15665 H 1475.66 -1.3487 0.587248 0
M  V30 15666 H 1477.62 -4.06746 -0.928104 0
M  V30 15667 H 1476.25 -2.97402 -1.25507 0
M  V30 15668 H 1475.3 -3.65091 1.06829 0
M  V30 15669 H 1476.62 -4.84425 1.18887 0
M  V30 15670 H 1475.77 -6.00565 -0.860647 0
M  V30 15671 H 1474.51 -4.75802 -1.07067 0
M  V30 15672 H 1473.51 -5.37645 1.14968 0
M  V30 15673 H 1474.74 -6.65609 1.34692 0
M  V30 15674 H 1472.69 -6.49913 -0.891604 0
M  V30 15675 H 1472.6 -7.5442 0.48851 0
M  V30 15676 H 1473.87 -7.76529 -0.679929 0
M  V30 15677 N 1478.1 -0.635022 -1.4424 0
M  V30 15678 C 1479.35 -0.141067 -2.02008 0
M  V30 15679 C 1479.68 1.23849 -1.49973 0
M  V30 15680 O 1478.93 1.83666 -0.675673 0
M  V30 15681 C 1479.23 -0.081191 -3.57308 0
M  V30 15682 C 1478.9 -1.40004 -4.28614 0
M  V30 15683 C 1477.56 -1.76125 -4.4781 0
M  V30 15684 C 1479.91 -2.27041 -4.6915 0
M  V30 15685 C 1477.24 -2.98982 -5.04804 0
M  V30 15686 C 1479.59 -3.49173 -5.27504 0
M  V30 15687 C 1478.25 -3.85512 -5.44919 0
M  V30 15688 H 1477.52 -0.05162 -0.7392 0
M  V30 15689 H 1480.17 -0.822112 -1.72955 0
M  V30 15690 H 1478.48 0.68324 -3.85797 0
M  V30 15691 H 1480.17 0.317584 -3.9974 0
M  V30 15692 H 1476.76 -1.10897 -4.14005 0
M  V30 15693 H 1480.95 -2.0043 -4.54028 0
M  V30 15694 H 1476.2 -3.27208 -5.16473 0
M  V30 15695 H 1480.38 -4.16847 -5.57864 0
M  V30 15696 H 1478 -4.80793 -5.88848 0
M  V30 15697 N 1479.58 1.53054 -0.375806 0
M  V30 15698 C 1480.99 1.86426 0.101188 0
M  V30 15699 C 1481.34 1.29603 1.47301 0
M  V30 15700 O 1480.47 0.622059 2.07266 0
M  V30 15701 C 1481.06 3.38265 0.190389 0
M  V30 15702 C 1479.62 3.71397 0.611653 0
M  V30 15703 C 1478.77 2.76304 -0.234801 0
M  V30 15704 H 1481.72 1.47156 -0.594211 0
M  V30 15705 H 1481.74 3.66793 1.01207 0
M  V30 15706 H 1481.25 3.79592 -0.80818 0
M  V30 15707 H 1479.35 3.35632 1.61808 0
M  V30 15708 H 1479.46 4.77597 0.379168 0
M  V30 15709 H 1477.83 2.52952 0.297888 0
M  V30 15710 H 1478.61 3.20467 -1.2311 0
M  V30 15711 N 1481.06 0.105248 1.57248 0
M  V30 15712 C 1482.47 -0.251385 1.57608 0
M  V30 15713 C 1482.67 -1.677 1.11709 0
M  V30 15714 O 1481.73 -2.39552 0.798182 0
M  V30 15715 C 1483.04 -0.0305755 3.00684 0
M  V30 15716 C 1484.59 -0.0975409 3.12848 0
M  V30 15717 C 1485.06 0.0954024 4.57901 0
M  V30 15718 N 1486.56 0.040908 4.63182 0
M  V30 15719 C 1487.29 0.165298 5.73162 0
M  V30 15720 N 1486.79 0.345091 6.9194 0
M  V30 15721 N 1488.58 0.105847 5.62 0
M  V30 15722 H 1480.73 1.03658 1.85388 0
M  V30 15723 H 1482.99 0.407074 0.856151 0
M  V30 15724 H 1482.7 0.954461 3.38501 0
M  V30 15725 H 1482.57 -0.768477 3.69289 0
M  V30 15726 H 1484.96 -1.07309 2.74898 0
M  V30 15727 H 1485.04 0.672017 2.46815 0
M  V30 15728 H 1484.69 1.06786 4.96547 0
M  V30 15729 H 1484.62 -0.693974 5.22007 0
M  V30 15730 H 1487.11 -0.0951009 3.7778 0
M  V30 15731 H 1487.42 0.431243 7.71596 0
M  V30 15732 H 1485.76 0.38089 6.93955 0
M  V30 15733 H 1488.96 -0.0335544 4.68088 0
M  V30 15734 H 1489.13 0.206235 6.47672 0
M  V30 15735 N 1482.53 -1.56697 -0.168486 0
M  V30 15736 C 1483.78 -1.82424 -0.885965 0
M  V30 15737 C 1484.11 -0.683543 -1.81773 0
M  V30 15738 O 1483.39 0.314319 -1.91943 0
M  V30 15739 C 1483.67 -3.18553 -1.67917 0
M  V30 15740 C 1483.52 -4.43154 -0.770343 0
M  V30 15741 C 1484.84 -3.51654 -2.64627 0
M  V30 15742 H 1481.96 -0.663594 -0.320644 0
M  V30 15743 H 1484.6 -1.89391 -0.15205 0
M  V30 15744 H 1482.75 -3.12745 -2.30484 0
M  V30 15745 H 1484.43 -4.61032 -0.157328 0
M  V30 15746 H 1482.67 -4.33729 -0.0785653 0
M  V30 15747 H 1483.34 -5.34961 -1.36092 0
M  V30 15748 H 1485.82 -3.57934 -2.12185 0
M  V30 15749 H 1484.69 -4.47975 -3.17191 0
M  V30 15750 H 1484.95 -2.76503 -3.44961 0
M  V30 15751 N 1484.01 0.437135 -1.51416 0
M  V30 15752 C 1485.43 0.773631 -1.39596 0
M  V30 15753 C 1485.63 1.95737 -0.478463 0
M  V30 15754 O 1484.68 2.52413 0.0662971 0
M  V30 15755 C 1486 1.05381 -2.8163 0
M  V30 15756 C 1487.55 1.15824 -2.90782 0
M  V30 15757 C 1488.02 1.47135 -4.33722 0
M  V30 15758 N 1489.51 1.54059 -4.3683 0
M  V30 15759 C 1490.25 1.79858 -5.44462 0
M  V30 15760 N 1489.74 2.03449 -6.62254 0
M  V30 15761 N 1491.54 1.81642 -5.31942 0
M  V30 15762 H 1483.69 -0.342468 -2.09621 0
M  V30 15763 H 1485.95 -0.0908158 -0.94364 0
M  V30 15764 H 1485.66 0.256708 -3.50762 0
M  V30 15765 H 1485.53 1.98139 -3.20968 0
M  V30 15766 H 1487.92 1.94597 -2.21847 0
M  V30 15767 H 1488 0.209663 -2.54939 0
M  V30 15768 H 1487.64 0.688897 -5.03206 0
M  V30 15769 H 1487.57 2.43199 -4.67078 0
M  V30 15770 H 1490.06 1.3773 -3.51907 0
M  V30 15771 H 1490.38 2.22506 -7.40075 0
M  V30 15772 H 1488.72 2.00771 -6.65369 0
M  V30 15773 H 1491.91 1.62731 -4.38903 0
M  V30 15774 H 1492.08 2.01411 -6.15904 0
M  V30 15775 N 1485.49 1.41566 0.692592 0
M  V30 15776 C 1486.44 1.40114 1.79867 0
M  V30 15777 C 1487.42 0.275064 1.58531 0
M  V30 15778 O 1488.62 0.515959 1.69313 0
M  V30 15779 C 1485.75 1.28865 3.18196 0
M  V30 15780 C 1484.83 2.46347 3.45216 0
M  V30 15781 N 1485.22 3.71808 3.42918 0
M  V30 15782 C 1483.52 2.40224 3.75777 0
M  V30 15783 C 1484.22 4.49743 3.68926 0
M  V30 15784 N 1483.2 3.79898 3.88817 0
M  V30 15785 H 1487 2.35032 1.76457 0
M  V30 15786 H 1484.51 1.35663 0.892705 0
M  V30 15787 H 1486.51 1.25907 3.97433 0
M  V30 15788 H 1485.17 0.349339 3.22815 0
M  V30 15789 H 1486.18 4.04652 3.2323 0
M  V30 15790 H 1482.86 1.54781 3.87749 0
M  V30 15791 H 1484.25 5.58683 3.7326 0
M  V30 15792 N 1486.97 -0.927146 1.27443 0
M  V30 15793 C 1487.92 -2.02783 1.10216 0
M  V30 15794 C 1488.89 -1.661 0.00307842 0
M  V30 15795 O 1490.07 -1.90081 0.165508 0
M  V30 15796 C 1487.21 -3.36718 0.755984 0
M  V30 15797 C 1486.32 -3.86353 1.93276 0
M  V30 15798 C 1485.46 -5.08737 1.52841 0
M  V30 15799 C 1484.5 -5.50669 2.67263 0
M  V30 15800 N 1483.63 -6.6425 2.27413 0
M  V30 15801 H 1488.47 -2.16851 2.04401 0
M  V30 15802 H 1486.01 -1.06232 1.0175 0
M  V30 15803 H 1487.97 -4.13741 0.53609 0
M  V30 15804 H 1486.6 -3.22456 -0.148909 0
M  V30 15805 H 1485.65 -3.05604 2.26518 0
M  V30 15806 H 1486.96 -4.13401 2.79108 0
M  V30 15807 H 1486.12 -5.93263 1.26979 0
M  V30 15808 H 1484.86 -4.83467 0.641187 0
M  V30 15809 H 1483.86 -4.64692 2.93839 0
M  V30 15810 H 1485.09 -5.77934 3.56607 0
M  V30 15811 H 1483.03 -6.40636 1.41143 0
M  V30 15812 H 1482.95 -6.90955 3.06784 0
M  V30 15813 H 1484.22 -7.52115 2.048 0
M  V30 15814 N 1488.45 -1.09474 -1.13372 0
M  V30 15815 C 1489.67 -0.853093 -1.89043 0
M  V30 15816 C 1490.1 0.590075 -1.78605 0
M  V30 15817 O 1489.45 1.41462 -1.13394 0
M  V30 15818 C 1489.5 -1.29359 -3.36599 0
M  V30 15819 O 1488.61 -0.452355 -4.09912 0
M  V30 15820 H 1487.95 -0.308922 -0.587761 0
M  V30 15821 H 1490.48 -1.459 -1.43437 0
M  V30 15822 H 1490.49 -1.27921 -3.87428 0
M  V30 15823 H 1489.16 -2.3446 -3.43513 0
M  V30 15824 H 1487.74 -0.531098 -3.69099 0
M  V30 15825 N 1489.92 1.30607 -0.882012 0
M  V30 15826 C 1490.85 2.30666 -0.362706 0
M  V30 15827 C 1491.84 1.60865 0.552861 0
M  V30 15828 O 1493.02 1.88493 0.467339 0
M  V30 15829 C 1490.15 3.44675 0.42622 0
M  V30 15830 C 1489.1 4.26152 -0.397322 0
M  V30 15831 C 1488.43 5.32185 0.518027 0
M  V30 15832 C 1489.73 4.95955 -1.63785 0
M  V30 15833 H 1491.42 2.74351 -1.19883 0
M  V30 15834 H 1488.97 1.31895 -0.577912 0
M  V30 15835 H 1490.92 4.13734 0.80013 0
M  V30 15836 H 1489.65 2.99787 1.29597 0
M  V30 15837 H 1488.31 3.58776 -0.753332 0
M  V30 15838 H 1487.95 4.83545 1.3854 0
M  V30 15839 H 1487.65 5.87593 -0.0291802 0
M  V30 15840 H 1489.18 6.04101 0.888518 0
M  V30 15841 H 1490.59 5.57547 -1.3347 0
M  V30 15842 H 1488.99 5.61215 -2.12504 0
M  V30 15843 H 1490.06 4.22252 -2.38394 0
M  V30 15844 N 1491.4 0.642663 1.43901 0
M  V30 15845 C 1492.33 -0.0938945 2.29008 0
M  V30 15846 C 1493.35 -0.797561 1.41925 0
M  V30 15847 O 1494.54 -0.65708 1.65966 0
M  V30 15848 C 1491.64 -1.15564 3.18588 0
M  V30 15849 C 1490.81 -0.532208 4.3415 0
M  V30 15850 C 1489.87 -1.48943 5.0468 0
M  V30 15851 O 1488.89 -1.00211 5.60309 0
M  V30 15852 N 1490.1 -2.82362 5.072 0
M  V30 15853 H 1492.86 0.636539 2.92862 0
M  V30 15854 H 1490.42 0.484665 1.54475 0
M  V30 15855 H 1492.41 -1.79658 3.62636 0
M  V30 15856 H 1490.98 -1.78816 2.56405 0
M  V30 15857 H 1490.2 0.287598 3.93149 0
M  V30 15858 H 1491.49 -0.0965526 5.08708 0
M  V30 15859 H 1490.89 -3.24524 4.63358 0
M  V30 15860 H 1489.45 -3.41786 5.55001 0
M  V30 15861 N 1492.88 -1.52852 0.383918 0
M  V30 15862 C 1494.13 -2.01809 -0.200285 0
M  V30 15863 C 1494.46 -1.27009 -1.46909 0
M  V30 15864 O 1493.74 -0.369002 -1.90968 0
M  V30 15865 C 1494.02 -3.56971 -0.473672 0
M  V30 15866 C 1493.87 -4.42446 0.810048 0
M  V30 15867 C 1495.19 -4.21481 -1.26658 0
M  V30 15868 H 1492.31 -0.733541 -0.0713192 0
M  V30 15869 H 1494.95 -1.8296 0.512425 0
M  V30 15870 H 1493.1 -3.73163 -1.08081 0
M  V30 15871 H 1494.77 -4.38016 1.44706 0
M  V30 15872 H 1493.02 -4.09674 1.42652 0
M  V30 15873 H 1493.69 -5.49013 0.573478 0
M  V30 15874 H 1496.16 -4.09233 -0.752806 0
M  V30 15875 H 1495.04 -5.30037 -1.42661 0
M  V30 15876 H 1495.3 -3.78756 -2.28028 0
M  V30 15877 N 1494.36 -0.113586 -1.5719 0
M  V30 15878 C 1495.78 0.243023 -1.57739 0
M  V30 15879 C 1495.98 1.67105 -1.12597 0
M  V30 15880 O 1495.03 2.39126 -0.810874 0
M  V30 15881 C 1496.34 0.014629 -3.00696 0
M  V30 15882 C 1497.89 0.0809485 -3.12895 0
M  V30 15883 C 1498.37 -0.119685 -4.57844 0
M  V30 15884 N 1499.86 -0.0654711 -4.63154 0
M  V30 15885 C 1500.59 -0.195692 -5.73066 0
M  V30 15886 N 1500.09 -0.381782 -6.91747 0
M  V30 15887 N 1501.88 -0.13565 -5.61936 0
M  V30 15888 H 1494.03 -1.04639 -1.84836 0
M  V30 15889 H 1496.3 -0.411609 -0.85398 0
M  V30 15890 H 1496 -0.972399 -3.3799 0
M  V30 15891 H 1495.88 0.748882 -3.69691 0
M  V30 15892 H 1498.26 1.0585 -2.75463 0
M  V30 15893 H 1498.34 -0.685097 -2.46455 0
M  V30 15894 H 1497.99 -1.09418 -4.95974 0
M  V30 15895 H 1497.92 0.666281 -5.22368 0
M  V30 15896 H 1500.41 0.0750649 -3.77825 0
M  V30 15897 H 1500.72 -0.472157 -7.71356 0
M  V30 15898 H 1499.07 -0.417686 -6.93744 0
M  V30 15899 H 1502.26 0.0087301 -4.68099 0
M  V30 15900 H 1502.43 -0.240579 -6.47553 0
M  V30 15901 N 1495.84 1.56784 0.160173 0
M  V30 15902 C 1496.77 1.93848 1.22293 0
M  V30 15903 C 1497.78 0.832803 1.39886 0
M  V30 15904 O 1498.97 1.11124 1.39692 0
M  V30 15905 C 1496.07 2.18581 2.58989 0
M  V30 15906 C 1495.24 3.49839 2.62548 0
M  V30 15907 C 1494.3 3.63268 3.80687 0
M  V30 15908 O 1493.33 4.35785 3.6617 0
M  V30 15909 N 1494.53 2.98948 4.97605 0
M  V30 15910 H 1497.3 2.85614 0.908004 0
M  V30 15911 H 1494.86 1.58075 0.349851 0
M  V30 15912 H 1496.85 2.24819 3.36509 0
M  V30 15913 H 1495.42 1.33145 2.82827 0
M  V30 15914 H 1494.64 3.5516 1.7104 0
M  V30 15915 H 1495.93 4.3619 2.61945 0
M  V30 15916 H 1495.33 2.39924 5.12302 0
M  V30 15917 H 1493.88 3.10765 5.72947 0
M  V30 15918 N 1497.32 -0.429099 1.51646 0
M  V30 15919 C 1498.59 -1.18958 1.55269 0
M  V30 15920 C 1498.97 -2.08633 0.321816 0
M  V30 15921 O 1498.32 -2.1775 -0.69261 0
M  V30 15922 C 1498.53 -1.98427 2.87102 0
M  V30 15923 C 1499.88 -2.55185 3.39361 0
M  V30 15924 O 1500.9 -2.08629 2.88708 0
M  V30 15925 O 1499.76 -3.40119 4.27763 0
M  V30 15926 H 1496.86 -0.542041 0.624596 0
M  V30 15927 H 1499.4 -0.437499 1.63964 0
M  V30 15928 H 1498.17 -1.32613 3.68143 0
M  V30 15929 H 1497.8 -2.80683 2.81608 0
M  V30 15930 N 1498.79 -1.41931 -0.685074 0
M  V30 15931 C 1500.04 -1.41571 -1.44229 0
M  V30 15932 C 1500.36 -0.0294445 -1.94978 0
M  V30 15933 O 1499.63 0.930414 -1.72395 0
M  V30 15934 H 1498.21 -0.521138 -0.535186 0
M  V30 15935 H 1500.87 -1.77263 -0.81017 0
M  V30 15936 H 1499.97 -2.10929 -2.30034 0
M  V30 15937 N 1500.27 0.920374 -1.27933 0
M  V30 15938 C 1501.52 1.66554 -1.14474 0
M  V30 15939 C 1501.84 1.92545 0.308444 0
M  V30 15940 O 1501.11 1.53691 1.21473 0
M  V30 15941 H 1499.69 0.617302 -0.420651 0
M  V30 15942 H 1502.35 1.10473 -1.60567 0
M  V30 15943 H 1501.45 2.63067 -1.67935 0
M  V30 15944 N 1501.75 1.10074 1.1279 0
M  V30 15945 C 1502.7 0.746173 2.18405 0
M  V30 15946 C 1503.67 -0.275751 1.63795 0
M  V30 15947 O 1504.85 -0.155876 1.90162 0
M  V30 15948 C 1501.99 0.180105 3.4463 0
M  V30 15949 C 1501.1 1.25688 4.13312 0
M  V30 15950 C 1500.24 0.652852 5.27173 0
M  V30 15951 C 1499.28 1.71046 5.87716 0
M  V30 15952 N 1498.42 1.12698 6.92996 0
M  V30 15953 H 1503.26 1.65105 2.48081 0
M  V30 15954 H 1500.79 0.824768 1.21803 0
M  V30 15955 H 1502.75 -0.165948 4.1687 0
M  V30 15956 H 1501.38 -0.688014 3.15383 0
M  V30 15957 H 1500.43 1.72011 3.39288 0
M  V30 15958 H 1501.74 2.05762 4.54382 0
M  V30 15959 H 1500.9 0.25603 6.0616 0
M  V30 15960 H 1499.64 -0.17937 4.8737 0
M  V30 15961 H 1498.64 2.11676 5.07418 0
M  V30 15962 H 1499.87 2.54547 6.29589 0
M  V30 15963 H 1497.81 0.316154 6.55238 0
M  V30 15964 H 1497.73 1.86461 7.32645 0
M  V30 15965 H 1499 0.756582 7.7582 0
M  V30 15966 N 1503.23 -1.30138 0.888926 0
M  V30 15967 C 1504.45 -2.00679 0.523697 0
M  V30 15968 C 1504.88 -1.66167 -0.881479 0
M  V30 15969 O 1504.24 -0.880418 -1.58488 0
M  V30 15970 C 1504.28 -3.53535 0.710284 0
M  V30 15971 O 1503.39 -4.11689 -0.242066 0
M  V30 15972 H 1502.73 -0.631273 0.205888 0
M  V30 15973 H 1505.26 -1.65891 1.19756 0
M  V30 15974 H 1505.27 -4.03402 0.610794 0
M  V30 15975 H 1503.94 -3.77992 1.73478 0
M  V30 15976 H 1502.52 -3.72777 -0.0959393 0
M  V30 15977 N 1504.71 -0.650285 -1.43559 0
M  V30 15978 C 1506.12 -0.317586 -1.56408 0
M  V30 15979 C 1506.32 1.17844 -1.63447 0
M  V30 15980 O 1505.38 1.96318 -1.58794 0
M  V30 15981 C 1506.69 -1.02636 -2.82642 0
M  V30 15982 C 1508.24 -1.00633 -2.96381 0
M  V30 15983 C 1508.71 -1.69595 -4.25443 0
M  V30 15984 N 1510.2 -1.66345 -4.323 0
M  V30 15985 C 1510.94 -2.16581 -5.30924 0
M  V30 15986 N 1510.44 -2.75092 -6.35843 0
M  V30 15987 N 1512.23 -2.07098 -5.22558 0
M  V30 15988 H 1504.38 -1.62114 -1.37233 0
M  V30 15989 H 1506.64 -0.681588 -0.658895 0
M  V30 15990 H 1506.35 -2.08146 -2.83493 0
M  V30 15991 H 1506.22 -0.576081 -3.72775 0
M  V30 15992 H 1508.61 0.0403519 -2.95072 0
M  V30 15993 H 1508.69 -1.49528 -2.07545 0
M  V30 15994 H 1508.33 -2.74218 -4.27512 0
M  V30 15995 H 1508.26 -1.18168 -5.1317 0
M  V30 15996 H 1510.76 -1.23644 -3.571 0
M  V30 15997 H 1511.07 -3.11108 -7.07412 0
M  V30 15998 H 1509.41 -2.79152 -6.36474 0
M  V30 15999 H 1512.6 -1.61093 -4.39507 0
M  V30 16000 H 1512.78 -2.46557 -5.99261 0
M  V30 16001 N 1506.18 1.52647 -0.392018 0
M  V30 16002 C 1507.11 2.29446 0.433228 0
M  V30 16003 C 1508.09 1.32945 1.06111 0
M  V30 16004 O 1509.28 1.61841 1.07337 0
M  V30 16005 C 1506.41 3.10328 1.55929 0
M  V30 16006 C 1505.36 4.14735 1.05731 0
M  V30 16007 C 1504.69 4.83858 2.27565 0
M  V30 16008 C 1505.99 5.22154 0.123346 0
M  V30 16009 H 1507.68 2.9868 -0.207563 0
M  V30 16010 H 1505.23 1.43643 -0.101266 0
M  V30 16011 H 1507.18 3.62814 2.14346 0
M  V30 16012 H 1505.91 2.38832 2.22771 0
M  V30 16013 H 1504.57 3.63234 0.495653 0
M  V30 16014 H 1504.21 4.08907 2.92923 0
M  V30 16015 H 1503.91 5.54428 1.94637 0
M  V30 16016 H 1505.44 5.39149 2.86619 0
M  V30 16017 H 1506.85 5.69983 0.615784 0
M  V30 16018 H 1505.25 5.99987 -0.116304 0
M  V30 16019 H 1506.32 4.77796 -0.826969 0
M  V30 16020 N 1507.66 0.121921 1.57128 0
M  V30 16021 C 1508.61 -0.827205 2.15467 0
M  V30 16022 C 1509.58 -1.26155 1.08047 0
M  V30 16023 O 1510.76 -1.33855 1.35969 0
M  V30 16024 C 1507.9 -2.07077 2.76067 0
M  V30 16025 C 1507.02 -1.68452 3.97804 0
M  V30 16026 C 1506.15 -2.87797 4.46482 0
M  V30 16027 C 1505.19 -2.45426 5.60743 0
M  V30 16028 N 1504.33 -3.57695 6.04151 0
M  V30 16029 H 1509.17 -0.322879 2.96246 0
M  V30 16030 H 1506.71 -0.147677 1.46357 0
M  V30 16031 H 1508.66 -2.79943 3.09335 0
M  V30 16032 H 1507.29 -2.54963 1.97974 0
M  V30 16033 H 1506.35 -0.854487 3.70679 0
M  V30 16034 H 1507.66 -1.33316 4.80654 0
M  V30 16035 H 1506.81 -3.68885 4.81673 0
M  V30 16036 H 1505.55 -3.26162 3.62587 0
M  V30 16037 H 1504.56 -1.62772 5.25153 0
M  V30 16038 H 1505.78 -2.08175 6.46405 0
M  V30 16039 H 1503.73 -3.95728 5.23197 0
M  V30 16040 H 1503.64 -3.26491 6.81865 0
M  V30 16041 H 1504.91 -4.39213 6.43981 0
M  V30 16042 N 1509.14 -1.56867 -0.151857 0
M  V30 16043 C 1510.09 -1.97899 -1.18763 0
M  V30 16044 C 1511.06 -0.845833 -1.42951 0
M  V30 16045 O 1512.24 -1.10751 -1.55367 0
M  V30 16046 C 1509.38 -2.36063 -2.5173 0
M  V30 16047 C 1508.5 -3.62647 -2.34757 0
M  V30 16048 C 1507.63 -3.89936 -3.60726 0
M  V30 16049 C 1506.67 -5.09806 -3.38769 0
M  V30 16050 N 1505.81 -5.33129 -4.56856 0
M  V30 16051 H 1510.65 -2.86187 -0.830713 0
M  V30 16052 H 1508.18 -1.41592 -0.398745 0
M  V30 16053 H 1510.14 -2.56218 -3.29254 0
M  V30 16054 H 1508.77 -1.50861 -2.85379 0
M  V30 16055 H 1507.82 -3.50297 -1.48312 0
M  V30 16056 H 1509.14 -4.50328 -2.1449 0
M  V30 16057 H 1508.29 -4.10563 -4.4668 0
M  V30 16058 H 1507.03 -3.00668 -3.83993 0
M  V30 16059 H 1506.03 -4.89057 -2.51203 0
M  V30 16060 H 1507.26 -6.00623 -3.16906 0
M  V30 16061 H 1505.2 -4.46815 -4.80305 0
M  V30 16062 H 1505.12 -6.1507 -4.39574 0
M  V30 16063 H 1506.39 -5.5825 -5.44038 0
M  V30 16064 N 1510.62 0.421051 -1.51871 0
M  V30 16065 C 1511.84 1.19568 -1.69465 0
M  V30 16066 C 1512.27 1.83835 -0.398269 0
M  V30 16067 O 1511.63 1.69508 0.643172 0
M  V30 16068 C 1511.67 2.24337 -2.82321 0
M  V30 16069 O 1510.78 3.30205 -2.47059 0
M  V30 16070 H 1510.12 0.349579 -0.564527 0
M  V30 16071 H 1512.65 0.495177 -1.98517 0
M  V30 16072 H 1512.66 2.6886 -3.06885 0
M  V30 16073 H 1511.33 1.76941 -3.76384 0
M  V30 16074 H 1509.91 2.91045 -2.33125 0
M  V30 16075 N 1512.1 1.42293 0.677538 0
M  V30 16076 C 1513.03 1.41503 1.80304 0
M  V30 16077 C 1514.04 0.314499 1.59733 0
M  V30 16078 O 1515.23 0.57741 1.68903 0
M  V30 16079 C 1512.33 1.18879 3.17366 0
M  V30 16080 C 1511.5 2.41314 3.6481 0
M  V30 16081 C 1510.56 2.14277 4.80595 0
M  V30 16082 O 1509.59 2.87457 4.91281 0
M  V30 16083 N 1510.79 1.14419 5.69112 0
M  V30 16084 H 1513.56 2.38515 1.81468 0
M  V30 16085 H 1511.12 1.37137 0.860529 0
M  V30 16086 H 1513.11 0.987135 3.92476 0
M  V30 16087 H 1511.68 0.304002 3.11118 0
M  V30 16088 H 1510.9 2.77066 2.80407 0
M  V30 16089 H 1512.19 3.2285 3.9325 0
M  V30 16090 H 1511.58 0.53888 5.63127 0
M  V30 16091 H 1510.14 1.00241 6.44046 0
M  V30 16092 N 1513.57 -0.913576 1.28419 0
M  V30 16093 C 1514.82 -1.66273 1.15584 0
M  V30 16094 C 1515.15 -1.92242 -0.295541 0
M  V30 16095 O 1514.4 -1.52104 -1.23137 0
M  V30 16096 C 1514.7 -3.02722 1.89985 0
M  V30 16097 C 1514.37 -2.96413 3.3978 0
M  V30 16098 C 1513.03 -2.94399 3.80635 0
M  V30 16099 C 1515.38 -2.86648 4.35296 0
M  V30 16100 C 1512.71 -2.80422 5.15345 0
M  V30 16101 C 1515.06 -2.74211 5.7008 0
M  V30 16102 C 1513.73 -2.70556 6.1021 0
M  V30 16103 H 1513 -0.608435 0.422951 0
M  V30 16104 H 1515.64 -1.06438 1.59196 0
M  V30 16105 H 1513.95 -3.66344 1.38923 0
M  V30 16106 H 1515.65 -3.59591 1.7747 0
M  V30 16107 H 1512.24 -2.98775 3.07297 0
M  V30 16108 H 1516.42 -2.87291 4.04695 0
M  V30 16109 H 1511.68 -2.75987 5.45565 0
M  V30 16110 H 1515.85 -2.65624 6.43752 0
M  V30 16111 H 1513.48 -2.59483 7.14544 0
M  V30 16112 N 1515.05 -1.1067 -1.12204 0
M  V30 16113 C 1515.98 -0.779829 -2.20093 0
M  V30 16114 C 1516.96 0.248279 -1.68278 0
M  V30 16115 O 1518.15 0.113511 -1.93868 0
M  V30 16116 C 1515.28 -0.213511 -3.46643 0
M  V30 16117 C 1514.23 -1.17258 -4.11624 0
M  V30 16118 C 1513.56 -0.467352 -5.32654 0
M  V30 16119 C 1514.86 -2.52014 -4.57478 0
M  V30 16120 H 1516.55 -1.68192 -2.47693 0
M  V30 16121 H 1514.1 -0.810131 -1.1905 0
M  V30 16122 H 1516.05 0.0273225 -4.21391 0
M  V30 16123 H 1514.78 0.723837 -3.18478 0
M  V30 16124 H 1513.43 -1.39891 -3.3886 0
M  V30 16125 H 1513.08 0.474547 -5.00756 0
M  V30 16126 H 1512.78 -1.10694 -5.77079 0
M  V30 16127 H 1514.31 -0.235122 -6.10147 0
M  V30 16128 H 1515.72 -2.33516 -5.23587 0
M  V30 16129 H 1514.12 -3.1188 -5.1269 0
M  V30 16130 H 1515.19 -3.11831 -3.71335 0
M  V30 16131 N 1516.53 1.29665 -0.895815 0
M  V30 16132 C 1517.78 1.94995 -0.515749 0
M  V30 16133 C 1518.09 1.71427 0.94192 0
M  V30 16134 O 1519.3 2.3083 1.42933 0
M  V30 16135 C 1517.75 3.4919 -0.871468 0
M  V30 16136 C 1517.36 3.81562 -2.34764 0
M  V30 16137 C 1519.11 4.20775 -0.561123 0
M  V30 16138 C 1517.01 5.28984 -2.64442 0
M  V30 16139 H 1515.94 0.729889 -0.189151 0
M  V30 16140 H 1518.59 1.4745 -1.09228 0
M  V30 16141 H 1516.98 3.95366 -0.223908 0
M  V30 16142 H 1518.15 3.46258 -3.04043 0
M  V30 16143 H 1516.47 3.23107 -2.62661 0
M  V30 16144 H 1519.06 5.29275 -0.759755 0
M  V30 16145 H 1519.41 4.13285 0.500129 0
M  V30 16146 H 1519.94 3.80317 -1.16635 0
M  V30 16147 H 1516.68 5.41535 -3.69351 0
M  V30 16148 H 1516.2 5.6555 -1.99784 0
M  V30 16149 H 1517.88 5.96536 -2.50506 0
M  V30 16150 N 1518.01 0.657889 1.43212 0
M  V30 16151 C 1518.96 -0.0308596 2.30779 0
M  V30 16152 C 1519.93 -0.809951 1.45014 0
M  V30 16153 O 1521.11 -0.785615 1.73876 0
M  V30 16154 C 1518.25 -0.988048 3.30653 0
M  V30 16155 C 1517.36 -0.204567 4.31515 0
M  V30 16156 C 1516.5 -1.15598 5.1847 0
M  V30 16157 C 1515.54 -0.363197 6.11022 0
M  V30 16158 N 1514.67 -1.26644 6.90584 0
M  V30 16159 H 1519.51 0.721745 2.89128 0
M  V30 16160 H 1517.05 0.367677 1.42431 0
M  V30 16161 H 1519.01 -1.55666 3.87071 0
M  V30 16162 H 1517.64 -1.70747 2.73944 0
M  V30 16163 H 1516.69 0.48041 3.77354 0
M  V30 16164 H 1518 0.411684 4.97098 0
M  V30 16165 H 1517.16 -1.79507 5.79536 0
M  V30 16166 H 1515.9 -1.80613 4.53023 0
M  V30 16167 H 1514.9 0.28922 5.49039 0
M  V30 16168 H 1516.13 0.28262 6.78512 0
M  V30 16169 H 1514.07 -1.90331 6.27782 0
M  V30 16170 H 1513.99 -0.70486 7.52707 0
M  V30 16171 H 1515.26 -1.89353 7.56152 0
M  V30 16172 N 1519.49 -1.52437 0.400108 0
M  V30 16173 C 1520.71 -2.0613 -0.178364 0
M  V30 16174 C 1521.13 -1.27094 -1.39616 0
M  V30 16175 O 1520.49 -0.320409 -1.79665 0
M  V30 16176 C 1520.54 -3.57478 -0.53777 0
M  V30 16177 O 1520.26 -4.33522 0.631657 0
M  V30 16178 C 1521.76 -4.27556 -1.17094 0
M  V30 16179 H 1518.98 -0.670558 -0.0243619 0
M  V30 16180 H 1521.52 -1.9644 0.568459 0
M  V30 16181 H 1519.68 -3.67205 -1.23449 0
M  V30 16182 H 1520.09 -5.23437 0.333803 0
M  V30 16183 H 1521.57 -5.3466 -1.3727 0
M  V30 16184 H 1522.04 -3.83456 -2.14145 0
M  V30 16185 H 1522.65 -4.22174 -0.514687 0
M  V30 16186 N 1520.96 -0.130252 -1.57061 0
M  V30 16187 C 1522.38 0.226279 -1.57988 0
M  V30 16188 C 1522.58 1.65902 -1.14363 0
M  V30 16189 O 1521.64 2.38252 -0.836191 0
M  V30 16190 C 1522.95 -0.0172647 -3.00695 0
M  V30 16191 C 1524.5 0.0477572 -3.12964 0
M  V30 16192 C 1524.97 -0.168238 -4.57691 0
M  V30 16193 N 1526.46 -0.114591 -4.63058 0
M  V30 16194 C 1527.2 -0.256462 -5.72826 0
M  V30 16195 N 1526.69 -0.455129 -6.91303 0
M  V30 16196 N 1528.49 -0.195243 -5.61761 0
M  V30 16197 H 1520.64 -1.06594 -1.83716 0
M  V30 16198 H 1522.9 -0.420643 -0.849567 0
M  V30 16199 H 1522.61 -1.00819 -3.3694 0
M  V30 16200 H 1522.48 0.709629 -3.70465 0
M  V30 16201 H 1524.87 1.02922 -2.7657 0
M  V30 16202 H 1524.95 -0.711198 -2.45714 0
M  V30 16203 H 1524.59 -1.14673 -4.94785 0
M  V30 16204 H 1524.52 0.610839 -5.23045 0
M  V30 16205 H 1527.01 0.0349873 -3.77884 0
M  V30 16206 H 1527.33 -0.553943 -7.70812 0
M  V30 16207 H 1525.67 -0.491244 -6.93262 0
M  V30 16208 H 1528.86 -0.0409186 -4.68082 0
M  V30 16209 H 1529.04 -0.309248 -6.47262 0
M  V30 16210 N 1522.44 1.56945 0.143535 0
M  V30 16211 C 1523.39 1.98526 1.17711 0
M  V30 16212 C 1524.36 0.853402 1.425 0
M  V30 16213 O 1525.55 1.11574 1.54777 0
M  V30 16214 C 1522.69 2.37395 2.50475 0
M  V30 16215 C 1521.8 3.63887 2.32831 0
M  V30 16216 C 1520.93 3.91844 3.58653 0
M  V30 16217 C 1519.97 5.11595 3.36061 0
M  V30 16218 N 1519.11 5.35545 4.54022 0
M  V30 16219 H 1523.95 2.86624 0.815524 0
M  V30 16220 H 1521.49 1.41802 0.391231 0
M  V30 16221 H 1523.44 2.5796 3.27891 0
M  V30 16222 H 1522.07 1.52372 2.84575 0
M  V30 16223 H 1521.13 3.51078 1.46452 0
M  V30 16224 H 1522.44 4.51459 2.12098 0
M  V30 16225 H 1521.59 4.12926 4.44497 0
M  V30 16226 H 1520.33 3.027 3.82393 0
M  V30 16227 H 1519.34 4.90383 2.48606 0
M  V30 16228 H 1520.56 6.02295 3.13716 0
M  V30 16229 H 1518.51 4.49355 4.77929 0
M  V30 16230 H 1518.42 6.17393 4.36305 0
M  V30 16231 H 1519.69 5.61127 5.4107 0
M  V30 16232 N 1523.92 -0.412991 1.52093 0
M  V30 16233 C 1524.87 -1.50294 1.75158 0
M  V30 16234 C 1525.84 -1.55119 0.593902 0
M  V30 16235 O 1527.02 -1.71751 0.831032 0
M  V30 16236 C 1524.16 -2.87781 1.90463 0
M  V30 16237 C 1523.28 -2.92295 3.181 0
M  V30 16238 C 1522.41 -4.21056 3.23859 0
M  V30 16239 C 1521.45 -4.1953 4.45714 0
M  V30 16240 N 1520.59 -5.39857 4.48886 0
M  V30 16241 H 1525.43 -1.29927 2.68185 0
M  V30 16242 H 1522.96 -0.630741 1.32891 0
M  V30 16243 H 1524.92 -3.67588 1.9732 0
M  V30 16244 H 1523.55 -3.06651 1.00822 0
M  V30 16245 H 1522.6 -2.05002 3.20434 0
M  V30 16246 H 1523.92 -2.87031 4.0794 0
M  V30 16247 H 1523.07 -5.09253 3.29767 0
M  V30 16248 H 1521.81 -4.2901 2.31952 0
M  V30 16249 H 1520.81 -3.29724 4.39957 0
M  V30 16250 H 1522.04 -4.1322 5.38912 0
M  V30 16251 H 1519.99 -5.48486 3.59861 0
M  V30 16252 H 1519.9 -5.36572 5.32566 0
M  V30 16253 H 1521.17 -6.30018 4.59018 0
M  V30 16254 N 1525.4 -1.4265 -0.669982 0
M  V30 16255 C 1526.35 -1.46504 -1.7834 0
M  V30 16256 C 1527.32 -0.316478 -1.63057 0
M  V30 16257 O 1528.5 -0.521245 -1.83542 0
M  V30 16258 C 1525.64 -1.37784 -3.16401 0
M  V30 16259 C 1524.75 -2.62714 -3.42937 0
M  V30 16260 C 1523.89 -2.46101 -4.70752 0
M  V30 16261 C 1522.93 -3.66381 -4.90338 0
M  V30 16262 N 1522.07 -3.48681 -6.09398 0
M  V30 16263 H 1526.91 -2.41651 -1.74381 0
M  V30 16264 H 1524.44 -1.1997 -0.851215 0
M  V30 16265 H 1526.4 -1.30725 -3.9619 0
M  V30 16266 H 1525.03 -0.462291 -3.19473 0
M  V30 16267 H 1524.08 -2.8012 -2.57366 0
M  V30 16268 H 1525.39 -3.52108 -3.53301 0
M  V30 16269 H 1524.55 -2.36655 -5.58641 0
M  V30 16270 H 1523.29 -1.54204 -4.6268 0
M  V30 16271 H 1522.29 -3.76254 -4.00891 0
M  V30 16272 H 1523.52 -4.59265 -5.00253 0
M  V30 16273 H 1521.46 -2.59505 -6.02489 0
M  V30 16274 H 1521.38 -4.31666 -6.20645 0
M  V30 16275 H 1522.65 -3.43056 -6.99952 0
M  V30 16276 N 1526.88 0.906753 -1.28902 0
M  V30 16277 C 1527.82 2.01004 -1.13429 0
M  V30 16278 C 1528.79 1.66074 -0.0295031 0
M  V30 16279 O 1529.98 1.89793 -0.195727 0
M  V30 16280 C 1527.12 3.35473 -0.809457 0
M  V30 16281 C 1526.23 3.83229 -1.99398 0
M  V30 16282 C 1525.37 5.06241 -1.60915 0
M  V30 16283 C 1524.41 5.46348 -2.7599 0
M  V30 16284 N 1523.54 6.60548 -2.37952 0
M  V30 16285 H 1528.38 2.13571 -2.07825 0
M  V30 16286 H 1525.92 1.046 -1.03428 0
M  V30 16287 H 1527.88 4.12836 -0.601845 0
M  V30 16288 H 1526.51 3.22652 0.0975896 0
M  V30 16289 H 1525.56 3.01962 -2.31351 0
M  V30 16290 H 1526.87 4.08908 -2.85649 0
M  V30 16291 H 1526.03 5.91168 -1.36401 0
M  V30 16292 H 1524.77 4.82385 -0.718021 0
M  V30 16293 H 1523.77 4.59959 -3.01195 0
M  V30 16294 H 1525 5.72188 -3.65757 0
M  V30 16295 H 1522.94 6.38309 -1.51318 0
M  V30 16296 H 1522.86 6.85987 -3.17738 0
M  V30 16297 H 1524.13 7.48762 -2.1674 0
M  V30 16298 N 1528.36 1.11264 1.11616 0
M  V30 16299 C 1529.27 0.781961 2.21184 0
M  V30 16300 C 1530.28 -0.224149 1.7255 0
M  V30 16301 O 1531.46 -0.0607743 2.01308 0
M  V30 16302 C 1528.52 0.228031 3.45949 0
M  V30 16303 C 1527.58 1.29251 4.09381 0
M  V30 16304 C 1526.82 0.764921 5.2819 0
M  V30 16305 O 1527.04 -0.405671 5.68956 0
M  V30 16306 O 1525.97 1.52886 5.82159 0
M  V30 16307 H 1529.8 1.69678 2.51879 0
M  V30 16308 H 1527.38 0.888394 1.20116 0
M  V30 16309 H 1529.27 -0.0766085 4.2133 0
M  V30 16310 H 1527.94 -0.659519 3.1691 0
M  V30 16311 H 1526.85 1.65014 3.3574 0
M  V30 16312 H 1528.18 2.15339 4.42595 0
M  V30 16313 N 1529.83 -1.29188 0.902679 0
M  V30 16314 C 1530.78 -2.27632 0.381088 0
M  V30 16315 C 1531.75 -1.57131 -0.538431 0
M  V30 16316 O 1532.94 -1.85096 -0.463027 0
M  V30 16317 C 1530.08 -3.42971 -0.382701 0
M  V30 16318 C 1529.19 -4.28249 0.568054 0
M  V30 16319 C 1528.32 -5.30772 -0.213082 0
M  V30 16320 C 1527.36 -6.07707 0.732004 0
M  V30 16321 N 1526.5 -7.02098 -0.0149139 0
M  V30 16322 H 1531.34 -2.71628 1.22566 0
M  V30 16323 H 1528.88 -1.33594 0.615724 0
M  V30 16324 H 1530.83 -4.08623 -0.841619 0
M  V30 16325 H 1529.46 -2.99997 -1.19171 0
M  V30 16326 H 1528.52 -3.62743 1.14549 0
M  V30 16327 H 1529.83 -4.81794 1.29136 0
M  V30 16328 H 1528.98 -6.02255 -0.733065 0
M  V30 16329 H 1527.72 -4.77966 -0.969504 0
M  V30 16330 H 1526.73 -5.35086 1.26346 0
M  V30 16331 H 1527.95 -6.62602 1.4878 0
M  V30 16332 H 1525.9 -6.51658 -0.753548 0
M  V30 16333 H 1525.81 -7.53214 0.648423 0
M  V30 16334 H 1527.08 -7.77796 -0.515062 0
M  V30 16335 N 1531.31 -0.665475 -1.42861 0
M  V30 16336 C 1532.26 0.0411925 -2.27963 0
M  V30 16337 C 1533.25 0.782763 -1.40576 0
M  V30 16338 O 1534.44 0.66321 -1.64105 0
M  V30 16339 C 1531.57 0.998333 -3.28463 0
M  V30 16340 C 1530.65 0.254595 -4.23335 0
M  V30 16341 N 1531.04 -0.735508 -5.00424 0
M  V30 16342 C 1529.34 0.494345 -4.43252 0
M  V30 16343 C 1530.04 -1.17807 -5.69646 0
M  V30 16344 N 1529.02 -0.509865 -5.41204 0
M  V30 16345 H 1532.82 -0.718381 -2.84985 0
M  V30 16346 H 1530.33 -0.493763 -1.54712 0
M  V30 16347 H 1532.33 1.51949 -3.88223 0
M  V30 16348 H 1530.99 1.75783 -2.73002 0
M  V30 16349 H 1532 -1.1147 -5.05762 0
M  V30 16350 H 1528.68 1.23407 -3.98845 0
M  V30 16351 H 1530.07 -1.998 -6.41506 0
M  V30 16352 N 1532.79 1.52222 -0.408187 0
M  V30 16353 C 1534.02 2.06221 0.16743 0
M  V30 16354 C 1534.43 1.27832 1.3894 0
M  V30 16355 O 1533.79 0.329933 1.79493 0
M  V30 16356 C 1533.84 3.57758 0.518804 0
M  V30 16357 O 1533.56 4.33181 -0.654639 0
M  V30 16358 C 1535.06 4.28171 1.14825 0
M  V30 16359 H 1532.28 0.670677 0.0208054 0
M  V30 16360 H 1534.83 1.96136 -0.578868 0
M  V30 16361 H 1532.98 3.67854 1.215 0
M  V30 16362 H 1533.4 5.23252 -0.361558 0
M  V30 16363 H 1534.87 5.3538 1.34433 0
M  V30 16364 H 1535.35 3.84586 2.12108 0
M  V30 16365 H 1535.95 4.22441 0.492291 0
M  V30 16366 N 1534.27 0.138579 1.5699 0
M  V30 16367 C 1535.22 -0.815878 2.12902 0
M  V30 16368 C 1536.2 -1.21511 1.0547 0
M  V30 16369 O 1537.39 -1.18294 1.31665 0
M  V30 16370 C 1534.52 -2.0583 2.74752 0
M  V30 16371 C 1533.61 -1.68255 3.89296 0
M  V30 16372 N 1534 -1.01456 4.9552 0
M  V30 16373 C 1532.3 -1.97583 3.99846 0
M  V30 16374 C 1533 -0.834498 5.75683 0
M  V30 16375 N 1531.97 -1.36571 5.26165 0
M  V30 16376 H 1535.78 -0.296204 2.92404 0
M  V30 16377 H 1533.29 -0.0632473 1.62277 0
M  V30 16378 H 1535.29 -2.75197 3.13165 0
M  V30 16379 H 1533.95 -2.58323 1.96721 0
M  V30 16380 H 1534.96 -0.67628 5.13466 0
M  V30 16381 H 1531.64 -2.51985 3.32881 0
M  V30 16382 H 1533.03 -0.308664 6.71191 0
M  V30 16383 N 1535.75 -1.57019 -0.13521 0
M  V30 16384 C 1536.7 -1.95569 -1.17203 0
M  V30 16385 C 1537.68 -0.828483 -1.37931 0
M  V30 16386 O 1538.87 -1.09205 -1.39295 0
M  V30 16387 C 1536 -2.34984 -2.50275 0
M  V30 16388 C 1535.09 -3.54302 -2.3309 0
M  V30 16389 N 1535.48 -4.70484 -1.85684 0
M  V30 16390 C 1533.78 -3.59617 -2.63802 0
M  V30 16391 C 1534.48 -5.52553 -1.81823 0
M  V30 16392 N 1533.45 -4.94589 -2.25572 0
M  V30 16393 H 1537.25 -2.82865 -0.79779 0
M  V30 16394 H 1534.77 -1.58733 -0.343142 0
M  V30 16395 H 1536.77 -2.60812 -3.25243 0
M  V30 16396 H 1535.43 -1.49045 -2.88471 0
M  V30 16397 H 1536.44 -4.94013 -1.55472 0
M  V30 16398 H 1533.11 -2.84247 -3.05794 0
M  V30 16399 H 1534.5 -6.5572 -1.46562 0
M  V30 16400 N 1537.22 0.404919 -1.52309 0
M  V30 16401 C 1538.19 1.47627 -1.75325 0
M  V30 16402 C 1539.19 1.48234 -0.623153 0
M  V30 16403 O 1540.38 1.49685 -0.891069 0
M  V30 16404 C 1537.51 2.87013 -1.83947 0
M  V30 16405 H 1538.7 1.2851 -2.70971 0
M  V30 16406 H 1536.26 0.635677 -1.42789 0
M  V30 16407 H 1536.99 3.11495 -0.902309 0
M  V30 16408 H 1536.78 2.87974 -2.66108 0
M  V30 16409 H 1538.27 3.64671 -2.03481 0
M  V30 16410 N 1538.7 1.43003 0.662408 0
M  V30 16411 C 1540.11 1.39275 1.24336 0
M  V30 16412 C 1540.46 0.0921999 1.95983 0
M  V30 16413 O 1539.59 -0.808677 2.00722 0
M  V30 16414 C 1540.18 2.52287 2.26134 0
M  V30 16415 C 1538.74 2.51853 2.79727 0
M  V30 16416 C 1537.89 2.30453 1.5423 0
M  V30 16417 H 1540.84 1.52038 0.455002 0
M  V30 16418 H 1540.86 2.23249 3.08123 0
M  V30 16419 H 1540.37 3.46929 1.73959 0
M  V30 16420 H 1538.48 1.61064 3.3599 0
M  V30 16421 H 1538.59 3.49313 3.27898 0
M  V30 16422 H 1536.95 1.78946 1.81247 0
M  V30 16423 H 1537.74 3.27167 1.04003 0
M  V30 16424 N 1540.18 -0.899904 1.29381 0
M  V30 16425 C 1541.11 -2.02045 1.17047 0
M  V30 16426 C 1542.09 -1.69977 0.0647354 0
M  V30 16427 O 1543.28 -1.92659 0.244173 0
M  V30 16428 C 1540.41 -3.36839 0.845991 0
M  V30 16429 C 1539.36 -3.83117 1.90802 0
M  V30 16430 C 1538.69 -5.15032 1.43686 0
M  V30 16431 C 1539.99 -4.03464 3.31684 0
M  V30 16432 H 1541.68 -2.12623 2.10789 0
M  V30 16433 H 1539.23 -1.02162 1.01484 0
M  V30 16434 H 1541.18 -4.14737 0.746413 0
M  V30 16435 H 1539.9 -3.26352 -0.127125 0
M  V30 16436 H 1538.56 -3.07435 1.99698 0
M  V30 16437 H 1538.21 -5.00961 0.452422 0
M  V30 16438 H 1537.91 -5.46967 2.14711 0
M  V30 16439 H 1539.43 -5.95472 1.35078 0
M  V30 16440 H 1540.85 -4.71845 3.25631 0
M  V30 16441 H 1539.25 -4.46752 4.00665 0
M  V30 16442 H 1540.32 -3.07807 3.74677 0
M  V30 16443 N 1541.66 -1.11854 -1.11024 0
M  V30 16444 C 1542.88 -0.892999 -1.8719 0
M  V30 16445 C 1543.31 0.552058 -1.79816 0
M  V30 16446 O 1542.67 1.39025 -1.16369 0
M  V30 16447 C 1542.71 -1.3647 -3.33779 0
M  V30 16448 O 1541.82 -0.539202 -4.0886 0
M  V30 16449 H 1541.16 -0.321319 -0.581076 0
M  V30 16450 H 1543.69 -1.4891 -1.4031 0
M  V30 16451 H 1543.7 -1.3611 -3.84627 0
M  V30 16452 H 1542.37 -2.41694 -3.38462 0
M  V30 16453 H 1540.95 -0.60927 -3.67889 0
M  V30 16454 N 1543.14 1.28707 -0.909517 0
M  V30 16455 C 1544.55 1.77212 -0.587613 0
M  V30 16456 C 1544.9 1.74495 0.896986 0
M  V30 16457 O 1544.02 1.33698 1.70158 0
M  V30 16458 C 1544.62 3.21794 -1.05989 0
M  V30 16459 C 1543.18 3.68038 -0.788983 0
M  V30 16460 C 1542.32 2.48576 -1.22903 0
M  V30 16461 H 1545.28 1.1523 -1.09122 0
M  V30 16462 H 1545.3 3.78397 -0.399469 0
M  V30 16463 H 1544.81 3.23739 -2.14043 0
M  V30 16464 H 1542.91 3.71558 0.278523 0
M  V30 16465 H 1543.02 4.58379 -1.39376 0
M  V30 16466 H 1541.39 2.46323 -0.647838 0
M  V30 16467 H 1542.17 2.53243 -2.31782 0
M  V30 16468 N 1544.61 0.673042 1.42506 0
M  V30 16469 C 1546.03 0.342429 1.55883 0
M  V30 16470 C 1546.23 -1.15229 1.65302 0
M  V30 16471 O 1545.29 -1.93767 1.61897 0
M  V30 16472 C 1546.6 1.0712 2.80973 0
M  V30 16473 C 1548.15 1.05336 2.94743 0
M  V30 16474 C 1548.62 1.76342 4.22691 0
M  V30 16475 N 1550.11 1.73201 4.29599 0
M  V30 16476 C 1550.85 2.25 5.27411 0
M  V30 16477 N 1550.34 2.85173 6.31386 0
M  V30 16478 N 1552.14 2.15385 5.19197 0
M  V30 16479 H 1544.29 1.64277 1.34636 0
M  V30 16480 H 1546.55 0.691984 0.647968 0
M  V30 16481 H 1546.26 2.1263 2.80145 0
M  V30 16482 H 1546.13 0.635313 3.71811 0
M  V30 16483 H 1548.52 0.00659669 2.95099 0
M  V30 16484 H 1548.6 1.52811 2.0514 0
M  V30 16485 H 1548.24 2.80985 4.23096 0
M  V30 16486 H 1548.17 1.26317 5.11225 0
M  V30 16487 H 1550.66 1.2931 3.55088 0
M  V30 16488 H 1550.98 3.22323 7.02373 0
M  V30 16489 H 1549.32 2.89242 6.31953 0
M  V30 16490 H 1552.51 1.68065 4.36889 0
M  V30 16491 H 1552.69 2.5606 5.95262 0
M  V30 16492 N 1546.09 -1.52004 0.416254 0
M  V30 16493 C 1547.32 -2.06307 -0.156491 0
M  V30 16494 C 1547.74 -1.28567 -1.3826 0
M  V30 16495 O 1547.09 -0.339447 -1.79315 0
M  V30 16496 C 1547.14 -3.58028 -0.499824 0
M  V30 16497 O 1546.86 -4.32828 0.677602 0
M  V30 16498 C 1548.37 -4.28773 -1.12553 0
M  V30 16499 H 1545.59 -0.670778 -0.0172483 0
M  V30 16500 H 1548.13 -1.95826 0.589262 0
M  V30 16501 H 1546.28 -3.68493 -1.19547 0
M  V30 16502 H 1546.7 -5.23053 0.389302 0
M  V30 16503 H 1548.17 -5.36085 -1.31592 0
M  V30 16504 H 1548.65 -3.85706 -2.10066 0
M  V30 16505 H 1549.26 -4.22696 -0.469881 0
M  V30 16506 N 1547.57 -0.146903 -1.56914 0
M  V30 16507 C 1548.82 0.504234 -1.96122 0
M  V30 16508 C 1549.15 1.64879 -1.03175 0
M  V30 16509 O 1548.4 1.95605 -0.0609397 0
M  V30 16510 C 1548.7 1.05159 -3.41579 0
M  V30 16511 C 1548.37 0.0254845 -4.50893 0
M  V30 16512 C 1547.03 -0.256589 -4.80515 0
M  V30 16513 C 1549.38 -0.672284 -5.16846 0
M  V30 16514 C 1546.71 -1.24224 -5.73398 0
M  V30 16515 C 1549.06 -1.64675 -6.1079 0
M  V30 16516 C 1547.72 -1.93652 -6.38792 0
M  V30 16517 H 1546.99 0.184512 -0.71766 0
M  V30 16518 H 1549.64 -0.233712 -1.90069 0
M  V30 16519 H 1547.95 1.86687 -3.44464 0
M  V30 16520 H 1549.64 1.56398 -3.69244 0
M  V30 16521 H 1546.23 0.255517 -4.27838 0
M  V30 16522 H 1550.42 -0.467555 -4.94093 0
M  V30 16523 H 1545.67 -1.47319 -5.93386 0
M  V30 16524 H 1549.85 -2.19294 -6.60971 0
M  V30 16525 H 1547.47 -2.70179 -7.10568 0
M  V30 16526 N 1549.05 1.57088 0.126881 0
M  V30 16527 C 1550 1.96188 1.16164 0
M  V30 16528 C 1550.98 0.835786 1.3749 0
M  V30 16529 O 1552.17 1.09942 1.38714 0
M  V30 16530 C 1549.3 2.36308 2.49025 0
M  V30 16531 C 1548.39 3.55533 2.31208 0
M  V30 16532 N 1548.78 4.71462 1.83186 0
M  V30 16533 C 1547.08 3.61011 2.61891 0
M  V30 16534 C 1547.78 5.5351 1.7889 0
M  V30 16535 N 1546.76 4.95778 2.22946 0
M  V30 16536 H 1550.56 2.83284 0.782778 0
M  V30 16537 H 1548.07 1.58913 0.334719 0
M  V30 16538 H 1550.07 2.62533 3.23855 0
M  V30 16539 H 1548.73 1.50573 2.87677 0
M  V30 16540 H 1549.74 4.94831 1.5285 0
M  V30 16541 H 1546.42 2.85865 3.04282 0
M  V30 16542 H 1547.81 6.56488 1.43083 0
M  V30 16543 N 1550.53 -0.396836 1.52522 0
M  V30 16544 C 1551.94 -0.975124 1.59211 0
M  V30 16545 C 1552.29 -1.91199 0.440138 0
M  V30 16546 O 1551.41 -2.11924 -0.437856 0
M  V30 16547 C 1552.01 -1.77531 2.88562 0
M  V30 16548 C 1550.57 -2.30343 2.9769 0
M  V30 16549 C 1549.71 -1.10671 2.54258 0
M  V30 16550 H 1552.67 -0.176646 1.57714 0
M  V30 16551 H 1552.69 -2.63384 2.74607 0
M  V30 16552 H 1552.2 -1.09318 3.72386 0
M  V30 16553 H 1550.3 -3.01891 2.18387 0
M  V30 16554 H 1550.41 -2.60366 4.02177 0
M  V30 16555 H 1548.78 -1.46439 2.08393 0
M  V30 16556 H 1549.56 -0.440061 3.40468 0
M  V30 16557 N 1552.01 -1.43353 -0.654814 0
M  V30 16558 C 1552.94 -1.51194 -1.7794 0
M  V30 16559 C 1553.92 -0.366747 -1.66099 0
M  V30 16560 O 1555.1 -0.58375 -1.85219 0
M  V30 16561 C 1552.23 -1.43298 -3.16359 0
M  V30 16562 C 1551.19 -2.5605 -3.42961 0
M  V30 16563 C 1550.51 -2.33208 -4.81163 0
M  V30 16564 C 1551.81 -3.98303 -3.37864 0
M  V30 16565 H 1553.51 -2.4532 -1.71635 0
M  V30 16566 H 1551.05 -1.18072 -0.824319 0
M  V30 16567 H 1553 -1.47388 -3.94784 0
M  V30 16568 H 1551.73 -0.456761 -3.2339 0
M  V30 16569 H 1550.39 -2.5131 -2.66906 0
M  V30 16570 H 1550.04 -1.33833 -4.84869 0
M  V30 16571 H 1549.74 -3.08789 -4.99923 0
M  V30 16572 H 1551.26 -2.39079 -5.61848 0
M  V30 16573 H 1552.67 -4.04538 -4.06229 0
M  V30 16574 H 1551.07 -4.73897 -3.6816 0
M  V30 16575 H 1552.14 -4.23552 -2.36075 0
M  V30 16576 N 1553.48 0.89303 -1.29857 0
M  V30 16577 C 1554.9 1.17496 -1.08013 0
M  V30 16578 C 1555.1 2.00829 0.164302 0
M  V30 16579 O 1554.16 2.37396 0.860194 0
M  V30 16580 C 1555.47 1.88944 -2.33924 0
M  V30 16581 C 1557.02 2.01742 -2.3931 0
M  V30 16582 C 1557.49 2.76601 -3.65042 0
M  V30 16583 N 1558.98 2.84152 -3.65803 0
M  V30 16584 C 1559.72 3.42628 -4.59776 0
M  V30 16585 N 1559.21 4.02218 -5.64086 0
M  V30 16586 N 1561.01 3.40366 -4.47334 0
M  V30 16587 H 1553.16 0.33719 -2.09706 0
M  V30 16588 H 1555.42 0.211899 -0.924014 0
M  V30 16589 H 1555.13 1.35151 -3.24695 0
M  V30 16590 H 1555 2.89379 -2.4195 0
M  V30 16591 H 1557.39 2.54708 -1.49022 0
M  V30 16592 H 1557.47 1.0042 -2.35265 0
M  V30 16593 H 1557.11 2.24309 -4.55684 0
M  V30 16594 H 1557.04 3.78283 -3.66346 0
M  V30 16595 H 1559.53 2.41835 -2.90386 0
M  V30 16596 H 1559.85 4.4488 -6.31903 0
M  V30 16597 H 1558.19 4.00661 -5.67887 0
M  V30 16598 H 1561.38 2.93035 -3.65031 0
M  V30 16599 H 1561.56 3.85644 -5.20752 0
M  V30 16600 N 1554.96 1.12442 1.10429 0
M  V30 16601 C 1556.19 0.902914 1.86714 0
M  V30 16602 C 1556.61 -0.542514 1.80107 0
M  V30 16603 O 1555.97 -1.38406 1.17105 0
M  V30 16604 C 1556.02 1.38238 3.33051 0
M  V30 16605 O 1555.12 0.560877 4.08568 0
M  V30 16606 H 1554.46 0.324397 0.579364 0
M  V30 16607 H 1556.99 1.49652 1.39519 0
M  V30 16608 H 1557 1.38148 3.839 0
M  V30 16609 H 1555.68 2.43486 3.37176 0
M  V30 16610 H 1554.25 0.628771 3.67561 0
M  V30 16611 N 1556.44 -1.28223 0.91633 0
M  V30 16612 C 1557.35 -2.30956 0.411882 0
M  V30 16613 C 1558.37 -1.66609 -0.501753 0
M  V30 16614 O 1559.54 -1.97641 -0.387317 0
M  V30 16615 C 1556.61 -3.45053 -0.337558 0
M  V30 16616 C 1555.67 -4.2495 0.609609 0
M  V30 16617 C 1554.9 -5.33598 -0.104159 0
M  V30 16618 O 1555.12 -5.54786 -1.32546 0
M  V30 16619 O 1554.06 -5.99272 0.561851 0
M  V30 16620 H 1557.88 -2.76118 1.26461 0
M  V30 16621 H 1555.47 -1.32964 0.681246 0
M  V30 16622 H 1557.35 -4.14477 -0.760722 0
M  V30 16623 H 1556.03 -3.01968 -1.16607 0
M  V30 16624 H 1554.93 -3.58104 1.08222 0
M  V30 16625 H 1556.27 -4.7172 1.40502 0
M  V30 16626 N 1557.92 -0.68059 -1.42147 0
M  V30 16627 C 1558.88 -0.0149865 -2.29195 0
M  V30 16628 C 1559.88 0.723163 -1.43621 0
M  V30 16629 O 1561.07 0.560297 -1.64943 0
M  V30 16630 C 1558.2 0.989375 -3.26227 0
M  V30 16631 H 1559.4 -0.781236 -2.89546 0
M  V30 16632 H 1556.95 -0.443256 -1.49883 0
M  V30 16633 H 1557.68 1.78391 -2.70827 0
M  V30 16634 H 1557.47 0.463401 -3.89352 0
M  V30 16635 H 1558.96 1.45334 -3.91494 0
M  V30 16636 N 1559.4 1.51781 -0.424309 0
M  V30 16637 C 1560.63 2.06088 0.145337 0
M  V30 16638 C 1561.03 1.29297 1.38127 0
M  V30 16639 O 1560.38 0.342227 1.80484 0
M  V30 16640 C 1560.44 3.55333 0.545777 0
M  V30 16641 C 1560.1 4.53285 -0.581528 0
M  V30 16642 C 1561.1 4.99278 -1.44973 0
M  V30 16643 C 1558.78 4.96539 -0.758549 0
M  V30 16644 C 1560.78 5.87185 -2.47977 0
M  V30 16645 C 1558.47 5.84239 -1.79188 0
M  V30 16646 C 1559.46 6.29458 -2.65089 0
M  V30 16647 O 1559.15 7.15418 -3.6665 0
M  V30 16648 H 1558.88 0.675782 0.0171719 0
M  V30 16649 H 1561.44 1.96492 -0.598349 0
M  V30 16650 H 1559.67 3.62668 1.34197 0
M  V30 16651 H 1561.36 3.92215 1.04508 0
M  V30 16652 H 1562.12 4.66566 -1.32445 0
M  V30 16653 H 1558 4.60893 -0.0995452 0
M  V30 16654 H 1561.55 6.22401 -3.15059 0
M  V30 16655 H 1557.44 6.16365 -1.91742 0
M  V30 16656 H 1558.21 7.33566 -3.63074 0
M  V30 16657 N 1560.87 0.155222 1.56834 0
M  V30 16658 C 1561.82 -0.798342 2.1847 0
M  V30 16659 C 1562.82 -1.24931 1.14405 0
M  V30 16660 O 1564.02 -1.21684 1.32639 0
M  V30 16661 H 1560.4 -0.275681 0.699646 0
M  V30 16662 H 1562.37 -0.254371 2.97314 0
M  V30 16663 C 1561.12 -2.02407 2.82713 0
M  V30 16664 H 1560.44 -1.68606 3.62508 0
M  V30 16665 H 1561.88 -2.67053 3.29331 0
M  V30 16666 C 1560.34 -2.83737 1.81645 0
M  V30 16667 O 1560.87 -3.80356 1.29198 0
M  V30 16668 N 1559.07 -2.48433 1.50764 0
M  V30 16669 H 1558.62 -1.69925 1.93606 0
M  V30 16670 H 1558.58 -3.03139 0.833899 0
M  V30 16671 N 1562.35 -1.57153 -0.118549 0
M  V30 16672 C 1563.58 -1.89062 -0.840429 0
M  V30 16673 C 1563.99 -0.746516 -1.73414 0
M  V30 16674 O 1563.35 0.282638 -1.80298 0
M  V30 16675 C 1563.4 -3.20433 -1.67347 0
M  V30 16676 O 1563.12 -4.30439 -0.815739 0
M  V30 16677 C 1564.62 -3.66048 -2.50047 0
M  V30 16678 H 1561.84 -0.626005 -0.241575 0
M  V30 16679 H 1564.39 -2.04241 -0.102804 0
M  V30 16680 H 1562.54 -3.06922 -2.36385 0
M  V30 16681 H 1562.96 -5.05736 -1.39037 0
M  V30 16682 H 1564.43 -4.60729 -3.04028 0
M  V30 16683 H 1564.91 -2.92727 -3.27426 0
M  V30 16684 H 1565.51 -3.82349 -1.86251 0
M  V30 16685 N 1563.83 0.388742 -1.5273 0
M  V30 16686 C 1565.08 1.13375 -1.67787 0
M  V30 16687 C 1565.4 1.89957 -0.417925 0
M  V30 16688 O 1564.66 1.86286 0.599682 0
M  V30 16689 C 1564.96 2.13792 -2.86405 0
M  V30 16690 C 1564.62 1.53865 -4.23835 0
M  V30 16691 C 1563.29 1.37248 -4.61212 0
M  V30 16692 C 1565.64 1.10298 -5.09395 0
M  V30 16693 C 1562.97 0.756119 -5.81807 0
M  V30 16694 C 1565.32 0.500723 -6.30615 0
M  V30 16695 C 1563.98 0.321851 -6.66724 0
M  V30 16696 H 1563.25 0.414868 -0.613975 0
M  V30 16697 H 1565.9 0.418351 -1.86874 0
M  V30 16698 H 1564.2 2.91551 -2.61735 0
M  V30 16699 H 1565.9 2.71346 -2.95249 0
M  V30 16700 H 1562.49 1.67787 -3.94393 0
M  V30 16701 H 1566.68 1.21938 -4.81087 0
M  V30 16702 H 1561.93 0.605734 -6.08392 0
M  V30 16703 H 1566.11 0.154839 -6.96228 0
M  V30 16704 H 1563.73 -0.157836 -7.60036 0
M  V30 16705 N 1565.31 1.43698 0.647203 0
M  V30 16706 C 1566.53 1.49301 1.43958 0
M  V30 16707 C 1566.96 0.11395 1.87755 0
M  V30 16708 O 1566.32 -0.893571 1.5775 0
M  V30 16709 C 1566.36 2.44905 2.64677 0
M  V30 16710 O 1565.47 1.93947 3.63948 0
M  V30 16711 H 1564.81 0.504771 0.431396 0
M  V30 16712 H 1567.34 1.88673 0.791432 0
M  V30 16713 H 1567.35 2.62409 3.12419 0
M  V30 16714 H 1566.02 3.45083 2.32143 0
M  V30 16715 H 1564.6 1.86133 3.23124 0
M  V30 16716 N 1566.79 -0.886131 1.30328 0
M  V30 16717 C 1567.7 -2.02453 1.18532 0
M  V30 16718 C 1568.71 -1.7368 0.105506 0
M  V30 16719 O 1569.89 -1.98838 0.320217 0
M  V30 16720 C 1566.95 -3.3543 0.876792 0
M  V30 16721 C 1566.01 -3.77633 2.04185 0
M  V30 16722 C 1565.25 -5.04264 1.74795 0
M  V30 16723 O 1565.47 -5.66388 0.675323 0
M  V30 16724 O 1564.4 -5.42847 2.60001 0
M  V30 16725 H 1568.23 -2.15333 2.14162 0
M  V30 16726 H 1565.82 -1.01193 1.09911 0
M  V30 16727 H 1567.7 -4.15206 0.719882 0
M  V30 16728 H 1566.37 -3.23662 -0.0496117 0
M  V30 16729 H 1565.28 -2.98567 2.25408 0
M  V30 16730 H 1566.61 -3.94004 2.94994 0
M  V30 16731 N 1568.26 -1.13026 -1.09832 0
M  V30 16732 C 1569.68 -0.867598 -1.33959 0
M  V30 16733 C 1569.88 0.499047 -1.95222 0
M  V30 16734 O 1568.94 1.24644 -2.19591 0
M  V30 16735 C 1570.25 -1.98893 -2.25526 0
M  V30 16736 C 1571.8 -2.02054 -2.39047 0
M  V30 16737 C 1572.27 -3.13438 -3.33947 0
M  V30 16738 N 1573.76 -3.12921 -3.41518 0
M  V30 16739 C 1574.5 -3.95746 -4.14937 0
M  V30 16740 N 1573.99 -4.88574 -4.91189 0
M  V30 16741 N 1575.79 -3.8386 -4.10619 0
M  V30 16742 H 1567.94 -2.01072 -0.684382 0
M  V30 16743 H 1570.2 -0.875341 -0.363982 0
M  V30 16744 H 1569.91 -2.97405 -1.87731 0
M  V30 16745 H 1569.78 -1.89948 -3.25883 0
M  V30 16746 H 1572.17 -1.04158 -2.76107 0
M  V30 16747 H 1572.25 -2.15072 -1.38483 0
M  V30 16748 H 1571.89 -4.11571 -2.9761 0
M  V30 16749 H 1571.82 -2.97658 -4.34405 0
M  V30 16750 H 1574.31 -2.45677 -2.87144 0
M  V30 16751 H 1574.63 -5.48269 -5.44629 0
M  V30 16752 H 1572.97 -4.92583 -4.90292 0
M  V30 16753 H 1576.16 -3.10669 -3.50146 0
M  V30 16754 H 1576.34 -4.48637 -4.67577 0
M  V30 16755 N 1569.74 1.27735 -0.923117 0
M  V30 16756 C 1571.16 1.46952 -0.622666 0
M  V30 16757 C 1571.36 1.8364 0.829384 0
M  V30 16758 O 1570.41 1.94705 1.60767 0
M  V30 16759 C 1571.73 2.56545 -1.56861 0
M  V30 16760 C 1573.28 2.70408 -1.57634 0
M  V30 16761 C 1573.75 3.83154 -2.50913 0
M  V30 16762 N 1575.24 3.90521 -2.49093 0
M  V30 16763 C 1575.98 4.77167 -3.17962 0
M  V30 16764 N 1575.47 5.68334 -3.96193 0
M  V30 16765 N 1577.27 4.70857 -3.07002 0
M  V30 16766 H 1569.42 1.02205 -1.86193 0
M  V30 16767 H 1571.68 0.509982 -0.799138 0
M  V30 16768 H 1571.39 2.3637 -2.60427 0
M  V30 16769 H 1571.26 3.53839 -1.30681 0
M  V30 16770 H 1573.65 2.89967 -0.548005 0
M  V30 16771 H 1573.73 1.73615 -1.8786 0
M  V30 16772 H 1573.37 3.64349 -3.53853 0
M  V30 16773 H 1573.3 4.79365 -2.17984 0
M  V30 16774 H 1575.79 3.25329 -1.92274 0
M  V30 16775 H 1576.11 6.31298 -4.45738 0
M  V30 16776 H 1574.45 5.68144 -4.00297 0
M  V30 16777 H 1577.64 3.98629 -2.45382 0
M  V30 16778 H 1577.81 5.38166 -3.60945 0
M  V30 16779 N 1571.22 0.688118 1.41784 0
M  V30 16780 C 1572.15 0.0323199 2.33478 0
M  V30 16781 C 1573.13 -0.775145 1.51412 0
M  V30 16782 O 1574.32 -0.72962 1.79973 0
M  V30 16783 C 1571.45 -0.910141 3.35162 0
M  V30 16784 C 1570.4 -0.210312 4.27483 0
M  V30 16785 C 1569.73 -1.26662 5.19481 0
M  V30 16786 C 1571.03 0.918839 5.14154 0
M  V30 16787 H 1572.72 0.798138 2.88566 0
M  V30 16788 H 1570.27 0.385262 1.38751 0
M  V30 16789 H 1572.22 -1.3781 3.98229 0
M  V30 16790 H 1570.94 -1.70754 2.78408 0
M  V30 16791 H 1569.6 0.237544 3.6583 0
M  V30 16792 H 1569.25 -2.05635 4.59046 0
M  V30 16793 H 1568.95 -0.803416 5.82082 0
M  V30 16794 H 1570.47 -1.73524 5.85424 0
M  V30 16795 H 1571.89 0.531499 5.70831 0
M  V30 16796 H 1570.29 1.30867 5.85657 0
M  V30 16797 H 1571.36 1.7618 4.51762 0
M  V30 16798 N 1572.7 -1.51554 0.432352 0
M  V30 16799 C 1573.65 -2.27623 -0.381602 0
M  V30 16800 C 1574.62 -1.31003 -1.02114 0
M  V30 16801 O 1575.8 -1.59899 -1.041 0
M  V30 16802 C 1572.94 -3.11772 -1.47959 0
M  V30 16803 C 1572.05 -4.2338 -0.858682 0
M  V30 16804 C 1571.19 -4.94847 -1.93131 0
M  V30 16805 C 1570.23 -5.98383 -1.28856 0
M  V30 16806 N 1569.36 -6.63278 -2.30233 0
M  V30 16807 H 1574.2 -2.96743 0.273472 0
M  V30 16808 H 1571.74 -1.46367 0.146706 0
M  V30 16809 H 1573.7 -3.58882 -2.12742 0
M  V30 16810 H 1572.33 -2.44778 -2.10437 0
M  V30 16811 H 1571.38 -3.8027 -0.0992797 0
M  V30 16812 H 1572.69 -4.97575 -0.349381 0
M  V30 16813 H 1571.85 -5.4548 -2.65587 0
M  V30 16814 H 1570.59 -4.20272 -2.47432 0
M  V30 16815 H 1569.59 -5.47048 -0.549441 0
M  V30 16816 H 1570.82 -6.74913 -0.752941 0
M  V30 16817 H 1568.76 -5.91518 -2.83624 0
M  V30 16818 H 1568.68 -7.33221 -1.84181 0
M  V30 16819 H 1569.95 -7.18542 -3.02188 0
M  V30 16820 N 1574.18 -0.163538 -1.56749 0
M  V30 16821 C 1575.13 0.781904 -2.14173 0
M  V30 16822 C 1576.11 1.19818 -1.07389 0
M  V30 16823 O 1577.3 1.16184 -1.3353 0
M  V30 16824 C 1574.43 2.01433 -2.77992 0
M  V30 16825 C 1573.52 1.6204 -3.91923 0
M  V30 16826 N 1573.91 0.935598 -4.97072 0
M  V30 16827 C 1572.21 1.91197 -4.02939 0
M  V30 16828 C 1572.91 0.742806 -5.76938 0
M  V30 16829 N 1571.88 1.28183 -5.28271 0
M  V30 16830 H 1575.69 0.249647 -2.92838 0
M  V30 16831 H 1573.2 0.0374224 -1.62357 0
M  V30 16832 H 1575.2 2.7018 -3.17504 0
M  V30 16833 H 1573.86 2.55161 -2.00806 0
M  V30 16834 H 1574.87 0.594507 -5.14476 0
M  V30 16835 H 1571.54 2.46657 -3.36848 0
M  V30 16836 H 1572.93 0.201845 -6.71597 0
M  V30 16837 N 1575.65 1.57214 0.110213 0
M  V30 16838 C 1576.88 1.8988 0.834297 0
M  V30 16839 C 1577.3 0.756347 1.72224 0
M  V30 16840 O 1576.66 -0.292768 1.78921 0
M  V30 16841 C 1576.71 3.21338 1.63629 0
M  V30 16842 O 1575.81 3.07862 2.74399 0
M  V30 16843 H 1575.16 0.62283 0.23017 0
M  V30 16844 H 1577.69 2.04402 0.0899726 0
M  V30 16845 H 1577.7 3.54275 2.02369 0
M  V30 16846 H 1576.37 4.04079 0.984521 0
M  V30 16847 H 1574.95 2.8641 2.38797 0
M  V30 16848 N 1577.13 -0.380637 1.52934 0
M  V30 16849 C 1578.06 -1.47174 1.81279 0
M  V30 16850 C 1579.04 -1.56549 0.665319 0
M  V30 16851 O 1580.23 -1.71362 0.913722 0
M  V30 16852 C 1577.36 -2.84691 1.98918 0
M  V30 16853 C 1576.31 -2.90151 3.14637 0
M  V30 16854 C 1575.64 -4.30198 3.17544 0
M  V30 16855 C 1576.94 -2.59037 4.53539 0
M  V30 16856 H 1578.63 -1.23703 2.7265 0
M  V30 16857 H 1576.18 -0.593654 1.31194 0
M  V30 16858 H 1578.13 -3.61034 2.1733 0
M  V30 16859 H 1576.86 -3.09517 1.04244 0
M  V30 16860 H 1575.51 -2.16257 2.96021 0
M  V30 16861 H 1575.16 -4.52076 2.20536 0
M  V30 16862 H 1574.86 -4.3477 3.95284 0
M  V30 16863 H 1576.39 -5.08435 3.38121 0
M  V30 16864 H 1577.8 -3.25096 4.72214 0
M  V30 16865 H 1576.2 -2.74946 5.33408 0
M  V30 16866 H 1577.27 -1.54342 4.59681 0
M  V30 16867 N 1578.61 -1.44039 -0.639573 0
M  V30 16868 C 1579.86 -1.46594 -1.40136 0
M  V30 16869 C 1580.19 -0.0949646 -1.93968 0
M  V30 16870 O 1579.46 0.886201 -1.73138 0
M  V30 16871 C 1579.75 -2.51947 -2.57283 0
M  V30 16872 C 1579.6 -3.98371 -2.08855 0
M  V30 16873 C 1580.92 -2.53891 -3.59482 0
M  V30 16874 H 1578.04 -0.533759 -0.508203 0
M  V30 16875 H 1580.68 -1.75669 -0.723898 0
M  V30 16876 H 1578.83 -2.27285 -3.15077 0
M  V30 16877 H 1580.5 -4.34137 -1.55956 0
M  V30 16878 H 1578.75 -4.10551 -1.40109 0
M  V30 16879 H 1579.42 -4.67721 -2.93157 0
M  V30 16880 H 1581.89 -2.75906 -3.11473 0
M  V30 16881 H 1580.77 -3.29524 -4.38982 0
M  V30 16882 H 1581.03 -1.57774 -4.12989 0
M  V30 16883 N 1580.09 0.879207 -1.30796 0
M  V30 16884 C 1581.02 2.00158 -1.20246 0
M  V30 16885 C 1582 1.69852 -0.091769 0
M  V30 16886 O 1583.18 1.92246 -0.274792 0
M  V30 16887 C 1580.31 3.3545 -0.899472 0
M  V30 16888 C 1579.27 3.80033 -1.96873 0
M  V30 16889 C 1578.59 5.12681 -1.51861 0
M  V30 16890 C 1579.89 3.98136 -3.38061 0
M  V30 16891 H 1581.59 2.09242 -2.14145 0
M  V30 16892 H 1579.13 1.00535 -1.03096 0
M  V30 16893 H 1581.09 4.13497 -0.812299 0
M  V30 16894 H 1579.81 3.26513 0.075189 0
M  V30 16895 H 1578.47 3.04219 -2.04564 0
M  V30 16896 H 1578.12 5.00178 -0.532063 0
M  V30 16897 H 1577.82 5.43482 -2.23386 0
M  V30 16898 H 1579.34 5.93247 -1.44534 0
M  V30 16899 H 1580.76 4.66604 -3.33096 0
M  V30 16900 H 1579.15 4.40321 -4.07722 0
M  V30 16901 H 1580.22 3.01807 -3.79526 0
M  V30 16902 N 1581.57 1.13606 1.09231 0
M  V30 16903 C 1582.52 0.784018 2.14096 0
M  V30 16904 C 1583.5 -0.22288 1.59349 0
M  V30 16905 O 1584.69 -0.0264914 1.7698 0
M  V30 16906 C 1581.82 0.253922 3.4236 0
M  V30 16907 C 1580.91 1.28985 4.0401 0
M  V30 16908 N 1581.3 2.49138 4.40186 0
M  V30 16909 C 1579.6 1.1381 4.31235 0
M  V30 16910 C 1580.3 3.15388 4.8878 0
M  V30 16911 N 1579.27 2.42806 4.8636 0
M  V30 16912 H 1583.08 1.69816 2.39874 0
M  V30 16913 H 1580.59 1.01867 1.26478 0
M  V30 16914 H 1582.59 -0.0165402 4.16897 0
M  V30 16915 H 1581.25 -0.65452 3.18035 0
M  V30 16916 H 1582.26 2.8643 4.31484 0
M  V30 16917 H 1578.94 0.287982 4.16506 0
M  V30 16918 H 1580.33 4.17784 5.26219 0
M  V30 16919 N 1583.05 -1.27244 0.929878 0
M  V30 16920 C 1583.99 -2.26773 0.429287 0
M  V30 16921 C 1584.96 -1.58238 -0.50498 0
M  V30 16922 O 1586.15 -1.86037 -0.423661 0
M  V30 16923 C 1583.29 -3.43706 -0.309865 0
M  V30 16924 C 1582.4 -4.26948 0.658764 0
M  V30 16925 C 1581.54 -5.31105 -0.10045 0
M  V30 16926 C 1580.57 -6.06018 0.860743 0
M  V30 16927 N 1579.71 -7.01972 0.134015 0
M  V30 16928 H 1584.55 -2.68967 1.283 0
M  V30 16929 H 1582.09 -1.32257 0.643923 0
M  V30 16930 H 1584.05 -4.10316 -0.754754 0
M  V30 16931 H 1582.68 -3.02457 -1.1278 0
M  V30 16932 H 1581.73 -3.60232 1.22218 0
M  V30 16933 H 1583.04 -4.78946 1.39326 0
M  V30 16934 H 1582.19 -6.03674 -0.605153 0
M  V30 16935 H 1580.93 -4.79915 -0.867902 0
M  V30 16936 H 1579.94 -5.32285 1.37668 0
M  V30 16937 H 1581.16 -6.59297 1.62801 0
M  V30 16938 H 1579.11 -6.53109 -0.615152 0
M  V30 16939 H 1579.03 -7.51669 0.808045 0
M  V30 16940 H 1580.29 -7.78714 -0.349964 0
M  V30 16941 N 1584.52 -0.695628 -1.41417 0
M  V30 16942 C 1585.75 -0.234163 -2.06074 0
M  V30 16943 C 1586.17 1.10796 -1.52006 0
M  V30 16944 O 1585.53 1.6936 -0.64705 0
M  V30 16945 C 1585.58 -0.202353 -3.60032 0
M  V30 16946 O 1584.68 0.822767 -4.04109 0
M  V30 16947 H 1584.02 -0.114395 -0.654072 0
M  V30 16948 H 1586.55 -0.950503 -1.81181 0
M  V30 16949 H 1586.56 -0.0332321 -4.07986 0
M  V30 16950 H 1585.24 -1.18188 -3.98754 0
M  V30 16951 H 1583.82 0.622995 -3.67659 0
M  V30 16952 N 1586 1.51322 -0.440383 0
M  V30 16953 C 1586.95 2.2941 0.383883 0
M  V30 16954 C 1587.94 1.35388 1.01816 0
M  V30 16955 O 1589.15 1.52716 0.952775 0
M  V30 16956 H 1585.52 0.738354 0.142611 0
M  V30 16957 H 1587.5 2.96933 -0.295532 0
M  V30 16958 C 1586.24 3.15055 1.47091 0
M  V30 16959 H 1585.57 3.87292 0.992214 0
M  V30 16960 H 1587.01 3.72744 2.02084 0
M  V30 16961 C 1585.47 2.30628 2.45586 0
M  V30 16962 O 1586 1.96801 3.50189 0
M  V30 16963 N 1584.2 1.93792 2.16548 0
M  V30 16964 H 1583.75 2.215 1.31512 0
M  V30 16965 H 1583.71 1.37601 2.82689 0
M  V30 16966 N 1587.48 0.171848 1.5666 0
M  V30 16967 C 1588.39 -0.770721 2.21579 0
M  V30 16968 C 1589.41 -1.25273 1.20759 0
M  V30 16969 O 1590.58 -1.30474 1.53422 0
M  V30 16970 C 1587.65 -1.98256 2.84422 0
M  V30 16971 C 1586.71 -1.54738 4.00443 0
M  V30 16972 C 1585.94 -2.70145 4.6028 0
M  V30 16973 O 1586.16 -3.87026 4.19007 0
M  V30 16974 O 1585.1 -2.44189 5.50141 0
M  V30 16975 H 1588.92 -0.247974 3.02686 0
M  V30 16976 H 1586.51 -0.0563734 1.49294 0
M  V30 16977 H 1588.39 -2.69127 3.24266 0
M  V30 16978 H 1587.07 -2.49435 2.0631 0
M  V30 16979 H 1585.97 -0.808152 3.65267 0
M  V30 16980 H 1587.31 -1.08249 4.80149 0
M  V30 16981 N 1588.96 -1.5727 -0.101874 0
M  V30 16982 C 1590.19 -1.89943 -0.820329 0
M  V30 16983 C 1590.6 -0.764867 -1.72613 0
M  V30 16984 O 1589.96 0.263499 -1.80588 0
M  V30 16985 C 1590.01 -3.2219 -1.63939 0
M  V30 16986 O 1589.73 -4.31279 -0.770039 0
M  V30 16987 C 1591.23 -3.6868 -2.46151 0
M  V30 16988 H 1588.45 -0.628532 -0.234922 0
M  V30 16989 H 1590.99 -2.04339 -0.0811362 0
M  V30 16990 H 1589.15 -3.09411 -2.33117 0
M  V30 16991 H 1589.56 -5.07182 -1.33665 0
M  V30 16992 H 1591.04 -4.63928 -2.99124 0
M  V30 16993 H 1591.51 -2.96183 -3.24303 0
M  V30 16994 H 1592.12 -3.84303 -1.82185 0
M  V30 16995 N 1590.44 0.372521 -1.53134 0
M  V30 16996 C 1591.66 1.14116 -1.73183 0
M  V30 16997 C 1592.09 1.82475 -0.456553 0
M  V30 16998 O 1591.44 1.71468 0.588919 0
M  V30 16999 C 1591.49 2.15241 -2.89316 0
M  V30 17000 O 1590.6 3.22178 -2.57439 0
M  V30 17001 H 1589.94 0.331442 -0.575362 0
M  V30 17002 H 1592.47 0.431769 -1.99992 0
M  V30 17003 H 1592.48 2.58961 -3.15283 0
M  V30 17004 H 1591.15 1.64877 -3.81822 0
M  V30 17005 H 1589.73 2.83481 -2.42267 0
M  V30 17006 N 1591.91 1.44376 0.631925 0
M  V30 17007 C 1592.84 1.54005 1.75512 0
M  V30 17008 C 1593.82 0.393126 1.65495 0
M  V30 17009 O 1595.01 0.613143 1.84267 0
M  V30 17010 C 1592.14 1.48313 3.14039 0
M  V30 17011 C 1591.09 2.61474 3.38844 0
M  V30 17012 C 1590.42 2.40834 4.77392 0
M  V30 17013 C 1591.72 4.03627 3.31485 0
M  V30 17014 H 1593.41 2.48019 1.6771 0
M  V30 17015 H 1590.96 1.19368 0.80543 0
M  V30 17016 H 1592.91 1.5365 3.9239 0
M  V30 17017 H 1591.64 0.508152 3.22623 0
M  V30 17018 H 1590.3 2.55525 2.62874 0
M  V30 17019 H 1589.94 1.4153 4.82678 0
M  V30 17020 H 1589.64 3.16703 4.94947 0
M  V30 17021 H 1591.17 2.47988 5.57974 0
M  V30 17022 H 1592.58 4.1095 3.99741 0
M  V30 17023 H 1590.98 4.79694 3.60574 0
M  V30 17024 H 1592.05 4.27255 2.29307 0
M  V30 17025 N 1593.39 -0.872258 1.31261 0
M  V30 17026 C 1594.8 -1.44077 1.18738 0
M  V30 17027 C 1595.15 -1.95105 -0.207037 0
M  V30 17028 O 1594.28 -1.86083 -1.10464 0
M  V30 17029 C 1594.87 -2.61884 2.14947 0
M  V30 17030 C 1593.43 -3.14787 2.06364 0
M  V30 17031 C 1592.58 -1.87495 2.04306 0
M  V30 17032 H 1595.53 -0.681011 1.43345 0
M  V30 17033 H 1595.55 -3.38501 1.73773 0
M  V30 17034 H 1595.06 -2.24715 3.16425 0
M  V30 17035 H 1593.16 -3.56582 1.08073 0
M  V30 17036 H 1593.28 -3.77225 2.95361 0
M  V30 17037 H 1591.64 -2.06361 1.49288 0
M  V30 17038 H 1592.42 -1.52566 3.07536 0
M  V30 17039 N 1594.87 -1.14184 -1.08627 0
M  V30 17040 C 1596.1 -0.932104 -1.84714 0
M  V30 17041 C 1596.51 0.519335 -1.81517 0
M  V30 17042 O 1595.87 1.35978 -1.21722 0
M  V30 17043 C 1595.92 -1.42217 -3.3235 0
M  V30 17044 O 1595.64 -2.81674 -3.35547 0
M  V30 17045 C 1597.14 -1.25205 -4.25251 0
M  V30 17046 H 1594.36 -0.331854 -0.583193 0
M  V30 17047 H 1596.91 -1.51641 -1.37205 0
M  V30 17048 H 1595.06 -0.880679 -3.77257 0
M  V30 17049 H 1595.48 -3.03615 -4.2769 0
M  V30 17050 H 1596.95 -1.64358 -5.26963 0
M  V30 17051 H 1597.43 -0.194659 -4.38768 0
M  V30 17052 H 1598.03 -1.78198 -3.86168 0
M  V30 17053 N 1596.35 1.26749 -0.936613 0
M  V30 17054 C 1597.63 1.89106 -0.49981 0
M  V30 17055 C 1598.01 1.84687 1.02244 0
M  V30 17056 O 1597.35 1.2981 1.88047 0
M  V30 17057 C 1597.56 3.32641 -1.05598 0
M  V30 17058 C 1598.91 4.09511 -1.12187 0
M  V30 17059 O 1599.94 3.41692 -1.00624 0
M  V30 17060 O 1598.79 5.30785 -1.30113 0
M  V30 17061 H 1595.89 0.810941 -0.162185 0
M  V30 17062 H 1598.43 1.34952 -1.02888 0
M  V30 17063 H 1597.21 3.30196 -2.09968 0
M  V30 17064 H 1596.83 3.94327 -0.509086 0
M  V30 17065 N 1597.83 0.703118 1.41046 0
M  V30 17066 C 1598.76 0.0570815 2.3343 0
M  V30 17067 C 1599.74 -0.759042 1.52225 0
M  V30 17068 O 1600.92 -0.710491 1.80736 0
M  V30 17069 C 1598.05 -0.874541 3.36109 0
M  V30 17070 C 1597.01 -0.16496 4.27682 0
M  V30 17071 C 1596.33 -1.21145 5.20795 0
M  V30 17072 C 1597.63 0.97332 5.13151 0
M  V30 17073 H 1599.33 0.828699 2.87703 0
M  V30 17074 H 1596.87 0.399956 1.38334 0
M  V30 17075 H 1598.83 -1.33579 3.99668 0
M  V30 17076 H 1597.55 -1.67791 2.80203 0
M  V30 17077 H 1596.21 0.276332 3.65557 0
M  V30 17078 H 1595.86 -2.00755 4.61201 0
M  V30 17079 H 1595.56 -0.741633 5.82901 0
M  V30 17080 H 1597.08 -1.67305 5.87232 0
M  V30 17081 H 1598.49 0.592013 5.70235 0
M  V30 17082 H 1596.89 1.37071 5.84236 0
M  V30 17083 H 1597.96 1.80961 4.49868 0
M  V30 17084 N 1599.3 -1.51086 0.448402 0
M  V30 17085 C 1600.25 -2.29611 -0.371711 0
M  V30 17086 C 1601.25 -1.35926 -1.01096 0
M  V30 17087 O 1602.45 -1.53219 -0.944663 0
M  V30 17088 H 1598.83 -0.739099 -0.138694 0
M  V30 17089 H 1600.8 -2.96772 0.311275 0
M  V30 17090 C 1599.55 -3.1583 -1.45418 0
M  V30 17091 H 1598.87 -3.87813 -0.971661 0
M  V30 17092 H 1600.31 -3.7381 -2.00105 0
M  V30 17093 C 1598.77 -2.31927 -2.44359 0
M  V30 17094 O 1599.3 -1.98655 -3.4914 0
M  V30 17095 N 1597.51 -1.94938 -2.15517 0
M  V30 17096 H 1597.05 -2.22195 -1.30335 0
M  V30 17097 H 1597.01 -1.39098 -2.81956 0
M  V30 17098 N 1600.78 -0.180154 -1.56567 0
M  V30 17099 C 1601.71 0.77825 -2.15583 0
M  V30 17100 C 1602.73 1.18746 -1.1137 0
M  V30 17101 O 1603.92 1.12578 -1.38523 0
M  V30 17102 C 1601.02 2.06024 -2.69086 0
M  V30 17103 C 1600.19 1.8132 -3.98047 0
M  V30 17104 C 1599.25 2.93823 -4.36526 0
M  V30 17105 O 1598.27 2.64075 -5.04235 0
M  V30 17106 N 1599.48 4.21823 -3.98806 0
M  V30 17107 H 1602.24 0.273661 -2.98448 0
M  V30 17108 H 1599.8 0.00232952 -1.619 0
M  V30 17109 H 1601.79 2.80398 -2.9182 0
M  V30 17110 H 1600.36 2.47648 -1.9076 0
M  V30 17111 H 1599.58 0.908046 -3.83599 0
M  V30 17112 H 1600.87 1.62194 -4.82256 0
M  V30 17113 H 1600.27 4.48849 -3.44313 0
M  V30 17114 H 1598.83 4.92871 -4.26522 0
M  V30 17115 N 1602.26 1.57322 0.0935319 0
M  V30 17116 C 1603.49 1.90375 0.810245 0
M  V30 17117 C 1603.9 0.774011 1.72205 0
M  V30 17118 O 1603.26 -0.253918 1.80725 0
M  V30 17119 C 1603.31 3.23054 1.62228 0
M  V30 17120 O 1603.03 4.31682 0.747157 0
M  V30 17121 C 1604.53 3.6998 2.44192 0
M  V30 17122 H 1601.75 0.629769 0.231586 0
M  V30 17123 H 1604.3 2.04379 0.0702984 0
M  V30 17124 H 1602.45 3.10643 2.31472 0
M  V30 17125 H 1602.87 5.07884 1.30974 0
M  V30 17126 H 1604.34 4.65507 2.96659 0
M  V30 17127 H 1604.82 2.97899 3.22727 0
M  V30 17128 H 1605.42 3.85264 1.80144 0
M  V30 17129 N 1603.74 -0.364395 1.53329 0
M  V30 17130 C 1604.67 -1.45243 1.8283 0
M  V30 17131 C 1605.65 -1.55834 0.681886 0
M  V30 17132 O 1606.83 -1.70383 0.931845 0
M  V30 17133 C 1603.96 -2.82565 2.01926 0
M  V30 17134 C 1602.92 -2.86797 3.17697 0
M  V30 17135 C 1602.24 -4.26806 3.22089 0
M  V30 17136 C 1603.54 -2.54212 4.56261 0
M  V30 17137 H 1605.24 -1.20804 2.73946 0
M  V30 17138 H 1602.78 -0.579705 1.31816 0
M  V30 17139 H 1604.74 -3.58709 2.21147 0
M  V30 17140 H 1603.46 -3.08394 1.07521 0
M  V30 17141 H 1602.12 -2.13105 2.98298 0
M  V30 17142 H 1601.77 -4.49712 2.25318 0
M  V30 17143 H 1601.47 -4.30553 3.99873 0
M  V30 17144 H 1602.99 -5.04821 3.43495 0
M  V30 17145 H 1604.41 -3.20069 4.75635 0
M  V30 17146 H 1602.8 -2.69273 5.36295 0
M  V30 17147 H 1603.87 -1.49458 4.61292 0
M  V30 17148 N 1605.22 -1.44709 -0.62426 0
M  V30 17149 C 1606.63 -1.42523 -1.20599 0
M  V30 17150 C 1606.98 -0.144129 -1.9567 0
M  V30 17151 O 1606.1 0.755175 -2.02796 0
M  V30 17152 C 1606.7 -2.58194 -2.19365 0
M  V30 17153 C 1605.26 -2.59181 -2.72951 0
M  V30 17154 C 1604.4 -2.34461 -1.48065 0
M  V30 17155 H 1607.36 -1.5319 -0.414532 0
M  V30 17156 H 1607.38 -2.3134 -3.02096 0
M  V30 17157 H 1606.89 -3.5142 -1.64699 0
M  V30 17158 H 1604.99 -1.69916 -3.31601 0
M  V30 17159 H 1605.1 -3.57884 -3.18521 0
M  V30 17160 H 1603.47 -1.83688 -1.76439 0
M  V30 17161 H 1604.25 -3.2981 -0.952918 0
M  V30 17162 N 1606.69 0.865285 -1.31722 0
M  V30 17163 C 1607.92 1.65661 -1.24785 0
M  V30 17164 C 1608.34 1.87208 0.182952 0
M  V30 17165 O 1607.7 1.41721 1.1307 0
M  V30 17166 C 1607.75 2.99921 -2.00199 0
M  V30 17167 O 1606.85 3.89936 -1.34253 0
M  V30 17168 H 1606.2 0.505459 -0.430589 0
M  V30 17169 H 1608.73 1.0785 -1.73867 0
M  V30 17170 H 1608.74 3.49823 -2.09971 0
M  V30 17171 H 1607.41 2.83559 -3.04249 0
M  V30 17172 H 1605.99 3.4839 -1.32961 0
M  V30 17173 N 1608.17 1.14759 1.0802 0
M  V30 17174 C 1609.11 0.781719 2.14393 0
M  V30 17175 C 1610.08 -0.238743 1.60838 0
M  V30 17176 O 1611.27 -0.126879 1.88073 0
M  V30 17177 C 1608.39 0.161293 3.38316 0
M  V30 17178 C 1607.44 1.15256 4.10632 0
M  V30 17179 S 1608.27 2.69159 4.6294 0
M  V30 17180 C 1609.43 2.08517 5.90145 0
M  V30 17181 H 1609.66 1.6827 2.45097 0
M  V30 17182 H 1607.2 0.969222 1.20189 0
M  V30 17183 H 1609.15 -0.190243 4.10059 0
M  V30 17184 H 1607.81 -0.717181 3.05803 0
M  V30 17185 H 1607.01 0.666543 4.99573 0
M  V30 17186 H 1606.61 1.44829 3.4482 0
M  V30 17187 H 1608.9 1.44304 6.61954 0
M  V30 17188 H 1609.84 2.95598 6.4345 0
M  V30 17189 H 1610.25 1.53092 5.43344 0
M  V30 17190 N 1609.65 -1.26251 0.943322 0
M  V30 17191 C 1610.93 -1.88839 0.509831 0
M  V30 17192 C 1611.31 -1.85227 -1.01263 0
M  V30 17193 O 1610.66 -1.30805 -1.87356 0
M  V30 17194 C 1610.87 -3.32076 1.07361 0
M  V30 17195 C 1612.21 -4.0891 1.14357 0
M  V30 17196 O 1613.24 -3.41153 1.02435 0
M  V30 17197 O 1612.1 -5.30088 1.32926 0
M  V30 17198 H 1609.19 -0.810069 0.166484 0
M  V30 17199 H 1611.74 -1.34405 1.03602 0
M  V30 17200 H 1610.51 -3.29077 2.11716 0
M  V30 17201 H 1610.13 -3.94052 0.529991 0
M  V30 17202 N 1611.13 -0.710588 -1.40671 0
M  V30 17203 C 1612.38 -0.247949 -2.00976 0
M  V30 17204 C 1612.7 1.15725 -1.56327 0
M  V30 17205 O 1611.96 1.79826 -0.77208 0
M  V30 17206 C 1612.26 -0.270478 -3.56375 0
M  V30 17207 C 1611.92 -1.62528 -4.2059 0
M  V30 17208 C 1610.59 -1.99614 -4.37844 0
M  V30 17209 C 1612.94 -2.51591 -4.56455 0
M  V30 17210 C 1610.27 -3.2532 -4.88246 0
M  V30 17211 C 1612.62 -3.76644 -5.08254 0
M  V30 17212 C 1611.28 -4.13855 -5.23718 0
M  V30 17213 H 1610.55 -0.0907308 -0.735424 0
M  V30 17214 H 1613.2 -0.912636 -1.68354 0
M  V30 17215 H 1611.5 0.477777 -3.88876 0
M  V30 17216 H 1613.2 0.105243 -4.00862 0
M  V30 17217 H 1609.79 -1.32686 -4.07544 0
M  V30 17218 H 1613.98 -2.24215 -4.42766 0
M  V30 17219 H 1609.23 -3.54125 -4.98403 0
M  V30 17220 H 1613.41 -4.45832 -5.34983 0
M  V30 17221 H 1611.03 -5.1133 -5.62535 0
M  V30 17222 N 1612.61 1.50847 -0.456408 0
M  V30 17223 C 1613.86 2.01835 0.103414 0
M  V30 17224 C 1614.18 1.34142 1.4153 0
M  V30 17225 O 1613.45 0.482015 1.89877 0
M  V30 17226 H 1612.03 0.745863 0.0412074 0
M  V30 17227 H 1614.69 1.85322 -0.603477 0
M  V30 17228 H 1613.78 3.10968 0.265562 0
M  V30 17229 N 1614.09 0.188454 1.56469 0
M  V30 17230 C 1615.33 -0.446133 1.98447 0
M  V30 17231 C 1615.69 -1.59695 1.07309 0
M  V30 17232 O 1614.98 -1.91248 0.116155 0
M  V30 17233 C 1615.17 -0.960652 3.44247 0
M  V30 17234 C 1615 0.138775 4.49486 0
M  V30 17235 C 1613.77 0.594191 5.01794 0
M  V30 17236 C 1615.97 0.945352 5.05537 0
M  V30 17237 N 1613.95 1.67213 5.90689 0
M  V30 17238 C 1615.32 1.87284 5.91037 0
M  V30 17239 C 1617.38 0.988513 4.87989 0
M  V30 17240 C 1616.08 2.83989 6.60865 0
M  V30 17241 C 1618.11 1.94358 5.58551 0
M  V30 17242 C 1617.47 2.85852 6.43792 0
M  V30 17243 H 1613.57 -0.130863 0.770973 0
M  V30 17244 H 1616.15 0.29262 1.92489 0
M  V30 17245 H 1614.32 -1.66887 3.50718 0
M  V30 17246 H 1616.06 -1.56529 3.73203 0
M  V30 17247 H 1612.81 0.188748 4.73224 0
M  V30 17248 H 1613.23 2.21211 6.3984 0
M  V30 17249 H 1617.88 0.295146 4.21769 0
M  V30 17250 H 1615.59 3.54305 7.26288 0
M  V30 17251 H 1619.18 1.9833 5.46952 0
M  V30 17252 H 1618.06 3.5855 6.97432 0
M  V30 17253 N 1615.56 -1.5737 -0.0851874 0
M  V30 17254 C 1616.81 -1.85772 -0.785604 0
M  V30 17255 C 1617.13 -0.779172 -1.79411 0
M  V30 17256 O 1618.33 -0.950621 -2.54314 0
M  V30 17257 C 1616.79 -3.29484 -1.44805 0
M  V30 17258 C 1616.4 -4.45434 -0.478799 0
M  V30 17259 C 1618.14 -3.671 -2.13161 0
M  V30 17260 C 1616.05 -5.80183 -1.1464 0
M  V30 17261 H 1614.98 -0.69298 -0.297145 0
M  V30 17262 H 1617.63 -1.83459 -0.0386776 0
M  V30 17263 H 1616.01 -3.26367 -2.24278 0
M  V30 17264 H 1617.18 -4.59917 0.285148 0
M  V30 17265 H 1615.5 -4.16281 0.0995964 0
M  V30 17266 H 1618.1 -4.65061 -2.6386 0
M  V30 17267 H 1618.44 -2.96223 -2.92503 0
M  V30 17268 H 1618.97 -3.72148 -1.40536 0
M  V30 17269 H 1615.71 -6.54317 -0.393583 0
M  V30 17270 H 1615.23 -5.69525 -1.88153 0
M  V30 17271 H 1616.91 -6.25074 -1.67006 0
M  V30 17272 N 1617.04 0.356258 -1.53521 0
M  V30 17273 C 1618 1.41975 -1.79933 0
M  V30 17274 C 1619 1.46177 -0.669997 0
M  V30 17275 O 1620.19 1.46774 -0.938239 0
M  V30 17276 C 1617.33 2.81015 -1.92985 0
M  V30 17277 H 1618.52 1.19824 -2.74922 0
M  V30 17278 H 1616.07 0.589928 -1.4474 0
M  V30 17279 H 1616.81 3.08466 -1.00095 0
M  V30 17280 H 1616.59 2.79363 -2.75135 0
M  V30 17281 H 1618.08 3.58013 -2.1498 0
M  V30 17282 N 1618.52 1.45038 0.616577 0
M  V30 17283 C 1619.74 1.52321 1.40759 0
M  V30 17284 C 1620.17 0.15375 1.87471 0
M  V30 17285 O 1619.53 -0.859908 1.5961 0
M  V30 17286 C 1619.58 2.50464 2.59423 0
M  V30 17287 O 1618.68 2.01623 3.59753 0
M  V30 17288 H 1618.02 0.513808 0.420592 0
M  V30 17289 H 1620.55 1.90309 0.751234 0
M  V30 17290 H 1620.56 2.68977 3.06783 0
M  V30 17291 H 1619.24 3.4993 2.24771 0
M  V30 17292 H 1617.81 1.92945 3.19103 0
M  V30 17293 N 1620 -0.858287 1.32179 0
M  V30 17294 C 1620.93 -1.98219 1.23415 0
M  V30 17295 C 1621.91 -1.69685 0.118779 0
M  V30 17296 O 1623.09 -1.91785 0.305342 0
M  V30 17297 C 1620.22 -3.33977 0.952725 0
M  V30 17298 C 1619.18 -3.76853 2.02894 0
M  V30 17299 C 1618.5 -5.10201 1.59999 0
M  V30 17300 C 1619.8 -3.92707 3.44352 0
M  V30 17301 H 1621.5 -2.05809 2.17446 0
M  V30 17302 H 1619.04 -0.988817 1.04682 0
M  V30 17303 H 1621 -4.12152 0.87798 0
M  V30 17304 H 1619.72 -3.26592 -0.023234 0
M  V30 17305 H 1618.38 -3.00926 2.09378 0
M  V30 17306 H 1618.03 -4.99268 0.61157 0
M  V30 17307 H 1617.73 -5.39859 2.32004 0
M  V30 17308 H 1619.25 -5.90873 1.53954 0
M  V30 17309 H 1620.67 -4.61246 3.40477 0
M  V30 17310 H 1619.06 -4.33779 4.14675 0
M  V30 17311 H 1620.13 -2.95731 3.8428 0
M  V30 17312 N 1621.48 -1.1533 -1.07409 0
M  V30 17313 C 1622.89 -0.937287 -1.61468 0
M  V30 17314 C 1623.24 0.521545 -1.89141 0
M  V30 17315 O 1622.36 1.39253 -1.65643 0
M  V30 17316 C 1622.96 -1.69501 -2.93351 0
M  V30 17317 C 1621.52 -1.52429 -3.44154 0
M  V30 17318 C 1620.66 -1.71098 -2.18222 0
M  V30 17319 H 1623.61 -1.30364 -0.905044 0
M  V30 17320 H 1623.64 -1.16416 -3.62253 0
M  V30 17321 H 1623.15 -2.75672 -2.73178 0
M  V30 17322 H 1621.25 -0.486498 -3.6941 0
M  V30 17323 H 1621.36 -2.30089 -4.20233 0
M  V30 17324 H 1619.73 -1.13745 -2.27891 0
M  V30 17325 H 1620.51 -2.78634 -2.00545 0
M  V30 17326 N 1622.95 1.25748 -0.950004 0
M  V30 17327 C 1624.23 1.88566 -0.519839 0
M  V30 17328 C 1624.61 1.85761 1.00279 0
M  V30 17329 O 1623.96 1.31797 1.8666 0
M  V30 17330 C 1624.17 3.31502 -1.09121 0
M  V30 17331 C 1625.52 4.08298 -1.16524 0
M  V30 17332 O 1626.54 3.40605 -1.04243 0
M  V30 17333 O 1625.4 5.29375 -1.35735 0
M  V30 17334 H 1622.49 0.809175 -0.170777 0
M  V30 17335 H 1625.04 1.33853 -1.04314 0
M  V30 17336 H 1623.81 3.2795 -2.13458 0
M  V30 17337 H 1623.43 3.93765 -0.550881 0
M  V30 17338 N 1624.43 0.718038 1.40292 0
M  V30 17339 C 1625.38 0.0434428 2.27959 0
M  V30 17340 C 1626.37 -0.730049 1.43384 0
M  V30 17341 O 1627.56 -0.601847 1.66454 0
M  V30 17342 C 1624.69 -0.875738 3.31942 0
M  V30 17343 C 1623.77 -0.0973011 4.23988 0
M  V30 17344 N 1624.16 0.92073 4.97349 0
M  V30 17345 C 1622.46 -0.329494 4.44781 0
M  V30 17346 C 1623.16 1.38868 5.64881 0
M  V30 17347 N 1622.14 0.710377 5.38938 0
M  V30 17348 H 1625.94 0.823656 2.82123 0
M  V30 17349 H 1623.45 0.550843 1.52773 0
M  V30 17350 H 1625.45 -1.37436 3.93595 0
M  V30 17351 H 1624.11 -1.6553 2.79338 0
M  V30 17352 H 1625.12 1.30164 5.01276 0
M  V30 17353 H 1621.8 -1.08519 4.0315 0
M  V30 17354 H 1623.19 2.23471 6.33648 0
M  V30 17355 N 1625.91 -1.50602 0.464402 0
M  V30 17356 C 1626.86 -2.29992 -0.347337 0
M  V30 17357 C 1627.85 -1.36991 -0.996489 0
M  V30 17358 O 1629.06 -1.54213 -0.928359 0
M  V30 17359 H 1625.43 -0.740529 -0.130847 0
M  V30 17360 H 1627.4 -2.96425 0.342734 0
M  V30 17361 C 1626.15 -3.17355 -1.4206 0
M  V30 17362 H 1625.48 -3.88822 -0.930473 0
M  V30 17363 H 1626.92 -3.75912 -1.96129 0
M  V30 17364 C 1625.38 -2.34506 -2.41886 0
M  V30 17365 O 1625.91 -2.02347 -3.47014 0
M  V30 17366 N 1624.11 -1.97212 -2.13438 0
M  V30 17367 H 1623.66 -2.23564 -1.27971 0
M  V30 17368 H 1623.62 -1.42081 -2.80464 0
M  V30 17369 N 1627.39 -0.19675 -1.56367 0
M  V30 17370 C 1628.32 0.75534 -2.16396 0
M  V30 17371 C 1629.33 1.17558 -1.12623 0
M  V30 17372 O 1630.52 1.11102 -1.39709 0
M  V30 17373 C 1627.62 2.03159 -2.71256 0
M  V30 17374 C 1626.8 1.77088 -3.99948 0
M  V30 17375 C 1625.85 2.89176 -4.39618 0
M  V30 17376 O 1624.88 2.58712 -5.07007 0
M  V30 17377 N 1626.08 4.17569 -4.03257 0
M  V30 17378 H 1628.85 0.241991 -2.98721 0
M  V30 17379 H 1626.41 -0.0148423 -1.61893 0
M  V30 17380 H 1628.4 2.77287 -2.94778 0
M  V30 17381 H 1626.97 2.45611 -1.93375 0
M  V30 17382 H 1626.19 0.867309 -3.84541 0
M  V30 17383 H 1627.48 1.5707 -4.83949 0
M  V30 17384 H 1626.88 4.45171 -3.49054 0
M  V30 17385 H 1625.43 4.88319 -4.31726 0
M  V30 17386 N 1628.87 1.57413 0.0768405 0
M  V30 17387 C 1629.81 2.04373 1.1106 0
M  V30 17388 C 1630.81 0.948127 1.40381 0
M  V30 17389 O 1632.01 1.13325 1.39848 0
M  V30 17390 H 1628.39 0.65156 0.375464 0
M  V30 17391 H 1630.36 2.90352 0.688348 0
M  V30 17392 C 1629.11 2.49914 2.41741 0
M  V30 17393 H 1628.43 3.33808 2.20027 0
M  V30 17394 H 1629.87 2.8653 3.12532 0
M  V30 17395 C 1628.33 1.37996 3.07341 0
M  V30 17396 O 1628.86 0.719242 3.95209 0
M  V30 17397 N 1627.07 1.12635 2.67884 0
M  V30 17398 H 1626.61 1.66545 1.96521 0
M  V30 17399 H 1626.57 0.37956 3.121 0
M  V30 17400 N 1630.34 -0.348112 1.53707 0
M  V30 17401 C 1631.57 -1.11346 1.74976 0
M  V30 17402 C 1631.99 -1.81726 0.485525 0
M  V30 17403 O 1631.35 -1.72384 -0.561565 0
M  V30 17404 C 1631.4 -2.10611 2.92703 0
M  V30 17405 O 1630.5 -3.18042 2.62532 0
M  V30 17406 H 1629.85 -0.322247 0.580563 0
M  V30 17407 H 1632.38 -0.399898 2.00654 0
M  V30 17408 H 1632.39 -2.53912 3.19363 0
M  V30 17409 H 1631.06 -1.58782 3.84397 0
M  V30 17410 H 1629.64 -2.79591 2.46746 0
M  V30 17411 N 1631.82 -1.45363 -0.608876 0
M  V30 17412 C 1633.05 -1.53066 -1.39949 0
M  V30 17413 C 1633.47 -0.16369 -1.87386 0
M  V30 17414 O 1632.83 0.851432 -1.60064 0
M  V30 17415 C 1632.88 -2.51836 -2.58091 0
M  V30 17416 O 1631.98 -2.03528 -3.58678 0
M  V30 17417 H 1631.32 -0.516031 -0.417861 0
M  V30 17418 H 1633.85 -1.90705 -0.74113 0
M  V30 17419 H 1633.86 -2.706 -3.05352 0
M  V30 17420 H 1632.54 -3.51117 -2.22912 0
M  V30 17421 H 1631.12 -1.94634 -3.18075 0
M  V30 17422 N 1633.3 0.851265 -1.32632 0
M  V30 17423 C 1634.25 1.98152 -1.21813 0
M  V30 17424 C 1635.24 1.68959 -0.122182 0
M  V30 17425 O 1636.45 1.77724 -0.285332 0
M  V30 17426 H 1632.82 0.650275 -0.377686 0
M  V30 17427 H 1634.79 2.04405 -2.17397 0
M  V30 17428 C 1633.54 3.34141 -0.961521 0
M  V30 17429 H 1632.87 3.57136 -1.79704 0
M  V30 17430 H 1634.31 4.13763 -0.926077 0
M  V30 17431 C 1632.77 3.35223 0.335704 0
M  V30 17432 O 1633.3 3.78461 1.34647 0
M  V30 17433 N 1631.5 2.88376 0.358875 0
M  V30 17434 H 1631.05 2.53383 -0.464194 0
M  V30 17435 H 1631.01 2.89482 1.22668 0
M  V30 17436 N 1634.78 1.15898 1.06796 0
M  V30 17437 C 1636.06 0.847701 1.76276 0
M  V30 17438 C 1636.44 -0.655537 2.00664 0
M  V30 17439 O 1635.78 -1.60171 1.62964 0
M  V30 17440 C 1635.99 1.66475 3.06736 0
M  V30 17441 C 1637.34 1.87452 3.80982 0
M  V30 17442 O 1638.37 1.63298 3.16563 0
M  V30 17443 O 1637.22 2.27942 4.96694 0
M  V30 17444 H 1634.32 0.312308 0.765763 0
M  V30 17445 H 1636.86 1.26507 1.13111 0
M  V30 17446 H 1635.64 2.68508 2.84638 0
M  V30 17447 H 1635.26 1.24409 3.77635 0
M  V30 17448 N 1636.26 -1.25243 0.956659 0
M  V30 17449 C 1637.48 -1.97082 0.629791 0
M  V30 17450 C 1637.9 -1.71082 -0.798529 0
M  V30 17451 O 1637.26 -0.98805 -1.5344 0
M  V30 17452 C 1637.31 -3.5059 0.881406 0
M  V30 17453 O 1637.03 -3.75694 2.25356 0
M  V30 17454 C 1638.53 -4.39656 0.567203 0
M  V30 17455 H 1635.75 -0.628152 0.235938 0
M  V30 17456 H 1638.29 -1.5936 1.28159 0
M  V30 17457 H 1636.45 -3.86416 0.27599 0
M  V30 17458 H 1636.86 -4.70142 2.32523 0
M  V30 17459 H 1638.34 -5.46263 0.793785 0
M  V30 17460 H 1638.81 -4.36364 -0.498287 0
M  V30 17461 H 1639.42 -4.094 1.15203 0
M  V30 17462 N 1637.73 -0.725468 -1.3991 0
M  V30 17463 C 1638.98 -0.268719 -2.00306 0
M  V30 17464 C 1639.3 1.14511 -1.57836 0
M  V30 17465 O 1638.57 1.77808 -0.822263 0
M  V30 17466 H 1637.15 -0.0963614 -0.740759 0
M  V30 17467 H 1639.82 -0.933303 -1.71101 0
M  V30 17468 H 1638.91 -0.309587 -3.10561 0
M  V30 17469 N 1639.21 1.50354 -0.472382 0
M  V30 17470 C 1640.14 2.26396 0.357429 0
M  V30 17471 C 1641.16 1.31778 0.955949 0
M  V30 17472 O 1642.35 1.57279 0.844136 0
M  V30 17473 C 1639.45 3.03131 1.51542 0
M  V30 17474 C 1638.62 4.25113 1.02945 0
M  V30 17475 C 1637.68 4.84131 2.06164 0
M  V30 17476 O 1636.7 5.4501 1.64174 0
M  V30 17477 N 1637.91 4.71244 3.38983 0
M  V30 17478 H 1640.67 2.9825 -0.294473 0
M  V30 17479 H 1638.23 1.59035 -0.303242 0
M  V30 17480 H 1640.22 3.39492 2.20289 0
M  V30 17481 H 1638.79 2.34067 2.07199 0
M  V30 17482 H 1638.01 3.93843 0.167821 0
M  V30 17483 H 1639.3 5.04199 0.682705 0
M  V30 17484 H 1638.7 4.22831 3.75807 0
M  V30 17485 H 1637.26 5.11871 4.03524 0
M  V30 17486 N 1640.69 0.205039 1.56261 0
M  V30 17487 C 1641.65 -0.698166 2.18308 0
M  V30 17488 C 1642.65 -1.13376 1.14029 0
M  V30 17489 O 1643.84 -1.04524 1.39357 0
M  V30 17490 C 1640.98 -1.95438 2.79315 0
M  V30 17491 H 1642.17 -0.157462 2.99486 0
M  V30 17492 H 1639.72 -0.0445849 1.56236 0
M  V30 17493 H 1640.46 -2.53736 2.01962 0
M  V30 17494 H 1640.24 -1.65068 3.55662 0
M  V30 17495 H 1641.73 -2.59824 3.26927 0
M  V30 17496 N 1642.17 -1.57451 -0.0684915 0
M  V30 17497 C 1643.39 -1.92025 -0.78366 0
M  V30 17498 C 1643.82 -0.801743 -1.70158 0
M  V30 17499 O 1643.18 0.245227 -1.79634 0
M  V30 17500 C 1643.23 -3.25563 -1.55051 0
M  V30 17501 O 1642.33 -3.15029 -2.6614 0
M  V30 17502 H 1641.67 -0.628714 -0.213576 0
M  V30 17503 H 1644.2 -2.04569 -0.0357474 0
M  V30 17504 H 1644.21 -3.59516 -1.92905 0
M  V30 17505 H 1642.89 -4.06547 -0.87704 0
M  V30 17506 H 1641.46 -2.9264 -2.31119 0
M  V30 17507 N 1643.65 0.339955 -1.5389 0
M  V30 17508 C 1644.89 1.0882 -1.73025 0
M  V30 17509 C 1645.25 1.85773 -0.485017 0
M  V30 17510 O 1646.45 2.63041 -0.55345 0
M  V30 17511 C 1644.72 2.00153 -2.96097 0
M  V30 17512 S 1646.28 2.82151 -3.3606 0
M  V30 17513 H 1643.1 0.367632 -0.608578 0
M  V30 17514 H 1645.7 0.366178 -1.9204 0
M  V30 17515 H 1644.41 1.42426 -3.84893 0
M  V30 17516 H 1643.94 2.76787 -2.79558 0
M  V30 17517 H 1645.95 4.0258 -2.90076 0
M  V30 17518 N 1645.13 1.45684 0.601159 0
M  V30 17519 C 1646.54 1.44423 1.18317 0
M  V30 17520 C 1646.89 0.17524 1.95416 0
M  V30 17521 O 1646.01 -0.722816 2.03971 0
M  V30 17522 C 1646.61 2.61651 2.1523 0
M  V30 17523 C 1645.17 2.6349 2.68793 0
M  V30 17524 C 1644.31 2.36787 1.44317 0
M  V30 17525 H 1647.26 1.53831 0.390108 0
M  V30 17526 H 1647.29 2.36117 2.98377 0
M  V30 17527 H 1646.8 3.53995 1.59088 0
M  V30 17528 H 1644.9 1.7517 3.28856 0
M  V30 17529 H 1645.01 3.62906 3.12787 0
M  V30 17530 H 1643.38 1.86472 1.73494 0
M  V30 17531 H 1644.16 3.31284 0.900327 0
M  V30 17532 N 1646.6 -0.84422 1.33082 0
M  V30 17533 C 1648.01 -1.41526 1.21767 0
M  V30 17534 C 1648.37 -1.955 -0.165606 0
M  V30 17535 O 1647.49 -1.88384 -1.06492 0
M  V30 17536 C 1648.09 -2.57266 2.20454 0
M  V30 17537 C 1646.64 -3.10339 2.12995 0
M  V30 17538 C 1645.79 -1.83119 2.08237 0
M  V30 17539 H 1648.74 -0.650452 1.44758 0
M  V30 17540 H 1648.76 -3.34739 1.80914 0
M  V30 17541 H 1648.28 -2.17952 3.21121 0
M  V30 17542 H 1646.38 -3.5421 1.15612 0
M  V30 17543 H 1646.49 -3.70875 3.03296 0
M  V30 17544 H 1644.85 -2.03148 1.53632 0
M  V30 17545 H 1645.64 -1.46009 3.10703 0
M  V30 17546 N 1648.08 -1.16463 -1.0618 0
M  V30 17547 C 1649.33 -0.944975 -1.78647 0
M  V30 17548 C 1649.65 0.528486 -1.87702 0
M  V30 17549 O 1648.92 1.38391 -1.38653 0
M  V30 17550 H 1647.5 -0.346637 -0.661704 0
M  V30 17551 H 1650.16 -1.46752 -1.28257 0
M  V30 17552 H 1649.26 -1.36469 -2.80683 0
M  V30 17553 N 1649.56 1.24734 -0.963288 0
M  V30 17554 C 1650.49 2.27892 -0.508667 0
M  V30 17555 C 1651.47 1.64055 0.449438 0
M  V30 17556 O 1652.66 1.91083 0.346519 0
M  V30 17557 C 1649.79 3.46688 0.206157 0
M  V30 17558 C 1648.74 4.22762 -0.667534 0
M  V30 17559 C 1648.07 5.34402 0.178529 0
M  V30 17560 C 1649.37 4.84535 -1.94995 0
M  V30 17561 H 1651.06 2.66171 -1.37088 0
M  V30 17562 H 1648.61 1.27952 -0.660622 0
M  V30 17563 H 1650.56 4.17985 0.535391 0
M  V30 17564 H 1649.28 3.07422 1.10269 0
M  V30 17565 H 1647.94 3.53259 -0.979976 0
M  V30 17566 H 1647.59 4.91377 1.07508 0
M  V30 17567 H 1647.29 5.86218 -0.402808 0
M  V30 17568 H 1648.81 6.08529 0.502533 0
M  V30 17569 H 1650.23 5.4793 -1.68658 0
M  V30 17570 H 1648.62 5.46564 -2.47765 0
M  V30 17571 H 1649.69 4.06236 -2.64765 0
M  V30 17572 N 1651.04 0.732878 1.39523 0
M  V30 17573 C 1652.27 0.289649 2.0456 0
M  V30 17574 C 1652.68 -1.07973 1.55365 0
M  V30 17575 O 1652.02 -1.69309 0.712751 0
M  V30 17576 C 1652.08 0.210767 3.58882 0
M  V30 17577 C 1651.74 1.51827 4.31042 0
M  V30 17578 C 1652.74 2.46356 4.57826 0
M  V30 17579 C 1650.43 1.78198 4.69628 0
M  V30 17580 C 1652.42 3.65491 5.22202 0
M  V30 17581 C 1650.11 2.97611 5.33733 0
M  V30 17582 C 1651.11 3.91079 5.59952 0
M  V30 17583 O 1650.79 5.08395 6.22728 0
M  V30 17584 H 1650.53 0.124787 0.664382 0
M  V30 17585 H 1653.08 0.996726 1.79595 0
M  V30 17586 H 1651.31 -0.552394 3.82734 0
M  V30 17587 H 1653 -0.200184 4.05406 0
M  V30 17588 H 1653.76 2.27252 4.28464 0
M  V30 17589 H 1649.64 1.06292 4.48579 0
M  V30 17590 H 1653.19 4.38462 5.42583 0
M  V30 17591 H 1649.08 3.16617 5.62516 0
M  V30 17592 H 1649.85 5.08701 6.41222 0
M  V30 17593 N 1652.52 -1.50101 0.480349 0
M  V30 17594 C 1653.45 -2.26582 -0.345418 0
M  V30 17595 C 1654.46 -1.32283 -0.948947 0
M  V30 17596 O 1655.65 -1.57724 -0.835784 0
M  V30 17597 C 1652.75 -3.0393 -1.49932 0
M  V30 17598 C 1651.92 -4.25653 -1.00689 0
M  V30 17599 C 1650.98 -4.85217 -2.03594 0
M  V30 17600 O 1650.01 -5.45873 -1.61281 0
M  V30 17601 N 1651.21 -4.73035 -3.36479 0
M  V30 17602 H 1653.97 -2.98089 0.310285 0
M  V30 17603 H 1651.54 -1.58872 0.311671 0
M  V30 17604 H 1653.53 -3.40656 -2.18485 0
M  V30 17605 H 1652.1 -2.35162 -2.05955 0
M  V30 17606 H 1651.32 -3.93926 -0.146932 0
M  V30 17607 H 1652.61 -5.04554 -0.655957 0
M  V30 17608 H 1652 -4.24818 -3.73559 0
M  V30 17609 H 1650.56 -5.14004 -4.00804 0
M  V30 17610 N 1653.99 -0.213323 -1.5615 0
M  V30 17611 C 1655.22 0.425688 -2.02473 0
M  V30 17612 C 1655.64 1.53926 -1.09326 0
M  V30 17613 O 1654.99 1.82218 -0.101364 0
M  V30 17614 C 1655.04 0.965021 -3.48381 0
M  V30 17615 O 1654.77 -0.104145 -4.37976 0
M  V30 17616 C 1656.27 1.6781 -4.10311 0
M  V30 17617 H 1653.49 0.105064 -0.662724 0
M  V30 17618 H 1656.03 -0.327369 -2.01863 0
M  V30 17619 H 1654.19 1.66838 -3.49634 0
M  V30 17620 H 1654.6 0.299985 -5.23641 0
M  V30 17621 H 1656.07 2.00757 -5.14199 0
M  V30 17622 H 1656.55 2.58833 -3.54827 0
M  V30 17623 H 1657.16 1.02014 -4.12884 0
M  V30 17624 N 1655.47 1.57485 0.0601405 0
M  V30 17625 C 1656.72 1.88094 0.758192 0
M  V30 17626 C 1657.05 0.807138 1.76632 0
M  V30 17627 O 1656.33 -0.181347 1.93653 0
M  V30 17628 C 1656.61 3.29363 1.45574 0
M  V30 17629 C 1656.46 4.47408 0.463233 0
M  V30 17630 C 1657.78 3.69048 2.39773 0
M  V30 17631 H 1654.9 0.684106 0.274169 0
M  V30 17632 H 1657.54 1.89988 0.0212215 0
M  V30 17633 H 1655.69 3.27879 2.08393 0
M  V30 17634 H 1657.36 4.6102 -0.160641 0
M  V30 17635 H 1655.61 4.3324 -0.220408 0
M  V30 17636 H 1656.28 5.43065 0.989164 0
M  V30 17637 H 1658.75 3.71701 1.87024 0
M  V30 17638 H 1657.63 4.68761 2.85577 0
M  V30 17639 H 1657.89 2.9961 3.25094 0
M  V30 17640 N 1656.95 -0.331789 1.54068 0
M  V30 17641 C 1658.36 -0.906719 1.63204 0
M  V30 17642 C 1658.71 -1.89161 0.520837 0
M  V30 17643 O 1657.84 -2.1359 -0.347577 0
M  V30 17644 C 1658.43 -1.65132 2.95832 0
M  V30 17645 C 1656.99 -2.17509 3.07192 0
M  V30 17646 C 1656.14 -0.99788 2.58723 0
M  V30 17647 H 1659.09 -0.109595 1.58321 0
M  V30 17648 H 1659.11 -2.515 2.85531 0
M  V30 17649 H 1658.62 -0.934255 3.76687 0
M  V30 17650 H 1656.72 -2.92356 2.30995 0
M  V30 17651 H 1656.84 -2.43074 4.12858 0
M  V30 17652 H 1655.2 -1.37469 2.14417 0
M  V30 17653 H 1655.98 -0.295261 3.42028 0
M  V30 17654 N 1658.43 -1.46001 -0.593424 0
M  V30 17655 C 1659.84 -1.45049 -1.17549 0
M  V30 17656 C 1660.19 -0.185601 -1.9532 0
M  V30 17657 O 1659.32 0.711989 -2.04352 0
M  V30 17658 C 1659.91 -2.62789 -2.13839 0
M  V30 17659 C 1658.47 -2.64912 -2.67392 0
M  V30 17660 C 1657.62 -2.37549 -1.43059 0
M  V30 17661 H 1660.57 -1.54035 -0.381944 0
M  V30 17662 H 1660.59 -2.37696 -2.97121 0
M  V30 17663 H 1660.1 -3.54834 -1.57208 0
M  V30 17664 H 1658.2 -1.76911 -3.27922 0
M  V30 17665 H 1658.31 -3.6456 -3.10858 0
M  V30 17666 H 1656.68 -1.8739 -1.72503 0
M  V30 17667 H 1657.46 -3.31757 -0.882746 0
M  V30 17668 N 1659.91 0.83715 -1.33527 0
M  V30 17669 C 1660.82 1.97915 -1.25964 0
M  V30 17670 C 1661.83 1.73169 -0.169894 0
M  V30 17671 O 1663.01 1.97513 -0.393793 0
M  V30 17672 C 1660.07 3.31945 -1.00068 0
M  V30 17673 C 1659.13 3.69795 -2.1806 0
M  V30 17674 C 1658.37 4.97429 -1.9339 0
M  V30 17675 O 1658.59 5.63492 -0.885069 0
M  V30 17676 O 1657.52 5.32823 -2.79969 0
M  V30 17677 H 1661.35 2.07236 -2.22007 0
M  V30 17678 H 1658.94 0.970437 -1.13591 0
M  V30 17679 H 1660.82 4.12248 -0.873487 0
M  V30 17680 H 1659.49 3.23623 -0.0705475 0
M  V30 17681 H 1658.4 2.89995 -2.36334 0
M  V30 17682 H 1659.73 3.82784 -3.09414 0
M  V30 17683 N 1661.38 1.17024 1.05561 0
M  V30 17684 C 1662.29 0.898107 2.16728 0
M  V30 17685 C 1663.31 -0.132369 1.73496 0
M  V30 17686 O 1664.49 0.0460203 2.01347 0
M  V30 17687 C 1661.55 0.411091 3.44254 0
M  V30 17688 C 1660.61 1.5077 4.01954 0
M  V30 17689 C 1659.85 1.04383 5.23393 0
M  V30 17690 O 1660.07 -0.10351 5.70306 0
M  V30 17691 O 1659 1.8353 5.73237 0
M  V30 17692 H 1662.83 1.82791 2.42531 0
M  V30 17693 H 1660.41 0.950816 1.15238 0
M  V30 17694 H 1662.3 0.146837 4.21144 0
M  V30 17695 H 1660.97 -0.490605 3.19961 0
M  V30 17696 H 1659.88 1.82579 3.26521 0
M  V30 17697 H 1661.21 2.38497 4.30558 0
M  V30 17698 N 1662.86 -1.24221 0.969889 0
M  V30 17699 C 1663.81 -2.23043 0.472854 0
M  V30 17700 C 1664.8 -1.54585 -0.446344 0
M  V30 17701 O 1665.99 -1.74821 -0.27691 0
M  V30 17702 C 1663.12 -3.42504 -0.233578 0
M  V30 17703 C 1662.2 -4.18206 0.704577 0
M  V30 17704 N 1662.59 -4.71037 1.84276 0
M  V30 17705 C 1660.89 -4.43007 0.515795 0
M  V30 17706 C 1661.59 -5.28525 2.42974 0
M  V30 17707 N 1660.57 -5.15849 1.71467 0
M  V30 17708 H 1664.37 -2.6151 1.34126 0
M  V30 17709 H 1661.89 -1.39632 0.829251 0
M  V30 17710 H 1663.88 -4.12459 -0.606891 0
M  V30 17711 H 1662.54 -3.05557 -1.0984 0
M  V30 17712 H 1663.55 -4.67705 2.22424 0
M  V30 17713 H 1660.23 -4.16385 -0.304885 0
M  V30 17714 H 1661.62 -5.8009 3.39035 0
M  V30 17715 N 1664.34 -0.740267 -1.39132 0
M  V30 17716 C 1665.57 -0.300494 -2.04403 0
M  V30 17717 C 1665.98 1.07148 -1.55936 0
M  V30 17718 O 1665.32 1.68929 -0.72172 0
M  V30 17719 C 1665.38 -0.229797 -3.58765 0
M  V30 17720 C 1665.05 -1.54111 -4.30231 0
M  V30 17721 C 1666.04 -2.48781 -4.56513 0
M  V30 17722 C 1663.73 -1.80686 -4.68677 0
M  V30 17723 C 1665.72 -3.68255 -5.20256 0
M  V30 17724 C 1663.41 -3.00437 -5.32147 0
M  V30 17725 C 1664.41 -3.94043 -5.5787 0
M  V30 17726 O 1664.1 -5.1169 -6.20023 0
M  V30 17727 H 1663.83 -0.128309 -0.663711 0
M  V30 17728 H 1666.38 -1.00624 -1.79064 0
M  V30 17729 H 1664.61 0.532089 -3.83022 0
M  V30 17730 H 1666.3 0.178681 -4.05507 0
M  V30 17731 H 1667.07 -2.29521 -4.27253 0
M  V30 17732 H 1662.95 -1.08669 -4.48009 0
M  V30 17733 H 1666.49 -4.41334 -5.4025 0
M  V30 17734 H 1662.39 -3.19595 -5.60829 0
M  V30 17735 H 1663.16 -5.12095 -6.38515 0
M  V30 17736 N 1665.82 1.49844 -0.488302 0
M  V30 17737 C 1666.75 2.26762 0.333396 0
M  V30 17738 C 1667.76 1.32785 0.941918 0
M  V30 17739 O 1668.95 1.58165 0.827407 0
M  V30 17740 C 1666.05 3.04721 1.48318 0
M  V30 17741 C 1665.23 4.26181 0.984303 0
M  V30 17742 C 1664.28 4.8629 2.01018 0
M  V30 17743 O 1663.31 5.4672 1.58384 0
M  V30 17744 N 1664.51 4.74813 3.33965 0
M  V30 17745 H 1667.28 2.97921 -0.32609 0
M  V30 17746 H 1664.84 1.58704 -0.320092 0
M  V30 17747 H 1666.83 3.4181 2.16676 0
M  V30 17748 H 1665.4 2.36251 2.04705 0
M  V30 17749 H 1664.62 3.93998 0.126039 0
M  V30 17750 H 1665.91 5.04895 0.62919 0
M  V30 17751 H 1665.31 4.26793 3.71301 0
M  V30 17752 H 1663.86 5.16122 3.98072 0
M  V30 17753 N 1667.3 0.221601 1.56034 0
M  V30 17754 C 1668.52 -0.414945 2.02696 0
M  V30 17755 C 1668.94 -1.53344 1.10141 0
M  V30 17756 O 1668.3 -1.82162 0.111026 0
M  V30 17757 C 1668.35 -0.946532 3.48888 0
M  V30 17758 O 1668.07 0.12737 4.37915 0
M  V30 17759 C 1669.57 -1.65631 4.11195 0
M  V30 17760 H 1666.79 -0.101548 0.663271 0
M  V30 17761 H 1669.33 0.338069 2.01686 0
M  V30 17762 H 1667.49 -1.64982 3.50514 0
M  V30 17763 H 1667.9 -0.272211 5.23793 0
M  V30 17764 H 1669.38 -1.98027 5.15257 0
M  V30 17765 H 1669.85 -2.56947 3.56195 0
M  V30 17766 H 1670.46 -0.998231 4.13419 0
M  V30 17767 N 1668.77 -1.57515 -0.0517878 0
M  V30 17768 C 1670.02 -1.88214 -0.7471 0
M  V30 17769 C 1670.35 -0.815991 -1.76556 0
M  V30 17770 O 1669.6 0.185772 -1.94816 0
M  V30 17771 C 1669.9 -3.25625 -1.4732 0
M  V30 17772 C 1669.57 -4.46985 -0.592863 0
M  V30 17773 C 1668.23 -4.79923 -0.350322 0
M  V30 17774 C 1670.58 -5.21197 0.0163333 0
M  V30 17775 C 1667.91 -5.84474 0.510567 0
M  V30 17776 C 1670.26 -6.26661 0.864792 0
M  V30 17777 C 1668.93 -6.58087 1.11701 0
M  V30 17778 H 1668.2 -0.688725 -0.273383 0
M  V30 17779 H 1670.84 -1.91499 -0.00740375 0
M  V30 17780 H 1669.15 -3.18224 -2.28563 0
M  V30 17781 H 1670.85 -3.46619 -2.01634 0
M  V30 17782 H 1667.44 -4.21218 -0.792044 0
M  V30 17783 H 1671.62 -4.96048 -0.158125 0
M  V30 17784 H 1666.88 -6.0721 0.71452 0
M  V30 17785 H 1671.05 -6.83318 1.34347 0
M  V30 17786 H 1668.68 -7.38926 1.78584 0
M  V30 17787 N 1670.25 0.323614 -1.54242 0
M  V30 17788 C 1671.66 0.898051 -1.63682 0
M  V30 17789 C 1672.02 1.88882 -0.530861 0
M  V30 17790 O 1671.14 2.13772 0.336245 0
M  V30 17791 C 1671.74 1.63561 -2.96704 0
M  V30 17792 C 1670.29 2.15877 -3.08341 0
M  V30 17793 C 1669.44 0.984145 -2.59249 0
M  V30 17794 H 1672.39 0.101198 -1.58377 0
M  V30 17795 H 1672.41 2.49982 -2.86861 0
M  V30 17796 H 1671.93 0.914265 -3.77177 0
M  V30 17797 H 1670.03 2.91127 -2.32542 0
M  V30 17798 H 1670.14 2.40881 -4.14141 0
M  V30 17799 H 1668.5 1.3633 -2.15143 0
M  V30 17800 H 1669.29 0.277118 -3.4218 0
M  V30 17801 N 1671.73 1.46313 0.585673 0
M  V30 17802 C 1672.98 1.50738 1.34019 0
M  V30 17803 C 1673.29 0.162245 1.94926 0
M  V30 17804 O 1674.5 0.0842676 2.71369 0
M  V30 17805 C 1672.96 2.65592 2.42876 0
M  V30 17806 C 1672.56 4.06513 1.88285 0
M  V30 17807 C 1674.31 2.79284 3.19689 0
M  V30 17808 C 1672.21 5.12712 2.94754 0
M  V30 17809 H 1671.14 0.560979 0.503804 0
M  V30 17810 H 1673.8 1.72516 0.625344 0
M  V30 17811 H 1672.18 2.37138 3.17146 0
M  V30 17812 H 1673.35 4.44744 1.20578 0
M  V30 17813 H 1671.67 3.97462 1.2415 0
M  V30 17814 H 1674.26 3.55795 3.99142 0
M  V30 17815 H 1674.61 1.86694 3.7209 0
M  V30 17816 H 1675.14 3.0737 2.52525 0
M  V30 17817 H 1671.88 6.07084 2.47244 0
M  V30 17818 H 1671.4 4.79028 3.6096 0
M  V30 17819 H 1673.08 5.38426 3.58757 0
M  V30 17820 N 1673.21 -0.830057 1.33969 0
M  V30 17821 C 1674.14 -1.94785 1.20795 0
M  V30 17822 C 1675.15 -1.62225 0.136752 0
M  V30 17823 O 1676.34 -1.74233 0.38797 0
M  V30 17824 C 1673.44 -3.28523 0.832209 0
M  V30 17825 C 1672.62 -3.89157 1.99689 0
M  V30 17826 C 1671.68 -5.01262 1.6007 0
M  V30 17827 O 1670.7 -5.19939 2.31629 0
M  V30 17828 N 1671.9 -5.78249 0.510754 0
M  V30 17829 H 1674.67 -2.06621 2.17089 0
M  V30 17830 H 1672.23 -1.00626 1.26831 0
M  V30 17831 H 1674.22 -4.00958 0.549094 0
M  V30 17832 H 1672.79 -3.12574 -0.0403271 0
M  V30 17833 H 1672.01 -3.09203 2.44514 0
M  V30 17834 H 1673.3 -4.26399 2.77599 0
M  V30 17835 H 1672.7 -5.65637 -0.0842912 0
M  V30 17836 H 1671.25 -6.51166 0.287345 0
M  V30 17837 N 1674.69 -1.17582 -1.04939 0
M  V30 17838 C 1675.96 -0.875638 -1.74906 0
M  V30 17839 C 1676.34 0.62353 -2.01681 0
M  V30 17840 O 1675.69 1.57558 -1.65492 0
M  V30 17841 C 1675.9 -1.71334 -3.04049 0
M  V30 17842 C 1677.25 -1.93489 -3.77951 0
M  V30 17843 O 1678.27 -1.68314 -3.13925 0
M  V30 17844 O 1677.13 -2.35815 -4.93005 0
M  V30 17845 H 1674.23 -0.324451 -0.760697 0
M  V30 17846 H 1676.77 -1.2829 -1.11084 0
M  V30 17847 H 1675.55 -2.73003 -2.80331 0
M  V30 17848 H 1675.17 -1.30401 -3.75608 0
M  V30 17849 N 1676.17 1.23705 -0.976463 0
M  V30 17850 C 1677.58 1.73848 -0.680723 0
M  V30 17851 C 1677.93 1.79005 0.803228 0
M  V30 17852 O 1677.05 1.42529 1.62832 0
M  V30 17853 C 1677.65 3.15724 -1.22898 0
M  V30 17854 C 1676.21 3.63338 -0.982963 0
M  V30 17855 C 1675.35 2.41712 -1.35906 0
M  V30 17856 H 1678.3 1.09284 -1.15077 0
M  V30 17857 H 1678.33 3.75748 -0.599487 0
M  V30 17858 H 1677.84 3.11938 -2.30903 0
M  V30 17859 H 1675.94 3.72512 0.0811766 0
M  V30 17860 H 1676.05 4.50347 -1.63477 0
M  V30 17861 H 1674.42 2.42543 -0.777498 0
M  V30 17862 H 1675.2 2.40601 -2.4488 0
M  V30 17863 N 1677.64 0.747635 1.38738 0
M  V30 17864 C 1678.92 0.226908 1.94279 0
M  V30 17865 C 1679.3 -1.27373 1.68343 0
M  V30 17866 O 1678.65 -2.04538 1.01865 0
M  V30 17867 C 1678.86 0.574164 3.44245 0
M  V30 17868 C 1680.21 0.530498 4.21273 0
M  V30 17869 O 1681.23 0.512102 3.525 0
M  V30 17870 O 1680.09 0.536171 5.43863 0
M  V30 17871 H 1677.18 0.0456834 0.825737 0
M  V30 17872 H 1679.73 0.827353 1.48165 0
M  V30 17873 H 1678.5 1.6108 3.56607 0
M  V30 17874 H 1678.12 -0.0545964 3.97563 0
M  V30 17875 N 1679.12 -1.49583 0.496242 0
M  V30 17876 C 1680.05 -2.26936 -0.321366 0
M  V30 17877 C 1681.07 -1.33282 -0.934863 0
M  V30 17878 O 1682.26 -1.58602 -0.819008 0
M  V30 17879 C 1679.36 -3.05503 -1.467 0
M  V30 17880 C 1678.53 -4.26697 -0.961687 0
M  V30 17881 C 1677.59 -4.8735 -1.98436 0
M  V30 17882 O 1676.61 -5.47553 -1.55482 0
M  V30 17883 N 1677.82 -4.76577 -3.31443 0
M  V30 17884 H 1680.58 -2.97744 0.341884 0
M  V30 17885 H 1678.14 -1.58532 0.328504 0
M  V30 17886 H 1680.13 -3.42954 -2.1486 0
M  V30 17887 H 1678.7 -2.37334 -2.03449 0
M  V30 17888 H 1677.92 -3.9406 -0.105143 0
M  V30 17889 H 1679.21 -5.05221 -0.602405 0
M  V30 17890 H 1678.61 -4.28756 -3.69032 0
M  V30 17891 H 1677.17 -5.18226 -3.95329 0
M  V30 17892 N 1680.6 -0.229873 -1.55915 0
M  V30 17893 C 1681.53 0.717016 -2.16643 0
M  V30 17894 C 1682.51 1.18509 -1.1133 0
M  V30 17895 O 1683.69 1.26632 -1.3963 0
M  V30 17896 C 1680.82 1.97243 -2.75342 0
M  V30 17897 C 1679.87 1.64364 -3.93556 0
M  V30 17898 S 1680.7 0.76114 -5.30063 0
M  V30 17899 C 1681.86 2.02593 -5.92205 0
M  V30 17900 H 1682.09 0.200879 -2.96621 0
M  V30 17901 H 1679.62 -0.0144837 -1.54393 0
M  V30 17902 H 1681.58 2.69323 -3.09799 0
M  V30 17903 H 1680.24 2.45969 -1.95341 0
M  V30 17904 H 1679.43 2.57662 -4.33159 0
M  V30 17905 H 1679.04 1.00341 -3.60288 0
M  V30 17906 H 1681.33 2.97504 -6.08685 0
M  V30 17907 H 1682.27 1.67367 -6.88036 0
M  V30 17908 H 1682.68 2.17026 -5.21114 0
M  V30 17909 N 1682.08 1.5754 0.0434337 0
M  V30 17910 C 1683.03 2.0207 1.05602 0
M  V30 17911 C 1684.01 0.907491 1.32866 0
M  V30 17912 O 1685.2 1.17141 1.32692 0
M  V30 17913 C 1682.33 2.49176 2.36149 0
M  V30 17914 C 1681.42 3.67289 2.12037 0
M  V30 17915 N 1681.81 4.8051 1.57937 0
M  V30 17916 C 1680.11 3.74386 2.42387 0
M  V30 17917 C 1680.81 5.62214 1.49298 0
M  V30 17918 N 1679.78 5.06899 1.96353 0
M  V30 17919 H 1683.59 2.87035 0.631515 0
M  V30 17920 H 1681.1 1.60464 0.250012 0
M  V30 17921 H 1683.1 2.79331 3.09483 0
M  V30 17922 H 1681.76 1.65611 2.79291 0
M  V30 17923 H 1682.77 5.02237 1.26405 0
M  V30 17924 H 1679.45 3.01592 2.88701 0
M  V30 17925 H 1680.84 6.6315 1.08082 0
M  V30 17926 N 1683.56 -0.31543 1.54411 0
M  V30 17927 C 1684.78 -1.0761 1.77299 0
M  V30 17928 C 1685.21 -1.80655 0.523963 0
M  V30 17929 O 1684.56 -1.73536 -0.524874 0
M  V30 17930 C 1684.61 -2.04355 2.97105 0
M  V30 17931 O 1683.72 -3.12401 2.69219 0
M  V30 17932 H 1683.06 -0.30986 0.587267 0
M  V30 17933 H 1685.59 -0.357246 2.01457 0
M  V30 17934 H 1685.6 -2.47081 3.24677 0
M  V30 17935 H 1684.27 -1.50592 3.87679 0
M  V30 17936 H 1682.85 -2.74294 2.52621 0
M  V30 17937 N 1685.03 -1.46622 -0.577906 0
M  V30 17938 C 1686.26 -1.5576 -1.36185 0
M  V30 17939 C 1686.68 -0.200403 -1.87733 0
M  V30 17940 O 1686.03 0.803091 -1.6388 0
M  V30 17941 C 1686.09 -2.56626 -2.54608 0
M  V30 17942 O 1685.81 -3.87074 -2.05195 0
M  V30 17943 C 1687.31 -2.75751 -3.47097 0
M  V30 17944 H 1684.53 -0.526589 -0.415866 0
M  V30 17945 H 1687.07 -1.9207 -0.702091 0
M  V30 17946 H 1685.23 -2.23307 -3.16564 0
M  V30 17947 H 1685.64 -4.42015 -2.82352 0
M  V30 17948 H 1687.11 -3.50237 -4.26659 0
M  V30 17949 H 1687.59 -1.82829 -3.99337 0
M  V30 17950 H 1688.2 -3.10185 -2.90973 0
M  V30 17951 N 1686.51 0.822941 -1.34408 0
M  V30 17952 C 1687.74 1.61607 -1.29992 0
M  V30 17953 C 1688.16 1.87695 0.123301 0
M  V30 17954 O 1687.52 1.45247 1.08504 0
M  V30 17955 C 1687.57 2.934 -2.09639 0
M  V30 17956 O 1686.67 3.85467 -1.4659 0
M  V30 17957 H 1686.01 0.491504 -0.446452 0
M  V30 17958 H 1688.54 1.02264 -1.7721 0
M  V30 17959 H 1688.55 3.42966 -2.20994 0
M  V30 17960 H 1687.23 2.73736 -3.13116 0
M  V30 17961 H 1685.81 3.43984 -1.43978 0
M  V30 17962 N 1687.99 1.18137 1.04314 0
M  V30 17963 C 1689.27 0.884901 1.74439 0
M  V30 17964 C 1689.65 -0.612825 2.02009 0
M  V30 17965 O 1689 -1.56679 1.66325 0
M  V30 17966 C 1689.21 1.72944 3.03136 0
M  V30 17967 C 1690.55 1.95491 3.7692 0
M  V30 17968 O 1691.58 1.69976 3.13028 0
M  V30 17969 O 1690.44 2.38426 4.91747 0
M  V30 17970 H 1687.53 0.328481 0.758966 0
M  V30 17971 H 1690.08 1.28878 1.10402 0
M  V30 17972 H 1688.85 2.74485 2.78879 0
M  V30 17973 H 1688.47 1.32392 3.74911 0
M  V30 17974 N 1689.47 -1.23186 0.98301 0
M  V30 17975 C 1690.88 -1.73484 0.689933 0
M  V30 17976 C 1691.23 -1.79428 -0.793724 0
M  V30 17977 O 1690.36 -1.43391 -1.62074 0
M  V30 17978 C 1690.95 -3.15068 1.24571 0
M  V30 17979 C 1689.51 -3.62812 1.00222 0
M  V30 17980 C 1688.66 -2.40988 1.37186 0
M  V30 17981 H 1691.61 -1.08672 1.15655 0
M  V30 17982 H 1691.63 -3.75425 0.619406 0
M  V30 17983 H 1691.14 -3.10709 2.32554 0
M  V30 17984 H 1689.24 -3.72549 -0.0614202 0
M  V30 17985 H 1689.35 -4.49473 1.65863 0
M  V30 17986 H 1687.72 -2.42127 0.79035 0
M  V30 17987 H 1688.5 -2.39299 2.46152 0
M  V30 17988 N 1690.95 -0.754982 -1.38339 0
M  V30 17989 C 1692.17 -0.321355 -2.04895 0
M  V30 17990 C 1692.6 1.04249 -1.56569 0
M  V30 17991 O 1691.95 1.66464 -0.718299 0
M  V30 17992 C 1692 -0.354873 -3.5885 0
M  V30 17993 O 1691.11 0.65063 -4.07235 0
M  V30 17994 H 1690.45 -0.142033 -0.648631 0
M  V30 17995 H 1692.98 -1.02649 -1.76987 0
M  V30 17996 H 1692.99 -0.206243 -4.07478 0
M  V30 17997 H 1691.66 -1.34994 -3.93382 0
M  V30 17998 H 1690.24 0.466498 -3.69971 0
M  V30 17999 N 1692.42 1.49318 -0.504168 0
M  V30 18000 C 1693.37 2.26124 0.291886 0
M  V30 18001 C 1694.36 1.31105 0.932753 0
M  V30 18002 O 1695.55 1.55807 0.839828 0
M  V30 18003 C 1692.68 3.15477 1.35384 0
M  V30 18004 C 1691.77 4.1796 0.719059 0
M  V30 18005 N 1692.16 5.05479 -0.180167 0
M  V30 18006 C 1690.45 4.35116 0.979276 0
M  V30 18007 C 1691.16 5.79152 -0.543837 0
M  V30 18008 N 1690.13 5.43527 0.0889959 0
M  V30 18009 H 1693.93 2.91161 -0.400301 0
M  V30 18010 H 1691.45 1.59207 -0.320454 0
M  V30 18011 H 1693.44 3.69137 1.93762 0
M  V30 18012 H 1692.1 2.51993 2.04767 0
M  V30 18013 H 1693.12 5.14959 -0.551179 0
M  V30 18014 H 1689.79 3.82836 1.66562 0
M  V30 18015 H 1691.18 6.59601 -1.27968 0
M  V30 18016 N 1693.9 0.238138 1.5579 0
M  V30 18017 C 1695.32 -0.116908 1.59171 0
M  V30 18018 C 1695.52 -1.57629 1.2552 0
M  V30 18019 O 1694.57 -2.31926 0.998332 0
M  V30 18020 C 1695.89 0.224366 2.99862 0
M  V30 18021 C 1697.44 0.16795 3.12549 0
M  V30 18022 C 1697.91 0.483132 4.55445 0
M  V30 18023 N 1699.4 0.43331 4.61169 0
M  V30 18024 C 1700.14 0.650461 5.69699 0
M  V30 18025 N 1699.63 0.930272 6.86526 0
M  V30 18026 N 1701.43 0.581764 5.59081 0
M  V30 18027 H 1693.58 1.18996 1.75936 0
M  V30 18028 H 1695.84 0.478169 0.818571 0
M  V30 18029 H 1695.55 1.23791 3.29194 0
M  V30 18030 H 1695.42 -0.452738 3.74473 0
M  V30 18031 H 1697.81 -0.836252 2.83003 0
M  V30 18032 H 1697.89 0.878776 2.40231 0
M  V30 18033 H 1697.53 1.48485 4.8571 0
M  V30 18034 H 1697.46 -0.249073 5.26011 0
M  V30 18035 H 1699.95 0.225412 3.77227 0
M  V30 18036 H 1700.27 1.08362 7.65165 0
M  V30 18037 H 1698.61 0.96765 6.88231 0
M  V30 18038 H 1701.8 0.363273 4.66688 0
M  V30 18039 H 1701.97 0.754398 6.43594 0
M  V30 18040 N 1695.38 -1.57561 -0.0350783 0
M  V30 18041 C 1696.61 -1.93644 -0.742753 0
M  V30 18042 C 1697.03 -0.837655 -1.68419 0
M  V30 18043 O 1696.39 0.207069 -1.80114 0
M  V30 18044 C 1696.44 -3.28779 -1.48111 0
M  V30 18045 O 1695.54 -3.20604 -2.59398 0
M  V30 18046 H 1694.88 -0.633103 -0.200192 0
M  V30 18047 H 1697.41 -2.04599 0.00765271 0
M  V30 18048 H 1697.42 -3.63527 -1.85236 0
M  V30 18049 H 1696.1 -4.08316 -0.790608 0
M  V30 18050 H 1694.67 -2.97477 -2.2486 0
M  V30 18051 N 1696.86 0.307236 -1.54576 0
M  V30 18052 C 1698.08 1.06668 -1.77867 0
M  V30 18053 C 1698.51 1.80375 -0.533536 0
M  V30 18054 O 1697.87 1.73812 0.515663 0
M  V30 18055 C 1697.91 2.02777 -2.98184 0
M  V30 18056 O 1697.02 3.10969 -2.70872 0
M  V30 18057 H 1696.36 0.306741 -0.588902 0
M  V30 18058 H 1698.89 0.346557 -2.01644 0
M  V30 18059 H 1698.9 2.45355 -3.25983 0
M  V30 18060 H 1697.57 1.48534 -3.88472 0
M  V30 18061 H 1696.15 2.7295 -2.54072 0
M  V30 18062 N 1698.34 1.46926 0.570122 0
M  V30 18063 C 1699.56 1.56722 1.35841 0
M  V30 18064 C 1699.99 0.213314 1.86887 0
M  V30 18065 O 1699.34 -0.808694 1.62265 0
M  V30 18066 C 1699.39 2.5859 2.51323 0
M  V30 18067 O 1698.5 2.12966 3.53156 0
M  V30 18068 H 1697.84 0.526929 0.404032 0
M  V30 18069 H 1700.37 1.92603 0.690308 0
M  V30 18070 H 1700.38 2.78601 2.9807 0
M  V30 18071 H 1699.05 3.56903 2.13525 0
M  V30 18072 H 1697.63 2.02999 3.12803 0
M  V30 18073 N 1699.82 -0.815801 1.34842 0
M  V30 18074 C 1701.23 -1.38911 1.24742 0
M  V30 18075 C 1701.58 -1.95807 -0.124101 0
M  V30 18076 O 1700.7 -1.906 -1.02472 0
M  V30 18077 C 1701.3 -2.52532 2.25861 0
M  V30 18078 C 1699.86 -3.05751 2.1953 0
M  V30 18079 C 1699 -1.78661 2.12075 0
M  V30 18080 H 1701.95 -0.619601 1.46105 0
M  V30 18081 H 1701.98 -3.30826 1.87974 0
M  V30 18082 H 1701.49 -2.11092 3.25671 0
M  V30 18083 H 1699.59 -3.51678 1.23099 0
M  V30 18084 H 1699.7 -3.64358 3.11095 0
M  V30 18085 H 1698.07 -1.99844 1.57907 0
M  V30 18086 H 1698.85 -1.39385 3.1373 0
M  V30 18087 N 1701.29 -1.18689 -1.03686 0
M  V30 18088 C 1702.2 -0.932473 -2.15272 0
M  V30 18089 C 1703.22 0.104751 -1.73684 0
M  V30 18090 O 1704.4 -0.0780471 -2.01249 0
M  V30 18091 C 1701.46 -0.465807 -3.43557 0
M  V30 18092 C 1700.52 -1.57146 -3.99504 0
M  V30 18093 C 1699.75 -1.12696 -5.21666 0
M  V30 18094 O 1699.98 0.0127657 -5.70399 0
M  V30 18095 O 1698.91 -1.92627 -5.70244 0
M  V30 18096 H 1702.74 -1.86626 -2.39592 0
M  V30 18097 H 1700.32 -0.969029 -1.13711 0
M  V30 18098 H 1702.2 -0.213819 -4.20857 0
M  V30 18099 H 1700.88 0.43964 -3.20701 0
M  V30 18100 H 1699.79 -1.8775 -3.23575 0
M  V30 18101 H 1701.12 -2.45317 -4.26709 0
M  V30 18102 N 1702.77 1.22662 -0.989529 0
M  V30 18103 C 1703.7 2.26762 -0.556891 0
M  V30 18104 C 1704.68 1.64971 0.414538 0
M  V30 18105 O 1705.87 1.91775 0.305909 0
M  V30 18106 C 1703 3.47047 0.132573 0
M  V30 18107 C 1701.95 4.21251 -0.757058 0
M  V30 18108 C 1701.28 5.3466 0.065134 0
M  V30 18109 C 1702.58 4.8029 -2.05229 0
M  V30 18110 H 1704.27 2.63204 -1.42703 0
M  V30 18111 H 1701.82 1.26522 -0.687614 0
M  V30 18112 H 1703.77 4.19027 0.446609 0
M  V30 18113 H 1702.49 3.09692 1.03723 0
M  V30 18114 H 1701.15 3.51101 -1.05469 0
M  V30 18115 H 1700.8 4.93547 0.970607 0
M  V30 18116 H 1700.5 5.85231 -0.527063 0
M  V30 18117 H 1702.03 6.09458 0.373342 0
M  V30 18118 H 1703.44 5.44229 -1.80242 0
M  V30 18119 H 1701.84 5.41186 -2.59302 0
M  V30 18120 H 1702.91 4.00529 -2.73322 0
M  V30 18121 N 1704.25 0.762308 1.37937 0
M  V30 18122 C 1705.47 0.332217 2.04722 0
M  V30 18123 C 1705.9 -1.03417 1.57119 0
M  V30 18124 O 1705.26 -1.6608 0.727117 0
M  V30 18125 C 1705.31 0.373899 3.58656 0
M  V30 18126 O 1704.41 -0.629024 4.07575 0
M  V30 18127 H 1703.75 0.145471 0.647869 0
M  V30 18128 H 1706.28 1.03586 1.7644 0
M  V30 18129 H 1706.29 0.22785 4.07363 0
M  V30 18130 H 1704.97 1.37079 3.92661 0
M  V30 18131 H 1703.54 -0.446871 3.70213 0
M  V30 18132 N 1705.73 -1.49049 0.51208 0
M  V30 18133 C 1706.64 -2.33102 -0.264695 0
M  V30 18134 C 1707.65 -1.45347 -0.956571 0
M  V30 18135 O 1708.83 -1.78355 -0.935501 0
M  V30 18136 C 1705.89 -3.21051 -1.30871 0
M  V30 18137 C 1704.96 -4.24666 -0.629094 0
M  V30 18138 C 1704.19 -5.08412 -1.62337 0
M  V30 18139 O 1704.41 -4.93847 -2.85432 0
M  V30 18140 O 1703.35 -5.90368 -1.17259 0
M  V30 18141 H 1707.17 -3.00732 0.423585 0
M  V30 18142 H 1704.76 -1.4688 0.273246 0
M  V30 18143 H 1706.64 -3.75503 -1.91248 0
M  V30 18144 H 1705.31 -2.56103 -1.97972 0
M  V30 18145 H 1704.22 -3.74097 0.0147056 0
M  V30 18146 H 1705.55 -4.922 -0.000339859 0
M  V30 18147 N 1707.21 -0.246397 -1.55662 0
M  V30 18148 C 1708.14 0.693998 -2.17391 0
M  V30 18149 C 1709.12 1.17321 -1.12581 0
M  V30 18150 O 1710.3 1.25144 -1.40965 0
M  V30 18151 C 1707.43 1.94311 -2.77418 0
M  V30 18152 C 1706.47 1.60181 -3.95277 0
M  V30 18153 S 1707.31 0.704877 -5.30841 0
M  V30 18154 C 1708.46 1.96301 -5.94321 0
M  V30 18155 H 1708.7 0.169407 -2.96817 0
M  V30 18156 H 1706.23 -0.0308583 -1.54369 0
M  V30 18157 H 1708.19 2.66022 -3.12638 0
M  V30 18158 H 1706.85 2.43883 -1.97939 0
M  V30 18159 H 1706.04 2.53053 -4.35867 0
M  V30 18160 H 1705.64 0.965141 -3.61332 0
M  V30 18161 H 1707.93 2.91031 -6.11806 0
M  V30 18162 H 1708.88 1.6006 -6.89773 0
M  V30 18163 H 1709.29 2.11487 -5.23387 0
M  V30 18164 N 1708.68 1.57577 0.026722 0
M  V30 18165 C 1709.61 2.09748 1.02605 0
M  V30 18166 C 1710.59 1.00054 1.37562 0
M  V30 18167 O 1711.78 1.2759 1.46405 0
M  V30 18168 C 1708.91 2.57881 2.32626 0
M  V30 18169 C 1707.86 3.7186 2.11905 0
M  V30 18170 C 1707.19 4.06208 3.47706 0
M  V30 18171 C 1708.49 5.00198 1.50332 0
M  V30 18172 H 1710.18 2.93494 0.591753 0
M  V30 18173 H 1707.73 1.41188 0.283199 0
M  V30 18174 H 1709.68 2.93 3.02868 0
M  V30 18175 H 1708.41 1.71222 2.7812 0
M  V30 18176 H 1707.07 3.37094 1.44096 0
M  V30 18177 H 1706.71 3.16611 3.90853 0
M  V30 18178 H 1706.41 4.82982 3.34667 0
M  V30 18179 H 1707.94 4.43863 4.19306 0
M  V30 18180 H 1709.35 5.33259 2.10494 0
M  V30 18181 H 1707.75 5.81599 1.4786 0
M  V30 18182 H 1708.82 4.82623 0.469405 0
M  V30 18183 N 1710.16 -0.299034 1.54737 0
M  V30 18184 C 1711.07 -1.39141 1.88884 0
M  V30 18185 C 1712.09 -1.55377 0.783203 0
M  V30 18186 O 1713.26 -1.70003 1.07985 0
M  V30 18187 C 1710.33 -2.73487 2.13087 0
M  V30 18188 C 1709.39 -2.66219 3.36788 0
M  V30 18189 C 1708.62 -3.94158 3.59827 0
M  V30 18190 O 1708.85 -4.9361 2.85841 0
M  V30 18191 O 1707.78 -3.95933 4.53344 0
M  V30 18192 H 1711.61 -1.13184 2.81821 0
M  V30 18193 H 1709.19 -0.495271 1.40952 0
M  V30 18194 H 1711.07 -3.5297 2.30195 0
M  V30 18195 H 1709.75 -2.99283 1.23335 0
M  V30 18196 H 1708.65 -1.85201 3.25041 0
M  V30 18197 H 1709.99 -2.45376 4.26675 0
M  V30 18198 N 1711.64 -1.47227 -0.562322 0
M  V30 18199 C 1712.87 -1.56968 -1.34331 0
M  V30 18200 C 1713.28 -0.217012 -1.87951 0
M  V30 18201 O 1712.62 0.79911 -1.65408 0
M  V30 18202 C 1712.68 -2.53072 -2.55332 0
M  V30 18203 C 1712.35 -3.98879 -2.23035 0
M  V30 18204 C 1713.34 -4.87511 -1.80636 0
M  V30 18205 C 1711.03 -4.44174 -2.34551 0
M  V30 18206 C 1713.02 -6.19456 -1.50176 0
M  V30 18207 C 1710.71 -5.76149 -2.03704 0
M  V30 18208 C 1711.71 -6.63611 -1.61584 0
M  V30 18209 O 1711.4 -7.93134 -1.31125 0
M  V30 18210 H 1711.13 -0.532854 -0.415984 0
M  V30 18211 H 1713.68 -1.93515 -0.688552 0
M  V30 18212 H 1711.91 -2.11582 -3.23682 0
M  V30 18213 H 1713.6 -2.52996 -3.17408 0
M  V30 18214 H 1714.37 -4.53766 -1.71236 0
M  V30 18215 H 1710.25 -3.76308 -2.66295 0
M  V30 18216 H 1713.79 -6.8768 -1.17227 0
M  V30 18217 H 1709.69 -6.09438 -2.12735 0
M  V30 18218 H 1710.45 -8.0559 -1.44799 0
M  V30 18219 N 1713.12 0.808639 -1.35273 0
M  V30 18220 C 1714.39 1.55238 -1.18998 0
M  V30 18221 C 1714.77 2.09824 0.231723 0
M  V30 18222 O 1714.12 1.92252 1.23497 0
M  V30 18223 C 1714.33 2.66252 -2.25634 0
M  V30 18224 C 1715.68 3.34646 -2.61338 0
M  V30 18225 O 1716.7 2.76521 -2.24532 0
M  V30 18226 O 1715.56 4.39644 -3.24615 0
M  V30 18227 H 1712.66 0.6858 -0.462176 0
M  V30 18228 H 1715.2 0.848777 -1.46949 0
M  V30 18229 H 1713.98 2.23774 -3.21 0
M  V30 18230 H 1713.6 3.4425 -1.98941 0
M  V30 18231 N 1714.6 1.19237 1.03055 0
M  V30 18232 C 1716.01 0.944224 1.28672 0
M  V30 18233 C 1716.21 -0.384378 1.978 0
M  V30 18234 O 1715.27 -1.11629 2.26484 0
M  V30 18235 C 1716.58 2.11704 2.13546 0
M  V30 18236 C 1718.13 2.15647 2.2686 0
M  V30 18237 C 1718.6 3.32375 3.15105 0
M  V30 18238 N 1720.1 3.323 3.22693 0
M  V30 18239 C 1720.83 4.19265 3.91158 0
M  V30 18240 N 1720.33 5.16381 4.61868 0
M  V30 18241 N 1722.12 4.07147 3.87541 0
M  V30 18242 H 1714.27 2.0472 0.565987 0
M  V30 18243 H 1716.53 0.895073 0.312328 0
M  V30 18244 H 1716.24 3.07845 1.70072 0
M  V30 18245 H 1716.11 2.08624 3.14254 0
M  V30 18246 H 1718.5 1.20078 2.69565 0
M  V30 18247 H 1718.58 2.22781 1.25708 0
M  V30 18248 H 1718.23 4.28222 2.73108 0
M  V30 18249 H 1718.16 3.22478 4.16312 0
M  V30 18250 H 1720.65 2.62 2.72331 0
M  V30 18251 H 1720.96 5.7909 5.11737 0
M  V30 18252 H 1719.3 5.20331 4.60739 0
M  V30 18253 H 1722.5 3.30555 3.31438 0
M  V30 18254 H 1722.67 4.75135 4.40625 0
M  V30 18255 N 1716.07 -1.22136 0.99602 0
M  V30 18256 C 1717.3 -1.95519 0.69189 0
M  V30 18257 C 1717.72 -1.7304 -0.73748 0
M  V30 18258 O 1717.08 -1.01157 -1.50456 0
M  V30 18259 C 1717.13 -3.46244 1.00735 0
M  V30 18260 O 1716.23 -4.12259 0.107713 0
M  V30 18261 H 1715.58 -0.611553 0.258648 0
M  V30 18262 H 1718.11 -1.55145 1.33384 0
M  V30 18263 H 1718.12 -3.96774 0.950482 0
M  V30 18264 H 1716.79 -3.6193 2.04889 0
M  V30 18265 H 1715.37 -3.72248 0.220336 0
M  V30 18266 N 1717.55 -0.769612 -1.37531 0
M  V30 18267 C 1718.5 -0.128018 -2.2764 0
M  V30 18268 C 1719.49 0.67633 -1.45995 0
M  V30 18269 O 1720.68 0.539654 -1.68573 0
M  V30 18270 C 1717.81 0.751936 -3.34964 0
M  V30 18271 C 1716.89 -0.0601264 -4.24057 0
M  V30 18272 N 1717.28 -1.10468 -4.93589 0
M  V30 18273 C 1715.58 0.164189 -4.45698 0
M  V30 18274 C 1716.28 -1.59737 -5.59338 0
M  V30 18275 N 1715.26 -0.909912 -5.35931 0
M  V30 18276 H 1719.06 -0.927797 -2.78871 0
M  V30 18277 H 1716.58 -0.607165 -1.50623 0
M  V30 18278 H 1718.57 1.22733 -3.98425 0
M  V30 18279 H 1717.23 1.55049 -2.85289 0
M  V30 18280 H 1718.24 -1.48679 -4.961 0
M  V30 18281 H 1714.92 0.934815 -4.069 0
M  V30 18282 H 1716.31 -2.46835 -6.24918 0
M  V30 18283 N 1719.03 1.48775 -0.519977 0
M  V30 18284 C 1719.98 2.29461 0.248242 0
M  V30 18285 C 1720.95 1.36734 0.943027 0
M  V30 18286 O 1722.13 1.65697 0.946003 0
M  V30 18287 C 1719.27 3.19868 1.29531 0
M  V30 18288 C 1718.39 4.27666 0.610379 0
M  V30 18289 C 1717.52 5.05266 1.63951 0
M  V30 18290 C 1716.56 6.04878 0.937496 0
M  V30 18291 N 1715.7 6.75573 1.91171 0
M  V30 18292 H 1720.54 2.94643 -0.446016 0
M  V30 18293 H 1718.07 1.45262 -0.231792 0
M  V30 18294 H 1720.03 3.70675 1.91456 0
M  V30 18295 H 1718.66 2.5663 1.95808 0
M  V30 18296 H 1717.71 3.80202 -0.122598 0
M  V30 18297 H 1719.03 4.98765 0.0586864 0
M  V30 18298 H 1718.18 5.60037 2.33332 0
M  V30 18299 H 1716.92 4.33983 2.22509 0
M  V30 18300 H 1715.92 5.49321 0.229562 0
M  V30 18301 H 1717.15 6.78155 0.358166 0
M  V30 18302 H 1715.09 6.07048 2.48655 0
M  V30 18303 H 1715.01 7.42712 1.41118 0
M  V30 18304 H 1716.28 7.34938 2.59781 0
M  V30 18305 N 1720.51 0.254649 1.55529 0
M  V30 18306 C 1721.73 -0.374795 2.03985 0
M  V30 18307 C 1722.16 -1.50188 1.13249 0
M  V30 18308 O 1721.52 -1.80855 0.126963 0
M  V30 18309 C 1721.56 -0.852635 3.50375 0
M  V30 18310 O 1720.67 -1.9616 3.6276 0
M  V30 18311 H 1720.01 -0.0806157 0.659088 0
M  V30 18312 H 1722.54 0.38297 2.00984 0
M  V30 18313 H 1722.55 -1.15381 3.91345 0
M  V30 18314 H 1721.22 -0.0279044 4.15891 0
M  V30 18315 H 1719.8 -1.66453 3.33688 0
M  V30 18316 N 1721.99 -1.57589 -0.0183649 0
M  V30 18317 C 1723.23 -1.89757 -0.707008 0
M  V30 18318 C 1723.56 -0.853257 -1.74785 0
M  V30 18319 O 1722.82 0.144406 -1.95166 0
M  V30 18320 C 1723.12 -3.28677 -1.4038 0
M  V30 18321 C 1722.78 -4.48142 -0.497917 0
M  V30 18322 C 1721.44 -4.80558 -0.248444 0
M  V30 18323 C 1723.8 -5.21046 0.126883 0
M  V30 18324 C 1721.12 -5.8326 0.634428 0
M  V30 18325 C 1723.48 -6.24686 0.997521 0
M  V30 18326 C 1722.14 -6.5557 1.25635 0
M  V30 18327 H 1721.41 -0.694369 -0.258713 0
M  V30 18328 H 1724.06 -1.91471 0.0332176 0
M  V30 18329 H 1722.36 -3.23 -2.21761 0
M  V30 18330 H 1724.06 -3.50818 -1.94236 0
M  V30 18331 H 1720.65 -4.22803 -0.702519 0
M  V30 18332 H 1724.83 -4.96272 -0.0528705 0
M  V30 18333 H 1720.09 -6.05558 0.843157 0
M  V30 18334 H 1724.26 -6.80315 1.48811 0
M  V30 18335 H 1721.89 -7.34972 1.94218 0
M  V30 18336 N 1723.46 0.290824 -1.54893 0
M  V30 18337 C 1724.88 0.86313 -1.6555 0
M  V30 18338 C 1725.23 1.87713 -0.570806 0
M  V30 18339 O 1724.35 2.14437 0.290826 0
M  V30 18340 C 1724.95 1.57231 -3.00107 0
M  V30 18341 C 1723.51 2.09288 -3.1285 0
M  V30 18342 C 1722.65 0.928933 -2.61278 0
M  V30 18343 H 1725.6 0.0675807 -1.58556 0
M  V30 18344 H 1725.62 2.43841 -2.92099 0
M  V30 18345 H 1725.14 0.834055 -3.79032 0
M  V30 18346 H 1723.24 2.86129 -2.38665 0
M  V30 18347 H 1723.35 2.32042 -4.19158 0
M  V30 18348 H 1721.71 1.31735 -2.17986 0
M  V30 18349 H 1722.5 0.204475 -3.42691 0
M  V30 18350 N 1724.94 1.47523 0.554506 0
M  V30 18351 C 1726.17 1.57907 1.3369 0
M  V30 18352 C 1726.59 0.230244 1.87391 0
M  V30 18353 O 1725.94 -0.776917 1.65137 0
M  V30 18354 C 1725.99 2.60644 2.50493 0
M  V30 18355 O 1725.71 3.9029 1.99011 0
M  V30 18356 C 1727.22 2.81238 3.42666 0
M  V30 18357 H 1724.44 0.533139 0.407436 0
M  V30 18358 H 1726.98 1.93163 0.671445 0
M  V30 18359 H 1725.13 2.28315 3.12971 0
M  V30 18360 H 1725.55 4.46451 2.75285 0
M  V30 18361 H 1727.02 3.56981 4.21033 0
M  V30 18362 H 1727.5 1.89159 3.96378 0
M  V30 18363 H 1728.11 3.14775 2.86001 0
M  V30 18364 N 1726.42 -0.801453 1.357 0
M  V30 18365 C 1727.7 -1.54605 1.19819 0
M  V30 18366 C 1728.08 -2.09944 -0.220593 0
M  V30 18367 O 1727.43 -1.92904 -1.22475 0
M  V30 18368 C 1727.64 -2.65052 2.27043 0
M  V30 18369 C 1728.98 -3.33255 2.63109 0
M  V30 18370 O 1730.01 -2.75326 2.25995 0
M  V30 18371 O 1728.87 -4.37917 3.26942 0
M  V30 18372 H 1725.96 -0.68334 0.465807 0
M  V30 18373 H 1728.51 -0.840972 1.47397 0
M  V30 18374 H 1727.28 -2.22068 3.22182 0
M  V30 18375 H 1726.9 -3.4319 2.00764 0
M  V30 18376 N 1727.9 -1.19782 -1.02421 0
M  V30 18377 C 1729.15 -0.997598 -1.75302 0
M  V30 18378 C 1729.46 0.471843 -1.89824 0
M  V30 18379 O 1730.67 0.790999 -2.59722 0
M  V30 18380 C 1729.12 -1.73608 -3.15259 0
M  V30 18381 C 1728.73 -3.24594 -3.08776 0
M  V30 18382 C 1730.47 -1.61927 -3.92403 0
M  V30 18383 C 1728.38 -3.91012 -4.43693 0
M  V30 18384 H 1727.31 -0.369643 -0.657176 0
M  V30 18385 H 1729.96 -1.43325 -1.14587 0
M  V30 18386 H 1728.34 -1.22826 -3.7647 0
M  V30 18387 H 1729.52 -3.82531 -2.56918 0
M  V30 18388 H 1727.83 -3.36603 -2.45127 0
M  V30 18389 H 1730.43 -2.08896 -4.92206 0
M  V30 18390 H 1730.77 -0.574192 -4.12321 0
M  V30 18391 H 1731.31 -2.10081 -3.37803 0
M  V30 18392 H 1728.05 -4.95639 -4.28979 0
M  V30 18393 H 1727.57 -3.37864 -4.95588 0
M  V30 18394 H 1729.24 -3.94828 -5.12562 0
M  V30 18395 N 1729.38 1.21606 -1.00248 0
M  V30 18396 C 1730.6 1.95149 -0.702249 0
M  V30 18397 C 1731.03 1.73429 0.728293 0
M  V30 18398 O 1730.39 1.01953 1.49917 0
M  V30 18399 C 1730.43 3.45705 -1.0257 0
M  V30 18400 O 1729.54 4.12196 -0.129575 0
M  V30 18401 H 1728.88 0.610173 -0.261888 0
M  V30 18402 H 1731.41 1.54435 -1.34205 0
M  V30 18403 H 1731.42 3.96265 -0.97151 0
M  V30 18404 H 1730.09 3.60838 -2.06806 0
M  V30 18405 H 1728.67 3.72126 -0.240074 0
M  V30 18406 N 1730.86 0.776895 1.37121 0
M  V30 18407 C 1731.79 0.124809 2.2886 0
M  V30 18408 C 1732.8 -0.658655 1.48881 0
M  V30 18409 O 1733.99 -0.4959 1.71473 0
M  V30 18410 C 1731.09 -0.84672 3.28152 0
M  V30 18411 C 1730.26 -0.11598 4.37246 0
M  V30 18412 C 1729.32 -1.00162 5.16579 0
M  V30 18413 O 1728.35 -0.463491 5.6731 0
M  V30 18414 N 1729.55 -2.32733 5.31804 0
M  V30 18415 H 1732.31 0.91278 2.85462 0
M  V30 18416 H 1729.88 0.629695 1.49152 0
M  V30 18417 H 1731.87 -1.44275 3.78109 0
M  V30 18418 H 1730.44 -1.53563 2.72281 0
M  V30 18419 H 1729.66 0.661015 3.88618 0
M  V30 18420 H 1730.95 0.388757 5.07313 0
M  V30 18421 H 1730.34 -2.78882 4.9218 0
M  V30 18422 H 1728.9 -2.8733 5.85051 0
M  V30 18423 N 1732.33 -1.48497 0.527859 0
M  V30 18424 C 1733.27 -2.26435 -0.283291 0
M  V30 18425 C 1734.24 -1.32198 -0.946698 0
M  V30 18426 O 1735.43 -1.61536 -0.97151 0
M  V30 18427 C 1732.56 -3.08364 -1.40104 0
M  V30 18428 C 1731.6 -4.17959 -0.849258 0
M  V30 18429 S 1732.43 -5.34761 0.281209 0
M  V30 18430 C 1733.59 -6.2025 -0.839067 0
M  V30 18431 H 1733.82 -2.94885 0.378142 0
M  V30 18432 H 1731.36 -1.51182 0.313608 0
M  V30 18433 H 1733.31 -3.56145 -2.04134 0
M  V30 18434 H 1731.98 -2.39332 -2.03419 0
M  V30 18435 H 1731.17 -4.74902 -1.68772 0
M  V30 18436 H 1730.77 -3.72907 -0.285691 0
M  V30 18437 H 1733.06 -6.54823 -1.7382 0
M  V30 18438 H 1734.01 -7.07431 -0.307661 0
M  V30 18439 H 1734.41 -5.53308 -1.11851 0
M  V30 18440 N 1733.81 -0.262893 -1.55392 0
M  V30 18441 C 1735.04 0.363972 -2.04181 0
M  V30 18442 C 1735.46 1.49585 -1.14044 0
M  V30 18443 O 1734.82 1.80785 -0.136553 0
M  V30 18444 C 1734.87 0.834041 -3.50822 0
M  V30 18445 O 1733.97 1.94234 -3.63795 0
M  V30 18446 H 1733.31 0.0771193 -0.659506 0
M  V30 18447 H 1735.84 -0.393623 -2.00778 0
M  V30 18448 H 1735.85 1.13304 -3.91952 0
M  V30 18449 H 1734.53 0.00584833 -4.159 0
M  V30 18450 H 1733.1 1.64681 -3.34566 0
M  V30 18451 N 1735.29 1.57597 0.0100073 0
M  V30 18452 C 1736.7 1.78287 0.554143 0
M  V30 18453 C 1737.05 0.896332 1.74529 0
M  V30 18454 O 1736.18 0.0961505 2.16186 0
M  V30 18455 C 1736.77 3.23331 1.01206 0
M  V30 18456 C 1735.33 3.45152 1.50157 0
M  V30 18457 C 1734.48 2.73654 0.448221 0
M  V30 18458 H 1737.43 1.57221 -0.216189 0
M  V30 18459 H 1737.45 3.30893 1.87856 0
M  V30 18460 H 1736.96 3.87829 0.144921 0
M  V30 18461 H 1735.06 2.85854 2.38994 0
M  V30 18462 H 1735.18 4.53813 1.53594 0
M  V30 18463 H 1733.54 2.3798 0.907603 0
M  V30 18464 H 1734.32 3.40846 -0.40978 0
M  V30 18465 N 1736.77 -0.282606 1.55045 0
M  V30 18466 C 1737.99 -1.03825 1.79542 0
M  V30 18467 C 1738.42 -1.79503 0.562165 0
M  V30 18468 O 1737.78 -1.7461 -0.487946 0
M  V30 18469 C 1737.82 -1.98007 3.01373 0
M  V30 18470 O 1736.93 -3.06621 2.75785 0
M  V30 18471 H 1736.27 -0.297333 0.593708 0
M  V30 18472 H 1738.8 -0.314434 2.02169 0
M  V30 18473 H 1738.81 -2.40138 3.29845 0
M  V30 18474 H 1737.48 -1.42335 3.90786 0
M  V30 18475 H 1736.06 -2.68874 2.58382 0
M  V30 18476 N 1738.25 -1.47815 -0.546675 0
M  V30 18477 C 1739.47 -1.58864 -1.33331 0
M  V30 18478 C 1739.9 -0.24302 -1.86524 0
M  V30 18479 O 1739.25 0.782777 -1.63531 0
M  V30 18480 C 1739.3 -2.62556 -2.47177 0
M  V30 18481 O 1738.41 -2.18558 -3.49723 0
M  V30 18482 H 1737.75 -0.53329 -0.395598 0
M  V30 18483 H 1740.28 -1.93677 -0.659579 0
M  V30 18484 H 1740.29 -2.83307 -2.936 0
M  V30 18485 H 1738.96 -3.60255 -2.0782 0
M  V30 18486 H 1737.54 -2.0795 -3.09534 0
M  V30 18487 N 1739.72 0.794246 -1.36123 0
M  V30 18488 C 1740.63 1.93807 -1.32197 0
M  V30 18489 C 1741.65 1.7254 -0.2249 0
M  V30 18490 O 1742.83 1.9616 -0.456431 0
M  V30 18491 C 1739.89 3.28593 -1.10578 0
M  V30 18492 C 1738.95 3.6267 -2.29715 0
M  V30 18493 C 1738.18 4.91025 -2.09118 0
M  V30 18494 O 1738.41 5.6039 -1.06389 0
M  V30 18495 O 1737.34 5.23647 -2.96779 0
M  V30 18496 H 1741.17 2.00068 -2.28487 0
M  V30 18497 H 1738.75 0.933808 -1.16621 0
M  V30 18498 H 1740.63 4.0926 -1.0042 0
M  V30 18499 H 1739.31 3.23235 -0.17347 0
M  V30 18500 H 1738.22 2.82329 -2.4544 0
M  V30 18501 H 1739.55 3.72747 -3.21435 0
M  V30 18502 N 1741.2 1.20323 1.01785 0
M  V30 18503 C 1742.15 0.918588 2.08677 0
M  V30 18504 C 1743.14 -0.121089 1.60444 0
M  V30 18505 O 1744.33 0.086115 1.7679 0
M  V30 18506 C 1741.46 0.471136 3.40052 0
M  V30 18507 C 1740.54 1.54417 3.94989 0
M  V30 18508 N 1740.93 2.76628 4.23451 0
M  V30 18509 C 1739.23 1.41004 4.23124 0
M  V30 18510 C 1739.93 3.45834 4.67733 0
M  V30 18511 N 1738.91 2.73245 4.69934 0
M  V30 18512 H 1742.71 1.84727 2.28589 0
M  V30 18513 H 1740.22 1.09705 1.19744 0
M  V30 18514 H 1742.22 0.248624 4.16158 0
M  V30 18515 H 1740.88 -0.450936 3.21553 0
M  V30 18516 H 1741.89 3.13291 4.12395 0
M  V30 18517 H 1738.57 0.552281 4.13831 0
M  V30 18518 H 1739.96 4.50404 4.98584 0
M  V30 18519 N 1742.68 -1.21073 1.00892 0
M  V30 18520 C 1743.59 -2.27265 0.582065 0
M  V30 18521 C 1744.61 -1.69872 -0.376785 0
M  V30 18522 O 1745.78 -1.99969 -0.239644 0
M  V30 18523 C 1742.85 -3.46606 -0.0806764 0
M  V30 18524 C 1741.91 -4.19257 0.923147 0
M  V30 18525 C 1741.14 -5.32901 0.291938 0
M  V30 18526 O 1741.36 -5.6309 -0.910282 0
M  V30 18527 O 1740.3 -5.93453 1.00483 0
M  V30 18528 H 1744.12 -2.65977 1.46594 0
M  V30 18529 H 1741.71 -1.27544 0.777999 0
M  V30 18530 H 1743.59 -4.18978 -0.451177 0
M  V30 18531 H 1742.27 -3.09785 -0.93887 0
M  V30 18532 H 1741.17 -3.4909 1.34488 0
M  V30 18533 H 1742.51 -4.59999 1.75106 0
M  V30 18534 N 1744.16 -0.784156 -1.36707 0
M  V30 18535 C 1745.4 -0.354658 -1.99675 0
M  V30 18536 C 1745.74 1.06948 -1.62098 0
M  V30 18537 O 1745.01 1.73798 -0.873192 0
M  V30 18538 C 1745.3 -0.512421 -3.56435 0
M  V30 18539 C 1745.15 -1.97987 -4.03883 0
M  V30 18540 C 1746.47 0.075762 -4.40035 0
M  V30 18541 H 1743.59 -0.130338 -0.725383 0
M  V30 18542 H 1746.23 -0.989515 -1.62199 0
M  V30 18543 H 1744.38 0.0280323 -3.8849 0
M  V30 18544 H 1746.05 -2.58098 -3.82339 0
M  V30 18545 H 1744.29 -2.48433 -3.55617 0
M  V30 18546 H 1744.96 -2.04125 -5.12871 0
M  V30 18547 H 1747.44 -0.385522 -4.1431 0
M  V30 18548 H 1746.32 -0.0646832 -5.48862 0
M  V30 18549 H 1746.58 1.16735 -4.2641 0
M  V30 18550 N 1745.64 1.48215 -0.535727 0
M  V30 18551 C 1746.88 2.03397 -0.01188 0
M  V30 18552 C 1747.24 1.40493 1.31451 0
M  V30 18553 O 1746.53 0.543545 1.83728 0
M  V30 18554 C 1746.72 3.57036 0.161344 0
M  V30 18555 C 1746.55 4.34834 -1.1467 0
M  V30 18556 C 1745.32 4.75553 -1.70815 0
M  V30 18557 C 1747.52 4.71297 -2.05873 0
M  V30 18558 N 1745.5 5.3791 -2.95849 0
M  V30 18559 C 1746.87 5.33733 -3.15483 0
M  V30 18560 C 1748.93 4.53228 -2.06129 0
M  V30 18561 C 1747.63 5.80008 -4.25421 0
M  V30 18562 C 1749.66 5.00488 -3.15065 0
M  V30 18563 C 1749.02 5.62953 -4.23395 0
M  V30 18564 H 1745.12 0.780647 -0.0459869 0
M  V30 18565 H 1747.7 1.80967 -0.718276 0
M  V30 18566 H 1745.87 3.79278 0.836833 0
M  V30 18567 H 1747.61 3.98855 0.685316 0
M  V30 18568 H 1744.36 4.56839 -1.24881 0
M  V30 18569 H 1744.79 5.73649 -3.59522 0
M  V30 18570 H 1749.43 4.04309 -1.23669 0
M  V30 18571 H 1747.15 6.27929 -5.08656 0
M  V30 18572 H 1750.73 4.88292 -3.16325 0
M  V30 18573 H 1749.61 5.98858 -5.06299 0
M  V30 18574 N 1747.11 0.27113 1.5525 0
M  V30 18575 C 1748.05 -0.651235 2.19753 0
M  V30 18576 C 1749.06 -1.12051 1.18104 0
M  V30 18577 O 1750.25 -1.0431 1.44851 0
M  V30 18578 C 1747.35 -1.89985 2.8064 0
M  V30 18579 C 1746.52 -1.57805 4.07942 0
M  V30 18580 C 1745.58 -2.67872 4.52914 0
M  V30 18581 O 1744.61 -2.34228 5.18774 0
M  V30 18582 N 1745.81 -3.97854 4.22721 0
M  V30 18583 H 1748.57 -0.0991913 2.99536 0
M  V30 18584 H 1746.13 0.0920667 1.61638 0
M  V30 18585 H 1748.13 -2.62907 3.07672 0
M  V30 18586 H 1746.7 -2.36105 2.04874 0
M  V30 18587 H 1745.92 -0.682852 3.88241 0
M  V30 18588 H 1747.2 -1.33801 4.90892 0
M  V30 18589 H 1746.6 -4.28011 3.69897 0
M  V30 18590 H 1745.16 -4.67165 4.54533 0
M  V30 18591 N 1748.59 -1.576 -0.00164943 0
M  V30 18592 C 1749.82 -1.94775 -0.697872 0
M  V30 18593 C 1750.24 -0.873094 -1.67399 0
M  V30 18594 O 1749.59 0.148119 -1.81898 0
M  V30 18595 C 1749.64 -3.31963 -1.43117 0
M  V30 18596 O 1749.36 -4.35304 -0.494203 0
M  V30 18597 C 1750.87 -3.83588 -2.22206 0
M  V30 18598 H 1748.09 -0.6422 -0.194474 0
M  V30 18599 H 1750.63 -2.04441 0.04898 0
M  V30 18600 H 1748.78 -3.2361 -2.12967 0
M  V30 18601 H 1749.2 -5.14656 -1.0114 0
M  V30 18602 H 1750.67 -4.82012 -2.69014 0
M  V30 18603 H 1751.15 -3.16208 -3.0481 0
M  V30 18604 H 1751.76 -3.95111 -1.57376 0
M  V30 18605 N 1750.07 0.274379 -1.55193 0
M  V30 18606 C 1751.32 1.00766 -1.75995 0
M  V30 18607 C 1751.65 1.8599 -0.558679 0
M  V30 18608 O 1750.92 1.8937 0.443784 0
M  V30 18609 C 1751.21 1.89137 -3.0643 0
M  V30 18610 C 1751.06 1.06914 -4.36909 0
M  V30 18611 C 1752.38 2.87869 -3.32896 0
M  V30 18612 H 1749.5 0.364915 -0.640317 0
M  V30 18613 H 1752.14 0.280156 -1.87923 0
M  V30 18614 H 1750.29 2.51166 -2.96391 0
M  V30 18615 H 1751.96 0.469666 -4.58903 0
M  V30 18616 H 1750.21 0.372566 -4.32197 0
M  V30 18617 H 1750.88 1.72063 -5.24498 0
M  V30 18618 H 1753.35 2.35974 -3.42718 0
M  V30 18619 H 1752.23 3.46845 -4.25429 0
M  V30 18620 H 1752.49 3.62921 -2.52469 0
M  V30 18621 N 1751.55 1.48103 0.538828 0
M  V30 18622 C 1752.8 1.54925 1.29156 0
M  V30 18623 C 1753.11 0.224177 1.94311 0
M  V30 18624 O 1754.32 0.170559 2.70964 0
M  V30 18625 C 1752.77 2.73184 2.34304 0
M  V30 18626 C 1752.38 4.12297 1.75257 0
M  V30 18627 C 1754.12 2.89313 3.10642 0
M  V30 18628 C 1752.03 5.2183 2.78294 0
M  V30 18629 H 1750.96 0.576723 0.485702 0
M  V30 18630 H 1753.61 1.74418 0.570142 0
M  V30 18631 H 1751.99 2.47107 3.09441 0
M  V30 18632 H 1753.17 4.48355 1.06368 0
M  V30 18633 H 1751.48 4.0121 1.11442 0
M  V30 18634 H 1754.08 3.68313 3.87621 0
M  V30 18635 H 1754.42 1.98438 3.65962 0
M  V30 18636 H 1754.96 3.15248 2.42618 0
M  V30 18637 H 1751.7 6.14642 2.27805 0
M  V30 18638 H 1751.22 4.90269 3.45537 0
M  V30 18639 H 1752.89 5.49567 3.41446 0
M  V30 18640 N 1753.03 -0.787016 1.36542 0
M  V30 18641 C 1754.25 -1.58103 1.34231 0
M  V30 18642 C 1754.68 -1.87956 -0.0734932 0
M  V30 18643 O 1754.03 -1.48073 -1.04615 0
M  V30 18644 C 1754.08 -2.87739 2.17345 0
M  V30 18645 O 1753.19 -3.81445 1.56759 0
M  V30 18646 H 1752.53 -0.479495 0.459326 0
M  V30 18647 H 1755.06 -0.975294 1.79859 0
M  V30 18648 H 1755.07 -3.36986 2.3001 0
M  V30 18649 H 1753.74 -2.65338 3.20264 0
M  V30 18650 H 1752.32 -3.40046 1.53047 0
M  V30 18651 N 1754.5 -1.20861 -1.01145 0
M  V30 18652 C 1755.92 -1.02156 -1.56272 0
M  V30 18653 C 1756.27 0.420552 -1.9164 0
M  V30 18654 O 1755.39 1.30277 -1.72792 0
M  V30 18655 C 1755.99 -1.84812 -2.83954 0
M  V30 18656 C 1754.55 -1.70458 -3.35591 0
M  V30 18657 C 1753.69 -1.82425 -2.08846 0
M  V30 18658 H 1756.64 -1.34978 -0.834669 0
M  V30 18659 H 1756.66 -1.35455 -3.55573 0
M  V30 18660 H 1756.18 -2.89765 -2.58181 0
M  V30 18661 H 1754.28 -0.681631 -3.66312 0
M  V30 18662 H 1754.39 -2.52041 -4.07446 0
M  V30 18663 H 1752.75 -1.25665 -2.21541 0
M  V30 18664 H 1753.54 -2.88872 -1.85493 0
M  V30 18665 N 1755.98 1.20536 -1.01532 0
M  V30 18666 C 1757.26 1.85545 -0.619063 0
M  V30 18667 C 1757.64 1.90816 0.902916 0
M  V30 18668 O 1756.99 1.41506 1.79411 0
M  V30 18669 C 1757.2 3.25252 -1.26539 0
M  V30 18670 C 1758.55 4.01547 -1.38003 0
M  V30 18671 O 1759.57 3.34601 -1.22151 0
M  V30 18672 O 1758.43 5.21436 -1.63605 0
M  V30 18673 H 1755.52 0.798985 -0.21343 0
M  V30 18674 H 1758.07 1.28136 -1.11262 0
M  V30 18675 H 1756.84 3.16174 -2.30542 0
M  V30 18676 H 1756.46 3.90292 -0.758833 0
M  V30 18677 N 1757.46 0.791395 1.36289 0
M  V30 18678 C 1758.39 0.205419 2.32595 0
M  V30 18679 C 1759.37 -0.660696 1.56744 0
M  V30 18680 O 1760.56 -0.594111 1.84889 0
M  V30 18681 C 1757.69 -0.659018 3.4099 0
M  V30 18682 C 1756.64 0.107364 4.27865 0
M  V30 18683 C 1755.97 -0.877795 5.27446 0
M  V30 18684 C 1757.27 1.29769 5.05922 0
M  V30 18685 H 1758.96 1.00999 2.8185 0
M  V30 18686 H 1756.51 0.487122 1.35511 0
M  V30 18687 H 1758.46 -1.07891 4.07354 0
M  V30 18688 H 1757.18 -1.49632 2.90307 0
M  V30 18689 H 1755.84 0.508253 3.6306 0
M  V30 18690 H 1755.49 -1.71018 4.73035 0
M  V30 18691 H 1755.19 -0.369429 5.86438 0
M  V30 18692 H 1756.71 -1.29621 5.96683 0
M  V30 18693 H 1758.13 0.953463 5.65316 0
M  V30 18694 H 1756.53 1.73949 5.74336 0
M  V30 18695 H 1757.6 2.09205 4.37449 0
M  V30 18696 N 1758.94 -1.47929 0.54358 0
M  V30 18697 C 1760.16 -2.07393 0.0168905 0
M  V30 18698 C 1760.59 -1.39557 -1.26117 0
M  V30 18699 O 1759.95 -0.465983 -1.75209 0
M  V30 18700 C 1760 -3.6017 -0.176105 0
M  V30 18701 O 1759.1 -3.9326 -1.24178 0
M  V30 18702 H 1758.44 -0.662459 0.0452126 0
M  V30 18703 H 1760.97 -1.90145 0.755376 0
M  V30 18704 H 1760.98 -4.06088 -0.394555 0
M  V30 18705 H 1759.66 -4.08944 0.757445 0
M  V30 18706 H 1758.23 -3.59105 -1.0049 0
M  V30 18707 N 1760.42 -0.27936 -1.55104 0
M  V30 18708 C 1761.35 0.639572 -2.20096 0
M  V30 18709 C 1762.36 1.11423 -1.18696 0
M  V30 18710 O 1763.55 1.0354 -1.45402 0
M  V30 18711 C 1760.65 1.88494 -2.81644 0
M  V30 18712 C 1759.82 1.55639 -4.08773 0
M  V30 18713 C 1758.88 2.65466 -4.54328 0
M  V30 18714 O 1757.91 2.31473 -5.20008 0
M  V30 18715 N 1759.11 3.95606 -4.24825 0
M  V30 18716 H 1761.88 0.0833048 -2.99584 0
M  V30 18717 H 1759.44 -0.100637 -1.61587 0
M  V30 18718 H 1761.43 2.61272 -3.09062 0
M  V30 18719 H 1760 2.35015 -2.06123 0
M  V30 18720 H 1759.22 0.662253 -3.88597 0
M  V30 18721 H 1760.51 1.31196 -4.91594 0
M  V30 18722 H 1759.91 4.26043 -3.72161 0
M  V30 18723 H 1758.46 4.64748 -4.57004 0
M  V30 18724 N 1761.9 1.57599 -0.0067085 0
M  V30 18725 C 1763.14 1.9114 0.677733 0
M  V30 18726 C 1763.47 0.881328 1.7305 0
M  V30 18727 O 1762.75 -0.099049 1.94248 0
M  V30 18728 C 1763.03 3.35241 1.31474 0
M  V30 18729 C 1762.89 4.4897 0.273055 0
M  V30 18730 C 1764.2 3.78886 2.23905 0
M  V30 18731 H 1761.32 0.695119 0.244907 0
M  V30 18732 H 1763.97 1.89907 -0.059378 0
M  V30 18733 H 1762.12 3.36423 1.94299 0
M  V30 18734 H 1763.79 4.59924 -0.356031 0
M  V30 18735 H 1762.03 4.31915 -0.403961 0
M  V30 18736 H 1762.7 5.46772 0.757941 0
M  V30 18737 H 1765.18 3.79299 1.7109 0
M  V30 18738 H 1764.05 4.80451 2.65439 0
M  V30 18739 H 1764.31 3.13129 3.12094 0
M  V30 18740 N 1763.37 -0.266145 1.55336 0
M  V30 18741 C 1764.6 -1.01489 1.80299 0
M  V30 18742 C 1765.02 -1.79679 0.579742 0
M  V30 18743 O 1764.37 -1.76831 -0.451319 0
M  V30 18744 C 1764.42 -1.96805 3.03233 0
M  V30 18745 O 1764.15 -1.21782 4.20834 0
M  V30 18746 C 1765.65 -2.83436 3.40851 0
M  V30 18747 H 1762.87 -0.299504 0.600449 0
M  V30 18748 H 1765.41 -0.294854 2.02363 0
M  V30 18749 H 1763.57 -2.64262 2.83275 0
M  V30 18750 H 1763.98 -1.86086 4.9038 0
M  V30 18751 H 1765.45 -3.461 4.30022 0
M  V30 18752 H 1765.93 -3.53559 2.60562 0
M  V30 18753 H 1766.54 -2.2146 3.63092 0
M  V30 18754 N 1764.85 -1.48386 -0.530967 0
M  V30 18755 C 1765.78 -1.6573 -1.64486 0
M  V30 18756 C 1766.76 -0.506198 -1.62393 0
M  V30 18757 O 1767.95 -0.738623 -1.79605 0
M  V30 18758 C 1765.08 -1.69594 -3.03076 0
M  V30 18759 C 1764.03 -2.84195 -3.20027 0
M  V30 18760 C 1763.36 -2.73148 -4.59668 0
M  V30 18761 C 1764.66 -4.25504 -3.02892 0
M  V30 18762 H 1766.35 -2.58983 -1.50227 0
M  V30 18763 H 1763.9 -1.24633 -0.721286 0
M  V30 18764 H 1765.85 -1.80316 -3.80873 0
M  V30 18765 H 1764.57 -0.729193 -3.18356 0
M  V30 18766 H 1763.23 -2.73027 -2.44647 0
M  V30 18767 H 1762.88 -1.74444 -4.71782 0
M  V30 18768 H 1762.58 -3.50047 -4.71954 0
M  V30 18769 H 1764.11 -2.85836 -5.39565 0
M  V30 18770 H 1765.52 -4.37511 -3.70482 0
M  V30 18771 H 1763.92 -5.03393 -3.26673 0
M  V30 18772 H 1764.99 -4.42036 -1.99329 0
M  V30 18773 N 1766.33 0.779763 -1.36958 0
M  V30 18774 C 1767.55 1.57389 -1.35068 0
M  V30 18775 C 1767.98 1.87993 0.0635244 0
M  V30 18776 O 1767.34 1.48625 1.03828 0
M  V30 18777 C 1767.39 2.86582 -2.18868 0
M  V30 18778 O 1766.49 3.80609 -1.58779 0
M  V30 18779 H 1765.83 0.477052 -0.461863 0
M  V30 18780 H 1768.36 0.965741 -1.80373 0
M  V30 18781 H 1768.37 3.35761 -2.31794 0
M  V30 18782 H 1767.05 2.63635 -3.21666 0
M  V30 18783 H 1765.62 3.39229 -1.54848 0
M  V30 18784 N 1767.81 1.21396 1.00503 0
M  V30 18785 C 1769.22 1.02983 1.55728 0
M  V30 18786 C 1769.57 -0.410383 1.9186 0
M  V30 18787 O 1768.69 -1.29358 1.7348 0
M  V30 18788 C 1769.29 1.86316 2.8297 0
M  V30 18789 C 1767.85 1.72235 3.34682 0
M  V30 18790 C 1767 1.8353 2.07875 0
M  V30 18791 H 1769.95 1.35418 0.827499 0
M  V30 18792 H 1769.97 1.37339 3.5485 0
M  V30 18793 H 1769.48 2.91131 2.56641 0
M  V30 18794 H 1767.58 0.701047 3.65945 0
M  V30 18795 H 1767.69 2.54198 4.06103 0
M  V30 18796 H 1766.06 1.26838 2.20872 0
M  V30 18797 H 1766.84 2.89852 1.83958 0
M  V30 18798 N 1769.29 -1.19996 1.0217 0
M  V30 18799 C 1770.2 -2.26634 0.606136 0
M  V30 18800 C 1771.21 -1.70262 -0.358746 0
M  V30 18801 O 1772.39 -2.00212 -0.218422 0
M  V30 18802 C 1769.45 -3.46672 -0.0439096 0
M  V30 18803 C 1768.51 -4.18254 0.967563 0
M  V30 18804 C 1767.75 -5.32561 0.348443 0
M  V30 18805 O 1767.97 -5.64024 -0.850508 0
M  V30 18806 O 1766.9 -5.92354 1.06772 0
M  V30 18807 H 1770.73 -2.64407 1.49407 0
M  V30 18808 H 1768.31 -1.26712 0.791483 0
M  V30 18809 H 1770.2 -4.19433 -0.406714 0
M  V30 18810 H 1768.87 -3.10764 -0.90596 0
M  V30 18811 H 1767.78 -3.47644 1.38183 0
M  V30 18812 H 1769.11 -4.58116 1.79975 0
M  V30 18813 N 1770.76 -0.798611 -1.35867 0
M  V30 18814 C 1771.69 -0.217751 -2.32482 0
M  V30 18815 C 1772.67 0.652374 -1.57093 0
M  V30 18816 O 1773.86 0.584297 -1.85202 0
M  V30 18817 C 1770.99 0.640925 -3.41335 0
M  V30 18818 C 1769.94 -0.130053 -4.27802 0
M  V30 18819 C 1769.27 0.849811 -5.27904 0
M  V30 18820 C 1770.57 -1.32451 -5.05227 0
M  V30 18821 H 1772.26 -1.02492 -2.81311 0
M  V30 18822 H 1769.81 -0.494302 -1.3525 0
M  V30 18823 H 1771.76 1.05729 -4.07921 0
M  V30 18824 H 1770.49 1.4809 -2.91096 0
M  V30 18825 H 1769.15 -0.5275 -3.62785 0
M  V30 18826 H 1768.79 1.68507 -4.73935 0
M  V30 18827 H 1768.49 0.338323 -5.86625 0
M  V30 18828 H 1770.02 1.26455 -5.97362 0
M  V30 18829 H 1771.43 -0.983429 -5.64802 0
M  V30 18830 H 1769.83 -1.76992 -5.73405 0
M  V30 18831 H 1770.9 -2.11522 -4.36333 0
M  V30 18832 N 1772.24 1.47639 -0.551417 0
M  V30 18833 C 1773.47 2.07381 -0.0278888 0
M  V30 18834 C 1773.89 1.40223 1.25375 0
M  V30 18835 O 1773.25 0.475268 1.7496 0
M  V30 18836 C 1773.3 3.60258 0.157001 0
M  V30 18837 O 1772.4 3.93913 1.2209 0
M  V30 18838 H 1771.74 0.66221 -0.0487252 0
M  V30 18839 H 1774.27 1.89742 -0.765449 0
M  V30 18840 H 1774.28 4.06291 0.373013 0
M  V30 18841 H 1772.96 4.08537 -0.779122 0
M  V30 18842 H 1771.53 3.59633 0.985843 0
M  V30 18843 N 1773.72 0.287581 1.54954 0
M  V30 18844 C 1774.65 -0.62789 2.20432 0
M  V30 18845 C 1775.67 -1.10792 1.19286 0
M  V30 18846 O 1776.85 -1.02768 1.45949 0
M  V30 18847 C 1773.95 -1.86998 2.82639 0
M  V30 18848 C 1773.13 -1.53469 4.09592 0
M  V30 18849 C 1772.19 -2.63053 4.5573 0
M  V30 18850 O 1771.21 -2.28712 5.21229 0
M  V30 18851 N 1772.41 -3.93348 4.26917 0
M  V30 18852 H 1775.18 -0.067416 2.99624 0
M  V30 18853 H 1772.74 0.109205 1.61531 0
M  V30 18854 H 1774.73 -2.59629 3.10443 0
M  V30 18855 H 1773.3 -2.33919 2.07366 0
M  V30 18856 H 1772.52 -0.641635 3.88943 0
M  V30 18857 H 1773.81 -1.28587 4.92283 0
M  V30 18858 H 1773.21 -4.24063 3.74415 0
M  V30 18859 H 1771.77 -4.62318 4.59462 0
M  V30 18860 N 1775.2 -1.57593 0.0150662 0
M  V30 18861 C 1776.43 -1.95504 -0.677174 0
M  V30 18862 C 1776.84 -0.8908 -1.66464 0
M  V30 18863 O 1776.2 0.128818 -1.82045 0
M  V30 18864 C 1776.25 -3.33463 -1.39589 0
M  V30 18865 O 1775.97 -4.35803 -0.448005 0
M  V30 18866 C 1777.47 -3.85923 -2.18125 0
M  V30 18867 H 1774.69 -0.644226 -0.187652 0
M  V30 18868 H 1777.24 -2.04378 0.070661 0
M  V30 18869 H 1775.39 -3.25851 -2.09523 0
M  V30 18870 H 1775.8 -5.157 -0.956756 0
M  V30 18871 H 1777.28 -4.84838 -2.63887 0
M  V30 18872 H 1777.76 -3.19423 -3.01439 0
M  V30 18873 H 1778.36 -3.96758 -1.53176 0
M  V30 18874 N 1776.68 0.257904 -1.55475 0
M  V30 18875 C 1777.62 1.33893 -1.90198 0
M  V30 18876 C 1778.62 1.50381 -0.779868 0
M  V30 18877 O 1779.82 1.51986 -0.964376 0
M  V30 18878 H 1776.2 0.448115 -0.603901 0
M  V30 18879 H 1778.17 1.01868 -2.80474 0
M  V30 18880 C 1776.92 2.68954 -2.20361 0
M  V30 18881 H 1776.24 2.57064 -3.062 0
M  V30 18882 H 1777.68 3.43498 -2.48567 0
M  V30 18883 C 1776.14 3.21208 -1.01623 0
M  V30 18884 O 1776.67 4.00867 -0.258567 0
M  V30 18885 N 1774.88 2.79088 -0.809825 0
M  V30 18886 H 1774.42 2.1442 -1.42764 0
M  V30 18887 H 1774.38 3.14395 -0.0170171 0
M  V30 18888 N 1778.15 1.48666 0.52309 0
M  V30 18889 C 1779.08 1.666 1.63605 0
M  V30 18890 C 1780.07 0.514803 1.62123 0
M  V30 18891 O 1781.25 0.748138 1.79211 0
M  V30 18892 C 1778.38 1.71199 3.02172 0
M  V30 18893 C 1777.33 2.85888 3.18515 0
M  V30 18894 C 1776.66 2.75582 4.58213 0
M  V30 18895 C 1777.96 4.27104 3.00631 0
M  V30 18896 H 1779.65 2.59776 1.48851 0
M  V30 18897 H 1777.2 1.25014 0.714667 0
M  V30 18898 H 1779.15 1.82333 3.79911 0
M  V30 18899 H 1777.88 0.746066 3.17964 0
M  V30 18900 H 1776.54 2.7432 2.43195 0
M  V30 18901 H 1776.18 1.76944 4.7085 0
M  V30 18902 H 1775.88 3.52545 4.70091 0
M  V30 18903 H 1777.41 2.88693 5.38041 0
M  V30 18904 H 1778.82 4.3947 3.68157 0
M  V30 18905 H 1777.22 5.05119 3.23999 0
M  V30 18906 H 1778.29 4.43087 1.96982 0
M  V30 18907 N 1779.63 -0.772489 1.37369 0
M  V30 18908 C 1780.86 -1.56671 1.35901 0
M  V30 18909 C 1781.28 -1.88024 -0.0535538 0
M  V30 18910 O 1780.64 -1.49174 -1.03038 0
M  V30 18911 C 1780.69 -2.85417 2.20384 0
M  V30 18912 O 1779.79 -3.79761 1.60796 0
M  V30 18913 H 1779.13 -0.474596 0.464386 0
M  V30 18914 H 1781.66 -0.956162 1.80883 0
M  V30 18915 H 1781.67 -3.34527 2.33571 0
M  V30 18916 H 1780.35 -2.61926 3.2306 0
M  V30 18917 H 1778.93 -3.38403 1.56645 0
M  V30 18918 N 1781.11 -1.21927 -0.998575 0
M  V30 18919 C 1782.52 -1.03808 -1.5518 0
M  V30 18920 C 1782.87 0.400202 -1.92075 0
M  V30 18921 O 1782 1.28436 -1.74164 0
M  V30 18922 C 1782.59 -1.87814 -2.81978 0
M  V30 18923 C 1781.15 -1.74008 -3.33764 0
M  V30 18924 C 1780.3 -1.8463 -2.06899 0
M  V30 18925 H 1783.25 -1.35855 -0.820305 0
M  V30 18926 H 1783.27 -1.39219 -3.54116 0
M  V30 18927 H 1782.78 -2.92487 -2.55094 0
M  V30 18928 H 1780.88 -0.720445 -3.65569 0
M  V30 18929 H 1781 -2.56348 -4.0475 0
M  V30 18930 H 1779.36 -1.28007 -2.20196 0
M  V30 18931 H 1780.14 -2.90824 -1.82419 0
M  V30 18932 N 1782.59 1.19452 -1.02805 0
M  V30 18933 C 1783.87 1.84878 -0.638707 0
M  V30 18934 C 1784.25 1.91763 0.882627 0
M  V30 18935 O 1783.59 1.43401 1.779 0
M  V30 18936 C 1783.8 3.23891 -1.29982 0
M  V30 18937 C 1785.15 4.00061 -1.42254 0
M  V30 18938 O 1786.18 3.33286 -1.25693 0
M  V30 18939 O 1785.03 5.19671 -1.69127 0
M  V30 18940 H 1782.13 0.796676 -0.221892 0
M  V30 18941 H 1784.67 1.26949 -1.12615 0
M  V30 18942 H 1783.45 3.13711 -2.33883 0
M  V30 18943 H 1783.07 3.89465 -0.800186 0
M  V30 18944 N 1784.07 0.805805 1.35442 0
M  V30 18945 C 1785 0.230077 2.32364 0
M  V30 18946 C 1785.98 -0.644034 1.57436 0
M  V30 18947 O 1787.16 -0.574467 1.85509 0
M  V30 18948 C 1784.29 -0.622814 3.4167 0
M  V30 18949 C 1783.25 0.152739 4.27727 0
M  V30 18950 C 1782.57 -0.821803 5.28347 0
M  V30 18951 C 1783.87 1.35128 5.04517 0
M  V30 18952 H 1785.57 1.03983 2.80763 0
M  V30 18953 H 1783.11 0.501467 1.34986 0
M  V30 18954 H 1785.07 -1.03564 4.08476 0
M  V30 18955 H 1783.79 -1.46544 2.91877 0
M  V30 18956 H 1782.45 0.546732 3.625 0
M  V30 18957 H 1782.1 -1.65991 4.74822 0
M  V30 18958 H 1781.8 -0.307209 5.86796 0
M  V30 18959 H 1783.32 -1.23285 5.98024 0
M  V30 18960 H 1784.73 1.01337 5.64273 0
M  V30 18961 H 1783.13 1.80031 5.72459 0
M  V30 18962 H 1784.2 2.13833 4.35205 0
M  V30 18963 N 1785.54 -1.47344 0.559239 0
M  V30 18964 C 1786.77 -2.07364 0.0388864 0
M  V30 18965 C 1787.19 -1.40886 -1.2463 0
M  V30 18966 O 1786.55 -0.48454 -1.74705 0
M  V30 18967 C 1786.6 -3.60336 -0.137894 0
M  V30 18968 O 1785.7 -3.94555 -1.2 0
M  V30 18969 H 1785.05 -0.661942 0.0522363 0
M  V30 18970 H 1787.58 -1.89333 0.7755 0
M  V30 18971 H 1787.59 -4.06483 -0.351462 0
M  V30 18972 H 1786.26 -4.08118 0.800776 0
M  V30 18973 H 1784.84 -3.6015 -0.966757 0
M  V30 18974 N 1787.02 -0.295795 -1.54799 0
M  V30 18975 C 1787.97 0.597578 -2.2003 0
M  V30 18976 C 1788.96 1.10286 -1.17158 0
M  V30 18977 O 1790.15 1.04449 -1.42896 0
M  V30 18978 C 1787.28 1.77148 -2.94064 0
M  V30 18979 C 1786.36 1.28241 -4.04246 0
M  V30 18980 N 1786.75 0.510962 -5.03213 0
M  V30 18981 C 1785.05 1.5636 -4.17693 0
M  V30 18982 C 1785.75 0.251176 -5.81157 0
M  V30 18983 N 1784.73 0.829504 -5.37234 0
M  V30 18984 H 1788.53 0.000567564 -2.939 0
M  V30 18985 H 1786.05 -0.10031 -1.6209 0
M  V30 18986 H 1788.04 2.42299 -3.39259 0
M  V30 18987 H 1786.7 2.37224 -2.21709 0
M  V30 18988 H 1787.71 0.156346 -5.17664 0
M  V30 18989 H 1784.39 2.17222 -3.5654 0
M  V30 18990 H 1785.78 -0.368063 -6.70891 0
M  V30 18991 N 1788.5 1.57583 -0.0234236 0
M  V30 18992 C 1789.73 1.95861 0.666797 0
M  V30 18993 C 1790.14 0.899616 1.65989 0
M  V30 18994 O 1789.5 -0.119162 1.82111 0
M  V30 18995 C 1789.55 3.34198 1.37818 0
M  V30 18996 O 1789.27 4.36035 0.424887 0
M  V30 18997 C 1790.77 3.87074 2.16075 0
M  V30 18998 H 1787.99 0.645213 0.184233 0
M  V30 18999 H 1790.54 2.04338 -0.0814987 0
M  V30 19000 H 1788.69 3.26958 2.07792 0
M  V30 19001 H 1789.11 5.162 0.929394 0
M  V30 19002 H 1790.58 4.8623 2.61312 0
M  V30 19003 H 1791.06 3.21017 2.99741 0
M  V30 19004 H 1791.66 3.97565 1.5107 0
M  V30 19005 N 1789.98 -0.249655 1.5561 0
M  V30 19006 C 1791.21 -0.995707 1.81365 0
M  V30 19007 C 1791.62 -1.79054 0.598767 0
M  V30 19008 O 1790.98 -1.773 -0.432538 0
M  V30 19009 C 1791.03 -1.93577 3.05303 0
M  V30 19010 O 1790.75 -1.17311 4.22102 0
M  V30 19011 C 1792.25 -2.79804 3.43838 0
M  V30 19012 H 1789.47 -0.293118 0.603591 0
M  V30 19013 H 1792.02 -0.273374 2.02665 0
M  V30 19014 H 1790.17 -2.61242 2.86062 0
M  V30 19015 H 1790.59 -1.80875 4.92326 0
M  V30 19016 H 1792.06 -3.4152 4.33668 0
M  V30 19017 H 1792.54 -3.50776 2.64298 0
M  V30 19018 H 1793.14 -2.17596 3.6542 0
M  V30 19019 N 1791.46 -1.48941 -0.515198 0
M  V30 19020 C 1792.39 -1.67466 -1.62719 0
M  V30 19021 C 1793.37 -0.523393 -1.61847 0
M  V30 19022 O 1794.55 -0.757631 -1.78812 0
M  V30 19023 C 1791.68 -1.72799 -3.0126 0
M  V30 19024 C 1790.64 -2.87574 -3.16994 0
M  V30 19025 C 1789.96 -2.78008 -4.56745 0
M  V30 19026 C 1791.26 -4.28693 -2.98362 0
M  V30 19027 H 1792.96 -2.60562 -1.47471 0
M  V30 19028 H 1790.5 -1.25391 -0.708027 0
M  V30 19029 H 1792.46 -1.84346 -3.78939 0
M  V30 19030 H 1791.18 -0.762918 -3.17564 0
M  V30 19031 H 1789.84 -2.75606 -2.41737 0
M  V30 19032 H 1789.49 -1.79438 -4.69905 0
M  V30 19033 H 1789.19 -3.55033 -4.68215 0
M  V30 19034 H 1790.71 -2.91543 -5.36503 0
M  V30 19035 H 1792.13 -4.41416 -3.65821 0
M  V30 19036 H 1790.52 -5.0683 -3.21315 0
M  V30 19037 H 1791.59 -4.44125 -1.9463 0
M  V30 19038 N 1792.94 0.765193 -1.37777 0
M  V30 19039 C 1794.16 1.55948 -1.3673 0
M  V30 19040 C 1794.59 1.8805 0.0435817 0
M  V30 19041 O 1793.94 1.49718 1.02246 0
M  V30 19042 C 1793.99 2.84245 -2.21895 0
M  V30 19043 O 1793.1 3.78903 -1.62807 0
M  V30 19044 H 1792.44 0.472127 -0.466897 0
M  V30 19045 H 1794.97 0.946556 -1.81388 0
M  V30 19046 H 1794.98 3.33284 -2.35342 0
M  V30 19047 H 1793.65 2.60209 -3.24444 0
M  V30 19048 H 1792.23 3.37568 -1.58437 0
M  V30 19049 N 1794.41 1.22455 0.992094 0
M  V30 19050 C 1795.82 1.04629 1.54627 0
M  V30 19051 C 1796.18 -0.390011 1.92285 0
M  V30 19052 O 1795.3 -1.27511 1.74842 0
M  V30 19053 C 1795.9 1.89306 2.80978 0
M  V30 19054 C 1794.45 1.75775 3.32836 0
M  V30 19055 C 1793.6 1.85724 2.05917 0
M  V30 19056 H 1796.55 1.36288 0.813089 0
M  V30 19057 H 1796.57 1.41095 3.53373 0
M  V30 19058 H 1796.09 2.93836 2.53539 0
M  V30 19059 H 1794.19 0.739821 3.65181 0
M  V30 19060 H 1794.3 2.58491 4.03385 0
M  V30 19061 H 1792.66 1.29173 2.19514 0
M  V30 19062 H 1793.45 2.91787 1.80874 0
M  V30 19063 N 1795.89 -1.18905 1.03437 0
M  V30 19064 C 1796.8 -2.25979 0.63014 0
M  V30 19065 C 1797.82 -1.70633 -0.340668 0
M  V30 19066 O 1798.99 -2.00432 -0.197174 0
M  V30 19067 C 1796.06 -3.46699 -0.00713795 0
M  V30 19068 C 1795.12 -4.17205 1.01187 0
M  V30 19069 C 1794.35 -5.32162 0.404909 0
M  V30 19070 O 1794.58 -5.64894 -0.790638 0
M  V30 19071 O 1793.51 -5.91188 1.13048 0
M  V30 19072 H 1797.34 -2.62808 1.52203 0
M  V30 19073 H 1794.92 -1.25865 0.804878 0
M  V30 19074 H 1796.8 -4.1984 -0.362204 0
M  V30 19075 H 1795.48 -3.11707 -0.872948 0
M  V30 19076 H 1794.38 -3.46159 1.41862 0
M  V30 19077 H 1795.72 -4.56181 1.84823 0
M  V30 19078 N 1797.37 -0.812977 -1.35013 0
M  V30 19079 C 1798.3 -0.242397 -2.32238 0
M  V30 19080 C 1799.28 0.635676 -1.57776 0
M  V30 19081 O 1800.47 0.564621 -1.85811 0
M  V30 19082 C 1797.6 0.604686 -3.41995 0
M  V30 19083 C 1796.55 -0.17542 -4.2764 0
M  V30 19084 C 1795.88 0.793772 -5.28775 0
M  V30 19085 C 1797.18 -1.37802 -5.03794 0
M  V30 19086 H 1798.87 -1.0547 -2.80208 0
M  V30 19087 H 1796.42 -0.508619 -1.34718 0
M  V30 19088 H 1798.37 1.01396 -4.09019 0
M  V30 19089 H 1797.09 1.44994 -2.9265 0
M  V30 19090 H 1795.75 -0.565948 -3.62205 0
M  V30 19091 H 1795.4 1.63471 -4.75696 0
M  V30 19092 H 1795.1 0.276085 -5.86951 0
M  V30 19093 H 1796.62 1.20112 -5.9867 0
M  V30 19094 H 1798.04 -1.04328 -5.63727 0
M  V30 19095 H 1796.43 -1.83064 -5.71496 0
M  V30 19096 H 1797.5 -2.16138 -4.34065 0
M  V30 19097 N 1798.85 1.47045 -0.567045 0
M  V30 19098 C 1800.1 2.01651 -0.044479 0
M  V30 19099 C 1800.41 1.44583 1.31738 0
M  V30 19100 O 1801.62 1.90911 1.93042 0
M  V30 19101 C 1800.07 3.59888 -0.0289854 0
M  V30 19102 C 1799.68 4.25949 -1.38821 0
M  V30 19103 C 1801.42 4.22209 0.440457 0
M  V30 19104 C 1799.33 5.76221 -1.33129 0
M  V30 19105 H 1798.26 0.75389 -0.012858 0
M  V30 19106 H 1800.91 1.68939 -0.716363 0
M  V30 19107 H 1799.29 3.89606 0.708747 0
M  V30 19108 H 1800.47 4.07861 -2.14443 0
M  V30 19109 H 1798.78 3.75658 -1.79639 0
M  V30 19110 H 1801.38 5.32342 0.501592 0
M  V30 19111 H 1801.72 3.9006 1.45461 0
M  V30 19112 H 1802.26 3.97059 -0.242721 0
M  V30 19113 H 1798.99 6.13005 -2.32175 0
M  V30 19114 H 1798.51 5.96618 -0.617023 0
M  V30 19115 H 1800.19 6.38627 -1.03752 0
M  V30 19116 N 1800.33 0.304 1.5464 0
M  V30 19117 C 1801.26 -0.604475 2.21085 0
M  V30 19118 C 1802.27 -1.0952 1.20454 0
M  V30 19119 O 1803.46 -1.01214 1.47031 0
M  V30 19120 C 1800.56 -1.8399 2.84607 0
M  V30 19121 C 1799.73 -1.49116 4.11197 0
M  V30 19122 C 1798.79 -2.58205 4.58494 0
M  V30 19123 O 1797.82 -2.23171 5.23625 0
M  V30 19124 N 1799.02 -3.88798 4.31065 0
M  V30 19125 H 1801.78 -0.035633 2.99679 0
M  V30 19126 H 1799.35 0.126332 1.61406 0
M  V30 19127 H 1801.34 -2.56322 3.13179 0
M  V30 19128 H 1799.91 -2.31706 2.09836 0
M  V30 19129 H 1799.13 -0.600347 3.89602 0
M  V30 19130 H 1800.42 -1.23358 4.93619 0
M  V30 19131 H 1799.81 -4.20068 3.78892 0
M  V30 19132 H 1798.37 -4.57419 4.6434 0
M  V30 19133 N 1801.8 -1.57568 0.0317802 0
M  V30 19134 C 1803.22 -1.56264 -0.324633 0
M  V30 19135 C 1803.42 -1.03765 -1.72728 0
M  V30 19136 O 1802.48 -0.685566 -2.43015 0
M  V30 19137 C 1803.79 -3.00214 -0.170806 0
M  V30 19138 C 1805.34 -3.12052 -0.243373 0
M  V30 19139 C 1805.81 -4.57847 -0.118304 0
M  V30 19140 N 1807.3 -4.62869 -0.175203 0
M  V30 19141 C 1808.04 -5.73309 -0.102252 0
M  V30 19142 N 1807.53 -6.92797 0.0219373 0
M  V30 19143 N 1809.33 -5.61882 -0.156432 0
M  V30 19144 H 1801.48 -1.90022 0.948968 0
M  V30 19145 H 1803.74 -0.874208 0.366693 0
M  V30 19146 H 1803.45 -3.42585 0.795517 0
M  V30 19147 H 1803.32 -3.65302 -0.939907 0
M  V30 19148 H 1805.71 -2.69593 -1.20016 0
M  V30 19149 H 1805.79 -2.49681 0.55615 0
M  V30 19150 H 1805.43 -5.00988 0.835072 0
M  V30 19151 H 1805.36 -5.18202 -0.936726 0
M  V30 19152 H 1807.85 -3.76925 -0.271225 0
M  V30 19153 H 1808.17 -7.72768 0.0708376 0
M  V30 19154 H 1806.51 -6.94977 0.0567564 0
M  V30 19155 H 1809.7 -4.67422 -0.251873 0
M  V30 19156 H 1809.88 -6.47929 -0.0961177 0
M  V30 19157 N 1803.28 0.241399 -1.5574 0
M  V30 19158 C 1804.23 1.31868 -1.91608 0
M  V30 19159 C 1805.22 1.49545 -0.795774 0
M  V30 19160 O 1806.43 1.50955 -0.980442 0
M  V30 19161 H 1802.81 0.441685 -0.60862 0
M  V30 19162 H 1804.78 0.98887 -2.81538 0
M  V30 19163 C 1803.53 2.66602 -2.23201 0
M  V30 19164 H 1802.85 2.53802 -3.08909 0
M  V30 19165 H 1804.29 3.40842 -2.52196 0
M  V30 19166 C 1802.75 3.20112 -1.05024 0
M  V30 19167 O 1803.28 4.0057 -0.301069 0
M  V30 19168 N 1801.48 2.78214 -0.839381 0
M  V30 19169 H 1801.03 2.12894 -1.4503 0
M  V30 19170 H 1800.99 3.1436 -0.050362 0
M  V30 19171 N 1804.76 1.49212 0.507292 0
M  V30 19172 C 1805.69 1.68326 1.61829 0
M  V30 19173 C 1806.67 0.531969 1.61568 0
M  V30 19174 O 1807.86 0.767104 1.78407 0
M  V30 19175 C 1804.99 1.74394 3.0034 0
M  V30 19176 C 1803.94 2.89251 3.15465 0
M  V30 19177 C 1803.27 2.80426 4.55264 0
M  V30 19178 C 1804.57 4.30269 2.96085 0
M  V30 19179 H 1806.26 2.6134 1.46087 0
M  V30 19180 H 1803.81 1.25765 0.701367 0
M  V30 19181 H 1805.76 1.86353 3.77956 0
M  V30 19182 H 1804.48 0.779748 3.17155 0
M  V30 19183 H 1803.14 2.76884 2.40272 0
M  V30 19184 H 1802.79 1.81928 4.68947 0
M  V30 19185 H 1802.49 3.57511 4.66326 0
M  V30 19186 H 1804.01 2.94384 5.34949 0
M  V30 19187 H 1805.43 4.4335 3.63475 0
M  V30 19188 H 1803.83 5.08527 3.18623 0
M  V30 19189 H 1804.9 4.45151 1.92272 0
M  V30 19190 N 1806.24 -0.757876 1.38181 0
M  V30 19191 C 1807.46 -1.55221 1.37555 0
M  V30 19192 C 1807.89 -1.8807 -0.0336083 0
M  V30 19193 O 1807.25 -1.50258 -1.0145 0
M  V30 19194 C 1807.29 -2.83064 2.23399 0
M  V30 19195 O 1806.4 -3.78034 1.64814 0
M  V30 19196 H 1805.74 -0.469644 0.469394 0
M  V30 19197 H 1808.27 -0.936923 1.81887 0
M  V30 19198 H 1808.28 -3.32031 2.37106 0
M  V30 19199 H 1806.95 -2.58485 3.2582 0
M  V30 19200 H 1805.53 -3.36723 1.60225 0
M  V30 19201 N 1807.72 -1.22979 -0.985586 0
M  V30 19202 C 1809.13 -1.05448 -1.5407 0
M  V30 19203 C 1809.48 0.379808 -1.92489 0
M  V30 19204 O 1808.6 1.26582 -1.75516 0
M  V30 19205 C 1809.2 -1.90794 -2.7997 0
M  V30 19206 C 1807.76 -1.77538 -3.31899 0
M  V30 19207 C 1806.9 -1.86814 -2.04929 0
M  V30 19208 H 1809.86 -1.36718 -0.80585 0
M  V30 19209 H 1809.88 -1.42967 -3.5262 0
M  V30 19210 H 1809.39 -2.95177 -2.51977 0
M  V30 19211 H 1807.49 -0.759177 -3.64784 0
M  V30 19212 H 1807.6 -2.60627 -4.02008 0
M  V30 19213 H 1805.97 -1.30336 -2.18826 0
M  V30 19214 H 1806.75 -2.92742 -1.79324 0
M  V30 19215 N 1809.19 1.18355 -1.04066 0
M  V30 19216 C 1810.16 2.20195 -0.636148 0
M  V30 19217 C 1811.16 1.57853 0.306457 0
M  V30 19218 O 1812.35 1.73958 0.0918576 0
M  V30 19219 C 1809.48 3.40833 0.0673423 0
M  V30 19220 H 1810.67 2.57497 -1.53738 0
M  V30 19221 H 1808.23 1.32239 -0.833214 0
M  V30 19222 H 1808.96 3.09063 0.982371 0
M  V30 19223 H 1808.75 3.87324 -0.610145 0
M  V30 19224 H 1810.24 4.16239 0.336869 0
M  V30 19225 N 1810.67 0.820125 1.3458 0
M  V30 19226 C 1811.6 0.254709 2.32107 0
M  V30 19227 C 1812.58 -0.6273 1.58111 0
M  V30 19228 O 1813.77 -0.554759 1.86108 0
M  V30 19229 C 1810.9 -0.586541 3.42311 0
M  V30 19230 C 1809.85 0.198096 4.27541 0
M  V30 19231 C 1809.18 -0.765718 5.29189 0
M  V30 19232 C 1810.48 1.40472 5.03056 0
M  V30 19233 H 1812.17 1.06955 2.79644 0
M  V30 19234 H 1809.72 0.515756 1.34447 0
M  V30 19235 H 1811.67 -0.992259 4.09551 0
M  V30 19236 H 1810.4 -1.4344 2.93415 0
M  V30 19237 H 1809.05 0.585149 3.619 0
M  V30 19238 H 1808.7 -1.60946 4.76556 0
M  V30 19239 H 1808.4 -0.244954 5.87089 0
M  V30 19240 H 1809.93 -1.16935 5.99298 0
M  V30 19241 H 1811.34 1.07316 5.63166 0
M  V30 19242 H 1809.74 1.86092 5.70517 0
M  V30 19243 H 1810.81 2.18437 4.32913 0
M  V30 19244 N 1812.15 -1.46743 0.574835 0
M  V30 19245 C 1813.4 -2.02019 0.057302 0
M  V30 19246 C 1813.72 -1.44965 -1.30423 0
M  V30 19247 O 1812.99 -0.631377 -1.85447 0
M  V30 19248 H 1811.57 -0.746778 0.018193 0
M  V30 19249 H 1814.23 -1.7994 0.748834 0
M  V30 19250 H 1813.33 -3.12095 -0.0176114 0
M  V30 19251 N 1813.63 -0.312197 -1.54477 0
M  V30 19252 C 1814.56 0.592742 -2.21403 0
M  V30 19253 C 1815.57 1.0888 -1.21033 0
M  V30 19254 O 1816.76 1.00433 -1.47565 0
M  V30 19255 C 1813.86 1.82478 -2.85578 0
M  V30 19256 C 1813.04 1.46933 -4.11982 0
M  V30 19257 C 1812.09 2.5577 -4.59857 0
M  V30 19258 O 1811.12 2.20391 -5.24801 0
M  V30 19259 N 1812.32 3.86506 -4.3312 0
M  V30 19260 H 1815.09 0.0197398 -2.99693 0
M  V30 19261 H 1812.65 -0.13489 -1.61337 0
M  V30 19262 H 1814.64 2.54657 -3.14534 0
M  V30 19263 H 1813.21 2.3059 -2.11062 0
M  V30 19264 H 1812.43 0.579677 -3.89915 0
M  V30 19265 H 1813.72 1.20739 -4.94267 0
M  V30 19266 H 1813.12 4.18053 -3.81114 0
M  V30 19267 H 1811.67 4.5495 -4.66759 0
M  V30 19268 N 1815.11 1.57549 -0.040136 0
M  V30 19269 C 1816.04 2.06413 0.973089 0
M  V30 19270 C 1817.02 0.962235 1.31072 0
M  V30 19271 O 1818.2 1.23337 1.42549 0
M  V30 19272 C 1815.33 2.49541 2.29013 0
M  V30 19273 C 1814.37 3.70858 2.10634 0
M  V30 19274 S 1815.21 5.17013 1.39493 0
M  V30 19275 C 1816.36 5.63445 2.72544 0
M  V30 19276 H 1816.6 2.92032 0.557186 0
M  V30 19277 H 1814.13 1.53441 0.171846 0
M  V30 19278 H 1816.09 2.75052 3.04723 0
M  V30 19279 H 1814.75 1.64247 2.67734 0
M  V30 19280 H 1813.94 3.98918 3.08027 0
M  V30 19281 H 1813.54 3.45555 1.43065 0
M  V30 19282 H 1815.84 5.68357 3.68749 0
M  V30 19283 H 1816.78 6.62826 2.49134 0
M  V30 19284 H 1817.19 4.91133 2.78296 0
M  V30 19285 N 1816.58 -0.233136 1.55866 0
M  V30 19286 C 1818 -0.801092 1.6864 0
M  V30 19287 C 1818.35 -1.85465 0.640081 0
M  V30 19288 O 1817.47 -2.15368 -0.211038 0
M  V30 19289 C 1818.07 -1.45984 3.05735 0
M  V30 19290 C 1816.63 -1.97533 3.20403 0
M  V30 19291 C 1815.77 -0.831321 2.64546 0
M  V30 19292 H 1818.72 -0.00868708 1.58698 0
M  V30 19293 H 1818.74 -2.32832 3.00948 0
M  V30 19294 H 1818.26 -0.692805 3.81866 0
M  V30 19295 H 1816.36 -2.77074 2.4912 0
M  V30 19296 H 1816.47 -2.16326 4.27481 0
M  V30 19297 H 1814.83 -1.23554 2.22725 0
M  V30 19298 H 1815.62 -0.0771465 3.43213 0
M  V30 19299 N 1818.06 -1.49479 -0.499372 0
M  V30 19300 C 1819.31 -1.58295 -1.25003 0
M  V30 19301 C 1819.63 -0.275616 -1.93648 0
M  V30 19302 O 1820.83 -0.24234 -2.70416 0
M  V30 19303 C 1819.29 -2.793 -2.26979 0
M  V30 19304 C 1818.9 -4.16799 -1.64264 0
M  V30 19305 C 1820.64 -2.97447 -3.02862 0
M  V30 19306 C 1818.55 -5.29025 -2.6436 0
M  V30 19307 H 1817.48 -0.589398 -0.470241 0
M  V30 19308 H 1820.13 -1.75868 -0.523698 0
M  V30 19309 H 1818.51 -2.55225 -3.02781 0
M  V30 19310 H 1819.68 -4.51018 -0.944432 0
M  V30 19311 H 1818 -4.04024 -1.00765 0
M  V30 19312 H 1820.6 -3.78461 -3.77719 0
M  V30 19313 H 1820.94 -2.08071 -3.60572 0
M  V30 19314 H 1821.47 -3.2157 -2.34175 0
M  V30 19315 H 1818.21 -6.20466 -2.11429 0
M  V30 19316 H 1817.73 -4.99258 -3.32417 0
M  V30 19317 H 1819.41 -5.58427 -3.26755 0
M  V30 19318 N 1819.54 0.750537 -1.38581 0
M  V30 19319 C 1820.77 1.54489 -1.38376 0
M  V30 19320 C 1821.19 1.88085 0.023634 0
M  V30 19321 O 1820.55 1.50794 1.00652 0
M  V30 19322 C 1820.6 2.81875 -2.24897 0
M  V30 19323 O 1819.7 3.77155 -1.66817 0
M  V30 19324 H 1819.04 0.467148 -0.471878 0
M  V30 19325 H 1821.57 0.927264 -1.82381 0
M  V30 19326 H 1821.58 3.30769 -2.38864 0
M  V30 19327 H 1820.26 2.56753 -3.27186 0
M  V30 19328 H 1818.83 3.35868 -1.62009 0
M  V30 19329 N 1821.02 1.235 0.979051 0
M  V30 19330 C 1822.43 1.06263 1.53509 0
M  V30 19331 C 1822.78 -0.369594 1.92687 0
M  V30 19332 O 1821.91 -1.25649 1.76185 0
M  V30 19333 C 1822.5 1.92276 2.78954 0
M  V30 19334 C 1821.06 1.79296 3.30953 0
M  V30 19335 C 1820.21 1.87898 2.03935 0
M  V30 19336 H 1823.16 1.37143 0.798588 0
M  V30 19337 H 1823.18 1.44835 3.51857 0
M  V30 19338 H 1822.69 2.96509 2.50408 0
M  V30 19339 H 1820.79 0.778512 3.64376 0
M  V30 19340 H 1820.91 2.62755 4.0062 0
M  V30 19341 H 1819.27 1.31494 2.18131 0
M  V30 19342 H 1820.05 2.93689 1.77769 0
M  V30 19343 N 1822.5 -1.17802 1.04693 0
M  V30 19344 C 1823.77 -1.83839 0.668039 0
M  V30 19345 C 1824.15 -1.93143 -0.852008 0
M  V30 19346 O 1823.5 -1.46213 -1.75596 0
M  V30 19347 C 1823.71 -3.21783 1.35118 0
M  V30 19348 C 1825.06 -3.97747 1.48601 0
M  V30 19349 O 1826.08 -3.31244 1.30979 0
M  V30 19350 O 1824.94 -5.16915 1.77373 0
M  V30 19351 H 1822.04 -0.793045 0.234538 0
M  V30 19352 H 1824.58 -1.25141 1.1462 0
M  V30 19353 H 1823.36 -3.0995 2.38844 0
M  V30 19354 H 1822.98 -3.88142 0.862045 0
M  V30 19355 N 1823.98 -0.827251 -1.34143 0
M  V30 19356 C 1824.91 -0.267015 -2.31968 0
M  V30 19357 C 1825.89 0.618906 -1.58441 0
M  V30 19358 O 1827.07 0.544882 -1.86399 0
M  V30 19359 C 1824.2 0.568379 -3.42617 0
M  V30 19360 C 1823.16 -0.220767 -4.2743 0
M  V30 19361 C 1822.48 0.737643 -5.29587 0
M  V30 19362 C 1823.78 -1.43137 -5.02304 0
M  V30 19363 H 1825.48 -1.08436 -2.79073 0
M  V30 19364 H 1823.02 -0.522879 -1.34171 0
M  V30 19365 H 1824.97 0.970525 -4.10072 0
M  V30 19366 H 1823.7 1.41882 -2.94172 0
M  V30 19367 H 1822.36 -0.604333 -3.61585 0
M  V30 19368 H 1822.01 1.58416 -4.77403 0
M  V30 19369 H 1821.71 0.213815 -5.87211 0
M  V30 19370 H 1823.23 1.13755 -5.9991 0
M  V30 19371 H 1824.64 -1.10301 -5.62589 0
M  V30 19372 H 1823.04 -1.89115 -5.69522 0
M  V30 19373 H 1824.11 -2.2073 -4.31748 0
M  V30 19374 N 1825.45 1.46436 -0.582609 0
M  V30 19375 C 1826.68 2.07275 -0.0718712 0
M  V30 19376 C 1827.1 1.42851 1.22373 0
M  V30 19377 O 1826.46 0.512272 1.73912 0
M  V30 19378 C 1826.51 3.6051 0.08055 0
M  V30 19379 O 1825.61 3.96414 1.13707 0
M  V30 19380 H 1824.95 0.661027 -0.0627607 0
M  V30 19381 H 1827.48 1.88076 -0.805524 0
M  V30 19382 H 1827.49 4.06991 0.286749 0
M  V30 19383 H 1826.17 4.06792 -0.865603 0
M  V30 19384 H 1824.75 3.61643 0.909338 0
M  V30 19385 N 1826.93 0.320385 1.54309 0
M  V30 19386 C 1827.88 -0.562498 2.20952 0
M  V30 19387 C 1828.87 -1.08408 1.18897 0
M  V30 19388 O 1830.06 -1.02163 1.4454 0
M  V30 19389 C 1827.19 -1.72448 2.96845 0
M  V30 19390 C 1826.27 -1.21794 4.06235 0
M  V30 19391 N 1826.66 -0.43084 5.03962 0
M  V30 19392 C 1824.96 -1.49695 4.20128 0
M  V30 19393 C 1825.66 -0.158687 5.81484 0
M  V30 19394 N 1824.64 -0.74393 5.38486 0
M  V30 19395 H 1828.44 0.0461894 2.93864 0
M  V30 19396 H 1825.95 0.126085 1.6191 0
M  V30 19397 H 1827.95 -2.36871 3.43071 0
M  V30 19398 H 1826.61 -2.33667 2.25455 0
M  V30 19399 H 1827.62 -0.0739708 5.17847 0
M  V30 19400 H 1824.3 -2.11522 3.59951 0
M  V30 19401 H 1825.69 0.47475 6.70221 0
M  V30 19402 N 1828.41 -1.57525 0.0484906 0
M  V30 19403 C 1829.64 -1.96897 -0.635553 0
M  V30 19404 C 1830.05 -0.925909 -1.64537 0
M  V30 19405 O 1829.41 0.0901742 -1.82277 0
M  V30 19406 C 1829.46 -3.36348 -1.32484 0
M  V30 19407 O 1829.18 -4.36656 -0.355464 0
M  V30 19408 C 1830.68 -3.90463 -2.0989 0
M  V30 19409 H 1827.9 -0.648062 -0.173945 0
M  V30 19410 H 1830.45 -2.04182 0.113997 0
M  V30 19411 H 1828.6 -3.30222 -2.02564 0
M  V30 19412 H 1829.02 -5.17613 -0.847153 0
M  V30 19413 H 1830.49 -4.90326 -2.53543 0
M  V30 19414 H 1830.97 -3.25745 -2.94596 0
M  V30 19415 H 1831.57 -3.99918 -1.44726 0
M  V30 19416 N 1829.89 0.224867 -1.55988 0
M  V30 19417 C 1831.12 0.966727 -1.82926 0
M  V30 19418 C 1831.53 1.78078 -0.627177 0
M  V30 19419 O 1830.89 1.77966 0.404277 0
M  V30 19420 C 1830.94 1.88696 -3.08344 0
M  V30 19421 O 1830.66 1.10581 -4.23914 0
M  V30 19422 C 1832.16 2.74299 -3.48246 0
M  V30 19423 H 1829.38 0.283479 -0.608178 0
M  V30 19424 H 1831.92 0.241097 -2.03074 0
M  V30 19425 H 1830.08 2.56658 -2.90182 0
M  V30 19426 H 1830.49 1.73019 -4.95141 0
M  V30 19427 H 1831.97 3.34577 -4.39047 0
M  V30 19428 H 1832.44 3.46526 -2.69845 0
M  V30 19429 H 1833.05 2.11755 -3.68836 0
M  V30 19430 N 1831.37 1.49742 0.491438 0
M  V30 19431 C 1832.3 1.70033 1.60034 0
M  V30 19432 C 1833.28 0.549076 1.60994 0
M  V30 19433 O 1834.46 0.785983 1.77584 0
M  V30 19434 C 1831.59 1.7757 2.98473 0
M  V30 19435 C 1830.55 2.9258 3.12379 0
M  V30 19436 C 1829.87 2.85239 4.52264 0
M  V30 19437 C 1831.17 4.33385 2.91504 0
M  V30 19438 H 1832.87 2.62875 1.43307 0
M  V30 19439 H 1830.41 1.26502 0.687989 0
M  V30 19440 H 1832.36 1.90351 3.75958 0
M  V30 19441 H 1831.09 0.813343 3.1631 0
M  V30 19442 H 1829.75 2.79417 2.37322 0
M  V30 19443 H 1829.4 1.86892 4.66991 0
M  V30 19444 H 1829.1 3.62437 4.62508 0
M  V30 19445 H 1830.62 3.00041 5.31797 0
M  V30 19446 H 1832.03 4.4718 3.58752 0
M  V30 19447 H 1830.43 5.11878 3.13211 0
M  V30 19448 H 1831.5 4.47166 1.87539 0
M  V30 19449 N 1832.84 -0.743177 1.38977 0
M  V30 19450 C 1834.07 -1.53753 1.39193 0
M  V30 19451 C 1834.49 -1.88095 -0.0136591 0
M  V30 19452 O 1833.85 -1.51326 -0.998508 0
M  V30 19453 C 1833.9 -2.80679 2.26389 0
M  V30 19454 O 1833 -3.76265 1.68815 0
M  V30 19455 H 1832.35 -0.464639 0.474349 0
M  V30 19456 H 1834.88 -0.917579 1.82871 0
M  V30 19457 H 1834.89 -3.29498 2.40614 0
M  V30 19458 H 1833.56 -2.55014 3.28543 0
M  V30 19459 H 1832.14 -3.35004 1.63788 0
M  V30 19460 N 1834.32 -1.24018 -0.972487 0
M  V30 19461 C 1835.73 -1.07076 -1.52943 0
M  V30 19462 C 1836.08 0.35937 -1.92881 0
M  V30 19463 O 1835.21 1.24713 -1.76849 0
M  V30 19464 C 1835.8 -1.93753 -2.7793 0
M  V30 19465 C 1834.36 -1.81048 -3.29998 0
M  V30 19466 C 1833.51 -1.88977 -2.02936 0
M  V30 19467 H 1836.46 -1.37565 -0.791304 0
M  V30 19468 H 1836.48 -1.46699 -3.51084 0
M  V30 19469 H 1835.99 -2.97833 -2.48832 0
M  V30 19470 H 1834.1 -0.797825 -3.63958 0
M  V30 19471 H 1834.21 -2.64876 -3.99221 0
M  V30 19472 H 1832.57 -1.32649 -2.17431 0
M  V30 19473 H 1833.36 -2.94627 -1.76209 0
M  V30 19474 N 1835.8 1.17245 -1.05316 0
M  V30 19475 C 1837.08 1.83482 -0.677779 0
M  V30 19476 C 1837.46 1.93592 0.841753 0
M  V30 19477 O 1836.81 1.47142 1.74818 0
M  V30 19478 C 1837.02 3.21062 -1.36823 0
M  V30 19479 C 1838.36 3.96954 -1.50708 0
M  V30 19480 O 1839.39 3.30545 -1.32734 0
M  V30 19481 O 1838.25 5.15967 -1.80111 0
M  V30 19482 H 1835.34 0.79179 -0.238741 0
M  V30 19483 H 1837.89 1.24531 -1.15283 0
M  V30 19484 H 1836.66 3.08679 -2.40484 0
M  V30 19485 H 1836.28 3.8768 -0.882617 0
M  V30 19486 N 1837.28 0.834353 1.33702 0
M  V30 19487 C 1838.21 0.279313 2.31823 0
M  V30 19488 C 1839.19 -0.610495 1.58767 0
M  V30 19489 O 1840.37 -0.534989 1.86686 0
M  V30 19490 C 1837.5 -0.550201 3.42914 0
M  V30 19491 C 1836.46 0.243432 4.27307 0
M  V30 19492 C 1835.78 -0.709548 5.29971 0
M  V30 19493 C 1837.08 1.45799 5.01537 0
M  V30 19494 H 1838.78 1.09915 2.78494 0
M  V30 19495 H 1836.32 0.529987 1.33892 0
M  V30 19496 H 1838.28 -0.948764 4.10581 0
M  V30 19497 H 1837 -1.4032 2.9492 0
M  V30 19498 H 1835.66 0.6235 3.61259 0
M  V30 19499 H 1835.31 -1.55882 4.78236 0
M  V30 19500 H 1835.01 -0.182671 5.87316 0
M  V30 19501 H 1836.53 -1.10572 6.00505 0
M  V30 19502 H 1837.95 1.13283 5.61996 0
M  V30 19503 H 1836.34 1.92133 5.68511 0
M  V30 19504 H 1837.41 2.23016 4.30571 0
M  V30 19505 N 1838.76 -1.46125 0.590367 0
M  V30 19506 C 1839.98 -2.07234 0.0828625 0
M  V30 19507 C 1840.41 -1.43498 -1.21614 0
M  V30 19508 O 1839.76 -0.521488 -1.73638 0
M  V30 19509 C 1839.81 -3.60548 -0.0614302 0
M  V30 19510 O 1838.92 -3.97012 -1.11603 0
M  V30 19511 H 1838.26 -0.660685 0.0662654 0
M  V30 19512 H 1840.79 -1.87646 0.815486 0
M  V30 19513 H 1840.8 -4.07137 -0.265161 0
M  V30 19514 H 1839.47 -4.06328 0.887164 0
M  V30 19515 H 1838.05 -3.6212 -0.890146 0
M  V30 19516 N 1840.23 -0.328564 -1.54137 0
M  V30 19517 C 1841.18 0.550772 -2.21248 0
M  V30 19518 C 1842.17 1.07776 -1.19471 0
M  V30 19519 O 1843.36 1.01395 -1.4508 0
M  V30 19520 C 1840.49 1.70871 -2.97755 0
M  V30 19521 C 1839.58 1.19638 -4.06875 0
M  V30 19522 N 1839.97 0.404108 -5.04183 0
M  V30 19523 C 1838.26 1.47465 -4.20916 0
M  V30 19524 C 1838.97 0.127848 -5.81559 0
M  V30 19525 N 1837.94 0.715362 -5.38872 0
M  V30 19526 H 1841.74 -0.0617731 -2.93835 0
M  V30 19527 H 1839.26 -0.13467 -1.61841 0
M  V30 19528 H 1841.25 2.35048 -3.44322 0
M  V30 19529 H 1839.91 2.32468 -2.26691 0
M  V30 19530 H 1840.93 0.046507 -5.17879 0
M  V30 19531 H 1837.6 2.0961 -3.61067 0
M  V30 19532 H 1838.99 -0.510286 -6.69959 0
M  V30 19533 N 1841.71 1.57497 -0.0568439 0
M  V30 19534 C 1842.94 1.97231 0.625102 0
M  V30 19535 C 1843.36 0.934622 1.64043 0
M  V30 19536 O 1842.71 -0.0805064 1.82322 0
M  V30 19537 C 1842.76 3.37046 1.30698 0
M  V30 19538 O 1842.48 4.36838 0.332302 0
M  V30 19539 C 1843.99 3.9157 2.07816 0
M  V30 19540 H 1841.21 0.648975 0.170505 0
M  V30 19541 H 1843.75 2.04119 -0.124823 0
M  V30 19542 H 1841.9 3.31292 2.0081 0
M  V30 19543 H 1842.32 5.18055 0.819691 0
M  V30 19544 H 1843.79 4.91664 2.5094 0
M  V30 19545 H 1844.27 3.27303 2.92864 0
M  V30 19546 H 1844.88 4.0068 1.42603 0
M  V30 19547 N 1843.19 -0.216591 1.56105 0
M  V30 19548 C 1844.42 -0.957013 1.83436 0
M  V30 19549 C 1844.83 -1.77743 0.636612 0
M  V30 19550 O 1844.19 -1.78178 -0.394833 0
M  V30 19551 C 1844.24 -1.87058 3.09341 0
M  V30 19552 O 1843.96 -1.08331 4.24495 0
M  V30 19553 C 1845.46 -2.72448 3.49695 0
M  V30 19554 H 1842.68 -0.280249 0.609673 0
M  V30 19555 H 1845.23 -0.230324 2.03199 0
M  V30 19556 H 1843.38 -2.55116 2.91539 0
M  V30 19557 H 1843.8 -1.70391 4.96052 0
M  V30 19558 H 1845.27 -3.32244 4.40815 0
M  V30 19559 H 1845.75 -3.4509 2.71679 0
M  V30 19560 H 1846.35 -2.09796 3.69954 0
M  V30 19561 N 1844.67 -1.5 -0.48349 0
M  V30 19562 C 1845.6 -1.70879 -1.5913 0
M  V30 19563 C 1846.58 -0.557606 -1.60701 0
M  V30 19564 O 1847.76 -0.79539 -1.77164 0
M  V30 19565 C 1844.89 -1.7915 -2.97527 0
M  V30 19566 C 1843.85 -2.94233 -3.10823 0
M  V30 19567 C 1843.17 -2.87634 -4.50745 0
M  V30 19568 C 1844.47 -4.34925 -2.89202 0
M  V30 19569 H 1846.17 -2.63632 -1.41911 0
M  V30 19570 H 1843.71 -1.26865 -0.68127 0
M  V30 19571 H 1845.67 -1.92342 -3.74943 0
M  V30 19572 H 1844.39 -0.830106 -3.15875 0
M  V30 19573 H 1843.05 -2.80672 -2.35837 0
M  V30 19574 H 1842.7 -1.89365 -4.65993 0
M  V30 19575 H 1842.4 -3.64885 -4.60579 0
M  V30 19576 H 1843.92 -3.02857 -5.30198 0
M  V30 19577 H 1845.34 -4.49076 -3.56376 0
M  V30 19578 H 1843.73 -5.13531 -3.10492 0
M  V30 19579 H 1844.8 -4.48154 -1.85165 0
M  V30 19580 N 1846.15 0.735796 -1.39369 0
M  V30 19581 C 1847.37 1.53013 -1.40007 0
M  V30 19582 C 1847.8 1.881 0.00368376 0
M  V30 19583 O 1847.15 1.51853 0.990469 0
M  V30 19584 C 1847.2 2.79474 -2.27874 0
M  V30 19585 O 1846.31 3.75364 -1.70808 0
M  V30 19586 H 1845.65 0.462117 -0.476806 0
M  V30 19587 H 1848.18 0.907868 -1.83355 0
M  V30 19588 H 1848.19 3.28217 -2.42358 0
M  V30 19589 H 1846.86 2.53268 -3.29891 0
M  V30 19590 H 1845.44 3.34131 -1.65562 0
M  V30 19591 N 1847.63 1.24532 0.965897 0
M  V30 19592 C 1848.56 1.06393 2.07853 0
M  V30 19593 C 1849.54 -0.0236467 1.70084 0
M  V30 19594 O 1850.72 0.143767 1.93667 0
M  V30 19595 C 1847.85 0.669877 3.40778 0
M  V30 19596 C 1846.81 1.70643 3.92511 0
M  V30 19597 C 1846.13 1.16738 5.21801 0
M  V30 19598 C 1847.43 3.10278 4.20149 0
M  V30 19599 H 1849.13 1.99459 2.23285 0
M  V30 19600 H 1846.67 0.960397 1.07296 0
M  V30 19601 H 1848.62 0.52997 4.18054 0
M  V30 19602 H 1847.35 -0.296477 3.25252 0
M  V30 19603 H 1846.01 1.83458 3.17393 0
M  V30 19604 H 1845.66 0.191586 5.02635 0
M  V30 19605 H 1845.36 1.86009 5.57382 0
M  V30 19606 H 1846.88 1.03963 6.01684 0
M  V30 19607 H 1848.29 3.00681 4.88123 0
M  V30 19608 H 1846.69 3.76918 4.66962 0
M  V30 19609 H 1847.76 3.58182 3.26854 0
M  V30 19610 N 1849.1 -1.16685 1.05936 0
M  V30 19611 C 1850.38 -1.8312 0.6875 0
M  V30 19612 C 1850.76 -1.94035 -0.831474 0
M  V30 19613 O 1850.11 -1.48067 -1.74036 0
M  V30 19614 C 1850.32 -3.20331 1.38524 0
M  V30 19615 C 1851.67 -3.96149 1.52811 0
M  V30 19616 O 1852.69 -3.29837 1.34485 0
M  V30 19617 O 1851.55 -5.15005 1.82845 0
M  V30 19618 H 1848.64 -0.790513 0.242937 0
M  V30 19619 H 1851.19 -1.23918 1.15941 0
M  V30 19620 H 1849.96 -3.074 2.42118 0
M  V30 19621 H 1849.58 -3.87206 0.903164 0
M  V30 19622 N 1850.58 -0.841432 -1.33258 0
M  V30 19623 C 1851.51 -0.291603 -2.31672 0
M  V30 19624 C 1852.49 0.602066 -1.59089 0
M  V30 19625 O 1853.68 0.525081 -1.86967 0
M  V30 19626 C 1850.81 0.532008 -3.43201 0
M  V30 19627 C 1849.76 -0.26609 -4.27172 0
M  V30 19628 C 1849.09 0.681432 -5.3034 0
M  V30 19629 C 1850.39 -1.48457 -5.00757 0
M  V30 19630 H 1852.08 -1.1139 -2.77908 0
M  V30 19631 H 1849.63 -0.53708 -1.33609 0
M  V30 19632 H 1851.58 0.926977 -4.11078 0
M  V30 19633 H 1850.3 1.38754 -2.9566 0
M  V30 19634 H 1848.96 -0.64265 -3.60923 0
M  V30 19635 H 1848.61 1.53344 -4.79056 0
M  V30 19636 H 1848.31 0.151522 -5.87405 0
M  V30 19637 H 1849.84 1.07386 -6.01083 0
M  V30 19638 H 1851.25 -1.16262 -5.61388 0
M  V30 19639 H 1849.65 -1.95145 -5.67484 0
M  V30 19640 H 1850.72 -2.25296 -4.29383 0
M  V30 19641 N 1852.06 1.4581 -0.598108 0
M  V30 19642 C 1853.28 2.07188 -0.0938515 0
M  V30 19643 C 1853.71 1.44141 1.20851 0
M  V30 19644 O 1853.07 0.530689 1.73359 0
M  V30 19645 C 1853.12 3.60575 0.0423086 0
M  V30 19646 O 1852.22 3.97598 1.09496 0
M  V30 19647 H 1851.56 0.660324 -0.0697682 0
M  V30 19648 H 1854.09 1.87211 -0.825426 0
M  V30 19649 H 1854.1 4.07272 0.243566 0
M  V30 19650 H 1852.78 4.05852 -0.9087 0
M  V30 19651 H 1851.35 3.62587 0.87093 0
M  V30 19652 N 1853.54 0.336733 1.53961 0
M  V30 19653 C 1854.47 -0.557444 2.22318 0
M  V30 19654 C 1855.48 -1.0694 1.2275 0
M  V30 19655 O 1856.67 -0.980725 1.49144 0
M  V30 19656 C 1853.77 -1.77911 2.88445 0
M  V30 19657 C 1852.94 -1.4036 4.14268 0
M  V30 19658 C 1852 -2.48421 4.63868 0
M  V30 19659 O 1851.03 -2.12014 5.28241 0
M  V30 19660 N 1852.23 -3.79567 4.39215 0
M  V30 19661 H 1855 0.0279413 2.99687 0
M  V30 19662 H 1852.56 0.16054 1.61102 0
M  V30 19663 H 1854.55 -2.49621 3.18546 0
M  V30 19664 H 1853.12 -2.27203 2.14703 0
M  V30 19665 H 1852.34 -0.517571 3.90787 0
M  V30 19666 H 1853.63 -1.1286 4.96125 0
M  V30 19667 H 1853.03 -4.11937 3.87717 0
M  V30 19668 H 1851.58 -4.47466 4.73938 0
M  V30 19669 N 1855.02 -1.57465 0.0651956 0
M  V30 19670 C 1856.24 -1.9756 -0.614633 0
M  V30 19671 C 1856.66 -0.943308 -1.63546 0
M  V30 19672 O 1856.02 0.0708362 -1.82362 0
M  V30 19673 C 1856.07 -3.37735 -1.28909 0
M  V30 19674 O 1855.79 -4.37008 -0.309131 0
M  V30 19675 C 1857.29 -3.92667 -2.05736 0
M  V30 19676 H 1854.51 -0.64987 -0.167061 0
M  V30 19677 H 1857.05 -2.0405 0.135647 0
M  V30 19678 H 1855.21 -3.32352 -1.9905 0
M  V30 19679 H 1855.62 -5.18483 -0.792206 0
M  V30 19680 H 1857.1 -4.92988 -2.48329 0
M  V30 19681 H 1857.57 -3.28851 -2.91124 0
M  V30 19682 H 1858.18 -4.01431 -1.40476 0
M  V30 19683 N 1856.49 0.20831 -1.56217 0
M  V30 19684 C 1857.44 1.27775 -1.94362 0
M  V30 19685 C 1858.44 1.47824 -0.827316 0
M  V30 19686 O 1859.64 1.48841 -1.01224 0
M  V30 19687 H 1856.02 0.428676 -0.617852 0
M  V30 19688 H 1857.99 0.928929 -2.83573 0
M  V30 19689 C 1856.74 2.61808 -2.28806 0
M  V30 19690 H 1856.06 2.47192 -3.14223 0
M  V30 19691 H 1857.5 3.35416 -2.59369 0
M  V30 19692 C 1855.96 3.17812 -1.1179 0
M  V30 19693 O 1856.49 3.99841 -0.385968 0
M  V30 19694 N 1854.69 2.7637 -0.898205 0
M  V30 19695 H 1854.24 2.0977 -1.49514 0
M  V30 19696 H 1854.2 3.14182 -0.117031 0
M  V30 19697 N 1857.97 1.50255 0.475528 0
M  V30 19698 C 1858.9 1.71721 1.58222 0
M  V30 19699 C 1859.88 0.56612 1.60403 0
M  V30 19700 O 1861.07 0.804774 1.7674 0
M  V30 19701 C 1858.2 1.80726 2.96573 0
M  V30 19702 C 1857.15 2.95877 3.09258 0
M  V30 19703 C 1856.48 2.9002 4.49213 0
M  V30 19704 C 1857.78 4.36452 2.86891 0
M  V30 19705 H 1859.47 2.6438 1.40511 0
M  V30 19706 H 1857.02 1.27224 0.674533 0
M  V30 19707 H 1858.97 1.94328 3.73918 0
M  V30 19708 H 1857.69 0.846846 3.1543 0
M  V30 19709 H 1856.35 2.81918 2.34345 0
M  V30 19710 H 1856 1.91834 4.64982 0
M  V30 19711 H 1855.7 3.67322 4.58637 0
M  V30 19712 H 1857.23 3.05665 5.28584 0
M  V30 19713 H 1858.64 4.5096 3.53989 0
M  V30 19714 H 1857.04 5.15171 3.07765 0
M  V30 19715 H 1858.11 4.49129 1.82786 0
M  V30 19716 N 1859.45 -0.728395 1.39758 0
M  V30 19717 C 1860.67 -1.52268 1.40816 0
M  V30 19718 C 1861.1 -1.88099 0.00629167 0
M  V30 19719 O 1860.46 -1.52376 -0.982402 0
M  V30 19720 C 1860.51 -2.78262 2.29353 0
M  V30 19721 O 1859.61 -3.74453 1.72796 0
M  V30 19722 H 1858.95 -0.459582 0.47925 0
M  V30 19723 H 1861.48 -0.898132 1.83833 0
M  V30 19724 H 1861.49 -3.26927 2.44096 0
M  V30 19725 H 1860.17 -2.51515 3.31229 0
M  V30 19726 H 1858.74 -3.33248 1.67332 0
M  V30 19727 N 1860.93 -1.25042 -0.959279 0
M  V30 19728 C 1862.34 -1.08692 -1.51799 0
M  V30 19729 C 1862.69 0.338893 -1.93251 0
M  V30 19730 O 1861.81 1.22831 -1.78162 0
M  V30 19731 C 1862.41 -1.9669 -2.7586 0
M  V30 19732 C 1860.97 -1.84538 -3.28059 0
M  V30 19733 C 1860.12 -1.91119 -2.0092 0
M  V30 19734 H 1863.07 -1.38396 -0.776669 0
M  V30 19735 H 1863.09 -1.50414 -3.49508 0
M  V30 19736 H 1862.6 -3.00455 -2.45659 0
M  V30 19737 H 1860.7 -0.836383 -3.63091 0
M  V30 19738 H 1860.81 -2.69095 -3.96389 0
M  V30 19739 H 1859.18 -1.34948 -2.16012 0
M  V30 19740 H 1859.96 -2.9648 -1.73074 0
M  V30 19741 N 1862.41 1.16121 -1.06553 0
M  V30 19742 C 1863.32 2.24229 -0.689833 0
M  V30 19743 C 1864.33 1.71476 0.295308 0
M  V30 19744 O 1865.51 2.00885 0.143964 0
M  V30 19745 C 1862.57 3.46596 -0.0847857 0
M  V30 19746 C 1861.63 4.14375 -1.12213 0
M  V30 19747 C 1860.87 5.30901 -0.54586 0
M  V30 19748 O 1861.09 5.66792 0.640588 0
M  V30 19749 O 1860.02 5.87983 -1.28683 0
M  V30 19750 H 1863.85 2.5868 -1.59117 0
M  V30 19751 H 1861.44 1.23687 -0.837966 0
M  V30 19752 H 1863.32 4.20653 0.250764 0
M  V30 19753 H 1861.99 3.13912 0.789998 0
M  V30 19754 H 1860.9 3.42276 -1.5099 0
M  V30 19755 H 1862.23 4.5112 -1.96853 0
M  V30 19756 N 1863.88 0.848487 1.3281 0
M  V30 19757 C 1864.81 0.303885 2.31514 0
M  V30 19758 C 1865.8 -0.593621 1.59406 0
M  V30 19759 O 1866.98 -0.515158 1.87243 0
M  V30 19760 C 1864.11 -0.5138 3.43478 0
M  V30 19761 C 1863.06 0.28874 4.27025 0
M  V30 19762 C 1862.39 -0.653297 5.30694 0
M  V30 19763 C 1863.69 1.51111 4.99963 0
M  V30 19764 H 1865.38 1.12862 2.77313 0
M  V30 19765 H 1862.93 0.544158 1.33323 0
M  V30 19766 H 1864.88 -0.905164 4.11564 0
M  V30 19767 H 1863.61 -1.37184 2.96392 0
M  V30 19768 H 1862.27 0.661782 3.60577 0
M  V30 19769 H 1861.91 -1.50801 4.79863 0
M  V30 19770 H 1861.61 -0.120368 5.87477 0
M  V30 19771 H 1863.14 -1.04197 6.01644 0
M  V30 19772 H 1864.55 1.19237 5.60763 0
M  V30 19773 H 1862.95 1.98152 5.66441 0
M  V30 19774 H 1864.02 2.2757 4.28182 0
M  V30 19775 N 1865.36 -1.4549 0.605832 0
M  V30 19776 C 1866.59 -2.07135 0.104838 0
M  V30 19777 C 1867.01 -1.4478 -1.20085 0
M  V30 19778 O 1866.37 -0.539875 -1.73075 0
M  V30 19779 C 1866.42 -3.60593 -0.0231858 0
M  V30 19780 O 1865.52 -3.98173 -1.07386 0
M  V30 19781 H 1864.86 -0.659945 0.0732691 0
M  V30 19782 H 1867.39 -1.8677 0.835343 0
M  V30 19783 H 1867.4 -4.07396 -0.221964 0
M  V30 19784 H 1866.08 -4.05364 0.930211 0
M  V30 19785 H 1864.66 -3.63044 -0.851689 0
M  V30 19786 N 1866.84 -0.344893 -1.5378 0
M  V30 19787 C 1867.77 0.545646 -2.2261 0
M  V30 19788 C 1868.79 1.06288 -1.23315 0
M  V30 19789 O 1869.97 0.972802 -1.49662 0
M  V30 19790 C 1867.07 1.76379 -2.89385 0
M  V30 19791 C 1866.25 1.38162 -4.15006 0
M  V30 19792 C 1865.31 2.45958 -4.65179 0
M  V30 19793 O 1864.33 2.0921 -5.29358 0
M  V30 19794 N 1865.53 3.77232 -4.41221 0
M  V30 19795 H 1868.3 -0.043834 -2.99668 0
M  V30 19796 H 1865.86 -0.169081 -1.61015 0
M  V30 19797 H 1867.85 2.47928 -3.19865 0
M  V30 19798 H 1866.42 2.26061 -2.15905 0
M  V30 19799 H 1865.64 0.496839 -3.91056 0
M  V30 19800 H 1866.93 1.10227 -4.96717 0
M  V30 19801 H 1866.33 4.09875 -3.89896 0
M  V30 19802 H 1864.89 4.44947 -4.76304 0
M  V30 19803 N 1868.32 1.57428 -0.0735454 0
M  V30 19804 C 1869.55 1.97883 0.604148 0
M  V30 19805 C 1869.96 0.951968 1.63043 0
M  V30 19806 O 1869.32 -0.0611641 1.82397 0
M  V30 19807 C 1869.37 3.38414 1.27116 0
M  V30 19808 O 1869.09 4.37166 0.285951 0
M  V30 19809 C 1870.59 3.93753 2.03651 0
M  V30 19810 H 1867.81 0.650747 0.163613 0
M  V30 19811 H 1870.36 2.03975 -0.146466 0
M  V30 19812 H 1868.51 3.33403 1.97285 0
M  V30 19813 H 1868.92 5.18896 0.764698 0
M  V30 19814 H 1870.4 4.94298 2.45711 0
M  V30 19815 H 1870.88 3.30391 2.89376 0
M  V30 19816 H 1871.48 4.0217 1.38345 0
M  V30 19817 N 1869.8 -0.200022 1.56326 0
M  V30 19818 C 1870.74 -1.26742 1.95036 0
M  V30 19819 C 1871.74 -1.47383 0.835143 0
M  V30 19820 O 1872.94 -1.48302 1.02012 0
M  V30 19821 H 1869.32 -0.425393 0.620117 0
M  V30 19822 H 1871.29 -0.913877 2.84061 0
M  V30 19823 C 1870.04 -2.60591 2.30191 0
M  V30 19824 H 1869.36 -2.45522 3.1553 0
M  V30 19825 H 1870.8 -3.34036 2.61144 0
M  V30 19826 C 1869.26 -3.17215 1.13474 0
M  V30 19827 O 1869.79 -3.99631 0.407168 0
M  V30 19828 N 1868 -2.7589 0.912849 0
M  V30 19829 H 1867.54 -2.08974 1.50624 0
M  V30 19830 H 1867.5 -3.14116 0.133691 0
M  V30 19831 N 1871.27 -1.50505 -0.467553 0
M  V30 19832 C 1872.2 -1.72558 -1.57309 0
M  V30 19833 C 1873.19 -0.574619 -1.601 0
M  V30 19834 O 1874.37 -0.814135 -1.76311 0
M  V30 19835 C 1871.5 -1.82296 -2.9561 0
M  V30 19836 C 1870.45 -2.97513 -3.07685 0
M  V30 19837 C 1869.78 -2.92398 -4.47669 0
M  V30 19838 C 1871.08 -4.37968 -2.84573 0
M  V30 19839 H 1872.77 -2.65122 -1.39107 0
M  V30 19840 H 1870.32 -1.2758 -0.667776 0
M  V30 19841 H 1872.27 -1.96308 -3.72882 0
M  V30 19842 H 1871 -0.863562 -3.14976 0
M  V30 19843 H 1869.66 -2.83157 -2.32847 0
M  V30 19844 H 1869.3 -1.94297 -4.63959 0
M  V30 19845 H 1869 -3.69749 -4.56683 0
M  V30 19846 H 1870.53 -3.08464 -5.26956 0
M  V30 19847 H 1871.94 -4.52831 -3.51593 0
M  V30 19848 H 1870.34 -5.16796 -3.05028 0
M  V30 19849 H 1871.41 -4.50093 -1.80402 0
M  V30 19850 N 1872.75 0.720973 -1.40142 0
M  V30 19851 C 1873.98 1.51519 -1.41622 0
M  V30 19852 C 1874.4 1.88093 -0.0162669 0
M  V30 19853 O 1873.76 1.52895 0.974307 0
M  V30 19854 C 1873.81 2.77041 -2.30826 0
M  V30 19855 O 1872.91 3.73532 -1.74779 0
M  V30 19856 H 1872.25 0.457034 -0.481681 0
M  V30 19857 H 1874.78 0.88837 -1.84307 0
M  V30 19858 H 1874.79 3.25628 -2.45826 0
M  V30 19859 H 1873.47 2.49755 -3.32558 0
M  V30 19860 H 1872.05 3.32356 -1.69097 0
M  V30 19861 N 1874.23 1.25549 0.952634 0
M  V30 19862 C 1875.64 1.09496 1.5122 0
M  V30 19863 C 1875.99 -0.328639 1.93428 0
M  V30 19864 O 1875.12 -1.21884 1.78811 0
M  V30 19865 C 1875.71 1.9815 2.74813 0
M  V30 19866 C 1874.27 1.86275 3.27076 0
M  V30 19867 C 1873.42 1.92181 1.99904 0
M  V30 19868 H 1876.37 1.38806 0.769318 0
M  V30 19869 H 1876.39 1.52265 3.48705 0
M  V30 19870 H 1875.9 3.01754 2.44062 0
M  V30 19871 H 1874 0.855627 3.62643 0
M  V30 19872 H 1874.12 2.71194 3.94957 0
M  V30 19873 H 1872.48 1.36092 2.15293 0
M  V30 19874 H 1873.26 2.97393 1.71499 0
M  V30 19875 N 1875.71 -1.15554 1.07168 0
M  V30 19876 C 1876.67 -2.18431 0.694305 0
M  V30 19877 C 1877.67 -1.5861 -0.264497 0
M  V30 19878 O 1878.86 -1.7414 -0.0457035 0
M  V30 19879 C 1875.99 -3.40892 0.0230473 0
M  V30 19880 H 1877.19 -2.53331 1.60511 0
M  V30 19881 H 1874.74 -1.29984 0.867982 0
M  V30 19882 H 1875.47 -3.11559 -0.900083 0
M  V30 19883 H 1875.26 -3.8557 0.712622 0
M  V30 19884 H 1876.75 -4.16986 -0.226392 0
M  V30 19885 N 1877.19 -0.855519 -1.32358 0
M  V30 19886 C 1878.12 -0.316159 -2.3135 0
M  V30 19887 C 1879.1 0.585159 -1.59718 0
M  V30 19888 O 1880.28 0.505221 -1.87513 0
M  V30 19889 C 1877.41 0.495577 -3.43746 0
M  V30 19890 C 1876.37 -0.311382 -4.26866 0
M  V30 19891 C 1875.69 0.625144 -5.31033 0
M  V30 19892 C 1876.99 -1.5376 -4.99154 0
M  V30 19893 H 1878.69 -1.14331 -2.7671 0
M  V30 19894 H 1876.23 -0.551221 -1.33032 0
M  V30 19895 H 1878.19 0.883325 -4.12038 0
M  V30 19896 H 1876.91 1.3561 -2.97115 0
M  V30 19897 H 1875.57 -0.680895 -3.60221 0
M  V30 19898 H 1875.22 1.48254 -4.80656 0
M  V30 19899 H 1874.92 0.0892112 -5.87532 0
M  V30 19900 H 1876.44 1.01005 -6.02188 0
M  V30 19901 H 1877.86 -1.2221 -5.60123 0
M  V30 19902 H 1876.25 -2.01153 -5.65382 0
M  V30 19903 H 1877.32 -2.29838 -4.26969 0
M  V30 19904 N 1878.67 1.45167 -0.61354 0
M  V30 19905 C 1879.91 2.01796 -0.110844 0
M  V30 19906 C 1880.23 1.48372 1.26534 0
M  V30 19907 O 1879.5 0.680323 1.83707 0
M  V30 19908 H 1878.08 0.746034 -0.0379861 0
M  V30 19909 H 1880.75 1.77892 -0.796279 0
M  V30 19910 H 1879.84 3.12032 -0.0651413 0
M  V30 19911 N 1880.14 0.353044 1.53595 0
M  V30 19912 C 1881.08 -0.533833 2.22897 0
M  V30 19913 C 1882.09 -1.05633 1.23877 0
M  V30 19914 O 1883.28 -0.964851 1.50176 0
M  V30 19915 C 1880.38 -1.74842 2.90316 0
M  V30 19916 C 1879.55 -1.35959 4.15733 0
M  V30 19917 C 1878.61 -2.43488 4.66476 0
M  V30 19918 O 1877.64 -2.06399 5.3046 0
M  V30 19919 N 1878.84 -3.74887 4.43216 0
M  V30 19920 H 1881.6 0.0597255 2.9964 0
M  V30 19921 H 1879.16 0.177618 1.60923 0
M  V30 19922 H 1881.16 -2.46228 3.21176 0
M  V30 19923 H 1879.73 -2.24913 2.17101 0
M  V30 19924 H 1878.95 -0.476094 3.91314 0
M  V30 19925 H 1880.23 -1.07592 4.97294 0
M  V30 19926 H 1879.63 -4.07801 3.92064 0
M  V30 19927 H 1878.19 -4.42415 4.78657 0
M  V30 19928 N 1881.62 -1.57387 0.0818932 0
M  V30 19929 C 1882.55 -2.0892 -0.91802 0
M  V30 19930 C 1883.53 -0.996648 -1.28474 0
M  V30 19931 O 1884.72 -1.27073 -1.39229 0
M  V30 19932 C 1881.84 -2.55525 -2.22317 0
M  V30 19933 C 1880.89 -3.76312 -2.00727 0
M  V30 19934 S 1881.72 -5.20529 -1.25736 0
M  V30 19935 C 1882.88 -5.70473 -2.57509 0
M  V30 19936 H 1883.11 -2.93407 -0.479563 0
M  V30 19937 H 1880.64 -1.53842 -0.131103 0
M  V30 19938 H 1882.6 -2.83035 -2.97324 0
M  V30 19939 H 1881.26 -1.71288 -2.63285 0
M  V30 19940 H 1880.46 -4.06945 -2.97342 0
M  V30 19941 H 1880.06 -3.49227 -1.33853 0
M  V30 19942 H 1882.35 -5.77934 -3.53551 0
M  V30 19943 H 1883.29 -6.69198 -2.31473 0
M  V30 19944 H 1883.7 -4.98339 -2.65177 0
M  V30 19945 N 1883.1 0.191729 -1.56429 0
M  V30 19946 C 1884.51 0.756099 -1.70705 0
M  V30 19947 C 1884.86 1.83703 -0.689029 0
M  V30 19948 O 1883.99 2.15852 0.153863 0
M  V30 19949 C 1884.58 1.37827 -3.09498 0
M  V30 19950 C 1883.14 1.88968 -3.25527 0
M  V30 19951 C 1882.29 0.76089 -2.66657 0
M  V30 19952 H 1885.24 -0.0333918 -1.58665 0
M  V30 19953 H 1885.26 2.24771 -3.07015 0
M  V30 19954 H 1884.77 0.591316 -3.83569 0
M  V30 19955 H 1882.87 2.70372 -2.56378 0
M  V30 19956 H 1882.99 2.04916 -4.33066 0
M  V30 19957 H 1881.35 1.17606 -2.25923 0
M  V30 19958 H 1882.13 -0.0138776 -3.43297 0
M  V30 19959 N 1884.58 1.50751 0.459565 0
M  V30 19960 C 1885.51 1.73389 1.56392 0
M  V30 19961 C 1886.49 0.583101 1.59793 0
M  V30 19962 O 1887.67 0.823474 1.75876 0
M  V30 19963 C 1884.8 1.83861 2.94639 0
M  V30 19964 C 1883.76 2.9914 3.06103 0
M  V30 19965 C 1883.08 2.94768 4.46112 0
M  V30 19966 C 1884.38 4.39471 2.82246 0
M  V30 19967 H 1886.08 2.65856 1.37699 0
M  V30 19968 H 1883.62 1.27933 0.661001 0
M  V30 19969 H 1885.58 1.98283 3.71836 0
M  V30 19970 H 1884.3 0.880254 3.14514 0
M  V30 19971 H 1882.96 2.84388 2.31342 0
M  V30 19972 H 1882.61 1.96755 4.62922 0
M  V30 19973 H 1882.31 3.72166 4.54716 0
M  V30 19974 H 1883.83 3.11254 5.25313 0
M  V30 19975 H 1885.25 4.54689 3.49186 0
M  V30 19976 H 1883.64 5.18406 3.02283 0
M  V30 19977 H 1884.71 4.51043 1.78012 0
M  V30 19978 N 1886.06 -0.713531 1.40522 0
M  V30 19979 C 1887.28 -1.50766 1.42423 0
M  V30 19980 C 1887.71 -1.88082 0.0262417 0
M  V30 19981 O 1887.06 -1.5341 -0.966185 0
M  V30 19982 C 1887.11 -2.75813 2.32291 0
M  V30 19983 O 1886.22 -3.726 1.76758 0
M  V30 19984 H 1885.56 -0.454473 0.484098 0
M  V30 19985 H 1888.09 -0.878583 1.84776 0
M  V30 19986 H 1888.1 -3.2432 2.47549 0
M  V30 19987 H 1886.77 -2.47988 3.33878 0
M  V30 19988 H 1885.35 -3.31455 1.70857 0
M  V30 19989 N 1887.53 -1.26053 -0.945962 0
M  V30 19990 C 1888.94 -1.10296 -1.50638 0
M  V30 19991 C 1889.3 0.318377 -1.936 0
M  V30 19992 O 1888.42 1.20934 -1.79454 0
M  V30 19993 C 1889.02 -1.99604 -2.73758 0
M  V30 19994 C 1887.57 -1.88007 -3.26083 0
M  V30 19995 C 1886.72 -1.93239 -1.98882 0
M  V30 19996 H 1889.67 -1.39212 -0.761946 0
M  V30 19997 H 1889.69 -1.54113 -3.47893 0
M  V30 19998 H 1889.21 -3.03044 -2.42459 0
M  V30 19999 H 1887.31 -0.874846 -3.62184 0
M  V30 20000 H 1887.42 -2.73285 -3.93513 0
M  V30 20001 H 1885.78 -1.37231 -2.14568 0
M  V30 20002 H 1886.57 -2.98299 -1.6992 0
M  V30 20003 N 1889.01 1.14984 -1.07779 0
M  V30 20004 C 1890.29 1.82003 -0.716546 0
M  V30 20005 C 1890.67 1.95334 0.8005 0
M  V30 20006 O 1890.02 1.50817 1.71658 0
M  V30 20007 C 1890.23 3.18087 -1.43602 0
M  V30 20008 C 1891.57 3.93668 -1.59094 0
M  V30 20009 O 1892.6 3.27655 -1.39715 0
M  V30 20010 O 1891.46 5.12031 -1.91015 0
M  V30 20011 H 1888.55 0.786548 -0.255482 0
M  V30 20012 H 1891.1 1.22058 -1.17898 0
M  V30 20013 H 1889.87 3.03509 -2.46978 0
M  V30 20014 H 1889.49 3.8572 -0.964651 0
M  V30 20015 N 1890.49 0.862526 1.31902 0
M  V30 20016 C 1891.42 0.328423 2.31179 0
M  V30 20017 C 1892.4 -0.57668 1.60026 0
M  V30 20018 O 1893.59 -0.49527 1.87778 0
M  V30 20019 C 1890.72 -0.47734 3.44004 0
M  V30 20020 C 1889.67 0.334015 4.26695 0
M  V30 20021 C 1889 -0.596973 5.31357 0
M  V30 20022 C 1890.3 1.56405 4.98332 0
M  V30 20023 H 1891.99 1.15797 2.761 0
M  V30 20024 H 1889.54 0.558268 1.32738 0
M  V30 20025 H 1891.49 -0.861461 4.12501 0
M  V30 20026 H 1890.21 -1.34033 2.9783 0
M  V30 20027 H 1888.87 0.699989 3.59855 0
M  V30 20028 H 1888.52 -1.45703 4.81435 0
M  V30 20029 H 1888.22 -0.0580517 5.87571 0
M  V30 20030 H 1889.74 -0.978099 6.02715 0
M  V30 20031 H 1891.16 1.25178 5.59467 0
M  V30 20032 H 1889.55 2.04149 5.64308 0
M  V30 20033 H 1890.62 2.32099 4.25744 0
M  V30 20034 N 1891.97 -1.4484 0.62123 0
M  V30 20035 C 1893.19 -2.07012 0.126801 0
M  V30 20036 C 1893.62 -1.46046 -1.18542 0
M  V30 20037 O 1892.98 -0.558202 -1.72493 0
M  V30 20038 C 1893.02 -3.60597 0.0150611 0
M  V30 20039 O 1892.13 -3.9929 -1.03157 0
M  V30 20040 H 1891.47 -0.659131 0.0802646 0
M  V30 20041 H 1894 -1.85874 0.855105 0
M  V30 20042 H 1894.01 -4.07608 -0.178742 0
M  V30 20043 H 1892.68 -4.04354 0.973153 0
M  V30 20044 H 1891.26 -3.63927 -0.813135 0
M  V30 20045 N 1893.45 -0.361184 -1.53405 0
M  V30 20046 C 1894.4 0.503718 -2.22366 0
M  V30 20047 C 1895.38 1.05217 -1.2173 0
M  V30 20048 O 1896.57 0.982945 -1.47198 0
M  V30 20049 C 1893.7 1.64517 -3.01312 0
M  V30 20050 C 1892.79 1.1098 -4.09322 0
M  V30 20051 N 1893.18 0.297072 -5.04927 0
M  V30 20052 C 1891.48 1.38503 -4.23949 0
M  V30 20053 C 1892.18 0.00446147 -5.817 0
M  V30 20054 N 1891.15 0.600899 -5.40269 0
M  V30 20055 H 1894.96 -0.124086 -2.93638 0
M  V30 20056 H 1892.47 -0.168968 -1.61519 0
M  V30 20057 H 1894.47 2.27692 -3.49231 0
M  V30 20058 H 1893.13 2.27607 -2.31571 0
M  V30 20059 H 1894.14 -0.0633533 -5.17861 0
M  V30 20060 H 1890.81 2.01904 -3.65432 0
M  V30 20061 H 1892.2 -0.65228 -6.68726 0
M  V30 20062 N 1894.92 1.57341 -0.0902386 0
M  V30 20063 C 1896.15 1.98513 0.583126 0
M  V30 20064 C 1896.57 0.969208 1.62024 0
M  V30 20065 O 1895.92 -0.041815 1.82452 0
M  V30 20066 C 1895.98 3.39743 1.2352 0
M  V30 20067 O 1895.7 4.37444 0.239568 0
M  V30 20068 C 1897.2 3.9589 1.99463 0
M  V30 20069 H 1894.42 0.652446 0.156701 0
M  V30 20070 H 1896.96 2.03808 -0.168092 0
M  V30 20071 H 1895.12 3.35477 1.93738 0
M  V30 20072 H 1895.53 5.19677 0.709619 0
M  V30 20073 H 1897 4.96876 2.40454 0
M  V30 20074 H 1897.48 3.33441 2.85856 0
M  V30 20075 H 1898.09 4.03615 1.34072 0
M  V30 20076 N 1896.4 -0.183431 1.56529 0
M  V30 20077 C 1897.63 -0.917888 1.85425 0
M  V30 20078 C 1898.05 -1.76353 0.674171 0
M  V30 20079 O 1897.4 -1.78975 -0.35695 0
M  V30 20080 C 1897.45 -1.80454 3.13239 0
M  V30 20081 O 1897.17 -0.993028 4.26697 0
M  V30 20082 C 1898.68 -2.64969 3.55396 0
M  V30 20083 H 1895.9 -0.267254 0.61548 0
M  V30 20084 H 1898.44 -0.187171 2.03642 0
M  V30 20085 H 1896.59 -2.48874 2.96884 0
M  V30 20086 H 1897.01 -1.59831 4.99554 0
M  V30 20087 H 1898.48 -3.22819 4.47763 0
M  V30 20088 H 1898.96 -3.3925 2.78937 0
M  V30 20089 H 1899.57 -2.01902 3.74321 0
M  V30 20090 N 1897.88 -1.50992 -0.451564 0
M  V30 20091 C 1898.81 -1.74216 -1.5547 0
M  V30 20092 C 1899.79 -0.591568 -1.59482 0
M  V30 20093 O 1900.98 -0.83279 -1.75437 0
M  V30 20094 C 1898.11 -1.85421 -2.9366 0
M  V30 20095 C 1897.06 -3.0076 -3.04512 0
M  V30 20096 C 1896.39 -2.9713 -4.44542 0
M  V30 20097 C 1897.69 -4.40961 -2.79911 0
M  V30 20098 H 1899.38 -2.66582 -1.36287 0
M  V30 20099 H 1896.93 -1.28281 -0.654207 0
M  V30 20100 H 1898.88 -2.00252 -3.70779 0
M  V30 20101 H 1897.6 -0.896921 -3.14043 0
M  V30 20102 H 1896.26 -2.85611 -2.2983 0
M  V30 20103 H 1895.91 -1.99207 -4.61872 0
M  V30 20104 H 1895.61 -3.74572 -4.52736 0
M  V30 20105 H 1897.13 -3.14035 -5.23655 0
M  V30 20106 H 1898.55 -4.56534 -3.4677 0
M  V30 20107 H 1896.95 -5.20002 -2.9953 0
M  V30 20108 H 1898.02 -4.51981 -1.75618 0
M  V30 20109 N 1899.36 0.706069 -1.40899 0
M  V30 20110 C 1900.58 1.50008 -1.43221 0
M  V30 20111 C 1901.01 1.88065 -0.0362158 0
M  V30 20112 O 1900.37 1.5392 0.958036 0
M  V30 20113 C 1900.41 2.74578 -2.33751 0
M  V30 20114 O 1899.52 3.71657 -1.78731 0
M  V30 20115 H 1898.86 0.451899 -0.486501 0
M  V30 20116 H 1901.39 0.868772 -1.85239 0
M  V30 20117 H 1901.4 3.23002 -2.49266 0
M  V30 20118 H 1900.07 2.46214 -3.35189 0
M  V30 20119 H 1898.65 3.30544 -1.72612 0
M  V30 20120 N 1900.84 1.26553 0.939264 0
M  V30 20121 C 1901.77 1.10778 2.05549 0
M  V30 20122 C 1902.75 0.0124359 1.70095 0
M  V30 20123 O 1903.93 0.184814 1.93319 0
M  V30 20124 C 1901.06 0.742011 3.39281 0
M  V30 20125 C 1900.02 1.78931 3.88803 0
M  V30 20126 C 1899.34 1.2778 5.19207 0
M  V30 20127 C 1900.64 3.1912 4.13473 0
M  V30 20128 H 1902.34 2.04151 2.19004 0
M  V30 20129 H 1899.88 0.98294 1.05234 0
M  V30 20130 H 1901.84 0.618526 4.16836 0
M  V30 20131 H 1900.56 -0.22742 3.25807 0
M  V30 20132 H 1899.22 1.9015 3.13431 0
M  V30 20133 H 1898.87 0.298159 5.02116 0
M  V30 20134 H 1898.57 1.9779 5.53311 0
M  V30 20135 H 1900.09 1.16703 5.99344 0
M  V30 20136 H 1901.5 3.10967 4.81635 0
M  V30 20137 H 1899.9 3.86738 4.58862 0
M  V30 20138 H 1900.97 3.65034 3.19183 0
M  V30 20139 N 1902.31 -1.14411 1.08387 0
M  V30 20140 C 1903.59 -1.8162 0.726188 0
M  V30 20141 C 1903.97 -1.95755 -0.790129 0
M  V30 20142 O 1903.32 -1.51725 -1.70856 0
M  V30 20143 C 1903.53 -3.17321 1.45287 0
M  V30 20144 C 1904.88 -3.92818 1.6118 0
M  V30 20145 O 1905.9 -3.2691 1.41451 0
M  V30 20146 O 1904.76 -5.1101 1.93728 0
M  V30 20147 H 1901.85 -0.785182 0.25965 0
M  V30 20148 H 1904.4 -1.21431 1.18544 0
M  V30 20149 H 1903.17 -3.02195 2.48584 0
M  V30 20150 H 1902.8 -3.85203 0.985093 0
M  V30 20151 N 1903.79 -0.869509 -1.31443 0
M  V30 20152 C 1905.04 -0.480214 -1.96724 0
M  V30 20153 C 1905.37 0.967405 -1.68735 0
M  V30 20154 O 1904.62 1.69616 -0.976162 0
M  V30 20155 C 1904.92 -0.683486 -3.50804 0
M  V30 20156 C 1904.59 -2.10382 -3.98811 0
M  V30 20157 C 1903.25 -2.49226 -4.11631 0
M  V30 20158 C 1905.6 -3.03015 -4.24065 0
M  V30 20159 C 1902.93 -3.79944 -4.47057 0
M  V30 20160 C 1905.28 -4.33248 -4.60954 0
M  V30 20161 C 1903.95 -4.72006 -4.71982 0
M  V30 20162 H 1903.22 -0.175723 -0.719863 0
M  V30 20163 H 1905.86 -1.10241 -1.56586 0
M  V30 20164 H 1904.17 0.0218481 -3.91794 0
M  V30 20165 H 1905.86 -0.362105 -3.99362 0
M  V30 20166 H 1902.45 -1.79225 -3.89328 0
M  V30 20167 H 1906.64 -2.74232 -4.13655 0
M  V30 20168 H 1901.89 -4.09736 -4.53792 0
M  V30 20169 H 1906.07 -5.05077 -4.79448 0
M  V30 20170 H 1903.7 -5.73337 -4.99188 0
M  V30 20171 N 1905.27 1.44508 -0.628902 0
M  V30 20172 C 1906.5 2.06942 -0.137778 0
M  V30 20173 C 1906.92 1.46672 1.17766 0
M  V30 20174 O 1906.28 0.567342 1.72194 0
M  V30 20175 C 1906.33 3.60584 -0.0341843 0
M  V30 20176 O 1905.43 3.99831 1.01038 0
M  V30 20177 H 1904.77 0.658696 -0.083759 0
M  V30 20178 H 1907.3 1.85418 -0.864951 0
M  V30 20179 H 1907.31 4.07697 0.157123 0
M  V30 20180 H 1905.99 4.03833 -0.994583 0
M  V30 20181 H 1904.56 3.64353 0.793824 0
M  V30 20182 N 1906.75 0.369315 1.53212 0
M  V30 20183 C 1907.68 -0.510161 2.2345 0
M  V30 20184 C 1908.69 -1.04313 1.24991 0
M  V30 20185 O 1909.88 -0.948869 1.51191 0
M  V30 20186 C 1906.98 -1.71753 2.92154 0
M  V30 20187 C 1906.16 -1.31542 4.17152 0
M  V30 20188 C 1905.22 -2.38526 4.69033 0
M  V30 20189 O 1904.24 -2.00761 5.32619 0
M  V30 20190 N 1905.44 -3.70165 4.47167 0
M  V30 20191 H 1908.21 0.0915031 2.9956 0
M  V30 20192 H 1905.77 0.194676 1.60725 0
M  V30 20193 H 1907.76 -2.42808 3.23769 0
M  V30 20194 H 1906.33 -2.22598 2.19474 0
M  V30 20195 H 1905.55 -0.434563 3.91797 0
M  V30 20196 H 1906.84 -1.02311 4.98407 0
M  V30 20197 H 1906.24 -4.0362 3.96368 0
M  V30 20198 H 1904.79 -4.37313 4.83323 0
M  V30 20199 N 1908.23 -1.57291 0.0985816 0
M  V30 20200 C 1909.46 -1.98819 -0.57259 0
M  V30 20201 C 1909.87 -0.977787 -1.61508 0
M  V30 20202 O 1909.23 0.0321385 -1.82472 0
M  V30 20203 C 1909.28 -3.40393 -1.21716 0
M  V30 20204 O 1909 -4.37565 -0.216366 0
M  V30 20205 C 1910.5 -3.96943 -1.97361 0
M  V30 20206 H 1907.72 -0.653268 -0.153239 0
M  V30 20207 H 1910.26 -2.03716 0.178898 0
M  V30 20208 H 1908.42 -3.36499 -1.91956 0
M  V30 20209 H 1908.83 -5.20046 -0.68205 0
M  V30 20210 H 1910.31 -4.98144 -2.37816 0
M  V30 20211 H 1910.78 -3.34953 -2.84083 0
M  V30 20212 H 1911.39 -4.0432 -1.3193 0
M  V30 20213 N 1909.71 0.175127 -1.56624 0
M  V30 20214 C 1910.65 1.23623 -1.97028 0
M  V30 20215 C 1911.65 1.46036 -0.858485 0
M  V30 20216 O 1912.85 1.46661 -1.04358 0
M  V30 20217 H 1909.23 0.415474 -0.626806 0
M  V30 20218 H 1911.2 0.86857 -2.85479 0
M  V30 20219 C 1909.95 2.56896 -2.34307 0
M  V30 20220 H 1909.27 2.40471 -3.19396 0
M  V30 20221 H 1910.71 3.29839 -2.66425 0
M  V30 20222 C 1909.17 3.15369 -1.18506 0
M  V30 20223 O 1909.7 3.98933 -0.470694 0
M  V30 20224 N 1907.91 2.74403 -0.956625 0
M  V30 20225 H 1907.45 2.06551 -1.5393 0
M  V30 20226 H 1907.41 3.13863 -0.183647 0
M  V30 20227 N 1911.18 1.5123 0.44355 0
M  V30 20228 C 1912.11 1.75038 1.54544 0
M  V30 20229 C 1913.09 0.600017 1.59166 0
M  V30 20230 O 1914.28 0.842082 1.74993 0
M  V30 20231 C 1911.41 1.86976 2.92673 0
M  V30 20232 C 1910.36 3.0237 3.02913 0
M  V30 20233 C 1909.69 2.99483 4.4296 0
M  V30 20234 C 1910.99 4.4244 2.77569 0
M  V30 20235 H 1912.68 2.67301 1.34872 0
M  V30 20236 H 1910.23 1.28627 0.647395 0
M  V30 20237 H 1912.18 2.02215 3.69712 0
M  V30 20238 H 1910.91 0.913563 3.13563 0
M  V30 20239 H 1909.57 2.86826 2.28312 0
M  V30 20240 H 1909.21 2.01654 4.60809 0
M  V30 20241 H 1908.91 3.76968 4.50743 0
M  V30 20242 H 1910.44 3.16808 5.21982 0
M  V30 20243 H 1911.85 4.58367 3.44344 0
M  V30 20244 H 1910.25 5.21583 2.96768 0
M  V30 20245 H 1911.32 4.52906 1.73218 0
M  V30 20246 N 1912.66 -0.698586 1.41271 0
M  V30 20247 C 1913.89 -1.49247 1.44014 0
M  V30 20248 C 1914.31 -1.88043 0.0461888 0
M  V30 20249 O 1913.67 -1.54426 -0.94986 0
M  V30 20250 C 1913.72 -2.73334 2.35204 0
M  V30 20251 O 1912.82 -3.70704 1.807 0
M  V30 20252 H 1912.16 -0.449313 0.488891 0
M  V30 20253 H 1914.69 -0.858936 1.85697 0
M  V30 20254 H 1914.7 -3.21676 2.50975 0
M  V30 20255 H 1913.38 -2.44433 3.3649 0
M  V30 20256 H 1911.95 -3.29624 1.74363 0
M  V30 20257 N 1914.14 -1.27049 -0.93254 0
M  V30 20258 C 1915.55 -1.11887 -1.49459 0
M  V30 20259 C 1915.9 0.297825 -1.93926 0
M  V30 20260 O 1915.03 1.19024 -1.80727 0
M  V30 20261 C 1915.62 -2.02497 -2.71626 0
M  V30 20262 C 1914.18 -1.91455 -3.24071 0
M  V30 20263 C 1913.33 -1.95337 -1.96821 0
M  V30 20264 H 1916.28 -1.40013 -0.747138 0
M  V30 20265 H 1916.3 -1.57794 -3.46239 0
M  V30 20266 H 1915.81 -3.05598 -2.39231 0
M  V30 20267 H 1913.91 -0.913212 -3.61236 0
M  V30 20268 H 1914.03 -2.77443 -3.90592 0
M  V30 20269 H 1912.39 -1.395 -2.13101 0
M  V30 20270 H 1913.17 -3.00084 -1.66746 0
M  V30 20271 N 1915.62 1.13835 -1.08993 0
M  V30 20272 C 1916.53 2.22715 -0.73724 0
M  V30 20273 C 1917.54 1.72064 0.258869 0
M  V30 20274 O 1918.72 2.01145 0.101321 0
M  V30 20275 C 1915.78 3.46338 -0.158285 0
M  V30 20276 C 1914.85 4.11902 -1.20977 0
M  V30 20277 C 1914.08 5.29624 -0.658349 0
M  V30 20278 O 1914.3 5.68023 0.520219 0
M  V30 20279 O 1913.24 5.85121 -1.41126 0
M  V30 20280 H 1917.06 2.55247 -1.64568 0
M  V30 20281 H 1914.65 1.21882 -0.864013 0
M  V30 20282 H 1916.53 4.2109 0.161481 0
M  V30 20283 H 1915.2 3.15517 0.723235 0
M  V30 20284 H 1914.11 3.38996 -1.58216 0
M  V30 20285 H 1915.44 4.46843 -2.06378 0
M  V30 20286 N 1917.1 0.876467 1.3098 0
M  V30 20287 C 1918.03 0.352925 2.30817 0
M  V30 20288 C 1919.01 -0.559675 1.60629 0
M  V30 20289 O 1920.19 -0.475326 1.88293 0
M  V30 20290 C 1917.32 -0.440827 3.44491 0
M  V30 20291 C 1916.28 0.379253 4.26316 0
M  V30 20292 C 1915.6 -0.540582 5.3196 0
M  V30 20293 C 1916.9 1.61682 4.96645 0
M  V30 20294 H 1918.6 1.18719 2.74857 0
M  V30 20295 H 1916.14 0.572316 1.32138 0
M  V30 20296 H 1918.09 -0.817661 4.13391 0
M  V30 20297 H 1916.82 -1.30866 2.99235 0
M  V30 20298 H 1915.48 0.738117 3.59092 0
M  V30 20299 H 1915.13 -1.40588 4.82953 0
M  V30 20300 H 1914.83 0.00427133 5.876 0
M  V30 20301 H 1916.35 -0.914118 6.03719 0
M  V30 20302 H 1917.76 1.31105 5.58108 0
M  V30 20303 H 1916.16 2.10123 5.62111 0
M  V30 20304 H 1917.23 2.36602 4.23258 0
M  V30 20305 N 1918.57 -1.44173 0.636557 0
M  V30 20306 C 1919.8 -2.06866 0.148751 0
M  V30 20307 C 1920.22 -1.47295 -1.16987 0
M  V30 20308 O 1919.58 -0.576466 -1.71891 0
M  V30 20309 C 1919.63 -3.60561 0.0533064 0
M  V30 20310 O 1918.73 -4.00361 -0.989163 0
M  V30 20311 H 1918.07 -0.658243 0.087251 0
M  V30 20312 H 1920.6 -1.84956 0.874772 0
M  V30 20313 H 1920.61 -4.07775 -0.135499 0
M  V30 20314 H 1919.29 -4.033 1.01599 0
M  V30 20315 H 1917.87 -3.64769 -0.77449 0
M  V30 20316 N 1920.05 -0.377435 -1.53014 0
M  V30 20317 C 1921 0.480105 -2.22888 0
M  V30 20318 C 1921.99 1.0392 -1.22839 0
M  V30 20319 O 1923.18 0.967277 -1.48232 0
M  V30 20320 C 1920.31 1.61312 -3.0304 0
M  V30 20321 C 1919.39 1.06633 -4.10476 0
M  V30 20322 N 1919.78 0.243501 -5.05214 0
M  V30 20323 C 1918.08 1.33999 -4.25394 0
M  V30 20324 C 1918.78 -0.0572358 -5.81672 0
M  V30 20325 N 1917.76 0.543562 -5.40876 0
M  V30 20326 H 1921.56 -0.155223 -2.9349 0
M  V30 20327 H 1919.07 -0.18609 -1.6133 0
M  V30 20328 H 1921.07 2.23975 -3.51626 0
M  V30 20329 H 1919.73 2.25138 -2.33972 0
M  V30 20330 H 1920.74 -0.118276 -5.17765 0
M  V30 20331 H 1917.42 1.98017 -3.67553 0
M  V30 20332 H 1918.81 -0.72317 -6.67997 0
M  V30 20333 N 1921.53 1.57237 -0.106922 0
M  V30 20334 C 1922.46 2.10354 0.884666 0
M  V30 20335 C 1923.44 1.01696 1.26873 0
M  V30 20336 O 1924.63 1.29272 1.3719 0
M  V30 20337 C 1921.75 2.59029 2.18223 0
M  V30 20338 C 1920.8 3.79458 1.94715 0
M  V30 20339 S 1921.63 5.22464 1.17439 0
M  V30 20340 C 1922.79 5.74498 2.48401 0
M  V30 20341 H 1923.02 2.94132 0.432824 0
M  V30 20342 H 1920.55 1.54031 0.106612 0
M  V30 20343 H 1922.51 2.87729 2.92783 0
M  V30 20344 H 1921.17 1.75455 2.60527 0
M  V30 20345 H 1920.37 4.11624 2.9083 0
M  V30 20346 H 1919.97 3.51312 1.2828 0
M  V30 20347 H 1922.26 5.83486 3.44312 0
M  V30 20348 H 1923.2 6.72796 2.20797 0
M  V30 20349 H 1923.61 5.02494 2.57215 0
M  V30 20350 N 1923.01 -0.166818 1.56715 0
M  V30 20351 C 1924.24 -0.898169 1.86388 0
M  V30 20352 C 1924.65 -1.75628 0.692837 0
M  V30 20353 O 1924.01 -1.79344 -0.337947 0
M  V30 20354 C 1924.06 -1.77122 3.15135 0
M  V30 20355 O 1923.78 -0.947716 4.27727 0
M  V30 20356 C 1925.28 -2.61185 3.58186 0
M  V30 20357 H 1922.5 -0.260711 0.61828 0
M  V30 20358 H 1925.05 -0.165561 2.03829 0
M  V30 20359 H 1923.2 -2.45711 2.99507 0
M  V30 20360 H 1923.61 -1.54523 5.01221 0
M  V30 20361 H 1925.09 -3.18052 4.51162 0
M  V30 20362 H 1925.57 -3.36273 2.8252 0
M  V30 20363 H 1926.17 -1.9792 3.76441 0
M  V30 20364 N 1924.49 -1.51463 -0.435524 0
M  V30 20365 C 1925.42 -1.75856 -1.53613 0
M  V30 20366 C 1926.4 -0.608449 -1.58846 0
M  V30 20367 O 1927.58 -0.85135 -1.74544 0
M  V30 20368 C 1924.71 -1.88525 -2.91677 0
M  V30 20369 C 1923.67 -3.03972 -3.01305 0
M  V30 20370 C 1922.99 -3.01828 -4.41366 0
M  V30 20371 C 1924.29 -4.43905 -2.75219 0
M  V30 20372 H 1925.99 -2.68013 -1.33452 0
M  V30 20373 H 1923.53 -1.28968 -0.640564 0
M  V30 20374 H 1925.49 -2.04173 -3.68634 0
M  V30 20375 H 1924.21 -0.930179 -3.13074 0
M  V30 20376 H 1922.87 -2.88033 -2.26788 0
M  V30 20377 H 1922.52 -2.04095 -4.59733 0
M  V30 20378 H 1922.22 -3.79353 -4.48737 0
M  V30 20379 H 1923.74 -3.19572 -5.20294 0
M  V30 20380 H 1925.15 -4.60187 -3.41908 0
M  V30 20381 H 1923.55 -5.2315 -2.93998 0
M  V30 20382 H 1924.62 -4.53818 -1.70814 0
M  V30 20383 N 1925.96 0.691085 -1.4164 0
M  V30 20384 C 1927.19 1.48481 -1.44804 0
M  V30 20385 C 1927.61 1.88016 -0.0561606 0
M  V30 20386 O 1926.97 1.54927 0.941657 0
M  V30 20387 C 1927.02 2.72083 -2.3665 0
M  V30 20388 O 1926.12 3.6974 -1.82663 0
M  V30 20389 H 1925.47 0.446714 -0.491267 0
M  V30 20390 H 1928 0.849076 -1.8615 0
M  V30 20391 H 1928.01 3.2034 -2.52678 0
M  V30 20392 H 1926.68 2.42645 -3.37781 0
M  V30 20393 H 1925.26 3.28695 -1.76108 0
M  V30 20394 N 1927.44 1.27542 0.925789 0
M  V30 20395 C 1928.85 1.12679 1.48864 0
M  V30 20396 C 1929.2 -0.287536 1.94082 0
M  V30 20397 O 1928.33 -1.18064 1.81356 0
M  V30 20398 C 1928.92 2.03934 2.70548 0
M  V30 20399 C 1927.48 1.93171 3.23051 0
M  V30 20400 C 1926.63 1.96378 1.95783 0
M  V30 20401 H 1929.58 1.40407 0.739703 0
M  V30 20402 H 1929.6 1.59628 3.45397 0
M  V30 20403 H 1929.11 3.06863 2.37607 0
M  V30 20404 H 1927.22 0.932356 3.60746 0
M  V30 20405 H 1927.33 2.7951 3.89115 0
M  V30 20406 H 1925.69 1.40628 2.12358 0
M  V30 20407 H 1926.48 3.00964 1.65153 0
M  V30 20408 N 1928.92 -1.13255 1.09595 0
M  V30 20409 C 1929.83 -2.22321 0.74904 0
M  V30 20410 C 1930.85 -1.72198 -0.24974 0
M  V30 20411 O 1932.02 -2.01196 -0.090652 0
M  V30 20412 C 1929.09 -3.4625 0.17665 0
M  V30 20413 C 1928.15 -4.11254 1.2316 0
M  V30 20414 C 1927.38 -5.29267 0.686427 0
M  V30 20415 O 1927.6 -5.68291 -0.490088 0
M  V30 20416 O 1926.54 -5.84365 1.44227 0
M  V30 20417 H 1930.36 -2.5437 1.6592 0
M  V30 20418 H 1927.95 -1.21422 0.870465 0
M  V30 20419 H 1929.83 -4.2117 -0.139147 0
M  V30 20420 H 1928.51 -3.15896 -0.706492 0
M  V30 20421 H 1927.41 -3.38152 1.60012 0
M  V30 20422 H 1928.75 -4.45743 2.08745 0
M  V30 20423 N 1930.4 -0.883401 -1.30514 0
M  V30 20424 C 1931.33 -0.36516 -2.30627 0
M  V30 20425 C 1932.31 0.551149 -1.60923 0
M  V30 20426 O 1933.49 0.465333 -1.88543 0
M  V30 20427 C 1930.62 0.422552 -3.4472 0
M  V30 20428 C 1929.58 -0.401856 -4.26109 0
M  V30 20429 C 1928.9 0.512363 -5.3224 0
M  V30 20430 C 1930.2 -1.64313 -4.95781 0
M  V30 20431 H 1931.9 -1.20175 -2.74223 0
M  V30 20432 H 1929.44 -0.579315 -1.31833 0
M  V30 20433 H 1931.4 0.795726 -4.13819 0
M  V30 20434 H 1930.12 1.29278 -2.99925 0
M  V30 20435 H 1928.78 -0.75715 -3.58696 0
M  V30 20436 H 1928.43 1.38025 -4.83692 0
M  V30 20437 H 1928.13 -0.0354331 -5.87589 0
M  V30 20438 H 1929.65 0.882088 -6.04195 0
M  V30 20439 H 1931.07 -1.34063 -5.57405 0
M  V30 20440 H 1929.46 -2.13101 -5.60989 0
M  V30 20441 H 1930.53 -2.38843 -4.21998 0
M  V30 20442 N 1931.88 1.43833 -0.644194 0
M  V30 20443 C 1933.1 2.06784 -0.159719 0
M  V30 20444 C 1933.53 1.47913 1.16204 0
M  V30 20445 O 1932.88 0.585574 1.71583 0
M  V30 20446 C 1932.93 3.60527 -0.0724271 0
M  V30 20447 O 1932.04 4.0088 0.967917 0
M  V30 20448 H 1931.38 0.657771 -0.0907406 0
M  V30 20449 H 1933.91 1.8449 -0.884568 0
M  V30 20450 H 1933.92 4.07841 0.113872 0
M  V30 20451 H 1932.59 4.02755 -1.03736 0
M  V30 20452 H 1931.17 3.65174 0.755135 0
M  V30 20453 N 1933.35 0.385544 1.52811 0
M  V30 20454 C 1934.29 -0.486433 2.23979 0
M  V30 20455 C 1935.3 -1.02981 1.2609 0
M  V30 20456 O 1936.49 -0.932779 1.52189 0
M  V30 20457 C 1933.59 -1.68645 2.93959 0
M  V30 20458 C 1932.76 -1.2711 4.18523 0
M  V30 20459 C 1931.82 -2.33538 4.71536 0
M  V30 20460 O 1930.85 -1.95101 5.34719 0
M  V30 20461 N 1932.05 -3.65401 4.51068 0
M  V30 20462 H 1934.81 0.12327 2.99446 0
M  V30 20463 H 1932.37 0.211712 1.6051 0
M  V30 20464 H 1934.37 -2.3936 3.26326 0
M  V30 20465 H 1932.94 -2.20257 2.21823 0
M  V30 20466 H 1932.16 -0.392983 3.92236 0
M  V30 20467 H 1933.44 -0.970192 4.99464 0
M  V30 20468 H 1932.84 -3.99393 4.00626 0
M  V30 20469 H 1931.4 -4.32162 4.87934 0
M  V30 20470 N 1934.83 -1.57178 0.115259 0
M  V30 20471 C 1936.06 -1.99415 -0.55147 0
M  V30 20472 C 1936.48 -0.994862 -1.60462 0
M  V30 20473 O 1935.83 0.0127831 -1.82496 0
M  V30 20474 C 1935.88 -3.41665 -1.18099 0
M  V30 20475 O 1935.6 -4.3777 -0.169944 0
M  V30 20476 C 1937.11 -3.99014 -1.9314 0
M  V30 20477 H 1934.33 -0.654856 -0.146302 0
M  V30 20478 H 1936.87 -2.03515 0.200495 0
M  V30 20479 H 1935.02 -3.38516 -1.88376 0
M  V30 20480 H 1935.44 -5.20741 -0.626853 0
M  V30 20481 H 1936.91 -5.00639 -2.32519 0
M  V30 20482 H 1937.39 -3.37947 -2.80515 0
M  V30 20483 H 1938 -4.05697 -1.27634 0
M  V30 20484 N 1936.31 0.158505 -1.56801 0
M  V30 20485 C 1937.26 1.21526 -1.98328 0
M  V30 20486 C 1938.25 1.45117 -0.873926 0
M  V30 20487 O 1939.46 1.45545 -1.05908 0
M  V30 20488 H 1935.83 0.408803 -0.631177 0
M  V30 20489 H 1937.81 0.838242 -2.86384 0
M  V30 20490 C 1936.55 2.54396 -2.37019 0
M  V30 20491 H 1935.88 2.3707 -3.21928 0
M  V30 20492 H 1937.32 3.26994 -2.69909 0
M  V30 20493 C 1935.78 3.14095 -1.21845 0
M  V30 20494 O 1936.31 3.98411 -0.51298 0
M  V30 20495 N 1934.51 2.73373 -0.985675 0
M  V30 20496 H 1934.06 2.04907 -1.56112 0
M  V30 20497 H 1934.02 3.13651 -0.216926 0
M  V30 20498 N 1937.79 1.51692 0.427485 0
M  V30 20499 C 1938.72 1.76668 1.52679 0
M  V30 20500 C 1939.7 0.616865 1.58521 0
M  V30 20501 O 1940.89 0.860595 1.7409 0
M  V30 20502 C 1938.02 1.9007 2.90673 0
M  V30 20503 C 1936.97 3.05566 2.99689 0
M  V30 20504 C 1936.3 3.04165 4.39759 0
M  V30 20505 C 1937.6 4.45359 2.72861 0
M  V30 20506 H 1939.29 2.68717 1.32029 0
M  V30 20507 H 1936.84 1.29306 0.633716 0
M  V30 20508 H 1938.79 2.06125 3.67546 0
M  V30 20509 H 1937.51 0.946769 3.12576 0
M  V30 20510 H 1936.17 2.89231 2.25257 0
M  V30 20511 H 1935.82 2.0653 4.58644 0
M  V30 20512 H 1935.52 3.81727 4.46719 0
M  V30 20513 H 1937.04 3.22326 5.18592 0
M  V30 20514 H 1938.46 4.61993 3.39463 0
M  V30 20515 H 1936.85 5.24701 2.91219 0
M  V30 20516 H 1937.92 4.54717 1.68405 0
M  V30 20517 N 1939.27 -0.683564 1.42004 0
M  V30 20518 C 1940.49 -1.47711 1.45589 0
M  V30 20519 C 1940.92 -1.87984 0.0661307 0
M  V30 20520 O 1940.28 -1.55425 -0.933428 0
M  V30 20521 C 1940.32 -2.70824 2.3809 0
M  V30 20522 O 1939.43 -3.68766 1.84622 0
M  V30 20523 H 1938.77 -0.444102 0.493629 0
M  V30 20524 H 1941.3 -0.839192 1.86598 0
M  V30 20525 H 1941.31 -3.18996 2.54373 0
M  V30 20526 H 1939.98 -2.4085 3.39063 0
M  V30 20527 H 1938.56 -3.27756 1.77849 0
M  V30 20528 N 1940.75 -1.28031 -0.919012 0
M  V30 20529 C 1942.16 -1.13466 -1.48264 0
M  V30 20530 C 1942.51 0.27724 -1.94231 0
M  V30 20531 O 1941.63 1.171 -1.81979 0
M  V30 20532 C 1942.23 -2.05366 -2.69463 0
M  V30 20533 C 1940.79 -1.94882 -3.22022 0
M  V30 20534 C 1939.93 -1.97414 -1.94738 0
M  V30 20535 H 1942.88 -1.40797 -0.732246 0
M  V30 20536 H 1942.91 -1.61457 -3.44546 0
M  V30 20537 H 1942.42 -3.08118 -2.35976 0
M  V30 20538 H 1940.52 -0.951474 -3.60247 0
M  V30 20539 H 1940.63 -2.8157 -3.87628 0
M  V30 20540 H 1939 -1.41752 -2.11609 0
M  V30 20541 H 1939.78 -3.01836 -1.63554 0
M  V30 20542 N 1942.22 1.12672 -1.10194 0
M  V30 20543 C 1943.19 2.16513 -0.751974 0
M  V30 20544 C 1944.19 1.59255 0.222352 0
M  V30 20545 O 1945.38 1.742 -0.000482744 0
M  V30 20546 C 1942.51 3.40711 -0.113421 0
M  V30 20547 H 1943.7 2.48986 -1.67171 0
M  V30 20548 H 1941.25 1.27637 -0.90214 0
M  V30 20549 H 1941.99 3.13836 0.817162 0
M  V30 20550 H 1941.77 3.83545 -0.814599 0
M  V30 20551 H 1943.26 4.1744 0.115756 0
M  V30 20552 N 1943.7 0.89031 1.30043 0
M  V30 20553 C 1944.63 0.377386 2.3043 0
M  V30 20554 C 1945.61 -0.542607 1.61213 0
M  V30 20555 O 1946.8 -0.455328 1.88787 0
M  V30 20556 C 1943.93 -0.404264 3.44939 0
M  V30 20557 C 1942.88 0.424448 4.2589 0
M  V30 20558 C 1942.21 -0.48413 5.32504 0
M  V30 20559 C 1943.51 1.6694 4.94902 0
M  V30 20560 H 1945.2 1.21628 2.73582 0
M  V30 20561 H 1942.75 0.586299 1.31524 0
M  V30 20562 H 1944.7 -0.773769 4.14235 0
M  V30 20563 H 1943.42 -1.27685 3.00606 0
M  V30 20564 H 1942.08 0.776162 3.58289 0
M  V30 20565 H 1941.73 -1.35458 4.84417 0
M  V30 20566 H 1941.43 0.0665939 5.87562 0
M  V30 20567 H 1942.96 -0.850034 6.04654 0
M  V30 20568 H 1944.37 1.37017 5.56686 0
M  V30 20569 H 1942.77 2.16073 5.59851 0
M  V30 20570 H 1943.84 2.41077 4.20725 0
M  V30 20571 N 1945.18 -1.43489 0.651812 0
M  V30 20572 C 1946.43 -2.01431 0.164307 0
M  V30 20573 C 1946.75 -1.51674 -1.22556 0
M  V30 20574 O 1946.02 -0.728791 -1.81839 0
M  V30 20575 H 1944.6 -0.744764 0.0577525 0
M  V30 20576 H 1947.26 -1.75718 0.843164 0
M  V30 20577 H 1946.36 -3.1175 0.147848 0
M  V30 20578 N 1946.66 -0.393643 -1.52605 0
M  V30 20579 C 1947.59 0.474548 -2.24234 0
M  V30 20580 C 1948.6 1.02311 -1.26634 0
M  V30 20581 O 1949.79 0.924695 -1.52681 0
M  V30 20582 C 1946.89 1.67083 -2.9485 0
M  V30 20583 C 1946.06 1.24889 -4.19192 0
M  V30 20584 C 1945.12 2.31034 -4.72768 0
M  V30 20585 O 1944.15 1.92263 -5.35746 0
M  V30 20586 N 1945.35 3.63004 -4.52999 0
M  V30 20587 H 1948.12 -0.139149 -2.99377 0
M  V30 20588 H 1945.68 -0.220221 -1.60395 0
M  V30 20589 H 1947.67 2.37626 -3.27591 0
M  V30 20590 H 1946.24 2.19078 -2.22988 0
M  V30 20591 H 1945.46 0.372176 -3.92439 0
M  V30 20592 H 1946.75 0.94369 -4.99972 0
M  V30 20593 H 1946.15 3.97263 -4.02739 0
M  V30 20594 H 1944.7 4.29568 -4.90219 0
M  V30 20595 N 1948.14 1.57115 -0.123593 0
M  V30 20596 C 1949.07 2.11281 0.862306 0
M  V30 20597 C 1950.05 1.03036 1.25787 0
M  V30 20598 O 1951.23 1.3072 1.35811 0
M  V30 20599 C 1948.36 2.61329 2.15464 0
M  V30 20600 C 1947.4 3.81502 1.90679 0
M  V30 20601 S 1948.24 5.2368 1.11891 0
M  V30 20602 C 1949.39 5.771 2.42294 0
M  V30 20603 H 1949.63 2.94575 0.401603 0
M  V30 20604 H 1947.16 1.54136 0.0902687 0
M  V30 20605 H 1949.12 2.90818 2.89715 0
M  V30 20606 H 1947.78 1.78208 2.58651 0
M  V30 20607 H 1946.97 4.14685 2.86448 0
M  V30 20608 H 1946.57 3.52653 1.24547 0
M  V30 20609 H 1948.86 5.87105 3.38104 0
M  V30 20610 H 1949.81 6.751 2.13649 0
M  V30 20611 H 1950.22 5.05194 2.51871 0
M  V30 20612 N 1949.61 -0.150187 1.56883 0
M  V30 20613 C 1951.02 -0.710574 1.72649 0
M  V30 20614 C 1951.38 -1.81812 0.737493 0
M  V30 20615 O 1950.5 -2.16184 -0.0965795 0
M  V30 20616 C 1951.1 -1.29572 3.13044 0
M  V30 20617 C 1949.65 -1.80271 3.30423 0
M  V30 20618 C 1948.8 -0.689923 2.6858 0
M  V30 20619 H 1951.75 0.0754473 1.58521 0
M  V30 20620 H 1951.77 -2.16552 3.12867 0
M  V30 20621 H 1951.29 -0.489412 3.85002 0
M  V30 20622 H 1949.39 -2.63479 2.63457 0
M  V30 20623 H 1949.5 -1.93362 4.38347 0
M  V30 20624 H 1947.86 -1.11574 2.28961 0
M  V30 20625 H 1948.65 0.104892 3.4314 0
M  V30 20626 N 1951.09 -1.51916 -0.419434 0
M  V30 20627 C 1952.34 -1.64698 -1.16436 0
M  V30 20628 C 1952.65 -0.377878 -1.91915 0
M  V30 20629 O 1953.86 -0.385341 -2.68752 0
M  V30 20630 C 1952.32 -2.90939 -2.11854 0
M  V30 20631 C 1951.92 -4.2492 -1.4194 0
M  V30 20632 C 1953.67 -3.13083 -2.86669 0
M  V30 20633 C 1951.58 -5.42294 -2.35946 0
M  V30 20634 H 1950.51 -0.613496 -0.438337 0
M  V30 20635 H 1953.16 -1.78397 -0.429738 0
M  V30 20636 H 1951.54 -2.70916 -2.88826 0
M  V30 20637 H 1952.71 -4.5539 -0.70403 0
M  V30 20638 H 1951.03 -4.08797 -0.792071 0
M  V30 20639 H 1953.62 -3.97951 -3.57127 0
M  V30 20640 H 1953.97 -2.26891 -3.49036 0
M  V30 20641 H 1954.5 -3.33531 -2.168 0
M  V30 20642 H 1951.24 -6.30801 -1.78242 0
M  V30 20643 H 1950.76 -5.16177 -3.05485 0
M  V30 20644 H 1952.44 -5.74962 -2.96695 0
M  V30 20645 N 1952.57 0.676023 -1.42365 0
M  V30 20646 C 1953.8 1.46937 -1.46371 0
M  V30 20647 C 1954.22 1.87946 -0.076099 0
M  V30 20648 O 1953.58 1.55917 0.925172 0
M  V30 20649 C 1953.63 2.69558 -2.39523 0
M  V30 20650 O 1952.73 3.67782 -1.86575 0
M  V30 20651 H 1952.07 0.441478 -0.495977 0
M  V30 20652 H 1954.6 0.829284 -1.8704 0
M  V30 20653 H 1954.61 3.17642 -2.56061 0
M  V30 20654 H 1953.29 2.39049 -3.40336 0
M  V30 20655 H 1951.86 3.26808 -1.79585 0
M  V30 20656 N 1954.05 1.28517 0.912209 0
M  V30 20657 C 1955.46 1.14251 1.4766 0
M  V30 20658 C 1955.81 -0.266935 1.94376 0
M  V30 20659 O 1954.94 -1.16134 1.82598 0
M  V30 20660 C 1955.53 2.06792 2.6837 0
M  V30 20661 C 1954.09 1.96587 3.20984 0
M  V30 20662 C 1953.24 1.98444 1.93689 0
M  V30 20663 H 1956.19 1.41184 0.724769 0
M  V30 20664 H 1956.21 1.63282 3.43685 0
M  V30 20665 H 1955.72 3.09365 2.34339 0
M  V30 20666 H 1953.82 0.970565 3.59737 0
M  V30 20667 H 1953.93 2.83622 3.86129 0
M  V30 20668 H 1952.3 1.42872 2.10855 0
M  V30 20669 H 1953.08 3.02699 1.61951 0
M  V30 20670 N 1955.53 -1.12086 1.1079 0
M  V30 20671 C 1956.8 -1.80039 0.764549 0
M  V30 20672 C 1957.18 -1.97387 -0.748429 0
M  V30 20673 O 1956.53 -1.55315 -1.67599 0
M  V30 20674 C 1956.74 -3.14168 1.51985 0
M  V30 20675 C 1958.09 -3.89311 1.69476 0
M  V30 20676 O 1959.11 -3.23836 1.48354 0
M  V30 20677 O 1957.97 -5.06786 2.04524 0
M  V30 20678 H 1955.07 -0.779498 0.276246 0
M  V30 20679 H 1957.61 -1.18889 1.21093 0
M  V30 20680 H 1956.38 -2.96854 2.54938 0
M  V30 20681 H 1956.01 -3.83027 1.06658 0
M  V30 20682 N 1957 -0.897194 -1.29569 0
M  V30 20683 C 1957.93 -0.389601 -2.30227 0
M  V30 20684 C 1958.92 0.53405 -1.61499 0
M  V30 20685 O 1960.1 0.44531 -1.89025 0
M  V30 20686 C 1957.23 0.385966 -3.45149 0
M  V30 20687 C 1956.18 -0.447028 -4.25659 0
M  V30 20688 C 1955.51 0.455883 -5.32753 0
M  V30 20689 C 1956.81 -1.69562 -4.9401 0
M  V30 20690 H 1958.5 -1.23077 -2.72933 0
M  V30 20691 H 1956.05 -0.593265 -1.31211 0
M  V30 20692 H 1958 0.751791 -4.1464 0
M  V30 20693 H 1956.73 1.26089 -3.01279 0
M  V30 20694 H 1955.39 -0.795152 -3.57873 0
M  V30 20695 H 1955.03 1.32887 -4.85129 0
M  V30 20696 H 1954.73 -0.0977528 -5.87519 0
M  V30 20697 H 1956.26 0.817956 -6.05097 0
M  V30 20698 H 1957.67 -1.39968 -5.55951 0
M  V30 20699 H 1956.07 -2.19039 -5.58697 0
M  V30 20700 H 1957.14 -2.43305 -4.19441 0
M  V30 20701 N 1958.48 1.43142 -0.659413 0
M  V30 20702 C 1959.71 2.06603 -0.181642 0
M  V30 20703 C 1960.13 1.49137 1.14629 0
M  V30 20704 O 1959.49 0.603739 1.70952 0
M  V30 20705 C 1959.54 3.6043 -0.110662 0
M  V30 20706 O 1958.64 4.01884 0.925344 0
M  V30 20707 H 1957.98 0.656771 -0.097712 0
M  V30 20708 H 1960.51 1.83541 -0.904086 0
M  V30 20709 H 1960.52 4.07939 0.0706089 0
M  V30 20710 H 1959.2 4.01632 -1.08002 0
M  V30 20711 H 1957.78 3.65954 0.716361 0
M  V30 20712 N 1959.96 0.40173 1.52394 0
M  V30 20713 C 1960.91 -0.444585 2.23623 0
M  V30 20714 C 1961.89 -1.01953 1.24477 0
M  V30 20715 O 1963.09 -0.943572 1.49752 0
M  V30 20716 C 1960.22 -1.5647 3.05568 0
M  V30 20717 C 1959.3 -1.00089 4.1212 0
M  V30 20718 N 1959.69 -0.163095 5.05537 0
M  V30 20719 C 1957.99 -1.27214 4.27472 0
M  V30 20720 C 1958.69 0.149768 5.81507 0
M  V30 20721 N 1957.67 -0.457445 5.41672 0
M  V30 20722 H 1961.47 0.201895 2.93206 0
M  V30 20723 H 1958.98 0.211732 1.61014 0
M  V30 20724 H 1960.98 -2.18353 3.55145 0
M  V30 20725 H 1959.64 -2.21388 2.37524 0
M  V30 20726 H 1960.65 0.200633 5.17511 0
M  V30 20727 H 1957.33 -1.92145 3.70657 0
M  V30 20728 H 1958.72 0.829351 6.66762 0
M  V30 20729 N 1961.44 -1.57047 0.131923 0
M  V30 20730 C 1962.67 -1.99989 -0.530289 0
M  V30 20731 C 1963.08 -1.01182 -1.59397 0
M  V30 20732 O 1962.44 -0.00657368 -1.82499 0
M  V30 20733 C 1962.49 -3.42898 -1.14469 0
M  V30 20734 O 1962.21 -4.37926 -0.123503 0
M  V30 20735 C 1963.71 -4.0104 -1.88897 0
M  V30 20736 H 1960.93 -0.656371 -0.139348 0
M  V30 20737 H 1963.48 -2.03291 0.222069 0
M  V30 20738 H 1961.63 -3.40495 -1.84775 0
M  V30 20739 H 1962.04 -5.21376 -0.571587 0
M  V30 20740 H 1963.52 -5.03077 -2.27196 0
M  V30 20741 H 1964 -3.40903 -2.76915 0
M  V30 20742 H 1964.6 -4.07027 -1.23324 0
M  V30 20743 N 1962.92 0.141865 -1.5696 0
M  V30 20744 C 1964.14 0.868403 -1.87793 0
M  V30 20745 C 1964.56 1.74504 -0.720691 0
M  V30 20746 O 1963.92 1.79859 0.309372 0
M  V30 20747 C 1963.97 1.72086 -3.17913 0
M  V30 20748 O 1963.69 0.879548 -4.2918 0
M  V30 20749 C 1965.19 2.55454 -3.62296 0
M  V30 20750 H 1962.41 0.250842 -0.62235 0
M  V30 20751 H 1964.95 0.133113 -2.04066 0
M  V30 20752 H 1963.11 2.40915 -3.03379 0
M  V30 20753 H 1963.52 1.4653 -5.03616 0
M  V30 20754 H 1965 3.10834 -4.56165 0
M  V30 20755 H 1965.47 3.31735 -2.87834 0
M  V30 20756 H 1966.08 1.91906 -3.79542 0
M  V30 20757 N 1964.39 1.52136 0.411372 0
M  V30 20758 C 1965.32 1.78277 1.50796 0
M  V30 20759 C 1966.31 0.633643 1.57857 0
M  V30 20760 O 1967.49 0.879011 1.73168 0
M  V30 20761 C 1964.62 1.93142 2.88641 0
M  V30 20762 C 1963.57 3.08727 2.96431 0
M  V30 20763 C 1962.9 3.08812 4.36508 0
M  V30 20764 C 1964.2 4.48228 2.68122 0
M  V30 20765 H 1965.89 2.70102 1.29171 0
M  V30 20766 H 1963.44 1.29971 0.619965 0
M  V30 20767 H 1965.39 2.10012 3.65339 0
M  V30 20768 H 1964.12 0.979869 3.11554 0
M  V30 20769 H 1962.78 2.91604 2.22177 0
M  V30 20770 H 1962.42 2.11383 4.56428 0
M  V30 20771 H 1962.12 3.86444 4.42645 0
M  V30 20772 H 1963.65 3.27809 5.15144 0
M  V30 20773 H 1965.06 4.65568 3.34544 0
M  V30 20774 H 1963.46 5.27761 2.85638 0
M  V30 20775 H 1964.53 4.56478 1.63572 0
M  V30 20776 N 1965.87 -0.668464 1.42721 0
M  V30 20777 C 1967.1 -1.46158 1.47148 0
M  V30 20778 C 1967.52 -1.87903 0.0860652 0
M  V30 20779 O 1966.88 -1.56406 -0.91689 0
M  V30 20780 C 1966.93 -2.68284 2.40949 0
M  V30 20781 O 1966.03 -3.66787 1.88522 0
M  V30 20782 H 1965.37 -0.438842 0.498311 0
M  V30 20783 H 1967.9 -0.819353 1.87477 0
M  V30 20784 H 1967.91 -3.1628 2.57742 0
M  V30 20785 H 1966.59 -2.3724 3.41599 0
M  V30 20786 H 1965.17 -3.25851 1.81315 0
M  V30 20787 N 1967.35 -1.28999 -0.905381 0
M  V30 20788 C 1968.28 -1.16189 -2.0254 0
M  V30 20789 C 1969.26 -0.0575293 -1.70003 0
M  V30 20790 O 1970.45 -0.236004 -1.92761 0
M  V30 20791 C 1967.58 -0.831704 -3.37194 0
M  V30 20792 C 1966.53 -1.89176 -3.83922 0
M  V30 20793 C 1965.86 -1.41501 -5.15637 0
M  V30 20794 C 1967.16 -3.29971 -4.04866 0
M  V30 20795 H 1968.85 -2.09886 -2.13514 0
M  V30 20796 H 1966.4 -1.0105 -1.02591 0
M  V30 20797 H 1968.35 -0.728825 -4.1505 0
M  V30 20798 H 1967.07 0.140958 -3.26296 0
M  V30 20799 H 1965.73 -1.98393 -3.08279 0
M  V30 20800 H 1965.38 -0.431182 -5.01149 0
M  V30 20801 H 1965.08 -2.12391 -5.47872 0
M  V30 20802 H 1966.61 -1.32552 -5.96039 0
M  V30 20803 H 1968.02 -3.23628 -4.73221 0
M  V30 20804 H 1966.42 -3.98768 -4.48447 0
M  V30 20805 H 1967.49 -3.73369 -3.09393 0
M  V30 20806 N 1968.83 1.11497 -1.11383 0
M  V30 20807 C 1970.11 1.79631 -0.774086 0
M  V30 20808 C 1970.49 1.97781 0.737951 0
M  V30 20809 O 1969.83 1.56202 1.66773 0
M  V30 20810 C 1970.04 3.13357 -1.53649 0
M  V30 20811 C 1971.39 3.88407 -1.71538 0
M  V30 20812 O 1972.42 3.23045 -1.50069 0
M  V30 20813 O 1971.28 5.05694 -2.07209 0
M  V30 20814 H 1968.37 0.778022 -0.280376 0
M  V30 20815 H 1970.92 1.18245 -1.21722 0
M  V30 20816 H 1969.69 2.95498 -2.56509 0
M  V30 20817 H 1969.31 3.82456 -1.08688 0
M  V30 20818 N 1970.31 0.904053 1.29092 0
M  V30 20819 C 1971.55 0.532203 1.95381 0
M  V30 20820 C 1971.88 -0.922327 1.71241 0
M  V30 20821 O 1971.14 -1.66968 1.02079 0
M  V30 20822 C 1971.44 0.776255 3.48868 0
M  V30 20823 C 1971.1 2.20882 3.93093 0
M  V30 20824 C 1969.76 2.60052 4.04878 0
M  V30 20825 C 1972.12 3.14152 4.15882 0
M  V30 20826 C 1969.44 3.91663 4.36826 0
M  V30 20827 C 1971.8 4.45317 4.49306 0
M  V30 20828 C 1970.46 4.84354 4.59301 0
M  V30 20829 H 1969.73 0.194747 0.714951 0
M  V30 20830 H 1972.38 1.14354 1.53608 0
M  V30 20831 H 1970.68 0.0820369 3.91714 0
M  V30 20832 H 1972.38 0.467861 3.98261 0
M  V30 20833 H 1968.97 1.89485 3.84439 0
M  V30 20834 H 1973.15 2.85103 4.06239 0
M  V30 20835 H 1968.41 4.21623 4.42769 0
M  V30 20836 H 1972.58 5.17611 4.65888 0
M  V30 20837 H 1970.21 5.86371 4.83811 0
M  V30 20838 N 1971.79 -1.4279 0.666995 0
M  V30 20839 C 1973.01 -2.06504 0.192596 0
M  V30 20840 C 1973.44 -1.49743 -1.13836 0
M  V30 20841 O 1972.79 -0.612797 -1.7063 0
M  V30 20842 C 1972.84 -3.60366 0.129775 0
M  V30 20843 O 1971.95 -4.0237 -0.904018 0
M  V30 20844 H 1971.29 -0.656244 0.101194 0
M  V30 20845 H 1973.82 -1.83059 0.913807 0
M  V30 20846 H 1973.83 -4.07971 -0.0489739 0
M  V30 20847 H 1972.5 -4.01054 1.1013 0
M  V30 20848 H 1971.08 -3.66329 -0.696943 0
M  V30 20849 N 1973.26 -0.409806 -1.52179 0
M  V30 20850 C 1974.2 0.450738 -2.24724 0
M  V30 20851 C 1975.21 1.00962 -1.27713 0
M  V30 20852 O 1976.4 0.908449 -1.53654 0
M  V30 20853 C 1973.5 1.63947 -2.96605 0
M  V30 20854 C 1972.67 1.20435 -4.20493 0
M  V30 20855 C 1971.73 2.26007 -4.75192 0
M  V30 20856 O 1970.76 1.86569 -5.37755 0
M  V30 20857 N 1971.96 3.58179 -4.56824 0
M  V30 20858 H 1974.72 -0.170894 -2.99212 0
M  V30 20859 H 1972.28 -0.237221 -1.60153 0
M  V30 20860 H 1974.28 2.34138 -3.30093 0
M  V30 20861 H 1972.85 2.16701 -2.25299 0
M  V30 20862 H 1972.07 0.330532 -3.92812 0
M  V30 20863 H 1973.35 0.890608 -5.00945 0
M  V30 20864 H 1972.75 3.92969 -4.0693 0
M  V30 20865 H 1971.31 4.24345 -4.94747 0
M  V30 20866 N 1974.74 1.56975 -0.14025 0
M  V30 20867 C 1975.97 2.00267 0.519675 0
M  V30 20868 C 1976.38 1.02026 1.58859 0
M  V30 20869 O 1975.74 0.0162519 1.82493 0
M  V30 20870 C 1975.79 3.435 1.12648 0
M  V30 20871 O 1975.51 4.37985 0.100277 0
M  V30 20872 C 1977.01 4.02036 1.86767 0
M  V30 20873 H 1974.23 0.657101 0.135865 0
M  V30 20874 H 1976.78 2.0317 -0.232847 0
M  V30 20875 H 1974.93 3.4147 1.82967 0
M  V30 20876 H 1975.35 5.21672 0.543929 0
M  V30 20877 H 1976.82 5.04274 2.24525 0
M  V30 20878 H 1977.3 3.42367 2.75103 0
M  V30 20879 H 1977.9 4.07676 1.21163 0
M  V30 20880 N 1976.22 -0.133539 1.57033 0
M  V30 20881 C 1977.17 -1.18356 2.00237 0
M  V30 20882 C 1978.16 -1.43708 0.896902 0
M  V30 20883 O 1979.37 -1.43842 1.0821 0
M  V30 20884 H 1975.74 -0.398709 0.637601 0
M  V30 20885 H 1977.71 -0.792575 2.87682 0
M  V30 20886 C 1976.46 -2.50593 2.41036 0
M  V30 20887 H 1975.79 -2.31919 3.25659 0
M  V30 20888 H 1977.23 -3.22659 2.75077 0
M  V30 20889 C 1975.68 -3.12117 1.26826 0
M  V30 20890 O 1976.21 -3.97545 0.576298 0
M  V30 20891 N 1974.42 -2.7177 1.02904 0
M  V30 20892 H 1973.97 -2.02398 1.59352 0
M  V30 20893 H 1973.93 -3.13266 0.266798 0
M  V30 20894 N 1977.7 -1.52352 -0.403298 0
M  V30 20895 C 1978.63 -1.79074 -1.49849 0
M  V30 20896 C 1979.61 -0.642006 -1.57519 0
M  V30 20897 O 1980.79 -0.888182 -1.72699 0
M  V30 20898 C 1977.92 -1.9467 -2.87612 0
M  V30 20899 C 1976.88 -3.10295 -2.9479 0
M  V30 20900 C 1976.2 -3.11122 -4.34864 0
M  V30 20901 C 1977.5 -4.49643 -2.65741 0
M  V30 20902 H 1979.2 -2.70783 -1.27737 0
M  V30 20903 H 1976.74 -1.30298 -0.613064 0
M  V30 20904 H 1978.7 -2.11947 -3.64221 0
M  V30 20905 H 1977.42 -0.996377 -3.1103 0
M  V30 20906 H 1976.08 -2.92778 -2.20627 0
M  V30 20907 H 1975.73 -2.13801 -4.553 0
M  V30 20908 H 1975.43 -3.88786 -4.4059 0
M  V30 20909 H 1976.95 -3.30536 -5.13399 0
M  V30 20910 H 1978.37 -4.67335 -3.3207 0
M  V30 20911 H 1976.76 -5.29268 -2.82835 0
M  V30 20912 H 1977.83 -4.57339 -1.61149 0
M  V30 20913 N 1979.18 0.660885 -1.43074 0
M  V30 20914 C 1980.4 1.45376 -1.47921 0
M  V30 20915 C 1980.83 1.87855 -0.0960289 0
M  V30 20916 O 1980.18 1.5689 0.908583 0
M  V30 20917 C 1980.23 2.67002 -2.42368 0
M  V30 20918 O 1979.34 3.65783 -1.90465 0
M  V30 20919 H 1978.68 0.436193 -0.500632 0
M  V30 20920 H 1981.21 0.809399 -1.87909 0
M  V30 20921 H 1981.22 3.14909 -2.59416 0
M  V30 20922 H 1979.89 2.35426 -3.42852 0
M  V30 20923 H 1978.47 3.24885 -1.83041 0
M  V30 20924 N 1980.65 1.29477 0.898527 0
M  V30 20925 C 1982.07 1.15811 1.4644 0
M  V30 20926 C 1982.42 -0.246304 1.94648 0
M  V30 20927 O 1981.54 -1.1419 1.83819 0
M  V30 20928 C 1982.14 2.09627 2.66161 0
M  V30 20929 C 1980.7 1.9998 3.18881 0
M  V30 20930 C 1979.84 2.00487 1.91573 0
M  V30 20931 H 1982.79 1.41944 0.709754 0
M  V30 20932 H 1982.81 1.66918 3.41934 0
M  V30 20933 H 1982.33 3.11834 2.31044 0
M  V30 20934 H 1980.43 1.00867 3.58687 0
M  V30 20935 H 1980.54 2.87701 3.83099 0
M  V30 20936 H 1978.9 1.451 2.09327 0
M  V30 20937 H 1979.69 3.044 1.58731 0
M  V30 20938 N 1982.13 -1.10905 1.11972 0
M  V30 20939 C 1983.04 -2.20682 0.796029 0
M  V30 20940 C 1984.06 -1.72689 -0.213158 0
M  V30 20941 O 1985.23 -2.01343 -0.047955 0
M  V30 20942 C 1982.3 -3.45797 0.250055 0
M  V30 20943 C 1981.36 -4.08549 1.31855 0
M  V30 20944 C 1980.59 -5.27692 0.798538 0
M  V30 20945 O 1980.82 -5.69202 -0.369435 0
M  V30 20946 O 1979.75 -5.81174 1.5659 0
M  V30 20947 H 1983.58 -2.50794 1.71278 0
M  V30 20948 H 1981.16 -1.19548 0.896024 0
M  V30 20949 H 1983.04 -4.21371 -0.0497791 0
M  V30 20950 H 1981.72 -3.17324 -0.639327 0
M  V30 20951 H 1980.63 -3.34682 1.67148 0
M  V30 20952 H 1981.96 -4.41215 2.18153 0
M  V30 20953 N 1983.61 -0.910886 -1.2861 0
M  V30 20954 C 1984.54 -0.413998 -2.29801 0
M  V30 20955 C 1985.52 0.51689 -1.62056 0
M  V30 20956 O 1986.71 0.425236 -1.89487 0
M  V30 20957 C 1983.84 0.349336 -3.45539 0
M  V30 20958 C 1982.79 -0.49215 -4.25161 0
M  V30 20959 C 1982.12 0.399352 -5.33207 0
M  V30 20960 C 1983.42 -1.74792 -4.92184 0
M  V30 20961 H 1985.11 -1.25965 -2.71612 0
M  V30 20962 H 1982.66 -0.607149 -1.30575 0
M  V30 20963 H 1984.61 0.70777 -4.15414 0
M  V30 20964 H 1983.33 1.22887 -3.02599 0
M  V30 20965 H 1981.99 -0.833064 -3.57009 0
M  V30 20966 H 1981.64 1.27734 -4.86511 0
M  V30 20967 H 1981.34 -0.160062 -5.87382 0
M  V30 20968 H 1982.86 0.753731 -6.0593 0
M  V30 20969 H 1984.28 -1.45856 -5.54436 0
M  V30 20970 H 1982.68 -2.24952 -5.56342 0
M  V30 20971 H 1983.75 -2.4774 -4.16837 0
M  V30 20972 N 1985.09 1.42434 -0.674558 0
M  V30 20973 C 1986.31 2.06399 -0.203545 0
M  V30 20974 C 1986.74 1.50345 1.1304 0
M  V30 20975 O 1986.1 0.621837 1.70302 0
M  V30 20976 C 1986.14 3.60293 -0.148884 0
M  V30 20977 O 1985.25 4.02843 0.882667 0
M  V30 20978 H 1984.59 0.655698 -0.104672 0
M  V30 20979 H 1987.12 1.82572 -0.923502 0
M  V30 20980 H 1987.13 4.07991 0.0273375 0
M  V30 20981 H 1985.8 4.00464 -1.12256 0
M  V30 20982 H 1984.38 3.66694 0.677506 0
M  V30 20983 N 1986.57 0.417871 1.51959 0
M  V30 20984 C 1987.5 -0.438814 2.2496 0
M  V30 20985 C 1988.51 -1.00283 1.28246 0
M  V30 20986 O 1989.7 -0.900288 1.54133 0
M  V30 20987 C 1986.8 -1.62371 2.97471 0
M  V30 20988 C 1985.97 -1.18204 4.21125 0
M  V30 20989 C 1985.03 -2.23484 4.76384 0
M  V30 20990 O 1984.06 -1.83715 5.38737 0
M  V30 20991 N 1985.26 -3.55751 4.58717 0
M  V30 20992 H 1988.03 0.18676 2.99118 0
M  V30 20993 H 1985.59 0.245711 1.60025 0
M  V30 20994 H 1987.58 -2.32385 3.3133 0
M  V30 20995 H 1986.15 -2.15503 2.26445 0
M  V30 20996 H 1985.37 -0.309696 3.92982 0
M  V30 20997 H 1986.66 -0.86403 5.0141 0
M  V30 20998 H 1986.05 -3.90806 4.09008 0
M  V30 20999 H 1984.61 -4.21715 4.96991 0
M  V30 21000 N 1988.04 -1.56898 0.148573 0
M  V30 21001 C 1989.27 -2.0054 -0.509047 0
M  V30 21002 C 1989.69 -1.02867 -1.58315 0
M  V30 21003 O 1989.04 -0.0259297 -1.82482 0
M  V30 21004 C 1989.1 -3.44093 -1.10825 0
M  V30 21005 O 1988.82 -4.38032 -0.077048 0
M  V30 21006 C 1990.32 -4.03021 -1.84633 0
M  V30 21007 H 1987.54 -0.657812 -0.132378 0
M  V30 21008 H 1990.08 -2.03044 0.243618 0
M  V30 21009 H 1988.24 -3.42436 -1.81153 0
M  V30 21010 H 1988.65 -5.21953 -0.516256 0
M  V30 21011 H 1990.12 -5.05458 -2.21847 0
M  V30 21012 H 1990.6 -3.43821 -2.73283 0
M  V30 21013 H 1991.21 -4.08313 -1.19 0
M  V30 21014 N 1989.52 0.125209 -1.57102 0
M  V30 21015 C 1990.47 1.17292 -2.00861 0
M  V30 21016 C 1991.46 1.4323 -0.904511 0
M  V30 21017 O 1992.67 1.43266 -1.08972 0
M  V30 21018 H 1989.05 0.395322 -0.639706 0
M  V30 21019 H 1991.02 0.777307 -2.88098 0
M  V30 21020 C 1989.77 2.49311 -2.42362 0
M  V30 21021 H 1989.09 2.30188 -3.26884 0
M  V30 21022 H 1990.53 3.21196 -2.76784 0
M  V30 21023 C 1988.99 3.1144 -1.2848 0
M  V30 21024 O 1989.52 3.97233 -0.597373 0
M  V30 21025 N 1987.72 2.71221 -1.04344 0
M  V30 21026 H 1987.27 2.0155 -1.60423 0
M  V30 21027 H 1987.23 3.1312 -0.283408 0
M  V30 21028 N 1991 1.52564 0.395213 0
M  V30 21029 C 1991.93 1.79867 1.48897 0
M  V30 21030 C 1992.91 0.650351 1.57176 0
M  V30 21031 O 1994.1 0.897328 1.72226 0
M  V30 21032 C 1991.23 1.96192 2.86576 0
M  V30 21033 C 1990.18 3.11854 2.9314 0
M  V30 21034 C 1989.51 3.13424 4.33208 0
M  V30 21035 C 1990.81 4.51046 2.63353 0
M  V30 21036 H 1992.5 2.71457 1.26299 0
M  V30 21037 H 1990.05 1.30621 0.606145 0
M  V30 21038 H 1992 2.13875 3.63091 0
M  V30 21039 H 1990.72 1.01286 3.10498 0
M  V30 21040 H 1989.38 2.93944 2.19072 0
M  V30 21041 H 1989.03 2.16212 4.5416 0
M  V30 21042 H 1988.73 3.91117 4.38522 0
M  V30 21043 H 1990.25 3.33254 5.11639 0
M  V30 21044 H 1991.67 4.6909 3.29587 0
M  V30 21045 H 1990.07 5.3076 2.80024 0
M  V30 21046 H 1991.14 4.58187 1.58722 0
M  V30 21047 N 1992.48 -0.653289 1.43422 0
M  V30 21048 C 1993.7 -1.4459 1.4869 0
M  V30 21049 C 1994.13 -1.87801 0.10599 0
M  V30 21050 O 1993.49 -1.5737 -0.90025 0
M  V30 21051 C 1993.53 -2.65713 2.43781 0
M  V30 21052 O 1992.64 -3.64767 1.92402 0
M  V30 21053 H 1991.98 -0.433532 0.502938 0
M  V30 21054 H 1994.51 -0.799423 1.88336 0
M  V30 21055 H 1994.52 -3.13528 2.61082 0
M  V30 21056 H 1993.19 -2.33604 3.44096 0
M  V30 21057 H 1991.77 -3.2391 1.84761 0
M  V30 21058 N 1993.96 -1.29952 -0.891648 0
M  V30 21059 C 1995.37 -1.16586 -1.45824 0
M  V30 21060 C 1995.72 0.235978 -1.94776 0
M  V30 21061 O 1994.84 1.13214 -1.84422 0
M  V30 21062 C 1995.44 -2.11036 -2.65046 0
M  V30 21063 C 1994 -2.01668 -3.17816 0
M  V30 21064 C 1993.14 -2.015 -1.90507 0
M  V30 21065 H 1996.1 -1.42319 -0.702216 0
M  V30 21066 H 1996.12 -1.68729 -3.41044 0
M  V30 21067 H 1995.63 -3.13054 -2.29387 0
M  V30 21068 H 1993.73 -1.02767 -3.58147 0
M  V30 21069 H 1993.84 -2.89729 -3.81568 0
M  V30 21070 H 1992.21 -1.46209 -2.08555 0
M  V30 21071 H 1992.99 -3.05237 -1.57115 0
M  V30 21072 N 1995.44 1.1031 -1.12559 0
M  V30 21073 C 1996.4 2.14869 -0.79773 0
M  V30 21074 C 1997.4 1.59691 0.188521 0
M  V30 21075 O 1998.59 1.7416 -0.037433 0
M  V30 21076 C 1995.72 3.40394 -0.185665 0
M  V30 21077 H 1996.91 2.45384 -1.72415 0
M  V30 21078 H 1994.47 1.25694 -0.929011 0
M  V30 21079 H 1995.2 3.15499 0.750409 0
M  V30 21080 H 1994.99 3.81731 -0.895771 0
M  V30 21081 H 1996.48 4.17591 0.0271848 0
M  V30 21082 N 1996.91 0.917694 1.28125 0
M  V30 21083 C 1997.84 0.426179 2.29578 0
M  V30 21084 C 1998.82 -0.508289 1.62328 0
M  V30 21085 O 2000.01 -0.415181 1.8971 0
M  V30 21086 C 1997.14 -0.331007 3.45719 0
M  V30 21087 C 1996.09 0.51469 4.24894 0
M  V30 21088 C 1995.42 -0.371069 5.33411 0
M  V30 21089 C 1996.72 1.774 4.9125 0
M  V30 21090 H 1998.41 1.27403 2.7094 0
M  V30 21091 H 1995.96 0.614065 1.30251 0
M  V30 21092 H 1997.91 -0.68573 4.15783 0
M  V30 21093 H 1996.64 -1.2128 3.03247 0
M  V30 21094 H 1995.3 0.851986 3.56562 0
M  V30 21095 H 1994.94 -1.25152 4.87182 0
M  V30 21096 H 1994.64 0.19121 5.87289 0
M  V30 21097 H 1996.17 -0.721587 6.06321 0
M  V30 21098 H 1997.58 1.48795 5.53654 0
M  V30 21099 H 1995.98 2.27899 5.55141 0
M  V30 21100 H 1997.05 2.49947 4.15517 0
M  V30 21101 N 1998.39 -1.42074 0.682102 0
M  V30 21102 C 1999.64 -2.01037 0.206997 0
M  V30 21103 C 1999.96 -1.5424 -1.19311 0
M  V30 21104 O 1999.23 -0.767197 -1.80252 0
M  V30 21105 H 1997.81 -0.743372 0.073537 0
M  V30 21106 H 2000.47 -1.7389 0.880247 0
M  V30 21107 H 1999.57 -3.11366 0.213942 0
M  V30 21108 N 1999.87 -0.425924 -1.51735 0
M  V30 21109 C 2000.8 0.426878 -2.2519 0
M  V30 21110 C 2001.81 0.996019 -1.28776 0
M  V30 21111 O 2003 0.892101 -1.54609 0
M  V30 21112 C 2000.1 1.60792 -2.98327 0
M  V30 21113 C 1999.28 1.15969 -4.21746 0
M  V30 21114 C 1998.34 2.20954 -4.77562 0
M  V30 21115 O 1997.36 1.80855 -5.39704 0
M  V30 21116 N 1998.56 3.53313 -4.60597 0
M  V30 21117 H 2001.33 -0.20262 -2.99014 0
M  V30 21118 H 1998.89 -0.254194 -1.59892 0
M  V30 21119 H 2000.88 2.30624 -3.32558 0
M  V30 21120 H 1999.45 2.14299 -2.27585 0
M  V30 21121 H 1998.67 0.28885 -3.9314 0
M  V30 21122 H 1999.96 0.837426 -5.01861 0
M  V30 21123 H 1999.36 3.88631 -4.11075 0
M  V30 21124 H 1997.91 4.19073 -4.9922 0
M  V30 21125 N 2001.35 1.56817 -0.156891 0
M  V30 21126 C 2002.28 2.13062 0.817296 0
M  V30 21127 C 2003.26 1.05681 1.23573 0
M  V30 21128 O 2004.44 1.33571 1.33008 0
M  V30 21129 C 2001.57 2.65841 2.09872 0
M  V30 21130 C 2000.62 3.85461 1.82544 0
M  V30 21131 S 2001.45 5.25935 1.00758 0
M  V30 21132 C 2002.6 5.8211 2.29998 0
M  V30 21133 H 2002.84 2.95361 0.339029 0
M  V30 21134 H 2000.37 1.54293 0.0575539 0
M  V30 21135 H 2002.33 2.96898 2.83481 0
M  V30 21136 H 2000.99 1.83655 2.54813 0
M  V30 21137 H 2000.18 4.20668 2.77587 0
M  V30 21138 H 1999.78 3.55215 1.17039 0
M  V30 21139 H 2002.08 5.94144 3.25574 0
M  V30 21140 H 2003.02 6.7948 1.99281 0
M  V30 21141 H 2003.43 5.10423 2.41099 0
M  V30 21142 N 2002.83 -0.116876 1.57166 0
M  V30 21143 C 2004.24 -0.673792 1.74118 0
M  V30 21144 C 2004.59 -1.80206 0.775892 0
M  V30 21145 O 2003.71 -2.16341 -0.0507019 0
M  V30 21146 C 2004.31 -1.22903 3.15722 0
M  V30 21147 C 2002.87 -1.73222 3.34172 0
M  V30 21148 C 2002.01 -0.632798 2.69983 0
M  V30 21149 H 2004.96 0.109055 1.58325 0
M  V30 21150 H 2004.99 -2.09867 3.1739 0
M  V30 21151 H 2004.5 -0.407637 3.85953 0
M  V30 21152 H 2002.6 -2.57832 2.68986 0
M  V30 21153 H 2002.71 -1.8402 4.4235 0
M  V30 21154 H 2001.08 -1.06693 2.31276 0
M  V30 21155 H 2001.86 0.177653 3.4284 0
M  V30 21156 N 2004.3 -1.52772 -0.387116 0
M  V30 21157 C 2005.23 -1.80654 -1.47941 0
M  V30 21158 C 2006.21 -0.658677 -1.56829 0
M  V30 21159 O 2007.4 -0.906449 -1.71747 0
M  V30 21160 C 2004.53 -1.97709 -2.85532 0
M  V30 21161 C 2003.48 -3.13404 -2.91482 0
M  V30 21162 C 2002.81 -3.15717 -4.3154 0
M  V30 21163 C 2004.11 -4.52437 -2.60957 0
M  V30 21164 H 2005.8 -2.72123 -1.24858 0
M  V30 21165 H 2003.35 -1.30941 -0.59921 0
M  V30 21166 H 2005.3 -2.15798 -3.61952 0
M  V30 21167 H 2004.03 -1.02931 -3.09956 0
M  V30 21168 H 2002.69 -2.95102 -2.1751 0
M  V30 21169 H 2002.33 -2.18618 -4.53007 0
M  V30 21170 H 2002.03 -3.93437 -4.36441 0
M  V30 21171 H 2003.56 -3.35963 -5.09864 0
M  V30 21172 H 2004.97 -4.70831 -3.27095 0
M  V30 21173 H 2003.37 -5.32238 -2.77205 0
M  V30 21174 H 2004.44 -4.59022 -1.5629 0
M  V30 21175 N 2005.78 0.645673 -1.43767 0
M  V30 21176 C 2007.01 1.43799 -1.49454 0
M  V30 21177 C 2007.43 1.87742 -0.115948 0
M  V30 21178 O 2006.79 1.57845 0.891891 0
M  V30 21179 C 2006.84 2.64416 -2.45186 0
M  V30 21180 O 2005.94 3.63742 -1.94334 0
M  V30 21181 H 2005.28 0.430858 -0.50523 0
M  V30 21182 H 2007.81 0.789424 -1.88757 0
M  V30 21183 H 2007.82 3.12139 -2.62741 0
M  V30 21184 H 2006.5 2.31776 -3.4533 0
M  V30 21185 H 2005.07 3.22926 -1.86476 0
M  V30 21186 N 2007.26 1.30423 0.884744 0
M  V30 21187 C 2008.67 1.17357 1.45204 0
M  V30 21188 C 2009.02 -0.225645 1.94898 0
M  V30 21189 O 2008.15 -1.12234 1.8502 0
M  V30 21190 C 2008.74 2.12438 2.63923 0
M  V30 21191 C 2007.3 2.03351 3.16742 0
M  V30 21192 C 2006.45 2.02508 1.89436 0
M  V30 21193 H 2009.4 1.42689 0.694659 0
M  V30 21194 H 2009.42 1.70535 3.40144 0
M  V30 21195 H 2008.93 3.14267 2.27724 0
M  V30 21196 H 2007.03 1.04665 3.57597 0
M  V30 21197 H 2007.15 2.91748 3.80026 0
M  V30 21198 H 2005.51 1.47312 2.07777 0
M  V30 21199 H 2006.29 3.06066 1.55494 0
M  V30 21200 N 2008.74 -1.09711 1.13142 0
M  V30 21201 C 2010.01 -1.78377 0.802565 0
M  V30 21202 C 2010.39 -1.9893 -0.706392 0
M  V30 21203 O 2009.74 -1.58835 -1.64267 0
M  V30 21204 C 2009.95 -3.10873 1.58615 0
M  V30 21205 C 2011.3 -3.85629 1.77695 0
M  V30 21206 O 2012.32 -3.20616 1.55189 0
M  V30 21207 O 2011.18 -5.02334 2.15228 0
M  V30 21208 H 2008.28 -0.773463 0.292718 0
M  V30 21209 H 2010.82 -1.16294 1.23587 0
M  V30 21210 H 2009.6 -2.9138 2.61177 0
M  V30 21211 H 2009.22 -3.80679 1.14758 0
M  V30 21212 N 2010.22 -0.924476 -1.27637 0
M  V30 21213 C 2011.63 -0.608255 -1.76514 0
M  V30 21214 C 2011.98 0.87656 -1.7553 0
M  V30 21215 O 2011.1 1.68587 -1.35674 0
M  V30 21216 C 2011.7 -1.09738 -3.20536 0
M  V30 21217 C 2010.26 -0.831881 -3.67092 0
M  V30 21218 C 2009.4 -1.25795 -2.47125 0
M  V30 21219 H 2012.36 -1.1046 -1.13949 0
M  V30 21220 H 2012.38 -0.443602 -3.77905 0
M  V30 21221 H 2011.89 -2.17806 -3.21219 0
M  V30 21222 H 2009.99 0.235141 -3.71857 0
M  V30 21223 H 2010.1 -1.44716 -4.56721 0
M  V30 21224 H 2008.47 -0.676541 -2.4555 0
M  V30 21225 H 2009.25 -2.34721 -2.50521 0
M  V30 21226 N 2011.69 1.41711 -0.689627 0
M  V30 21227 C 2012.92 2.06171 -0.225425 0
M  V30 21228 C 2013.34 1.51535 1.11439 0
M  V30 21229 O 2012.7 0.639865 1.69633 0
M  V30 21230 C 2012.75 3.60114 -0.187089 0
M  V30 21231 O 2011.85 4.03757 0.83989 0
M  V30 21232 H 2011.2 0.654551 -0.111621 0
M  V30 21233 H 2013.73 1.81582 -0.942814 0
M  V30 21234 H 2013.74 4.07997 -0.0159369 0
M  V30 21235 H 2012.41 3.99251 -1.16497 0
M  V30 21236 H 2010.99 3.67392 0.638575 0
M  V30 21237 N 2013.17 0.433965 1.51507 0
M  V30 21238 C 2014.12 -0.397051 2.24516 0
M  V30 21239 C 2015.11 -0.992896 1.26611 0
M  V30 21240 O 2016.3 -0.911595 1.5172 0
M  V30 21241 C 2013.43 -1.49953 3.08819 0
M  V30 21242 C 2012.51 -0.913247 4.1415 0
M  V30 21243 N 2012.9 -0.0558268 5.05769 0
M  V30 21244 C 2011.2 -1.18118 4.30074 0
M  V30 21245 C 2011.9 0.27308 5.81059 0
M  V30 21246 N 2010.88 -0.342445 5.4252 0
M  V30 21247 H 2014.68 0.264043 2.92712 0
M  V30 21248 H 2012.2 0.245838 1.60528 0
M  V30 21249 H 2014.19 -2.1077 3.59696 0
M  V30 21250 H 2012.85 -2.163 2.42166 0
M  V30 21251 H 2013.86 0.310359 5.16969 0
M  V30 21252 H 2010.54 -1.84239 3.74649 0
M  V30 21253 H 2011.93 0.970595 6.64853 0
M  V30 21254 N 2014.65 -1.56732 0.165206 0
M  V30 21255 C 2015.88 -2.01069 -0.487749 0
M  V30 21256 C 2016.29 -1.04541 -1.57215 0
M  V30 21257 O 2015.65 -0.0452829 -1.82444 0
M  V30 21258 C 2015.7 -3.45249 -1.07169 0
M  V30 21259 O 2015.42 -4.38089 -0.0305845 0
M  V30 21260 C 2016.92 -4.04956 -1.80348 0
M  V30 21261 H 2014.14 -0.659179 -0.125394 0
M  V30 21262 H 2016.69 -2.02774 0.26514 0
M  V30 21263 H 2014.84 -3.44338 -1.77511 0
M  V30 21264 H 2015.26 -5.22471 -0.460866 0
M  V30 21265 H 2016.73 -5.07783 -2.16474 0
M  V30 21266 H 2017.21 -3.467 -2.69621 0
M  V30 21267 H 2017.81 -4.09552 -1.14662 0
M  V30 21268 N 2016.13 0.10854 -1.57226 0
M  V30 21269 C 2017.36 0.828374 -1.89593 0
M  V30 21270 C 2017.77 1.72936 -0.757543 0
M  V30 21271 O 2017.13 1.80474 0.271152 0
M  V30 21272 C 2017.18 1.65304 -3.21492 0
M  V30 21273 O 2016.9 0.788315 -4.30949 0
M  V30 21274 C 2018.4 2.47711 -3.67633 0
M  V30 21275 H 2015.62 0.237584 -0.627531 0
M  V30 21276 H 2018.17 0.0897975 -2.04303 0
M  V30 21277 H 2016.32 2.34426 -3.0842 0
M  V30 21278 H 2016.73 1.35814 -5.06611 0
M  V30 21279 H 2018.21 3.01088 -4.62655 0
M  V30 21280 H 2018.69 3.25555 -2.94806 0
M  V30 21281 H 2019.29 1.83812 -3.83527 0
M  V30 21282 N 2017.61 1.52975 0.379009 0
M  V30 21283 C 2018.54 1.81436 1.46981 0
M  V30 21284 C 2019.52 0.666985 1.56478 0
M  V30 21285 O 2020.7 0.915545 1.71264 0
M  V30 21286 C 2017.83 1.99221 2.84479 0
M  V30 21287 C 2016.79 3.14946 2.89816 0
M  V30 21288 C 2016.11 3.18001 4.2986 0
M  V30 21289 C 2017.41 4.53814 2.58554 0
M  V30 21290 H 2019.11 2.72781 1.23413 0
M  V30 21291 H 2016.65 1.31257 0.592257 0
M  V30 21292 H 2018.61 2.17714 3.60803 0
M  V30 21293 H 2017.33 1.04573 3.09406 0
M  V30 21294 H 2015.99 2.96251 2.15942 0
M  V30 21295 H 2015.64 2.21017 4.51841 0
M  V30 21296 H 2015.34 3.95746 4.34349 0
M  V30 21297 H 2016.86 3.38662 5.08075 0
M  V30 21298 H 2018.27 4.72559 3.24593 0
M  V30 21299 H 2016.67 5.33701 2.74379 0
M  V30 21300 H 2017.74 4.59845 1.53853 0
M  V30 21301 N 2019.08 -0.63804 1.44107 0
M  V30 21302 C 2020.31 -1.43004 1.50215 0
M  V30 21303 C 2020.73 -1.87678 0.125903 0
M  V30 21304 O 2020.09 -1.58316 -0.883508 0
M  V30 21305 C 2020.14 -2.63112 2.46585 0
M  V30 21306 O 2019.24 -3.62706 1.9626 0
M  V30 21307 H 2018.59 -0.428173 0.507508 0
M  V30 21308 H 2021.12 -0.779402 1.89173 0
M  V30 21309 H 2021.13 -3.10742 2.64393 0
M  V30 21310 H 2019.8 -2.29941 3.46554 0
M  V30 21311 H 2018.38 -3.21932 1.88186 0
M  V30 21312 N 2020.56 -1.3089 -0.877815 0
M  V30 21313 C 2021.49 -1.20459 -2.0003 0
M  V30 21314 C 2022.47 -0.0935765 -1.69842 0
M  V30 21315 O 2023.66 -0.276838 -1.92217 0
M  V30 21316 C 2020.79 -0.903041 -3.35354 0
M  V30 21317 C 2019.74 -1.97277 -3.79823 0
M  V30 21318 C 2019.07 -1.52407 -5.12519 0
M  V30 21319 C 2020.37 -3.38484 -3.97776 0
M  V30 21320 H 2022.06 -2.14367 -2.09014 0
M  V30 21321 H 2019.61 -1.03203 -1.00425 0
M  V30 21322 H 2021.56 -0.816699 -4.1341 0
M  V30 21323 H 2020.29 0.0717143 -3.26521 0
M  V30 21324 H 2018.94 -2.04887 -3.04001 0
M  V30 21325 H 2018.59 -0.537386 -5.00121 0
M  V30 21326 H 2018.29 -2.23964 -5.43244 0
M  V30 21327 H 2019.82 -1.45165 -5.93093 0
M  V30 21328 H 2021.23 -3.33593 -4.6625 0
M  V30 21329 H 2019.63 -4.0819 -4.39887 0
M  V30 21330 H 2020.7 -3.79847 -3.01403 0
M  V30 21331 N 2022.04 1.0911 -1.13723 0
M  V30 21332 C 2023.32 1.77949 -0.812014 0
M  V30 21333 C 2023.7 1.99302 0.695832 0
M  V30 21334 O 2023.05 1.59704 1.63422 0
M  V30 21335 C 2023.26 3.10028 -1.60262 0
M  V30 21336 C 2024.6 3.84681 -1.79738 0
M  V30 21337 O 2025.63 3.19789 -1.56887 0
M  V30 21338 O 2024.49 5.01185 -2.17888 0
M  V30 21339 H 2021.58 0.7719 -0.296816 0
M  V30 21340 H 2024.13 1.15637 -1.24202 0
M  V30 21341 H 2022.9 2.8999 -2.62719 0
M  V30 21342 H 2022.52 3.80065 -1.16776 0
M  V30 21343 N 2023.52 0.931232 1.27145 0
M  V30 21344 C 2024.45 0.450505 2.29113 0
M  V30 21345 C 2025.43 -0.491043 1.62858 0
M  V30 21346 O 2026.61 -0.395036 1.9014 0
M  V30 21347 C 2023.74 -0.29432 3.46051 0
M  V30 21348 C 2022.7 0.559727 4.24324 0
M  V30 21349 C 2022.02 -0.314473 5.33774 0
M  V30 21350 C 2023.32 1.826 4.89341 0
M  V30 21351 H 2025.02 1.3027 2.69574 0
M  V30 21352 H 2022.56 0.627845 1.29592 0
M  V30 21353 H 2024.52 -0.641592 4.16487 0
M  V30 21354 H 2023.24 -1.18057 3.04516 0
M  V30 21355 H 2021.9 0.889756 3.55639 0
M  V30 21356 H 2021.55 -1.19978 4.88482 0
M  V30 21357 H 2021.25 0.253489 5.87053 0
M  V30 21358 H 2022.77 -0.657238 6.07053 0
M  V30 21359 H 2024.19 1.54659 5.52045 0
M  V30 21360 H 2022.58 2.33775 5.52693 0
M  V30 21361 H 2023.65 2.5434 4.12842 0
M  V30 21362 N 2025 -1.41343 0.697132 0
M  V30 21363 C 2026.22 -2.06049 0.236356 0
M  V30 21364 C 2026.65 -1.52124 -1.10634 0
M  V30 21365 O 2026.01 -0.648852 -1.69291 0
M  V30 21366 C 2026.05 -3.6001 0.206185 0
M  V30 21367 O 2025.16 -4.04197 -0.818466 0
M  V30 21368 H 2024.5 -0.65395 0.115091 0
M  V30 21369 H 2027.03 -1.8108 0.952431 0
M  V30 21370 H 2027.04 -4.07983 0.0375737 0
M  V30 21371 H 2025.71 -3.98628 1.18612 0
M  V30 21372 H 2024.29 -3.67725 -0.619082 0
M  V30 21373 N 2026.48 -0.441993 -1.51275 0
M  V30 21374 C 2027.41 0.40297 -2.2563 0
M  V30 21375 C 2028.42 0.982305 -1.29825 0
M  V30 21376 O 2029.61 0.875653 -1.55546 0
M  V30 21377 C 2026.71 1.57618 -3.00016 0
M  V30 21378 C 2025.88 1.11489 -4.22953 0
M  V30 21379 C 2024.94 2.15876 -4.79879 0
M  V30 21380 O 2023.97 1.75121 -5.41591 0
M  V30 21381 N 2025.17 3.48408 -4.64319 0
M  V30 21382 H 2027.93 -0.234323 -2.98783 0
M  V30 21383 H 2025.5 -0.271138 -1.59613 0
M  V30 21384 H 2027.49 2.27084 -3.34985 0
M  V30 21385 H 2026.06 2.11873 -2.29845 0
M  V30 21386 H 2025.28 0.247136 -3.93425 0
M  V30 21387 H 2026.57 0.78415 -5.02721 0
M  V30 21388 H 2025.96 3.84249 -4.15173 0
M  V30 21389 H 2024.52 4.13755 -5.03637 0
M  V30 21390 N 2027.95 1.56642 -0.173515 0
M  V30 21391 C 2029.18 2.01325 0.477079 0
M  V30 21392 C 2029.6 1.05373 1.56659 0
M  V30 21393 O 2028.95 0.0549577 1.82417 0
M  V30 21394 C 2029 3.45813 1.05337 0
M  V30 21395 O 2028.73 4.38099 0.00735116 0
M  V30 21396 C 2030.23 4.05907 1.78198 0
M  V30 21397 H 2027.45 0.659835 0.121896 0
M  V30 21398 H 2029.99 2.0263 -0.27589 0
M  V30 21399 H 2028.15 3.45275 1.75682 0
M  V30 21400 H 2028.56 5.22708 0.433152 0
M  V30 21401 H 2030.03 5.08923 2.13778 0
M  V30 21402 H 2030.51 3.48125 2.67779 0
M  V30 21403 H 2031.12 4.10154 1.12489 0
M  V30 21404 N 2029.43 -0.1002 1.57281 0
M  V30 21405 C 2030.38 -1.14082 2.02702 0
M  V30 21406 C 2031.37 -1.41773 0.927183 0
M  V30 21407 O 2032.58 -1.41514 1.11237 0
M  V30 21408 H 2028.95 -0.385095 0.645915 0
M  V30 21409 H 2030.93 -0.731375 2.89298 0
M  V30 21410 C 2029.67 -2.45424 2.46297 0
M  V30 21411 H 2029 -2.24959 3.30505 0
M  V30 21412 H 2030.44 -3.16752 2.81859 0
M  V30 21413 C 2028.9 -3.09356 1.33418 0
M  V30 21414 O 2029.43 -3.96233 0.660494 0
M  V30 21415 N 2027.63 -2.69526 1.08646 0
M  V30 21416 H 2027.18 -1.98972 1.63609 0
M  V30 21417 H 2027.14 -3.1263 0.333186 0
M  V30 21418 N 2030.91 -1.53174 -0.370891 0
M  V30 21419 C 2031.84 -1.82213 -1.46017 0
M  V30 21420 C 2032.82 -0.675274 -1.56122 0
M  V30 21421 O 2034.01 -0.924614 -1.70776 0
M  V30 21422 C 2031.14 -2.00727 -2.83419 0
M  V30 21423 C 2030.09 -3.16478 -2.88141 0
M  V30 21424 C 2029.42 -3.20276 -4.28167 0
M  V30 21425 C 2030.72 -4.55179 -2.56143 0
M  V30 21426 H 2032.41 -2.73432 -1.21965 0
M  V30 21427 H 2029.96 -1.31569 -0.585288 0
M  V30 21428 H 2031.91 -2.19625 -3.59643 0
M  V30 21429 H 2030.63 -1.06213 -3.08847 0
M  V30 21430 H 2029.29 -2.97392 -2.14367 0
M  V30 21431 H 2028.94 -2.2341 -4.50663 0
M  V30 21432 H 2028.64 -3.98044 -4.32244 0
M  V30 21433 H 2030.16 -3.41352 -5.06272 0
M  V30 21434 H 2031.58 -4.74274 -3.22082 0
M  V30 21435 H 2029.97 -5.35148 -2.71544 0
M  V30 21436 H 2031.04 -4.60654 -1.51412 0
M  V30 21437 N 2032.39 0.630389 -1.44443 0
M  V30 21438 C 2033.61 1.42206 -1.50971 0
M  V30 21439 C 2034.04 1.87609 -0.135854 0
M  V30 21440 O 2033.4 1.58782 0.8751 0
M  V30 21441 C 2033.44 2.61801 -2.47977 0
M  V30 21442 O 2032.55 3.6166 -1.98181 0
M  V30 21443 H 2031.89 0.425475 -0.509771 0
M  V30 21444 H 2034.42 0.769359 -1.89584 0
M  V30 21445 H 2034.43 3.09335 -2.66037 0
M  V30 21446 H 2033.1 2.281 -3.47769 0
M  V30 21447 H 2031.68 3.2093 -1.89891 0
M  V30 21448 N 2033.87 1.31354 0.870861 0
M  V30 21449 C 2035.28 1.18891 1.43951 0
M  V30 21450 C 2035.63 -0.204961 1.95126 0
M  V30 21451 O 2034.75 -1.10266 1.862 0
M  V30 21452 C 2035.35 2.15226 2.61655 0
M  V30 21453 C 2033.91 2.06699 3.14567 0
M  V30 21454 C 2033.05 2.04505 1.87277 0
M  V30 21455 H 2036 1.43418 0.679486 0
M  V30 21456 H 2036.03 1.74134 3.38316 0
M  V30 21457 H 2035.54 3.16664 2.24378 0
M  V30 21458 H 2033.64 1.08452 3.56467 0
M  V30 21459 H 2033.75 2.95763 3.7691 0
M  V30 21460 H 2032.12 1.49508 2.06202 0
M  V30 21461 H 2032.9 3.07698 1.52239 0
M  V30 21462 N 2035.34 -1.08505 1.143 0
M  V30 21463 C 2036.25 -2.18944 0.84266 0
M  V30 21464 C 2037.27 -1.73103 -0.17648 0
M  V30 21465 O 2038.45 -2.01399 -0.0052364 0
M  V30 21466 C 2035.51 -3.45189 0.323347 0
M  V30 21467 C 2034.57 -4.05661 1.40492 0
M  V30 21468 C 2033.8 -5.2588 0.910289 0
M  V30 21469 O 2034.03 -5.69858 -0.248616 0
M  V30 21470 O 2032.96 -5.77722 1.68882 0
M  V30 21471 H 2036.79 -2.47104 1.76559 0
M  V30 21472 H 2034.37 -1.17621 0.921181 0
M  V30 21473 H 2036.25 -4.21381 0.039611 0
M  V30 21474 H 2034.93 -3.18608 -0.571874 0
M  V30 21475 H 2033.84 -3.31061 1.7421 0
M  V30 21476 H 2035.17 -4.36488 2.27462 0
M  V30 21477 N 2036.82 -0.937962 -1.26649 0
M  V30 21478 C 2037.75 -0.462649 -2.28871 0
M  V30 21479 C 2038.73 0.4824 -1.63116 0
M  V30 21480 O 2039.92 0.384947 -1.90347 0
M  V30 21481 C 2037.05 0.275964 -3.46202 0
M  V30 21482 C 2036 -0.582222 -4.24021 0
M  V30 21483 C 2035.33 0.286161 -5.33934 0
M  V30 21484 C 2036.63 -1.85193 -4.88365 0
M  V30 21485 H 2038.32 -1.31698 -2.68879 0
M  V30 21486 H 2035.87 -0.634709 -1.29257 0
M  V30 21487 H 2037.82 0.619496 -4.16822 0
M  V30 21488 H 2036.54 1.1644 -3.05138 0
M  V30 21489 H 2035.2 -0.908604 -3.55162 0
M  V30 21490 H 2034.85 1.17386 -4.89111 0
M  V30 21491 H 2034.55 -0.284618 -5.8691 0
M  V30 21492 H 2036.08 0.625035 -6.07393 0
M  V30 21493 H 2037.49 -1.57584 -5.51217 0
M  V30 21494 H 2035.89 -2.36702 -5.51445 0
M  V30 21495 H 2036.96 -2.56526 -4.11488 0
M  V30 21496 N 2038.3 1.40971 -0.704618 0
M  V30 21497 C 2039.52 2.05921 -0.24728 0
M  V30 21498 C 2039.95 1.52708 1.09826 0
M  V30 21499 O 2039.31 0.657821 1.68945 0
M  V30 21500 C 2039.36 3.59896 -0.225274 0
M  V30 21501 O 2038.46 4.04625 0.797019 0
M  V30 21502 H 2037.8 0.65333 -0.118557 0
M  V30 21503 H 2040.33 1.80572 -0.962021 0
M  V30 21504 H 2040.34 4.07957 -0.0592095 0
M  V30 21505 H 2039.02 3.97993 -1.20725 0
M  V30 21506 H 2037.59 3.68048 0.599572 0
M  V30 21507 N 2039.78 0.45001 1.51039 0
M  V30 21508 C 2040.71 -0.390998 2.2584 0
M  V30 21509 C 2041.72 -0.975406 1.30344 0
M  V30 21510 O 2042.91 -0.867391 1.56008 0
M  V30 21511 C 2040.01 -1.56025 3.00848 0
M  V30 21512 C 2039.19 -1.09244 4.23538 0
M  V30 21513 C 2038.24 -2.13329 4.81017 0
M  V30 21514 O 2037.27 -1.72246 5.42513 0
M  V30 21515 N 2038.47 -3.45941 4.6616 0
M  V30 21516 H 2041.24 0.250165 2.98654 0
M  V30 21517 H 2038.8 0.279599 1.59467 0
M  V30 21518 H 2040.79 -2.25304 3.36185 0
M  V30 21519 H 2039.36 -2.10651 2.30965 0
M  V30 21520 H 2038.58 -0.226269 3.9355 0
M  V30 21521 H 2039.87 -0.757479 5.0313 0
M  V30 21522 H 2039.27 -3.82042 4.17205 0
M  V30 21523 H 2037.82 -4.11078 5.05824 0
M  V30 21524 N 2041.26 -1.56548 0.18182 0
M  V30 21525 C 2042.48 -2.01575 -0.466395 0
M  V30 21526 C 2042.9 -1.06202 -1.56098 0
M  V30 21527 O 2042.26 -0.064631 -1.82386 0
M  V30 21528 C 2042.31 -3.46366 -1.03502 0
M  V30 21529 O 2042.03 -4.38097 0.0158824 0
M  V30 21530 C 2043.53 -4.06846 -1.76042 0
M  V30 21531 H 2040.75 -0.660472 -0.118395 0
M  V30 21532 H 2043.29 -2.02481 0.286632 0
M  V30 21533 H 2041.45 -3.46201 -1.73849 0
M  V30 21534 H 2041.86 -5.22931 -0.405425 0
M  V30 21535 H 2043.34 -5.1005 -2.11076 0
M  V30 21536 H 2043.81 -3.4954 -2.65929 0
M  V30 21537 H 2044.42 -4.10745 -1.10312 0
M  V30 21538 N 2042.73 0.0918577 -1.57332 0
M  V30 21539 C 2043.68 1.13005 -2.03304 0
M  V30 21540 C 2044.68 1.4128 -0.934688 0
M  V30 21541 O 2045.88 1.40923 -1.11986 0
M  V30 21542 H 2042.26 0.381664 -0.647948 0
M  V30 21543 H 2044.23 0.716022 -2.89682 0
M  V30 21544 C 2042.98 2.44114 -2.47595 0
M  V30 21545 H 2042.3 2.23203 -3.31694 0
M  V30 21546 H 2043.74 3.15252 -2.83535 0
M  V30 21547 C 2042.2 3.08644 -1.35057 0
M  V30 21548 O 2042.73 3.95877 -0.681498 0
M  V30 21549 N 2040.94 2.68946 -1.10074 0
M  V30 21550 H 2040.48 1.98101 -1.64662 0
M  V30 21551 H 2040.44 3.12448 -0.349761 0
M  V30 21552 N 2044.21 1.53368 0.362763 0
M  V30 21553 C 2045.14 1.82984 1.45048 0
M  V30 21554 C 2046.12 0.683544 1.55762 0
M  V30 21555 O 2047.31 0.933658 1.70283 0
M  V30 21556 C 2044.44 2.02227 2.8235 0
M  V30 21557 C 2043.39 3.18002 2.86459 0
M  V30 21558 C 2042.72 3.22543 4.26463 0
M  V30 21559 C 2044.02 4.56531 2.53726 0
M  V30 21560 H 2045.71 2.74075 1.20513 0
M  V30 21561 H 2043.26 1.31877 0.578302 0
M  V30 21562 H 2045.21 2.21529 3.58473 0
M  V30 21563 H 2043.94 1.07849 3.08279 0
M  V30 21564 H 2042.59 2.98525 2.12787 0
M  V30 21565 H 2042.24 2.25797 4.49472 0
M  V30 21566 H 2041.94 4.00331 4.30127 0
M  V30 21567 H 2043.47 3.44032 5.04455 0
M  V30 21568 H 2044.88 4.75975 3.19563 0
M  V30 21569 H 2043.28 5.36581 2.68703 0
M  V30 21570 H 2044.35 4.61451 1.48967 0
M  V30 21571 N 2045.69 -0.62272 1.44776 0
M  V30 21572 C 2046.92 -1.41403 1.51723 0
M  V30 21573 C 2047.34 -1.87534 0.145802 0
M  V30 21574 O 2046.7 -1.59244 -0.866667 0
M  V30 21575 C 2046.75 -2.60482 2.49362 0
M  V30 21576 O 2045.85 -3.60604 2.00096 0
M  V30 21577 H 2045.19 -0.422766 0.51202 0
M  V30 21578 H 2047.72 -0.759294 1.89989 0
M  V30 21579 H 2047.73 -3.0792 2.67674 0
M  V30 21580 H 2046.41 -2.26253 3.48974 0
M  V30 21581 H 2044.98 -3.19918 1.9159 0
M  V30 21582 N 2047.17 -1.31814 -0.863883 0
M  V30 21583 C 2048.58 -1.19653 -1.43318 0
M  V30 21584 C 2048.93 0.19461 -1.95232 0
M  V30 21585 O 2048.06 1.09277 -1.86782 0
M  V30 21586 C 2048.65 -2.1661 -2.6051 0
M  V30 21587 C 2047.21 -2.08364 -3.13466 0
M  V30 21588 C 2046.36 -2.05496 -1.8619 0
M  V30 21589 H 2049.31 -1.43776 -0.67187 0
M  V30 21590 H 2049.33 -1.75925 -3.37388 0
M  V30 21591 H 2048.84 -3.1785 -2.22695 0
M  V30 21592 H 2046.94 -1.10341 -3.55887 0
M  V30 21593 H 2047.05 -2.97757 -3.75336 0
M  V30 21594 H 2045.42 -1.50599 -2.05407 0
M  V30 21595 H 2046.2 -3.08501 -1.50605 0
M  V30 21596 N 2048.65 1.07897 -1.14873 0
M  V30 21597 C 2049.92 1.77077 -0.830842 0
M  V30 21598 C 2050.3 2.00029 0.674654 0
M  V30 21599 O 2049.65 1.61429 1.61719 0
M  V30 21600 C 2049.86 3.08311 -1.63541 0
M  V30 21601 C 2051.21 3.82753 -1.83808 0
M  V30 21602 O 2052.23 3.18107 -1.6027 0
M  V30 21603 O 2051.09 4.98846 -2.23192 0
M  V30 21604 H 2048.19 0.768708 -0.304987 0
M  V30 21605 H 2050.73 1.14313 -1.25422 0
M  V30 21606 H 2049.5 2.87188 -2.6578 0
M  V30 21607 H 2049.13 3.78805 -1.208 0
M  V30 21608 N 2050.12 0.944665 1.2615 0
M  V30 21609 C 2051.05 0.47478 2.28622 0
M  V30 21610 C 2052.04 -0.473742 1.6337 0
M  V30 21611 O 2053.22 -0.374847 1.90548 0
M  V30 21612 C 2050.35 -0.2576 3.46343 0
M  V30 21613 C 2049.3 0.604701 4.23707 0
M  V30 21614 C 2048.63 -0.257841 5.34078 0
M  V30 21615 C 2049.93 1.8778 4.87377 0
M  V30 21616 H 2051.62 1.33122 2.68177 0
M  V30 21617 H 2049.17 0.641555 1.28919 0
M  V30 21618 H 2051.12 -0.597382 4.17144 0
M  V30 21619 H 2049.85 -1.14821 3.05751 0
M  V30 21620 H 2048.51 0.927426 3.54675 0
M  V30 21621 H 2048.15 -1.1479 4.89727 0
M  V30 21622 H 2047.85 0.315739 5.86751 0
M  V30 21623 H 2049.38 -0.592815 6.07715 0
M  V30 21624 H 2050.79 1.60505 5.50374 0
M  V30 21625 H 2049.19 2.39623 5.50182 0
M  V30 21626 H 2050.26 2.58705 4.10122 0
M  V30 21627 N 2051.6 -1.40596 0.712085 0
M  V30 21628 C 2052.83 -2.05787 0.258197 0
M  V30 21629 C 2053.25 -1.53289 -1.09015 0
M  V30 21630 O 2052.61 -0.666771 -1.68594 0
M  V30 21631 C 2052.66 -3.59771 0.244357 0
M  V30 21632 O 2051.76 -4.05042 -0.77555 0
M  V30 21633 H 2051.1 -0.652692 0.12202 0
M  V30 21634 H 2053.63 -1.80059 0.971583 0
M  V30 21635 H 2053.64 -4.0792 0.0808437 0
M  V30 21636 H 2052.32 -3.97347 1.22834 0
M  V30 21637 H 2050.9 -3.68361 -0.580045 0
M  V30 21638 N 2053.08 -0.458013 -1.50798 0
M  V30 21639 C 2053.99 0.348558 -2.31996 0
M  V30 21640 C 2055.01 1.00835 -1.41804 0
M  V30 21641 O 2056.18 0.999192 -1.74866 0
M  V30 21642 C 2053.25 1.4236 -3.16124 0
M  V30 21643 C 2052.31 0.781781 -4.22122 0
M  V30 21644 C 2051.54 1.8056 -5.02229 0
M  V30 21645 O 2051.76 3.0305 -4.83236 0
M  V30 21646 O 2050.7 1.38466 -5.85757 0
M  V30 21647 H 2054.52 -0.314893 -3.02063 0
M  V30 21648 H 2052.11 -0.220117 -1.4777 0
M  V30 21649 H 2053.99 2.04661 -3.68364 0
M  V30 21650 H 2052.67 2.07076 -2.488 0
M  V30 21651 H 2051.57 0.120169 -3.73907 0
M  V30 21652 H 2052.91 0.177782 -4.91879 0
M  V30 21653 N 2054.56 1.56449 -0.190119 0
M  V30 21654 C 2055.49 2.14748 0.771918 0
M  V30 21655 C 2056.47 1.08278 1.21304 0
M  V30 21656 O 2057.65 1.36362 1.30144 0
M  V30 21657 C 2054.78 2.70233 2.04186 0
M  V30 21658 C 2053.83 3.89246 1.74327 0
M  V30 21659 S 2054.66 5.27954 0.895791 0
M  V30 21660 C 2055.82 5.86857 2.17599 0
M  V30 21661 H 2056.05 2.96013 0.276302 0
M  V30 21662 H 2053.58 1.5438 0.0248132 0
M  V30 21663 H 2055.54 3.02845 2.7712 0
M  V30 21664 H 2054.2 1.89018 2.5086 0
M  V30 21665 H 2053.39 4.26461 2.68602 0
M  V30 21666 H 2053 3.57618 1.09478 0
M  V30 21667 H 2055.29 6.00917 3.12898 0
M  V30 21668 H 2056.23 6.83554 1.84823 0
M  V30 21669 H 2056.64 5.15422 2.30218 0
M  V30 21670 N 2056.04 -0.0835127 1.57379 0
M  V30 21671 C 2057.45 -0.636708 1.75508 0
M  V30 21672 C 2057.8 -1.7852 0.813942 0
M  V30 21673 O 2056.92 -2.16399 -0.00480143 0
M  V30 21674 C 2057.52 -1.16179 3.18258 0
M  V30 21675 C 2056.08 -1.66095 3.37771 0
M  V30 21676 C 2055.23 -0.575388 2.71265 0
M  V30 21677 H 2058.18 0.142613 1.58058 0
M  V30 21678 H 2058.2 -2.03087 3.2177 0
M  V30 21679 H 2057.71 -0.325679 3.86731 0
M  V30 21680 H 2055.81 -2.52068 2.74395 0
M  V30 21681 H 2055.92 -1.74596 4.46154 0
M  V30 21682 H 2054.29 -1.01763 2.33487 0
M  V30 21683 H 2055.07 0.250335 3.42386 0
M  V30 21684 N 2057.52 -1.53558 -0.354624 0
M  V30 21685 C 2058.45 -1.83751 -1.44076 0
M  V30 21686 C 2059.43 -0.691795 -1.55397 0
M  V30 21687 O 2060.61 -0.942676 -1.69786 0
M  V30 21688 C 2057.74 -2.03721 -2.81274 0
M  V30 21689 C 2056.7 -3.19517 -2.84769 0
M  V30 21690 C 2056.02 -3.248 -4.24746 0
M  V30 21691 C 2057.32 -4.5787 -2.51301 0
M  V30 21692 H 2059.02 -2.7471 -1.19058 0
M  V30 21693 H 2056.56 -1.32182 -0.5713 0
M  V30 21694 H 2058.51 -2.23427 -3.57293 0
M  V30 21695 H 2057.24 -1.09482 -3.07703 0
M  V30 21696 H 2055.9 -2.99649 -2.11201 0
M  V30 21697 H 2055.55 -2.28177 -4.48268 0
M  V30 21698 H 2055.25 -4.02606 -4.27998 0
M  V30 21699 H 2056.77 -3.46702 -5.02623 0
M  V30 21700 H 2058.18 -4.77663 -3.17034 0
M  V30 21701 H 2056.58 -5.37998 -2.65853 0
M  V30 21702 H 2057.65 -4.62234 -1.46518 0
M  V30 21703 N 2058.99 0.615033 -1.45104 0
M  V30 21704 C 2060.24 1.37424 -1.48731 0
M  V30 21705 C 2060.57 1.94091 -0.12613 0
M  V30 21706 O 2059.82 1.75087 0.874249 0
M  V30 21707 C 2060.12 2.54609 -2.50816 0
M  V30 21708 C 2059.79 2.16134 -3.95723 0
M  V30 21709 C 2058.45 2.05355 -4.35181 0
M  V30 21710 C 2060.8 1.85994 -4.86883 0
M  V30 21711 C 2058.13 1.62647 -5.63705 0
M  V30 21712 C 2060.48 1.44774 -6.15811 0
M  V30 21713 C 2059.15 1.32548 -6.54207 0
M  V30 21714 H 2058.42 0.502868 -0.544247 0
M  V30 21715 H 2061.06 0.695889 -1.78409 0
M  V30 21716 H 2059.37 3.27749 -2.14681 0
M  V30 21717 H 2061.07 3.12839 -2.50864 0
M  V30 21718 H 2057.66 2.25448 -3.64515 0
M  V30 21719 H 2061.84 1.93224 -4.57141 0
M  V30 21720 H 2057.1 1.51797 -5.92256 0
M  V30 21721 H 2061.27 1.20496 -6.85896 0
M  V30 21722 H 2058.9 0.992281 -7.53696 0
M  V30 21723 N 2060.47 1.3227 0.85688 0
M  V30 21724 C 2061.43 1.2096 1.94682 0
M  V30 21725 C 2062.43 0.133231 1.60247 0
M  V30 21726 O 2063.62 0.383471 1.69927 0
M  V30 21727 C 2060.76 0.85974 3.29881 0
M  V30 21728 H 2061.95 2.17823 2.06139 0
M  V30 21729 H 2059.5 1.16069 1.04679 0
M  V30 21730 H 2060.24 -0.107161 3.24123 0
M  V30 21731 H 2060.02 1.63794 3.5625 0
M  V30 21732 H 2061.51 0.804868 4.0977 0
M  V30 21733 N 2061.95 -1.07287 1.15444 0
M  V30 21734 C 2063.23 -1.76634 0.840221 0
M  V30 21735 C 2063.61 -2.00384 -0.664037 0
M  V30 21736 O 2062.95 -1.62284 -1.60861 0
M  V30 21737 C 2063.16 -3.07439 1.65174 0
M  V30 21738 C 2064.51 -3.81773 1.85835 0
M  V30 21739 O 2065.54 -3.17252 1.61955 0
M  V30 21740 O 2064.4 -4.97656 2.25834 0
M  V30 21741 H 2061.49 -0.76708 0.309059 0
M  V30 21742 H 2064.04 -1.13646 1.26026 0
M  V30 21743 H 2062.81 -2.85774 2.67299 0
M  V30 21744 H 2062.43 -3.78159 1.22807 0
M  V30 21745 N 2063.43 -0.951342 -1.25647 0
M  V30 21746 C 2064.36 -0.486897 -2.28367 0
M  V30 21747 C 2065.34 0.465072 -1.63619 0
M  V30 21748 O 2066.52 0.364737 -1.90744 0
M  V30 21749 C 2063.65 0.239229 -3.46475 0
M  V30 21750 C 2062.61 -0.627163 -4.2338 0
M  V30 21751 C 2061.93 0.229514 -5.34207 0
M  V30 21752 C 2063.23 -1.90362 -4.86374 0
M  V30 21753 H 2064.93 -1.34542 -2.67467 0
M  V30 21754 H 2062.47 -0.648383 -1.28577 0
M  V30 21755 H 2064.43 0.575251 -4.17455 0
M  V30 21756 H 2063.15 1.13197 -3.06356 0
M  V30 21757 H 2061.81 -0.946222 -3.54178 0
M  V30 21758 H 2061.46 1.12192 -4.90328 0
M  V30 21759 H 2061.16 -0.346852 -5.86575 0
M  V30 21760 H 2062.68 0.560578 -6.08021 0
M  V30 21761 H 2064.1 -1.63422 -5.49515 0
M  V30 21762 H 2062.49 -2.42538 -5.48904 0
M  V30 21763 H 2063.56 -2.60876 -4.08744 0
M  V30 21764 N 2064.91 1.40216 -0.719531 0
M  V30 21765 C 2066.13 2.05647 -0.269106 0
M  V30 21766 C 2066.56 1.53865 1.082 0
M  V30 21767 O 2065.91 0.675703 1.68238 0
M  V30 21768 C 2065.96 3.59636 -0.263433 0
M  V30 21769 O 2065.07 4.05448 0.754058 0
M  V30 21770 H 2064.41 0.652036 -0.12548 0
M  V30 21771 H 2066.94 1.79542 -0.981119 0
M  V30 21772 H 2066.95 4.07871 -0.102475 0
M  V30 21773 H 2065.62 3.9669 -1.24939 0
M  V30 21774 H 2064.2 3.68664 0.560502 0
M  V30 21775 N 2066.38 0.466004 1.50553 0
M  V30 21776 C 2067.32 -0.367023 2.26242 0
M  V30 21777 C 2068.33 -0.961526 1.31372 0
M  V30 21778 O 2069.52 -0.850796 1.56919 0
M  V30 21779 C 2066.62 -1.52825 3.02486 0
M  V30 21780 C 2065.79 -1.04746 4.24673 0
M  V30 21781 C 2064.85 -2.08215 4.83253 0
M  V30 21782 O 2063.88 -1.66482 5.44309 0
M  V30 21783 N 2065.08 -3.40977 4.69803 0
M  V30 21784 H 2067.84 0.281827 2.98372 0
M  V30 21785 H 2065.4 0.296497 1.59162 0
M  V30 21786 H 2067.4 -2.21726 3.38555 0
M  V30 21787 H 2065.97 -2.08189 2.33186 0
M  V30 21788 H 2065.19 -0.184515 3.93768 0
M  V30 21789 H 2066.47 -0.704072 5.03905 0
M  V30 21790 H 2065.87 -3.77596 4.21234 0
M  V30 21791 H 2064.43 -4.0569 5.10156 0
M  V30 21792 N 2067.86 -1.56346 0.198413 0
M  V30 21793 C 2069.11 -1.96849 -0.439713 0
M  V30 21794 C 2069.42 -1.08829 -1.62529 0
M  V30 21795 O 2070.63 -1.39128 -2.33143 0
M  V30 21796 C 2069.09 -3.50111 -0.83369 0
M  V30 21797 C 2068.69 -4.46799 0.327785 0
M  V30 21798 C 2070.44 -3.99376 -1.43871 0
M  V30 21799 C 2068.34 -5.91336 -0.0873357 0
M  V30 21800 H 2067.27 -0.735034 -0.168052 0
M  V30 21801 H 2069.93 -1.81179 0.290957 0
M  V30 21802 H 2068.31 -3.61297 -1.62112 0
M  V30 21803 H 2069.48 -4.47347 1.10532 0
M  V30 21804 H 2067.8 -4.07746 0.844522 0
M  V30 21805 H 2070.39 -5.04841 -1.76181 0
M  V30 21806 H 2070.74 -3.43877 -2.34637 0
M  V30 21807 H 2071.27 -3.91318 -0.715186 0
M  V30 21808 H 2068.01 -6.50768 0.786222 0
M  V30 21809 H 2067.53 -5.94034 -0.829663 0
M  V30 21810 H 2069.21 -6.44891 -0.522002 0
M  V30 21811 N 2069.34 0.0751653 -1.57421 0
M  V30 21812 C 2070.75 0.627391 -1.75843 0
M  V30 21813 C 2071.1 1.78086 -0.823397 0
M  V30 21814 O 2070.23 2.16399 -0.00667483 0
M  V30 21815 C 2070.82 1.14489 -3.18869 0
M  V30 21816 C 2069.38 1.64301 -3.38648 0
M  V30 21817 C 2068.53 0.560994 -2.71566 0
M  V30 21818 H 2071.48 -0.150994 -1.5798 0
M  V30 21819 H 2071.5 2.01378 -3.22842 0
M  V30 21820 H 2071.01 0.305165 -3.86898 0
M  V30 21821 H 2069.11 2.50609 -2.75728 0
M  V30 21822 H 2069.23 1.72227 -4.47073 0
M  V30 21823 H 2067.59 1.00523 -2.34024 0
M  V30 21824 H 2068.37 -0.268489 -3.42248 0
M  V30 21825 N 2070.82 1.53744 0.346476 0
M  V30 21826 C 2071.75 1.84512 1.43099 0
M  V30 21827 C 2072.73 0.700026 1.55028 0
M  V30 21828 O 2073.91 0.951666 1.69284 0
M  V30 21829 C 2071.04 2.0521 2.80189 0
M  V30 21830 C 2070 3.21022 2.8307 0
M  V30 21831 C 2069.32 3.27048 4.23018 0
M  V30 21832 C 2070.62 4.59196 2.4887 0
M  V30 21833 H 2072.32 2.75338 1.17599 0
M  V30 21834 H 2069.86 1.32483 0.564283 0
M  V30 21835 H 2071.82 2.25318 3.56103 0
M  V30 21836 H 2070.54 1.11113 3.07118 0
M  V30 21837 H 2069.2 3.00765 2.09609 0
M  V30 21838 H 2068.85 2.30551 4.47052 0
M  V30 21839 H 2068.55 4.0487 4.25857 0
M  V30 21840 H 2070.07 3.49363 5.00777 0
M  V30 21841 H 2071.49 4.79338 3.14496 0
M  V30 21842 H 2069.88 5.39401 2.62996 0
M  V30 21843 H 2070.95 4.63005 1.44064 0
M  V30 21844 N 2072.3 -0.607329 1.45428 0
M  V30 21845 C 2073.52 -1.39296 1.52984 0
M  V30 21846 C 2073.94 -1.88099 0.162539 0
M  V30 21847 O 2073.3 -1.62229 -0.835945 0
M  V30 21848 C 2073.35 -2.59727 2.51444 0
M  V30 21849 O 2073.07 -2.12952 3.82862 0
M  V30 21850 C 2074.57 -3.52583 2.68701 0
M  V30 21851 H 2071.79 -0.426391 0.518104 0
M  V30 21852 H 2074.33 -0.740646 1.90617 0
M  V30 21853 H 2072.49 -3.20999 2.16883 0
M  V30 21854 H 2072.9 -2.91201 4.36237 0
M  V30 21855 H 2074.38 -4.33629 3.4157 0
M  V30 21856 H 2074.85 -4.0294 1.74746 0
M  V30 21857 H 2075.46 -2.97163 3.0426 0
M  V30 21858 N 2073.77 -1.32722 -0.849853 0
M  V30 21859 C 2075.19 -1.21166 -1.42041 0
M  V30 21860 C 2075.54 0.173892 -1.95428 0
M  V30 21861 O 2074.66 1.07289 -1.87931 0
M  V30 21862 C 2075.26 -2.19361 -2.58198 0
M  V30 21863 C 2073.82 -2.11677 -3.11239 0
M  V30 21864 C 2072.96 -2.07459 -1.84 0
M  V30 21865 H 2075.91 -1.44481 -0.656583 0
M  V30 21866 H 2075.93 -1.79494 -3.35503 0
M  V30 21867 H 2075.45 -3.20194 -2.19312 0
M  V30 21868 H 2073.55 -1.1411 -3.54697 0
M  V30 21869 H 2073.66 -3.01721 -3.72157 0
M  V30 21870 H 2072.02 -1.5277 -2.03798 0
M  V30 21871 H 2072.81 -3.10081 -1.47325 0
M  V30 21872 N 2075.25 1.06673 -1.16011 0
M  V30 21873 C 2076.53 1.76186 -0.849577 0
M  V30 21874 C 2076.91 2.00733 0.653401 0
M  V30 21875 O 2076.26 1.63135 1.59998 0
M  V30 21876 C 2076.47 3.06559 -1.66802 0
M  V30 21877 C 2077.82 3.80782 -1.87857 0
M  V30 21878 O 2078.84 3.16389 -1.63635 0
M  V30 21879 O 2077.7 4.96451 -2.2847 0
M  V30 21880 H 2074.79 0.76543 -0.313123 0
M  V30 21881 H 2077.34 1.12976 -1.26627 0
M  V30 21882 H 2076.11 2.84353 -2.68811 0
M  V30 21883 H 2075.73 3.77502 -1.24811 0
M  V30 21884 N 2076.73 0.957992 1.25141 0
M  V30 21885 C 2077.66 0.499001 2.28106 0
M  V30 21886 C 2078.64 -0.456388 1.63863 0
M  V30 21887 O 2079.83 -0.354616 1.90935 0
M  V30 21888 C 2076.96 -0.220851 3.46597 0
M  V30 21889 C 2075.91 0.649607 4.23042 0
M  V30 21890 C 2075.24 -0.201181 5.34321 0
M  V30 21891 C 2076.54 1.92939 4.85357 0
M  V30 21892 H 2078.23 1.35959 2.6675 0
M  V30 21893 H 2075.78 0.655192 1.28231 0
M  V30 21894 H 2077.73 -0.553105 4.17754 0
M  V30 21895 H 2076.45 -1.11571 3.06952 0
M  V30 21896 H 2075.11 0.964992 3.53671 0
M  V30 21897 H 2074.76 -1.0959 4.90917 0
M  V30 21898 H 2074.46 0.377954 5.86383 0
M  V30 21899 H 2075.98 -0.528325 6.0831 0
M  V30 21900 H 2077.4 1.66333 5.4864 0
M  V30 21901 H 2075.8 2.45445 5.4761 0
M  V30 21902 H 2076.87 2.6304 4.07355 0
M  V30 21903 N 2078.21 -1.39832 0.726957 0
M  V30 21904 C 2079.49 -1.94595 0.198042 0
M  V30 21905 C 2079.87 -1.66433 -1.29858 0
M  V30 21906 O 2079.21 -0.98817 -2.06028 0
M  V30 21907 C 2079.42 -3.45059 0.522997 0
M  V30 21908 C 2080.77 -4.22014 0.467902 0
M  V30 21909 O 2081.8 -3.53221 0.459717 0
M  V30 21910 O 2080.65 -5.44599 0.455375 0
M  V30 21911 H 2077.75 -0.826324 0.0334203 0
M  V30 21912 H 2080.29 -1.49377 0.805266 0
M  V30 21913 H 2079.07 -3.58959 1.55769 0
M  V30 21914 H 2078.69 -3.97438 -0.113609 0
M  V30 21915 N 2079.69 -0.473982 -1.50304 0
M  V30 21916 C 2080.62 0.355019 -2.26434 0
M  V30 21917 C 2081.63 0.954546 -1.3188 0
M  V30 21918 O 2082.82 0.842462 -1.57368 0
M  V30 21919 C 2079.92 1.51219 -3.03292 0
M  V30 21920 C 2079.09 1.02492 -4.25222 0
M  V30 21921 C 2078.15 2.05649 -4.8435 0
M  V30 21922 O 2077.18 1.63594 -5.45184 0
M  V30 21923 N 2078.38 3.38481 -4.71605 0
M  V30 21924 H 2081.15 -0.297646 -2.98218 0
M  V30 21925 H 2078.71 -0.304934 -1.59002 0
M  V30 21926 H 2080.7 2.19927 -3.39726 0
M  V30 21927 H 2079.27 2.0695 -2.34287 0
M  V30 21928 H 2078.49 0.16363 -3.9386 0
M  V30 21929 H 2079.78 0.677339 -5.04271 0
M  V30 21930 H 2079.17 3.75356 -4.23231 0
M  V30 21931 H 2077.73 4.02979 -5.123 0
M  V30 21932 N 2081.16 1.56239 -0.206702 0
M  V30 21933 C 2082.1 2.15555 0.749098 0
M  V30 21934 C 2083.08 1.09559 1.20148 0
M  V30 21935 O 2084.26 1.37735 1.28691 0
M  V30 21936 C 2081.39 2.72383 2.01308 0
M  V30 21937 C 2080.43 3.91073 1.70189 0
M  V30 21938 S 2081.27 5.28875 0.839744 0
M  V30 21939 C 2082.42 5.89132 2.11362 0
M  V30 21940 H 2082.65 2.9629 0.24489 0
M  V30 21941 H 2080.19 1.54398 0.00843775 0
M  V30 21942 H 2082.15 3.05767 2.73892 0
M  V30 21943 H 2080.81 1.91668 2.48841 0
M  V30 21944 H 2080 4.29286 2.64064 0
M  V30 21945 H 2079.6 3.58759 1.05679 0
M  V30 21946 H 2081.89 6.04202 3.06507 0
M  V30 21947 H 2082.84 6.85476 1.77563 0
M  V30 21948 H 2083.24 5.17835 2.24738 0
M  V30 21949 N 2082.64 -0.0668159 1.57458 0
M  V30 21950 C 2083.87 -0.777815 1.91723 0
M  V30 21951 C 2084.29 -1.70866 0.803128 0
M  V30 21952 O 2083.64 -1.8113 -0.223207 0
M  V30 21953 C 2083.69 -1.56722 3.25761 0
M  V30 21954 O 2083.41 -0.673779 4.32888 0
M  V30 21955 C 2084.92 -2.37877 3.74071 0
M  V30 21956 H 2082.14 -0.220863 0.633609 0
M  V30 21957 H 2084.68 -0.0355987 2.04469 0
M  V30 21958 H 2082.83 -2.26166 3.14527 0
M  V30 21959 H 2083.25 -1.22335 5.10034 0
M  V30 21960 H 2084.72 -2.88716 4.70476 0
M  V30 21961 H 2085.2 -3.17625 3.03334 0
M  V30 21962 H 2085.81 -1.73579 3.88266 0
M  V30 21963 N 2084.12 -1.53926 -0.338317 0
M  V30 21964 C 2085.05 -1.85269 -1.42119 0
M  V30 21965 C 2086.03 -0.708238 -1.54654 0
M  V30 21966 O 2087.22 -0.960631 -1.68777 0
M  V30 21967 C 2084.35 -2.06693 -2.79097 0
M  V30 21968 C 2083.3 -3.22519 -2.81364 0
M  V30 21969 C 2082.63 -3.29286 -4.21277 0
M  V30 21970 C 2083.93 -4.6051 -2.46431 0
M  V30 21971 H 2085.62 -2.75957 -1.16137 0
M  V30 21972 H 2083.17 -1.32781 -0.557249 0
M  V30 21973 H 2085.12 -2.27204 -3.54903 0
M  V30 21974 H 2083.84 -1.1274 -3.06524 0
M  V30 21975 H 2082.5 -3.01872 -2.08011 0
M  V30 21976 H 2082.15 -2.32919 -4.45823 0
M  V30 21977 H 2081.85 -4.07123 -4.23704 0
M  V30 21978 H 2083.38 -3.52014 -4.98918 0
M  V30 21979 H 2084.79 -4.80999 -3.1195 0
M  V30 21980 H 2083.19 -5.40788 -2.60132 0
M  V30 21981 H 2084.26 -4.63762 -1.41607 0
M  V30 21982 N 2085.6 0.599608 -1.45748 0
M  V30 21983 C 2086.82 1.38971 -1.53954 0
M  V30 21984 C 2087.25 1.87278 -0.175618 0
M  V30 21985 O 2086.61 1.60602 0.841223 0
M  V30 21986 C 2086.66 2.56482 -2.53474 0
M  V30 21987 O 2085.76 3.57375 -2.05808 0
M  V30 21988 H 2085.1 0.414567 -0.518681 0
M  V30 21989 H 2087.63 0.728972 -1.91173 0
M  V30 21990 H 2087.64 3.03623 -2.72539 0
M  V30 21991 H 2086.32 2.20672 -3.52529 0
M  V30 21992 H 2084.89 3.1683 -1.96656 0
M  V30 21993 N 2087.08 1.33171 0.842803 0
M  V30 21994 C 2088.49 1.21918 1.41397 0
M  V30 21995 C 2088.84 -0.163526 1.95517 0
M  V30 21996 O 2087.96 -1.06291 1.88497 0
M  V30 21997 C 2088.56 2.20727 2.57031 0
M  V30 21998 C 2087.12 2.13325 3.10112 0
M  V30 21999 C 2086.27 2.08432 1.82897 0
M  V30 22000 H 2089.22 1.44827 0.648912 0
M  V30 22001 H 2089.24 1.81271 3.34546 0
M  V30 22002 H 2088.75 3.21352 2.1761 0
M  V30 22003 H 2086.85 1.15989 3.54087 0
M  V30 22004 H 2086.96 3.03691 3.70552 0
M  V30 22005 H 2085.33 1.53848 2.02985 0
M  V30 22006 H 2086.11 3.10858 1.45678 0
M  V30 22007 N 2088.56 -1.06056 1.16576 0
M  V30 22008 C 2089.83 -1.75733 0.858908 0
M  V30 22009 C 2090.21 -2.01077 -0.642746 0
M  V30 22010 O 2089.56 -1.63981 -1.5913 0
M  V30 22011 C 2089.77 -3.0567 1.68425 0
M  V30 22012 C 2091.12 -3.7978 1.89874 0
M  V30 22013 O 2092.14 -3.15517 1.65311 0
M  V30 22014 O 2091 -4.95232 2.311 0
M  V30 22015 H 2088.1 -0.763759 0.317177 0
M  V30 22016 H 2090.64 -1.12303 1.27225 0
M  V30 22017 H 2089.41 -2.82923 2.70315 0
M  V30 22018 H 2089.04 -3.76835 1.26811 0
M  V30 22019 N 2090.03 -0.964615 -1.24631 0
M  V30 22020 C 2090.96 -0.511091 -2.27838 0
M  V30 22021 C 2091.94 0.447692 -1.64103 0
M  V30 22022 O 2093.13 0.344485 -1.9112 0
M  V30 22023 C 2090.26 0.202467 -3.46709 0
M  V30 22024 C 2089.21 -0.672032 -4.22691 0
M  V30 22025 C 2088.54 0.172842 -5.34421 0
M  V30 22026 C 2089.84 -1.9551 -4.84327 0
M  V30 22027 H 2091.53 -1.37371 -2.66025 0
M  V30 22028 H 2089.08 -0.661983 -1.27882 0
M  V30 22029 H 2091.03 0.530942 -4.18042 0
M  V30 22030 H 2089.76 1.09942 -3.07539 0
M  V30 22031 H 2088.42 -0.983734 -3.53155 0
M  V30 22032 H 2088.06 1.06985 -4.91491 0
M  V30 22033 H 2087.76 -0.409046 -5.86175 0
M  V30 22034 H 2089.29 0.496057 -6.08582 0
M  V30 22035 H 2090.7 -1.69241 -5.4775 0
M  V30 22036 H 2089.1 -2.48346 -5.46301 0
M  V30 22037 H 2090.17 -2.65197 -4.05954 0
M  V30 22038 N 2091.51 1.39445 -0.734362 0
M  V30 22039 C 2092.76 2.0013 -0.281468 0
M  V30 22040 C 2093.08 1.58562 1.13504 0
M  V30 22041 O 2092.35 0.833568 1.77281 0
M  V30 22042 H 2090.93 0.74013 -0.101076 0
M  V30 22043 H 2093.59 1.70503 -0.944178 0
M  V30 22044 H 2092.69 3.10357 -0.329356 0
M  V30 22045 N 2092.99 0.481946 1.5005 0
M  V30 22046 C 2093.9 -0.311606 2.32521 0
M  V30 22047 C 2094.92 -0.985661 1.4339 0
M  V30 22048 O 2096.09 -0.971246 1.76433 0
M  V30 22049 C 2093.16 -1.37313 3.18349 0
M  V30 22050 C 2092.22 -0.714526 4.23312 0
M  V30 22051 C 2091.45 -1.72547 5.05038 0
M  V30 22052 O 2091.67 -2.95324 4.87996 0
M  V30 22053 O 2090.61 -1.2913 5.87885 0
M  V30 22054 H 2094.43 0.362909 3.01524 0
M  V30 22055 H 2092.02 0.243598 1.47401 0
M  V30 22056 H 2093.9 -1.98774 3.71573 0
M  V30 22057 H 2092.58 -2.03091 2.52063 0
M  V30 22058 H 2091.48 -0.0606687 3.74051 0
M  V30 22059 H 2092.82 -0.099506 4.92099 0
M  V30 22060 N 2094.47 -1.56127 0.214985 0
M  V30 22061 C 2095.7 -2.02519 -0.423533 0
M  V30 22062 C 2096.11 -1.0949 -1.5381 0
M  V30 22063 O 2095.47 -0.103303 -1.82207 0
M  V30 22064 C 2095.52 -3.48484 -0.961313 0
M  V30 22065 O 2095.24 -4.37965 0.108806 0
M  V30 22066 C 2096.74 -4.10489 -1.67373 0
M  V30 22067 H 2093.96 -0.662835 -0.104359 0
M  V30 22068 H 2096.5 -2.01828 0.329517 0
M  V30 22069 H 2094.66 -3.49811 -1.66466 0
M  V30 22070 H 2095.07 -5.23673 -0.294413 0
M  V30 22071 H 2096.55 -5.14412 -2.00209 0
M  V30 22072 H 2097.02 -3.55102 -2.58455 0
M  V30 22073 H 2097.63 -4.12992 -1.01575 0
M  V30 22074 N 2095.95 0.0584645 -1.57492 0
M  V30 22075 C 2097.22 0.788828 -1.78988 0
M  V30 22076 C 2097.6 1.95112 -0.805878 0
M  V30 22077 O 2096.95 2.27951 0.158244 0
M  V30 22078 C 2097.16 1.24936 -3.25871 0
M  V30 22079 C 2098.51 1.67732 -3.90066 0
M  V30 22080 O 2099.53 1.34469 -3.29843 0
M  V30 22081 O 2098.39 2.29361 -4.9604 0
M  V30 22082 H 2095.49 0.379032 -0.735027 0
M  V30 22083 H 2098.03 0.0375096 -1.69659 0
M  V30 22084 H 2096.8 0.418302 -3.89058 0
M  V30 22085 H 2096.43 2.06159 -3.39977 0
M  V30 22086 N 2097.42 1.54103 0.330149 0
M  V30 22087 C 2098.35 1.8602 1.41134 0
M  V30 22088 C 2099.33 0.716429 1.54277 0
M  V30 22089 O 2100.52 0.969568 1.68265 0
M  V30 22090 C 2097.65 2.08171 2.77997 0
M  V30 22091 C 2096.6 3.24007 2.79649 0
M  V30 22092 C 2095.93 3.31516 4.19525 0
M  V30 22093 C 2097.23 4.6181 2.43985 0
M  V30 22094 H 2098.92 2.76569 1.14672 0
M  V30 22095 H 2096.47 1.33074 0.550199 0
M  V30 22096 H 2098.42 2.29083 3.53694 0
M  V30 22097 H 2097.15 1.14364 3.05922 0
M  V30 22098 H 2095.81 3.02971 2.06407 0
M  V30 22099 H 2095.45 2.3528 4.44581 0
M  V30 22100 H 2095.15 4.09364 4.21538 0
M  V30 22101 H 2096.68 3.54655 4.97044 0
M  V30 22102 H 2098.09 4.82647 3.09395 0
M  V30 22103 H 2096.49 5.4216 2.5726 0
M  V30 22104 H 2097.56 4.64507 1.39146 0
M  V30 22105 N 2098.9 -0.59187 1.46064 0
M  V30 22106 C 2100.13 -1.38153 1.54688 0
M  V30 22107 C 2100.55 -1.87183 0.185547 0
M  V30 22108 O 2099.91 -1.61046 -0.832694 0
M  V30 22109 C 2099.96 -2.55134 2.54831 0
M  V30 22110 O 2099.06 -3.56279 2.077 0
M  V30 22111 H 2098.4 -0.41181 0.520873 0
M  V30 22112 H 2100.93 -0.718824 1.91557 0
M  V30 22113 H 2100.94 -3.02173 2.74145 0
M  V30 22114 H 2099.62 -2.188 3.53694 0
M  V30 22115 H 2098.2 -3.15782 1.98333 0
M  V30 22116 N 2100.38 -1.33616 -0.835729 0
M  V30 22117 C 2101.79 -1.22666 -1.40748 0
M  V30 22118 C 2102.14 0.153155 -1.95601 0
M  V30 22119 O 2101.27 1.0529 -1.89058 0
M  V30 22120 C 2101.86 -2.22087 -2.55857 0
M  V30 22121 C 2100.42 -2.14967 -3.08976 0
M  V30 22122 C 2099.57 -2.09399 -1.81789 0
M  V30 22123 H 2102.52 -1.45169 -0.641222 0
M  V30 22124 H 2102.54 -1.83042 -3.3358 0
M  V30 22125 H 2102.05 -3.22502 -2.15903 0
M  V30 22126 H 2100.15 -1.17865 -3.53466 0
M  V30 22127 H 2100.27 -3.05652 -3.68936 0
M  V30 22128 H 2098.63 -1.54922 -2.02166 0
M  V30 22129 H 2099.41 -3.11626 -1.44027 0
M  V30 22130 N 2101.86 1.05436 -1.17136 0
M  V30 22131 C 2102.81 2.1523 -0.881986 0
M  V30 22132 C 2103.8 1.68713 0.152395 0
M  V30 22133 O 2105.01 1.79999 0.00555059 0
M  V30 22134 H 2101.38 0.702752 -0.267664 0
M  V30 22135 H 2103.35 2.36842 -1.81517 0
M  V30 22136 C 2102.1 3.45286 -0.409046 0
M  V30 22137 H 2101.42 3.81478 -1.19644 0
M  V30 22138 H 2102.86 4.23289 -0.245428 0
M  V30 22139 C 2101.32 3.25396 0.872886 0
M  V30 22140 O 2101.85 3.51736 1.94023 0
M  V30 22141 N 2100.06 2.78789 0.820065 0
M  V30 22142 H 2099.61 2.57554 -0.0487256 0
M  V30 22143 H 2099.56 2.65861 1.67826 0
M  V30 22144 N 2103.34 0.971211 1.24118 0
M  V30 22145 C 2104.58 0.635022 1.92286 0
M  V30 22146 C 2104.91 -0.83026 1.75889 0
M  V30 22147 O 2104.17 -1.61322 1.10786 0
M  V30 22148 C 2104.47 0.960091 3.44263 0
M  V30 22149 C 2104.13 2.41409 3.80832 0
M  V30 22150 C 2102.79 2.81148 3.90524 0
M  V30 22151 C 2105.15 3.35755 3.98645 0
M  V30 22152 C 2102.47 4.14268 4.15451 0
M  V30 22153 C 2104.83 4.68508 4.25069 0
M  V30 22154 C 2103.49 5.08019 4.32981 0
M  V30 22155 H 2102.76 0.232371 0.703623 0
M  V30 22156 H 2105.41 1.22335 1.47331 0
M  V30 22157 H 2103.71 0.289561 3.90729 0
M  V30 22158 H 2105.41 0.678313 3.95221 0
M  V30 22159 H 2102 2.09597 3.73855 0
M  V30 22160 H 2106.18 3.06236 3.90555 0
M  V30 22161 H 2101.44 4.445 4.19797 0
M  V30 22162 H 2105.61 5.41579 4.37796 0
M  V30 22163 H 2103.24 6.11192 4.52049 0
M  V30 22164 N 2104.81 -1.39054 0.741747 0
M  V30 22165 C 2106.06 -1.99978 0.292077 0
M  V30 22166 C 2106.38 -1.59162 -1.12662 0
M  V30 22167 O 2105.65 -0.842958 -1.76836 0
M  V30 22168 H 2104.23 -0.739584 0.105 0
M  V30 22169 H 2106.9 -1.7 0.953207 0
M  V30 22170 H 2105.99 -3.10178 0.34581 0
M  V30 22171 N 2106.29 -0.489897 -1.49792 0
M  V30 22172 C 2107.22 0.330983 -2.26798 0
M  V30 22173 C 2108.24 0.940504 -1.32885 0
M  V30 22174 O 2109.43 0.825724 -1.58253 0
M  V30 22175 C 2106.53 1.47994 -3.04879 0
M  V30 22176 C 2105.7 0.979767 -4.26286 0
M  V30 22177 C 2104.76 2.005 -4.86504 0
M  V30 22178 O 2103.78 1.57802 -5.46889 0
M  V30 22179 N 2104.99 3.3346 -4.75168 0
M  V30 22180 H 2107.75 -0.32926 -2.97886 0
M  V30 22181 H 2105.31 -0.321781 -1.5867 0
M  V30 22182 H 2107.3 2.16312 -3.4204 0
M  V30 22183 H 2105.87 2.04453 -2.36469 0
M  V30 22184 H 2105.09 0.121846 -3.94012 0
M  V30 22185 H 2106.38 0.623816 -5.04961 0
M  V30 22186 H 2105.78 3.70846 -4.27188 0
M  V30 22187 H 2104.34 3.97523 -5.16545 0
M  V30 22188 N 2107.77 1.56011 -0.223262 0
M  V30 22189 C 2108.7 2.16337 0.726193 0
M  V30 22190 C 2109.68 1.10827 1.18979 0
M  V30 22191 O 2110.87 1.39092 1.27223 0
M  V30 22192 C 2107.99 2.74503 1.98408 0
M  V30 22193 C 2107.04 3.92856 1.66031 0
M  V30 22194 S 2107.87 5.29736 0.783603 0
M  V30 22195 C 2109.03 5.91341 2.05102 0
M  V30 22196 H 2109.26 2.96533 0.213451 0
M  V30 22197 H 2106.79 1.54398 -0.00793866 0
M  V30 22198 H 2108.75 3.08655 2.70634 0
M  V30 22199 H 2107.41 1.94297 2.46794 0
M  V30 22200 H 2106.61 4.32063 2.59495 0
M  V30 22201 H 2106.21 3.5986 1.01867 0
M  V30 22202 H 2108.5 6.07419 3.00082 0
M  V30 22203 H 2109.44 6.87321 1.70283 0
M  V30 22204 H 2109.85 5.2019 2.19233 0
M  V30 22205 N 2109.25 -0.0501116 1.5752 0
M  V30 22206 C 2110.47 -0.761197 1.92926 0
M  V30 22207 C 2110.9 -1.69211 0.821546 0
M  V30 22208 O 2110.26 -1.79908 -0.224247 0
M  V30 22209 C 2110.3 -1.51241 3.27351 0
M  V30 22210 O 2109.41 -2.62445 3.18114 0
M  V30 22211 H 2108.75 -0.206224 0.631164 0
M  V30 22212 H 2111.28 -0.0118709 2.04597 0
M  V30 22213 H 2111.29 -1.88696 3.61743 0
M  V30 22214 H 2109.96 -0.829535 4.07543 0
M  V30 22215 H 2108.54 -2.27688 2.95318 0
M  V30 22216 N 2110.73 -1.54276 -0.321972 0
M  V30 22217 C 2111.66 -1.86766 -1.40146 0
M  V30 22218 C 2112.64 -0.724601 -1.53895 0
M  V30 22219 O 2113.82 -0.978478 -1.67748 0
M  V30 22220 C 2110.95 -2.09642 -2.76889 0
M  V30 22221 C 2109.91 -3.25485 -2.77927 0
M  V30 22222 C 2109.23 -3.33736 -4.17761 0
M  V30 22223 C 2110.53 -4.63097 -2.41533 0
M  V30 22224 H 2112.23 -2.77174 -1.13204 0
M  V30 22225 H 2109.77 -1.33364 -0.543134 0
M  V30 22226 H 2111.73 -2.30955 -3.52474 0
M  V30 22227 H 2110.45 -1.15985 -3.05311 0
M  V30 22228 H 2109.11 -3.04062 -2.04798 0
M  V30 22229 H 2108.76 -2.37634 -4.43327 0
M  V30 22230 H 2108.46 -4.11594 -4.19362 0
M  V30 22231 H 2109.98 -3.57285 -4.95156 0
M  V30 22232 H 2111.39 -4.84281 -3.06831 0
M  V30 22233 H 2109.79 -5.43516 -2.54382 0
M  V30 22234 H 2110.86 -4.65238 -1.3668 0
M  V30 22235 N 2112.2 0.584116 -1.46376 0
M  V30 22236 C 2113.43 1.37331 -1.55419 0
M  V30 22237 C 2113.85 1.87082 -0.195472 0
M  V30 22238 O 2113.21 1.61486 0.824141 0
M  V30 22239 C 2113.26 2.53779 -2.56181 0
M  V30 22240 O 2112.36 3.55172 -2.09586 0
M  V30 22241 H 2111.71 0.409042 -0.523049 0
M  V30 22242 H 2114.24 0.708655 -1.91936 0
M  V30 22243 H 2114.25 3.00715 -2.75744 0
M  V30 22244 H 2112.92 2.16921 -3.5485 0
M  V30 22245 H 2111.5 3.14726 -2.00005 0
M  V30 22246 N 2113.68 1.34058 0.828631 0
M  V30 22247 C 2115.09 1.2341 1.40095 0
M  V30 22248 C 2115.45 -0.142779 1.9568 0
M  V30 22249 O 2114.57 -1.04286 1.89614 0
M  V30 22250 C 2115.17 2.23441 2.54675 0
M  V30 22251 C 2113.72 2.16602 3.07832 0
M  V30 22252 C 2112.87 2.1036 1.80676 0
M  V30 22253 H 2115.82 1.45507 0.633514 0
M  V30 22254 H 2115.84 1.84809 3.32605 0
M  V30 22255 H 2115.36 3.23642 2.1419 0
M  V30 22256 H 2113.46 1.19738 3.52836 0
M  V30 22257 H 2113.57 3.07604 3.6731 0
M  V30 22258 H 2111.93 1.55992 2.01342 0
M  V30 22259 H 2112.72 3.12386 1.42373 0
M  V30 22260 N 2115.16 -1.04814 1.17694 0
M  V30 22261 C 2116.44 -1.74812 0.877499 0
M  V30 22262 C 2116.82 -2.01747 -0.621383 0
M  V30 22263 O 2116.17 -1.6566 -1.57382 0
M  V30 22264 C 2116.38 -3.03866 1.71658 0
M  V30 22265 C 2117.72 -3.77745 1.93891 0
M  V30 22266 O 2118.75 -3.13746 1.68648 0
M  V30 22267 O 2117.61 -4.92753 2.3634 0
M  V30 22268 H 2114.7 -0.760352 0.32526 0
M  V30 22269 H 2117.25 -1.10947 1.28409 0
M  V30 22270 H 2116.02 -2.8004 2.73301 0
M  V30 22271 H 2115.64 -3.75469 1.30801 0
M  V30 22272 N 2116.64 -0.977779 -1.23601 0
M  V30 22273 C 2117.57 -0.535228 -2.27283 0
M  V30 22274 C 2118.55 0.430261 -1.64568 0
M  V30 22275 O 2119.74 0.324195 -1.91475 0
M  V30 22276 C 2116.87 0.165683 -3.46905 0
M  V30 22277 C 2115.82 -0.716827 -4.21954 0
M  V30 22278 C 2115.15 0.116149 -5.34574 0
M  V30 22279 C 2116.45 -2.00636 -4.82227 0
M  V30 22280 H 2118.14 -1.40185 -2.64553 0
M  V30 22281 H 2115.69 -0.67551 -1.27173 0
M  V30 22282 H 2117.64 0.486573 -4.18581 0
M  V30 22283 H 2116.36 1.06674 -3.08688 0
M  V30 22284 H 2115.02 -1.02114 -3.52091 0
M  V30 22285 H 2114.67 1.01766 -4.92598 0
M  V30 22286 H 2114.37 -0.471195 -5.85708 0
M  V30 22287 H 2115.89 0.431481 -6.09074 0
M  V30 22288 H 2117.31 -1.75041 -5.45925 0
M  V30 22289 H 2115.7 -2.54126 -5.43636 0
M  V30 22290 H 2116.77 -2.69488 -4.03118 0
M  V30 22291 N 2118.12 1.38658 -0.749111 0
M  V30 22292 C 2119.34 2.0503 -0.312666 0
M  V30 22293 C 2119.77 1.56125 1.04912 0
M  V30 22294 O 2119.13 0.711236 1.66767 0
M  V30 22295 C 2119.17 3.58997 -0.339658 0
M  V30 22296 O 2118.28 4.06956 0.667887 0
M  V30 22297 H 2117.62 0.649228 -0.139282 0
M  V30 22298 H 2120.15 1.7742 -1.01898 0
M  V30 22299 H 2120.16 4.07562 -0.188968 0
M  V30 22300 H 2118.83 3.93951 -1.33325 0
M  V30 22301 H 2117.41 3.69769 0.482177 0
M  V30 22302 N 2119.6 0.497834 1.49531 0
M  V30 22303 C 2120.53 -0.318951 2.2697 0
M  V30 22304 C 2121.54 -0.933444 1.33382 0
M  V30 22305 O 2122.73 -0.81732 1.58689 0
M  V30 22306 C 2119.83 -1.46375 3.05659 0
M  V30 22307 C 2119 -0.957146 4.26799 0
M  V30 22308 C 2118.06 -1.97917 4.8756 0
M  V30 22309 O 2117.09 -1.54899 5.47718 0
M  V30 22310 N 2118.29 -3.30935 4.7693 0
M  V30 22311 H 2121.05 0.345053 2.97707 0
M  V30 22312 H 2118.62 0.330191 1.58497 0
M  V30 22313 H 2120.61 -2.14495 3.43182 0
M  V30 22314 H 2119.18 -2.03196 2.3755 0
M  V30 22315 H 2118.4 -0.100949 3.94071 0
M  V30 22316 H 2119.69 -0.597028 5.05285 0
M  V30 22317 H 2119.08 -3.68576 4.29149 0
M  V30 22318 H 2117.64 -3.94778 5.18646 0
M  V30 22319 N 2121.07 -1.5589 0.231532 0
M  V30 22320 C 2122.32 -1.98855 -0.398041 0
M  V30 22321 C 2122.65 -1.11925 -1.58702 0
M  V30 22322 O 2121.93 -0.179155 -1.93673 0
M  V30 22323 C 2122.21 -3.50572 -0.822893 0
M  V30 22324 C 2122.06 -4.48272 0.370417 0
M  V30 22325 C 2123.38 -4.0696 -1.67547 0
M  V30 22326 H 2120.5 -0.722953 -0.143207 0
M  V30 22327 H 2123.14 -1.87116 0.329767 0
M  V30 22328 H 2121.29 -3.60706 -1.44303 0
M  V30 22329 H 2122.97 -4.50137 1.0087 0
M  V30 22330 H 2121.21 -4.2173 1.01617 0
M  V30 22331 H 2121.88 -5.51992 0.0300558 0
M  V30 22332 H 2124.36 -3.99831 -1.15214 0
M  V30 22333 H 2123.23 -5.13412 -1.94162 0
M  V30 22334 H 2123.49 -3.5446 -2.64217 0
M  V30 22335 N 2122.55 0.0417572 -1.57545 0
M  V30 22336 C 2123.78 0.747215 -1.92936 0
M  V30 22337 C 2124.19 1.69567 -0.830209 0
M  V30 22338 O 2123.55 1.81462 0.194363 0
M  V30 22339 C 2123.6 1.51519 -3.28214 0
M  V30 22340 O 2123.32 0.604825 -4.33905 0
M  V30 22341 C 2124.82 2.31896 -3.77809 0
M  V30 22342 H 2122.04 0.210755 -0.637043 0
M  V30 22343 H 2124.59 0.00306497 -2.045 0
M  V30 22344 H 2122.74 2.21134 -3.18086 0
M  V30 22345 H 2123.16 1.14205 -5.11916 0
M  V30 22346 H 2124.63 2.81194 -4.75009 0
M  V30 22347 H 2125.11 3.12759 -3.08348 0
M  V30 22348 H 2125.71 1.6738 -3.90978 0
M  V30 22349 N 2124.03 1.54445 0.313786 0
M  V30 22350 C 2124.96 1.87506 1.39153 0
M  V30 22351 C 2125.94 0.732752 1.53508 0
M  V30 22352 O 2127.13 0.98736 1.67227 0
M  V30 22353 C 2124.26 2.11107 2.75773 0
M  V30 22354 C 2123.21 3.26954 2.76197 0
M  V30 22355 C 2122.54 3.35947 4.15985 0
M  V30 22356 C 2123.84 4.64372 2.39073 0
M  V30 22357 H 2125.53 2.7777 1.11732 0
M  V30 22358 H 2123.08 1.33651 0.536054 0
M  V30 22359 H 2125.03 2.32821 3.51244 0
M  V30 22360 H 2123.75 1.17602 3.04692 0
M  V30 22361 H 2122.41 3.05144 2.03182 0
M  V30 22362 H 2122.06 2.39982 4.42061 0
M  V30 22363 H 2121.76 4.13812 4.17173 0
M  V30 22364 H 2123.28 3.59906 4.93254 0
M  V30 22365 H 2124.7 4.85901 3.04258 0
M  V30 22366 H 2123.09 5.44858 2.51496 0
M  V30 22367 H 2124.16 4.65956 1.34211 0
M  V30 22368 N 2125.51 -0.576345 1.46683 0
M  V30 22369 C 2126.73 -1.36505 1.56145 0
M  V30 22370 C 2127.16 -1.86975 0.20539 0
M  V30 22371 O 2126.52 -1.6192 -0.815566 0
M  V30 22372 C 2126.56 -2.52417 2.57523 0
M  V30 22373 O 2125.67 -3.54056 2.11467 0
M  V30 22374 H 2125.01 -0.406262 0.525211 0
M  V30 22375 H 2127.54 -0.698466 1.92309 0
M  V30 22376 H 2127.55 -2.99248 2.77335 0
M  V30 22377 H 2126.22 -2.15036 3.55995 0
M  V30 22378 H 2124.8 -3.13661 2.01671 0
M  V30 22379 N 2126.99 -1.34495 -0.82151 0
M  V30 22380 C 2128.4 -1.24152 -1.39439 0
M  V30 22381 C 2128.75 0.1324 -1.95753 0
M  V30 22382 O 2127.87 1.03279 -1.90164 0
M  V30 22383 C 2128.47 -2.24789 -2.53487 0
M  V30 22384 C 2127.03 -2.18232 -3.06679 0
M  V30 22385 C 2126.17 -2.11315 -1.79558 0
M  V30 22386 H 2129.12 -1.45841 -0.625789 0
M  V30 22387 H 2129.15 -1.8657 -3.3162 0
M  V30 22388 H 2128.66 -3.24774 -2.1247 0
M  V30 22389 H 2126.76 -1.21608 -3.52196 0
M  V30 22390 H 2126.87 -3.09548 -3.65673 0
M  V30 22391 H 2125.24 -1.57058 -2.00512 0
M  V30 22392 H 2126.02 -3.13136 -1.40714 0
M  V30 22393 N 2128.46 1.04188 -1.18248 0
M  V30 22394 C 2129.74 1.74344 -0.886757 0
M  V30 22395 C 2130.12 2.02074 0.610675 0
M  V30 22396 O 2129.47 1.66492 1.56501 0
M  V30 22397 C 2129.68 3.02952 -1.73267 0
M  V30 22398 C 2131.03 3.76712 -1.95892 0
M  V30 22399 O 2132.05 3.12847 -1.70309 0
M  V30 22400 O 2130.91 4.91493 -2.38949 0
M  V30 22401 H 2128 0.758616 -0.329288 0
M  V30 22402 H 2130.55 1.10265 -1.28995 0
M  V30 22403 H 2129.32 2.78587 -2.74782 0
M  V30 22404 H 2128.95 3.7477 -1.3279 0
M  V30 22405 N 2129.94 0.98432 1.23081 0
M  V30 22406 C 2131.19 0.650883 1.90909 0
M  V30 22407 C 2131.5 -0.819701 1.77596 0
M  V30 22408 O 2132.71 -1.26436 2.40263 0
M  V30 22409 C 2131.17 1.11359 3.42239 0
M  V30 22410 C 2130.77 2.60879 3.64206 0
M  V30 22411 C 2132.52 0.854079 4.15819 0
M  V30 22412 C 2130.43 3.00797 5.09191 0
M  V30 22413 H 2129.36 0.239743 0.71487 0
M  V30 22414 H 2132.01 1.19274 1.39449 0
M  V30 22415 H 2130.39 0.499916 3.92832 0
M  V30 22416 H 2131.56 3.27519 3.24142 0
M  V30 22417 H 2129.88 2.84619 3.03942 0
M  V30 22418 H 2132.47 1.12812 5.22664 0
M  V30 22419 H 2132.82 -0.209813 4.15771 0
M  V30 22420 H 2133.35 1.42952 3.71227 0
M  V30 22421 H 2130.09 4.06326 5.14373 0
M  V30 22422 H 2129.61 2.38854 5.5019 0
M  V30 22423 H 2131.29 2.9162 5.77552 0
M  V30 22424 N 2131.42 -1.38259 0.756453 0
M  V30 22425 C 2132.65 -2.04861 0.323535 0
M  V30 22426 C 2133.07 -1.56679 -1.04083 0
M  V30 22427 O 2132.43 -0.72007 -1.66387 0
M  V30 22428 C 2132.48 -3.58812 0.358692 0
M  V30 22429 O 2131.58 -4.07304 -0.646296 0
M  V30 22430 H 2130.92 -0.64848 0.142723 0
M  V30 22431 H 2133.45 -1.76877 1.02838 0
M  V30 22432 H 2133.46 -4.07456 0.210579 0
M  V30 22433 H 2132.14 -3.93238 1.35413 0
M  V30 22434 H 2130.71 -3.7002 -0.462561 0
M  V30 22435 N 2132.9 -0.505757 -1.49264 0
M  V30 22436 C 2134.18 0.100315 -1.95343 0
M  V30 22437 C 2134.56 1.53667 -1.44739 0
M  V30 22438 O 2133.9 2.18663 -0.663221 0
M  V30 22439 C 2134.11 0.00805543 -3.48999 0
M  V30 22440 C 2135.46 0.179587 -4.2422 0
M  V30 22441 O 2136.49 0.0830161 -3.56103 0
M  V30 22442 O 2135.34 0.378466 -5.45188 0
M  V30 22443 H 2132.44 0.0926837 -0.82179 0
M  V30 22444 H 2134.98 -0.568634 -1.59889 0
M  V30 22445 H 2133.76 -0.993441 -3.78479 0
M  V30 22446 H 2133.38 0.716938 -3.91083 0
M  V30 22447 N 2134.38 1.55765 -0.239796 0
M  V30 22448 C 2135.6 2.03167 0.391261 0
M  V30 22449 C 2136.02 1.11923 1.52049 0
M  V30 22450 O 2135.38 0.132278 1.8202 0
M  V30 22451 C 2135.43 3.49969 0.90575 0
M  V30 22452 O 2135.15 4.37736 -0.178468 0
M  V30 22453 C 2136.65 4.131 1.60821 0
M  V30 22454 H 2133.87 0.664411 0.0938007 0
M  V30 22455 H 2136.41 2.01278 -0.361584 0
M  V30 22456 H 2134.57 3.52415 1.6088 0
M  V30 22457 H 2134.98 5.24075 0.211064 0
M  V30 22458 H 2136.46 5.17533 1.92 0
M  V30 22459 H 2136.93 3.59169 2.52773 0
M  V30 22460 H 2137.54 4.14556 0.949915 0
M  V30 22461 N 2135.85 -0.0334016 1.57565 0
M  V30 22462 C 2137.08 -0.736973 1.9333 0
M  V30 22463 C 2137.5 -1.69124 0.83919 0
M  V30 22464 O 2136.85 -1.81563 -0.184737 0
M  V30 22465 C 2136.91 -1.49777 3.29012 0
M  V30 22466 O 2136.63 -0.581806 4.3422 0
M  V30 22467 C 2138.13 -2.29889 3.79033 0
M  V30 22468 H 2135.35 -0.207374 0.638151 0
M  V30 22469 H 2137.89 0.0077802 2.04499 0
M  V30 22470 H 2136.05 -2.19444 3.19254 0
M  V30 22471 H 2136.46 -1.11488 5.12514 0
M  V30 22472 H 2137.93 -2.78671 4.76494 0
M  V30 22473 H 2138.41 -3.11119 3.10003 0
M  V30 22474 H 2139.02 -1.65304 3.9186 0
M  V30 22475 N 2137.33 -1.54609 -0.305591 0
M  V30 22476 C 2138.26 -1.88242 -1.38157 0
M  V30 22477 C 2139.24 -0.740883 -1.53117 0
M  V30 22478 O 2140.43 -0.996214 -1.66701 0
M  V30 22479 C 2137.56 -2.12567 -2.7465 0
M  V30 22480 C 2136.51 -3.28415 -2.74459 0
M  V30 22481 C 2135.84 -3.38148 -4.14198 0
M  V30 22482 C 2137.14 -4.65633 -2.36607 0
M  V30 22483 H 2138.83 -2.78359 -1.10258 0
M  V30 22484 H 2136.38 -1.33933 -0.528959 0
M  V30 22485 H 2138.33 -2.34681 -3.50004 0
M  V30 22486 H 2137.06 -1.19216 -3.04064 0
M  V30 22487 H 2135.71 -3.06217 -2.01561 0
M  V30 22488 H 2135.36 -2.42323 -4.40782 0
M  V30 22489 H 2135.06 -4.16019 -4.14973 0
M  V30 22490 H 2136.59 -3.62517 -4.91339 0
M  V30 22491 H 2138 -4.87508 -3.01677 0
M  V30 22492 H 2136.4 -5.46184 -2.48603 0
M  V30 22493 H 2137.47 -4.66662 -1.31738 0
M  V30 22494 N 2138.81 0.568558 -1.46987 0
M  V30 22495 C 2139.74 1.68651 -1.61491 0
M  V30 22496 C 2140.72 1.63629 -0.464706 0
M  V30 22497 O 2141.91 1.81427 -0.692676 0
M  V30 22498 C 2139.04 3.07294 -1.61826 0
M  V30 22499 C 2137.99 3.27156 -2.75959 0
M  V30 22500 C 2137.32 4.6647 -2.61361 0
M  V30 22501 C 2138.62 3.13623 -4.17658 0
M  V30 22502 H 2140.31 1.56769 -2.55076 0
M  V30 22503 H 2137.86 0.752771 -1.22757 0
M  V30 22504 H 2139.81 3.85338 -1.70565 0
M  V30 22505 H 2138.53 3.20108 -0.647937 0
M  V30 22506 H 2137.19 2.51516 -2.66712 0
M  V30 22507 H 2136.84 4.76069 -1.62381 0
M  V30 22508 H 2136.54 4.8071 -3.37923 0
M  V30 22509 H 2138.06 5.46664 -2.72012 0
M  V30 22510 H 2139.48 3.81497 -4.27941 0
M  V30 22511 H 2137.88 3.39378 -4.94917 0
M  V30 22512 H 2138.95 2.10514 -4.3682 0
M  V30 22513 N 2140.29 1.34929 0.814366 0
M  V30 22514 C 2141.7 1.24889 1.38779 0
M  V30 22515 C 2142.05 -0.122017 1.9582 0
M  V30 22516 O 2141.18 -1.02269 1.90709 0
M  V30 22517 C 2141.77 2.2613 2.52291 0
M  V30 22518 C 2140.33 2.19855 3.05517 0
M  V30 22519 C 2139.48 2.12265 1.78435 0
M  V30 22520 H 2142.43 1.46171 0.618046 0
M  V30 22521 H 2142.45 1.88326 3.30626 0
M  V30 22522 H 2141.96 3.25896 2.10745 0
M  V30 22523 H 2140.06 1.23474 3.51547 0
M  V30 22524 H 2140.17 3.11482 3.64027 0
M  V30 22525 H 2138.54 1.58119 1.99676 0
M  V30 22526 H 2139.32 3.13878 1.39051 0
M  V30 22527 N 2141.77 -1.0356 1.18799 0
M  V30 22528 C 2143.04 -1.73872 0.895991 0
M  V30 22529 C 2143.42 -2.02395 -0.59995 0
M  V30 22530 O 2142.77 -1.6732 -1.55616 0
M  V30 22531 C 2142.98 -3.02028 1.74871 0
M  V30 22532 C 2144.33 -3.75667 1.97887 0
M  V30 22533 O 2145.35 -3.11939 1.71966 0
M  V30 22534 O 2144.21 -4.90219 2.41553 0
M  V30 22535 H 2141.31 -0.756859 0.333306 0
M  V30 22536 H 2143.85 -1.09579 1.29578 0
M  V30 22537 H 2142.62 -2.77126 2.76256 0
M  V30 22538 H 2142.25 -3.7406 1.34776 0
M  V30 22539 N 2143.25 -0.990834 -1.22557 0
M  V30 22540 C 2144.18 -0.559304 -2.26703 0
M  V30 22541 C 2145.16 0.412782 -1.65016 0
M  V30 22542 O 2146.34 0.303868 -1.91808 0
M  V30 22543 C 2143.47 0.12888 -3.47061 0
M  V30 22544 C 2142.43 -0.76154 -4.2117 0
M  V30 22545 C 2141.75 0.0594442 -5.34667 0
M  V30 22546 C 2143.05 -2.0574 -4.80071 0
M  V30 22547 H 2144.75 -1.42983 -2.63052 0
M  V30 22548 H 2142.29 -0.68896 -1.26449 0
M  V30 22549 H 2144.24 0.44215 -4.19074 0
M  V30 22550 H 2142.97 1.03394 -3.09802 0
M  V30 22551 H 2141.63 -1.05842 -3.50989 0
M  V30 22552 H 2141.28 0.965355 -4.9365 0
M  V30 22553 H 2140.98 -0.533291 -5.85175 0
M  V30 22554 H 2142.5 0.366857 -6.09497 0
M  V30 22555 H 2143.91 -1.80821 -5.44037 0
M  V30 22556 H 2142.31 -2.59878 -5.4091 0
M  V30 22557 H 2143.38 -2.73748 -4.00237 0
M  V30 22558 N 2144.72 1.37856 -0.763775 0
M  V30 22559 C 2145.95 2.04686 -0.334395 0
M  V30 22560 C 2146.37 1.57229 1.0325 0
M  V30 22561 O 2145.73 0.728884 1.66003 0
M  V30 22562 C 2145.78 3.58616 -0.377715 0
M  V30 22563 O 2144.88 4.07641 0.624687 0
M  V30 22564 H 2144.22 0.647714 -0.146161 0
M  V30 22565 H 2146.75 1.76329 -1.03774 0
M  V30 22566 H 2146.76 4.07339 -0.232185 0
M  V30 22567 H 2145.44 3.92514 -1.37496 0
M  V30 22568 H 2144.02 3.7026 0.442931 0
M  V30 22569 N 2146.2 0.513665 1.48994 0
M  V30 22570 C 2147.13 -0.29486 2.27295 0
M  V30 22571 C 2148.15 -0.919245 1.34364 0
M  V30 22572 O 2149.34 -0.800442 1.59547 0
M  V30 22573 C 2146.44 -1.43125 3.07195 0
M  V30 22574 C 2145.61 -0.911824 4.2779 0
M  V30 22575 C 2144.67 -1.92735 4.89632 0
M  V30 22576 O 2143.69 -1.49081 5.4933 0
M  V30 22577 N 2144.9 -3.25858 4.80413 0
M  V30 22578 H 2147.66 0.376609 2.97324 0
M  V30 22579 H 2145.22 0.346983 1.58138 0
M  V30 22580 H 2147.21 -2.10843 3.45438 0
M  V30 22581 H 2145.78 -2.00665 2.39692 0
M  V30 22582 H 2145 -0.059147 3.94156 0
M  V30 22583 H 2146.29 -0.543402 5.0589 0
M  V30 22584 H 2145.69 -3.64003 4.33034 0
M  V30 22585 H 2144.25 -3.89255 5.22804 0
M  V30 22586 N 2147.68 -1.55636 0.248053 0
M  V30 22587 C 2148.93 -1.98148 -0.376864 0
M  V30 22588 C 2149.24 -1.13944 -1.58984 0
M  V30 22589 O 2150.45 -1.46475 -2.28598 0
M  V30 22590 C 2148.9 -3.52586 -0.721883 0
M  V30 22591 C 2148.51 -4.4553 0.469765 0
M  V30 22592 C 2150.26 -4.03751 -1.31093 0
M  V30 22593 C 2148.16 -5.91314 0.100837 0
M  V30 22594 H 2147.09 -0.740008 -0.144582 0
M  V30 22595 H 2149.74 -1.80161 0.348451 0
M  V30 22596 H 2148.13 -3.66272 -1.50536 0
M  V30 22597 H 2149.3 -4.43604 1.24708 0
M  V30 22598 H 2147.61 -4.04853 0.973816 0
M  V30 22599 H 2150.21 -5.10191 -1.6003 0
M  V30 22600 H 2150.55 -3.51167 -2.23578 0
M  V30 22601 H 2151.09 -3.93395 -0.590329 0
M  V30 22602 H 2147.83 -6.47937 0.992861 0
M  V30 22603 H 2147.35 -5.96373 -0.640255 0
M  V30 22604 H 2149.03 -6.46225 -0.316571 0
M  V30 22605 N 2149.16 0.0250451 -1.5758 0
M  V30 22606 C 2150.38 0.730408 -1.94113 0
M  V30 22607 C 2150.81 1.67882 -0.848362 0
M  V30 22608 O 2150.17 1.80242 0.195596 0
M  V30 22609 C 2150.21 1.46014 -3.29715 0
M  V30 22610 O 2149.32 2.57351 -3.22249 0
M  V30 22611 H 2148.66 0.196157 -0.634365 0
M  V30 22612 H 2151.19 -0.0206802 -2.0459 0
M  V30 22613 H 2151.2 1.82917 -3.64699 0
M  V30 22614 H 2149.87 0.764593 -4.08811 0
M  V30 22615 H 2148.45 2.22961 -2.98903 0
M  V30 22616 N 2150.64 1.54769 0.297388 0
M  V30 22617 C 2152.05 1.65183 0.87014 0
M  V30 22618 C 2152.4 0.562844 1.87953 0
M  V30 22619 O 2151.52 -0.299913 2.14312 0
M  V30 22620 C 2152.12 2.99437 1.58501 0
M  V30 22621 C 2150.68 3.1196 2.10612 0
M  V30 22622 C 2149.82 2.60882 0.94 0
M  V30 22623 H 2152.77 1.58526 0.0743014 0
M  V30 22624 H 2152.8 2.91063 2.45077 0
M  V30 22625 H 2152.31 3.78675 0.850115 0
M  V30 22626 H 2150.41 2.3745 2.87138 0
M  V30 22627 H 2150.52 4.1817 2.33817 0
M  V30 22628 H 2148.89 2.17426 1.32658 0
M  V30 22629 H 2149.67 3.42601 0.219 0
M  V30 22630 N 2152.11 -0.560755 1.47286 0
M  V30 22631 C 2153.52 -1.14289 1.47631 0
M  V30 22632 C 2153.88 -1.94858 0.229063 0
M  V30 22633 O 2153 -2.05887 -0.666292 0
M  V30 22634 C 2153.6 -2.07933 2.67487 0
M  V30 22635 C 2152.15 -2.61425 2.70803 0
M  V30 22636 C 2151.3 -1.37732 2.40677 0
M  V30 22637 H 2154.25 -0.347538 1.54848 0
M  V30 22638 H 2154.27 -2.91752 2.44256 0
M  V30 22639 H 2153.79 -1.49265 3.58248 0
M  V30 22640 H 2151.89 -3.239 1.84172 0
M  V30 22641 H 2152 -3.02661 3.71394 0
M  V30 22642 H 2150.36 -1.68286 1.91186 0
M  V30 22643 H 2151.15 -0.808627 3.33641 0
M  V30 22644 N 2153.59 -1.35359 -0.807199 0
M  V30 22645 C 2155 -1.25624 -1.38114 0
M  V30 22646 C 2155.35 0.11163 -1.95882 0
M  V30 22647 O 2154.48 1.01256 -1.91249 0
M  V30 22648 C 2155.07 -2.27464 -2.51088 0
M  V30 22649 C 2153.63 -2.21472 -3.04347 0
M  V30 22650 C 2152.78 -2.13208 -1.77307 0
M  V30 22651 H 2155.73 -1.46496 -0.610285 0
M  V30 22652 H 2155.75 -1.90077 -3.29623 0
M  V30 22653 H 2155.26 -3.27009 -2.09014 0
M  V30 22654 H 2153.36 -1.25336 -3.50887 0
M  V30 22655 H 2153.48 -3.13409 -3.6237 0
M  V30 22656 H 2151.84 -1.59176 -1.98834 0
M  V30 22657 H 2152.62 -3.14611 -1.37385 0
M  V30 22658 N 2155.07 1.02928 -1.19346 0
M  V30 22659 C 2156.35 1.73394 -0.905199 0
M  V30 22660 C 2156.73 2.02711 0.589208 0
M  V30 22661 O 2156.07 1.68142 1.54727 0
M  V30 22662 C 2156.28 3.01097 -1.7647 0
M  V30 22663 C 2157.63 3.74613 -1.99876 0
M  V30 22664 O 2158.66 3.11023 -1.73618 0
M  V30 22665 O 2157.52 4.88931 -2.44149 0
M  V30 22666 H 2154.61 0.755081 -0.337316 0
M  V30 22667 H 2157.16 1.08891 -1.30157 0
M  V30 22668 H 2155.93 2.75657 -2.77721 0
M  V30 22669 H 2155.55 3.7334 -1.36758 0
M  V30 22670 N 2156.55 0.997319 1.2203 0
M  V30 22671 C 2157.48 0.571319 2.26403 0
M  V30 22672 C 2158.46 -0.404025 1.65232 0
M  V30 22673 O 2159.64 -0.293692 1.91966 0
M  V30 22674 C 2156.77 -0.110472 3.47124 0
M  V30 22675 C 2155.73 0.783865 4.20761 0
M  V30 22676 C 2155.05 -0.0310887 5.34691 0
M  V30 22677 C 2156.35 2.08283 4.78974 0
M  V30 22678 H 2158.05 1.44376 2.6229 0
M  V30 22679 H 2155.59 0.695656 1.26082 0
M  V30 22680 H 2157.55 -0.419919 4.19303 0
M  V30 22681 H 2156.27 -1.01749 3.10346 0
M  V30 22682 H 2154.93 1.07702 3.50422 0
M  V30 22683 H 2154.58 -0.939162 4.94155 0
M  V30 22684 H 2154.28 0.564316 5.84884 0
M  V30 22685 H 2155.8 -0.334528 6.09683 0
M  V30 22686 H 2157.22 1.83704 5.43071 0
M  V30 22687 H 2155.61 2.62743 5.39524 0
M  V30 22688 H 2156.68 2.75867 3.9878 0
M  V30 22689 N 2158.03 -1.37449 0.771075 0
M  V30 22690 C 2159.3 -1.93866 0.259851 0
M  V30 22691 C 2159.68 -1.7048 -1.24498 0
M  V30 22692 O 2159.03 -1.05322 -2.0278 0
M  V30 22693 C 2159.24 -3.4322 0.63251 0
M  V30 22694 C 2160.59 -4.20312 0.601925 0
M  V30 22695 O 2161.61 -3.5158 0.571859 0
M  V30 22696 O 2160.47 -5.42875 0.628405 0
M  V30 22697 H 2157.57 -0.824843 0.0596922 0
M  V30 22698 H 2160.11 -1.4674 0.852382 0
M  V30 22699 H 2158.88 -3.53822 1.6711 0
M  V30 22700 H 2158.51 -3.97598 0.0128904 0
M  V30 22701 N 2159.5 -0.52156 -1.4872 0
M  V30 22702 C 2160.44 0.282802 -2.27449 0
M  V30 22703 C 2161.45 0.912106 -1.3485 0
M  V30 22704 O 2162.64 0.79197 -1.59969 0
M  V30 22705 C 2159.74 1.41494 -3.07949 0
M  V30 22706 C 2158.91 0.889125 -4.28268 0
M  V30 22707 C 2157.97 1.90136 -4.90647 0
M  V30 22708 O 2157 1.46166 -5.50113 0
M  V30 22709 N 2158.2 3.23306 -4.82134 0
M  V30 22710 H 2160.96 -0.392372 -2.9712 0
M  V30 22711 H 2158.52 -0.355365 -1.57952 0
M  V30 22712 H 2160.52 2.09008 -3.46551 0
M  V30 22713 H 2159.09 1.99391 -2.40753 0
M  V30 22714 H 2158.31 0.0382432 -3.94181 0
M  V30 22715 H 2159.59 0.516566 -5.06171 0
M  V30 22716 H 2158.99 3.61702 -4.34958 0
M  V30 22717 H 2157.55 3.86477 -5.24861 0
M  V30 22718 N 2160.98 1.55502 -0.256304 0
M  V30 22719 C 2162.23 1.98345 0.366351 0
M  V30 22720 C 2162.54 1.14786 1.58378 0
M  V30 22721 O 2163.75 1.47686 2.27818 0
M  V30 22722 C 2162.21 3.52964 0.703174 0
M  V30 22723 C 2161.81 4.45275 -0.493386 0
M  V30 22724 C 2163.56 4.04441 1.2895 0
M  V30 22725 C 2161.47 5.91252 -0.132195 0
M  V30 22726 H 2160.4 0.740764 0.140656 0
M  V30 22727 H 2163.05 1.79974 -0.358 0
M  V30 22728 H 2161.43 3.67065 1.48591 0
M  V30 22729 H 2162.6 4.42936 -1.27059 0
M  V30 22730 H 2160.92 4.04331 -0.995272 0
M  V30 22731 H 2163.51 5.11032 1.57322 0
M  V30 22732 H 2163.86 3.52348 2.21713 0
M  V30 22733 H 2164.39 3.93703 0.569458 0
M  V30 22734 H 2161.13 6.47401 -1.02721 0
M  V30 22735 H 2160.65 5.96704 0.608619 0
M  V30 22736 H 2162.33 6.46384 0.282295 0
M  V30 22737 N 2162.46 -0.0166879 1.57591 0
M  V30 22738 C 2163.71 -0.704989 1.89832 0
M  V30 22739 C 2164.04 -1.74694 0.855116 0
M  V30 22740 O 2163.29 -1.95182 -0.142329 0
M  V30 22741 C 2163.59 -1.4003 3.28826 0
M  V30 22742 C 2163.26 -0.493148 4.48195 0
M  V30 22743 C 2161.92 -0.24333 4.80584 0
M  V30 22744 C 2164.27 0.132428 5.21032 0
M  V30 22745 C 2161.6 0.640635 5.83192 0
M  V30 22746 C 2163.95 1.00417 6.24579 0
M  V30 22747 C 2162.61 1.26333 6.55436 0
M  V30 22748 H 2161.88 -0.257974 0.694644 0
M  V30 22749 H 2164.53 0.0352552 1.91468 0
M  V30 22750 H 2162.84 -2.21417 3.23236 0
M  V30 22751 H 2164.53 -1.93863 3.51025 0
M  V30 22752 H 2161.12 -0.698019 4.22878 0
M  V30 22753 H 2165.31 -0.0475893 4.96277 0
M  V30 22754 H 2160.56 0.849601 6.05468 0
M  V30 22755 H 2164.74 1.49535 6.80156 0
M  V30 22756 H 2162.36 1.95 7.34765 0
M  V30 22757 N 2163.94 -1.54924 -0.289176 0
M  V30 22758 C 2165.17 -1.78513 -1.04003 0
M  V30 22759 C 2165.58 -0.550557 -1.81012 0
M  V30 22760 O 2164.92 0.489519 -1.77058 0
M  V30 22761 C 2164.98 -2.9476 -2.05808 0
M  V30 22762 C 2164.65 -4.32411 -1.47886 0
M  V30 22763 C 2165.64 -5.12002 -0.902795 0
M  V30 22764 C 2163.33 -4.79037 -1.51092 0
M  V30 22765 C 2165.32 -6.36345 -0.366511 0
M  V30 22766 C 2163.01 -6.0334 -0.970774 0
M  V30 22767 C 2164.01 -6.8183 -0.39955 0
M  V30 22768 O 2163.69 -8.03791 0.132375 0
M  V30 22769 H 2163.43 -0.598816 -0.31368 0
M  V30 22770 H 2165.98 -2.02726 -0.330347 0
M  V30 22771 H 2164.21 -2.66199 -2.8049 0
M  V30 22772 H 2165.9 -3.05817 -2.6689 0
M  V30 22773 H 2166.67 -4.77118 -0.870835 0
M  V30 22774 H 2162.54 -4.17964 -1.94493 0
M  V30 22775 H 2166.09 -6.97554 0.0799946 0
M  V30 22776 H 2161.99 -6.37708 -0.99992 0
M  V30 22777 H 2162.75 -8.18498 0.0201954 0
M  V30 22778 N 2165.42 0.552936 -1.47582 0
M  V30 22779 C 2166.83 1.13504 -1.48235 0
M  V30 22780 C 2167.18 1.94734 -0.239394 0
M  V30 22781 O 2166.3 2.06238 0.655364 0
M  V30 22782 C 2166.9 2.06511 -2.68586 0
M  V30 22783 C 2165.46 2.59985 -2.72185 0
M  V30 22784 C 2164.6 1.36454 -2.41404 0
M  V30 22785 H 2167.56 0.339321 -1.5503 0
M  V30 22786 H 2167.58 2.90453 -2.45799 0
M  V30 22787 H 2167.09 1.47363 -3.59034 0
M  V30 22788 H 2165.19 3.22919 -1.85887 0
M  V30 22789 H 2165.3 3.00687 -3.72994 0
M  V30 22790 H 2163.67 1.6727 -1.92076 0
M  V30 22791 H 2164.45 0.790922 -3.34065 0
M  V30 22792 N 2166.89 1.35785 0.800009 0
M  V30 22793 C 2168.12 1.32717 1.59377 0
M  V30 22794 C 2168.54 -0.0914251 1.87878 0
M  V30 22795 O 2167.9 -1.06023 1.47068 0
M  V30 22796 C 2167.95 2.14589 2.898 0
M  V30 22797 O 2167.05 1.53112 3.82924 0
M  V30 22798 H 2166.4 0.45473 0.483856 0
M  V30 22799 H 2168.93 1.7892 0.992412 0
M  V30 22800 H 2168.94 2.26784 3.39165 0
M  V30 22801 H 2167.61 3.17717 2.68382 0
M  V30 22802 H 2166.19 1.49795 3.41491 0
M  V30 22803 N 2168.37 -1.02294 1.19891 0
M  V30 22804 C 2169.28 -2.14169 0.957533 0
M  V30 22805 C 2170.3 -1.73795 -0.0844739 0
M  V30 22806 O 2171.47 -2.01144 0.101528 0
M  V30 22807 C 2168.54 -3.4299 0.50587 0
M  V30 22808 C 2167.6 -3.97643 1.61797 0
M  V30 22809 C 2166.83 -5.20315 1.18777 0
M  V30 22810 O 2167.06 -5.70375 0.0538032 0
M  V30 22811 O 2165.99 -5.67957 1.99268 0
M  V30 22812 H 2169.82 -2.37398 1.89409 0
M  V30 22813 H 2167.4 -1.12572 0.982234 0
M  V30 22814 H 2169.28 -4.20579 0.26292 0
M  V30 22815 H 2167.96 -3.21192 -0.402182 0
M  V30 22816 H 2166.87 -3.21362 1.91514 0
M  V30 22817 H 2168.2 -4.23817 2.5028 0
M  V30 22818 N 2169.85 -1.00378 -1.21499 0
M  V30 22819 C 2171.08 -0.704325 -1.95074 0
M  V30 22820 C 2171.5 0.726447 -1.73506 0
M  V30 22821 O 2170.86 1.49809 -1.02113 0
M  V30 22822 C 2170.91 -1.02938 -3.45595 0
M  V30 22823 O 2170.01 -0.133961 -4.12182 0
M  V30 22824 H 2169.35 -0.262537 -0.609894 0
M  V30 22825 H 2171.88 -1.34369 -1.54292 0
M  V30 22826 H 2171.89 -0.975727 -3.96161 0
M  V30 22827 H 2170.57 -2.0719 -3.60618 0
M  V30 22828 H 2169.14 -0.244034 -3.72101 0
M  V30 22829 N 2171.33 1.37038 -0.778354 0
M  V30 22830 C 2172.55 2.0432 -0.356086 0
M  V30 22831 C 2172.98 1.58315 1.01577 0
M  V30 22832 O 2172.34 0.74645 1.65221 0
M  V30 22833 C 2172.38 3.58196 -0.41573 0
M  V30 22834 O 2171.49 4.08281 0.581416 0
M  V30 22835 H 2170.83 0.646127 -0.153022 0
M  V30 22836 H 2173.36 1.75219 -1.05639 0
M  V30 22837 H 2173.37 4.0707 -0.275375 0
M  V30 22838 H 2172.04 3.91034 -1.41652 0
M  V30 22839 H 2170.62 3.70709 0.403635 0
M  V30 22840 N 2172.81 0.529439 1.48441 0
M  V30 22841 C 2173.74 -0.270735 2.27595 0
M  V30 22842 C 2174.75 -0.904942 1.35332 0
M  V30 22843 O 2175.94 -0.783475 1.60387 0
M  V30 22844 C 2173.04 -1.39858 3.08695 0
M  V30 22845 C 2172.21 -0.8664 4.28733 0
M  V30 22846 C 2171.27 -1.87531 4.91649 0
M  V30 22847 O 2170.3 -1.43247 5.5088 0
M  V30 22848 N 2171.5 -3.20745 4.83842 0
M  V30 22849 H 2174.27 0.408123 2.96908 0
M  V30 22850 H 2171.83 0.363736 1.57761 0
M  V30 22851 H 2173.82 -2.07167 3.47655 0
M  V30 22852 H 2172.39 -1.98112 2.41807 0
M  V30 22853 H 2171.61 -0.0173382 3.94196 0
M  V30 22854 H 2172.9 -0.489715 5.06438 0
M  V30 22855 H 2172.3 -3.5939 4.3687 0
M  V30 22856 H 2170.85 -3.83688 5.26903 0
M  V30 22857 N 2174.29 -1.55364 0.264547 0
M  V30 22858 C 2175.51 -2.0422 -0.361799 0
M  V30 22859 C 2175.94 -1.14203 -1.49464 0
M  V30 22860 O 2175.29 -0.138477 -1.8077 0
M  V30 22861 C 2175.34 -3.50911 -0.830308 0
M  V30 22862 O 2174.45 -3.64002 -1.93847 0
M  V30 22863 H 2173.79 -0.659588 -0.0764174 0
M  V30 22864 H 2176.32 -2.00736 0.39576 0
M  V30 22865 H 2176.33 -3.92072 -1.12887 0
M  V30 22866 H 2175 -4.159 -0.00142245 0
M  V30 22867 H 2173.58 -3.34741 -1.64325 0
M  V30 22868 N 2175.76 0.00833021 -1.57598 0
M  V30 22869 C 2176.69 1.0015 -2.10932 0
M  V30 22870 C 2177.67 1.36385 -1.01653 0
M  V30 22871 O 2178.86 1.44906 -1.2929 0
M  V30 22872 C 2175.99 2.296 -2.60578 0
M  V30 22873 C 2174.94 2.07551 -3.74308 0
M  V30 22874 C 2174.27 3.42942 -4.10238 0
M  V30 22875 C 2175.57 1.44484 -5.01918 0
M  V30 22876 H 2177.26 0.557461 -2.94164 0
M  V30 22877 H 2174.81 0.266703 -1.41509 0
M  V30 22878 H 2176.76 2.99428 -2.96515 0
M  V30 22879 H 2175.49 2.76103 -1.74456 0
M  V30 22880 H 2174.15 1.40152 -3.38752 0
M  V30 22881 H 2173.79 3.87132 -3.21151 0
M  V30 22882 H 2173.49 3.29007 -4.86855 0
M  V30 22883 H 2175.02 4.14098 -4.48726 0
M  V30 22884 H 2176.43 2.04256 -5.35679 0
M  V30 22885 H 2174.83 1.41063 -5.83285 0
M  V30 22886 H 2175.9 0.413049 -4.83138 0
M  V30 22887 N 2177.24 1.55075 0.280956 0
M  V30 22888 C 2178.17 1.90416 1.35145 0
M  V30 22889 C 2179.15 0.765149 1.51919 0
M  V30 22890 O 2180.34 1.02261 1.65095 0
M  V30 22891 C 2177.47 2.16909 2.71233 0
M  V30 22892 C 2176.42 3.32739 2.692 0
M  V30 22893 C 2175.75 3.44695 4.08766 0
M  V30 22894 C 2177.05 4.69338 2.2917 0
M  V30 22895 H 2178.74 2.80078 1.05815 0
M  V30 22896 H 2176.29 1.34758 0.507584 0
M  V30 22897 H 2178.24 2.40219 3.46226 0
M  V30 22898 H 2176.96 1.24039 3.02129 0
M  V30 22899 H 2175.62 3.09385 1.96664 0
M  V30 22900 H 2175.27 2.49305 4.36871 0
M  V30 22901 H 2174.97 4.22568 4.08301 0
M  V30 22902 H 2176.5 3.70288 4.85509 0
M  V30 22903 H 2177.91 4.92246 2.93883 0
M  V30 22904 H 2176.31 5.5007 2.39882 0
M  V30 22905 H 2177.38 4.68698 1.24297 0
M  V30 22906 N 2178.72 -0.545102 1.47873 0
M  V30 22907 C 2179.65 -1.6606 1.64153 0
M  V30 22908 C 2180.63 -1.62869 0.490679 0
M  V30 22909 O 2181.82 -1.80302 0.721451 0
M  V30 22910 C 2178.95 -3.04681 1.66694 0
M  V30 22911 C 2177.9 -3.22724 2.81128 0
M  V30 22912 C 2177.23 -4.62253 2.68749 0
M  V30 22913 C 2178.53 -3.06939 4.22594 0
M  V30 22914 H 2180.22 -1.52691 2.57538 0
M  V30 22915 H 2177.77 -0.733146 1.23939 0
M  V30 22916 H 2179.72 -3.82576 1.76674 0
M  V30 22917 H 2178.44 -3.19037 0.698781 0
M  V30 22918 H 2177.1 -2.47241 2.7068 0
M  V30 22919 H 2176.75 -4.73425 1.69935 0
M  V30 22920 H 2176.45 -4.75273 3.45527 0
M  V30 22921 H 2177.97 -5.42268 2.80674 0
M  V30 22922 H 2179.39 -3.7464 4.33956 0
M  V30 22923 H 2177.78 -3.31461 5.00253 0
M  V30 22924 H 2178.85 -2.03538 4.40114 0
M  V30 22925 N 2180.2 -1.36208 -0.792797 0
M  V30 22926 C 2181.13 -1.2612 -1.9138 0
M  V30 22927 C 2182.14 -0.181437 -1.61786 0
M  V30 22928 O 2183.33 -0.435871 -1.73097 0
M  V30 22929 C 2180.43 -0.922489 -3.26103 0
M  V30 22930 C 2179.6 -2.10345 -3.83502 0
M  V30 22931 C 2178.66 -1.73833 -4.96657 0
M  V30 22932 O 2177.69 -2.45879 -5.13354 0
M  V30 22933 N 2178.89 -0.670023 -5.7662 0
M  V30 22934 H 2181.66 -2.22705 -2.00556 0
M  V30 22935 H 2179.22 -1.29557 -0.970902 0
M  V30 22936 H 2181.21 -0.659458 -3.99291 0
M  V30 22937 H 2179.78 -0.0458868 -3.12566 0
M  V30 22938 H 2179 -2.52948 -3.02342 0
M  V30 22939 H 2180.29 -2.89252 -4.18582 0
M  V30 22940 H 2179.69 -0.0717267 -5.65655 0
M  V30 22941 H 2178.24 -0.466808 -6.50126 0
M  V30 22942 N 2181.68 1.01656 -1.20431 0
M  V30 22943 C 2182.59 2.13658 -0.968877 0
M  V30 22944 C 2183.6 1.73837 0.075256 0
M  V30 22945 O 2184.78 2.01087 -0.112194 0
M  V30 22946 C 2181.84 3.42716 -0.524052 0
M  V30 22947 C 2180.9 3.9678 -1.63904 0
M  V30 22948 C 2180.14 5.19678 -1.21534 0
M  V30 22949 O 2180.36 5.70338 -0.0840508 0
M  V30 22950 O 2179.29 5.66893 -2.02278 0
M  V30 22951 H 2183.12 2.3639 -1.90666 0
M  V30 22952 H 2180.7 1.1205 -0.98819 0
M  V30 22953 H 2182.59 4.20434 -0.285221 0
M  V30 22954 H 2181.26 3.21401 0.385143 0
M  V30 22955 H 2180.17 3.20341 -1.93215 0
M  V30 22956 H 2181.5 4.22484 -2.52524 0
M  V30 22957 N 2183.15 1.01021 1.20965 0
M  V30 22958 C 2184.4 0.695875 1.90168 0
M  V30 22959 C 2184.73 -0.773882 1.78441 0
M  V30 22960 O 2183.98 -1.57716 1.15862 0
M  V30 22961 C 2184.28 1.06913 3.41034 0
M  V30 22962 C 2183.95 2.53402 3.72959 0
M  V30 22963 C 2182.61 2.9343 3.81382 0
M  V30 22964 C 2184.96 3.48268 3.87761 0
M  V30 22965 C 2182.29 4.27275 4.02061 0
M  V30 22966 C 2184.64 4.81794 4.09948 0
M  V30 22967 C 2183.31 5.21537 4.166 0
M  V30 22968 H 2182.58 0.254639 0.695874 0
M  V30 22969 H 2185.22 1.26961 1.43364 0
M  V30 22970 H 2183.53 0.413721 3.8961 0
M  V30 22971 H 2185.23 0.803706 3.92863 0
M  V30 22972 H 2181.82 2.21384 3.66997 0
M  V30 22973 H 2186 3.18506 3.80615 0
M  V30 22974 H 2181.26 4.57631 4.05443 0
M  V30 22975 H 2185.43 5.55233 4.20344 0
M  V30 22976 H 2183.06 6.25264 4.32375 0
M  V30 22977 N 2184.63 -1.36623 0.78561 0
M  V30 22978 C 2185.58 -2.31983 0.169296 0
M  V30 22979 C 2186.57 -1.55619 -0.66926 0
M  V30 22980 O 2187.78 -1.7091 -0.56477 0
M  V30 22981 H 2184.15 -0.751139 0.0359684 0
M  V30 22982 H 2186.13 -2.81531 0.989071 0
M  V30 22983 C 2184.87 -3.40896 -0.684473 0
M  V30 22984 H 2184.2 -3.9977 -0.0485801 0
M  V30 22985 H 2185.64 -4.0995 -1.08245 0
M  V30 22986 C 2184.1 -2.82145 -1.84108 0
M  V30 22987 O 2184.63 -2.74004 -2.93743 0
M  V30 22988 N 2182.83 -2.39489 -1.64601 0
M  V30 22989 H 2182.38 -2.46311 -0.754247 0
M  V30 22990 H 2182.34 -2.00526 -2.4215 0
M  V30 22991 N 2186.11 -0.537304 -1.48158 0
M  V30 22992 C 2187.02 0.225092 -2.33518 0
M  V30 22993 C 2188.04 0.931763 -1.4695 0
M  V30 22994 O 2189.21 0.905094 -1.79917 0
M  V30 22995 C 2186.28 1.25403 -3.23226 0
M  V30 22996 C 2185.34 0.556924 -4.25672 0
M  V30 22997 C 2184.57 1.53684 -5.11094 0
M  V30 22998 O 2184.79 2.77009 -4.9862 0
M  V30 22999 O 2183.73 1.07222 -5.92273 0
M  V30 23000 H 2187.55 -0.474567 -2.99969 0
M  V30 23001 H 2185.14 -0.298137 -1.46395 0
M  V30 23002 H 2187.02 1.84847 -3.78695 0
M  V30 23003 H 2185.7 1.93596 -2.59427 0
M  V30 23004 H 2184.6 -0.0781996 -3.74018 0
M  V30 23005 H 2185.94 -0.0832021 -4.9213 0
M  V30 23006 N 2187.59 1.55221 -0.272782 0
M  V30 23007 C 2188.81 2.04409 0.350963 0
M  V30 23008 C 2189.24 1.14994 1.48856 0
M  V30 23009 O 2188.6 0.148061 1.80694 0
M  V30 23010 C 2188.64 3.51346 0.811686 0
M  V30 23011 O 2187.75 3.65025 1.91914 0
M  V30 23012 H 2187.09 0.659984 0.0729184 0
M  V30 23013 H 2189.62 2.00523 -0.4064 0
M  V30 23014 H 2189.63 3.92665 1.10806 0
M  V30 23015 H 2188.3 4.15895 -0.0206338 0
M  V30 23016 H 2186.88 3.35608 1.62547 0
M  V30 23017 N 2189.07 2.77022e-05 1.576 0
M  V30 23018 C 2190.31 -0.684815 1.90569 0
M  V30 23019 C 2190.64 -1.73777 0.873597 0
M  V30 23020 O 2189.9 -1.95322 -0.12162 0
M  V30 23021 C 2190.2 -1.36534 3.30292 0
M  V30 23022 C 2189.86 -0.445583 4.48693 0
M  V30 23023 C 2188.52 -0.192344 4.80815 0
M  V30 23024 C 2190.88 0.187683 5.20862 0
M  V30 23025 C 2188.2 0.702454 5.8248 0
M  V30 23026 C 2190.56 1.07036 6.23479 0
M  V30 23027 C 2189.22 1.33277 6.54059 0
M  V30 23028 H 2188.49 -0.250591 0.697341 0
M  V30 23029 H 2191.14 0.0555609 1.91419 0
M  V30 23030 H 2189.44 -2.17977 3.25566 0
M  V30 23031 H 2191.14 -1.90129 3.53061 0
M  V30 23032 H 2187.73 -0.653128 4.23594 0
M  V30 23033 H 2191.91 0.00505024 4.963 0
M  V30 23034 H 2187.17 0.913771 6.04533 0
M  V30 23035 H 2191.34 1.56741 6.78532 0
M  V30 23036 H 2188.97 2.02782 7.32655 0
M  V30 23037 N 2190.54 -1.55222 -0.272728 0
M  V30 23038 C 2191.96 -1.66547 -0.843751 0
M  V30 23039 C 2192.31 -0.592674 -1.87034 0
M  V30 23040 O 2191.43 0.26578 -2.14762 0
M  V30 23041 C 2192.03 -3.01921 -1.53718 0
M  V30 23042 C 2190.59 -3.15272 -2.05623 0
M  V30 23043 C 2189.73 -2.62344 -0.898377 0
M  V30 23044 H 2192.68 -1.58624 -0.0490719 0
M  V30 23045 H 2192.7 -2.94925 -2.40415 0
M  V30 23046 H 2192.22 -3.79979 -0.789763 0
M  V30 23047 H 2190.32 -2.41988 -2.83324 0
M  V30 23048 H 2190.43 -4.21837 -2.27135 0
M  V30 23049 H 2188.79 -2.19509 -1.29182 0
M  V30 23050 H 2189.58 -3.42906 -0.164467 0
M  V30 23051 N 2192.02 0.537252 -1.4816 0
M  V30 23052 C 2193.25 1.31647 -1.59225 0
M  V30 23053 C 2193.66 1.87556 -0.248882 0
M  V30 23054 O 2193 1.66741 0.77092 0
M  V30 23055 C 2193.07 2.51 -2.5737 0
M  V30 23056 C 2192.73 2.16232 -4.02607 0
M  V30 23057 C 2193.73 1.72335 -4.90506 0
M  V30 23058 C 2191.41 2.26978 -4.48092 0
M  V30 23059 C 2193.41 1.39641 -6.21916 0
M  V30 23060 C 2191.09 1.93896 -5.79524 0
M  V30 23061 C 2192.09 1.50297 -6.66258 0
M  V30 23062 O 2191.78 1.17645 -7.95245 0
M  V30 23063 H 2191.51 0.40688 -0.539838 0
M  V30 23064 H 2194.06 0.655607 -1.94656 0
M  V30 23065 H 2192.29 3.20044 -2.17045 0
M  V30 23066 H 2193.98 3.13068 -2.58347 0
M  V30 23067 H 2194.75 1.63509 -4.56607 0
M  V30 23068 H 2190.63 2.5987 -3.80774 0
M  V30 23069 H 2194.17 1.05538 -6.89571 0
M  V30 23070 H 2190.07 2.0236 -6.12961 0
M  V30 23071 H 2190.84 1.31105 -8.07932 0
M  V30 23072 N 2193.5 1.36626 0.785562 0
M  V30 23073 C 2194.91 1.27805 1.36098 0
M  V30 23074 C 2195.26 -0.080453 1.96035 0
M  V30 23075 O 2194.39 -0.982008 1.92836 0
M  V30 23076 C 2194.98 2.3143 2.47438 0
M  V30 23077 C 2193.54 2.26286 3.00785 0
M  V30 23078 C 2192.69 2.16002 1.73892 0
M  V30 23079 H 2195.64 1.47449 0.586902 0
M  V30 23080 H 2195.66 1.95297 3.26557 0
M  V30 23081 H 2195.17 3.30293 2.03785 0
M  V30 23082 H 2193.27 1.30903 3.48848 0
M  V30 23083 H 2193.39 3.19134 3.57338 0
M  V30 23084 H 2191.75 1.62319 1.96277 0
M  V30 23085 H 2192.53 3.16757 1.32362 0
M  V30 23086 N 2194.98 -1.01016 1.20969 0
M  V30 23087 C 2196.26 -1.71932 0.93267 0
M  V30 23088 C 2196.64 -2.03622 -0.556884 0
M  V30 23089 O 2195.98 -1.70583 -1.52032 0
M  V30 23090 C 2196.19 -2.98251 1.81238 0
M  V30 23091 C 2197.54 -3.71385 2.05811 0
M  V30 23092 O 2198.57 -3.08221 1.78544 0
M  V30 23093 O 2197.42 -4.84985 2.51896 0
M  V30 23094 H 2194.52 -0.749619 0.349286 0
M  V30 23095 H 2197.06 -1.06806 1.31873 0
M  V30 23096 H 2195.84 -2.71203 2.82072 0
M  V30 23097 H 2195.46 -3.71117 1.4268 0
M  V30 23098 N 2196.46 -1.01661 -1.20428 0
M  V30 23099 C 2197.39 -0.607265 -2.25465 0
M  V30 23100 C 2198.37 0.377687 -1.65854 0
M  V30 23101 O 2199.55 0.263115 -1.92409 0
M  V30 23102 C 2196.68 0.0552339 -3.47256 0
M  V30 23103 C 2195.64 -0.850705 -4.1946 0
M  V30 23104 C 2194.96 -0.0539799 -5.34673 0
M  V30 23105 C 2196.26 -2.15876 -4.75599 0
M  V30 23106 H 2197.96 -1.48531 -2.5996 0
M  V30 23107 H 2195.5 -0.715627 -1.24959 0
M  V30 23108 H 2197.46 0.353159 -4.19918 0
M  V30 23109 H 2196.18 0.967991 -3.11925 0
M  V30 23110 H 2194.84 -1.13263 -3.48665 0
M  V30 23111 H 2194.49 0.860427 -4.95586 0
M  V30 23112 H 2194.19 -0.657295 -5.83912 0
M  V30 23113 H 2195.71 0.237491 -6.10138 0
M  V30 23114 H 2197.12 -1.9232 -5.40079 0
M  V30 23115 H 2195.52 -2.71293 -5.35276 0
M  V30 23116 H 2196.59 -2.82176 -3.94341 0
M  V30 23117 N 2197.93 1.36205 -0.792844 0
M  V30 23118 C 2199.18 1.98756 -0.366097 0
M  V30 23119 C 2199.5 1.63233 1.06677 0
M  V30 23120 O 2198.77 0.908009 1.73586 0
M  V30 23121 H 2197.35 0.735177 -0.132377 0
M  V30 23122 H 2200.02 1.66345 -1.01564 0
M  V30 23123 H 2199.11 3.08681 -0.460692 0
M  V30 23124 N 2199.41 0.545154 1.47871 0
M  V30 23125 C 2200.34 -0.246581 2.2787 0
M  V30 23126 C 2201.36 -0.890537 1.36284 0
M  V30 23127 O 2202.55 -0.76642 1.61209 0
M  V30 23128 C 2199.65 -1.36576 3.10161 0
M  V30 23129 C 2198.82 -0.820879 4.29628 0
M  V30 23130 C 2197.88 -1.82306 4.9361 0
M  V30 23131 O 2196.9 -1.37396 5.52369 0
M  V30 23132 N 2198.11 -3.15595 4.87217 0
M  V30 23133 H 2200.87 0.439591 2.96459 0
M  V30 23134 H 2198.43 0.380449 1.57366 0
M  V30 23135 H 2200.42 -2.03468 3.49833 0
M  V30 23136 H 2198.99 -1.95536 2.43894 0
M  V30 23137 H 2198.21 0.0244725 3.94192 0
M  V30 23138 H 2199.5 -0.435973 5.06929 0
M  V30 23139 H 2198.9 -3.54736 4.40657 0
M  V30 23140 H 2197.46 -3.78078 5.30943 0
M  V30 23141 N 2200.89 -1.55074 0.28101 0
M  V30 23142 C 2201.82 -2.18883 -0.645401 0
M  V30 23143 C 2202.8 -1.15167 -1.14784 0
M  V30 23144 O 2203.99 -1.43718 -1.21973 0
M  V30 23145 C 2201.11 -2.81678 -1.88083 0
M  V30 23146 C 2200.16 -3.98748 -1.51336 0
M  V30 23147 S 2200.99 -5.32279 -0.586455 0
M  V30 23148 C 2202.15 -5.98546 -1.83013 0
M  V30 23149 H 2202.38 -2.97121 -0.103248 0
M  V30 23150 H 2199.91 -1.54262 0.065237 0
M  V30 23151 H 2201.87 -3.18486 -2.58992 0
M  V30 23152 H 2200.53 -2.03323 -2.39413 0
M  V30 23153 H 2199.73 -4.41396 -2.43281 0
M  V30 23154 H 2199.33 -3.63393 -0.884413 0
M  V30 23155 H 2201.62 -6.18137 -2.77331 0
M  V30 23156 H 2202.56 -6.93167 -1.44656 0
M  V30 23157 H 2202.97 -5.27968 -1.99775 0
M  V30 23158 N 2202.37 -0.00838561 -1.57598 0
M  V30 23159 C 2203.78 0.533299 -1.78921 0
M  V30 23160 C 2204.13 1.73471 -0.916639 0
M  V30 23161 O 2203.26 2.16059 -0.121374 0
M  V30 23162 C 2203.85 0.974256 -3.2449 0
M  V30 23163 C 2202.41 1.46119 -3.46881 0
M  V30 23164 C 2201.56 0.416254 -2.74158 0
M  V30 23165 H 2204.51 -0.234523 -1.56958 0
M  V30 23166 H 2204.53 1.83982 -3.33063 0
M  V30 23167 H 2204.04 0.0996498 -3.87972 0
M  V30 23168 H 2202.14 2.35641 -2.88624 0
M  V30 23169 H 2202.26 1.48287 -4.55574 0
M  V30 23170 H 2200.62 0.879768 -2.39023 0
M  V30 23171 H 2201.4 -0.44953 -3.40344 0
M  V30 23172 N 2203.85 1.55365 0.264492 0
M  V30 23173 C 2205.07 1.80741 1.01722 0
M  V30 23174 C 2205.5 0.583075 1.78835 0
M  V30 23175 O 2204.86 -0.467535 1.75168 0
M  V30 23176 C 2204.9 3.03663 1.94477 0
M  V30 23177 O 2204.01 2.79345 3.03381 0
M  V30 23178 H 2203.35 0.597137 0.290384 0
M  V30 23179 H 2205.88 2.02523 0.290818 0
M  V30 23180 H 2205.89 3.32625 2.36272 0
M  V30 23181 H 2204.56 3.9242 1.37765 0
M  V30 23182 H 2203.14 2.61503 2.6584 0
M  V30 23183 N 2205.33 -0.529387 1.48443 0
M  V30 23184 C 2206.74 -1.11132 1.50022 0
M  V30 23185 C 2207.09 -1.94329 0.270344 0
M  V30 23186 O 2206.21 -2.07254 -0.62247 0
M  V30 23187 C 2206.81 -2.02212 2.71838 0
M  V30 23188 C 2205.37 -2.55622 2.76287 0
M  V30 23189 C 2204.51 -1.32596 2.43544 0
M  V30 23190 H 2207.46 -0.314614 1.5555 0
M  V30 23191 H 2207.49 -2.86506 2.50389 0
M  V30 23192 H 2207 -1.41633 3.61333 0
M  V30 23193 H 2205.1 -3.19921 1.91001 0
M  V30 23194 H 2205.21 -2.94715 3.7773 0
M  V30 23195 H 2203.58 -1.64193 1.94712 0
M  V30 23196 H 2204.36 -0.737675 3.35281 0
M  V30 23197 N 2206.8 -1.37041 -0.778305 0
M  V30 23198 C 2208.03 -1.35235 -1.57246 0
M  V30 23199 C 2208.45 0.0615238 -1.87999 0
M  V30 23200 O 2207.81 1.0367 -1.48736 0
M  V30 23201 C 2207.86 -2.19172 -2.86349 0
M  V30 23202 O 2206.96 -1.59184 -3.80439 0
M  V30 23203 H 2206.3 -0.46237 -0.47656 0
M  V30 23204 H 2208.83 -1.80476 -0.963821 0
M  V30 23205 H 2208.84 -2.32151 -3.35514 0
M  V30 23206 H 2207.52 -3.21947 -2.63293 0
M  V30 23207 H 2206.1 -1.55209 -3.39064 0
M  V30 23208 N 2208.28 1.00373 -1.21503 0
M  V30 23209 C 2209.51 1.78278 -1.0598 0
M  V30 23210 C 2209.93 1.84098 0.385962 0
M  V30 23211 O 2209.29 1.28549 1.27847 0
M  V30 23212 C 2209.34 3.1996 -1.66307 0
M  V30 23213 O 2208.44 4.02248 -0.909404 0
M  V30 23214 H 2207.78 0.54939 -0.372916 0
M  V30 23215 H 2210.31 1.26162 -1.61072 0
M  V30 23216 H 2210.32 3.70629 -1.70581 0
M  V30 23217 H 2209 3.15038 -2.71521 0
M  V30 23218 H 2207.57 3.60809 -0.941859 0
M  V30 23219 N 2209.76 1.02298 1.19887 0
M  V30 23220 C 2211.17 0.746598 1.71122 0
M  V30 23221 C 2211.52 -0.734303 1.81941 0
M  V30 23222 O 2210.65 -1.57272 1.48642 0
M  V30 23223 C 2211.24 1.34862 3.10802 0
M  V30 23224 C 2209.8 1.12096 3.59321 0
M  V30 23225 C 2208.95 1.45035 2.36347 0
M  V30 23226 H 2211.9 1.19165 1.04811 0
M  V30 23227 H 2211.92 0.742503 3.73185 0
M  V30 23228 H 2211.43 2.42643 3.02896 0
M  V30 23229 H 2209.53 0.0610992 3.7255 0
M  V30 23230 H 2209.65 1.80551 4.43777 0
M  V30 23231 H 2208.01 0.869529 2.39398 0
M  V30 23232 H 2208.79 2.53887 2.31076 0
M  V30 23233 N 2211.24 -1.35782 0.800057 0
M  V30 23234 C 2212.47 -2.03198 0.389642 0
M  V30 23235 C 2212.88 -1.60307 -0.997347 0
M  V30 23236 O 2212.24 -0.79751 -1.64152 0
M  V30 23237 C 2212.29 -3.58613 0.455918 0
M  V30 23238 O 2212.01 -3.99943 1.78822 0
M  V30 23239 C 2213.51 -4.43284 0.0374812 0
M  V30 23240 H 2210.73 -0.651855 0.159143 0
M  V30 23241 H 2213.27 -1.7354 1.08186 0
M  V30 23242 H 2211.43 -3.86944 -0.187989 0
M  V30 23243 H 2211.84 -4.9457 1.74645 0
M  V30 23244 H 2213.32 -5.51835 0.134979 0
M  V30 23245 H 2213.79 -4.27277 -1.01643 0
M  V30 23246 H 2214.4 -4.20237 0.654289 0
M  V30 23247 N 2212.72 -0.552988 -1.4758 0
M  V30 23248 C 2213.65 0.18541 -2.32763 0
M  V30 23249 C 2214.63 0.91288 -1.43529 0
M  V30 23250 O 2215.81 0.894171 -1.7239 0
M  V30 23251 C 2212.94 1.21853 -3.25222 0
M  V30 23252 C 2211.9 0.607789 -4.23663 0
M  V30 23253 C 2211.22 1.74524 -5.05416 0
M  V30 23254 C 2212.52 -0.435674 -5.2048 0
M  V30 23255 H 2214.22 -0.525735 -2.94748 0
M  V30 23256 H 2211.76 -0.254276 -1.41737 0
M  V30 23257 H 2213.71 1.74323 -3.83653 0
M  V30 23258 H 2212.44 1.95957 -2.61282 0
M  V30 23259 H 2211.1 0.104425 -3.66451 0
M  V30 23260 H 2210.75 2.47521 -4.37884 0
M  V30 23261 H 2210.45 1.34239 -5.72061 0
M  V30 23262 H 2211.97 2.27328 -5.66705 0
M  V30 23263 H 2213.38 0.0028008 -5.733 0
M  V30 23264 H 2211.78 -0.757172 -5.95304 0
M  V30 23265 H 2212.85 -1.33311 -4.66215 0
M  V30 23266 N 2214.19 1.54923 -0.28923 0
M  V30 23267 C 2215.14 2.24515 0.607926 0
M  V30 23268 C 2216.14 1.24704 1.14653 0
M  V30 23269 O 2217.34 1.42591 1.09853 0
M  V30 23270 H 2213.72 0.720721 0.214627 0
M  V30 23271 H 2215.69 2.984 -0.00169428 0
M  V30 23272 C 2214.44 2.99039 1.77401 0
M  V30 23273 H 2213.76 3.75639 1.36877 0
M  V30 23274 H 2215.2 3.51032 2.37807 0
M  V30 23275 C 2213.66 2.05323 2.67103 0
M  V30 23276 O 2214.19 1.6136 3.67867 0
M  V30 23277 N 2212.39 1.71526 2.34579 0
M  V30 23278 H 2211.94 2.07473 1.52685 0
M  V30 23279 H 2211.9 1.09095 2.94865 0
M  V30 23280 N 2215.67 0.0167433 1.57591 0
M  V30 23281 C 2216.95 -0.702532 1.82548 0
M  V30 23282 C 2217.33 -1.91045 0.898051 0
M  V30 23283 O 2216.68 -2.28447 -0.0493055 0
M  V30 23284 C 2216.89 -1.09246 3.31461 0
M  V30 23285 C 2218.23 -1.4893 3.97624 0
M  V30 23286 O 2219.26 -1.18578 3.35883 0
M  V30 23287 O 2218.12 -2.05433 5.06418 0
M  V30 23288 H 2215.21 -0.343531 0.752274 0
M  V30 23289 H 2217.76 0.0434794 1.69644 0
M  V30 23290 H 2216.53 -0.232201 3.9061 0
M  V30 23291 H 2216.15 -1.89703 3.49426 0
M  V30 23292 N 2217.15 -1.55503 -0.256249 0
M  V30 23293 C 2218.38 -1.80941 -1.00339 0
M  V30 23294 C 2218.79 -0.591171 -1.79306 0
M  V30 23295 O 2218.15 0.44005 -1.77115 0
M  V30 23296 C 2218.2 -3.0448 -1.9487 0
M  V30 23297 O 2217.92 -4.216 -1.19099 0
M  V30 23298 C 2219.42 -3.42648 -2.81259 0
M  V30 23299 H 2216.64 -0.602344 -0.295674 0
M  V30 23300 H 2219.19 -2.02547 -0.281962 0
M  V30 23301 H 2217.34 -2.84952 -2.62452 0
M  V30 23302 H 2217.76 -4.91555 -1.8296 0
M  V30 23303 H 2219.23 -4.32217 -3.43355 0
M  V30 23304 H 2219.71 -2.62808 -3.51893 0
M  V30 23305 H 2220.31 -3.64495 -2.19143 0
M  V30 23306 N 2218.63 0.521507 -1.48721 0
M  V30 23307 C 2219.88 1.27687 -1.5717 0
M  V30 23308 C 2220.2 1.92896 -0.249309 0
M  V30 23309 O 2219.46 1.80292 0.761131 0
M  V30 23310 C 2219.76 2.38143 -2.66501 0
M  V30 23311 C 2219.42 1.9053 -4.08667 0
M  V30 23312 C 2218.09 1.77263 -4.4736 0
M  V30 23313 C 2220.44 1.54654 -4.97726 0
M  V30 23314 C 2217.77 1.26468 -5.72907 0
M  V30 23315 C 2220.12 1.05318 -6.23771 0
M  V30 23316 C 2218.78 0.906745 -6.61313 0
M  V30 23317 H 2218.05 0.467238 -0.575125 0
M  V30 23318 H 2220.7 0.581019 -1.82473 0
M  V30 23319 H 2219 3.13432 -2.3509 0
M  V30 23320 H 2220.7 2.96252 -2.70251 0
M  V30 23321 H 2217.29 2.0181 -3.78115 0
M  V30 23322 H 2221.47 1.6376 -4.68504 0
M  V30 23323 H 2216.73 1.13825 -6.00711 0
M  V30 23324 H 2220.9 0.766318 -6.92171 0
M  V30 23325 H 2218.53 0.51095 -7.58481 0
M  V30 23326 N 2220.11 1.37452 0.771027 0
M  V30 23327 C 2221.04 1.35974 1.89825 0
M  V30 23328 C 2222.02 0.228246 1.68562 0
M  V30 23329 O 2223.2 0.428708 1.89409 0
M  V30 23330 C 2220.33 1.16668 3.27118 0
M  V30 23331 C 2219.29 2.26836 3.62946 0
M  V30 23332 C 2218.61 1.92652 4.98788 0
M  V30 23333 C 2219.91 3.69023 3.6962 0
M  V30 23334 H 2221.61 2.30299 1.91319 0
M  V30 23335 H 2219.15 1.10857 0.919062 0
M  V30 23336 H 2221.11 1.14263 4.05613 0
M  V30 23337 H 2219.83 0.187983 3.26059 0
M  V30 23338 H 2218.49 2.28397 2.86759 0
M  V30 23339 H 2218.14 0.933108 4.94269 0
M  V30 23340 H 2217.84 2.66425 5.23729 0
M  V30 23341 H 2219.36 1.91836 5.79682 0
M  V30 23342 H 2220.77 3.69588 4.38266 0
M  V30 23343 H 2219.17 4.41855 4.06059 0
M  V30 23344 H 2220.24 4.02597 2.70266 0
M  V30 23345 N 2221.58 -0.997276 1.22033 0
M  V30 23346 C 2222.81 -1.77713 1.06924 0
M  V30 23347 C 2223.23 -1.843 -0.376193 0
M  V30 23348 O 2222.59 -1.29226 -1.27163 0
M  V30 23349 C 2222.64 -3.19073 1.68002 0
M  V30 23350 O 2221.74 -4.0176 0.930723 0
M  V30 23351 H 2221.09 -0.547405 0.375824 0
M  V30 23352 H 2223.62 -1.25306 1.61739 0
M  V30 23353 H 2223.63 -3.6972 1.72544 0
M  V30 23354 H 2222.3 -3.13594 2.73188 0
M  V30 23355 H 2220.88 -3.60305 0.96098 0
M  V30 23356 N 2223.06 -1.02932 -1.19343 0
M  V30 23357 C 2224.01 -0.610503 -2.22579 0
M  V30 23358 C 2224.98 0.375917 -1.6179 0
M  V30 23359 O 2226.16 0.272478 -1.88844 0
M  V30 23360 C 2223.3 0.0320867 -3.45085 0
M  V30 23361 C 2222.42 -1.00043 -4.20256 0
M  V30 23362 C 2221.55 -0.327553 -5.30189 0
M  V30 23363 C 2220.59 -1.34595 -5.97119 0
M  V30 23364 N 2219.73 -0.698849 -6.98613 0
M  V30 23365 H 2224.57 -1.49542 -2.57762 0
M  V30 23366 H 2222.11 -0.748333 -1.26643 0
M  V30 23367 H 2224.06 0.421893 -4.15061 0
M  V30 23368 H 2222.69 0.880585 -3.10557 0
M  V30 23369 H 2221.75 -1.50829 -3.4922 0
M  V30 23370 H 2223.06 -1.77441 -4.66172 0
M  V30 23371 H 2222.21 0.117073 -6.06587 0
M  V30 23372 H 2220.95 0.478627 -4.85346 0
M  V30 23373 H 2219.96 -1.80083 -5.19471 0
M  V30 23374 H 2221.18 -2.15363 -6.44046 0
M  V30 23375 H 2219.13 0.0872318 -6.55942 0
M  V30 23376 H 2219.04 -1.41071 -7.42721 0
M  V30 23377 H 2220.31 -0.278239 -7.79003 0
M  V30 23378 N 2224.54 1.35356 -0.807246 0
M  V30 23379 C 2225.45 2.3357 -0.219635 0
M  V30 23380 C 2226.47 1.61893 0.637705 0
M  V30 23381 O 2227.64 1.93764 0.549302 0
M  V30 23382 C 2224.71 3.41084 0.62152 0
M  V30 23383 C 2223.77 4.28534 -0.25639 0
M  V30 23384 C 2223 5.30913 0.544713 0
M  V30 23385 O 2223.22 5.41937 1.77935 0
M  V30 23386 O 2222.16 6.01865 -0.0647536 0
M  V30 23387 H 2225.98 2.85624 -1.03213 0
M  V30 23388 H 2223.57 1.38138 -0.569049 0
M  V30 23389 H 2225.45 4.06774 1.1006 0
M  V30 23390 H 2224.13 2.913 1.4116 0
M  V30 23391 H 2223.03 3.65822 -0.782623 0
M  V30 23392 H 2224.37 4.81717 -1.01043 0
M  V30 23393 N 2226.02 0.560807 1.47284 0
M  V30 23394 C 2227.27 0.0380976 2.02464 0
M  V30 23395 C 2227.59 -1.31319 1.43477 0
M  V30 23396 O 2226.85 -1.86866 0.581344 0
M  V30 23397 C 2227.15 -0.100721 3.57258 0
M  V30 23398 C 2226.81 1.18014 4.35182 0
M  V30 23399 C 2225.48 1.53111 4.56191 0
M  V30 23400 C 2227.83 2.02876 4.80095 0
M  V30 23401 C 2225.16 2.72909 5.19363 0
M  V30 23402 C 2227.51 3.2188 5.44588 0
M  V30 23403 C 2226.17 3.57286 5.63829 0
M  V30 23404 H 2225.44 0.0139409 0.740869 0
M  V30 23405 H 2228.09 0.733043 1.76914 0
M  V30 23406 H 2226.39 -0.878657 3.8182 0
M  V30 23407 H 2228.09 -0.52057 3.97607 0
M  V30 23408 H 2224.68 0.896874 4.19111 0
M  V30 23409 H 2228.86 1.77068 4.63638 0
M  V30 23410 H 2224.12 3.00505 5.32454 0
M  V30 23411 H 2228.29 3.87921 5.78351 0
M  V30 23412 H 2225.92 4.50208 6.1255 0
M  V30 23413 N 2227.5 -1.54768 0.297442 0
M  V30 23414 C 2228.44 -2.24834 -0.596011 0
M  V30 23415 C 2229.44 -1.2531 -1.1399 0
M  V30 23416 O 2230.64 -1.43172 -1.09095 0
M  V30 23417 H 2227.02 -0.721849 -0.210802 0
M  V30 23418 H 2228.99 -2.98395 0.0175191 0
M  V30 23419 C 2227.74 -2.99975 -1.75813 0
M  V30 23420 H 2227.06 -3.7636 -1.34883 0
M  V30 23421 H 2228.5 -3.52288 -2.35943 0
M  V30 23422 C 2226.96 -2.06737 -2.6601 0
M  V30 23423 O 2227.49 -1.63308 -3.67006 0
M  V30 23424 N 2225.7 -1.72767 -2.33666 0
M  V30 23425 H 2225.24 -2.0828 -1.51582 0
M  V30 23426 H 2225.2 -1.10657 -2.94283 0
M  V30 23427 N 2228.97 -0.0251005 -1.5758 0
M  V30 23428 C 2230.39 0.514292 -1.79477 0
M  V30 23429 C 2230.74 1.72489 -0.934987 0
M  V30 23430 O 2229.86 2.15918 -0.144283 0
M  V30 23431 C 2230.46 0.939785 -3.25505 0
M  V30 23432 C 2229.02 1.42432 -3.48411 0
M  V30 23433 C 2228.16 0.387152 -2.74584 0
M  V30 23434 H 2231.11 -0.251157 -1.567 0
M  V30 23435 H 2231.13 1.80439 -3.34996 0
M  V30 23436 H 2230.65 0.0584946 -3.88056 0
M  V30 23437 H 2228.75 2.32567 -2.91107 0
M  V30 23438 H 2228.86 1.43447 -4.57121 0
M  V30 23439 H 2227.22 0.854367 -2.39943 0
M  V30 23440 H 2228.01 -0.485603 -3.39848 0
M  V30 23441 N 2230.45 1.55637 0.247999 0
M  V30 23442 C 2231.38 1.9324 1.31075 0
M  V30 23443 C 2232.36 0.797201 1.50262 0
M  V30 23444 O 2233.55 1.0574 1.62889 0
M  V30 23445 C 2230.68 2.22614 2.66571 0
M  V30 23446 C 2229.63 3.38375 2.62081 0
M  V30 23447 C 2228.96 3.53288 4.01362 0
M  V30 23448 C 2230.26 4.74094 2.19163 0
M  V30 23449 H 2231.95 2.82259 0.998506 0
M  V30 23450 H 2229.5 1.35804 0.478886 0
M  V30 23451 H 2231.45 2.47509 3.41053 0
M  V30 23452 H 2230.18 1.30419 2.9943 0
M  V30 23453 H 2228.83 3.13487 1.90057 0
M  V30 23454 H 2228.48 2.58515 4.31484 0
M  V30 23455 H 2228.18 4.31134 3.99246 0
M  V30 23456 H 2229.71 3.80503 4.77546 0
M  V30 23457 H 2231.12 4.98368 2.83376 0
M  V30 23458 H 2229.52 5.55034 2.2816 0
M  V30 23459 H 2230.59 4.7123 1.14327 0
M  V30 23460 N 2231.93 -0.513613 1.48996 0
M  V30 23461 C 2233.18 -1.27039 1.58079 0
M  V30 23462 C 2233.51 -1.92437 0.261059 0
M  V30 23463 O 2232.79 -1.80104 -0.734361 0
M  V30 23464 C 2233.07 -2.34714 2.73096 0
M  V30 23465 C 2232.92 -1.739 4.14824 0
M  V30 23466 C 2234.24 -3.3637 2.83802 0
M  V30 23467 H 2231.36 -0.460526 0.575399 0
M  V30 23468 H 2234 -0.570484 1.81233 0
M  V30 23469 H 2232.15 -2.94412 2.53484 0
M  V30 23470 H 2233.82 -1.18128 4.45919 0
M  V30 23471 H 2232.07 -1.04362 4.21059 0
M  V30 23472 H 2232.74 -2.5194 4.91152 0
M  V30 23473 H 2235.21 -2.86648 3.01616 0
M  V30 23474 H 2234.09 -4.09086 3.65978 0
M  V30 23475 H 2234.35 -3.97927 1.92631 0
M  V30 23476 N 2233.41 -1.37859 -0.763727 0
M  V30 23477 C 2234.66 -1.3283 -1.51786 0
M  V30 23478 C 2234.97 0.0823376 -1.95427 0
M  V30 23479 O 2236.18 0.255124 -2.70299 0
M  V30 23480 C 2234.63 -2.33198 -2.74129 0
M  V30 23481 C 2234.24 -3.79831 -2.37555 0
M  V30 23482 C 2235.99 -2.37195 -3.5205 0
M  V30 23483 C 2233.89 -4.7191 -3.56448 0
M  V30 23484 H 2232.82 -0.493705 -0.569887 0
M  V30 23485 H 2235.47 -1.63361 -0.835793 0
M  V30 23486 H 2233.86 -1.95696 -3.44266 0
M  V30 23487 H 2235.03 -4.26215 -1.7515 0
M  V30 23488 H 2233.34 -3.78856 -1.72791 0
M  V30 23489 H 2235.94 -3.0319 -4.40432 0
M  V30 23490 H 2236.28 -1.38789 -3.92484 0
M  V30 23491 H 2236.82 -2.73445 -2.88917 0
M  V30 23492 H 2233.56 -5.71474 -3.21089 0
M  V30 23493 H 2233.08 -4.30225 -4.17931 0
M  V30 23494 H 2234.76 -4.89433 -4.23159 0
M  V30 23495 N 2234.89 0.990791 -1.22561 0
M  V30 23496 C 2236.13 1.7332 -1.053 0
M  V30 23497 C 2236.47 1.89809 0.410622 0
M  V30 23498 O 2235.74 1.44279 1.30437 0
M  V30 23499 C 2236.02 3.13756 -1.76719 0
M  V30 23500 C 2235.88 3.04901 -3.30689 0
M  V30 23501 C 2237.2 4.12971 -1.52128 0
M  V30 23502 H 2234.32 0.629099 -0.383931 0
M  V30 23503 H 2236.96 1.15416 -1.50928 0
M  V30 23504 H 2235.11 3.63191 -1.3793 0
M  V30 23505 H 2236.78 2.6307 -3.78935 0
M  V30 23506 H 2235.02 2.41655 -3.60257 0
M  V30 23507 H 2235.69 4.04287 -3.7584 0
M  V30 23508 H 2238.17 3.72301 -1.85826 0
M  V30 23509 H 2237.05 5.09346 -2.04591 0
M  V30 23510 H 2237.31 4.39759 -0.454334 0
M  V30 23511 N 2236.37 1.03564 1.18795 0
M  V30 23512 C 2237.61 0.734602 1.88276 0
M  V30 23513 C 2237.93 -0.739554 1.80432 0
M  V30 23514 O 2237.2 -1.53331 1.21928 0
M  V30 23515 H 2235.78 0.268737 0.696986 0
M  V30 23516 H 2238.45 1.31131 1.44189 0
M  V30 23517 H 2237.54 1.03494 2.94441 0
M  V30 23518 N 2237.84 -1.34926 0.814413 0
M  V30 23519 C 2238.77 -2.32213 0.244868 0
M  V30 23520 C 2239.75 -1.57843 -0.633996 0
M  V30 23521 O 2240.94 -1.85871 -0.562644 0
M  V30 23522 C 2238.07 -3.4206 -0.601046 0
M  V30 23523 C 2237.02 -4.27621 0.179971 0
M  V30 23524 C 2236.35 -5.2886 -0.788144 0
M  V30 23525 C 2237.65 -5.03647 1.38338 0
M  V30 23526 H 2239.34 -2.80095 1.05768 0
M  V30 23527 H 2236.89 -1.34664 0.510052 0
M  V30 23528 H 2238.84 -4.09127 -1.00961 0
M  V30 23529 H 2237.57 -2.92805 -1.44683 0
M  V30 23530 H 2236.23 -3.62145 0.569803 0
M  V30 23531 H 2235.87 -4.75869 -1.62964 0
M  V30 23532 H 2235.57 -5.8698 -0.269839 0
M  V30 23533 H 2237.1 -5.98797 -1.19475 0
M  V30 23534 H 2238.51 -5.63616 1.04928 0
M  V30 23535 H 2236.91 -5.71301 1.83672 0
M  V30 23536 H 2237.98 -4.33835 2.166 0
M  V30 23537 N 2239.32 -0.56861 -1.46985 0
M  V30 23538 C 2240.55 -0.0520892 -2.07335 0
M  V30 23539 C 2240.97 1.2373 -1.41677 0
M  V30 23540 O 2240.33 1.74393 -0.495654 0
M  V30 23541 C 2240.38 0.114947 -3.60417 0
M  V30 23542 O 2239.48 1.17485 -3.95311 0
M  V30 23543 H 2238.82 -0.0564501 -0.661596 0
M  V30 23544 H 2241.35 -0.78754 -1.88836 0
M  V30 23545 H 2241.36 0.325572 -4.06699 0
M  V30 23546 H 2240.04 -0.826747 -4.076 0
M  V30 23547 H 2238.61 0.943805 -3.60759 0
M  V30 23548 N 2240.8 1.54608 -0.305646 0
M  V30 23549 C 2241.75 2.23692 0.568382 0
M  V30 23550 C 2242.72 1.22118 1.1259 0
M  V30 23551 O 2243.9 1.50751 1.16956 0
M  V30 23552 C 2241.04 2.9848 1.73215 0
M  V30 23553 C 2240.15 4.14837 1.20558 0
M  V30 23554 C 2239.29 4.77197 2.33359 0
M  V30 23555 C 2238.33 5.8569 1.7786 0
M  V30 23556 N 2237.47 6.41985 2.84252 0
M  V30 23557 H 2242.31 2.97987 -0.0273391 0
M  V30 23558 H 2239.84 1.47078 -0.0252622 0
M  V30 23559 H 2241.8 3.40076 2.41669 0
M  V30 23560 H 2240.43 2.26552 2.29943 0
M  V30 23561 H 2239.48 3.7815 0.413156 0
M  V30 23562 H 2240.79 4.92986 0.759331 0
M  V30 23563 H 2239.95 5.21669 3.09751 0
M  V30 23564 H 2238.69 3.98389 2.81313 0
M  V30 23565 H 2237.69 5.40637 0.999585 0
M  V30 23566 H 2238.92 6.66384 1.30804 0
M  V30 23567 H 2236.86 5.66059 3.31531 0
M  V30 23568 H 2236.78 7.15495 2.44136 0
M  V30 23569 H 2238.05 6.91115 3.60528 0
M  V30 23570 N 2242.28 0.033457 1.57564 0
M  V30 23571 C 2243.55 -0.683131 1.83283 0
M  V30 23572 C 2243.93 -1.90082 0.918264 0
M  V30 23573 O 2243.28 -2.28486 -0.0250729 0
M  V30 23574 C 2243.49 -1.05724 3.32601 0
M  V30 23575 C 2244.84 -1.44704 3.99181 0
M  V30 23576 O 2245.86 -1.15009 3.37122 0
M  V30 23577 O 2244.72 -2.00051 5.08569 0
M  V30 23578 H 2241.82 -0.335533 0.755875 0
M  V30 23579 H 2244.36 0.06147 1.69589 0
M  V30 23580 H 2243.14 -0.190759 3.90835 0
M  V30 23581 H 2242.76 -1.85987 3.51418 0
M  V30 23582 N 2243.76 -1.55766 -0.239741 0
M  V30 23583 C 2245 -1.77581 -0.96486 0
M  V30 23584 C 2245.32 -0.598732 -1.85581 0
M  V30 23585 O 2244.59 0.385193 -1.92076 0
M  V30 23586 H 2243.17 -0.65494 -0.359253 0
M  V30 23587 H 2245.84 -1.93212 -0.255967 0
M  V30 23588 H 2244.93 -2.69011 -1.58238 0
M  V30 23589 N 2245.23 0.505704 -1.49266 0
M  V30 23590 C 2246.46 1.28426 -1.62217 0
M  V30 23591 C 2246.88 1.86533 -0.29173 0
M  V30 23592 O 2246.23 1.67602 0.722204 0
M  V30 23593 C 2246.28 2.41788 -2.68739 0
M  V30 23594 O 2246.01 1.86071 -3.96622 0
M  V30 23595 C 2247.51 3.33235 -2.92352 0
M  V30 23596 H 2244.73 0.389687 -0.546246 0
M  V30 23597 H 2247.27 0.607575 -1.95266 0
M  V30 23598 H 2245.43 3.05296 -2.38481 0
M  V30 23599 H 2245.84 2.60457 -4.55261 0
M  V30 23600 H 2247.31 4.09068 -3.70631 0
M  V30 23601 H 2247.79 3.89945 -2.02088 0
M  V30 23602 H 2248.4 2.75498 -3.24008 0
M  V30 23603 N 2246.71 1.38262 0.756405 0
M  V30 23604 C 2247.99 1.24838 1.50582 0
M  V30 23605 C 2248.37 -0.151448 2.10556 0
M  V30 23606 O 2247.72 -1.16067 1.96827 0
M  V30 23607 C 2247.93 2.35635 2.57444 0
M  V30 23608 C 2249.28 2.73923 3.24425 0
M  V30 23609 O 2250.3 2.34925 2.67747 0
M  V30 23610 O 2249.16 3.41163 4.26931 0
M  V30 23611 H 2246.25 0.488022 0.667656 0
M  V30 23612 H 2248.8 1.50082 0.792057 0
M  V30 23613 H 2247.57 3.29309 2.11356 0
M  V30 23614 H 2247.19 2.11939 3.36404 0
M  V30 23615 N 2248.19 -0.984277 1.23084 0
M  V30 23616 C 2249.42 -1.75779 1.08559 0
M  V30 23617 C 2249.83 -1.85623 -0.366138 0
M  V30 23618 O 2249.17 -1.33184 -1.26521 0
M  V30 23619 C 2249.23 -3.20315 1.63214 0
M  V30 23620 C 2248.9 -3.33991 3.11927 0
M  V30 23621 C 2249.89 -3.20622 4.09264 0
M  V30 23622 C 2247.58 -3.58765 3.51558 0
M  V30 23623 C 2249.57 -3.31825 5.44216 0
M  V30 23624 C 2247.26 -3.69608 4.86655 0
M  V30 23625 C 2248.26 -3.56147 5.82793 0
M  V30 23626 O 2247.95 -3.66613 7.15437 0
M  V30 23627 H 2247.68 -0.558593 0.380723 0
M  V30 23628 H 2250.23 -1.24558 1.63323 0
M  V30 23629 H 2248.46 -3.72767 1.02866 0
M  V30 23630 H 2250.15 -3.79413 1.44223 0
M  V30 23631 H 2250.92 -3.01385 3.7999 0
M  V30 23632 H 2246.8 -3.68315 2.77245 0
M  V30 23633 H 2250.34 -3.21236 6.19236 0
M  V30 23634 H 2246.24 -3.88354 5.15608 0
M  V30 23635 H 2247.01 -3.83432 7.23133 0
M  V30 23636 N 2249.67 -1.04192 -1.18244 0
M  V30 23637 C 2250.92 -0.741227 -1.87587 0
M  V30 23638 C 2251.23 0.734034 -1.81304 0
M  V30 23639 O 2252.44 1.14829 -2.46021 0
M  V30 23640 C 2250.89 -1.27561 -3.36536 0
M  V30 23641 C 2250.5 -2.77959 -3.51344 0
M  V30 23642 C 2252.24 -1.0515 -4.11271 0
M  V30 23643 C 2250.15 -3.24748 -4.94259 0
M  V30 23644 H 2249.08 -0.273578 -0.702617 0
M  V30 23645 H 2251.73 -1.25792 -1.33599 0
M  V30 23646 H 2250.11 -0.686772 -3.89999 0
M  V30 23647 H 2251.29 -3.42611 -3.08147 0
M  V30 23648 H 2249.6 -2.98797 -2.90016 0
M  V30 23649 H 2252.2 -1.3762 -5.16686 0
M  V30 23650 H 2252.54 0.0112042 -4.16298 0
M  V30 23651 H 2253.08 -1.60501 -3.63984 0
M  V30 23652 H 2249.82 -4.30405 -4.94401 0
M  V30 23653 H 2249.34 -2.64833 -5.38167 0
M  V30 23654 H 2251.01 -3.18844 -5.62981 0
M  V30 23655 N 2251.15 1.34492 -0.821557 0
M  V30 23656 C 2252.06 2.33324 -0.244396 0
M  V30 23657 C 2253.07 1.6256 0.620499 0
M  V30 23658 O 2254.25 1.94336 0.52872 0
M  V30 23659 C 2251.31 3.41724 0.585308 0
M  V30 23660 C 2250.37 4.28238 -0.301827 0
M  V30 23661 C 2249.61 5.31461 0.488372 0
M  V30 23662 O 2249.83 5.43794 1.72177 0
M  V30 23663 O 2248.76 6.01763 -0.128586 0
M  V30 23664 H 2252.59 2.84513 -1.06236 0
M  V30 23665 H 2250.18 1.37527 -0.583669 0
M  V30 23666 H 2252.06 4.07918 1.0574 0
M  V30 23667 H 2250.73 2.9278 1.38063 0
M  V30 23668 H 2249.64 3.64971 -0.821379 0
M  V30 23669 H 2250.97 4.80618 -1.06147 0
M  V30 23670 N 2252.62 0.576397 1.46681 0
M  V30 23671 C 2253.87 0.057318 2.01619 0
M  V30 23672 C 2254.19 -1.30815 1.45419 0
M  V30 23673 O 2255.39 -1.91822 1.92137 0
M  V30 23674 C 2253.85 0.0519003 3.59863 0
M  V30 23675 C 2253.46 1.4153 4.25057 0
M  V30 23676 C 2255.2 -0.413565 4.22481 0
M  V30 23677 C 2253.11 1.36795 5.75362 0
M  V30 23678 H 2252.04 0.017658 0.753793 0
M  V30 23679 H 2254.69 0.727106 1.6848 0
M  V30 23680 H 2253.07 -0.683925 3.90049 0
M  V30 23681 H 2254.24 2.17036 4.06488 0
M  V30 23682 H 2252.56 1.82027 3.74507 0
M  V30 23683 H 2255.16 -0.467685 5.32651 0
M  V30 23684 H 2255.5 -1.42975 3.90978 0
M  V30 23685 H 2256.03 0.267999 3.96896 0
M  V30 23686 H 2252.77 2.36074 6.11514 0
M  V30 23687 H 2252.29 0.655 5.96213 0
M  V30 23688 H 2253.97 1.07816 6.37953 0
M  V30 23689 N 2254.1 -1.54444 0.313841 0
M  V30 23690 C 2255.35 -1.99568 -0.292484 0
M  V30 23691 C 2255.66 -1.20585 -1.54009 0
M  V30 23692 O 2256.87 -1.56039 -2.2218 0
M  V30 23693 C 2255.33 -3.5533 -0.571689 0
M  V30 23694 C 2254.93 -4.43137 0.658307 0
M  V30 23695 C 2256.68 -4.08948 -1.1385 0
M  V30 23696 C 2254.59 -5.90354 0.351543 0
M  V30 23697 H 2253.52 -0.745474 -0.113066 0
M  V30 23698 H 2256.17 -1.78521 0.42455 0
M  V30 23699 H 2254.55 -3.72327 -1.34865 0
M  V30 23700 H 2255.72 -4.37916 1.43411 0
M  V30 23701 H 2254.04 -4.00358 1.14465 0
M  V30 23702 H 2256.63 -5.16519 -1.38247 0
M  V30 23703 H 2256.98 -3.60334 -2.08483 0
M  V30 23704 H 2257.51 -3.95545 -0.422945 0
M  V30 23705 H 2254.25 -6.43143 1.26678 0
M  V30 23706 H 2253.77 -5.98552 -0.386737 0
M  V30 23707 H 2255.45 -6.46986 -0.0421997 0
M  V30 23708 N 2255.58 -0.0418125 -1.57545 0
M  V30 23709 C 2256.99 0.495227 -1.80012 0
M  V30 23710 C 2257.34 1.71488 -0.953229 0
M  V30 23711 O 2256.47 2.15753 -0.167176 0
M  V30 23712 C 2257.06 0.905208 -3.26483 0
M  V30 23713 C 2255.62 1.38728 -3.49902 0
M  V30 23714 C 2254.77 0.358007 -2.74979 0
M  V30 23715 H 2257.72 -0.267763 -1.56425 0
M  V30 23716 H 2257.74 1.76876 -3.36891 0
M  V30 23717 H 2257.25 0.0173328 -3.88096 0
M  V30 23718 H 2255.35 2.29466 -2.93558 0
M  V30 23719 H 2255.47 1.3859 -4.58617 0
M  V30 23720 H 2253.83 0.828869 -2.40836 0
M  V30 23721 H 2254.61 -0.521621 -3.39314 0
M  V30 23722 N 2257.06 1.55891 0.231477 0
M  V30 23723 C 2258.01 1.916 1.28678 0
M  V30 23724 C 2258.98 0.772 1.47069 0
M  V30 23725 O 2260.16 1.02702 1.60801 0
M  V30 23726 C 2257.3 2.22949 2.63416 0
M  V30 23727 C 2256.41 3.50232 2.52906 0
M  V30 23728 C 2255.55 3.71076 3.801 0
M  V30 23729 C 2254.59 4.91908 3.6427 0
M  V30 23730 N 2253.72 5.09193 4.83391 0
M  V30 23731 H 2258.56 2.8159 0.975255 0
M  V30 23732 H 2256.1 1.3938 0.470274 0
M  V30 23733 H 2258.06 2.39132 3.41865 0
M  V30 23734 H 2256.69 1.36144 2.92685 0
M  V30 23735 H 2255.74 3.42296 1.65944 0
M  V30 23736 H 2257.05 4.38831 2.37126 0
M  V30 23737 H 2256.21 3.87303 4.66992 0
M  V30 23738 H 2254.95 2.8074 3.98794 0
M  V30 23739 H 2253.95 4.75642 2.75762 0
M  V30 23740 H 2255.18 5.8372 3.47056 0
M  V30 23741 H 2253.12 4.21797 5.02418 0
M  V30 23742 H 2253.04 5.91907 4.703 0
M  V30 23743 H 2254.31 5.29845 5.71738 0
M  V30 23744 N 2258.54 -0.497781 1.49532 0
M  V30 23745 C 2259.45 -1.62529 1.69179 0
M  V30 23746 C 2260.46 -1.64245 0.574429 0
M  V30 23747 O 2261.64 -1.82606 0.849529 0
M  V30 23748 C 2258.7 -2.98882 1.757 0
M  V30 23749 C 2257.76 -3.07768 2.99295 0
M  V30 23750 C 2257 -4.37616 3.05496 0
M  V30 23751 O 2257.22 -5.26599 2.19201 0
M  V30 23752 O 2256.15 -4.51541 3.97988 0
M  V30 23753 H 2259.98 -1.48883 2.64703 0
M  V30 23754 H 2257.57 -0.674418 1.33312 0
M  V30 23755 H 2259.45 -3.79916 1.82324 0
M  V30 23756 H 2258.12 -3.12784 0.833555 0
M  V30 23757 H 2257.03 -2.2591 2.98187 0
M  V30 23758 H 2258.36 -2.98794 3.9113 0
M  V30 23759 N 2260.01 -1.38661 -0.749062 0
M  V30 23760 C 2260.92 -1.38497 -1.89356 0
M  V30 23761 C 2261.94 -0.281506 -1.71708 0
M  V30 23762 O 2263.12 -0.520678 -1.94553 0
M  V30 23763 C 2260.18 -1.21322 -3.2478 0
M  V30 23764 C 2259.24 -2.41514 -3.54922 0
M  V30 23765 C 2258.48 -2.25148 -4.83884 0
M  V30 23766 O 2258.7 -1.24756 -5.5659 0
M  V30 23767 O 2257.63 -3.13835 -5.13606 0
M  V30 23768 H 2261.46 -2.34942 -1.92448 0
M  V30 23769 H 2259.04 -1.19628 -0.89496 0
M  V30 23770 H 2260.93 -1.13821 -4.05737 0
M  V30 23771 H 2259.6 -0.279649 -3.2249 0
M  V30 23772 H 2258.51 -2.5459 -2.74107 0
M  V30 23773 H 2259.84 -3.33516 -3.61977 0
M  V30 23774 N 2261.49 0.977736 -1.23605 0
M  V30 23775 C 2262.74 1.72193 -1.07132 0
M  V30 23776 C 2263.07 1.90234 0.390467 0
M  V30 23777 O 2262.35 1.45655 1.28899 0
M  V30 23778 C 2262.63 3.11864 -1.80037 0
M  V30 23779 C 2262.48 3.01377 -3.33904 0
M  V30 23780 C 2263.8 4.11334 -1.56499 0
M  V30 23781 H 2260.92 0.624992 -0.390582 0
M  V30 23782 H 2263.56 1.13808 -1.52144 0
M  V30 23783 H 2261.71 3.61707 -1.41775 0
M  V30 23784 H 2263.39 2.59036 -3.81704 0
M  V30 23785 H 2261.63 2.3782 -3.628 0
M  V30 23786 H 2262.3 4.00278 -3.80107 0
M  V30 23787 H 2264.78 3.70309 -1.89764 0
M  V30 23788 H 2263.65 5.07148 -2.09982 0
M  V30 23789 H 2263.91 4.39253 -0.500951 0
M  V30 23790 N 2262.97 1.04818 1.1769 0
M  V30 23791 C 2263.9 0.603861 2.21102 0
M  V30 23792 C 2264.92 -0.330432 1.59411 0
M  V30 23793 O 2266.11 -0.123758 1.7807 0
M  V30 23794 C 2263.21 -0.136838 3.38624 0
M  V30 23795 C 2262.38 0.807213 4.29887 0
M  V30 23796 C 2261.44 0.108452 5.26088 0
M  V30 23797 O 2260.46 0.741331 5.64352 0
M  V30 23798 N 2261.67 -1.15548 5.68884 0
M  V30 23799 H 2264.43 1.49334 2.59845 0
M  V30 23800 H 2261.99 0.92961 1.32551 0
M  V30 23801 H 2263.98 -0.614331 4.0001 0
M  V30 23802 H 2262.55 -0.927941 2.9851 0
M  V30 23803 H 2261.77 1.46441 3.6599 0
M  V30 23804 H 2263.06 1.44816 4.87756 0
M  V30 23805 H 2262.46 -1.69006 5.39864 0
M  V30 23806 H 2261.02 -1.57711 6.32432 0
M  V30 23807 N 2264.45 -1.34055 0.828678 0
M  V30 23808 C 2265.67 -2.02858 0.431673 0
M  V30 23809 C 2266.1 -1.61976 -0.95631 0
M  V30 23810 O 2265.46 -0.807256 -1.62336 0
M  V30 23811 C 2265.51 -3.56406 0.548385 0
M  V30 23812 O 2264.61 -4.10158 -0.429484 0
M  V30 23813 H 2263.95 -0.640003 0.176897 0
M  V30 23814 H 2266.48 -1.71177 1.12069 0
M  V30 23815 H 2266.49 -4.05767 0.426267 0
M  V30 23816 H 2265.17 -3.85507 1.56067 0
M  V30 23817 H 2263.74 -3.71952 -0.265771 0
M  V30 23818 N 2265.93 -0.584167 -1.46374 0
M  V30 23819 C 2267.15 -0.0740769 -2.07268 0
M  V30 23820 C 2267.58 1.22221 -1.42981 0
M  V30 23821 O 2266.94 1.73858 -0.514123 0
M  V30 23822 C 2266.98 0.0767136 -3.60518 0
M  V30 23823 O 2266.09 1.13285 -3.96535 0
M  V30 23824 H 2265.43 -0.0634641 -0.66096 0
M  V30 23825 H 2267.96 -0.807525 -1.8799 0
M  V30 23826 H 2267.97 0.282418 -4.07021 0
M  V30 23827 H 2266.64 -0.869932 -4.067 0
M  V30 23828 H 2265.22 0.905489 -3.61739 0
M  V30 23829 N 2267.41 1.54275 -0.322027 0
M  V30 23830 C 2268.32 2.27975 0.553591 0
M  V30 23831 C 2269.33 1.3227 1.13052 0
M  V30 23832 O 2270.51 1.65282 1.15081 0
M  V30 23833 C 2267.57 3.02204 1.69922 0
M  V30 23834 C 2266.63 4.13492 1.15426 0
M  V30 23835 C 2265.87 4.84172 2.24529 0
M  V30 23836 O 2266.09 4.54356 3.44844 0
M  V30 23837 O 2265.02 5.71114 1.90034 0
M  V30 23838 H 2268.85 3.03667 -0.0448878 0
M  V30 23839 H 2266.43 1.49142 -0.087768 0
M  V30 23840 H 2268.32 3.48694 2.36624 0
M  V30 23841 H 2266.99 2.29389 2.28391 0
M  V30 23842 H 2265.9 3.71355 0.452371 0
M  V30 23843 H 2267.23 4.88346 0.614719 0
M  V30 23844 N 2268.88 0.0501669 1.5752 0
M  V30 23845 C 2270.16 -0.663653 1.83997 0
M  V30 23846 C 2270.54 -1.89097 0.938373 0
M  V30 23847 O 2269.89 -2.285 -0.000837425 0
M  V30 23848 C 2270.1 -1.0219 3.33704 0
M  V30 23849 C 2271.45 -1.40462 4.00694 0
M  V30 23850 O 2272.47 -1.11427 3.38323 0
M  V30 23851 O 2271.33 -1.94645 5.10662 0
M  V30 23852 H 2268.42 -0.327497 0.759391 0
M  V30 23853 H 2270.97 0.0794536 1.69514 0
M  V30 23854 H 2269.74 -0.149295 3.91015 0
M  V30 23855 H 2269.36 -1.82249 3.53371 0
M  V30 23856 N 2270.36 -1.56011 -0.223207 0
M  V30 23857 C 2271.64 -1.69735 -0.972078 0
M  V30 23858 C 2272.02 -0.596946 -2.02484 0
M  V30 23859 O 2271.37 0.396285 -2.25037 0
M  V30 23860 C 2271.58 -3.10982 -1.58402 0
M  V30 23861 C 2272.92 -3.70338 -2.0769 0
M  V30 23862 O 2273.95 -3.13933 -1.68299 0
M  V30 23863 O 2272.81 -4.69269 -2.80087 0
M  V30 23864 H 2269.9 -0.691253 -0.453981 0
M  V30 23865 H 2272.45 -1.68331 -0.215119 0
M  V30 23866 H 2271.22 -3.82531 -0.823763 0
M  V30 23867 H 2270.84 -3.16497 -2.40656 0
M  V30 23868 N 2271.84 0.489844 -1.49794 0
M  V30 23869 C 2273.07 1.26515 -1.63333 0
M  V30 23870 C 2273.48 1.86669 -0.308425 0
M  V30 23871 O 2272.82 1.69109 0.717482 0
M  V30 23872 C 2272.88 2.42685 -2.65225 0
M  V30 23873 C 2272.55 2.03314 -4.09283 0
M  V30 23874 C 2273.54 1.56643 -4.95741 0
M  V30 23875 C 2271.23 2.12608 -4.55086 0
M  V30 23876 C 2273.22 1.19784 -6.26044 0
M  V30 23877 C 2270.91 1.7536 -5.85399 0
M  V30 23878 C 2271.91 1.29024 -6.70702 0
M  V30 23879 O 2271.6 0.922849 -7.98585 0
M  V30 23880 H 2271.33 0.389499 -0.552509 0
M  V30 23881 H 2273.88 0.593347 -1.96643 0
M  V30 23882 H 2272.11 3.12977 -2.27117 0
M  V30 23883 H 2273.8 3.0469 -2.68177 0
M  V30 23884 H 2274.57 1.489 -4.61577 0
M  V30 23885 H 2270.45 2.47624 -3.88848 0
M  V30 23886 H 2273.99 0.83546 -6.92579 0
M  V30 23887 H 2269.89 1.82757 -6.19088 0
M  V30 23888 H 2270.65 1.05335 -8.11694 0
M  V30 23889 N 2273.32 1.39056 0.741698 0
M  V30 23890 C 2274.28 1.37025 1.8373 0
M  V30 23891 C 2275.28 0.268562 1.58541 0
M  V30 23892 O 2276.47 0.526105 1.66066 0
M  V30 23893 C 2273.6 1.13622 3.21408 0
M  V30 23894 H 2274.8 2.3451 1.86937 0
M  V30 23895 H 2272.35 1.24523 0.944654 0
M  V30 23896 H 2273.08 0.16792 3.23865 0
M  V30 23897 H 2272.87 1.93397 3.41087 0
M  V30 23898 H 2274.36 1.14925 4.01475 0
M  V30 23899 N 2274.8 -0.971167 1.24121 0
M  V30 23900 C 2275.71 -2.09915 1.04751 0
M  V30 23901 C 2276.72 -1.73997 -0.0106856 0
M  V30 23902 O 2277.9 -2.00532 0.186749 0
M  V30 23903 C 2274.96 -3.40535 0.650888 0
M  V30 23904 C 2274.02 -3.90423 1.78517 0
M  V30 23905 C 2273.26 -5.14809 1.40738 0
M  V30 23906 O 2273.48 -5.69633 0.29567 0
M  V30 23907 O 2272.41 -5.58995 2.23178 0
M  V30 23908 H 2276.24 -2.29151 1.99308 0
M  V30 23909 H 2273.82 -1.08305 1.0291 0
M  V30 23910 H 2275.71 -4.19085 0.441066 0
M  V30 23911 H 2274.38 -3.22609 -0.265592 0
M  V30 23912 H 2273.29 -3.1295 2.04972 0
M  V30 23913 H 2274.62 -4.1282 2.6803 0
M  V30 23914 N 2276.27 -1.05441 -1.17133 0
M  V30 23915 C 2277.52 -0.761081 -1.8679 0
M  V30 23916 C 2277.84 0.714763 -1.82073 0
M  V30 23917 O 2279.04 1.12213 -2.47225 0
M  V30 23918 C 2277.5 -1.31123 -3.35164 0
M  V30 23919 C 2277.11 -2.8167 -3.48376 0
M  V30 23920 C 2278.85 -1.09506 -4.10133 0
M  V30 23921 C 2276.76 -3.29972 -4.90787 0
M  V30 23922 H 2275.69 -0.281015 -0.699676 0
M  V30 23923 H 2278.34 -1.27202 -1.32257 0
M  V30 23924 H 2276.72 -0.728098 -3.89249 0
M  V30 23925 H 2277.89 -3.4586 -3.04496 0
M  V30 23926 H 2276.21 -3.01856 -2.86831 0
M  V30 23927 H 2278.81 -1.43093 -5.15198 0
M  V30 23928 H 2279.15 -0.0329504 -4.16287 0
M  V30 23929 H 2279.68 -1.64353 -3.62261 0
M  V30 23930 H 2276.42 -4.35624 -4.89808 0
M  V30 23931 H 2275.94 -2.70526 -5.35328 0
M  V30 23932 H 2277.62 -3.24797 -5.59568 0
M  V30 23933 N 2277.75 1.33613 -0.835776 0
M  V30 23934 C 2279.03 1.92406 -0.352051 0
M  V30 23935 C 2279.41 1.76226 1.16222 0
M  V30 23936 O 2278.76 1.14877 1.97524 0
M  V30 23937 C 2278.97 3.39812 -0.795545 0
M  V30 23938 C 2280.32 4.16961 -0.801776 0
M  V30 23939 O 2281.34 3.48451 -0.738951 0
M  V30 23940 O 2280.2 5.39259 -0.886702 0
M  V30 23941 H 2277.29 0.821056 -0.0989786 0
M  V30 23942 H 2279.84 1.42506 -0.921422 0
M  V30 23943 H 2278.61 3.45446 -1.83801 0
M  V30 23944 H 2278.23 3.97084 -0.202575 0
M  V30 23945 N 2279.23 0.591922 1.46062 0
M  V30 23946 C 2280.46 0.0868039 2.06418 0
M  V30 23947 C 2280.87 -1.22748 1.43978 0
M  V30 23948 O 2280.21 -1.75505 0.542562 0
M  V30 23949 C 2280.27 -0.143662 3.59213 0
M  V30 23950 C 2279.94 1.08642 4.43898 0
M  V30 23951 C 2280.93 2.00075 4.7986 0
M  V30 23952 C 2278.62 1.31086 4.84894 0
M  V30 23953 C 2280.61 3.12292 5.55655 0
M  V30 23954 C 2278.3 2.43606 5.60446 0
M  V30 23955 C 2279.3 3.34038 5.95741 0
M  V30 23956 O 2278.99 4.44602 6.69765 0
M  V30 23957 H 2278.72 0.0587566 0.673442 0
M  V30 23958 H 2281.27 0.815027 1.88538 0
M  V30 23959 H 2279.5 -0.926602 3.75434 0
M  V30 23960 H 2281.19 -0.59843 4.01464 0
M  V30 23961 H 2281.96 1.83955 4.4876 0
M  V30 23962 H 2277.84 0.61602 4.56866 0
M  V30 23963 H 2281.38 3.82901 5.83123 0
M  V30 23964 H 2277.28 2.59685 5.9096 0
M  V30 23965 H 2278.05 4.43085 6.88199 0
M  V30 23966 N 2280.71 -1.54102 0.330204 0
M  V30 23967 C 2281.95 -2.00984 -0.27077 0
M  V30 23968 C 2282.29 -1.21791 -1.51263 0
M  V30 23969 O 2281.56 -0.301961 -1.92142 0
M  V30 23970 C 2281.85 -3.55095 -0.598277 0
M  V30 23971 C 2281.7 -4.45009 0.654752 0
M  V30 23972 C 2283.02 -4.16791 -1.41327 0
M  V30 23973 H 2280.14 -0.730597 -0.0969403 0
M  V30 23974 H 2282.78 -1.8464 0.448098 0
M  V30 23975 H 2280.93 -3.69153 -1.21071 0
M  V30 23976 H 2282.6 -4.42811 1.29292 0
M  V30 23977 H 2280.84 -4.14414 1.28232 0
M  V30 23978 H 2281.51 -5.50683 0.381041 0
M  V30 23979 H 2283.99 -4.06349 -0.895525 0
M  V30 23980 H 2282.87 -5.24721 -1.61118 0
M  V30 23981 H 2283.13 -3.70546 -2.4114 0
M  V30 23982 N 2282.19 -0.0585199 -1.57491 0
M  V30 23983 C 2283.6 0.476106 -1.80527 0
M  V30 23984 C 2283.95 1.70467 -0.971364 0
M  V30 23985 O 2283.07 2.15564 -0.19005 0
M  V30 23986 C 2283.67 0.870529 -3.27425 0
M  V30 23987 C 2282.23 1.35009 -3.51354 0
M  V30 23988 C 2281.37 0.328822 -2.75344 0
M  V30 23989 H 2284.33 -0.284339 -1.56132 0
M  V30 23990 H 2284.35 1.73293 -3.38748 0
M  V30 23991 H 2283.86 -0.0238309 -3.88093 0
M  V30 23992 H 2281.96 2.2634 -2.95975 0
M  V30 23993 H 2282.07 1.33718 -4.60061 0
M  V30 23994 H 2280.44 0.803279 -2.41701 0
M  V30 23995 H 2281.22 -0.55758 -3.38742 0
M  V30 23996 N 2283.66 1.56128 0.21493 0
M  V30 23997 C 2284.89 1.83272 0.953675 0
M  V30 23998 C 2285.3 0.636294 1.7818 0
M  V30 23999 O 2284.65 -0.404485 1.79192 0
M  V30 24000 C 2284.71 3.04243 1.9151 0
M  V30 24001 C 2284.37 4.38974 1.27086 0
M  V30 24002 C 2285.37 5.15726 0.657485 0
M  V30 24003 C 2283.05 4.857 1.28065 0
M  V30 24004 C 2285.05 6.37369 0.0624847 0
M  V30 24005 C 2282.73 6.07285 0.681807 0
M  V30 24006 C 2283.73 6.8296 0.0737846 0
M  V30 24007 O 2283.42 8.02244 -0.515724 0
M  V30 24008 H 2283.15 0.6131 0.284753 0
M  V30 24009 H 2285.71 2.04071 0.233248 0
M  V30 24010 H 2283.94 2.79279 2.6747 0
M  V30 24011 H 2285.63 3.18203 2.51996 0
M  V30 24012 H 2286.39 4.80729 0.642204 0
M  V30 24013 H 2282.27 4.26767 1.7433 0
M  V30 24014 H 2285.81 6.96378 -0.412716 0
M  V30 24015 H 2281.71 6.41753 0.694523 0
M  V30 24016 H 2282.48 8.17469 -0.410688 0
M  V30 24017 N 2285.14 -0.481893 1.50052 0
M  V30 24018 C 2286.42 -1.24318 1.51012 0
M  V30 24019 C 2286.8 -2.09631 0.248624 0
M  V30 24020 O 2286.15 -2.15194 -0.768371 0
M  V30 24021 C 2286.36 -2.0835 2.79984 0
M  V30 24022 C 2287.71 -2.66902 3.30225 0
M  V30 24023 O 2288.73 -2.18602 2.81232 0
M  V30 24024 O 2287.59 -3.54877 4.15601 0
M  V30 24025 H 2284.68 -0.563562 0.605249 0
M  V30 24026 H 2287.23 -0.494598 1.62332 0
M  V30 24027 H 2286 -1.45413 3.63278 0
M  V30 24028 H 2285.62 -2.90363 2.71615 0
M  V30 24029 N 2286.62 -1.39448 -0.734313 0
M  V30 24030 C 2287.9 -1.27217 -1.48577 0
M  V30 24031 C 2288.28 0.117931 -2.1077 0
M  V30 24032 O 2287.63 1.12921 -1.98648 0
M  V30 24033 C 2287.84 -2.397 -2.53663 0
M  V30 24034 C 2289.18 -2.7905 -3.20026 0
M  V30 24035 O 2290.21 -2.39155 -2.63976 0
M  V30 24036 O 2289.07 -3.47912 -4.21449 0
M  V30 24037 H 2286.16 -0.498582 -0.659807 0
M  V30 24038 H 2288.71 -1.51323 -0.76808 0
M  V30 24039 H 2287.48 -3.3263 -2.0609 0
M  V30 24040 H 2287.1 -2.17264 -3.3299 0
M  V30 24041 N 2288.1 0.964571 -1.24635 0
M  V30 24042 C 2289.51 1.52258 -1.08048 0
M  V30 24043 C 2289.86 1.93106 0.347082 0
M  V30 24044 O 2288.99 1.77639 1.23585 0
M  V30 24045 C 2289.58 2.76691 -1.95518 0
M  V30 24046 C 2288.14 3.28838 -1.83146 0
M  V30 24047 C 2287.29 2.01729 -1.90265 0
M  V30 24048 H 2290.24 0.782529 -1.38066 0
M  V30 24049 H 2290.26 3.50143 -1.48931 0
M  V30 24050 H 2289.77 2.46931 -2.99411 0
M  V30 24051 H 2287.87 3.63443 -0.820983 0
M  V30 24052 H 2287.98 3.97526 -2.67413 0
M  V30 24053 H 2286.35 2.16582 -1.34031 0
M  V30 24054 H 2287.13 1.74329 -2.95743 0
M  V30 24055 N 2289.58 1.0606 1.16572 0
M  V30 24056 C 2290.81 0.79543 1.90674 0
M  V30 24057 C 2291.21 -0.653704 1.77548 0
M  V30 24058 O 2290.56 -1.45905 1.11613 0
M  V30 24059 C 2290.62 1.1077 3.42009 0
M  V30 24060 C 2290.28 2.55478 3.7892 0
M  V30 24061 C 2291.28 3.53706 3.81036 0
M  V30 24062 C 2288.97 2.90716 4.09621 0
M  V30 24063 C 2290.96 4.85212 4.13337 0
M  V30 24064 C 2288.65 4.22423 4.4159 0
M  V30 24065 C 2289.64 5.19482 4.43427 0
M  V30 24066 O 2289.33 6.48825 4.74638 0
M  V30 24067 H 2289.06 0.288069 0.611549 0
M  V30 24068 H 2291.62 1.41686 1.48709 0
M  V30 24069 H 2289.85 0.429196 3.84311 0
M  V30 24070 H 2291.54 0.827147 3.97383 0
M  V30 24071 H 2292.3 3.27823 3.57431 0
M  V30 24072 H 2288.18 2.15826 4.07357 0
M  V30 24073 H 2291.73 5.60964 4.14686 0
M  V30 24074 H 2287.62 4.48065 4.64659 0
M  V30 24075 H 2288.39 6.53779 4.92459 0
M  V30 24076 N 2291.06 -1.33168 0.84285 0
M  V30 24077 C 2292 -2.29133 0.276925 0
M  V30 24078 C 2292.97 -1.54513 -0.609499 0
M  V30 24079 O 2294.16 -1.82793 -0.546923 0
M  V30 24080 C 2291.3 -3.4087 -0.538647 0
M  V30 24081 C 2290.41 -4.30393 0.372245 0
M  V30 24082 C 2289.55 -5.29249 -0.454815 0
M  V30 24083 C 2288.58 -6.10412 0.454218 0
M  V30 24084 N 2287.72 -7.01301 -0.334952 0
M  V30 24085 H 2292.56 -2.76932 1.10057 0
M  V30 24086 H 2290.1 -1.36262 0.554185 0
M  V30 24087 H 2292.06 -4.04362 -1.02702 0
M  V30 24088 H 2290.69 -2.94253 -1.32722 0
M  V30 24089 H 2289.74 -3.67588 0.978944 0
M  V30 24090 H 2291.05 -4.8718 1.07039 0
M  V30 24091 H 2290.2 -5.98287 -1.00684 0
M  V30 24092 H 2288.94 -4.7305 -1.18638 0
M  V30 24093 H 2287.95 -5.40289 1.01823 0
M  V30 24094 H 2289.17 -6.68695 1.18421 0
M  V30 24095 H 2287.12 -6.47545 -1.04982 0
M  V30 24096 H 2287.04 -7.55387 0.304395 0
M  V30 24097 H 2288.3 -7.7464 -0.869088 0
M  V30 24098 N 2292.53 -0.599659 -1.45746 0
M  V30 24099 C 2293.76 -0.0978914 -2.06668 0
M  V30 24100 C 2294.18 1.21436 -1.44564 0
M  V30 24101 O 2293.53 1.73794 -0.556953 0
M  V30 24102 C 2293.58 0.0566409 -3.61456 0
M  V30 24103 O 2293.31 -1.20369 -4.2124 0
M  V30 24104 C 2294.81 0.590791 -4.39346 0
M  V30 24105 H 2292.03 -0.0652061 -0.667824 0
M  V30 24106 H 2294.57 -0.825143 -1.87114 0
M  V30 24107 H 2292.73 0.734184 -3.80379 0
M  V30 24108 H 2293.14 -1.0283 -5.14321 0
M  V30 24109 H 2294.61 0.648035 -5.48183 0
M  V30 24110 H 2295.09 1.6114 -4.08571 0
M  V30 24111 H 2295.7 -0.0524427 -4.25268 0
M  V30 24112 N 2294.01 1.53925 -0.338371 0
M  V30 24113 C 2295.29 1.93051 0.31474 0
M  V30 24114 C 2295.67 1.26944 1.68667 0
M  V30 24115 O 2295.02 0.418484 2.24635 0
M  V30 24116 C 2295.23 3.46789 0.392188 0
M  V30 24117 C 2296.57 4.19665 0.645481 0
M  V30 24118 O 2297.6 3.53025 0.474513 0
M  V30 24119 O 2296.46 5.37708 0.976314 0
M  V30 24120 H 2293.55 0.806593 0.182584 0
M  V30 24121 H 2296.1 1.65177 -0.38917 0
M  V30 24122 H 2294.87 3.87115 -0.57077 0
M  V30 24123 H 2294.49 3.80814 1.14309 0
M  V30 24124 N 2295.49 0.0668712 1.57458 0
M  V30 24125 C 2296.74 -0.604266 1.93588 0
M  V30 24126 C 2297.07 -1.69559 0.946752 0
M  V30 24127 O 2296.34 -1.94484 -0.0248174 0
M  V30 24128 C 2296.63 -1.18579 3.40016 0
M  V30 24129 C 2296.48 -0.10145 4.49686 0
M  V30 24130 C 2297.8 -2.09277 3.87158 0
M  V30 24131 H 2294.92 -0.21819 0.703962 0
M  V30 24132 H 2297.56 0.131837 1.89542 0
M  V30 24133 H 2295.71 -1.81313 3.43595 0
M  V30 24134 H 2297.38 0.53136 4.58229 0
M  V30 24135 H 2295.62 0.568562 4.30058 0
M  V30 24136 H 2296.3 -0.548643 5.49267 0
M  V30 24137 H 2298.77 -1.56485 3.85554 0
M  V30 24138 H 2297.65 -2.46903 4.90235 0
M  V30 24139 H 2297.91 -2.99912 3.24816 0
M  V30 24140 N 2296.97 -1.56239 -0.206647 0
M  V30 24141 C 2298.38 -1.49565 -0.556998 0
M  V30 24142 C 2298.58 -0.764768 -1.86423 0
M  V30 24143 O 2297.64 -0.310535 -2.50583 0
M  V30 24144 C 2298.95 -2.94188 -0.622427 0
M  V30 24145 C 2300.5 -3.04793 -0.712046 0
M  V30 24146 C 2300.98 -4.50804 -0.808688 0
M  V30 24147 N 2302.47 -4.54908 -0.87252 0
M  V30 24148 C 2303.2 -5.65183 -0.967266 0
M  V30 24149 N 2302.7 -6.85175 -1.02503 0
M  V30 24150 N 2304.49 -5.53069 -1.00356 0
M  V30 24151 H 2296.64 -2.02178 0.650978 0
M  V30 24152 H 2298.9 -0.919575 0.230403 0
M  V30 24153 H 2298.61 -3.50671 0.268788 0
M  V30 24154 H 2298.48 -3.46908 -1.48104 0
M  V30 24155 H 2300.87 -2.48365 -1.5937 0
M  V30 24156 H 2300.95 -2.55217 0.172534 0
M  V30 24157 H 2300.6 -5.07854 0.0685647 0
M  V30 24158 H 2300.53 -4.98101 -1.7089 0
M  V30 24159 H 2303.02 -3.68501 -0.837592 0
M  V30 24160 H 2303.33 -7.64967 -1.09752 0
M  V30 24161 H 2301.68 -6.87856 -0.993905 0
M  V30 24162 H 2304.87 -4.58251 -0.955189 0
M  V30 24163 H 2305.04 -6.39039 -1.07394 0
M  V30 24164 N 2298.45 0.473929 -1.50305 0
M  V30 24165 C 2299.67 1.24957 -1.64904 0
M  V30 24166 C 2300.09 1.85872 -0.331231 0
M  V30 24167 O 2299.45 1.69096 0.68649 0
M  V30 24168 C 2299.5 2.36033 -2.73807 0
M  V30 24169 O 2299.22 1.77617 -4.0048 0
M  V30 24170 C 2300.72 3.26958 -2.99354 0
M  V30 24171 H 2297.94 0.378013 -0.554389 0
M  V30 24172 H 2300.48 0.566019 -1.96511 0
M  V30 24173 H 2298.64 3.00169 -2.44903 0
M  V30 24174 H 2299.05 2.50742 -4.60683 0
M  V30 24175 H 2300.53 4.01115 -3.79224 0
M  V30 24176 H 2301 3.8557 -2.10314 0
M  V30 24177 H 2301.61 2.68563 -3.29779 0
M  V30 24178 N 2299.92 1.39835 0.726907 0
M  V30 24179 C 2300.87 1.39357 1.86232 0
M  V30 24180 C 2301.87 0.275585 1.67143 0
M  V30 24181 O 2303.07 0.44604 1.74386 0
M  V30 24182 H 2299.45 0.435351 0.613167 0
M  V30 24183 H 2301.42 2.35113 1.83752 0
M  V30 24184 C 2300.17 1.2619 3.23993 0
M  V30 24185 H 2299.49 2.1149 3.39282 0
M  V30 24186 H 2300.93 1.29914 4.03607 0
M  V30 24187 C 2299.39 -0.0289426 3.36888 0
M  V30 24188 O 2299.92 -0.996122 3.89153 0
M  V30 24189 N 2298.12 -0.0946926 2.90446 0
M  V30 24190 H 2297.67 0.693079 2.48101 0
M  V30 24191 H 2297.63 -0.95788 2.99453 0
M  V30 24192 N 2301.4 -0.957948 1.25144 0
M  V30 24193 C 2302.65 -1.69652 1.09093 0
M  V30 24194 C 2302.96 -1.92097 -0.368514 0
M  V30 24195 O 2304.17 -2.63619 -0.649409 0
M  V30 24196 C 2302.63 -3.05411 1.904 0
M  V30 24197 C 2302.23 -2.90773 3.40815 0
M  V30 24198 C 2303.98 -3.83073 1.82908 0
M  V30 24199 C 2301.88 -4.21902 4.14431 0
M  V30 24200 H 2300.81 -0.636228 0.404636 0
M  V30 24201 H 2303.47 -1.06669 1.49311 0
M  V30 24202 H 2301.85 -3.69278 1.43002 0
M  V30 24203 H 2303.02 -2.35858 3.95863 0
M  V30 24204 H 2301.34 -2.26568 3.49365 0
M  V30 24205 H 2303.93 -4.80191 2.35204 0
M  V30 24206 H 2304.28 -4.08613 0.796296 0
M  V30 24207 H 2304.81 -3.2595 2.28038 0
M  V30 24208 H 2301.55 -4.01552 5.18109 0
M  V30 24209 H 2301.07 -4.76595 3.64167 0
M  V30 24210 H 2302.75 -4.90464 4.21965 0
M  V30 24211 N 2302.88 -1.06677 -1.16008 0
M  V30 24212 C 2303.83 -0.675196 -2.22584 0
M  V30 24213 C 2304.82 0.310737 -1.66526 0
M  V30 24214 O 2306.03 0.175183 -1.79145 0
M  V30 24215 H 2302.4 -0.200235 -0.724852 0
M  V30 24216 H 2304.37 -1.58385 -2.52897 0
M  V30 24217 C 2303.12 -0.0817773 -3.47604 0
M  V30 24218 H 2302.45 -0.831552 -3.91057 0
M  V30 24219 H 2303.89 0.154634 -4.23718 0
M  V30 24220 C 2302.34 1.1757 -3.1572 0
M  V30 24221 O 2302.87 2.26312 -3.31882 0
M  V30 24222 N 2301.08 1.07919 -2.69818 0
M  V30 24223 H 2300.63 0.194248 -2.56867 0
M  V30 24224 H 2300.59 1.92137 -2.48859 0
M  V30 24225 N 2304.36 1.32719 -0.8499 0
M  V30 24226 C 2305.58 2.02146 -0.463891 0
M  V30 24227 C 2306.01 1.63477 0.93042 0
M  V30 24228 O 2305.37 0.83298 1.61031 0
M  V30 24229 C 2305.41 3.55488 -0.605017 0
M  V30 24230 O 2304.52 4.10789 0.364177 0
M  V30 24231 H 2303.86 0.637107 -0.187057 0
M  V30 24232 H 2306.39 1.69373 -1.14778 0
M  V30 24233 H 2306.4 4.05038 -0.490767 0
M  V30 24234 H 2305.07 3.82976 -1.6218 0
M  V30 24235 H 2303.65 3.72327 0.206563 0
M  V30 24236 N 2305.84 0.60738 1.45426 0
M  V30 24237 C 2307.06 0.107042 2.07124 0
M  V30 24238 C 2307.49 -1.19931 1.44908 0
M  V30 24239 O 2306.84 -1.73018 0.541717 0
M  V30 24240 C 2306.89 -0.0193485 3.60595 0
M  V30 24241 O 2306 -1.06963 3.98287 0
M  V30 24242 H 2305.34 0.0739713 0.659867 0
M  V30 24243 H 2307.87 0.83733 1.86681 0
M  V30 24244 H 2307.88 -0.217629 4.07419 0
M  V30 24245 H 2306.55 0.934524 4.05265 0
M  V30 24246 H 2305.13 -0.847825 3.63134 0
M  V30 24247 N 2307.31 -1.53743 0.34653 0
M  V30 24248 C 2308.73 -1.59599 -0.00528169 0
M  V30 24249 C 2308.93 -1.36239 -1.48463 0
M  V30 24250 O 2307.99 -1.15812 -2.24374 0
M  V30 24251 C 2309.3 -2.97558 0.433568 0
M  V30 24252 C 2310.85 -3.10609 0.386165 0
M  V30 24253 C 2311.32 -4.5095 0.80053 0
M  V30 24254 N 2312.81 -4.57008 0.754834 0
M  V30 24255 C 2313.55 -5.63753 1.04737 0
M  V30 24256 N 2313.04 -6.78337 1.40821 0
M  V30 24257 N 2314.84 -5.53642 0.971414 0
M  V30 24258 H 2306.99 -1.67182 1.31012 0
M  V30 24259 H 2309.25 -0.783118 0.534256 0
M  V30 24260 H 2308.96 -3.19729 1.46515 0
M  V30 24261 H 2308.83 -3.76723 -0.189687 0
M  V30 24262 H 2311.22 -2.8816 -0.636245 0
M  V30 24263 H 2311.3 -2.33496 1.04466 0
M  V30 24264 H 2310.94 -4.74134 1.82096 0
M  V30 24265 H 2310.87 -5.26464 0.119479 0
M  V30 24266 H 2313.36 -3.74726 0.488728 0
M  V30 24267 H 2313.68 -7.55711 1.6162 0
M  V30 24268 H 2312.02 -6.79776 1.44669 0
M  V30 24269 H 2315.21 -4.63004 0.688829 0
M  V30 24270 H 2315.39 -6.3674 1.20274 0
M  V30 24271 N 2308.79 -0.0752207 -1.5742 0
M  V30 24272 C 2310.07 0.634296 -1.8503 0
M  V30 24273 C 2310.45 1.8758 -0.968338 0
M  V30 24274 O 2309.8 2.28472 -0.035515 0
M  V30 24275 C 2310.01 0.968683 -3.35287 0
M  V30 24276 C 2311.36 1.3407 -4.02878 0
M  V30 24277 O 2312.38 1.06031 -3.40053 0
M  V30 24278 O 2311.24 1.86497 -5.13694 0
M  V30 24279 H 2308.33 0.315374 -0.764505 0
M  V30 24280 H 2310.88 -0.106412 -1.69366 0
M  V30 24281 H 2309.65 0.0870688 -3.91203 0
M  V30 24282 H 2309.27 1.76604 -3.56226 0
M  V30 24283 N 2310.27 1.56347 0.198358 0
M  V30 24284 C 2311.68 1.70382 0.763328 0
M  V30 24285 C 2312.03 0.681236 1.83994 0
M  V30 24286 O 2311.16 -0.163012 2.15785 0
M  V30 24287 C 2311.75 3.08911 1.39137 0
M  V30 24288 C 2310.31 3.24723 1.90347 0
M  V30 24289 C 2309.46 2.66332 0.772187 0
M  V30 24290 H 2312.41 1.58678 -0.0266656 0
M  V30 24291 H 2312.43 3.06059 2.2607 0
M  V30 24292 H 2311.94 3.83315 0.607571 0
M  V30 24293 H 2310.04 2.5523 2.71456 0
M  V30 24294 H 2310.16 4.32194 2.0675 0
M  V30 24295 H 2308.52 2.25422 1.18562 0
M  V30 24296 H 2309.3 3.433 0.000675217 0
M  V30 24297 N 2311.75 -0.465951 1.50554 0
M  V30 24298 C 2313.03 -1.22709 1.52322 0
M  V30 24299 C 2313.41 -2.09355 0.270844 0
M  V30 24300 O 2312.75 -2.15997 -0.745503 0
M  V30 24301 C 2312.96 -2.05369 2.82178 0
M  V30 24302 C 2314.31 -2.63384 3.33037 0
M  V30 24303 O 2315.34 -2.15607 2.83535 0
M  V30 24304 O 2314.19 -3.50449 4.19342 0
M  V30 24305 H 2311.29 -0.557111 0.611193 0
M  V30 24306 H 2313.83 -0.477353 1.62848 0
M  V30 24307 H 2312.61 -1.41551 3.648 0
M  V30 24308 H 2312.23 -2.87466 2.7468 0
M  V30 24309 N 2313.23 -1.40218 -0.719481 0
M  V30 24310 C 2314.17 -1.40342 -1.85491 0
M  V30 24311 C 2315.17 -0.284445 -1.66995 0
M  V30 24312 O 2316.37 -0.455282 -1.74147 0
M  V30 24313 H 2312.75 -0.438597 -0.610849 0
M  V30 24314 H 2314.72 -2.36084 -1.82502 0
M  V30 24315 C 2313.47 -1.27907 -3.23319 0
M  V30 24316 H 2312.79 -2.13286 -3.38155 0
M  V30 24317 H 2314.23 -1.32052 -4.02912 0
M  V30 24318 C 2312.69 0.0110763 -3.36898 0
M  V30 24319 O 2313.22 0.97547 -3.89676 0
M  V30 24320 N 2311.43 0.0792882 -2.90492 0
M  V30 24321 H 2310.97 -0.706227 -2.4773 0
M  V30 24322 H 2310.93 0.941985 -2.99957 0
M  V30 24323 N 2314.7 0.951297 -1.25651 0
M  V30 24324 C 2315.95 1.69071 -1.09991 0
M  V30 24325 C 2316.27 1.9229 0.358322 0
M  V30 24326 O 2317.47 2.6396 0.63542 0
M  V30 24327 C 2315.93 3.04397 -1.92017 0
M  V30 24328 C 2315.54 2.88962 -3.42353 0
M  V30 24329 C 2317.28 3.82098 -1.84937 0
M  V30 24330 C 2315.19 4.19698 -4.16662 0
M  V30 24331 H 2314.12 0.634073 -0.408005 0
M  V30 24332 H 2316.77 1.05876 -1.49875 0
M  V30 24333 H 2315.15 3.68515 -1.44959 0
M  V30 24334 H 2316.32 2.33755 -3.97108 0
M  V30 24335 H 2314.64 2.24712 -3.50561 0
M  V30 24336 H 2317.24 4.78937 -2.37747 0
M  V30 24337 H 2317.58 4.08185 -0.817954 0
M  V30 24338 H 2318.11 3.24736 -2.29764 0
M  V30 24339 H 2314.85 3.98798 -5.20231 0
M  V30 24340 H 2314.37 4.74657 -3.66689 0
M  V30 24341 H 2316.05 4.88219 -4.2456 0
M  V30 24342 N 2316.18 1.07291 1.1544 0
M  V30 24343 C 2317.15 0.696629 2.18357 0
M  V30 24344 C 2318.15 -0.262809 1.58638 0
M  V30 24345 O 2319.34 -0.0438503 1.74145 0
M  V30 24346 C 2316.47 0.026675 3.4089 0
M  V30 24347 H 2317.66 1.6078 2.5316 0
M  V30 24348 H 2315.21 0.869365 1.29891 0
M  V30 24349 H 2315.95 -0.896767 3.11655 0
M  V30 24350 H 2315.73 0.716725 3.85494 0
M  V30 24351 H 2317.22 -0.221954 4.1701 0
M  V30 24352 N 2317.66 -1.32267 0.856927 0
M  V30 24353 C 2318.62 -2.27118 0.308211 0
M  V30 24354 C 2319.62 -1.51696 -0.533394 0
M  V30 24355 O 2320.81 -1.70758 -0.344577 0
M  V30 24356 C 2317.95 -3.36207 -0.563698 0
M  V30 24357 H 2319.14 -2.77165 1.1454 0
M  V30 24358 H 2316.69 -1.42977 0.631446 0
M  V30 24359 H 2317.43 -2.91432 -1.42261 0
M  V30 24360 H 2317.21 -3.92081 0.0387439 0
M  V30 24361 H 2318.7 -4.06876 -0.940315 0
M  V30 24362 N 2319.14 -0.615084 -1.45102 0
M  V30 24363 C 2320.38 -0.12184 -2.03035 0
M  V30 24364 C 2320.74 1.23662 -1.47396 0
M  V30 24365 O 2320.03 1.80521 -0.642092 0
M  V30 24366 C 2320.23 -0.0319426 -3.57386 0
M  V30 24367 C 2320.06 -1.38014 -4.27998 0
M  V30 24368 C 2318.83 -1.96279 -4.65621 0
M  V30 24369 C 2321.02 -2.31055 -4.59476 0
M  V30 24370 N 2319.01 -3.24501 -5.21126 0
M  V30 24371 C 2320.38 -3.43881 -5.15894 0
M  V30 24372 C 2322.43 -2.30334 -4.41419 0
M  V30 24373 C 2321.13 -4.5616 -5.56157 0
M  V30 24374 C 2323.16 -3.41666 -4.8272 0
M  V30 24375 C 2322.52 -4.53214 -5.39237 0
M  V30 24376 H 2318.62 -0.0881296 -0.777018 0
M  V30 24377 H 2321.21 -0.815075 -1.76818 0
M  V30 24378 H 2319.38 0.630531 -3.83248 0
M  V30 24379 H 2321.11 0.468651 -4.01977 0
M  V30 24380 H 2317.86 -1.494 -4.49418 0
M  V30 24381 H 2318.29 -3.90013 -5.5337 0
M  V30 24382 H 2322.93 -1.4535 -3.97031 0
M  V30 24383 H 2320.65 -5.41864 -5.99507 0
M  V30 24384 H 2324.23 -3.42265 -4.70474 0
M  V30 24385 H 2323.11 -5.37939 -5.70606 0
M  V30 24386 N 2320.62 1.53557 -0.354678 0
M  V30 24387 C 2321.85 2.05211 0.239131 0
M  V30 24388 C 2322.26 1.22866 1.43877 0
M  V30 24389 O 2321.6 0.259597 1.81856 0
M  V30 24390 C 2321.66 3.52476 0.70719 0
M  V30 24391 C 2321.32 4.55465 -0.374293 0
M  V30 24392 C 2322.32 5.05368 -1.22063 0
M  V30 24393 C 2320.01 4.99481 -0.531411 0
M  V30 24394 C 2322 5.97878 -2.20953 0
M  V30 24395 C 2319.69 5.918 -1.52369 0
M  V30 24396 C 2320.69 6.40888 -2.36119 0
M  V30 24397 O 2320.37 7.31388 -3.33656 0
M  V30 24398 H 2320.11 0.674297 0.0479598 0
M  V30 24399 H 2322.66 1.99015 -0.508156 0
M  V30 24400 H 2320.89 3.56173 1.5059 0
M  V30 24401 H 2322.58 3.87044 1.22278 0
M  V30 24402 H 2323.34 4.72118 -1.11038 0
M  V30 24403 H 2319.22 4.60867 0.110657 0
M  V30 24404 H 2322.77 6.36116 -2.86359 0
M  V30 24405 H 2318.66 6.24465 -1.63445 0
M  V30 24406 H 2319.43 7.49354 -3.29257 0
M  V30 24407 N 2322.1 0.083568 1.57378 0
M  V30 24408 C 2323.03 -0.876822 2.16412 0
M  V30 24409 C 2324.01 -1.30226 1.09431 0
M  V30 24410 O 2325.19 -1.37121 1.37519 0
M  V30 24411 C 2322.32 -2.14017 2.73521 0
M  V30 24412 C 2321.28 -1.85375 3.85772 0
M  V30 24413 C 2320.6 -3.1844 4.29534 0
M  V30 24414 C 2321.9 -1.14975 5.09488 0
M  V30 24415 H 2323.6 -0.385006 2.96914 0
M  V30 24416 H 2321.14 -0.183745 1.42823 0
M  V30 24417 H 2323.09 -2.81631 3.13468 0
M  V30 24418 H 2321.82 -2.65462 1.90257 0
M  V30 24419 H 2320.48 -1.20163 3.46347 0
M  V30 24420 H 2320.13 -3.67749 3.43176 0
M  V30 24421 H 2319.83 -3.00063 5.05209 0
M  V30 24422 H 2321.35 -3.87231 4.72106 0
M  V30 24423 H 2322.76 -1.72677 5.46677 0
M  V30 24424 H 2321.16 -1.06816 5.90517 0
M  V30 24425 H 2322.23 -0.130663 4.84724 0
M  V30 24426 N 2323.57 -1.5645 -0.190064 0
M  V30 24427 C 2324.99 -1.50147 -0.541104 0
M  V30 24428 C 2325.19 -0.784498 -1.85601 0
M  V30 24429 O 2324.25 -0.337095 -2.5024 0
M  V30 24430 C 2325.56 -2.94831 -0.591189 0
M  V30 24431 C 2327.11 -3.05531 -0.679678 0
M  V30 24432 C 2327.58 -4.51636 -0.760828 0
M  V30 24433 N 2329.07 -4.55808 -0.824222 0
M  V30 24434 C 2329.81 -5.66177 -0.907266 0
M  V30 24435 N 2329.3 -6.86224 -0.952301 0
M  V30 24436 N 2331.1 -5.54102 -0.944843 0
M  V30 24437 H 2323.25 -2.01476 0.672385 0
M  V30 24438 H 2325.51 -0.91708 0.240144 0
M  V30 24439 H 2325.22 -3.50367 0.305967 0
M  V30 24440 H 2325.09 -3.48459 -1.44416 0
M  V30 24441 H 2327.48 -2.50042 -1.56726 0
M  V30 24442 H 2327.56 -2.5502 0.199594 0
M  V30 24443 H 2327.2 -5.07752 0.122425 0
M  V30 24444 H 2327.13 -4.99885 -1.65597 0
M  V30 24445 H 2329.62 -3.69368 -0.798461 0
M  V30 24446 H 2329.94 -7.66088 -1.01632 0
M  V30 24447 H 2328.28 -6.88872 -0.920893 0
M  V30 24448 H 2331.47 -4.59238 -0.906532 0
M  V30 24449 H 2331.65 -6.40142 -1.0061 0
M  V30 24450 N 2325.05 0.45796 -1.50799 0
M  V30 24451 C 2326.28 1.23665 -1.66499 0
M  V30 24452 C 2326.7 1.84752 -0.353321 0
M  V30 24453 O 2326.06 1.67889 0.684316 0
M  V30 24454 C 2326.11 2.31155 -2.76767 0
M  V30 24455 O 2325.21 3.36132 -2.38933 0
M  V30 24456 H 2324.55 0.363242 -0.555834 0
M  V30 24457 H 2327.08 0.543439 -1.97251 0
M  V30 24458 H 2327.09 2.76264 -3.00237 0
M  V30 24459 H 2325.77 1.86067 -3.71957 0
M  V30 24460 H 2324.34 2.96643 -2.25959 0
M  V30 24461 N 2326.53 1.40598 0.712035 0
M  V30 24462 C 2327.48 1.41324 1.84744 0
M  V30 24463 C 2328.47 0.293297 1.66842 0
M  V30 24464 O 2329.68 0.464511 1.73903 0
M  V30 24465 H 2326.05 0.44183 0.608515 0
M  V30 24466 H 2328.02 2.37048 1.81247 0
M  V30 24467 C 2326.77 1.2962 3.22636 0
M  V30 24468 H 2326.1 2.15077 3.37019 0
M  V30 24469 H 2327.54 1.34187 4.02206 0
M  V30 24470 C 2325.99 0.00679043 3.36899 0
M  V30 24471 O 2326.52 -0.954791 3.90188 0
M  V30 24472 N 2324.73 -0.0638816 2.9053 0
M  V30 24473 H 2324.28 0.719354 2.47352 0
M  V30 24474 H 2324.24 -0.926065 3.00452 0
M  V30 24475 N 2328.01 -0.94462 1.26153 0
M  V30 24476 C 2328.96 -2.06415 1.07218 0
M  V30 24477 C 2329.95 -1.694 0.000121783 0
M  V30 24478 O 2331.16 -1.79318 0.156531 0
M  V30 24479 H 2327.53 -0.675799 0.329849 0
M  V30 24480 H 2329.5 -2.19538 2.02103 0
M  V30 24481 C 2328.25 -3.402 0.718257 0
M  V30 24482 H 2327.57 -3.69157 1.53504 0
M  V30 24483 H 2329.01 -4.1936 0.625533 0
M  V30 24484 C 2327.47 -3.31933 -0.576376 0
M  V30 24485 O 2328 -3.67776 -1.61567 0
M  V30 24486 N 2326.21 -2.8504 -0.565731 0
M  V30 24487 H 2325.76 -2.56069 0.280412 0
M  V30 24488 H 2325.71 -2.79891 -1.43208 0
M  V30 24489 N 2329.49 -1.07901 -1.1487 0
M  V30 24490 C 2330.73 -0.803973 -1.8542 0
M  V30 24491 C 2331.05 0.672078 -1.83052 0
M  V30 24492 O 2330.32 1.487 -1.27534 0
M  V30 24493 H 2328.9 -0.29442 -0.686532 0
M  V30 24494 H 2331.57 -1.36393 -1.39223 0
M  V30 24495 H 2330.66 -1.14351 -2.90397 0
M  V30 24496 N 2330.96 1.31811 -0.863929 0
M  V30 24497 C 2331.91 2.30601 -0.304261 0
M  V30 24498 C 2332.91 1.59256 0.577391 0
M  V30 24499 O 2334.11 1.73912 0.464163 0
M  V30 24500 H 2330.49 0.747765 -0.0797008 0
M  V30 24501 H 2332.46 2.75286 -1.15153 0
M  V30 24502 C 2331.21 3.44307 0.484556 0
M  V30 24503 H 2330.53 3.99374 -0.18458 0
M  V30 24504 H 2331.97 4.15564 0.841591 0
M  V30 24505 C 2330.43 2.92399 1.67345 0
M  V30 24506 O 2330.96 2.90664 2.77268 0
M  V30 24507 N 2329.16 2.48678 1.50358 0
M  V30 24508 H 2328.71 2.50289 0.609358 0
M  V30 24509 H 2328.67 2.14303 2.30047 0
M  V30 24510 N 2332.44 0.62277 1.44773 0
M  V30 24511 C 2333.86 0.287679 1.56986 0
M  V30 24512 C 2334.06 -1.20942 1.61169 0
M  V30 24513 O 2333.11 -1.99312 1.55019 0
M  V30 24514 C 2334.43 0.972238 2.84549 0
M  V30 24515 C 2335.97 0.949588 2.98248 0
M  V30 24516 C 2336.45 1.61445 4.28602 0
M  V30 24517 N 2337.94 1.58065 4.35396 0
M  V30 24518 C 2338.68 2.0641 5.3496 0
M  V30 24519 N 2338.17 2.62908 6.40977 0
M  V30 24520 N 2339.96 1.97088 5.26415 0
M  V30 24521 H 2332.12 1.59465 1.40302 0
M  V30 24522 H 2334.38 0.66889 0.671782 0
M  V30 24523 H 2334.08 2.02698 2.87413 0
M  V30 24524 H 2333.96 0.504837 3.73806 0
M  V30 24525 H 2336.35 -0.0966549 2.94942 0
M  V30 24526 H 2336.43 1.4554 2.10361 0
M  V30 24527 H 2336.07 2.6601 4.32667 0
M  V30 24528 H 2336 1.08354 5.15332 0
M  V30 24529 H 2338.49 1.16807 3.59395 0
M  V30 24530 H 2338.8 2.97552 7.1322 0
M  V30 24531 H 2337.15 2.66955 6.41685 0
M  V30 24532 H 2340.34 1.52677 4.42501 0
M  V30 24533 H 2340.51 2.35076 6.03857 0
M  V30 24534 N 2333.92 -1.53367 0.362817 0
M  V30 24535 C 2335.34 -1.59596 0.0116462 0
M  V30 24536 C 2335.54 -1.37806 -1.4701 0
M  V30 24537 O 2334.59 -1.18185 -2.23133 0
M  V30 24538 C 2335.9 -2.97081 0.465104 0
M  V30 24539 C 2337.45 -3.10182 0.419088 0
M  V30 24540 C 2337.93 -4.50075 0.848314 0
M  V30 24541 N 2339.42 -4.56182 0.803263 0
M  V30 24542 C 2340.15 -5.62611 1.1071 0
M  V30 24543 N 2339.65 -6.76805 1.48008 0
M  V30 24544 N 2341.44 -5.52581 1.03008 0
M  V30 24545 H 2333.59 -1.65783 1.32777 0
M  V30 24546 H 2335.86 -0.777408 0.542532 0
M  V30 24547 H 2335.56 -3.18157 1.49897 0
M  V30 24548 H 2335.44 -3.76903 -0.14972 0
M  V30 24549 H 2337.82 -2.88818 -0.605646 0
M  V30 24550 H 2337.9 -2.32375 1.06937 0
M  V30 24551 H 2337.55 -4.72176 1.87115 0
M  V30 24552 H 2337.48 -5.26308 0.175311 0
M  V30 24553 H 2339.97 -3.74187 0.528446 0
M  V30 24554 H 2340.28 -7.53954 1.69626 0
M  V30 24555 H 2338.63 -6.78204 1.51871 0
M  V30 24556 H 2341.82 -4.62247 0.737898 0
M  V30 24557 H 2341.99 -6.35429 1.27021 0
M  V30 24558 N 2335.4 -0.091913 -1.57332 0
M  V30 24559 C 2336.35 0.885709 -2.15077 0
M  V30 24560 C 2337.34 1.29439 -1.09279 0
M  V30 24561 O 2338.55 1.26929 -1.27629 0
M  V30 24562 H 2334.92 0.303644 -0.687971 0
M  V30 24563 H 2336.89 0.373943 -2.96048 0
M  V30 24564 C 2335.64 2.13633 -2.74329 0
M  V30 24565 H 2334.96 1.83074 -3.55421 0
M  V30 24566 H 2336.4 2.80104 -3.18305 0
M  V30 24567 C 2334.86 2.90824 -1.70067 0
M  V30 24568 O 2335.39 3.85252 -1.13769 0
M  V30 24569 N 2333.6 2.54305 -1.40633 0
M  V30 24570 H 2333.15 1.77587 -1.86603 0
M  V30 24571 H 2333.1 3.06253 -0.711096 0
M  V30 24572 N 2336.88 1.56548 0.181765 0
M  V30 24573 C 2338.11 1.85254 0.914586 0
M  V30 24574 C 2338.51 0.673945 1.7679 0
M  V30 24575 O 2337.86 -0.366385 1.80009 0
M  V30 24576 C 2337.92 3.08237 1.85014 0
M  V30 24577 C 2337.58 4.41571 1.17746 0
M  V30 24578 C 2338.58 5.17004 0.547944 0
M  V30 24579 C 2336.27 4.88307 1.17734 0
M  V30 24580 C 2338.26 6.37359 -0.0727248 0
M  V30 24581 C 2335.95 6.08594 0.55284 0
M  V30 24582 C 2336.94 6.82963 -0.071098 0
M  V30 24583 O 2336.63 8.0097 -0.685775 0
M  V30 24584 H 2336.36 0.619002 0.271684 0
M  V30 24585 H 2338.92 2.0452 0.189909 0
M  V30 24586 H 2337.15 2.84889 2.61486 0
M  V30 24587 H 2338.84 3.23476 2.45189 0
M  V30 24588 H 2339.6 4.81983 0.54009 0
M  V30 24589 H 2335.48 4.30369 1.65238 0
M  V30 24590 H 2339.03 6.95346 -0.560335 0
M  V30 24591 H 2334.92 6.43082 0.558241 0
M  V30 24592 H 2335.69 8.16414 -0.583993 0
M  V30 24593 N 2338.35 -0.449957 1.5104 0
M  V30 24594 C 2339.58 -1.2214 1.6663 0
M  V30 24595 C 2339.99 -1.85786 0.357809 0
M  V30 24596 O 2339.34 -1.70952 -0.672394 0
M  V30 24597 C 2339.4 -2.35568 2.71566 0
M  V30 24598 C 2339.06 -1.92391 4.14529 0
M  V30 24599 C 2340.06 -1.43444 4.9972 0
M  V30 24600 C 2337.74 -2.00467 4.60563 0
M  V30 24601 C 2339.74 -1.03144 6.28999 0
M  V30 24602 C 2337.42 -1.59778 5.89843 0
M  V30 24603 C 2338.42 -1.11196 6.73887 0
M  V30 24604 O 2338.11 -0.710794 8.00751 0
M  V30 24605 H 2337.84 -0.374714 0.562642 0
M  V30 24606 H 2340.4 -0.541001 1.98147 0
M  V30 24607 H 2338.63 -3.06845 2.35336 0
M  V30 24608 H 2340.32 -2.97473 2.76161 0
M  V30 24609 H 2341.08 -1.3661 4.65363 0
M  V30 24610 H 2336.96 -2.37228 3.95277 0
M  V30 24611 H 2340.5 -0.651541 6.94551 0
M  V30 24612 H 2336.4 -1.66278 6.23716 0
M  V30 24613 H 2337.17 -0.83777 8.14201 0
M  V30 24614 N 2339.83 -1.40974 -0.704569 0
M  V30 24615 C 2341.08 -1.39148 -1.46016 0
M  V30 24616 C 2341.39 -0.000623636 -1.956 0
M  V30 24617 O 2342.6 0.140252 -2.71138 0
M  V30 24618 C 2341.06 -2.44615 -2.63992 0
M  V30 24619 C 2340.66 -3.89565 -2.21231 0
M  V30 24620 C 2342.41 -2.51913 -3.41673 0
M  V30 24621 C 2340.32 -4.86603 -3.36112 0
M  V30 24622 H 2339.25 -0.517431 -0.548435 0
M  V30 24623 H 2341.9 -1.66759 -0.765754 0
M  V30 24624 H 2340.28 -2.10121 -3.35656 0
M  V30 24625 H 2341.45 -4.3326 -1.56915 0
M  V30 24626 H 2339.77 -3.85844 -1.56567 0
M  V30 24627 H 2342.36 -3.21597 -4.27176 0
M  V30 24628 H 2342.71 -1.5531 -3.86244 0
M  V30 24629 H 2343.24 -2.85453 -2.77059 0
M  V30 24630 H 2339.98 -5.84578 -2.96562 0
M  V30 24631 H 2339.5 -4.47564 -3.99307 0
M  V30 24632 H 2341.18 -5.06941 -4.0202 0
M  V30 24633 N 2341.31 0.937917 -1.26653 0
M  V30 24634 C 2342.27 2.01865 -1.08549 0
M  V30 24635 C 2343.27 1.60767 -0.032761 0
M  V30 24636 O 2344.46 1.71992 -0.276458 0
M  V30 24637 C 2341.6 3.34611 -0.651769 0
M  V30 24638 H 2342.79 2.19357 -2.04506 0
M  V30 24639 H 2340.34 1.11732 -1.09296 0
M  V30 24640 H 2341.08 3.22818 0.309639 0
M  V30 24641 H 2340.86 3.65795 -1.41195 0
M  V30 24642 H 2342.35 4.14001 -0.547046 0
M  V30 24643 N 2342.79 1.08509 1.14296 0
M  V30 24644 C 2343.75 0.71975 2.17606 0
M  V30 24645 C 2344.75 -0.245969 1.58908 0
M  V30 24646 O 2345.94 -0.0253775 1.74182 0
M  V30 24647 C 2343.07 0.0628294 3.40842 0
M  V30 24648 H 2344.27 1.63456 2.5144 0
M  V30 24649 H 2341.82 0.883093 1.28962 0
M  V30 24650 H 2342.55 -0.863661 3.12588 0
M  V30 24651 H 2342.34 0.757572 3.84712 0
M  V30 24652 H 2343.83 -0.177712 4.17222 0
M  V30 24653 N 2344.27 -1.31351 0.870907 0
M  V30 24654 C 2345.18 -2.32256 0.330824 0
M  V30 24655 C 2346.19 -1.64751 -0.559738 0
M  V30 24656 O 2347.37 -1.96165 -0.456229 0
M  V30 24657 C 2344.43 -3.43661 -0.458076 0
M  V30 24658 C 2343.49 -4.26822 0.460557 0
M  V30 24659 C 2342.73 -5.32907 -0.290787 0
M  V30 24660 O 2342.95 -5.49809 -1.51875 0
M  V30 24661 O 2341.88 -6.00871 0.351837 0
M  V30 24662 H 2345.71 -2.80374 1.16723 0
M  V30 24663 H 2343.3 -1.35266 0.634309 0
M  V30 24664 H 2345.18 -4.11561 -0.905271 0
M  V30 24665 H 2343.85 -2.97703 -1.27101 0
M  V30 24666 H 2342.76 -3.61672 0.95627 0
M  V30 24667 H 2344.09 -4.76347 1.23911 0
M  V30 24668 N 2345.74 -0.630439 -1.44441 0
M  V30 24669 C 2346.65 0.0761281 -2.34476 0
M  V30 24670 C 2347.67 0.836423 -1.52578 0
M  V30 24671 O 2348.85 0.788842 -1.85309 0
M  V30 24672 C 2345.91 1.04593 -3.30547 0
M  V30 24673 C 2344.97 0.285085 -4.28352 0
M  V30 24674 C 2344.21 1.20869 -5.19833 0
M  V30 24675 O 2344.43 2.44738 -5.15228 0
M  V30 24676 O 2343.36 0.693386 -5.97893 0
M  V30 24677 H 2347.19 -0.664376 -2.96344 0
M  V30 24678 H 2344.77 -0.390635 -1.44203 0
M  V30 24679 H 2346.66 1.60389 -3.89684 0
M  V30 24680 H 2345.33 1.76706 -2.71213 0
M  V30 24681 H 2344.24 -0.315903 -3.72764 0
M  V30 24682 H 2345.57 -0.39601 -4.90604 0
M  V30 24683 N 2347.22 1.53172 -0.370945 0
M  V30 24684 C 2348.47 2.00516 0.218214 0
M  V30 24685 C 2348.78 1.26218 1.49427 0
M  V30 24686 O 2349.99 1.64178 2.16236 0
M  V30 24687 C 2348.45 3.57207 0.439417 0
M  V30 24688 C 2348.05 4.40388 -0.822321 0
M  V30 24689 C 2349.8 4.12892 0.985939 0
M  V30 24690 C 2347.71 5.88643 -0.570407 0
M  V30 24691 H 2346.64 0.749157 0.0853201 0
M  V30 24692 H 2349.29 1.76823 -0.490514 0
M  V30 24693 H 2347.67 3.77076 1.20954 0
M  V30 24694 H 2348.84 4.32291 -1.59565 0
M  V30 24695 H 2347.16 3.95834 -1.29245 0
M  V30 24696 H 2349.75 5.21294 1.18982 0
M  V30 24697 H 2350.1 3.67823 1.94966 0
M  V30 24698 H 2350.63 3.96842 0.27585 0
M  V30 24699 H 2347.37 6.37998 -1.50461 0
M  V30 24700 H 2346.89 5.99575 0.164322 0
M  V30 24701 H 2348.57 6.46697 -0.197954 0
M  V30 24702 N 2348.7 0.100255 1.57281 0
M  V30 24703 C 2349.93 -0.573846 1.99303 0
M  V30 24704 C 2350.35 -1.6061 0.979087 0
M  V30 24705 O 2349.71 -1.81226 -0.0517485 0
M  V30 24706 C 2349.76 -1.19352 3.40276 0
M  V30 24707 O 2348.86 -2.30929 3.4168 0
M  V30 24708 H 2348.2 -0.145127 0.647946 0
M  V30 24709 H 2350.73 0.183192 2.03778 0
M  V30 24710 H 2350.74 -1.53358 3.78081 0
M  V30 24711 H 2349.42 -0.437313 4.13594 0
M  V30 24712 H 2347.99 -1.98504 3.15675 0
M  V30 24713 N 2350.18 -1.56643 -0.17346 0
M  V30 24714 C 2351.43 -1.83037 -0.887076 0
M  V30 24715 C 2351.78 -0.680493 -1.79964 0
M  V30 24716 O 2351.07 0.323191 -1.88855 0
M  V30 24717 C 2351.27 -3.13255 -1.72064 0
M  V30 24718 C 2351.1 -4.408 -0.890273 0
M  V30 24719 C 2349.87 -5.02118 -0.566194 0
M  V30 24720 C 2352.06 -5.13773 -0.232831 0
M  V30 24721 N 2350.05 -6.13259 0.280535 0
M  V30 24722 C 2351.42 -6.18177 0.475155 0
M  V30 24723 C 2353.47 -4.97672 -0.150775 0
M  V30 24724 C 2352.18 -7.08224 1.25741 0
M  V30 24725 C 2354.2 -5.88161 0.618142 0
M  V30 24726 C 2353.56 -6.92026 1.3145 0
M  V30 24727 H 2349.66 -0.72079 -0.303291 0
M  V30 24728 H 2352.25 -1.94088 -0.15421 0
M  V30 24729 H 2350.42 -3.034 -2.42494 0
M  V30 24730 H 2352.15 -3.27654 -2.37539 0
M  V30 24731 H 2348.9 -4.65052 -0.89577 0
M  V30 24732 H 2349.33 -6.73432 0.694146 0
M  V30 24733 H 2353.97 -4.1738 -0.674795 0
M  V30 24734 H 2351.69 -7.87962 1.79278 0
M  V30 24735 H 2355.27 -5.77774 0.683274 0
M  V30 24736 H 2354.15 -7.60836 1.89994 0
M  V30 24737 N 2351.66 0.44194 -1.51277 0
M  V30 24738 C 2352.93 1.2027 -1.54255 0
M  V30 24739 C 2353.31 2.08898 -0.304116 0
M  V30 24740 O 2352.66 2.17155 0.711046 0
M  V30 24741 C 2352.87 2.00854 -2.8541 0
M  V30 24742 C 2354.22 2.58053 -3.37185 0
M  V30 24743 O 2355.24 2.11069 -2.86929 0
M  V30 24744 O 2354.1 3.43733 -4.24864 0
M  V30 24745 H 2351.2 0.547317 -0.619978 0
M  V30 24746 H 2353.74 0.451385 -1.63587 0
M  V30 24747 H 2352.52 1.3573 -3.67006 0
M  V30 24748 H 2352.14 2.8306 -2.79218 0
M  V30 24749 N 2353.14 1.41345 0.697083 0
M  V30 24750 C 2354.37 1.43765 1.48375 0
M  V30 24751 C 2354.77 0.0409058 1.89156 0
M  V30 24752 O 2354.12 -0.949785 1.57241 0
M  V30 24753 C 2354.18 2.28175 2.77806 0
M  V30 24754 C 2353.84 3.76357 2.59238 0
M  V30 24755 C 2354.84 4.68555 2.25283 0
M  V30 24756 C 2352.52 4.20382 2.74925 0
M  V30 24757 C 2354.52 6.02764 2.07253 0
M  V30 24758 C 2352.21 5.54658 2.56512 0
M  V30 24759 C 2353.2 6.45664 2.22726 0
M  V30 24760 O 2352.89 7.77462 2.04471 0
M  V30 24761 H 2352.62 0.491767 0.463833 0
M  V30 24762 H 2355.18 1.86256 0.865901 0
M  V30 24763 H 2353.41 1.80496 3.41992 0
M  V30 24764 H 2355.1 2.22315 3.39604 0
M  V30 24765 H 2355.86 4.35832 2.12779 0
M  V30 24766 H 2351.74 3.49853 3.00207 0
M  V30 24767 H 2355.29 6.73762 1.80805 0
M  V30 24768 H 2351.18 5.86959 2.68605 0
M  V30 24769 H 2351.95 7.8859 2.19246 0
M  V30 24770 N 2354.61 -0.931187 1.27148 0
M  V30 24771 C 2355.84 -1.71795 1.16194 0
M  V30 24772 C 2356.26 -1.86035 -0.277971 0
M  V30 24773 O 2355.62 -1.35784 -1.20134 0
M  V30 24774 C 2355.67 -3.09719 1.84679 0
M  V30 24775 O 2354.77 -3.96262 1.14238 0
M  V30 24776 H 2354.11 -0.526714 0.404312 0
M  V30 24777 H 2356.64 -1.16557 1.68154 0
M  V30 24778 H 2356.65 -3.60054 1.919 0
M  V30 24779 H 2355.33 -2.98672 2.89427 0
M  V30 24780 H 2353.91 -3.54704 1.15062 0
M  V30 24781 N 2356.09 -1.09114 -1.13719 0
M  V30 24782 C 2357 -0.739609 -2.22636 0
M  V30 24783 C 2358.02 0.257037 -1.72091 0
M  V30 24784 O 2359.19 0.0991801 -2.01156 0
M  V30 24785 C 2356.26 -0.16197 -3.46321 0
M  V30 24786 C 2355.32 -1.21415 -4.11773 0
M  V30 24787 C 2354.55 -0.663984 -5.29554 0
M  V30 24788 O 2354.78 0.514174 -5.68078 0
M  V30 24789 O 2353.71 -1.41748 -5.84971 0
M  V30 24790 H 2357.54 -1.6484 -2.55071 0
M  V30 24791 H 2355.12 -0.86531 -1.2179 0
M  V30 24792 H 2357 0.156999 -4.21107 0
M  V30 24793 H 2355.68 0.719877 -3.15594 0
M  V30 24794 H 2354.58 -1.58577 -3.38828 0
M  V30 24795 H 2355.92 -2.06853 -4.46624 0
M  V30 24796 N 2357.57 1.30887 -0.877861 0
M  V30 24797 C 2358.82 1.96414 -0.492731 0
M  V30 24798 C 2359.14 1.69348 0.956641 0
M  V30 24799 O 2358.4 0.986943 1.68991 0
M  V30 24800 C 2358.7 3.50361 -0.705809 0
M  V30 24801 C 2358.36 3.97463 -2.12917 0
M  V30 24802 C 2357.03 4.10036 -2.51842 0
M  V30 24803 C 2359.38 4.22127 -3.05709 0
M  V30 24804 C 2356.71 4.44628 -3.82783 0
M  V30 24805 C 2359.06 4.58186 -4.36174 0
M  V30 24806 C 2357.72 4.68967 -4.75002 0
M  V30 24807 H 2356.99 0.718729 -0.180303 0
M  V30 24808 H 2359.64 1.55881 -1.11236 0
M  V30 24809 H 2357.94 3.918 -0.00309945 0
M  V30 24810 H 2359.64 3.99123 -0.387526 0
M  V30 24811 H 2356.23 3.88179 -1.81701 0
M  V30 24812 H 2360.42 4.11901 -2.7686 0
M  V30 24813 H 2355.67 4.51173 -4.12617 0
M  V30 24814 H 2359.85 4.76222 -5.08119 0
M  V30 24815 H 2357.47 4.95527 -5.76504 0
M  V30 24816 N 2359.05 0.638091 1.44105 0
M  V30 24817 C 2360.29 0.145581 2.02277 0
M  V30 24818 C 2360.63 -1.23189 1.50127 0
M  V30 24819 O 2359.9 -1.81919 0.688165 0
M  V30 24820 C 2360.18 0.139854 3.59828 0
M  V30 24821 C 2360.04 1.55016 4.22244 0
M  V30 24822 C 2361.36 -0.531889 4.36874 0
M  V30 24823 H 2358.48 0.0543761 0.734991 0
M  V30 24824 H 2361.12 0.815893 1.7159 0
M  V30 24825 H 2359.27 -0.430939 3.86103 0
M  V30 24826 H 2360.94 2.17038 4.07053 0
M  V30 24827 H 2359.18 2.10197 3.79473 0
M  V30 24828 H 2359.85 1.49813 5.31282 0
M  V30 24829 H 2362.33 -0.046405 4.16074 0
M  V30 24830 H 2361.21 -0.50511 5.46571 0
M  V30 24831 H 2361.47 -1.60345 4.11997 0
M  V30 24832 N 2360.53 -1.52973 0.379063 0
M  V30 24833 C 2361.46 -2.23771 -0.495923 0
M  V30 24834 C 2362.47 -1.25652 -1.03515 0
M  V30 24835 O 2363.66 -1.51792 -0.939222 0
M  V30 24836 C 2360.76 -2.93242 -1.69889 0
M  V30 24837 C 2359.93 -4.17981 -1.28883 0
M  V30 24838 C 2358.99 -4.70542 -2.35535 0
M  V30 24839 O 2358.02 -5.33887 -1.97366 0
M  V30 24840 N 2359.22 -4.49515 -3.6731 0
M  V30 24841 H 2361.98 -2.99496 0.110575 0
M  V30 24842 H 2359.55 -1.60598 0.204906 0
M  V30 24843 H 2361.54 -3.25309 -2.40741 0
M  V30 24844 H 2360.11 -2.20887 -2.21196 0
M  V30 24845 H 2359.33 -3.92066 -0.409607 0
M  V30 24846 H 2360.62 -4.99049 -0.991356 0
M  V30 24847 H 2360.01 -3.9893 -4.01088 0
M  V30 24848 H 2358.57 -4.86097 -4.34227 0
M  V30 24849 N 2362 -0.108595 -1.57225 0
M  V30 24850 C 2363.42 0.24803 -1.57661 0
M  V30 24851 C 2363.62 1.67462 -1.12066 0
M  V30 24852 O 2362.68 2.39382 -0.803278 0
M  V30 24853 C 2363.99 0.0241758 -3.0069 0
M  V30 24854 C 2365.54 0.0908822 -3.12868 0
M  V30 24855 C 2366.01 -0.105148 -4.57879 0
M  V30 24856 N 2367.5 -0.050766 -4.63172 0
M  V30 24857 C 2368.24 -0.177497 -5.73125 0
M  V30 24858 N 2367.73 -0.359817 -6.91865 0
M  V30 24859 N 2369.53 -0.117808 -5.61977 0
M  V30 24860 H 2361.68 -1.04052 -1.85167 0
M  V30 24861 H 2363.94 -0.408895 -0.855283 0
M  V30 24862 H 2363.65 -0.961663 -3.38297 0
M  V30 24863 H 2363.52 0.760615 -3.69452 0
M  V30 24864 H 2365.91 1.06724 -2.75126 0
M  V30 24865 H 2365.99 -0.677268 -2.46671 0
M  V30 24866 H 2365.63 -1.07843 -4.96319 0
M  V30 24867 H 2365.56 0.682862 -5.22154 0
M  V30 24868 H 2368.05 0.0870602 -3.778 0
M  V30 24869 H 2368.37 -0.447665 -7.71502 0
M  V30 24870 H 2366.71 -0.395658 -6.93873 0
M  V30 24871 H 2369.9 0.0235919 -4.68094 0
M  V30 24872 H 2370.08 -0.220019 -6.47626 0
M  V30 24873 N 2363.48 1.56732 0.16515 0
M  V30 24874 C 2364.39 2.00127 1.22419 0
M  V30 24875 C 2365.41 0.913645 1.48083 0
M  V30 24876 O 2366.58 1.22175 1.6011 0
M  V30 24877 C 2363.65 2.35769 2.54193 0
M  V30 24878 C 2362.71 3.5839 2.36337 0
M  V30 24879 C 2361.94 3.92322 3.61827 0
M  V30 24880 O 2362.17 3.27143 4.67262 0
M  V30 24881 O 2361.1 4.85647 3.5557 0
M  V30 24882 H 2364.93 2.90494 0.885835 0
M  V30 24883 H 2362.51 1.44682 0.372492 0
M  V30 24884 H 2364.39 2.59635 3.31915 0
M  V30 24885 H 2363.07 1.48562 2.87595 0
M  V30 24886 H 2361.97 3.39734 1.56626 0
M  V30 24887 H 2363.31 4.46157 2.07857 0
M  V30 24888 N 2364.96 -0.433911 1.51509 0
M  V30 24889 C 2366.19 -1.2054 1.68159 0
M  V30 24890 C 2366.6 -1.84928 0.380395 0
M  V30 24891 O 2365.96 -1.70857 -0.641416 0
M  V30 24892 C 2366.01 -2.28691 2.79969 0
M  V30 24893 O 2365.73 -1.66936 4.05048 0
M  V30 24894 C 2367.23 -3.18907 3.07918 0
M  V30 24895 H 2364.45 -0.363181 0.564217 0
M  V30 24896 H 2367 -0.513719 1.97942 0
M  V30 24897 H 2365.15 -2.9357 2.52776 0
M  V30 24898 H 2365.57 -2.3844 4.67169 0
M  V30 24899 H 2367.04 -3.90919 3.89726 0
M  V30 24900 H 2367.52 -3.79859 2.20463 0
M  V30 24901 H 2368.12 -2.59725 3.36783 0
M  V30 24902 N 2366.44 -1.41713 -0.689577 0
M  V30 24903 C 2367.72 -1.3188 -1.44454 0
M  V30 24904 C 2368.1 0.0508166 -2.11039 0
M  V30 24905 O 2367.44 1.06544 -2.0214 0
M  V30 24906 C 2367.65 -2.47649 -2.45908 0
M  V30 24907 C 2369 -2.8909 -3.10986 0
M  V30 24908 O 2370.03 -2.47432 -2.56234 0
M  V30 24909 O 2368.88 -3.61144 -4.10167 0
M  V30 24910 H 2365.98 -0.51932 -0.643611 0
M  V30 24911 H 2368.52 -1.5369 -0.719549 0
M  V30 24912 H 2367.3 -3.39018 -1.95403 0
M  V30 24913 H 2366.92 -2.27748 -3.25909 0
M  V30 24914 N 2367.92 0.924431 -1.2764 0
M  V30 24915 C 2369.17 1.667 -1.13552 0
M  V30 24916 C 2369.48 1.93007 0.317453 0
M  V30 24917 O 2370.68 2.65248 0.579287 0
M  V30 24918 C 2369.14 3.00255 -1.98431 0
M  V30 24919 C 2368.75 2.81635 -3.48405 0
M  V30 24920 C 2370.49 3.78089 -1.93 0
M  V30 24921 C 2368.4 4.10766 -4.25471 0
M  V30 24922 H 2367.33 0.625276 -0.421362 0
M  V30 24923 H 2369.98 1.02673 -1.52087 0
M  V30 24924 H 2368.36 3.65357 -1.52743 0
M  V30 24925 H 2369.54 2.2528 -4.01977 0
M  V30 24926 H 2367.85 2.17226 -3.55249 0
M  V30 24927 H 2370.45 4.73786 -2.47853 0
M  V30 24928 H 2370.79 4.06358 -0.904352 0
M  V30 24929 H 2371.32 3.19789 -2.366 0
M  V30 24930 H 2368.06 3.87674 -5.28573 0
M  V30 24931 H 2367.58 4.66772 -3.76675 0
M  V30 24932 H 2369.26 4.79104 -4.3482 0
M  V30 24933 N 2369.39 1.09715 1.13139 0
M  V30 24934 C 2370.3 0.751406 2.22241 0
M  V30 24935 C 2371.32 -0.247907 1.72225 0
M  V30 24936 O 2372.5 -0.0885109 2.01205 0
M  V30 24937 C 2369.56 0.180334 3.46231 0
M  V30 24938 C 2368.62 1.23597 4.11123 0
M  V30 24939 C 2367.86 0.692059 5.29194 0
M  V30 24940 O 2368.08 -0.48404 5.68343 0
M  V30 24941 O 2367.01 1.44849 5.84211 0
M  V30 24942 H 2370.84 1.6619 2.54194 0
M  V30 24943 H 2368.42 0.871757 1.21329 0
M  V30 24944 H 2370.31 -0.134665 4.21185 0
M  V30 24945 H 2368.98 -0.70313 3.15971 0
M  V30 24946 H 2367.89 1.60371 3.37982 0
M  V30 24947 H 2369.22 2.09219 4.4552 0
M  V30 24948 N 2370.87 -1.30419 0.88479 0
M  V30 24949 C 2372.15 -1.90967 0.423219 0
M  V30 24950 C 2372.53 -1.80418 -1.09601 0
M  V30 24951 O 2371.88 -1.22128 -1.93124 0
M  V30 24952 C 2372.09 -3.36625 0.921115 0
M  V30 24953 C 2373.44 -4.13698 0.955976 0
M  V30 24954 O 2374.46 -3.45468 0.867767 0
M  V30 24955 O 2373.32 -5.35596 1.08623 0
M  V30 24956 H 2370.41 -0.816816 0.129383 0
M  V30 24957 H 2372.96 -1.38988 0.973678 0
M  V30 24958 H 2371.73 -3.38386 1.96495 0
M  V30 24959 H 2371.35 -3.96058 0.34981 0
M  V30 24960 N 2372.35 -0.645724 -1.43764 0
M  V30 24961 C 2373.58 -0.16192 -2.06767 0
M  V30 24962 C 2374 1.16047 -1.48037 0
M  V30 24963 O 2373.36 1.71521 -0.587399 0
M  V30 24964 C 2373.41 -0.0762636 -3.60519 0
M  V30 24965 O 2372.51 0.96365 -4.00983 0
M  V30 24966 H 2371.85 -0.0914405 -0.657674 0
M  V30 24967 H 2374.38 -0.886531 -1.84396 0
M  V30 24968 H 2374.39 0.109532 -4.07853 0
M  V30 24969 H 2373.07 -1.04164 -4.02644 0
M  V30 24970 H 2371.64 0.751248 -3.65254 0
M  V30 24971 N 2373.83 1.5277 -0.38717 0
M  V30 24972 C 2375.11 1.93955 0.253163 0
M  V30 24973 C 2375.49 1.32246 1.64543 0
M  V30 24974 O 2374.83 0.489738 2.2319 0
M  V30 24975 C 2375.04 3.47862 0.281661 0
M  V30 24976 C 2376.39 4.21506 0.511641 0
M  V30 24977 O 2377.42 3.54356 0.361961 0
M  V30 24978 O 2376.27 5.40542 0.804752 0
M  V30 24979 H 2373.37 0.811993 0.15683 0
M  V30 24980 H 2375.91 1.63856 -0.441523 0
M  V30 24981 H 2374.69 3.85103 -0.693639 0
M  V30 24982 H 2374.31 3.84258 1.02136 0
M  V30 24983 N 2375.31 0.116931 1.57166 0
M  V30 24984 C 2376.58 -0.585016 1.86647 0
M  V30 24985 C 2376.96 -1.84947 1.01773 0
M  V30 24986 O 2376.31 -2.28298 0.096078 0
M  V30 24987 C 2376.52 -0.879447 3.37738 0
M  V30 24988 C 2377.87 -1.23341 4.06291 0
M  V30 24989 O 2378.89 -0.969775 3.42745 0
M  V30 24990 O 2377.75 -1.72811 5.18458 0
M  V30 24991 H 2374.85 -0.294994 0.772598 0
M  V30 24992 H 2377.39 0.151279 1.69024 0
M  V30 24993 H 2376.16 0.0166824 3.91296 0
M  V30 24994 H 2375.79 -1.67097 3.60783 0
M  V30 24995 N 2376.78 -1.56818 -0.156836 0
M  V30 24996 C 2378.03 -1.81997 -0.869472 0
M  V30 24997 C 2378.35 -0.696577 -1.82776 0
M  V30 24998 O 2379.55 -0.833703 -2.58383 0
M  V30 24999 C 2378.01 -3.2254 -1.59674 0
M  V30 25000 C 2377.62 -4.42788 -0.681354 0
M  V30 25001 C 2379.36 -3.57002 -2.29674 0
M  V30 25002 C 2377.27 -5.74354 -1.40968 0
M  V30 25003 H 2376.2 -0.678714 -0.328426 0
M  V30 25004 H 2378.85 -1.83092 -0.122268 0
M  V30 25005 H 2377.23 -3.15804 -2.38922 0
M  V30 25006 H 2378.4 -4.60739 0.0751976 0
M  V30 25007 H 2376.72 -4.16302 -0.0902699 0
M  V30 25008 H 2379.32 -4.52549 -2.84786 0
M  V30 25009 H 2379.66 -2.82581 -3.05702 0
M  V30 25010 H 2380.19 -3.65355 -1.57355 0
M  V30 25011 H 2376.93 -6.51843 -0.691446 0
M  V30 25012 H 2376.45 -5.60356 -2.13919 0
M  V30 25013 H 2378.13 -6.16812 -1.95326 0
M  V30 25014 N 2378.26 0.425871 -1.51737 0
M  V30 25015 C 2379.67 1.00533 -1.57321 0
M  V30 25016 C 2380.02 1.92005 -0.403571 0
M  V30 25017 O 2379.15 2.1105 0.478219 0
M  V30 25018 C 2379.74 1.83005 -2.85122 0
M  V30 25019 C 2378.3 2.35982 -2.9324 0
M  V30 25020 C 2377.45 1.15503 -2.521 0
M  V30 25021 H 2380.4 0.206711 -1.57348 0
M  V30 25022 H 2380.42 2.68576 -2.69531 0
M  V30 25023 H 2379.93 1.16405 -3.70232 0
M  V30 25024 H 2378.04 3.06003 -2.12586 0
M  V30 25025 H 2378.15 2.67994 -3.97135 0
M  V30 25026 H 2376.51 1.50389 -2.05561 0
M  V30 25027 H 2377.3 0.504955 -3.39566 0
M  V30 25028 N 2379.74 1.42077 0.682052 0
M  V30 25029 C 2380.65 1.47374 1.82532 0
M  V30 25030 C 2381.67 0.363109 1.70169 0
M  V30 25031 O 2382.84 0.612908 1.91847 0
M  V30 25032 C 2379.91 1.36679 3.18622 0
M  V30 25033 C 2378.97 2.58173 3.42995 0
M  V30 25034 C 2378.2 2.47979 4.72591 0
M  V30 25035 O 2378.42 1.5117 5.50004 0
M  V30 25036 O 2377.36 3.37982 4.98048 0
M  V30 25037 H 2381.18 2.43856 1.81019 0
M  V30 25038 H 2378.77 1.23762 0.836865 0
M  V30 25039 H 2380.65 1.3305 3.99845 0
M  V30 25040 H 2379.33 0.433195 3.20788 0
M  V30 25041 H 2378.23 2.67378 2.61648 0
M  V30 25042 H 2379.57 3.50407 3.45653 0
M  V30 25043 N 2381.22 -0.917649 1.28129 0
M  V30 25044 C 2382.5 -1.6454 1.05764 0
M  V30 25045 C 2382.88 -2.07192 -0.404308 0
M  V30 25046 O 2382.22 -1.8139 -1.3896 0
M  V30 25047 C 2382.43 -2.83986 2.02862 0
M  V30 25048 C 2383.78 -3.55096 2.32792 0
M  V30 25049 O 2384.81 -2.94128 2.00915 0
M  V30 25050 O 2383.67 -4.64964 2.87178 0
M  V30 25051 H 2380.76 -0.721645 0.403928 0
M  V30 25052 H 2383.31 -0.967298 1.39433 0
M  V30 25053 H 2382.08 -2.49533 3.01412 0
M  V30 25054 H 2381.7 -3.59511 1.69816 0
M  V30 25055 N 2382.7 -1.10314 -1.12555 0
M  V30 25056 C 2383.93 -0.866906 -1.87863 0
M  V30 25057 C 2384.34 0.582525 -1.79589 0
M  V30 25058 O 2383.7 1.40154 -1.1689 0
M  V30 25059 C 2383.75 -1.30502 -3.37122 0
M  V30 25060 O 2383.47 -2.69761 -3.45196 0
M  V30 25061 C 2384.97 -1.1025 -4.29371 0
M  V30 25062 H 2382.19 -0.311246 -0.594447 0
M  V30 25063 H 2384.73 -1.46748 -1.42426 0
M  V30 25064 H 2382.89 -0.748148 -3.80107 0
M  V30 25065 H 2383.3 -2.88465 -4.3805 0
M  V30 25066 H 2384.78 -1.45821 -5.32391 0
M  V30 25067 H 2385.25 -0.0410263 -4.39181 0
M  V30 25068 H 2385.86 -1.64578 -3.92166 0
M  V30 25069 N 2384.18 1.29948 -0.891694 0
M  V30 25070 C 2385.4 2.00031 -0.528695 0
M  V30 25071 C 2385.82 1.66797 0.884545 0
M  V30 25072 O 2385.18 0.908697 1.58269 0
M  V30 25073 C 2385.23 3.54621 -0.701876 0
M  V30 25074 O 2384.95 3.86674 -2.05948 0
M  V30 25075 C 2386.45 4.41973 -0.342761 0
M  V30 25076 H 2383.67 0.639343 -0.20367 0
M  V30 25077 H 2386.21 1.65675 -1.19884 0
M  V30 25078 H 2384.37 3.87319 -0.0790149 0
M  V30 25079 H 2384.78 4.81364 -2.083 0
M  V30 25080 H 2386.26 5.49594 -0.514806 0
M  V30 25081 H 2386.73 4.33264 0.719674 0
M  V30 25082 H 2387.34 4.14731 -0.942227 0
M  V30 25083 N 2385.65 0.653339 1.4342 0
M  V30 25084 C 2386.88 0.174275 2.05864 0
M  V30 25085 C 2387.29 -1.16531 1.49054 0
M  V30 25086 O 2386.63 -1.73046 0.616511 0
M  V30 25087 C 2386.7 0.00882192 3.59499 0
M  V30 25088 C 2386.36 1.27372 4.38891 0
M  V30 25089 C 2387.36 2.20248 4.70943 0
M  V30 25090 C 2385.04 1.51534 4.78898 0
M  V30 25091 C 2387.04 3.35578 5.4191 0
M  V30 25092 C 2384.72 2.67157 5.49609 0
M  V30 25093 C 2385.72 3.59004 5.81038 0
M  V30 25094 O 2385.41 4.72609 6.50305 0
M  V30 25095 H 2385.14 0.0872666 0.670344 0
M  V30 25096 H 2387.7 0.894259 1.84911 0
M  V30 25097 H 2385.93 -0.766534 3.79027 0
M  V30 25098 H 2387.61 -0.427616 4.03641 0
M  V30 25099 H 2388.38 2.02823 4.40554 0
M  V30 25100 H 2384.26 0.809238 4.53842 0
M  V30 25101 H 2387.8 4.07289 5.66358 0
M  V30 25102 H 2383.7 2.84516 5.79414 0
M  V30 25103 H 2384.47 4.71875 6.68787 0
M  V30 25104 N 2387.13 -1.52563 0.395266 0
M  V30 25105 C 2388.08 -2.26625 -0.436996 0
M  V30 25106 C 2389.05 -1.28474 -1.05278 0
M  V30 25107 O 2390.23 -1.57313 -1.07968 0
M  V30 25108 C 2387.37 -3.08072 -1.55518 0
M  V30 25109 C 2386.49 -4.2116 -0.961671 0
M  V30 25110 C 2385.62 -4.89991 -2.0514 0
M  V30 25111 C 2384.66 -5.95063 -1.4341 0
M  V30 25112 N 2383.8 -6.57466 -2.46339 0
M  V30 25113 H 2388.64 -2.97321 0.201028 0
M  V30 25114 H 2386.17 -1.46681 0.11097 0
M  V30 25115 H 2388.13 -3.53588 -2.2143 0
M  V30 25116 H 2386.76 -2.39573 -2.16343 0
M  V30 25117 H 2385.81 -3.79915 -0.191981 0
M  V30 25118 H 2387.13 -4.96575 -0.470614 0
M  V30 25119 H 2386.28 -5.38841 -2.7881 0
M  V30 25120 H 2385.02 -4.14113 -2.57607 0
M  V30 25121 H 2384.02 -5.45545 -0.682678 0
M  V30 25122 H 2385.25 -6.72876 -0.917298 0
M  V30 25123 H 2383.2 -5.84426 -2.97964 0
M  V30 25124 H 2383.11 -7.28512 -2.02006 0
M  V30 25125 H 2384.38 -7.10959 -3.1962 0
M  V30 25126 N 2388.61 -0.125265 -1.57101 0
M  V30 25127 C 2389.56 0.822617 -2.15642 0
M  V30 25128 C 2390.53 1.25925 -1.08315 0
M  V30 25129 O 2391.71 1.33565 -1.36254 0
M  V30 25130 C 2388.85 2.06489 -2.76508 0
M  V30 25131 C 2387.96 1.67605 -3.98161 0
M  V30 25132 C 2387.1 2.86846 -4.47094 0
M  V30 25133 C 2386.14 2.44232 -5.61264 0
M  V30 25134 N 2385.28 3.56408 -6.04911 0
M  V30 25135 H 2390.12 0.316573 -2.96314 0
M  V30 25136 H 2387.65 0.144562 -1.46388 0
M  V30 25137 H 2389.61 2.79284 -3.0993 0
M  V30 25138 H 2388.24 2.54541 -1.98516 0
M  V30 25139 H 2387.29 0.846595 -3.7086 0
M  V30 25140 H 2388.6 1.32292 -4.80937 0
M  V30 25141 H 2387.76 3.67859 -4.82457 0
M  V30 25142 H 2386.5 3.2539 -3.63281 0
M  V30 25143 H 2385.5 1.61654 -5.25498 0
M  V30 25144 H 2386.73 2.06799 -6.46847 0
M  V30 25145 H 2384.67 3.94613 -5.24038 0
M  V30 25146 H 2384.59 3.25039 -6.82558 0
M  V30 25147 H 2385.86 4.37841 -6.44915 0
M  V30 25148 N 2390.09 1.56899 0.148518 0
M  V30 25149 C 2391.33 1.83537 0.862662 0
M  V30 25150 C 2391.67 0.706635 1.80888 0
M  V30 25151 O 2390.94 -0.289851 1.92328 0
M  V30 25152 C 2391.22 3.20665 1.63847 0
M  V30 25153 C 2391.08 4.44099 0.713847 0
M  V30 25154 C 2392.4 3.54996 2.60127 0
M  V30 25155 H 2389.52 0.667623 0.312167 0
M  V30 25156 H 2392.16 1.89569 0.12792 0
M  V30 25157 H 2390.31 3.15654 2.26483 0
M  V30 25158 H 2391.98 4.61195 0.0986049 0
M  V30 25159 H 2390.22 4.33794 0.0233256 0
M  V30 25160 H 2390.89 5.3665 1.29268 0
M  V30 25161 H 2393.37 3.60607 2.0761 0
M  V30 25162 H 2392.25 4.51977 3.1146 0
M  V30 25163 H 2392.51 2.80874 3.41412 0
M  V30 25164 N 2391.57 -0.417818 1.51961 0
M  V30 25165 C 2392.81 -1.16729 1.65838 0
M  V30 25166 C 2393.14 -1.90388 0.382914 0
M  V30 25167 O 2392.42 -1.8441 -0.618335 0
M  V30 25168 C 2392.7 -2.16871 2.8747 0
M  V30 25169 C 2392.56 -1.47167 4.25043 0
M  V30 25170 C 2393.87 -3.1764 3.04619 0
M  V30 25171 H 2390.99 -0.423001 0.603522 0
M  V30 25172 H 2393.64 -0.454072 1.84494 0
M  V30 25173 H 2391.79 -2.77695 2.71694 0
M  V30 25174 H 2393.46 -0.895297 4.52529 0
M  V30 25175 H 2391.7 -0.773731 4.26844 0
M  V30 25176 H 2392.37 -2.20195 5.0618 0
M  V30 25177 H 2394.85 -2.66886 3.19235 0
M  V30 25178 H 2393.72 -3.84983 3.91253 0
M  V30 25179 H 2393.98 -3.84871 2.17548 0
M  V30 25180 N 2393.04 -1.42436 -0.674508 0
M  V30 25181 C 2394.29 -1.42922 -1.43456 0
M  V30 25182 C 2394.62 -0.0457653 -1.94446 0
M  V30 25183 O 2393.87 0.9459 -1.71322 0
M  V30 25184 C 2394.17 -2.40074 -2.64763 0
M  V30 25185 C 2393.84 -3.86447 -2.32313 0
M  V30 25186 C 2392.5 -4.26318 -2.23174 0
M  V30 25187 C 2394.85 -4.78776 -2.05968 0
M  V30 25188 C 2392.18 -5.56497 -1.85817 0
M  V30 25189 C 2394.53 -6.09298 -1.70114 0
M  V30 25190 C 2393.2 -6.48167 -1.59486 0
M  V30 25191 H 2392.47 -0.522987 -0.524943 0
M  V30 25192 H 2395.11 -1.75379 -0.769066 0
M  V30 25193 H 2393.42 -2.00945 -3.36346 0
M  V30 25194 H 2395.12 -2.37713 -3.22945 0
M  V30 25195 H 2391.71 -3.54881 -2.40328 0
M  V30 25196 H 2395.89 -4.48761 -2.11961 0
M  V30 25197 H 2391.15 -5.85473 -1.76157 0
M  V30 25198 H 2395.32 -6.80327 -1.48755 0
M  V30 25199 H 2392.95 -7.48948 -1.30309 0
M  V30 25200 N 2394.52 0.910841 -1.28614 0
M  V30 25201 C 2395.94 1.18974 -1.06383 0
M  V30 25202 C 2396.14 2.00584 0.191963 0
M  V30 25203 O 2395.19 2.36188 0.892828 0
M  V30 25204 C 2396.51 1.9215 -2.31298 0
M  V30 25205 C 2398.05 2.05021 -2.36507 0
M  V30 25206 C 2398.53 2.81606 -3.61196 0
M  V30 25207 N 2400.02 2.89166 -3.61853 0
M  V30 25208 C 2400.76 3.48932 -4.5501 0
M  V30 25209 N 2400.25 4.09953 -5.58489 0
M  V30 25210 N 2402.04 3.46499 -4.426 0
M  V30 25211 H 2394.2 0.366057 -2.09222 0
M  V30 25212 H 2396.46 0.224613 -0.921007 0
M  V30 25213 H 2396.16 1.39613 -3.22802 0
M  V30 25214 H 2396.04 2.92686 -2.37939 0
M  V30 25215 H 2398.43 2.56738 -1.45498 0
M  V30 25216 H 2398.51 1.03653 -2.33858 0
M  V30 25217 H 2398.15 2.30568 -4.52549 0
M  V30 25218 H 2398.08 3.83295 -3.61099 0
M  V30 25219 H 2400.57 2.45814 -2.87026 0
M  V30 25220 H 2400.88 4.53546 -6.25712 0
M  V30 25221 H 2399.23 4.08449 -5.62312 0
M  V30 25222 H 2402.42 2.98038 -3.60958 0
M  V30 25223 H 2402.59 3.92784 -5.15388 0
M  V30 25224 N 2396 1.10909 1.11969 0
M  V30 25225 C 2396.95 0.762383 2.17845 0
M  V30 25226 C 2397.92 -0.263571 1.63995 0
M  V30 25227 O 2399.1 -0.141739 1.90273 0
M  V30 25228 C 2396.24 0.205711 3.44486 0
M  V30 25229 C 2395.36 1.28756 4.12366 0
M  V30 25230 C 2394.49 0.692011 5.26673 0
M  V30 25231 C 2393.53 1.75409 5.86428 0
M  V30 25232 N 2392.67 1.17845 6.92139 0
M  V30 25233 H 2397.51 1.66944 2.46848 0
M  V30 25234 H 2395.04 0.833797 1.21187 0
M  V30 25235 H 2397 -0.134963 4.16982 0
M  V30 25236 H 2395.63 -0.664557 3.15885 0
M  V30 25237 H 2394.68 1.74528 3.38 0
M  V30 25238 H 2396 2.09133 4.52841 0
M  V30 25239 H 2395.15 0.30107 6.05953 0
M  V30 25240 H 2393.89 -0.143146 4.8749 0
M  V30 25241 H 2392.89 2.15441 5.05831 0
M  V30 25242 H 2394.12 2.59219 6.2768 0
M  V30 25243 H 2392.06 0.36484 6.54985 0
M  V30 25244 H 2391.98 1.919 7.31239 0
M  V30 25245 H 2393.25 0.814216 7.75236 0
M  V30 25246 N 2397.48 -1.29474 0.898573 0
M  V30 25247 C 2398.71 -1.99458 0.538514 0
M  V30 25248 C 2399.12 -1.67442 -0.880893 0
M  V30 25249 O 2398.46 -0.915155 -1.59282 0
M  V30 25250 C 2398.52 -3.53582 0.649626 0
M  V30 25251 C 2398.19 -4.0915 2.0358 0
M  V30 25252 C 2399.18 -4.2413 3.00683 0
M  V30 25253 C 2396.87 -4.44208 2.34488 0
M  V30 25254 C 2398.86 -4.73398 4.26818 0
M  V30 25255 C 2396.55 -4.93173 3.60866 0
M  V30 25256 C 2397.55 -5.07722 4.56845 0
M  V30 25257 O 2397.23 -5.55625 5.80979 0
M  V30 25258 H 2396.97 -0.644045 0.205383 0
M  V30 25259 H 2399.52 -1.66005 1.20961 0
M  V30 25260 H 2397.75 -3.8662 -0.0784913 0
M  V30 25261 H 2399.44 -4.04798 0.298881 0
M  V30 25262 H 2400.21 -3.97334 2.78119 0
M  V30 25263 H 2396.08 -4.32143 1.60542 0
M  V30 25264 H 2399.63 -4.84669 5.01738 0
M  V30 25265 H 2395.53 -5.19405 3.8326 0
M  V30 25266 H 2396.29 -5.73942 5.83552 0
M  V30 25267 N 2398.96 -0.660936 -1.43071 0
M  V30 25268 C 2399.89 0.0122419 -2.33497 0
M  V30 25269 C 2400.87 0.803899 -1.49905 0
M  V30 25270 O 2402.05 0.763833 -1.78548 0
M  V30 25271 C 2399.18 0.973936 -3.33364 0
M  V30 25272 C 2398.14 0.291852 -4.27004 0
M  V30 25273 C 2397.46 1.36553 -5.16969 0
M  V30 25274 C 2398.76 -0.820552 -5.15814 0
M  V30 25275 H 2400.46 -0.742924 -2.90036 0
M  V30 25276 H 2398 -0.358713 -1.39461 0
M  V30 25277 H 2399.96 1.45385 -3.95527 0
M  V30 25278 H 2398.68 1.76036 -2.75098 0
M  V30 25279 H 2397.34 -0.167687 -3.66216 0
M  V30 25280 H 2396.99 2.14358 -4.55038 0
M  V30 25281 H 2396.69 0.914352 -5.80442 0
M  V30 25282 H 2398.21 1.84665 -5.82006 0
M  V30 25283 H 2399.62 -0.422467 -5.71741 0
M  V30 25284 H 2398.02 -1.19667 -5.88048 0
M  V30 25285 H 2399.09 -1.67526 -4.55042 0
M  V30 25286 N 2400.43 1.52351 -0.403352 0
M  V30 25287 C 2401.71 1.94212 0.232577 0
M  V30 25288 C 2402.09 1.33983 1.63131 0
M  V30 25289 O 2401.44 0.513383 2.22658 0
M  V30 25290 C 2401.65 3.48141 0.24475 0
M  V30 25291 C 2403 4.22025 0.466906 0
M  V30 25292 O 2404.02 3.5472 0.324356 0
M  V30 25293 O 2402.88 5.41365 0.747375 0
M  V30 25294 H 2399.97 0.813611 0.148209 0
M  V30 25295 H 2402.52 1.63378 -0.458877 0
M  V30 25296 H 2401.29 3.84346 -0.734445 0
M  V30 25297 H 2400.92 3.85319 0.980544 0
M  V30 25298 N 2401.91 0.133594 1.57033 0
M  V30 25299 C 2403.14 -0.531441 2.00476 0
M  V30 25300 C 2403.56 -1.58497 1.01293 0
M  V30 25301 O 2402.92 -1.81295 -0.0132961 0
M  V30 25302 C 2402.97 -1.12107 3.42731 0
M  V30 25303 O 2402.07 -2.2363 3.46502 0
M  V30 25304 H 2401.41 -0.13135 0.650879 0
M  V30 25305 H 2403.94 0.226375 2.03344 0
M  V30 25306 H 2403.95 -1.45304 3.81249 0
M  V30 25307 H 2402.63 -0.349485 4.14429 0
M  V30 25308 H 2401.21 -1.91763 3.19815 0
M  V30 25309 N 2403.39 -1.56975 -0.140195 0
M  V30 25310 C 2404.62 -1.87886 -0.866404 0
M  V30 25311 C 2405.03 -0.722547 -1.74427 0
M  V30 25312 O 2404.39 0.307458 -1.79891 0
M  V30 25313 C 2404.44 -3.18096 -1.71747 0
M  V30 25314 O 2404.16 -4.29273 -0.87498 0
M  V30 25315 C 2405.66 -3.62568 -2.55068 0
M  V30 25316 H 2402.88 -0.622616 -0.250179 0
M  V30 25317 H 2405.43 -2.0408 -0.130941 0
M  V30 25318 H 2403.58 -3.03635 -2.40592 0
M  V30 25319 H 2404 -5.03772 -1.45994 0
M  V30 25320 H 2405.47 -4.56495 -3.10348 0
M  V30 25321 H 2405.95 -2.88187 -3.31429 0
M  V30 25322 H 2406.55 -3.79746 -1.91502 0
M  V30 25323 N 2404.87 0.409753 -1.5218 0
M  V30 25324 C 2406.12 1.15676 -1.66208 0
M  V30 25325 C 2406.44 1.90515 -0.391707 0
M  V30 25326 O 2405.7 1.85441 0.625297 0
M  V30 25327 C 2406 2.17718 -2.83432 0
M  V30 25328 C 2405.66 1.59691 -4.21675 0
M  V30 25329 C 2404.33 1.43591 -4.59277 0
M  V30 25330 C 2406.68 1.17308 -5.07827 0
M  V30 25331 C 2404.01 0.836226 -5.8071 0
M  V30 25332 C 2406.36 0.58758 -6.29865 0
M  V30 25333 C 2405.02 0.413701 -6.66217 0
M  V30 25334 H 2404.29 0.42329 -0.6082 0
M  V30 25335 H 2406.94 0.444064 -1.8628 0
M  V30 25336 H 2405.24 2.95131 -2.57692 0
M  V30 25337 H 2406.94 2.75389 -2.91482 0
M  V30 25338 H 2403.53 1.73206 -3.92043 0
M  V30 25339 H 2407.71 1.28556 -4.79361 0
M  V30 25340 H 2402.97 0.689519 -6.07499 0
M  V30 25341 H 2407.14 0.250772 -6.95948 0
M  V30 25342 H 2404.77 -0.0530807 -7.60181 0
M  V30 25343 N 2406.35 1.42792 0.666944 0
M  V30 25344 C 2407.57 1.47094 1.45503 0
M  V30 25345 C 2407.99 0.0846204 1.8861 0
M  V30 25346 O 2407.35 -0.902312 1.58633 0
M  V30 25347 C 2407.4 2.4049 2.69902 0
M  V30 25348 O 2407.12 3.73729 2.28601 0
M  V30 25349 C 2408.62 2.53892 3.63392 0
M  V30 25350 H 2405.84 0.500029 0.44745 0
M  V30 25351 H 2408.38 1.87391 0.818833 0
M  V30 25352 H 2406.54 2.03425 3.29693 0
M  V30 25353 H 2406.95 4.23822 3.0899 0
M  V30 25354 H 2408.43 3.23347 4.47382 0
M  V30 25355 H 2408.9 1.57935 4.09821 0
M  V30 25356 H 2409.51 2.91712 3.0949 0
M  V30 25357 N 2407.82 -0.904008 1.29095 0
M  V30 25358 C 2408.77 -2.00762 1.13856 0
M  V30 25359 C 2409.74 -1.66067 0.0330376 0
M  V30 25360 O 2410.93 -1.89751 0.199766 0
M  V30 25361 C 2408.07 -3.35299 0.816595 0
M  V30 25362 C 2407.18 -3.82804 2.00213 0
M  V30 25363 C 2406.31 -5.05897 1.61992 0
M  V30 25364 C 2405.35 -5.45759 2.77152 0
M  V30 25365 N 2404.49 -6.6004 2.39357 0
M  V30 25366 H 2409.33 -2.13128 2.08279 0
M  V30 25367 H 2406.87 -1.0438 1.0365 0
M  V30 25368 H 2408.83 -4.12707 0.61063 0
M  V30 25369 H 2407.46 -3.22672 -0.0907223 0
M  V30 25370 H 2406.51 -3.01469 2.31993 0
M  V30 25371 H 2407.82 -4.08299 2.86519 0
M  V30 25372 H 2406.97 -5.90876 1.37659 0
M  V30 25373 H 2405.71 -4.82232 0.728287 0
M  V30 25374 H 2404.72 -4.59316 3.02173 0
M  V30 25375 H 2405.94 -5.71408 3.66974 0
M  V30 25376 H 2403.89 -6.37986 1.52676 0
M  V30 25377 H 2403.81 -6.85309 3.19197 0
M  V30 25378 H 2405.07 -7.48299 2.18333 0
M  V30 25379 N 2409.3 -1.11501 -1.11379 0
M  V30 25380 C 2410.72 -0.849054 -1.35142 0
M  V30 25381 C 2410.92 0.525904 -1.94516 0
M  V30 25382 O 2409.97 1.27659 -2.17852 0
M  V30 25383 C 2411.29 -1.95766 -2.28246 0
M  V30 25384 C 2412.84 -1.9874 -2.41808 0
M  V30 25385 C 2413.31 -3.08806 -3.38235 0
M  V30 25386 N 2414.8 -3.08185 -3.45798 0
M  V30 25387 C 2415.54 -3.8999 -4.20352 0
M  V30 25388 N 2415.03 -4.81759 -4.97876 0
M  V30 25389 N 2416.83 -3.78165 -4.1587 0
M  V30 25390 H 2408.98 -2.0011 -0.712027 0
M  V30 25391 H 2411.24 -0.870242 -0.37601 0
M  V30 25392 H 2410.95 -2.9479 -1.91812 0
M  V30 25393 H 2410.82 -1.85439 -3.2847 0
M  V30 25394 H 2413.21 -1.00343 -2.77516 0
M  V30 25395 H 2413.29 -2.13144 -1.41434 0
M  V30 25396 H 2412.93 -4.0743 -3.03254 0
M  V30 25397 H 2412.86 -2.91643 -4.38466 0
M  V30 25398 H 2415.35 -2.41696 -2.90502 0
M  V30 25399 H 2415.67 -5.40712 -5.52133 0
M  V30 25400 H 2414.01 -4.8578 -4.97034 0
M  V30 25401 H 2417.2 -3.05814 -3.54394 0
M  V30 25402 H 2417.37 -4.42151 -4.73716 0
M  V30 25403 N 2410.78 1.28995 -0.905426 0
M  V30 25404 C 2412.06 1.90269 -0.453546 0
M  V30 25405 C 2412.44 1.82139 1.06717 0
M  V30 25406 O 2411.79 1.25185 1.91157 0
M  V30 25407 C 2412 3.35117 -0.974553 0
M  V30 25408 C 2413.34 4.12125 -1.02167 0
M  V30 25409 O 2414.37 3.44044 -0.922618 0
M  V30 25410 O 2413.23 5.338 -1.1713 0
M  V30 25411 H 2410.32 0.814655 -0.142362 0
M  V30 25412 H 2412.87 1.37421 -0.995666 0
M  V30 25413 H 2411.64 3.35218 -2.01854 0
M  V30 25414 H 2411.26 3.95452 -0.412775 0
M  V30 25415 N 2412.26 0.668514 1.42719 0
M  V30 25416 C 2413.67 0.266184 1.84793 0
M  V30 25417 C 2414.02 -1.1904 1.55961 0
M  V30 25418 O 2413.15 -1.91053 1.01625 0
M  V30 25419 C 2413.74 0.47633 3.35435 0
M  V30 25420 C 2412.3 0.128179 3.76182 0
M  V30 25421 C 2411.45 0.771824 2.66342 0
M  V30 25422 H 2414.4 0.871121 1.32654 0
M  V30 25423 H 2414.42 -0.273494 3.79516 0
M  V30 25424 H 2413.93 1.53653 3.56388 0
M  V30 25425 H 2412.03 -0.928827 3.60837 0
M  V30 25426 H 2412.15 0.564315 4.75765 0
M  V30 25427 H 2410.51 0.203696 2.53884 0
M  V30 25428 H 2411.29 1.83536 2.9012 0
M  V30 25429 N 2413.74 -1.52135 0.411426 0
M  V30 25430 C 2415.15 -1.59478 0.0624145 0
M  V30 25431 C 2415.35 -1.42413 -1.42551 0
M  V30 25432 O 2414.41 -1.25224 -2.19261 0
M  V30 25433 C 2415.72 -2.95451 0.559383 0
M  V30 25434 C 2417.27 -3.08691 0.517558 0
M  V30 25435 C 2417.75 -4.47148 0.991073 0
M  V30 25436 N 2419.24 -4.53395 0.947987 0
M  V30 25437 C 2419.97 -5.58804 1.28553 0
M  V30 25438 N 2419.47 -6.71754 1.69465 0
M  V30 25439 N 2421.26 -5.49024 1.20536 0
M  V30 25440 H 2413.41 -1.61475 1.37985 0
M  V30 25441 H 2415.67 -0.759754 0.56699 0
M  V30 25442 H 2415.38 -3.13227 1.59944 0
M  V30 25443 H 2415.25 -3.77188 -0.0297351 0
M  V30 25444 H 2417.64 -2.90599 -0.513454 0
M  V30 25445 H 2417.72 -2.28855 1.14276 0
M  V30 25446 H 2417.37 -4.65984 2.02042 0
M  V30 25447 H 2417.3 -5.25484 0.342663 0
M  V30 25448 H 2419.79 -3.72316 0.647223 0
M  V30 25449 H 2420.1 -7.48176 1.93527 0
M  V30 25450 H 2418.45 -6.73029 1.73371 0
M  V30 25451 H 2421.64 -4.59666 0.884585 0
M  V30 25452 H 2421.81 -6.31066 1.47172 0
M  V30 25453 N 2415.22 -0.14192 -1.5696 0
M  V30 25454 C 2416.46 0.509449 -1.95574 0
M  V30 25455 C 2416.78 1.65734 -1.02749 0
M  V30 25456 O 2416.05 1.95702 -0.0880655 0
M  V30 25457 H 2414.63 0.191192 -0.722118 0
M  V30 25458 H 2417.3 -0.21623 -1.93697 0
M  V30 25459 H 2416.39 0.888948 -2.99172 0
M  V30 25460 N 2416.69 1.57047 0.131868 0
M  V30 25461 C 2417.6 2.02678 1.18147 0
M  V30 25462 C 2418.62 0.94485 1.46112 0
M  V30 25463 O 2419.8 1.25544 1.57483 0
M  V30 25464 C 2416.86 2.41107 2.49135 0
M  V30 25465 C 2415.92 3.63322 2.28682 0
M  V30 25466 C 2415.15 3.99909 3.53424 0
M  V30 25467 O 2415.38 3.36981 4.60217 0
M  V30 25468 O 2414.31 4.9308 3.45189 0
M  V30 25469 H 2418.14 2.92307 0.824017 0
M  V30 25470 H 2415.72 1.45439 0.341719 0
M  V30 25471 H 2417.6 2.66617 3.26333 0
M  V30 25472 H 2416.28 1.54629 2.84379 0
M  V30 25473 H 2415.19 3.4298 1.49384 0
M  V30 25474 H 2416.52 4.50466 1.98347 0
M  V30 25475 N 2418.17 -0.401677 1.52395 0
M  V30 25476 C 2419.4 -1.16777 1.70431 0
M  V30 25477 C 2419.81 -1.84553 0.416734 0
M  V30 25478 O 2419.15 -1.73005 -0.617666 0
M  V30 25479 C 2419.21 -2.26809 2.78923 0
M  V30 25480 C 2418.88 -1.79106 4.2044 0
M  V30 25481 C 2419.88 -1.27474 5.0403 0
M  V30 25482 C 2417.56 -1.85713 4.66707 0
M  V30 25483 C 2419.55 -0.830802 6.31962 0
M  V30 25484 C 2417.24 -1.40932 5.94627 0
M  V30 25485 C 2418.24 -0.897009 6.77084 0
M  V30 25486 O 2417.93 -0.455681 8.02607 0
M  V30 25487 H 2417.66 -0.356624 0.574278 0
M  V30 25488 H 2420.21 -0.477689 1.99768 0
M  V30 25489 H 2418.44 -2.99203 2.44979 0
M  V30 25490 H 2420.13 -2.88536 2.85485 0
M  V30 25491 H 2420.9 -1.21735 4.69474 0
M  V30 25492 H 2416.78 -2.24532 4.02624 0
M  V30 25493 H 2420.32 -0.430245 6.96272 0
M  V30 25494 H 2416.22 -1.46351 6.2869 0
M  V30 25495 H 2416.99 -0.578314 8.16454 0
M  V30 25496 N 2419.65 -1.43144 -0.659362 0
M  V30 25497 C 2420.56 -1.50259 -1.80165 0
M  V30 25498 C 2421.58 -0.390136 -1.6957 0
M  V30 25499 O 2422.75 -0.643352 -1.90848 0
M  V30 25500 C 2419.82 -1.41731 -3.16407 0
M  V30 25501 C 2418.88 -2.63597 -3.38844 0
M  V30 25502 C 2418.11 -2.55466 -4.68586 0
M  V30 25503 O 2418.33 -1.59901 -5.47529 0
M  V30 25504 O 2417.27 -3.45863 -4.92608 0
M  V30 25505 H 2421.09 -2.46705 -1.77117 0
M  V30 25506 H 2418.68 -1.25077 -0.81707 0
M  V30 25507 H 2420.56 -1.39394 -3.97677 0
M  V30 25508 H 2419.24 -0.484174 -3.20058 0
M  V30 25509 H 2418.14 -2.71507 -2.57361 0
M  V30 25510 H 2419.48 -3.55862 -3.40034 0
M  V30 25511 N 2421.13 0.897149 -1.29572 0
M  V30 25512 C 2422.04 2.03451 -1.16811 0
M  V30 25513 C 2423.05 1.73763 -0.0907777 0
M  V30 25514 O 2424.23 1.99102 -0.303347 0
M  V30 25515 C 2421.29 3.36161 -0.848323 0
M  V30 25516 C 2420.36 3.79351 -2.00976 0
M  V30 25517 C 2419.59 5.05728 -1.70514 0
M  V30 25518 O 2419.81 5.6694 -0.62728 0
M  V30 25519 O 2418.75 5.45032 -2.55389 0
M  V30 25520 H 2422.57 2.17141 -2.12329 0
M  V30 25521 H 2420.16 1.02121 -1.09049 0
M  V30 25522 H 2422.04 4.15801 -0.684654 0
M  V30 25523 H 2420.71 3.23608 0.0770503 0
M  V30 25524 H 2419.62 3.00467 -2.22869 0
M  V30 25525 H 2420.95 3.96491 -2.91643 0
M  V30 25526 N 2422.61 1.1209 1.10786 0
M  V30 25527 C 2423.56 0.754439 2.15156 0
M  V30 25528 C 2424.54 -0.244818 1.59027 0
M  V30 25529 O 2425.73 -0.0508786 1.76927 0
M  V30 25530 C 2422.86 0.206717 3.42677 0
M  V30 25531 C 2421.95 1.23405 4.05749 0
M  V30 25532 N 2422.34 2.43049 4.43578 0
M  V30 25533 C 2420.64 1.07856 4.32762 0
M  V30 25534 C 2421.34 3.08622 4.9308 0
M  V30 25535 N 2420.31 2.36081 4.8966 0
M  V30 25536 H 2424.11 1.66494 2.42192 0
M  V30 25537 H 2421.63 1.00115 1.2787 0
M  V30 25538 H 2423.63 -0.0739913 4.16834 0
M  V30 25539 H 2422.29 -0.698286 3.17103 0
M  V30 25540 H 2423.3 2.80456 4.3539 0
M  V30 25541 H 2419.97 0.230556 4.16863 0
M  V30 25542 H 2421.36 4.10493 5.31926 0
M  V30 25543 N 2424.08 -1.28513 0.912254 0
M  V30 25544 C 2425.01 -2.29756 0.416443 0
M  V30 25545 C 2425.99 -1.62111 -0.515166 0
M  V30 25546 O 2427.18 -1.89532 -0.423219 0
M  V30 25547 C 2424.31 -3.45576 -0.345659 0
M  V30 25548 C 2423.26 -4.25108 0.496674 0
M  V30 25549 C 2422.59 -5.33249 -0.393678 0
M  V30 25550 C 2423.89 -4.91998 1.75316 0
M  V30 25551 H 2425.58 -2.71478 1.26254 0
M  V30 25552 H 2423.13 -1.3051 0.608538 0
M  V30 25553 H 2425.08 -4.15489 -0.703349 0
M  V30 25554 H 2423.81 -3.0273 -1.22565 0
M  V30 25555 H 2422.47 -3.5692 0.836863 0
M  V30 25556 H 2422.11 -4.86647 -1.27217 0
M  V30 25557 H 2421.81 -5.87365 0.166312 0
M  V30 25558 H 2423.34 -6.0601 -0.747283 0
M  V30 25559 H 2424.75 -5.5428 1.46446 0
M  V30 25560 H 2423.15 -5.56102 2.25544 0
M  V30 25561 H 2424.22 -4.16573 2.48184 0
M  V30 25562 N 2425.56 -0.676073 -1.42362 0
M  V30 25563 C 2426.81 -0.198473 -2.01123 0
M  V30 25564 C 2427.13 1.19963 -1.53733 0
M  V30 25565 O 2426.4 1.80576 -0.759549 0
M  V30 25566 H 2424.98 -0.0703852 -0.743677 0
M  V30 25567 H 2427.64 -0.872867 -1.74261 0
M  V30 25568 H 2426.74 -0.200741 -3.11454 0
M  V30 25569 N 2427.04 1.51915 -0.419488 0
M  V30 25570 C 2428.29 2.01109 0.154311 0
M  V30 25571 C 2428.6 1.30908 1.45336 0
M  V30 25572 O 2429.81 1.70974 2.10903 0
M  V30 25573 C 2428.26 3.58425 0.325552 0
M  V30 25574 C 2427.87 4.37549 -0.962011 0
M  V30 25575 C 2429.62 4.15819 0.854082 0
M  V30 25576 C 2427.52 5.8653 -0.757391 0
M  V30 25577 H 2426.45 0.751492 0.0614431 0
M  V30 25578 H 2429.1 1.75172 -0.54652 0
M  V30 25579 H 2427.49 3.80733 1.08896 0
M  V30 25580 H 2428.66 4.26996 -1.73237 0
M  V30 25581 H 2426.98 3.91522 -1.41773 0
M  V30 25582 H 2429.57 5.24815 1.02337 0
M  V30 25583 H 2429.92 3.7384 1.83165 0
M  V30 25584 H 2430.45 3.97519 0.149458 0
M  V30 25585 H 2427.19 6.32889 -1.70682 0
M  V30 25586 H 2426.71 5.99794 -0.0265115 0
M  V30 25587 H 2428.39 6.4574 -0.403596 0
M  V30 25588 N 2428.52 0.150242 1.56882 0
M  V30 25589 C 2429.45 -0.784245 2.19936 0
M  V30 25590 C 2430.43 -1.25467 1.14856 0
M  V30 25591 O 2431.61 -1.31165 1.43211 0
M  V30 25592 C 2428.74 -2.02224 2.82352 0
M  V30 25593 C 2427.7 -1.68846 3.93287 0
M  V30 25594 C 2427.02 -2.99936 4.42654 0
M  V30 25595 C 2428.32 -0.932623 5.13906 0
M  V30 25596 H 2430.02 -0.258729 2.9828 0
M  V30 25597 H 2427.56 -0.123004 1.43474 0
M  V30 25598 H 2429.52 -2.68082 3.25131 0
M  V30 25599 H 2428.24 -2.57154 2.01345 0
M  V30 25600 H 2426.9 -1.05365 3.51132 0
M  V30 25601 H 2426.55 -3.52863 3.58464 0
M  V30 25602 H 2426.25 -2.78365 5.17481 0
M  V30 25603 H 2427.77 -3.66859 4.88105 0
M  V30 25604 H 2429.19 -1.49336 5.53509 0
M  V30 25605 H 2427.58 -0.816735 5.94516 0
M  V30 25606 H 2428.65 0.0750421 4.84842 0
M  V30 25607 N 2430 -1.57115 -0.123538 0
M  V30 25608 C 2431.24 -1.84248 -0.830477 0
M  V30 25609 C 2431.57 -0.734742 -1.80628 0
M  V30 25610 O 2430.84 0.241654 -1.94404 0
M  V30 25611 H 2429.42 -0.679784 -0.309682 0
M  V30 25612 H 2432.08 -1.94578 -0.111942 0
M  V30 25613 H 2431.17 -2.80008 -1.37847 0
M  V30 25614 N 2431.47 0.393589 -1.52606 0
M  V30 25615 C 2432.89 0.971733 -1.59418 0
M  V30 25616 C 2433.24 1.91105 -0.444207 0
M  V30 25617 O 2432.36 2.12017 0.433344 0
M  V30 25618 C 2432.96 1.76916 -2.8894 0
M  V30 25619 C 2431.52 2.29708 -2.98179 0
M  V30 25620 C 2430.66 1.1013 -2.54493 0
M  V30 25621 H 2433.61 0.173289 -1.57751 0
M  V30 25622 H 2433.63 2.62799 -2.75167 0
M  V30 25623 H 2433.15 1.08525 -3.72618 0
M  V30 25624 H 2431.25 3.01425 -2.19029 0
M  V30 25625 H 2431.36 2.59509 -4.0273 0
M  V30 25626 H 2429.72 1.45995 -2.08704 0
M  V30 25627 H 2430.51 0.432814 -3.40561 0
M  V30 25628 N 2432.95 1.43492 0.651762 0
M  V30 25629 C 2434.2 1.44472 1.40751 0
M  V30 25630 C 2434.51 0.0732189 1.95463 0
M  V30 25631 O 2435.72 -0.0395244 2.71471 0
M  V30 25632 C 2434.18 2.54244 2.54731 0
M  V30 25633 C 2433.78 3.97507 2.06621 0
M  V30 25634 C 2435.53 2.6442 3.32088 0
M  V30 25635 C 2433.44 4.98743 3.1782 0
M  V30 25636 H 2432.37 0.53743 0.528853 0
M  V30 25637 H 2435.02 1.69486 0.703335 0
M  V30 25638 H 2433.4 2.22434 3.27626 0
M  V30 25639 H 2434.57 4.38785 1.40727 0
M  V30 25640 H 2432.89 3.91389 1.42139 0
M  V30 25641 H 2435.48 3.3723 4.14946 0
M  V30 25642 H 2435.83 1.69538 3.80214 0
M  V30 25643 H 2436.36 2.95539 2.66274 0
M  V30 25644 H 2433.1 5.95182 2.74661 0
M  V30 25645 H 2432.62 4.62076 3.82421 0
M  V30 25646 H 2434.3 5.21512 3.82928 0
M  V30 25647 N 2434.43 -0.890264 1.30046 0
M  V30 25648 C 2435.68 -1.6363 1.17932 0
M  V30 25649 C 2435.99 -1.93781 -0.266169 0
M  V30 25650 O 2437.2 -2.66691 -0.508757 0
M  V30 25651 C 2435.65 -2.94889 2.06322 0
M  V30 25652 C 2435.26 -2.72298 3.55749 0
M  V30 25653 C 2437.01 -3.72839 2.02956 0
M  V30 25654 C 2434.91 -3.99341 4.36212 0
M  V30 25655 H 2433.84 -0.613884 0.437792 0
M  V30 25656 H 2436.49 -0.986047 1.54756 0
M  V30 25657 H 2434.88 -3.61179 1.62376 0
M  V30 25658 H 2436.05 -2.14543 4.07809 0
M  V30 25659 H 2434.37 -2.07731 3.60883 0
M  V30 25660 H 2436.96 -4.67048 2.60327 0
M  V30 25661 H 2437.31 -4.03818 1.01177 0
M  V30 25662 H 2437.84 -3.13404 2.44996 0
M  V30 25663 H 2434.58 -3.73523 5.38666 0
M  V30 25664 H 2434.1 -4.56621 3.88918 0
M  V30 25665 H 2435.78 -4.67407 4.4737 0
M  V30 25666 N 2435.91 -1.12676 -1.1019 0
M  V30 25667 C 2437.32 -0.86334 -1.34233 0
M  V30 25668 C 2437.52 0.505243 -1.95063 0
M  V30 25669 O 2436.58 1.25341 -2.19194 0
M  V30 25670 C 2437.89 -1.98176 -2.26156 0
M  V30 25671 C 2439.44 -2.01294 -2.39687 0
M  V30 25672 C 2439.92 -3.12376 -3.3494 0
M  V30 25673 N 2441.41 -3.11835 -3.4251 0
M  V30 25674 C 2442.14 -3.94426 -4.16192 0
M  V30 25675 N 2441.64 -4.87012 -4.92738 0
M  V30 25676 N 2443.43 -3.82554 -4.11836 0
M  V30 25677 H 2435.58 -2.00854 -0.690762 0
M  V30 25678 H 2437.85 -0.874181 -0.366759 0
M  V30 25679 H 2437.55 -2.96808 -1.88675 0
M  V30 25680 H 2437.43 -1.88912 -3.26484 0
M  V30 25681 H 2439.81 -1.0328 -2.76437 0
M  V30 25682 H 2439.89 -2.14632 -1.39165 0
M  V30 25683 H 2439.54 -4.10624 -2.98915 0
M  V30 25684 H 2439.47 -2.96277 -4.35348 0
M  V30 25685 H 2441.96 -2.44764 -2.87922 0
M  V30 25686 H 2442.27 -5.46537 -5.46367 0
M  V30 25687 H 2440.62 -4.91024 -4.91854 0
M  V30 25688 H 2443.81 -3.09556 -3.51131 0
M  V30 25689 H 2443.98 -4.47151 -4.68999 0
M  V30 25690 N 2437.39 1.28028 -0.919057 0
M  V30 25691 C 2438.35 2.25389 -0.416221 0
M  V30 25692 C 2439.35 1.54068 0.460411 0
M  V30 25693 O 2440.54 1.72208 0.262714 0
M  V30 25694 C 2437.67 3.38514 0.402647 0
M  V30 25695 H 2438.86 2.71385 -1.27634 0
M  V30 25696 H 2436.42 1.39802 -0.698943 0
M  V30 25697 H 2437.15 2.97887 1.28194 0
M  V30 25698 H 2436.94 3.91449 -0.225767 0
M  V30 25699 H 2438.43 4.10899 0.745118 0
M  V30 25700 N 2438.86 0.683613 1.42002 0
M  V30 25701 C 2439.77 0.0109488 2.34597 0
M  V30 25702 C 2440.79 -0.779218 1.55577 0
M  V30 25703 O 2441.97 -0.719522 1.88109 0
M  V30 25704 C 2439.03 -0.922529 3.34201 0
M  V30 25705 C 2438.09 -0.125908 4.29115 0
M  V30 25706 C 2437.33 -1.01493 5.23961 0
M  V30 25707 O 2437.55 -2.25447 5.23956 0
M  V30 25708 O 2436.48 -0.471004 6.00054 0
M  V30 25709 H 2440.31 0.773904 2.93674 0
M  V30 25710 H 2437.89 0.443886 1.42653 0
M  V30 25711 H 2439.78 -1.45816 3.95368 0
M  V30 25712 H 2438.45 -1.66518 2.77585 0
M  V30 25713 H 2437.36 0.454034 3.71335 0
M  V30 25714 H 2438.69 0.577822 4.88797 0
M  V30 25715 N 2440.34 -1.5169 0.427538 0
M  V30 25716 C 2441.59 -2.02299 -0.142404 0
M  V30 25717 C 2441.92 -1.31164 -1.43211 0
M  V30 25718 O 2441.2 -0.423545 -1.89832 0
M  V30 25719 C 2441.48 -3.58181 -0.371238 0
M  V30 25720 C 2441.33 -4.39944 0.936436 0
M  V30 25721 C 2442.65 -4.24935 -1.14534 0
M  V30 25722 H 2439.77 -0.735283 -0.0502808 0
M  V30 25723 H 2442.41 -1.81417 0.564616 0
M  V30 25724 H 2440.56 -3.76106 -0.973493 0
M  V30 25725 H 2442.24 -4.33692 1.57192 0
M  V30 25726 H 2440.48 -4.0542 1.54327 0
M  V30 25727 H 2441.15 -5.47145 0.730484 0
M  V30 25728 H 2443.63 -4.11222 -0.63529 0
M  V30 25729 H 2442.5 -5.33905 -1.27421 0
M  V30 25730 H 2442.76 -3.85131 -2.17086 0
M  V30 25731 N 2441.82 -0.15856 -1.568 0
M  V30 25732 C 2443.1 0.535324 -1.88132 0
M  V30 25733 C 2443.48 1.82184 -1.06641 0
M  V30 25734 O 2442.83 2.27963 -0.156573 0
M  V30 25735 C 2443.04 0.789593 -3.39951 0
M  V30 25736 C 2444.38 1.12526 -4.09418 0
M  V30 25737 O 2445.41 0.878562 -3.45195 0
M  V30 25738 O 2444.27 1.59005 -5.22857 0
M  V30 25739 H 2441.36 0.274406 -0.780148 0
M  V30 25740 H 2443.91 -0.196039 -1.68564 0
M  V30 25741 H 2442.68 -0.120422 -3.91115 0
M  V30 25742 H 2442.3 1.57473 -3.65086 0
M  V30 25743 N 2443.3 1.57178 0.115204 0
M  V30 25744 C 2444.58 1.76028 0.852842 0
M  V30 25745 C 2444.96 0.735015 1.97891 0
M  V30 25746 O 2444.3 -0.24032 2.27233 0
M  V30 25747 C 2444.51 3.21155 1.36602 0
M  V30 25748 C 2445.86 3.83765 1.81685 0
M  V30 25749 O 2446.89 3.24781 1.46273 0
M  V30 25750 O 2445.75 4.87449 2.47095 0
M  V30 25751 H 2442.84 0.720884 0.405284 0
M  V30 25752 H 2445.39 1.69413 0.0986487 0
M  V30 25753 H 2444.16 3.87297 0.558289 0
M  V30 25754 H 2443.78 3.32324 2.18281 0
M  V30 25755 N 2444.78 -0.38549 1.52813 0
M  V30 25756 C 2446.02 -1.13185 1.68277 0
M  V30 25757 C 2446.36 -1.89532 0.423212 0
M  V30 25758 O 2445.63 -1.8568 -0.57908 0
M  V30 25759 C 2445.91 -2.10725 2.92005 0
M  V30 25760 C 2445.77 -1.38118 4.28069 0
M  V30 25761 C 2447.09 -3.11107 3.11288 0
M  V30 25762 H 2444.21 -0.410104 0.612359 0
M  V30 25763 H 2446.85 -0.414836 1.85416 0
M  V30 25764 H 2445 -2.7187 2.77523 0
M  V30 25765 H 2446.67 -0.799107 4.54326 0
M  V30 25766 H 2444.91 -0.683017 4.28389 0
M  V30 25767 H 2445.58 -2.09408 5.10737 0
M  V30 25768 H 2448.06 -2.60055 3.24824 0
M  V30 25769 H 2446.94 -3.76598 3.99331 0
M  V30 25770 H 2447.2 -3.80169 2.25663 0
M  V30 25771 N 2446.26 -1.43835 -0.644143 0
M  V30 25772 C 2447.5 -1.45216 -1.39983 0
M  V30 25773 C 2447.82 -0.0835837 -1.95421 0
M  V30 25774 O 2449.02 0.025127 -2.71488 0
M  V30 25775 C 2447.48 -2.55592 -2.53379 0
M  V30 25776 C 2447.09 -3.98597 -2.0451 0
M  V30 25777 C 2448.83 -2.66178 -3.30681 0
M  V30 25778 C 2446.74 -5.00421 -3.15171 0
M  V30 25779 H 2445.67 -0.540227 -0.525995 0
M  V30 25780 H 2448.32 -1.69856 -0.694337 0
M  V30 25781 H 2446.7 -2.24168 -3.26442 0
M  V30 25782 H 2447.88 -4.39526 -1.38398 0
M  V30 25783 H 2446.19 -3.92137 -1.40061 0
M  V30 25784 H 2448.79 -3.39426 -4.13152 0
M  V30 25785 H 2449.13 -1.71552 -3.79309 0
M  V30 25786 H 2449.66 -2.96947 -2.64703 0
M  V30 25787 H 2446.4 -5.9663 -2.71501 0
M  V30 25788 H 2445.92 -4.64097 -3.79965 0
M  V30 25789 H 2447.6 -5.23536 -3.80157 0
M  V30 25790 N 2447.73 0.883355 -1.30517 0
M  V30 25791 C 2448.67 1.99494 -1.12849 0
M  V30 25792 C 2449.68 1.62644 -0.0712857 0
M  V30 25793 O 2450.87 1.75654 -0.317462 0
M  V30 25794 C 2447.97 3.31609 -0.699181 0
M  V30 25795 C 2447.14 3.96886 -1.83849 0
M  V30 25796 C 2446.2 5.07304 -1.39746 0
M  V30 25797 O 2445.23 5.28849 -2.10494 0
M  V30 25798 N 2446.43 5.79837 -0.277381 0
M  V30 25799 H 2449.19 2.15199 -2.08589 0
M  V30 25800 H 2446.75 1.05654 -1.22674 0
M  V30 25801 H 2448.75 4.02844 -0.387115 0
M  V30 25802 H 2447.32 3.12158 0.166221 0
M  V30 25803 H 2446.54 3.18803 -2.31859 0
M  V30 25804 H 2447.82 4.37237 -2.60195 0
M  V30 25805 H 2447.22 5.64838 0.3121 0
M  V30 25806 H 2445.78 6.51795 -0.0247768 0
M  V30 25807 N 2449.21 1.13259 1.09591 0
M  V30 25808 C 2450.46 0.894612 1.82001 0
M  V30 25809 C 2450.79 -0.577874 1.85403 0
M  V30 25810 O 2450.07 -1.42756 1.32102 0
M  V30 25811 C 2450.35 1.48102 3.28234 0
M  V30 25812 C 2450.2 3.02249 3.33115 0
M  V30 25813 C 2451.52 1.14781 4.24869 0
M  V30 25814 H 2448.64 0.326435 0.660764 0
M  V30 25815 H 2451.28 1.4006 1.28386 0
M  V30 25816 H 2449.43 1.05069 3.74022 0
M  V30 25817 H 2451.1 3.54026 2.95742 0
M  V30 25818 H 2449.35 3.37328 2.7275 0
M  V30 25819 H 2450.02 3.38378 4.36124 0
M  V30 25820 H 2452.49 1.51964 3.87358 0
M  V30 25821 H 2451.37 1.58462 5.25529 0
M  V30 25822 H 2451.63 0.0612626 4.42058 0
M  V30 25823 N 2450.69 -1.27539 0.925834 0
M  V30 25824 C 2452.11 -1.4682 0.625793 0
M  V30 25825 C 2452.31 -1.83816 -0.825474 0
M  V30 25826 O 2451.36 -1.95047 -1.60353 0
M  V30 25827 C 2452.67 -2.5621 1.57406 0
M  V30 25828 C 2454.22 -2.70072 1.58209 0
M  V30 25829 C 2454.7 -3.82619 2.51728 0
M  V30 25830 N 2456.19 -3.8999 2.49924 0
M  V30 25831 C 2456.92 -4.76489 3.18976 0
M  V30 25832 N 2456.42 -5.67489 3.97401 0
M  V30 25833 N 2458.21 -4.70202 3.08004 0
M  V30 25834 H 2450.36 -1.01808 1.86411 0
M  V30 25835 H 2452.63 -0.50828 0.800222 0
M  V30 25836 H 2452.33 -2.35815 2.6093 0
M  V30 25837 H 2452.21 -3.5356 1.31434 0
M  V30 25838 H 2454.59 -2.8985 0.554175 0
M  V30 25839 H 2454.67 -1.73215 1.88229 0
M  V30 25840 H 2454.32 -3.63595 3.54628 0
M  V30 25841 H 2454.25 -4.78899 2.19004 0
M  V30 25842 H 2456.74 -3.24919 1.92966 0
M  V30 25843 H 2457.05 -6.30348 4.47081 0
M  V30 25844 H 2455.4 -5.67291 4.01505 0
M  V30 25845 H 2458.59 -3.98106 2.4623 0
M  V30 25846 H 2458.76 -5.37397 3.62089 0
M  V30 25847 N 2452.17 -0.691135 -1.41637 0
M  V30 25848 C 2453.41 -0.220228 -2.01299 0
M  V30 25849 C 2453.74 1.17868 -1.54717 0
M  V30 25850 O 2453 1.80873 -0.747225 0
M  V30 25851 C 2453.3 -0.22134 -3.56714 0
M  V30 25852 C 2452.96 -1.56716 -4.22789 0
M  V30 25853 C 2451.62 -1.93561 -4.40554 0
M  V30 25854 C 2453.98 -2.45277 -4.59879 0
M  V30 25855 C 2451.3 -3.18561 -4.92682 0
M  V30 25856 C 2453.66 -3.69604 -5.13396 0
M  V30 25857 C 2452.32 -4.06598 -5.29372 0
M  V30 25858 H 2451.59 -0.0805873 -0.736605 0
M  V30 25859 H 2454.24 -0.889349 -1.69596 0
M  V30 25860 H 2452.54 0.531322 -3.88181 0
M  V30 25861 H 2454.24 0.160476 -4.00679 0
M  V30 25862 H 2450.83 -1.27057 -4.09334 0
M  V30 25863 H 2455.01 -2.18092 -4.45813 0
M  V30 25864 H 2450.27 -3.47223 -5.03236 0
M  V30 25865 H 2454.44 -4.38417 -5.41077 0
M  V30 25866 H 2452.07 -5.03529 -5.69528 0
M  V30 25867 N 2453.65 1.51461 -0.435577 0
M  V30 25868 C 2454.59 2.27704 0.376757 0
M  V30 25869 C 2455.56 1.3122 1.01835 0
M  V30 25870 O 2456.75 1.60121 1.03759 0
M  V30 25871 C 2453.89 3.12087 1.47296 0
M  V30 25872 C 2453 4.23562 0.849669 0
M  V30 25873 C 2452.14 4.95257 1.92077 0
M  V30 25874 C 2451.17 5.98656 1.27582 0
M  V30 25875 N 2450.31 6.63766 2.28821 0
M  V30 25876 H 2455.15 2.96684 -0.279787 0
M  V30 25877 H 2452.69 1.46335 -0.149821 0
M  V30 25878 H 2454.65 3.59334 2.11978 0
M  V30 25879 H 2453.28 2.45225 2.09915 0
M  V30 25880 H 2452.33 3.80291 0.091186 0
M  V30 25881 H 2453.64 4.97648 0.33879 0
M  V30 25882 H 2452.79 5.46044 2.64425 0
M  V30 25883 H 2451.53 4.20798 2.46537 0
M  V30 25884 H 2450.54 5.47163 0.537796 0
M  V30 25885 H 2451.76 6.75072 0.738574 0
M  V30 25886 H 2449.71 5.9212 2.82365 0
M  V30 25887 H 2449.63 7.33612 1.8262 0
M  V30 25888 H 2450.89 7.19184 3.00658 0
M  V30 25889 N 2455.12 0.166873 1.56714 0
M  V30 25890 C 2456.07 -0.782084 2.19058 0
M  V30 25891 C 2457.07 -1.24077 1.15331 0
M  V30 25892 O 2458.27 -1.20695 1.3354 0
M  V30 25893 H 2454.65 -0.270474 0.701675 0
M  V30 25894 H 2456.62 -0.232269 2.97495 0
M  V30 25895 C 2455.37 -2.00301 2.84209 0
M  V30 25896 H 2454.69 -1.65908 3.63751 0
M  V30 25897 H 2456.13 -2.64598 3.31306 0
M  V30 25898 C 2454.59 -2.82379 1.83749 0
M  V30 25899 O 2455.12 -3.79386 1.32021 0
M  V30 25900 N 2453.33 -2.47305 1.52606 0
M  V30 25901 H 2452.87 -1.68482 1.94863 0
M  V30 25902 H 2452.83 -3.02511 0.856404 0
M  V30 25903 N 2456.6 -1.57237 -0.106866 0
M  V30 25904 C 2457.53 -2.04256 -1.13145 0
M  V30 25905 C 2458.51 -0.929249 -1.42474 0
M  V30 25906 O 2459.7 -1.19976 -1.52707 0
M  V30 25907 C 2456.83 -2.4571 -2.45446 0
M  V30 25908 C 2455.78 -3.60597 -2.30552 0
M  V30 25909 C 2455.11 -3.87989 -3.67925 0
M  V30 25910 C 2456.41 -4.919 -1.75588 0
M  V30 25911 H 2458.1 -2.90103 -0.740323 0
M  V30 25912 H 2455.65 -1.39564 -0.354672 0
M  V30 25913 H 2457.6 -2.7721 -3.17384 0
M  V30 25914 H 2456.33 -1.56848 -2.86472 0
M  V30 25915 H 2454.98 -3.29325 -1.61061 0
M  V30 25916 H 2454.63 -2.96314 -4.06457 0
M  V30 25917 H 2454.33 -4.65328 -3.58808 0
M  V30 25918 H 2455.86 -4.21953 -4.41348 0
M  V30 25919 H 2457.27 -5.21858 -2.37355 0
M  V30 25920 H 2455.67 -5.73322 -1.77262 0
M  V30 25921 H 2456.74 -4.79609 -0.714367 0
M  V30 25922 N 2458.08 0.377381 -1.53015 0
M  V30 25923 C 2459.04 1.44441 -1.77959 0
M  V30 25924 C 2460.04 1.47086 -0.649789 0
M  V30 25925 O 2461.23 1.48053 -0.917923 0
M  V30 25926 C 2458.37 2.83648 -1.89094 0
M  V30 25927 H 2459.56 1.23602 -2.73245 0
M  V30 25928 H 2457.11 0.609819 -1.43913 0
M  V30 25929 H 2457.85 3.09816 -0.958347 0
M  V30 25930 H 2457.63 2.83128 -2.71258 0
M  V30 25931 H 2459.12 3.60942 -2.10026 0
M  V30 25932 N 2459.56 1.44175 0.636506 0
M  V30 25933 C 2460.78 1.50367 1.42844 0
M  V30 25934 C 2461.21 0.1279 1.87665 0
M  V30 25935 O 2460.57 -0.881823 1.5841 0
M  V30 25936 C 2460.61 2.46865 2.6285 0
M  V30 25937 O 2459.72 1.96646 3.62497 0
M  V30 25938 H 2459.06 0.507963 0.427633 0
M  V30 25939 H 2461.59 1.89256 0.777389 0
M  V30 25940 H 2461.6 2.64723 3.1046 0
M  V30 25941 H 2460.27 3.46799 2.29572 0
M  V30 25942 H 2458.85 1.88529 3.21732 0
M  V30 25943 N 2461.04 -0.876421 1.30983 0
M  V30 25944 C 2462.45 -1.16111 1.095 0
M  V30 25945 C 2462.65 -2.01022 -0.138714 0
M  V30 25946 O 2461.71 -2.38472 -0.829893 0
M  V30 25947 C 2463.02 -1.8595 2.36312 0
M  V30 25948 C 2464.57 -1.98678 2.41859 0
M  V30 25949 C 2465.04 -2.7193 3.68535 0
M  V30 25950 N 2466.54 -2.7947 3.69392 0
M  V30 25951 C 2467.27 -3.36745 4.64101 0
M  V30 25952 N 2466.77 -3.95002 5.69162 0
M  V30 25953 N 2468.56 -3.34642 4.51632 0
M  V30 25954 H 2460.71 -0.310457 2.10119 0
M  V30 25955 H 2462.97 -0.200115 0.926638 0
M  V30 25956 H 2462.68 -1.31005 3.2639 0
M  V30 25957 H 2462.55 -2.86274 2.45615 0
M  V30 25958 H 2464.94 -2.5279 1.52254 0
M  V30 25959 H 2465.02 -0.974158 2.36524 0
M  V30 25960 H 2464.67 -2.18488 4.58503 0
M  V30 25961 H 2464.6 -3.73587 3.71134 0
M  V30 25962 H 2467.09 -2.38118 2.93442 0
M  V30 25963 H 2467.4 -4.36797 6.37517 0
M  V30 25964 H 2465.74 -3.93396 5.72944 0
M  V30 25965 H 2468.94 -2.88363 3.68733 0
M  V30 25966 H 2469.11 -3.78981 5.25621 0
M  V30 25967 N 2462.51 -1.13839 -1.08989 0
M  V30 25968 C 2463.93 -0.914946 -1.62744 0
M  V30 25969 C 2464.28 0.547561 -1.88404 0
M  V30 25970 O 2463.4 1.41522 -1.63708 0
M  V30 25971 C 2464 -1.65442 -2.95659 0
M  V30 25972 C 2462.56 -1.47672 -3.46222 0
M  V30 25973 C 2461.7 -1.68074 -2.20559 0
M  V30 25974 H 2464.65 -1.29104 -0.922923 0
M  V30 25975 H 2464.67 -1.11413 -3.63823 0
M  V30 25976 H 2464.19 -2.71882 -2.76951 0
M  V30 25977 H 2462.29 -0.435543 -3.70046 0
M  V30 25978 H 2462.4 -2.24276 -4.23364 0
M  V30 25979 H 2460.76 -1.10593 -2.29437 0
M  V30 25980 H 2461.55 -2.75843 -2.04366 0
M  V30 25981 N 2463.99 1.27046 -0.932584 0
M  V30 25982 C 2465.22 1.9796 -0.591207 0
M  V30 25983 C 2465.63 1.69719 0.836189 0
M  V30 25984 O 2464.97 0.957064 1.56799 0
M  V30 25985 C 2465.04 3.51735 -0.743144 0
M  V30 25986 C 2464.7 4.03609 -2.14357 0
M  V30 25987 C 2465.7 4.16009 -3.11822 0
M  V30 25988 C 2463.38 4.37835 -2.46183 0
M  V30 25989 C 2465.38 4.61915 -4.39219 0
M  V30 25990 C 2463.06 4.83431 -3.73814 0
M  V30 25991 C 2464.06 4.95431 -4.70146 0
M  V30 25992 O 2463.75 5.40026 -5.95506 0
M  V30 25993 H 2463.48 0.638373 -0.222387 0
M  V30 25994 H 2466.03 1.6274 -1.25319 0
M  V30 25995 H 2464.26 3.86693 -0.0240419 0
M  V30 25996 H 2465.95 4.03863 -0.406101 0
M  V30 25997 H 2466.72 3.89821 -2.88556 0
M  V30 25998 H 2462.6 4.27734 -1.71943 0
M  V30 25999 H 2466.14 4.71196 -5.14412 0
M  V30 26000 H 2462.04 5.09061 -3.96897 0
M  V30 26001 H 2462.81 5.58268 -5.98564 0
M  V30 26002 N 2465.47 0.698636 1.41269 0
M  V30 26003 C 2466.7 0.238548 2.06024 0
M  V30 26004 C 2467.12 -1.10472 1.52242 0
M  V30 26005 O 2466.48 -1.69222 0.650653 0
M  V30 26006 C 2466.53 0.210016 3.59988 0
M  V30 26007 O 2465.63 -0.814164 4.04283 0
M  V30 26008 H 2464.97 0.115787 0.653827 0
M  V30 26009 H 2467.5 0.954357 1.80978 0
M  V30 26010 H 2467.51 0.0419154 4.07978 0
M  V30 26011 H 2466.19 1.19037 3.98501 0
M  V30 26012 H 2464.76 -0.615169 3.67791 0
M  V30 26013 N 2466.95 -1.51228 0.443603 0
M  V30 26014 C 2467.88 -2.30784 -0.355102 0
M  V30 26015 C 2468.86 -1.3647 -1.01538 0
M  V30 26016 O 2470.04 -1.65391 -1.01782 0
M  V30 26017 C 2467.17 -3.15442 -1.45306 0
M  V30 26018 C 2466.13 -4.18085 -0.915929 0
M  V30 26019 C 2465.45 -4.91303 -2.11011 0
M  V30 26020 C 2466.75 -5.22272 0.053952 0
M  V30 26021 H 2468.45 -2.97803 0.308819 0
M  V30 26022 H 2465.99 -1.43217 0.149963 0
M  V30 26023 H 2467.95 -3.6988 -2.01908 0
M  V30 26024 H 2466.67 -2.46255 -2.14536 0
M  V30 26025 H 2465.33 -3.64707 -0.372081 0
M  V30 26026 H 2464.98 -4.18614 -2.78875 0
M  V30 26027 H 2464.68 -5.60715 -1.75707 0
M  V30 26028 H 2466.2 -5.48567 -2.68155 0
M  V30 26029 H 2467.62 -5.71745 -0.421969 0
M  V30 26030 H 2466.01 -5.99247 0.319881 0
M  V30 26031 H 2467.08 -4.74714 0.988663 0
M  V30 26032 N 2468.43 -0.175182 -1.56623 0
M  V30 26033 C 2469.38 0.765966 -2.14749 0
M  V30 26034 C 2470.36 1.19017 -1.08277 0
M  V30 26035 O 2471.55 1.15188 -1.3439 0
M  V30 26036 C 2468.68 1.99361 -2.79481 0
M  V30 26037 C 2467.77 1.59123 -3.93117 0
M  V30 26038 N 2468.16 0.898633 -4.97753 0
M  V30 26039 C 2466.46 1.88197 -4.04349 0
M  V30 26040 C 2467.16 0.699911 -5.77474 0
M  V30 26041 N 2466.13 1.24253 -5.29209 0
M  V30 26042 H 2469.94 0.227878 -2.93015 0
M  V30 26043 H 2467.45 0.0253558 -1.6238 0
M  V30 26044 H 2469.45 2.67813 -3.19503 0
M  V30 26045 H 2468.11 2.53661 -2.02697 0
M  V30 26046 H 2469.12 0.556257 -5.14904 0
M  V30 26047 H 2465.79 2.44147 -3.38671 0
M  V30 26048 H 2467.18 0.151929 -6.71728 0
M  V30 26049 N 2469.91 1.57292 0.0985263 0
M  V30 26050 C 2470.87 2.0086 1.10398 0
M  V30 26051 C 2471.87 0.901616 1.33145 0
M  V30 26052 O 2473.06 1.16718 1.29316 0
M  V30 26053 C 2470.19 2.36636 2.4539 0
M  V30 26054 H 2471.38 2.90904 0.729048 0
M  V30 26055 H 2468.94 1.52479 0.343468 0
M  V30 26056 H 2469.67 1.49536 2.87766 0
M  V30 26057 H 2469.46 3.17391 2.30229 0
M  V30 26058 H 2470.95 2.71013 3.17713 0
M  V30 26059 N 2471.38 -0.369261 1.53213 0
M  V30 26060 C 2472.33 -1.45219 1.75771 0
M  V30 26061 C 2473.32 -1.488 0.612162 0
M  V30 26062 O 2474.51 -1.54103 0.870701 0
M  V30 26063 C 2471.64 -2.82697 1.94774 0
M  V30 26064 C 2470.72 -2.83609 3.1532 0
M  V30 26065 N 2471.12 -2.5417 4.373 0
M  V30 26066 C 2469.41 -3.14771 3.15967 0
M  V30 26067 C 2470.11 -2.62666 5.1902 0
M  V30 26068 N 2469.09 -2.97224 4.55147 0
M  V30 26069 H 2472.89 -1.21315 2.67694 0
M  V30 26070 H 2470.41 -0.577411 1.51788 0
M  V30 26071 H 2472.4 -3.60692 2.09062 0
M  V30 26072 H 2471.06 -3.07568 1.04078 0
M  V30 26073 H 2472.07 -2.27831 4.65095 0
M  V30 26074 H 2468.75 -3.44979 2.3515 0
M  V30 26075 H 2470.14 -2.43283 6.26309 0
M  V30 26076 N 2472.86 -1.4451 -0.628851 0
M  V30 26077 C 2474.11 -1.47122 -1.38562 0
M  V30 26078 C 2474.43 -0.105933 -1.94712 0
M  V30 26079 O 2473.7 0.862048 -1.75913 0
M  V30 26080 H 2472.28 -0.541738 -0.514324 0
M  V30 26081 H 2474.94 -1.80306 -0.739986 0
M  V30 26082 H 2474.04 -2.19793 -2.21579 0
M  V30 26083 N 2474.34 0.869463 -1.31446 0
M  V30 26084 C 2475.27 1.99259 -1.2173 0
M  V30 26085 C 2476.25 1.69779 -0.104389 0
M  V30 26086 O 2477.44 1.92036 -0.289072 0
M  V30 26087 C 2474.57 3.34772 -0.924376 0
M  V30 26088 C 2473.52 3.78559 -1.99692 0
M  V30 26089 C 2472.85 5.11539 -1.55667 0
M  V30 26090 C 2474.15 3.95613 -3.4101 0
M  V30 26091 H 2475.84 2.07645 -2.15694 0
M  V30 26092 H 2473.39 0.997657 -1.0384 0
M  V30 26093 H 2475.34 4.12882 -0.843006 0
M  V30 26094 H 2474.06 3.2656 0.0509219 0
M  V30 26095 H 2472.72 3.02691 -2.06819 0
M  V30 26096 H 2472.37 4.99769 -0.569219 0
M  V30 26097 H 2472.07 5.41807 -2.27419 0
M  V30 26098 H 2473.59 5.92157 -1.48939 0
M  V30 26099 H 2475.01 4.64116 -3.36555 0
M  V30 26100 H 2473.4 4.37279 -4.10983 0
M  V30 26101 H 2474.47 2.98979 -3.81759 0
M  V30 26102 N 2475.82 1.14415 1.08383 0
M  V30 26103 C 2477.04 0.936445 1.85055 0
M  V30 26104 C 2477.47 -0.509939 1.81056 0
M  V30 26105 O 2476.83 -1.36271 1.19582 0
M  V30 26106 C 2476.87 1.44223 3.30503 0
M  V30 26107 O 2475.98 0.63448 4.0749 0
M  V30 26108 H 2475.32 0.334794 0.573419 0
M  V30 26109 H 2477.85 1.52144 1.36797 0
M  V30 26110 H 2477.86 1.4505 3.81346 0
M  V30 26111 H 2476.53 2.49528 3.32729 0
M  V30 26112 H 2475.11 0.694967 3.66367 0
M  V30 26113 N 2477.3 -1.26549 0.939309 0
M  V30 26114 C 2478.53 -1.97644 0.601697 0
M  V30 26115 C 2478.93 -1.7016 -0.827176 0
M  V30 26116 O 2478.28 -0.965366 -1.56289 0
M  V30 26117 C 2478.34 -3.51336 0.761787 0
M  V30 26118 C 2478 -4.02466 2.16494 0
M  V30 26119 C 2479 -4.14349 3.14024 0
M  V30 26120 C 2476.68 -4.36523 2.48501 0
M  V30 26121 C 2478.68 -4.59579 4.41662 0
M  V30 26122 C 2476.37 -4.81442 3.76373 0
M  V30 26123 C 2477.36 -4.92931 4.72766 0
M  V30 26124 O 2477.05 -5.3686 5.98361 0
M  V30 26125 H 2476.78 -0.637185 0.225769 0
M  V30 26126 H 2479.34 -1.62073 1.26181 0
M  V30 26127 H 2477.57 -3.86674 0.0445488 0
M  V30 26128 H 2479.26 -4.03642 0.427513 0
M  V30 26129 H 2480.02 -3.88285 2.90619 0
M  V30 26130 H 2475.9 -4.26816 1.74209 0
M  V30 26131 H 2479.45 -4.68461 5.16904 0
M  V30 26132 H 2475.34 -5.06949 3.99591 0
M  V30 26133 H 2476.11 -5.55086 6.01516 0
M  V30 26134 N 2478.77 -0.706118 -1.40896 0
M  V30 26135 C 2479.68 -0.0482698 -2.3455 0
M  V30 26136 C 2480.7 0.754369 -1.56797 0
M  V30 26137 O 2481.88 0.689505 -1.89229 0
M  V30 26138 C 2478.94 0.869244 -3.35626 0
M  V30 26139 C 2478 0.057624 -4.29261 0
M  V30 26140 C 2477.23 0.931439 -5.25509 0
M  V30 26141 O 2477.46 2.17083 -5.27476 0
M  V30 26142 O 2476.39 0.375481 -6.00728 0
M  V30 26143 H 2480.22 -0.820527 -2.92406 0
M  V30 26144 H 2477.8 -0.466525 -1.41929 0
M  V30 26145 H 2479.68 1.39507 -3.97638 0
M  V30 26146 H 2478.36 1.62081 -2.80199 0
M  V30 26147 H 2477.27 -0.513053 -3.70565 0
M  V30 26148 H 2478.6 -0.655512 -4.87815 0
M  V30 26149 N 2480.25 1.50991 -0.451617 0
M  V30 26150 C 2481.2 2.28091 0.352585 0
M  V30 26151 C 2482.17 1.32293 1.00438 0
M  V30 26152 O 2483.35 1.61212 1.02055 0
M  V30 26153 C 2480.49 3.13631 1.43977 0
M  V30 26154 C 2479.61 4.24439 0.804697 0
M  V30 26155 C 2478.74 4.97267 1.86813 0
M  V30 26156 C 2477.78 5.99976 1.21226 0
M  V30 26157 N 2476.92 6.66156 2.21768 0
M  V30 26158 H 2481.76 2.9637 -0.311238 0
M  V30 26159 H 2479.29 1.46168 -0.165333 0
M  V30 26160 H 2481.25 3.61563 2.08155 0
M  V30 26161 H 2479.88 2.47438 2.07303 0
M  V30 26162 H 2478.93 3.80366 0.050846 0
M  V30 26163 H 2480.25 4.97979 0.285989 0
M  V30 26164 H 2479.4 5.48818 2.58619 0
M  V30 26165 H 2478.14 4.23389 2.4206 0
M  V30 26166 H 2477.14 5.47703 0.479732 0
M  V30 26167 H 2478.37 6.75817 0.666933 0
M  V30 26168 H 2476.32 5.95082 2.76069 0
M  V30 26169 H 2476.23 7.35507 1.74828 0
M  V30 26170 H 2477.5 7.22332 2.93013 0
M  V30 26171 N 2481.73 0.183486 1.56528 0
M  V30 26172 C 2482.95 -0.467393 2.02065 0
M  V30 26173 C 2483.38 -1.55194 1.06285 0
M  V30 26174 O 2482.74 -1.81246 0.0443883 0
M  V30 26175 C 2482.79 -1.01147 3.46124 0
M  V30 26176 O 2481.89 -2.12493 3.53441 0
M  V30 26177 H 2481.23 -0.110577 0.654728 0
M  V30 26178 H 2483.76 0.290953 2.02521 0
M  V30 26179 H 2483.77 -1.33101 3.85679 0
M  V30 26180 H 2482.45 -0.21746 4.15331 0
M  V30 26181 H 2481.02 -1.81491 3.25754 0
M  V30 26182 N 2483.21 -1.57342 -0.0901833 0
M  V30 26183 C 2484.43 -1.90927 -0.810049 0
M  V30 26184 C 2484.86 -0.778217 -1.71247 0
M  V30 26185 O 2484.22 0.269959 -1.79279 0
M  V30 26186 C 2484.26 -3.23396 -1.59523 0
M  V30 26187 O 2483.37 -3.11332 -2.70456 0
M  V30 26188 H 2482.71 -0.625711 -0.22222 0
M  V30 26189 H 2485.24 -2.045 -0.0639357 0
M  V30 26190 H 2485.25 -3.56823 -1.97841 0
M  V30 26191 H 2483.92 -4.053 -0.932983 0
M  V30 26192 H 2482.5 -2.89428 -2.3513 0
M  V30 26193 N 2484.69 0.36113 -1.53407 0
M  V30 26194 C 2485.6 1.46637 -1.83125 0
M  V30 26195 C 2486.61 1.58406 -0.719971 0
M  V30 26196 O 2487.79 1.74216 -1.01049 0
M  V30 26197 C 2484.85 2.81849 -2.01896 0
M  V30 26198 C 2483.91 2.79571 -3.25789 0
M  V30 26199 C 2483.15 4.08334 -3.43655 0
M  V30 26200 O 2483.37 5.04725 -2.65723 0
M  V30 26201 O 2482.3 4.13875 -4.37025 0
M  V30 26202 H 2486.13 1.24446 -2.77032 0
M  V30 26203 H 2483.72 0.551654 -1.38842 0
M  V30 26204 H 2485.6 3.61958 -2.15788 0
M  V30 26205 H 2484.27 3.04008 -1.11178 0
M  V30 26206 H 2483.18 1.98145 -3.17316 0
M  V30 26207 H 2484.51 2.62366 -4.16443 0
M  V30 26208 N 2486.16 1.44842 0.621179 0
M  V30 26209 C 2487.41 1.47855 1.3778 0
M  V30 26210 C 2487.73 0.116258 1.94653 0
M  V30 26211 O 2487 -0.852706 1.76368 0
M  V30 26212 H 2485.58 0.544458 0.511443 0
M  V30 26213 H 2488.25 1.80696 0.730414 0
M  V30 26214 H 2487.34 2.20965 2.20411 0
M  V30 26215 N 2487.64 -0.862479 1.31905 0
M  V30 26216 C 2488.59 -1.97038 1.20186 0
M  V30 26217 C 2489.56 -1.65878 0.0858539 0
M  V30 26218 O 2490.74 -1.8902 0.260033 0
M  V30 26219 C 2487.88 -3.32532 0.922855 0
M  V30 26220 C 2487 -3.7624 2.1229 0
M  V30 26221 C 2486.13 -5.00487 1.78005 0
M  V30 26222 C 2485.17 -5.36665 2.94375 0
M  V30 26223 N 2484.31 -6.52091 2.60235 0
M  V30 26224 H 2489.15 -2.06394 2.14954 0
M  V30 26225 H 2486.69 -1.01029 1.06918 0
M  V30 26226 H 2488.64 -4.10556 0.74162 0
M  V30 26227 H 2487.27 -3.22798 0.0119794 0
M  V30 26228 H 2486.33 -2.93935 2.41467 0
M  V30 26229 H 2487.64 -3.98977 2.99364 0
M  V30 26230 H 2486.79 -5.86198 1.56388 0
M  V30 26231 H 2485.53 -4.7967 0.881336 0
M  V30 26232 H 2484.54 -4.49471 3.16633 0
M  V30 26233 H 2485.76 -5.59444 3.84967 0
M  V30 26234 H 2483.71 -6.32806 1.72896 0
M  V30 26235 H 2483.62 -6.74808 3.40838 0
M  V30 26236 H 2484.89 -7.40974 2.42029 0
M  V30 26237 N 2489.12 -1.14988 -1.07775 0
M  V30 26238 C 2490.35 -0.945805 -1.84017 0
M  V30 26239 C 2490.76 0.505831 -1.81898 0
M  V30 26240 O 2490.12 1.3507 -1.22729 0
M  V30 26241 C 2490.17 -1.44683 -3.31284 0
M  V30 26242 O 2489.89 -2.8416 -3.33444 0
M  V30 26243 C 2491.39 -1.28362 -4.24309 0
M  V30 26244 H 2488.61 -0.336179 -0.580711 0
M  V30 26245 H 2491.16 -1.52657 -1.36074 0
M  V30 26246 H 2489.31 -0.908691 -3.76592 0
M  V30 26247 H 2489.73 -3.06785 -4.25422 0
M  V30 26248 H 2491.2 -1.6827 -5.25727 0
M  V30 26249 H 2491.68 -0.227261 -4.38612 0
M  V30 26250 H 2492.28 -1.81063 -3.84833 0
M  V30 26251 N 2490.6 1.26049 -0.946007 0
M  V30 26252 C 2491.83 1.97322 -0.61217 0
M  V30 26253 C 2492.24 1.70596 0.818141 0
M  V30 26254 O 2491.58 0.97364 1.55775 0
M  V30 26255 C 2491.64 3.50927 -0.780408 0
M  V30 26256 C 2491.31 4.01313 -2.18626 0
M  V30 26257 C 2492.3 4.12678 -3.16217 0
M  V30 26258 C 2489.99 4.35199 -2.50813 0
M  V30 26259 C 2491.98 4.57231 -4.44093 0
M  V30 26260 C 2489.67 4.79439 -3.78921 0
M  V30 26261 C 2490.67 4.90417 -4.75374 0
M  V30 26262 O 2490.35 5.3368 -6.012 0
M  V30 26263 H 2490.09 0.635978 -0.229145 0
M  V30 26264 H 2492.64 1.61401 -1.27039 0
M  V30 26265 H 2490.87 3.86645 -0.0650544 0
M  V30 26266 H 2492.56 4.0341 -0.448913 0
M  V30 26267 H 2493.33 3.86738 -2.92674 0
M  V30 26268 H 2489.2 4.25886 -1.7647 0
M  V30 26269 H 2492.75 4.65714 -5.19381 0
M  V30 26270 H 2488.65 5.04823 -4.02274 0
M  V30 26271 H 2489.41 5.51888 -6.04452 0
M  V30 26272 N 2492.08 0.71358 1.4052 0
M  V30 26273 C 2492.99 0.0607079 2.34521 0
M  V30 26274 C 2494 -0.746043 1.57195 0
M  V30 26275 O 2495.18 -0.67946 1.89592 0
M  V30 26276 C 2492.24 -0.851432 3.36083 0
M  V30 26277 C 2491.3 -0.0348584 4.29286 0
M  V30 26278 C 2490.54 -0.903557 5.25996 0
M  V30 26279 O 2490.76 -2.14282 5.2862 0
M  V30 26280 O 2489.69 -0.343618 6.00918 0
M  V30 26281 H 2493.52 0.836023 2.91966 0
M  V30 26282 H 2491.11 0.474045 1.4168 0
M  V30 26283 H 2492.99 -1.37397 3.98372 0
M  V30 26284 H 2491.66 -1.60593 2.81055 0
M  V30 26285 H 2490.57 0.532698 3.70288 0
M  V30 26286 H 2491.9 0.681372 4.87461 0
M  V30 26287 N 2493.55 -1.50749 0.459618 0
M  V30 26288 C 2494.83 -1.94942 -0.160336 0
M  V30 26289 C 2495.21 -1.39946 -1.58046 0
M  V30 26290 O 2494.56 -0.595668 -2.20599 0
M  V30 26291 C 2494.77 -3.48809 -0.115371 0
M  V30 26292 C 2496.12 -4.23467 -0.309952 0
M  V30 26293 O 2497.14 -3.5568 -0.192481 0
M  V30 26294 O 2496 -5.43766 -0.545935 0
M  V30 26295 H 2493.09 -0.818551 -0.11791 0
M  V30 26296 H 2495.64 -1.61562 0.519198 0
M  V30 26297 H 2494.41 -3.81355 0.876587 0
M  V30 26298 H 2494.04 -3.88693 -0.836859 0
M  V30 26299 N 2495.03 -0.191784 -1.56429 0
M  V30 26300 C 2496.31 0.495298 -1.89225 0
M  V30 26301 C 2496.69 1.79881 -1.10481 0
M  V30 26302 O 2496.04 2.2758 -0.204892 0
M  V30 26303 C 2496.25 0.717307 -3.41549 0
M  V30 26304 C 2497.6 1.03816 -4.11713 0
M  V30 26305 O 2498.62 0.805143 -3.46981 0
M  V30 26306 O 2497.48 1.47878 -5.26112 0
M  V30 26307 H 2494.57 0.257796 -0.785793 0
M  V30 26308 H 2497.12 -0.23175 -1.6811 0
M  V30 26309 H 2495.89 -0.203356 -3.90771 0
M  V30 26310 H 2495.51 1.49693 -3.68344 0
M  V30 26311 N 2496.51 1.57387 0.0818378 0
M  V30 26312 C 2497.74 1.91354 0.799912 0
M  V30 26313 C 2498.16 0.787288 1.70831 0
M  V30 26314 O 2497.52 -0.260448 1.7942 0
M  V30 26315 C 2497.57 3.24237 1.57806 0
M  V30 26316 O 2496.67 3.12762 2.68801 0
M  V30 26317 H 2496.01 0.626881 0.218899 0
M  V30 26318 H 2498.54 2.04531 0.0530896 0
M  V30 26319 H 2498.55 3.57868 1.95946 0
M  V30 26320 H 2497.23 4.05789 0.911476 0
M  V30 26321 H 2495.8 2.9067 2.33592 0
M  V30 26322 N 2497.99 -0.35299 1.53596 0
M  V30 26323 C 2499.4 -0.929124 1.61939 0
M  V30 26324 C 2499.75 -1.8986 0.494719 0
M  V30 26325 O 2498.88 -2.13091 -0.376979 0
M  V30 26326 C 2499.47 -1.69193 2.93529 0
M  V30 26327 C 2498.03 -2.21722 3.04165 0
M  V30 26328 C 2497.18 -1.03344 2.57323 0
M  V30 26329 H 2500.13 -0.131403 1.58155 0
M  V30 26330 H 2500.15 -2.55411 2.82038 0
M  V30 26331 H 2499.66 -0.986078 3.75364 0
M  V30 26332 H 2497.76 -2.95512 2.26944 0
M  V30 26333 H 2497.87 -2.48741 4.09469 0
M  V30 26334 H 2496.24 -1.4041 2.12502 0
M  V30 26335 H 2497.02 -0.342368 3.41589 0
M  V30 26336 N 2499.47 -1.45169 -0.613489 0
M  V30 26337 C 2500.38 -1.55915 -1.75293 0
M  V30 26338 C 2501.39 -0.443886 -1.68243 0
M  V30 26339 O 2502.57 -0.703743 -1.88705 0
M  V30 26340 C 2499.63 -1.51725 -3.11738 0
M  V30 26341 C 2498.7 -2.74244 -3.30286 0
M  V30 26342 C 2497.93 -2.70244 -4.60221 0
M  V30 26343 O 2498.15 -1.77239 -5.42165 0
M  V30 26344 O 2497.09 -3.6136 -4.81355 0
M  V30 26345 H 2500.91 -2.52215 -1.69178 0
M  V30 26346 H 2498.5 -1.27613 -0.776864 0
M  V30 26347 H 2500.38 -1.51975 -3.93041 0
M  V30 26348 H 2499.05 -0.585753 -3.18356 0
M  V30 26349 H 2497.96 -2.79557 -2.48593 0
M  V30 26350 H 2499.29 -3.665 -3.28541 0
M  V30 26351 N 2500.95 0.855472 -1.32361 0
M  V30 26352 C 2502.19 1.6118 -1.24067 0
M  V30 26353 C 2502.55 1.914 0.19588 0
M  V30 26354 O 2501.84 1.5448 1.13342 0
M  V30 26355 C 2502.03 2.93959 -2.0328 0
M  V30 26356 C 2501.86 2.76706 -3.54491 0
M  V30 26357 C 2500.63 2.75131 -4.23829 0
M  V30 26358 C 2502.83 2.50523 -4.49158 0
M  V30 26359 N 2500.81 2.4908 -5.61099 0
M  V30 26360 C 2502.18 2.3387 -5.74199 0
M  V30 26361 C 2504.24 2.35984 -4.38424 0
M  V30 26362 C 2502.94 2.04156 -6.89719 0
M  V30 26363 C 2504.97 2.07661 -5.53743 0
M  V30 26364 C 2504.33 1.91808 -6.77783 0
M  V30 26365 H 2500.43 0.593541 -0.509149 0
M  V30 26366 H 2503.01 1.00566 -1.66717 0
M  V30 26367 H 2501.18 3.52553 -1.62976 0
M  V30 26368 H 2502.92 3.58964 -1.86887 0
M  V30 26369 H 2499.67 2.8804 -3.75939 0
M  V30 26370 H 2500.09 2.38985 -6.33415 0
M  V30 26371 H 2504.74 2.46961 -3.43176 0
M  V30 26372 H 2502.45 1.91916 -7.8498 0
M  V30 26373 H 2506.04 1.97191 -5.47364 0
M  V30 26374 H 2504.92 1.70203 -7.65507 0
M  V30 26375 N 2502.42 1.15558 1.07164 0
M  V30 26376 C 2503.67 0.931636 1.79797 0
M  V30 26377 C 2504 -0.541117 1.86821 0
M  V30 26378 O 2503.25 -1.41733 1.34945 0
M  V30 26379 C 2503.55 1.49337 3.24705 0
M  V30 26380 C 2503.22 2.98694 3.37776 0
M  V30 26381 C 2501.88 3.39467 3.41051 0
M  V30 26382 C 2504.23 3.94671 3.40417 0
M  V30 26383 C 2501.56 4.74855 3.44572 0
M  V30 26384 C 2503.91 5.29933 3.45476 0
M  V30 26385 C 2502.58 5.70199 3.47029 0
M  V30 26386 H 2501.85 0.34091 0.657922 0
M  V30 26387 H 2504.49 1.44132 1.26089 0
M  V30 26388 H 2502.8 0.904926 3.81206 0
M  V30 26389 H 2504.5 1.29589 3.79484 0
M  V30 26390 H 2501.09 2.66178 3.35927 0
M  V30 26391 H 2505.27 3.64243 3.37106 0
M  V30 26392 H 2500.53 5.05394 3.44074 0
M  V30 26393 H 2504.7 6.04098 3.46466 0
M  V30 26394 H 2502.33 6.7509 3.4951 0
M  V30 26395 N 2503.9 -1.25546 0.952678 0
M  V30 26396 C 2504.85 -2.25961 0.47012 0
M  V30 26397 C 2505.82 -1.59123 -0.476356 0
M  V30 26398 O 2507 -1.86771 -0.390037 0
M  V30 26399 C 2504.14 -3.44209 -0.24782 0
M  V30 26400 C 2503.26 -4.2569 0.735666 0
M  V30 26401 C 2502.39 -5.312 -0.00463723 0
M  V30 26402 C 2501.43 -6.04367 0.969911 0
M  V30 26403 N 2500.57 -7.01616 0.260609 0
M  V30 26404 H 2505.41 -2.66609 1.33131 0
M  V30 26405 H 2502.94 -1.31075 0.667673 0
M  V30 26406 H 2504.9 -4.11611 -0.680622 0
M  V30 26407 H 2503.53 -3.04442 -1.07307 0
M  V30 26408 H 2502.58 -3.57969 1.28695 0
M  V30 26409 H 2503.9 -4.76355 1.47942 0
M  V30 26410 H 2503.05 -6.04668 -0.496169 0
M  V30 26411 H 2501.79 -4.81403 -0.781198 0
M  V30 26412 H 2500.79 -5.29716 1.47246 0
M  V30 26413 H 2502.02 -6.56253 1.74667 0
M  V30 26414 H 2499.97 -6.54113 -0.497249 0
M  V30 26415 H 2499.88 -7.50089 0.943494 0
M  V30 26416 H 2501.15 -7.79219 -0.20945 0
M  V30 26417 N 2505.38 -0.721022 -1.40139 0
M  V30 26418 C 2506.29 -0.0731443 -2.34486 0
M  V30 26419 C 2507.31 0.737696 -1.57588 0
M  V30 26420 O 2508.48 0.669396 -1.8995 0
M  V30 26421 C 2505.55 0.833597 -3.36529 0
M  V30 26422 C 2504.61 0.0120918 -4.29298 0
M  V30 26423 C 2503.84 0.875649 -5.26468 0
M  V30 26424 O 2504.06 2.11476 -5.29749 0
M  V30 26425 O 2503 0.311745 -6.01092 0
M  V30 26426 H 2506.82 -0.851495 -2.91519 0
M  V30 26427 H 2504.41 -0.481552 -1.41426 0
M  V30 26428 H 2506.29 1.35282 -3.99095 0
M  V30 26429 H 2504.97 1.591 -2.81902 0
M  V30 26430 H 2503.87 -0.552327 -3.7 0
M  V30 26431 H 2505.21 -0.707214 -4.87093 0
M  V30 26432 N 2506.86 1.50503 -0.467606 0
M  V30 26433 C 2508.13 1.95024 0.149996 0
M  V30 26434 C 2508.51 1.40782 1.57301 0
M  V30 26435 O 2507.86 0.607358 2.2028 0
M  V30 26436 C 2508.07 3.48866 0.0968711 0
M  V30 26437 C 2509.42 4.23626 0.28749 0
M  V30 26438 O 2510.44 3.55777 0.173615 0
M  V30 26439 O 2509.3 5.44048 0.51709 0
M  V30 26440 H 2506.4 0.819165 0.113568 0
M  V30 26441 H 2508.94 1.61285 -0.527758 0
M  V30 26442 H 2507.72 3.80885 -0.896798 0
M  V30 26443 H 2507.34 3.89132 0.816234 0
M  V30 26444 N 2508.34 0.200077 1.56325 0
M  V30 26445 C 2509.28 -0.735443 2.20667 0
M  V30 26446 C 2510.28 -1.21603 1.17937 0
M  V30 26447 O 2511.48 -1.17835 1.3607 0
M  V30 26448 H 2507.86 -0.255529 0.707254 0
M  V30 26449 H 2509.83 -0.169114 2.9792 0
M  V30 26450 C 2508.58 -1.94227 2.88394 0
M  V30 26451 H 2507.9 -1.58155 3.67188 0
M  V30 26452 H 2509.34 -2.57511 3.36844 0
M  V30 26453 C 2507.8 -2.78418 1.89697 0
M  V30 26454 O 2508.33 -3.765 1.40038 0
M  V30 26455 N 2506.54 -2.44013 1.57817 0
M  V30 26456 H 2506.08 -1.6431 1.98393 0
M  V30 26457 H 2506.04 -3.00627 0.920378 0
M  V30 26458 N 2509.81 -1.57429 -0.0734901 0
M  V30 26459 C 2510.78 -2.02591 -1.07189 0
M  V30 26460 C 2511.78 -0.922684 -1.31694 0
M  V30 26461 O 2512.97 -1.1876 -1.27443 0
M  V30 26462 C 2510.1 -2.4051 -2.41594 0
M  V30 26463 H 2511.29 -2.92027 -0.682676 0
M  V30 26464 H 2508.84 -1.53007 -0.319167 0
M  V30 26465 H 2509.58 -1.54095 -2.85351 0
M  V30 26466 H 2509.36 -3.21013 -2.25151 0
M  V30 26467 H 2510.85 -2.76033 -3.13362 0
M  V30 26468 N 2511.29 0.344839 -1.53781 0
M  V30 26469 C 2512.54 1.08684 -1.71218 0
M  V30 26470 C 2512.87 1.88344 -0.473314 0
M  V30 26471 O 2512.15 1.8715 0.529647 0
M  V30 26472 C 2512.43 2.02909 -2.97489 0
M  V30 26473 C 2512.28 1.2672 -4.31581 0
M  V30 26474 C 2513.6 3.02745 -3.19427 0
M  V30 26475 H 2510.72 0.393724 -0.623017 0
M  V30 26476 H 2513.36 0.36553 -1.86451 0
M  V30 26477 H 2511.51 2.64416 -2.84634 0
M  V30 26478 H 2513.18 0.67837 -4.56285 0
M  V30 26479 H 2511.43 0.569197 -4.3005 0
M  V30 26480 H 2512.1 1.95793 -5.16109 0
M  V30 26481 H 2514.57 2.51351 -3.31605 0
M  V30 26482 H 2513.45 3.65878 -4.09176 0
M  V30 26483 H 2513.71 3.74053 -2.35663 0
M  V30 26484 N 2512.77 1.45492 0.605781 0
M  V30 26485 C 2513.7 1.50313 1.73028 0
M  V30 26486 C 2514.71 0.393715 1.57967 0
M  V30 26487 O 2515.9 0.660868 1.65816 0
M  V30 26488 C 2513 1.34548 3.11047 0
M  V30 26489 C 2512.18 2.59196 3.5233 0
M  V30 26490 C 2511.24 2.37962 4.69319 0
M  V30 26491 O 2510.26 3.11583 4.76345 0
M  V30 26492 N 2511.46 1.4264 5.62703 0
M  V30 26493 H 2514.23 2.47263 1.69356 0
M  V30 26494 H 2511.79 1.41255 0.791115 0
M  V30 26495 H 2513.78 1.18151 3.87069 0
M  V30 26496 H 2512.35 0.458677 3.09217 0
M  V30 26497 H 2511.57 2.90696 2.66251 0
M  V30 26498 H 2512.86 3.42047 3.76671 0
M  V30 26499 H 2512.26 0.818856 5.59742 0
M  V30 26500 H 2510.81 1.32214 6.3825 0
M  V30 26501 N 2514.25 -0.848441 1.32813 0
M  V30 26502 C 2515.66 -1.41912 1.21317 0
M  V30 26503 C 2516.01 -1.95446 -0.171812 0
M  V30 26504 O 2515.14 -1.88045 -1.07089 0
M  V30 26505 C 2515.73 -2.57964 2.19636 0
M  V30 26506 C 2514.29 -3.11013 2.12008 0
M  V30 26507 C 2513.44 -1.83779 2.07655 0
M  V30 26508 H 2516.39 -0.655045 1.44551 0
M  V30 26509 H 2516.41 -3.35312 1.79851 0
M  V30 26510 H 2515.92 -2.18971 3.20427 0
M  V30 26511 H 2514.02 -3.54575 1.14487 0
M  V30 26512 H 2514.13 -3.71836 3.02117 0
M  V30 26513 H 2512.5 -2.03635 1.52986 0
M  V30 26514 H 2513.28 -1.46994 3.10238 0
M  V30 26515 N 2515.73 -1.16125 -1.06549 0
M  V30 26516 C 2516.67 -0.861409 -2.16061 0
M  V30 26517 C 2517.67 0.168487 -1.6856 0
M  V30 26518 O 2518.87 0.0227263 -1.79986 0
M  V30 26519 H 2515.25 -0.260946 -0.705274 0
M  V30 26520 H 2517.22 -1.79248 -2.38564 0
M  V30 26521 C 2515.97 -0.376079 -3.4566 0
M  V30 26522 H 2515.29 -1.15998 -3.82602 0
M  V30 26523 H 2516.73 -0.205026 -4.23504 0
M  V30 26524 C 2515.19 0.903897 -3.24548 0
M  V30 26525 O 2515.72 1.97371 -3.49868 0
M  V30 26526 N 2513.93 0.84663 -2.77994 0
M  V30 26527 H 2513.47 -0.024147 -2.57589 0
M  V30 26528 H 2513.43 1.70355 -2.64247 0
M  V30 26529 N 2517.2 1.25039 -0.959323 0
M  V30 26530 C 2518.43 1.97487 -0.633541 0
M  V30 26531 C 2518.85 1.70774 0.788525 0
M  V30 26532 O 2518.21 0.966458 1.53393 0
M  V30 26533 C 2518.26 3.49082 -0.904119 0
M  V30 26534 O 2517.36 4.12397 0.0147214 0
M  V30 26535 H 2516.71 0.618962 -0.240379 0
M  V30 26536 H 2519.24 1.59036 -1.28719 0
M  V30 26537 H 2519.25 3.99421 -0.832273 0
M  V30 26538 H 2517.92 3.67853 -1.94054 0
M  V30 26539 H 2516.5 3.72739 -0.10973 0
M  V30 26540 N 2518.68 0.728444 1.39755 0
M  V30 26541 C 2519.91 0.282195 2.05471 0
M  V30 26542 C 2520.33 -1.07218 1.54551 0
M  V30 26543 O 2519.69 -1.67804 0.686401 0
M  V30 26544 C 2519.74 0.286327 3.59461 0
M  V30 26545 O 2518.84 -0.728227 4.05919 0
M  V30 26546 H 2518.18 0.129629 0.651224 0
M  V30 26547 H 2520.71 0.992531 1.78913 0
M  V30 26548 H 2520.72 0.128444 4.07798 0
M  V30 26549 H 2519.4 1.27463 3.95886 0
M  V30 26550 H 2517.98 -0.537017 3.69013 0
M  V30 26551 N 2520.16 -1.50253 0.475581 0
M  V30 26552 C 2521.39 -2.06463 -0.0753036 0
M  V30 26553 C 2521.8 -1.3391 -1.33659 0
M  V30 26554 O 2521.14 -0.403288 -1.79219 0
M  V30 26555 C 2521.2 -3.56981 -0.424858 0
M  V30 26556 C 2520.87 -4.5105 0.735045 0
M  V30 26557 C 2521.86 -4.9407 1.61836 0
M  V30 26558 C 2519.55 -4.93679 0.926644 0
M  V30 26559 C 2521.54 -5.7843 2.67764 0
M  V30 26560 C 2519.23 -5.7782 1.98914 0
M  V30 26561 C 2520.23 -6.20098 2.86301 0
M  V30 26562 O 2519.92 -7.02561 3.90721 0
M  V30 26563 H 2519.65 -0.675975 0.00577496 0
M  V30 26564 H 2522.2 -1.94347 0.664696 0
M  V30 26565 H 2520.43 -3.67014 -1.21811 0
M  V30 26566 H 2522.12 -3.95537 -0.911353 0
M  V30 26567 H 2522.89 -4.61801 1.48204 0
M  V30 26568 H 2518.77 -4.60289 0.255921 0
M  V30 26569 H 2522.31 -6.11349 3.36003 0
M  V30 26570 H 2518.21 -6.09502 2.12551 0
M  V30 26571 H 2518.98 -7.2082 3.87764 0
M  V30 26572 N 2521.64 -0.208365 -1.56217 0
M  V30 26573 C 2522.87 0.432114 -2.02337 0
M  V30 26574 C 2523.28 1.54273 -1.08837 0
M  V30 26575 O 2522.64 1.8225 -0.0955782 0
M  V30 26576 C 2522.69 0.976077 -3.48073 0
M  V30 26577 O 2522.41 -0.090239 -4.38007 0
M  V30 26578 C 2523.91 1.69112 -4.09776 0
M  V30 26579 H 2521.13 0.107168 -0.662387 0
M  V30 26580 H 2523.68 -0.320958 -2.01966 0
M  V30 26581 H 2521.83 1.67948 -3.49102 0
M  V30 26582 H 2522.24 0.316609 -5.23544 0
M  V30 26583 H 2523.72 2.02388 -5.13559 0
M  V30 26584 H 2524.2 2.59958 -3.54004 0
M  V30 26585 H 2524.8 1.03325 -4.12558 0
M  V30 26586 N 2523.12 1.57465 0.0651402 0
M  V30 26587 C 2524.35 1.91527 0.77465 0
M  V30 26588 C 2524.75 0.803227 1.71304 0
M  V30 26589 O 2524.1 -0.231849 1.82231 0
M  V30 26590 C 2524.16 3.21112 1.6164 0
M  V30 26591 C 2523.82 4.49088 0.846674 0
M  V30 26592 C 2524.82 5.19645 0.162933 0
M  V30 26593 C 2522.51 4.95695 0.811879 0
M  V30 26594 C 2524.5 6.35063 -0.545301 0
M  V30 26595 C 2522.19 6.11018 0.0998762 0
M  V30 26596 C 2523.18 6.80554 -0.577507 0
M  V30 26597 O 2522.87 7.93676 -1.27803 0
M  V30 26598 H 2522.6 0.63745 0.225019 0
M  V30 26599 H 2525.16 2.05365 0.0376773 0
M  V30 26600 H 2523.39 3.03501 2.39633 0
M  V30 26601 H 2525.08 3.40773 2.20519 0
M  V30 26602 H 2525.84 4.84662 0.181078 0
M  V30 26603 H 2521.72 4.4144 1.32859 0
M  V30 26604 H 2525.27 6.89274 -1.07458 0
M  V30 26605 H 2521.16 6.45451 0.0796811 0
M  V30 26606 H 2521.93 8.09833 -1.18798 0
M  V30 26607 N 2524.59 -0.336679 1.53962 0
M  V30 26608 C 2525.84 -1.07774 1.71792 0
M  V30 26609 C 2526.17 -1.8809 0.483296 0
M  V30 26610 O 2525.45 -1.87428 -0.519714 0
M  V30 26611 C 2525.73 -2.01328 2.98561 0
M  V30 26612 C 2525.58 -1.24429 4.32247 0
M  V30 26613 C 2526.9 -3.01046 3.21028 0
M  V30 26614 H 2524.02 -0.390415 0.625096 0
M  V30 26615 H 2526.66 -0.355637 1.86642 0
M  V30 26616 H 2524.81 -2.62903 2.86032 0
M  V30 26617 H 2526.49 -0.654162 4.56638 0
M  V30 26618 H 2524.73 -0.546383 4.30345 0
M  V30 26619 H 2525.4 -1.93054 5.1714 0
M  V30 26620 H 2527.88 -2.49589 3.32933 0
M  V30 26621 H 2526.75 -3.63702 4.1111 0
M  V30 26622 H 2527.01 -3.72798 2.37643 0
M  V30 26623 N 2526.07 -1.45812 -0.598057 0
M  V30 26624 C 2527.32 -1.51537 -1.35676 0
M  V30 26625 C 2527.67 -0.158674 -1.91745 0
M  V30 26626 O 2526.97 0.830694 -1.72656 0
M  V30 26627 C 2527.16 -2.53771 -2.51665 0
M  V30 26628 C 2526.99 -3.99248 -2.06956 0
M  V30 26629 C 2525.76 -4.6712 -1.92685 0
M  V30 26630 C 2527.96 -4.87503 -1.63846 0
M  V30 26631 N 2525.94 -5.97278 -1.41886 0
M  V30 26632 C 2527.31 -6.07365 -1.24531 0
M  V30 26633 C 2529.37 -4.74283 -1.51524 0
M  V30 26634 C 2528.07 -7.15471 -0.741228 0
M  V30 26635 C 2530.09 -5.82446 -1.0252 0
M  V30 26636 C 2529.46 -7.01471 -0.641745 0
M  V30 26637 H 2525.56 -0.609421 -0.490031 0
M  V30 26638 H 2528.14 -1.8234 -0.682655 0
M  V30 26639 H 2526.31 -2.24904 -3.16659 0
M  V30 26640 H 2528.04 -2.49585 -3.18574 0
M  V30 26641 H 2524.8 -4.22411 -2.14162 0
M  V30 26642 H 2525.22 -6.66514 -1.18692 0
M  V30 26643 H 2529.86 -3.82667 -1.79793 0
M  V30 26644 H 2527.58 -8.06868 -0.446101 0
M  V30 26645 H 2531.17 -5.74254 -0.933987 0
M  V30 26646 H 2530.05 -7.83741 -0.268393 0
M  V30 26647 N 2527.55 0.841385 -1.33261 0
M  V30 26648 C 2528.5 1.93943 -1.19876 0
M  V30 26649 C 2529.48 1.60574 -0.102297 0
M  V30 26650 O 2530.68 1.73894 -0.330144 0
M  V30 26651 C 2527.81 3.30249 -0.937575 0
M  V30 26652 C 2526.89 3.69795 -2.07636 0
M  V30 26653 N 2527.28 3.81056 -3.32611 0
M  V30 26654 C 2525.58 3.99516 -1.98249 0
M  V30 26655 C 2526.28 4.15326 -4.07283 0
M  V30 26656 N 2525.26 4.2756 -3.35699 0
M  V30 26657 H 2529.06 2.00801 -2.14607 0
M  V30 26658 H 2526.57 1.03396 -1.25232 0
M  V30 26659 H 2528.57 4.08704 -0.822617 0
M  V30 26660 H 2527.23 3.247 0.0012309 0
M  V30 26661 H 2528.24 3.65028 -3.67389 0
M  V30 26662 H 2524.92 4.02193 -1.12012 0
M  V30 26663 H 2526.31 4.31397 -5.15118 0
M  V30 26664 N 2529.03 1.16688 1.05932 0
M  V30 26665 C 2529.99 0.879181 2.11667 0
M  V30 26666 C 2530.99 -0.127417 1.60294 0
M  V30 26667 O 2532.18 0.103896 1.7389 0
M  V30 26668 C 2529.31 0.315485 3.39437 0
M  V30 26669 H 2530.51 1.81657 2.38623 0
M  V30 26670 H 2528.06 0.976321 1.22056 0
M  V30 26671 H 2528.8 -0.629412 3.18133 0
M  V30 26672 H 2528.58 1.04085 3.78033 0
M  V30 26673 H 2530.07 0.132262 4.1739 0
M  V30 26674 N 2530.51 -1.24529 0.96594 0
M  V30 26675 C 2531.74 -1.96608 0.64442 0
M  V30 26676 C 2532.15 -1.7167 -0.785793 0
M  V30 26677 O 2531.51 -0.999426 -1.52701 0
M  V30 26678 C 2531.56 -3.49925 0.907436 0
M  V30 26679 O 2531.28 -3.74009 2.28142 0
M  V30 26680 C 2532.78 -4.39223 0.599861 0
M  V30 26681 H 2530 -0.626381 0.240599 0
M  V30 26682 H 2532.54 -1.58403 1.29339 0
M  V30 26683 H 2530.7 -3.862 0.304699 0
M  V30 26684 H 2531.11 -4.68401 2.3601 0
M  V30 26685 H 2532.59 -5.45658 0.834359 0
M  V30 26686 H 2533.06 -4.36722 -0.465844 0
M  V30 26687 H 2533.67 -4.08533 1.18242 0
M  V30 26688 N 2531.99 -0.735845 -1.39367 0
M  V30 26689 C 2532.9 -0.0980105 -2.34395 0
M  V30 26690 C 2533.91 0.72094 -1.58362 0
M  V30 26691 O 2535.09 0.649211 -1.90649 0
M  V30 26692 C 2532.15 0.797857 -3.37395 0
M  V30 26693 C 2531.21 -0.0334417 -4.29287 0
M  V30 26694 C 2530.45 0.819761 -5.27367 0
M  V30 26695 O 2530.67 2.05845 -5.31962 0
M  V30 26696 O 2529.6 0.247973 -6.01389 0
M  V30 26697 H 2533.43 -0.882366 -2.90599 0
M  V30 26698 H 2531.01 -0.496525 -1.40908 0
M  V30 26699 H 2532.9 1.31041 -4.00507 0
M  V30 26700 H 2531.57 1.56101 -2.83574 0
M  V30 26701 H 2530.48 -0.59154 -3.69394 0
M  V30 26702 H 2531.81 -0.758837 -4.86315 0
M  V30 26703 N 2533.46 1.49999 -0.483543 0
M  V30 26704 C 2534.88 1.58999 -0.138432 0
M  V30 26705 C 2535.08 1.49052 1.35594 0
M  V30 26706 O 2534.14 1.35543 2.13036 0
M  V30 26707 C 2535.45 2.92446 -0.699709 0
M  V30 26708 C 2537 3.0587 -0.664249 0
M  V30 26709 C 2537.47 4.41911 -1.20328 0
M  V30 26710 N 2538.96 4.48356 -1.16323 0
M  V30 26711 C 2539.7 5.52034 -1.55068 0
M  V30 26712 N 2539.19 6.62903 -2.01323 0
M  V30 26713 N 2540.99 5.42648 -1.46593 0
M  V30 26714 H 2533.14 1.54707 -1.45532 0
M  V30 26715 H 2535.4 0.731837 -0.602593 0
M  V30 26716 H 2535.11 3.05239 -1.74706 0
M  V30 26717 H 2534.98 3.76901 -0.15026 0
M  V30 26718 H 2537.37 2.92718 0.374221 0
M  V30 26719 H 2537.45 2.23142 -1.25065 0
M  V30 26720 H 2537.09 4.55814 -2.24045 0
M  V30 26721 H 2537.02 5.23251 -0.592988 0
M  V30 26722 H 2539.51 3.68804 -0.824123 0
M  V30 26723 H 2539.83 7.38091 -2.29003 0
M  V30 26724 H 2538.17 6.6399 -2.05284 0
M  V30 26725 H 2541.36 4.54922 -1.10289 0
M  V30 26726 H 2541.54 6.23326 -1.77114 0
M  V30 26727 N 2534.94 0.216646 1.56104 0
M  V30 26728 C 2536.17 -0.424426 2.03011 0
M  V30 26729 C 2536.59 -1.52905 1.09553 0
M  V30 26730 O 2535.95 -1.81111 0.0828232 0
M  V30 26731 C 2536 -0.937822 3.48191 0
M  V30 26732 O 2535.1 -2.04948 3.57869 0
M  V30 26733 H 2534.44 -0.096664 0.656926 0
M  V30 26734 H 2536.97 0.333845 2.01858 0
M  V30 26735 H 2536.98 -1.2489 3.88415 0
M  V30 26736 H 2535.66 -0.129313 4.15699 0
M  V30 26737 H 2534.23 -1.74541 3.2953 0
M  V30 26738 N 2536.42 -1.57498 -0.0567885 0
M  V30 26739 C 2537.67 -1.87605 -0.751584 0
M  V30 26740 C 2537.99 -0.810691 -1.77349 0
M  V30 26741 O 2537.26 0.158984 -1.95254 0
M  V30 26742 H 2535.84 -0.692307 -0.280571 0
M  V30 26743 H 2538.5 -1.94878 -0.0293141 0
M  V30 26744 H 2537.6 -2.85603 -1.25847 0
M  V30 26745 N 2537.9 0.328509 -1.54138 0
M  V30 26746 C 2539.31 0.903244 -1.63396 0
M  V30 26747 C 2539.66 1.89049 -0.524861 0
M  V30 26748 O 2538.78 2.13664 0.343031 0
M  V30 26749 C 2539.38 1.64502 -2.96183 0
M  V30 26750 C 2537.94 2.16855 -3.07654 0
M  V30 26751 C 2537.09 0.992371 -2.58935 0
M  V30 26752 H 2540.04 0.106225 -1.58344 0
M  V30 26753 H 2540.06 2.50892 -2.86066 0
M  V30 26754 H 2539.57 0.926236 -3.76885 0
M  V30 26755 H 2537.67 2.91864 -2.31616 0
M  V30 26756 H 2537.78 2.42195 -4.13375 0
M  V30 26757 H 2536.15 1.37012 -2.14709 0
M  V30 26758 H 2536.93 0.287981 -3.4209 0
M  V30 26759 N 2539.38 1.46127 0.590316 0
M  V30 26760 C 2540.29 1.58684 1.7279 0
M  V30 26761 C 2541.3 0.470595 1.67515 0
M  V30 26762 O 2542.48 0.733675 1.87561 0
M  V30 26763 C 2539.54 1.56666 3.09284 0
M  V30 26764 C 2538.6 2.79463 3.25881 0
M  V30 26765 C 2537.84 2.77532 4.55864 0
M  V30 26766 O 2538.06 1.85842 5.39276 0
M  V30 26767 O 2536.99 3.68972 4.75545 0
M  V30 26768 H 2540.82 2.54875 1.65144 0
M  V30 26769 H 2538.4 1.28833 0.756463 0
M  V30 26770 H 2540.29 1.58209 3.90574 0
M  V30 26771 H 2538.96 0.636327 3.17384 0
M  V30 26772 H 2537.87 2.83477 2.44114 0
M  V30 26773 H 2539.2 3.7168 3.22668 0
M  V30 26774 N 2540.85 -0.834306 1.33705 0
M  V30 26775 C 2542.08 -1.62703 1.28618 0
M  V30 26776 C 2542.5 -1.87584 -0.139209 0
M  V30 26777 O 2541.86 -1.44322 -1.09731 0
M  V30 26778 C 2541.91 -2.95167 2.07144 0
M  V30 26779 O 2541.01 -3.86696 1.43317 0
M  V30 26780 H 2540.35 -0.495272 0.442269 0
M  V30 26781 H 2542.88 -1.03762 1.76336 0
M  V30 26782 H 2542.89 -3.44827 2.18079 0
M  V30 26783 H 2541.57 -2.7638 3.10784 0
M  V30 26784 H 2540.15 -3.45192 1.41056 0
M  V30 26785 N 2542.33 -1.17248 -1.05312 0
M  V30 26786 C 2543.74 -0.966258 -1.59751 0
M  V30 26787 C 2544.09 0.487344 -1.90051 0
M  V30 26788 O 2543.22 1.36242 -1.68128 0
M  V30 26789 C 2543.81 -1.74764 -2.90246 0
M  V30 26790 C 2542.37 -1.58612 -3.41349 0
M  V30 26791 C 2541.52 -1.75006 -2.151 0
M  V30 26792 H 2544.47 -1.31975 -0.881383 0
M  V30 26793 H 2544.49 -1.22931 -3.60095 0
M  V30 26794 H 2544 -2.80555 -2.68161 0
M  V30 26795 H 2542.1 -0.55305 -3.68473 0
M  V30 26796 H 2542.22 -2.37631 -4.16015 0
M  V30 26797 H 2540.58 -1.17837 -2.25802 0
M  V30 26798 H 2541.36 -2.82206 -1.95486 0
M  V30 26799 N 2543.81 1.24015 -0.972531 0
M  V30 26800 C 2545.06 1.91838 -0.63581 0
M  V30 26801 C 2545.38 1.76346 0.832281 0
M  V30 26802 O 2544.65 1.13798 1.59458 0
M  V30 26803 H 2543.23 0.710005 -0.232169 0
M  V30 26804 H 2545.89 1.50806 -1.23464 0
M  V30 26805 H 2544.99 2.99419 -0.880597 0
M  V30 26806 N 2545.29 0.743226 1.38974 0
M  V30 26807 C 2546.51 0.303972 2.0516 0
M  V30 26808 C 2546.94 -1.05573 1.55679 0
M  V30 26809 O 2546.3 -1.67067 0.704161 0
M  V30 26810 C 2546.34 0.324437 3.59138 0
M  V30 26811 O 2545.45 -0.685132 4.06669 0
M  V30 26812 H 2544.79 0.136529 0.649812 0
M  V30 26813 H 2547.32 1.01145 1.77851 0
M  V30 26814 H 2547.33 0.171689 4.07639 0
M  V30 26815 H 2546 1.31654 3.94512 0
M  V30 26816 H 2544.58 -0.497848 3.69562 0
M  V30 26817 N 2546.77 -1.4974 0.491491 0
M  V30 26818 C 2547.73 -2.27473 -0.280866 0
M  V30 26819 C 2548.73 -1.3309 -0.90243 0
M  V30 26820 O 2549.92 -1.56335 -0.768438 0
M  V30 26821 C 2547.05 -3.10734 -1.40203 0
M  V30 26822 H 2548.24 -2.97206 0.401109 0
M  V30 26823 H 2545.8 -1.54349 0.246159 0
M  V30 26824 H 2546.53 -2.45545 -2.11844 0
M  V30 26825 H 2546.32 -3.80118 -0.961903 0
M  V30 26826 H 2547.81 -3.69469 -1.94633 0
M  V30 26827 N 2548.24 -0.224922 -1.55987 0
M  V30 26828 C 2549.48 0.407671 -2.00293 0
M  V30 26829 C 2549.85 1.56709 -1.10933 0
M  V30 26830 O 2551.05 2.26592 -1.44601 0
M  V30 26831 C 2549.32 0.827989 -3.47677 0
M  V30 26832 S 2550.88 1.45421 -4.14003 0
M  V30 26833 H 2547.7 0.129244 -0.699154 0
M  V30 26834 H 2550.3 -0.335001 -1.92608 0
M  V30 26835 H 2549 -0.0254685 -4.10392 0
M  V30 26836 H 2548.53 1.60339 -3.59242 0
M  V30 26837 H 2550.55 2.7433 -4.1347 0
M  V30 26838 N 2549.72 1.57526 0.0484352 0
M  V30 26839 C 2551.14 1.54409 0.403723 0
M  V30 26840 C 2551.34 0.948415 1.77785 0
M  V30 26841 O 2550.39 0.561026 2.46188 0
M  V30 26842 C 2551.71 2.98957 0.323341 0
M  V30 26843 C 2553.26 3.1041 0.401837 0
M  V30 26844 C 2553.73 4.56652 0.351115 0
M  V30 26845 N 2555.22 4.61377 0.410495 0
M  V30 26846 C 2555.96 5.72046 0.393833 0
M  V30 26847 N 2555.45 6.92011 0.330602 0
M  V30 26848 N 2557.25 5.60358 0.442128 0
M  V30 26849 H 2549.4 1.94604 -0.851051 0
M  V30 26850 H 2551.66 0.891734 -0.321736 0
M  V30 26851 H 2551.37 3.46189 -0.620171 0
M  V30 26852 H 2551.24 3.60046 1.12456 0
M  V30 26853 H 2553.63 2.63137 1.33578 0
M  V30 26854 H 2553.71 2.52187 -0.428386 0
M  V30 26855 H 2553.35 5.04588 -0.579075 0
M  V30 26856 H 2553.28 5.12764 1.19919 0
M  V30 26857 H 2555.77 3.75057 0.462663 0
M  V30 26858 H 2556.09 7.72127 0.322457 0
M  V30 26859 H 2554.43 6.94365 0.296938 0
M  V30 26860 H 2557.62 4.65535 0.489382 0
M  V30 26861 H 2557.79 6.466 0.425675 0
M  V30 26862 N 2551.2 -0.32033 1.5431 0
M  V30 26863 C 2552.16 -1.37736 1.83198 0
M  V30 26864 C 2553.16 -1.44573 0.703931 0
M  V30 26865 O 2554.35 -1.44545 0.97224 0
M  V30 26866 C 2551.49 -2.76434 1.99491 0
M  V30 26867 H 2552.68 -1.13375 2.77644 0
M  V30 26868 H 2550.23 -0.555986 1.46077 0
M  V30 26869 H 2550.97 -3.06046 1.07267 0
M  V30 26870 H 2550.75 -2.72865 2.8158 0
M  V30 26871 H 2552.24 -3.52898 2.23277 0
M  V30 26872 N 2552.68 -1.46438 -0.582558 0
M  V30 26873 C 2553.92 -1.52968 -1.34062 0
M  V30 26874 C 2554.28 -0.179002 -1.91566 0
M  V30 26875 O 2553.57 0.812334 -1.73527 0
M  V30 26876 C 2553.77 -2.56426 -2.48959 0
M  V30 26877 C 2553.6 -4.01421 -2.0271 0
M  V30 26878 C 2552.37 -4.69137 -1.87719 0
M  V30 26879 C 2554.56 -4.89213 -1.58666 0
M  V30 26880 N 2552.55 -5.9875 -1.35543 0
M  V30 26881 C 2553.92 -6.08652 -1.18082 0
M  V30 26882 C 2555.97 -4.75864 -1.46485 0
M  V30 26883 C 2554.67 -7.16217 -0.665301 0
M  V30 26884 C 2556.7 -5.83501 -0.963367 0
M  V30 26885 C 2556.06 -7.02112 -0.567309 0
M  V30 26886 H 2552.16 -0.614584 -0.48354 0
M  V30 26887 H 2554.75 -1.83054 -0.663277 0
M  V30 26888 H 2552.92 -2.28249 -3.14256 0
M  V30 26889 H 2554.65 -2.5295 -3.15909 0
M  V30 26890 H 2551.4 -4.24659 -2.0967 0
M  V30 26891 H 2551.83 -6.67736 -1.11616 0
M  V30 26892 H 2556.47 -3.84553 -1.75724 0
M  V30 26893 H 2554.19 -8.07296 -0.360497 0
M  V30 26894 H 2557.77 -5.75213 -0.873027 0
M  V30 26895 H 2556.65 -7.83981 -0.185252 0
M  V30 26896 N 2554.16 0.827204 -1.34146 0
M  V30 26897 C 2555.12 1.9194 -1.25267 0
M  V30 26898 C 2556.12 1.59911 -0.168894 0
M  V30 26899 O 2557.31 1.69031 -0.421227 0
M  V30 26900 C 2554.44 3.27884 -0.933009 0
M  V30 26901 H 2555.63 2.01236 -2.22361 0
M  V30 26902 H 2553.19 1.02067 -1.18372 0
M  V30 26903 H 2553.92 3.24281 0.0349347 0
M  V30 26904 H 2553.71 3.52513 -1.71689 0
M  V30 26905 H 2555.2 4.07876 -0.895946 0
M  V30 26906 N 2555.63 1.17805 1.04688 0
M  V30 26907 C 2556.86 0.99282 1.81181 0
M  V30 26908 C 2557.27 -0.462066 1.83471 0
M  V30 26909 O 2556.62 -1.33269 1.26432 0
M  V30 26910 C 2556.68 1.46355 3.2836 0
M  V30 26911 C 2556.34 2.94157 3.49744 0
M  V30 26912 C 2557.34 3.92057 3.41449 0
M  V30 26913 C 2555.02 3.32447 3.76542 0
M  V30 26914 C 2557.02 5.26244 3.59647 0
M  V30 26915 C 2554.7 4.66799 3.94388 0
M  V30 26916 C 2555.7 5.63506 3.8594 0
M  V30 26917 O 2555.39 6.95427 4.03282 0
M  V30 26918 H 2555.12 0.351192 0.577616 0
M  V30 26919 H 2557.68 1.56633 1.32873 0
M  V30 26920 H 2555.91 0.83364 3.77607 0
M  V30 26921 H 2557.6 1.24319 3.86393 0
M  V30 26922 H 2558.36 3.63821 3.20717 0
M  V30 26923 H 2554.24 2.57739 3.82219 0
M  V30 26924 H 2557.78 6.01713 3.52969 0
M  V30 26925 H 2553.68 4.94738 4.14613 0
M  V30 26926 H 2554.45 7.0224 4.20478 0
M  V30 26927 N 2557.11 -1.23497 0.979094 0
M  V30 26928 C 2558.34 -1.9563 0.664272 0
M  V30 26929 C 2558.75 -1.72705 -0.772623 0
M  V30 26930 O 2558.09 -1.0146 -1.53139 0
M  V30 26931 C 2558.16 -3.48735 0.873176 0
M  V30 26932 C 2557.82 -3.95375 2.29189 0
M  V30 26933 C 2558.82 -4.04149 3.27047 0
M  V30 26934 C 2556.5 -4.28396 2.62263 0
M  V30 26935 C 2558.5 -4.45296 4.5606 0
M  V30 26936 C 2556.18 -4.69224 3.91499 0
M  V30 26937 C 2557.18 -4.77641 4.88209 0
M  V30 26938 O 2556.87 -5.17552 6.15138 0
M  V30 26939 H 2556.6 -0.62968 0.245926 0
M  V30 26940 H 2559.15 -1.57976 1.31273 0
M  V30 26941 H 2557.38 -3.86337 0.167544 0
M  V30 26942 H 2559.07 -4.02078 0.555713 0
M  V30 26943 H 2559.84 -3.78843 3.02825 0
M  V30 26944 H 2555.72 -4.21058 1.877 0
M  V30 26945 H 2559.26 -4.51779 5.31546 0
M  V30 26946 H 2555.16 -4.9398 4.15517 0
M  V30 26947 H 2555.93 -5.35668 6.18872 0
M  V30 26948 N 2558.59 -0.750586 -1.38578 0
M  V30 26949 C 2559.82 -0.314848 -2.04996 0
M  V30 26950 C 2560.24 1.04746 -1.56237 0
M  V30 26951 O 2559.6 1.66691 -0.713011 0
M  V30 26952 C 2559.65 -0.343478 -3.5896 0
M  V30 26953 O 2558.75 0.663556 -4.07027 0
M  V30 26954 H 2558.09 -0.139973 -0.649079 0
M  V30 26955 H 2560.62 -1.02087 -1.77312 0
M  V30 26956 H 2560.63 -0.193305 -4.07542 0
M  V30 26957 H 2559.31 -1.33745 -3.93809 0
M  V30 26958 H 2557.88 0.478242 -3.69821 0
M  V30 26959 N 2560.07 1.49477 -0.499425 0
M  V30 26960 C 2561.03 2.27618 0.268798 0
M  V30 26961 C 2562.03 1.33566 0.89536 0
M  V30 26962 O 2563.22 1.5674 0.760136 0
M  V30 26963 C 2560.35 3.11474 1.38553 0
M  V30 26964 H 2561.55 2.96989 -0.416865 0
M  V30 26965 H 2559.1 1.54217 -0.254341 0
M  V30 26966 H 2559.84 2.46665 2.10539 0
M  V30 26967 H 2559.62 3.80623 0.94173 0
M  V30 26968 H 2561.11 3.70496 1.92671 0
M  V30 26969 N 2561.55 0.233191 1.55865 0
M  V30 26970 C 2562.79 -0.395924 1.98898 0
M  V30 26971 C 2563.13 -1.58583 1.12094 0
M  V30 26972 O 2562.4 -1.93654 0.181216 0
M  V30 26973 C 2562.68 -0.819162 3.50659 0
M  V30 26974 C 2562.54 0.375187 4.48233 0
M  V30 26975 C 2563.86 -1.67114 4.07138 0
M  V30 26976 H 2560.98 -0.142438 0.723105 0
M  V30 26977 H 2563.62 0.331758 1.87081 0
M  V30 26978 H 2561.77 -1.43919 3.6086 0
M  V30 26979 H 2563.44 1.01349 4.50029 0
M  V30 26980 H 2561.68 1.02065 4.21622 0
M  V30 26981 H 2562.35 0.0359299 5.51988 0
M  V30 26982 H 2564.83 -1.14788 3.99954 0
M  V30 26983 H 2563.71 -1.93615 5.13619 0
M  V30 26984 H 2563.97 -2.6384 3.54741 0
M  V30 26985 N 2563.03 -1.57549 -0.0400806 0
M  V30 26986 C 2563.97 -2.0691 -1.0626 0
M  V30 26987 C 2564.97 -0.980633 -1.3813 0
M  V30 26988 O 2566.17 -1.16559 -1.37165 0
M  V30 26989 H 2562.55 -0.660146 -0.360155 0
M  V30 26990 H 2564.52 -2.9188 -0.620394 0
M  V30 26991 C 2563.27 -2.55488 -2.35842 0
M  V30 26992 H 2562.59 -3.38853 -2.12177 0
M  V30 26993 H 2564.03 -2.93746 -3.0576 0
M  V30 26994 C 2562.49 -1.45131 -3.04037 0
M  V30 26995 O 2563.02 -0.811285 -3.93422 0
M  V30 26996 N 2561.23 -1.18856 -2.65182 0
M  V30 26997 H 2560.77 -1.71086 -1.92581 0
M  V30 26998 H 2560.73 -0.452298 -3.1113 0
M  V30 26999 N 2564.5 0.312142 -1.54478 0
M  V30 27000 C 2565.91 0.885862 -1.64345 0
M  V30 27001 C 2566.27 1.88482 -0.544883 0
M  V30 27002 O 2565.39 2.14016 0.32035 0
M  V30 27003 C 2565.99 1.61351 -2.97911 0
M  V30 27004 C 2564.54 2.1358 -3.09937 0
M  V30 27005 C 2563.69 0.964852 -2.59973 0
M  V30 27006 H 2566.64 0.0894249 -1.58448 0
M  V30 27007 H 2566.66 2.47843 -2.88711 0
M  V30 27008 H 2566.18 0.88621 -3.77846 0
M  V30 27009 H 2564.28 2.89391 -2.34699 0
M  V30 27010 H 2564.39 2.37797 -4.1592 0
M  V30 27011 H 2562.75 1.34727 -2.1615 0
M  V30 27012 H 2563.54 0.251682 -3.42376 0
M  V30 27013 N 2565.98 1.46745 0.574784 0
M  V30 27014 C 2566.89 1.60508 1.71098 0
M  V30 27015 C 2567.91 0.488336 1.67007 0
M  V30 27016 O 2569.08 0.753528 1.86772 0
M  V30 27017 C 2566.15 1.59937 3.07605 0
M  V30 27018 C 2565.21 2.82904 3.22899 0
M  V30 27019 C 2564.44 2.82351 4.52895 0
M  V30 27020 O 2564.67 1.91551 5.37275 0
M  V30 27021 O 2563.6 3.73995 4.71605 0
M  V30 27022 H 2567.43 2.56612 1.62432 0
M  V30 27023 H 2565.01 1.29628 0.742756 0
M  V30 27024 H 2566.89 1.62343 3.88874 0
M  V30 27025 H 2565.57 0.669954 3.16691 0
M  V30 27026 H 2564.47 2.8605 2.41094 0
M  V30 27027 H 2565.81 3.75081 3.18708 0
M  V30 27028 N 2567.46 -0.820078 1.34583 0
M  V30 27029 C 2568.41 -1.93115 1.26393 0
M  V30 27030 C 2569.38 -1.65521 0.138583 0
M  V30 27031 O 2570.56 -1.88097 0.320037 0
M  V30 27032 C 2567.7 -3.29427 1.02818 0
M  V30 27033 C 2566.81 -3.69296 2.24153 0
M  V30 27034 C 2565.95 -4.94571 1.93838 0
M  V30 27035 C 2564.99 -5.27028 3.113 0
M  V30 27036 N 2564.13 -6.43481 2.80849 0
M  V30 27037 H 2568.97 -1.99451 2.21412 0
M  V30 27038 H 2566.5 -0.975765 1.10078 0
M  V30 27039 H 2568.46 -4.07988 0.87186 0
M  V30 27040 H 2567.09 -3.22596 0.114669 0
M  V30 27041 H 2566.14 -2.86105 2.50696 0
M  V30 27042 H 2567.45 -3.89251 3.11905 0
M  V30 27043 H 2566.61 -5.80926 1.74958 0
M  V30 27044 H 2565.35 -4.76624 1.03349 0
M  V30 27045 H 2564.35 -4.3917 3.30772 0
M  V30 27046 H 2565.58 -5.46913 4.0257 0
M  V30 27047 H 2563.52 -6.26985 1.9294 0
M  V30 27048 H 2563.44 -6.63622 3.62134 0
M  V30 27049 H 2564.71 -7.32899 2.6548 0
M  V30 27050 N 2568.94 -1.18359 -1.04062 0
M  V30 27051 C 2570.21 -0.888612 -1.7425 0
M  V30 27052 C 2570.59 0.608524 -2.02139 0
M  V30 27053 O 2569.94 1.56324 -1.66658 0
M  V30 27054 C 2570.15 -1.73589 -3.02767 0
M  V30 27055 C 2571.5 -1.96292 -3.76503 0
M  V30 27056 O 2572.52 -1.70642 -3.12665 0
M  V30 27057 O 2571.38 -2.39472 -4.91239 0
M  V30 27058 H 2568.48 -0.330095 -0.758265 0
M  V30 27059 H 2571.02 -1.29112 -1.10128 0
M  V30 27060 H 2569.8 -2.75078 -2.78294 0
M  V30 27061 H 2569.42 -1.33189 -3.74628 0
M  V30 27062 N 2570.42 1.22976 -0.98563 0
M  V30 27063 C 2571.66 1.9084 -0.652914 0
M  V30 27064 C 2571.98 1.77683 0.817811 0
M  V30 27065 O 2573.18 2.40397 1.26181 0
M  V30 27066 C 2571.64 3.4212 -1.11723 0
M  V30 27067 C 2571.25 3.63928 -2.61267 0
M  V30 27068 C 2572.99 4.15728 -0.858503 0
M  V30 27069 C 2570.9 5.0887 -3.01339 0
M  V30 27070 H 2569.83 0.714614 -0.240504 0
M  V30 27071 H 2572.48 1.39322 -1.19423 0
M  V30 27072 H 2570.86 3.92778 -0.504096 0
M  V30 27073 H 2572.04 3.23794 -3.27863 0
M  V30 27074 H 2570.35 3.03639 -2.84943 0
M  V30 27075 H 2572.95 5.22544 -1.13368 0
M  V30 27076 H 2573.29 4.15793 0.205388 0
M  V30 27077 H 2573.82 3.71075 -1.43347 0
M  V30 27078 H 2570.56 5.1394 -4.06873 0
M  V30 27079 H 2570.08 5.49935 -2.3944 0
M  V30 27080 H 2571.76 5.77242 -2.92235 0
M  V30 27081 N 2571.89 0.757924 1.38178 0
M  V30 27082 C 2572.84 0.108714 2.27741 0
M  V30 27083 C 2573.83 -0.688683 1.45417 0
M  V30 27084 O 2575.02 -0.553926 1.68109 0
M  V30 27085 C 2572.15 -0.780308 3.34314 0
M  V30 27086 C 2571.23 0.0241723 4.24093 0
M  V30 27087 N 2571.63 1.0628 4.94508 0
M  V30 27088 C 2569.92 -0.20197 4.45542 0
M  V30 27089 C 2570.62 1.54989 5.60672 0
M  V30 27090 N 2569.6 0.864442 5.36683 0
M  V30 27091 H 2573.4 0.90412 2.79648 0
M  V30 27092 H 2570.92 0.594373 1.51132 0
M  V30 27093 H 2572.91 -1.26107 3.9737 0
M  V30 27094 H 2571.57 -1.57462 2.83965 0
M  V30 27095 H 2572.58 1.44468 4.97342 0
M  V30 27096 H 2569.26 -0.969278 4.06093 0
M  V30 27097 H 2570.65 2.41528 6.26988 0
M  V30 27098 N 2573.37 -1.4921 0.507345 0
M  V30 27099 C 2574.6 -2.07373 -0.0336885 0
M  V30 27100 C 2575.02 -1.3644 -1.29483 0
M  V30 27101 O 2574.38 -0.423118 -1.76294 0
M  V30 27102 C 2574.43 -3.59633 -0.263882 0
M  V30 27103 O 2573.53 -3.90115 -1.33731 0
M  V30 27104 H 2572.87 -0.663364 0.0290447 0
M  V30 27105 H 2575.4 -1.91931 0.708783 0
M  V30 27106 H 2575.41 -4.05005 -0.493464 0
M  V30 27107 H 2574.09 -4.1067 0.657496 0
M  V30 27108 H 2572.67 -3.56547 -1.09217 0
M  V30 27109 N 2574.85 -0.241454 -1.55739 0
M  V30 27110 C 2576.1 0.384041 -1.98418 0
M  V30 27111 C 2576.42 1.58864 -1.13081 0
M  V30 27112 O 2575.69 1.94746 -0.212346 0
M  V30 27113 H 2574.27 0.144881 -0.732815 0
M  V30 27114 H 2576.93 -0.338977 -1.9193 0
M  V30 27115 H 2576.03 0.696886 -3.0422 0
M  V30 27116 N 2576.33 1.57568 0.0317248 0
M  V30 27117 C 2577.26 2.09422 1.03271 0
M  V30 27118 C 2578.24 0.996168 1.37879 0
M  V30 27119 O 2579.42 1.27125 1.46809 0
M  V30 27120 C 2576.55 2.57141 2.33443 0
M  V30 27121 C 2575.51 3.71186 2.13085 0
M  V30 27122 C 2574.83 4.05102 3.48994 0
M  V30 27123 C 2576.13 4.99718 1.51919 0
M  V30 27124 H 2577.83 2.93304 0.601069 0
M  V30 27125 H 2575.37 1.41097 0.28768 0
M  V30 27126 H 2577.33 2.92037 3.03796 0
M  V30 27127 H 2576.05 1.70338 2.78662 0
M  V30 27128 H 2574.71 3.36634 1.45165 0
M  V30 27129 H 2574.36 3.15369 3.91857 0
M  V30 27130 H 2574.06 4.81917 3.36198 0
M  V30 27131 H 2575.58 4.4253 4.20714 0
M  V30 27132 H 2577 5.32588 2.12186 0
M  V30 27133 H 2575.39 5.81127 1.49706 0
M  V30 27134 H 2576.46 4.82471 0.484726 0
M  V30 27135 N 2577.81 -0.303946 1.54641 0
M  V30 27136 C 2579.06 -1.03714 1.72992 0
M  V30 27137 C 2579.37 -1.88528 0.521201 0
M  V30 27138 O 2580.57 -2.6509 0.586454 0
M  V30 27139 C 2579.03 -1.89364 3.06054 0
M  V30 27140 C 2578.64 -1.09567 4.34395 0
M  V30 27141 C 2580.38 -2.62301 3.33764 0
M  V30 27142 C 2578.29 -1.94476 5.5851 0
M  V30 27143 H 2577.22 -0.390936 0.644737 0
M  V30 27144 H 2579.87 -0.294296 1.81125 0
M  V30 27145 H 2578.25 -2.67624 2.91879 0
M  V30 27146 H 2579.43 -0.359404 4.59396 0
M  V30 27147 H 2577.74 -0.482252 4.13598 0
M  V30 27148 H 2580.34 -3.26173 4.23692 0
M  V30 27149 H 2580.68 -3.30976 2.52509 0
M  V30 27150 H 2581.21 -1.91091 3.48897 0
M  V30 27151 H 2577.95 -1.30276 6.42424 0
M  V30 27152 H 2577.47 -2.65783 5.37698 0
M  V30 27153 H 2579.15 -2.52594 5.95655 0
M  V30 27154 N 2579.28 -1.47047 -0.566994 0
M  V30 27155 C 2580.53 -1.52867 -1.32198 0
M  V30 27156 C 2580.85 -0.188422 -1.94088 0
M  V30 27157 O 2580.12 0.786661 -1.79411 0
M  V30 27158 H 2578.7 -0.563065 -0.490884 0
M  V30 27159 H 2581.37 -1.83282 -0.662847 0
M  V30 27160 H 2580.46 -2.28993 -2.12058 0
M  V30 27161 N 2580.76 0.812929 -1.35016 0
M  V30 27162 C 2582.17 1.38646 -1.25037 0
M  V30 27163 C 2582.52 1.95833 0.119933 0
M  V30 27164 O 2581.65 1.90818 1.02066 0
M  V30 27165 C 2582.24 2.5205 -2.26398 0
M  V30 27166 C 2580.8 3.05283 -2.2018 0
M  V30 27167 C 2579.95 1.78209 -2.12454 0
M  V30 27168 H 2582.9 0.61649 -1.46236 0
M  V30 27169 H 2582.92 3.30425 -1.88678 0
M  V30 27170 H 2582.43 2.10398 -3.2612 0
M  V30 27171 H 2580.54 3.51415 -1.23848 0
M  V30 27172 H 2580.65 3.63695 -3.1187 0
M  V30 27173 H 2579.01 1.99507 -1.58332 0
M  V30 27174 H 2579.8 1.38717 -3.14026 0
M  V30 27175 N 2582.24 1.18909 1.03433 0
M  V30 27176 C 2583.17 0.945486 2.13501 0
M  V30 27177 C 2584.15 -0.119159 1.69682 0
M  V30 27178 O 2585.34 0.0347411 1.94169 0
M  V30 27179 C 2582.47 0.477377 3.44003 0
M  V30 27180 C 2581.42 1.48323 4.01478 0
M  V30 27181 C 2580.75 0.872404 5.27535 0
M  V30 27182 C 2582.05 2.86185 4.36916 0
M  V30 27183 H 2583.74 1.86601 2.34138 0
M  V30 27184 H 2581.29 0.898604 1.12522 0
M  V30 27185 H 2583.24 0.294278 4.20371 0
M  V30 27186 H 2581.96 -0.478729 3.23072 0
M  V30 27187 H 2580.62 1.65338 3.27198 0
M  V30 27188 H 2580.27 -0.0910868 5.02918 0
M  V30 27189 H 2579.97 1.54403 5.66951 0
M  V30 27190 H 2581.49 0.699978 6.06575 0
M  V30 27191 H 2582.91 2.72785 5.04243 0
M  V30 27192 H 2581.31 3.50089 4.87399 0
M  V30 27193 H 2582.38 3.39254 3.4646 0
M  V30 27194 N 2583.72 -1.22452 0.992137 0
M  V30 27195 C 2584.65 -2.26643 0.561716 0
M  V30 27196 C 2585.63 -1.65059 -0.411026 0
M  V30 27197 O 2586.81 -1.9184 -0.301827 0
M  V30 27198 C 2583.94 -3.47074 -0.125186 0
M  V30 27199 C 2582.9 -4.21089 0.766022 0
M  V30 27200 C 2582.22 -5.34673 -0.0537544 0
M  V30 27201 C 2583.52 -4.79852 2.0625 0
M  V30 27202 H 2585.22 -2.62899 1.43263 0
M  V30 27203 H 2582.76 -1.26376 0.690305 0
M  V30 27204 H 2584.72 -4.19121 -0.43769 0
M  V30 27205 H 2583.44 -3.09912 -1.03064 0
M  V30 27206 H 2582.1 -3.50876 1.06216 0
M  V30 27207 H 2581.75 -4.93752 -0.960101 0
M  V30 27208 H 2581.45 -5.85118 0.539517 0
M  V30 27209 H 2582.97 -6.09536 -0.36037 0
M  V30 27210 H 2584.39 -5.43845 1.814 0
M  V30 27211 H 2582.78 -5.40633 2.60453 0
M  V30 27212 H 2583.85 -3.99946 2.74174 0
M  V30 27213 N 2585.2 -0.765242 -1.37774 0
M  V30 27214 C 2586.45 -0.323342 -1.99091 0
M  V30 27215 C 2586.76 1.10444 -1.61436 0
M  V30 27216 O 2587.96 1.64739 -2.15808 0
M  V30 27217 C 2586.42 -0.52716 -3.56018 0
M  V30 27218 C 2586.03 -1.96478 -4.02617 0
M  V30 27219 C 2587.77 -0.148557 -4.2424 0
M  V30 27220 C 2585.68 -2.11654 -5.52229 0
M  V30 27221 H 2584.61 -0.11715 -0.744844 0
M  V30 27222 H 2587.26 -0.943444 -1.57389 0
M  V30 27223 H 2585.64 0.162303 -3.95667 0
M  V30 27224 H 2586.82 -2.68866 -3.74229 0
M  V30 27225 H 2585.13 -2.29937 -3.47157 0
M  V30 27226 H 2587.73 -0.24055 -5.34159 0
M  V30 27227 H 2588.07 0.900351 -4.06447 0
M  V30 27228 H 2588.6 -0.790318 -3.8987 0
M  V30 27229 H 2585.34 -3.1484 -5.7494 0
M  V30 27230 H 2584.86 -1.43741 -5.82322 0
M  V30 27231 H 2586.54 -1.91203 -6.18102 0
M  V30 27232 N 2586.67 1.48939 -0.515251 0
M  V30 27233 C 2587.91 2.04388 0.0223624 0
M  V30 27234 C 2588.28 1.38513 1.32959 0
M  V30 27235 O 2589.48 1.84764 1.95233 0
M  V30 27236 C 2587.75 3.57055 0.156994 0
M  V30 27237 S 2589.31 4.34007 0.646798 0
M  V30 27238 H 2586.13 0.710982 -0.00501911 0
M  V30 27239 H 2588.73 1.82826 -0.692462 0
M  V30 27240 H 2587.43 4.02538 -0.799482 0
M  V30 27241 H 2586.96 3.83046 0.896636 0
M  V30 27242 H 2588.98 4.57811 1.91373 0
M  V30 27243 N 2588.15 0.249709 1.55609 0
M  V30 27244 C 2589.09 -0.681457 2.18835 0
M  V30 27245 C 2590.1 -1.13667 1.16548 0
M  V30 27246 O 2591.29 -1.06296 1.43399 0
M  V30 27247 C 2588.39 -1.93835 2.77995 0
M  V30 27248 C 2587.56 -1.63412 4.05728 0
M  V30 27249 C 2586.62 -2.74088 4.49179 0
M  V30 27250 O 2585.65 -2.41355 5.15496 0
M  V30 27251 N 2586.85 -4.03641 4.17198 0
M  V30 27252 H 2589.61 -0.140461 2.99371 0
M  V30 27253 H 2587.17 0.0697826 1.6175 0
M  V30 27254 H 2589.17 -2.67122 3.0402 0
M  V30 27255 H 2587.74 -2.38906 2.016 0
M  V30 27256 H 2586.96 -0.73629 3.87263 0
M  V30 27257 H 2588.24 -1.40553 4.89001 0
M  V30 27258 H 2587.64 -4.33067 3.63963 0
M  V30 27259 H 2586.2 -4.73385 4.48052 0
M  V30 27260 N 2589.63 -1.57583 -0.0233682 0
M  V30 27261 C 2590.58 -2.06929 -1.02221 0
M  V30 27262 C 2591.55 -0.959641 -1.35573 0
M  V30 27263 O 2592.73 -1.23058 -1.45813 0
M  V30 27264 C 2589.87 -2.55814 -2.31632 0
M  V30 27265 C 2588.99 -3.80591 -2.04388 0
M  V30 27266 C 2588.12 -4.18067 -3.2771 0
M  V30 27267 C 2587.16 -5.35745 -2.96046 0
M  V30 27268 N 2586.3 -5.68625 -4.11837 0
M  V30 27269 H 2591.14 -2.92011 -0.594453 0
M  V30 27270 H 2588.67 -1.44374 -0.281896 0
M  V30 27271 H 2590.63 -2.82226 -3.07253 0
M  V30 27272 H 2589.26 -1.73641 -2.72119 0
M  V30 27273 H 2588.31 -3.61229 -1.19238 0
M  V30 27274 H 2589.63 -4.66327 -1.77034 0
M  V30 27275 H 2588.78 -4.45637 -4.11695 0
M  V30 27276 H 2587.52 -3.30994 -3.58182 0
M  V30 27277 H 2586.52 -5.07922 -2.10465 0
M  V30 27278 H 2587.75 -6.24476 -2.66846 0
M  V30 27279 H 2585.7 -4.84511 -4.4225 0
M  V30 27280 H 2585.61 -6.48883 -3.87927 0
M  V30 27281 H 2586.88 -6.00775 -4.96678 0
M  V30 27282 N 2591.11 0.29574 -1.548 0
M  V30 27283 C 2592.36 1.02825 -1.73987 0
M  V30 27284 C 2592.68 1.87619 -0.531439 0
M  V30 27285 O 2591.95 1.90562 0.454187 0
M  V30 27286 H 2590.53 0.382631 -0.641563 0
M  V30 27287 H 2593.19 0.325455 -1.92163 0
M  V30 27288 H 2592.29 1.67833 -2.63132 0
M  V30 27289 N 2592.59 1.47346 0.559187 0
M  V30 27290 C 2593.84 1.5313 1.31278 0
M  V30 27291 C 2594.15 0.197378 1.94602 0
M  V30 27292 O 2595.36 0.133201 2.71173 0
M  V30 27293 C 2593.81 2.69929 2.38046 0
M  V30 27294 C 2593.42 4.09843 1.80922 0
M  V30 27295 C 2595.16 2.85004 3.14599 0
M  V30 27296 C 2593.07 5.17945 2.85459 0
M  V30 27297 H 2592 0.569975 0.493604 0
M  V30 27298 H 2594.65 1.73616 0.594125 0
M  V30 27299 H 2593.03 2.4282 3.12817 0
M  V30 27300 H 2594.21 4.46847 1.12537 0
M  V30 27301 H 2592.52 3.99636 1.1696 0
M  V30 27302 H 2595.12 3.62936 3.92659 0
M  V30 27303 H 2595.46 1.93375 3.68662 0
M  V30 27304 H 2596 3.11875 2.46939 0
M  V30 27305 H 2592.73 6.11445 2.36254 0
M  V30 27306 H 2592.25 4.85461 3.52261 0
M  V30 27307 H 2593.93 5.44809 3.48987 0
M  V30 27308 N 2594.07 -0.805758 1.35445 0
M  V30 27309 C 2595 -1.93224 1.31099 0
M  V30 27310 C 2595.98 -1.69088 0.185274 0
M  V30 27311 O 2597.16 -1.90439 0.380366 0
M  V30 27312 C 2594.29 -3.29981 1.08305 0
M  V30 27313 C 2593.25 -3.68601 2.17526 0
M  V30 27314 C 2592.57 -5.03529 1.79896 0
M  V30 27315 C 2593.87 -3.78892 3.59497 0
M  V30 27316 H 2595.57 -1.97118 2.25355 0
M  V30 27317 H 2593.11 -0.946977 1.08482 0
M  V30 27318 H 2595.06 -4.08389 1.03904 0
M  V30 27319 H 2593.79 -3.26431 0.104942 0
M  V30 27320 H 2592.45 -2.92478 2.21025 0
M  V30 27321 H 2592.1 -4.96484 0.807017 0
M  V30 27322 H 2591.8 -5.30339 2.5301 0
M  V30 27323 H 2593.32 -5.84376 1.77022 0
M  V30 27324 H 2594.73 -4.4753 3.58315 0
M  V30 27325 H 2593.13 -4.17173 4.31378 0
M  V30 27326 H 2594.2 -2.80424 3.95589 0
M  V30 27327 N 2595.54 -1.19456 -1.02801 0
M  V30 27328 C 2596.49 -0.900863 -2.09448 0
M  V30 27329 C 2597.48 0.134687 -1.60335 0
M  V30 27330 O 2598.67 -0.0711235 -1.76857 0
M  V30 27331 C 2595.8 -0.442289 -3.40439 0
M  V30 27332 C 2594.88 -1.51063 -3.96284 0
M  V30 27333 N 2595.28 -2.73028 -4.25781 0
M  V30 27334 C 2593.57 -1.37412 -4.24304 0
M  V30 27335 C 2594.27 -3.41856 -4.70648 0
M  V30 27336 N 2593.25 -2.69251 -4.72234 0
M  V30 27337 H 2597.05 -1.82783 -2.30147 0
M  V30 27338 H 2594.57 -1.08686 -1.2067 0
M  V30 27339 H 2596.56 -0.213333 -4.16354 0
M  V30 27340 H 2595.22 0.478182 -3.2116 0
M  V30 27341 H 2596.23 -3.09783 -4.15036 0
M  V30 27342 H 2592.91 -0.517176 -4.14284 0
M  V30 27343 H 2594.3 -4.46161 -5.02385 0
M  V30 27344 N 2597.02 1.21924 -0.998617 0
M  V30 27345 C 2597.97 2.24061 -0.55366 0
M  V30 27346 C 2598.94 1.60781 0.41697 0
M  V30 27347 O 2600.12 1.8809 0.320449 0
M  V30 27348 C 2597.26 3.44892 0.119898 0
M  V30 27349 C 2596.38 4.22666 -0.893151 0
M  V30 27350 C 2595.51 5.30851 -0.192517 0
M  V30 27351 C 2594.55 6.00351 -1.19355 0
M  V30 27352 N 2593.69 7.00166 -0.52083 0
M  V30 27353 H 2598.53 2.61484 -1.42934 0
M  V30 27354 H 2596.06 1.28506 -0.715861 0
M  V30 27355 H 2598.02 4.13853 0.527387 0
M  V30 27356 H 2596.65 3.08215 0.959335 0
M  V30 27357 H 2595.7 3.52946 -1.41893 0
M  V30 27358 H 2597.02 4.70536 -1.6552 0
M  V30 27359 H 2596.17 6.06093 0.271408 0
M  V30 27360 H 2594.91 4.8397 0.60199 0
M  V30 27361 H 2593.91 5.23886 -1.66805 0
M  V30 27362 H 2595.14 6.49318 -1.98903 0
M  V30 27363 H 2593.09 6.55508 0.254137 0
M  V30 27364 H 2593 7.46071 -1.22123 0
M  V30 27365 H 2594.27 7.79459 -0.0798966 0
M  V30 27366 N 2598.5 0.772537 1.37367 0
M  V30 27367 C 2599.78 0.261914 1.93839 0
M  V30 27368 C 2600.16 -1.24316 1.70613 0
M  V30 27369 O 2599.5 -2.02668 1.05537 0
M  V30 27370 C 2599.71 0.636162 3.43153 0
M  V30 27371 C 2601.06 0.606398 4.20248 0
M  V30 27372 O 2602.09 0.5756 3.51519 0
M  V30 27373 O 2600.95 0.634182 5.42808 0
M  V30 27374 H 2598.04 0.06057 0.824779 0
M  V30 27375 H 2600.59 0.853943 1.46649 0
M  V30 27376 H 2599.36 1.67486 3.53644 0
M  V30 27377 H 2598.98 0.0171215 3.97596 0
M  V30 27378 N 2599.98 -1.48664 0.523142 0
M  V30 27379 C 2601.2 -2.07397 -0.011692 0
M  V30 27380 C 2601.63 -1.37805 -1.28029 0
M  V30 27381 O 2600.99 -0.441793 -1.75835 0
M  V30 27382 C 2601.03 -3.59893 -0.225723 0
M  V30 27383 O 2600.14 -3.91512 -1.29585 0
M  V30 27384 H 2599.48 -0.663019 0.036079 0
M  V30 27385 H 2602.01 -1.91168 0.7291 0
M  V30 27386 H 2602.02 -4.05505 -0.45048 0
M  V30 27387 H 2600.69 -4.09949 0.701016 0
M  V30 27388 H 2599.27 -3.57686 -1.05429 0
M  V30 27389 N 2601.46 -0.257958 -1.55475 0
M  V30 27390 C 2602.4 0.653037 -2.23245 0
M  V30 27391 C 2603.4 1.17142 -1.22369 0
M  V30 27392 O 2604.6 1.12704 -1.40349 0
M  V30 27393 H 2600.98 0.229104 -0.716251 0
M  V30 27394 H 2602.95 0.0584263 -2.98343 0
M  V30 27395 C 2601.7 1.8339 -2.95404 0
M  V30 27396 H 2601.02 1.44418 -3.72805 0
M  V30 27397 H 2602.46 2.44832 -3.4617 0
M  V30 27398 C 2600.92 2.71186 -1.999 0
M  V30 27399 O 2601.45 3.71043 -1.53915 0
M  V30 27400 N 2599.66 2.37987 -1.66765 0
M  V30 27401 H 2599.2 1.56834 -2.04355 0
M  V30 27402 H 2599.16 2.97004 -1.03132 0
M  V30 27403 N 2602.93 1.57593 0.0150108 0
M  V30 27404 C 2603.87 2.02882 1.04471 0
M  V30 27405 C 2604.85 0.915788 1.34358 0
M  V30 27406 O 2606.03 1.18274 1.46777 0
M  V30 27407 C 2603.16 2.41375 2.37604 0
M  V30 27408 C 2602.2 3.63261 2.2348 0
M  V30 27409 S 2603.04 5.11816 1.57496 0
M  V30 27410 C 2604.19 5.53565 2.9209 0
M  V30 27411 H 2604.42 2.89904 0.659019 0
M  V30 27412 H 2601.96 1.52746 0.225426 0
M  V30 27413 H 2603.92 2.64223 3.1416 0
M  V30 27414 H 2602.58 1.54779 2.73317 0
M  V30 27415 H 2601.77 3.87897 3.21795 0
M  V30 27416 H 2601.37 3.40338 1.55068 0
M  V30 27417 H 2603.66 5.55108 3.88409 0
M  V30 27418 H 2604.61 6.53703 2.72172 0
M  V30 27419 H 2605.01 4.81095 2.95309 0
M  V30 27420 N 2604.41 -0.287527 1.54955 0
M  V30 27421 C 2605.82 -0.859604 1.65734 0
M  V30 27422 C 2606.17 -1.87591 0.5748 0
M  V30 27423 O 2605.3 -2.14498 -0.286261 0
M  V30 27424 C 2605.89 -1.56592 3.00441 0
M  V30 27425 C 2604.45 -2.08622 3.13295 0
M  V30 27426 C 2603.6 -0.92337 2.61475 0
M  V30 27427 H 2606.55 -0.0642059 1.5857 0
M  V30 27428 H 2606.57 -2.43219 2.92617 0
M  V30 27429 H 2606.08 -0.825986 3.79208 0
M  V30 27430 H 2604.19 -2.85621 2.39273 0
M  V30 27431 H 2604.3 -2.3115 4.19651 0
M  V30 27432 H 2602.66 -1.31271 2.18266 0
M  V30 27433 H 2603.45 -0.197181 3.42733 0
M  V30 27434 N 2605.89 -1.47641 -0.551365 0
M  V30 27435 C 2606.82 -1.55113 -1.67378 0
M  V30 27436 C 2607.8 -0.402884 -1.5753 0
M  V30 27437 O 2608.99 -0.611506 -1.78306 0
M  V30 27438 C 2606.11 -1.45914 -3.05658 0
M  V30 27439 C 2605.16 -2.65313 -3.33933 0
M  V30 27440 S 2605.99 -4.27463 -3.22546 0
M  V30 27441 C 2607.15 -4.20826 -4.6331 0
M  V30 27442 H 2607.38 -2.5007 -1.60786 0
M  V30 27443 H 2604.91 -1.3591 -0.73265 0
M  V30 27444 H 2606.87 -1.41293 -3.85417 0
M  V30 27445 H 2605.53 -0.523302 -3.0971 0
M  V30 27446 H 2604.73 -2.54956 -4.34757 0
M  V30 27447 H 2604.33 -2.67086 -2.61804 0
M  V30 27448 H 2606.62 -3.89441 -5.54385 0
M  V30 27449 H 2607.56 -5.21756 -4.78723 0
M  V30 27450 H 2607.97 -3.51601 -4.4163 0
M  V30 27451 N 2607.37 0.798563 -1.3587 0
M  V30 27452 C 2608.65 1.5435 -1.20148 0
M  V30 27453 C 2609.03 2.09991 0.216124 0
M  V30 27454 O 2608.37 1.93165 1.22064 0
M  V30 27455 C 2608.58 2.64568 -2.27607 0
M  V30 27456 C 2609.93 3.32694 -2.63817 0
M  V30 27457 O 2610.96 2.74845 -2.26581 0
M  V30 27458 O 2609.81 4.3722 -3.27874 0
M  V30 27459 H 2606.91 0.682347 -0.46726 0
M  V30 27460 H 2609.45 0.837833 -1.47575 0
M  V30 27461 H 2608.23 2.21382 -3.22654 0
M  V30 27462 H 2607.85 3.42762 -2.01494 0
M  V30 27463 N 2608.85 1.19999 1.02166 0
M  V30 27464 C 2609.78 0.887595 2.10231 0
M  V30 27465 C 2610.76 -0.158289 1.61828 0
M  V30 27466 O 2611.94 -0.0329918 1.88471 0
M  V30 27467 C 2609.07 0.329699 3.37091 0
M  V30 27468 C 2608.11 1.35578 4.04377 0
M  V30 27469 S 2608.95 2.91896 4.48951 0
M  V30 27470 C 2610.1 2.37669 5.7902 0
M  V30 27471 H 2610.34 1.80276 2.36406 0
M  V30 27472 H 2607.87 1.02792 1.1521 0
M  V30 27473 H 2609.83 0.0143545 4.10497 0
M  V30 27474 H 2608.49 -0.563887 3.08997 0
M  V30 27475 H 2607.68 0.914687 4.9563 0
M  V30 27476 H 2607.28 1.61834 3.37173 0
M  V30 27477 H 2609.58 1.77115 6.53939 0
M  V30 27478 H 2610.52 3.27298 6.27919 0
M  V30 27479 H 2610.93 1.79981 5.35039 0
M  V30 27480 N 2610.32 -1.21392 1.00507 0
M  V30 27481 C 2611.74 -1.42543 0.717898 0
M  V30 27482 C 2611.94 -1.88693 -0.706903 0
M  V30 27483 O 2611 -2.0485 -1.47624 0
M  V30 27484 C 2612.31 -2.45681 1.73382 0
M  V30 27485 C 2613.86 -2.59464 1.75064 0
M  V30 27486 C 2614.33 -3.65835 2.75551 0
M  V30 27487 N 2615.82 -3.73306 2.7422 0
M  V30 27488 C 2616.56 -4.55239 3.48634 0
M  V30 27489 N 2616.05 -5.41067 4.32687 0
M  V30 27490 N 2617.85 -4.49662 3.37283 0
M  V30 27491 H 2610 -0.89747 1.92508 0
M  V30 27492 H 2612.26 -0.45636 0.830927 0
M  V30 27493 H 2611.97 -2.18743 2.75398 0
M  V30 27494 H 2611.84 -3.44486 1.53653 0
M  V30 27495 H 2614.23 -2.85739 0.737387 0
M  V30 27496 H 2614.31 -1.60894 1.98864 0
M  V30 27497 H 2613.95 -3.40306 3.77034 0
M  V30 27498 H 2613.88 -4.64002 2.49017 0
M  V30 27499 H 2616.37 -3.1199 2.13239 0
M  V30 27500 H 2616.69 -6.00639 4.86264 0
M  V30 27501 H 2615.03 -5.40608 4.3677 0
M  V30 27502 H 2618.22 -3.81641 2.7105 0
M  V30 27503 H 2618.4 -5.13281 3.95533 0
M  V30 27504 N 2611.8 -0.779811 -1.36955 0
M  V30 27505 C 2612.71 -0.172532 -2.33965 0
M  V30 27506 C 2613.73 0.670193 -1.60575 0
M  V30 27507 O 2614.9 0.588229 -1.92618 0
M  V30 27508 C 2611.97 0.690113 -3.39762 0
M  V30 27509 C 2611.03 -0.169999 -4.28963 0
M  V30 27510 C 2610.26 0.651569 -5.29708 0
M  V30 27511 O 2610.49 1.88817 -5.38242 0
M  V30 27512 O 2609.42 0.0565206 -6.01873 0
M  V30 27513 H 2613.25 -0.974372 -2.87645 0
M  V30 27514 H 2610.83 -0.541102 -1.39257 0
M  V30 27515 H 2612.71 1.18233 -4.04474 0
M  V30 27516 H 2611.39 1.47 -2.88397 0
M  V30 27517 H 2610.3 -0.70876 -3.67325 0
M  V30 27518 H 2611.63 -0.91317 -4.83655 0
M  V30 27519 N 2613.28 1.48384 -0.531019 0
M  V30 27520 C 2614.53 2.025 0.0027017 0
M  V30 27521 C 2614.86 1.40802 1.34183 0
M  V30 27522 O 2614.11 0.543577 1.87999 0
M  V30 27523 C 2614.41 3.56983 0.172679 0
M  V30 27524 C 2614.08 4.37471 -1.09222 0
M  V30 27525 C 2612.74 4.59184 -1.43889 0
M  V30 27526 C 2615.09 4.84085 -1.93162 0
M  V30 27527 C 2612.42 5.24756 -2.6239 0
M  V30 27528 C 2614.77 5.50962 -3.10843 0
M  V30 27529 C 2613.43 5.70913 -3.45853 0
M  V30 27530 H 2612.7 0.740999 0.000988623 0
M  V30 27531 H 2615.35 1.78355 -0.697251 0
M  V30 27532 H 2613.66 3.79973 0.955406 0
M  V30 27533 H 2615.35 3.96477 0.600572 0
M  V30 27534 H 2611.94 4.20833 -0.812251 0
M  V30 27535 H 2616.13 4.67112 -1.67691 0
M  V30 27536 H 2611.38 5.384 -2.89716 0
M  V30 27537 H 2615.56 5.86049 -3.7619 0
M  V30 27538 H 2613.18 6.21496 -4.37775 0
M  V30 27539 N 2614.76 0.2662 1.55336 0
M  V30 27540 C 2616 -0.353646 1.99693 0
M  V30 27541 C 2616.34 -1.5617 1.15432 0
M  V30 27542 O 2615.61 -1.93226 0.222252 0
M  V30 27543 C 2615.9 -0.744598 3.52318 0
M  V30 27544 C 2615.75 0.47018 4.47336 0
M  V30 27545 C 2617.07 -1.5844 4.10591 0
M  V30 27546 H 2614.19 -0.127068 0.725963 0
M  V30 27547 H 2616.83 0.371366 1.86335 0
M  V30 27548 H 2614.98 -1.36232 3.63831 0
M  V30 27549 H 2616.65 1.10872 4.47778 0
M  V30 27550 H 2614.89 1.10986 4.19362 0
M  V30 27551 H 2615.56 0.153007 5.51788 0
M  V30 27552 H 2618.04 -1.06279 4.02298 0
M  V30 27553 H 2616.92 -1.82677 5.1761 0
M  V30 27554 H 2617.18 -2.56256 3.60258 0
M  V30 27555 N 2616.24 -1.57599 -0.0066531 0
M  V30 27556 C 2617.17 -2.11038 -0.999259 0
M  V30 27557 C 2618.15 -1.01798 -1.36276 0
M  V30 27558 O 2619.33 -1.29445 -1.44768 0
M  V30 27559 C 2616.46 -2.60822 -2.29323 0
M  V30 27560 C 2615.42 -3.74529 -2.07153 0
M  V30 27561 C 2614.74 -4.10602 -3.42505 0
M  V30 27562 C 2616.04 -5.02071 -1.4395 0
M  V30 27563 H 2617.74 -2.94224 -0.55433 0
M  V30 27564 H 2615.28 -1.41537 -0.265197 0
M  V30 27565 H 2617.24 -2.96833 -2.99112 0
M  V30 27566 H 2615.96 -1.7475 -2.75917 0
M  V30 27567 H 2614.62 -3.38901 -1.39791 0
M  V30 27568 H 2614.27 -3.21563 -3.8679 0
M  V30 27569 H 2613.97 -4.87205 -3.28489 0
M  V30 27570 H 2615.49 -4.49167 -4.1362 0
M  V30 27571 H 2616.9 -5.35896 -2.03686 0
M  V30 27572 H 2615.3 -5.83435 -1.40442 0
M  V30 27573 H 2616.37 -4.83181 -0.407908 0
M  V30 27574 N 2617.72 0.279305 -1.55105 0
M  V30 27575 C 2618.65 1.34942 -1.90559 0
M  V30 27576 C 2619.63 1.51838 -0.766765 0
M  V30 27577 O 2620.81 1.64986 -1.02437 0
M  V30 27578 C 2617.94 2.71002 -2.17198 0
M  V30 27579 C 2616.9 2.68845 -3.33026 0
M  V30 27580 C 2616.22 4.08399 -3.4513 0
M  V30 27581 C 2617.52 2.2867 -4.69582 0
M  V30 27582 H 2619.22 1.05517 -2.8019 0
M  V30 27583 H 2616.76 0.50615 -1.34811 0
M  V30 27584 H 2618.71 3.45971 -2.40587 0
M  V30 27585 H 2617.44 3.01997 -1.2436 0
M  V30 27586 H 2616.1 1.96335 -3.09594 0
M  V30 27587 H 2615.75 4.36605 -2.4977 0
M  V30 27588 H 2615.45 4.07852 -4.23002 0
M  V30 27589 H 2616.97 4.85115 -3.70805 0
M  V30 27590 H 2618.38 2.93359 -4.92558 0
M  V30 27591 H 2616.78 2.39296 -5.50325 0
M  V30 27592 H 2617.85 1.23798 -4.6883 0
M  V30 27593 N 2619.19 1.47931 0.543528 0
M  V30 27594 C 2620.44 1.55257 1.30006 0
M  V30 27595 C 2620.77 0.220646 1.93244 0
M  V30 27596 O 2620.02 -0.787811 1.79142 0
M  V30 27597 C 2620.32 2.62936 2.42073 0
M  V30 27598 C 2619.99 4.05794 1.96576 0
M  V30 27599 C 2618.65 4.44679 1.83885 0
M  V30 27600 C 2621 4.95376 1.62026 0
M  V30 27601 C 2618.33 5.70967 1.34959 0
M  V30 27602 C 2620.68 6.22139 1.14566 0
M  V30 27603 C 2619.35 6.59894 1.00482 0
M  V30 27604 H 2618.62 0.568126 0.475725 0
M  V30 27605 H 2621.26 1.8159 0.608043 0
M  V30 27606 H 2619.57 2.30411 3.16888 0
M  V30 27607 H 2621.27 2.65823 3.00231 0
M  V30 27608 H 2617.86 3.75077 2.07401 0
M  V30 27609 H 2622.04 4.66022 1.70697 0
M  V30 27610 H 2617.3 5.98955 1.2273 0
M  V30 27611 H 2621.47 6.90957 0.868987 0
M  V30 27612 H 2619.1 7.57639 0.62349 0
M  V30 27613 N 2620.67 -0.791347 1.36292 0
M  V30 27614 C 2621.6 -1.91038 1.24819 0
M  V30 27615 C 2622.58 -1.62057 0.132767 0
M  V30 27616 O 2623.77 -1.8604 0.303559 0
M  V30 27617 C 2620.89 -3.25813 0.925412 0
M  V30 27618 C 2619.94 -3.73727 2.05501 0
M  V30 27619 S 2620.77 -3.89716 3.67262 0
M  V30 27620 C 2621.93 -5.2737 3.37093 0
M  V30 27621 H 2622.16 -2.00477 2.19536 0
M  V30 27622 H 2619.69 -0.950371 1.21685 0
M  V30 27623 H 2621.65 -4.03665 0.745995 0
M  V30 27624 H 2620.31 -3.141 -0.00394577 0
M  V30 27625 H 2619.51 -4.71382 1.78368 0
M  V30 27626 H 2619.11 -3.02918 2.19355 0
M  V30 27627 H 2621.4 -6.11885 2.90867 0
M  V30 27628 H 2622.34 -5.59505 4.34005 0
M  V30 27629 H 2622.75 -4.94379 2.72488 0
M  V30 27630 N 2622.15 -1.2054 -1.01528 0
M  V30 27631 C 2623.38 -1.04202 -1.78744 0
M  V30 27632 C 2623.79 0.4087 -1.84323 0
M  V30 27633 O 2623.15 1.28374 -1.29716 0
M  V30 27634 C 2623.2 -1.6204 -3.23149 0
M  V30 27635 O 2622.92 -3.01435 -3.17913 0
M  V30 27636 C 2624.42 -1.50673 -4.16908 0
M  V30 27637 H 2621.64 -0.366488 -0.562074 0
M  V30 27638 H 2624.19 -1.59655 -1.27791 0
M  V30 27639 H 2622.34 -1.10704 -3.71246 0
M  V30 27640 H 2622.76 -3.28904 -4.08561 0
M  V30 27641 H 2624.23 -1.95901 -5.16069 0
M  V30 27642 H 2624.71 -0.45944 -4.3679 0
M  V30 27643 H 2625.31 -2.01207 -3.74694 0
M  V30 27644 N 2623.63 1.20858 -1.01149 0
M  V30 27645 C 2624.87 1.90094 -0.697898 0
M  V30 27646 C 2625.2 1.78524 0.771982 0
M  V30 27647 O 2624.46 1.1603 1.57593 0
M  V30 27648 C 2624.76 3.4092 -1.07276 0
M  V30 27649 C 2624.42 3.72689 -2.53799 0
M  V30 27650 C 2623.08 3.8107 -2.93835 0
M  V30 27651 C 2625.44 3.8739 -3.4868 0
M  V30 27652 C 2622.76 4.01606 -4.27703 0
M  V30 27653 C 2625.12 4.09435 -4.8223 0
M  V30 27654 C 2623.78 4.16045 -5.2198 0
M  V30 27655 H 2623.05 0.695602 -0.255379 0
M  V30 27656 H 2625.7 1.43229 -1.27113 0
M  V30 27657 H 2624 3.89565 -0.417867 0
M  V30 27658 H 2625.7 3.92778 -0.807887 0
M  V30 27659 H 2622.29 3.66761 -2.21775 0
M  V30 27660 H 2626.47 3.80276 -3.18911 0
M  V30 27661 H 2621.73 4.04956 -4.58062 0
M  V30 27662 H 2625.9 4.19753 -5.5568 0
M  V30 27663 H 2623.53 4.3171 -6.25724 0
M  V30 27664 N 2625.11 0.787064 1.3654 0
M  V30 27665 C 2626.38 0.282458 1.9355 0
M  V30 27666 C 2626.76 -1.225 1.71922 0
M  V30 27667 O 2626.11 -2.01537 1.07681 0
M  V30 27668 C 2626.32 0.672522 3.42459 0
M  V30 27669 C 2627.67 0.650936 4.19581 0
M  V30 27670 O 2628.69 0.612851 3.50888 0
M  V30 27671 O 2627.55 0.691718 5.42105 0
M  V30 27672 H 2624.65 0.0693144 0.82409 0
M  V30 27673 H 2627.19 0.869449 1.45735 0
M  V30 27674 H 2625.96 1.71228 3.51848 0
M  V30 27675 H 2625.59 0.059291 3.97556 0
M  V30 27676 N 2626.58 -1.48101 0.53888 0
M  V30 27677 C 2627.49 -2.33541 -0.222607 0
M  V30 27678 C 2628.51 -1.47049 -0.930199 0
M  V30 27679 O 2629.69 -1.80013 -0.903179 0
M  V30 27680 C 2626.75 -3.23359 -1.25059 0
M  V30 27681 C 2625.81 -4.25731 -0.552394 0
M  V30 27682 C 2625.04 -5.11257 -1.5314 0
M  V30 27683 O 2625.27 -4.98915 -2.76478 0
M  V30 27684 O 2624.2 -5.92387 -1.06592 0
M  V30 27685 H 2628.03 -2.99919 0.477759 0
M  V30 27686 H 2625.61 -1.46363 0.299695 0
M  V30 27687 H 2627.49 -3.78891 -1.84444 0
M  V30 27688 H 2626.17 -2.59632 -1.9332 0
M  V30 27689 H 2625.08 -3.7401 0.0821798 0
M  V30 27690 H 2626.41 -4.92121 0.0884391 0
M  V30 27691 N 2628.06 -0.274434 -1.55192 0
M  V30 27692 C 2629.01 0.613335 -2.22501 0
M  V30 27693 C 2629.98 1.15027 -1.19825 0
M  V30 27694 O 2631.16 1.1997 -1.48364 0
M  V30 27695 C 2628.3 1.79194 -2.9493 0
M  V30 27696 C 2627.42 1.28892 -4.12324 0
M  V30 27697 C 2626.55 2.42926 -4.72398 0
M  V30 27698 C 2625.59 1.89624 -5.81987 0
M  V30 27699 N 2624.73 2.97129 -6.36128 0
M  V30 27700 H 2629.57 0.0327036 -2.97982 0
M  V30 27701 H 2627.1 0.0043756 -1.47099 0
M  V30 27702 H 2629.06 2.48472 -3.35138 0
M  V30 27703 H 2627.69 2.34461 -2.21874 0
M  V30 27704 H 2626.74 0.48926 -3.77241 0
M  V30 27705 H 2628.06 0.858501 -4.91356 0
M  V30 27706 H 2627.21 3.20199 -5.15323 0
M  V30 27707 H 2625.95 2.89283 -3.92641 0
M  V30 27708 H 2624.95 1.10831 -5.38513 0
M  V30 27709 H 2626.18 1.44204 -6.63613 0
M  V30 27710 H 2624.13 3.42869 -5.59265 0
M  V30 27711 H 2624.04 2.58502 -7.10431 0
M  V30 27712 H 2625.31 3.74379 -6.83711 0
M  V30 27713 N 2629.54 1.576 -0.00170483 0
M  V30 27714 C 2630.49 2.08529 0.989158 0
M  V30 27715 C 2631.46 0.981088 1.34029 0
M  V30 27716 O 2632.64 1.25362 1.43837 0
M  V30 27717 C 2629.78 2.59467 2.27532 0
M  V30 27718 C 2628.89 3.83795 1.98307 0
M  V30 27719 C 2628.03 4.23227 3.21017 0
M  V30 27720 C 2627.07 5.40387 2.87486 0
M  V30 27721 N 2626.21 5.75105 4.02739 0
M  V30 27722 H 2631.05 2.92919 0.547921 0
M  V30 27723 H 2628.58 1.44804 0.258891 0
M  V30 27724 H 2630.54 2.87079 3.02724 0
M  V30 27725 H 2629.17 1.77948 2.69322 0
M  V30 27726 H 2628.22 3.6308 1.13476 0
M  V30 27727 H 2629.53 4.69084 1.69593 0
M  V30 27728 H 2628.69 4.5213 4.04553 0
M  V30 27729 H 2627.43 3.3665 3.52871 0
M  V30 27730 H 2626.43 5.11206 2.02358 0
M  V30 27731 H 2627.66 6.28642 2.56878 0
M  V30 27732 H 2625.6 4.91486 4.34485 0
M  V30 27733 H 2625.52 6.54972 3.77554 0
M  V30 27734 H 2626.79 6.08601 4.87058 0
M  V30 27735 N 2631.02 -0.271076 1.55251 0
M  V30 27736 C 2632.24 -1.02488 1.80308 0
M  V30 27737 C 2632.67 -1.7908 0.575489 0
M  V30 27738 O 2632.03 -1.74968 -0.474956 0
M  V30 27739 C 2632.07 -1.95762 3.02836 0
M  V30 27740 O 2631.18 -3.04563 2.78056 0
M  V30 27741 H 2630.52 -0.292913 0.595901 0
M  V30 27742 H 2633.05 -0.299401 2.02398 0
M  V30 27743 H 2633.06 -2.3768 3.3162 0
M  V30 27744 H 2631.73 -1.39427 3.91833 0
M  V30 27745 H 2630.31 -2.66946 2.60373 0
M  V30 27746 N 2632.5 -1.48217 -0.535675 0
M  V30 27747 C 2633.74 -1.57155 -1.29127 0
M  V30 27748 C 2634.1 -0.239856 -1.90899 0
M  V30 27749 O 2633.39 0.756717 -1.76024 0
M  V30 27750 C 2633.58 -2.64216 -2.40675 0
M  V30 27751 C 2633.41 -4.07667 -1.89837 0
M  V30 27752 C 2632.18 -4.74872 -1.72699 0
M  V30 27753 C 2634.38 -4.94013 -1.43022 0
M  V30 27754 N 2632.36 -6.02759 -1.16426 0
M  V30 27755 C 2633.73 -6.121 -0.986583 0
M  V30 27756 C 2635.79 -4.80283 -1.31272 0
M  V30 27757 C 2634.49 -7.17971 -0.437105 0
M  V30 27758 C 2636.52 -5.8627 -0.777243 0
M  V30 27759 C 2635.88 -7.03561 -0.34365 0
M  V30 27760 H 2631.98 -0.629656 -0.463742 0
M  V30 27761 H 2634.56 -1.85071 -0.604704 0
M  V30 27762 H 2632.73 -2.38132 -3.06835 0
M  V30 27763 H 2634.47 -2.62872 -3.07701 0
M  V30 27764 H 2631.22 -4.31115 -1.96054 0
M  V30 27765 H 2631.65 -6.70949 -0.903163 0
M  V30 27766 H 2636.29 -3.89949 -1.63401 0
M  V30 27767 H 2634.01 -8.08034 -0.103479 0
M  V30 27768 H 2637.59 -5.77699 -0.689586 0
M  V30 27769 H 2636.47 -7.84174 0.0642598 0
M  V30 27770 N 2633.97 0.784108 -1.3671 0
M  V30 27771 C 2635.2 1.57075 -1.34206 0
M  V30 27772 C 2635.61 1.89041 0.0774613 0
M  V30 27773 O 2634.96 1.50994 1.04626 0
M  V30 27774 C 2635.02 2.91531 -2.10356 0
M  V30 27775 C 2634.68 2.82265 -3.5941 0
M  V30 27776 C 2635.68 2.54143 -4.5355 0
M  V30 27777 C 2633.36 3.00676 -4.02367 0
M  V30 27778 C 2635.36 2.44541 -5.88624 0
M  V30 27779 C 2633.04 2.90695 -5.37531 0
M  V30 27780 C 2634.04 2.62666 -6.30473 0
M  V30 27781 O 2633.73 2.52689 -7.63154 0
M  V30 27782 H 2633.46 0.493677 -0.461799 0
M  V30 27783 H 2636.02 0.980681 -1.80477 0
M  V30 27784 H 2634.25 3.52609 -1.58756 0
M  V30 27785 H 2635.94 3.52842 -2.00643 0
M  V30 27786 H 2636.7 2.39617 -4.21673 0
M  V30 27787 H 2632.58 3.21497 -3.30395 0
M  V30 27788 H 2636.12 2.22584 -6.61137 0
M  V30 27789 H 2632.02 3.04785 -5.69014 0
M  V30 27790 H 2632.79 2.68131 -7.73336 0
M  V30 27791 N 2635.45 1.21076 1.00888 0
M  V30 27792 C 2636.68 1.04996 1.77931 0
M  V30 27793 C 2637.09 -0.403462 1.84848 0
M  V30 27794 O 2636.43 -1.29179 1.30608 0
M  V30 27795 C 2636.5 1.56727 3.23538 0
M  V30 27796 C 2636.16 3.05135 3.40208 0
M  V30 27797 C 2637.16 4.02721 3.28803 0
M  V30 27798 C 2634.84 3.44258 3.65775 0
M  V30 27799 C 2636.84 5.3742 3.42723 0
M  V30 27800 C 2634.52 4.7911 3.79337 0
M  V30 27801 C 2635.52 5.755 3.67817 0
M  V30 27802 O 2635.21 7.07905 3.80953 0
M  V30 27803 H 2634.94 0.369391 0.56615 0
M  V30 27804 H 2637.49 1.60781 1.27823 0
M  V30 27805 H 2635.72 0.953351 3.74764 0
M  V30 27806 H 2637.41 1.36549 3.82242 0
M  V30 27807 H 2638.18 3.7384 3.0898 0
M  V30 27808 H 2634.06 2.69768 3.73826 0
M  V30 27809 H 2637.6 6.12638 3.33647 0
M  V30 27810 H 2633.5 5.07679 3.98664 0
M  V30 27811 H 2634.27 7.15261 3.97924 0
M  V30 27812 N 2636.93 -1.2032 1.01789 0
M  V30 27813 C 2637.84 -2.26826 0.598938 0
M  V30 27814 C 2638.86 -1.70147 -0.36415 0
M  V30 27815 O 2640.03 -2.00142 -0.224777 0
M  V30 27816 C 2637.1 -3.46657 -0.054916 0
M  V30 27817 C 2636.16 -4.18559 0.954279 0
M  V30 27818 C 2635.39 -5.32669 0.331533 0
M  V30 27819 O 2635.61 -5.63751 -0.868411 0
M  V30 27820 O 2634.55 -5.9269 1.0489 0
M  V30 27821 H 2638.37 -2.6488 1.48567 0
M  V30 27822 H 2635.96 -1.26963 0.787456 0
M  V30 27823 H 2637.84 -4.19301 -0.420028 0
M  V30 27824 H 2636.52 -3.10474 -0.915822 0
M  V30 27825 H 2635.42 -3.48081 1.37078 0
M  V30 27826 H 2636.76 -4.58685 1.78519 0
M  V30 27827 N 2638.41 -0.794293 -1.3612 0
M  V30 27828 C 2639.36 -0.194141 -2.29982 0
M  V30 27829 C 2640.33 0.664807 -1.52215 0
M  V30 27830 O 2641.51 0.612466 -1.80703 0
M  V30 27831 C 2638.65 0.661184 -3.38707 0
M  V30 27832 C 2637.76 -0.216842 -4.31455 0
M  V30 27833 C 2636.9 0.645319 -5.27266 0
M  V30 27834 C 2635.94 -0.233863 -6.11653 0
M  V30 27835 N 2635.07 0.587559 -6.99637 0
M  V30 27836 H 2639.91 -1.00001 -2.8072 0
M  V30 27837 H 2637.45 -0.504701 -1.38171 0
M  V30 27838 H 2639.41 1.17212 -4.00396 0
M  V30 27839 H 2638.04 1.43244 -2.89277 0
M  V30 27840 H 2637.09 -0.845789 -3.70878 0
M  V30 27841 H 2638.4 -0.89406 -4.90722 0
M  V30 27842 H 2637.56 1.22188 -5.94269 0
M  V30 27843 H 2636.3 1.35615 -4.68466 0
M  V30 27844 H 2635.3 -0.822785 -5.43609 0
M  V30 27845 H 2636.53 -0.942365 -6.7253 0
M  V30 27846 H 2634.47 1.28259 -6.43339 0
M  V30 27847 H 2634.39 -0.0318731 -7.55993 0
M  V30 27848 H 2635.66 1.14779 -7.71003 0
M  V30 27849 N 2639.89 1.47813 -0.546727 0
M  V30 27850 C 2640.83 2.29872 0.206814 0
M  V30 27851 C 2641.8 1.38413 0.918211 0
M  V30 27852 O 2642.99 1.67376 0.915962 0
M  V30 27853 C 2640.13 3.22153 1.2374 0
M  V30 27854 C 2639.24 4.28698 0.533141 0
M  V30 27855 C 2638.38 5.08141 1.54811 0
M  V30 27856 C 2637.42 6.06471 0.82824 0
M  V30 27857 N 2636.55 6.78911 1.78954 0
M  V30 27858 H 2641.39 2.93791 -0.499089 0
M  V30 27859 H 2638.93 1.44821 -0.257956 0
M  V30 27860 H 2640.89 3.74068 1.84739 0
M  V30 27861 H 2639.52 2.60121 1.91147 0
M  V30 27862 H 2638.57 3.79919 -0.191156 0
M  V30 27863 H 2639.88 4.9879 -0.0312863 0
M  V30 27864 H 2639.04 5.64154 2.23193 0
M  V30 27865 H 2637.77 4.37926 2.14644 0
M  V30 27866 H 2636.78 5.49645 0.130442 0
M  V30 27867 H 2638 6.78691 0.235788 0
M  V30 27868 H 2635.95 6.11434 2.37665 0
M  V30 27869 H 2635.87 7.45137 1.27699 0
M  V30 27870 H 2637.14 7.39504 2.46483 0
M  V30 27871 N 2641.36 0.28266 1.55044 0
M  V30 27872 C 2642.59 -0.337941 2.04628 0
M  V30 27873 C 2643.01 -1.48121 1.15939 0
M  V30 27874 O 2642.37 -1.80596 0.159564 0
M  V30 27875 C 2642.42 -0.789298 3.51856 0
M  V30 27876 O 2641.52 -1.89585 3.66239 0
M  V30 27877 H 2640.87 -0.0687145 0.660435 0
M  V30 27878 H 2643.4 0.41916 2.0026 0
M  V30 27879 H 2643.41 -1.08304 3.93363 0
M  V30 27880 H 2642.08 0.047115 4.15873 0
M  V30 27881 H 2640.66 -1.60407 3.36636 0
M  V30 27882 N 2642.84 -1.57597 0.0100627 0
M  V30 27883 C 2644.26 -1.55801 -0.346137 0
M  V30 27884 C 2644.46 -1.01375 -1.74142 0
M  V30 27885 O 2643.51 -0.652011 -2.43937 0
M  V30 27886 C 2644.83 -2.99951 -0.212163 0
M  V30 27887 C 2646.38 -3.11687 -0.286354 0
M  V30 27888 C 2646.85 -4.57641 -0.181389 0
M  V30 27889 N 2648.34 -4.62583 -0.238974 0
M  V30 27890 C 2649.08 -5.73113 -0.18125 0
M  V30 27891 N 2648.57 -6.92761 -0.0735392 0
M  V30 27892 N 2650.37 -5.61613 -0.23385 0
M  V30 27893 H 2642.52 -1.91312 0.92269 0
M  V30 27894 H 2644.78 -0.879179 0.354611 0
M  V30 27895 H 2644.49 -3.43649 0.74823 0
M  V30 27896 H 2644.36 -3.63972 -0.99016 0
M  V30 27897 H 2646.75 -2.67913 -1.2372 0
M  V30 27898 H 2646.83 -2.50424 0.521689 0
M  V30 27899 H 2646.47 -5.02091 0.765951 0
M  V30 27900 H 2646.4 -5.16862 -1.00805 0
M  V30 27901 H 2648.89 -3.76516 -0.323144 0
M  V30 27902 H 2649.21 -7.72792 -0.0356645 0
M  V30 27903 H 2647.55 -6.94989 -0.0390239 0
M  V30 27904 H 2650.74 -4.6703 -0.316265 0
M  V30 27905 H 2650.91 -6.47735 -0.1854 0
M  V30 27906 N 2644.32 0.262839 -1.55393 0
M  V30 27907 C 2645.55 1.0153 -1.80849 0
M  V30 27908 C 2645.97 1.78773 -0.584978 0
M  V30 27909 O 2645.33 1.75218 0.465671 0
M  V30 27910 C 2645.38 1.94154 -3.0387 0
M  V30 27911 O 2644.48 3.03084 -2.79668 0
M  V30 27912 H 2643.82 0.289749 -0.597446 0
M  V30 27913 H 2646.35 0.288663 -2.02553 0
M  V30 27914 H 2646.36 2.35918 -3.32876 0
M  V30 27915 H 2645.04 1.37347 -3.92567 0
M  V30 27916 H 2643.61 2.65561 -2.61785 0
M  V30 27917 N 2645.8 1.48499 0.527807 0
M  V30 27918 C 2647.02 1.60549 1.31297 0
M  V30 27919 C 2647.45 0.266753 1.86199 0
M  V30 27920 O 2646.81 -0.761889 1.64514 0
M  V30 27921 C 2646.85 2.65682 2.43814 0
M  V30 27922 O 2645.96 2.22993 3.46912 0
M  V30 27923 H 2645.3 0.538284 0.388775 0
M  V30 27924 H 2647.83 1.94501 0.634862 0
M  V30 27925 H 2647.84 2.87023 2.89968 0
M  V30 27926 H 2646.51 3.62872 2.03215 0
M  V30 27927 H 2645.09 2.11875 3.06861 0
M  V30 27928 N 2647.28 -0.776847 1.37123 0
M  V30 27929 C 2648.52 -1.53673 1.33253 0
M  V30 27930 C 2648.88 -1.92217 -0.0839553 0
M  V30 27931 O 2648.17 -1.60826 -1.04142 0
M  V30 27932 C 2648.37 -2.81607 2.20073 0
M  V30 27933 C 2648.19 -2.55567 3.70021 0
M  V30 27934 C 2646.96 -2.49953 4.39149 0
M  V30 27935 C 2649.16 -2.23909 4.63 0
M  V30 27936 N 2647.14 -2.15943 5.74667 0
M  V30 27937 C 2648.52 -1.99995 5.86858 0
M  V30 27938 C 2650.57 -2.10022 4.51437 0
M  V30 27939 C 2649.27 -1.63596 7.00449 0
M  V30 27940 C 2651.3 -1.75023 5.64908 0
M  V30 27941 C 2650.66 -1.51965 6.87813 0
M  V30 27942 H 2646.76 -0.562847 0.542888 0
M  V30 27943 H 2649.34 -0.906753 1.72296 0
M  V30 27944 H 2647.52 -3.42451 1.83254 0
M  V30 27945 H 2649.25 -3.47457 2.07498 0
M  V30 27946 H 2646 -2.65632 3.92093 0
M  V30 27947 H 2646.43 -2.01649 6.46272 0
M  V30 27948 H 2651.07 -2.26533 3.56991 0
M  V30 27949 H 2648.79 -1.45823 7.94834 0
M  V30 27950 H 2652.37 -1.64943 5.57929 0
M  V30 27951 H 2651.25 -1.25283 7.74128 0
M  V30 27952 N 2648.76 -1.2161 -1.00244 0
M  V30 27953 C 2650.17 -0.973998 -1.26434 0
M  V30 27954 C 2650.37 0.338109 -1.98643 0
M  V30 27955 O 2649.43 1.06313 -2.29028 0
M  V30 27956 C 2650.74 -2.1663 -2.08547 0
M  V30 27957 C 2652.29 -2.20883 -2.21765 0
M  V30 27958 C 2652.76 -3.39639 -3.07261 0
M  V30 27959 N 2654.25 -3.39741 -3.14849 0
M  V30 27960 C 2654.99 -4.2828 -3.81266 0
M  V30 27961 N 2654.49 -5.2702 -4.49691 0
M  V30 27962 N 2656.28 -4.16081 -3.77932 0
M  V30 27963 H 2648.43 -2.05985 -0.518053 0
M  V30 27964 H 2650.69 -0.902119 -0.291352 0
M  V30 27965 H 2650.4 -3.1173 -1.62841 0
M  V30 27966 H 2650.27 -2.15902 -3.09299 0
M  V30 27967 H 2652.66 -1.26337 -2.66689 0
M  V30 27968 H 2652.74 -2.25654 -1.20474 0
M  V30 27969 H 2652.38 -4.3448 -2.63039 0
M  V30 27970 H 2652.31 -3.32107 -4.08672 0
M  V30 27971 H 2654.81 -2.68285 -2.66142 0
M  V30 27972 H 2655.12 -5.90876 -4.98082 0
M  V30 27973 H 2653.46 -5.30943 -4.4847 0
M  V30 27974 H 2656.65 -3.38201 -3.23632 0
M  V30 27975 H 2656.83 -4.8529 -4.29416 0
M  V30 27976 N 2650.23 1.19778 -1.02425 0
M  V30 27977 C 2651.16 2.25074 -0.621609 0
M  V30 27978 C 2652.14 1.66091 0.367119 0
M  V30 27979 O 2653.33 1.92573 0.250858 0
M  V30 27980 C 2650.46 3.47284 0.0331216 0
M  V30 27981 C 2649.41 4.1891 -0.877397 0
M  V30 27982 C 2648.74 5.34628 -0.0880236 0
M  V30 27983 C 2650.04 4.74215 -2.189 0
M  V30 27984 H 2651.73 2.59008 -1.50183 0
M  V30 27985 H 2649.28 1.24501 -0.723569 0
M  V30 27986 H 2651.23 4.20134 0.326414 0
M  V30 27987 H 2649.96 3.12536 0.948109 0
M  V30 27988 H 2648.62 3.47936 -1.15481 0
M  V30 27989 H 2648.26 4.96124 0.828854 0
M  V30 27990 H 2647.96 5.83482 -0.694461 0
M  V30 27991 H 2649.49 6.10277 0.198636 0
M  V30 27992 H 2650.9 5.38844 -1.95755 0
M  V30 27993 H 2649.3 5.33537 -2.74696 0
M  V30 27994 H 2650.37 3.92536 -2.84681 0
M  V30 27995 N 2651.71 0.801501 1.35697 0
M  V30 27996 C 2652.94 0.391804 2.03156 0
M  V30 27997 C 2653.35 -0.99564 1.60413 0
M  V30 27998 O 2652.71 -1.64067 0.799256 0
M  V30 27999 C 2652.76 0.459734 3.58565 0
M  V30 28000 O 2652.48 1.79247 3.99752 0
M  V30 28001 C 2653.98 0.0421984 4.4328 0
M  V30 28002 H 2651.2 0.159837 0.651685 0
M  V30 28003 H 2653.75 1.08371 1.73424 0
M  V30 28004 H 2651.9 -0.183871 3.86963 0
M  V30 28005 H 2652.32 1.75171 4.94384 0
M  V30 28006 H 2653.79 0.140851 5.5182 0
M  V30 28007 H 2654.27 -1.01188 4.27385 0
M  V30 28008 H 2654.87 0.658761 4.20167 0
M  V30 28009 N 2653.19 -1.47521 0.554558 0
M  V30 28010 C 2654.41 -2.07375 0.0323025 0
M  V30 28011 C 2654.84 -1.4049 -1.25077 0
M  V30 28012 O 2654.2 -0.47899 -1.74858 0
M  V30 28013 C 2654.25 -3.60291 -0.149334 0
M  V30 28014 O 2653.35 -3.94172 -1.21252 0
M  V30 28015 H 2652.69 -0.662105 0.0501345 0
M  V30 28016 H 2655.22 -1.89579 0.769485 0
M  V30 28017 H 2655.23 -4.0637 -0.364365 0
M  V30 28018 H 2653.91 -4.0837 0.787815 0
M  V30 28019 H 2652.48 -3.59842 -0.978187 0
M  V30 28020 N 2654.67 -0.290879 -1.54892 0
M  V30 28021 C 2655.89 0.327084 -2.04805 0
M  V30 28022 C 2656.32 1.47504 -1.16723 0
M  V30 28023 O 2655.68 1.80509 -0.169139 0
M  V30 28024 C 2655.72 0.770627 -3.52269 0
M  V30 28025 O 2654.83 1.8764 -3.67239 0
M  V30 28026 H 2654.17 0.0652111 -0.66079 0
M  V30 28027 H 2656.7 -0.429774 -2.00035 0
M  V30 28028 H 2656.71 1.06216 -3.93932 0
M  V30 28029 H 2655.38 -0.0691691 -4.15842 0
M  V30 28030 H 2653.96 1.5862 -3.37482 0
M  V30 28031 N 2656.15 1.57589 -0.0184203 0
M  V30 28032 C 2657.06 2.13017 0.982906 0
M  V30 28033 C 2658.07 1.07981 1.36441 0
M  V30 28034 O 2659.25 1.39982 1.448 0
M  V30 28035 C 2656.31 2.63756 2.25019 0
M  V30 28036 C 2655.37 3.83465 1.93011 0
M  V30 28037 C 2654.61 4.31775 3.13698 0
M  V30 28038 O 2654.83 3.79312 4.26003 0
M  V30 28039 O 2653.76 5.23737 2.9662 0
M  V30 28040 H 2657.59 2.98831 0.541656 0
M  V30 28041 H 2655.17 1.48034 0.201539 0
M  V30 28042 H 2657.06 2.96507 2.99435 0
M  V30 28043 H 2655.73 1.8103 2.68346 0
M  V30 28044 H 2654.64 3.55657 1.16013 0
M  V30 28045 H 2655.97 4.6732 1.54508 0
M  V30 28046 N 2657.62 -0.254594 1.5553 0
M  V30 28047 C 2658.56 -1.34121 1.84626 0
M  V30 28048 C 2659.53 -1.46727 0.700718 0
M  V30 28049 O 2660.72 -1.63062 0.945669 0
M  V30 28050 C 2657.85 -2.7156 2.02417 0
M  V30 28051 C 2656.89 -2.76144 3.25033 0
M  V30 28052 S 2657.72 -2.33529 4.81897 0
M  V30 28053 C 2658.88 -3.72908 5.02683 0
M  V30 28054 H 2659.11 -1.0924 2.76503 0
M  V30 28055 H 2656.65 -0.455185 1.47538 0
M  V30 28056 H 2658.6 -3.50701 2.13351 0
M  V30 28057 H 2657.27 -2.93683 1.11396 0
M  V30 28058 H 2656.46 -3.77063 3.34424 0
M  V30 28059 H 2656.06 -2.05041 3.12785 0
M  V30 28060 H 2658.35 -4.6834 4.89554 0
M  V30 28061 H 2659.3 -3.68457 6.04686 0
M  V30 28062 H 2659.7 -3.65064 4.30567 0
M  V30 28063 N 2659.1 -1.48777 -0.519925 0
M  V30 28064 C 2660.05 -1.64047 -1.6235 0
M  V30 28065 C 2661.02 -0.482279 -1.58944 0
M  V30 28066 O 2662.2 -0.707003 -1.77218 0
M  V30 28067 C 2659.34 -1.69552 -3.00576 0
M  V30 28068 C 2658.46 -2.96547 -3.1414 0
M  V30 28069 C 2657.59 -2.9315 -4.42986 0
M  V30 28070 C 2656.63 -4.14805 -4.50114 0
M  V30 28071 N 2655.77 -4.09428 -5.70363 0
M  V30 28072 H 2660.61 -2.58284 -1.48639 0
M  V30 28073 H 2658.14 -1.28078 -0.723493 0
M  V30 28074 H 2660.1 -1.70726 -3.80668 0
M  V30 28075 H 2658.73 -0.787973 -3.13035 0
M  V30 28076 H 2657.78 -3.05072 -2.27234 0
M  V30 28077 H 2659.1 -3.86533 -3.15268 0
M  V30 28078 H 2658.25 -2.92781 -5.3138 0
M  V30 28079 H 2656.99 -2.0091 -4.44395 0
M  V30 28080 H 2655.99 -4.15439 -3.60126 0
M  V30 28081 H 2657.22 -5.08216 -4.50436 0
M  V30 28082 H 2655.17 -3.20014 -5.72649 0
M  V30 28083 H 2655.08 -4.93129 -5.73027 0
M  V30 28084 H 2656.35 -4.13133 -6.61016 0
M  V30 28085 N 2660.58 0.769564 -1.37534 0
M  V30 28086 C 2661.53 1.88291 -1.33474 0
M  V30 28087 C 2662.5 1.64892 -0.19992 0
M  V30 28088 O 2663.68 1.86779 -0.389627 0
M  V30 28089 C 2660.82 3.25384 -1.14974 0
M  V30 28090 C 2659.93 3.60722 -2.37704 0
M  V30 28091 C 2659.07 4.87036 -2.1206 0
M  V30 28092 C 2658.11 5.15112 -3.30646 0
M  V30 28093 N 2657.25 6.32615 -3.04538 0
M  V30 28094 H 2662.09 1.91096 -2.28662 0
M  V30 28095 H 2659.62 0.934238 -1.13624 0
M  V30 28096 H 2661.58 4.04471 -1.02268 0
M  V30 28097 H 2660.21 3.21948 -0.23432 0
M  V30 28098 H 2659.26 2.76603 -2.61142 0
M  V30 28099 H 2660.57 3.77407 -3.26137 0
M  V30 28100 H 2659.73 5.74032 -1.96398 0
M  V30 28101 H 2658.47 4.7246 -1.20968 0
M  V30 28102 H 2657.47 4.26591 -3.46844 0
M  V30 28103 H 2658.7 5.31595 -4.22591 0
M  V30 28104 H 2656.64 6.19392 -2.16077 0
M  V30 28105 H 2656.56 6.49725 -3.86515 0
M  V30 28106 H 2657.83 7.22541 -2.92498 0
M  V30 28107 N 2662.06 1.22139 0.995977 0
M  V30 28108 C 2663.28 1.07113 1.77599 0
M  V30 28109 C 2663.71 -0.374232 1.8434 0
M  V30 28110 O 2663.07 -1.27026 1.29361 0
M  V30 28111 C 2663.11 1.68341 3.18894 0
M  V30 28112 O 2662.22 0.934998 4.01661 0
M  V30 28113 H 2661.56 0.376406 0.547005 0
M  V30 28114 H 2664.09 1.61872 1.25134 0
M  V30 28115 H 2664.1 1.72937 3.69536 0
M  V30 28116 H 2662.77 2.73521 3.13303 0
M  V30 28117 H 2661.35 0.964814 3.60202 0
M  V30 28118 N 2663.54 -1.19233 1.03059 0
M  V30 28119 C 2664.49 -2.20409 0.583425 0
M  V30 28120 C 2665.47 -1.56618 -0.368748 0
M  V30 28121 O 2666.66 -1.75983 -0.18944 0
M  V30 28122 C 2663.79 -3.43243 -0.062593 0
M  V30 28123 C 2662.88 -4.14175 0.912123 0
M  V30 28124 N 2663.27 -4.61268 2.07522 0
M  V30 28125 C 2661.57 -4.39886 0.735936 0
M  V30 28126 C 2662.27 -5.15759 2.69012 0
M  V30 28127 N 2661.24 -5.06662 1.96962 0
M  V30 28128 H 2665.05 -2.545 1.46993 0
M  V30 28129 H 2662.56 -1.35326 0.897809 0
M  V30 28130 H 2664.56 -4.14971 -0.40058 0
M  V30 28131 H 2663.22 -3.10652 -0.944758 0
M  V30 28132 H 2664.23 -4.56039 2.45456 0
M  V30 28133 H 2660.9 -4.17387 -0.0969922 0
M  V30 28134 H 2662.29 -5.62473 3.67524 0
M  V30 28135 N 2665.01 -0.808686 -1.3527 0
M  V30 28136 C 2665.92 -0.222121 -2.33546 0
M  V30 28137 C 2666.94 0.635982 -1.61961 0
M  V30 28138 O 2668.12 0.547239 -1.93823 0
M  V30 28139 C 2665.18 0.61789 -3.4115 0
M  V30 28140 C 2664.24 -0.26095 -4.28506 0
M  V30 28141 C 2663.48 0.539063 -5.30971 0
M  V30 28142 O 2663.7 1.77358 -5.42126 0
M  V30 28143 O 2662.63 -0.0711584 -6.01858 0
M  V30 28144 H 2666.46 -1.03517 -2.85514 0
M  V30 28145 H 2664.04 -0.570519 -1.38078 0
M  V30 28146 H 2665.93 1.09627 -4.0689 0
M  V30 28147 H 2664.6 1.4085 -2.9145 0
M  V30 28148 H 2663.51 -0.786516 -3.65739 0
M  V30 28149 H 2664.84 -1.01556 -4.81609 0
M  V30 28150 N 2666.49 1.47225 -0.562374 0
M  V30 28151 C 2667.74 2.0246 -0.0402521 0
M  V30 28152 C 2668.07 1.43616 1.31166 0
M  V30 28153 O 2667.32 0.583333 1.86804 0
M  V30 28154 C 2667.62 3.57269 0.0969189 0
M  V30 28155 C 2667.29 4.35056 -1.18477 0
M  V30 28156 C 2665.95 4.56028 -1.53596 0
M  V30 28157 C 2668.3 4.79878 -2.03387 0
M  V30 28158 C 2665.63 5.19072 -2.73462 0
M  V30 28159 C 2667.98 5.44245 -3.2246 0
M  V30 28160 C 2666.65 5.63449 -3.57885 0
M  V30 28161 H 2665.92 0.740854 -0.0147293 0
M  V30 28162 H 2668.56 1.76836 -0.734926 0
M  V30 28163 H 2666.87 3.81914 0.874593 0
M  V30 28164 H 2668.56 3.97662 0.516338 0
M  V30 28165 H 2665.15 4.19015 -0.901334 0
M  V30 28166 H 2669.34 4.6345 -1.77561 0
M  V30 28167 H 2664.59 5.32133 -3.01071 0
M  V30 28168 H 2668.77 5.77938 -3.88536 0
M  V30 28169 H 2666.4 6.1207 -4.50859 0
M  V30 28170 N 2667.97 0.299089 1.54736 0
M  V30 28171 C 2668.92 -0.592894 2.20156 0
M  V30 28172 C 2669.9 -1.10036 1.17392 0
M  V30 28173 O 2671.1 -1.04145 1.43118 0
M  V30 28174 C 2668.23 -1.76522 2.9444 0
M  V30 28175 C 2667.31 -1.27381 4.04518 0
M  V30 28176 N 2667.7 -0.50025 5.0332 0
M  V30 28177 C 2666 -1.5547 4.18025 0
M  V30 28178 C 2666.7 -0.238807 5.8121 0
M  V30 28179 N 2665.68 -0.818068 5.37409 0
M  V30 28180 H 2669.48 0.00568762 2.93899 0
M  V30 28181 H 2666.99 0.10376 1.62068 0
M  V30 28182 H 2668.99 -2.41576 3.39774 0
M  V30 28183 H 2667.65 -2.36752 2.22213 0
M  V30 28184 H 2668.66 -0.145328 5.17696 0
M  V30 28185 H 2665.34 -2.16463 3.57002 0
M  V30 28186 H 2666.73 0.382341 6.70811 0
M  V30 28187 N 2669.45 -1.57577 0.0267774 0
M  V30 28188 C 2670.41 -2.08998 -0.940879 0
M  V30 28189 C 2671.41 -1.00457 -1.25559 0
M  V30 28190 O 2672.6 -1.26625 -1.19632 0
M  V30 28191 C 2669.73 -2.55387 -2.2581 0
M  V30 28192 H 2670.93 -2.95777 -0.495576 0
M  V30 28193 H 2668.48 -1.54727 -0.221214 0
M  V30 28194 H 2669.21 -1.71931 -2.74973 0
M  V30 28195 H 2669 -3.34682 -2.0428 0
M  V30 28196 H 2670.49 -2.95403 -2.95173 0
M  V30 28197 N 2670.93 0.246342 -1.55663 0
M  V30 28198 C 2672.18 0.972223 -1.76722 0
M  V30 28199 C 2672.49 1.86464 -0.590813 0
M  V30 28200 O 2673.69 2.62731 -0.684437 0
M  V30 28201 C 2672.15 1.77874 -3.12872 0
M  V30 28202 C 2671.76 0.933691 -4.38162 0
M  V30 28203 C 2673.5 2.49732 -3.4327 0
M  V30 28204 C 2671.41 1.73613 -5.65343 0
M  V30 28205 H 2670.34 0.366737 -0.658802 0
M  V30 28206 H 2672.99 0.22687 -1.82092 0
M  V30 28207 H 2671.37 2.56607 -3.0161 0
M  V30 28208 H 2672.55 0.188655 -4.60414 0
M  V30 28209 H 2670.86 0.328415 -4.15103 0
M  V30 28210 H 2673.46 3.10223 -4.35506 0
M  V30 28211 H 2673.8 3.21376 -2.64619 0
M  V30 28212 H 2674.33 1.7801 -3.55749 0
M  V30 28213 H 2671.07 1.06343 -6.46816 0
M  V30 28214 H 2670.59 2.45643 -5.47192 0
M  V30 28215 H 2672.27 2.30313 -6.0462 0
M  V30 28216 N 2672.4 1.4905 0.512027 0
M  V30 28217 C 2673.35 1.65376 1.63566 0
M  V30 28218 C 2674.35 0.519834 1.61227 0
M  V30 28219 O 2675.55 0.69913 1.65868 0
M  V30 28220 H 2671.93 0.521276 0.54201 0
M  V30 28221 H 2673.9 2.59711 1.46945 0
M  V30 28222 C 2672.65 1.72735 3.01758 0
M  V30 28223 H 2671.97 2.59358 3.04259 0
M  V30 28224 H 2673.41 1.88196 3.79945 0
M  V30 28225 C 2671.87 0.469789 3.33608 0
M  V30 28226 O 2672.4 -0.409421 3.99608 0
M  V30 28227 N 2670.61 0.336053 2.8865 0
M  V30 28228 H 2670.15 1.05251 2.35117 0
M  V30 28229 H 2670.11 -0.504309 3.10329 0
M  V30 28230 N 2673.88 -0.762259 1.3794 0
M  V30 28231 C 2675.13 -1.51812 1.33407 0
M  V30 28232 C 2675.45 -1.94844 -0.0780633 0
M  V30 28233 O 2674.72 -1.67005 -1.02402 0
M  V30 28234 H 2673.3 -0.563095 0.490849 0
M  V30 28235 H 2675.96 -0.906638 1.72528 0
M  V30 28236 H 2675.06 -2.41309 1.9793 0
M  V30 28237 N 2675.36 -1.22666 -0.989486 0
M  V30 28238 C 2676.29 -0.943022 -2.07804 0
M  V30 28239 C 2677.27 0.115328 -1.6219 0
M  V30 28240 O 2678.46 -0.0169896 -1.88492 0
M  V30 28241 C 2675.58 -0.418957 -3.36099 0
M  V30 28242 C 2674.63 -1.46251 -4.00641 0
M  V30 28243 S 2675.46 -3.03696 -4.41054 0
M  V30 28244 C 2676.62 -2.52937 -5.72515 0
M  V30 28245 H 2676.85 -1.86481 -2.31543 0
M  V30 28246 H 2674.38 -1.0581 -1.12444 0
M  V30 28247 H 2676.34 -0.123186 -4.10315 0
M  V30 28248 H 2675 0.481763 -3.10383 0
M  V30 28249 H 2674.2 -1.04577 -4.93031 0
M  V30 28250 H 2673.8 -1.70716 -3.32764 0
M  V30 28251 H 2676.09 -1.9439 -6.49014 0
M  V30 28252 H 2677.03 -3.43831 -6.1902 0
M  V30 28253 H 2677.44 -1.94103 -5.3008 0
M  V30 28254 N 2676.84 1.18685 -1.0369 0
M  V30 28255 C 2678.09 1.87899 -0.733268 0
M  V30 28256 C 2678.4 1.80992 0.741713 0
M  V30 28257 O 2679.61 2.45532 1.15871 0
M  V30 28258 C 2678.06 3.37073 -1.26133 0
M  V30 28259 C 2677.67 3.5252 -2.76467 0
M  V30 28260 C 2679.42 4.11713 -1.03406 0
M  V30 28261 C 2677.32 4.95632 -3.2265 0
M  V30 28262 H 2676.25 0.703771 -0.270597 0
M  V30 28263 H 2678.9 1.34131 -1.25224 0
M  V30 28264 H 2677.29 3.90287 -0.670233 0
M  V30 28265 H 2678.46 3.09596 -3.41302 0
M  V30 28266 H 2676.77 2.9128 -2.97565 0
M  V30 28267 H 2679.37 5.17265 -1.35429 0
M  V30 28268 H 2679.71 4.1629 0.0288514 0
M  V30 28269 H 2680.25 3.64661 -1.58957 0
M  V30 28270 H 2676.99 4.96221 -4.28305 0
M  V30 28271 H 2676.51 5.39285 -2.62549 0
M  V30 28272 H 2678.19 5.64328 -3.16454 0
M  V30 28273 N 2678.32 0.815849 1.34839 0
M  V30 28274 C 2679.55 0.41273 2.02435 0
M  V30 28275 C 2679.96 -0.983878 1.61606 0
M  V30 28276 O 2679.3 -1.64693 0.813758 0
M  V30 28277 C 2679.36 0.427245 3.56952 0
M  V30 28278 C 2679.02 1.77596 4.2108 0
M  V30 28279 C 2680.02 2.73571 4.42103 0
M  V30 28280 C 2677.71 2.06251 4.58002 0
M  V30 28281 C 2679.7 3.96379 4.99162 0
M  V30 28282 C 2677.39 3.29319 5.14774 0
M  V30 28283 C 2678.39 4.24201 5.35297 0
M  V30 28284 O 2678.07 5.45096 5.90869 0
M  V30 28285 H 2677.81 0.164706 0.655628 0
M  V30 28286 H 2680.36 1.10343 1.73244 0
M  V30 28287 H 2678.59 -0.320108 3.85373 0
M  V30 28288 H 2680.28 0.0451588 4.05875 0
M  V30 28289 H 2681.04 2.52728 4.13949 0
M  V30 28290 H 2676.92 1.33204 4.41336 0
M  V30 28291 H 2680.47 4.70448 5.15096 0
M  V30 28292 H 2676.36 3.5003 5.42356 0
M  V30 28293 H 2677.13 5.46519 6.0931 0
M  V30 28294 N 2679.8 -1.46924 0.570174 0
M  V30 28295 C 2681.02 -2.07329 0.0542956 0
M  V30 28296 C 2681.45 -1.41809 -1.2358 0
M  V30 28297 O 2680.8 -0.49751 -1.7434 0
M  V30 28298 C 2680.85 -3.60429 -0.111112 0
M  V30 28299 O 2679.96 -3.95436 -1.17064 0
M  V30 28300 H 2679.3 -0.661536 0.0571541 0
M  V30 28301 H 2681.83 -1.88752 0.789549 0
M  V30 28302 H 2681.84 -4.06733 -0.321244 0
M  V30 28303 H 2680.51 -4.07512 0.831084 0
M  V30 28304 H 2679.09 -3.60859 -0.939966 0
M  V30 28305 N 2681.27 -0.307291 -1.54575 0
M  V30 28306 C 2682.2 0.55903 -2.26709 0
M  V30 28307 C 2683.18 1.13277 -1.26895 0
M  V30 28308 O 2684.37 1.16094 -1.55679 0
M  V30 28309 C 2681.5 1.72796 -3.01262 0
M  V30 28310 C 2680.45 1.28428 -4.08277 0
M  V30 28311 C 2679.78 2.53887 -4.7058 0
M  V30 28312 C 2681.08 0.410946 -5.20681 0
M  V30 28313 H 2682.77 -0.0426286 -2.9937 0
M  V30 28314 H 2680.32 -0.0219426 -1.43983 0
M  V30 28315 H 2682.27 2.34017 -3.50448 0
M  V30 28316 H 2681 2.35596 -2.26191 0
M  V30 28317 H 2679.66 0.695098 -3.5995 0
M  V30 28318 H 2679.3 3.15015 -3.92141 0
M  V30 28319 H 2679 2.24899 -5.42858 0
M  V30 28320 H 2680.53 3.15899 -5.22532 0
M  V30 28321 H 2681.94 0.928997 -5.65723 0
M  V30 28322 H 2680.34 0.214559 -5.99716 0
M  V30 28323 H 2681.41 -0.562372 -4.81628 0
M  V30 28324 N 2682.75 1.57561 -0.0351337 0
M  V30 28325 C 2684.16 1.79801 0.502853 0
M  V30 28326 C 2684.51 0.945951 1.7189 0
M  V30 28327 O 2683.64 0.158028 2.15822 0
M  V30 28328 C 2684.23 3.26097 0.91904 0
M  V30 28329 C 2682.79 3.49311 1.4021 0
M  V30 28330 C 2681.94 2.74825 0.369661 0
M  V30 28331 H 2684.89 1.56537 -0.26113 0
M  V30 28332 H 2684.91 3.36138 1.78302 0
M  V30 28333 H 2684.42 3.88085 0.0337844 0
M  V30 28334 H 2682.52 2.92582 2.30709 0
M  V30 28335 H 2682.64 4.58025 1.40533 0
M  V30 28336 H 2681 2.40482 0.839071 0
M  V30 28337 H 2681.78 3.39532 -0.507232 0
M  V30 28338 N 2684.23 -0.238084 1.55791 0
M  V30 28339 C 2685.48 -0.96297 1.77683 0
M  V30 28340 C 2685.8 -1.85517 0.600706 0
M  V30 28341 O 2685.07 -1.92117 -0.383148 0
M  V30 28342 H 2683.65 -0.358556 0.655322 0
M  V30 28343 H 2686.31 -0.253911 1.93239 0
M  V30 28344 H 2685.41 -1.57952 2.6918 0
M  V30 28345 N 2685.71 -1.4932 -0.504115 0
M  V30 28346 C 2686.64 -1.6867 -1.6147 0
M  V30 28347 C 2687.62 -0.535407 -1.61454 0
M  V30 28348 O 2688.8 -0.770899 -1.78244 0
M  V30 28349 C 2685.93 -1.75033 -2.99968 0
M  V30 28350 C 2684.89 -2.89921 -3.14849 0
M  V30 28351 C 2684.21 -2.81395 -4.54666 0
M  V30 28352 C 2685.51 -4.30898 -2.95168 0
M  V30 28353 H 2687.21 -2.61651 -1.45531 0
M  V30 28354 H 2684.75 -1.25914 -0.698689 0
M  V30 28355 H 2686.71 -1.87157 -3.77558 0
M  V30 28356 H 2685.43 -0.786496 -3.16989 0
M  V30 28357 H 2684.09 -2.77395 -2.39682 0
M  V30 28358 H 2683.74 -1.82926 -4.68559 0
M  V30 28359 H 2683.44 -3.58503 -4.65564 0
M  V30 28360 H 2684.96 -2.95522 -5.34321 0
M  V30 28361 H 2686.38 -4.44122 -3.62531 0
M  V30 28362 H 2684.77 -5.09204 -3.1754 0
M  V30 28363 H 2685.84 -4.45559 -1.91324 0
M  V30 28364 N 2687.19 0.754933 -1.38342 0
M  V30 28365 C 2688.13 1.86865 -1.35463 0
M  V30 28366 C 2689.1 1.64671 -0.217398 0
M  V30 28367 O 2690.29 1.86356 -0.409416 0
M  V30 28368 C 2687.43 3.24147 -1.18418 0
M  V30 28369 C 2686.54 3.58181 -2.41517 0
M  V30 28370 C 2685.68 4.8476 -2.17213 0
M  V30 28371 C 2684.71 5.11576 -3.3609 0
M  V30 28372 N 2683.85 6.29349 -3.1123 0
M  V30 28373 H 2688.69 1.8866 -2.30676 0
M  V30 28374 H 2686.23 0.922134 -1.14608 0
M  V30 28375 H 2688.19 4.03364 -1.06552 0
M  V30 28376 H 2686.82 3.21682 -0.268453 0
M  V30 28377 H 2685.87 2.73818 -2.64061 0
M  V30 28378 H 2687.18 3.73926 -3.30122 0
M  V30 28379 H 2686.33 5.71917 -2.02475 0
M  V30 28380 H 2685.07 4.7115 -1.25972 0
M  V30 28381 H 2684.08 4.22888 -3.51349 0
M  V30 28382 H 2685.3 5.27083 -4.28206 0
M  V30 28383 H 2683.25 6.17065 -2.22635 0
M  V30 28384 H 2683.17 6.45589 -3.93384 0
M  V30 28385 H 2684.43 7.19398 -3.00145 0
M  V30 28386 N 2688.66 1.23189 0.982967 0
M  V30 28387 C 2689.6 0.954029 2.07301 0
M  V30 28388 C 2690.57 -0.106725 1.62249 0
M  V30 28389 O 2691.76 0.0269856 1.88481 0
M  V30 28390 C 2688.89 0.436775 3.35872 0
M  V30 28391 C 2687.93 1.48374 3.99859 0
M  V30 28392 S 2688.76 3.06031 4.39437 0
M  V30 28393 C 2689.92 2.55969 5.71166 0
M  V30 28394 H 2690.15 1.87706 2.30551 0
M  V30 28395 H 2687.69 1.06405 1.11881 0
M  V30 28396 H 2689.64 0.144944 4.10244 0
M  V30 28397 H 2688.31 -0.465296 3.10635 0
M  V30 28398 H 2687.5 1.07191 4.92469 0
M  V30 28399 H 2687.1 1.72479 3.31854 0
M  V30 28400 H 2689.39 1.97829 6.47974 0
M  V30 28401 H 2690.34 3.47109 6.17188 0
M  V30 28402 H 2690.74 1.96911 5.29043 0
M  V30 28403 N 2690.14 -1.18133 1.04318 0
M  V30 28404 C 2691.37 -1.91834 0.767037 0
M  V30 28405 C 2691.78 -1.76558 -0.679989 0
M  V30 28406 O 2691.12 -1.09435 -1.47546 0
M  V30 28407 C 2691.18 -3.43616 1.05681 0
M  V30 28408 C 2690.85 -3.8267 2.49825 0
M  V30 28409 C 2691.85 -3.86245 3.4801 0
M  V30 28410 C 2689.53 -4.13892 2.84603 0
M  V30 28411 C 2691.52 -4.20495 4.79023 0
M  V30 28412 C 2689.21 -4.47812 4.15821 0
M  V30 28413 C 2690.21 -4.5109 5.12842 0
M  V30 28414 O 2689.9 -4.84217 6.41708 0
M  V30 28415 H 2689.63 -0.615758 0.278958 0
M  V30 28416 H 2692.18 -1.50796 1.39463 0
M  V30 28417 H 2690.41 -3.84906 0.372097 0
M  V30 28418 H 2692.1 -3.98567 0.768064 0
M  V30 28419 H 2692.87 -3.62258 3.22481 0
M  V30 28420 H 2688.75 -4.10516 2.09755 0
M  V30 28421 H 2692.29 -4.22968 5.54747 0
M  V30 28422 H 2688.19 -4.7126 4.41117 0
M  V30 28423 H 2688.96 -5.0211 6.46396 0
M  V30 28424 N 2691.62 -0.822988 -1.34405 0
M  V30 28425 C 2692.53 -0.246879 -2.33297 0
M  V30 28426 C 2693.55 0.618768 -1.62626 0
M  V30 28427 O 2694.72 0.526651 -1.94392 0
M  V30 28428 C 2691.79 0.581671 -3.41786 0
M  V30 28429 C 2690.85 -0.306384 -4.28205 0
M  V30 28430 C 2690.08 0.482716 -5.31513 0
M  V30 28431 O 2690.3 1.71598 -5.43976 0
M  V30 28432 O 2689.24 -0.134989 -6.01749 0
M  V30 28433 H 2693.06 -1.06539 -2.844 0
M  V30 28434 H 2690.65 -0.585132 -1.37465 0
M  V30 28435 H 2692.53 1.05305 -4.0803 0
M  V30 28436 H 2691.21 1.37751 -2.92927 0
M  V30 28437 H 2690.11 -0.825263 -3.64884 0
M  V30 28438 H 2691.45 -1.06658 -4.80505 0
M  V30 28439 N 2693.1 1.4662 -0.577957 0
M  V30 28440 C 2694.03 2.28362 0.195761 0
M  V30 28441 C 2695.04 1.38234 0.859958 0
M  V30 28442 O 2696.23 1.62876 0.73032 0
M  V30 28443 C 2693.33 3.13127 1.29634 0
M  V30 28444 C 2692.51 4.3135 0.724974 0
M  V30 28445 C 2691.56 4.97549 1.71265 0
M  V30 28446 O 2690.59 5.55292 1.25057 0
M  V30 28447 N 2691.79 4.94126 3.04663 0
M  V30 28448 H 2694.56 2.95406 -0.50552 0
M  V30 28449 H 2692.12 1.5648 -0.415408 0
M  V30 28450 H 2694.11 3.54278 1.95625 0
M  V30 28451 H 2692.68 2.48189 1.90055 0
M  V30 28452 H 2691.9 3.9404 -0.112274 0
M  V30 28453 H 2693.19 5.07774 0.322945 0
M  V30 28454 H 2692.59 4.4845 3.44832 0
M  V30 28455 H 2691.14 5.39233 3.66157 0
M  V30 28456 N 2694.58 0.315484 1.5441 0
M  V30 28457 C 2695.49 -0.56325 2.27738 0
M  V30 28458 C 2696.5 -1.13611 1.31789 0
M  V30 28459 O 2697.68 -1.15781 1.64793 0
M  V30 28460 C 2694.74 -1.71202 3.01481 0
M  V30 28461 C 2693.8 -1.17177 4.12999 0
M  V30 28462 C 2693.04 -2.26579 4.83216 0
M  V30 28463 O 2693.26 -3.46767 4.5289 0
M  V30 28464 O 2692.19 -1.92453 5.70303 0
M  V30 28465 H 2696.02 0.0320147 3.03683 0
M  V30 28466 H 2693.61 0.081445 1.49178 0
M  V30 28467 H 2695.49 -2.381 3.47687 0
M  V30 28468 H 2694.16 -2.29362 2.28418 0
M  V30 28469 H 2693.07 -0.468109 3.7116 0
M  V30 28470 H 2694.4 -0.635415 4.88081 0
M  V30 28471 N 2696.05 -1.5754 0.0434891 0
M  V30 28472 C 2697.3 -1.93492 -0.627075 0
M  V30 28473 C 2697.66 -0.921392 -1.68903 0
M  V30 28474 O 2696.95 0.0605462 -1.91504 0
M  V30 28475 C 2697.14 -3.33932 -1.27374 0
M  V30 28476 C 2696.97 -4.48853 -0.275951 0
M  V30 28477 C 2695.74 -5.05134 0.129333 0
M  V30 28478 C 2697.94 -5.12097 0.475552 0
M  V30 28479 N 2695.92 -6.03582 1.12079 0
M  V30 28480 C 2697.29 -6.05778 1.32032 0
M  V30 28481 C 2699.35 -4.95021 0.534698 0
M  V30 28482 C 2698.05 -6.8422 2.21892 0
M  V30 28483 C 2700.08 -5.74082 1.42069 0
M  V30 28484 C 2699.44 -6.67391 2.2532 0
M  V30 28485 H 2695.54 -0.755636 -0.201341 0
M  V30 28486 H 2698.12 -1.94366 0.114025 0
M  V30 28487 H 2696.29 -3.3385 -1.9849 0
M  V30 28488 H 2698.02 -3.57194 -1.90249 0
M  V30 28489 H 2694.78 -4.7295 -0.248062 0
M  V30 28490 H 2695.2 -6.57499 1.61318 0
M  V30 28491 H 2699.85 -4.22694 -0.0947074 0
M  V30 28492 H 2697.56 -7.55842 2.85881 0
M  V30 28493 H 2701.15 -5.62899 1.47093 0
M  V30 28494 H 2700.03 -7.27501 2.92767 0
M  V30 28495 N 2697.53 0.229818 -1.55915 0
M  V30 28496 C 2698.78 0.956836 -1.78809 0
M  V30 28497 C 2699.11 1.84314 -0.611719 0
M  V30 28498 O 2698.39 1.90563 0.389365 0
M  V30 28499 C 2698.67 1.80283 -3.11721 0
M  V30 28500 C 2698.52 0.943571 -4.39792 0
M  V30 28501 C 2699.84 2.78216 -3.41004 0
M  V30 28502 H 2696.96 0.346426 -0.650506 0
M  V30 28503 H 2699.6 0.226219 -1.88648 0
M  V30 28504 H 2697.75 2.42574 -3.03463 0
M  V30 28505 H 2699.42 0.33804 -4.6006 0
M  V30 28506 H 2697.67 0.248629 -4.33087 0
M  V30 28507 H 2698.34 1.5697 -5.29211 0
M  V30 28508 H 2700.81 2.26061 -3.49336 0
M  V30 28509 H 2699.69 3.34518 -4.35188 0
M  V30 28510 H 2699.95 3.55541 -2.6276 0
M  V30 28511 N 2699.01 1.49585 0.49619 0
M  V30 28512 C 2700.43 1.36454 0.82779 0
M  V30 28513 C 2700.63 0.40132 1.97463 0
M  V30 28514 O 2699.68 -0.165251 2.51959 0
M  V30 28515 C 2701 2.77279 1.16347 0
M  V30 28516 C 2702.54 2.86015 1.2714 0
M  V30 28517 C 2703.02 4.27618 1.64034 0
M  V30 28518 N 2704.51 4.30451 1.71074 0
M  V30 28519 C 2705.24 5.36988 2.01076 0
M  V30 28520 N 2704.74 6.53764 2.29269 0
M  V30 28521 N 2706.53 5.24408 2.02367 0
M  V30 28522 H 2698.68 2.10803 -0.259984 0
M  V30 28523 H 2700.95 0.946476 -0.053733 0
M  V30 28524 H 2700.65 3.49485 0.394092 0
M  V30 28525 H 2700.53 3.1295 2.10576 0
M  V30 28526 H 2702.91 2.14044 2.03149 0
M  V30 28527 H 2703 2.53921 0.309498 0
M  V30 28528 H 2702.64 5.00117 0.885742 0
M  V30 28529 H 2702.57 4.57179 2.61332 0
M  V30 28530 H 2705.06 3.46234 1.51427 0
M  V30 28531 H 2705.37 7.30778 2.51363 0
M  V30 28532 H 2703.72 6.56982 2.26715 0
M  V30 28533 H 2706.91 4.32183 1.79822 0
M  V30 28534 H 2707.08 6.0753 2.25414 0
M  V30 28535 N 2700.49 -0.747586 1.3874 0
M  V30 28536 C 2701.42 -1.87489 1.39176 0
M  V30 28537 C 2702.4 -1.6815 0.256823 0
M  V30 28538 O 2703.58 -1.88654 0.460795 0
M  V30 28539 C 2700.71 -3.2509 1.22203 0
M  V30 28540 C 2699.67 -3.59043 2.32964 0
M  V30 28541 C 2698.99 -4.95446 2.01091 0
M  V30 28542 C 2700.29 -3.63304 3.75244 0
M  V30 28543 H 2701.99 -1.87382 2.33513 0
M  V30 28544 H 2699.53 -0.900114 1.12401 0
M  V30 28545 H 2701.49 -4.03615 1.21131 0
M  V30 28546 H 2700.21 -3.25693 0.243298 0
M  V30 28547 H 2698.87 -2.82841 2.33231 0
M  V30 28548 H 2698.52 -4.92614 1.01687 0
M  V30 28549 H 2698.22 -5.19131 2.75276 0
M  V30 28550 H 2699.74 -5.76342 2.01648 0
M  V30 28551 H 2701.16 -4.3193 3.76974 0
M  V30 28552 H 2699.55 -3.98501 4.48684 0
M  V30 28553 H 2700.62 -2.63393 4.07127 0
M  V30 28554 N 2701.97 -1.23709 -0.97642 0
M  V30 28555 C 2702.92 -0.988887 -2.05439 0
M  V30 28556 C 2703.9 0.0665619 -1.60762 0
M  V30 28557 O 2705.09 -0.146071 -1.76396 0
M  V30 28558 C 2702.22 -0.586283 -3.38257 0
M  V30 28559 C 2701.31 -1.67734 -3.8952 0
M  V30 28560 N 2701.7 -2.90841 -4.13817 0
M  V30 28561 C 2700 -1.55284 -4.18094 0
M  V30 28562 C 2700.7 -3.6151 -4.55725 0
M  V30 28563 N 2699.67 -2.89038 -4.60389 0
M  V30 28564 H 2703.48 -1.92379 -2.22188 0
M  V30 28565 H 2700.99 -1.13706 -1.15952 0
M  V30 28566 H 2702.99 -0.389731 -4.15074 0
M  V30 28567 H 2701.65 0.341537 -3.22899 0
M  V30 28568 H 2702.66 -3.27107 -4.01524 0
M  V30 28569 H 2699.33 -0.692423 -4.11718 0
M  V30 28570 H 2700.72 -4.67067 -4.83009 0
M  V30 28571 N 2703.44 1.17579 -1.04943 0
M  V30 28572 C 2704.37 2.23705 -0.669211 0
M  V30 28573 C 2705.36 1.66832 0.331806 0
M  V30 28574 O 2706.54 1.93062 0.209954 0
M  V30 28575 C 2703.67 3.47276 -0.04055 0
M  V30 28576 C 2702.62 4.16955 -0.966057 0
M  V30 28577 C 2701.95 5.34321 -0.201406 0
M  V30 28578 C 2703.25 4.69465 -2.2891 0
M  V30 28579 H 2704.94 2.55765 -1.55643 0
M  V30 28580 H 2702.49 1.22938 -0.749815 0
M  V30 28581 H 2704.44 4.20732 0.237224 0
M  V30 28582 H 2703.17 3.14476 0.881603 0
M  V30 28583 H 2701.83 3.45408 -1.22835 0
M  V30 28584 H 2701.47 4.9777 0.723432 0
M  V30 28585 H 2701.17 5.81877 -0.81807 0
M  V30 28586 H 2702.7 6.10561 0.0691426 0
M  V30 28587 H 2704.11 5.3457 -2.07141 0
M  V30 28588 H 2702.51 5.27591 -2.85951 0
M  V30 28589 H 2703.58 3.86409 -2.92944 0
M  V30 28590 N 2704.92 0.830104 1.33967 0
M  V30 28591 C 2705.85 0.271951 2.31911 0
M  V30 28592 C 2706.83 -0.615532 1.58572 0
M  V30 28593 O 2708.02 -0.540914 1.86515 0
M  V30 28594 C 2705.15 -0.561086 3.42738 0
M  V30 28595 C 2704.1 0.229864 4.27382 0
M  V30 28596 C 2703.43 -0.72637 5.29743 0
M  V30 28597 C 2704.73 1.44206 5.01998 0
M  V30 28598 H 2706.42 1.0903 2.78842 0
M  V30 28599 H 2703.97 0.525733 1.3406 0
M  V30 28600 H 2705.92 -0.961795 4.10277 0
M  V30 28601 H 2704.65 -1.41256 2.94473 0
M  V30 28602 H 2703.3 0.612028 3.61455 0
M  V30 28603 H 2702.95 -1.574 4.77739 0
M  V30 28604 H 2702.65 -0.201317 5.87255 0
M  V30 28605 H 2704.18 -1.12478 6.00151 0
M  V30 28606 H 2705.59 1.11498 5.62353 0
M  V30 28607 H 2703.99 1.90327 5.69118 0
M  V30 28608 H 2705.06 2.21648 4.31277 0
M  V30 28609 N 2706.4 -1.46311 0.585725 0
M  V30 28610 C 2707.35 -2.32059 -0.158536 0
M  V30 28611 C 2708.34 -1.44664 -0.881401 0
M  V30 28612 O 2709.55 -1.61273 -0.799447 0
M  V30 28613 H 2705.92 -0.748736 -0.0699934 0
M  V30 28614 H 2707.9 -2.92641 0.583435 0
M  V30 28615 C 2706.64 -3.27887 -1.15695 0
M  V30 28616 H 2705.97 -3.95117 -0.610145 0
M  V30 28617 H 2707.41 -3.9066 -1.64805 0
M  V30 28618 C 2705.87 -2.53458 -2.21947 0
M  V30 28619 O 2706.4 -2.29984 -3.29348 0
M  V30 28620 N 2704.6 -2.13969 -1.96636 0
M  V30 28621 H 2704.15 -2.3326 -1.09305 0
M  V30 28622 H 2704.11 -1.6449 -2.67938 0
M  V30 28623 N 2707.88 -0.323668 -1.54241 0
M  V30 28624 C 2709.13 0.279771 -1.9975 0
M  V30 28625 C 2709.44 1.53238 -1.21563 0
M  V30 28626 O 2710.65 2.21182 -1.57451 0
M  V30 28627 C 2709.1 0.549052 -3.55687 0
M  V30 28628 C 2708.71 -0.68651 -4.42709 0
M  V30 28629 C 2710.46 1.11244 -4.09665 0
M  V30 28630 C 2708.36 -0.389126 -5.90118 0
M  V30 28631 H 2707.29 0.108317 -0.746179 0
M  V30 28632 H 2709.94 -0.435908 -1.78247 0
M  V30 28633 H 2708.33 1.32492 -3.73178 0
M  V30 28634 H 2709.5 -1.46196 -4.36994 0
M  V30 28635 H 2707.81 -1.17012 -3.99621 0
M  V30 28636 H 2710.41 1.34956 -5.17389 0
M  V30 28637 H 2710.75 2.06184 -3.61654 0
M  V30 28638 H 2711.29 0.397751 -3.95806 0
M  V30 28639 H 2708.03 -1.30771 -6.42323 0
M  V30 28640 H 2707.55 0.348617 -5.98786 0
M  V30 28641 H 2709.23 0.00100267 -6.47 0
M  V30 28642 N 2709.36 1.57515 -0.0518432 0
M  V30 28643 C 2710.61 1.92337 0.620561 0
M  V30 28644 C 2710.93 0.930937 1.71343 0
M  V30 28645 O 2710.2 -0.0240996 1.95885 0
M  V30 28646 H 2708.78 0.70999 0.232213 0
M  V30 28647 H 2711.44 1.94617 -0.105003 0
M  V30 28648 H 2710.53 2.93594 1.05874 0
M  V30 28649 N 2710.84 -0.221546 1.56035 0
M  V30 28650 C 2712.08 -0.94407 1.78695 0
M  V30 28651 C 2712.4 -1.84869 0.620349 0
M  V30 28652 O 2711.67 -1.92512 -0.36275 0
M  V30 28653 H 2710.25 -0.351585 0.659088 0
M  V30 28654 H 2712.92 -0.233401 1.93497 0
M  V30 28655 H 2712.01 -1.55088 2.7084 0
M  V30 28656 N 2712.31 -1.49846 -0.48825 0
M  V30 28657 C 2713.54 -1.63973 -1.26994 0
M  V30 28658 C 2713.96 -0.316026 -1.85426 0
M  V30 28659 O 2713.32 0.718003 -1.66476 0
M  V30 28660 C 2713.37 -2.72053 -2.36684 0
M  V30 28661 O 2712.47 -2.32113 -3.40877 0
M  V30 28662 H 2711.81 -0.548403 -0.374367 0
M  V30 28663 H 2714.34 -1.96116 -0.58307 0
M  V30 28664 H 2714.35 -2.9461 -2.82257 0
M  V30 28665 H 2713.03 -3.68133 -1.93523 0
M  V30 28666 H 2711.61 -2.19936 -3.01135 0
M  V30 28667 N 2713.79 0.740218 -1.39135 0
M  V30 28668 C 2714.72 1.86425 -1.33335 0
M  V30 28669 C 2715.74 1.60975 -0.243071 0
M  V30 28670 O 2716.93 1.71306 -0.501638 0
M  V30 28671 C 2714.03 3.22344 -1.04632 0
M  V30 28672 C 2713.2 3.75192 -2.24833 0
M  V30 28673 C 2712.26 4.89659 -1.92667 0
M  V30 28674 O 2711.28 5.03592 -2.65299 0
M  V30 28675 N 2712.49 5.73642 -0.889676 0
M  V30 28676 H 2715.25 1.91907 -2.30199 0
M  V30 28677 H 2712.81 0.920732 -1.3317 0
M  V30 28678 H 2714.8 3.96482 -0.811417 0
M  V30 28679 H 2713.37 3.12163 -0.165184 0
M  V30 28680 H 2712.59 2.92465 -2.64306 0
M  V30 28681 H 2713.88 4.07234 -3.05022 0
M  V30 28682 H 2713.28 5.64968 -0.287629 0
M  V30 28683 H 2711.84 6.4787 -0.714671 0
M  V30 28684 N 2715.27 1.24225 0.969846 0
M  V30 28685 C 2716.55 0.988693 1.68773 0
M  V30 28686 C 2716.93 -0.489636 2.05343 0
M  V30 28687 O 2716.27 -1.46342 1.75489 0
M  V30 28688 C 2716.48 1.90946 2.92131 0
M  V30 28689 C 2717.83 2.1791 3.64418 0
M  V30 28690 O 2718.86 1.88581 3.02185 0
M  V30 28691 O 2717.72 2.67706 4.76441 0
M  V30 28692 H 2714.81 0.373743 0.73773 0
M  V30 28693 H 2717.36 1.35314 1.02413 0
M  V30 28694 H 2716.13 2.90836 2.61783 0
M  V30 28695 H 2715.75 1.54805 3.66226 0
M  V30 28696 N 2716.75 -1.1702 1.05565 0
M  V30 28697 C 2718 -1.86709 0.763069 0
M  V30 28698 C 2718.31 -1.82149 -0.712825 0
M  V30 28699 O 2719.52 -2.47345 -1.1195 0
M  V30 28700 C 2717.97 -3.35024 1.3148 0
M  V30 28701 C 2717.58 -3.48077 2.8204 0
M  V30 28702 C 2719.32 -4.10016 1.09942 0
M  V30 28703 C 2717.23 -4.90436 3.30495 0
M  V30 28704 H 2716.16 -0.699377 0.281759 0
M  V30 28705 H 2718.81 -1.32122 1.27342 0
M  V30 28706 H 2717.19 -3.89171 0.73224 0
M  V30 28707 H 2718.37 -3.04127 3.46184 0
M  V30 28708 H 2716.68 -2.8651 3.02161 0
M  V30 28709 H 2719.28 -5.15045 1.43641 0
M  V30 28710 H 2719.62 -4.16283 0.0373804 0
M  V30 28711 H 2720.16 -3.62086 1.64738 0
M  V30 28712 H 2716.89 -4.89344 4.36145 0
M  V30 28713 H 2716.41 -5.3504 2.71095 0
M  V30 28714 H 2718.09 -5.59222 3.25392 0
M  V30 28715 N 2718.23 -0.837197 -1.33524 0
M  V30 28716 C 2719.18 -0.241308 -2.26719 0
M  V30 28717 C 2720.16 0.60273 -1.49184 0
M  V30 28718 O 2721.35 0.454972 -1.71053 0
M  V30 28719 C 2718.48 0.584066 -3.38295 0
M  V30 28720 C 2717.57 -0.27139 -4.23231 0
M  V30 28721 N 2717.96 -1.3493 -4.87471 0
M  V30 28722 C 2716.26 -0.0581373 -4.45962 0
M  V30 28723 C 2716.96 -1.87414 -5.50682 0
M  V30 28724 N 2715.93 -1.17587 -5.3073 0
M  V30 28725 H 2719.73 -1.06562 -2.73901 0
M  V30 28726 H 2717.25 -0.681476 -1.4741 0
M  V30 28727 H 2719.25 1.02724 -4.04046 0
M  V30 28728 H 2717.91 1.40638 -2.92662 0
M  V30 28729 H 2718.92 -1.73219 -4.88074 0
M  V30 28730 H 2715.59 0.730866 -4.11053 0
M  V30 28731 H 2716.98 -2.77672 -6.1184 0
M  V30 28732 N 2719.7 1.45999 -0.593476 0
M  V30 28733 C 2720.95 2.02629 -0.0833111 0
M  V30 28734 C 2721.28 1.46268 1.27747 0
M  V30 28735 O 2720.56 0.631898 1.83949 0
M  V30 28736 C 2720.84 3.60088 -0.0291389 0
M  V30 28737 C 2720.69 4.26811 -1.41958 0
M  V30 28738 C 2722.01 4.35032 0.665979 0
M  V30 28739 H 2719.13 0.736316 -0.031749 0
M  V30 28740 H 2721.77 1.74018 -0.762742 0
M  V30 28741 H 2719.92 3.84595 0.549464 0
M  V30 28742 H 2721.6 4.13535 -2.04418 0
M  V30 28743 H 2719.84 3.85757 -1.98429 0
M  V30 28744 H 2720.51 5.35637 -1.33405 0
M  V30 28745 H 2722.99 4.15735 0.174328 0
M  V30 28746 H 2721.86 5.44759 0.672945 0
M  V30 28747 H 2722.12 4.06872 1.72938 0
M  V30 28748 N 2721.18 0.331843 1.54067 0
M  V30 28749 C 2722.43 -0.268631 2.01013 0
M  V30 28750 C 2722.76 -1.51133 1.21952 0
M  V30 28751 O 2722.04 -1.92109 0.304006 0
M  V30 28752 C 2722.32 -0.594498 3.55159 0
M  V30 28753 C 2722.17 0.659487 4.44939 0
M  V30 28754 C 2723.49 -1.40883 4.16941 0
M  V30 28755 H 2720.61 -0.0961627 0.730699 0
M  V30 28756 H 2723.25 0.450063 1.84593 0
M  V30 28757 H 2721.4 -1.20678 3.69282 0
M  V30 28758 H 2723.07 1.29764 4.42673 0
M  V30 28759 H 2721.32 1.28672 4.14277 0
M  V30 28760 H 2721.99 0.386901 5.50642 0
M  V30 28761 H 2724.46 -0.891201 4.06444 0
M  V30 28762 H 2723.34 -1.60559 5.24892 0
M  V30 28763 H 2723.6 -2.40745 3.70802 0
M  V30 28764 N 2722.66 -1.57485 0.0601958 0
M  V30 28765 C 2723.61 -2.08573 -0.920932 0
M  V30 28766 C 2724.59 -0.992849 -1.26615 0
M  V30 28767 O 2725.79 -1.25608 -1.24706 0
M  V30 28768 C 2722.92 -2.64157 -2.19262 0
M  V30 28769 C 2722 -3.8043 -1.8744 0
M  V30 28770 N 2722.39 -4.8985 -1.26017 0
M  V30 28771 C 2720.69 -3.89506 -2.17258 0
M  V30 28772 C 2721.39 -5.70811 -1.12026 0
M  V30 28773 N 2720.37 -5.18707 -1.62615 0
M  V30 28774 H 2724.17 -2.90565 -0.44151 0
M  V30 28775 H 2721.68 -1.6176 -0.144014 0
M  V30 28776 H 2723.68 -2.99066 -2.90457 0
M  V30 28777 H 2722.34 -1.83608 -2.67803 0
M  V30 28778 H 2723.35 -5.09459 -0.931247 0
M  V30 28779 H 2720.03 -3.19914 -2.68256 0
M  V30 28780 H 2721.42 -6.68819 -0.642665 0
M  V30 28781 N 2724.14 0.213268 -1.5615 0
M  V30 28782 C 2725.39 0.93643 -1.79547 0
M  V30 28783 C 2725.71 1.84002 -0.630369 0
M  V30 28784 O 2724.97 1.91879 0.384849 0
M  V30 28785 C 2725.27 1.7998 -3.08775 0
M  V30 28786 C 2724.93 1.04874 -4.38534 0
M  V30 28787 C 2723.6 0.84131 -4.73788 0
M  V30 28788 C 2725.95 0.518978 -5.1861 0
M  V30 28789 C 2723.28 0.0923372 -5.86627 0
M  V30 28790 C 2725.63 -0.216692 -6.32229 0
M  V30 28791 C 2724.29 -0.435308 -6.66079 0
M  V30 28792 H 2723.56 0.342664 -0.65701 0
M  V30 28793 H 2726.21 0.204017 -1.9041 0
M  V30 28794 H 2724.51 2.60033 -2.9307 0
M  V30 28795 H 2726.21 2.36162 -3.24081 0
M  V30 28796 H 2722.8 1.22041 -4.10858 0
M  V30 28797 H 2726.98 0.666688 -4.91802 0
M  V30 28798 H 2722.24 -0.0871885 -6.11338 0
M  V30 28799 H 2726.41 -0.634659 -6.93502 0
M  V30 28800 H 2724.04 -1.01759 -7.53359 0
M  V30 28801 N 2725.62 1.50103 0.480296 0
M  V30 28802 C 2726.57 1.64683 1.57682 0
M  V30 28803 C 2727.55 0.501727 1.52877 0
M  V30 28804 O 2728.74 0.755696 1.60057 0
M  V30 28805 C 2725.87 1.73583 2.96182 0
M  V30 28806 C 2724.96 2.9374 3.05905 0
M  V30 28807 N 2725.35 4.17545 2.85464 0
M  V30 28808 C 2723.65 2.92107 3.37031 0
M  V30 28809 C 2724.35 4.98425 2.99912 0
M  V30 28810 N 2723.32 4.32197 3.29707 0
M  V30 28811 H 2727.13 2.58107 1.40563 0
M  V30 28812 H 2724.64 1.4716 0.686848 0
M  V30 28813 H 2726.64 1.8213 3.75012 0
M  V30 28814 H 2725.3 0.813112 3.14354 0
M  V30 28815 H 2726.31 4.47192 2.61227 0
M  V30 28816 H 2722.98 2.09297 3.61249 0
M  V30 28817 H 2724.37 6.06845 2.88426 0
M  V30 28818 N 2727.09 -0.732829 1.39526 0
M  V30 28819 C 2728.34 -1.48948 1.36597 0
M  V30 28820 C 2728.66 -1.94965 -0.0367165 0
M  V30 28821 O 2727.93 -1.6914 -0.988362 0
M  V30 28822 H 2726.51 -0.552557 0.502683 0
M  V30 28823 H 2729.18 -0.869839 1.74413 0
M  V30 28824 H 2728.27 -2.37057 2.03004 0
M  V30 28825 N 2728.57 -1.24737 -0.963244 0
M  V30 28826 C 2729.5 -1.00153 -2.0616 0
M  V30 28827 C 2730.52 0.0305619 -1.62771 0
M  V30 28828 O 2731.71 -0.206997 -1.77296 0
M  V30 28829 C 2728.81 -0.490444 -3.35332 0
M  V30 28830 C 2727.98 -1.58671 -4.07606 0
M  V30 28831 C 2727.04 -1.07749 -5.1505 0
M  V30 28832 O 2726.06 -1.77011 -5.40977 0
M  V30 28833 N 2727.27 0.0857585 -5.80437 0
M  V30 28834 H 2730.03 -1.94723 -2.27822 0
M  V30 28835 H 2727.59 -1.15827 -1.13119 0
M  V30 28836 H 2729.58 -0.134442 -4.04477 0
M  V30 28837 H 2728.15 0.361101 -3.10507 0
M  V30 28838 H 2727.37 -2.11469 -3.32678 0
M  V30 28839 H 2728.66 -2.32344 -4.52652 0
M  V30 28840 H 2728.06 0.664707 -5.61781 0
M  V30 28841 H 2726.62 0.382867 -6.50675 0
M  V30 28842 N 2730.05 1.16459 -1.06184 0
M  V30 28843 C 2731.28 1.90866 -0.798617 0
M  V30 28844 C 2731.69 1.77372 0.64689 0
M  V30 28845 O 2731.05 1.11761 1.44277 0
M  V30 28846 C 2731.1 3.41608 -1.18264 0
M  V30 28847 O 2730.82 3.54697 -2.57141 0
M  V30 28848 C 2732.32 4.33067 -0.946993 0
M  V30 28849 H 2729.54 0.605281 -0.289614 0
M  V30 28850 H 2732.09 1.47624 -1.41518 0
M  V30 28851 H 2730.24 3.82557 -0.61063 0
M  V30 28852 H 2730.66 4.48165 -2.72485 0
M  V30 28853 H 2732.13 5.37302 -1.26533 0
M  V30 28854 H 2732.61 4.39043 0.117329 0
M  V30 28855 H 2733.21 3.97844 -1.50333 0
M  V30 28856 N 2731.53 0.844266 1.33079 0
M  V30 28857 C 2732.46 0.296533 2.31609 0
M  V30 28858 C 2733.44 -0.598679 1.59216 0
M  V30 28859 O 2734.62 -0.521101 1.87078 0
M  V30 28860 C 2731.75 -0.524702 3.43314 0
M  V30 28861 C 2730.71 0.275181 4.27114 0
M  V30 28862 C 2730.03 -0.670143 5.30484 0
M  V30 28863 C 2731.33 1.49522 5.0044 0
M  V30 28864 H 2733.03 1.11981 2.7767 0
M  V30 28865 H 2730.57 0.539923 1.33495 0
M  V30 28866 H 2732.53 -0.918226 4.11274 0
M  V30 28867 H 2731.25 -1.38124 2.95955 0
M  V30 28868 H 2729.91 0.65033 3.60786 0
M  V30 28869 H 2729.56 -1.52324 4.79381 0
M  V30 28870 H 2729.26 -0.13902 5.87436 0
M  V30 28871 H 2730.78 -1.06107 6.0131 0
M  V30 28872 H 2732.2 1.17456 5.61139 0
M  V30 28873 H 2730.59 1.96353 5.67068 0
M  V30 28874 H 2731.66 2.2621 4.28902 0
M  V30 28875 N 2733.01 -1.45682 0.60121 0
M  V30 28876 C 2733.94 -2.33246 -0.108783 0
M  V30 28877 C 2734.92 -1.46453 -0.865197 0
M  V30 28878 O 2736.1 -1.75236 -0.837009 0
M  V30 28879 C 2733.23 -3.29052 -1.11095 0
M  V30 28880 C 2732.19 -4.25432 -0.46817 0
M  V30 28881 C 2731.51 -5.10881 -1.57813 0
M  V30 28882 C 2732.81 -5.18766 0.606561 0
M  V30 28883 H 2734.51 -2.9286 0.622358 0
M  V30 28884 H 2732.05 -1.40825 0.300739 0
M  V30 28885 H 2734.01 -3.89177 -1.61615 0
M  V30 28886 H 2732.73 -2.67584 -1.8726 0
M  V30 28887 H 2731.39 -3.66596 0.0161129 0
M  V30 28888 H 2731.04 -4.45785 -2.32991 0
M  V30 28889 H 2730.74 -5.76165 -1.15358 0
M  V30 28890 H 2732.26 -5.73873 -2.08573 0
M  V30 28891 H 2733.67 -5.72999 0.185689 0
M  V30 28892 H 2732.07 -5.92493 0.952486 0
M  V30 28893 H 2733.14 -4.6158 1.48567 0
M  V30 28894 N 2734.48 -0.340009 -1.53889 0
M  V30 28895 C 2735.39 0.526948 -2.28605 0
M  V30 28896 C 2736.41 1.115 -1.3358 0
M  V30 28897 O 2737.59 1.13145 -1.66614 0
M  V30 28898 C 2734.65 1.66384 -3.04167 0
M  V30 28899 C 2733.71 1.10592 -4.14811 0
M  V30 28900 C 2732.95 2.18863 -4.86759 0
M  V30 28901 O 2733.17 3.39518 -4.58349 0
M  V30 28902 O 2732.1 1.83356 -5.73292 0
M  V30 28903 H 2735.93 -0.080324 -3.03594 0
M  V30 28904 H 2733.51 -0.105168 -1.49029 0
M  V30 28905 H 2735.4 2.32538 -3.51431 0
M  V30 28906 H 2734.07 2.25699 -2.32038 0
M  V30 28907 H 2732.98 0.409001 -3.71857 0
M  V30 28908 H 2734.31 0.557685 -4.8903 0
M  V30 28909 N 2735.96 1.57451 -0.0685468 0
M  V30 28910 C 2736.91 2.13738 0.91754 0
M  V30 28911 C 2737.91 1.07346 1.31047 0
M  V30 28912 O 2739.11 1.25731 1.28809 0
M  V30 28913 H 2735.49 0.683388 0.313823 0
M  V30 28914 H 2737.46 2.9546 0.417851 0
M  V30 28915 C 2736.21 2.71127 2.17682 0
M  V30 28916 H 2735.53 3.52664 1.8833 0
M  V30 28917 H 2736.97 3.14112 2.84798 0
M  V30 28918 C 2735.43 1.65731 2.93317 0
M  V30 28919 O 2735.96 1.08038 3.86899 0
M  V30 28920 N 2734.16 1.36842 2.56364 0
M  V30 28921 H 2733.71 1.83946 1.80337 0
M  V30 28922 H 2733.67 0.665555 3.07275 0
M  V30 28923 N 2737.44 -0.204984 1.56261 0
M  V30 28924 C 2738.69 -0.925064 1.79686 0
M  V30 28925 C 2739.01 -1.84201 0.639922 0
M  V30 28926 O 2738.28 -1.92886 -0.342311 0
M  V30 28927 H 2736.86 -0.344575 0.66278 0
M  V30 28928 H 2739.52 -0.212865 1.93734 0
M  V30 28929 H 2738.62 -1.52206 2.72469 0
M  V30 28930 N 2738.92 -1.50356 -0.472329 0
M  V30 28931 C 2739.87 -1.69654 -1.59123 0
M  V30 28932 C 2740.86 -0.562398 -1.59792 0
M  V30 28933 O 2742.07 -0.742861 -1.63956 0
M  V30 28934 H 2738.44 -0.535463 -0.527999 0
M  V30 28935 H 2740.41 -2.63515 -1.40008 0
M  V30 28936 C 2739.16 -1.80675 -2.97072 0
M  V30 28937 H 2738.49 -2.67334 -2.97275 0
M  V30 28938 H 2739.93 -1.98204 -3.74822 0
M  V30 28939 C 2738.38 -0.558074 -3.32246 0
M  V30 28940 O 2738.91 0.303328 -4.00553 0
M  V30 28941 N 2737.12 -0.412466 -2.87658 0
M  V30 28942 H 2736.67 -1.11448 -2.32244 0
M  V30 28943 H 2736.63 0.421853 -3.11557 0
M  V30 28944 N 2740.4 0.725419 -1.39912 0
M  V30 28945 C 2741.34 1.83949 -1.39396 0
M  V30 28946 C 2742.31 1.64173 -0.252278 0
M  V30 28947 O 2743.5 1.85445 -0.448852 0
M  V30 28948 C 2740.64 3.21562 -1.25267 0
M  V30 28949 C 2739.75 3.52977 -2.4906 0
M  V30 28950 C 2738.89 4.80043 -2.27447 0
M  V30 28951 C 2737.93 5.04332 -3.46866 0
M  V30 28952 N 2737.06 6.22606 -3.2451 0
M  V30 28953 H 2741.9 1.83725 -2.34626 0
M  V30 28954 H 2739.44 0.897616 -1.16539 0
M  V30 28955 H 2741.4 4.01013 -1.15084 0
M  V30 28956 H 2740.03 3.2104 -0.336626 0
M  V30 28957 H 2739.08 2.68155 -2.69809 0
M  V30 28958 H 2740.39 3.6684 -3.37979 0
M  V30 28959 H 2739.55 5.67493 -2.14561 0
M  V30 28960 H 2738.29 4.68372 -1.35937 0
M  V30 28961 H 2737.29 4.1534 -3.6024 0
M  V30 28962 H 2738.52 5.17882 -4.3929 0
M  V30 28963 H 2736.46 6.12204 -2.35674 0
M  V30 28964 H 2736.38 6.37099 -4.0699 0
M  V30 28965 H 2737.65 7.12869 -3.15337 0
M  V30 28966 N 2741.88 1.25246 0.956615 0
M  V30 28967 C 2742.81 1.01245 2.05626 0
M  V30 28968 C 2743.82 -0.0219293 1.62785 0
M  V30 28969 O 2745.01 0.216397 1.77183 0
M  V30 28970 C 2742.11 0.50822 3.35068 0
M  V30 28971 C 2741.28 1.6083 4.06759 0
M  V30 28972 C 2740.34 1.10479 5.14471 0
M  V30 28973 O 2739.37 1.79877 5.4003 0
M  V30 28974 N 2740.57 -0.0549753 5.80474 0
M  V30 28975 H 2743.33 1.95929 2.26786 0
M  V30 28976 H 2740.9 1.16425 1.12503 0
M  V30 28977 H 2742.89 0.15589 4.044 0
M  V30 28978 H 2741.46 -0.344629 3.10694 0
M  V30 28979 H 2740.68 2.1323 3.31552 0
M  V30 28980 H 2741.97 2.34741 4.51414 0
M  V30 28981 H 2741.36 -0.634905 5.62126 0
M  V30 28982 H 2739.92 -0.348355 6.50868 0
M  V30 28983 N 2743.35 -1.15894 1.068 0
M  V30 28984 C 2744.3 -2.18441 0.653251 0
M  V30 28985 C 2745.29 -1.57711 -0.318735 0
M  V30 28986 O 2746.48 -1.76497 -0.133357 0
M  V30 28987 C 2743.61 -3.43268 0.0466388 0
M  V30 28988 C 2742.69 -4.11064 1.04343 0
M  V30 28989 N 2743.09 -4.54432 2.22092 0
M  V30 28990 C 2741.38 -4.37322 0.87551 0
M  V30 28991 C 2742.08 -5.06939 2.85285 0
M  V30 28992 N 2741.06 -5.0014 2.12982 0
M  V30 28993 H 2744.86 -2.49695 1.55015 0
M  V30 28994 H 2742.38 -1.32401 0.940407 0
M  V30 28995 H 2744.37 -4.16035 -0.268357 0
M  V30 28996 H 2743.03 -3.135 -0.845449 0
M  V30 28997 H 2744.04 -4.47999 2.59841 0
M  V30 28998 H 2740.72 -4.17485 0.0358455 0
M  V30 28999 H 2742.11 -5.50496 3.85232 0
M  V30 29000 N 2744.83 -0.851312 -1.32629 0
M  V30 29001 C 2745.76 -0.250797 -2.27824 0
M  V30 29002 C 2746.78 0.575571 -1.52286 0
M  V30 29003 O 2747.97 0.400607 -1.73947 0
M  V30 29004 C 2745.07 0.664512 -3.32321 0
M  V30 29005 C 2744.24 -0.125264 -4.37221 0
M  V30 29006 C 2743.3 0.715293 -5.21316 0
M  V30 29007 O 2742.32 0.150011 -5.69002 0
M  V30 29008 N 2743.53 2.03059 -5.43827 0
M  V30 29009 H 2746.29 -1.06878 -2.79995 0
M  V30 29010 H 2743.85 -0.710969 -1.45454 0
M  V30 29011 H 2745.84 1.2321 -3.85489 0
M  V30 29012 H 2744.41 1.38318 -2.80334 0
M  V30 29013 H 2743.63 -0.874267 -3.84383 0
M  V30 29014 H 2744.92 -0.667863 -5.04398 0
M  V30 29015 H 2744.32 2.51323 -5.06807 0
M  V30 29016 H 2742.88 2.54638 -6.00002 0
M  V30 29017 N 2746.31 1.45361 -0.608928 0
M  V30 29018 C 2747.24 2.33301 0.0964116 0
M  V30 29019 C 2748.22 1.46909 0.857418 0
M  V30 29020 O 2749.41 1.75678 0.827704 0
M  V30 29021 C 2746.54 3.29637 1.09348 0
M  V30 29022 C 2745.49 4.25674 0.445601 0
M  V30 29023 C 2744.82 5.11711 1.55101 0
M  V30 29024 C 2746.12 5.18437 -0.634063 0
M  V30 29025 H 2747.81 2.92526 -0.63788 0
M  V30 29026 H 2745.36 1.40663 -0.308203 0
M  V30 29027 H 2747.31 3.90028 1.59549 0
M  V30 29028 H 2746.03 2.68573 1.85839 0
M  V30 29029 H 2744.69 3.66583 -0.0355542 0
M  V30 29030 H 2744.34 4.47014 2.30623 0
M  V30 29031 H 2744.04 5.76769 1.12301 0
M  V30 29032 H 2745.56 5.74971 2.05527 0
M  V30 29033 H 2746.98 5.72893 -0.216074 0
M  V30 29034 H 2745.37 5.91979 -0.983893 0
M  V30 29035 H 2746.44 4.60785 -1.51013 0
M  V30 29036 N 2747.79 0.348166 1.53706 0
M  V30 29037 C 2749.04 -0.246443 2.00592 0
M  V30 29038 C 2749.36 -1.50696 1.23756 0
M  V30 29039 O 2748.63 -1.9282 0.345998 0
M  V30 29040 H 2747.21 -0.0940548 0.741055 0
M  V30 29041 H 2749.87 0.470388 1.89138 0
M  V30 29042 H 2748.96 -0.485659 3.08298 0
M  V30 29043 N 2749.27 -1.57412 0.0768958 0
M  V30 29044 C 2750.51 -1.93969 -0.591927 0
M  V30 29045 C 2750.84 -0.957529 -1.68953 0
M  V30 29046 O 2750.12 0.0124334 -1.94496 0
M  V30 29047 C 2750.4 -3.40764 -1.16412 0
M  V30 29048 C 2750.26 -4.49741 -0.0728142 0
M  V30 29049 C 2751.57 -3.88483 -2.06807 0
M  V30 29050 H 2748.69 -0.705337 -0.213703 0
M  V30 29051 H 2751.34 -1.89454 0.143903 0
M  V30 29052 H 2749.49 -3.44743 -1.79122 0
M  V30 29053 H 2751.16 -4.57882 0.560526 0
M  V30 29054 H 2749.4 -4.29687 0.595934 0
M  V30 29055 H 2750.07 -5.49605 -0.513658 0
M  V30 29056 H 2752.55 -3.86542 -1.54027 0
M  V30 29057 H 2751.42 -4.91797 -2.43776 0
M  V30 29058 H 2751.68 -3.26719 -2.97838 0
M  V30 29059 N 2750.74 0.196695 -1.56368 0
M  V30 29060 C 2751.99 0.91415 -1.817 0
M  V30 29061 C 2752.35 1.80954 -0.653702 0
M  V30 29062 O 2751.64 1.88354 0.351191 0
M  V30 29063 C 2751.83 1.76695 -3.10667 0
M  V30 29064 C 2751.66 0.955612 -4.39429 0
M  V30 29065 C 2750.43 0.640672 -5.01222 0
M  V30 29066 C 2752.63 0.309075 -5.1337 0
M  V30 29067 N 2750.61 -0.189465 -6.13608 0
M  V30 29068 C 2751.98 -0.383334 -6.18814 0
M  V30 29069 C 2754.04 0.224639 -4.97393 0
M  V30 29070 C 2752.74 -1.15214 -7.10013 0
M  V30 29071 C 2754.77 -0.530761 -5.89013 0
M  V30 29072 C 2754.13 -1.21162 -6.93901 0
M  V30 29073 H 2750.23 0.313958 -0.716209 0
M  V30 29074 H 2752.81 0.183005 -1.93838 0
M  V30 29075 H 2750.98 2.46971 -2.99766 0
M  V30 29076 H 2752.71 2.42377 -3.24092 0
M  V30 29077 H 2749.47 0.964709 -4.63671 0
M  V30 29078 H 2749.89 -0.594098 -6.74388 0
M  V30 29079 H 2754.54 0.736681 -4.16333 0
M  V30 29080 H 2752.25 -1.67561 -7.90537 0
M  V30 29081 H 2755.84 -0.597428 -5.78724 0
M  V30 29082 H 2754.72 -1.78679 -7.63573 0
M  V30 29083 N 2752.22 1.50604 0.464349 0
M  V30 29084 C 2753.63 1.54712 1.04504 0
M  V30 29085 C 2753.98 0.354576 1.92969 0
M  V30 29086 O 2753.11 -0.531775 2.09764 0
M  V30 29087 C 2753.7 2.80372 1.90202 0
M  V30 29088 C 2752.26 2.87139 2.43368 0
M  V30 29089 C 2751.41 2.49078 1.21882 0
M  V30 29090 H 2754.36 1.56771 0.246689 0
M  V30 29091 H 2754.38 2.62609 2.75349 0
M  V30 29092 H 2753.89 3.67149 1.25789 0
M  V30 29093 H 2752 2.0473 3.11314 0
M  V30 29094 H 2752.11 3.90186 2.78014 0
M  V30 29095 H 2750.47 2.01667 1.55572 0
M  V30 29096 H 2751.26 3.38171 0.591209 0
M  V30 29097 N 2753.7 -0.717989 1.40295 0
M  V30 29098 C 2754.63 -1.84495 1.43122 0
M  V30 29099 C 2755.61 -1.67567 0.292433 0
M  V30 29100 O 2756.8 -1.87634 0.500707 0
M  V30 29101 C 2753.93 -3.22425 1.29071 0
M  V30 29102 C 2752.88 -3.54021 2.40527 0
M  V30 29103 C 2752.21 -4.91069 2.11555 0
M  V30 29104 C 2753.51 -3.55262 3.82865 0
M  V30 29105 H 2755.2 -1.82387 2.37435 0
M  V30 29106 H 2752.75 -0.87607 1.14285 0
M  V30 29107 H 2754.7 -4.00955 1.29665 0
M  V30 29108 H 2753.42 -3.25103 0.312328 0
M  V30 29109 H 2752.08 -2.7783 2.39178 0
M  V30 29110 H 2751.73 -4.90347 1.12113 0
M  V30 29111 H 2751.43 -5.13175 2.86225 0
M  V30 29112 H 2752.95 -5.71935 2.13827 0
M  V30 29113 H 2754.37 -4.23837 3.86051 0
M  V30 29114 H 2752.77 -3.88894 4.57035 0
M  V30 29115 H 2753.84 -2.54698 4.12622 0
M  V30 29116 N 2755.18 -1.25752 -0.94996 0
M  V30 29117 C 2756.11 -1.09032 -2.06481 0
M  V30 29118 C 2757.09 0.00198542 -1.701 0
M  V30 29119 O 2758.27 -0.168417 -1.93468 0
M  V30 29120 C 2755.4 -0.71322 -3.39898 0
M  V30 29121 C 2754.36 -1.75628 -3.90306 0
M  V30 29122 C 2753.68 -1.23374 -5.20272 0
M  V30 29123 C 2754.98 -3.15603 -4.16163 0
M  V30 29124 H 2756.68 -2.02287 -2.20727 0
M  V30 29125 H 2754.22 -0.973983 -1.06064 0
M  V30 29126 H 2756.18 -0.583164 -4.17345 0
M  V30 29127 H 2754.9 0.255034 -3.25603 0
M  V30 29128 H 2753.56 -1.87485 -3.15031 0
M  V30 29129 H 2753.21 -0.255579 -5.0235 0
M  V30 29130 H 2752.91 -1.93092 -5.54968 0
M  V30 29131 H 2754.43 -1.11617 -6.00312 0
M  V30 29132 H 2755.85 -3.06873 -4.84254 0
M  V30 29133 H 2754.24 -3.82834 -4.62124 0
M  V30 29134 H 2755.31 -3.62315 -3.22266 0
M  V30 29135 N 2756.66 1.15326 -1.07413 0
M  V30 29136 C 2758.07 1.67714 -0.82029 0
M  V30 29137 C 2758.42 1.84961 0.654507 0
M  V30 29138 O 2757.54 1.55339 1.50661 0
M  V30 29139 C 2758.14 3.04644 -1.48247 0
M  V30 29140 C 2756.7 3.54107 -1.27612 0
M  V30 29141 C 2755.84 2.29818 -1.55174 0
M  V30 29142 H 2758.8 0.99531 -1.23609 0
M  V30 29143 H 2758.82 3.69604 -0.904049 0
M  V30 29144 H 2758.33 2.9206 -2.55583 0
M  V30 29145 H 2756.43 3.71932 -0.223013 0
M  V30 29146 H 2756.54 4.35508 -1.99675 0
M  V30 29147 H 2754.91 2.35391 -0.972788 0
M  V30 29148 H 2755.69 2.1982 -2.63693 0
M  V30 29149 N 2758.13 0.858334 1.32176 0
M  V30 29150 C 2759.38 0.462603 1.96734 0
M  V30 29151 C 2759.7 -0.985882 1.68242 0
M  V30 29152 O 2758.97 -1.6895 0.991593 0
M  V30 29153 H 2757.55 0.168077 0.727846 0
M  V30 29154 H 2760.22 1.09557 1.61193 0
M  V30 29155 H 2759.31 0.610701 3.06067 0
M  V30 29156 N 2759.61 -1.45036 0.616628 0
M  V30 29157 C 2760.84 -2.07051 0.120228 0
M  V30 29158 C 2761.26 -1.45668 -1.19006 0
M  V30 29159 O 2760.62 -0.552723 -1.72669 0
M  V30 29160 C 2760.67 -3.606 0.00361239 0
M  V30 29161 O 2759.77 -3.9896 -1.04424 0
M  V30 29162 H 2759.11 -0.659382 0.0781715 0
M  V30 29163 H 2761.64 -1.86144 0.8492 0
M  V30 29164 H 2761.65 -4.07549 -0.191682 0
M  V30 29165 H 2760.33 -4.04661 0.96031 0
M  V30 29166 H 2758.91 -3.63667 -0.824686 0
M  V30 29167 N 2761.09 -0.356312 -1.53519 0
M  V30 29168 C 2762.34 0.236268 -2.01117 0
M  V30 29169 C 2762.67 1.49529 -1.24384 0
M  V30 29170 O 2761.92 1.93015 -0.323091 0
M  V30 29171 C 2762.22 0.583307 -3.52608 0
M  V30 29172 C 2761.89 -0.580309 -4.4715 0
M  V30 29173 C 2760.55 -0.899611 -4.72716 0
M  V30 29174 C 2762.9 -1.36033 -5.03135 0
M  V30 29175 C 2760.23 -2.00108 -5.5152 0
M  V30 29176 C 2762.58 -2.45214 -5.8314 0
M  V30 29177 C 2761.24 -2.7769 -6.06996 0
M  V30 29178 H 2760.51 0.0864566 -0.735939 0
M  V30 29179 H 2763.16 -0.486863 -1.85208 0
M  V30 29180 H 2761.47 1.38733 -3.66416 0
M  V30 29181 H 2763.16 1.0539 -3.86903 0
M  V30 29182 H 2759.75 -0.321397 -4.27393 0
M  V30 29183 H 2763.94 -1.1269 -4.83337 0
M  V30 29184 H 2759.19 -2.25678 -5.68225 0
M  V30 29185 H 2763.37 -3.06078 -6.25531 0
M  V30 29186 H 2760.99 -3.63163 -6.67845 0
M  V30 29187 N 2762.57 1.57369 -0.0852427 0
M  V30 29188 C 2763.52 2.13479 0.877231 0
M  V30 29189 C 2764.49 1.05076 1.2864 0
M  V30 29190 O 2765.67 1.3281 1.36989 0
M  V30 29191 C 2762.81 2.71163 2.13459 0
M  V30 29192 C 2761.92 3.93767 1.77684 0
M  V30 29193 C 2761.06 4.39649 2.98132 0
M  V30 29194 C 2760.1 5.54867 2.58437 0
M  V30 29195 N 2759.23 5.95645 3.71687 0
M  V30 29196 H 2764.07 2.95412 0.391881 0
M  V30 29197 H 2761.61 1.45973 0.18177 0
M  V30 29198 H 2763.57 3.02722 2.87081 0
M  V30 29199 H 2762.2 1.91974 2.59511 0
M  V30 29200 H 2761.25 3.68585 0.940703 0
M  V30 29201 H 2762.56 4.77414 1.44489 0
M  V30 29202 H 2761.72 4.72939 3.80018 0
M  V30 29203 H 2760.46 3.54882 3.3453 0
M  V30 29204 H 2759.46 5.21214 1.74975 0
M  V30 29205 H 2760.69 6.41375 2.23194 0
M  V30 29206 H 2758.63 5.13826 4.07822 0
M  V30 29207 H 2758.55 6.74065 3.42305 0
M  V30 29208 H 2759.82 6.33563 4.54112 0
M  V30 29209 N 2764.05 -0.188399 1.5647 0
M  V30 29210 C 2765.27 -0.92377 1.85133 0
M  V30 29211 C 2765.69 -1.76566 0.668568 0
M  V30 29212 O 2765.05 -1.78861 -0.36263 0
M  V30 29213 C 2765.1 -1.81448 3.12664 0
M  V30 29214 O 2764.82 -1.00657 4.2638 0
M  V30 29215 C 2766.32 -2.66096 3.54553 0
M  V30 29216 H 2763.54 -0.269207 0.614629 0
M  V30 29217 H 2766.08 -0.193635 2.03581 0
M  V30 29218 H 2764.24 -2.49816 2.96093 0
M  V30 29219 H 2764.65 -1.61416 4.99044 0
M  V30 29220 H 2766.13 -3.24239 4.46736 0
M  V30 29221 H 2766.6 -3.40134 2.77859 0
M  V30 29222 H 2767.21 -2.03089 3.73678 0
M  V30 29223 N 2765.53 -1.50848 -0.456355 0
M  V30 29224 C 2766.46 -1.73722 -1.56022 0
M  V30 29225 C 2767.44 -0.586501 -1.59669 0
M  V30 29226 O 2768.62 -0.827216 -1.75701 0
M  V30 29227 C 2765.75 -1.84488 -2.94247 0
M  V30 29228 C 2764.71 -2.99791 -3.05466 0
M  V30 29229 C 2764.03 -2.95717 -4.45483 0
M  V30 29230 C 2765.33 -4.4007 -2.8131 0
M  V30 29231 H 2767.03 -2.66148 -1.37133 0
M  V30 29232 H 2764.57 -1.28073 -0.658277 0
M  V30 29233 H 2766.52 -1.99074 -3.71413 0
M  V30 29234 H 2765.25 -0.886946 -3.14326 0
M  V30 29235 H 2763.91 -2.8488 -2.30736 0
M  V30 29236 H 2763.56 -1.9774 -4.62502 0
M  V30 29237 H 2763.26 -3.73133 -4.53923 0
M  V30 29238 H 2764.78 -3.12371 -5.24649 0
M  V30 29239 H 2766.19 -4.55431 -3.48218 0
M  V30 29240 H 2764.59 -5.19048 -3.01179 0
M  V30 29241 H 2765.66 -4.51421 -1.77052 0
M  V30 29242 N 2767 0.710538 -1.40674 0
M  V30 29243 C 2767.91 1.85464 -1.43667 0
M  V30 29244 C 2768.93 1.70866 -0.328751 0
M  V30 29245 O 2770.11 1.93043 -0.574132 0
M  V30 29246 C 2767.17 3.21311 -1.30232 0
M  V30 29247 C 2766.23 3.48126 -2.5121 0
M  V30 29248 C 2765.46 4.77491 -2.38407 0
M  V30 29249 O 2765.69 5.52938 -1.40058 0
M  V30 29250 O 2764.62 5.04756 -3.27879 0
M  V30 29251 H 2768.45 1.85896 -2.40159 0
M  V30 29252 H 2766.03 0.86163 -1.2205 0
M  V30 29253 H 2767.91 4.02444 -1.24967 0
M  V30 29254 H 2766.59 3.21596 -0.368476 0
M  V30 29255 H 2765.5 2.66982 -2.62052 0
M  V30 29256 H 2766.83 3.52642 -3.43372 0
M  V30 29257 N 2768.48 1.26254 0.943277 0
M  V30 29258 C 2769.41 1.0195 2.0416 0
M  V30 29259 C 2770.39 -0.0550522 1.62507 0
M  V30 29260 O 2771.58 0.0869356 1.88299 0
M  V30 29261 C 2768.7 0.543409 3.34312 0
M  V30 29262 C 2767.75 1.6102 3.94936 0
M  V30 29263 S 2768.58 3.19857 4.29479 0
M  V30 29264 C 2769.74 2.74011 5.62733 0
M  V30 29265 H 2769.97 1.94946 2.24463 0
M  V30 29266 H 2767.5 1.0991 1.08439 0
M  V30 29267 H 2769.46 0.275387 4.09575 0
M  V30 29268 H 2768.12 -0.366235 3.11958 0
M  V30 29269 H 2767.32 1.22804 4.8881 0
M  V30 29270 H 2766.92 1.82949 3.26199 0
M  V30 29271 H 2769.21 2.18344 6.41352 0
M  V30 29272 H 2770.15 3.66569 6.05833 0
M  V30 29273 H 2770.56 2.13643 5.2251 0
M  V30 29274 N 2769.96 -1.14755 1.08024 0
M  V30 29275 C 2770.91 -2.19714 0.706696 0
M  V30 29276 C 2771.88 -1.63272 -0.305221 0
M  V30 29277 O 2773.06 -1.8985 -0.190117 0
M  V30 29278 C 2770.2 -3.44898 0.117975 0
M  V30 29279 C 2769.31 -4.1551 1.1822 0
M  V30 29280 C 2768.45 -5.28264 0.557752 0
M  V30 29281 C 2767.49 -5.90702 1.60428 0
M  V30 29282 N 2766.63 -6.94914 1.00192 0
M  V30 29283 H 2771.47 -2.51016 1.60608 0
M  V30 29284 H 2769 -1.2327 0.802685 0
M  V30 29285 H 2770.96 -4.16503 -0.241039 0
M  V30 29286 H 2769.59 -3.14092 -0.744733 0
M  V30 29287 H 2768.64 -3.42333 1.65869 0
M  V30 29288 H 2769.95 -4.58016 1.97541 0
M  V30 29289 H 2769.11 -6.06522 0.146761 0
M  V30 29290 H 2767.85 -4.86968 -0.267163 0
M  V30 29291 H 2766.85 -5.1115 2.02498 0
M  V30 29292 H 2768.08 -6.34074 2.43161 0
M  V30 29293 H 2766.02 -6.55701 0.198032 0
M  V30 29294 H 2765.94 -7.35886 1.73229 0
M  V30 29295 H 2767.21 -7.77057 0.61666 0
M  V30 29296 N 2771.44 -0.865331 -1.31719 0
M  V30 29297 C 2772.4 -0.322667 -2.26917 0
M  V30 29298 C 2773.4 0.523725 -1.52032 0
M  V30 29299 O 2774.59 0.333697 -1.70974 0
M  V30 29300 C 2771.72 0.542279 -3.36559 0
M  V30 29301 H 2772.92 -1.16303 -2.7643 0
M  V30 29302 H 2770.47 -0.640537 -1.42572 0
M  V30 29303 H 2771.2 1.40402 -2.92331 0
M  V30 29304 H 2770.99 -0.0637084 -3.92048 0
M  V30 29305 H 2772.48 0.914388 -4.07466 0
M  V30 29306 N 2772.92 1.44707 -0.624311 0
M  V30 29307 C 2774.14 2.06985 -0.131207 0
M  V30 29308 C 2774.57 1.46298 1.18231 0
M  V30 29309 O 2773.92 0.561872 1.72374 0
M  V30 29310 C 2773.97 3.60593 -0.0227358 0
M  V30 29311 O 2773.08 3.99508 1.02307 0
M  V30 29312 H 2772.42 0.658959 -0.0816672 0
M  V30 29313 H 2774.95 1.85691 -0.85906 0
M  V30 29314 H 2774.96 4.07645 0.170066 0
M  V30 29315 H 2773.63 4.04146 -0.981757 0
M  V30 29316 H 2772.21 3.64099 0.805388 0
M  V30 29317 N 2774.39 0.364449 1.53328 0
M  V30 29318 C 2775.34 -0.482567 2.25699 0
M  V30 29319 C 2776.31 -1.07846 1.26327 0
M  V30 29320 O 2777.5 -1.11116 1.55106 0
M  V30 29321 C 2774.64 -1.61694 3.04876 0
M  V30 29322 C 2773.75 -1.04633 4.19137 0
M  V30 29323 C 2772.88 -2.14971 4.85758 0
M  V30 29324 C 2771.92 -1.5537 5.92053 0
M  V30 29325 N 2771.06 -2.59535 6.52369 0
M  V30 29326 H 2775.9 0.141084 2.97666 0
M  V30 29327 H 2773.44 0.081395 1.46875 0
M  V30 29328 H 2775.39 -2.28509 3.49055 0
M  V30 29329 H 2774.02 -2.21126 2.35166 0
M  V30 29330 H 2773.08 -0.268486 3.79451 0
M  V30 29331 H 2774.39 -0.570566 4.95526 0
M  V30 29332 H 2773.54 -2.89609 5.33115 0
M  V30 29333 H 2772.28 -2.65899 4.08839 0
M  V30 29334 H 2771.29 -0.792453 5.44059 0
M  V30 29335 H 2772.51 -1.05268 6.70892 0
M  V30 29336 H 2770.46 -3.09679 5.78304 0
M  V30 29337 H 2770.37 -2.16642 7.24294 0
M  V30 29338 H 2771.64 -3.3388 7.04375 0
M  V30 29339 N 2775.87 -1.57322 0.0935872 0
M  V30 29340 C 2777.28 -1.81543 -0.435775 0
M  V30 29341 C 2777.63 -1.00909 -1.68261 0
M  V30 29342 O 2776.76 -0.238021 -2.15087 0
M  V30 29343 C 2777.35 -3.29283 -0.797378 0
M  V30 29344 C 2775.91 -3.54274 -1.27149 0
M  V30 29345 C 2775.06 -2.76008 -0.267407 0
M  V30 29346 H 2778.01 -1.5546 0.319048 0
M  V30 29347 H 2778.03 -3.42524 -1.65704 0
M  V30 29348 H 2777.54 -3.87943 0.110274 0
M  V30 29349 H 2775.64 -3.00943 -2.19691 0
M  V30 29350 H 2775.76 -4.62926 -1.23437 0
M  V30 29351 H 2774.12 -2.43431 -0.74924 0
M  V30 29352 H 2774.9 -3.37416 0.632898 0
M  V30 29353 N 2777.35 0.180099 -1.56568 0
M  V30 29354 C 2778.6 0.896361 -1.81135 0
M  V30 29355 C 2778.92 1.8316 -0.669146 0
M  V30 29356 O 2778.19 1.93406 0.311582 0
M  V30 29357 H 2776.77 0.333987 -0.668178 0
M  V30 29358 H 2779.43 0.182017 -1.94048 0
M  V30 29359 H 2778.53 1.47852 -2.74856 0
M  V30 29360 N 2778.83 1.51088 0.448349 0
M  V30 29361 C 2780.07 1.64416 1.19745 0
M  V30 29362 C 2780.43 0.350748 1.89176 0
M  V30 29363 O 2779.72 -0.652803 1.80136 0
M  V30 29364 C 2779.92 2.77799 2.24861 0
M  V30 29365 C 2779.74 4.18041 1.65746 0
M  V30 29366 C 2778.51 4.84133 1.44719 0
M  V30 29367 C 2780.71 5.01512 1.13976 0
M  V30 29368 N 2778.69 6.08521 0.810855 0
M  V30 29369 C 2780.07 6.16811 0.628033 0
M  V30 29370 C 2782.12 4.8712 1.03047 0
M  V30 29371 C 2780.82 7.19298 0.0177642 0
M  V30 29372 C 2782.85 5.89805 0.434109 0
M  V30 29373 C 2782.21 7.04368 -0.0671308 0
M  V30 29374 H 2778.31 0.655623 0.426243 0
M  V30 29375 H 2780.89 1.88282 0.495773 0
M  V30 29376 H 2779.07 2.55616 2.92429 0
M  V30 29377 H 2780.8 2.80365 2.91852 0
M  V30 29378 H 2777.55 4.41812 1.70585 0
M  V30 29379 H 2777.98 6.75073 0.510445 0
M  V30 29380 H 2782.62 3.98812 1.40388 0
M  V30 29381 H 2780.34 8.07263 -0.367804 0
M  V30 29382 H 2783.92 5.80737 0.351598 0
M  V30 29383 H 2782.8 7.82465 -0.521346 0
M  V30 29384 N 2780.31 -0.703068 1.41049 0
M  V30 29385 C 2781.55 -1.46393 1.41211 0
M  V30 29386 C 2781.91 -1.92392 0.0180526 0
M  V30 29387 O 2781.2 -1.6612 -0.95471 0
M  V30 29388 C 2781.39 -2.69546 2.34691 0
M  V30 29389 C 2781.22 -2.35594 3.83048 0
M  V30 29390 C 2779.99 -2.26323 4.51781 0
M  V30 29391 C 2782.19 -1.99052 4.74218 0
M  V30 29392 N 2780.17 -1.85177 5.85306 0
M  V30 29393 C 2781.54 -1.68606 5.96634 0
M  V30 29394 C 2783.6 -1.85797 4.61935 0
M  V30 29395 C 2782.3 -1.26237 7.08136 0
M  V30 29396 C 2784.33 -1.44832 5.73391 0
M  V30 29397 C 2783.69 -1.15292 6.94901 0
M  V30 29398 H 2779.79 -0.533278 0.57196 0
M  V30 29399 H 2782.37 -0.814148 1.76861 0
M  V30 29400 H 2780.54 -3.32256 2.01149 0
M  V30 29401 H 2782.28 -3.3597 2.25624 0
M  V30 29402 H 2779.03 -2.44474 4.05622 0
M  V30 29403 H 2779.46 -1.67108 6.56052 0
M  V30 29404 H 2784.1 -2.07291 3.68497 0
M  V30 29405 H 2781.82 -1.03486 8.01446 0
M  V30 29406 H 2785.4 -1.35136 5.65888 0
M  V30 29407 H 2784.28 -0.840716 7.7968 0
M  V30 29408 N 2781.78 -1.26752 -0.936569 0
M  V30 29409 C 2782.71 -1.11216 -2.05313 0
M  V30 29410 C 2783.7 -0.0160561 -1.70092 0
M  V30 29411 O 2784.88 -0.188928 -1.93279 0
M  V30 29412 C 2782.01 -0.74923 -3.39122 0
M  V30 29413 C 2780.96 -1.79758 -3.88421 0
M  V30 29414 C 2780.29 -1.28885 -5.18934 0
M  V30 29415 C 2781.59 -3.2 -4.12792 0
M  V30 29416 H 2783.28 -2.04616 -2.18569 0
M  V30 29417 H 2780.83 -0.985178 -1.05025 0
M  V30 29418 H 2782.78 -0.627396 -4.16703 0
M  V30 29419 H 2781.51 0.220485 -3.25855 0
M  V30 29420 H 2780.17 -1.90816 -3.13025 0
M  V30 29421 H 2779.81 -0.308845 -5.02051 0
M  V30 29422 H 2779.51 -1.98967 -5.52889 0
M  V30 29423 H 2781.04 -1.17978 -5.99094 0
M  V30 29424 H 2782.45 -3.11992 -4.80972 0
M  V30 29425 H 2780.85 -3.87713 -4.58037 0
M  V30 29426 H 2781.92 -3.65713 -3.18405 0
M  V30 29427 N 2783.26 1.1418 -1.08631 0
M  V30 29428 C 2784.19 2.21462 -0.740042 0
M  V30 29429 C 2785.17 1.67804 0.278562 0
M  V30 29430 O 2786.36 1.93632 0.148427 0
M  V30 29431 C 2783.49 3.46972 -0.151013 0
M  V30 29432 C 2782.44 4.1367 -1.09822 0
M  V30 29433 C 2781.77 5.33409 -0.371294 0
M  V30 29434 C 2783.07 4.61945 -2.4373 0
M  V30 29435 H 2784.76 2.50683 -1.63701 0
M  V30 29436 H 2782.31 1.2049 -0.788547 0
M  V30 29437 H 2784.26 4.21273 0.103251 0
M  V30 29438 H 2782.99 3.17122 0.781108 0
M  V30 29439 H 2781.64 3.41326 -1.33762 0
M  V30 29440 H 2781.29 4.9982 0.564704 0
M  V30 29441 H 2780.99 5.7898 -1.00278 0
M  V30 29442 H 2782.52 6.10472 -0.125138 0
M  V30 29443 H 2783.93 5.2771 -2.24043 0
M  V30 29444 H 2782.33 5.18226 -3.02591 0
M  V30 29445 H 2783.4 3.76894 -3.05089 0
M  V30 29446 N 2784.74 0.872304 1.31258 0
M  V30 29447 C 2785.69 0.318938 2.30403 0
M  V30 29448 C 2786.68 -0.567239 1.59621 0
M  V30 29449 O 2787.89 -0.45308 1.74204 0
M  V30 29450 H 2784.26 0.0844605 0.747242 0
M  V30 29451 H 2786.23 1.16903 2.74547 0
M  V30 29452 C 2784.98 -0.462623 3.44609 0
M  V30 29453 H 2784.31 0.210006 3.99248 0
M  V30 29454 H 2785.75 -0.815113 4.16091 0
M  V30 29455 C 2784.21 -1.6548 2.93459 0
M  V30 29456 O 2784.74 -2.75411 2.92423 0
M  V30 29457 N 2782.94 -1.48771 2.49631 0
M  V30 29458 H 2782.49 -0.593408 2.50672 0
M  V30 29459 H 2782.45 -2.28678 2.15763 0
M  V30 29460 N 2786.22 -1.44374 0.631976 0
M  V30 29461 C 2787.45 -2.06399 0.143903 0
M  V30 29462 C 2787.86 -1.47233 -1.18186 0
M  V30 29463 O 2787.22 -0.595528 -1.7251 0
M  V30 29464 C 2787.27 -3.61492 0.0238889 0
M  V30 29465 O 2786.99 -4.18454 1.29722 0
M  V30 29466 C 2788.49 -4.40553 -0.492779 0
M  V30 29467 H 2785.71 -0.666206 0.0800659 0
M  V30 29468 H 2788.26 -1.8523 0.866619 0
M  V30 29469 H 2786.41 -3.8192 -0.649271 0
M  V30 29470 H 2786.82 -5.11903 1.14261 0
M  V30 29471 H 2788.3 -5.4949 -0.525764 0
M  V30 29472 H 2788.78 -4.12059 -1.51999 0
M  V30 29473 H 2789.38 -4.25045 0.14716 0
M  V30 29474 N 2787.7 -0.372575 -1.53133 0
M  V30 29475 C 2788.61 0.478339 -2.29672 0
M  V30 29476 C 2789.62 1.08642 -1.35915 0
M  V30 29477 O 2790.8 1.09585 -1.68977 0
M  V30 29478 C 2787.86 1.59894 -3.07627 0
M  V30 29479 C 2786.92 1.01769 -4.17063 0
M  V30 29480 C 2786.16 2.08489 -4.91292 0
M  V30 29481 O 2786.38 3.29719 -4.65448 0
M  V30 29482 O 2785.31 1.71154 -5.77053 0
M  V30 29483 H 2789.14 -0.144703 -3.03355 0
M  V30 29484 H 2786.73 -0.136755 -1.48773 0
M  V30 29485 H 2788.61 2.25031 -3.56285 0
M  V30 29486 H 2787.28 2.20726 -2.36774 0
M  V30 29487 H 2786.19 0.330033 -3.72641 0
M  V30 29488 H 2787.52 0.453829 -4.90103 0
M  V30 29489 N 2789.17 1.5727 -0.101929 0
M  V30 29490 C 2790.42 1.94886 0.560993 0
M  V30 29491 C 2790.75 0.984287 1.67408 0
M  V30 29492 O 2790.03 0.0185108 1.94491 0
M  V30 29493 C 2790.31 3.42573 1.10976 0
M  V30 29494 C 2790.16 4.498 0.00125511 0
M  V30 29495 C 2791.48 3.91724 2.00601 0
M  V30 29496 H 2788.6 0.708647 0.202455 0
M  V30 29497 H 2791.24 1.89201 -0.174026 0
M  V30 29498 H 2789.39 3.47549 1.73614 0
M  V30 29499 H 2791.07 4.56932 -0.6333 0
M  V30 29500 H 2789.31 4.28685 -0.664218 0
M  V30 29501 H 2789.98 5.50353 0.426156 0
M  V30 29502 H 2792.46 3.88944 1.47857 0
M  V30 29503 H 2791.33 4.95613 2.35921 0
M  V30 29504 H 2791.59 3.31416 2.92602 0
M  V30 29505 N 2790.65 -0.171793 1.56661 0
M  V30 29506 C 2791.9 -0.886742 1.81608 0
M  V30 29507 C 2792.22 -1.82802 0.67885 0
M  V30 29508 O 2791.49 -1.93569 -0.30132 0
M  V30 29509 H 2790.07 -0.330439 0.66994 0
M  V30 29510 H 2792.73 -0.171723 1.94142 0
M  V30 29511 H 2791.83 -1.46393 2.75637 0
M  V30 29512 N 2792.13 -1.51324 -0.44033 0
M  V30 29513 C 2793.04 -1.75261 -1.55952 0
M  V30 29514 C 2794.06 -0.636715 -1.61932 0
M  V30 29515 O 2795.23 -0.918625 -1.7923 0
M  V30 29516 C 2792.3 -1.86982 -2.91956 0
M  V30 29517 C 2791.36 -3.10827 -2.96117 0
M  V30 29518 C 2790.59 -3.2198 -4.25634 0
M  V30 29519 O 2790.81 -2.39146 -5.17847 0
M  V30 29520 O 2789.75 -4.14937 -4.36017 0
M  V30 29521 H 2793.57 -2.70194 -1.38668 0
M  V30 29522 H 2791.16 -1.35789 -0.623031 0
M  V30 29523 H 2793.04 -1.96695 -3.72678 0
M  V30 29524 H 2791.72 -0.952361 -3.09373 0
M  V30 29525 H 2790.62 -3.06595 -2.14361 0
M  V30 29526 H 2791.96 -4.02252 -2.83644 0
M  V30 29527 N 2793.61 0.695578 -1.41419 0
M  V30 29528 C 2794.56 1.83082 -1.43471 0
M  V30 29529 C 2795.55 1.66488 -0.312748 0
M  V30 29530 O 2796.76 1.73349 -0.484775 0
M  V30 29531 H 2793.13 0.603317 -0.448902 0
M  V30 29532 H 2795.1 1.78469 -2.39147 0
M  V30 29533 C 2793.85 3.21101 -1.33376 0
M  V30 29534 H 2793.17 3.34486 -2.18995 0
M  V30 29535 H 2794.61 4.00613 -1.38872 0
M  V30 29536 C 2793.07 3.36868 -0.0461076 0
M  V30 29537 O 2793.6 3.91276 0.909189 0
M  V30 29538 N 2791.81 2.90585 0.0299712 0
M  V30 29539 H 2791.36 2.46496 -0.748173 0
M  V30 29540 H 2791.31 3.01512 0.890938 0
M  V30 29541 N 2795.09 1.27247 0.929833 0
M  V30 29542 C 2796.02 1.05584 2.03432 0
M  V30 29543 C 2797.03 0.0126048 1.62795 0
M  V30 29544 O 2798.22 0.253931 1.76685 0
M  V30 29545 C 2795.32 0.579179 3.33914 0
M  V30 29546 C 2794.49 1.69422 4.03256 0
M  V30 29547 C 2793.55 1.21366 5.12012 0
M  V30 29548 O 2792.58 1.91292 5.36093 0
M  V30 29549 N 2793.78 0.0681642 5.8046 0
M  V30 29550 H 2796.55 2.00695 2.22579 0
M  V30 29551 H 2794.11 1.18785 1.10008 0
M  V30 29552 H 2796.1 0.241634 4.03978 0
M  V30 29553 H 2794.67 -0.278648 3.11356 0
M  V30 29554 H 2793.89 2.20215 3.26954 0
M  V30 29555 H 2795.18 2.44263 4.46333 0
M  V30 29556 H 2794.58 -0.515527 5.63346 0
M  V30 29557 H 2793.13 -0.210217 6.51461 0
M  V30 29558 N 2796.57 -1.13603 1.09235 0
M  V30 29559 C 2797.98 -1.36825 0.821654 0
M  V30 29560 C 2798.18 -1.93417 -0.564987 0
M  V30 29561 O 2797.24 -2.15236 -1.32022 0
M  V30 29562 C 2798.55 -2.32143 1.91128 0
M  V30 29563 C 2800.1 -2.45763 1.93828 0
M  V30 29564 C 2800.57 -3.44388 3.01929 0
M  V30 29565 N 2802.06 -3.51937 3.01155 0
M  V30 29566 C 2802.8 -4.28124 3.81442 0
M  V30 29567 N 2802.3 -5.07481 4.7163 0
M  V30 29568 N 2804.09 -4.23405 3.69709 0
M  V30 29569 H 2796.24 -0.7522 1.98635 0
M  V30 29570 H 2798.5 -0.393467 0.862489 0
M  V30 29571 H 2798.21 -1.97712 2.90865 0
M  V30 29572 H 2798.08 -3.32139 1.78783 0
M  V30 29573 H 2800.47 -2.79482 0.947309 0
M  V30 29574 H 2800.55 -1.45699 2.10251 0
M  V30 29575 H 2800.19 -3.11401 4.01238 0
M  V30 29576 H 2800.12 -4.44252 2.8275 0
M  V30 29577 H 2802.62 -2.95313 2.35794 0
M  V30 29578 H 2802.93 -5.62915 5.29478 0
M  V30 29579 H 2801.27 -5.0672 4.75667 0
M  V30 29580 H 2804.46 -3.60484 2.98612 0
M  V30 29581 H 2804.64 -4.82528 4.32517 0
M  V30 29582 N 2798.04 -0.879253 -1.30793 0
M  V30 29583 C 2799.01 -0.346716 -2.26562 0
M  V30 29584 C 2800.01 0.50757 -1.52579 0
M  V30 29585 O 2801.2 0.315545 -1.71318 0
M  V30 29586 C 2798.33 0.506552 -3.37116 0
M  V30 29587 H 2799.52 -1.19228 -2.75181 0
M  V30 29588 H 2797.07 -0.655623 -1.41885 0
M  V30 29589 H 2797.81 1.37294 -2.93804 0
M  V30 29590 H 2797.59 -0.105287 -3.91959 0
M  V30 29591 H 2799.08 0.87112 -4.08413 0
M  V30 29592 N 2799.52 1.44037 -0.639624 0
M  V30 29593 C 2800.77 2.01563 -0.147224 0
M  V30 29594 C 2801.09 1.5063 1.23837 0
M  V30 29595 O 2800.36 0.713348 1.8245 0
M  V30 29596 H 2798.94 0.745227 -0.0514362 0
M  V30 29597 H 2801.6 1.76426 -0.828236 0
M  V30 29598 H 2800.7 3.11864 -0.121412 0
M  V30 29599 N 2801 0.380691 1.52933 0
M  V30 29600 C 2801.93 -0.502524 2.22598 0
M  V30 29601 C 2802.91 -1.07098 1.22347 0
M  V30 29602 O 2804.09 -1.12425 1.51304 0
M  V30 29603 C 2801.22 -1.69477 2.93249 0
M  V30 29604 C 2800.27 -1.25237 4.07698 0
M  V30 29605 S 2801.1 -0.241065 5.34957 0
M  V30 29606 C 2802.26 -1.43929 6.09127 0
M  V30 29607 H 2802.49 0.0890812 2.97167 0
M  V30 29608 H 2800.02 0.164844 1.53518 0
M  V30 29609 H 2801.98 -2.37857 3.34566 0
M  V30 29610 H 2800.64 -2.25766 2.18377 0
M  V30 29611 H 2799.83 -2.14232 4.56202 0
M  V30 29612 H 2799.44 -0.647599 3.68351 0
M  V30 29613 H 2801.73 -2.36783 6.34776 0
M  V30 29614 H 2802.67 -0.995341 7.0107 0
M  V30 29615 H 2803.08 -1.6522 5.3978 0
M  V30 29616 N 2802.48 -1.57214 0.110268 0
M  V30 29617 C 2803.41 -2.11904 -0.87346 0
M  V30 29618 C 2804.42 -1.05973 -1.23586 0
M  V30 29619 O 2805.61 -1.33373 -1.18633 0
M  V30 29620 C 2802.71 -2.59646 -2.178 0
M  V30 29621 C 2801.88 -3.8958 -1.98863 0
M  V30 29622 C 2800.94 -4.23011 -3.12966 0
M  V30 29623 O 2799.97 -4.91978 -2.86263 0
M  V30 29624 N 2801.17 -3.7963 -4.3916 0
M  V30 29625 H 2803.94 -2.96934 -0.406265 0
M  V30 29626 H 2801.5 -1.61729 -0.0744086 0
M  V30 29627 H 2803.49 -2.79047 -2.93112 0
M  V30 29628 H 2802.06 -1.79545 -2.55896 0
M  V30 29629 H 2801.28 -3.79176 -1.07793 0
M  V30 29630 H 2802.57 -4.74556 -1.83504 0
M  V30 29631 H 2801.97 -3.23988 -4.63733 0
M  V30 29632 H 2800.52 -4.04156 -5.11372 0
M  V30 29633 N 2803.96 0.163482 -1.5675 0
M  V30 29634 C 2805.18 0.8942 -1.86579 0
M  V30 29635 C 2805.6 1.7548 -0.696574 0
M  V30 29636 O 2804.96 1.79415 0.334129 0
M  V30 29637 C 2805.01 1.76451 -3.15511 0
M  V30 29638 O 2804.73 0.93861 -4.27927 0
M  V30 29639 C 2806.23 2.60422 -3.58741 0
M  V30 29640 H 2803.45 0.259395 -0.618834 0
M  V30 29641 H 2805.99 0.161223 -2.03863 0
M  V30 29642 H 2804.15 2.45073 -3.0003 0
M  V30 29643 H 2804.56 1.53456 -5.01549 0
M  V30 29644 H 2806.04 3.17091 -4.51838 0
M  V30 29645 H 2806.51 3.3567 -2.83235 0
M  V30 29646 H 2807.12 1.97118 -3.76861 0
M  V30 29647 N 2805.43 1.51555 0.432299 0
M  V30 29648 C 2806.84 1.56894 1.01199 0
M  V30 29649 C 2807.2 0.395428 1.92174 0
M  V30 29650 O 2806.32 -0.487161 2.10845 0
M  V30 29651 C 2806.92 2.84344 1.84212 0
M  V30 29652 C 2805.47 2.92237 2.37223 0
M  V30 29653 C 2804.62 2.51608 1.16571 0
M  V30 29654 H 2807.57 1.57259 0.21338 0
M  V30 29655 H 2807.59 2.6839 2.69717 0
M  V30 29656 H 2807.11 3.69735 1.17973 0
M  V30 29657 H 2805.21 2.11287 3.06902 0
M  V30 29658 H 2805.32 3.95995 2.69675 0
M  V30 29659 H 2803.68 2.04921 1.51259 0
M  V30 29660 H 2804.47 3.39349 0.519344 0
M  V30 29661 N 2806.91 -0.688069 1.41786 0
M  V30 29662 C 2808.16 -1.44813 1.41546 0
M  V30 29663 C 2808.49 -1.94481 0.0272088 0
M  V30 29664 O 2807.74 -1.70412 -0.962205 0
M  V30 29665 C 2808.04 -2.67042 2.37536 0
M  V30 29666 C 2807.71 -2.3599 3.84213 0
M  V30 29667 C 2806.37 -2.27232 4.24169 0
M  V30 29668 C 2808.72 -2.10527 4.76789 0
M  V30 29669 C 2806.05 -1.91119 5.54699 0
M  V30 29670 C 2808.4 -1.75921 6.07647 0
M  V30 29671 C 2807.06 -1.65664 6.46616 0
M  V30 29672 H 2806.33 -0.52991 0.517954 0
M  V30 29673 H 2808.98 -0.785766 1.74637 0
M  V30 29674 H 2807.29 -3.38248 1.97726 0
M  V30 29675 H 2808.98 -3.25199 2.34621 0
M  V30 29676 H 2805.57 -2.43703 3.52571 0
M  V30 29677 H 2809.76 -2.16234 4.46718 0
M  V30 29678 H 2805.01 -1.81736 5.83765 0
M  V30 29679 H 2809.19 -1.5524 6.78877 0
M  V30 29680 H 2806.81 -1.37449 7.47671 0
M  V30 29681 N 2808.39 -1.27739 -0.923072 0
M  V30 29682 C 2809.32 -1.13387 -2.04122 0
M  V30 29683 C 2810.3 -0.0340957 -1.70066 0
M  V30 29684 O 2811.49 -0.209417 -1.93068 0
M  V30 29685 C 2808.62 -0.785156 -3.38308 0
M  V30 29686 C 2807.57 -1.83867 -3.86493 0
M  V30 29687 C 2806.9 -1.34382 -5.17538 0
M  V30 29688 C 2808.2 -3.2436 -4.09375 0
M  V30 29689 H 2809.89 -2.06923 -2.16387 0
M  V30 29690 H 2807.44 -0.996262 -1.03974 0
M  V30 29691 H 2809.39 -0.671558 -4.16014 0
M  V30 29692 H 2808.11 0.185912 -3.2607 0
M  V30 29693 H 2806.77 -1.94126 -3.10984 0
M  V30 29694 H 2806.42 -0.362077 -5.01695 0
M  V30 29695 H 2806.12 -2.0482 -5.50747 0
M  V30 29696 H 2807.64 -1.24326 -5.97809 0
M  V30 29697 H 2809.06 -3.17076 -4.77636 0
M  V30 29698 H 2807.45 -3.9255 -4.53899 0
M  V30 29699 H 2808.52 -3.6907 -3.14509 0
M  V30 29700 N 2809.87 1.13022 -1.09836 0
M  V30 29701 C 2811.12 1.83748 -0.831839 0
M  V30 29702 C 2811.43 1.84669 0.644731 0
M  V30 29703 O 2812.64 2.51329 1.02693 0
M  V30 29704 C 2811.09 3.29913 -1.43823 0
M  V30 29705 C 2810.7 3.37369 -2.94765 0
M  V30 29706 C 2812.44 4.05653 -1.25084 0
M  V30 29707 C 2810.35 4.77832 -3.48469 0
M  V30 29708 H 2809.28 0.688438 -0.307522 0
M  V30 29709 H 2811.93 1.27305 -1.32158 0
M  V30 29710 H 2810.31 3.86185 -0.876174 0
M  V30 29711 H 2811.49 2.91069 -3.57233 0
M  V30 29712 H 2809.8 2.75098 -3.12586 0
M  V30 29713 H 2812.4 5.09359 -1.62658 0
M  V30 29714 H 2812.74 4.15858 -0.191855 0
M  V30 29715 H 2813.28 3.55722 -1.78063 0
M  V30 29716 H 2810.02 4.7282 -4.54006 0
M  V30 29717 H 2809.54 5.24609 -2.90766 0
M  V30 29718 H 2811.21 5.4676 -3.45923 0
M  V30 29719 N 2811.35 0.886177 1.30325 0
M  V30 29720 C 2812.28 0.298446 2.2624 0
M  V30 29721 C 2813.26 -0.581677 1.5184 0
M  V30 29722 O 2814.44 -0.531504 1.80852 0
M  V30 29723 C 2811.57 -0.575829 3.33769 0
M  V30 29724 C 2810.61 0.235132 4.25851 0
M  V30 29725 S 2811.45 1.6242 5.10275 0
M  V30 29726 C 2812.6 0.756477 6.21312 0
M  V30 29727 H 2812.84 1.11146 2.75742 0
M  V30 29728 H 2810.37 0.685675 1.3834 0
M  V30 29729 H 2812.33 -1.07451 3.96188 0
M  V30 29730 H 2810.99 -1.36295 2.82989 0
M  V30 29731 H 2810.18 -0.43211 5.02144 0
M  V30 29732 H 2809.78 0.666474 3.68014 0
M  V30 29733 H 2812.08 -0.026026 6.77495 0
M  V30 29734 H 2813.02 1.49105 6.92223 0
M  V30 29735 H 2813.43 0.316848 5.6361 0
M  V30 29736 N 2812.82 -1.43695 0.647253 0
M  V30 29737 C 2814.1 -1.954 0.0884101 0
M  V30 29738 C 2814.48 -1.58875 -1.39003 0
M  V30 29739 O 2813.83 -0.870867 -2.11254 0
M  V30 29740 C 2814.04 -3.47452 0.328324 0
M  V30 29741 C 2815.39 -4.23976 0.230083 0
M  V30 29742 O 2816.41 -3.55246 0.260558 0
M  V30 29743 O 2815.27 -5.46298 0.148711 0
M  V30 29744 H 2812.36 -0.826897 -0.0130538 0
M  V30 29745 H 2814.91 -1.53665 0.720077 0
M  V30 29746 H 2813.68 -3.67143 1.35357 0
M  V30 29747 H 2813.31 -3.96172 -0.336702 0
M  V30 29748 N 2814.3 -0.388796 -1.52729 0
M  V30 29749 C 2815.72 -0.038733 -1.59553 0
M  V30 29750 C 2815.92 1.4465 -1.40281 0
M  V30 29751 O 2814.97 2.21095 -1.21955 0
M  V30 29752 C 2816.29 -0.515461 -2.96249 0
M  V30 29753 C 2817.84 -0.471675 -3.09426 0
M  V30 29754 C 2818.31 -0.924584 -4.4857 0
M  V30 29755 N 2819.8 -0.880576 -4.54753 0
M  V30 29756 C 2820.54 -1.20244 -5.60651 0
M  V30 29757 N 2820.03 -1.59474 -6.74196 0
M  V30 29758 N 2821.83 -1.12372 -5.50753 0
M  V30 29759 H 2813.98 -1.35572 -1.63505 0
M  V30 29760 H 2816.24 -0.555649 -0.768087 0
M  V30 29761 H 2815.95 -1.55276 -3.15567 0
M  V30 29762 H 2815.82 0.0857258 -3.77103 0
M  V30 29763 H 2818.21 0.556537 -2.89805 0
M  V30 29764 H 2818.29 -1.10866 -2.30526 0
M  V30 29765 H 2817.93 -1.95102 -4.68932 0
M  V30 29766 H 2817.86 -0.264616 -5.25935 0
M  V30 29767 H 2820.35 -0.591881 -3.73236 0
M  V30 29768 H 2820.67 -1.82399 -7.50966 0
M  V30 29769 H 2819.01 -1.63361 -6.75528 0
M  V30 29770 H 2822.2 -0.81625 -4.60928 0
M  V30 29771 H 2822.37 -1.37788 -6.33181 0
M  V30 29772 N 2815.78 1.57153 -0.118604 0
M  V30 29773 C 2817.06 1.86709 0.583029 0
M  V30 29774 C 2817.44 1.0197 1.84839 0
M  V30 29775 O 2816.79 0.0985074 2.28288 0
M  V30 29776 C 2817 3.37831 0.875853 0
M  V30 29777 C 2818.34 4.06422 1.22909 0
M  V30 29778 O 2819.37 3.42848 0.966127 0
M  V30 29779 O 2818.23 5.18641 1.72259 0
M  V30 29780 H 2815.32 0.772912 0.294171 0
M  V30 29781 H 2817.87 1.69008 -0.153077 0
M  V30 29782 H 2816.64 3.91294 -0.0208464 0
M  V30 29783 H 2816.26 3.60961 1.66713 0
M  V30 29784 N 2817.26 -0.155167 1.56834 0
M  V30 29785 C 2818.5 -0.875455 1.84703 0
M  V30 29786 C 2818.86 -1.78715 0.701778 0
M  V30 29787 O 2820.06 -2.54627 0.861308 0
M  V30 29788 C 2818.33 -1.63649 3.17732 0
M  V30 29789 S 2819.89 -2.40332 3.67132 0
M  V30 29790 H 2816.71 -0.292911 0.647861 0
M  V30 29791 H 2819.31 -0.13599 1.95026 0
M  V30 29792 H 2818.02 -0.958047 3.99061 0
M  V30 29793 H 2817.55 -2.41702 3.10393 0
M  V30 29794 H 2819.56 -3.65362 3.35745 0
M  V30 29795 N 2818.74 -1.51782 -0.424256 0
M  V30 29796 C 2820.15 -1.40248 -0.761743 0
M  V30 29797 C 2820.35 -0.495075 -1.95323 0
M  V30 29798 O 2819.41 0.0448505 -2.5246 0
M  V30 29799 C 2820.72 -2.82515 -1.02985 0
M  V30 29800 C 2822.27 -2.91755 -1.13349 0
M  V30 29801 C 2822.74 -4.34957 -1.43445 0
M  V30 29802 N 2824.24 -4.38123 -1.50342 0
M  V30 29803 C 2824.97 -5.4597 -1.75226 0
M  V30 29804 N 2824.47 -6.63958 -1.97815 0
M  V30 29805 N 2826.26 -5.33466 -1.77117 0
M  V30 29806 H 2818.41 -2.09322 0.360265 0
M  V30 29807 H 2820.67 -0.942834 0.0988294 0
M  V30 29808 H 2820.38 -3.50967 -0.226899 0
M  V30 29809 H 2820.25 -3.2264 -1.95405 0
M  V30 29810 H 2822.64 -2.23492 -1.92705 0
M  V30 29811 H 2822.72 -2.55108 -0.187996 0
M  V30 29812 H 2822.37 -5.03773 -0.646121 0
M  V30 29813 H 2822.3 -4.69127 -2.39222 0
M  V30 29814 H 2824.79 -3.53065 -1.34736 0
M  V30 29815 H 2825.1 -7.41939 -2.1621 0
M  V30 29816 H 2823.44 -6.67051 -1.95111 0
M  V30 29817 H 2826.64 -4.4027 -1.58997 0
M  V30 29818 H 2826.81 -6.17593 -1.96172 0
M  V30 29819 N 2820.21 0.68054 -1.42149 0
M  V30 29820 C 2821.15 1.80515 -1.39605 0
M  V30 29821 C 2822.13 1.6049 -0.261126 0
M  V30 29822 O 2823.31 1.83039 -0.450436 0
M  V30 29823 C 2820.44 3.17428 -1.18139 0
M  V30 29824 C 2819.48 3.56214 -2.3455 0
M  V30 29825 S 2820.32 3.59299 -3.9707 0
M  V30 29826 C 2821.47 4.98915 -3.77935 0
M  V30 29827 H 2821.7 1.82398 -2.34773 0
M  V30 29828 H 2819.24 0.850669 -1.28853 0
M  V30 29829 H 2821.2 3.9646 -1.06441 0
M  V30 29830 H 2819.86 3.13138 -0.245667 0
M  V30 29831 H 2819.05 4.55717 -2.15263 0
M  V30 29832 H 2818.65 2.84529 -2.42733 0
M  V30 29833 H 2820.94 5.86836 -3.3857 0
M  V30 29834 H 2821.89 5.23247 -4.77093 0
M  V30 29835 H 2822.29 4.71162 -3.10913 0
M  V30 29836 N 2821.69 1.28226 0.916285 0
M  V30 29837 C 2823.1 1.13782 1.48022 0
M  V30 29838 C 2823.45 -0.273105 1.9429 0
M  V30 29839 O 2822.58 -1.16713 1.82228 0
M  V30 29840 C 2823.17 2.05939 2.69025 0
M  V30 29841 C 2821.73 1.95567 3.21606 0
M  V30 29842 C 2820.88 1.97828 1.94318 0
M  V30 29843 H 2823.83 1.40953 0.729248 0
M  V30 29844 H 2823.85 1.6219 3.44201 0
M  V30 29845 H 2823.36 3.0862 2.3532 0
M  V30 29846 H 2821.47 0.959139 3.60043 0
M  V30 29847 H 2821.58 2.82394 3.87027 0
M  V30 29848 H 2819.94 1.42202 2.11307 0
M  V30 29849 H 2820.73 3.02183 1.62911 0
M  V30 29850 N 2823.17 -1.12438 1.10433 0
M  V30 29851 C 2824.1 -2.17294 0.697025 0
M  V30 29852 C 2825.08 -1.59778 -0.301645 0
M  V30 29853 O 2826.27 -1.8743 -0.20055 0
M  V30 29854 C 2823.39 -3.38688 0.028469 0
M  V30 29855 C 2822.44 -4.14836 0.990609 0
M  V30 29856 S 2823.27 -4.73142 2.50793 0
M  V30 29857 C 2824.43 -5.9787 1.85209 0
M  V30 29858 H 2824.66 -2.51508 1.58527 0
M  V30 29859 H 2822.19 -1.23898 0.921333 0
M  V30 29860 H 2824.15 -4.08997 -0.350937 0
M  V30 29861 H 2822.81 -3.02754 -0.836576 0
M  V30 29862 H 2822.01 -5.01803 0.470079 0
M  V30 29863 H 2821.61 -3.50235 1.31192 0
M  V30 29864 H 2823.9 -6.67104 1.18229 0
M  V30 29865 H 2824.84 -6.54549 2.70132 0
M  V30 29866 H 2825.25 -5.48931 1.31662 0
M  V30 29867 N 2824.65 -0.893076 -1.29853 0
M  V30 29868 C 2825.9 -0.514601 -1.95439 0
M  V30 29869 C 2826.22 0.940929 -1.70797 0
M  V30 29870 O 2825.49 1.66262 -1.03604 0
M  V30 29871 H 2824.07 -0.187315 -0.723133 0
M  V30 29872 H 2826.73 -1.13792 -1.58232 0
M  V30 29873 H 2825.83 -0.691634 -3.0434 0
M  V30 29874 N 2826.13 1.4335 -0.654865 0
M  V30 29875 C 2827.06 2.3349 0.0221399 0
M  V30 29876 C 2828.04 1.49563 0.810246 0
M  V30 29877 O 2829.22 1.78222 0.771395 0
M  V30 29878 C 2826.35 3.32948 0.988059 0
M  V30 29879 C 2825.31 4.26876 0.309951 0
M  V30 29880 C 2824.63 5.16386 1.38743 0
M  V30 29881 C 2825.93 5.16157 -0.798679 0
M  V30 29882 H 2827.63 2.90349 -0.730622 0
M  V30 29883 H 2825.17 1.39611 -0.352798 0
M  V30 29884 H 2827.13 3.94907 1.4706 0
M  V30 29885 H 2825.85 2.7435 1.772 0
M  V30 29886 H 2824.51 3.66284 -0.152162 0
M  V30 29887 H 2824.16 4.54125 2.16285 0
M  V30 29888 H 2823.86 5.8005 0.938949 0
M  V30 29889 H 2825.38 5.81218 1.8713 0
M  V30 29890 H 2826.8 5.71915 -0.398226 0
M  V30 29891 H 2825.19 5.8855 -1.17173 0
M  V30 29892 H 2826.26 4.55748 -1.65596 0
M  V30 29893 N 2827.61 0.39689 1.52521 0
M  V30 29894 C 2828.83 -0.185222 2.06571 0
M  V30 29895 C 2829.26 -1.39112 1.26607 0
M  V30 29896 O 2828.61 -1.78915 0.293086 0
M  V30 29897 C 2828.66 -0.526126 3.56741 0
M  V30 29898 O 2827.77 -1.61896 3.79293 0
M  V30 29899 H 2827.11 -0.0195358 0.663713 0
M  V30 29900 H 2829.64 0.566553 1.96599 0
M  V30 29901 H 2829.65 -0.788268 4.00313 0
M  V30 29902 H 2828.32 0.35547 4.14378 0
M  V30 29903 H 2826.9 -1.34994 3.47607 0
M  V30 29904 N 2829.08 -1.57088 0.126936 0
M  V30 29905 C 2830.31 -1.9982 -0.536635 0
M  V30 29906 C 2830.73 -1.00676 -1.59718 0
M  V30 29907 O 2830.08 -0.000779444 -1.825 0
M  V30 29908 C 2830.13 -3.42533 -1.15557 0
M  V30 29909 O 2829.86 -4.37884 -0.137406 0
M  V30 29910 C 2831.36 -4.00438 -1.90169 0
M  V30 29911 H 2828.58 -0.655926 -0.141431 0
M  V30 29912 H 2831.12 -2.0336 0.215613 0
M  V30 29913 H 2829.28 -3.39907 -1.85855 0
M  V30 29914 H 2829.69 -5.21192 -0.588137 0
M  V30 29915 H 2831.16 -5.02353 -2.28792 0
M  V30 29916 H 2831.64 -3.40022 -2.77996 0
M  V30 29917 H 2832.25 -4.06634 -1.24615 0
M  V30 29918 N 2830.56 0.146848 -1.56914 0
M  V30 29919 C 2831.81 0.857738 -1.82995 0
M  V30 29920 C 2832.13 1.81699 -0.707846 0
M  V30 29921 O 2831.4 1.94024 0.270487 0
M  V30 29922 H 2829.98 0.319739 -0.675112 0
M  V30 29923 H 2832.64 0.140815 -1.94391 0
M  V30 29924 H 2831.74 1.41989 -2.77931 0
M  V30 29925 N 2832.04 1.52005 0.4162 0
M  V30 29926 C 2833.29 1.64946 1.16085 0
M  V30 29927 C 2833.6 0.381962 1.91834 0
M  V30 29928 O 2834.81 0.39106 2.68669 0
M  V30 29929 C 2833.26 2.9139 2.11235 0
M  V30 29930 C 2832.87 4.25221 1.41035 0
M  V30 29931 C 2834.62 3.13693 2.86002 0
M  V30 29932 C 2832.52 5.42795 2.34792 0
M  V30 29933 H 2831.45 0.614427 0.43703 0
M  V30 29934 H 2834.1 1.78488 0.42594 0
M  V30 29935 H 2832.49 2.7153 2.88249 0
M  V30 29936 H 2833.66 4.55539 0.694336 0
M  V30 29937 H 2831.97 4.08965 0.783368 0
M  V30 29938 H 2834.57 3.9871 3.56279 0
M  V30 29939 H 2834.91 2.27634 3.48552 0
M  V30 29940 H 2835.45 3.33991 2.16089 0
M  V30 29941 H 2832.19 6.31179 1.76899 0
M  V30 29942 H 2831.71 5.16826 3.04386 0
M  V30 29943 H 2833.39 5.75592 2.9547 0
M  V30 29944 N 2833.52 -0.672992 1.42508 0
M  V30 29945 C 2834.77 -1.4288 1.42366 0
M  V30 29946 C 2835.08 -1.9555 0.0441942 0
M  V30 29947 O 2836.29 -2.71383 -0.0798202 0
M  V30 29948 C 2834.74 -2.58477 2.50435 0
M  V30 29949 C 2834.35 -2.12499 3.94396 0
M  V30 29950 C 2836.09 -3.35976 2.59461 0
M  V30 29951 C 2834 -3.25189 4.9397 0
M  V30 29952 H 2832.93 -0.536773 0.52952 0
M  V30 29953 H 2835.58 -0.728418 1.68423 0
M  V30 29954 H 2833.96 -3.30892 2.17546 0
M  V30 29955 H 2835.14 -1.47225 4.36648 0
M  V30 29956 H 2833.45 -1.47933 3.89236 0
M  V30 29957 H 2836.05 -4.19906 3.31033 0
M  V30 29958 H 2836.39 -3.82689 1.63875 0
M  V30 29959 H 2836.93 -2.70632 2.91553 0
M  V30 29960 H 2833.66 -2.83466 5.91039 0
M  V30 29961 H 2833.18 -3.89239 4.56348 0
M  V30 29962 H 2834.86 -3.90628 5.1577 0
M  V30 29963 N 2835 -1.2871 -0.909472 0
M  V30 29964 C 2836.22 -1.19093 -1.69798 0
M  V30 29965 C 2836.65 0.246355 -1.8648 0
M  V30 29966 O 2836 1.17812 -1.37804 0
M  V30 29967 C 2836.05 -1.89909 -3.0654 0
M  V30 29968 O 2835.16 -1.20947 -3.94266 0
M  V30 29969 H 2834.5 -0.413194 -0.519776 0
M  V30 29970 H 2837.03 -1.70108 -1.13686 0
M  V30 29971 H 2837.04 -1.97983 -3.56745 0
M  V30 29972 H 2835.71 -2.94454 -2.93717 0
M  V30 29973 H 2834.29 -1.21066 -3.527 0
M  V30 29974 N 2836.47 1.1185 -1.11028 0
M  V30 29975 C 2837.75 1.79876 -0.768379 0
M  V30 29976 C 2838.13 1.97546 0.744226 0
M  V30 29977 O 2837.48 1.55672 1.67268 0
M  V30 29978 C 2837.69 3.13844 -1.52654 0
M  V30 29979 C 2839.04 3.8895 -1.70304 0
M  V30 29980 O 2840.06 3.23519 -1.49042 0
M  V30 29981 O 2838.92 5.0635 -2.05602 0
M  V30 29982 H 2836.01 0.778908 -0.277905 0
M  V30 29983 H 2838.56 1.18631 -1.21346 0
M  V30 29984 H 2837.33 2.96311 -2.55569 0
M  V30 29985 H 2836.95 3.82799 -1.07473 0
M  V30 29986 N 2837.95 0.89995 1.29378 0
M  V30 29987 C 2839.18 0.540728 2.00227 0
M  V30 29988 C 2839.6 -0.86733 1.6691 0
M  V30 29989 O 2838.96 -1.57734 0.893851 0
M  V30 29990 C 2839.01 0.740294 3.52919 0
M  V30 29991 O 2838.11 -0.207082 4.1188 0
M  V30 29992 H 2837.45 0.211244 0.629501 0
M  V30 29993 H 2839.98 1.21161 1.64867 0
M  V30 29994 H 2839.99 0.645044 4.02869 0
M  V30 29995 H 2838.67 1.76683 3.76505 0
M  V30 29996 H 2837.24 -0.0642659 3.72845 0
M  V30 29997 N 2839.43 -1.43001 0.662458 0
M  V30 29998 C 2840.36 -2.29115 -0.0622857 0
M  V30 29999 C 2841.38 -1.43012 -0.777901 0
M  V30 30000 O 2842.56 -1.66857 -0.634116 0
M  V30 30001 C 2839.66 -3.20152 -1.11157 0
M  V30 30002 C 2838.84 -4.34843 -0.472251 0
M  V30 30003 C 2837.9 -5.06688 -1.41965 0
M  V30 30004 O 2836.92 -5.61639 -0.924696 0
M  V30 30005 N 2838.12 -5.11048 -2.75336 0
M  V30 30006 H 2840.89 -2.91956 0.67689 0
M  V30 30007 H 2838.45 -1.53792 0.505934 0
M  V30 30008 H 2840.44 -3.65081 -1.74637 0
M  V30 30009 H 2839.01 -2.58848 -1.75261 0
M  V30 30010 H 2838.23 -3.92715 0.34182 0
M  V30 30011 H 2839.52 -5.08793 -0.0263487 0
M  V30 30012 H 2838.92 -4.67792 -3.181 0
M  V30 30013 H 2837.48 -5.59664 -3.34095 0
M  V30 30014 N 2840.91 -0.404973 -1.52308 0
M  V30 30015 C 2842.16 0.173494 -2.00952 0
M  V30 30016 C 2842.47 1.46578 -1.29515 0
M  V30 30017 O 2843.68 2.12525 -1.68954 0
M  V30 30018 C 2842.13 0.359738 -3.58098 0
M  V30 30019 C 2841.74 -0.920215 -4.38447 0
M  V30 30020 C 2843.48 0.893721 -4.14985 0
M  V30 30021 C 2841.39 -0.701388 -5.87226 0
M  V30 30022 H 2840.32 0.0686112 -0.750872 0
M  V30 30023 H 2842.97 -0.52978 -1.75686 0
M  V30 30024 H 2841.35 1.12524 -3.79677 0
M  V30 30025 H 2842.53 -1.69155 -4.2863 0
M  V30 30026 H 2840.84 -1.38031 -3.92857 0
M  V30 30027 H 2843.44 1.0734 -5.23815 0
M  V30 30028 H 2843.78 1.86724 -3.72075 0
M  V30 30029 H 2844.32 0.187383 -3.97358 0
M  V30 30030 H 2841.06 -1.64635 -6.34488 0
M  V30 30031 H 2840.58 0.0307234 -5.99792 0
M  V30 30032 H 2842.25 -0.341959 -6.46096 0
M  V30 30033 N 2842.39 1.57018 -0.135265 0
M  V30 30034 C 2843.33 2.16162 0.80887 0
M  V30 30035 C 2844.3 1.09115 1.25232 0
M  V30 30036 O 2845.49 1.37101 1.32695 0
M  V30 30037 C 2842.63 2.77817 2.04724 0
M  V30 30038 C 2841.74 3.99221 1.65067 0
M  V30 30039 C 2840.88 4.48911 2.83994 0
M  V30 30040 C 2839.92 5.62808 2.40653 0
M  V30 30041 N 2839.05 6.07168 3.52549 0
M  V30 30042 H 2843.89 2.96509 0.297699 0
M  V30 30043 H 2841.43 1.46477 0.135238 0
M  V30 30044 H 2843.39 3.11702 2.77305 0
M  V30 30045 H 2842.02 2.00133 2.53272 0
M  V30 30046 H 2841.07 3.71391 0.822964 0
M  V30 30047 H 2842.38 4.81769 1.29227 0
M  V30 30048 H 2841.54 4.8479 3.64779 0
M  V30 30049 H 2840.27 3.65345 3.2307 0
M  V30 30050 H 2839.28 5.26517 1.58305 0
M  V30 30051 H 2840.5 6.48151 2.02676 0
M  V30 30052 H 2838.45 5.26541 3.91269 0
M  V30 30053 H 2838.37 6.84614 3.20687 0
M  V30 30054 H 2839.64 6.4769 4.33726 0
M  V30 30055 N 2843.86 -0.138524 1.5699 0
M  V30 30056 C 2844.83 -1.15474 1.97986 0
M  V30 30057 C 2845.83 -1.35396 0.86744 0
M  V30 30058 O 2847.02 -1.32244 1.13389 0
M  V30 30059 C 2844.15 -2.51333 2.30314 0
M  V30 30060 H 2845.34 -0.802845 2.88954 0
M  V30 30061 H 2842.9 -0.382162 1.51556 0
M  V30 30062 H 2843.63 -2.91479 1.42164 0
M  V30 30063 H 2843.42 -2.38232 3.11429 0
M  V30 30064 H 2844.91 -3.24508 2.62839 0
M  V30 30065 N 2845.34 -1.52224 -0.408133 0
M  V30 30066 C 2846.57 -1.70474 -1.18124 0
M  V30 30067 C 2846.99 -0.413872 -1.8349 0
M  V30 30068 O 2846.35 0.628748 -1.70048 0
M  V30 30069 C 2846.4 -2.84217 -2.2193 0
M  V30 30070 O 2845.5 -2.49856 -3.28094 0
M  V30 30071 H 2844.84 -0.567476 -0.344771 0
M  V30 30072 H 2847.37 -1.98931 -0.478293 0
M  V30 30073 H 2847.38 -3.09158 -2.66243 0
M  V30 30074 H 2846.06 -3.77873 -1.73737 0
M  V30 30075 H 2844.64 -2.35589 -2.89054 0
M  V30 30076 N 2846.82 0.665425 -1.42863 0
M  V30 30077 C 2847.73 1.808 -1.49494 0
M  V30 30078 C 2848.75 1.69734 -0.382944 0
M  V30 30079 O 2849.92 1.91119 -0.635256 0
M  V30 30080 C 2846.99 3.17005 -1.40388 0
M  V30 30081 C 2846.05 3.39958 -2.62158 0
M  V30 30082 C 2845.28 4.69665 -2.53477 0
M  V30 30083 O 2845.5 5.48202 -1.57578 0
M  V30 30084 O 2844.44 4.94069 -3.43772 0
M  V30 30085 H 2848.26 1.78161 -2.45952 0
M  V30 30086 H 2845.85 0.822365 -1.2473 0
M  V30 30087 H 2847.73 3.98265 -1.37707 0
M  V30 30088 H 2846.41 3.20261 -0.470602 0
M  V30 30089 H 2845.31 2.5851 -2.70413 0
M  V30 30090 H 2846.65 3.4154 -3.54417 0
M  V30 30091 N 2848.3 1.29191 0.902633 0
M  V30 30092 C 2849.55 1.16992 1.65285 0
M  V30 30093 C 2849.87 -0.279198 1.92486 0
M  V30 30094 O 2849.13 -1.2184 1.53145 0
M  V30 30095 C 2849.43 1.9255 3.01097 0
M  V30 30096 C 2849.09 3.42286 2.93515 0
M  V30 30097 C 2847.76 3.83122 2.91155 0
M  V30 30098 C 2850.11 4.37715 2.82939 0
M  V30 30099 C 2847.44 5.17709 2.76034 0
M  V30 30100 C 2849.79 5.72389 2.69358 0
M  V30 30101 C 2848.45 6.12486 2.65362 0
M  V30 30102 H 2847.72 0.428104 0.60482 0
M  V30 30103 H 2850.37 1.60094 1.05081 0
M  V30 30104 H 2848.67 1.4203 3.6515 0
M  V30 30105 H 2850.37 1.80518 3.5807 0
M  V30 30106 H 2846.96 3.09825 2.96153 0
M  V30 30107 H 2851.14 4.07121 2.83842 0
M  V30 30108 H 2846.4 5.4789 2.71343 0
M  V30 30109 H 2850.57 6.45986 2.60145 0
M  V30 30110 H 2848.2 7.16722 2.53403 0
M  V30 30111 N 2849.78 -1.1126 1.1162 0
M  V30 30112 C 2850.71 -2.19423 0.798499 0
M  V30 30113 C 2851.69 -1.68483 -0.233973 0
M  V30 30114 O 2852.87 -1.93957 -0.0970363 0
M  V30 30115 C 2850 -3.46449 0.242953 0
M  V30 30116 C 2848.96 -4.10613 1.20751 0
M  V30 30117 C 2848.28 -5.32237 0.512588 0
M  V30 30118 C 2849.58 -4.55321 2.55892 0
M  V30 30119 H 2851.28 -2.46255 1.7029 0
M  V30 30120 H 2848.82 -1.18357 0.820216 0
M  V30 30121 H 2850.78 -4.21399 0.00847854 0
M  V30 30122 H 2849.5 -3.19081 -0.696754 0
M  V30 30123 H 2848.16 -3.37659 1.42765 0
M  V30 30124 H 2847.81 -5.01142 -0.431987 0
M  V30 30125 H 2847.51 -5.76118 1.15593 0
M  V30 30126 H 2849.03 -6.09925 0.28695 0
M  V30 30127 H 2850.44 -5.21584 2.37956 0
M  V30 30128 H 2848.84 -5.10021 3.16225 0
M  V30 30129 H 2849.91 -3.68672 3.14974 0
M  V30 30130 N 2851.25 -0.906798 -1.28899 0
M  V30 30131 C 2852.5 -0.535301 -1.94882 0
M  V30 30132 C 2852.82 0.922761 -1.71785 0
M  V30 30133 O 2852.09 1.65154 -1.05361 0
M  V30 30134 H 2850.67 -0.194974 -0.721106 0
M  V30 30135 H 2853.34 -1.15464 -1.57016 0
M  V30 30136 H 2852.43 -0.723875 -3.03589 0
M  V30 30137 N 2852.73 1.42648 -0.670032 0
M  V30 30138 C 2853.96 2.05646 -0.198288 0
M  V30 30139 C 2854.37 1.50404 1.14784 0
M  V30 30140 O 2853.71 0.636665 1.72314 0
M  V30 30141 C 2853.78 3.59464 -0.0507764 0
M  V30 30142 C 2853.44 4.37375 -1.32485 0
M  V30 30143 C 2854.44 4.6834 -2.25729 0
M  V30 30144 C 2852.12 4.77096 -1.57112 0
M  V30 30145 C 2854.12 5.37957 -3.41879 0
M  V30 30146 C 2851.8 5.46454 -2.73553 0
M  V30 30147 C 2852.8 5.76808 -3.65761 0
M  V30 30148 O 2852.49 6.44745 -4.80166 0
M  V30 30149 H 2852.22 0.66928 -0.0950839 0
M  V30 30150 H 2854.77 1.83855 -0.915778 0
M  V30 30151 H 2853 3.79895 0.722248 0
M  V30 30152 H 2854.69 4.04113 0.380481 0
M  V30 30153 H 2855.46 4.38157 -2.07951 0
M  V30 30154 H 2851.34 4.52866 -0.862148 0
M  V30 30155 H 2854.88 5.61566 -4.13871 0
M  V30 30156 H 2850.78 5.76055 -2.91258 0
M  V30 30157 H 2851.55 6.63234 -4.79648 0
M  V30 30158 N 2854.21 0.413044 1.52091 0
M  V30 30159 C 2855.46 -0.154068 2.02816 0
M  V30 30160 C 2855.81 -1.42473 1.29303 0
M  V30 30161 O 2855.11 -1.8755 0.391868 0
M  V30 30162 C 2855.3 -0.452037 3.5453 0
M  V30 30163 C 2855.13 0.788193 4.42739 0
M  V30 30164 C 2853.9 1.31455 4.87901 0
M  V30 30165 C 2856.1 1.66743 4.86519 0
M  V30 30166 N 2854.08 2.50986 5.60249 0
M  V30 30167 C 2855.45 2.70896 5.57688 0
M  V30 30168 C 2857.5 1.68473 4.68531 0
M  V30 30169 C 2856.21 3.76693 6.12776 0
M  V30 30170 C 2858.23 2.73191 5.24519 0
M  V30 30171 C 2857.6 3.76064 5.95613 0
M  V30 30172 H 2853.69 -0.0178429 0.781796 0
M  V30 30173 H 2856.28 0.56827 1.86222 0
M  V30 30174 H 2854.45 -1.14342 3.71188 0
M  V30 30175 H 2856.18 -1.00837 3.91936 0
M  V30 30176 H 2852.94 0.872013 4.65503 0
M  V30 30177 H 2853.36 3.11532 6.01063 0
M  V30 30178 H 2858 0.90278 4.13049 0
M  V30 30179 H 2855.72 4.55741 6.67327 0
M  V30 30180 H 2859.31 2.75442 5.12468 0
M  V30 30181 H 2858.19 4.55763 6.38161 0
M  V30 30182 N 2855.69 -1.56945 0.143591 0
M  V30 30183 C 2856.6 -2.20154 -0.810524 0
M  V30 30184 C 2857.62 -1.18482 -1.27428 0
M  V30 30185 O 2858.79 -1.51046 -1.33218 0
M  V30 30186 C 2855.86 -2.80803 -2.03349 0
M  V30 30187 C 2854.92 -3.9759 -1.61929 0
M  V30 30188 C 2854.15 -4.55337 -2.78395 0
M  V30 30189 O 2854.37 -4.11965 -3.94514 0
M  V30 30190 O 2853.31 -5.45651 -2.54063 0
M  V30 30191 H 2857.13 -3.0219 -0.302477 0
M  V30 30192 H 2854.72 -1.49168 -0.0832663 0
M  V30 30193 H 2856.6 -3.19364 -2.74926 0
M  V30 30194 H 2855.28 -2.01782 -2.53112 0
M  V30 30195 H 2854.18 -3.63751 -0.87384 0
M  V30 30196 H 2855.52 -4.7812 -1.16884 0
M  V30 30197 N 2857.17 0.130197 -1.57061 0
M  V30 30198 C 2858.58 0.68853 -1.7354 0
M  V30 30199 C 2858.93 1.80858 -0.760586 0
M  V30 30200 O 2858.05 2.1629 0.0690416 0
M  V30 30201 C 2858.65 1.25575 -3.14668 0
M  V30 30202 C 2857.21 1.76049 -3.32692 0
M  V30 30203 C 2856.36 0.655664 -2.69437 0
M  V30 30204 H 2859.31 -0.095628 -1.58412 0
M  V30 30205 H 2859.33 2.1255 -3.15599 0
M  V30 30206 H 2858.84 0.440344 -3.85594 0
M  V30 30207 H 2856.94 2.60103 -2.66791 0
M  V30 30208 H 2857.05 1.87764 -4.40774 0
M  V30 30209 H 2855.42 1.0865 -2.30364 0
M  V30 30210 H 2856.2 -0.148581 -3.42978 0
M  V30 30211 N 2858.65 1.52438 0.400055 0
M  V30 30212 C 2860.06 1.41443 0.739334 0
M  V30 30213 C 2860.26 0.526087 1.94511 0
M  V30 30214 O 2859.32 -0.00468063 2.525 0
M  V30 30215 C 2860.63 2.84117 0.984774 0
M  V30 30216 C 2862.18 2.93521 1.08693 0
M  V30 30217 C 2862.65 4.37184 1.36507 0
M  V30 30218 N 2864.14 4.40459 1.43353 0
M  V30 30219 C 2864.88 5.48689 1.66518 0
M  V30 30220 N 2864.38 6.67022 1.87227 0
M  V30 30221 N 2866.17 5.36216 1.68607 0
M  V30 30222 H 2858.32 2.08723 -0.39352 0
M  V30 30223 H 2860.58 0.941143 -0.113817 0
M  V30 30224 H 2860.29 3.51284 0.171035 0
M  V30 30225 H 2860.16 3.25708 1.90248 0
M  V30 30226 H 2862.55 2.2653 1.89125 0
M  V30 30227 H 2862.63 2.55375 0.147387 0
M  V30 30228 H 2862.27 5.04738 0.565893 0
M  V30 30229 H 2862.2 4.72874 2.31728 0
M  V30 30230 H 2864.7 3.55164 1.29102 0
M  V30 30231 H 2865.01 7.45284 2.04379 0
M  V30 30232 H 2863.35 6.7007 1.84474 0
M  V30 30233 H 2866.54 4.42744 1.51972 0
M  V30 30234 H 2866.72 6.20635 1.86321 0
M  V30 30235 N 2860.12 -0.657839 1.43214 0
M  V30 30236 C 2861.05 -1.78259 1.50818 0
M  V30 30237 C 2862.03 -1.66176 0.363241 0
M  V30 30238 O 2863.22 -1.85342 0.579839 0
M  V30 30239 C 2860.35 -3.16661 1.4263 0
M  V30 30240 C 2859.3 -3.43501 2.55326 0
M  V30 30241 C 2858.63 -4.81654 2.32192 0
M  V30 30242 C 2859.93 -3.38704 3.97589 0
M  V30 30243 H 2861.62 -1.72152 2.44957 0
M  V30 30244 H 2859.17 -0.826809 1.17898 0
M  V30 30245 H 2861.12 -3.95095 1.46555 0
M  V30 30246 H 2859.85 -3.23486 0.449934 0
M  V30 30247 H 2858.51 -2.67435 2.50747 0
M  V30 30248 H 2858.15 -4.8515 1.32809 0
M  V30 30249 H 2857.85 -5.00574 3.07733 0
M  V30 30250 H 2859.38 -5.62352 2.37893 0
M  V30 30251 H 2860.79 -4.07082 4.0368 0
M  V30 30252 H 2859.19 -3.6916 4.73118 0
M  V30 30253 H 2860.26 -2.36968 4.23053 0
M  V30 30254 N 2861.6 -1.29668 -0.895769 0
M  V30 30255 C 2862.56 -1.15128 -1.98187 0
M  V30 30256 C 2863.56 -0.0855999 -1.60572 0
M  V30 30257 O 2864.75 -0.332856 -1.7099 0
M  V30 30258 C 2861.89 -0.76143 -3.32288 0
M  V30 30259 H 2863.08 -2.11607 -2.12514 0
M  V30 30260 H 2860.63 -1.1291 -1.08079 0
M  V30 30261 H 2861.37 0.203336 -3.23662 0
M  V30 30262 H 2861.15 -1.53145 -3.60956 0
M  V30 30263 H 2862.64 -0.682865 -4.11979 0
M  V30 30264 N 2863.08 1.10667 -1.12208 0
M  V30 30265 C 2864.5 1.34598 -0.857642 0
M  V30 30266 C 2864.7 1.94847 0.513507 0
M  V30 30267 O 2863.75 2.18661 1.26269 0
M  V30 30268 C 2865.06 2.26994 -1.97216 0
M  V30 30269 C 2866.61 2.40538 -2.00276 0
M  V30 30270 C 2867.09 3.36262 -3.10954 0
M  V30 30271 N 2868.58 3.43829 -3.10381 0
M  V30 30272 C 2869.31 4.1786 -3.92658 0
M  V30 30273 N 2868.81 4.94798 -4.84919 0
M  V30 30274 N 2870.6 4.13454 -3.80805 0
M  V30 30275 H 2862.75 0.699271 -2.00559 0
M  V30 30276 H 2865.02 0.370461 -0.872618 0
M  V30 30277 H 2864.72 1.89931 -2.96005 0
M  V30 30278 H 2864.6 3.27282 -1.87526 0
M  V30 30279 H 2866.98 2.76872 -1.02108 0
M  V30 30280 H 2867.06 1.40073 -2.1404 0
M  V30 30281 H 2866.71 3.00653 -4.09353 0
M  V30 30282 H 2866.64 4.366 -2.94429 0
M  V30 30283 H 2869.13 2.88957 -2.43541 0
M  V30 30284 H 2869.44 5.48679 -5.44216 0
M  V30 30285 H 2867.79 4.93931 -4.88935 0
M  V30 30286 H 2870.98 3.5244 -3.08065 0
M  V30 30287 H 2871.15 4.70891 -4.45158 0
M  V30 30288 N 2864.56 0.913621 1.28416 0
M  V30 30289 C 2865.49 0.418888 2.29712 0
M  V30 30290 C 2866.47 -0.51344 1.62166 0
M  V30 30291 O 2867.65 -0.421202 1.89577 0
M  V30 30292 C 2864.78 -0.341981 3.45612 0
M  V30 30293 C 2863.74 0.501198 4.25055 0
M  V30 30294 C 2863.06 -0.388003 5.3329 0
M  V30 30295 C 2864.36 1.75839 4.91811 0
M  V30 30296 H 2866.06 1.26543 2.71344 0
M  V30 30297 H 2863.6 0.609926 1.30445 0
M  V30 30298 H 2865.56 -0.698927 4.15563 0
M  V30 30299 H 2864.28 -1.22242 3.0286 0
M  V30 30300 H 2862.94 0.840661 3.56831 0
M  V30 30301 H 2862.59 -1.26699 4.86782 0
M  V30 30302 H 2862.29 0.172563 5.87347 0
M  V30 30303 H 2863.81 -0.740833 6.06089 0
M  V30 30304 H 2865.23 1.47036 5.54124 0
M  V30 30305 H 2863.62 2.26136 5.55862 0
M  V30 30306 H 2864.69 2.48627 4.16308 0
M  V30 30307 N 2866.04 -1.4229 0.677588 0
M  V30 30308 C 2866.98 -2.32598 -0.0106346 0
M  V30 30309 C 2867.98 -1.49977 -0.787616 0
M  V30 30310 O 2869.18 -1.6603 -0.695266 0
M  V30 30311 H 2865.56 -0.751671 -0.022235 0
M  V30 30312 H 2867.53 -2.88338 0.768362 0
M  V30 30313 C 2866.28 -3.34581 -0.946083 0
M  V30 30314 H 2865.6 -3.98197 -0.357631 0
M  V30 30315 H 2867.04 -4.0035 -1.39627 0
M  V30 30316 C 2865.5 -2.6706 -2.05379 0
M  V30 30317 O 2866.03 -2.50464 -3.14055 0
M  V30 30318 N 2864.24 -2.26041 -1.82631 0
M  V30 30319 H 2863.78 -2.39739 -0.942492 0
M  V30 30320 H 2863.74 -1.81196 -2.56934 0
M  V30 30321 N 2867.51 -0.421104 -1.5187 0
M  V30 30322 C 2868.46 0.413026 -2.28904 0
M  V30 30323 C 2869.46 1.03529 -1.34082 0
M  V30 30324 O 2870.66 0.972119 -1.51492 0
M  V30 30325 H 2867.04 0.15199 -0.73648 0
M  V30 30326 H 2869.01 -0.257747 -2.97285 0
M  V30 30327 C 2867.76 1.51086 -3.13159 0
M  V30 30328 H 2867.08 1.04139 -3.85999 0
M  V30 30329 H 2868.52 2.06808 -3.70144 0
M  V30 30330 C 2866.98 2.48499 -2.27486 0
M  V30 30331 O 2867.51 3.52663 -1.92332 0
M  V30 30332 N 2865.71 2.18995 -1.91022 0
M  V30 30333 H 2865.26 1.34318 -2.1981 0
M  V30 30334 H 2865.22 2.84416 -1.33995 0
M  V30 30335 N 2868.99 1.56866 -0.151912 0
M  V30 30336 C 2870.24 1.95894 0.496986 0
M  V30 30337 C 2870.56 1.03802 1.65076 0
M  V30 30338 O 2869.83 0.100525 1.95642 0
M  V30 30339 H 2868.41 0.723321 0.18659 0
M  V30 30340 H 2871.07 1.93555 -0.228559 0
M  V30 30341 H 2870.17 2.99732 0.86988 0
M  V30 30342 N 2870.47 -0.121866 1.57128 0
M  V30 30343 C 2871.72 -0.828516 1.84337 0
M  V30 30344 C 2872.04 -1.8055 0.736663 0
M  V30 30345 O 2871.31 -1.94429 -0.239585 0
M  V30 30346 H 2869.89 -0.308958 0.680113 0
M  V30 30347 H 2872.55 -0.109871 1.9459 0
M  V30 30348 H 2871.65 -1.37549 2.80155 0
M  V30 30349 N 2871.95 -1.52648 -0.391965 0
M  V30 30350 C 2873.17 -1.71718 -1.16309 0
M  V30 30351 C 2873.6 -0.433311 -1.83041 0
M  V30 30352 O 2872.96 0.610677 -1.70706 0
M  V30 30353 C 2873 -2.86555 -2.18903 0
M  V30 30354 O 2872.11 -2.53321 -3.25426 0
M  V30 30355 H 2871.45 -0.571101 -0.338733 0
M  V30 30356 H 2873.98 -1.99427 -0.457167 0
M  V30 30357 H 2873.99 -3.11964 -2.62949 0
M  V30 30358 H 2872.66 -3.79695 -1.69719 0
M  V30 30359 H 2871.24 -2.38642 -2.86539 0
M  V30 30360 N 2873.43 0.650235 -1.43561 0
M  V30 30361 C 2874.66 1.43568 -1.48566 0
M  V30 30362 C 2875.06 1.88919 -0.103074 0
M  V30 30363 O 2874.41 1.60279 0.897574 0
M  V30 30364 C 2874.47 2.70154 -2.37185 0
M  V30 30365 C 2874.13 2.46724 -3.84677 0
M  V30 30366 C 2875.13 2.09757 -4.75708 0
M  V30 30367 C 2872.82 2.60955 -4.29194 0
M  V30 30368 C 2874.81 1.87323 -6.09253 0
M  V30 30369 C 2872.5 2.38137 -5.62791 0
M  V30 30370 C 2873.49 2.01377 -6.52638 0
M  V30 30371 O 2873.18 1.78799 -7.83764 0
M  V30 30372 H 2872.91 0.447414 -0.506751 0
M  V30 30373 H 2875.47 0.804196 -1.89002 0
M  V30 30374 H 2873.7 3.35872 -1.91642 0
M  V30 30375 H 2875.39 3.32111 -2.3336 0
M  V30 30376 H 2876.15 1.98335 -4.42593 0
M  V30 30377 H 2872.03 2.88542 -3.59534 0
M  V30 30378 H 2875.58 1.58555 -6.79342 0
M  V30 30379 H 2871.47 2.49162 -5.95473 0
M  V30 30380 H 2872.24 1.932 -7.95372 0
M  V30 30381 N 2874.9 1.30141 0.88888 0
M  V30 30382 C 2875.85 1.16091 2.01558 0
M  V30 30383 C 2876.85 0.073771 1.69239 0
M  V30 30384 O 2878.05 0.234345 1.78468 0
M  V30 30385 H 2874.43 0.358918 0.660819 0
M  V30 30386 H 2876.4 2.11457 2.10544 0
M  V30 30387 C 2875.15 0.865485 3.36756 0
M  V30 30388 H 2874.47 1.69408 3.62134 0
M  V30 30389 H 2875.91 0.807265 4.16244 0
M  V30 30390 C 2874.37 -0.431518 3.34125 0
M  V30 30391 O 2874.9 -1.45425 3.74452 0
M  V30 30392 N 2873.11 -0.441271 2.8723 0
M  V30 30393 H 2872.65 0.391477 2.54608 0
M  V30 30394 H 2872.61 -1.30903 2.85852 0
M  V30 30395 N 2876.38 -1.1007 1.12794 0
M  V30 30396 C 2877.35 -2.14699 0.802302 0
M  V30 30397 C 2878.35 -1.59731 -0.185122 0
M  V30 30398 O 2879.54 -1.74151 0.0411397 0
M  V30 30399 C 2876.67 -3.40354 0.192909 0
M  V30 30400 H 2877.86 -2.45016 1.72936 0
M  V30 30401 H 2875.41 -1.25496 0.931684 0
M  V30 30402 H 2876.15 -3.15658 -0.743693 0
M  V30 30403 H 2875.93 -3.81539 0.903894 0
M  V30 30404 H 2877.42 -4.17596 -0.018297 0
M  V30 30405 N 2877.86 -0.920419 -1.2793 0
M  V30 30406 C 2879.11 -0.567334 -1.95328 0
M  V30 30407 C 2879.46 0.880475 -1.71071 0
M  V30 30408 O 2878.75 1.61877 -1.025 0
M  V30 30409 C 2878.95 -0.820619 -3.47851 0
M  V30 30410 C 2878.78 -2.2915 -3.86937 0
M  V30 30411 C 2877.55 -2.94285 -4.1076 0
M  V30 30412 C 2879.75 -3.26845 -3.97085 0
M  V30 30413 N 2877.73 -4.31601 -4.3657 0
M  V30 30414 C 2879.1 -4.49346 -4.27186 0
M  V30 30415 C 2881.15 -3.22153 -3.79634 0
M  V30 30416 C 2879.86 -5.67746 -4.41652 0
M  V30 30417 C 2881.88 -4.39858 -3.95321 0
M  V30 30418 C 2881.24 -5.61136 -4.258 0
M  V30 30419 H 2877.34 -0.257596 -0.738355 0
M  V30 30420 H 2879.93 -1.18553 -1.54445 0
M  V30 30421 H 2878.1 -0.23164 -3.87709 0
M  V30 30422 H 2879.83 -0.430895 -4.024 0
M  V30 30423 H 2876.59 -2.44986 -4.05313 0
M  V30 30424 H 2877.01 -5.02618 -4.53546 0
M  V30 30425 H 2881.65 -2.29463 -3.55115 0
M  V30 30426 H 2879.37 -6.60909 -4.64999 0
M  V30 30427 H 2882.96 -4.37737 -3.83246 0
M  V30 30428 H 2881.84 -6.50697 -4.3768 0
M  V30 30429 N 2879.34 1.41929 -0.685124 0
M  V30 30430 C 2880.56 2.06242 -0.218878 0
M  V30 30431 C 2880.99 1.5118 1.1192 0
M  V30 30432 O 2880.35 0.634476 1.69835 0
M  V30 30433 C 2880.39 3.60172 -0.175655 0
M  V30 30434 O 2879.5 4.03488 0.852705 0
M  V30 30435 H 2878.84 0.654902 -0.109542 0
M  V30 30436 H 2881.37 1.81881 -0.937045 0
M  V30 30437 H 2881.38 4.08 -0.00298323 0
M  V30 30438 H 2880.05 3.99619 -1.15229 0
M  V30 30439 H 2878.63 3.67187 0.650236 0
M  V30 30440 N 2880.82 0.429152 1.51644 0
M  V30 30441 C 2882.06 -0.140251 2.02314 0
M  V30 30442 C 2882.4 -1.43072 1.31317 0
M  V30 30443 O 2881.67 -1.89787 0.425565 0
M  V30 30444 C 2881.95 -0.367427 3.58221 0
M  V30 30445 C 2881.81 0.941117 4.39844 0
M  V30 30446 C 2883.13 -1.14082 4.25057 0
M  V30 30447 H 2880.24 -0.0494983 0.735336 0
M  V30 30448 H 2882.89 0.566546 1.81357 0
M  V30 30449 H 2881.04 -0.96949 3.76209 0
M  V30 30450 H 2882.71 1.57653 4.33524 0
M  V30 30451 H 2880.95 1.54758 4.05256 0
M  V30 30452 H 2881.62 0.736306 5.47067 0
M  V30 30453 H 2884.1 -0.630913 4.11289 0
M  V30 30454 H 2882.97 -1.26853 5.34041 0
M  V30 30455 H 2883.24 -2.16676 3.85362 0
M  V30 30456 N 2882.29 -1.56783 0.160229 0
M  V30 30457 C 2883.2 -2.21001 -0.787128 0
M  V30 30458 C 2884.22 -1.19827 -1.26165 0
M  V30 30459 O 2885.4 -1.52451 -1.31608 0
M  V30 30460 C 2882.46 -2.82944 -2.00359 0
M  V30 30461 C 2881.52 -3.99285 -1.57703 0
M  V30 30462 C 2880.76 -4.58264 -2.7355 0
M  V30 30463 O 2880.98 -4.16126 -3.90122 0
M  V30 30464 O 2879.91 -5.48315 -2.48262 0
M  V30 30465 H 2883.74 -3.02494 -0.270409 0
M  V30 30466 H 2881.32 -1.49248 -0.0674404 0
M  V30 30467 H 2883.21 -3.22262 -2.71524 0
M  V30 30468 H 2881.88 -2.04455 -2.50958 0
M  V30 30469 H 2880.79 -3.64657 -0.83521 0
M  V30 30470 H 2882.12 -4.79333 -1.11806 0
M  V30 30471 N 2883.77 0.113531 -1.57191 0
M  V30 30472 C 2884.72 1.13898 -2.00738 0
M  V30 30473 C 2885.69 1.40844 -0.880465 0
M  V30 30474 O 2886.88 1.52618 -1.1451 0
M  V30 30475 C 2884.02 2.45895 -2.42136 0
M  V30 30476 C 2883.13 2.25838 -3.68268 0
M  V30 30477 C 2882.26 3.51103 -3.98623 0
M  V30 30478 C 2881.3 3.26227 -5.17921 0
M  V30 30479 N 2880.44 4.4371 -5.44119 0
M  V30 30480 H 2885.28 0.760626 -2.88129 0
M  V30 30481 H 2882.82 0.364074 -1.42523 0
M  V30 30482 H 2884.77 3.22904 -2.64176 0
M  V30 30483 H 2883.4 2.81612 -1.5778 0
M  V30 30484 H 2882.46 1.39719 -3.53812 0
M  V30 30485 H 2883.77 2.03436 -4.55428 0
M  V30 30486 H 2882.92 4.36528 -4.21341 0
M  V30 30487 H 2881.66 3.76541 -3.09949 0
M  V30 30488 H 2880.67 2.39193 -4.95042 0
M  V30 30489 H 2881.89 3.02154 -6.08177 0
M  V30 30490 H 2879.84 4.69258 -4.58402 0
M  V30 30491 H 2879.75 4.24433 -6.25614 0
M  V30 30492 H 2881.02 5.30253 -5.7136 0
M  V30 30493 N 2885.25 1.52854 0.383864 0
M  V30 30494 C 2886.18 1.80968 1.47556 0
M  V30 30495 C 2887.16 0.662013 1.56689 0
M  V30 30496 O 2888.35 0.910103 1.71554 0
M  V30 30497 C 2885.48 1.98317 2.8511 0
M  V30 30498 C 2884.43 3.14024 2.90814 0
M  V30 30499 C 2883.76 3.16635 4.30867 0
M  V30 30500 C 2885.06 4.52991 2.59993 0
M  V30 30501 H 2886.75 2.72388 1.24278 0
M  V30 30502 H 2884.3 1.31068 0.596422 0
M  V30 30503 H 2886.25 2.16568 3.61492 0
M  V30 30504 H 2884.97 1.0359 3.09736 0
M  V30 30505 H 2883.63 2.95564 2.16881 0
M  V30 30506 H 2883.28 2.19581 4.52541 0
M  V30 30507 H 2882.98 3.94365 4.35603 0
M  V30 30508 H 2884.51 3.37047 5.09148 0
M  V30 30509 H 2885.92 4.71526 3.26092 0
M  V30 30510 H 2884.32 5.32827 2.76072 0
M  V30 30511 H 2885.39 4.59354 1.55312 0
M  V30 30512 N 2886.73 -0.642612 1.43904 0
M  V30 30513 C 2887.69 -1.73696 1.49541 0
M  V30 30514 C 2888.69 -1.56275 0.378803 0
M  V30 30515 O 2889.88 -1.61979 0.640978 0
M  V30 30516 C 2887.01 -3.12672 1.35826 0
M  V30 30517 H 2888.21 -1.70075 2.47011 0
M  V30 30518 H 2885.76 -0.855237 1.30826 0
M  V30 30519 H 2886.5 -3.21897 0.394051 0
M  V30 30520 H 2886.28 -3.26723 2.16782 0
M  V30 30521 H 2887.77 -3.92452 1.42727 0
M  V30 30522 N 2888.21 -1.30611 -0.881966 0
M  V30 30523 C 2889.17 -1.17223 -1.96955 0
M  V30 30524 C 2890.17 -0.102626 -1.60472 0
M  V30 30525 O 2891.36 -0.350973 -1.70628 0
M  V30 30526 C 2888.49 -0.796631 -3.31461 0
M  V30 30527 H 2889.69 -2.13849 -2.10258 0
M  V30 30528 H 2887.24 -1.1405 -1.06875 0
M  V30 30529 H 2887.97 0.168996 -3.23859 0
M  V30 30530 H 2887.76 -1.56965 -3.59311 0
M  V30 30531 H 2889.25 -0.726522 -4.11232 0
M  V30 30532 N 2889.69 1.0947 -1.13376 0
M  V30 30533 C 2890.6 2.1965 -0.824068 0
M  V30 30534 C 2891.61 1.72947 0.191149 0
M  V30 30535 O 2892.79 2.01388 0.022311 0
M  V30 30536 C 2889.85 3.45451 -0.29407 0
M  V30 30537 C 2888.91 4.06837 -1.37047 0
M  V30 30538 C 2888.15 5.26633 -0.865672 0
M  V30 30539 O 2888.37 5.69627 0.29692 0
M  V30 30540 O 2887.3 5.79133 -1.63978 0
M  V30 30541 H 2891.13 2.48592 -1.74458 0
M  V30 30542 H 2888.71 1.18397 -0.911176 0
M  V30 30543 H 2890.6 4.214 -0.00388446 0
M  V30 30544 H 2889.27 3.18112 0.598865 0
M  V30 30545 H 2888.18 3.32527 -1.71397 0
M  V30 30546 H 2889.51 4.38401 -2.23754 0
M  V30 30547 N 2891.16 0.92719 1.2744 0
M  V30 30548 C 2892.41 0.567358 1.9439 0
M  V30 30549 C 2892.74 -0.89129 1.72876 0
M  V30 30550 O 2891.99 -1.651 1.05074 0
M  V30 30551 C 2892.29 0.839055 3.47411 0
M  V30 30552 C 2891.96 2.27936 3.89045 0
M  V30 30553 C 2890.62 2.67312 4.00122 0
M  V30 30554 C 2892.97 3.21602 4.10148 0
M  V30 30555 C 2890.3 3.99479 4.2969 0
M  V30 30556 C 2892.65 4.53349 4.412 0
M  V30 30557 C 2891.32 4.92559 4.5049 0
M  V30 30558 H 2890.59 0.207611 0.711322 0
M  V30 30559 H 2893.23 1.17106 1.51521 0
M  V30 30560 H 2891.54 0.152678 3.91502 0
M  V30 30561 H 2893.24 0.53962 3.97353 0
M  V30 30562 H 2889.83 1.96388 3.80959 0
M  V30 30563 H 2894.01 2.92384 4.0103 0
M  V30 30564 H 2889.27 4.29541 4.35092 0
M  V30 30565 H 2893.44 5.2593 4.56476 0
M  V30 30566 H 2891.07 5.95002 4.73156 0
M  V30 30567 N 2892.64 -1.41564 0.692641 0
M  V30 30568 C 2893.6 -2.29174 0.0344577 0
M  V30 30569 C 2894.6 -1.4423 -0.710936 0
M  V30 30570 O 2895.79 -1.65413 -0.546264 0
M  V30 30571 C 2892.93 -3.27056 -0.961624 0
M  V30 30572 H 2894.12 -2.88872 0.805806 0
M  V30 30573 H 2891.67 -1.49501 0.455973 0
M  V30 30574 H 2892.41 -2.72332 -1.76084 0
M  V30 30575 H 2892.19 -3.89732 -0.430306 0
M  V30 30576 H 2893.68 -3.92715 -1.42003 0
M  V30 30577 N 2894.12 -0.437188 -1.51415 0
M  V30 30578 C 2895.34 0.130388 -2.0699 0
M  V30 30579 C 2895.77 1.35707 -1.30251 0
M  V30 30580 O 2895.13 1.78075 -0.34042 0
M  V30 30581 C 2895.18 0.431357 -3.58011 0
M  V30 30582 O 2894.28 1.51783 -3.83452 0
M  V30 30583 H 2893.62 0.00193172 -0.663997 0
M  V30 30584 H 2896.15 -0.618479 -1.95028 0
M  V30 30585 H 2896.16 0.681855 -4.02262 0
M  V30 30586 H 2894.84 -0.46521 -4.1329 0
M  V30 30587 H 2893.41 1.25731 -3.51064 0
M  V30 30588 N 2895.6 1.56696 -0.168541 0
M  V30 30589 C 2896.54 2.17829 0.762837 0
M  V30 30590 C 2897.51 1.11747 1.2289 0
M  V30 30591 O 2898.7 1.39885 1.29757 0
M  V30 30592 C 2895.84 2.82097 1.98785 0
M  V30 30593 C 2894.95 4.02632 1.56561 0
M  V30 30594 C 2894.09 4.54834 2.74408 0
M  V30 30595 C 2893.13 5.67786 2.28661 0
M  V30 30596 N 2892.26 6.1451 3.39591 0
M  V30 30597 H 2897.1 2.97074 0.234738 0
M  V30 30598 H 2894.64 1.46731 0.104137 0
M  V30 30599 H 2896.6 3.17514 2.70631 0
M  V30 30600 H 2895.23 2.0546 2.4897 0
M  V30 30601 H 2894.28 3.73053 0.744001 0
M  V30 30602 H 2895.59 4.84402 1.18979 0
M  V30 30603 H 2894.75 4.92418 3.54414 0
M  V30 30604 H 2893.49 3.72116 3.15248 0
M  V30 30605 H 2892.49 5.29756 1.47101 0
M  V30 30606 H 2893.72 6.52304 1.88882 0
M  V30 30607 H 2891.66 5.34721 3.80012 0
M  V30 30608 H 2891.58 6.91262 3.06093 0
M  V30 30609 H 2892.85 6.56744 4.1989 0
M  V30 30610 N 2897.08 -0.105193 1.57249 0
M  V30 30611 C 2898.49 -0.660834 1.74613 0
M  V30 30612 C 2898.84 -1.79625 0.789262 0
M  V30 30613 O 2897.96 -2.16372 -0.034623 0
M  V30 30614 C 2898.56 -1.20553 3.16626 0
M  V30 30615 C 2897.12 -1.70734 3.3545 0
M  V30 30616 C 2896.26 -0.612716 2.70446 0
M  V30 30617 H 2899.21 0.120818 1.58239 0
M  V30 30618 H 2899.24 -2.07502 3.1894 0
M  V30 30619 H 2898.75 -0.378944 3.86246 0
M  V30 30620 H 2896.85 -2.55826 2.70895 0
M  V30 30621 H 2896.96 -1.80728 4.43705 0
M  V30 30622 H 2895.33 -1.04971 2.32063 0
M  V30 30623 H 2896.11 0.203127 3.42699 0
M  V30 30624 N 2898.55 -1.53055 -0.375752 0
M  V30 30625 C 2899.8 -1.69942 -1.11764 0
M  V30 30626 C 2900.16 -0.440607 -1.87287 0
M  V30 30627 O 2899.45 0.566114 -1.83046 0
M  V30 30628 C 2899.64 -2.88211 -2.11351 0
M  V30 30629 C 2899.47 -4.25473 -1.45612 0
M  V30 30630 C 2898.24 -4.90486 -1.21456 0
M  V30 30631 C 2900.44 -5.06378 -0.899187 0
M  V30 30632 N 2898.42 -6.11697 -0.519598 0
M  V30 30633 C 2899.79 -6.19105 -0.333029 0
M  V30 30634 C 2901.85 -4.91482 -0.796884 0
M  V30 30635 C 2900.55 -7.18563 0.325442 0
M  V30 30636 C 2902.58 -5.91204 -0.152211 0
M  V30 30637 C 2901.94 -7.03246 0.403117 0
M  V30 30638 H 2898.04 -0.675213 -0.394477 0
M  V30 30639 H 2900.62 -1.90433 -0.405377 0
M  V30 30640 H 2898.79 -2.69277 -2.79901 0
M  V30 30641 H 2900.52 -2.9397 -2.78143 0
M  V30 30642 H 2897.28 -4.49447 -1.49311 0
M  V30 30643 H 2897.7 -6.7674 -0.187777 0
M  V30 30644 H 2902.35 -4.05056 -1.212 0
M  V30 30645 H 2900.06 -8.04588 0.75254 0
M  V30 30646 H 2903.65 -5.81753 -0.0741207 0
M  V30 30647 H 2902.53 -7.79087 0.894077 0
M  V30 30648 N 2900.03 0.634971 -1.44242 0
M  V30 30649 C 2901.28 1.39055 -1.46104 0
M  V30 30650 C 2901.59 1.95364 -0.0960253 0
M  V30 30651 O 2902.8 2.71499 0.00783979 0
M  V30 30652 C 2901.26 2.51747 -2.572 0
M  V30 30653 C 2900.86 2.01967 -3.99891 0
M  V30 30654 C 2902.61 3.28979 -2.68278 0
M  V30 30655 C 2900.52 3.11978 -5.02418 0
M  V30 30656 H 2899.45 0.522545 -0.543565 0
M  V30 30657 H 2902.1 0.683508 -1.70295 0
M  V30 30658 H 2900.48 3.25008 -2.26242 0
M  V30 30659 H 2901.65 1.35596 -4.40398 0
M  V30 30660 H 2899.97 1.37561 -3.93021 0
M  V30 30661 H 2902.56 4.10982 -3.42049 0
M  V30 30662 H 2902.91 3.78209 -1.73964 0
M  V30 30663 H 2903.44 2.62806 -2.98626 0
M  V30 30664 H 2900.18 2.67696 -5.98347 0
M  V30 30665 H 2899.7 3.77003 -4.66507 0
M  V30 30666 H 2901.38 3.76816 -5.25946 0
M  V30 30667 N 2901.51 1.31076 0.875027 0
M  V30 30668 C 2902.44 1.14117 1.98771 0
M  V30 30669 C 2903.46 0.0816405 1.62595 0
M  V30 30670 O 2904.64 0.328641 1.75449 0
M  V30 30671 C 2901.74 0.720282 3.31157 0
M  V30 30672 C 2900.92 1.86373 3.95707 0
M  V30 30673 C 2899.98 1.42973 5.06404 0
M  V30 30674 O 2899 2.13857 5.27498 0
M  V30 30675 N 2900.2 0.314296 5.79649 0
M  V30 30676 H 2902.97 2.09955 2.13867 0
M  V30 30677 H 2900.53 1.23344 1.04871 0
M  V30 30678 H 2902.52 0.412758 4.0259 0
M  V30 30679 H 2901.09 -0.146341 3.12257 0
M  V30 30680 H 2900.31 2.33884 3.1732 0
M  V30 30681 H 2901.6 2.62974 4.35571 0
M  V30 30682 H 2901 -0.276129 5.65026 0
M  V30 30683 H 2899.56 0.0662787 6.51766 0
M  V30 30684 N 2902.99 -1.08867 1.13955 0
M  V30 30685 C 2904.23 -1.81428 0.906183 0
M  V30 30686 C 2904.57 -1.85767 -0.566057 0
M  V30 30687 O 2903.84 -1.33008 -1.41912 0
M  V30 30688 C 2904.13 -3.27285 1.50189 0
M  V30 30689 C 2903.98 -3.31183 3.04364 0
M  V30 30690 C 2905.3 -4.24129 1.17484 0
M  V30 30691 H 2902.42 -0.658672 0.330636 0
M  V30 30692 H 2905.06 -1.27492 1.40875 0
M  V30 30693 H 2903.21 -3.73346 1.07448 0
M  V30 30694 H 2904.88 -2.93482 3.55902 0
M  V30 30695 H 2903.12 -2.70596 3.39058 0
M  V30 30696 H 2903.79 -4.3396 3.41149 0
M  V30 30697 H 2906.27 -3.86383 1.54427 0
M  V30 30698 H 2905.15 -5.2451 1.61805 0
M  V30 30699 H 2905.41 -4.4201 0.0894089 0
M  V30 30700 N 2904.47 -0.933936 -1.26946 0
M  V30 30701 C 2905.74 -0.495817 -1.89212 0
M  V30 30702 C 2906.12 1.02634 -1.84471 0
M  V30 30703 O 2905.47 1.88321 -1.29412 0
M  V30 30704 C 2905.68 -1.04896 -3.32863 0
M  V30 30705 C 2907.03 -1.11322 -4.09747 0
M  V30 30706 O 2908.05 -0.999026 -3.41903 0
M  V30 30707 O 2906.91 -1.28992 -5.31059 0
M  V30 30708 H 2904.01 -0.160473 -0.811281 0
M  V30 30709 H 2906.55 -1.02603 -1.35169 0
M  V30 30710 H 2905.32 -2.09271 -3.30638 0
M  V30 30711 H 2904.95 -0.500761 -3.94434 0
M  V30 30712 N 2905.94 1.41194 -0.700139 0
M  V30 30713 C 2906.88 2.28196 0.0129213 0
M  V30 30714 C 2907.86 1.42487 0.783342 0
M  V30 30715 O 2909.04 1.71912 0.773208 0
M  V30 30716 C 2906.17 3.22796 1.02569 0
M  V30 30717 C 2905.21 4.25079 0.347903 0
M  V30 30718 S 2906.05 5.27659 -0.913031 0
M  V30 30719 C 2907.2 6.25823 0.0980262 0
M  V30 30720 H 2907.43 2.88325 -0.724978 0
M  V30 30721 H 2904.97 1.46399 -0.49058 0
M  V30 30722 H 2906.93 3.77829 1.60485 0
M  V30 30723 H 2905.59 2.61754 1.73619 0
M  V30 30724 H 2904.78 4.91558 1.11297 0
M  V30 30725 H 2904.38 3.73665 -0.158296 0
M  V30 30726 H 2906.67 6.70809 0.949847 0
M  V30 30727 H 2907.62 7.06091 -0.532962 0
M  V30 30728 H 2908.02 5.62665 0.454845 0
M  V30 30729 N 2907.42 0.445212 1.51181 0
M  V30 30730 C 2908.35 -0.398166 2.25715 0
M  V30 30731 C 2909.37 -0.979539 1.30034 0
M  V30 30732 O 2910.56 -0.87234 1.55732 0
M  V30 30733 C 2907.66 -1.5698 3.00351 0
M  V30 30734 C 2906.83 -1.10589 4.23189 0
M  V30 30735 C 2905.89 -2.14855 4.80337 0
M  V30 30736 O 2904.91 -1.73968 5.41963 0
M  V30 30737 N 2906.12 -3.47419 4.65059 0
M  V30 30738 H 2908.88 0.240682 2.98732 0
M  V30 30739 H 2906.44 0.274535 1.59555 0
M  V30 30740 H 2908.43 -2.2637 3.35468 0
M  V30 30741 H 2907 -2.11383 2.30295 0
M  V30 30742 H 2906.22 -0.238762 3.93476 0
M  V30 30743 H 2907.51 -0.773449 5.02887 0
M  V30 30744 H 2906.91 -3.83365 4.1599 0
M  V30 30745 H 2905.47 -4.12682 5.04516 0
M  V30 30746 N 2908.9 -1.56605 0.176849 0
M  V30 30747 C 2909.85 -2.1823 -0.751274 0
M  V30 30748 C 2910.82 -1.12397 -1.22295 0
M  V30 30749 O 2912 -1.40571 -1.29013 0
M  V30 30750 C 2909.14 -2.83147 -1.97286 0
M  V30 30751 C 2908.26 -4.03457 -1.54424 0
M  V30 30752 C 2907.39 -4.56283 -2.71992 0
M  V30 30753 C 2906.43 -5.6899 -2.25647 0
M  V30 30754 N 2905.57 -6.16302 -3.36327 0
M  V30 30755 H 2910.41 -2.97194 -0.21898 0
M  V30 30756 H 2907.94 -1.46784 -0.0963545 0
M  V30 30757 H 2909.9 -3.18944 -2.68943 0
M  V30 30758 H 2908.53 -2.06778 -2.47877 0
M  V30 30759 H 2907.58 -3.73443 -0.724207 0
M  V30 30760 H 2908.9 -4.85026 -1.16409 0
M  V30 30761 H 2908.05 -4.94291 -3.51797 0
M  V30 30762 H 2906.79 -3.73782 -3.1327 0
M  V30 30763 H 2905.79 -5.30529 -1.44289 0
M  V30 30764 H 2907.02 -6.53296 -1.8542 0
M  V30 30765 H 2904.96 -5.36729 -3.77171 0
M  V30 30766 H 2904.88 -6.92876 -3.02423 0
M  V30 30767 H 2906.15 -6.58961 -4.16401 0
M  V30 30768 N 2910.38 0.0968524 -1.57302 0
M  V30 30769 C 2911.29 1.13602 -2.0526 0
M  V30 30770 C 2912.3 1.43971 -0.977162 0
M  V30 30771 O 2913.48 1.54647 -1.2902 0
M  V30 30772 C 2910.55 2.43702 -2.46597 0
M  V30 30773 C 2909.61 2.20532 -3.68326 0
M  V30 30774 C 2908.84 3.44428 -4.07682 0
M  V30 30775 O 2909.06 4.52597 -3.47149 0
M  V30 30776 O 2908 3.3412 -5.00647 0
M  V30 30777 H 2911.82 0.7587 -2.9407 0
M  V30 30778 H 2909.41 0.309237 -1.46165 0
M  V30 30779 H 2911.29 3.20313 -2.7382 0
M  V30 30780 H 2909.96 2.80864 -1.60925 0
M  V30 30781 H 2908.87 1.41707 -3.46222 0
M  V30 30782 H 2910.2 1.88263 -4.54772 0
M  V30 30783 N 2911.86 1.53252 0.36763 0
M  V30 30784 C 2913.1 1.69586 1.11213 0
M  V30 30785 C 2913.44 0.445302 1.89026 0
M  V30 30786 O 2912.71 -0.557371 1.86343 0
M  V30 30787 C 2912.99 2.94444 2.07303 0
M  V30 30788 C 2912.85 4.29652 1.33113 0
M  V30 30789 C 2914.17 3.14898 3.07453 0
M  V30 30790 H 2911.28 0.617104 0.40293 0
M  V30 30791 H 2913.93 1.85888 0.393169 0
M  V30 30792 H 2912.08 2.80677 2.68612 0
M  V30 30793 H 2913.75 4.55227 0.746031 0
M  V30 30794 H 2911.99 4.29157 0.632976 0
M  V30 30795 H 2912.66 5.13146 2.03434 0
M  V30 30796 H 2915.14 3.27837 2.56246 0
M  V30 30797 H 2914.01 4.03699 3.71911 0
M  V30 30798 H 2914.28 2.30084 3.7751 0
M  V30 30799 N 2913.34 -0.627313 1.44577 0
M  V30 30800 C 2914.58 -1.38279 1.4684 0
M  V30 30801 C 2914.9 -1.9531 0.106385 0
M  V30 30802 O 2916.1 -2.71499 0.00655857 0
M  V30 30803 C 2914.56 -2.50379 2.58531 0
M  V30 30804 C 2914.17 -1.99844 4.00957 0
M  V30 30805 C 2915.91 -3.27552 2.70019 0
M  V30 30806 C 2913.82 -3.09309 5.04065 0
M  V30 30807 H 2912.75 -0.519655 0.546329 0
M  V30 30808 H 2915.4 -0.674467 1.70655 0
M  V30 30809 H 2913.78 -3.23804 2.27963 0
M  V30 30810 H 2914.96 -1.33259 4.41111 0
M  V30 30811 H 2913.27 -1.35475 3.93745 0
M  V30 30812 H 2915.87 -4.09162 3.44224 0
M  V30 30813 H 2916.21 -3.77281 1.75967 0
M  V30 30814 H 2916.74 -2.61219 3.00016 0
M  V30 30815 H 2913.48 -2.64519 5.99758 0
M  V30 30816 H 2913 -3.74523 4.685 0
M  V30 30817 H 2914.68 -3.74021 5.27937 0
M  V30 30818 N 2914.81 -1.31539 -0.868063 0
M  V30 30819 C 2916.06 -1.20692 -1.61605 0
M  V30 30820 C 2916.38 0.23324 -1.94204 0
M  V30 30821 O 2917.58 0.463418 -2.67516 0
M  V30 30822 C 2916.04 -2.11297 -2.91344 0
M  V30 30823 C 2915.65 -3.6032 -2.66221 0
M  V30 30824 C 2917.39 -2.09255 -3.69341 0
M  V30 30825 C 2915.3 -4.42927 -3.91879 0
M  V30 30826 H 2914.23 -0.448149 -0.606365 0
M  V30 30827 H 2916.88 -1.56407 -0.959638 0
M  V30 30828 H 2915.26 -1.68483 -3.58371 0
M  V30 30829 H 2916.43 -4.11392 -2.0759 0
M  V30 30830 H 2914.75 -3.64357 -2.01576 0
M  V30 30831 H 2917.35 -2.68217 -4.62562 0
M  V30 30832 H 2917.69 -1.08017 -4.02042 0
M  V30 30833 H 2918.22 -2.5028 -3.092 0
M  V30 30834 H 2914.96 -5.44928 -3.64327 0
M  V30 30835 H 2914.48 -3.96612 -4.49954 0
M  V30 30836 H 2916.16 -4.55239 -4.59746 0
M  V30 30837 N 2916.29 1.08262 -1.1453 0
M  V30 30838 C 2917.52 1.84416 -0.937996 0
M  V30 30839 C 2917.93 1.81682 0.513538 0
M  V30 30840 O 2917.29 1.22155 1.35589 0
M  V30 30841 C 2917.34 3.31894 -1.43277 0
M  V30 30842 O 2917.06 3.34646 -2.82744 0
M  V30 30843 C 2918.56 4.24849 -1.26562 0
M  V30 30844 H 2915.78 0.58213 -0.333714 0
M  V30 30845 H 2918.33 1.3672 -1.52078 0
M  V30 30846 H 2916.48 3.76974 -0.892719 0
M  V30 30847 H 2916.9 4.26718 -3.04978 0
M  V30 30848 H 2918.37 5.26436 -1.6604 0
M  V30 30849 H 2918.85 4.38704 -0.208666 0
M  V30 30850 H 2919.45 3.85597 -1.7943 0
M  V30 30851 N 2917.77 0.940655 1.26449 0
M  V30 30852 C 2919.02 0.586782 1.93394 0
M  V30 30853 C 2919.34 -0.87689 1.74171 0
M  V30 30854 O 2918.61 -1.62302 1.09703 0
M  V30 30855 H 2917.19 0.214025 0.715683 0
M  V30 30856 H 2919.85 1.19586 1.539 0
M  V30 30857 H 2918.95 0.804112 3.01563 0
M  V30 30858 N 2919.25 -1.40821 0.707617 0
M  V30 30859 C 2920.5 -2.00258 0.240741 0
M  V30 30860 C 2920.81 -1.56731 -1.17025 0
M  V30 30861 O 2922.02 -2.08812 -1.73522 0
M  V30 30862 C 2920.47 -3.57894 0.379495 0
M  V30 30863 C 2920.08 -4.10397 1.79661 0
M  V30 30864 C 2921.82 -4.24491 -0.0269938 0
M  V30 30865 C 2919.73 -5.60508 1.88638 0
M  V30 30866 H 2918.66 -0.749051 0.0862501 0
M  V30 30867 H 2921.31 -1.61156 0.877557 0
M  V30 30868 H 2919.69 -3.94658 -0.325773 0
M  V30 30869 H 2920.87 -3.85027 2.53162 0
M  V30 30870 H 2919.18 -3.56368 2.15385 0
M  V30 30871 H 2921.78 -5.34696 0.0194683 0
M  V30 30872 H 2922.12 -4.02377 -1.06765 0
M  V30 30873 H 2922.66 -3.92805 0.62843 0
M  V30 30874 H 2919.39 -5.87467 2.90797 0
M  V30 30875 H 2918.91 -5.87767 1.19539 0
M  V30 30876 H 2920.59 -6.2548 1.65481 0
M  V30 30877 N 2920.73 -0.453223 -1.50943 0
M  V30 30878 C 2921.66 0.386191 -2.25923 0
M  V30 30879 C 2922.67 0.972629 -1.30552 0
M  V30 30880 O 2923.86 0.864069 -1.56192 0
M  V30 30881 C 2920.96 1.55384 -3.01179 0
M  V30 30882 C 2920.13 1.08343 -4.2377 0
M  V30 30883 C 2919.19 2.12304 -4.8147 0
M  V30 30884 O 2918.22 1.71091 -5.42878 0
M  V30 30885 N 2919.42 3.44948 -4.66895 0
M  V30 30886 H 2922.18 -0.256521 -2.986 0
M  V30 30887 H 2919.75 -0.282993 -1.59408 0
M  V30 30888 H 2921.74 2.24588 -3.36663 0
M  V30 30889 H 2920.31 2.10159 -2.31413 0
M  V30 30890 H 2919.53 0.217892 -3.93597 0
M  V30 30891 H 2920.82 0.746769 -5.0329 0
M  V30 30892 H 2920.21 3.81153 -4.18018 0
M  V30 30893 H 2918.77 4.10001 -5.06698 0
M  V30 30894 N 2922.2 1.56509 -0.185151 0
M  V30 30895 C 2923.43 2.01674 0.462104 0
M  V30 30896 C 2923.85 1.06534 1.55871 0
M  V30 30897 O 2923.2 0.0685126 1.82371 0
M  V30 30898 C 2923.25 3.46586 1.02764 0
M  V30 30899 O 2922.98 4.38093 -0.0252066 0
M  V30 30900 C 2924.48 4.0722 1.75176 0
M  V30 30901 H 2921.7 0.660723 0.116989 0
M  V30 30902 H 2924.24 2.0242 -0.290941 0
M  V30 30903 H 2922.4 3.46571 1.73111 0
M  V30 30904 H 2922.81 5.23016 0.394295 0
M  V30 30905 H 2924.28 5.10498 2.0999 0
M  V30 30906 H 2924.76 3.50106 2.65184 0
M  V30 30907 H 2925.37 4.10979 1.09438 0
M  V30 30908 N 2923.68 -0.0885089 1.57351 0
M  V30 30909 C 2924.61 -1.13326 1.99223 0
M  V30 30910 C 2925.63 -1.35943 0.895729 0
M  V30 30911 O 2926.82 -1.34479 1.17379 0
M  V30 30912 C 2923.92 -2.48752 2.30165 0
M  V30 30913 C 2923.09 -2.46321 3.61448 0
M  V30 30914 C 2922.15 -3.63725 3.8025 0
M  V30 30915 O 2921.17 -3.45916 4.5203 0
M  V30 30916 N 2922.38 -4.83454 3.21329 0
M  V30 30917 H 2925.14 -0.776811 2.89458 0
M  V30 30918 H 2922.7 -0.2774 1.59506 0
M  V30 30919 H 2924.69 -3.25907 2.39931 0
M  V30 30920 H 2923.26 -2.76461 1.45904 0
M  V30 30921 H 2922.48 -1.54666 3.62591 0
M  V30 30922 H 2923.77 -2.41781 4.47682 0
M  V30 30923 H 2923.17 -5.00828 2.63036 0
M  V30 30924 H 2921.73 -5.58179 3.3657 0
M  V30 30925 N 2925.16 -1.53445 -0.359498 0
M  V30 30926 C 2926.41 -1.69586 -1.09932 0
M  V30 30927 C 2926.73 -0.453404 -1.89656 0
M  V30 30928 O 2926 0.532597 -1.88521 0
M  V30 30929 H 2924.58 -0.625192 -0.408832 0
M  V30 30930 H 2927.24 -1.90653 -0.404637 0
M  V30 30931 H 2926.34 -2.55967 -1.7857 0
M  V30 30932 N 2926.64 0.619637 -1.44908 0
M  V30 30933 C 2927.6 1.71295 -1.52285 0
M  V30 30934 C 2928.6 1.55652 -0.403617 0
M  V30 30935 O 2929.79 1.60938 -0.666667 0
M  V30 30936 C 2926.92 3.10472 -1.40783 0
M  V30 30937 H 2928.12 1.66124 -2.49686 0
M  V30 30938 H 2925.67 0.834315 -1.3217 0
M  V30 30939 H 2926.4 3.21229 -0.445212 0
M  V30 30940 H 2926.19 3.23233 -2.21952 0
M  V30 30941 H 2927.68 3.90132 -1.48952 0
M  V30 30942 N 2928.12 1.31997 0.861075 0
M  V30 30943 C 2929.06 1.20395 1.9691 0
M  V30 30944 C 2930.03 0.087619 1.65869 0
M  V30 30945 O 2931.22 0.262044 1.88992 0
M  V30 30946 C 2928.36 0.926393 3.32433 0
M  V30 30947 C 2927.47 2.12691 3.76014 0
M  V30 30948 C 2926.61 1.78537 5.00298 0
M  V30 30949 C 2925.65 2.94946 5.36352 0
M  V30 30950 N 2924.78 2.60929 6.51813 0
M  V30 30951 H 2929.62 2.15174 2.06165 0
M  V30 30952 H 2927.16 1.07026 1.00915 0
M  V30 30953 H 2929.12 0.745989 4.10476 0
M  V30 30954 H 2927.75 0.0154145 3.22796 0
M  V30 30955 H 2926.8 2.41779 2.93678 0
M  V30 30956 H 2928.11 2.99788 3.98658 0
M  V30 30957 H 2927.27 1.57011 5.86031 0
M  V30 30958 H 2926 0.88644 4.79576 0
M  V30 30959 H 2925.01 3.17111 4.49133 0
M  V30 30960 H 2926.23 3.85562 5.59034 0
M  V30 30961 H 2924.18 1.73569 6.32621 0
M  V30 30962 H 2924.1 3.41556 6.74444 0
M  V30 30963 H 2925.37 2.42817 7.40716 0
M  V30 30964 N 2929.59 -1.07653 1.15103 0
M  V30 30965 C 2930.54 -2.12994 0.813486 0
M  V30 30966 C 2931.53 -1.59641 -0.20087 0
M  V30 30967 O 2932.72 -1.77 -0.00206806 0
M  V30 30968 C 2929.85 -3.41977 0.301138 0
M  V30 30969 C 2928.94 -4.02191 1.34547 0
M  V30 30970 N 2929.33 -4.36706 2.55189 0
M  V30 30971 C 2927.62 -4.29623 1.19749 0
M  V30 30972 C 2928.33 -4.84381 3.22102 0
M  V30 30973 N 2927.3 -4.82963 2.49494 0
M  V30 30974 H 2931.1 -2.37508 1.7311 0
M  V30 30975 H 2928.62 -1.25061 1.03603 0
M  V30 30976 H 2930.61 -4.1688 0.0409873 0
M  V30 30977 H 2929.27 -3.18908 -0.610573 0
M  V30 30978 H 2930.29 -4.27491 2.92356 0
M  V30 30979 H 2926.96 -4.16069 0.345427 0
M  V30 30980 H 2928.35 -5.20404 4.25005 0
M  V30 30981 N 2931.07 -0.947348 -1.25949 0
M  V30 30982 C 2932.3 -0.61427 -1.97257 0
M  V30 30983 C 2932.71 0.816325 -1.70683 0
M  V30 30984 O 2932.05 1.55672 -0.975298 0
M  V30 30985 C 2932.12 -0.784142 -3.50844 0
M  V30 30986 C 2931.78 -2.19053 -4.0108 0
M  V30 30987 C 2932.78 -3.16656 -4.12341 0
M  V30 30988 C 2930.46 -2.51276 -4.34932 0
M  V30 30989 C 2932.46 -4.4458 -4.56758 0
M  V30 30990 C 2930.14 -3.79431 -4.79036 0
M  V30 30991 C 2931.14 -4.75896 -4.89911 0
M  V30 30992 O 2930.83 -6.01768 -5.33039 0
M  V30 30993 H 2930.56 -0.229822 -0.635734 0
M  V30 30994 H 2933.11 -1.2721 -1.61266 0
M  V30 30995 H 2931.34 -0.0691689 -3.86638 0
M  V30 30996 H 2933.03 -0.453206 -4.03362 0
M  V30 30997 H 2933.8 -2.93086 -3.86427 0
M  V30 30998 H 2929.68 -1.76923 -4.25698 0
M  V30 30999 H 2933.22 -5.19876 -4.65161 0
M  V30 31000 H 2929.12 -4.02811 -5.04395 0
M  V30 31001 H 2929.89 -6.05039 -5.51245 0
M  V30 31002 N 2932.55 1.40444 -0.715075 0
M  V30 31003 C 2933.48 2.33373 -0.0769109 0
M  V30 31004 C 2934.46 1.52865 0.746082 0
M  V30 31005 O 2935.65 1.81334 0.69511 0
M  V30 31006 C 2932.78 3.3684 0.845955 0
M  V30 31007 C 2931.73 4.27807 0.128619 0
M  V30 31008 C 2931.06 5.21806 1.16716 0
M  V30 31009 C 2932.36 5.12305 -1.01688 0
M  V30 31010 H 2934.05 2.86988 -0.853112 0
M  V30 31011 H 2931.6 1.37989 -0.411694 0
M  V30 31012 H 2933.55 4.00789 1.30178 0
M  V30 31013 H 2932.27 2.81618 1.65405 0
M  V30 31014 H 2930.93 3.65309 -0.307378 0
M  V30 31015 H 2930.58 4.6289 1.96829 0
M  V30 31016 H 2930.28 5.8351 0.692085 0
M  V30 31017 H 2931.8 5.88632 1.6231 0
M  V30 31018 H 2933.22 5.69712 -0.640437 0
M  V30 31019 H 2931.62 5.8305 -1.4203 0
M  V30 31020 H 2932.69 4.48314 -1.84777 0
M  V30 31021 N 2934.03 0.461222 1.507 0
M  V30 31022 C 2934.98 -0.338054 2.28311 0
M  V30 31023 C 2935.95 -0.995933 1.3293 0
M  V30 31024 O 2937.13 -1.01027 1.61859 0
M  V30 31025 C 2934.27 -1.41977 3.14542 0
M  V30 31026 C 2933.38 -0.777655 4.24943 0
M  V30 31027 C 2932.52 -1.83643 4.98446 0
M  V30 31028 C 2931.56 -1.17403 6.00735 0
M  V30 31029 N 2930.69 -2.17522 6.67554 0
M  V30 31030 H 2935.53 0.330103 2.96166 0
M  V30 31031 H 2933.07 0.174637 1.4606 0
M  V30 31032 H 2935.03 -2.05848 3.62881 0
M  V30 31033 H 2933.66 -2.05723 2.48753 0
M  V30 31034 H 2932.71 -0.0266256 3.80391 0
M  V30 31035 H 2934.02 -0.254275 4.98151 0
M  V30 31036 H 2933.18 -2.55119 5.50454 0
M  V30 31037 H 2931.92 -2.3936 4.24921 0
M  V30 31038 H 2930.92 -0.444848 5.47997 0
M  V30 31039 H 2932.15 -0.623887 6.76228 0
M  V30 31040 H 2930.09 -2.72274 5.96827 0
M  V30 31041 H 2930.01 -1.70142 7.36606 0
M  V30 31042 H 2931.28 -2.88408 7.24183 0
M  V30 31043 N 2935.51 -1.56408 0.193449 0
M  V30 31044 C 2936.73 -2.02358 -0.454517 0
M  V30 31045 C 2937.16 -1.07271 -1.54514 0
M  V30 31046 O 2936.51 -0.055928 -1.81214 0
M  V30 31047 C 2936.56 -3.46761 -0.989408 0
M  V30 31048 O 2935.67 -3.54787 -2.10238 0
M  V30 31049 H 2935.01 -0.655419 -0.106405 0
M  V30 31050 H 2937.54 -2.02331 0.303842 0
M  V30 31051 H 2937.55 -3.86518 -1.30643 0
M  V30 31052 H 2936.22 -4.15461 -0.19101 0
M  V30 31053 H 2934.8 -3.26903 -1.79413 0
M  V30 31054 N 2936.98 0.0801629 -1.57396 0
M  V30 31055 C 2938.22 0.786334 -1.88669 0
M  V30 31056 C 2938.59 1.75163 -0.786246 0
M  V30 31057 O 2939.79 2.50228 -0.981813 0
M  V30 31058 C 2938.06 1.48303 -3.25178 0
M  V30 31059 S 2939.62 2.22542 -3.78181 0
M  V30 31060 H 2936.44 0.261668 -0.661098 0
M  V30 31061 H 2939.04 0.0427852 -1.95453 0
M  V30 31062 H 2937.74 0.766559 -4.03177 0
M  V30 31063 H 2937.27 2.26618 -3.21571 0
M  V30 31064 H 2939.29 3.48927 -3.52795 0
M  V30 31065 N 2938.46 1.53634 0.351355 0
M  V30 31066 C 2939.69 1.74178 1.1111 0
M  V30 31067 C 2940.1 0.477186 1.83084 0
M  V30 31068 O 2939.44 -0.560452 1.74942 0
M  V30 31069 C 2939.51 2.86229 2.17516 0
M  V30 31070 C 2939.17 4.26102 1.65186 0
M  V30 31071 C 2940.17 5.07949 1.10833 0
M  V30 31072 C 2937.85 4.72561 1.70269 0
M  V30 31073 C 2939.85 6.34352 0.622577 0
M  V30 31074 C 2937.53 5.98939 1.21305 0
M  V30 31075 C 2938.53 6.79667 0.673914 0
M  V30 31076 O 2938.22 8.03672 0.191555 0
M  V30 31077 H 2937.95 0.585693 0.33755 0
M  V30 31078 H 2940.5 2.01231 0.411751 0
M  V30 31079 H 2938.73 2.54683 2.90987 0
M  V30 31080 H 2940.42 2.94817 2.78994 0
M  V30 31081 H 2941.19 4.73222 1.06234 0
M  V30 31082 H 2937.07 4.09789 2.11173 0
M  V30 31083 H 2940.61 6.9731 0.201093 0
M  V30 31084 H 2936.51 6.33162 1.25602 0
M  V30 31085 H 2937.28 8.17914 0.309568 0
M  V30 31086 N 2939.94 -0.611943 1.45234 0
M  V30 31087 C 2941.17 -1.39781 1.52541 0
M  V30 31088 C 2941.58 -1.8815 0.156566 0
M  V30 31089 O 2940.94 -1.61963 -0.841092 0
M  V30 31090 C 2940.99 -2.60524 2.50619 0
M  V30 31091 O 2940.71 -2.14166 3.82184 0
M  V30 31092 C 2942.21 -3.53434 2.67581 0
M  V30 31093 H 2939.43 -0.428034 0.516748 0
M  V30 31094 H 2941.98 -0.746694 1.9038 0
M  V30 31095 H 2940.13 -3.21686 2.15863 0
M  V30 31096 H 2940.55 -2.92584 4.3531 0
M  V30 31097 H 2942.02 -4.34711 3.40192 0
M  V30 31098 H 2942.5 -4.03493 1.73466 0
M  V30 31099 H 2943.1 -2.98128 3.03315 0
M  V30 31100 N 2941.42 -1.32452 -0.854063 0
M  V30 31101 C 2942.65 -1.26048 -1.64072 0
M  V30 31102 C 2943.06 0.171423 -1.8802 0
M  V30 31103 O 2942.42 1.1087 -1.44962 0
M  V30 31104 C 2942.47 -2.01748 -2.99966 0
M  V30 31105 O 2942.19 -3.39351 -2.77078 0
M  V30 31106 C 2943.69 -2.02375 -3.9441 0
M  V30 31107 H 2940.91 -0.434871 -0.511007 0
M  V30 31108 H 2943.46 -1.74585 -1.06491 0
M  V30 31109 H 2941.61 -1.56932 -3.54191 0
M  V30 31110 H 2942.02 -3.78104 -3.63507 0
M  V30 31111 H 2943.5 -2.59824 -4.87027 0
M  V30 31112 H 2943.98 -1.01016 -4.27425 0
M  V30 31113 H 2944.58 -2.47141 -3.46123 0
M  V30 31114 N 2942.9 1.07041 -1.15672 0
M  V30 31115 C 2943.81 2.17853 -0.870473 0
M  V30 31116 C 2944.82 1.73313 0.154422 0
M  V30 31117 O 2946 2.0139 -0.0204113 0
M  V30 31118 C 2943.06 3.44749 -0.367279 0
M  V30 31119 C 2942.13 4.03839 -1.45646 0
M  V30 31120 C 2941.36 5.24678 -0.977184 0
M  V30 31121 O 2941.58 5.70128 0.176027 0
M  V30 31122 O 2940.52 5.75524 -1.76225 0
M  V30 31123 H 2944.34 2.44836 -1.79692 0
M  V30 31124 H 2941.93 1.16438 -0.936085 0
M  V30 31125 H 2943.81 4.21297 -0.0932687 0
M  V30 31126 H 2942.48 3.19311 0.531254 0
M  V30 31127 H 2941.39 3.28816 -1.78412 0
M  V30 31128 H 2942.72 4.33556 -2.33002 0
M  V30 31129 N 2944.38 0.954014 1.25445 0
M  V30 31130 C 2945.62 0.608463 1.93142 0
M  V30 31131 C 2945.95 -0.85442 1.74728 0
M  V30 31132 O 2945.21 -1.62834 1.08552 0
M  V30 31133 C 2945.5 0.912557 3.45553 0
M  V30 31134 C 2945.17 2.36137 3.84122 0
M  V30 31135 C 2943.83 2.75739 3.94362 0
M  V30 31136 C 2946.18 3.3023 4.03234 0
M  V30 31137 C 2943.51 4.08503 4.2112 0
M  V30 31138 C 2945.86 4.62605 4.31485 0
M  V30 31139 C 2944.53 5.02004 4.39941 0
M  V30 31140 H 2943.8 0.222652 0.706758 0
M  V30 31141 H 2946.45 1.20293 1.49003 0
M  V30 31142 H 2944.75 0.235687 3.9109 0
M  V30 31143 H 2946.45 0.623783 3.96119 0
M  V30 31144 H 2943.04 2.04424 3.76708 0
M  V30 31145 H 2947.22 3.00824 3.94738 0
M  V30 31146 H 2942.48 4.38673 4.25883 0
M  V30 31147 H 2946.65 5.35494 4.45218 0
M  V30 31148 H 2944.28 6.04904 4.60429 0
M  V30 31149 N 2945.85 -1.40063 0.722513 0
M  V30 31150 C 2947.08 -2.04769 0.274475 0
M  V30 31151 C 2947.49 -1.54561 -1.09122 0
M  V30 31152 O 2946.83 -0.700179 -1.69833 0
M  V30 31153 C 2946.9 -3.59028 0.184154 0
M  V30 31154 C 2946.56 -4.32156 1.48627 0
M  V30 31155 C 2947.56 -4.5964 2.42955 0
M  V30 31156 C 2945.24 -4.70937 1.74711 0
M  V30 31157 C 2947.24 -5.24897 3.6161 0
M  V30 31158 C 2944.92 -5.35925 2.93646 0
M  V30 31159 C 2945.92 -5.62836 3.86917 0
M  V30 31160 O 2945.61 -6.2648 5.03764 0
M  V30 31161 H 2945.34 -0.665289 0.119858 0
M  V30 31162 H 2947.9 -1.8033 0.983383 0
M  V30 31163 H 2946.13 -3.82314 -0.580754 0
M  V30 31164 H 2947.81 -4.05247 -0.230235 0
M  V30 31165 H 2948.58 -4.30137 2.24069 0
M  V30 31166 H 2944.46 -4.49355 1.02963 0
M  V30 31167 H 2948 -5.45819 4.34428 0
M  V30 31168 H 2943.9 -5.64848 3.12438 0
M  V30 31169 H 2944.67 -6.44976 5.03933 0
M  V30 31170 N 2947.33 -0.469207 -1.50453 0
M  V30 31171 C 2948.58 0.0865615 -2.02615 0
M  V30 31172 C 2948.91 1.3954 -1.35064 0
M  V30 31173 O 2948.19 1.88592 -0.475734 0
M  V30 31174 C 2948.47 0.272322 -3.59069 0
M  V30 31175 C 2948.32 -1.0574 -4.37195 0
M  V30 31176 C 2949.64 1.02772 -4.27932 0
M  V30 31177 H 2946.76 0.0299848 -0.73639 0
M  V30 31178 H 2949.4 -0.61443 -1.79791 0
M  V30 31179 H 2947.55 0.869404 -3.78647 0
M  V30 31180 H 2949.22 -1.69092 -4.29192 0
M  V30 31181 H 2947.47 -1.65449 -4.0101 0
M  V30 31182 H 2948.14 -0.881092 -5.44923 0
M  V30 31183 H 2950.61 0.521646 -4.12817 0
M  V30 31184 H 2949.49 1.12649 -5.37216 0
M  V30 31185 H 2949.75 2.06383 -3.90971 0
M  V30 31186 N 2948.81 1.56303 -0.201741 0
M  V30 31187 C 2949.77 2.1816 0.702773 0
M  V30 31188 C 2950.77 1.13789 1.13617 0
M  V30 31189 O 2951.96 1.39136 1.04818 0
M  V30 31190 C 2949.09 2.78902 1.96027 0
M  V30 31191 H 2950.29 2.99452 0.163783 0
M  V30 31192 H 2947.84 1.56227 0.0478825 0
M  V30 31193 H 2948.58 2.01426 2.54162 0
M  V30 31194 H 2948.36 3.55312 1.65818 0
M  V30 31195 H 2949.85 3.26378 2.60513 0
M  V30 31196 N 2950.29 -0.0718147 1.57436 0
M  V30 31197 C 2951.52 -0.782762 1.91197 0
M  V30 31198 C 2951.93 -1.71643 0.795958 0
M  V30 31199 O 2951.27 -1.82131 -0.239572 0
M  V30 31200 C 2951.33 -1.63 3.20424 0
M  V30 31201 C 2950.99 -0.865704 4.48725 0
M  V30 31202 C 2951.99 -0.18496 5.19571 0
M  V30 31203 C 2949.68 -0.832884 4.95347 0
M  V30 31204 C 2951.67 0.518376 6.35289 0
M  V30 31205 C 2949.36 -0.125777 6.10971 0
M  V30 31206 C 2950.36 0.548653 6.80793 0
M  V30 31207 O 2950.04 1.24437 7.94211 0
M  V30 31208 H 2949.78 -0.22772 0.63649 0
M  V30 31209 H 2952.33 -0.0463826 2.05348 0
M  V30 31210 H 2950.56 -2.40918 3.02482 0
M  V30 31211 H 2952.25 -2.21962 3.39835 0
M  V30 31212 H 2953.01 -0.201622 4.84581 0
M  V30 31213 H 2948.89 -1.34729 4.40873 0
M  V30 31214 H 2952.44 1.04535 6.89723 0
M  V30 31215 H 2948.33 -0.107042 6.45411 0
M  V30 31216 H 2949.1 1.15364 8.10329 0
M  V30 31217 N 2951.77 -1.53818 -0.343203 0
M  V30 31218 C 2952.99 -1.75331 -1.10787 0
M  V30 31219 C 2953.42 -0.491324 -1.8157 0
M  V30 31220 O 2952.77 0.556059 -1.72562 0
M  V30 31221 C 2952.82 -2.93374 -2.09676 0
M  V30 31222 O 2951.93 -2.63546 -3.17202 0
M  V30 31223 H 2951.27 -0.581588 -0.320392 0
M  V30 31224 H 2953.8 -2.00781 -0.39349 0
M  V30 31225 H 2953.81 -3.20172 -2.52891 0
M  V30 31226 H 2952.48 -3.84902 -1.57554 0
M  V30 31227 H 2951.06 -2.47637 -2.78801 0
M  V30 31228 N 2953.24 0.604233 -1.45557 0
M  V30 31229 C 2954.47 1.3946 -1.53512 0
M  V30 31230 C 2954.89 1.87333 -0.169671 0
M  V30 31231 O 2954.25 1.60335 0.846317 0
M  V30 31232 C 2954.3 2.57286 -2.52659 0
M  V30 31233 O 2953.4 3.58027 -2.04672 0
M  V30 31234 H 2952.74 0.416211 -0.517363 0
M  V30 31235 H 2955.27 0.735038 -1.90941 0
M  V30 31236 H 2955.28 3.04486 -2.71573 0
M  V30 31237 H 2953.96 2.2179 -3.51826 0
M  V30 31238 H 2952.54 3.17452 -1.95649 0
M  V30 31239 N 2954.72 1.32903 0.847027 0
M  V30 31240 C 2955.67 1.22445 1.97763 0
M  V30 31241 C 2956.66 0.127576 1.68919 0
M  V30 31242 O 2957.87 0.291004 1.77632 0
M  V30 31243 H 2954.24 0.37976 0.649066 0
M  V30 31244 H 2956.22 2.18048 2.0371 0
M  V30 31245 C 2954.96 0.972184 3.33832 0
M  V30 31246 H 2954.29 1.80844 3.56561 0
M  V30 31247 H 2955.73 0.939282 4.13465 0
M  V30 31248 C 2954.19 -0.325 3.35329 0
M  V30 31249 O 2954.72 -1.33438 3.78889 0
M  V30 31250 N 2952.92 -0.349667 2.88489 0
M  V30 31251 H 2952.47 0.472281 2.53234 0
M  V30 31252 H 2952.43 -1.21743 2.89872 0
M  V30 31253 N 2956.2 -1.06426 1.16238 0
M  V30 31254 C 2957.13 -2.13819 0.825484 0
M  V30 31255 C 2958.14 -1.61945 -0.166678 0
M  V30 31256 O 2959.33 -1.78406 0.0578919 0
M  V30 31257 C 2956.43 -3.38261 0.208083 0
M  V30 31258 C 2955.61 -4.19455 1.24001 0
M  V30 31259 C 2954.67 -5.22261 0.642661 0
M  V30 31260 O 2953.69 -5.53893 1.31116 0
M  V30 31261 N 2954.89 -5.77683 -0.571226 0
M  V30 31262 H 2957.66 -2.43319 1.74974 0
M  V30 31263 H 2955.22 -1.22415 1.05953 0
M  V30 31264 H 2957.21 -4.04183 -0.204537 0
M  V30 31265 H 2955.78 -3.06396 -0.619698 0
M  V30 31266 H 2955 -3.49209 1.82885 0
M  V30 31267 H 2956.29 -4.70509 1.93646 0
M  V30 31268 H 2955.69 -5.54247 -1.13253 0
M  V30 31269 H 2954.24 -6.45188 -0.926074 0
M  V30 31270 N 2957.68 -0.960653 -1.24937 0
M  V30 31271 C 2958.93 -0.614332 -1.92117 0
M  V30 31272 C 2959.24 0.853443 -1.75999 0
M  V30 31273 O 2960.45 1.30998 -2.37806 0
M  V30 31274 C 2958.9 -1.04808 -3.44301 0
M  V30 31275 C 2958.51 -2.53881 -3.69118 0
M  V30 31276 C 2960.25 -0.77457 -4.17374 0
M  V30 31277 C 2958.16 -2.91025 -5.14838 0
M  V30 31278 H 2957.09 -0.226057 -0.719315 0
M  V30 31279 H 2959.74 -1.16591 -1.41699 0
M  V30 31280 H 2958.12 -0.424859 -3.93714 0
M  V30 31281 H 2959.3 -3.21273 -3.30333 0
M  V30 31282 H 2957.61 -2.78767 -3.09318 0
M  V30 31283 H 2960.21 -1.02817 -5.24722 0
M  V30 31284 H 2960.55 0.289119 -4.15295 0
M  V30 31285 H 2961.09 -1.35842 -3.73887 0
M  V30 31286 H 2957.83 -3.96436 -5.22033 0
M  V30 31287 H 2957.35 -2.28311 -5.54648 0
M  V30 31288 H 2959.02 -2.80545 -5.83012 0
M  V30 31289 N 2959.16 1.39677 -0.729931 0
M  V30 31290 C 2960.1 2.32477 -0.0756998 0
M  V30 31291 C 2961.1 1.52796 0.731411 0
M  V30 31292 O 2962.3 1.68496 0.633166 0
M  V30 31293 H 2958.68 0.751979 -0.00567814 0
M  V30 31294 H 2960.65 2.85288 -0.874848 0
M  V30 31295 C 2959.4 3.37862 0.821253 0
M  V30 31296 H 2958.72 3.9925 0.209596 0
M  V30 31297 H 2960.16 4.05256 1.24672 0
M  V30 31298 C 2958.62 2.74499 1.95325 0
M  V30 31299 O 2959.15 2.61947 3.04543 0
M  V30 31300 N 2957.36 2.32663 1.74115 0
M  V30 31301 H 2956.9 2.43072 0.852865 0
M  V30 31302 H 2956.86 1.90608 2.50032 0
M  V30 31303 N 2960.63 0.47718 1.50202 0
M  V30 31304 C 2961.88 -0.0679085 2.03287 0
M  V30 31305 C 2962.24 -1.3686 1.35229 0
M  V30 31306 O 2961.53 -1.85719 0.471061 0
M  V30 31307 C 2961.72 -0.301262 3.56128 0
M  V30 31308 C 2961.55 0.975265 4.38997 0
M  V30 31309 C 2960.32 1.52031 4.81887 0
M  V30 31310 C 2962.52 1.87228 4.79009 0
M  V30 31311 N 2960.5 2.74522 5.491 0
M  V30 31312 C 2961.87 2.94305 5.45696 0
M  V30 31313 C 2963.93 1.88193 4.60964 0
M  V30 31314 C 2962.63 4.02344 5.96248 0
M  V30 31315 C 2964.66 2.95192 5.1246 0
M  V30 31316 C 2964.02 4.00988 5.79127 0
M  V30 31317 H 2960.12 0.0153318 0.78185 0
M  V30 31318 H 2962.7 0.646742 1.83645 0
M  V30 31319 H 2960.87 -0.984955 3.75704 0
M  V30 31320 H 2962.6 -0.841234 3.9586 0
M  V30 31321 H 2959.36 1.06866 4.61385 0
M  V30 31322 H 2959.78 3.36744 5.87309 0
M  V30 31323 H 2964.43 1.07716 4.08849 0
M  V30 31324 H 2962.14 4.83635 6.47397 0
M  V30 31325 H 2965.73 2.96929 5.00324 0
M  V30 31326 H 2964.61 4.8242 6.18256 0
M  V30 31327 N 2962.11 -1.56194 0.210027 0
M  V30 31328 C 2963.04 -2.1703 -0.736929 0
M  V30 31329 C 2964.06 -1.13618 -1.16597 0
M  V30 31330 O 2965.25 -1.40648 -1.09911 0
M  V30 31331 C 2962.35 -2.72972 -2.00847 0
M  V30 31332 C 2961.52 -4.01438 -1.73684 0
M  V30 31333 C 2960.58 -4.42058 -2.85431 0
M  V30 31334 O 2959.6 -5.09187 -2.54396 0
M  V30 31335 N 2960.81 -4.0679 -4.14128 0
M  V30 31336 H 2963.57 -2.98916 -0.216604 0
M  V30 31337 H 2961.13 -1.61875 0.0285956 0
M  V30 31338 H 2963.12 -2.97123 -2.74773 0
M  V30 31339 H 2961.69 -1.95455 -2.43959 0
M  V30 31340 H 2960.91 -3.85263 -0.834608 0
M  V30 31341 H 2962.2 -4.85266 -1.52952 0
M  V30 31342 H 2961.6 -3.52824 -4.4219 0
M  V30 31343 H 2960.16 -4.35859 -4.84634 0
M  V30 31344 N 2963.59 0.0634645 -1.57472 0
M  V30 31345 C 2964.84 0.759895 -1.86838 0
M  V30 31346 C 2965.15 1.78319 -0.803854 0
M  V30 31347 O 2966.36 2.52978 -0.985622 0
M  V30 31348 C 2964.81 1.40245 -3.31451 0
M  V30 31349 C 2964.42 0.41729 -4.46052 0
M  V30 31350 C 2966.17 2.08075 -3.70007 0
M  V30 31351 C 2964.07 1.06623 -5.81709 0
M  V30 31352 H 2963 0.287555 -0.697014 0
M  V30 31353 H 2965.65 0.0133591 -1.83495 0
M  V30 31354 H 2964.04 2.19753 -3.29431 0
M  V30 31355 H 2965.21 -0.348583 -4.5948 0
M  V30 31356 H 2963.53 -0.157028 -4.16104 0
M  V30 31357 H 2966.12 2.57418 -4.68658 0
M  V30 31358 H 2966.47 2.88387 -3.00231 0
M  V30 31359 H 2967 1.35388 -3.74052 0
M  V30 31360 H 2963.74 0.303259 -6.54798 0
M  V30 31361 H 2963.26 1.80276 -5.72067 0
M  V30 31362 H 2964.94 1.58365 -6.27319 0
M  V30 31363 N 2965.07 1.53998 0.33504 0
M  V30 31364 C 2966.32 1.71653 1.07432 0
M  V30 31365 C 2966.64 0.484163 1.88378 0
M  V30 31366 O 2965.9 -0.534106 1.88271 0
M  V30 31367 C 2966.2 2.93713 2.03635 0
M  V30 31368 C 2965.86 4.28962 1.38935 0
M  V30 31369 C 2964.53 4.65734 1.21019 0
M  V30 31370 C 2966.88 5.12944 0.923993 0
M  V30 31371 C 2964.21 5.84098 0.551994 0
M  V30 31372 C 2966.56 6.31981 0.279669 0
M  V30 31373 C 2965.22 6.67442 0.088267 0
M  V30 31374 H 2964.49 0.628121 0.393122 0
M  V30 31375 H 2967.14 1.88224 0.352679 0
M  V30 31376 H 2965.44 2.7178 2.82211 0
M  V30 31377 H 2967.14 3.04567 2.60845 0
M  V30 31378 H 2963.73 4.00024 1.53878 0
M  V30 31379 H 2967.91 4.85061 1.05023 0
M  V30 31380 H 2963.17 6.1014 0.392395 0
M  V30 31381 H 2967.34 6.96343 -0.0889703 0
M  V30 31382 H 2964.97 7.59018 -0.42379 0
M  V30 31383 N 2966.55 -0.596505 1.45875 0
M  V30 31384 C 2967.49 -1.70652 1.55392 0
M  V30 31385 C 2968.46 -1.61235 0.399064 0
M  V30 31386 O 2969.65 -1.80651 0.613992 0
M  V30 31387 C 2966.79 -3.08978 1.5371 0
M  V30 31388 C 2965.9 -3.2912 2.79828 0
M  V30 31389 C 2965.04 -4.57616 2.69743 0
M  V30 31390 C 2964.08 -4.71054 3.90864 0
M  V30 31391 N 2963.21 -5.9086 3.79247 0
M  V30 31392 H 2968.05 -1.61855 2.50214 0
M  V30 31393 H 2965.59 -0.789047 1.24147 0
M  V30 31394 H 2967.55 -3.89023 1.50722 0
M  V30 31395 H 2966.18 -3.16705 0.624303 0
M  V30 31396 H 2965.23 -2.42774 2.92856 0
M  V30 31397 H 2966.54 -3.34921 3.69634 0
M  V30 31398 H 2965.7 -5.45871 2.64783 0
M  V30 31399 H 2964.43 -4.54231 1.77555 0
M  V30 31400 H 2963.44 -3.8122 3.96171 0
M  V30 31401 H 2964.66 -4.76228 4.84132 0
M  V30 31402 H 2962.61 -5.88499 2.89835 0
M  V30 31403 H 2962.53 -5.97869 4.62697 0
M  V30 31404 H 2963.8 -6.81583 3.78239 0
M  V30 31405 N 2968.02 -1.3335 -0.839967 0
M  V30 31406 C 2969.27 -1.24498 -1.592 0
M  V30 31407 C 2969.59 0.189465 -1.94077 0
M  V30 31408 O 2968.86 1.11793 -1.6087 0
M  V30 31409 H 2967.44 -0.457812 -0.590268 0
M  V30 31410 H 2970.11 -1.67056 -1.00391 0
M  V30 31411 H 2969.2 -1.83793 -2.52243 0
M  V30 31412 N 2969.5 1.05808 -1.16801 0
M  V30 31413 C 2970.45 2.15508 -0.875149 0
M  V30 31414 C 2971.44 1.68664 0.157751 0
M  V30 31415 O 2972.65 1.79996 0.0112654 0
M  V30 31416 H 2969.03 0.703598 -0.265432 0
M  V30 31417 H 2971 2.37417 -1.80764 0
M  V30 31418 C 2969.75 3.45414 -0.398081 0
M  V30 31419 H 2969.07 3.81856 -1.18432 0
M  V30 31420 H 2970.51 4.23365 -0.231988 0
M  V30 31421 C 2968.97 3.25117 0.883213 0
M  V30 31422 O 2969.5 3.51118 1.95139 0
M  V30 31423 N 2967.7 2.78527 0.828912 0
M  V30 31424 H 2967.25 2.57568 -0.0405482 0
M  V30 31425 H 2967.21 2.65327 1.68669 0
M  V30 31426 N 2970.98 0.967265 1.24426 0
M  V30 31427 C 2972.21 0.646103 1.97079 0
M  V30 31428 C 2972.63 -0.777635 1.71273 0
M  V30 31429 O 2971.99 -1.52774 0.976206 0
M  V30 31430 C 2972.04 0.926328 3.48499 0
M  V30 31431 O 2971.14 0.0115378 4.12398 0
M  V30 31432 H 2970.48 0.244315 0.617419 0
M  V30 31433 H 2973.01 1.2973 1.58213 0
M  V30 31434 H 2973.02 0.857689 3.98883 0
M  V30 31435 H 2971.7 1.96393 3.6661 0
M  V30 31436 H 2970.27 0.133461 3.72661 0
M  V30 31437 N 2972.46 -1.39288 0.737328 0
M  V30 31438 C 2973.69 -2.04763 0.296609 0
M  V30 31439 C 2974.1 -1.55594 -1.06939 0
M  V30 31440 O 2973.46 -0.721852 -1.67617 0
M  V30 31441 C 2973.51 -3.60319 0.291969 0
M  V30 31442 O 2973.23 -4.07679 1.60404 0
M  V30 31443 C 2974.73 -4.42994 -0.16463 0
M  V30 31444 H 2971.95 -0.658432 0.129263 0
M  V30 31445 H 2974.5 -1.78291 1.00163 0
M  V30 31446 H 2972.65 -3.85684 -0.364183 0
M  V30 31447 H 2973.07 -5.02017 1.51918 0
M  V30 31448 H 2974.54 -5.51877 -0.116717 0
M  V30 31449 H 2975.02 -4.22199 -1.21015 0
M  V30 31450 H 2975.62 -4.22783 0.462043 0
M  V30 31451 N 2973.94 -0.485139 -1.49947 0
M  V30 31452 C 2975.35 -0.140124 -1.58984 0
M  V30 31453 C 2975.55 1.35435 -1.49196 0
M  V30 31454 O 2974.61 2.12892 -1.35769 0
M  V30 31455 C 2975.92 -0.702821 -2.92371 0
M  V30 31456 C 2977.47 -0.667503 -3.058 0
M  V30 31457 C 2977.95 -1.20799 -4.41782 0
M  V30 31458 N 2979.44 -1.168 -4.48232 0
M  V30 31459 C 2980.17 -1.55656 -5.51869 0
M  V30 31460 N 2979.67 -2.02028 -6.62689 0
M  V30 31461 N 2981.46 -1.47171 -5.42492 0
M  V30 31462 H 2973.61 -1.45696 -1.54552 0
M  V30 31463 H 2975.87 -0.603372 -0.731195 0
M  V30 31464 H 2975.58 -1.75031 -3.05053 0
M  V30 31465 H 2975.45 -0.154271 -3.76884 0
M  V30 31466 H 2977.84 0.371105 -2.92757 0
M  V30 31467 H 2977.92 -1.25302 -2.23009 0
M  V30 31468 H 2977.57 -2.2453 -4.55575 0
M  V30 31469 H 2977.5 -0.598556 -5.23187 0
M  V30 31470 H 2979.99 -0.828047 -3.68716 0
M  V30 31471 H 2980.3 -2.29788 -7.37846 0
M  V30 31472 H 2978.65 -2.05991 -6.63772 0
M  V30 31473 H 2981.84 -1.10773 -4.54804 0
M  V30 31474 H 2982.01 -1.77777 -6.23137 0
M  V30 31475 N 2975.42 1.56081 -0.218307 0
M  V30 31476 C 2976.36 2.2151 0.70964 0
M  V30 31477 C 2977.36 1.19348 1.20219 0
M  V30 31478 O 2978.56 1.37436 1.16239 0
M  V30 31479 H 2974.94 0.710188 0.247258 0
M  V30 31480 H 2976.91 2.98097 0.134334 0
M  V30 31481 C 2975.66 2.90641 1.90848 0
M  V30 31482 H 2974.98 3.69009 1.53859 0
M  V30 31483 H 2976.42 3.39827 2.53562 0
M  V30 31484 C 2974.88 1.92934 2.76185 0
M  V30 31485 O 2975.41 1.44423 3.7484 0
M  V30 31486 N 2973.62 1.60654 2.42154 0
M  V30 31487 H 2973.16 2.00297 1.61984 0
M  V30 31488 H 2973.12 0.9554 2.99532 0
M  V30 31489 N 2976.89 -0.0551124 1.57504 0
M  V30 31490 C 2978.14 -0.752183 1.88335 0
M  V30 31491 C 2978.47 -1.76374 0.812773 0
M  V30 31492 O 2977.75 -1.9371 -0.175164 0
M  V30 31493 C 2978.03 -1.44522 3.29826 0
M  V30 31494 C 2977.88 -0.448948 4.47554 0
M  V30 31495 C 2979.2 -2.38594 3.69812 0
M  V30 31496 H 2976.32 -0.271983 0.684977 0
M  V30 31497 H 2978.96 -0.0151561 1.89994 0
M  V30 31498 H 2977.11 -2.07345 3.28543 0
M  V30 31499 H 2978.79 0.175358 4.60967 0
M  V30 31500 H 2977.03 0.234238 4.33167 0
M  V30 31501 H 2977.7 -0.971821 5.43378 0
M  V30 31502 H 2980.18 -1.85836 3.72296 0
M  V30 31503 H 2979.05 -2.84079 4.6967 0
M  V30 31504 H 2979.31 -3.24136 3.00646 0
M  V30 31505 N 2978.37 -1.54173 -0.326869 0
M  V30 31506 C 2979.3 -1.78169 -1.42587 0
M  V30 31507 C 2980.28 -0.63151 -1.49836 0
M  V30 31508 O 2981.47 -0.868573 -1.67296 0
M  V30 31509 C 2978.59 -1.89529 -2.80707 0
M  V30 31510 C 2977.64 -3.11798 -2.91006 0
M  V30 31511 S 2978.47 -4.70478 -2.55755 0
M  V30 31512 C 2979.63 -4.8474 -3.95952 0
M  V30 31513 H 2979.86 -2.71106 -1.2202 0
M  V30 31514 H 2977.39 -1.45254 -0.523513 0
M  V30 31515 H 2979.35 -1.96759 -3.60272 0
M  V30 31516 H 2978.01 -0.975748 -2.9856 0
M  V30 31517 H 2977.21 -3.16471 -3.92253 0
M  V30 31518 H 2976.81 -3.02879 -2.19409 0
M  V30 31519 H 2979.1 -4.67174 -4.90667 0
M  V30 31520 H 2980.04 -5.8684 -3.96263 0
M  V30 31521 H 2980.45 -4.13069 -3.84752 0
M  V30 31522 N 2979.85 0.58876 -1.4619 0
M  V30 31523 C 2981.08 1.37137 -1.54522 0
M  V30 31524 C 2981.49 1.88312 -0.183108 0
M  V30 31525 O 2980.83 1.63942 0.828786 0
M  V30 31526 C 2980.89 2.59851 -2.4843 0
M  V30 31527 C 2980.56 2.30186 -3.94795 0
M  V30 31528 C 2981.55 1.89391 -4.84176 0
M  V30 31529 C 2979.24 2.42517 -4.39876 0
M  V30 31530 C 2981.23 1.61314 -6.16649 0
M  V30 31531 C 2978.92 2.14053 -5.72385 0
M  V30 31532 C 2979.92 1.73515 -6.60592 0
M  V30 31533 O 2979.61 1.45396 -7.90642 0
M  V30 31534 H 2979.34 0.425518 -0.525272 0
M  V30 31535 H 2981.89 0.72331 -1.92243 0
M  V30 31536 H 2980.12 3.27442 -2.05715 0
M  V30 31537 H 2981.81 3.21915 -2.47236 0
M  V30 31538 H 2982.58 1.79385 -4.50606 0
M  V30 31539 H 2978.46 2.73033 -3.71448 0
M  V30 31540 H 2982 1.29599 -6.85456 0
M  V30 31541 H 2977.9 2.23682 -6.05505 0
M  V30 31542 H 2978.66 1.59292 -8.0285 0
M  V30 31543 N 2981.33 1.33794 0.832883 0
M  V30 31544 C 2982.57 1.25589 1.58851 0
M  V30 31545 C 2982.9 -0.176773 1.93695 0
M  V30 31546 O 2982.16 -1.13551 1.59388 0
M  V30 31547 C 2982.46 2.0824 2.90467 0
M  V30 31548 C 2982.12 3.57363 2.74959 0
M  V30 31549 C 2980.78 3.98017 2.70437 0
M  V30 31550 C 2983.14 4.52098 2.59339 0
M  V30 31551 C 2980.46 5.31613 2.48203 0
M  V30 31552 C 2982.82 5.85862 2.38638 0
M  V30 31553 C 2981.48 6.25691 2.32522 0
M  V30 31554 H 2980.75 0.459563 0.581277 0
M  V30 31555 H 2983.4 1.65439 0.964472 0
M  V30 31556 H 2981.7 1.61186 3.57108 0
M  V30 31557 H 2983.4 1.99245 3.47998 0
M  V30 31558 H 2979.99 3.25088 2.79314 0
M  V30 31559 H 2984.17 4.21594 2.61863 0
M  V30 31560 H 2979.43 5.61503 2.41919 0
M  V30 31561 H 2983.6 6.58867 2.25537 0
M  V30 31562 H 2981.23 7.29147 2.15055 0
M  V30 31563 N 2982.81 -1.05187 1.1736 0
M  V30 31564 C 2983.75 -2.15041 0.886565 0
M  V30 31565 C 2984.75 -1.68745 -0.148804 0
M  V30 31566 O 2985.95 -1.8 -0.00171959 0
M  V30 31567 H 2982.33 -0.70218 0.26916 0
M  V30 31568 H 2984.3 -2.36455 1.8202 0
M  V30 31569 C 2983.05 -3.45198 0.416394 0
M  V30 31570 H 2982.37 -3.81222 1.20456 0
M  V30 31571 H 2983.81 -4.23236 0.254436 0
M  V30 31572 C 2982.27 -3.25581 -0.865959 0
M  V30 31573 O 2982.8 -3.52148 -1.93274 0
M  V30 31574 N 2981.01 -2.78963 -0.81413 0
M  V30 31575 H 2980.55 -2.57543 0.0542071 0
M  V30 31576 H 2980.51 -2.66217 -1.67259 0
M  V30 31577 N 2984.28 -0.97385 -1.23911 0
M  V30 31578 C 2985.53 -0.637851 -1.9177 0
M  V30 31579 C 2985.85 0.830404 -1.76435 0
M  V30 31580 O 2985.12 1.59337 -1.13968 0
M  V30 31581 H 2983.7 -0.232925 -0.709757 0
M  V30 31582 H 2986.36 -1.23625 -1.50675 0
M  V30 31583 H 2985.46 -0.883783 -2.99325 0
M  V30 31584 N 2985.76 1.38895 -0.744705 0
M  V30 31585 C 2986.71 2.32383 -0.100353 0
M  V30 31586 C 2987.7 1.53564 0.715164 0
M  V30 31587 O 2988.91 1.69158 0.615259 0
M  V30 31588 H 2985.28 0.751876 -0.0136536 0
M  V30 31589 H 2987.26 2.84344 -0.905057 0
M  V30 31590 C 2986 3.38714 0.785373 0
M  V30 31591 H 2985.33 3.9945 0.167238 0
M  V30 31592 H 2986.77 4.06556 1.20367 0
M  V30 31593 C 2985.23 2.76555 1.92403 0
M  V30 31594 O 2985.76 2.65163 3.01748 0
M  V30 31595 N 2983.96 2.34497 1.71638 0
M  V30 31596 H 2983.51 2.43963 0.827036 0
M  V30 31597 H 2983.47 1.93249 2.47996 0
M  V30 31598 N 2987.24 0.493084 1.49688 0
M  V30 31599 C 2988.47 -0.053475 2.07331 0
M  V30 31600 C 2988.89 -1.30779 1.35198 0
M  V30 31601 O 2988.25 -1.76689 0.406277 0
M  V30 31602 C 2988.3 -0.298187 3.59365 0
M  V30 31603 O 2987.4 -1.37447 3.88821 0
M  V30 31604 H 2986.74 0.0227134 0.663611 0
M  V30 31605 H 2989.27 0.690436 1.92598 0
M  V30 31606 H 2989.28 -0.532088 4.04516 0
M  V30 31607 H 2987.96 0.618279 4.11279 0
M  V30 31608 H 2986.53 -1.12615 3.55489 0
M  V30 31609 N 2988.72 -1.55963 0.226582 0
M  V30 31610 C 2990 -1.90281 -0.453025 0
M  V30 31611 C 2990.38 -1.14461 -1.77375 0
M  V30 31612 O 2989.72 -0.255536 -2.27067 0
M  V30 31613 C 2989.93 -3.43062 -0.641047 0
M  V30 31614 C 2991.28 -4.13923 -0.946192 0
M  V30 31615 O 2992.31 -3.48688 -0.727652 0
M  V30 31616 O 2991.16 -5.29276 -1.36122 0
M  V30 31617 H 2988.26 -0.79134 -0.240228 0
M  V30 31618 H 2990.8 -1.67552 0.26914 0
M  V30 31619 H 2989.58 -3.90221 0.290351 0
M  V30 31620 H 2989.2 -3.71588 -1.41451 0
M  V30 31621 N 2990.2 0.0467589 -1.57531 0
M  V30 31622 C 2991.16 1.03735 -2.04381 0
M  V30 31623 C 2992.16 1.30108 -0.944904 0
M  V30 31624 O 2993.35 1.25408 -1.20906 0
M  V30 31625 C 2990.48 2.37477 -2.44576 0
M  V30 31626 H 2991.67 0.633011 -2.93143 0
M  V30 31627 H 2989.23 0.29315 -1.53526 0
M  V30 31628 H 2989.96 2.82694 -1.58916 0
M  V30 31629 H 2989.75 2.1967 -3.24789 0
M  V30 31630 H 2991.24 3.08631 -2.81312 0
M  V30 31631 N 2991.67 1.54344 0.318688 0
M  V30 31632 C 2992.9 1.77071 1.07984 0
M  V30 31633 C 2993.32 0.520148 1.80765 0
M  V30 31634 O 2992.68 -0.528535 1.73425 0
M  V30 31635 C 2992.73 2.96673 2.04982 0
M  V30 31636 O 2991.83 2.68559 3.12969 0
M  V30 31637 H 2991.18 0.586612 0.311099 0
M  V30 31638 H 2993.71 2.01381 0.361497 0
M  V30 31639 H 2993.72 3.24155 2.47765 0
M  V30 31640 H 2992.39 3.8736 1.5141 0
M  V30 31641 H 2990.97 2.52041 2.74826 0
M  V30 31642 N 2993.15 -0.580999 1.465 0
M  V30 31643 C 2994.38 -1.36514 1.55472 0
M  V30 31644 C 2994.8 -1.87775 0.19644 0
M  V30 31645 O 2994.15 -1.6371 -0.806548 0
M  V30 31646 C 2994.2 -2.55149 2.56088 0
M  V30 31647 O 2993.92 -2.06012 3.8664 0
M  V30 31648 C 2995.43 -3.47679 2.75017 0
M  V30 31649 H 2992.65 -0.416977 0.52571 0
M  V30 31650 H 2995.19 -0.706144 1.91922 0
M  V30 31651 H 2993.34 -3.17035 2.22638 0
M  V30 31652 H 2993.76 -2.83285 4.41418 0
M  V30 31653 H 2995.23 -4.27397 3.49336 0
M  V30 31654 H 2995.71 -3.99722 1.81985 0
M  V30 31655 H 2996.32 -2.91627 3.0957 0
M  V30 31656 N 2994.63 -1.34234 -0.825776 0
M  V30 31657 C 2995.88 -1.25773 -1.57684 0
M  V30 31658 C 2996.19 0.171338 -1.94848 0
M  V30 31659 O 2997.4 0.378076 -2.68855 0
M  V30 31660 C 2995.85 -2.20459 -2.84474 0
M  V30 31661 C 2995.46 -3.68607 -2.54623 0
M  V30 31662 C 2997.21 -2.209 -3.62496 0
M  V30 31663 C 2995.11 -4.55171 -3.77589 0
M  V30 31664 H 2994.04 -0.467213 -0.591801 0
M  V30 31665 H 2996.69 -1.59381 -0.909393 0
M  V30 31666 H 2995.08 -1.79799 -3.52829 0
M  V30 31667 H 2996.25 -4.17788 -1.94397 0
M  V30 31668 H 2994.57 -3.70586 -1.89882 0
M  V30 31669 H 2997.16 -2.82797 -4.53795 0
M  V30 31670 H 2997.51 -1.20753 -3.98402 0
M  V30 31671 H 2998.04 -2.5999 -3.01081 0
M  V30 31672 H 2994.78 -5.56243 -3.46806 0
M  V30 31673 H 2994.3 -4.10727 -4.37108 0
M  V30 31674 H 2995.98 -4.69635 -4.4503 0
M  V30 31675 N 2996.11 1.04563 -1.17917 0
M  V30 31676 C 2997.06 2.1246 -0.901642 0
M  V30 31677 C 2998.03 1.65357 0.156982 0
M  V30 31678 O 2999.21 1.90791 0.0184158 0
M  V30 31679 C 2996.35 3.42435 -0.42802 0
M  V30 31680 C 2995.46 4.03178 -1.55149 0
M  V30 31681 C 2994.6 5.21097 -1.0311 0
M  V30 31682 C 2993.64 5.73859 -2.1296 0
M  V30 31683 N 2992.77 6.83071 -1.62351 0
M  V30 31684 H 2997.61 2.35537 -1.82555 0
M  V30 31685 H 2995.15 1.15542 -0.910409 0
M  V30 31686 H 2997.11 4.16982 -0.134932 0
M  V30 31687 H 2995.74 3.19521 0.458921 0
M  V30 31688 H 2994.79 3.26008 -1.96017 0
M  V30 31689 H 2996.1 4.38371 -2.37976 0
M  V30 31690 H 2995.26 6.02738 -0.692238 0
M  V30 31691 H 2994 4.87395 -0.172356 0
M  V30 31692 H 2993 4.90843 -2.47696 0
M  V30 31693 H 2994.23 6.09606 -2.99261 0
M  V30 31694 H 2992.17 6.51255 -0.787578 0
M  V30 31695 H 2992.09 7.17301 -2.38779 0
M  V30 31696 H 2993.36 7.68349 -1.31377 0
M  V30 31697 N 2997.59 0.980408 1.23393 0
M  V30 31698 C 2998.5 0.528904 2.2856 0
M  V30 31699 C 2999.51 -0.416299 1.68947 0
M  V30 31700 O 3000.69 -0.286216 1.99356 0
M  V30 31701 C 2997.75 -0.161489 3.46324 0
M  V30 31702 C 2996.81 0.825118 4.21296 0
M  V30 31703 C 2996.05 0.167577 5.33437 0
M  V30 31704 O 2996.27 -1.04136 5.60814 0
M  V30 31705 O 2995.2 0.866152 5.95635 0
M  V30 31706 H 2999.03 1.40351 2.69324 0
M  V30 31707 H 2996.62 0.748042 1.29324 0
M  V30 31708 H 2998.5 -0.548767 4.17812 0
M  V30 31709 H 2997.17 -1.01086 3.07511 0
M  V30 31710 H 2996.08 1.2631 3.52132 0
M  V30 31711 H 2997.41 1.6433 4.63957 0
M  V30 31712 N 2999.06 -1.38498 0.75206 0
M  V30 31713 C 3000.01 -2.32327 0.112675 0
M  V30 31714 C 3001.01 -1.53941 -0.70701 0
M  V30 31715 O 3002.21 -1.69482 -0.606279 0
M  V30 31716 H 2998.59 -0.751793 0.0176407 0
M  V30 31717 H 3000.56 -2.8386 0.920124 0
M  V30 31718 C 2999.31 -3.39126 -0.767399 0
M  V30 31719 H 2998.63 -3.99533 -0.146052 0
M  V30 31720 H 3000.07 -4.07189 -1.18209 0
M  V30 31721 C 2998.53 -2.77572 -1.90934 0
M  V30 31722 O 2999.06 -2.66759 -3.00337 0
M  V30 31723 N 2997.27 -2.35404 -1.70392 0
M  V30 31724 H 2996.81 -2.44398 -0.814087 0
M  V30 31725 H 2996.77 -1.94561 -2.46968 0
M  V30 31726 N 3000.54 -0.501015 -1.49424 0
M  V30 31727 C 3001.47 0.314119 -2.27037 0
M  V30 31728 C 3002.49 0.930603 -1.3358 0
M  V30 31729 O 3003.68 0.81394 -1.58862 0
M  V30 31730 C 3000.78 1.45724 -3.0597 0
M  V30 31731 C 2999.95 0.94806 -4.27002 0
M  V30 31732 C 2999.01 1.96879 -4.87981 0
M  V30 31733 O 2998.03 1.53733 -5.48046 0
M  V30 31734 N 2999.24 3.2992 -4.77633 0
M  V30 31735 H 3002 -0.351388 -2.97633 0
M  V30 31736 H 2999.56 -0.333564 -1.58427 0
M  V30 31737 H 3001.55 2.13764 -3.43638 0
M  V30 31738 H 3000.12 2.0269 -2.37982 0
M  V30 31739 H 2999.34 0.0925618 -3.94091 0
M  V30 31740 H 3000.63 0.586273 -5.05411 0
M  V30 31741 H 3000.03 3.67661 -4.29932 0
M  V30 31742 H 2998.59 3.93673 -5.19485 0
M  V30 31743 N 3002.02 1.5584 -0.234849 0
M  V30 31744 C 3003.27 1.98645 0.393225 0
M  V30 31745 C 3003.6 1.12277 1.58821 0
M  V30 31746 O 3002.85 0.170765 1.94954 0
M  V30 31747 C 3003.15 3.46949 0.857971 0
M  V30 31748 C 3002.82 4.50323 -0.227938 0
M  V30 31749 C 3001.48 4.78314 -0.526212 0
M  V30 31750 C 3003.83 5.12251 -0.961666 0
M  V30 31751 C 3001.16 5.65511 -1.5625 0
M  V30 31752 C 3003.51 6.00571 -1.98739 0
M  V30 31753 C 3002.17 6.269 -2.29244 0
M  V30 31754 H 3001.44 0.726895 0.143891 0
M  V30 31755 H 3004.09 1.88455 -0.340153 0
M  V30 31756 H 3002.4 3.5441 1.67034 0
M  V30 31757 H 3004.09 3.77449 1.35401 0
M  V30 31758 H 3000.68 4.28597 0.014687 0
M  V30 31759 H 3004.87 4.90684 -0.744474 0
M  V30 31760 H 3000.12 5.8417 -1.80432 0
M  V30 31761 H 3004.3 6.47603 -2.56091 0
M  V30 31762 H 3001.92 6.94262 -3.09683 0
M  V30 31763 N 3003.5 -0.038404 1.57553 0
M  V30 31764 C 3004.78 -0.765971 1.79978 0
M  V30 31765 C 3005.16 -1.9407 0.83066 0
M  V30 31766 O 3004.5 -2.28134 -0.129203 0
M  V30 31767 C 3004.71 -1.20776 3.27436 0
M  V30 31768 C 3006.06 -1.62751 3.9217 0
M  V30 31769 O 3007.09 -1.30258 3.31529 0
M  V30 31770 O 3005.95 -2.23026 4.98921 0
M  V30 31771 H 3003.04 -0.369641 0.739794 0
M  V30 31772 H 3005.59 -0.0159014 1.69693 0
M  V30 31773 H 3004.36 -0.368724 3.89559 0
M  V30 31774 H 3003.98 -2.01813 3.42575 0
M  V30 31775 N 3004.98 -1.54511 -0.310498 0
M  V30 31776 C 3006.39 -1.64439 -0.884113 0
M  V30 31777 C 3006.74 -0.546889 -1.88424 0
M  V30 31778 O 3005.86 0.318072 -2.1405 0
M  V30 31779 C 3006.46 -2.98083 -1.61034 0
M  V30 31780 C 3005.02 -3.10164 -2.1325 0
M  V30 31781 C 3004.17 -2.60075 -0.962084 0
M  V30 31782 H 3007.12 -1.58457 -0.0877387 0
M  V30 31783 H 3007.14 -2.88974 -2.47536 0
M  V30 31784 H 3006.65 -3.77941 -0.882189 0
M  V30 31785 H 3004.75 -2.35007 -2.89141 0
M  V30 31786 H 3004.86 -4.16173 -2.37354 0
M  V30 31787 H 3003.23 -2.16293 -1.34497 0
M  V30 31788 H 3004.01 -3.42403 -0.248038 0
M  V30 31789 N 3006.46 0.573222 -1.46806 0
M  V30 31790 C 3007.87 1.15536 -1.46657 0
M  V30 31791 C 3008.22 1.95045 -0.212535 0
M  V30 31792 O 3007.34 2.05315 0.683723 0
M  V30 31793 C 3007.94 2.10193 -2.65715 0
M  V30 31794 C 3006.5 2.63711 -2.68577 0
M  V30 31795 C 3005.64 1.39767 -2.395 0
M  V30 31796 H 3008.59 0.360653 -1.54548 0
M  V30 31797 H 3008.62 2.93813 -2.41773 0
M  V30 31798 H 3008.13 1.52297 -3.5697 0
M  V30 31799 H 3006.23 3.2545 -1.81419 0
M  V30 31800 H 3006.34 3.05798 -3.68814 0
M  V30 31801 H 3004.71 1.69901 -1.89752 0
M  V30 31802 H 3005.49 0.836884 -3.32943 0
M  V30 31803 N 3007.93 1.3467 0.818645 0
M  V30 31804 C 3009.18 1.26607 1.57014 0
M  V30 31805 C 3009.5 -0.161002 1.94936 0
M  V30 31806 O 3010.7 -0.363812 2.69051 0
M  V30 31807 C 3009.16 2.21965 2.83301 0
M  V30 31808 C 3008.77 3.69952 2.52664 0
M  V30 31809 C 3010.51 2.22819 3.6132 0
M  V30 31810 C 3008.42 4.57167 3.7517 0
M  V30 31811 H 3007.35 0.470345 0.589315 0
M  V30 31812 H 3010 1.59861 0.900928 0
M  V30 31813 H 3008.38 1.81667 3.51871 0
M  V30 31814 H 3009.55 4.18813 1.92178 0
M  V30 31815 H 3007.87 3.71588 1.87914 0
M  V30 31816 H 3010.47 2.852 4.52289 0
M  V30 31817 H 3010.81 1.22864 3.97756 0
M  V30 31818 H 3011.34 2.61583 2.99698 0
M  V30 31819 H 3008.08 5.58074 3.43851 0
M  V30 31820 H 3007.6 4.13039 4.34924 0
M  V30 31821 H 3009.28 4.71988 4.42534 0
M  V30 31822 N 3009.41 -1.03936 1.1847 0
M  V30 31823 C 3010.66 -1.77421 0.982317 0
M  V30 31824 C 3010.99 -1.88001 -0.486757 0
M  V30 31825 O 3010.27 -1.38907 -1.36143 0
M  V30 31826 C 3010.55 -3.2062 1.63935 0
M  V30 31827 C 3010.4 -3.17976 3.18137 0
M  V30 31828 C 3011.72 -4.18765 1.35367 0
M  V30 31829 H 3008.84 -0.644056 0.358275 0
M  V30 31830 H 3011.48 -1.21402 1.46156 0
M  V30 31831 H 3009.63 -3.68453 1.23186 0
M  V30 31832 H 3011.3 -2.78123 3.68029 0
M  V30 31833 H 3009.55 -2.55972 3.50229 0
M  V30 31834 H 3010.22 -4.19101 3.59247 0
M  V30 31835 H 3012.69 -3.79485 1.70676 0
M  V30 31836 H 3011.57 -5.17175 1.83905 0
M  V30 31837 H 3011.83 -4.41233 0.2768 0
M  V30 31838 N 3010.89 -0.986938 -1.22871 0
M  V30 31839 C 3011.85 -0.537481 -2.22809 0
M  V30 31840 C 3012.85 0.376432 -1.56332 0
M  V30 31841 O 3014.04 0.169216 -1.73376 0
M  V30 31842 C 3011.17 0.219022 -3.40196 0
M  V30 31843 H 3012.37 -1.42121 -2.64087 0
M  V30 31844 H 3009.92 -0.773512 -1.35818 0
M  V30 31845 H 3010.66 1.119 -3.04383 0
M  V30 31846 H 3010.44 -0.437095 -3.89656 0
M  V30 31847 H 3011.93 0.521853 -4.14327 0
M  V30 31848 N 3012.37 1.38098 -0.759394 0
M  V30 31849 C 3013.78 1.53483 -0.437633 0
M  V30 31850 C 3013.98 1.72074 1.04846 0
M  V30 31851 O 3013.04 1.73506 1.83445 0
M  V30 31852 C 3014.35 2.73855 -1.24194 0
M  V30 31853 C 3015.9 2.87708 -1.2326 0
M  V30 31854 C 3016.38 4.11048 -2.01999 0
M  V30 31855 N 3017.87 4.18136 -1.99289 0
M  V30 31856 C 3018.6 5.12578 -2.57005 0
M  V30 31857 N 3018.1 6.12656 -3.23457 0
M  V30 31858 N 3019.89 5.04971 -2.46903 0
M  V30 31859 H 3012.04 1.2428 -1.72245 0
M  V30 31860 H 3014.3 0.604192 -0.730518 0
M  V30 31861 H 3014.01 2.66541 -2.29454 0
M  V30 31862 H 3013.88 3.67201 -0.862736 0
M  V30 31863 H 3016.27 2.945 -0.18804 0
M  V30 31864 H 3016.35 1.95356 -1.65136 0
M  V30 31865 H 3016 4.05017 -3.06469 0
M  V30 31866 H 3015.93 5.02491 -1.57513 0
M  V30 31867 H 3018.42 3.46465 -1.50899 0
M  V30 31868 H 3018.73 6.81224 -3.64902 0
M  V30 31869 H 3017.08 6.12971 -3.27553 0
M  V30 31870 H 3020.27 4.25728 -1.94611 0
M  V30 31871 H 3020.44 5.78391 -2.92178 0
M  V30 31872 N 3013.85 0.508932 1.49156 0
M  V30 31873 C 3015.08 -0.0292945 2.06579 0
M  V30 31874 C 3015.48 -1.30643 1.36855 0
M  V30 31875 O 3014.83 -1.78276 0.44311 0
M  V30 31876 C 3014.89 -0.345234 3.57838 0
M  V30 31877 C 3014.55 0.835335 4.49301 0
M  V30 31878 C 3015.55 1.72802 4.90342 0
M  V30 31879 C 3013.23 1.03638 4.91492 0
M  V30 31880 C 3015.23 2.80583 5.72322 0
M  V30 31881 C 3012.92 2.11736 5.73246 0
M  V30 31882 C 3013.91 3.00042 6.13566 0
M  V30 31883 O 3013.6 4.06274 6.93684 0
M  V30 31884 H 3013.33 0.0208312 0.675679 0
M  V30 31885 H 3015.89 0.707823 1.92819 0
M  V30 31886 H 3014.12 -1.13605 3.69636 0
M  V30 31887 H 3015.81 -0.823019 3.97468 0
M  V30 31888 H 3016.57 1.58454 4.58385 0
M  V30 31889 H 3012.45 0.358389 4.59605 0
M  V30 31890 H 3016 3.49538 6.03713 0
M  V30 31891 H 3011.89 2.26076 6.04616 0
M  V30 31892 H 3012.66 4.03724 7.12004 0
M  V30 31893 N 3015.32 -1.55714 0.243111 0
M  V30 31894 C 3016.57 -1.98027 -0.383153 0
M  V30 31895 C 3016.89 -1.13439 -1.59345 0
M  V30 31896 O 3018.09 -1.45749 -2.29062 0
M  V30 31897 C 3016.55 -3.52355 -0.733073 0
M  V30 31898 C 3016.16 -4.45677 0.455618 0
M  V30 31899 C 3017.9 -4.03333 -1.32374 0
M  V30 31900 C 3015.81 -5.91343 0.0820631 0
M  V30 31901 H 3014.74 -0.739545 -0.146931 0
M  V30 31902 H 3017.39 -1.80271 0.342729 0
M  V30 31903 H 3015.77 -3.65792 -1.51698 0
M  V30 31904 H 3016.94 -4.43998 1.23299 0
M  V30 31905 H 3015.26 -4.0516 0.960957 0
M  V30 31906 H 3017.86 -5.0968 -1.61649 0
M  V30 31907 H 3018.2 -3.50456 -2.24692 0
M  V30 31908 H 3018.73 -3.93206 -0.602816 0
M  V30 31909 H 3015.47 -6.48249 0.972285 0
M  V30 31910 H 3014.99 -5.96167 -0.659186 0
M  V30 31911 H 3016.67 -6.46121 -0.337086 0
M  V30 31912 N 3016.8 0.030048 -1.57571 0
M  V30 31913 C 3018.22 0.385675 -1.5487 0
M  V30 31914 C 3018.42 1.76666 -0.969099 0
M  V30 31915 O 3017.47 2.45517 -0.589719 0
M  V30 31916 C 3018.79 0.28843 -2.99314 0
M  V30 31917 C 3020.34 0.365584 -3.10858 0
M  V30 31918 C 3020.81 0.297797 -4.57031 0
M  V30 31919 N 3022.3 0.356622 -4.61825 0
M  V30 31920 C 3023.04 0.327045 -5.72467 0
M  V30 31921 N 3022.53 0.249819 -6.92349 0
M  V30 31922 N 3024.33 0.376702 -5.60836 0
M  V30 31923 H 3016.48 -0.873704 -1.93598 0
M  V30 31924 H 3018.74 -0.332121 -0.887919 0
M  V30 31925 H 3018.45 -0.660531 -3.45442 0
M  V30 31926 H 3018.32 1.08247 -3.61334 0
M  V30 31927 H 3020.71 1.30498 -2.64678 0
M  V30 31928 H 3020.79 -0.457789 -2.5167 0
M  V30 31929 H 3020.43 -0.637924 -5.03878 0
M  V30 31930 H 3020.36 1.13926 -5.14129 0
M  V30 31931 H 3022.85 0.41886 -3.75572 0
M  V30 31932 H 3023.17 0.232324 -7.72451 0
M  V30 31933 H 3021.51 0.215882 -6.94665 0
M  V30 31934 H 3024.7 0.435019 -4.66074 0
M  V30 31935 H 3024.87 0.350185 -6.47053 0
M  V30 31936 N 3018.28 1.54674 0.3023 0
M  V30 31937 C 3019.53 1.73102 1.0353 0
M  V30 31938 C 3019.84 0.523207 1.88473 0
M  V30 31939 O 3021.05 0.589275 2.65028 0
M  V30 31940 C 3019.5 3.06256 1.89038 0
M  V30 31941 C 3019.11 4.34511 1.09105 0
M  V30 31942 C 3020.86 3.34043 2.61945 0
M  V30 31943 C 3018.76 5.58716 1.93882 0
M  V30 31944 H 3017.69 0.645152 0.390249 0
M  V30 31945 H 3020.34 1.81156 0.292369 0
M  V30 31946 H 3018.73 2.92163 2.67313 0
M  V30 31947 H 3019.9 4.59434 0.354515 0
M  V30 31948 H 3018.22 4.13649 0.47785 0
M  V30 31949 H 3020.81 4.24039 3.25722 0
M  V30 31950 H 3021.16 2.52861 3.30707 0
M  V30 31951 H 3021.69 3.491 1.90719 0
M  V30 31952 H 3018.43 6.42562 1.29592 0
M  V30 31953 H 3017.95 5.37981 2.6521 0
M  V30 31954 H 3019.63 5.95924 2.5196 0
M  V30 31955 N 3019.76 -0.565428 1.47108 0
M  V30 31956 C 3020.98 -1.3534 1.57155 0
M  V30 31957 C 3021.41 -1.86817 0.21928 0
M  V30 31958 O 3020.77 -1.62522 -0.80351 0
M  V30 31959 C 3020.81 -2.50496 2.59392 0
M  V30 31960 O 3019.92 -3.52474 2.14092 0
M  V30 31961 H 3019.26 -0.402348 0.528216 0
M  V30 31962 H 3021.79 -0.684155 1.92822 0
M  V30 31963 H 3021.8 -2.97179 2.79551 0
M  V30 31964 H 3020.47 -2.12384 3.57583 0
M  V30 31965 H 3019.05 -3.12153 2.03997 0
M  V30 31966 N 3021.24 -1.35102 -0.811492 0
M  V30 31967 C 3022.65 -1.25185 -1.38513 0
M  V30 31968 C 3023 0.117849 -1.95846 0
M  V30 31969 O 3022.12 1.01863 -1.90926 0
M  V30 31970 C 3022.72 -2.26666 -2.51809 0
M  V30 31971 C 3021.28 -2.20505 -3.05049 0
M  V30 31972 C 3020.42 -2.12644 -1.77983 0
M  V30 31973 H 3023.38 -1.46302 -0.614933 0
M  V30 31974 H 3023.4 -1.89029 -3.30224 0
M  V30 31975 H 3022.91 -3.26344 -2.10051 0
M  V30 31976 H 3021.01 -1.24222 -3.51283 0
M  V30 31977 H 3021.12 -3.12257 -3.63363 0
M  V30 31978 H 3019.49 -1.58544 -1.99339 0
M  V30 31979 H 3020.27 -3.14174 -1.38383 0
M  V30 31980 N 3022.71 1.03306 -1.19019 0
M  V30 31981 C 3023.94 1.80272 -1.01537 0
M  V30 31982 C 3024.36 1.83696 0.436018 0
M  V30 31983 O 3023.71 1.27796 1.30286 0
M  V30 31984 C 3023.77 3.25519 -1.57225 0
M  V30 31985 O 3023.49 3.22352 -2.96683 0
M  V30 31986 C 3024.99 4.19099 -1.44468 0
M  V30 31987 H 3022.21 0.567453 -0.358104 0
M  V30 31988 H 3024.75 1.30147 -1.5774 0
M  V30 31989 H 3022.91 3.72848 -1.0518 0
M  V30 31990 H 3023.32 4.13399 -3.22803 0
M  V30 31991 H 3024.79 5.1892 -1.88219 0
M  V30 31992 H 3025.27 4.37424 -0.394547 0
M  V30 31993 H 3025.88 3.7764 -1.95623 0
M  V30 31994 N 3024.19 0.99344 1.22346 0
M  V30 31995 C 3025.61 0.704263 1.43221 0
M  V30 31996 C 3025.81 -0.724876 1.8801 0
M  V30 31997 O 3024.86 -1.49572 2.03432 0
M  V30 31998 C 3026.18 1.71029 2.47325 0
M  V30 31999 C 3027.73 1.7258 2.61123 0
M  V30 32000 C 3028.2 2.72048 3.68448 0
M  V30 32001 N 3029.69 2.70645 3.75906 0
M  V30 32002 C 3030.43 3.44274 4.58545 0
M  V30 32003 N 3029.92 4.27504 5.45171 0
M  V30 32004 N 3031.72 3.32977 4.5286 0
M  V30 32005 H 3023.87 1.91643 0.915798 0
M  V30 32006 H 3026.13 0.826534 0.464269 0
M  V30 32007 H 3025.84 2.73299 2.21361 0
M  V30 32008 H 3025.71 1.50359 3.45936 0
M  V30 32009 H 3028.1 0.710087 2.86429 0
M  V30 32010 H 3028.18 1.9732 1.62784 0
M  V30 32011 H 3027.82 3.73769 3.43888 0
M  V30 32012 H 3027.75 2.44578 4.66357 0
M  V30 32013 H 3030.24 2.10252 3.1401 0
M  V30 32014 H 3030.56 4.8051 6.05252 0
M  V30 32015 H 3028.9 4.31591 5.44751 0
M  V30 32016 H 3032.09 2.67396 3.8421 0
M  V30 32017 H 3032.26 3.90617 5.17032 0
M  V30 32018 N 3025.67 -1.37693 0.766707 0
M  V30 32019 C 3026.63 -2.28669 0.155889 0
M  V30 32020 C 3027.63 -1.47796 -0.633483 0
M  V30 32021 O 3028.82 -1.68076 -0.457814 0
M  V30 32022 C 3025.96 -3.31694 -0.786907 0
M  V30 32023 H 3027.15 -2.84194 0.957798 0
M  V30 32024 H 3024.7 -1.46874 0.534579 0
M  V30 32025 H 3025.44 -2.81283 -1.61401 0
M  V30 32026 H 3025.22 -3.91465 -0.223113 0
M  V30 32027 H 3026.71 -3.9969 -1.20987 0
M  V30 32028 N 3027.15 -0.516835 -1.48884 0
M  V30 32029 C 3028.38 0.0183387 -2.06592 0
M  V30 32030 C 3028.79 1.29915 -1.37545 0
M  V30 32031 O 3028.13 1.78038 -0.452558 0
M  V30 32032 C 3028.19 0.326252 -3.58017 0
M  V30 32033 C 3027.86 -0.859151 -4.48851 0
M  V30 32034 C 3028.85 -1.754 -4.89419 0
M  V30 32035 C 3026.54 -1.06243 -4.90935 0
M  V30 32036 C 3028.53 -2.83614 -5.70826 0
M  V30 32037 C 3026.22 -2.14773 -5.72115 0
M  V30 32038 C 3027.22 -3.03292 -6.11966 0
M  V30 32039 O 3026.9 -4.09947 -6.91519 0
M  V30 32040 H 3026.64 -0.0244141 -0.675559 0
M  V30 32041 H 3029.19 -0.718039 -1.92441 0
M  V30 32042 H 3027.42 1.11643 -3.70233 0
M  V30 32043 H 3029.11 0.801929 -3.97899 0
M  V30 32044 H 3029.88 -1.60883 -4.57539 0
M  V30 32045 H 3025.75 -0.382758 -4.59408 0
M  V30 32046 H 3029.3 -3.52734 -6.01851 0
M  V30 32047 H 3025.2 -2.29279 -6.03408 0
M  V30 32048 H 3025.96 -4.07494 -7.09853 0
M  V30 32049 N 3028.63 1.55583 -0.251365 0
M  V30 32050 C 3029.57 2.22966 0.662495 0
M  V30 32051 C 3030.57 1.21871 1.1766 0
M  V30 32052 O 3031.77 1.3987 1.13298 0
M  V30 32053 H 3028.15 0.715273 0.232138 0
M  V30 32054 H 3030.12 2.98315 0.0710728 0
M  V30 32055 C 3028.87 2.94624 1.8464 0
M  V30 32056 H 3028.19 3.72189 1.45997 0
M  V30 32057 H 3029.63 3.45129 2.46297 0
M  V30 32058 C 3028.09 1.98748 2.72031 0
M  V30 32059 O 3028.62 1.52341 3.71692 0
M  V30 32060 N 3026.83 1.65754 2.38692 0
M  V30 32061 H 3026.37 2.03688 1.57699 0
M  V30 32062 H 3026.33 1.01872 2.97438 0
M  V30 32063 N 3030.1 -0.0216912 1.57585 0
M  V30 32064 C 3031.52 -0.377457 1.55072 0
M  V30 32065 C 3031.72 -1.76149 0.978454 0
M  V30 32066 O 3030.78 -2.45201 0.602731 0
M  V30 32067 C 3032.09 -0.272552 2.99462 0
M  V30 32068 C 3033.64 -0.349093 3.11047 0
M  V30 32069 C 3034.11 -0.273556 4.57182 0
M  V30 32070 N 3035.6 -0.332125 4.62008 0
M  V30 32071 C 3036.34 -0.296682 5.72632 0
M  V30 32072 N 3035.83 -0.213099 6.92472 0
M  V30 32073 N 3037.63 -0.346954 5.61028 0
M  V30 32074 H 3029.78 0.883959 1.93132 0
M  V30 32075 H 3032.04 0.336825 0.886145 0
M  V30 32076 H 3031.75 0.678841 3.45086 0
M  V30 32077 H 3031.62 -1.06329 3.61903 0
M  V30 32078 H 3034.01 -1.29092 2.65366 0
M  V30 32079 H 3034.09 0.471129 2.51424 0
M  V30 32080 H 3033.73 0.664637 5.03533 0
M  V30 32081 H 3033.66 -1.11198 5.14726 0
M  V30 32082 H 3036.15 -0.398937 3.75788 0
M  V30 32083 H 3036.47 -0.191356 7.72563 0
M  V30 32084 H 3034.81 -0.179039 6.94769 0
M  V30 32085 H 3038 -0.410296 4.66298 0
M  V30 32086 H 3038.18 -0.315865 6.4723 0
M  V30 32087 N 3031.58 -1.54832 -0.294093 0
M  V30 32088 C 3032.99 -1.65368 -0.866622 0
M  V30 32089 C 3033.35 -0.566843 -1.87833 0
M  V30 32090 O 3032.47 0.295351 -2.14375 0
M  V30 32091 C 3033.07 -2.99774 -1.57864 0
M  V30 32092 C 3031.62 -3.12408 -2.09948 0
M  V30 32093 C 3030.77 -2.61081 -0.934446 0
M  V30 32094 H 3033.72 -1.58541 -0.0709273 0
M  V30 32095 H 3033.74 -2.91584 -2.44457 0
M  V30 32096 H 3033.26 -3.78855 -0.842053 0
M  V30 32097 H 3031.36 -2.3806 -2.86632 0
M  V30 32098 H 3031.47 -4.18667 -2.32927 0
M  V30 32099 H 3029.83 -2.17707 -1.32195 0
M  V30 32100 H 3030.62 -3.42647 -0.211708 0
M  V30 32101 N 3033.06 0.557619 -1.47405 0
M  V30 32102 C 3034.29 1.34023 -1.57624 0
M  V30 32103 C 3034.7 1.87439 -0.226289 0
M  V30 32104 O 3034.06 1.64973 0.780401 0
M  V30 32105 C 3034.11 2.51043 -2.60115 0
M  V30 32106 O 3033.83 1.99834 -3.89869 0
M  V30 32107 C 3035.33 3.43259 -2.80514 0
M  V30 32108 H 3032.55 0.40856 -0.532278 0
M  V30 32109 H 3035.1 0.675521 -1.93021 0
M  V30 32110 H 3033.25 3.13453 -2.27654 0
M  V30 32111 H 3033.67 2.76226 -4.45869 0
M  V30 32112 H 3035.14 4.21785 -3.56091 0
M  V30 32113 H 3035.62 3.96777 -1.88321 0
M  V30 32114 H 3036.22 2.86665 -3.14171 0
M  V30 32115 N 3034.54 1.35531 0.804316 0
M  V30 32116 C 3035.47 1.31304 1.93084 0
M  V30 32117 C 3036.45 0.187073 1.69068 0
M  V30 32118 O 3037.64 0.382392 1.90398 0
M  V30 32119 C 3034.77 1.08656 3.29865 0
M  V30 32120 C 3033.72 2.17918 3.68369 0
M  V30 32121 C 3033.05 1.80432 5.03337 0
M  V30 32122 C 3034.35 3.599 3.78509 0
M  V30 32123 H 3036.04 2.25565 1.96878 0
M  V30 32124 H 3033.59 1.08583 0.945822 0
M  V30 32125 H 3035.54 1.04338 4.08279 0
M  V30 32126 H 3034.26 0.108416 3.2642 0
M  V30 32127 H 3032.92 2.21336 2.92243 0
M  V30 32128 H 3032.57 0.8123 4.96398 0
M  V30 32129 H 3032.27 2.53574 5.3007 0
M  V30 32130 H 3033.79 1.77643 5.84188 0
M  V30 32131 H 3035.21 3.58791 4.47149 0
M  V30 32132 H 3033.6 4.31822 4.16713 0
M  V30 32133 H 3034.67 3.95887 2.80003 0
M  V30 32134 N 3036.02 -1.02674 1.19565 0
M  V30 32135 C 3037.43 -1.2837 0.948327 0
M  V30 32136 C 3037.63 -1.97922 -0.378062 0
M  V30 32137 O 3036.69 -2.2684 -1.10906 0
M  V30 32138 C 3038 -2.12869 2.12384 0
M  V30 32139 C 3039.55 -2.2617 2.1637 0
M  V30 32140 C 3040.03 -3.14042 3.33379 0
M  V30 32141 N 3041.52 -3.2163 3.33329 0
M  V30 32142 C 3042.25 -3.89818 4.20511 0
M  V30 32143 N 3041.75 -4.60218 5.17853 0
M  V30 32144 N 3043.54 -3.86239 4.08382 0
M  V30 32145 H 3035.69 -0.559448 2.049 0
M  V30 32146 H 3037.95 -0.309469 0.896065 0
M  V30 32147 H 3037.66 -1.69089 3.08386 0
M  V30 32148 H 3037.53 -3.13587 2.09627 0
M  V30 32149 H 3039.92 -2.6918 1.20938 0
M  V30 32150 H 3040 -1.24996 2.23181 0
M  V30 32151 H 3039.65 -2.7174 4.29092 0
M  V30 32152 H 3039.58 -4.1528 3.23806 0
M  V30 32153 H 3042.07 -2.71494 2.62868 0
M  V30 32154 H 3042.38 -5.09885 5.80721 0
M  V30 32155 H 3040.73 -4.59076 5.21799 0
M  V30 32156 H 3043.92 -3.30381 3.31612 0
M  V30 32157 H 3044.09 -4.39106 4.7654 0
M  V30 32158 N 3037.5 -0.999914 -1.21817 0
M  V30 32159 C 3038.43 -0.576136 -2.26281 0
M  V30 32160 C 3039.41 0.400508 -1.65318 0
M  V30 32161 O 3040.59 0.289606 -1.92028 0
M  V30 32162 C 3037.72 0.103084 -3.47147 0
M  V30 32163 C 3036.68 -0.792819 -4.20593 0
M  V30 32164 C 3036 0.0197086 -5.34696 0
M  V30 32165 C 3037.3 -2.09302 -4.78529 0
M  V30 32166 H 3039 -1.44934 -2.61982 0
M  V30 32167 H 3036.54 -0.698338 -1.25933 0
M  V30 32168 H 3038.49 0.410994 -4.19391 0
M  V30 32169 H 3037.22 1.01089 -3.10562 0
M  V30 32170 H 3035.88 -1.08448 -3.50192 0
M  V30 32171 H 3035.53 0.928642 -4.94353 0
M  V30 32172 H 3035.23 -0.576763 -5.84763 0
M  V30 32173 H 3036.75 0.321551 -6.09753 0
M  V30 32174 H 3038.16 -1.84859 -5.42679 0
M  V30 32175 H 3036.56 -2.63891 -5.38964 0
M  V30 32176 H 3037.63 -2.76715 -3.98192 0
M  V30 32177 N 3038.97 1.37284 -0.773999 0
M  V30 32178 C 3039.88 2.34036 -0.162612 0
M  V30 32179 C 3040.9 1.6029 0.676994 0
M  V30 32180 O 3042.08 1.92367 0.596389 0
M  V30 32181 C 3039.14 3.39467 0.70451 0
M  V30 32182 C 3038.2 4.29031 -0.151813 0
M  V30 32183 C 3037.43 5.29427 0.674017 0
M  V30 32184 O 3037.66 5.37437 1.91097 0
M  V30 32185 O 3036.59 6.01844 0.082034 0
M  V30 32186 H 3040.42 2.88056 -0.962169 0
M  V30 32187 H 3038 1.39485 -0.535194 0
M  V30 32188 H 3039.88 4.03969 1.19947 0
M  V30 32189 H 3038.56 2.87771 1.48222 0
M  V30 32190 H 3037.47 3.67622 -0.693183 0
M  V30 32191 H 3038.8 4.84038 -0.89266 0
M  V30 32192 N 3040.45 0.524724 1.48608 0
M  V30 32193 C 3041.38 -0.229796 2.32366 0
M  V30 32194 C 3042.36 -0.940104 1.41761 0
M  V30 32195 O 3043.55 -0.926906 1.70652 0
M  V30 32196 C 3040.68 -1.28038 3.22837 0
M  V30 32197 C 3039.63 -0.688529 4.22425 0
M  V30 32198 C 3038.96 -1.84137 5.01994 0
M  V30 32199 C 3040.26 0.336268 5.21216 0
M  V30 32200 H 3041.95 0.469391 2.95698 0
M  V30 32201 H 3039.5 0.227181 1.42197 0
M  V30 32202 H 3041.45 -1.81613 3.80256 0
M  V30 32203 H 3040.17 -2.00907 2.57495 0
M  V30 32204 H 3038.83 -0.174338 3.66185 0
M  V30 32205 H 3038.48 -2.55832 4.33081 0
M  V30 32206 H 3038.18 -1.45132 5.69395 0
M  V30 32207 H 3039.71 -2.38101 5.62263 0
M  V30 32208 H 3041.12 -0.112206 5.7319 0
M  V30 32209 H 3039.52 0.643429 5.96641 0
M  V30 32210 H 3040.59 1.2439 4.68674 0
M  V30 32211 N 3041.93 -1.55447 0.259613 0
M  V30 32212 C 3042.86 -2.19265 -0.667509 0
M  V30 32213 C 3043.87 -1.1727 -1.12923 0
M  V30 32214 O 3045.06 -1.44073 -1.05381 0
M  V30 32215 C 3042.16 -2.79224 -1.92061 0
M  V30 32216 C 3041.34 -4.06761 -1.60825 0
M  V30 32217 C 3040.4 -4.50915 -2.71223 0
M  V30 32218 O 3039.42 -5.17023 -2.38067 0
M  V30 32219 N 3040.62 -4.19759 -4.00977 0
M  V30 32220 H 3043.39 -2.99454 -0.121396 0
M  V30 32221 H 3040.95 -1.61702 0.0800804 0
M  V30 32222 H 3042.94 -3.05714 -2.65181 0
M  V30 32223 H 3041.51 -2.03118 -2.37617 0
M  V30 32224 H 3040.73 -3.87724 -0.711617 0
M  V30 32225 H 3042.02 -4.89886 -1.37437 0
M  V30 32226 H 3041.42 -3.66713 -4.30741 0
M  V30 32227 H 3039.97 -4.51057 -4.70522 0
M  V30 32228 N 3043.41 0.0133338 -1.57594 0
M  V30 32229 C 3044.66 0.699562 -1.89606 0
M  V30 32230 C 3044.98 1.75046 -0.85929 0
M  V30 32231 O 3044.25 1.95618 0.105078 0
M  V30 32232 H 3042.83 0.261373 -0.699781 0
M  V30 32233 H 3045.49 -0.0244386 -1.94885 0
M  V30 32234 H 3044.58 1.17923 -2.88965 0
M  V30 32235 N 3044.89 1.54985 0.285878 0
M  V30 32236 C 3046.13 1.76728 1.02696 0
M  V30 32237 C 3046.49 0.54975 1.83961 0
M  V30 32238 O 3047.69 0.645188 2.60942 0
M  V30 32239 C 3045.96 3.02922 1.89666 0
M  V30 32240 S 3047.52 3.45731 2.70214 0
M  V30 32241 H 3044.34 0.621074 0.346103 0
M  V30 32242 H 3046.94 1.93204 0.298731 0
M  V30 32243 H 3045.64 3.89643 1.28866 0
M  V30 32244 H 3045.18 2.89076 2.66831 0
M  V30 32245 H 3047.19 3.0399 3.92179 0
M  V30 32246 N 3046.36 -0.549794 1.47699 0
M  V30 32247 C 3047.27 -1.68349 1.63389 0
M  V30 32248 C 3048.29 -1.66154 0.516612 0
M  V30 32249 O 3049.47 -1.85467 0.78512 0
M  V30 32250 C 3046.53 -3.04846 1.65135 0
M  V30 32251 C 3045.59 -3.18051 2.88344 0
M  V30 32252 C 3044.83 -4.48037 2.89998 0
M  V30 32253 O 3045.05 -5.33946 2.00643 0
M  V30 32254 O 3043.98 -4.65189 3.81946 0
M  V30 32255 H 3047.81 -1.58053 2.59332 0
M  V30 32256 H 3045.39 -0.720647 1.3087 0
M  V30 32257 H 3047.28 -3.86062 1.6892 0
M  V30 32258 H 3045.95 -3.15508 0.72361 0
M  V30 32259 H 3044.86 -2.36204 2.90101 0
M  V30 32260 H 3046.19 -3.12296 3.80437 0
M  V30 32261 N 3047.84 -1.35955 -0.797117 0
M  V30 32262 C 3049.09 -1.29949 -1.55696 0
M  V30 32263 C 3049.42 0.123225 -1.93809 0
M  V30 32264 O 3048.7 1.07483 -1.62104 0
M  V30 32265 C 3048.98 -2.21495 -2.83922 0
M  V30 32266 C 3048.83 -3.72428 -2.52225 0
M  V30 32267 C 3050.15 -2.11962 -3.85694 0
M  V30 32268 H 3047.27 -0.47338 -0.564872 0
M  V30 32269 H 3049.91 -1.6644 -0.916392 0
M  V30 32270 H 3048.06 -1.90506 -3.38585 0
M  V30 32271 H 3049.73 -4.13902 -2.03673 0
M  V30 32272 H 3047.98 -3.92242 -1.85279 0
M  V30 32273 H 3048.65 -4.31883 -3.43775 0
M  V30 32274 H 3051.12 -2.39224 -3.40457 0
M  V30 32275 H 3050 -2.782 -4.73177 0
M  V30 32276 H 3050.26 -1.1045 -4.28081 0
M  V30 32277 N 3049.32 1.02038 -1.20108 0
M  V30 32278 C 3050.27 2.12615 -0.943268 0
M  V30 32279 C 3051.26 1.6908 0.104012 0
M  V30 32280 O 3052.47 1.79941 -0.0460048 0
M  V30 32281 H 3048.84 0.694797 -0.287682 0
M  V30 32282 H 3050.81 2.31546 -1.88225 0
M  V30 32283 C 3049.56 3.43972 -0.50777 0
M  V30 32284 H 3048.89 3.77895 -1.30521 0
M  V30 32285 H 3050.33 4.22413 -0.366561 0
M  V30 32286 C 3048.79 3.27762 0.779333 0
M  V30 32287 O 3049.32 3.57148 1.8387 0
M  V30 32288 N 3047.52 2.81023 0.739881 0
M  V30 32289 H 3047.07 2.57309 -0.122471 0
M  V30 32290 H 3047.03 2.70558 1.60142 0
M  V30 32291 N 3050.8 1.00636 1.21285 0
M  V30 32292 C 3052.05 0.688471 1.90012 0
M  V30 32293 C 3052.37 -0.783333 1.78575 0
M  V30 32294 O 3051.64 -1.56259 1.18152 0
M  V30 32295 H 3050.22 0.251661 0.703332 0
M  V30 32296 H 3052.88 1.27576 1.47344 0
M  V30 32297 H 3051.98 0.962833 2.96877 0
M  V30 32298 N 3052.28 -1.36872 0.781268 0
M  V30 32299 C 3053.52 -2.0129 0.35522 0
M  V30 32300 C 3053.88 -1.60672 -1.05112 0
M  V30 32301 O 3055.08 -2.1762 -1.57781 0
M  V30 32302 C 3053.35 -3.53819 0.50465 0
M  V30 32303 S 3054.91 -4.38489 0.165273 0
M  V30 32304 H 3051.73 -0.697843 0.136145 0
M  V30 32305 H 3054.33 -1.66906 1.01797 0
M  V30 32306 H 3053.04 -3.80869 1.52863 0
M  V30 32307 H 3052.57 -3.93014 -0.174323 0
M  V30 32308 H 3054.58 -4.85265 -1.03596 0
M  V30 32309 N 3053.75 -0.532597 -1.48328 0
M  V30 32310 C 3054.98 -0.00151401 -2.074 0
M  V30 32311 C 3055.4 1.27149 -1.38618 0
M  V30 32312 O 3054.76 1.7555 -0.45298 0
M  V30 32313 C 3054.81 0.202803 -3.60029 0
M  V30 32314 O 3053.91 1.2709 -3.92329 0
M  V30 32315 H 3053.26 -0.0402999 -0.662776 0
M  V30 32316 H 3055.79 -0.741257 -1.907 0
M  V30 32317 H 3055.8 0.424651 -4.05784 0
M  V30 32318 H 3054.47 -0.727105 -4.09495 0
M  V30 32319 H 3053.05 1.0315 -3.5835 0
M  V30 32320 N 3055.23 1.55307 -0.267853 0
M  V30 32321 C 3056.46 2.0384 0.354551 0
M  V30 32322 C 3056.88 1.14647 1.50005 0
M  V30 32323 O 3056.23 0.165087 1.81752 0
M  V30 32324 C 3056.28 3.51546 0.842479 0
M  V30 32325 O 3056 4.37343 -0.257395 0
M  V30 32326 C 3057.51 4.15933 1.53344 0
M  V30 32327 H 3054.73 0.665995 0.0818014 0
M  V30 32328 H 3057.27 2.00593 -0.39783 0
M  V30 32329 H 3055.42 3.5526 1.54497 0
M  V30 32330 H 3055.84 5.24371 0.116501 0
M  V30 32331 H 3057.31 5.20911 1.82634 0
M  V30 32332 H 3057.79 3.6367 2.46253 0
M  V30 32333 H 3058.4 4.16202 0.874987 0
M  V30 32334 N 3056.71 -0.00497598 1.57599 0
M  V30 32335 C 3058.12 -0.548449 1.78463 0
M  V30 32336 C 3058.47 -1.74242 0.901899 0
M  V30 32337 O 3057.6 -2.16154 0.103052 0
M  V30 32338 C 3058.19 -1.00173 3.23652 0
M  V30 32339 C 3056.75 -1.49055 3.45629 0
M  V30 32340 C 3055.9 -0.439482 2.73795 0
M  V30 32341 H 3058.85 0.221208 1.57151 0
M  V30 32342 H 3058.87 -1.86799 3.31491 0
M  V30 32343 H 3058.38 -0.132539 3.87874 0
M  V30 32344 H 3056.48 -2.3808 2.86616 0
M  V30 32345 H 3056.6 -1.52144 4.54301 0
M  V30 32346 H 3054.96 -0.900001 2.38269 0
M  V30 32347 H 3055.74 0.420659 3.40713 0
M  V30 32348 N 3058.19 -1.55135 -0.277654 0
M  V30 32349 C 3059.12 -1.90703 -1.34739 0
M  V30 32350 C 3060.1 -0.76838 -1.51756 0
M  V30 32351 O 3061.28 -1.02612 -1.64877 0
M  V30 32352 C 3058.41 -2.17486 -2.70771 0
M  V30 32353 C 3057.37 -3.33312 -2.68491 0
M  V30 32354 C 3056.69 -3.45564 -4.08031 0
M  V30 32355 C 3057.99 -4.69825 -2.2817 0
M  V30 32356 H 3059.69 -2.80302 -1.05219 0
M  V30 32357 H 3057.23 -1.34865 -0.504715 0
M  V30 32358 H 3059.19 -2.40955 -3.45714 0
M  V30 32359 H 3057.91 -1.24681 -3.01864 0
M  V30 32360 H 3056.57 -3.09803 -1.96005 0
M  V30 32361 H 3056.22 -2.50234 -4.36339 0
M  V30 32362 H 3055.92 -4.23436 -4.07401 0
M  V30 32363 H 3057.44 -3.71321 -4.8472 0
M  V30 32364 H 3058.86 -4.9287 -2.92835 0
M  V30 32365 H 3057.25 -5.50579 -2.38711 0
M  V30 32366 H 3058.32 -4.68962 -1.23299 0
M  V30 32367 N 3059.67 0.541953 -1.47989 0
M  V30 32368 C 3060.91 1.29584 -1.55088 0
M  V30 32369 C 3061.24 1.9374 -0.221338 0
M  V30 32370 O 3060.51 1.80721 0.756096 0
M  V30 32371 H 3059.09 0.481256 -0.571316 0
M  V30 32372 H 3061.75 0.631642 -1.84381 0
M  V30 32373 H 3060.84 2.0814 -2.3256 0
M  V30 32374 N 3061.15 1.36376 0.789896 0
M  V30 32375 C 3062.08 1.25022 1.90905 0
M  V30 32376 C 3063.06 0.134492 1.62043 0
M  V30 32377 O 3064.24 0.305539 1.86007 0
M  V30 32378 C 3061.37 0.928879 3.25714 0
M  V30 32379 C 3060.41 2.05899 3.73508 0
M  V30 32380 S 3061.25 3.67677 3.89325 0
M  V30 32381 C 3062.4 3.37654 5.27011 0
M  V30 32382 H 3062.64 2.19749 2.00244 0
M  V30 32383 H 3060.17 1.21786 0.949076 0
M  V30 32384 H 3062.13 0.75029 4.03585 0
M  V30 32385 H 3060.79 -0.000603214 3.141 0
M  V30 32386 H 3059.98 1.7887 4.71192 0
M  V30 32387 H 3059.58 2.19677 3.02685 0
M  V30 32388 H 3061.87 2.91518 6.11575 0
M  V30 32389 H 3062.82 4.346 5.59043 0
M  V30 32390 H 3063.23 2.73014 4.94088 0
M  V30 32391 N 3062.62 -1.014 1.20647 0
M  V30 32392 C 3063.53 -2.13452 0.973422 0
M  V30 32393 C 3064.55 -1.73853 -0.071556 0
M  V30 32394 O 3065.73 -2.01063 0.116474 0
M  V30 32395 C 3062.79 -3.42604 0.531345 0
M  V30 32396 C 3061.85 -3.9643 1.64748 0
M  V30 32397 C 3061.08 -5.19418 1.2264 0
M  V30 32398 O 3061.31 -5.70319 0.0961893 0
M  V30 32399 O 3060.24 -5.66461 2.03484 0
M  V30 32400 H 3064.07 -2.35984 1.91168 0
M  V30 32401 H 3061.65 -1.11839 0.990573 0
M  V30 32402 H 3063.53 -4.20372 0.294169 0
M  V30 32403 H 3062.21 -3.21482 -0.378302 0
M  V30 32404 H 3061.12 -3.19929 1.93897 0
M  V30 32405 H 3062.45 -4.21945 2.53423 0
M  V30 32406 N 3064.1 -1.01278 -1.2075 0
M  V30 32407 C 3065.05 -0.573029 -2.25431 0
M  V30 32408 C 3066.04 0.386325 -1.64936 0
M  V30 32409 O 3067.25 0.256665 -1.78161 0
M  V30 32410 H 3063.62 -0.166985 -0.733226 0
M  V30 32411 H 3065.6 -1.46692 -2.59854 0
M  V30 32412 C 3064.34 0.0767638 -3.47615 0
M  V30 32413 H 3063.67 -0.652424 -3.94441 0
M  V30 32414 H 3065.11 0.347626 -4.22573 0
M  V30 32415 C 3063.57 1.3184 -3.10032 0
M  V30 32416 O 3064.1 2.41206 -3.21221 0
M  V30 32417 N 3062.3 1.20106 -2.64618 0
M  V30 32418 H 3061.85 0.311139 -2.55714 0
M  V30 32419 H 3061.81 2.03282 -2.39842 0
M  V30 32420 N 3065.58 1.36456 -0.788516 0
M  V30 32421 C 3066.83 1.98872 -0.359784 0
M  V30 32422 C 3067.15 1.62894 1.07194 0
M  V30 32423 O 3066.42 0.902493 1.73873 0
M  V30 32424 H 3065 0.735594 -0.130042 0
M  V30 32425 H 3067.66 1.66667 -1.01036 0
M  V30 32426 H 3066.76 3.08826 -0.45089 0
M  V30 32427 N 3067.06 0.540456 1.48043 0
M  V30 32428 C 3068 -0.216556 2.29782 0
M  V30 32429 C 3068.97 -0.92407 1.38022 0
M  V30 32430 O 3070.16 -0.923049 1.66986 0
M  V30 32431 C 3067.3 -1.25104 3.21625 0
M  V30 32432 C 3066.41 -0.551309 4.28468 0
M  V30 32433 C 3065.55 -1.56963 5.0748 0
M  V30 32434 C 3064.59 -0.853942 6.06114 0
M  V30 32435 N 3063.72 -1.8183 6.78146 0
M  V30 32436 H 3068.56 0.48663 2.94 0
M  V30 32437 H 3066.1 0.251815 1.44929 0
M  V30 32438 H 3068.06 -1.86323 3.73282 0
M  V30 32439 H 3066.69 -1.92248 2.59308 0
M  V30 32440 H 3065.74 0.175049 3.79997 0
M  V30 32441 H 3067.05 0.0101419 4.98799 0
M  V30 32442 H 3066.21 -2.25582 5.63203 0
M  V30 32443 H 3064.95 -2.16499 4.37012 0
M  V30 32444 H 3063.95 -0.153741 5.49585 0
M  V30 32445 H 3065.18 -0.264556 6.78584 0
M  V30 32446 H 3063.12 -2.40254 6.10421 0
M  V30 32447 H 3063.04 -1.30856 7.44589 0
M  V30 32448 H 3064.31 -2.49615 7.38453 0
M  V30 32449 N 3068.54 -1.55163 0.276085 0
M  V30 32450 C 3069.78 -1.98796 -0.341063 0
M  V30 32451 C 3070.1 -1.16794 -1.56903 0
M  V30 32452 O 3071.3 -1.50575 -2.25919 0
M  V30 32453 C 3069.76 -3.53831 -0.658169 0
M  V30 32454 C 3069.37 -4.4461 0.55005 0
M  V30 32455 C 3071.11 -4.0605 -1.23789 0
M  V30 32456 C 3069.02 -5.91036 0.207477 0
M  V30 32457 H 3067.95 -0.742496 -0.131211 0
M  V30 32458 H 3070.6 -1.79503 0.38089 0
M  V30 32459 H 3068.98 -3.68927 -1.43905 0
M  V30 32460 H 3070.16 -4.41282 1.32689 0
M  V30 32461 H 3068.47 -4.0303 1.04668 0
M  V30 32462 H 3071.07 -5.12994 -1.50802 0
M  V30 32463 H 3071.41 -3.55143 -2.17208 0
M  V30 32464 H 3071.94 -3.94396 -0.519275 0
M  V30 32465 H 3068.68 -6.46041 1.10957 0
M  V30 32466 H 3068.2 -5.97431 -0.532582 0
M  V30 32467 H 3069.88 -6.46691 -0.199959 0
M  V30 32468 N 3070.01 -0.00338196 -1.576 0
M  V30 32469 C 3070.92 1.00319 -2.12069 0
M  V30 32470 C 3071.94 1.37465 -1.06674 0
M  V30 32471 O 3073.12 1.46129 -1.38594 0
M  V30 32472 C 3070.18 2.27526 -2.61597 0
M  V30 32473 C 3069.24 1.96661 -3.81606 0
M  V30 32474 C 3068.47 3.17804 -4.28761 0
M  V30 32475 O 3068.7 4.29603 -3.7523 0
M  V30 32476 O 3067.63 3.01604 -5.20882 0
M  V30 32477 H 3071.46 0.570147 -2.983 0
M  V30 32478 H 3069.04 0.215656 -1.47835 0
M  V30 32479 H 3070.92 3.02251 -2.93636 0
M  V30 32480 H 3069.6 2.70062 -1.78461 0
M  V30 32481 H 3068.51 1.19402 -3.54534 0
M  V30 32482 H 3069.84 1.5896 -4.65825 0
M  V30 32483 N 3071.49 1.5528 0.269423 0
M  V30 32484 C 3072.44 1.892 1.353 0
M  V30 32485 C 3073.43 0.768697 1.50955 0
M  V30 32486 O 3074.64 0.953081 1.52697 0
M  V30 32487 H 3071.01 0.600562 0.45258 0
M  V30 32488 H 3072.99 2.79711 1.03944 0
M  V30 32489 C 3071.73 2.1836 2.70581 0
M  V30 32490 H 3071.06 3.04286 2.59327 0
M  V30 32491 H 3072.5 2.46013 3.45331 0
M  V30 32492 C 3070.96 0.992384 3.21952 0
M  V30 32493 O 3071.49 0.228839 4.01048 0
M  V30 32494 N 3069.69 0.789111 2.79681 0
M  V30 32495 H 3069.24 1.41171 2.15473 0
M  V30 32496 H 3069.2 -0.00629249 3.14399 0
M  V30 32497 N 3072.97 -0.534097 1.48274 0
M  V30 32498 C 3073.92 -1.63908 1.6249 0
M  V30 32499 C 3074.89 -1.59397 0.46709 0
M  V30 32500 O 3076.07 -1.77884 0.69006 0
M  V30 32501 C 3073.21 -3.0218 1.66676 0
M  V30 32502 C 3072.32 -3.16955 2.93536 0
M  V30 32503 C 3071.46 -4.45763 2.8891 0
M  V30 32504 C 3070.5 -4.54052 4.10491 0
M  V30 32505 N 3069.64 -5.74243 4.03966 0
M  V30 32506 H 3074.48 -1.51096 2.56854 0
M  V30 32507 H 3072.01 -0.735682 1.27382 0
M  V30 32508 H 3073.97 -3.8228 1.67086 0
M  V30 32509 H 3072.6 -3.13773 0.758066 0
M  V30 32510 H 3071.65 -2.30135 3.0289 0
M  V30 32511 H 3072.96 -3.18942 3.83507 0
M  V30 32512 H 3072.12 -5.34149 2.87697 0
M  V30 32513 H 3070.86 -4.46291 1.9666 0
M  V30 32514 H 3069.86 -3.64074 4.11984 0
M  V30 32515 H 3071.09 -4.55265 5.03895 0
M  V30 32516 H 3069.03 -5.75677 3.14535 0
M  V30 32517 H 3068.95 -5.77707 4.87638 0
M  V30 32518 H 3070.22 -6.64928 4.06806 0
M  V30 32519 N 3074.45 -1.36793 -0.782652 0
M  V30 32520 C 3075.38 -1.27539 -1.90437 0
M  V30 32521 C 3076.39 -0.193455 -1.61647 0
M  V30 32522 O 3077.58 -0.448723 -1.72768 0
M  V30 32523 C 3074.68 -0.946698 -3.25409 0
M  V30 32524 C 3073.85 -2.13189 -3.81928 0
M  V30 32525 C 3072.91 -1.77519 -4.95352 0
M  V30 32526 O 3071.94 -2.49687 -5.11512 0
M  V30 32527 N 3073.14 -0.712857 -5.76106 0
M  V30 32528 H 3075.91 -2.24189 -1.98895 0
M  V30 32529 H 3073.47 -1.30275 -0.961247 0
M  V30 32530 H 3075.46 -0.689113 -3.9879 0
M  V30 32531 H 3074.03 -0.0691141 -3.12524 0
M  V30 32532 H 3073.25 -2.55188 -3.00454 0
M  V30 32533 H 3074.54 -2.92355 -4.16421 0
M  V30 32534 H 3073.94 -0.113762 -5.65586 0
M  V30 32535 H 3072.49 -0.515109 -6.49761 0
M  V30 32536 N 3075.93 1.00759 -1.21184 0
M  V30 32537 C 3077.18 1.73909 -1.02169 0
M  V30 32538 C 3077.49 1.90457 0.445605 0
M  V30 32539 O 3078.69 2.60789 0.755086 0
M  V30 32540 C 3077.15 3.12833 -1.77942 0
M  V30 32541 C 3076.76 3.04267 -3.28824 0
M  V30 32542 C 3078.5 3.90131 -1.67326 0
M  V30 32543 C 3076.41 4.38255 -3.97097 0
M  V30 32544 H 3075.34 0.652013 -0.378676 0
M  V30 32545 H 3077.99 1.12598 -1.44893 0
M  V30 32546 H 3076.37 3.74739 -1.28009 0
M  V30 32547 H 3077.55 2.51615 -3.8604 0
M  V30 32548 H 3075.86 2.40459 -3.39953 0
M  V30 32549 H 3078.46 4.89277 -2.15668 0
M  V30 32550 H 3078.8 4.1149 -0.631032 0
M  V30 32551 H 3079.33 3.34872 -2.14722 0
M  V30 32552 H 3076.07 4.22099 -5.01511 0
M  V30 32553 H 3075.59 4.90879 -3.44671 0
M  V30 32554 H 3077.27 5.07065 -4.01863 0
M  V30 32555 N 3077.4 1.01917 1.20211 0
M  V30 32556 C 3078.63 0.729289 1.93621 0
M  V30 32557 C 3079.05 -0.710413 1.74924 0
M  V30 32558 O 3078.4 -1.48212 1.06487 0
M  V30 32559 C 3078.46 1.05871 3.45649 0
M  V30 32560 O 3078.18 2.44187 3.63737 0
M  V30 32561 C 3079.68 0.790253 4.36199 0
M  V30 32562 H 3076.9 0.267605 0.615328 0
M  V30 32563 H 3079.44 1.36104 1.5263 0
M  V30 32564 H 3077.6 0.472317 3.8451 0
M  V30 32565 H 3078.01 2.56151 4.57697 0
M  V30 32566 H 3079.48 1.0708 5.41514 0
M  V30 32567 H 3079.96 -0.275532 4.38335 0
M  V30 32568 H 3080.57 1.35892 4.03005 0
M  V30 32569 N 3078.88 -1.36036 0.795742 0
M  V30 32570 C 3079.85 -2.28287 0.204358 0
M  V30 32571 C 3080.85 -1.49106 -0.601991 0
M  V30 32572 O 3082.04 -1.6901 -0.42206 0
M  V30 32573 C 3079.17 -3.33288 -0.716373 0
M  V30 32574 H 3080.36 -2.82098 1.01786 0
M  V30 32575 H 3077.91 -1.45707 0.565613 0
M  V30 32576 H 3078.65 -2.84644 -1.55398 0
M  V30 32577 H 3078.43 -3.9185 -0.140028 0
M  V30 32578 H 3079.92 -4.02166 -1.12481 0
M  V30 32579 N 3080.36 -0.5483 -1.47755 0
M  V30 32580 C 3081.59 -0.0235115 -2.07387 0
M  V30 32581 C 3082.01 1.25671 -1.39958 0
M  V30 32582 O 3081.37 1.7506 -0.471574 0
M  V30 32583 C 3081.42 0.164605 -3.60224 0
M  V30 32584 O 3080.52 1.22921 -3.93655 0
M  V30 32585 H 3079.86 -0.0473273 -0.662311 0
M  V30 32586 H 3082.39 -0.761442 -1.89903 0
M  V30 32587 H 3082.4 0.381588 -4.06212 0
M  V30 32588 H 3081.08 -0.770497 -4.08701 0
M  V30 32589 H 3079.65 0.993432 -3.59424 0
M  V30 32590 N 3081.84 1.55014 -0.28431 0
M  V30 32591 C 3083.06 2.04664 0.335763 0
M  V30 32592 C 3083.49 1.16097 1.47997 0
M  V30 32593 O 3082.85 0.161486 1.80579 0
M  V30 32594 C 3082.89 3.5194 0.785553 0
M  V30 32595 O 3082 3.66441 1.89196 0
M  V30 32596 H 3081.34 0.660508 0.0680117 0
M  V30 32597 H 3083.87 2.00216 -0.42129 0
M  V30 32598 H 3083.88 3.93478 1.07885 0
M  V30 32599 H 3082.55 4.15868 -0.0515406 0
M  V30 32600 H 3081.13 3.36807 1.60049 0
M  V30 32601 N 3083.32 0.0117398 1.57596 0
M  V30 32602 C 3084.56 -0.670634 1.91073 0
M  V30 32603 C 3084.89 -1.73123 0.886487 0
M  V30 32604 O 3084.15 -1.95407 -0.107101 0
M  V30 32605 C 3084.45 -1.34076 3.31298 0
M  V30 32606 C 3084.11 -0.412226 4.49012 0
M  V30 32607 C 3082.77 -0.156607 4.80945 0
M  V30 32608 C 3085.13 0.226386 5.20708 0
M  V30 32609 C 3082.45 0.745722 5.81941 0
M  V30 32610 C 3084.81 1.11666 6.22666 0
M  V30 32611 C 3083.47 1.38134 6.53051 0
M  V30 32612 H 3082.74 -0.245402 0.699184 0
M  V30 32613 H 3085.39 0.0697847 1.91373 0
M  V30 32614 H 3083.69 -2.15551 3.27177 0
M  V30 32615 H 3085.39 -1.87499 3.54464 0
M  V30 32616 H 3081.98 -0.62163 4.24068 0
M  V30 32617 H 3086.16 0.0419328 4.96282 0
M  V30 32618 H 3081.42 0.958672 6.03837 0
M  V30 32619 H 3085.59 1.61779 6.77348 0
M  V30 32620 H 3083.22 2.08221 7.31128 0
M  V30 32621 N 3084.79 -1.55421 -0.261185 0
M  V30 32622 C 3085.74 -1.89109 -1.32311 0
M  V30 32623 C 3086.71 -0.743794 -1.48516 0
M  V30 32624 O 3087.9 -0.996151 -1.62731 0
M  V30 32625 C 3085.04 -2.17881 -2.67622 0
M  V30 32626 C 3084.15 -3.45342 -2.59543 0
M  V30 32627 C 3083.28 -3.63755 -3.87112 0
M  V30 32628 C 3082.32 -4.84867 -3.73591 0
M  V30 32629 N 3081.46 -4.99875 -4.9302 0
M  V30 32630 H 3086.3 -2.79677 -1.02882 0
M  V30 32631 H 3083.84 -1.38457 -0.496787 0
M  V30 32632 H 3085.8 -2.32565 -3.46366 0
M  V30 32633 H 3084.43 -1.30534 -2.9523 0
M  V30 32634 H 3083.48 -3.39067 -1.72446 0
M  V30 32635 H 3084.79 -4.34226 -2.45457 0
M  V30 32636 H 3083.94 -3.7832 -4.74298 0
M  V30 32637 H 3082.68 -2.73078 -4.04079 0
M  V30 32638 H 3081.69 -4.70293 -2.84789 0
M  V30 32639 H 3082.91 -5.7699 -3.58133 0
M  V30 32640 H 3080.86 -4.12132 -5.10376 0
M  V30 32641 H 3080.78 -5.82824 -4.8151 0
M  V30 32642 H 3082.04 -5.18838 -5.81745 0
M  V30 32643 N 3086.27 0.526227 -1.48555 0
M  V30 32644 C 3087.22 1.63043 -1.63357 0
M  V30 32645 C 3088.19 1.59147 -0.475537 0
M  V30 32646 O 3089.37 1.77516 -0.699484 0
M  V30 32647 C 3086.51 3.01292 -1.68277 0
M  V30 32648 C 3085.63 3.15394 -2.95213 0
M  V30 32649 C 3084.76 4.44225 -2.91269 0
M  V30 32650 C 3083.8 4.51869 -4.12894 0
M  V30 32651 N 3082.94 5.72093 -4.07006 0
M  V30 32652 H 3087.78 1.49732 -2.57651 0
M  V30 32653 H 3085.32 0.728916 -1.2777 0
M  V30 32654 H 3087.27 3.81389 -1.69111 0
M  V30 32655 H 3085.9 3.13366 -0.774696 0
M  V30 32656 H 3084.96 2.28525 -3.04106 0
M  V30 32657 H 3086.27 3.16904 -3.85193 0
M  V30 32658 H 3085.42 5.32616 -2.90526 0
M  V30 32659 H 3084.16 4.45242 -1.99024 0
M  V30 32660 H 3083.17 3.61884 -4.13908 0
M  V30 32661 H 3084.39 4.52587 -5.06302 0
M  V30 32662 H 3082.34 5.74001 -3.17583 0
M  V30 32663 H 3082.25 5.75112 -4.90695 0
M  V30 32664 H 3083.52 6.62761 -4.10327 0
M  V30 32665 N 3087.75 1.37206 0.775387 0
M  V30 32666 C 3088.98 1.3557 1.56957 0
M  V30 32667 C 3089.4 -0.0575224 1.88012 0
M  V30 32668 O 3088.76 -1.03353 1.48956 0
M  V30 32669 C 3088.81 2.19781 2.85882 0
M  V30 32670 O 3087.91 1.59994 3.801 0
M  V30 32671 H 3087.25 0.463383 0.475575 0
M  V30 32672 H 3089.78 1.80681 0.959978 0
M  V30 32673 H 3089.79 2.32865 3.3502 0
M  V30 32674 H 3088.47 3.22506 2.62607 0
M  V30 32675 H 3087.04 1.5593 3.38733 0
M  V30 32676 N 3089.23 -1.00115 1.21716 0
M  V30 32677 C 3090.47 -1.74304 1.04832 0
M  V30 32678 C 3090.83 -1.87907 -0.413354 0
M  V30 32679 O 3090.12 -1.40514 -1.30255 0
M  V30 32680 C 3090.32 -3.15267 1.6835 0
M  V30 32681 C 3090.15 -3.15409 3.20543 0
M  V30 32682 C 3088.92 -3.21769 3.89606 0
M  V30 32683 C 3091.11 -3.00217 4.17582 0
M  V30 32684 N 3089.1 -3.11578 5.28954 0
M  V30 32685 C 3090.47 -2.97965 5.43707 0
M  V30 32686 C 3092.52 -2.84547 4.0858 0
M  V30 32687 C 3091.22 -2.81649 6.61866 0
M  V30 32688 C 3093.25 -2.69589 5.2638 0
M  V30 32689 C 3092.61 -2.68017 6.51419 0
M  V30 32690 H 3088.71 -0.647844 0.437975 0
M  V30 32691 H 3091.3 -1.18962 1.5413 0
M  V30 32692 H 3089.47 -3.68869 1.21614 0
M  V30 32693 H 3091.2 -3.77972 1.44635 0
M  V30 32694 H 3087.95 -3.2912 3.40554 0
M  V30 32695 H 3088.38 -3.09814 6.0195 0
M  V30 32696 H 3093.02 -2.84566 3.12701 0
M  V30 32697 H 3090.74 -2.80377 7.57901 0
M  V30 32698 H 3094.32 -2.58459 5.21239 0
M  V30 32699 H 3093.2 -2.5658 7.41037 0
M  V30 32700 N 3090.71 -1.02553 -1.19669 0
M  V30 32701 C 3091.95 -0.730834 -1.89817 0
M  V30 32702 C 3092.31 0.732324 -1.77918 0
M  V30 32703 O 3091.6 1.52608 -1.1585 0
M  V30 32704 C 3091.8 -1.11247 -3.39645 0
M  V30 32705 C 3091.62 -2.61118 -3.66125 0
M  V30 32706 C 3090.39 -3.28039 -3.84342 0
M  V30 32707 C 3092.59 -3.59322 -3.67956 0
M  V30 32708 N 3090.57 -4.67048 -3.98421 0
M  V30 32709 C 3091.95 -4.83934 -3.87567 0
M  V30 32710 C 3094 -3.53168 -3.50965 0
M  V30 32711 C 3092.7 -6.03134 -3.91946 0
M  V30 32712 C 3094.73 -4.7178 -3.5662 0
M  V30 32713 C 3094.09 -5.95204 -3.76712 0
M  V30 32714 H 3090.19 -0.319245 -0.713867 0
M  V30 32715 H 3092.77 -1.31216 -1.43842 0
M  V30 32716 H 3090.95 -0.559391 -3.84351 0
M  V30 32717 H 3092.68 -0.77038 -3.973 0
M  V30 32718 H 3089.43 -2.78455 -3.83092 0
M  V30 32719 H 3089.86 -5.39248 -4.09317 0
M  V30 32720 H 3094.5 -2.58734 -3.3439 0
M  V30 32721 H 3092.22 -6.9794 -4.07314 0
M  V30 32722 H 3095.8 -4.68643 -3.44768 0
M  V30 32723 H 3094.68 -6.85449 -3.80958 0
M  V30 32724 N 3092.19 1.35612 -0.802945 0
M  V30 32725 C 3093.43 1.98479 -0.380857 0
M  V30 32726 C 3093.75 1.64021 1.05461 0
M  V30 32727 O 3093.02 0.920884 1.72906 0
M  V30 32728 H 3091.6 0.734173 -0.137836 0
M  V30 32729 H 3094.27 1.65586 -1.02798 0
M  V30 32730 H 3093.36 3.0833 -0.483619 0
M  V30 32731 N 3093.66 0.556128 1.47462 0
M  V30 32732 C 3094.94 -0.0339548 1.95571 0
M  V30 32733 C 3095.32 -1.48666 1.49872 0
M  V30 32734 O 3094.67 -2.16286 0.737057 0
M  V30 32735 C 3094.88 0.110404 3.48825 0
M  V30 32736 C 3096.23 -0.035497 4.24585 0
M  V30 32737 O 3097.25 0.0378982 3.5618 0
M  V30 32738 O 3096.11 -0.193203 5.46158 0
M  V30 32739 H 3093.2 -0.0647376 0.824462 0
M  V30 32740 H 3095.75 0.622575 1.57867 0
M  V30 32741 H 3094.52 1.12133 3.74889 0
M  V30 32742 H 3094.14 -0.583786 3.93291 0
M  V30 32743 N 3095.14 -1.54861 0.292527 0
M  V30 32744 C 3096.37 -2.04081 -0.321611 0
M  V30 32745 C 3096.78 -1.1697 -1.4871 0
M  V30 32746 O 3096.12 -0.186122 -1.82755 0
M  V30 32747 C 3096.18 -3.4934 -0.848617 0
M  V30 32748 C 3095.85 -4.56603 0.190496 0
M  V30 32749 C 3096.85 -5.09875 1.01604 0
M  V30 32750 C 3094.53 -5.01216 0.329754 0
M  V30 32751 C 3096.52 -6.06295 1.96687 0
M  V30 32752 C 3094.21 -5.97458 1.28403 0
M  V30 32753 C 3095.21 -6.4988 2.10108 0
M  V30 32754 O 3094.9 -7.44237 3.0392 0
M  V30 32755 H 3094.63 -0.671817 -0.0750862 0
M  V30 32756 H 3097.18 -2.00901 0.427566 0
M  V30 32757 H 3095.41 -3.49817 -1.64817 0
M  V30 32758 H 3097.1 -3.81803 -1.37772 0
M  V30 32759 H 3097.87 -4.76208 0.919281 0
M  V30 32760 H 3093.75 -4.60047 -0.296237 0
M  V30 32761 H 3097.29 -6.47136 2.605 0
M  V30 32762 H 3093.19 -6.30542 1.38155 0
M  V30 32763 H 3093.96 -7.62011 2.98801 0
M  V30 32764 N 3096.62 -0.0200973 -1.57587 0
M  V30 32765 C 3097.87 0.65573 -1.9254 0
M  V30 32766 C 3098.22 1.70252 -0.896217 0
M  V30 32767 O 3097.51 1.91393 0.0889685 0
M  V30 32768 C 3097.71 1.32317 -3.32004 0
M  V30 32769 C 3097.54 0.342553 -4.48393 0
M  V30 32770 C 3096.31 -0.0543311 -5.05271 0
M  V30 32771 C 3098.5 -0.399478 -5.12746 0
M  V30 32772 N 3096.49 -1.03106 -6.0518 0
M  V30 32773 C 3097.86 -1.23025 -6.07672 0
M  V30 32774 C 3099.91 -0.461153 -4.9576 0
M  V30 32775 C 3098.62 -2.1171 -6.87438 0
M  V30 32776 C 3100.64 -1.33531 -5.76128 0
M  V30 32777 C 3100 -2.15388 -6.70662 0
M  V30 32778 H 3096.1 0.212536 -0.752564 0
M  V30 32779 H 3098.69 -0.0851588 -1.94514 0
M  V30 32780 H 3096.86 2.03425 -3.30867 0
M  V30 32781 H 3098.59 1.9553 -3.5433 0
M  V30 32782 H 3095.34 0.318244 -4.7253 0
M  V30 32783 H 3095.77 -1.5154 -6.59822 0
M  V30 32784 H 3100.41 0.157446 -4.22507 0
M  V30 32785 H 3098.13 -2.74629 -7.60003 0
M  V30 32786 H 3101.71 -1.38721 -5.6502 0
M  V30 32787 H 3100.59 -2.81935 -7.31767 0
M  V30 32788 N 3098.1 1.55557 0.252939 0
M  V30 32789 C 3099.01 1.92933 1.33468 0
M  V30 32790 C 3100.02 0.829012 1.52982 0
M  V30 32791 O 3101.2 1.12987 1.66721 0
M  V30 32792 C 3098.26 2.21116 2.67036 0
M  V30 32793 C 3097.33 3.44547 2.56097 0
M  V30 32794 C 3096.56 3.71376 3.83296 0
M  V30 32795 O 3096.78 3.00377 4.84902 0
M  V30 32796 O 3095.72 4.64905 3.82291 0
M  V30 32797 H 3099.54 2.85059 1.04763 0
M  V30 32798 H 3097.13 1.42361 0.453183 0
M  V30 32799 H 3099.01 2.40578 3.45977 0
M  V30 32800 H 3097.68 1.32171 2.95487 0
M  V30 32801 H 3096.59 3.30399 1.75464 0
M  V30 32802 H 3097.92 4.33776 2.32593 0
M  V30 32803 N 3099.58 -0.518341 1.48832 0
M  V30 32804 C 3100.99 -1.10014 1.50844 0
M  V30 32805 C 3101.34 -1.94122 0.284778 0
M  V30 32806 O 3100.46 -2.07711 -0.607051 0
M  V30 32807 C 3101.06 -2.00186 2.73333 0
M  V30 32808 C 3099.62 -2.53561 2.78179 0
M  V30 32809 C 3098.76 -1.30782 2.44523 0
M  V30 32810 H 3101.71 -0.303045 1.5578 0
M  V30 32811 H 3101.74 -2.84637 2.52511 0
M  V30 32812 H 3101.25 -1.38943 3.62376 0
M  V30 32813 H 3099.35 -3.18493 1.93373 0
M  V30 32814 H 3099.46 -2.91899 3.7991 0
M  V30 32815 H 3097.83 -1.62741 1.95927 0
M  V30 32816 H 3098.61 -0.712738 3.3582 0
M  V30 32817 N 3101.05 -1.37615 -0.7681 0
M  V30 32818 C 3102.3 -1.33025 -1.52678 0
M  V30 32819 C 3102.63 0.0841577 -1.94318 0
M  V30 32820 O 3101.88 1.05817 -1.64624 0
M  V30 32821 C 3102.18 -2.21861 -2.802 0
M  V30 32822 C 3101.85 -3.70075 -2.57595 0
M  V30 32823 C 3100.51 -4.10466 -2.51139 0
M  V30 32824 C 3102.86 -4.63957 -2.37474 0
M  V30 32825 C 3100.19 -5.42849 -2.22556 0
M  V30 32826 C 3102.54 -5.96581 -2.10414 0
M  V30 32827 C 3101.21 -6.36073 -2.02405 0
M  V30 32828 H 3100.48 -0.486773 -0.558689 0
M  V30 32829 H 3103.12 -1.69853 -0.884441 0
M  V30 32830 H 3101.43 -1.78041 -3.49011 0
M  V30 32831 H 3103.13 -2.15621 -3.38095 0
M  V30 32832 H 3099.72 -3.38044 -2.63485 0
M  V30 32833 H 3103.9 -4.33608 -2.4145 0
M  V30 32834 H 3099.16 -5.72406 -2.14853 0
M  V30 32835 H 3103.33 -6.68878 -1.93845 0
M  V30 32836 H 3100.96 -7.38577 -1.80021 0
M  V30 32837 N 3102.53 0.994677 -1.22245 0
M  V30 32838 C 3103.95 1.25811 -0.982028 0
M  V30 32839 C 3104.15 1.98854 0.325453 0
M  V30 32840 O 3103.2 2.297 1.04853 0
M  V30 32841 C 3104.52 2.07164 -2.17954 0
M  V30 32842 C 3106.06 2.20354 -2.22291 0
M  V30 32843 C 3106.54 3.05092 -3.41588 0
M  V30 32844 N 3108.03 3.1268 -3.41739 0
M  V30 32845 C 3108.77 3.78532 -4.30699 0
M  V30 32846 N 3108.26 4.46326 -5.29873 0
M  V30 32847 N 3110.05 3.75275 -4.18479 0
M  V30 32848 H 3102.21 0.504926 -2.06311 0
M  V30 32849 H 3104.47 0.285602 -0.903955 0
M  V30 32850 H 3104.17 1.60853 -3.12761 0
M  V30 32851 H 3104.05 3.07918 -2.17867 0
M  V30 32852 H 3106.44 2.65879 -1.28032 0
M  V30 32853 H 3106.52 1.19035 -2.26416 0
M  V30 32854 H 3106.16 2.60268 -4.36146 0
M  V30 32855 H 3106.09 4.06549 -3.34702 0
M  V30 32856 H 3108.58 2.64429 -2.69974 0
M  V30 32857 H 3108.89 4.94309 -5.94035 0
M  V30 32858 H 3107.24 4.4508 -5.33787 0
M  V30 32859 H 3110.43 3.21472 -3.40255 0
M  V30 32860 H 3110.6 4.26317 -4.88014 0
M  V30 32861 N 3104.01 1.03186 1.19123 0
M  V30 32862 C 3104.97 0.619805 2.2066 0
M  V30 32863 C 3105.97 -0.318151 1.57621 0
M  V30 32864 O 3107.16 -0.104752 1.73885 0
M  V30 32865 C 3104.29 -0.0926097 3.40774 0
M  V30 32866 H 3105.49 1.51824 2.5863 0
M  V30 32867 H 3103.04 0.823387 1.32853 0
M  V30 32868 H 3103.78 -1.00526 3.08326 0
M  V30 32869 H 3103.56 0.581412 3.87765 0
M  V30 32870 H 3105.05 -0.367719 4.15978 0
M  V30 32871 N 3105.49 -1.35184 0.810125 0
M  V30 32872 C 3106.9 -1.51753 0.494295 0
M  V30 32873 C 3107.1 -1.75847 -0.983876 0
M  V30 32874 O 3106.16 -1.80195 -1.76879 0
M  V30 32875 C 3107.47 -2.69056 1.34272 0
M  V30 32876 C 3109.02 -2.82935 1.33853 0
M  V30 32877 C 3109.5 -4.03268 2.17116 0
M  V30 32878 N 3110.99 -4.10452 2.14671 0
M  V30 32879 C 3111.72 -5.02686 2.75852 0
M  V30 32880 N 3111.22 -6.00229 3.45973 0
M  V30 32881 N 3113.01 -4.95459 2.65474 0
M  V30 32882 H 3105.16 -1.17802 1.76738 0
M  V30 32883 H 3107.43 -0.576663 0.752439 0
M  V30 32884 H 3107.13 -2.57841 2.39188 0
M  V30 32885 H 3107.01 -3.63746 0.998426 0
M  V30 32886 H 3109.39 -2.93599 0.297212 0
M  V30 32887 H 3109.47 -1.89092 1.72272 0
M  V30 32888 H 3109.12 -3.93364 3.2129 0
M  V30 32889 H 3109.05 -4.96299 1.76054 0
M  V30 32890 H 3111.54 -3.40626 1.63654 0
M  V30 32891 H 3111.85 -6.67212 3.89934 0
M  V30 32892 H 3110.2 -6.00392 3.50078 0
M  V30 32893 H 3113.39 -4.18212 2.10278 0
M  V30 32894 H 3113.56 -5.67149 3.13443 0
M  V30 32895 N 3106.97 -0.56394 -1.47165 0
M  V30 32896 C 3107.9 0.168107 -2.32894 0
M  V30 32897 C 3108.88 0.902188 -1.44203 0
M  V30 32898 O 3110.06 0.881335 -1.7305 0
M  V30 32899 C 3107.19 1.19433 -3.26118 0
M  V30 32900 C 3106.15 0.576288 -4.24102 0
M  V30 32901 C 3105.47 1.70763 -5.06699 0
M  V30 32902 C 3106.77 -0.474341 -5.20142 0
M  V30 32903 H 3108.47 -0.547625 -2.94349 0
M  V30 32904 H 3106.01 -0.264802 -1.41544 0
M  V30 32905 H 3107.97 1.71467 -3.84938 0
M  V30 32906 H 3106.69 1.9401 -2.62732 0
M  V30 32907 H 3105.35 0.077189 -3.66519 0
M  V30 32908 H 3105 2.4426 -4.39711 0
M  V30 32909 H 3104.7 1.29984 -5.73043 0
M  V30 32910 H 3106.22 2.2311 -5.68379 0
M  V30 32911 H 3107.63 -0.0398043 -5.73286 0
M  V30 32912 H 3106.03 -0.801391 -5.94725 0
M  V30 32913 H 3107.1 -1.36772 -4.65211 0
M  V30 32914 N 3108.44 1.54704 -0.300735 0
M  V30 32915 C 3109.39 2.24961 0.591225 0
M  V30 32916 C 3110.39 1.25552 1.13723 0
M  V30 32917 O 3111.59 1.43404 1.0879 0
M  V30 32918 H 3107.97 0.722296 0.209265 0
M  V30 32919 H 3109.94 2.9839 -0.0238699 0
M  V30 32920 C 3108.69 3.00349 1.75174 0
M  V30 32921 H 3108.01 3.76646 1.34082 0
M  V30 32922 H 3109.45 3.5279 2.35192 0
M  V30 32923 C 3107.91 2.07302 2.6557 0
M  V30 32924 O 3108.44 1.64089 3.66657 0
M  V30 32925 N 3106.65 1.73264 2.33298 0
M  V30 32926 H 3106.19 2.08602 1.51139 0
M  V30 32927 H 3106.15 1.11283 2.94047 0
M  V30 32928 N 3109.92 0.0284543 1.57574 0
M  V30 32929 C 3110.89 -0.938654 2.09098 0
M  V30 32930 C 3111.89 -1.25452 1.0059 0
M  V30 32931 O 3113.08 -1.19497 1.26752 0
M  V30 32932 C 3110.21 -2.25538 2.55628 0
M  V30 32933 H 3111.4 -0.492428 2.9583 0
M  V30 32934 H 3108.95 -0.219567 1.5475 0
M  V30 32935 H 3109.69 -2.7479 1.72223 0
M  V30 32936 H 3109.47 -2.03923 3.349 0
M  V30 32937 H 3110.96 -2.94858 2.95717 0
M  V30 32938 N 3111.4 -1.55689 -0.244686 0
M  V30 32939 C 3112.33 -1.86954 -1.32592 0
M  V30 32940 C 3113.35 -0.755973 -1.44184 0
M  V30 32941 O 3114.53 -1.03411 -1.45494 0
M  V30 32942 C 3111.63 -2.04263 -2.70426 0
M  V30 32943 C 3110.81 -3.35136 -2.81074 0
M  V30 32944 C 3109.87 -3.4216 -3.99767 0
M  V30 32945 O 3108.89 -4.15355 -3.8919 0
M  V30 32946 N 3110.09 -2.71614 -5.13036 0
M  V30 32947 H 3112.86 -2.80288 -1.06106 0
M  V30 32948 H 3110.42 -1.55953 -0.434783 0
M  V30 32949 H 3112.41 -2.06301 -3.4817 0
M  V30 32950 H 3110.98 -1.17663 -2.8961 0
M  V30 32951 H 3110.2 -3.45396 -1.89988 0
M  V30 32952 H 3111.49 -4.21394 -2.8514 0
M  V30 32953 H 3110.89 -2.11881 -5.24521 0
M  V30 32954 H 3109.45 -2.79341 -5.88907 0
M  V30 32955 N 3112.88 0.510441 -1.49105 0
M  V30 32956 C 3114.13 1.26265 -1.57802 0
M  V30 32957 C 3114.45 1.93227 -0.262383 0
M  V30 32958 O 3113.72 1.82284 0.717592 0
M  V30 32959 H 3112.3 0.469029 -0.581395 0
M  V30 32960 H 3114.96 0.59239 -1.85679 0
M  V30 32961 H 3114.06 2.03161 -2.36922 0
M  V30 32962 N 3114.36 1.38021 0.760791 0
M  V30 32963 C 3115.77 1.1906 1.06287 0
M  V30 32964 C 3115.97 0.0342957 2.01471 0
M  V30 32965 O 3115.03 -0.622197 2.44714 0
M  V30 32966 C 3116.34 2.51396 1.64986 0
M  V30 32967 C 3117.89 2.58016 1.77191 0
M  V30 32968 C 3118.36 3.9051 2.39303 0
M  V30 32969 N 3119.86 3.92011 2.46742 0
M  V30 32970 C 3120.59 4.91286 2.95678 0
M  V30 32971 N 3120.09 6.00958 3.44705 0
M  V30 32972 N 3121.88 4.78682 2.94653 0
M  V30 32973 H 3114.03 2.12008 0.129007 0
M  V30 32974 H 3116.29 0.940392 0.119861 0
M  V30 32975 H 3116 3.36428 1.02514 0
M  V30 32976 H 3115.87 2.69275 2.64142 0
M  V30 32977 H 3118.26 1.73384 2.38793 0
M  V30 32978 H 3118.34 2.44011 0.767602 0
M  V30 32979 H 3117.99 4.75561 1.78338 0
M  V30 32980 H 3117.92 4.01823 3.40362 0
M  V30 32981 H 3120.41 3.12793 2.12059 0
M  V30 32982 H 3120.72 6.72648 3.8048 0
M  V30 32983 H 3119.06 6.04588 3.42781 0
M  V30 32984 H 3122.26 3.92118 2.55658 0
M  V30 32985 H 3122.43 5.56203 3.32479 0
M  V30 32986 N 3115.83 -0.98818 1.22771 0
M  V30 32987 C 3117.08 -1.73095 1.05668 0
M  V30 32988 C 3117.41 -1.89896 -0.406581 0
M  V30 32989 O 3116.69 -1.44557 -1.30129 0
M  V30 32990 C 3116.97 -3.13379 1.77386 0
M  V30 32991 C 3116.82 -3.04197 3.31337 0
M  V30 32992 C 3118.14 -4.12646 1.53006 0
M  V30 32993 H 3115.26 -0.628281 0.385269 0
M  V30 32994 H 3117.9 -1.15094 1.51173 0
M  V30 32995 H 3116.05 -3.62896 1.38703 0
M  V30 32996 H 3117.73 -2.62263 3.79494 0
M  V30 32997 H 3115.97 -2.40887 3.60771 0
M  V30 32998 H 3116.64 -4.03487 3.767 0
M  V30 32999 H 3119.12 -3.71905 1.86617 0
M  V30 33000 H 3117.99 -5.0891 2.05675 0
M  V30 33001 H 3118.25 -4.39662 0.463693 0
M  V30 33002 N 3117.31 -1.03816 -1.18575 0
M  V30 33003 C 3118.26 -0.620717 -2.24165 0
M  V30 33004 C 3119.25 0.351253 -1.65718 0
M  V30 33005 O 3120.46 0.218817 -1.78665 0
M  V30 33006 H 3116.84 -0.1825 -0.729519 0
M  V30 33007 H 3118.81 -1.52171 -2.56684 0
M  V30 33008 C 3117.56 0.00301219 -3.477 0
M  V30 33009 H 3116.88 -0.735944 -3.92968 0
M  V30 33010 H 3118.32 0.257914 -4.23215 0
M  V30 33011 C 3116.78 1.25234 -3.12759 0
M  V30 33012 O 3117.31 2.34338 -3.26265 0
M  V30 33013 N 3115.51 1.14466 -2.67106 0
M  V30 33014 H 3115.06 0.256828 -2.56317 0
M  V30 33015 H 3115.02 1.98148 -2.44099 0
M  V30 33016 N 3118.79 1.34753 -0.817283 0
M  V30 33017 C 3119.75 2.27933 -0.240651 0
M  V30 33018 C 3120.75 1.50045 0.578193 0
M  V30 33019 O 3121.94 1.6966 0.395118 0
M  V30 33020 C 3119.08 3.34386 0.663259 0
M  V30 33021 H 3120.27 2.80443 -1.06261 0
M  V30 33022 H 3117.82 1.44789 -0.588722 0
M  V30 33023 H 3118.56 2.8708 1.5085 0
M  V30 33024 H 3118.34 3.92023 0.0776699 0
M  V30 33025 H 3119.83 4.03905 1.06069 0
M  V30 33026 N 3120.27 0.571737 1.46864 0
M  V30 33027 C 3121.52 0.0615117 2.03307 0
M  V30 33028 C 3121.87 -1.27983 1.43659 0
M  V30 33029 O 3121.16 -1.82347 0.588218 0
M  V30 33030 C 3121.36 -0.0741683 3.57323 0
M  V30 33031 C 3121.19 1.25248 4.31906 0
M  V30 33032 C 3119.96 1.82369 4.71243 0
M  V30 33033 C 3122.15 2.17312 4.66133 0
M  V30 33034 N 3120.14 3.08887 5.3053 0
M  V30 33035 C 3121.51 3.28414 5.25875 0
M  V30 33036 C 3123.56 2.17128 4.48062 0
M  V30 33037 C 3122.27 4.39449 5.69454 0
M  V30 33038 C 3124.29 3.27185 4.9265 0
M  V30 33039 C 3123.65 4.37006 5.52453 0
M  V30 33040 H 3119.75 0.0650235 0.779292 0
M  V30 33041 H 3122.34 0.762224 1.7916 0
M  V30 33042 H 3120.51 -0.744028 3.81207 0
M  V30 33043 H 3122.24 -0.587779 4.00409 0
M  V30 33044 H 3118.99 1.35992 4.53655 0
M  V30 33045 H 3119.42 3.73413 5.64705 0
M  V30 33046 H 3124.06 1.33499 4.01171 0
M  V30 33047 H 3121.78 5.23828 6.15329 0
M  V30 33048 H 3125.36 3.28147 4.80428 0
M  V30 33049 H 3124.24 5.20762 5.86325 0
M  V30 33050 N 3121.75 -1.54542 0.308935 0
M  V30 33051 C 3122.68 -2.21277 -0.597414 0
M  V30 33052 C 3123.69 -1.20803 -1.09135 0
M  V30 33053 O 3124.88 -1.47353 -1.00744 0
M  V30 33054 C 3121.98 -2.85193 -1.8308 0
M  V30 33055 C 3121.15 -4.11671 -1.47803 0
M  V30 33056 C 3120.21 -4.59316 -2.5674 0
M  V30 33057 O 3119.24 -5.24335 -2.21498 0
M  V30 33058 N 3120.44 -4.32304 -3.87419 0
M  V30 33059 H 3123.21 -2.99689 -0.0260656 0
M  V30 33060 H 3120.77 -1.61365 0.131484 0
M  V30 33061 H 3122.76 -3.13996 -2.5532 0
M  V30 33062 H 3121.33 -2.10574 -2.31035 0
M  V30 33063 H 3120.55 -3.89791 -0.587905 0
M  V30 33064 H 3121.84 -4.94011 -1.21782 0
M  V30 33065 H 3121.24 -3.80231 -4.18856 0
M  V30 33066 H 3119.79 -4.65798 -4.55934 0
M  V30 33067 N 3123.23 -0.0368104 -1.57557 0
M  V30 33068 C 3124.19 0.927552 -2.09593 0
M  V30 33069 C 3125.19 1.24917 -1.01254 0
M  V30 33070 O 3126.38 1.18823 -1.27384 0
M  V30 33071 C 3123.51 2.24179 -2.5682 0
M  V30 33072 H 3124.7 0.476732 -2.96087 0
M  V30 33073 H 3122.26 0.211357 -1.54864 0
M  V30 33074 H 3122.99 2.73873 -1.73678 0
M  V30 33075 H 3122.78 2.02144 -3.35976 0
M  V30 33076 H 3124.27 2.93286 -2.97276 0
M  V30 33077 N 3124.7 1.55817 0.236426 0
M  V30 33078 C 3125.65 1.9119 1.29286 0
M  V30 33079 C 3126.62 0.767327 1.47314 0
M  V30 33080 O 3127.81 1.02191 1.61126 0
M  V30 33081 C 3124.95 2.22111 2.64122 0
M  V30 33082 C 3124.06 3.49428 2.54016 0
M  V30 33083 C 3123.19 3.69868 3.81276 0
M  V30 33084 C 3122.23 4.90749 3.6583 0
M  V30 33085 N 3121.37 5.07655 4.85005 0
M  V30 33086 H 3126.21 2.81279 0.984191 0
M  V30 33087 H 3123.75 1.3923 0.474697 0
M  V30 33088 H 3125.7 2.38046 3.42622 0
M  V30 33089 H 3124.33 1.35214 2.93116 0
M  V30 33090 H 3123.39 3.41768 1.6703 0
M  V30 33091 H 3124.7 4.38076 2.38518 0
M  V30 33092 H 3123.85 3.85818 4.68219 0
M  V30 33093 H 3122.59 2.79472 3.99683 0
M  V30 33094 H 3121.6 4.74764 2.77271 0
M  V30 33095 H 3122.82 5.82615 3.48908 0
M  V30 33096 H 3120.77 4.20199 5.03754 0
M  V30 33097 H 3120.68 5.90411 4.72177 0
M  V30 33098 H 3121.95 5.28027 5.73417 0
M  V30 33099 N 3126.18 -0.502526 1.49373 0
M  V30 33100 C 3127.14 -1.58651 1.65416 0
M  V30 33101 C 3128.14 -1.51953 0.52603 0
M  V30 33102 O 3129.33 -1.55132 0.792448 0
M  V30 33103 C 3126.47 -2.98303 1.6501 0
M  V30 33104 H 3127.66 -1.45757 2.62097 0
M  V30 33105 H 3125.21 -0.726648 1.38382 0
M  V30 33106 H 3125.95 -3.16676 0.69907 0
M  V30 33107 H 3125.73 -3.04573 2.46936 0
M  V30 33108 H 3127.22 -3.77062 1.79483 0
M  V30 33109 N 3127.66 -1.38422 -0.75346 0
M  V30 33110 C 3128.61 -1.35777 -1.88858 0
M  V30 33111 C 3129.6 -0.243637 -1.67639 0
M  V30 33112 O 3130.81 -0.41268 -1.75205 0
M  V30 33113 H 3127.18 -0.423571 -0.621363 0
M  V30 33114 H 3129.15 -2.31563 -1.88205 0
M  V30 33115 C 3127.9 -1.19984 -3.26342 0
M  V30 33116 H 3127.23 -2.04977 -3.43256 0
M  V30 33117 H 3128.67 -1.22188 -4.06012 0
M  V30 33118 C 3127.12 0.0932275 -3.36771 0
M  V30 33119 O 3127.65 1.0702 -3.87181 0
M  V30 33120 N 3125.86 0.150103 -2.90212 0
M  V30 33121 H 3125.41 -0.645606 -2.49379 0
M  V30 33122 H 3125.37 1.01485 -2.9757 0
M  V30 33123 N 3129.14 0.981655 -1.23294 0
M  V30 33124 C 3130.09 2.09507 -1.01043 0
M  V30 33125 C 3131.08 1.69326 0.0501679 0
M  V30 33126 O 3132.29 1.79704 -0.103228 0
M  V30 33127 H 3128.66 0.685293 -0.309641 0
M  V30 33128 H 3130.63 2.25441 -1.95497 0
M  V30 33129 C 3129.38 3.42183 -0.616945 0
M  V30 33130 H 3128.7 3.73551 -1.42477 0
M  V30 33131 H 3130.14 4.21033 -0.500762 0
M  V30 33132 C 3128.6 3.30076 0.674663 0
M  V30 33133 O 3129.13 3.62817 1.72414 0
M  V30 33134 N 3127.34 2.83235 0.650102 0
M  V30 33135 H 3126.89 2.56789 -0.20427 0
M  V30 33136 H 3126.84 2.75516 1.51454 0
M  V30 33137 N 3130.62 1.04444 1.18022 0
M  V30 33138 C 3131.56 0.632596 2.23832 0
M  V30 33139 C 3132.56 -0.342459 1.65902 0
M  V30 33140 O 3133.76 -0.209339 1.78779 0
M  V30 33141 H 3130.14 0.186366 0.728541 0
M  V30 33142 H 3132.11 1.5353 2.55873 0
M  V30 33143 C 3130.86 0.0154272 3.47697 0
M  V30 33144 H 3130.18 0.756773 3.92572 0
M  V30 33145 H 3131.62 -0.235466 4.23346 0
M  V30 33146 C 3130.08 -1.23574 3.13418 0
M  V30 33147 O 3130.61 -2.32604 3.27503 0
M  V30 33148 N 3128.82 -1.13048 2.6771 0
M  V30 33149 H 3128.36 -0.243232 2.56449 0
M  V30 33150 H 3128.32 -1.96851 2.45147 0
M  V30 33151 N 3132.09 -1.34317 0.824418 0
M  V30 33152 C 3133.04 -2.29493 0.245322 0
M  V30 33153 C 3134.01 -1.53659 -0.630735 0
M  V30 33154 O 3135.2 -1.82022 -0.572062 0
M  V30 33155 C 3132.34 -3.40096 -0.585572 0
M  V30 33156 C 3131.45 -4.30865 0.312897 0
M  V30 33157 C 3130.58 -5.28572 -0.527708 0
M  V30 33158 C 3129.62 -6.1098 0.370054 0
M  V30 33159 N 3128.76 -7.00772 -0.431566 0
M  V30 33160 H 3133.6 -2.78423 1.0623 0
M  V30 33161 H 3131.14 -1.37012 0.535354 0
M  V30 33162 H 3133.09 -4.02908 -1.08264 0
M  V30 33163 H 3131.72 -2.92396 -1.36765 0
M  V30 33164 H 3130.78 -3.68902 0.928194 0
M  V30 33165 H 3132.09 -4.88609 1.00315 0
M  V30 33166 H 3131.24 -5.96843 -1.0892 0
M  V30 33167 H 3129.98 -4.7137 -1.25146 0
M  V30 33168 H 3128.99 -5.41641 0.943672 0
M  V30 33169 H 3130.21 -6.70264 1.09194 0
M  V30 33170 H 3128.16 -6.46037 -1.13896 0
M  V30 33171 H 3128.07 -7.55735 0.200266 0
M  V30 33172 H 3129.34 -7.73369 -0.975759 0
M  V30 33173 N 3133.57 -0.579517 -1.46558 0
M  V30 33174 C 3134.5 0.19333 -2.28383 0
M  V30 33175 C 3135.52 0.858487 -1.38325 0
M  V30 33176 O 3136.71 0.728586 -1.62954 0
M  V30 33177 C 3133.81 1.293 -3.13264 0
M  V30 33178 C 3132.98 0.720383 -4.31427 0
M  V30 33179 C 3132.04 1.70736 -4.97731 0
M  V30 33180 O 3131.06 1.24466 -5.55425 0
M  V30 33181 N 3132.27 3.04137 -4.9445 0
M  V30 33182 H 3135.03 -0.508663 -2.95352 0
M  V30 33183 H 3132.59 -0.417073 -1.56436 0
M  V30 33184 H 3134.58 1.95248 -3.54486 0
M  V30 33185 H 3133.15 1.8979 -2.48391 0
M  V30 33186 H 3132.37 -0.116468 -3.94028 0
M  V30 33187 H 3133.66 0.317541 -5.07808 0
M  V30 33188 H 3133.06 3.44355 -4.48817 0
M  V30 33189 H 3131.62 3.65583 -5.39623 0
M  V30 33190 N 3135.05 1.54376 -0.317127 0
M  V30 33191 C 3136.3 2.01455 0.280596 0
M  V30 33192 C 3136.65 1.2014 1.5028 0
M  V30 33193 O 3135.94 0.273818 1.89633 0
M  V30 33194 C 3136.14 3.51009 0.672855 0
M  V30 33195 C 3135.97 4.46801 -0.509788 0
M  V30 33196 C 3134.74 4.95167 -1.00688 0
M  V30 33197 C 3136.94 4.95994 -1.35993 0
M  V30 33198 N 3134.92 5.74848 -2.1546 0
M  V30 33199 C 3136.29 5.73536 -2.35491 0
M  V30 33200 C 3138.34 4.78149 -1.38844 0
M  V30 33201 C 3137.05 6.35133 -3.37636 0
M  V30 33202 C 3139.07 5.40577 -2.39856 0
M  V30 33203 C 3138.43 6.17964 -3.38082 0
M  V30 33204 H 3134.53 0.779151 0.066697 0
M  V30 33205 H 3137.12 1.89412 -0.450705 0
M  V30 33206 H 3135.29 3.63311 1.3733 0
M  V30 33207 H 3137.02 3.84863 1.2515 0
M  V30 33208 H 3133.78 4.70045 -0.579208 0
M  V30 33209 H 3134.2 6.19368 -2.73335 0
M  V30 33210 H 3138.84 4.17886 -0.642716 0
M  V30 33211 H 3136.56 6.94521 -4.13118 0
M  V30 33212 H 3140.15 5.28689 -2.42856 0
M  V30 33213 H 3139.03 6.65413 -4.14964 0
M  V30 33214 N 3136.53 0.0451655 1.57535 0
M  V30 33215 C 3137.46 -0.929334 2.14209 0
M  V30 33216 C 3138.44 -1.32856 1.06223 0
M  V30 33217 O 3139.62 -1.40434 1.34134 0
M  V30 33218 C 3136.75 -2.20624 2.68221 0
M  V30 33219 C 3135.71 -1.94727 3.81137 0
M  V30 33220 C 3135.03 -3.2882 4.21641 0
M  V30 33221 C 3136.33 -1.27365 5.06533 0
M  V30 33222 H 3138.03 -0.457296 2.95887 0
M  V30 33223 H 3135.57 -0.218519 1.42332 0
M  V30 33224 H 3137.53 -2.89191 3.06507 0
M  V30 33225 H 3136.25 -2.70022 1.83727 0
M  V30 33226 H 3134.91 -1.28573 3.43314 0
M  V30 33227 H 3134.56 -3.76008 3.34106 0
M  V30 33228 H 3134.26 -3.12293 4.97742 0
M  V30 33229 H 3135.78 -3.98629 4.62523 0
M  V30 33230 H 3137.2 -1.85957 5.42303 0
M  V30 33231 H 3135.59 -1.21184 5.87737 0
M  V30 33232 H 3136.66 -0.248827 4.84261 0
M  V30 33233 N 3138.01 -1.5594 -0.228159 0
M  V30 33234 C 3138.92 -1.95032 -1.30382 0
M  V30 33235 C 3139.93 -0.853245 -1.51643 0
M  V30 33236 O 3141.11 -1.15625 -1.64902 0
M  V30 33237 C 3138.17 -2.25337 -2.63485 0
M  V30 33238 C 3137.23 -3.48578 -2.50584 0
M  V30 33239 C 3136.47 -3.77427 -3.77339 0
M  V30 33240 O 3136.69 -3.08053 -4.80062 0
M  V30 33241 O 3135.62 -4.70928 -3.74847 0
M  V30 33242 H 3139.45 -2.86689 -1.00215 0
M  V30 33243 H 3137.04 -1.43064 -0.430478 0
M  V30 33244 H 3138.92 -2.46052 -3.42106 0
M  V30 33245 H 3137.59 -1.36855 -2.93347 0
M  V30 33246 H 3136.5 -3.33148 -1.70185 0
M  V30 33247 H 3137.83 -4.37421 -2.25663 0
M  V30 33248 N 3139.48 0.494597 -1.49638 0
M  V30 33249 C 3140.73 1.24497 -1.58693 0
M  V30 33250 C 3141.05 1.93559 -0.281797 0
M  V30 33251 O 3142.25 2.70338 -0.250972 0
M  V30 33252 C 3140.71 2.26086 -2.80024 0
M  V30 33253 C 3140.32 1.62933 -4.17321 0
M  V30 33254 C 3142.06 3.01911 -2.98413 0
M  V30 33255 C 3139.97 2.6267 -5.29866 0
M  V30 33256 H 3138.9 0.468356 -0.590896 0
M  V30 33257 H 3141.55 0.518081 -1.76035 0
M  V30 33258 H 3139.93 3.01965 -2.5619 0
M  V30 33259 H 3141.1 0.930028 -4.51317 0
M  V30 33260 H 3139.42 0.994748 -4.04344 0
M  V30 33261 H 3142.02 3.76509 -3.79664 0
M  V30 33262 H 3142.36 3.59906 -2.09221 0
M  V30 33263 H 3142.89 2.33147 -3.22316 0
M  V30 33264 H 3139.63 2.09447 -6.21138 0
M  V30 33265 H 3139.15 3.30822 -5.00317 0
M  V30 33266 H 3140.83 3.2497 -5.59467 0
M  V30 33267 N 3140.96 1.3882 0.746109 0
M  V30 33268 C 3142.24 1.25953 1.4965 0
M  V30 33269 C 3142.62 -0.135796 2.10663 0
M  V30 33270 O 3141.97 -1.14601 1.97684 0
M  V30 33271 C 3142.18 2.37541 2.55686 0
M  V30 33272 C 3143.53 2.76326 3.2238 0
M  V30 33273 O 3144.55 2.36909 2.65994 0
M  V30 33274 O 3143.41 3.44327 4.24384 0
M  V30 33275 H 3140.5 0.49297 0.66401 0
M  V30 33276 H 3143.05 1.50666 0.780882 0
M  V30 33277 H 3141.82 3.30871 2.08903 0
M  V30 33278 H 3141.44 2.14433 3.3482 0
M  V30 33279 N 3142.44 -0.975103 1.23812 0
M  V30 33280 C 3143.37 -2.08636 1.04849 0
M  V30 33281 C 3144.35 -1.70061 -0.036256 0
M  V30 33282 O 3145.54 -1.93768 0.129404 0
M  V30 33283 C 3142.67 -3.41266 0.644594 0
M  V30 33284 C 3141.62 -3.93765 1.67728 0
M  V30 33285 C 3140.95 -5.22652 1.12867 0
M  V30 33286 C 3142.25 -4.22437 3.07155 0
M  V30 33287 H 3143.94 -2.24758 1.97799 0
M  V30 33288 H 3141.49 -1.08005 0.952416 0
M  V30 33289 H 3143.44 -4.18436 0.498961 0
M  V30 33290 H 3142.16 -3.25023 -0.320583 0
M  V30 33291 H 3140.82 -3.18745 1.811 0
M  V30 33292 H 3140.47 -5.02763 0.154316 0
M  V30 33293 H 3140.17 -5.58745 1.81872 0
M  V30 33294 H 3141.69 -6.02439 0.994997 0
M  V30 33295 H 3143.11 -4.90338 2.97054 0
M  V30 33296 H 3141.51 -4.69743 3.73445 0
M  V30 33297 H 3142.58 -3.29501 3.55749 0
M  V30 33298 N 3143.92 -1.05068 -1.17467 0
M  V30 33299 C 3144.85 -0.671591 -2.23633 0
M  V30 33300 C 3145.83 0.33003 -1.66868 0
M  V30 33301 O 3147.01 0.207899 -1.93084 0
M  V30 33302 C 3144.14 -0.0442456 -3.47272 0
M  V30 33303 C 3143.1 -0.970493 -4.16852 0
M  V30 33304 C 3142.42 -0.207092 -5.34299 0
M  V30 33305 C 3143.72 -2.29409 -4.69221 0
M  V30 33306 H 3145.42 -1.55915 -2.55599 0
M  V30 33307 H 3142.96 -0.751122 -1.22858 0
M  V30 33308 H 3144.92 0.232746 -4.20757 0
M  V30 33309 H 3143.64 0.878256 -3.1457 0
M  V30 33310 H 3142.3 -1.23203 -3.45278 0
M  V30 33311 H 3141.95 0.718134 -4.97847 0
M  V30 33312 H 3141.65 -0.824262 -5.8179 0
M  V30 33313 H 3143.17 0.0626451 -6.10568 0
M  V30 33314 H 3144.59 -2.0771 -5.3435 0
M  V30 33315 H 3142.98 -2.86512 -5.27286 0
M  V30 33316 H 3144.05 -2.93355 -3.86097 0
M  V30 33317 N 3145.4 1.33878 -0.831529 0
M  V30 33318 C 3146.34 2.29359 -0.257489 0
M  V30 33319 C 3147.31 1.53991 0.622577 0
M  V30 33320 O 3148.5 1.82323 0.5624 0
M  V30 33321 C 3145.64 3.40401 0.567527 0
M  V30 33322 C 3144.75 4.30693 -0.335742 0
M  V30 33323 C 3143.89 5.28845 0.499669 0
M  V30 33324 C 3142.93 6.10776 -0.40245 0
M  V30 33325 N 3142.06 7.00991 0.394397 0
M  V30 33326 H 3146.9 2.77855 -1.07705 0
M  V30 33327 H 3144.44 1.36726 -0.542613 0
M  V30 33328 H 3146.4 4.03476 1.06126 0
M  V30 33329 H 3145.03 2.93117 1.35212 0
M  V30 33330 H 3144.08 3.68405 -0.947745 0
M  V30 33331 H 3145.39 4.8807 -1.02905 0
M  V30 33332 H 3144.55 5.97412 1.05753 0
M  V30 33333 H 3143.28 4.72027 1.22644 0
M  V30 33334 H 3142.29 5.41133 -0.972383 0
M  V30 33335 H 3143.51 6.69675 -1.12747 0
M  V30 33336 H 3141.46 6.46632 1.10469 0
M  V30 33337 H 3141.38 7.55618 -0.240341 0
M  V30 33338 H 3142.65 7.73875 0.934731 0
M  V30 33339 N 3146.87 0.587281 1.46249 0
M  V30 33340 C 3148.12 0.0722997 2.0157 0
M  V30 33341 C 3148.44 -1.29731 1.46387 0
M  V30 33342 O 3149.64 -1.90389 1.93557 0
M  V30 33343 C 3148.1 0.0786422 3.59814 0
M  V30 33344 C 3147.71 1.44685 4.23993 0
M  V30 33345 C 3149.45 -0.382156 4.22776 0
M  V30 33346 C 3147.36 1.41067 5.74329 0
M  V30 33347 H 3146.29 0.0232594 0.753641 0
M  V30 33348 H 3148.94 0.739606 1.67935 0
M  V30 33349 H 3147.32 -0.65492 3.90547 0
M  V30 33350 H 3148.49 2.20051 4.04863 0
M  V30 33351 H 3146.81 1.84805 3.73143 0
M  V30 33352 H 3149.41 -0.428088 5.32984 0
M  V30 33353 H 3149.75 -1.40065 3.9203 0
M  V30 33354 H 3150.28 0.297487 3.96686 0
M  V30 33355 H 3147.02 2.40612 6.09743 0
M  V30 33356 H 3146.54 0.69929 5.9571 0
M  V30 33357 H 3148.22 1.12554 6.37135 0
M  V30 33358 N 3148.35 -1.54206 0.325309 0
M  V30 33359 C 3149.3 -2.24398 -0.53985 0
M  V30 33360 C 3150.27 -1.23542 -1.11026 0
M  V30 33361 O 3151.45 -1.52228 -1.15027 0
M  V30 33362 C 3148.59 -3.00662 -1.694 0
M  V30 33363 C 3147.71 -4.16339 -1.15266 0
M  V30 33364 C 3146.84 -4.8013 -2.27263 0
M  V30 33365 C 3145.88 -5.87907 -1.70387 0
M  V30 33366 N 3145.02 -6.45553 -2.76054 0
M  V30 33367 H 3149.86 -2.97928 0.0652842 0
M  V30 33368 H 3147.4 -1.47034 0.0439899 0
M  V30 33369 H 3149.35 -3.43126 -2.37319 0
M  V30 33370 H 3147.98 -2.29462 -2.27039 0
M  V30 33371 H 3147.04 -3.78645 -0.364967 0
M  V30 33372 H 3148.35 -4.93913 -0.69649 0
M  V30 33373 H 3147.5 -5.25572 -3.03083 0
M  V30 33374 H 3146.24 -4.0194 -2.76217 0
M  V30 33375 H 3145.25 -5.41866 -0.930657 0
M  V30 33376 H 3146.47 -6.67995 -1.22308 0
M  V30 33377 H 3144.42 -5.70235 -3.24296 0
M  V30 33378 H 3144.33 -7.18546 -2.35005 0
M  V30 33379 H 3145.6 -6.9565 -3.51697 0
M  V30 33380 N 3149.83 -0.0535194 -1.57509 0
M  V30 33381 C 3150.78 0.920063 -2.11668 0
M  V30 33382 C 3151.75 1.30731 -1.02462 0
M  V30 33383 O 3152.93 1.39637 -1.30023 0
M  V30 33384 C 3150.07 2.18879 -2.66807 0
M  V30 33385 C 3149.19 1.85581 -3.90107 0
M  V30 33386 C 3148.32 3.06929 -4.33553 0
M  V30 33387 C 3147.36 2.69564 -5.49547 0
M  V30 33388 N 3146.5 3.83613 -5.88036 0
M  V30 33389 H 3151.34 0.451319 -2.94563 0
M  V30 33390 H 3148.87 0.211143 -1.45577 0
M  V30 33391 H 3150.83 2.93122 -2.96876 0
M  V30 33392 H 3149.46 2.63326 -1.86706 0
M  V30 33393 H 3148.51 1.01477 -3.66615 0
M  V30 33394 H 3149.83 1.54078 -4.74406 0
M  V30 33395 H 3148.98 3.89469 -4.65187 0
M  V30 33396 H 3147.72 3.41612 -3.4807 0
M  V30 33397 H 3146.72 1.85441 -5.17583 0
M  V30 33398 H 3147.95 2.36071 -6.36748 0
M  V30 33399 H 3145.9 4.18092 -5.05505 0
M  V30 33400 H 3145.81 3.55816 -6.67031 0
M  V30 33401 H 3147.08 4.66785 -6.24285 0
M  V30 33402 N 3151.31 1.56059 0.219886 0
M  V30 33403 C 3152.56 1.78347 0.942087 0
M  V30 33404 C 3152.87 0.622377 1.85434 0
M  V30 33405 O 3154.08 0.728932 2.61532 0
M  V30 33406 C 3152.53 3.15846 1.72538 0
M  V30 33407 C 3152.14 4.39684 0.859186 0
M  V30 33408 C 3153.89 3.47459 2.4387 0
M  V30 33409 C 3151.79 5.68208 1.63993 0
M  V30 33410 H 3150.72 0.664932 0.355502 0
M  V30 33411 H 3153.37 1.82451 0.195931 0
M  V30 33412 H 3151.76 3.05922 2.51451 0
M  V30 33413 H 3152.93 4.60668 0.110481 0
M  V30 33414 H 3151.24 4.156 0.257912 0
M  V30 33415 H 3153.84 4.40709 3.02787 0
M  V30 33416 H 3154.18 2.70036 3.16838 0
M  V30 33417 H 3154.72 3.58719 1.71946 0
M  V30 33418 H 3151.46 6.48528 0.953492 0
M  V30 33419 H 3150.98 5.51283 2.3632 0
M  V30 33420 H 3152.66 6.08442 2.20017 0
M  V30 33421 N 3152.79 -0.486655 1.49898 0
M  V30 33422 C 3154.02 -1.2635 1.63839 0
M  V30 33423 C 3154.43 -1.86146 0.31546 0
M  V30 33424 O 3153.79 -1.68508 -0.700802 0
M  V30 33425 C 3153.84 -2.38346 2.71796 0
M  V30 33426 O 3153.56 -1.81006 3.98959 0
M  V30 33427 C 3155.06 -3.29485 2.96572 0
M  V30 33428 H 3152.28 -0.382699 0.551164 0
M  V30 33429 H 3154.82 -0.582659 1.96024 0
M  V30 33430 H 3152.98 -3.02234 2.4235 0
M  V30 33431 H 3153.39 -2.54639 4.5854 0
M  V30 33432 H 3154.87 -4.04315 3.7581 0
M  V30 33433 H 3155.34 -3.8734 2.07038 0
M  V30 33434 H 3155.95 -2.71349 3.2749 0
M  V30 33435 N 3154.27 -1.39214 -0.738737 0
M  V30 33436 C 3155.23 -1.37415 -1.83438 0
M  V30 33437 C 3156.23 -0.271936 -1.58484 0
M  V30 33438 O 3157.42 -0.529638 -1.65953 0
M  V30 33439 C 3154.55 -1.14306 -3.21165 0
M  V30 33440 H 3155.74 -2.34907 -1.86437 0
M  V30 33441 H 3153.3 -1.24724 -0.942002 0
M  V30 33442 H 3154.03 -0.174813 -3.23828 0
M  V30 33443 H 3153.82 -1.94122 -3.40674 0
M  V30 33444 H 3155.31 -1.1578 -4.01229 0
M  V30 33445 N 3155.74 0.968523 -1.24328 0
M  V30 33446 C 3156.99 1.70571 -1.0765 0
M  V30 33447 C 3157.31 1.91778 0.384787 0
M  V30 33448 O 3158.51 2.63059 0.671736 0
M  V30 33449 C 3156.97 3.07014 -1.87804 0
M  V30 33450 C 3156.58 2.93652 -3.38338 0
M  V30 33451 C 3158.32 3.8461 -1.79653 0
M  V30 33452 C 3156.23 4.254 -4.10839 0
M  V30 33453 H 3155.16 0.639635 -0.399228 0
M  V30 33454 H 3157.81 1.07931 -1.48402 0
M  V30 33455 H 3156.19 3.70477 -1.39866 0
M  V30 33456 H 3157.36 2.39206 -3.93849 0
M  V30 33457 H 3155.68 2.29522 -3.47431 0
M  V30 33458 H 3158.28 4.82168 -2.31124 0
M  V30 33459 H 3158.62 4.09274 -0.761625 0
M  V30 33460 H 3159.15 3.27872 -2.25267 0
M  V30 33461 H 3155.89 4.0593 -5.14686 0
M  V30 33462 H 3155.41 4.79665 -3.60113 0
M  V30 33463 H 3157.09 4.94024 -4.17791 0
M  V30 33464 N 3157.22 1.0569 1.16908 0
M  V30 33465 C 3158.47 0.765055 1.86627 0
M  V30 33466 C 3158.78 -0.710886 1.82224 0
M  V30 33467 O 3159.99 -1.11687 2.47464 0
M  V30 33468 C 3158.45 1.31836 3.34884 0
M  V30 33469 C 3158.05 2.82411 3.47776 0
M  V30 33470 C 3159.8 1.10379 4.09899 0
M  V30 33471 C 3157.7 3.31016 4.90084 0
M  V30 33472 H 3156.63 0.282503 0.699077 0
M  V30 33473 H 3159.29 1.27483 1.31986 0
M  V30 33474 H 3157.67 0.736381 3.89093 0
M  V30 33475 H 3158.84 3.46507 3.03759 0
M  V30 33476 H 3157.16 3.02466 2.86188 0
M  V30 33477 H 3159.75 1.44189 5.14892 0
M  V30 33478 H 3160.1 0.0418103 4.16279 0
M  V30 33479 H 3160.63 1.65123 3.6191 0
M  V30 33480 H 3157.37 4.36666 4.8888 0
M  V30 33481 H 3156.89 2.71664 5.34751 0
M  V30 33482 H 3158.57 3.25987 5.58875 0
M  V30 33483 N 3158.7 -1.33435 0.838617 0
M  V30 33484 C 3159.93 -2.01999 0.44768 0
M  V30 33485 C 3160.34 -1.63098 -0.951024 0
M  V30 33486 O 3159.7 -0.844197 -1.61801 0
M  V30 33487 C 3159.75 -3.57161 0.558441 0
M  V30 33488 O 3159.47 -3.94657 1.90203 0
M  V30 33489 C 3160.97 -4.42995 0.164426 0
M  V30 33490 H 3158.19 -0.647029 0.177748 0
M  V30 33491 H 3160.74 -1.7037 1.13112 0
M  V30 33492 H 3158.89 -3.87323 -0.0770882 0
M  V30 33493 H 3159.31 -4.89365 1.88738 0
M  V30 33494 H 3160.78 -5.51222 0.292973 0
M  V30 33495 H 3161.26 -4.30013 -0.893638 0
M  V30 33496 H 3161.86 -4.18191 0.77438 0
M  V30 33497 N 3160.18 -0.595029 -1.45935 0
M  V30 33498 C 3161.11 0.169096 -2.28575 0
M  V30 33499 C 3162.12 0.843767 -1.39228 0
M  V30 33500 O 3163.31 0.711262 -1.63717 0
M  V30 33501 C 3160.41 1.2597 -3.14618 0
M  V30 33502 C 3159.58 0.674584 -4.32167 0
M  V30 33503 C 3158.64 1.65447 -4.99514 0
M  V30 33504 O 3157.67 1.18568 -5.56714 0
M  V30 33505 N 3158.87 2.98876 -4.97648 0
M  V30 33506 H 3161.64 -0.53996 -2.94796 0
M  V30 33507 H 3159.2 -0.433642 -1.55984 0
M  V30 33508 H 3161.19 1.91477 -3.56537 0
M  V30 33509 H 3159.76 1.87145 -2.5039 0
M  V30 33510 H 3158.98 -0.158253 -3.93882 0
M  V30 33511 H 3160.27 0.263663 -5.08116 0
M  V30 33512 H 3159.67 3.39575 -4.52444 0
M  V30 33513 H 3158.22 3.59839 -5.4347 0
M  V30 33514 N 3161.66 1.54031 -0.333483 0
M  V30 33515 C 3162.9 2.00348 0.265572 0
M  V30 33516 C 3163.22 1.22312 1.51871 0
M  V30 33517 O 3162.49 0.327583 1.93142 0
M  V30 33518 H 3161.07 0.740124 0.101122 0
M  V30 33519 H 3163.74 1.89579 -0.452318 0
M  V30 33520 H 3162.83 3.07821 0.515056 0
M  V30 33521 N 3163.13 0.0618717 1.57479 0
M  V30 33522 C 3164.37 -0.613275 1.94983 0
M  V30 33523 C 3164.74 -1.67373 0.940759 0
M  V30 33524 O 3165.94 -2.40372 1.20311 0
M  V30 33525 C 3164.21 -1.18424 3.3721 0
M  V30 33526 S 3165.77 -1.87589 3.96681 0
M  V30 33527 H 3162.59 -0.201084 0.681972 0
M  V30 33528 H 3165.19 0.133362 1.95045 0
M  V30 33529 H 3163.89 -0.400451 4.08442 0
M  V30 33530 H 3163.42 -1.96745 3.40668 0
M  V30 33531 H 3165.44 -3.15747 3.82777 0
M  V30 33532 N 3164.61 -1.56173 -0.211607 0
M  V30 33533 C 3165.56 -1.93223 -1.26228 0
M  V30 33534 C 3166.53 -0.790666 -1.46074 0
M  V30 33535 O 3167.71 -1.04742 -1.5948 0
M  V30 33536 C 3164.85 -2.26285 -2.60555 0
M  V30 33537 C 3163.97 -3.53425 -2.48425 0
M  V30 33538 C 3163.1 -3.75887 -3.75343 0
M  V30 33539 C 3162.14 -4.96507 -3.57977 0
M  V30 33540 N 3161.28 -5.15307 -4.76868 0
M  V30 33541 H 3166.12 -2.82809 -0.939317 0
M  V30 33542 H 3163.66 -1.39968 -0.452487 0
M  V30 33543 H 3165.61 -2.43467 -3.38792 0
M  V30 33544 H 3164.24 -1.39861 -2.90928 0
M  V30 33545 H 3163.3 -3.44382 -1.61571 0
M  V30 33546 H 3164.61 -4.41815 -2.31518 0
M  V30 33547 H 3163.76 -3.93218 -4.62022 0
M  V30 33548 H 3162.5 -2.85795 -3.95186 0
M  V30 33549 H 3161.51 -4.79115 -2.69682 0
M  V30 33550 H 3162.73 -5.88092 -3.39595 0
M  V30 33551 H 3160.68 -4.28161 -4.97006 0
M  V30 33552 H 3160.59 -5.97848 -4.62725 0
M  V30 33553 H 3161.86 -5.37083 -5.64944 0
M  V30 33554 N 3166.09 0.478699 -1.50154 0
M  V30 33555 C 3167.32 1.25948 -1.64779 0
M  V30 33556 C 3167.74 1.85221 -0.327827 0
M  V30 33557 O 3167.1 1.6693 0.707388 0
M  V30 33558 C 3167.15 2.34947 -2.73555 0
M  V30 33559 O 3166.25 3.39393 -2.34279 0
M  V30 33560 H 3165.59 0.370867 -0.550775 0
M  V30 33561 H 3168.12 0.570571 -1.96483 0
M  V30 33562 H 3168.13 2.80375 -2.96402 0
M  V30 33563 H 3166.81 1.91175 -3.69358 0
M  V30 33564 H 3165.38 2.99729 -2.21849 0
M  V30 33565 N 3167.57 1.39603 0.731343 0
M  V30 33566 C 3168.5 1.41355 1.85852 0
M  V30 33567 C 3169.48 0.27643 1.67839 0
M  V30 33568 O 3170.66 0.48278 1.88103 0
M  V30 33569 C 3167.79 1.25989 3.23642 0
M  V30 33570 C 3166.75 2.37138 3.563 0
M  V30 33571 C 3166.07 2.06859 4.93065 0
M  V30 33572 C 3167.37 3.79458 3.589 0
M  V30 33573 H 3169.07 2.35684 1.84644 0
M  V30 33574 H 3166.61 1.13444 0.886935 0
M  V30 33575 H 3168.57 1.25834 4.02174 0
M  V30 33576 H 3167.29 0.281292 3.25386 0
M  V30 33577 H 3165.95 2.36516 2.80099 0
M  V30 33578 H 3165.6 1.07429 4.91394 0
M  V30 33579 H 3165.3 2.81315 5.15883 0
M  V30 33580 H 3166.82 2.0836 5.7395 0
M  V30 33581 H 3168.24 3.81989 4.27501 0
M  V30 33582 H 3166.63 4.53304 3.93238 0
M  V30 33583 H 3167.7 4.10173 2.58624 0
M  V30 33584 N 3169.05 -0.961916 1.2484 0
M  V30 33585 C 3170.27 -1.74578 1.1197 0
M  V30 33586 C 3170.7 -1.85302 -0.323254 0
M  V30 33587 O 3170.05 -1.32815 -1.2341 0
M  V30 33588 C 3170.1 -3.14131 1.77071 0
M  V30 33589 O 3169.21 -3.9893 1.04541 0
M  V30 33590 H 3168.55 -0.536417 0.391348 0
M  V30 33591 H 3171.08 -1.20623 1.65261 0
M  V30 33592 H 3171.09 -3.64626 1.83062 0
M  V30 33593 H 3169.76 -3.05641 2.82057 0
M  V30 33594 H 3168.34 -3.57405 1.06378 0
M  V30 33595 N 3170.52 -1.06308 -1.16346 0
M  V30 33596 C 3171.75 -0.80067 -1.91322 0
M  V30 33597 C 3172.17 0.639074 -1.76911 0
M  V30 33598 O 3171.53 1.44533 -1.09452 0
M  V30 33599 C 3171.58 -1.20033 -3.40036 0
M  V30 33600 O 3170.68 -0.339214 -4.11003 0
M  V30 33601 H 3170.03 -0.292606 -0.596052 0
M  V30 33602 H 3172.56 -1.41892 -1.47404 0
M  V30 33603 H 3172.57 -1.17195 -3.90806 0
M  V30 33604 H 3171.24 -2.24904 -3.49844 0
M  V30 33605 H 3169.82 -0.429175 -3.70422 0
M  V30 33606 N 3172 1.32989 -0.845682 0
M  V30 33607 C 3172.91 2.32845 -0.286441 0
M  V30 33608 C 3173.93 1.63653 0.591076 0
M  V30 33609 O 3175.1 1.95258 0.493581 0
M  V30 33610 C 3172.17 3.42724 0.523576 0
M  V30 33611 C 3171.23 4.27624 -0.37902 0
M  V30 33612 C 3170.46 5.32255 0.392432 0
M  V30 33613 O 3170.69 5.46811 1.6234 0
M  V30 33614 O 3169.62 6.01433 -0.237106 0
M  V30 33615 H 3173.45 2.8255 -1.11351 0
M  V30 33616 H 3171.03 1.36452 -0.60838 0
M  V30 33617 H 3172.91 4.09759 0.983646 0
M  V30 33618 H 3171.59 2.95223 1.32759 0
M  V30 33619 H 3170.5 3.63431 -0.887076 0
M  V30 33620 H 3171.83 4.78625 -1.14798 0
M  V30 33621 N 3173.48 0.60276 1.45618 0
M  V30 33622 C 3174.41 -0.167668 2.27583 0
M  V30 33623 C 3175.39 -0.878182 1.36846 0
M  V30 33624 O 3176.58 -0.888029 1.66272 0
M  V30 33625 C 3173.7 -1.24227 3.15096 0
M  V30 33626 C 3172.75 -0.635416 4.2174 0
M  V30 33627 S 3173.58 0.553037 5.32637 0
M  V30 33628 C 3174.74 -0.522273 6.23717 0
M  V30 33629 H 3174.97 0.527748 2.92578 0
M  V30 33630 H 3172.5 0.390153 1.49389 0
M  V30 33631 H 3174.46 -1.85742 3.66074 0
M  V30 33632 H 3173.12 -1.90973 2.49375 0
M  V30 33633 H 3172.32 -1.44381 4.82877 0
M  V30 33634 H 3171.92 -0.0955114 3.73878 0
M  V30 33635 H 3174.21 -1.40264 6.62821 0
M  V30 33636 H 3175.15 0.0528196 7.0808 0
M  V30 33637 H 3175.56 -0.835432 5.58284 0
M  V30 33638 N 3174.96 -1.53852 0.341647 0
M  V30 33639 C 3176.19 -2.05001 -0.256521 0
M  V30 33640 C 3176.6 -1.21642 -1.44914 0
M  V30 33641 O 3175.94 -0.24417 -1.8207 0
M  V30 33642 C 3176 -3.51863 -0.737047 0
M  V30 33643 C 3175.67 -4.55766 0.335664 0
M  V30 33644 C 3176.66 -5.06385 1.17774 0
M  V30 33645 C 3174.35 -4.99914 0.489046 0
M  V30 33646 C 3176.34 -5.9973 2.15876 0
M  V30 33647 C 3174.03 -5.9307 1.47346 0
M  V30 33648 C 3175.03 -6.42866 2.30677 0
M  V30 33649 O 3174.71 -7.34191 3.27443 0
M  V30 33650 H 3174.45 -0.673866 -0.0536748 0
M  V30 33651 H 3177 -1.99439 0.491265 0
M  V30 33652 H 3175.23 -3.54884 -1.53604 0
M  V30 33653 H 3176.92 -3.85993 -1.25555 0
M  V30 33654 H 3177.69 -4.73042 1.07032 0
M  V30 33655 H 3173.56 -4.60757 -0.149726 0
M  V30 33656 H 3177.11 -6.38521 2.80956 0
M  V30 33657 H 3173.01 -6.25828 1.58145 0
M  V30 33658 H 3173.77 -7.52119 3.22892 0
M  V30 33659 N 3176.44 -0.0702223 -1.57443 0
M  V30 33660 C 3177.68 0.600144 -1.93717 0
M  V30 33661 C 3178.02 1.69357 -0.950359 0
M  V30 33662 O 3177.29 1.94489 0.0206781 0
M  V30 33663 C 3177.57 1.17855 -3.40268 0
M  V30 33664 C 3177.43 0.0918785 -4.49706 0
M  V30 33665 C 3178.75 2.08452 -3.87602 0
M  V30 33666 H 3175.86 0.216691 -0.704425 0
M  V30 33667 H 3178.51 -0.135871 -1.89514 0
M  V30 33668 H 3176.66 1.80581 -3.43981 0
M  V30 33669 H 3178.33 -0.541111 -4.58115 0
M  V30 33670 H 3176.57 -0.577714 -4.29936 0
M  V30 33671 H 3177.24 0.536952 -5.49382 0
M  V30 33672 H 3179.72 1.55664 -3.85886 0
M  V30 33673 H 3178.59 2.45859 -4.90759 0
M  V30 33674 H 3178.86 2.9922 -3.25453 0
M  V30 33675 N 3177.91 1.56283 0.203321 0
M  V30 33676 C 3178.86 1.9389 1.25202 0
M  V30 33677 C 3179.83 0.798402 1.45653 0
M  V30 33678 O 3181.02 1.05586 1.58922 0
M  V30 33679 C 3178.16 2.27664 2.59351 0
M  V30 33680 C 3177.27 3.54737 2.46547 0
M  V30 33681 C 3176.4 3.77872 3.73345 0
M  V30 33682 C 3175.44 4.98398 3.55339 0
M  V30 33683 N 3174.58 5.17829 4.74128 0
M  V30 33684 H 3179.42 2.83303 0.924306 0
M  V30 33685 H 3176.96 1.40206 0.445058 0
M  V30 33686 H 3178.92 2.4526 3.37496 0
M  V30 33687 H 3177.55 1.41401 2.90182 0
M  V30 33688 H 3176.6 3.45234 1.59743 0
M  V30 33689 H 3177.91 4.43037 2.29172 0
M  V30 33690 H 3177.06 3.95663 4.5993 0
M  V30 33691 H 3175.8 2.87887 3.93665 0
M  V30 33692 H 3174.81 4.80539 2.67138 0
M  V30 33693 H 3176.03 5.89885 3.36471 0
M  V30 33694 H 3173.98 4.3079 4.94728 0
M  V30 33695 H 3173.9 6.00293 4.59547 0
M  V30 33696 H 3175.16 5.40071 5.62088 0
M  V30 33697 N 3179.39 -0.470729 1.50406 0
M  V30 33698 C 3180.62 -1.25072 1.65444 0
M  V30 33699 C 3181.04 -1.85045 0.337645 0
M  V30 33700 O 3180.4 -1.67303 -0.698526 0
M  V30 33701 C 3180.45 -2.33493 2.74797 0
M  V30 33702 O 3179.55 -3.38145 2.36075 0
M  V30 33703 H 3178.89 -0.367941 0.552734 0
M  V30 33704 H 3181.42 -0.560143 1.96783 0
M  V30 33705 H 3181.43 -2.78799 2.97884 0
M  V30 33706 H 3180.11 -1.89213 3.70366 0
M  V30 33707 H 3178.69 -2.98548 2.23436 0
M  V30 33708 N 3180.87 -1.39989 -0.72393 0
M  V30 33709 C 3182.1 -1.40908 -1.51091 0
M  V30 33710 C 3182.51 -0.00480069 -1.89199 0
M  V30 33711 O 3181.85 0.979619 -1.554 0
M  V30 33712 C 3181.91 -2.22832 -2.8211 0
M  V30 33713 C 3181.58 -3.71342 -2.66373 0
M  V30 33714 C 3182.58 -4.6417 -2.34184 0
M  V30 33715 C 3180.26 -4.15059 -2.82898 0
M  V30 33716 C 3182.25 -5.987 -2.18718 0
M  V30 33717 C 3179.94 -5.49661 -2.6705 0
M  V30 33718 C 3180.94 -6.41296 -2.35007 0
M  V30 33719 O 3180.63 -7.73418 -2.1927 0
M  V30 33720 H 3180.36 -0.482826 -0.473133 0
M  V30 33721 H 3182.91 -1.8457 -0.901288 0
M  V30 33722 H 3181.14 -1.73936 -3.45374 0
M  V30 33723 H 3182.83 -2.15793 -3.43785 0
M  V30 33724 H 3183.6 -4.31692 -2.21058 0
M  V30 33725 H 3179.48 -3.4406 -3.06828 0
M  V30 33726 H 3183.02 -6.70189 -1.9363 0
M  V30 33727 H 3178.92 -5.81727 -2.79758 0
M  V30 33728 H 3179.69 -7.84262 -2.34255 0
M  V30 33729 N 3182.35 0.955282 -1.25348 0
M  V30 33730 C 3183.58 1.73449 -1.12796 0
M  V30 33731 C 3183.99 1.86097 0.318311 0
M  V30 33732 O 3183.35 1.35823 1.21895 0
M  V30 33733 C 3183.4 3.14861 -1.77609 0
M  V30 33734 O 3183.12 3.02832 -3.16582 0
M  V30 33735 C 3184.62 4.09063 -1.70828 0
M  V30 33736 H 3181.84 0.54353 -0.393467 0
M  V30 33737 H 3184.39 1.19852 -1.65698 0
M  V30 33738 H 3182.54 3.65404 -1.28679 0
M  V30 33739 H 3182.96 3.92033 -3.4844 0
M  V30 33740 H 3184.43 5.05899 -2.20839 0
M  V30 33741 H 3184.91 4.3403 -0.671934 0
M  V30 33742 H 3185.51 3.64435 -2.19243 0
M  V30 33743 N 3183.83 1.06924 1.1578 0
M  V30 33744 C 3185.08 0.784807 1.85805 0
M  V30 33745 C 3185.39 -0.691519 1.82968 0
M  V30 33746 O 3186.6 -1.09056 2.48634 0
M  V30 33747 C 3185.05 1.35381 3.33467 0
M  V30 33748 C 3184.66 2.86083 3.44761 0
M  V30 33749 C 3186.4 1.1472 4.08705 0
M  V30 33750 C 3184.31 3.36196 4.86545 0
M  V30 33751 H 3183.24 0.289902 0.696041 0
M  V30 33752 H 3185.89 1.28876 1.30627 0
M  V30 33753 H 3184.27 0.777608 3.8829 0
M  V30 33754 H 3185.45 3.49709 3.00067 0
M  V30 33755 H 3183.76 3.05484 2.82964 0
M  V30 33756 H 3186.36 1.49642 5.13334 0
M  V30 33757 H 3186.7 0.0859599 4.16211 0
M  V30 33758 H 3187.24 1.68953 3.60139 0
M  V30 33759 H 3183.97 4.41826 4.84221 0
M  V30 33760 H 3183.49 2.77321 5.31839 0
M  V30 33761 H 3185.17 3.31897 5.55386 0
M  V30 33762 N 3185.31 -1.32538 0.852723 0
M  V30 33763 C 3186.26 -2.26422 0.267751 0
M  V30 33764 C 3187.24 -1.49878 -0.585278 0
M  V30 33765 O 3188.43 -1.71572 -0.434978 0
M  V30 33766 C 3185.56 -3.38954 -0.544545 0
M  V30 33767 C 3184.65 -4.22885 0.320764 0
M  V30 33768 N 3185.04 -4.85863 1.4061 0
M  V30 33769 C 3183.34 -4.45864 0.110179 0
M  V30 33770 C 3184.04 -5.48457 1.93828 0
M  V30 33771 N 3183.01 -5.29321 1.23773 0
M  V30 33772 H 3186.81 -2.72639 1.09752 0
M  V30 33773 H 3184.33 -1.46604 0.698633 0
M  V30 33774 H 3186.33 -4.05218 -0.980019 0
M  V30 33775 H 3184.99 -2.94283 -1.37213 0
M  V30 33776 H 3186 -4.86019 1.78903 0
M  V30 33777 H 3182.67 -4.11878 -0.682844 0
M  V30 33778 H 3184.06 -6.08557 2.84794 0
M  V30 33779 N 3186.78 -0.610474 -1.45296 0
M  V30 33780 C 3188.01 -0.113083 -2.0629 0
M  V30 33781 C 3188.42 1.20905 -1.45529 0
M  V30 33782 O 3187.76 1.748 -0.564868 0
M  V30 33783 C 3187.83 0.0979061 -3.59367 0
M  V30 33784 C 3187.49 -1.14286 -4.42479 0
M  V30 33785 C 3188.49 -2.0617 -4.77274 0
M  V30 33786 C 3186.17 -1.3725 -4.83185 0
M  V30 33787 C 3188.17 -3.19342 -5.51633 0
M  V30 33788 C 3185.85 -2.50723 -5.57298 0
M  V30 33789 C 3186.85 -3.41597 -5.91439 0
M  V30 33790 O 3186.54 -4.53095 -6.64048 0
M  V30 33791 H 3186.27 -0.0673278 -0.672639 0
M  V30 33792 H 3188.83 -0.83897 -1.87485 0
M  V30 33793 H 3187.06 0.878717 -3.76584 0
M  V30 33794 H 3188.74 0.547257 -4.02194 0
M  V30 33795 H 3189.51 -1.89655 -4.46381 0
M  V30 33796 H 3185.39 -0.67415 -4.56044 0
M  V30 33797 H 3188.93 -3.90296 -5.782 0
M  V30 33798 H 3184.83 -2.67189 -5.87605 0
M  V30 33799 H 3185.6 -4.51813 -6.82501 0
M  V30 33800 N 3188.26 1.53669 -0.349801 0
M  V30 33801 C 3189.49 2.05904 0.248656 0
M  V30 33802 C 3189.91 1.22269 1.4294 0
M  V30 33803 O 3189.27 0.23793 1.79732 0
M  V30 33804 C 3189.32 3.54955 0.635577 0
M  V30 33805 O 3188.42 3.74135 1.73483 0
M  V30 33806 H 3187.76 0.662798 0.0399361 0
M  V30 33807 H 3190.29 1.98249 -0.50583 0
M  V30 33808 H 3190.3 3.977 0.910994 0
M  V30 33809 H 3188.98 4.15275 -0.227878 0
M  V30 33810 H 3187.55 3.43292 1.4562 0
M  V30 33811 N 3189.74 0.0785709 1.57404 0
M  V30 33812 C 3190.65 -0.900864 2.16614 0
M  V30 33813 C 3191.67 -1.32219 1.13112 0
M  V30 33814 O 3192.84 -1.3935 1.45408 0
M  V30 33815 C 3189.91 -2.14786 2.72154 0
M  V30 33816 C 3188.97 -1.78231 3.90554 0
M  V30 33817 C 3188.2 -2.96985 4.43436 0
M  V30 33818 O 3188.42 -4.11211 3.95299 0
M  V30 33819 O 3187.36 -2.76409 5.34679 0
M  V30 33820 H 3191.18 -0.427174 3.00681 0
M  V30 33821 H 3188.77 -0.144876 1.48696 0
M  V30 33822 H 3190.65 -2.87897 3.07723 0
M  V30 33823 H 3189.33 -2.61239 1.91143 0
M  V30 33824 H 3188.23 -1.0235 3.59827 0
M  V30 33825 H 3189.57 -1.36554 4.72878 0
M  V30 33826 N 3191.22 -1.56389 -0.19503 0
M  V30 33827 C 3192.15 -1.91078 -1.26577 0
M  V30 33828 C 3193.16 -0.801461 -1.41705 0
M  V30 33829 O 3194.35 -1.07987 -1.4213 0
M  V30 33830 C 3191.45 -2.12763 -2.6379 0
M  V30 33831 C 3190.62 -3.43909 -2.70269 0
M  V30 33832 C 3189.68 -3.54705 -3.88679 0
M  V30 33833 O 3188.71 -4.27527 -3.75779 0
M  V30 33834 N 3189.91 -2.87798 -5.04136 0
M  V30 33835 H 3192.68 -2.83522 -0.971351 0
M  V30 33836 H 3190.24 -1.57257 -0.384948 0
M  V30 33837 H 3192.23 -2.17273 -3.4143 0
M  V30 33838 H 3190.8 -1.26817 -2.8572 0
M  V30 33839 H 3190.02 -3.51265 -1.78903 0
M  V30 33840 H 3191.31 -4.30252 -2.71589 0
M  V30 33841 H 3190.71 -2.28461 -5.17515 0
M  V30 33842 H 3189.26 -2.97936 -5.79722 0
M  V30 33843 N 3192.7 0.462746 -1.50653 0
M  V30 33844 C 3193.94 1.21181 -1.61739 0
M  V30 33845 C 3194.26 1.92294 -0.323724 0
M  V30 33846 O 3193.53 1.84475 0.659237 0
M  V30 33847 H 3192.11 0.450295 -0.596023 0
M  V30 33848 H 3194.78 0.533018 -1.8747 0
M  V30 33849 H 3193.87 1.9552 -2.43266 0
M  V30 33850 N 3194.17 1.40371 0.716495 0
M  V30 33851 C 3195.42 1.38805 1.47854 0
M  V30 33852 C 3195.75 -0.0100194 1.94197 0
M  V30 33853 O 3195.03 -0.978491 1.68095 0
M  V30 33854 C 3195.31 2.37672 2.70526 0
M  V30 33855 C 3195.16 3.865 2.30083 0
M  V30 33856 C 3196.48 2.34088 3.7268 0
M  V30 33857 H 3193.6 0.505509 0.536311 0
M  V30 33858 H 3196.24 1.715 0.817794 0
M  V30 33859 H 3194.39 2.09922 3.26902 0
M  V30 33860 H 3196.07 4.25073 1.79195 0
M  V30 33861 H 3194.31 4.02377 1.62095 0
M  V30 33862 H 3194.98 4.51191 3.1801 0
M  V30 33863 H 3197.46 2.58666 3.25931 0
M  V30 33864 H 3196.33 3.05314 4.56152 0
M  V30 33865 H 3196.59 1.3522 4.20913 0
M  V30 33866 N 3195.65 -0.948621 1.25853 0
M  V30 33867 C 3196.56 -2.07992 1.0852 0
M  V30 33868 C 3197.58 -1.73988 0.0207002 0
M  V30 33869 O 3198.75 -2.00163 0.222889 0
M  V30 33870 C 3195.82 -3.39306 0.712205 0
M  V30 33871 C 3194.88 -3.8714 1.8553 0
M  V30 33872 C 3194.11 -5.12187 1.50001 0
M  V30 33873 O 3194.34 -5.69007 0.398368 0
M  V30 33874 O 3193.27 -5.54878 2.33224 0
M  V30 33875 H 3197.1 -2.25519 2.03409 0
M  V30 33876 H 3194.68 -1.06431 1.04846 0
M  V30 33877 H 3196.56 -4.18222 0.516585 0
M  V30 33878 H 3195.24 -3.23035 -0.207359 0
M  V30 33879 H 3194.15 -3.09202 2.10583 0
M  V30 33880 H 3195.48 -4.07919 2.75433 0
M  V30 33881 N 3197.13 -1.07536 -1.15212 0
M  V30 33882 C 3198.38 -0.810684 -1.86546 0
M  V30 33883 C 3198.73 0.656204 -1.80864 0
M  V30 33884 O 3198.02 1.47557 -1.22219 0
M  V30 33885 C 3198.22 -1.25553 -3.34621 0
M  V30 33886 C 3198.05 -2.76412 -3.5472 0
M  V30 33887 C 3196.82 -3.44045 -3.70083 0
M  V30 33888 C 3199.02 -3.74605 -3.52385 0
M  V30 33889 N 3197 -4.83526 -3.78253 0
M  V30 33890 C 3198.37 -4.99937 -3.66693 0
M  V30 33891 C 3200.42 -3.67736 -3.3567 0
M  V30 33892 C 3199.13 -6.19215 -3.66012 0
M  V30 33893 C 3201.15 -4.86481 -3.3629 0
M  V30 33894 C 3200.51 -6.10646 -3.51128 0
M  V30 33895 H 3196.61 -0.349235 -0.699685 0
M  V30 33896 H 3199.2 -1.37199 -1.38147 0
M  V30 33897 H 3197.37 -0.721904 -3.81632 0
M  V30 33898 H 3199.1 -0.938195 -3.93675 0
M  V30 33899 H 3195.86 -2.94453 -3.70937 0
M  V30 33900 H 3196.28 -5.56123 -3.86078 0
M  V30 33901 H 3200.92 -2.72683 -3.23115 0
M  V30 33902 H 3198.64 -7.14588 -3.77346 0
M  V30 33903 H 3202.23 -4.82844 -3.24581 0
M  V30 33904 H 3201.11 -7.0099 -3.51543 0
M  V30 33905 N 3198.61 1.32084 -0.85974 0
M  V30 33906 C 3199.56 2.28761 -0.306082 0
M  V30 33907 C 3200.53 1.55277 0.589774 0
M  V30 33908 O 3201.71 1.83475 0.5236 0
M  V30 33909 C 3198.85 3.41529 0.495196 0
M  V30 33910 C 3197.96 4.29884 -0.427023 0
M  V30 33911 C 3197.1 5.29786 0.387381 0
M  V30 33912 C 3196.14 6.09784 -0.531914 0
M  V30 33913 N 3195.27 7.0167 0.245617 0
M  V30 33914 H 3200.11 2.75508 -1.13574 0
M  V30 33915 H 3197.65 1.35545 -0.571492 0
M  V30 33916 H 3199.61 4.05637 0.975439 0
M  V30 33917 H 3198.24 2.95919 1.28964 0
M  V30 33918 H 3197.29 3.66311 -1.02568 0
M  V30 33919 H 3198.6 4.85777 -1.13234 0
M  V30 33920 H 3197.76 5.99521 0.930572 0
M  V30 33921 H 3196.5 4.74522 1.12604 0
M  V30 33922 H 3195.5 5.38949 -1.08695 0
M  V30 33923 H 3196.73 6.67133 -1.26926 0
M  V30 33924 H 3194.67 6.4883 0.967277 0
M  V30 33925 H 3194.59 7.54938 -0.400565 0
M  V30 33926 H 3195.86 7.75684 0.77037 0
M  V30 33927 N 3200.09 0.618171 1.4497 0
M  V30 33928 C 3201.5 0.201367 1.85611 0
M  V30 33929 C 3201.85 -1.24424 1.51701 0
M  V30 33930 O 3200.97 -1.94492 0.948784 0
M  V30 33931 C 3201.57 0.358678 3.36896 0
M  V30 33932 C 3200.13 -0.0035158 3.764 0
M  V30 33933 C 3199.27 0.678165 2.6888 0
M  V30 33934 H 3202.23 0.824176 1.35621 0
M  V30 33935 H 3202.25 -0.406109 3.78327 0
M  V30 33936 H 3201.76 1.4109 3.61546 0
M  V30 33937 H 3199.86 -1.05451 3.57367 0
M  V30 33938 H 3199.97 0.397511 4.77448 0
M  V30 33939 H 3198.34 0.114744 2.54441 0
M  V30 33940 H 3199.12 1.73273 2.96364 0
M  V30 33941 N 3201.56 -1.53481 0.357946 0
M  V30 33942 C 3202.79 -2.05262 -0.234763 0
M  V30 33943 C 3203.2 -1.23172 -1.43615 0
M  V30 33944 O 3202.55 -0.263467 -1.81801 0
M  V30 33945 C 3202.61 -3.52625 -0.699686 0
M  V30 33946 C 3202.27 -4.55384 0.383986 0
M  V30 33947 C 3203.27 -5.05107 1.23138 0
M  V30 33948 C 3200.95 -4.99367 0.542041 0
M  V30 33949 C 3202.95 -5.97407 2.22225 0
M  V30 33950 C 3200.63 -5.91474 1.53628 0
M  V30 33951 C 3201.63 -6.40384 2.37483 0
M  V30 33952 O 3201.32 -7.30677 3.35212 0
M  V30 33953 H 3201.05 -0.674397 -0.0465245 0
M  V30 33954 H 3203.61 -1.98906 0.51239 0
M  V30 33955 H 3201.84 -3.56493 -1.49832 0
M  V30 33956 H 3203.53 -3.87303 -1.21454 0
M  V30 33957 H 3204.29 -4.71881 1.12043 0
M  V30 33958 H 3200.17 -4.6089 -0.100848 0
M  V30 33959 H 3203.71 -6.35505 2.87713 0
M  V30 33960 H 3199.61 -6.24115 1.64774 0
M  V30 33961 H 3200.38 -7.48652 3.30851 0
M  V30 33962 N 3203.04 -0.0869173 -1.5736 0
M  V30 33963 C 3204.46 0.269734 -1.57304 0
M  V30 33964 C 3204.66 1.6899 -1.09748 0
M  V30 33965 O 3203.71 2.40466 -0.770213 0
M  V30 33966 C 3205.03 0.0656118 -3.00628 0
M  V30 33967 C 3206.58 0.13399 -3.12713 0
M  V30 33968 C 3207.05 -0.0420374 -4.57981 0
M  V30 33969 N 3208.54 0.0130687 -4.63198 0
M  V30 33970 C 3209.28 -0.0984972 -5.73315 0
M  V30 33971 N 3208.77 -0.264437 -6.92295 0
M  V30 33972 N 3210.57 -0.0403505 -5.62086 0
M  V30 33973 H 3202.72 -1.0149 -1.86584 0
M  V30 33974 H 3204.98 -0.39707 -0.860837 0
M  V30 33975 H 3204.69 -0.914951 -3.3959 0
M  V30 33976 H 3204.56 0.811457 -3.68368 0
M  V30 33977 H 3206.95 1.10505 -2.73629 0
M  V30 33978 H 3207.03 -0.64321 -2.47581 0
M  V30 33979 H 3206.67 -1.00993 -4.97758 0
M  V30 33980 H 3206.6 0.754755 -5.21163 0
M  V30 33981 H 3209.09 0.139117 -3.77644 0
M  V30 33982 H 3209.41 -0.341301 -7.72046 0
M  V30 33983 H 3207.75 -0.299998 -6.94352 0
M  V30 33984 H 3210.94 0.0880978 -4.68017 0
M  V30 33985 H 3211.11 -0.130748 -6.47868 0
M  V30 33986 N 3204.52 1.5649 0.186734 0
M  V30 33987 C 3205.45 1.98234 1.23391 0
M  V30 33988 C 3206.43 0.855551 1.47018 0
M  V30 33989 O 3207.62 1.1205 1.58614 0
M  V30 33990 C 3204.75 2.32903 2.57631 0
M  V30 33991 C 3203.7 3.48398 2.48601 0
M  V30 33992 C 3203.03 3.68766 3.8719 0
M  V30 33993 C 3204.33 4.82329 2.0039 0
M  V30 33994 H 3206.02 2.8596 0.886976 0
M  V30 33995 H 3203.57 1.37578 0.425226 0
M  V30 33996 H 3205.52 2.60702 3.31078 0
M  V30 33997 H 3204.24 1.42069 2.94082 0
M  V30 33998 H 3202.9 3.20703 1.77609 0
M  V30 33999 H 3202.55 2.75248 4.21008 0
M  V30 34000 H 3202.25 4.46468 3.82021 0
M  V30 34001 H 3203.77 3.98949 4.62246 0
M  V30 34002 H 3205.19 5.09105 2.63601 0
M  V30 34003 H 3203.59 5.6356 2.06204 0
M  V30 34004 H 3204.66 4.75353 0.957478 0
M  V30 34005 N 3206 -0.45475 1.50897 0
M  V30 34006 C 3206.95 -1.55064 1.7095 0
M  V30 34007 C 3207.92 -1.56697 0.550926 0
M  V30 34008 O 3209.1 -1.73976 0.783382 0
M  V30 34009 C 3206.24 -2.9292 1.8246 0
M  V30 34010 C 3205.35 -3.0095 3.09924 0
M  V30 34011 C 3204.49 -4.29822 3.12132 0
M  V30 34012 C 3203.53 -4.31654 4.33983 0
M  V30 34013 N 3202.66 -5.52023 4.33838 0
M  V30 34014 H 3207.5 -1.37269 2.64502 0
M  V30 34015 H 3205.04 -0.667125 1.31102 0
M  V30 34016 H 3207 -3.72886 1.87115 0
M  V30 34017 H 3205.63 -3.09313 0.923325 0
M  V30 34018 H 3204.68 -2.13756 3.14663 0
M  V30 34019 H 3205.99 -2.98165 3.99874 0
M  V30 34020 H 3205.15 -5.18148 3.15607 0
M  V30 34021 H 3203.89 -4.35239 2.20041 0
M  V30 34022 H 3202.89 -3.41723 4.30703 0
M  V30 34023 H 3204.12 -4.27915 5.27319 0
M  V30 34024 H 3202.06 -5.58195 3.44608 0
M  V30 34025 H 3201.98 -5.51046 5.17576 0
M  V30 34026 H 3203.25 -6.42429 4.41481 0
M  V30 34027 N 3207.48 -1.40749 -0.709041 0
M  V30 34028 C 3208.7 -1.42904 -1.5031 0
M  V30 34029 C 3209.13 -0.0322461 -1.88072 0
M  V30 34030 O 3208.48 0.961283 -1.53717 0
M  V30 34031 C 3208.53 -2.33171 -2.7507 0
M  V30 34032 O 3207.64 -1.77947 -3.72033 0
M  V30 34033 H 3206.98 -0.485546 -0.452925 0
M  V30 34034 H 3209.51 -1.85055 -0.87268 0
M  V30 34035 H 3209.52 -2.48584 -3.23528 0
M  V30 34036 H 3208.19 -3.34668 -2.46921 0
M  V30 34037 H 3206.77 -1.71914 -3.30908 0
M  V30 34038 N 3208.96 0.941933 -1.26354 0
M  V30 34039 C 3210.18 1.72774 -1.14734 0
M  V30 34040 C 3210.61 1.85792 0.293733 0
M  V30 34041 O 3209.96 1.34761 1.21281 0
M  V30 34042 C 3210.01 3.11274 -1.82046 0
M  V30 34043 O 3209.12 3.97216 -1.10874 0
M  V30 34044 H 3208.46 0.530123 -0.399832 0
M  V30 34045 H 3210.99 1.17978 -1.6716 0
M  V30 34046 H 3211 3.61668 -1.8884 0
M  V30 34047 H 3209.67 3.01115 -2.86884 0
M  V30 34048 H 3208.25 3.55667 -1.12051 0
M  V30 34049 N 3210.43 1.08146 1.1464 0
M  V30 34050 C 3211.37 0.653104 2.18655 0
M  V30 34051 C 3212.34 -0.333775 1.59137 0
M  V30 34052 O 3213.53 -0.238272 1.86988 0
M  V30 34053 C 3210.66 -0.0397741 3.38677 0
M  V30 34054 C 3209.7 0.906829 4.16748 0
M  V30 34055 S 3210.53 2.4121 4.78098 0
M  V30 34056 C 3211.69 1.73125 6.0148 0
M  V30 34057 H 3211.92 1.53428 2.54651 0
M  V30 34058 H 3209.46 0.896184 1.25729 0
M  V30 34059 H 3211.41 -0.433268 4.08207 0
M  V30 34060 H 3210.08 -0.897404 3.01007 0
M  V30 34061 H 3209.27 0.368883 5.02648 0
M  V30 34062 H 3208.87 1.24109 3.52807 0
M  V30 34063 H 3211.16 1.04764 6.69351 0
M  V30 34064 H 3212.11 2.56889 6.59859 0
M  V30 34065 H 3212.51 1.20576 5.51472 0
M  V30 34066 N 3211.91 -1.31626 0.866732 0
M  V30 34067 C 3213.16 -1.97116 0.476766 0
M  V30 34068 C 3213.49 -1.68367 -0.967783 0
M  V30 34069 O 3212.77 -0.978407 -1.681 0
M  V30 34070 C 3213.05 -3.5261 0.730623 0
M  V30 34071 C 3212.9 -3.90944 2.22447 0
M  V30 34072 C 3214.22 -4.39668 0.194957 0
M  V30 34073 H 3211.34 -0.715996 0.174695 0
M  V30 34074 H 3213.98 -1.55808 1.08738 0
M  V30 34075 H 3212.13 -3.87927 0.210902 0
M  V30 34076 H 3213.8 -3.65745 2.8112 0
M  V30 34077 H 3212.05 -3.39668 2.6983 0
M  V30 34078 H 3212.72 -4.99349 2.35275 0
M  V30 34079 H 3215.19 -4.11156 0.639551 0
M  V30 34080 H 3214.07 -5.47426 0.402054 0
M  V30 34081 H 3214.33 -4.32781 -0.902944 0
M  V30 34082 N 3213.39 -0.62585 -1.4464 0
M  V30 34083 C 3214.67 -0.059393 -1.9551 0
M  V30 34084 C 3215.05 1.41346 -1.56794 0
M  V30 34085 O 3214.39 2.12523 -0.83941 0
M  V30 34086 C 3214.6 -0.276708 -3.47901 0
M  V30 34087 C 3215.95 -0.167118 -4.24271 0
M  V30 34088 O 3216.98 -0.207793 -3.55593 0
M  V30 34089 O 3215.84 -0.067596 -5.46458 0
M  V30 34090 H 3212.93 0.0253277 -0.826612 0
M  V30 34091 H 3215.48 -0.697186 -1.54717 0
M  V30 34092 H 3214.25 -1.29892 -3.69112 0
M  V30 34093 H 3213.87 0.395477 -3.95628 0
M  V30 34094 N 3214.87 1.53289 -0.36608 0
M  V30 34095 C 3215.81 2.2575 0.480165 0
M  V30 34096 C 3216.78 1.26442 1.07711 0
M  V30 34097 O 3217.97 1.55224 1.10951 0
M  V30 34098 C 3215.11 3.05048 1.61369 0
M  V30 34099 C 3214.22 4.19248 1.04187 0
M  V30 34100 C 3213.36 4.85987 2.14454 0
M  V30 34101 C 3212.4 5.92218 1.5474 0
M  V30 34102 N 3211.53 6.52645 2.58841 0
M  V30 34103 H 3216.37 2.97651 -0.144252 0
M  V30 34104 H 3213.91 1.46866 -0.0829579 0
M  V30 34105 H 3215.87 3.49298 2.28138 0
M  V30 34106 H 3214.5 2.35401 2.20876 0
M  V30 34107 H 3213.55 3.7948 0.264448 0
M  V30 34108 H 3214.86 4.95586 0.565292 0
M  V30 34109 H 3214.02 5.33423 2.89042 0
M  V30 34110 H 3212.76 4.09122 2.65463 0
M  V30 34111 H 3211.76 5.44143 0.786663 0
M  V30 34112 H 3212.99 6.71003 1.04554 0
M  V30 34113 H 3210.93 5.78633 3.09063 0
M  V30 34114 H 3210.85 7.24524 2.15872 0
M  V30 34115 H 3212.12 7.0473 3.3313 0
M  V30 34116 N 3216.35 0.0952613 1.57312 0
M  V30 34117 C 3217.59 -0.568097 1.93534 0
M  V30 34118 C 3217.91 -1.69328 0.979151 0
M  V30 34119 O 3219.11 -2.4178 1.2351 0
M  V30 34120 C 3217.57 -1.06192 3.43877 0
M  V30 34121 C 3217.18 0.0335184 4.47987 0
M  V30 34122 C 3218.92 -1.69801 3.8906 0
M  V30 34123 C 3216.83 -0.47567 5.89484 0
M  V30 34124 H 3215.76 -0.215982 0.722404 0
M  V30 34125 H 3218.41 0.171289 1.82699 0
M  V30 34126 H 3216.79 -1.855 3.49865 0
M  V30 34127 H 3217.97 0.809014 4.53643 0
M  V30 34128 H 3216.28 0.574797 4.12414 0
M  V30 34129 H 3218.88 -2.08969 4.92175 0
M  V30 34130 H 3219.22 -2.56724 3.27717 0
M  V30 34131 H 3219.75 -0.970747 3.85774 0
M  V30 34132 H 3216.49 0.356952 6.54527 0
M  V30 34133 H 3216.01 -1.21817 5.873 0
M  V30 34134 H 3217.69 -0.944584 6.40068 0
M  V30 34135 N 3217.82 -1.56587 -0.178432 0
M  V30 34136 C 3219.07 -1.81589 -0.896203 0
M  V30 34137 C 3219.4 -0.6712 -1.82552 0
M  V30 34138 O 3218.65 0.342012 -1.92688 0
M  V30 34139 C 3218.95 -3.12707 -1.73057 0
M  V30 34140 C 3218.62 -4.40761 -0.950799 0
M  V30 34141 C 3217.28 -4.75545 -0.735563 0
M  V30 34142 C 3219.63 -5.19637 -0.403327 0
M  V30 34143 C 3216.96 -5.86687 0.0383593 0
M  V30 34144 C 3219.31 -6.31589 0.35747 0
M  V30 34145 C 3217.98 -6.64944 0.583571 0
M  V30 34146 H 3217.25 -0.66448 -0.327944 0
M  V30 34147 H 3219.89 -1.90817 -0.161552 0
M  V30 34148 H 3218.2 -2.9879 -2.5344 0
M  V30 34149 H 3219.9 -3.29261 -2.28885 0
M  V30 34150 H 3216.49 -4.13474 -1.12859 0
M  V30 34151 H 3220.67 -4.93165 -0.556972 0
M  V30 34152 H 3215.93 -6.10992 0.223345 0
M  V30 34153 H 3220.1 -6.91916 0.788982 0
M  V30 34154 H 3217.73 -7.50905 1.18515 0
M  V30 34155 N 3219.3 0.446741 -1.51136 0
M  V30 34156 C 3220.21 1.56693 -1.74598 0
M  V30 34157 C 3221.23 1.622 -0.629845 0
M  V30 34158 O 3222.4 1.79617 -0.911019 0
M  V30 34159 C 3219.47 2.92746 -1.85743 0
M  V30 34160 C 3218.53 2.97432 -3.09569 0
M  V30 34161 C 3217.76 4.26995 -3.20173 0
M  V30 34162 O 3217.99 5.18856 -2.36948 0
M  V30 34163 O 3216.92 4.37773 -4.13085 0
M  V30 34164 H 3220.75 1.39813 -2.69604 0
M  V30 34165 H 3218.33 0.628782 -1.35524 0
M  V30 34166 H 3220.21 3.73509 -1.95113 0
M  V30 34167 H 3218.89 3.09774 -0.939238 0
M  V30 34168 H 3217.79 2.15658 -3.05683 0
M  V30 34169 H 3219.13 2.85346 -4.01046 0
M  V30 34170 N 3220.78 1.41123 0.701567 0
M  V30 34171 C 3222.03 1.39881 1.45869 0
M  V30 34172 C 3222.35 0.00672197 1.94999 0
M  V30 34173 O 3221.62 -0.95044 1.71299 0
M  V30 34174 H 3220.2 0.514866 0.541222 0
M  V30 34175 H 3222.86 1.76307 0.830772 0
M  V30 34176 H 3221.96 2.08234 2.32476 0
M  V30 34177 N 3222.26 -0.935219 1.26852 0
M  V30 34178 C 3223.21 -2.05612 1.08749 0
M  V30 34179 C 3224.2 -1.69395 0.0127108 0
M  V30 34180 O 3225.41 -1.79197 0.169853 0
M  V30 34181 H 3221.78 -0.673329 0.334862 0
M  V30 34182 H 3223.75 -2.1803 2.03729 0
M  V30 34183 C 3222.5 -3.39657 0.743519 0
M  V30 34184 H 3221.82 -3.68006 1.56243 0
M  V30 34185 H 3223.26 -4.18884 0.656681 0
M  V30 34186 C 3221.72 -3.32352 -0.551693 0
M  V30 34187 O 3222.25 -3.68966 -1.5883 0
M  V30 34188 N 3220.46 -2.85453 -0.544533 0
M  V30 34189 H 3220.01 -2.55854 0.299435 0
M  V30 34190 H 3219.96 -2.80947 -1.41124 0
M  V30 34191 N 3223.74 -1.08752 -1.14065 0
M  V30 34192 C 3224.96 -0.840935 -1.89039 0
M  V30 34193 C 3225.38 0.607219 -1.78769 0
M  V30 34194 O 3224.74 1.41751 -1.14947 0
M  V30 34195 C 3224.79 -1.25844 -3.38889 0
M  V30 34196 O 3224.51 -2.64979 -3.48881 0
M  V30 34197 C 3226.01 -1.04323 -4.3085 0
M  V30 34198 H 3223.23 -0.303025 -0.598679 0
M  V30 34199 H 3225.77 -1.44771 -1.44435 0
M  V30 34200 H 3223.93 -0.695694 -3.81102 0
M  V30 34201 H 3224.34 -2.82401 -4.41984 0
M  V30 34202 H 3225.82 -1.3847 -5.3435 0
M  V30 34203 H 3226.29 0.0195012 -4.39196 0
M  V30 34204 H 3226.9 -1.59157 -3.94397 0
M  V30 34205 N 3225.21 1.31165 -0.873701 0
M  V30 34206 C 3226.16 2.30369 -0.32139 0
M  V30 34207 C 3227.16 1.59681 0.56554 0
M  V30 34208 O 3228.36 1.74253 0.451226 0
M  V30 34209 H 3224.74 0.747152 -0.0852556 0
M  V30 34210 H 3226.71 2.74423 -1.17196 0
M  V30 34211 C 3225.46 3.44658 0.458955 0
M  V30 34212 H 3224.78 3.99225 -0.214255 0
M  V30 34213 H 3226.22 4.16178 0.810685 0
M  V30 34214 C 3224.68 2.93635 1.65167 0
M  V30 34215 O 3225.21 2.92716 2.751 0
M  V30 34216 N 3223.42 2.49789 1.48506 0
M  V30 34217 H 3222.96 2.50735 0.59074 0
M  V30 34218 H 3222.92 2.16007 2.28448 0
M  V30 34219 N 3226.69 0.633512 1.44307 0
M  V30 34220 C 3227.92 0.1461 2.06384 0
M  V30 34221 C 3228.34 -1.18029 1.47359 0
M  V30 34222 O 3227.69 -1.72447 0.597364 0
M  V30 34223 C 3227.74 0.0277357 3.61489 0
M  V30 34224 O 3227.46 1.30167 4.18316 0
M  V30 34225 C 3228.97 -0.48809 4.40605 0
M  V30 34226 H 3226.19 0.0807749 0.66612 0
M  V30 34227 H 3228.73 0.868589 1.85137 0
M  V30 34228 H 3226.88 -0.645206 3.81989 0
M  V30 34229 H 3227.3 1.14806 5.11781 0
M  V30 34230 H 3228.77 -0.519916 5.49546 0
M  V30 34231 H 3229.25 -1.51561 4.12221 0
M  V30 34232 H 3229.86 0.151683 4.25029 0
M  V30 34233 N 3228.17 -1.53093 0.374204 0
M  V30 34234 C 3229.12 -2.26001 -0.468186 0
M  V30 34235 C 3230.09 -1.27011 -1.07039 0
M  V30 34236 O 3231.27 -1.55811 -1.10126 0
M  V30 34237 C 3228.41 -3.05899 -1.59749 0
M  V30 34238 C 3227.53 -4.19795 -1.01962 0
M  V30 34239 C 3226.66 -4.87117 -2.11873 0
M  V30 34240 C 3225.7 -5.9303 -1.51597 0
M  V30 34241 N 3224.84 -6.54009 -2.55376 0
M  V30 34242 H 3229.68 -2.9757 0.160035 0
M  V30 34243 H 3227.21 -1.4682 0.0907454 0
M  V30 34244 H 3229.17 -3.50503 -2.26282 0
M  V30 34245 H 3227.8 -2.36569 -2.19624 0
M  V30 34246 H 3226.85 -3.79615 -0.244319 0
M  V30 34247 H 3228.17 -4.95879 -0.539002 0
M  V30 34248 H 3227.32 -5.34948 -2.86209 0
M  V30 34249 H 3226.06 -4.10524 -2.6329 0
M  V30 34250 H 3225.06 -5.44553 -0.757795 0
M  V30 34251 H 3226.29 -6.71548 -1.00994 0
M  V30 34252 H 3224.23 -5.80264 -3.0599 0
M  V30 34253 H 3224.15 -7.25659 -2.12026 0
M  V30 34254 H 3225.42 -7.06487 -3.29388 0
M  V30 34255 N 3229.65 -0.103603 -1.57259 0
M  V30 34256 C 3230.9 0.55699 -1.94273 0
M  V30 34257 C 3231.22 1.6819 -0.986768 0
M  V30 34258 O 3230.49 1.95859 -0.0403162 0
M  V30 34259 H 3229.07 0.208745 -0.717241 0
M  V30 34260 H 3231.73 -0.168932 -1.94167 0
M  V30 34261 H 3230.83 0.961638 -2.96916 0
M  V30 34262 N 3231.13 1.56679 0.170126 0
M  V30 34263 C 3232.08 1.92912 1.21527 0
M  V30 34264 C 3233.06 0.797577 1.39741 0
M  V30 34265 O 3234.25 1.06078 1.41692 0
M  V30 34266 C 3231.38 2.29355 2.55443 0
M  V30 34267 C 3230.47 3.49026 2.40918 0
M  V30 34268 N 3230.86 4.66235 1.9611 0
M  V30 34269 C 3229.16 3.53656 2.71741 0
M  V30 34270 C 3229.86 5.4837 1.94076 0
M  V30 34271 N 3228.83 4.89446 2.36525 0
M  V30 34272 H 3232.64 2.81019 0.860552 0
M  V30 34273 H 3230.15 1.5793 0.378387 0
M  V30 34274 H 3232.15 2.53508 3.30967 0
M  V30 34275 H 3230.81 1.42588 2.91717 0
M  V30 34276 H 3231.82 4.9043 1.66429 0
M  V30 34277 H 3228.49 2.7737 3.12045 0
M  V30 34278 H 3229.88 6.52296 1.61121 0
M  V30 34279 N 3232.6 -0.43872 1.5137 0
M  V30 34280 C 3233.85 -1.19003 1.64214 0
M  V30 34281 C 3234.18 -1.90897 0.35664 0
M  V30 34282 O 3233.46 -1.8354 -0.64369 0
M  V30 34283 C 3233.74 -2.20812 2.84454 0
M  V30 34284 C 3233.59 -1.5301 4.22975 0
M  V30 34285 C 3234.91 -3.21808 3.00213 0
M  V30 34286 H 3232.03 -0.431278 0.597636 0
M  V30 34287 H 3234.67 -0.479454 1.83851 0
M  V30 34288 H 3232.82 -2.81413 2.67841 0
M  V30 34289 H 3234.5 -0.957575 4.51252 0
M  V30 34290 H 3232.74 -0.832481 4.25737 0
M  V30 34291 H 3233.41 -2.27149 5.03098 0
M  V30 34292 H 3235.89 -2.7126 3.15527 0
M  V30 34293 H 3234.76 -3.90339 3.85911 0
M  V30 34294 H 3235.02 -3.87832 2.12223 0
M  V30 34295 N 3234.08 -1.41493 -0.694073 0
M  V30 34296 C 3235.03 -1.43459 -1.80798 0
M  V30 34297 C 3236 -0.288785 -1.6357 0
M  V30 34298 O 3237.18 -0.49005 -1.84399 0
M  V30 34299 C 3234.32 -1.32399 -3.18692 0
M  V30 34300 C 3233.44 -2.56861 -3.47342 0
M  V30 34301 C 3232.57 -2.38084 -4.74857 0
M  V30 34302 C 3231.61 -3.58014 -4.9648 0
M  V30 34303 N 3230.75 -3.38298 -6.15223 0
M  V30 34304 H 3235.59 -2.3866 -1.78453 0
M  V30 34305 H 3233.13 -1.18509 -0.871434 0
M  V30 34306 H 3235.08 -1.23989 -3.9835 0
M  V30 34307 H 3233.71 -0.408056 -3.2021 0
M  V30 34308 H 3232.77 -2.75716 -2.62078 0
M  V30 34309 H 3234.08 -3.46067 -3.5922 0
M  V30 34310 H 3233.23 -2.27149 -5.62573 0
M  V30 34311 H 3231.97 -1.46337 -4.65228 0
M  V30 34312 H 3230.98 -3.69402 -4.07213 0
M  V30 34313 H 3232.2 -4.50717 -5.07968 0
M  V30 34314 H 3230.15 -2.49252 -6.06803 0
M  V30 34315 H 3230.06 -4.2108 -6.27875 0
M  V30 34316 H 3231.33 -3.31138 -7.05668 0
M  V30 34317 N 3235.56 0.928479 -1.27346 0
M  V30 34318 C 3236.51 2.05033 -1.09838 0
M  V30 34319 C 3237.5 1.69386 -0.0216941 0
M  V30 34320 O 3238.71 1.79104 -0.179354 0
M  V30 34321 H 3235.08 0.671543 -0.338428 0
M  V30 34322 H 3237.05 2.16946 -2.04882 0
M  V30 34323 C 3235.8 3.39258 -0.761522 0
M  V30 34324 H 3235.13 3.67172 -1.58192 0
M  V30 34325 H 3236.57 4.1853 -0.678886 0
M  V30 34326 C 3235.03 3.3264 0.53406 0
M  V30 34327 O 3235.56 3.69803 1.56871 0
M  V30 34328 N 3233.76 2.85737 0.529387 0
M  V30 34329 H 3233.31 2.55691 -0.312999 0
M  V30 34330 H 3233.27 2.81692 1.39632 0
M  V30 34331 N 3237.04 1.09355 1.13486 0
M  V30 34332 C 3238.29 0.829158 1.84746 0
M  V30 34333 C 3238.61 -0.645215 1.83486 0
M  V30 34334 O 3237.87 -1.49091 1.26769 0
M  V30 34335 C 3238.17 1.3086 3.32581 0
M  V30 34336 C 3237.83 2.79247 3.54023 0
M  V30 34337 C 3236.5 3.19771 3.59583 0
M  V30 34338 C 3238.85 3.74924 3.62052 0
M  V30 34339 C 3236.18 4.54747 3.70704 0
M  V30 34340 C 3238.53 5.09688 3.74701 0
M  V30 34341 C 3237.19 5.49804 3.78513 0
M  V30 34342 H 3236.46 0.303411 0.676035 0
M  V30 34343 H 3239.11 1.36821 1.33986 0
M  V30 34344 H 3237.41 0.689343 3.85688 0
M  V30 34345 H 3239.11 1.08065 3.86164 0
M  V30 34346 H 3235.7 2.46886 3.5035 0
M  V30 34347 H 3239.88 3.4473 3.57037 0
M  V30 34348 H 3235.14 4.85267 3.71923 0
M  V30 34349 H 3239.31 5.8368 3.79856 0
M  V30 34350 H 3236.94 6.54389 3.86883 0
M  V30 34351 N 3238.52 -1.307 0.880644 0
M  V30 34352 C 3239.76 -1.96309 0.49691 0
M  V30 34353 C 3240.09 -1.69551 -0.953034 0
M  V30 34354 O 3239.35 -0.990537 -1.6878 0
M  V30 34355 C 3239.65 -3.5021 0.713264 0
M  V30 34356 C 3239.31 -3.97009 2.13763 0
M  V30 34357 C 3237.97 -4.09499 2.52714 0
M  V30 34358 C 3240.33 -4.21475 3.06607 0
M  V30 34359 C 3237.65 -4.43813 3.83728 0
M  V30 34360 C 3240.01 -4.57257 4.37148 0
M  V30 34361 C 3238.67 -4.67955 4.75999 0
M  V30 34362 H 3237.94 -0.718344 0.181832 0
M  V30 34363 H 3240.59 -1.55644 1.11567 0
M  V30 34364 H 3238.89 -3.91798 0.0114383 0
M  V30 34365 H 3240.59 -3.9904 0.39602 0
M  V30 34366 H 3237.18 -3.87791 1.82526 0
M  V30 34367 H 3241.36 -4.1131 2.77736 0
M  V30 34368 H 3236.62 -4.50294 4.13576 0
M  V30 34369 H 3240.79 -4.7514 5.09132 0
M  V30 34370 H 3238.42 -4.94299 5.77557 0
M  V30 34371 N 3240 -0.641156 -1.43969 0
M  V30 34372 C 3240.94 0.0698259 -2.32495 0
M  V30 34373 C 3241.94 0.825529 -1.47924 0
M  V30 34374 O 3243.14 0.737294 -1.64207 0
M  V30 34375 H 3239.52 0.0413574 -0.750862 0
M  V30 34376 H 3241.49 -0.694733 -2.902 0
M  V30 34377 C 3240.24 1.03093 -3.32065 0
M  V30 34378 H 3239.56 0.458854 -3.97158 0
M  V30 34379 H 3241 1.49771 -3.96667 0
M  V30 34380 C 3239.46 2.12109 -2.61747 0
M  V30 34381 O 3239.99 3.20328 -2.4239 0
M  V30 34382 N 3238.2 1.88324 -2.2132 0
M  V30 34383 H 3237.74 1.0032 -2.37263 0
M  V30 34384 H 3237.7 2.61462 -1.74599 0
M  V30 34385 N 3241.47 1.52892 -0.382318 0
M  V30 34386 C 3242.88 1.86467 0.0932513 0
M  V30 34387 C 3243.24 1.30229 1.46748 0
M  V30 34388 O 3242.36 0.630876 2.07 0
M  V30 34389 C 3242.96 3.38343 0.175988 0
M  V30 34390 C 3241.51 3.71654 0.595838 0
M  V30 34391 C 3240.66 2.76202 -0.24656 0
M  V30 34392 H 3243.61 1.46902 -0.600469 0
M  V30 34393 H 3243.63 3.67221 0.996447 0
M  V30 34394 H 3243.15 3.79245 -0.824331 0
M  V30 34395 H 3241.25 3.36318 1.60378 0
M  V30 34396 H 3241.36 4.77754 0.358835 0
M  V30 34397 H 3239.72 2.53077 0.287118 0
M  V30 34398 H 3240.51 3.1994 -1.24473 0
M  V30 34399 N 3242.95 0.111941 1.57202 0
M  V30 34400 C 3244.36 -0.414559 1.82039 0
M  V30 34401 C 3244.71 -1.67072 1.02866 0
M  V30 34402 O 3243.84 -2.14795 0.263106 0
M  V30 34403 C 3244.43 -0.758895 3.30191 0
M  V30 34404 C 3242.99 -1.23006 3.55734 0
M  V30 34405 C 3242.14 -0.235177 2.76301 0
M  V30 34406 H 3245.09 0.337169 1.55077 0
M  V30 34407 H 3245.11 -1.61695 3.44434 0
M  V30 34408 H 3244.62 0.155541 3.87788 0
M  V30 34409 H 3242.72 -2.16164 3.03487 0
M  V30 34410 H 3242.84 -1.18026 4.64335 0
M  V30 34411 H 3241.2 -0.720779 2.44288 0
M  V30 34412 H 3241.98 0.672233 3.36654 0
M  V30 34413 N 3244.43 -1.56767 -0.161814 0
M  V30 34414 C 3245.68 -1.8172 -0.875246 0
M  V30 34415 C 3245.99 -0.690771 -1.82996 0
M  V30 34416 O 3247.2 -0.825496 -2.58646 0
M  V30 34417 C 3245.65 -3.22032 -1.60697 0
M  V30 34418 C 3245.26 -4.4257 -0.695408 0
M  V30 34419 C 3247.01 -3.56271 -2.30806 0
M  V30 34420 C 3244.91 -5.73903 -1.42791 0
M  V30 34421 H 3243.84 -0.677668 -0.330579 0
M  V30 34422 H 3246.49 -1.83052 -0.12808 0
M  V30 34423 H 3244.88 -3.15044 -2.39923 0
M  V30 34424 H 3246.05 -4.6076 0.0605692 0
M  V30 34425 H 3244.36 -4.16271 -0.103487 0
M  V30 34426 H 3246.96 -4.51643 -2.86221 0
M  V30 34427 H 3247.3 -2.81609 -3.06598 0
M  V30 34428 H 3247.84 -3.64854 -1.58514 0
M  V30 34429 H 3244.58 -6.5162 -0.712138 0
M  V30 34430 H 3244.1 -5.59674 -2.15697 0
M  V30 34431 H 3245.78 -6.16188 -1.97284 0
M  V30 34432 N 3245.91 0.430686 -1.51601 0
M  V30 34433 C 3247.16 1.17654 -1.63831 0
M  V30 34434 C 3247.47 1.9219 -0.363639 0
M  V30 34435 O 3248.68 2.6903 -0.365406 0
M  V30 34436 C 3247.13 2.14005 -2.89361 0
M  V30 34437 C 3246.74 1.45086 -4.23856 0
M  V30 34438 C 3248.48 2.88982 -3.10949 0
M  V30 34439 C 3246.39 2.3996 -5.4053 0
M  V30 34440 H 3245.32 0.442873 -0.610229 0
M  V30 34441 H 3247.97 0.442952 -1.78074 0
M  V30 34442 H 3246.35 2.90827 -2.68767 0
M  V30 34443 H 3247.53 0.737773 -4.54856 0
M  V30 34444 H 3245.84 0.822357 -4.08199 0
M  V30 34445 H 3248.44 3.60067 -3.95292 0
M  V30 34446 H 3248.78 3.50708 -2.24297 0
M  V30 34447 H 3249.32 2.19266 -3.31914 0
M  V30 34448 H 3246.05 1.82914 -6.29462 0
M  V30 34449 H 3245.57 3.09304 -5.13898 0
M  V30 34450 H 3247.25 3.00949 -5.72747 0
M  V30 34451 N 3247.39 1.4186 0.686559 0
M  V30 34452 C 3248.61 1.45277 1.48018 0
M  V30 34453 C 3249.04 0.0621627 1.87997 0
M  V30 34454 O 3248.39 -0.936706 1.55227 0
M  V30 34455 C 3248.44 2.37517 2.71326 0
M  V30 34456 O 3247.55 1.83843 3.69155 0
M  V30 34457 H 3246.89 0.49269 0.445143 0
M  V30 34458 H 3249.42 1.8642 0.843129 0
M  V30 34459 H 3249.43 2.53699 3.19532 0
M  V30 34460 H 3248.1 3.38554 2.41565 0
M  V30 34461 H 3246.68 1.77157 3.28131 0
M  V30 34462 N 3248.86 -0.921712 1.27837 0
M  V30 34463 C 3250.28 -1.19871 1.05371 0
M  V30 34464 C 3250.48 -2.00414 -0.208962 0
M  V30 34465 O 3249.54 -2.35423 -0.91282 0
M  V30 34466 C 3250.85 -1.94104 2.29661 0
M  V30 34467 C 3252.4 -2.07019 2.3476 0
M  V30 34468 C 3252.87 -2.84658 3.58795 0
M  V30 34469 N 3254.36 -2.92223 3.59388 0
M  V30 34470 C 3255.1 -3.52777 4.52036 0
M  V30 34471 N 3254.59 -4.14673 5.54993 0
M  V30 34472 N 3256.39 -3.50239 4.39647 0
M  V30 34473 H 3248.54 -0.383782 2.08904 0
M  V30 34474 H 3250.8 -0.232413 0.919069 0
M  V30 34475 H 3250.51 -1.42344 3.21607 0
M  V30 34476 H 3250.38 -2.94692 2.35449 0
M  V30 34477 H 3252.77 -2.57962 1.43316 0
M  V30 34478 H 3252.85 -1.05632 2.32971 0
M  V30 34479 H 3252.49 -2.34396 4.50578 0
M  V30 34480 H 3252.42 -3.86343 3.57836 0
M  V30 34481 H 3254.91 -2.48239 2.84932 0
M  V30 34482 H 3255.23 -4.58834 6.21845 0
M  V30 34483 H 3253.57 -4.13201 5.58829 0
M  V30 34484 H 3256.76 -3.01088 3.58418 0
M  V30 34485 H 3256.94 -3.97139 5.1204 0
M  V30 34486 N 3250.34 -1.09956 -1.12905 0
M  V30 34487 C 3251.59 -0.838944 -1.84304 0
M  V30 34488 C 3251.92 0.635475 -1.83826 0
M  V30 34489 O 3251.17 1.48416 -1.27558 0
M  V30 34490 C 3251.47 -1.32622 -3.31883 0
M  V30 34491 C 3251.14 -2.8112 -3.52537 0
M  V30 34492 C 3249.8 -3.21674 -3.57882 0
M  V30 34493 C 3252.15 -3.76839 -3.60058 0
M  V30 34494 C 3249.48 -4.56707 -3.68288 0
M  V30 34495 C 3251.83 -5.11668 -3.71992 0
M  V30 34496 C 3250.49 -5.51803 -3.75592 0
M  V30 34497 H 3249.76 -0.306991 -0.674416 0
M  V30 34498 H 3252.41 -1.37529 -1.33259 0
M  V30 34499 H 3250.72 -0.709787 -3.85317 0
M  V30 34500 H 3252.41 -1.10112 -3.85586 0
M  V30 34501 H 3249 -2.48741 -3.49036 0
M  V30 34502 H 3253.19 -3.46618 -3.55203 0
M  V30 34503 H 3248.44 -4.87232 -3.69344 0
M  V30 34504 H 3252.62 -5.85687 -3.76755 0
M  V30 34505 H 3250.24 -6.56432 -3.83407 0
M  V30 34506 N 3251.82 1.30231 -0.887563 0
M  V30 34507 C 3253.07 1.95318 -0.503356 0
M  V30 34508 C 3253.38 1.70825 0.952787 0
M  V30 34509 O 3254.59 2.29918 1.44396 0
M  V30 34510 C 3253.04 3.49736 -0.849277 0
M  V30 34511 C 3252.65 3.83045 -2.32337 0
M  V30 34512 C 3254.4 4.21123 -0.534394 0
M  V30 34513 C 3252.3 5.30653 -2.61078 0
M  V30 34514 H 3251.23 0.731075 -0.184513 0
M  V30 34515 H 3253.88 1.48141 -1.08289 0
M  V30 34516 H 3252.27 3.95501 -0.198798 0
M  V30 34517 H 3253.44 3.48182 -3.01838 0
M  V30 34518 H 3251.75 3.24768 -2.60605 0
M  V30 34519 H 3254.35 5.29747 -0.726132 0
M  V30 34520 H 3254.69 4.12959 0.526361 0
M  V30 34521 H 3255.23 3.8105 -1.14218 0
M  V30 34522 H 3251.97 5.4387 -3.65904 0
M  V30 34523 H 3251.49 5.66807 -1.96189 0
M  V30 34524 H 3253.17 5.98115 -2.46713 0
M  V30 34525 N 3253.3 0.648782 1.43627 0
M  V30 34526 C 3254.71 0.315948 1.56441 0
M  V30 34527 C 3254.91 -1.18015 1.63324 0
M  V30 34528 O 3253.97 -1.96484 1.58589 0
M  V30 34529 C 3255.28 1.0234 2.82749 0
M  V30 34530 C 3256.83 1.00323 2.96487 0
M  V30 34531 C 3257.31 1.69149 4.2562 0
M  V30 34532 N 3258.8 1.65892 4.32474 0
M  V30 34533 C 3259.53 2.16025 5.3115 0
M  V30 34534 N 3259.03 2.74427 6.3613 0
M  V30 34535 N 3260.82 2.06551 5.22775 0
M  V30 34536 H 3252.97 1.6197 1.37402 0
M  V30 34537 H 3255.24 0.680898 0.659608 0
M  V30 34538 H 3254.94 2.07849 2.8371 0
M  V30 34539 H 3254.82 0.572179 3.72835 0
M  V30 34540 H 3257.2 -0.0434401 2.95068 0
M  V30 34541 H 3257.28 1.49311 2.07702 0
M  V30 34542 H 3256.93 2.73771 4.27799 0
M  V30 34543 H 3256.86 1.17631 5.13294 0
M  V30 34544 H 3259.35 1.2327 3.57229 0
M  V30 34545 H 3259.66 3.10368 7.07737 0
M  V30 34546 H 3258.01 2.78485 6.36766 0
M  V30 34547 H 3261.2 1.60633 4.39676 0
M  V30 34548 H 3261.37 2.4593 5.99519 0
M  V30 34549 N 3254.78 -1.52688 0.390421 0
M  V30 34550 C 3256.02 -2.01892 -0.191693 0
M  V30 34551 C 3256.36 -1.27633 -1.46367 0
M  V30 34552 O 3255.63 -0.377127 -1.90809 0
M  V30 34553 C 3255.91 -3.57169 -0.458473 0
M  V30 34554 C 3255.77 -4.42097 0.828874 0
M  V30 34555 C 3257.09 -4.22016 -1.24862 0
M  V30 34556 H 3254.2 -0.733838 -0.0681962 0
M  V30 34557 H 3256.85 -1.8274 0.520208 0
M  V30 34558 H 3255 -3.7362 -1.06492 0
M  V30 34559 H 3256.67 -4.37396 1.46569 0
M  V30 34560 H 3254.91 -4.09063 1.44395 0
M  V30 34561 H 3255.58 -5.48764 0.596842 0
M  V30 34562 H 3258.06 -4.0955 -0.73538 0
M  V30 34563 H 3256.93 -5.30639 -1.40403 0
M  V30 34564 H 3257.2 -3.79723 -2.26413 0
M  V30 34565 N 3256.25 -0.120276 -1.5714 0
M  V30 34566 C 3257.5 0.537236 -1.94414 0
M  V30 34567 C 3257.82 1.67749 -1.00597 0
M  V30 34568 O 3259.02 2.39785 -1.27341 0
M  V30 34569 C 3257.48 1.00708 -3.45523 0
M  V30 34570 C 3257.09 -0.104785 -4.47877 0
M  V30 34571 C 3258.83 1.63589 -3.91713 0
M  V30 34572 C 3256.74 0.381828 -5.90166 0
M  V30 34573 H 3255.67 0.204462 -0.725749 0
M  V30 34574 H 3258.32 -0.200334 -1.82403 0
M  V30 34575 H 3256.7 1.79911 -3.52772 0
M  V30 34576 H 3257.87 -0.881082 -4.52298 0
M  V30 34577 H 3256.19 -0.640336 -4.11447 0
M  V30 34578 H 3258.79 2.01113 -4.95437 0
M  V30 34579 H 3259.13 2.51478 -3.3176 0
M  V30 34580 H 3259.66 0.909251 -3.87269 0
M  V30 34581 H 3256.4 -0.461036 -6.53877 0
M  V30 34582 H 3255.92 1.12458 -5.89163 0
M  V30 34583 H 3257.6 0.842635 -6.41489 0
M  V30 34584 N 3257.73 1.56851 0.153498 0
M  V30 34585 C 3259.14 1.72499 0.714216 0
M  V30 34586 C 3259.49 0.733653 1.81967 0
M  V30 34587 O 3258.62 -0.101142 2.16164 0
M  V30 34588 C 3259.21 3.1277 1.30233 0
M  V30 34589 C 3257.77 3.30042 1.80968 0
M  V30 34590 C 3256.92 2.68434 0.69559 0
M  V30 34591 H 3259.87 1.58536 -0.0721011 0
M  V30 34592 H 3259.89 3.12409 2.17212 0
M  V30 34593 H 3259.4 3.84898 0.497537 0
M  V30 34594 H 3257.51 2.629 2.64035 0
M  V30 34595 H 3257.62 4.37938 1.94287 0
M  V30 34596 H 3255.98 2.28725 1.12057 0
M  V30 34597 H 3256.77 3.43161 -0.0976488 0
M  V30 34598 N 3259.21 -0.42264 1.51827 0
M  V30 34599 C 3260.16 -1.51403 1.742 0
M  V30 34600 C 3261.13 -1.55493 0.58404 0
M  V30 34601 O 3262.31 -1.72276 0.820109 0
M  V30 34602 C 3259.45 -2.88984 1.88632 0
M  V30 34603 C 3258.57 -2.94308 3.16238 0
M  V30 34604 C 3257.7 -4.23104 3.21179 0
M  V30 34605 C 3256.74 -4.22352 4.43041 0
M  V30 34606 N 3255.88 -5.42696 4.45449 0
M  V30 34607 H 3260.72 -1.31627 2.67354 0
M  V30 34608 H 3258.25 -0.639166 1.32488 0
M  V30 34609 H 3260.21 -3.68833 1.94982 0
M  V30 34610 H 3258.84 -3.07285 0.988727 0
M  V30 34611 H 3257.89 -2.07033 3.19126 0
M  V30 34612 H 3259.21 -2.89616 4.06109 0
M  V30 34613 H 3258.36 -5.11337 3.26526 0
M  V30 34614 H 3257.1 -4.30474 2.29223 0
M  V30 34615 H 3256.1 -3.32511 4.37855 0
M  V30 34616 H 3257.33 -4.16634 5.36277 0
M  V30 34617 H 3255.27 -5.5076 3.56371 0
M  V30 34618 H 3255.19 -5.39943 5.29148 0
M  V30 34619 H 3256.46 -6.3292 4.55008 0
M  V30 34620 N 3260.69 -1.42222 -0.679027 0
M  V30 34621 C 3261.92 -1.45855 -1.46745 0
M  V30 34622 C 3262.33 -0.0686268 -1.88675 0
M  V30 34623 O 3261.69 0.915729 -1.57863 0
M  V30 34624 C 3261.74 -2.38193 -2.71931 0
M  V30 34625 O 3261.46 -3.71777 -2.31761 0
M  V30 34626 C 3262.96 -2.50802 -3.65531 0
M  V30 34627 H 3260.18 -0.496218 -0.451673 0
M  V30 34628 H 3262.73 -1.8669 -0.83469 0
M  V30 34629 H 3260.88 -2.00622 -3.31405 0
M  V30 34630 H 3261.29 -4.21188 -3.12572 0
M  V30 34631 H 3262.77 -3.19543 -4.50107 0
M  V30 34632 H 3263.25 -1.54454 -4.11145 0
M  V30 34633 H 3263.85 -2.89077 -3.11952 0
M  V30 34634 N 3262.17 0.91492 -1.28324 0
M  V30 34635 C 3263.41 1.66668 -1.1659 0
M  V30 34636 C 3263.77 1.90308 0.282927 0
M  V30 34637 O 3263.06 1.49153 1.20266 0
M  V30 34638 C 3263.25 3.0292 -1.89668 0
M  V30 34639 C 3263.08 2.92578 -3.41509 0
M  V30 34640 C 3261.85 2.94166 -4.10846 0
M  V30 34641 C 3264.05 2.70737 -4.37271 0
M  V30 34642 N 3262.03 2.74399 -5.49161 0
M  V30 34643 C 3263.4 2.59802 -5.62941 0
M  V30 34644 C 3265.46 2.55725 -4.27211 0
M  V30 34645 C 3264.16 2.35385 -6.79696 0
M  V30 34646 C 3266.19 2.32687 -5.43701 0
M  V30 34647 C 3265.55 2.22505 -6.68334 0
M  V30 34648 H 3261.65 0.616134 -0.481563 0
M  V30 34649 H 3264.23 1.08062 -1.61959 0
M  V30 34650 H 3262.4 3.59615 -1.46735 0
M  V30 34651 H 3264.14 3.6711 -1.70329 0
M  V30 34652 H 3260.89 3.04878 -3.62417 0
M  V30 34653 H 3261.32 2.67611 -6.21863 0
M  V30 34654 H 3265.96 2.62348 -3.31562 0
M  V30 34655 H 3263.68 2.275 -7.75415 0
M  V30 34656 H 3267.26 2.21938 -5.37806 0
M  V30 34657 H 3266.14 2.04922 -7.56952 0
M  V30 34658 N 3263.64 1.10553 1.1232 0
M  V30 34659 C 3264.59 0.750356 2.20165 0
M  V30 34660 C 3265.59 -0.254037 1.67484 0
M  V30 34661 O 3266.79 -0.114278 1.79637 0
M  V30 34662 H 3263.17 0.224722 0.717638 0
M  V30 34663 H 3265.14 1.66877 2.47375 0
M  V30 34664 C 3263.89 0.199712 3.47126 0
M  V30 34665 H 3263.21 0.963803 3.88009 0
M  V30 34666 H 3264.65 -0.0107288 4.23999 0
M  V30 34667 C 3263.11 -1.06786 3.19528 0
M  V30 34668 O 3263.64 -2.14917 3.39372 0
M  V30 34669 N 3261.85 -0.986984 2.73326 0
M  V30 34670 H 3261.39 -0.106951 2.57378 0
M  V30 34671 H 3261.35 -1.8358 2.55237 0
M  V30 34672 N 3265.12 -1.29758 0.894457 0
M  V30 34673 C 3266.05 -2.26876 0.325565 0
M  V30 34674 C 3267.07 -1.54096 -0.525191 0
M  V30 34675 O 3268.26 -1.7517 -0.343201 0
M  V30 34676 C 3265.36 -3.34326 -0.554893 0
M  V30 34677 C 3264.53 -4.36572 0.268945 0
M  V30 34678 C 3263.59 -5.23386 -0.543509 0
M  V30 34679 O 3262.61 -5.69188 0.0371455 0
M  V30 34680 N 3263.82 -5.50209 -1.85069 0
M  V30 34681 H 3266.58 -2.7633 1.16025 0
M  V30 34682 H 3264.14 -1.43038 0.758407 0
M  V30 34683 H 3266.13 -3.89331 -1.10469 0
M  V30 34684 H 3264.7 -2.8473 -1.29026 0
M  V30 34685 H 3263.92 -3.81301 1.00017 0
M  V30 34686 H 3265.21 -5.01929 0.833337 0
M  V30 34687 H 3264.61 -5.14796 -2.34524 0
M  V30 34688 H 3263.17 -6.0805 -2.34773 0
M  V30 34689 N 3266.6 -0.65639 -1.4328 0
M  V30 34690 C 3267.83 -0.177281 -2.06641 0
M  V30 34691 C 3268.25 1.14943 -1.48895 0
M  V30 34692 O 3267.61 1.71079 -0.60013 0
M  V30 34693 C 3267.66 -0.103054 -3.60453 0
M  V30 34694 O 3266.76 0.933825 -4.01688 0
M  V30 34695 H 3266.1 -0.0963255 -0.656976 0
M  V30 34696 H 3268.63 -0.90021 -1.83732 0
M  V30 34697 H 3268.64 0.0792193 -4.07923 0
M  V30 34698 H 3267.32 -1.07154 -4.01859 0
M  V30 34699 H 3265.89 0.724083 -3.65802 0
M  V30 34700 N 3268.08 1.52478 -0.398513 0
M  V30 34701 C 3269.33 2.00877 0.182011 0
M  V30 34702 C 3269.64 1.28893 1.47126 0
M  V30 34703 O 3270.85 1.68051 2.13239 0
M  V30 34704 C 3269.3 3.57942 0.374915 0
M  V30 34705 C 3268.91 4.38833 -0.901621 0
M  V30 34706 C 3270.66 4.14603 0.911305 0
M  V30 34707 C 3268.56 5.87518 -0.676489 0
M  V30 34708 H 3267.49 0.750574 0.0717936 0
M  V30 34709 H 3270.14 1.75909 -0.522328 0
M  V30 34710 H 3268.53 3.79196 1.14133 0
M  V30 34711 H 3269.7 4.29343 -1.67336 0
M  V30 34712 H 3268.01 3.93438 -1.36364 0
M  V30 34713 H 3270.61 5.23355 1.0956 0
M  V30 34714 H 3270.95 3.7128 1.88299 0
M  V30 34715 H 3271.49 3.97275 0.204226 0
M  V30 34716 H 3268.23 6.35181 -1.61944 0
M  V30 34717 H 3267.75 5.99774 0.0561488 0
M  V30 34718 H 3269.43 6.46235 -0.314568 0
M  V30 34719 N 3269.56 0.128608 1.57074 0
M  V30 34720 C 3270.52 -0.803776 2.14644 0
M  V30 34721 C 3271.52 -1.18801 1.08365 0
M  V30 34722 O 3272.71 -1.11194 1.34095 0
M  V30 34723 C 3269.84 -2.08824 2.69454 0
M  V30 34724 H 3271.04 -0.303294 2.98362 0
M  V30 34725 H 3268.59 -0.120708 1.55833 0
M  V30 34726 H 3269.32 -2.63281 1.8935 0
M  V30 34727 H 3269.11 -1.82212 3.4719 0
M  V30 34728 H 3270.6 -2.75455 3.1387 0
M  V30 34729 N 3271.04 -1.5693 -0.145178 0
M  V30 34730 C 3271.97 -2.01436 -1.18092 0
M  V30 34731 C 3272.95 -0.89423 -1.44698 0
M  V30 34732 O 3274.13 -1.16216 -1.55587 0
M  V30 34733 C 3271.26 -2.39652 -2.51365 0
M  V30 34734 C 3270.22 -3.54867 -2.39277 0
M  V30 34735 C 3269.54 -3.78902 -3.77276 0
M  V30 34736 C 3270.84 -4.87472 -1.87531 0
M  V30 34737 H 3272.54 -2.88211 -0.810847 0
M  V30 34738 H 3270.08 -1.38657 -0.3886 0
M  V30 34739 H 3272.03 -2.69388 -3.24049 0
M  V30 34740 H 3270.76 -1.49816 -2.90211 0
M  V30 34741 H 3269.42 -3.25299 -1.69044 0
M  V30 34742 H 3269.07 -2.86314 -4.13562 0
M  V30 34743 H 3268.77 -4.5644 -3.70049 0
M  V30 34744 H 3270.29 -4.11065 -4.51506 0
M  V30 34745 H 3271.7 -5.15915 -2.5001 0
M  V30 34746 H 3270.1 -5.68829 -1.9119 0
M  V30 34747 H 3271.17 -4.77724 -0.83111 0
M  V30 34748 N 3272.51 0.414582 -1.52049 0
M  V30 34749 C 3273.93 0.752798 -1.40731 0
M  V30 34750 C 3274.13 1.95004 -0.507502 0
M  V30 34751 O 3273.19 2.52484 0.0287745 0
M  V30 34752 C 3274.5 1.01184 -2.83165 0
M  V30 34753 C 3276.05 1.11489 -2.92471 0
M  V30 34754 C 3276.52 1.40673 -4.35861 0
M  V30 34755 N 3278.01 1.47549 -4.39071 0
M  V30 34756 C 3278.75 1.71746 -5.47075 0
M  V30 34757 N 3278.24 1.93584 -6.65205 0
M  V30 34758 N 3280.04 1.73716 -5.34583 0
M  V30 34759 H 3272.19 -0.373586 -2.09089 0
M  V30 34760 H 3274.45 -0.104831 -0.942186 0
M  V30 34761 H 3274.16 0.204547 -3.51105 0
M  V30 34762 H 3274.03 1.93347 -3.23878 0
M  V30 34763 H 3276.42 1.91278 -2.24715 0
M  V30 34764 H 3276.5 0.171749 -2.55223 0
M  V30 34765 H 3276.14 0.614031 -5.04175 0
M  V30 34766 H 3276.07 2.3623 -4.70641 0
M  V30 34767 H 3278.56 1.32485 -3.53915 0
M  V30 34768 H 3278.88 2.11482 -7.433 0
M  V30 34769 H 3277.22 1.9086 -6.6828 0
M  V30 34770 H 3280.41 1.5619 -4.41273 0
M  V30 34771 H 3280.59 1.92235 -6.18829 0
M  V30 34772 N 3273.99 1.4258 0.671475 0
M  V30 34773 C 3274.92 1.4911 1.7969 0
M  V30 34774 C 3275.9 0.347367 1.66515 0
M  V30 34775 O 3277.09 0.562127 1.85886 0
M  V30 34776 C 3274.22 1.39602 3.18007 0
M  V30 34777 C 3273.17 2.52036 3.45921 0
M  V30 34778 C 3272.5 2.27585 4.83848 0
M  V30 34779 C 3273.8 3.94339 3.42483 0
M  V30 34780 H 3275.49 2.43303 1.74482 0
M  V30 34781 H 3273.04 1.17103 0.838022 0
M  V30 34782 H 3274.99 1.42778 3.96475 0
M  V30 34783 H 3273.71 0.419046 3.23901 0
M  V30 34784 H 3272.37 2.48183 2.69816 0
M  V30 34785 H 3272.02 1.28174 4.86395 0
M  V30 34786 H 3271.72 3.02943 5.03487 0
M  V30 34787 H 3273.25 2.32516 5.64596 0
M  V30 34788 H 3274.66 3.99777 4.10915 0
M  V30 34789 H 3273.06 4.69574 3.73658 0
M  V30 34790 H 3274.13 4.20773 2.40994 0
M  V30 34791 N 3275.47 -0.908102 1.28807 0
M  V30 34792 C 3276.38 -2.04434 1.15082 0
M  V30 34793 C 3277.4 -1.73834 0.0760426 0
M  V30 34794 O 3278.57 -1.99352 0.286456 0
M  V30 34795 C 3275.64 -3.36868 0.819792 0
M  V30 34796 C 3274.7 -3.81041 1.97753 0
M  V30 34797 C 3273.93 -5.07155 1.6622 0
M  V30 34798 O 3274.15 -5.67452 0.579191 0
M  V30 34799 O 3273.09 -5.47178 2.50759 0
M  V30 34800 H 3276.91 -2.18933 2.1048 0
M  V30 34801 H 3274.5 -1.03042 1.08179 0
M  V30 34802 H 3276.38 -4.16366 0.649378 0
M  V30 34803 H 3275.06 -3.23531 -0.104483 0
M  V30 34804 H 3273.96 -3.02346 2.20313 0
M  V30 34805 H 3275.3 -3.9895 2.88271 0
M  V30 34806 N 3276.95 -1.11147 -1.11732 0
M  V30 34807 C 3277.88 -0.78919 -2.19759 0
M  V30 34808 C 3278.86 0.241113 -1.68382 0
M  V30 34809 O 3280.04 0.105257 -1.93915 0
M  V30 34810 C 3277.17 -0.228265 -3.46549 0
M  V30 34811 C 3276.13 -1.19009 -4.11121 0
M  V30 34812 C 3275.45 -0.490021 -5.3245 0
M  V30 34813 C 3276.75 -2.53959 -4.56401 0
M  V30 34814 H 3278.45 -1.69245 -2.46975 0
M  V30 34815 H 3275.99 -0.815191 -1.18704 0
M  V30 34816 H 3277.95 0.00938501 -4.21399 0
M  V30 34817 H 3276.67 0.710274 -3.18783 0
M  V30 34818 H 3275.33 -1.41332 -3.38261 0
M  V30 34819 H 3274.98 0.453227 -5.00954 0
M  V30 34820 H 3274.68 -1.1315 -5.76603 0
M  V30 34821 H 3276.2 -0.261092 -6.10042 0
M  V30 34822 H 3277.62 -2.35742 -5.22588 0
M  V30 34823 H 3276.01 -3.1406 -5.11357 0
M  V30 34824 H 3277.08 -3.13408 -3.70004 0
M  V30 34825 N 3278.43 1.29282 -0.901326 0
M  V30 34826 C 3279.67 1.95493 -0.528078 0
M  V30 34827 C 3280 1.71046 0.92594 0
M  V30 34828 O 3279.26 1.01726 1.67183 0
M  V30 34829 C 3279.55 3.49031 -0.76889 0
M  V30 34830 C 3279.22 3.93558 -2.20052 0
M  V30 34831 C 3277.88 4.05426 -2.59196 0
M  V30 34832 C 3280.23 4.16544 -3.13273 0
M  V30 34833 C 3277.56 4.37652 -3.9074 0
M  V30 34834 C 3279.91 4.50244 -4.44368 0
M  V30 34835 C 3278.58 4.60323 -4.83383 0
M  V30 34836 H 3277.85 0.71536 -0.193237 0
M  V30 34837 H 3280.5 1.53849 -1.14029 0
M  V30 34838 H 3278.8 3.91731 -0.0737685 0
M  V30 34839 H 3280.5 3.98359 -0.459454 0
M  V30 34840 H 3277.09 3.84838 -1.88673 0
M  V30 34841 H 3281.27 4.0684 -2.84245 0
M  V30 34842 H 3276.53 4.43658 -4.20687 0
M  V30 34843 H 3280.7 4.6698 -5.16626 0
M  V30 34844 H 3278.33 4.85048 -5.85348 0
M  V30 34845 N 3279.9 0.663979 1.4293 0
M  V30 34846 C 3281.15 0.181414 2.01284 0
M  V30 34847 C 3281.47 -1.21263 1.5271 0
M  V30 34848 O 3280.74 -1.81213 0.744213 0
M  V30 34849 H 3279.32 0.0640777 0.744247 0
M  V30 34850 H 3281.98 0.858062 1.74995 0
M  V30 34851 H 3281.08 0.174328 3.11613 0
M  V30 34852 N 3281.38 -1.52265 0.406593 0
M  V30 34853 C 3282.62 -2.03695 -0.169576 0
M  V30 34854 C 3282.99 -1.28573 -1.42594 0
M  V30 34855 O 3284.19 -1.70216 -2.08038 0
M  V30 34856 C 3282.46 -3.54996 -0.413861 0
M  V30 34857 S 3284.02 -4.28218 -0.95784 0
M  V30 34858 H 3280.83 -0.709496 -0.0462237 0
M  V30 34859 H 3283.44 -1.8734 0.558928 0
M  V30 34860 H 3282.14 -4.07252 0.507356 0
M  V30 34861 H 3281.67 -3.75589 -1.17031 0
M  V30 34862 H 3283.69 -4.42832 -2.23863 0
M  V30 34863 N 3282.86 -0.136936 -1.57004 0
M  V30 34864 C 3284.14 0.5612 -1.87376 0
M  V30 34865 C 3284.52 1.83636 -1.0412 0
M  V30 34866 O 3283.87 2.28157 -0.125143 0
M  V30 34867 C 3284.08 0.836367 -3.3883 0
M  V30 34868 C 3285.42 1.18157 -4.07828 0
M  V30 34869 O 3286.45 0.92605 -3.43952 0
M  V30 34870 O 3285.31 1.66195 -5.20616 0
M  V30 34871 H 3282.4 0.285131 -0.776292 0
M  V30 34872 H 3284.95 -0.172791 -1.68818 0
M  V30 34873 H 3283.72 -0.0665108 -3.91243 0
M  V30 34874 H 3283.34 1.62489 -3.62882 0
M  V30 34875 N 3284.34 1.57005 0.136853 0
M  V30 34876 C 3285.59 1.8309 0.846225 0
M  V30 34877 C 3285.9 0.719797 1.81874 0
M  V30 34878 O 3287.11 0.86654 2.573 0
M  V30 34879 C 3285.56 3.24548 1.55553 0
M  V30 34880 C 3285.17 4.4362 0.624911 0
M  V30 34881 C 3286.91 3.59897 2.25109 0
M  V30 34882 C 3284.82 5.76102 1.33643 0
M  V30 34883 H 3283.75 0.682841 0.319756 0
M  V30 34884 H 3286.4 1.83233 0.0989419 0
M  V30 34885 H 3284.78 3.18821 2.34881 0
M  V30 34886 H 3285.96 4.60606 -0.133864 0
M  V30 34887 H 3284.27 4.16383 0.0372484 0
M  V30 34888 H 3286.87 4.56139 2.79 0
M  V30 34889 H 3287.21 2.86451 3.02079 0
M  V30 34890 H 3287.75 3.67329 1.52689 0
M  V30 34891 H 3284.49 6.52671 0.608381 0
M  V30 34892 H 3284.01 5.63035 2.06766 0
M  V30 34893 H 3285.68 6.19249 1.87456 0
M  V30 34894 N 3285.82 -0.406513 1.52267 0
M  V30 34895 C 3287.05 -1.17317 1.70059 0
M  V30 34896 C 3287.45 -1.84685 0.410872 0
M  V30 34897 O 3286.8 -1.72808 -0.623156 0
M  V30 34898 C 3286.86 -2.27693 2.78201 0
M  V30 34899 C 3286.52 -1.8044 4.1987 0
M  V30 34900 C 3287.52 -1.29073 5.03623 0
M  V30 34901 C 3285.21 -1.87194 4.66115 0
M  V30 34902 C 3287.2 -0.850862 6.31695 0
M  V30 34903 C 3284.89 -1.42819 5.94177 0
M  V30 34904 C 3285.88 -0.918502 6.76796 0
M  V30 34905 O 3285.57 -0.481161 8.02459 0
M  V30 34906 H 3285.3 -0.358445 0.573143 0
M  V30 34907 H 3287.86 -0.484029 1.99615 0
M  V30 34908 H 3286.09 -2.99979 2.44027 0
M  V30 34909 H 3287.78 -2.89441 2.84567 0
M  V30 34910 H 3288.54 -1.23225 4.69085 0
M  V30 34911 H 3284.42 -2.25809 4.01909 0
M  V30 34912 H 3287.97 -0.452349 6.96132 0
M  V30 34913 H 3283.86 -1.48347 6.28223 0
M  V30 34914 H 3284.63 -0.604232 8.16267 0
M  V30 34915 O 3287.33 -1.51759 -0.552403 0
M  V30 34916 H 3288.02 -1.51454 -1.20754 0
M  V30 END ATOM
M  V30 BEGIN BOND
M  V30 END BOND
M  V30 END CTAB
M  END
$$$$
