drugbank_target|Q8IDV0 Elongation factor 1-gamma, putative (DB11638)
 OpenBabel12092121123D

  0  0  0     0  0            999 V3000
M  V30 BEGIN CTAB
M  V30 COUNTS 6644 6722 0 0 0
M  V30 BEGIN ATOM
M  V30 1 H -0.908 1.98254 -0.117106 0
M  V30 2 N 0 1.576 0 0
M  V30 3 C 0.933 2.03868 1.02534 0
M  V30 4 C 1.911 0.928543 1.3348 0
M  V30 5 O 3.095 1.19667 1.45644 0
M  V30 6 C 0.222 2.43627 2.35294 0
M  V30 7 C -0.732 3.65373 2.2001 0
M  V30 8 S 0.101 5.13292 1.52614 0
M  V30 9 C 1.257 5.56322 2.86805 0
M  V30 10 H 1.49 2.90518 0.631377 0
M  V30 11 H -0.977 1.52953 0.210867 0
M  V30 12 H 0.981 2.67203 3.11629 0
M  V30 13 H -0.358 1.57376 2.7183 0
M  V30 14 H -1.165 3.90944 3.18086 0
M  V30 15 H -1.563 3.418 1.51819 0
M  V30 16 H 0.729 5.58782 3.83104 0
M  V30 17 H 1.672 6.56266 2.65933 0
M  V30 18 H 2.08 4.83886 2.90714 0
M  V30 19 N 1.4781 -0.272755 1.55222 0
M  V30 20 C 2.7551 -1.02562 1.66555 0
M  V30 21 C 3.1351 -2.04282 0.532189 0
M  V30 22 O 2.4831 -2.23662 -0.467717 0
M  V30 23 C 2.6931 -1.6822 3.05782 0
M  V30 24 C 4.0411 -2.19373 3.63539 0
M  V30 25 O 5.0651 -1.78206 3.08417 0
M  V30 26 O 3.9241 -2.94883 4.60115 0
M  V30 27 H 1.0181 -0.475755 0.676451 0
M  V30 28 H 3.5641 -0.268593 1.67561 0
M  V30 29 H 2.3361 -0.945112 3.79715 0
M  V30 30 H 1.9591 -2.50609 3.08676 0
M  V30 31 N 2.9562 -1.48159 -0.537278 0
M  V30 32 C 4.2032 -1.55804 -1.29349 0
M  V30 33 C 4.5312 -0.228802 -1.9315 0
M  V30 34 O 3.7862 0.780242 -1.79473 0
M  V30 35 C 4.0852 -2.63956 -2.40961 0
M  V30 36 C 3.7512 -4.0662 -1.94861 0
M  V30 37 C 2.4132 -4.45452 -1.82006 0
M  V30 38 C 4.7652 -4.96055 -1.59933 0
M  V30 39 C 2.0932 -5.71531 -1.32547 0
M  V30 40 C 4.4452 -6.22617 -1.11939 0
M  V30 41 C 3.1092 -6.60312 -0.976951 0
M  V30 42 H 2.3792 -0.570129 -0.473322 0
M  V30 43 H 5.0262 -1.81845 -0.600372 0
M  V30 44 H 3.3312 -2.31747 -3.15912 0
M  V30 45 H 5.0282 -2.67089 -2.99107 0
M  V30 46 H 1.6182 -3.75949 -2.05815 0
M  V30 47 H 5.8022 -4.66738 -1.68728 0
M  V30 48 H 1.0582 -5.99468 -1.202 0
M  V30 49 H 5.2322 -6.91318 -0.839811 0
M  V30 50 H 2.8592 -7.57895 -0.591501 0
M  V30 51 N 4.4343 0.785586 -1.36625 0
M  V30 52 C 5.3813 1.89838 -1.31264 0
M  V30 53 C 6.3513 1.65115 -0.180633 0
M  V30 54 O 7.5363 1.87222 -0.36777 0
M  V30 55 C 4.6763 3.26706 -1.11163 0
M  V30 56 C 3.7893 3.63476 -2.33472 0
M  V30 57 C 2.9243 4.89481 -2.06353 0
M  V30 58 C 1.9633 5.18941 -3.24602 0
M  V30 59 N 1.1003 6.36131 -2.97123 0
M  V30 60 H 5.9403 1.93756 -2.26413 0
M  V30 61 H 3.4773 0.947454 -1.12524 0
M  V30 62 H 5.4353 4.05639 -0.975337 0
M  V30 63 H 4.0653 3.222 -0.196674 0
M  V30 64 H 3.1173 2.79636 -2.57891 0
M  V30 65 H 4.4293 3.81193 -3.21704 0
M  V30 66 H 3.5833 5.76288 -1.89675 0
M  V30 67 H 2.3223 4.73841 -1.15437 0
M  V30 68 H 1.3273 4.30615 -3.41834 0
M  V30 69 H 2.5523 5.36498 -4.16349 0
M  V30 70 H 0.4983 6.21875 -2.08823 0
M  V30 71 H 0.4153 6.54198 -3.78894 0
M  V30 72 H 1.6833 7.2591 -2.84033 0
M  V30 73 N 5.9124 1.20967 1.01018 0
M  V30 74 C 6.8424 0.988272 2.11555 0
M  V30 75 C 7.8234 -0.0849778 1.69888 0
M  V30 76 O 9.0084 0.0738202 1.9406 0
M  V30 77 C 6.1384 0.546528 3.42973 0
M  V30 78 C 5.0924 1.56375 3.9841 0
M  V30 79 C 4.4184 0.97842 5.25672 0
M  V30 80 C 5.7184 2.94922 4.31066 0
M  V30 81 H 7.4124 1.91276 2.30334 0
M  V30 82 H 4.9584 0.921073 1.1069 0
M  V30 83 H 6.9114 0.378839 4.19694 0
M  V30 84 H 5.6354 -0.413598 3.23971 0
M  V30 85 H 4.2944 1.71891 3.23804 0
M  V30 86 H 3.9424 0.0101688 5.02999 0
M  V30 87 H 3.6424 1.65784 5.63728 0
M  V30 88 H 5.1664 0.821939 6.05043 0
M  V30 89 H 6.5804 2.8288 4.9865 0
M  V30 90 H 4.9774 3.5983 4.80253 0
M  V30 91 H 6.0474 3.4616 3.39561 0
M  V30 92 N 7.3905 -1.2043 1.01659 0
M  V30 93 C 8.3205 -2.25466 0.607226 0
M  V30 94 C 9.3015 -1.65853 -0.377716 0
M  V30 95 O 10.4865 -1.92409 -0.263149 0
M  V30 96 C 7.6165 -3.47256 -0.0552949 0
M  V30 97 C 6.5705 -4.19462 0.850632 0
M  V30 98 C 5.8965 -5.34673 0.0538859 0
M  V30 99 C 7.1965 -4.75603 2.15868 0
M  V30 100 H 8.8905 -2.59962 1.48526 0
M  V30 101 H 6.4365 -1.2496 0.715605 0
M  V30 102 H 8.3895 -4.19917 -0.353233 0
M  V30 103 H 7.1135 -3.11924 -0.968045 0
M  V30 104 H 5.7725 -3.48667 1.13257 0
M  V30 105 H 5.4205 -4.95585 -0.860514 0
M  V30 106 H 5.1205 -5.83913 0.657192 0
M  V30 107 H 6.6445 -6.10138 -0.237598 0
M  V30 108 H 8.0585 -5.40083 1.92311 0
M  V30 109 H 6.4555 -5.3528 2.71284 0
M  V30 110 H 7.5255 -3.94346 2.82169 0
M  V30 111 N 8.8686 -0.792821 -1.36206 0
M  V30 112 C 9.8316 -0.199459 -2.2833 0
M  V30 113 C 10.8316 0.605189 -1.48977 0
M  V30 114 O 12.0216 0.425685 -1.68919 0
M  V30 115 C 9.1536 0.723523 -3.33134 0
M  V30 116 H 10.3466 -1.01181 -2.82316 0
M  V30 117 H 7.8996 -0.562485 -1.45828 0
M  V30 118 H 8.6346 1.56008 -2.84309 0
M  V30 119 H 8.4196 0.148436 -3.91819 0
M  V30 120 H 9.9096 1.13344 -4.01924 0
M  V30 121 N 10.3467 1.47872 -0.545128 0
M  V30 122 C 11.7577 1.86384 -0.108581 0
M  V30 123 C 12.1087 1.45309 1.31832 0
M  V30 124 O 11.2337 0.850641 1.9898 0
M  V30 125 C 11.8287 3.38265 -0.190274 0
M  V30 126 C 10.3877 3.75914 0.191164 0
M  V30 127 C 9.5347 2.71926 -0.543273 0
M  V30 128 H 12.4857 1.39561 -0.755537 0
M  V30 129 H 12.5067 3.75831 0.594217 0
M  V30 130 H 12.0187 3.6813 -1.2289 0
M  V30 131 H 10.1197 3.51665 1.23136 0
M  V30 132 H 10.2327 4.78836 -0.158987 0
M  V30 133 H 8.5967 2.54697 0.0122495 0
M  V30 134 H 9.3797 3.04634 -1.58282 0
M  V30 135 N 11.8248 0.280983 1.55075 0
M  V30 136 C 12.7718 -0.603937 2.22758 0
M  V30 137 C 13.7418 -1.1452 1.20309 0
M  V30 138 O 14.9268 -1.19343 1.48869 0
M  V30 139 C 12.0668 -1.77947 2.95684 0
M  V30 140 C 11.1798 -1.2715 4.12864 0
M  V30 141 C 10.3148 -2.4093 4.7342 0
M  V30 142 C 9.3538 -1.87165 5.82783 0
M  V30 143 N 8.4908 -2.94441 6.37377 0
M  V30 144 H 13.3308 -0.020124 2.97993 0
M  V30 145 H 10.8678 0.00183425 1.471 0
M  V30 146 H 12.8258 -2.47055 3.36184 0
M  V30 147 H 11.4558 -2.33522 2.22861 0
M  V30 148 H 10.5078 -0.473331 3.77444 0
M  V30 149 H 11.8198 -0.837751 4.91715 0
M  V30 150 H 10.9738 -3.18021 5.1667 0
M  V30 151 H 9.7128 -2.87623 3.93859 0
M  V30 152 H 8.7178 -1.08556 5.38976 0
M  V30 153 H 9.9428 -1.41401 6.64216 0
M  V30 154 H 7.8888 -3.40505 5.60707 0
M  V30 155 H 7.8058 -2.55501 7.11516 0
M  V30 156 H 9.0738 -3.71489 6.85285 0
M  V30 157 N 13.3029 -1.57598 0.00835791 0
M  V30 158 C 14.2509 -2.10078 -0.998508 0
M  V30 159 C 15.2449 -1.02262 -1.35051 0
M  V30 160 O 16.4509 -1.20719 -1.33518 0
M  V30 161 H 12.8259 -0.670903 -0.339696 0
M  V30 162 H 14.7969 -2.93648 -0.530398 0
M  V30 163 C 13.5459 -2.62615 -2.27879 0
M  V30 164 H 12.8689 -3.45213 -2.01662 0
M  V30 165 H 14.3089 -3.03004 -2.96588 0
M  V30 166 C 12.7679 -1.54407 -2.99433 0
M  V30 167 O 13.2979 -0.931812 -3.90743 0
M  V30 168 N 11.5039 -1.2695 -2.61404 0
M  V30 169 H 11.0509 -1.76924 -1.87232 0
M  V30 170 H 11.0089 -0.547704 -3.09593 0
M  V30 171 N 14.781 0.264519 -1.55364 0
M  V30 172 C 16.058 1.01677 -1.67096 0
M  V30 173 C 16.438 2.03996 -0.543015 0
M  V30 174 O 15.786 2.23907 0.45585 0
M  V30 175 C 15.996 1.66596 -3.0667 0
M  V30 176 C 17.344 2.17442 -3.64697 0
M  V30 177 O 18.368 1.76568 -3.09358 0
M  V30 178 O 17.227 2.92439 -4.61673 0
M  V30 179 H 14.321 0.472161 -0.678965 0
M  V30 180 H 16.867 0.259703 -1.67701 0
M  V30 181 H 15.639 0.924962 -3.80211 0
M  V30 182 H 15.262 2.48968 -3.10001 0
M  V30 183 N 16.2591 1.48442 0.529413 0
M  V30 184 C 17.5051 1.5672 1.28711 0
M  V30 185 C 17.8381 0.2406 1.92704 0
M  V30 186 O 17.1131 -0.753454 1.79313 0
M  V30 187 C 17.3961 2.70587 2.37603 0
M  V30 188 C 17.2491 4.12953 1.78297 0
M  V30 189 C 18.5681 2.80212 3.39366 0
M  V30 190 H 15.6871 0.570474 0.466613 0
M  V30 191 H 18.3291 1.80617 0.589706 0
M  V30 192 H 16.4791 2.50342 2.97088 0
M  V30 193 H 18.1511 4.44639 1.22858 0
M  V30 194 H 16.3941 4.19927 1.0883 0
M  V30 195 H 17.0651 4.88448 2.57144 0
M  V30 196 H 19.5411 2.98553 2.89836 0
M  V30 197 H 18.4171 3.61611 4.12951 0
M  V30 198 H 18.6781 1.88393 3.99951 0
M  V30 199 N 17.7372 -0.778329 1.37039 0
M  V30 200 C 19.1532 -1.07796 1.17695 0
M  V30 201 C 19.3532 -2.01498 0.00860115 0
M  V30 202 O 18.4092 -2.43901 -0.653352 0
M  V30 203 C 19.7222 -1.68178 2.49272 0
M  V30 204 C 21.2702 -1.80467 2.55735 0
M  V30 205 C 21.7452 -2.44263 3.87427 0
M  V30 206 N 23.2362 -2.51721 3.88833 0
M  V30 207 C 23.9712 -3.01919 4.87476 0
M  V30 208 N 23.4672 -3.5234 5.96513 0
M  V30 209 N 25.2602 -3.00733 4.74885 0
M  V30 210 H 17.4112 -0.156032 2.11826 0
M  V30 211 H 19.6742 -0.131844 0.938787 0
M  V30 212 H 19.3802 -1.06796 3.35093 0
M  V30 213 H 19.2542 -2.67554 2.65885 0
M  V30 214 H 21.6412 -2.40984 1.70325 0
M  V30 215 H 21.7222 -0.798656 2.43013 0
M  V30 216 H 21.3662 -1.84388 4.73248 0
M  V30 217 H 21.2962 -3.45458 3.9745 0
M  V30 218 H 23.7872 -2.1603 3.10063 0
M  V30 219 H 24.1002 -3.89027 6.67741 0
M  V30 220 H 22.4452 -3.50462 6.00168 0
M  V30 221 H 25.6362 -2.60638 3.88826 0
M  V30 222 H 25.8092 -3.39545 5.51918 0
M  V30 223 N 19.2153 -1.21501 -1.00376 0
M  V30 224 C 20.4433 -1.059 -1.77744 0
M  V30 225 C 20.8583 0.391125 -1.84704 0
M  V30 226 O 20.2153 1.27133 -1.30933 0
M  V30 227 C 20.2663 -1.65111 -3.21591 0
M  V30 228 O 19.9873 -3.0445 -3.15027 0
M  V30 229 C 21.4883 -1.54637 -4.15454 0
M  V30 230 H 18.7083 -0.371825 -0.558558 0
M  V30 231 H 21.2523 -1.60865 -1.26264 0
M  V30 232 H 19.4073 -1.14235 -3.70175 0
M  V30 233 H 19.8213 -3.3278 -4.0541 0
M  V30 234 H 21.2953 -2.00808 -5.14179 0
M  V30 235 H 21.7723 -0.501022 -4.36333 0
M  V30 236 H 22.3783 -2.04767 -3.72761 0
M  V30 237 N 20.6934 1.19889 -1.02296 0
M  V30 238 C 21.6234 2.25141 -0.619174 0
M  V30 239 C 22.6044 1.66051 0.368915 0
M  V30 240 O 23.7894 1.92546 0.252941 0
M  V30 241 C 20.9194 3.4728 0.0368783 0
M  V30 242 C 19.8734 4.19005 -0.872865 0
M  V30 243 C 19.1994 5.34637 -0.0822402 0
M  V30 244 C 20.4994 4.74452 -2.18387 0
M  V30 245 H 22.1934 2.59171 -1.49903 0
M  V30 246 H 19.7394 1.24579 -0.722222 0
M  V30 247 H 21.6924 4.20098 0.330958 0
M  V30 248 H 20.4164 3.12433 0.95149 0
M  V30 249 H 19.0754 3.48061 -1.15105 0
M  V30 250 H 18.7234 4.96034 0.83422 0
M  V30 251 H 18.4234 5.83557 -0.688149 0
M  V30 252 H 19.9474 6.10255 0.205238 0
M  V30 253 H 21.3614 5.39055 -1.95172 0
M  V30 254 H 19.7584 5.33834 -2.74119 0
M  V30 255 H 20.8284 3.92844 -2.84257 0
M  V30 256 N 22.1715 0.800033 1.35784 0
M  V30 257 C 23.1185 0.203848 2.29898 0
M  V30 258 C 24.0885 -0.658375 1.52495 0
M  V30 259 O 25.2735 -0.604832 1.8096 0
M  V30 260 C 22.4135 -0.64688 3.38983 0
M  V30 261 C 21.5265 0.235054 4.3136 0
M  V30 262 C 20.6615 -0.623054 5.27533 0
M  V30 263 C 19.7005 0.259682 6.11549 0
M  V30 264 N 18.8375 -0.558019 6.99879 0
M  V30 265 H 23.6775 1.01186 2.80295 0
M  V30 266 H 21.2145 0.51053 1.37957 0
M  V30 267 H 23.1725 -1.15521 4.00887 0
M  V30 268 H 21.8025 -1.42021 2.89879 0
M  V30 269 H 20.8545 0.861438 3.70518 0
M  V30 270 H 22.1665 0.914768 4.9034 0
M  V30 271 H 21.3205 -1.19678 5.94779 0
M  V30 272 H 20.0595 -1.33636 4.69034 0
M  V30 273 H 19.0645 0.845726 5.43256 0
M  V30 274 H 20.2895 0.970748 6.72126 0
M  V30 275 H 18.2355 -1.25542 6.43875 0
M  V30 276 H 18.1525 0.0637872 7.55973 0
M  V30 277 H 19.4205 -1.11523 7.71481 0
M  V30 278 N 23.6496 -1.47581 0.552962 0
M  V30 279 C 24.8956 -2.02782 0.0273648 0
M  V30 280 C 25.2286 -1.42687 -1.31734 0
M  V30 281 O 24.5036 -0.580897 -1.85623 0
M  V30 282 C 24.7866 -3.60031 -0.0702371 0
M  V30 283 C 24.6396 -4.30566 1.30126 0
M  V30 284 C 25.9586 -4.33028 -0.785771 0
M  V30 285 H 23.0776 -0.736912 0.0114185 0
M  V30 286 H 25.7196 -1.76056 0.714432 0
M  V30 287 H 23.8696 -3.82932 -0.655382 0
M  V30 288 H 25.5416 -4.19018 1.92929 0
M  V30 289 H 23.7846 -3.91086 1.87709 0
M  V30 290 H 24.4556 -5.39114 1.18573 0
M  V30 291 H 26.9316 -4.15095 -0.288982 0
M  V30 292 H 25.8076 -5.42695 -0.823013 0
M  V30 293 H 26.0686 -4.01945 -1.841 0
M  V30 294 N 25.1277 -0.289203 -1.54924 0
M  V30 295 C 26.0597 0.625583 -2.20497 0
M  V30 296 C 27.0727 1.10667 -1.19402 0
M  V30 297 O 28.2617 1.02615 -1.46056 0
M  V30 298 C 25.3617 1.86702 -2.82835 0
M  V30 299 C 24.5347 1.5304 -4.09753 0
M  V30 300 C 23.5937 2.62576 -4.56005 0
M  V30 301 O 22.6197 2.28167 -5.21468 0
M  V30 302 N 23.8217 3.92901 -4.27328 0
M  V30 303 H 26.5867 0.0642801 -2.99631 0
M  V30 304 H 24.1477 -0.110896 -1.6152 0
M  V30 305 H 26.1397 2.59304 -3.10715 0
M  V30 306 H 24.7097 2.33702 -2.07611 0
M  V30 307 H 23.9297 0.637564 -3.8901 0
M  V30 308 H 25.2177 1.28072 -4.92418 0
M  V30 309 H 24.6157 4.23671 -3.74859 0
M  V30 310 H 23.1727 4.61837 -4.59946 0
M  V30 311 N 26.6058 1.57591 -0.0167156 0
M  V30 312 C 27.8338 1.95575 0.675128 0
M  V30 313 C 28.2488 0.892542 1.6637 0
M  V30 314 O 27.6058 -0.126912 1.82058 0
M  V30 315 C 27.6568 3.33608 1.39239 0
M  V30 316 O 27.3778 4.3585 0.443444 0
M  V30 317 C 28.8788 3.86151 2.17721 0
M  V30 318 H 26.0988 0.644423 0.186978 0
M  V30 319 H 28.6428 2.0437 -0.0728 0
M  V30 320 H 26.7978 3.2607 2.09182 0
M  V30 321 H 27.2118 5.158 0.951358 0
M  V30 322 H 28.6858 4.85114 2.63379 0
M  V30 323 H 29.1628 3.19738 3.01105 0
M  V30 324 H 29.7688 3.96918 1.52761 0
M  V30 325 N 28.0839 -0.256276 1.55502 0
M  V30 326 C 29.3299 -0.987079 1.77157 0
M  V30 327 C 29.6629 -1.85327 0.580315 0
M  V30 328 O 28.9379 -1.89874 -0.421686 0
M  V30 329 C 29.2209 -1.85553 3.08613 0
M  V30 330 C 29.0739 -1.01816 4.38125 0
M  V30 331 C 30.3929 -2.8397 3.36228 0
M  V30 332 H 27.5119 -0.357428 0.644526 0
M  V30 333 H 30.1539 -0.258239 1.88237 0
M  V30 334 H 28.3039 -2.47695 2.99298 0
M  V30 335 H 29.9759 -0.416159 4.59419 0
M  V30 336 H 28.2189 -0.322178 4.32602 0
M  V30 337 H 28.8899 -1.65939 5.26468 0
M  V30 338 H 31.3659 -2.31964 3.45445 0
M  V30 339 H 30.2419 -3.41864 4.29442 0
M  V30 340 H 30.5029 -3.59955 2.56681 0
M  V30 341 N 29.562 -1.4872 -0.521534 0
M  V30 342 C 30.525 -1.63379 -1.60748 0
M  V30 343 C 31.525 -0.50661 -1.52611 0
M  V30 344 O 32.715 -0.772601 -1.5613 0
M  V30 345 C 29.847 -1.61192 -3.00383 0
M  V30 346 H 31.04 -2.60217 -1.49087 0
M  V30 347 H 28.593 -1.37444 -0.744235 0
M  V30 348 H 29.328 -0.65863 -3.17541 0
M  V30 349 H 29.113 -2.43032 -3.07698 0
M  V30 350 H 30.603 -1.7466 -3.7932 0
M  V30 351 N 31.0401 0.771051 -1.3745 0
M  V30 352 C 32.2651 1.56529 -1.36065 0
M  V30 353 C 32.6901 1.88029 0.0515859 0
M  V30 354 O 32.0481 1.49282 1.02882 0
M  V30 355 C 32.0961 2.85187 -2.20683 0
M  V30 356 O 31.2001 3.79593 -1.61193 0
M  V30 357 H 30.5411 0.47411 -0.464883 0
M  V30 358 H 33.0711 0.954269 -1.80983 0
M  V30 359 H 33.0811 3.34283 -2.33921 0
M  V30 360 H 31.7561 2.61588 -3.23334 0
M  V30 361 H 30.3331 3.38239 -1.56999 0
M  V30 362 N 32.5182 1.22032 0.997298 0
M  V30 363 C 33.7652 1.04222 1.73621 0
M  V30 364 C 34.0932 -0.423264 1.89839 0
M  V30 365 O 33.3482 -1.3302 1.43542 0
M  V30 366 C 33.6472 1.69345 3.14733 0
M  V30 367 C 33.3132 3.19226 3.18442 0
M  V30 368 C 31.9752 3.60124 3.19161 0
M  V30 369 C 34.3272 4.15181 3.15078 0
M  V30 370 C 31.6552 4.95467 3.14212 0
M  V30 371 C 34.0072 5.50495 3.1167 0
M  V30 372 C 32.6712 5.90779 3.10703 0
M  V30 373 H 31.9412 0.381374 0.635323 0
M  V30 374 H 34.5882 1.51732 1.16831 0
M  V30 375 H 32.8932 1.14147 3.74803 0
M  V30 376 H 34.5902 1.53059 3.7064 0
M  V30 377 H 31.1802 2.86659 3.18629 0
M  V30 378 H 35.3642 3.84605 3.13676 0
M  V30 379 H 30.6202 5.25916 3.11805 0
M  V30 380 H 34.7942 6.24576 3.08022 0
M  V30 381 H 32.4212 6.9562 3.06622 0
M  V30 382 N 33.9963 -1.19345 1.0293 0
M  V30 383 C 35.2363 -1.90738 0.734727 0
M  V30 384 C 35.6003 -1.7785 -0.723414 0
M  V30 385 O 36.8013 -2.43844 -1.13108 0
M  V30 386 C 35.0723 -3.37569 1.17396 0
M  V30 387 S 36.6313 -4.27176 1.00329 0
M  V30 388 H 33.4493 -0.658771 0.267474 0
M  V30 389 H 36.0513 -1.4428 1.31922 0
M  V30 390 H 34.7553 -3.44475 2.23081 0
M  V30 391 H 34.2863 -3.8906 0.582772 0
M  V30 392 H 36.3013 -4.96126 -0.0859152 0
M  V30 393 N 35.4744 -0.807222 -1.35358 0
M  V30 394 C 36.4224 -0.20614 -2.31685 0
M  V30 395 C 37.4164 0.644445 -1.56663 0
M  V30 396 O 38.6224 0.537538 -1.71786 0
M  V30 397 H 34.9974 -0.0479006 -0.750473 0
M  V30 398 H 36.9684 -1.03369 -2.79924 0
M  V30 399 C 35.7174 0.630212 -3.41941 0
M  V30 400 H 35.0404 -0.0149558 -3.99797 0
M  V30 401 H 36.4804 1.01716 -4.11619 0
M  V30 402 C 34.9394 1.79601 -2.85035 0
M  V30 403 O 35.4694 2.89351 -2.78637 0
M  V30 404 N 33.6754 1.60774 -2.42074 0
M  V30 405 H 33.2224 0.715009 -2.47478 0
M  V30 406 H 33.1804 2.38933 -2.04349 0
M  V30 407 N 36.9525 1.47285 -0.560781 0
M  V30 408 C 38.1985 2.02764 -0.0381184 0
M  V30 409 C 38.5315 1.43384 1.30976 0
M  V30 410 O 37.8065 0.590733 1.85312 0
M  V30 411 C 38.0895 3.60064 0.0511427 0
M  V30 412 C 37.9425 4.2987 -1.32408 0
M  V30 413 C 39.2615 4.33439 0.762795 0
M  V30 414 H 36.3805 0.736841 -0.0153264 0
M  V30 415 H 39.0225 1.75675 -0.723759 0
M  V30 416 H 37.1725 3.83274 0.635065 0
M  V30 417 H 38.8445 4.17989 -1.95148 0
M  V30 418 H 37.0875 3.90085 -1.8978 0
M  V30 419 H 37.7585 5.38478 -1.21431 0
M  V30 420 H 40.2345 4.15243 0.266965 0
M  V30 421 H 39.1105 5.43124 0.794221 0
M  V30 422 H 39.3715 4.02915 1.81966 0
M  V30 423 N 38.4306 0.297415 1.54768 0
M  V30 424 C 39.3776 -0.580276 2.23386 0
M  V30 425 C 40.3476 -1.13238 1.21517 0
M  V30 426 O 41.5326 -1.17757 1.50126 0
M  V30 427 C 38.6726 -1.74801 2.97555 0
M  V30 428 C 37.7856 -1.22764 4.1419 0
M  V30 429 C 36.9206 -2.35895 4.75949 0
M  V30 430 C 35.9596 -1.80974 5.84735 0
M  V30 431 N 35.0966 -2.87664 6.40464 0
M  V30 432 H 39.9366 0.0114833 2.97998 0
M  V30 433 H 37.4736 0.0174361 1.4709 0
M  V30 434 H 39.4316 -2.43475 3.38786 0
M  V30 435 H 38.0616 -2.31145 2.25326 0
M  V30 436 H 37.1136 -0.433271 3.77924 0
M  V30 437 H 38.4256 -0.785551 4.92575 0
M  V30 438 H 37.5796 -3.12523 5.20014 0
M  V30 439 H 36.3186 -2.83429 3.96887 0
M  V30 440 H 35.3236 -1.02834 5.40097 0
M  V30 441 H 36.5486 -1.34348 6.65678 0
M  V30 442 H 34.4946 -3.34538 5.64287 0
M  V30 443 H 34.4116 -2.4794 7.14186 0
M  V30 444 H 35.6796 -3.642 6.89187 0
M  V30 445 N 39.9087 -1.5758 0.0250728 0
M  V30 446 C 40.8387 -2.13007 -0.956575 0
M  V30 447 C 41.8197 -1.0452 -1.342 0
M  V30 448 O 43.0047 -1.32332 -1.42133 0
M  V30 449 C 40.1347 -2.65386 -2.24026 0
M  V30 450 C 39.0887 -3.78623 -1.99571 0
M  V30 451 C 38.4147 -4.17414 -3.3417 0
M  V30 452 C 39.7147 -5.04867 -1.33814 0
M  V30 453 H 41.4087 -2.9528 -0.494991 0
M  V30 454 H 38.9547 -1.42042 -0.236651 0
M  V30 455 H 40.9077 -3.02794 -2.93076 0
M  V30 456 H 39.6317 -1.80268 -2.72343 0
M  V30 457 H 38.2907 -3.41646 -1.32941 0
M  V30 458 H 37.9387 -3.29284 -3.80238 0
M  V30 459 H 37.6387 -4.93719 -3.18615 0
M  V30 460 H 39.1627 -4.57402 -4.04495 0
M  V30 461 H 40.5767 -5.39888 -1.92857 0
M  V30 462 H 38.9737 -5.86144 -1.28669 0
M  V30 463 H 40.0437 -4.83904 -0.310561 0
M  V30 464 N 41.3868 0.248026 -1.55636 0
M  V30 465 C 42.3348 1.32683 -1.91045 0
M  V30 466 C 43.3288 1.49883 -0.789401 0
M  V30 467 O 44.5348 1.51371 -0.974007 0
M  V30 468 H 40.9098 0.444272 -0.606734 0
M  V30 469 H 42.8808 1.00085 -2.81115 0
M  V30 470 C 41.6298 2.6755 -2.22064 0
M  V30 471 H 40.9528 2.55114 -3.07826 0
M  V30 472 H 42.3928 3.41912 -2.50743 0
M  V30 473 C 40.8518 3.20556 -1.0366 0
M  V30 474 O 41.3818 4.00695 -0.284016 0
M  V30 475 N 39.5878 2.78568 -0.82753 0
M  V30 476 H 39.1348 2.1351 -1.44123 0
M  V30 477 H 39.0928 3.14378 -0.0369803 0
M  V30 478 N 42.8649 1.48995 0.513639 0
M  V30 479 C 43.7979 1.59319 1.63379 0
M  V30 480 C 44.7759 0.442816 1.56454 0
M  V30 481 O 45.9599 0.656655 1.76693 0
M  V30 482 C 43.0869 1.5364 3.01848 0
M  V30 483 C 42.1329 2.7372 3.27078 0
M  V30 484 S 42.9659 4.35528 3.1157 0
M  V30 485 C 44.1219 4.32473 4.52458 0
M  V30 486 H 44.3549 2.54079 1.54374 0
M  V30 487 H 41.8879 1.3773 0.697849 0
M  V30 488 H 43.8459 1.51049 3.81699 0
M  V30 489 H 42.5069 0.601898 3.08279 0
M  V30 490 H 41.6999 2.6593 4.28132 0
M  V30 491 H 41.3019 2.73657 2.54927 0
M  V30 492 H 43.5939 4.03414 5.44301 0
M  V30 493 H 44.5369 5.33762 4.65299 0
M  V30 494 H 44.9449 3.62718 4.32546 0
M  V30 495 N 44.343 -0.763751 1.37857 0
M  V30 496 C 45.754 -1.3405 1.29952 0
M  V30 497 C 46.105 -1.96138 -0.0492898 0
M  V30 498 O 45.23 -1.94372 -0.951239 0
M  V30 499 C 45.825 -2.43729 2.35333 0
M  V30 500 C 44.384 -2.97151 2.31037 0
M  V30 501 C 43.531 -1.70438 2.18738 0
M  V30 502 H 46.482 -0.563396 1.48363 0
M  V30 503 H 46.503 -3.23412 2.00462 0
M  V30 504 H 46.015 -1.9851 3.33489 0
M  V30 505 H 44.116 -3.46724 1.3643 0
M  V30 506 H 44.229 -3.52221 3.24772 0
M  V30 507 H 42.593 -1.93673 1.65418 0
M  V30 508 H 43.376 -1.27312 3.18821 0
M  V30 509 N 45.8211 -1.22559 -0.990812 0
M  V30 510 C 46.7691 -0.994798 -2.10253 0
M  V30 511 C 47.7631 0.0627798 -1.69284 0
M  V30 512 O 48.9691 -0.0898392 -1.79776 0
M  V30 513 H 45.3441 -0.304527 -0.687581 0
M  V30 514 H 47.3151 -1.93812 -2.26891 0
M  V30 515 C 46.0641 -0.591439 -3.42633 0
M  V30 516 H 45.3871 -1.3969 -3.74602 0
M  V30 517 H 46.8271 -0.469385 -4.21394 0
M  V30 518 C 45.2861 0.699232 -3.29564 0
M  V30 519 O 45.8161 1.75112 -3.61523 0
M  V30 520 N 44.0221 0.671182 -2.82743 0
M  V30 521 H 43.5691 -0.185136 -2.56934 0
M  V30 522 H 43.5271 1.53502 -2.7438 0
M  V30 523 N 47.2992 1.18797 -1.03562 0
M  V30 524 C 48.5462 1.8865 -0.736023 0
M  V30 525 C 48.8742 1.80041 0.735889 0
M  V30 526 O 48.1292 1.19179 1.55225 0
M  V30 527 C 48.4282 3.38692 -1.14117 0
M  V30 528 C 48.0942 3.67504 -2.6125 0
M  V30 529 C 46.7562 3.75078 -3.01447 0
M  V30 530 C 49.1082 3.80293 -3.56408 0
M  V30 531 C 46.4362 3.92915 -4.35701 0
M  V30 532 C 48.7882 3.99645 -4.90374 0
M  V30 533 C 47.4522 4.05453 -5.30249 0
M  V30 534 H 46.7222 0.690321 -0.26933 0
M  V30 535 H 49.3692 1.40641 -1.29971 0
M  V30 536 H 47.6742 3.88645 -0.496202 0
M  V30 537 H 49.3712 3.91072 -0.886789 0
M  V30 538 H 45.9612 3.62223 -2.29113 0
M  V30 539 H 50.1452 3.73779 -3.26501 0
M  V30 540 H 45.4012 3.95653 -4.66121 0
M  V30 541 H 49.5752 4.08482 -5.64017 0
M  V30 542 H 47.2022 4.19027 -6.34288 0
M  V30 543 N 48.7773 0.814389 1.34928 0
M  V30 544 C 49.6873 0.231978 2.3345 0
M  V30 545 C 50.7033 -0.629139 1.62228 0
M  V30 546 O 51.8793 -0.539052 1.94052 0
M  V30 547 C 48.9443 -0.603482 3.41407 0
M  V30 548 C 48.0053 0.279037 4.28392 0
M  V30 549 C 47.2383 -0.516643 5.31193 0
M  V30 550 O 47.4613 -1.75068 5.4287 0
M  V30 551 O 46.3953 0.0965652 6.01823 0
M  V30 552 H 50.2213 1.04721 2.85074 0
M  V30 553 H 47.8063 0.576343 1.37836 0
M  V30 554 H 49.6883 -1.07908 4.0735 0
M  V30 555 H 48.3633 -1.39618 2.92042 0
M  V30 556 H 47.2703 0.801948 3.65403 0
M  V30 557 H 48.6033 1.03588 4.81176 0
M  V30 558 N 50.2554 -1.46986 0.568584 0
M  V30 559 C 51.1854 -2.32946 -0.160753 0
M  V30 560 C 52.1664 -1.44487 -0.897631 0
M  V30 561 O 53.3514 -1.73327 -0.875867 0
M  V30 562 C 50.4814 -3.26494 -1.18403 0
M  V30 563 C 49.4354 -4.24282 -0.562895 0
M  V30 564 C 48.7614 -5.07236 -1.69163 0
M  V30 565 C 50.0614 -5.19989 0.490761 0
M  V30 566 H 51.7554 -2.94175 0.556916 0
M  V30 567 H 49.3014 -1.4146 0.26927 0
M  V30 568 H 51.2544 -3.85477 -1.70251 0
M  V30 569 H 49.9784 -2.63343 -1.93179 0
M  V30 570 H 48.6374 -3.66541 -0.0656164 0
M  V30 571 H 48.2854 -4.4048 -2.42871 0
M  V30 572 H 47.9854 -5.7345 -1.28174 0
M  V30 573 H 49.5094 -5.6908 -2.21314 0
M  V30 574 H 50.9234 -5.73271 0.0579047 0
M  V30 575 H 49.3204 -5.94469 0.820165 0
M  V30 576 H 50.3904 -4.64777 1.3824 0
M  V30 577 N 51.7335 -0.305618 -1.54608 0
M  V30 578 C 52.9815 0.301701 -1.99835 0
M  V30 579 C 53.3025 1.54054 -1.19551 0
M  V30 580 O 52.5725 1.93702 -0.292658 0
M  V30 581 H 51.1525 0.114468 -0.738178 0
M  V30 582 H 53.8145 -0.418016 -1.90364 0
M  V30 583 H 52.9105 0.570548 -3.06841 0
M  V30 584 N 53.2116 1.57565 -0.0334293 0
M  V30 585 C 54.1586 2.10478 0.946981 0
M  V30 586 C 55.1286 1.00787 1.32027 0
M  V30 587 O 56.3136 1.28232 1.41284 0
M  V30 588 C 53.4536 2.63994 2.22263 0
M  V30 589 C 52.5666 3.87709 1.90541 0
M  V30 590 C 51.7016 4.29604 3.12433 0
M  V30 591 C 50.7406 5.46065 2.76549 0
M  V30 592 N 49.8776 5.83096 3.9108 0
M  V30 593 H 54.7176 2.93963 0.488846 0
M  V30 594 H 52.2546 1.45296 0.22969 0
M  V30 595 H 54.2126 2.93114 2.96884 0
M  V30 596 H 52.8426 1.83333 2.65685 0
M  V30 597 H 51.8946 3.65291 1.06144 0
M  V30 598 H 53.2066 4.72403 1.60116 0
M  V30 599 H 52.3606 4.60182 3.9537 0
M  V30 600 H 51.0996 3.43685 3.46023 0
M  V30 601 H 50.1046 5.15176 1.92026 0
M  V30 602 H 51.3296 6.33685 2.44171 0
M  V30 603 H 49.2756 5.00132 4.24504 0
M  V30 604 H 49.1926 6.6244 3.64293 0
M  V30 605 H 50.4606 6.18282 4.74708 0
M  V30 606 N 54.6897 -0.239769 1.55765 0
M  V30 607 C 55.9667 -0.990056 1.68693 0
M  V30 608 C 56.3467 -2.03107 0.5754 0
M  V30 609 O 55.6947 -2.24604 -0.42017 0
M  V30 610 C 55.9047 -1.61696 3.09282 0
M  V30 611 C 57.2527 -2.11613 3.6811 0
M  V30 612 O 58.2767 -1.71624 3.12127 0
M  V30 613 O 57.1357 -2.85057 4.66267 0
M  V30 614 H 54.2297 -0.461299 0.686391 0
M  V30 615 H 56.7757 -0.232991 1.68093 0
M  V30 616 H 55.5477 -0.864357 3.81634 0
M  V30 617 H 55.1707 -2.44005 3.13923 0
M  V30 618 N 56.1678 -1.49265 -0.50573 0
M  V30 619 C 57.1158 -1.66065 -1.62866 0
M  V30 620 C 58.1098 -0.526636 -1.61006 0
M  V30 621 O 59.3158 -0.706126 -1.65571 0
M  V30 622 H 55.6908 -0.52356 -0.539805 0
M  V30 623 H 57.6618 -2.60329 -1.45848 0
M  V30 624 C 56.4108 -1.74008 -3.01026 0
M  V30 625 H 55.7338 -2.6064 -3.03161 0
M  V30 626 H 57.1738 -1.89798 -3.79147 0
M  V30 627 C 55.6328 -0.483868 -3.33407 0
M  V30 628 O 56.1628 0.392548 -3.99777 0
M  V30 629 N 54.3688 -0.348236 -2.88506 0
M  V30 630 H 53.9158 -1.06242 -2.34671 0
M  V30 631 H 53.8738 0.491204 -3.10539 0
M  V30 632 N 57.6459 0.756429 -1.3826 0
M  V30 633 C 58.5929 1.87011 -1.35261 0
M  V30 634 C 59.5629 1.64695 -0.215616 0
M  V30 635 O 60.7479 1.864 -0.407399 0
M  V30 636 C 57.8879 3.24275 -1.18068 0
M  V30 637 C 57.0009 3.58442 -2.41129 0
M  V30 638 C 56.1359 4.84994 -2.16689 0
M  V30 639 C 55.1749 5.11939 -3.35537 0
M  V30 640 N 54.3119 6.29685 -3.10549 0
M  V30 641 H 59.1519 1.8891 -2.30472 0
M  V30 642 H 56.6889 0.923373 -1.14509 0
M  V30 643 H 58.6469 4.03479 -1.06116 0
M  V30 644 H 57.2769 3.21711 -0.264973 0
M  V30 645 H 56.3289 2.74103 -2.63764 0
M  V30 646 H 57.6409 3.74283 -3.29717 0
M  V30 647 H 56.7949 5.72135 -2.01857 0
M  V30 648 H 55.5339 4.71286 -1.25462 0
M  V30 649 H 54.5389 4.23268 -3.50891 0
M  V30 650 H 55.7639 5.27546 -4.27635 0
M  V30 651 H 53.7099 6.17306 -2.21967 0
M  V30 652 H 53.6269 6.46014 -3.92686 0
M  V30 653 H 54.8949 7.19722 -2.99367 0
M  V30 654 N 59.124 1.23083 0.984299 0
M  V30 655 C 60.352 1.08714 1.76037 0
M  V30 656 C 60.767 -0.361691 1.85303 0
M  V30 657 O 60.124 -1.25034 1.32939 0
M  V30 658 C 60.175 1.70206 3.18923 0
M  V30 659 O 59.896 3.09423 3.10144 0
M  V30 660 C 61.397 1.61227 4.12941 0
M  V30 661 H 58.617 0.380664 0.552572 0
M  V30 662 H 61.161 1.62853 1.23689 0
M  V30 663 H 59.316 1.20109 3.6831 0
M  V30 664 H 59.73 3.39188 4.00065 0
M  V30 665 H 61.204 2.08962 5.10919 0
M  V30 666 H 61.681 0.570375 4.35481 0
M  V30 667 H 62.287 2.10671 3.69456 0
M  V30 668 N 60.6021 -1.18246 1.0419 0
M  V30 669 C 61.5651 -2.20128 0.638452 0
M  V30 670 C 62.5651 -1.57885 -0.304805 0
M  V30 671 O 63.7551 -1.73967 -0.0900369 0
M  V30 672 C 60.8871 -3.4084 -0.0637751 0
M  V30 673 H 62.0801 -2.57336 1.54007 0
M  V30 674 H 59.6331 -1.32152 0.834598 0
M  V30 675 H 60.3681 -3.09166 -0.979136 0
M  V30 676 H 60.1531 -3.8726 0.614198 0
M  V30 677 H 61.6431 -4.16274 -0.332512 0
M  V30 678 N 62.0802 -0.821533 -1.34494 0
M  V30 679 C 63.3572 -0.33159 -1.92769 0
M  V30 680 C 63.7372 1.18088 -1.74981 0
M  V30 681 O 63.0852 1.98733 -1.12772 0
M  V30 682 C 63.2952 -0.759398 -3.40638 0
M  V30 683 C 64.6432 -0.757433 -4.1779 0
M  V30 684 O 65.6672 -0.70189 -3.49216 0
M  V30 685 O 64.5262 -0.829361 -5.4017 0
M  V30 686 H 61.6202 -0.0902502 -0.822061 0
M  V30 687 H 64.1662 -0.906231 -1.43477 0
M  V30 688 H 62.9382 -1.8012 -3.47379 0
M  V30 689 H 62.5612 -0.160378 -3.97276 0
M  V30 690 N 63.5583 1.46682 -0.576371 0
M  V30 691 C 64.8053 2.02412 -0.0595339 0
M  V30 692 C 65.1333 1.44859 1.29793 0
M  V30 693 O 64.3883 0.601099 1.8624 0
M  V30 694 C 64.6873 3.57345 0.062886 0
M  V30 695 C 64.3533 4.33908 -1.22616 0
M  V30 696 C 63.0153 4.54544 -1.57933 0
M  V30 697 C 65.3673 4.77919 -2.07948 0
M  V30 698 C 62.6953 5.16444 -2.78393 0
M  V30 699 C 65.0473 5.41149 -3.27629 0
M  V30 700 C 63.7113 5.60014 -3.63236 0
M  V30 701 H 62.9813 0.74068 -0.021785 0
M  V30 702 H 65.6283 1.76128 -0.751735 0
M  V30 703 H 63.9333 3.82729 0.838178 0
M  V30 704 H 65.6303 3.98136 0.478439 0
M  V30 705 H 62.2203 4.18138 -0.941202 0
M  V30 706 H 66.4043 4.61738 -1.81967 0
M  V30 707 H 61.6603 5.29242 -3.06126 0
M  V30 708 H 65.8343 5.74211 -3.94023 0
M  V30 709 H 63.4613 6.07748 -4.56669 0
M  V30 710 N 65.0364 0.313813 1.54444 0
M  V30 711 C 65.9664 -0.549454 2.26943 0
M  V30 712 C 66.9474 -1.12741 1.27372 0
M  V30 713 O 68.1324 -1.15436 1.56167 0
M  V30 714 C 65.2624 -1.71523 3.01989 0
M  V30 715 C 64.2164 -1.26703 4.08816 0
M  V30 716 C 63.5424 -2.51898 4.71647 0
M  V30 717 C 64.8424 -0.388962 5.2085 0
M  V30 718 H 66.5364 0.0552661 2.99349 0
M  V30 719 H 64.0824 0.0280207 1.43973 0
M  V30 720 H 66.0354 -2.32535 3.51433 0
M  V30 721 H 64.7594 -2.34639 2.27183 0
M  V30 722 H 63.4184 -0.679896 3.6024 0
M  V30 723 H 63.0664 -3.13356 3.93468 0
M  V30 724 H 62.7664 -2.22605 5.43802 0
M  V30 725 H 64.2904 -3.1369 5.23861 0
M  V30 726 H 65.7044 -0.905107 5.6611 0
M  V30 727 H 64.1014 -0.18924 5.99802 0
M  V30 728 H 65.1714 0.582699 4.81386 0
M  V30 729 N 66.5145 -1.57545 0.0417849 0
M  V30 730 C 67.4615 -2.10977 -0.935805 0
M  V30 731 C 68.4315 -1.01486 -1.31491 0
M  V30 732 O 69.6165 -1.2898 -1.40602 0
M  V30 733 C 66.7565 -2.65169 -2.2086 0
M  V30 734 C 65.8695 -3.88714 -1.88482 0
M  V30 735 C 65.0045 -4.31254 -3.1015 0
M  V30 736 C 64.0435 -5.47524 -2.7365 0
M  V30 737 N 63.1805 -5.85162 -3.87982 0
M  V30 738 H 68.0205 -2.94218 -0.473249 0
M  V30 739 H 65.5575 -1.45415 -0.221981 0
M  V30 740 H 67.5155 -2.94685 -2.95325 0
M  V30 741 H 66.1455 -1.8474 -2.64709 0
M  V30 742 H 65.1975 -3.65849 -1.04205 0
M  V30 743 H 66.5095 -4.73245 -1.57608 0
M  V30 744 H 65.6635 -4.62273 -3.92923 0
M  V30 745 H 64.4025 -3.45516 -3.44195 0
M  V30 746 H 63.4075 -5.16187 -1.89291 0
M  V30 747 H 64.6325 -6.34971 -2.40807 0
M  V30 748 H 62.5785 -5.02377 -4.21846 0
M  V30 749 H 62.4955 -6.64362 -3.60775 0
M  V30 750 H 63.7635 -6.20791 -4.71422 0
M  V30 751 N 67.9926 0.231505 -1.5589 0
M  V30 752 C 68.9426 1.29007 -1.87993 0
M  V30 753 C 69.9266 1.42764 -0.742102 0
M  V30 754 O 71.1186 1.45747 -1.00433 0
M  V30 755 C 68.2476 2.6425 -2.1915 0
M  V30 756 C 67.3336 2.54435 -3.39299 0
M  V30 757 N 67.7246 2.14262 -4.58176 0
M  V30 758 C 66.0226 2.85416 -3.42715 0
M  V30 759 C 66.7236 2.15455 -5.40328 0
M  V30 760 N 65.6996 2.55558 -4.79783 0
M  V30 761 H 69.5016 0.970213 -2.77424 0
M  V30 762 H 67.0156 0.440097 -1.56323 0
M  V30 763 H 69.0126 3.40665 -2.40319 0
M  V30 764 H 67.6726 2.9709 -1.31025 0
M  V30 765 H 68.6836 1.85554 -4.83518 0
M  V30 766 H 65.3606 3.22693 -2.64906 0
M  V30 767 H 66.7506 1.86605 -6.45467 0
M  V30 768 N 69.4707 1.49531 0.497807 0
M  V30 769 C 70.6957 1.63159 1.28039 0
M  V30 770 C 71.1207 0.30418 1.85624 0
M  V30 771 O 70.4787 -0.728618 1.66015 0
M  V30 772 C 70.5267 2.70537 2.38416 0
M  V30 773 O 69.6307 2.29931 3.42353 0
M  V30 774 H 68.9717 0.546001 0.377861 0
M  V30 775 H 71.5017 1.9574 0.59558 0
M  V30 776 H 71.5117 2.92802 2.84132 0
M  V30 777 H 70.1867 3.6689 1.95869 0
M  V30 778 H 68.7637 2.18009 3.02533 0
M  V30 779 N 70.9488 -0.749086 1.3866 0
M  V30 780 C 72.3598 -1.32664 1.31366 0
M  V30 781 C 72.7108 -1.96179 -0.028484 0
M  V30 782 O 71.8358 -1.9537 -0.93057 0
M  V30 783 C 72.4308 -2.41219 2.37905 0
M  V30 784 C 70.9898 -2.94684 2.34176 0
M  V30 785 C 70.1368 -1.68108 2.20533 0
M  V30 786 H 73.0878 -0.547628 1.48952 0
M  V30 787 H 73.1088 -3.21268 2.0388 0
M  V30 788 H 72.6208 -1.94962 3.35576 0
M  V30 789 H 70.7218 -3.45258 1.401 0
M  V30 790 H 70.8348 -3.48757 3.2849 0
M  V30 791 H 69.1988 -1.91907 1.67463 0
M  V30 792 H 69.9818 -1.23923 3.20153 0
M  V30 793 N 72.4269 -1.23603 -0.977757 0
M  V30 794 C 73.3569 -1.04401 -2.0886 0
M  V30 795 C 74.3379 0.0399052 -1.70053 0
M  V30 796 O 75.5229 -0.125246 -1.93796 0
M  V30 797 C 72.6529 -0.637269 -3.41403 0
M  V30 798 C 71.6069 -1.66883 -3.94124 0
M  V30 799 C 70.9329 -1.11745 -5.22893 0
M  V30 800 C 72.2329 -3.06247 -4.23096 0
M  V30 801 H 73.9269 -1.97316 -2.25182 0
M  V30 802 H 71.4729 -0.950096 -1.08209 0
M  V30 803 H 73.4259 -0.48998 -4.18542 0
M  V30 804 H 72.1499 0.327557 -3.24953 0
M  V30 805 H 70.8089 -1.80416 -3.19133 0
M  V30 806 H 70.4569 -0.143527 -5.02795 0
M  V30 807 H 70.1569 -1.80672 -5.59134 0
M  V30 808 H 71.6809 -0.982067 -6.02651 0
M  V30 809 H 73.0949 -2.96001 -4.90975 0
M  V30 810 H 71.4919 -3.72436 -4.70544 0
M  V30 811 H 72.5619 -3.55041 -3.30263 0
M  V30 812 N 73.905 1.17692 -1.04816 0
M  V30 813 C 75.153 1.87488 -0.754497 0
M  V30 814 C 75.474 1.81205 0.720407 0
M  V30 815 O 74.744 1.23544 1.52032 0
M  V30 816 H 73.324 0.694101 -0.276102 0
M  V30 817 H 75.986 1.42793 -1.32651 0
M  V30 818 H 75.082 2.93328 -1.06606 0
M  V30 819 N 75.3831 0.828654 1.34056 0
M  V30 820 C 76.7991 0.515135 1.51058 0
M  V30 821 C 76.9991 -0.959581 1.77184 0
M  V30 822 O 76.0551 -1.74382 1.82612 0
M  V30 823 C 77.3681 1.37963 2.67183 0
M  V30 824 C 78.9161 1.37735 2.81066 0
M  V30 825 C 79.3911 2.22645 4.00241 0
M  V30 826 N 80.8821 2.203 4.07458 0
M  V30 827 C 81.6171 2.82744 4.98842 0
M  V30 828 N 81.1131 3.54201 5.9541 0
M  V30 829 N 82.9061 2.72268 4.91759 0
M  V30 830 H 75.0571 1.78343 1.15358 0
M  V30 831 H 77.3201 0.760304 0.566252 0
M  V30 832 H 77.0261 2.42714 2.54525 0
M  V30 833 H 76.9001 1.0484 3.62338 0
M  V30 834 H 79.2871 0.337593 2.93163 0
M  V30 835 H 79.3681 1.74859 1.86703 0
M  V30 836 H 79.0121 3.26674 3.88905 0
M  V30 837 H 78.9421 1.82869 4.93829 0
M  V30 838 H 81.4331 1.68327 3.38341 0
M  V30 839 H 81.7461 3.9908 6.61782 0
M  V30 840 H 80.0911 3.58308 5.95517 0
M  V30 841 H 83.2821 2.16014 4.15278 0
M  V30 842 H 83.4551 3.21219 5.62781 0
M  V30 843 N 76.8612 -1.46375 0.584142 0
M  V30 844 C 77.7912 -2.33103 -0.136037 0
M  V30 845 C 78.7722 -1.45431 -0.882255 0
M  V30 846 O 79.9572 -1.74246 -0.857434 0
M  V30 847 C 77.0872 -3.27731 -1.14933 0
M  V30 848 C 76.0412 -4.24855 -0.517862 0
M  V30 849 C 75.3672 -5.09001 -1.63773 0
M  V30 850 C 76.6672 -5.19439 0.545886 0
M  V30 851 H 78.3612 -2.93568 0.588086 0
M  V30 852 H 75.9072 -1.41166 0.284259 0
M  V30 853 H 77.8602 -3.87261 -1.66153 0
M  V30 854 H 76.5842 -2.65377 -1.90375 0
M  V30 855 H 75.2432 -3.6659 -0.0267361 0
M  V30 856 H 74.8912 -4.43031 -2.38185 0
M  V30 857 H 74.5912 -5.74777 -1.22085 0
M  V30 858 H 76.1152 -5.71396 -2.15266 0
M  V30 859 H 77.5292 -5.73177 0.118704 0
M  V30 860 H 75.9262 -5.93566 0.88317 0
M  V30 861 H 76.9962 -4.63285 1.43162 0
M  V30 862 N 78.3393 -0.321999 -1.54275 0
M  V30 863 C 79.7503 0.166384 -1.85957 0
M  V30 864 C 80.1013 1.51747 -1.24367 0
M  V30 865 O 79.2263 2.09317 -0.549124 0
M  V30 866 C 79.8213 0.308681 -3.37391 0
M  V30 867 C 78.3803 0.741286 -3.69028 0
M  V30 868 C 77.5273 -0.137937 -2.76957 0
M  V30 869 H 80.4783 -0.542335 -1.49146 0
M  V30 870 H 80.4993 1.13984 -3.63026 0
M  V30 871 H 80.0113 -0.674809 -3.82188 0
M  V30 872 H 78.1123 1.73458 -3.29762 0
M  V30 873 H 78.2253 0.546118 -4.75977 0
M  V30 874 H 76.5893 0.386251 -2.51754 0
M  V30 875 H 77.3723 -1.11816 -3.2458 0
M  V30 876 N 79.8174 1.5752 -0.0501392 0
M  V30 877 C 81.0634 1.92936 0.624798 0
M  V30 878 C 81.3964 0.928685 1.70555 0
M  V30 879 O 80.6714 -0.0454779 1.94447 0
M  V30 880 C 80.9544 3.38737 1.22185 0
M  V30 881 C 80.8074 4.49552 0.149218 0
M  V30 882 C 82.1264 3.84913 2.13378 0
M  V30 883 H 79.2454 0.701604 0.225657 0
M  V30 884 H 81.8874 1.89671 -0.111693 0
M  V30 885 H 80.0374 3.4165 1.84953 0
M  V30 886 H 81.7094 4.58768 -0.482648 0
M  V30 887 H 79.9524 4.30638 -0.522841 0
M  V30 888 H 80.6234 5.48653 0.606966 0
M  V30 889 H 83.0994 3.8387 1.60572 0
M  V30 890 H 81.9754 4.87584 2.52097 0
M  V30 891 H 82.2364 3.21611 3.03346 0
M  V30 892 N 81.2955 -0.223234 1.56011 0
M  V30 893 C 82.2255 -1.27988 1.95298 0
M  V30 894 C 83.2065 -1.48976 0.820979 0
M  V30 895 O 84.3915 -1.61188 1.08315 0
M  V30 896 C 81.5215 -2.63 2.26822 0
M  V30 897 C 80.4755 -2.56671 3.42497 0
M  V30 898 C 79.8015 -3.95697 3.59622 0
M  V30 899 C 81.1015 -2.11601 4.77517 0
M  V30 900 H 82.7955 -0.953525 2.8381 0
M  V30 901 H 80.3415 -0.457244 1.36548 0
M  V30 902 H 82.2945 -3.37077 2.52898 0
M  V30 903 H 81.0185 -2.9732 1.35161 0
M  V30 904 H 79.6775 -1.85051 3.16467 0
M  V30 905 H 79.3255 -4.27322 2.6534 0
M  V30 906 H 79.0255 -3.92345 4.37424 0
M  V30 907 H 80.5495 -4.71438 3.88044 0
M  V30 908 H 81.9635 -2.7542 5.02809 0
M  V30 909 H 80.3605 -2.19311 5.5859 0
M  V30 910 H 81.4305 -1.06824 4.72987 0
M  V30 911 N 82.7736 -1.49793 -0.48987 0
M  V30 912 C 84.0196 -1.60078 -1.24511 0
M  V30 913 C 84.3526 -0.291608 -1.91998 0
M  V30 914 O 83.6276 0.705647 -1.81248 0
M  V30 915 C 83.9106 -2.76791 -2.30345 0
M  V30 916 C 83.7636 -4.17535 -1.67286 0
M  V30 917 C 85.0826 -2.89111 -3.31817 0
M  V30 918 H 82.2016 -0.582645 -0.451324 0
M  V30 919 H 84.8436 -1.82117 -0.541612 0
M  V30 920 H 82.9936 -2.5813 -2.90346 0
M  V30 921 H 84.6656 -4.4774 -1.11026 0
M  V30 922 H 82.9086 -4.22665 -0.976577 0
M  V30 923 H 83.5796 -4.95094 -2.44103 0
M  V30 924 H 86.0556 -3.06133 -2.81819 0
M  V30 925 H 84.9316 -3.72433 -4.03219 0
M  V30 926 H 85.1926 -1.9893 -3.94815 0
M  V30 927 N 84.2517 0.741722 -1.39055 0
M  V30 928 C 85.4797 1.53098 -1.39171 0
M  V30 929 C 85.8947 1.88794 0.0155099 0
M  V30 930 O 85.2517 1.53626 0.985159 0
M  V30 931 C 85.3027 2.82274 -2.2584 0
M  V30 932 O 85.0237 2.48097 -3.61081 0
M  V30 933 C 86.5247 3.76343 -2.34266 0
M  V30 934 H 83.7447 0.473335 -0.4756 0
M  V30 935 H 86.2887 0.917045 -1.82785 0
M  V30 936 H 84.4437 3.40015 -1.85656 0
M  V30 937 H 84.8577 3.31029 -4.06842 0
M  V30 938 H 86.3317 4.63898 -2.9917 0
M  V30 939 H 86.8087 4.17619 -1.35982 0
M  V30 940 H 87.4147 3.24523 -2.74891 0
M  V30 941 N 85.7298 1.2412 0.971189 0
M  V30 942 C 86.9548 1.10667 1.75407 0
M  V30 943 C 87.3798 -0.337048 1.85056 0
M  V30 944 O 86.7378 -1.24396 1.31892 0
M  V30 945 C 86.7858 1.74726 3.15441 0
M  V30 946 O 85.8898 1.01566 3.99697 0
M  V30 947 H 85.2308 0.387341 0.539317 0
M  V30 948 H 87.7608 1.64358 1.2185 0
M  V30 949 H 87.7708 1.80341 3.6598 0
M  V30 950 H 86.4458 2.79773 3.07734 0
M  V30 951 H 85.0228 1.03713 3.58187 0
M  V30 952 N 87.2079 -1.17134 1.05439 0
M  V30 953 C 88.1579 -2.1919 0.627675 0
M  V30 954 C 89.1419 -1.57328 -0.337147 0
M  V30 955 O 90.3339 -1.76329 -0.153976 0
M  V30 956 C 87.4629 -3.43299 0.00651435 0
M  V30 957 C 86.5489 -4.12255 0.995312 0
M  V30 958 N 86.9399 -4.56997 2.16765 0
M  V30 959 C 85.2379 -4.38316 0.824336 0
M  V30 960 C 85.9389 -5.10239 2.7934 0
M  V30 961 N 84.9149 -5.02595 2.07122 0
M  V30 962 H 88.7169 -2.5149 1.52086 0
M  V30 963 H 86.2309 -1.33491 0.924868 0
M  V30 964 H 88.2279 -4.15693 -0.316965 0
M  V30 965 H 86.8879 -3.1249 -0.882033 0
M  V30 966 H 87.8989 -4.51006 2.54587 0
M  V30 967 H 84.5759 -4.17498 -0.0129526 0
M  V30 968 H 85.9659 -5.54961 3.78772 0
M  V30 969 N 88.686 -0.835752 -1.33615 0
M  V30 970 C 89.934 -0.429109 -1.97492 0
M  V30 971 C 90.255 1.01433 -1.66543 0
M  V30 972 O 89.525 1.70611 -0.962744 0
M  V30 973 H 88.105 -0.155686 -0.730596 0
M  V30 974 H 90.767 -1.06802 -1.63031 0
M  V30 975 H 89.863 -0.55861 -3.0706 0
M  V30 976 N 90.1641 1.46063 -0.591896 0
M  V30 977 C 91.3891 2.07226 -0.0850314 0
M  V30 978 C 91.8141 1.43625 1.21463 0
M  V30 979 O 91.1721 0.523305 1.73583 0
M  V30 980 C 91.2201 3.60554 0.0576567 0
M  V30 981 O 90.3241 3.97128 1.11188 0
M  V30 982 H 89.6651 0.660615 -0.0669568 0
M  V30 983 H 92.1951 1.8756 -0.81745 0
M  V30 984 H 92.2051 4.07165 0.2609 0
M  V30 985 H 90.8801 4.06235 -0.891416 0
M  V30 986 H 89.4571 3.62213 0.886356 0
M  V30 987 N 91.6422 0.330177 1.54103 0
M  V30 988 C 92.8912 -0.271336 1.99867 0
M  V30 989 C 93.2042 -1.52723 1.22209 0
M  V30 990 O 94.4102 -2.20515 1.58383 0
M  V30 991 C 92.8662 -0.534032 3.55916 0
M  V30 992 C 92.4742 0.705193 4.42415 0
M  V30 993 C 94.2182 -1.09514 4.1013 0
M  V30 994 C 92.1252 0.414035 5.89949 0
M  V30 995 H 91.0552 -0.105166 0.74663 0
M  V30 996 H 93.7062 0.443429 1.78062 0
M  V30 997 H 92.0882 -1.30915 3.73734 0
M  V30 998 H 93.2622 1.4804 4.36372 0
M  V30 999 H 91.5772 1.18698 3.99124 0
M  V30 1000 H 94.1742 -1.3277 5.17954 0
M  V30 1001 H 94.5172 -2.04656 3.62521 0
M  V30 1002 H 95.0502 -0.381038 3.95971 0
M  V30 1003 H 91.7892 1.33481 6.41766 0
M  V30 1004 H 91.3092 -0.323336 5.98928 0
M  V30 1005 H 92.9882 0.0263105 6.46995 0
M  V30 1006 N 93.1203 -1.57491 0.0584922 0
M  V30 1007 C 94.3673 -1.92978 -0.613648 0
M  V30 1008 C 94.6953 -0.937461 -1.70417 0
M  V30 1009 O 93.9503 0.049078 -1.95638 0
M  V30 1010 C 94.2493 -3.3513 -1.24188 0
M  V30 1011 C 93.9153 -4.50037 -0.278826 0
M  V30 1012 C 92.5773 -4.81198 -0.0138447 0
M  V30 1013 C 94.9293 -5.19807 0.380777 0
M  V30 1014 C 92.2573 -5.79473 0.918052 0
M  V30 1015 C 94.6093 -6.19079 1.30091 0
M  V30 1016 C 93.2733 -6.48665 1.57449 0
M  V30 1017 H 92.5433 -0.706157 -0.22455 0
M  V30 1018 H 95.1903 -1.91082 0.126533 0
M  V30 1019 H 93.4953 -3.33429 -2.05749 0
M  V30 1020 H 95.1923 -3.59871 -1.769 0
M  V30 1021 H 91.7823 -4.25726 -0.495539 0
M  V30 1022 H 95.9663 -4.95939 0.189158 0
M  V30 1023 H 91.2223 -6.00727 1.1374 0
M  V30 1024 H 95.3963 -6.7225 1.81804 0
M  V30 1025 H 93.0233 -7.24628 2.29822 0
M  V30 1026 N 94.5984 0.214957 -1.56127 0
M  V30 1027 C 95.5084 1.28727 -1.96129 0
M  V30 1028 C 96.5244 1.50916 -0.866044 0
M  V30 1029 O 97.7004 1.63918 -1.17016 0
M  V30 1030 C 94.7654 2.61569 -2.27558 0
M  V30 1031 C 93.8264 2.47625 -3.50685 0
M  V30 1032 C 93.0594 3.74132 -3.80606 0
M  V30 1033 O 93.2824 4.77438 -3.12104 0
M  V30 1034 O 92.2164 3.70849 -4.74083 0
M  V30 1035 H 96.0424 0.977855 -2.87527 0
M  V30 1036 H 93.6274 0.418358 -1.43423 0
M  V30 1037 H 95.5094 3.40012 -2.48938 0
M  V30 1038 H 94.1844 2.92178 -1.39332 0
M  V30 1039 H 93.0914 1.67361 -3.34576 0
M  V30 1040 H 94.4244 2.21954 -4.39315 0
M  V30 1041 N 96.0765 1.50051 0.48192 0
M  V30 1042 C 97.3015 1.64508 1.26301 0
M  V30 1043 C 97.7265 0.323851 1.85291 0
M  V30 1044 O 97.0845 -0.710969 1.66778 0
M  V30 1045 C 97.1325 2.7305 2.35533 0
M  V30 1046 O 96.2365 2.3355 3.39895 0
M  V30 1047 H 95.5775 0.549978 0.372048 0
M  V30 1048 H 98.1075 1.9636 0.574786 0
M  V30 1049 H 98.1175 2.95799 2.8101 0
M  V30 1050 H 96.7925 3.68946 1.91967 0
M  V30 1051 H 95.3695 2.21205 3.00204 0
M  V30 1052 N 97.5546 -0.734337 1.39446 0
M  V30 1053 C 98.5026 -1.86971 1.38364 0
M  V30 1054 C 99.4966 -1.67288 0.266687 0
M  V30 1055 O 100.703 -1.74621 0.436755 0
M  V30 1056 H 97.0776 -0.615474 0.432082 0
M  V30 1057 H 99.0486 -1.85 2.34132 0
M  V30 1058 C 97.7976 -3.2466 1.24465 0
M  V30 1059 H 97.1206 -3.40402 2.09682 0
M  V30 1060 H 98.5606 -4.04292 1.27764 0
M  V30 1061 C 97.0196 -3.36867 -0.0468674 0
M  V30 1062 O 97.5496 -3.88618 -1.01681 0
M  V30 1063 N 95.7556 -2.90391 -0.110145 0
M  V30 1064 H 95.3026 -2.48466 0.679868 0
M  V30 1065 H 95.2606 -2.98939 -0.973799 0
M  V30 1066 N 99.0327 -1.24633 -0.964593 0
M  V30 1067 C 99.9957 -1.0424 -2.04124 0
M  V30 1068 C 100.996 0.00137563 -1.608 0
M  V30 1069 O 102.186 -0.239883 -1.7254 0
M  V30 1070 C 99.3177 -0.580588 -3.3592 0
M  V30 1071 H 100.511 -1.99803 -2.23649 0
M  V30 1072 H 98.0637 -1.06899 -1.14027 0
M  V30 1073 H 98.7987 0.3781 -3.22088 0
M  V30 1074 H 98.5837 -1.33398 -3.6871 0
M  V30 1075 H 100.074 -0.459034 -4.15069 0
M  V30 1076 N 100.511 1.16574 -1.06058 0
M  V30 1077 C 101.757 1.87324 -0.777022 0
M  V30 1078 C 102.09 1.81351 0.694645 0
M  V30 1079 O 101.365 1.22753 1.50871 0
M  V30 1080 C 101.648 3.36991 -1.26922 0
M  V30 1081 C 101.501 3.51667 -2.80447 0
M  V30 1082 C 102.82 4.3131 -0.87521 0
M  V30 1083 H 99.9388 0.680191 -0.28374 0
M  V30 1084 H 102.581 1.37036 -1.3161 0
M  V30 1085 H 100.731 3.79949 -0.81063 0
M  V30 1086 H 102.403 3.17664 -3.34495 0
M  V30 1087 H 100.646 2.93656 -3.19294 0
M  V30 1088 H 101.317 4.56766 -3.0995 0
M  V30 1089 H 103.793 3.9624 -1.27014 0
M  V30 1090 H 102.669 5.34545 -1.2471 0
M  V30 1091 H 102.93 4.41552 0.220071 0
M  V30 1092 N 101.989 0.842826 1.3317 0
M  V30 1093 C 103.229 0.446574 1.99462 0
M  V30 1094 C 103.593 -0.976818 1.65295 0
M  V30 1095 O 104.794 -1.477 2.24584 0
M  V30 1096 C 103.065 0.665353 3.51152 0
M  V30 1097 S 104.624 0.364911 4.3728 0
M  V30 1098 H 101.442 0.167803 0.690915 0
M  V30 1099 H 104.044 1.09297 1.62094 0
M  V30 1100 H 102.748 1.7006 3.73507 0
M  V30 1101 H 102.279 0.00494568 3.934 0
M  V30 1102 H 104.294 -0.813761 4.89482 0
M  V30 1103 N 103.467 -1.45747 0.599634 0
M  V30 1104 C 104.414 -2.30467 -0.123849 0
M  V30 1105 C 105.384 -1.41632 -0.86774 0
M  V30 1106 O 106.569 -1.70568 -0.855056 0
M  V30 1107 C 103.709 -3.26402 -1.12051 0
M  V30 1108 C 102.822 -4.3034 -0.37832 0
M  V30 1109 C 101.957 -5.13389 -1.364 0
M  V30 1110 C 100.996 -6.09061 -0.609171 0
M  V30 1111 N 100.133 -6.84918 -1.54374 0
M  V30 1112 H 104.973 -2.91802 0.604627 0
M  V30 1113 H 102.51 -1.43797 0.309972 0
M  V30 1114 H 104.468 -3.80482 -1.7114 0
M  V30 1115 H 103.098 -2.66839 -1.8165 0
M  V30 1116 H 102.15 -3.78984 0.327929 0
M  V30 1117 H 103.462 -4.98354 0.210997 0
M  V30 1118 H 102.616 -5.7183 -2.02719 0
M  V30 1119 H 101.355 -4.45376 -1.98725 0
M  V30 1120 H 100.36 -5.49758 0.0676979 0
M  V30 1121 H 101.585 -6.79099 0.00891991 0
M  V30 1122 H 99.531 -6.19601 -2.15478 0
M  V30 1123 H 99.448 -7.49254 -1.00766 0
M  V30 1124 H 100.716 -7.47906 -2.19676 0
M  V30 1125 N 104.945 -0.338344 -1.53925 0
M  V30 1126 C 106.175 0.260919 -2.04946 0
M  V30 1127 C 106.583 1.45174 -1.2133 0
M  V30 1128 O 105.926 1.82122 -0.240262 0
M  V30 1129 C 105.988 0.744596 -3.51704 0
M  V30 1130 C 105.652 -0.325883 -4.55837 0
M  V30 1131 C 106.649 -1.16687 -5.06636 0
M  V30 1132 C 104.334 -0.478317 -5.00017 0
M  V30 1133 C 106.328 -2.14588 -6.00192 0
M  V30 1134 C 104.015 -1.46073 -5.93385 0
M  V30 1135 C 105.013 -2.29297 -6.4336 0
M  V30 1136 O 104.701 -3.25867 -7.34892 0
M  V30 1137 H 104.433 0.0551207 -0.673749 0
M  V30 1138 H 106.987 -0.486984 -1.99544 0
M  V30 1139 H 105.217 1.54366 -3.54553 0
M  V30 1140 H 106.906 1.26383 -3.85723 0
M  V30 1141 H 107.672 -1.06016 -4.73271 0
M  V30 1142 H 103.551 0.159613 -4.60724 0
M  V30 1143 H 107.095 -2.79585 -6.39123 0
M  V30 1144 H 102.992 -1.56802 -6.26166 0
M  V30 1145 H 103.76 -3.21278 -7.5281 0
M  V30 1146 N 106.423 1.57458 -0.0668435 0
M  V30 1147 C 107.353 2.15468 0.899764 0
M  V30 1148 C 108.334 1.08042 1.31381 0
M  V30 1149 O 109.519 1.36054 1.38574 0
M  V30 1150 C 106.649 2.71232 2.16911 0
M  V30 1151 C 105.603 3.83781 1.89463 0
M  V30 1152 C 104.929 4.26127 3.22986 0
M  V30 1153 C 106.229 5.08238 1.20381 0
M  V30 1154 H 107.923 2.96488 0.416529 0
M  V30 1155 H 105.469 1.4262 0.198908 0
M  V30 1156 H 107.422 3.10458 2.84945 0
M  V30 1157 H 106.146 1.87426 2.67468 0
M  V30 1158 H 104.805 3.45051 1.23836 0
M  V30 1159 H 104.453 3.39249 3.71374 0
M  V30 1160 H 104.153 5.01993 3.05413 0
M  V30 1161 H 105.677 4.67966 3.92225 0
M  V30 1162 H 107.091 5.44811 1.78475 0
M  V30 1163 H 105.488 5.89349 1.13083 0
M  V30 1164 H 106.558 4.84558 0.182153 0
M  V30 1165 N 107.901 -0.206675 1.56239 0
M  V30 1166 C 109.141 -0.93574 1.81723 0
M  V30 1167 C 109.505 -1.80927 0.642609 0
M  V30 1168 O 110.706 -2.57323 0.777081 0
M  V30 1169 C 108.977 -1.74012 3.12177 0
M  V30 1170 S 110.536 -2.52279 3.59028 0
M  V30 1171 H 107.354 -0.314065 0.637875 0
M  V30 1172 H 109.956 -0.200071 1.94474 0
M  V30 1173 H 108.66 -1.0888 3.95693 0
M  V30 1174 H 108.191 -2.51782 3.02274 0
M  V30 1175 H 110.206 -3.76209 3.23545 0
M  V30 1176 N 109.379 -1.50304 -0.473955 0
M  V30 1177 C 110.604 -1.65175 -1.25427 0
M  V30 1178 C 111.029 -0.333673 -1.85117 0
M  V30 1179 O 110.387 0.702114 -1.67153 0
M  V30 1180 C 110.435 -2.74295 -2.34082 0
M  V30 1181 O 109.539 -2.35349 -3.38651 0
M  V30 1182 H 108.88 -0.551944 -0.369126 0
M  V30 1183 H 111.41 -1.96662 -0.564364 0
M  V30 1184 H 111.42 -2.97285 -2.79438 0
M  V30 1185 H 110.095 -3.69959 -1.90008 0
M  V30 1186 H 108.672 -2.22794 -2.99027 0
M  V30 1187 N 110.857 0.726932 -1.39834 0
M  V30 1188 C 112.106 1.48214 -1.36805 0
M  V30 1189 C 112.419 1.95576 0.0305291 0
M  V30 1190 O 113.625 2.7088 0.183417 0
M  V30 1191 C 112.081 2.67854 -2.40379 0
M  V30 1192 C 111.689 2.27408 -3.85992 0
M  V30 1193 C 113.433 3.45641 -2.46439 0
M  V30 1194 C 111.34 3.43819 -4.81189 0
M  V30 1195 H 110.27 0.556606 -0.508631 0
M  V30 1196 H 112.921 0.792216 -1.65518 0
M  V30 1197 H 111.303 3.3896 -2.04749 0
M  V30 1198 H 112.477 1.63795 -4.30706 0
M  V30 1199 H 110.792 1.62692 -3.83302 0
M  V30 1200 H 113.389 4.32244 -3.14753 0
M  V30 1201 H 113.732 3.88669 -1.49139 0
M  V30 1202 H 114.265 2.8157 -2.81004 0
M  V30 1203 H 111.004 3.05834 -5.79781 0
M  V30 1204 H 110.524 4.06385 -4.41148 0
M  V30 1205 H 112.203 4.10043 -5.00474 0
M  V30 1206 N 112.336 1.25143 0.95797 0
M  V30 1207 C 113.286 1.01924 2.0395 0
M  V30 1208 C 114.27 -0.0427175 1.60843 0
M  V30 1209 O 115.462 0.17221 1.7616 0
M  V30 1210 C 112.591 0.636373 3.3735 0
M  V30 1211 C 111.677 1.73492 3.8699 0
M  V30 1212 N 112.068 2.96945 4.0946 0
M  V30 1213 C 110.366 1.61467 4.15746 0
M  V30 1214 C 111.067 3.68228 4.50315 0
M  V30 1215 N 110.043 2.95833 4.56053 0
M  V30 1216 H 113.845 1.95653 2.19311 0
M  V30 1217 H 111.359 1.15413 1.14253 0
M  V30 1218 H 113.356 0.451233 4.14451 0
M  V30 1219 H 112.016 -0.293621 3.2337 0
M  V30 1220 H 113.027 3.33025 3.96629 0
M  V30 1221 H 109.704 0.753394 4.10646 0
M  V30 1222 H 111.094 4.74178 4.76031 0
M  V30 1223 N 113.814 -1.1601 1.06675 0
M  V30 1224 C 115.23 -1.38622 0.790948 0
M  V30 1225 C 115.43 -1.92109 -0.607965 0
M  V30 1226 O 114.486 -2.12239 -1.36787 0
M  V30 1227 C 115.799 -2.36347 1.85905 0
M  V30 1228 C 117.347 -2.50023 1.88301 0
M  V30 1229 C 117.822 -3.51033 2.94176 0
M  V30 1230 N 119.313 -3.58563 2.93235 0
M  V30 1231 C 120.048 -4.36521 3.71803 0
M  V30 1232 N 119.544 -5.17869 4.602 0
M  V30 1233 N 121.337 -4.31541 3.60178 0
M  V30 1234 H 113.488 -0.796294 1.96908 0
M  V30 1235 H 115.751 -0.412597 0.853503 0
M  V30 1236 H 115.457 -2.04147 2.86386 0
M  V30 1237 H 115.331 -3.36042 1.71334 0
M  V30 1238 H 117.718 -2.81524 0.884769 0
M  V30 1239 H 117.799 -1.5035 2.06951 0
M  V30 1240 H 117.443 -3.20268 3.94196 0
M  V30 1241 H 117.373 -4.50445 2.72776 0
M  V30 1242 H 119.864 -3.00496 2.29152 0
M  V30 1243 H 120.177 -5.74578 5.16797 0
M  V30 1244 H 118.522 -5.17199 4.64253 0
M  V30 1245 H 121.713 -3.67051 2.90502 0
M  V30 1246 H 121.886 -4.9205 4.21653 0
M  V30 1247 N 115.292 -0.849877 -1.32721 0
M  V30 1248 C 116.202 -0.293791 -2.32753 0
M  V30 1249 C 117.218 0.585906 -1.63839 0
M  V30 1250 O 118.394 0.487413 -1.95413 0
M  V30 1251 C 115.459 0.512752 -3.42887 0
M  V30 1252 C 114.52 -0.39252 -4.27502 0
M  V30 1253 C 113.753 0.375625 -5.32377 0
M  V30 1254 O 113.976 1.60613 -5.4732 0
M  V30 1255 O 112.91 -0.256094 -6.01355 0
M  V30 1256 H 116.736 -1.12242 -2.82197 0
M  V30 1257 H 114.321 -0.612685 -1.36259 0
M  V30 1258 H 116.203 0.970704 -4.10067 0
M  V30 1259 H 114.878 1.31826 -2.95641 0
M  V30 1260 H 113.785 -0.898547 -3.63149 0
M  V30 1261 H 115.118 -1.16309 -4.7826 0
M  V30 1262 N 116.77 1.45427 -0.607355 0
M  V30 1263 C 118.018 2.01841 -0.102253 0
M  V30 1264 C 118.339 1.47832 1.27164 0
M  V30 1265 O 117.609 0.672497 1.83995 0
M  V30 1266 H 116.189 0.746188 -0.0348101 0
M  V30 1267 H 118.851 1.78229 -0.7887 0
M  V30 1268 H 117.947 3.12057 -0.0518585 0
M  V30 1269 N 118.248 0.346503 1.53744 0
M  V30 1270 C 119.525 -0.304532 1.93215 0
M  V30 1271 C 119.905 -1.67993 1.27834 0
M  V30 1272 O 119.253 -2.24411 0.430352 0
M  V30 1273 C 119.463 -0.373852 3.46992 0
M  V30 1274 C 120.811 -0.62329 4.2 0
M  V30 1275 O 121.835 -0.455847 3.53271 0
M  V30 1276 O 120.694 -0.947879 5.38217 0
M  V30 1277 H 117.788 -0.178318 0.807547 0
M  V30 1278 H 120.334 0.397895 1.64969 0
M  V30 1279 H 119.106 0.591224 3.86808 0
M  V30 1280 H 118.729 -1.12294 3.81413 0
M  V30 1281 N 119.726 -1.57421 0.075193 0
M  V30 1282 C 120.956 -1.97659 -0.601203 0
M  V30 1283 C 121.364 -0.952427 -1.63479 0
M  V30 1284 O 120.707 0.0688241 -1.83571 0
M  V30 1285 C 120.769 -3.34218 -1.32434 0
M  V30 1286 C 120.433 -4.5484 -0.443826 0
M  V30 1287 C 121.43 -5.19034 0.299969 0
M  V30 1288 C 119.115 -5.00952 -0.367709 0
M  V30 1289 C 121.109 -6.27695 1.10807 0
M  V30 1290 C 118.796 -6.09484 0.444058 0
M  V30 1291 C 119.794 -6.72719 1.18061 0
M  V30 1292 O 119.482 -7.79161 1.97898 0
M  V30 1293 H 119.214 -0.65494 -0.167422 0
M  V30 1294 H 121.768 -2.04886 0.145157 0
M  V30 1295 H 119.998 -3.23615 -2.11685 0
M  V30 1296 H 121.687 -3.59038 -1.89331 0
M  V30 1297 H 122.453 -4.84351 0.250776 0
M  V30 1298 H 118.332 -4.51509 -0.930638 0
M  V30 1299 H 121.876 -6.76982 1.68347 0
M  V30 1300 H 117.773 -6.43601 0.494803 0
M  V30 1301 H 118.541 -7.96055 1.90367 0
M  V30 1302 N 121.204 0.198386 -1.56346 0
M  V30 1303 C 122.134 1.24865 -1.9731 0
M  V30 1304 C 123.115 1.47651 -0.844576 0
M  V30 1305 O 124.3 1.59444 -1.10866 0
M  V30 1306 C 121.43 2.59358 -2.30977 0
M  V30 1307 C 120.384 2.5119 -3.46537 0
M  V30 1308 C 119.71 3.89926 -3.65871 0
M  V30 1309 C 121.01 2.03977 -4.80823 0
M  V30 1310 H 122.704 0.908252 -2.85291 0
M  V30 1311 H 120.25 0.435462 -1.37258 0
M  V30 1312 H 122.203 3.33011 -2.58228 0
M  V30 1313 H 120.927 2.95132 -1.39874 0
M  V30 1314 H 119.586 1.79993 -3.19371 0
M  V30 1315 H 119.234 4.23046 -2.72105 0
M  V30 1316 H 118.934 3.85336 -4.4361 0
M  V30 1317 H 120.458 4.65205 -3.95495 0
M  V30 1318 H 121.872 2.67386 -5.07127 0
M  V30 1319 H 120.269 2.10397 -5.62008 0
M  V30 1320 H 121.339 0.992861 -4.74626 0
M  V30 1321 N 122.682 1.50554 0.465978 0
M  V30 1322 C 123.93 1.61479 1.21528 0
M  V30 1323 C 124.251 0.319596 1.92363 0
M  V30 1324 O 123.521 -0.663194 1.84333 0
M  V30 1325 H 122.101 0.595055 0.451573 0
M  V30 1326 H 124.763 1.87355 0.53704 0
M  V30 1327 H 123.859 2.42846 1.96042 0
M  V30 1328 N 124.16 -0.719506 1.40217 0
M  V30 1329 C 125.107 -1.83359 1.40172 0
M  V30 1330 C 126.077 -1.64065 0.259206 0
M  V30 1331 O 127.262 -1.85254 0.456677 0
M  V30 1332 C 124.402 -3.2103 1.26624 0
M  V30 1333 C 123.515 -3.51923 2.50548 0
M  V30 1334 C 122.65 -4.79079 2.29471 0
M  V30 1335 C 121.689 -5.02863 3.48992 0
M  V30 1336 N 120.826 -6.2123 3.27135 0
M  V30 1337 H 125.666 -1.82733 2.35399 0
M  V30 1338 H 123.203 -0.892688 1.16917 0
M  V30 1339 H 125.161 -4.00524 1.16776 0
M  V30 1340 H 123.791 -3.20895 0.350176 0
M  V30 1341 H 122.843 -2.67014 2.70939 0
M  V30 1342 H 124.155 -3.6541 3.39525 0
M  V30 1343 H 123.309 -5.66582 2.16955 0
M  V30 1344 H 122.048 -4.67794 1.37913 0
M  V30 1345 H 121.053 -4.13816 3.6199 0
M  V30 1346 H 122.278 -5.16023 4.41472 0
M  V30 1347 H 120.224 -6.11204 2.38256 0
M  V30 1348 H 120.141 -6.35375 4.09675 0
M  V30 1349 H 121.409 -7.11532 3.18344 0
M  V30 1350 N 125.638 -1.25649 -0.95132 0
M  V30 1351 C 126.886 -1.10375 -1.69298 0
M  V30 1352 C 127.207 0.355339 -1.91735 0
M  V30 1353 O 126.477 1.25188 -1.50681 0
M  V30 1354 H 125.057 -0.405461 -0.627384 0
M  V30 1355 H 127.719 -1.57823 -1.14358 0
M  V30 1356 H 126.815 -1.61465 -2.67087 0
M  V30 1357 N 127.117 1.15442 -1.07289 0
M  V30 1358 C 128.342 1.90638 -0.816828 0
M  V30 1359 C 128.767 1.77445 0.624083 0
M  V30 1360 O 128.125 1.10671 1.43602 0
M  V30 1361 C 128.173 3.39008 -1.22906 0
M  V30 1362 O 127.277 4.10701 -0.373975 0
M  V30 1363 H 126.618 0.593555 -0.297638 0
M  V30 1364 H 129.148 1.46198 -1.43134 0
M  V30 1365 H 129.158 3.89801 -1.20497 0
M  V30 1366 H 127.833 3.47929 -2.27856 0
M  V30 1367 H 126.41 3.70046 -0.460499 0
M  V30 1368 N 128.595 0.856903 1.32268 0
M  V30 1369 C 129.842 0.461386 1.97174 0
M  V30 1370 C 130.17 -0.983491 1.67803 0
M  V30 1371 O 129.425 -1.70541 0.959903 0
M  V30 1372 C 129.724 0.649919 3.51441 0
M  V30 1373 C 129.39 2.0656 4.00804 0
M  V30 1374 C 128.052 2.45279 4.13995 0
M  V30 1375 C 130.404 2.98947 4.26943 0
M  V30 1376 C 127.732 3.75653 4.50668 0
M  V30 1377 C 130.084 4.28822 4.65075 0
M  V30 1378 C 128.748 4.67472 4.76472 0
M  V30 1379 H 128.018 0.168833 0.72151 0
M  V30 1380 H 130.665 1.08739 1.57633 0
M  V30 1381 H 128.97 -0.0593018 3.91755 0
M  V30 1382 H 130.667 0.32391 3.9969 0
M  V30 1383 H 127.257 1.75495 3.91024 0
M  V30 1384 H 131.441 2.70265 4.16258 0
M  V30 1385 H 126.697 4.05379 4.57688 0
M  V30 1386 H 130.871 5.0047 4.84255 0
M  V30 1387 H 128.498 5.68539 5.04646 0
M  V30 1388 N 130.073 -1.45103 0.615059 0
M  V30 1389 C 130.983 -2.34382 -0.101034 0
M  V30 1390 C 131.999 -1.51681 -0.852585 0
M  V30 1391 O 133.175 -1.8446 -0.808484 0
M  V30 1392 C 130.24 -3.29417 -1.08099 0
M  V30 1393 C 129.301 -4.28025 -0.330577 0
M  V30 1394 C 128.534 -5.1852 -1.26385 0
M  V30 1395 O 128.757 -5.12598 -2.50198 0
M  V30 1396 O 127.691 -5.97122 -0.756866 0
M  V30 1397 H 131.517 -2.97033 0.632855 0
M  V30 1398 H 129.102 -1.4461 0.375293 0
M  V30 1399 H 130.984 -3.87958 -1.6452 0
M  V30 1400 H 129.659 -2.69321 -1.79577 0
M  V30 1401 H 128.566 -3.73078 0.276283 0
M  V30 1402 H 129.899 -4.90997 0.343866 0
M  V30 1403 N 131.551 -0.354651 -1.53558 0
M  V30 1404 C 132.461 0.50515 -2.29097 0
M  V30 1405 C 133.477 1.10223 -1.34636 0
M  V30 1406 O 134.653 1.11553 -1.67684 0
M  V30 1407 C 131.718 1.63479 -3.05738 0
M  V30 1408 C 130.779 1.06636 -4.15845 0
M  V30 1409 C 130.012 2.14217 -4.88822 0
M  V30 1410 O 130.235 3.35137 -4.61562 0
M  V30 1411 O 129.169 1.77887 -5.75013 0
M  V30 1412 H 132.995 -0.109237 -3.03503 0
M  V30 1413 H 130.58 -0.119357 -1.48922 0
M  V30 1414 H 132.462 2.2918 -3.5363 0
M  V30 1415 H 131.137 2.23478 -2.34178 0
M  V30 1416 H 130.044 0.373565 -3.7223 0
M  V30 1417 H 131.377 0.511081 -4.89539 0
M  V30 1418 N 133.029 1.57378 -0.0835403 0
M  V30 1419 C 133.992 2.12252 0.864959 0
M  V30 1420 C 134.992 1.04916 1.21858 0
M  V30 1421 O 136.182 1.30853 1.14991 0
M  V30 1422 C 133.314 2.63358 2.16461 0
M  V30 1423 H 134.507 2.97371 0.388676 0
M  V30 1424 H 132.06 1.55423 0.165317 0
M  V30 1425 H 132.795 1.81727 2.686 0
M  V30 1426 H 132.58 3.41826 1.92087 0
M  V30 1427 H 134.07 3.05847 2.84337 0
M  V30 1428 N 134.507 -0.190092 1.56449 0
M  V30 1429 C 135.439 -1.25973 1.91477 0
M  V30 1430 C 136.452 -1.41452 0.805931 0
M  V30 1431 O 137.641 -1.41789 1.08435 0
M  V30 1432 C 134.741 -2.63117 2.13594 0
M  V30 1433 C 133.914 -2.69182 3.4476 0
M  V30 1434 C 132.973 -3.87557 3.5593 0
M  V30 1435 O 131.999 -3.74427 4.28711 0
M  V30 1436 N 133.201 -5.03224 2.89388 0
M  V30 1437 H 135.966 -0.962394 2.83828 0
M  V30 1438 H 133.527 -0.379981 1.57378 0
M  V30 1439 H 135.519 -3.40742 2.1835 0
M  V30 1440 H 134.089 -2.85319 1.27719 0
M  V30 1441 H 133.309 -1.77793 3.51828 0
M  V30 1442 H 134.597 -2.70229 4.31107 0
M  V30 1443 H 133.995 -5.16791 2.30094 0
M  V30 1444 H 132.552 -5.78778 2.99764 0
M  V30 1445 N 135.985 -1.50799 -0.457987 0
M  V30 1446 C 137.231 -1.62683 -1.21088 0
M  V30 1447 C 137.564 -0.332268 -1.91336 0
M  V30 1448 O 136.839 0.667043 -1.82704 0
M  V30 1449 C 137.122 -2.81615 -2.24422 0
M  V30 1450 C 136.975 -4.20989 -1.58392 0
M  V30 1451 C 138.294 -2.96085 -3.2561 0
M  V30 1452 H 135.413 -0.592087 -0.438864 0
M  V30 1453 H 138.055 -1.83225 -0.50286 0
M  V30 1454 H 136.205 -2.64231 -2.84806 0
M  V30 1455 H 137.877 -4.49994 -1.01504 0
M  V30 1456 H 136.12 -4.24641 -0.886704 0
M  V30 1457 H 136.791 -5.0016 -2.33547 0
M  V30 1458 H 139.267 -3.12042 -2.75262 0
M  V30 1459 H 138.143 -3.80902 -3.95228 0
M  V30 1460 H 138.404 -2.0726 -3.90507 0
M  V30 1461 N 137.463 0.71206 -1.40597 0
M  V30 1462 C 138.411 1.84746 -1.41321 0
M  V30 1463 C 139.405 1.66842 -0.293268 0
M  V30 1464 O 140.611 1.73904 -0.464481 0
M  V30 1465 H 136.986 0.608522 -0.441819 0
M  V30 1466 H 138.957 1.81252 -2.37045 0
M  V30 1467 C 137.706 3.22638 -1.29614 0
M  V30 1468 H 137.029 3.37023 -2.15071 0
M  V30 1469 H 138.469 4.02209 -1.3418 0
M  V30 1470 C 136.928 3.36899 -0.00673121 0
M  V30 1471 O 137.458 3.90186 0.954859 0
M  V30 1472 N 135.664 2.9053 0.0639327 0
M  V30 1473 H 135.211 2.47353 -0.719311 0
M  V30 1474 H 135.169 3.0045 0.926118 0
M  V30 1475 N 138.941 1.26152 0.944643 0
M  V30 1476 C 139.874 1.01729 2.04271 0
M  V30 1477 C 140.852 -0.0568101 1.62501 0
M  V30 1478 O 142.036 0.0848987 1.88309 0
M  V30 1479 C 139.163 0.539792 3.34371 0
M  V30 1480 C 138.209 1.60593 3.9511 0
M  V30 1481 S 139.042 3.19392 4.29825 0
M  V30 1482 C 140.198 2.73402 5.63029 0
M  V30 1483 H 140.431 1.94703 2.24673 0
M  V30 1484 H 137.964 1.09793 1.08558 0
M  V30 1485 H 139.922 0.270956 4.09605 0
M  V30 1486 H 138.583 -0.369609 3.11918 0
M  V30 1487 H 137.776 1.22275 4.88943 0
M  V30 1488 H 137.378 1.82596 3.26397 0
M  V30 1489 H 139.67 2.1765 6.41588 0
M  V30 1490 H 140.613 3.65913 6.06229 0
M  V30 1491 H 141.021 2.13077 5.22741 0
M  V30 1492 N 140.419 -1.14872 1.07899 0
M  V30 1493 C 141.665 -1.86289 0.81657 0
M  V30 1494 C 142.02 -1.8107 -0.65049 0
M  V30 1495 O 141.313 -1.22684 -1.47171 0
M  V30 1496 C 141.507 -3.34223 1.26609 0
M  V30 1497 C 141.336 -3.53846 2.77531 0
M  V30 1498 C 140.106 -3.68995 3.45212 0
M  V30 1499 C 142.304 -3.51201 3.75716 0
M  V30 1500 N 140.286 -3.76725 4.84718 0
M  V30 1501 C 141.657 -3.65112 5.01092 0
M  V30 1502 C 143.712 -3.34507 3.68794 0
M  V30 1503 C 142.415 -3.64056 6.20368 0
M  V30 1504 C 144.441 -3.34752 4.8754 0
M  V30 1505 C 143.803 -3.49199 6.11751 0
M  V30 1506 H 139.902 -0.698579 0.351443 0
M  V30 1507 H 142.486 -1.37713 1.37634 0
M  V30 1508 H 140.657 -3.81402 0.73395 0
M  V30 1509 H 142.389 -3.93377 0.95062 0
M  V30 1510 H 139.144 -3.70006 2.95622 0
M  V30 1511 H 139.568 -3.8432 5.5734 0
M  V30 1512 H 144.21 -3.22253 2.73702 0
M  V30 1513 H 141.928 -3.75087 7.15776 0
M  V30 1514 H 145.514 -3.23055 4.83866 0
M  V30 1515 H 144.394 -3.49328 7.02097 0
M  V30 1516 N 141.898 -0.863906 -1.31812 0
M  V30 1517 C 143.144 -0.472535 -1.97218 0
M  V30 1518 C 143.477 0.971394 -1.68159 0
M  V30 1519 O 142.752 1.68309 -0.974798 0
M  V30 1520 C 143.035 -0.723054 -3.52766 0
M  V30 1521 C 142.888 -2.21608 -3.91421 0
M  V30 1522 C 144.207 -0.185522 -4.39709 0
M  V30 1523 H 141.326 -0.173158 -0.71637 0
M  V30 1524 H 143.968 -1.08403 -1.56041 0
M  V30 1525 H 142.118 -0.202577 -3.87971 0
M  V30 1526 H 143.79 -2.80334 -3.66347 0
M  V30 1527 H 142.033 -2.691 -3.40246 0
M  V30 1528 H 142.704 -2.34203 -4.99853 0
M  V30 1529 H 145.18 -0.630726 -4.11292 0
M  V30 1530 H 144.056 -0.390306 -5.47511 0
M  V30 1531 H 144.317 0.912229 -4.32586 0
M  V30 1532 N 143.376 1.44774 -0.622745 0
M  V30 1533 C 144.653 1.95522 -0.0551974 0
M  V30 1534 C 145.033 1.5649 1.41683 0
M  V30 1535 O 144.381 0.834848 2.12703 0
M  V30 1536 C 144.591 3.4796 -0.269242 0
M  V30 1537 C 145.939 4.24306 -0.158014 0
M  V30 1538 O 146.963 3.55637 -0.200162 0
M  V30 1539 O 145.822 5.46471 -0.0558693 0
M  V30 1540 H 142.916 0.826556 0.0271015 0
M  V30 1541 H 145.462 1.54866 -0.693864 0
M  V30 1542 H 144.234 3.6939 -1.29099 0
M  V30 1543 H 143.857 3.95543 0.403966 0
M  V30 1544 N 144.854 0.36279 1.53368 0
M  V30 1545 C 146.101 -0.227776 2.01215 0
M  V30 1546 C 146.429 -1.49003 1.25014 0
M  V30 1547 O 145.684 -1.92876 0.331236 0
M  V30 1548 C 145.983 -0.568417 3.52851 0
M  V30 1549 C 145.649 0.59918 4.46901 0
M  V30 1550 C 144.311 0.919559 4.72332 0
M  V30 1551 C 146.663 1.38156 5.02556 0
M  V30 1552 C 143.991 2.02434 5.5067 0
M  V30 1553 C 146.343 2.47674 5.821 0
M  V30 1554 C 145.007 2.8025 6.05819 0
M  V30 1555 H 144.277 -0.083349 0.736297 0
M  V30 1556 H 146.924 0.494677 1.85001 0
M  V30 1557 H 145.229 -1.37185 3.66998 0
M  V30 1558 H 146.926 -1.03756 3.87344 0
M  V30 1559 H 143.516 0.339437 4.27254 0
M  V30 1560 H 147.7 1.14729 4.82857 0
M  V30 1561 H 142.956 2.28075 5.67267 0
M  V30 1562 H 147.13 3.08716 6.24234 0
M  V30 1563 H 144.757 3.65979 6.66306 0
M  V30 1564 N 146.332 -1.57332 0.0918853 0
M  V30 1565 C 147.28 -2.15075 -0.885747 0
M  V30 1566 C 148.274 -1.09277 -1.29441 0
M  V30 1567 O 149.48 -1.27627 -1.26931 0
M  V30 1568 H 145.855 -0.687966 -0.303656 0
M  V30 1569 H 147.826 -2.96047 -0.373995 0
M  V30 1570 C 146.575 -2.74325 -2.13638 0
M  V30 1571 H 145.898 -3.55418 -1.8308 0
M  V30 1572 H 147.338 -3.183 -2.80109 0
M  V30 1573 C 145.797 -1.70062 -2.90827 0
M  V30 1574 O 146.327 -1.13763 -3.85254 0
M  V30 1575 N 144.533 -1.40628 -2.54307 0
M  V30 1576 H 144.08 -1.866 -1.7759 0
M  V30 1577 H 144.038 -0.711043 -3.06254 0
M  V30 1578 N 147.81 0.181792 -1.56548 0
M  V30 1579 C 149.038 0.915947 -1.85521 0
M  V30 1580 C 149.453 1.76282 -0.676016 0
M  V30 1581 O 148.81 1.79012 0.355077 0
M  V30 1582 C 148.861 1.80126 -3.13427 0
M  V30 1583 O 148.582 0.988562 -4.26801 0
M  V30 1584 C 150.083 2.64597 -3.55673 0
M  V30 1585 H 147.303 0.26661 -0.61576 0
M  V30 1586 H 149.847 0.185039 -2.03661 0
M  V30 1587 H 148.002 2.48563 -2.97145 0
M  V30 1588 H 148.416 1.59308 -4.99721 0
M  V30 1589 H 149.89 3.2235 -4.48101 0
M  V30 1590 H 150.367 3.38958 -2.79292 0
M  V30 1591 H 150.973 2.0151 -3.74532 0
M  V30 1592 N 149.288 1.51039 0.449983 0
M  V30 1593 C 150.518 1.66627 1.22143 0
M  V30 1594 C 150.926 0.357776 1.85786 0
M  V30 1595 O 150.269 -0.672424 1.70951 0
M  V30 1596 C 150.331 2.71562 2.35573 0
M  V30 1597 C 149.995 4.14526 1.92399 0
M  V30 1598 C 150.992 4.99717 1.43453 0
M  V30 1599 C 148.677 4.60559 2.00475 0
M  V30 1600 C 150.671 6.28998 1.03155 0
M  V30 1601 C 148.358 5.8984 1.59788 0
M  V30 1602 C 149.356 6.73886 1.11208 0
M  V30 1603 O 149.044 8.0075 0.710935 0
M  V30 1604 H 148.776 0.562635 0.374724 0
M  V30 1605 H 151.33 1.98146 0.541036 0
M  V30 1606 H 149.56 2.3533 3.06849 0
M  V30 1607 H 151.249 2.76156 2.97478 0
M  V30 1608 H 152.015 4.65361 1.36618 0
M  V30 1609 H 147.894 3.95273 2.37235 0
M  V30 1610 H 151.438 6.9455 0.651663 0
M  V30 1611 H 147.335 6.23713 1.66289 0
M  V30 1612 H 148.103 8.142 0.837913 0
M  V30 1613 N 150.766 -0.704594 1.40972 0
M  V30 1614 C 151.676 -1.84856 1.44448 0
M  V30 1615 C 152.692 -1.70726 0.335961 0
M  V30 1616 O 153.868 -1.92799 0.582276 0
M  V30 1617 C 150.933 -3.20758 1.31587 0
M  V30 1618 C 149.994 -3.47063 2.52677 0
M  V30 1619 C 149.227 -4.76481 2.4042 0
M  V30 1620 O 149.45 -5.52341 1.42391 0
M  V30 1621 O 148.384 -5.03367 3.30007 0
M  V30 1622 H 152.21 -1.8488 2.40942 0
M  V30 1623 H 149.795 -0.85647 1.22413 0
M  V30 1624 H 151.677 -4.01913 1.26665 0
M  V30 1625 H 150.352 -3.21438 0.382049 0
M  V30 1626 H 149.259 -2.65873 2.63177 0
M  V30 1627 H 150.592 -3.5119 3.44858 0
M  V30 1628 N 152.244 -1.26651 -0.937939 0
M  V30 1629 C 153.174 -1.10993 -2.05433 0
M  V30 1630 C 154.155 -0.0142161 -1.70094 0
M  V30 1631 O 155.34 -0.186837 -1.93299 0
M  V30 1632 C 152.47 -0.745561 -3.39203 0
M  V30 1633 C 151.424 -1.79337 -3.88616 0
M  V30 1634 C 150.75 -1.28324 -5.19073 0
M  V30 1635 C 152.05 -3.19553 -4.13138 0
M  V30 1636 H 153.744 -2.0438 -2.1879 0
M  V30 1637 H 151.29 -0.984041 -1.05131 0
M  V30 1638 H 153.243 -0.622888 -4.16771 0
M  V30 1639 H 151.967 0.22401 -3.25831 0
M  V30 1640 H 150.626 -1.90477 -3.13231 0
M  V30 1641 H 150.274 -0.303414 -5.02084 0
M  V30 1642 H 149.974 -1.98369 -5.53103 0
M  V30 1643 H 151.498 -1.1733 -5.99221 0
M  V30 1644 H 152.912 -3.11471 -4.81309 0
M  V30 1645 H 151.309 -3.87218 -4.58457 0
M  V30 1646 H 152.379 -3.65368 -3.18801 0
M  V30 1647 N 153.722 1.14298 -1.08507 0
M  V30 1648 C 154.632 2.23027 -0.727753 0
M  V30 1649 C 155.648 1.71952 0.26619 0
M  V30 1650 O 156.824 2.011 0.109882 0
M  V30 1651 C 153.889 3.46403 -0.143541 0
M  V30 1652 C 152.95 4.12413 -1.19223 0
M  V30 1653 C 152.183 5.29899 -0.635798 0
M  V30 1654 O 152.406 5.67796 0.544393 0
M  V30 1655 O 151.34 5.85717 -1.38634 0
M  V30 1656 H 155.166 2.55945 -1.63481 0
M  V30 1657 H 152.751 1.22248 -0.858817 0
M  V30 1658 H 154.633 4.21018 0.179404 0
M  V30 1659 H 153.308 3.15206 0.736659 0
M  V30 1660 H 152.215 3.39667 -1.56772 0
M  V30 1661 H 153.548 4.47718 -2.04474 0
M  V30 1662 N 155.201 0.870884 1.31352 0
M  V30 1663 C 156.45 0.478408 1.95944 0
M  V30 1664 C 156.763 -0.974493 1.69597 0
M  V30 1665 O 157.969 -1.47316 2.28058 0
M  V30 1666 C 156.425 0.804609 3.50791 0
M  V30 1667 C 156.033 2.27433 3.85977 0
M  V30 1668 C 157.777 0.480648 4.2177 0
M  V30 1669 C 155.684 2.5429 5.33939 0
M  V30 1670 H 154.614 0.175175 0.733369 0
M  V30 1671 H 157.265 1.06391 1.4951 0
M  V30 1672 H 155.647 0.148347 3.95722 0
M  V30 1673 H 156.821 2.97373 3.52002 0
M  V30 1674 H 155.136 2.56442 3.28065 0
M  V30 1675 H 157.733 0.658519 5.30629 0
M  V30 1676 H 158.076 -0.578979 4.12254 0
M  V30 1677 H 158.609 1.09349 3.82476 0
M  V30 1678 H 155.348 3.58939 5.48491 0
M  V30 1679 H 154.868 1.88945 5.69263 0
M  V30 1680 H 156.547 2.39066 6.01212 0
M  V30 1681 N 156.679 -1.44442 0.630414 0
M  V30 1682 C 158.09 -1.85434 0.217063 0
M  V30 1683 C 158.441 -1.52748 -1.23136 0
M  V30 1684 O 157.566 -0.965205 -1.93682 0
M  V30 1685 C 158.161 -3.36581 0.387168 0
M  V30 1686 C 156.72 -3.76389 0.0283297 0
M  V30 1687 C 155.867 -2.68296 0.700889 0
M  V30 1688 H 158.818 -1.34919 0.83562 0
M  V30 1689 H 158.839 -3.78657 -0.374086 0
M  V30 1690 H 158.351 -3.60339 1.44144 0
M  V30 1691 H 156.452 -3.58246 -1.02423 0
M  V30 1692 H 156.565 -4.77095 0.437892 0
M  V30 1693 H 154.929 -2.54335 0.136267 0
M  V30 1694 H 155.712 -2.94887 1.75774 0
M  V30 1695 N 158.157 -0.370918 -1.53173 0
M  V30 1696 C 159.09 0.516727 -2.22273 0
M  V30 1697 C 160.068 1.07877 -1.21661 0
M  V30 1698 O 161.252 1.13389 -1.50583 0
M  V30 1699 C 158.379 1.71346 -2.92161 0
M  V30 1700 C 157.425 1.27838 -4.0689 0
M  V30 1701 S 158.258 0.275217 -5.34792 0
M  V30 1702 C 159.414 1.47816 -6.08195 0
M  V30 1703 H 159.647 -0.0701054 -2.97217 0
M  V30 1704 H 157.18 -0.155038 -1.5362 0
M  V30 1705 H 159.138 2.39988 -3.3304 0
M  V30 1706 H 157.799 2.27156 -2.16931 0
M  V30 1707 H 156.992 2.17141 -4.54825 0
M  V30 1708 H 156.594 0.671105 -3.6793 0
M  V30 1709 H 158.886 2.40831 -6.33251 0
M  V30 1710 H 159.829 1.04008 -7.0042 0
M  V30 1711 H 160.237 1.68663 -5.38714 0
M  V30 1712 N 159.635 1.57281 -0.100228 0
M  V30 1713 C 160.863 1.98879 0.570509 0
M  V30 1714 C 161.278 0.979476 1.61405 0
M  V30 1715 O 160.635 -0.0302288 1.82475 0
M  V30 1716 C 160.686 3.4052 1.2136 0
M  V30 1717 O 160.407 4.37588 0.211786 0
M  V30 1718 C 161.908 3.97149 1.96945 0
M  V30 1719 H 159.128 0.653428 0.152555 0
M  V30 1720 H 161.672 2.03697 -0.18103 0
M  V30 1721 H 159.827 3.367 1.91603 0
M  V30 1722 H 160.241 5.20118 0.676607 0
M  V30 1723 H 161.715 4.98393 2.37294 0
M  V30 1724 H 162.192 3.3525 2.83733 0
M  V30 1725 H 162.798 4.04458 1.31506 0
M  V30 1726 N 161.113 -0.173488 1.56642 0
M  V30 1727 C 162.353 -0.896984 1.83667 0
M  V30 1728 C 162.717 -1.79523 0.680842 0
M  V30 1729 O 163.918 -2.55616 0.831488 0
M  V30 1730 C 162.189 -1.67351 3.15798 0
M  V30 1731 S 163.748 -2.44607 3.64298 0
M  V30 1732 H 160.566 -0.300464 0.644393 0
M  V30 1733 H 163.168 -0.158775 1.94854 0
M  V30 1734 H 161.872 -1.00462 3.97914 0
M  V30 1735 H 161.403 -2.45313 3.07546 0
M  V30 1736 H 163.418 -3.69261 3.31452 0
M  V30 1737 N 162.591 -1.51276 -0.441967 0
M  V30 1738 C 163.821 -1.67273 -1.21257 0
M  V30 1739 C 164.229 -0.367624 -1.85594 0
M  V30 1740 O 163.572 0.663349 -1.71305 0
M  V30 1741 C 163.634 -2.72807 -2.34129 0
M  V30 1742 C 163.298 -4.1554 -1.90198 0
M  V30 1743 C 164.295 -5.00471 -1.40801 0
M  V30 1744 C 161.98 -4.61616 -1.9803 0
M  V30 1745 C 163.974 -6.29536 -0.998174 0
M  V30 1746 C 161.661 -5.90679 -1.56658 0
M  V30 1747 C 162.659 -6.74466 -1.07633 0
M  V30 1748 O 162.347 -8.01116 -0.668459 0
M  V30 1749 H 162.079 -0.564614 -0.371734 0
M  V30 1750 H 164.633 -1.9843 -0.530521 0
M  V30 1751 H 162.863 -2.36954 -3.05597 0
M  V30 1752 H 164.552 -2.77729 -2.96009 0
M  V30 1753 H 165.318 -4.66079 -1.34148 0
M  V30 1754 H 161.197 -3.96526 -2.35135 0
M  V30 1755 H 164.741 -6.94885 -0.61482 0
M  V30 1756 H 160.638 -6.24586 -1.62979 0
M  V30 1757 H 161.406 -8.14633 -0.794722 0
M  V30 1758 N 164.069 0.697108 -1.41344 0
M  V30 1759 C 165.002 1.82134 -1.37486 0
M  V30 1760 C 165.98 1.60784 -0.242351 0
M  V30 1761 O 167.164 1.83553 -0.429012 0
M  V30 1762 C 164.291 3.18788 -1.14421 0
M  V30 1763 C 163.337 3.58932 -2.3037 0
M  V30 1764 S 164.17 3.63916 -3.92843 0
M  V30 1765 C 165.326 5.03298 -3.72078 0
M  V30 1766 H 165.559 1.85129 -2.32625 0
M  V30 1767 H 163.092 0.865671 -1.2785 0
M  V30 1768 H 165.05 3.97677 -1.018 0
M  V30 1769 H 163.711 3.13404 -0.20905 0
M  V30 1770 H 162.904 4.58202 -2.09922 0
M  V30 1771 H 162.506 2.87347 -2.39391 0
M  V30 1772 H 164.798 5.90753 -3.31688 0
M  V30 1773 H 165.741 5.28788 -4.70945 0
M  V30 1774 H 166.149 4.74764 -3.05384 0
M  V30 1775 N 165.547 1.27147 0.931209 0
M  V30 1776 C 166.495 1.09398 2.05268 0
M  V30 1777 C 167.489 0.0180591 1.6939 0
M  V30 1778 O 168.695 0.17551 1.79142 0
M  V30 1779 H 165.07 0.336986 0.672268 0
M  V30 1780 H 167.041 2.04416 2.17386 0
M  V30 1781 C 165.79 0.75424 3.39421 0
M  V30 1782 H 165.113 1.57404 3.67511 0
M  V30 1783 H 166.553 0.669903 4.18674 0
M  V30 1784 C 165.012 -0.541197 3.32525 0
M  V30 1785 O 165.542 -1.57664 3.69466 0
M  V30 1786 N 163.748 -0.535517 2.85623 0
M  V30 1787 H 163.295 0.307511 2.55758 0
M  V30 1788 H 163.253 -1.40236 2.81392 0
M  V30 1789 N 167.025 -1.13721 1.09112 0
M  V30 1790 C 167.973 -2.21103 0.722219 0
M  V30 1791 C 168.967 -1.67147 -0.275374 0
M  V30 1792 O 170.173 -1.79477 -0.137176 0
M  V30 1793 H 166.548 -0.720445 0.215553 0
M  V30 1794 H 168.519 -2.49483 1.63709 0
M  V30 1795 C 167.268 -3.47352 0.15543 0
M  V30 1796 H 166.591 -3.89206 0.914246 0
M  V30 1797 H 168.031 -4.2395 -0.0647967 0
M  V30 1798 C 166.49 -3.1814 -1.10852 0
M  V30 1799 O 167.02 -3.36604 -2.19227 0
M  V30 1800 N 165.226 -2.72045 -1.02176 0
M  V30 1801 H 164.773 -2.57221 -0.139764 0
M  V30 1802 H 164.731 -2.52875 -1.8682 0
M  V30 1803 N 168.503 -0.877838 -1.30888 0
M  V30 1804 C 169.45 -0.337538 -2.28318 0
M  V30 1805 C 170.42 0.568346 -1.56074 0
M  V30 1806 O 171.605 0.498298 -1.84178 0
M  V30 1807 C 168.745 0.448142 -3.42178 0
M  V30 1808 C 167.858 -0.48615 -4.29256 0
M  V30 1809 C 166.993 0.314427 -5.30269 0
M  V30 1810 C 166.032 -0.615791 -6.08995 0
M  V30 1811 N 165.169 0.14902 -7.01942 0
M  V30 1812 H 170.009 -1.17356 -2.73919 0
M  V30 1813 H 167.546 -0.590094 -1.34745 0
M  V30 1814 H 169.504 0.919517 -4.06941 0
M  V30 1815 H 168.134 1.24879 -2.97666 0
M  V30 1816 H 167.186 -1.076 -3.64865 0
M  V30 1817 H 168.498 -1.19909 -4.84173 0
M  V30 1818 H 167.652 0.847969 -6.00745 0
M  V30 1819 H 166.391 1.06062 -4.76027 0
M  V30 1820 H 165.396 -1.16102 -5.37401 0
M  V30 1821 H 166.621 -1.36097 -6.65323 0
M  V30 1822 H 164.567 0.877884 -6.50099 0
M  V30 1823 H 164.484 -0.504433 -7.54315 0
M  V30 1824 H 165.752 0.663537 -7.76671 0
M  V30 1825 N 169.982 1.44106 -0.638065 0
M  V30 1826 C 171.207 2.0685 -0.150916 0
M  V30 1827 C 171.632 1.47417 1.16833 0
M  V30 1828 O 170.99 0.578264 1.71831 0
M  V30 1829 C 171.038 3.60555 -0.05708 0
M  V30 1830 O 170.142 4.00465 0.984972 0
M  V30 1831 H 169.483 0.658151 -0.0879399 0
M  V30 1832 H 172.013 1.84865 -0.876707 0
M  V30 1833 H 172.023 4.07789 0.131232 0
M  V30 1834 H 170.698 4.03193 -1.02021 0
M  V30 1835 H 169.275 3.64849 0.770672 0
M  V30 1836 N 171.46 0.379036 1.52974 0
M  V30 1837 C 172.7 -0.206325 2.03356 0
M  V30 1838 C 173.064 -1.44892 1.25977 0
M  V30 1839 O 174.265 -2.11078 1.66432 0
M  V30 1840 C 172.536 -0.477887 3.54191 0
M  V30 1841 S 174.095 -1.035 4.26419 0
M  V30 1842 H 170.913 -0.0590259 0.708546 0
M  V30 1843 H 173.515 0.525013 1.88319 0
M  V30 1844 H 172.219 0.433745 4.08101 0
M  V30 1845 H 171.75 -1.23793 3.73415 0
M  V30 1846 H 173.765 -2.31821 4.38718 0
M  V30 1847 N 172.938 -1.57226 0.108567 0
M  V30 1848 C 173.848 -2.18292 -0.859401 0
M  V30 1849 C 174.864 -1.15612 -1.30038 0
M  V30 1850 O 176.04 -1.48039 -1.36552 0
M  V30 1851 C 173.105 -2.762 -2.09558 0
M  V30 1852 C 172.166 -3.93881 -1.70752 0
M  V30 1853 C 171.399 -4.49018 -2.88477 0
M  V30 1854 O 171.622 -4.03068 -4.036 0
M  V30 1855 O 170.556 -5.39852 -2.66164 0
M  V30 1856 H 174.382 -3.01441 -0.369769 0
M  V30 1857 H 171.967 -1.48945 -0.1165 0
M  V30 1858 H 173.849 -3.13156 -2.81978 0
M  V30 1859 H 172.524 -1.96089 -2.57548 0
M  V30 1860 H 171.431 -3.61713 -0.954714 0
M  V30 1861 H 172.764 -4.75396 -1.27513 0
M  V30 1862 N 174.416 0.165178 -1.56732 0
M  V30 1863 C 175.363 1.2044 -1.96883 0
M  V30 1864 C 176.333 1.43664 -0.833657 0
M  V30 1865 O 177.518 1.56302 -1.09427 0
M  V30 1866 C 174.658 2.53727 -2.33916 0
M  V30 1867 C 173.771 2.3783 -3.6064 0
M  V30 1868 C 172.906 3.64026 -3.86857 0
M  V30 1869 C 171.945 3.43088 -5.06909 0
M  V30 1870 N 171.082 4.61369 -5.29229 0
M  V30 1871 H 175.922 0.854996 -2.85471 0
M  V30 1872 H 173.459 0.41076 -1.41249 0
M  V30 1873 H 175.417 3.31419 -2.53411 0
M  V30 1874 H 174.047 2.8665 -1.48431 0
M  V30 1875 H 173.099 1.51282 -3.49024 0
M  V30 1876 H 174.411 2.18308 -4.4849 0
M  V30 1877 H 173.565 4.50152 -4.06753 0
M  V30 1878 H 172.304 3.86533 -2.97394 0
M  V30 1879 H 171.309 2.55349 -4.86906 0
M  V30 1880 H 172.534 3.21997 -5.97909 0
M  V30 1881 H 170.48 4.84084 -4.42718 0
M  V30 1882 H 170.397 4.44783 -6.11313 0
M  V30 1883 H 171.665 5.48761 -5.53608 0
M  V30 1884 N 175.894 1.51508 0.433938 0
M  V30 1885 C 177.119 1.68443 1.21003 0
M  V30 1886 C 177.544 0.382636 1.84167 0
M  V30 1887 O 176.902 -0.65755 1.68956 0
M  V30 1888 C 176.95 2.80405 2.26727 0
M  V30 1889 O 176.054 2.44245 3.32292 0
M  V30 1890 H 175.395 0.561536 0.354363 0
M  V30 1891 H 177.925 1.9809 0.512024 0
M  V30 1892 H 177.935 3.0459 2.71457 0
M  V30 1893 H 176.61 3.74867 1.80132 0
M  V30 1894 H 175.187 2.30644 2.93015 0
M  V30 1895 N 177.372 -0.689602 1.41712 0
M  V30 1896 C 178.302 -1.81577 1.46806 0
M  V30 1897 C 179.283 -1.66945 0.326105 0
M  V30 1898 O 180.468 -1.86588 0.538377 0
M  V30 1899 C 177.598 -3.19762 1.35535 0
M  V30 1900 C 176.552 -3.49107 2.47605 0
M  V30 1901 C 175.878 -4.86711 2.21397 0
M  V30 1902 C 177.178 -3.47483 3.89939 0
M  V30 1903 H 178.872 -1.7757 2.41058 0
M  V30 1904 H 176.418 -0.852887 1.16025 0
M  V30 1905 H 178.371 -3.98263 1.3771 0
M  V30 1906 H 177.095 -3.24409 0.377708 0
M  V30 1907 H 175.754 -2.72959 2.44722 0
M  V30 1908 H 175.402 -4.8799 1.21961 0
M  V30 1909 H 175.102 -5.0731 2.96497 0
M  V30 1910 H 176.626 -5.67515 2.25297 0
M  V30 1911 H 178.04 -4.1598 3.94505 0
M  V30 1912 H 176.437 -3.79615 4.64771 0
M  V30 1913 H 177.507 -2.46341 4.17665 0
M  V30 1914 N 178.85 -1.27639 -0.924453 0
M  V30 1915 C 179.797 -1.10644 -2.0255 0
M  V30 1916 C 180.767 -0.00658438 -1.66099 0
M  V30 1917 O 181.952 -0.16952 -1.90045 0
M  V30 1918 C 179.092 -0.76309 -3.36557 0
M  V30 1919 C 178.205 -1.94091 -3.85944 0
M  V30 1920 C 177.34 -1.53914 -5.08413 0
M  V30 1921 C 176.379 -2.68425 -5.50104 0
M  V30 1922 N 175.516 -2.28815 -6.63768 0
M  V30 1923 H 180.356 -2.04858 -2.16419 0
M  V30 1924 H 177.893 -1.01974 -1.06017 0
M  V30 1925 H 179.851 -0.544822 -4.13627 0
M  V30 1926 H 178.481 0.142102 -3.22487 0
M  V30 1927 H 177.533 -2.27162 -3.05125 0
M  V30 1928 H 178.845 -2.7998 -4.12811 0
M  V30 1929 H 177.999 -1.28231 -5.92994 0
M  V30 1930 H 176.738 -0.651391 -4.8333 0
M  V30 1931 H 175.743 -2.94819 -4.64071 0
M  V30 1932 H 176.968 -3.57826 -5.7718 0
M  V30 1933 H 174.914 -1.42495 -6.40337 0
M  V30 1934 H 174.831 -3.08242 -6.90306 0
M  V30 1935 H 176.099 -2.06387 -7.51681 0
M  V30 1936 N 180.328 1.1314 -1.09713 0
M  V30 1937 C 181.278 2.16709 -0.708593 0
M  V30 1938 C 182.262 1.58471 0.278523 0
M  V30 1939 O 183.454 1.76779 0.088427 0
M  V30 1940 C 180.583 3.43039 -0.133923 0
M  V30 1941 C 179.669 4.08277 -1.14763 0
M  V30 1942 N 180.06 4.48637 -2.33577 0
M  V30 1943 C 178.358 4.34954 -0.986446 0
M  V30 1944 C 179.059 4.9952 -2.98085 0
M  V30 1945 N 178.035 4.94561 -2.25632 0
M  V30 1946 H 181.837 2.45672 -1.61315 0
M  V30 1947 H 179.351 1.29967 -0.973775 0
M  V30 1948 H 181.348 4.16583 0.162465 0
M  V30 1949 H 180.008 3.15549 0.765447 0
M  V30 1950 H 181.019 4.41246 -2.7115 0
M  V30 1951 H 177.696 4.17258 -0.142008 0
M  V30 1952 H 179.086 5.40521 -3.99108 0
M  V30 1953 N 181.806 0.884767 1.30421 0
M  V30 1954 C 183.055 0.499164 1.95426 0
M  V30 1955 C 183.368 -0.95645 1.70621 0
M  V30 1956 O 184.574 -1.44889 2.29607 0
M  V30 1957 C 183.03 0.84177 3.49917 0
M  V30 1958 C 182.638 2.31514 3.83543 0
M  V30 1959 C 184.382 0.525355 4.21237 0
M  V30 1960 C 182.289 2.59939 5.31212 0
M  V30 1961 H 181.219 0.182944 0.73147 0
M  V30 1962 H 183.87 1.07971 1.48373 0
M  V30 1963 H 182.252 0.190311 3.95542 0
M  V30 1964 H 183.426 3.0109 3.48829 0
M  V30 1965 H 181.741 2.59907 3.25326 0
M  V30 1966 H 184.338 0.714762 5.29901 0
M  V30 1967 H 184.681 -0.535222 4.12845 0
M  V30 1968 H 185.214 1.134 3.81294 0
M  V30 1969 H 181.953 3.64736 5.44654 0
M  V30 1970 H 181.473 1.94972 5.67227 0
M  V30 1971 H 183.152 2.45429 5.98643 0
M  V30 1972 N 183.284 -1.43765 0.645699 0
M  V30 1973 C 184.194 -2.34544 -0.0512957 0
M  V30 1974 C 185.21 -1.53455 -0.82022 0
M  V30 1975 O 186.386 -1.86133 -0.769176 0
M  V30 1976 C 183.451 -3.31636 -1.01087 0
M  V30 1977 C 182.512 -4.2863 -0.239712 0
M  V30 1978 C 181.745 -5.21084 -1.15358 0
M  V30 1979 O 181.968 -5.1779 -2.39269 0
M  V30 1980 O 180.902 -5.98593 -0.630038 0
M  V30 1981 H 184.728 -2.95624 0.695718 0
M  V30 1982 H 182.313 -1.43781 0.405882 0
M  V30 1983 H 184.195 -3.9136 -1.56254 0
M  V30 1984 H 182.87 -2.73069 -1.73824 0
M  V30 1985 H 181.777 -3.72408 0.355356 0
M  V30 1986 H 183.11 -4.90157 0.447936 0
M  V30 1987 N 184.763 -0.387143 -1.52771 0
M  V30 1988 C 186.04 0.253197 -1.93954 0
M  V30 1989 C 186.42 1.64545 -1.32243 0
M  V30 1990 O 185.768 2.23191 -0.489699 0
M  V30 1991 C 185.978 0.281722 -3.47861 0
M  V30 1992 C 187.326 0.511715 -4.21505 0
M  V30 1993 O 188.35 0.362023 -3.54356 0
M  V30 1994 O 187.209 0.804847 -5.40541 0
M  V30 1995 H 184.303 0.156845 -0.811991 0
M  V30 1996 H 186.849 -0.441494 -1.63856 0
M  V30 1997 H 185.621 -0.693571 -3.85104 0
M  V30 1998 H 185.244 1.02142 -3.84256 0
M  V30 1999 N 186.241 1.57166 -0.116904 0
M  V30 2000 C 187.469 1.99473 0.549383 0
M  V30 2001 C 187.884 0.996541 1.60357 0
M  V30 2002 O 187.241 -0.0108731 1.82497 0
M  V30 2003 C 187.292 3.41788 1.17741 0
M  V30 2004 O 187.013 4.37788 0.165362 0
M  V30 2005 C 188.514 3.99216 1.92722 0
M  V30 2006 H 185.734 0.655009 0.145616 0
M  V30 2007 H 188.278 2.03494 -0.202625 0
M  V30 2008 H 186.433 3.38713 1.88021 0
M  V30 2009 H 186.847 5.20806 0.621403 0
M  V30 2010 H 188.321 5.00882 2.31995 0
M  V30 2011 H 188.798 3.3824 2.80161 0
M  V30 2012 H 189.404 4.0583 1.27209 0
M  V30 2013 N 187.719 -0.156864 1.56817 0
M  V30 2014 C 188.649 -1.19589 2.00551 0
M  V30 2015 C 189.63 -1.4536 0.883426 0
M  V30 2016 O 190.815 -1.56449 1.15054 0
M  V30 2017 C 187.945 -2.53143 2.37773 0
M  V30 2018 C 186.899 -2.41913 3.53075 0
M  V30 2019 C 186.225 -3.80088 3.76081 0
M  V30 2020 C 187.525 -1.91157 4.86062 0
M  V30 2021 H 189.219 -0.832293 2.87599 0
M  V30 2022 H 186.765 -0.398918 1.38364 0
M  V30 2023 H 188.718 -3.26047 2.66967 0
M  V30 2024 H 187.442 -2.91319 1.4765 0
M  V30 2025 H 186.101 -1.71462 3.24031 0
M  V30 2026 H 185.749 -4.15683 2.83225 0
M  V30 2027 H 185.449 -3.73439 4.53671 0
M  V30 2028 H 186.973 -4.54556 4.0769 0
M  V30 2029 H 188.387 -2.53846 5.14038 0
M  V30 2030 H 186.784 -1.95422 5.67389 0
M  V30 2031 H 187.854 -0.866673 4.77092 0
M  V30 2032 N 189.197 -1.51736 -0.425897 0
M  V30 2033 C 190.144 -1.73875 -1.51776 0
M  V30 2034 C 191.114 -0.580702 -1.55618 0
M  V30 2035 O 192.299 -0.81641 -1.72451 0
M  V30 2036 C 189.439 -1.88012 -2.89388 0
M  V30 2037 C 188.552 -3.15606 -2.94986 0
M  V30 2038 C 187.687 -3.20271 -4.23793 0
M  V30 2039 C 186.726 -4.42134 -4.23302 0
M  V30 2040 N 185.863 -4.44284 -5.43651 0
M  V30 2041 H 190.703 -2.67071 -1.32201 0
M  V30 2042 H 188.24 -1.32351 -0.642008 0
M  V30 2043 H 190.198 -1.9419 -3.69251 0
M  V30 2044 H 188.828 -0.98213 -3.07496 0
M  V30 2045 H 187.88 -3.18681 -2.07717 0
M  V30 2046 H 189.192 -4.05486 -2.90486 0
M  V30 2047 H 188.346 -3.25428 -5.12036 0
M  V30 2048 H 187.085 -2.28299 -4.30965 0
M  V30 2049 H 186.09 -4.3714 -3.3345 0
M  V30 2050 H 187.315 -5.35382 -4.17783 0
M  V30 2051 H 185.261 -3.55188 -5.51523 0
M  V30 2052 H 185.178 -5.27988 -5.41078 0
M  V30 2053 H 186.446 -4.53649 -6.33895 0
M  V30 2054 N 190.675 0.682077 -1.42076 0
M  V30 2055 C 191.915 1.45424 -1.43636 0
M  V30 2056 C 192.279 1.91939 -0.0484001 0
M  V30 2057 O 193.48 2.6873 0.0612514 0
M  V30 2058 C 191.751 2.62427 -2.42625 0
M  V30 2059 S 193.31 3.51379 -2.62827 0
M  V30 2060 H 190.128 0.496779 -0.508657 0
M  V30 2061 H 192.73 0.794645 -1.78621 0
M  V30 2062 H 191.434 2.26481 -3.42249 0
M  V30 2063 H 190.965 3.33266 -2.09039 0
M  V30 2064 H 192.98 4.58141 -1.9058 0
M  V30 2065 N 192.153 1.28127 0.917671 0
M  V30 2066 C 193.383 1.17722 1.6978 0
M  V30 2067 C 193.791 -0.267261 1.87303 0
M  V30 2068 O 193.134 -1.19286 1.39702 0
M  V30 2069 C 193.196 1.79958 3.11216 0
M  V30 2070 C 192.86 3.29187 3.16993 0
M  V30 2071 C 193.857 4.25679 2.98485 0
M  V30 2072 C 191.542 3.70075 3.39632 0
M  V30 2073 C 193.536 5.61035 3.02521 0
M  V30 2074 C 191.223 5.05557 3.433 0
M  V30 2075 C 192.221 6.00847 3.24764 0
M  V30 2076 O 191.909 7.33859 3.28187 0
M  V30 2077 H 191.641 0.409788 0.537634 0
M  V30 2078 H 194.195 1.69694 1.15728 0
M  V30 2079 H 192.425 1.22475 3.66793 0
M  V30 2080 H 194.114 1.64125 3.71238 0
M  V30 2081 H 194.88 3.95426 2.80826 0
M  V30 2082 H 190.759 2.96373 3.53106 0
M  V30 2083 H 194.303 6.35388 2.87971 0
M  V30 2084 H 190.2 5.35462 3.60486 0
M  V30 2085 H 190.968 7.42436 3.44575 0
M  V30 2086 N 193.631 -1.12557 1.10312 0
M  V30 2087 C 194.579 -2.20325 0.745629 0
M  V30 2088 C 195.573 -1.67429 -0.25763 0
M  V30 2089 O 196.779 -1.79612 -0.118132 0
M  V30 2090 H 193.154 -0.718118 0.223182 0
M  V30 2091 H 195.125 -2.47733 1.66346 0
M  V30 2092 C 193.874 -3.47168 0.192262 0
M  V30 2093 H 193.197 -3.88215 0.955475 0
M  V30 2094 H 194.637 -4.23995 -0.0198274 0
M  V30 2095 C 193.096 -3.19298 -1.07472 0
M  V30 2096 O 193.626 -3.3891 -2.15645 0
M  V30 2097 N 191.832 -2.73113 -0.992847 0
M  V30 2098 H 191.379 -2.57354 -0.112474 0
M  V30 2099 H 191.337 -2.54842 -1.84127 0
M  V30 2100 N 195.109 -0.891671 -1.2995 0
M  V30 2101 C 196.057 -0.353066 -2.29905 0
M  V30 2102 C 197.051 0.543509 -1.60444 0
M  V30 2103 O 198.257 0.4272 -1.74857 0
M  V30 2104 H 194.632 -0.095531 -0.745907 0
M  V30 2105 H 196.603 -1.20961 -2.72784 0
M  V30 2106 C 195.352 0.411475 -3.45257 0
M  V30 2107 H 194.675 -0.269182 -3.98893 0
M  V30 2108 H 196.115 0.753328 -4.17254 0
M  V30 2109 C 194.574 1.6111 -2.9588 0
M  V30 2110 O 195.104 2.71045 -2.96475 0
M  V30 2111 N 193.31 1.45054 -2.51809 0
M  V30 2112 H 192.857 0.556175 -2.51524 0
M  V30 2113 H 192.815 2.25453 -2.1913 0
M  V30 2114 N 196.587 1.43421 -0.653314 0
M  V30 2115 C 197.537 2.2792 0.060558 0
M  V30 2116 C 198.521 1.39906 0.794677 0
M  V30 2117 O 199.713 1.63536 0.677128 0
M  V30 2118 C 196.842 3.27603 1.0262 0
M  V30 2119 C 195.928 4.23104 0.290551 0
M  V30 2120 N 196.319 5.01031 -0.692967 0
M  V30 2121 C 194.617 4.42816 0.531984 0
M  V30 2122 C 195.318 5.70626 -1.12963 0
M  V30 2123 N 194.294 5.41617 -0.463867 0
M  V30 2124 H 198.096 2.85585 -0.694143 0
M  V30 2125 H 195.61 1.55126 -0.480602 0
M  V30 2126 H 197.607 3.86918 1.55242 0
M  V30 2127 H 196.267 2.71499 1.78096 0
M  V30 2128 H 197.278 5.0669 -1.07169 0
M  V30 2129 H 193.955 3.97782 1.26791 0
M  V30 2130 H 195.345 6.4318 -1.94343 0
M  V30 2131 N 198.065 0.39524 1.52563 0
M  V30 2132 C 198.995 -0.428384 2.29537 0
M  V30 2133 C 199.976 -1.05831 1.33169 0
M  V30 2134 O 201.161 -1.06995 1.62067 0
M  V30 2135 C 198.291 -1.55274 3.10656 0
M  V30 2136 C 197.245 -1.04855 4.14957 0
M  V30 2137 C 196.571 -2.26543 4.84337 0
M  V30 2138 C 197.871 -0.112324 5.22179 0
M  V30 2139 H 199.565 0.213867 2.98635 0
M  V30 2140 H 197.111 0.104298 1.43622 0
M  V30 2141 H 199.064 -2.1358 3.63265 0
M  V30 2142 H 197.788 -2.22266 2.39302 0
M  V30 2143 H 196.447 -0.487985 3.63338 0
M  V30 2144 H 196.095 -2.92059 4.09525 0
M  V30 2145 H 195.795 -1.93466 5.54837 0
M  V30 2146 H 197.319 -2.85481 5.39753 0
M  V30 2147 H 198.733 -0.603752 5.70112 0
M  V30 2148 H 197.13 0.128968 5.99961 0
M  V30 2149 H 198.2 0.837052 4.77621 0
M  V30 2150 N 199.544 -1.57102 0.125237 0
M  V30 2151 C 200.474 -2.18659 -0.819174 0
M  V30 2152 C 201.455 -1.12843 -1.27281 0
M  V30 2153 O 202.64 -1.41104 -1.33429 0
M  V30 2154 C 199.77 -2.79096 -2.06695 0
M  V30 2155 C 198.724 -3.90548 -1.75088 0
M  V30 2156 C 198.05 -4.37821 -3.06948 0
M  V30 2157 C 199.35 -5.12356 -1.01435 0
M  V30 2158 H 201.044 -2.9783 -0.306202 0
M  V30 2159 H 198.59 -1.4326 -0.145839 0
M  V30 2160 H 200.543 -3.2082 -2.73226 0
M  V30 2161 H 199.267 -1.97223 -2.60328 0
M  V30 2162 H 197.926 -3.49409 -1.10944 0
M  V30 2163 H 197.574 -3.52799 -3.58527 0
M  V30 2164 H 197.274 -5.12982 -2.86571 0
M  V30 2165 H 198.798 -4.822 -3.74587 0
M  V30 2166 H 200.212 -5.5106 -1.58132 0
M  V30 2167 H 198.609 -5.9314 -0.911319 0
M  V30 2168 H 199.679 -4.849 -0.00218681 0
M  V30 2169 N 201.022 0.148545 -1.56898 0
M  V30 2170 C 202.252 0.875118 -1.8715 0
M  V30 2171 C 202.66 1.75322 -0.711262 0
M  V30 2172 O 202.003 1.80745 0.328151 0
M  V30 2173 C 202.065 1.7844 -3.12089 0
M  V30 2174 C 201.729 1.08361 -4.43967 0
M  V30 2175 C 202.726 0.438247 -5.1805 0
M  V30 2176 C 200.411 1.07358 -4.90693 0
M  V30 2177 C 202.405 -0.20779 -6.37061 0
M  V30 2178 C 200.092 0.42373 -6.09629 0
M  V30 2179 C 201.09 -0.215829 -6.82659 0
M  V30 2180 O 200.778 -0.855378 -7.99336 0
M  V30 2181 H 200.51 0.258504 -0.624621 0
M  V30 2182 H 203.064 0.14652 -2.04877 0
M  V30 2183 H 201.294 2.55389 -2.90367 0
M  V30 2184 H 202.983 2.38279 -3.286 0
M  V30 2185 H 203.749 0.437817 -4.8302 0
M  V30 2186 H 199.628 1.5608 -4.33774 0
M  V30 2187 H 203.172 -0.70758 -6.94002 0
M  V30 2188 H 199.069 0.421822 -6.4412 0
M  V30 2189 H 199.837 -0.756892 -8.14993 0
M  V30 2190 N 202.5 1.5196 0.417844 0
M  V30 2191 C 203.448 1.75278 1.52907 0
M  V30 2192 C 204.442 0.619611 1.57662 0
M  V30 2193 O 205.648 0.801457 1.61173 0
M  V30 2194 H 202.023 0.554141 0.508362 0
M  V30 2195 H 203.994 2.68389 1.30422 0
M  V30 2196 C 202.743 1.91262 2.90369 0
M  V30 2197 H 202.066 2.77872 2.8745 0
M  V30 2198 H 203.506 2.11581 3.67436 0
M  V30 2199 C 201.965 0.677431 3.30019 0
M  V30 2200 O 202.495 -0.158799 4.01386 0
M  V30 2201 N 200.701 0.515851 2.85985 0
M  V30 2202 H 200.248 1.19744 2.28077 0
M  V30 2203 H 200.206 -0.309315 3.12875 0
M  V30 2204 N 203.978 -0.674533 1.42435 0
M  V30 2205 C 204.91 -1.80005 1.41883 0
M  V30 2206 C 205.923 -1.59667 0.31787 0
M  V30 2207 O 207.112 -1.68781 0.580973 0
M  V30 2208 C 204.212 -3.17114 1.19549 0
M  V30 2209 C 203.385 -3.64299 2.42084 0
M  V30 2210 C 202.444 -4.80142 2.15291 0
M  V30 2211 O 201.47 -4.90673 2.88493 0
M  V30 2212 N 202.672 -5.68869 1.1562 0
M  V30 2213 H 205.437 -1.80964 2.38898 0
M  V30 2214 H 202.998 -0.857633 1.37318 0
M  V30 2215 H 204.99 -3.92267 0.995417 0
M  V30 2216 H 203.56 -3.11053 0.310569 0
M  V30 2217 H 202.78 -2.79822 2.77657 0
M  V30 2218 H 204.068 -3.92567 3.23679 0
M  V30 2219 H 203.466 -5.63012 0.550765 0
M  V30 2220 H 202.023 -6.43833 1.016 0
M  V30 2221 N 205.456 -1.28612 -0.910864 0
M  V30 2222 C 206.686 -1.1862 -1.69153 0
M  V30 2223 C 207.094 0.257324 -1.87442 0
M  V30 2224 O 206.437 1.18543 -1.40332 0
M  V30 2225 C 206.499 -1.81606 -3.10257 0
M  V30 2226 C 206.163 -3.30864 -3.15243 0
M  V30 2227 C 207.16 -4.27256 -2.96223 0
M  V30 2228 C 204.845 -3.71871 -3.37664 0
M  V30 2229 C 206.839 -5.62631 -2.99541 0
M  V30 2230 C 204.526 -5.07371 -3.40614 0
M  V30 2231 C 205.524 -6.02561 -3.21573 0
M  V30 2232 O 205.212 -7.35589 -3.2429 0
M  V30 2233 H 204.944 -0.412633 -0.535453 0
M  V30 2234 H 207.498 -1.70306 -1.14827 0
M  V30 2235 H 205.728 -1.24418 -3.66138 0
M  V30 2236 H 207.417 -1.66092 -3.70362 0
M  V30 2237 H 208.183 -3.9691 -2.78725 0
M  V30 2238 H 204.062 -2.98241 -3.5153 0
M  V30 2239 H 207.606 -6.36907 -2.84597 0
M  V30 2240 H 203.503 -5.37366 -3.57642 0
M  V30 2241 H 204.271 -7.44252 -3.40633 0
M  V30 2242 N 206.934 1.1197 -1.10907 0
M  V30 2243 C 207.867 2.16998 -0.706192 0
M  V30 2244 C 208.845 1.59903 0.294897 0
M  V30 2245 O 210.029 1.87513 0.192636 0
M  V30 2246 C 207.156 3.38673 -0.0427664 0
M  V30 2247 C 206.202 4.14414 -1.00811 0
M  V30 2248 S 207.035 4.72079 -2.52789 0
M  V30 2249 C 208.191 5.97083 -1.87731 0
M  V30 2250 H 208.424 2.50837 -1.59587 0
M  V30 2251 H 205.957 1.23508 -0.926555 0
M  V30 2252 H 207.915 4.09142 0.333668 0
M  V30 2253 H 206.576 3.03105 0.823788 0
M  V30 2254 H 205.769 5.016 -0.491259 0
M  V30 2255 H 205.371 3.49678 -1.3267 0
M  V30 2256 H 207.663 6.66599 -1.21044 0
M  V30 2257 H 208.606 6.53403 -2.72892 0
M  V30 2258 H 209.014 5.4837 -1.33979 0
M  V30 2259 N 208.412 0.89855 1.29475 0
M  V30 2260 C 209.658 0.524658 1.95896 0
M  V30 2261 C 209.991 -0.926468 1.70676 0
M  V30 2262 O 209.266 -1.65665 1.01908 0
M  V30 2263 C 209.549 0.81633 3.50725 0
M  V30 2264 C 209.402 2.31907 3.85408 0
M  V30 2265 C 210.721 0.302038 4.39062 0
M  V30 2266 H 207.84 0.19209 0.711527 0
M  V30 2267 H 210.482 1.12502 1.53112 0
M  V30 2268 H 208.632 0.305369 3.87298 0
M  V30 2269 H 210.304 2.89949 3.58786 0
M  V30 2270 H 208.547 2.78027 3.32992 0
M  V30 2271 H 209.218 2.47373 4.93468 0
M  V30 2272 H 211.694 0.739551 4.09475 0
M  V30 2273 H 210.57 0.535331 5.46283 0
M  V30 2274 H 210.831 -0.797216 4.34853 0
M  V30 2275 N 209.89 -1.43072 0.660911 0
M  V30 2276 C 211.138 -2.01323 0.177094 0
M  V30 2277 C 211.459 -1.5245 -1.2159 0
M  V30 2278 O 210.729 -0.740322 -1.81373 0
M  V30 2279 H 209.309 -0.744382 0.0624804 0
M  V30 2280 H 211.971 -1.75179 0.854305 0
M  V30 2281 H 211.067 -3.11649 0.167641 0
M  V30 2282 N 211.368 -0.403325 -1.52352 0
M  V30 2283 C 212.316 0.439752 -2.28405 0
M  V30 2284 C 213.31 1.05089 -1.32863 0
M  V30 2285 O 214.516 0.989759 -1.50345 0
M  V30 2286 H 210.891 0.160587 -0.734653 0
M  V30 2287 H 212.862 -0.222983 -2.97566 0
M  V30 2288 C 211.611 1.54736 -3.11371 0
M  V30 2289 H 210.934 1.08643 -3.84755 0
M  V30 2290 H 212.374 2.1112 -3.67701 0
M  V30 2291 C 210.833 2.51141 -2.24566 0
M  V30 2292 O 211.363 3.54887 -1.88196 0
M  V30 2293 N 209.569 2.21213 -1.8845 0
M  V30 2294 H 209.116 1.36878 -2.18225 0
M  V30 2295 H 209.074 2.85963 -1.30662 0
M  V30 2296 N 212.846 1.57033 -0.133567 0
M  V30 2297 C 214.071 2.00475 0.531477 0
M  V30 2298 C 214.496 1.01291 1.58499 0
M  V30 2299 O 213.854 -0.0133279 1.81295 0
M  V30 2300 C 213.902 3.42729 1.12113 0
M  V30 2301 O 213.006 3.46498 2.23636 0
M  V30 2302 H 212.347 0.650876 0.131362 0
M  V30 2303 H 214.877 2.03344 -0.22634 0
M  V30 2304 H 214.887 3.81246 1.4531 0
M  V30 2305 H 213.562 4.14428 0.349557 0
M  V30 2306 H 212.139 3.19811 1.91769 0
M  V30 2307 N 214.325 -0.140222 1.56975 0
M  V30 2308 C 215.574 -0.850152 1.82908 0
M  V30 2309 C 215.887 -1.82028 0.715892 0
M  V30 2310 O 217.093 -2.57485 0.861016 0
M  V30 2311 C 215.549 -1.5625 3.24213 0
M  V30 2312 C 215.157 -0.63443 4.43485 0
M  V30 2313 C 216.901 -2.25881 3.59413 0
M  V30 2314 C 214.808 -1.34879 5.75814 0
M  V30 2315 H 213.738 -0.321221 0.682153 0
M  V30 2316 H 216.389 -0.102874 1.83211 0
M  V30 2317 H 214.771 -2.35565 3.18316 0
M  V30 2318 H 215.945 0.12398 4.60633 0
M  V30 2319 H 214.26 -0.0461836 4.16374 0
M  V30 2320 H 216.857 -2.79978 4.5554 0
M  V30 2321 H 217.2 -3.02693 2.85802 0
M  V30 2322 H 217.733 -1.53477 3.67001 0
M  V30 2323 H 214.472 -0.622385 6.52539 0
M  V30 2324 H 213.992 -2.07974 5.6259 0
M  V30 2325 H 215.671 -1.88784 6.18845 0
M  V30 2326 N 215.803 -1.52179 -0.40978 0
M  V30 2327 C 217.031 -1.70054 -1.17853 0
M  V30 2328 C 217.446 -0.409735 -1.843 0
M  V30 2329 O 216.803 0.614183 -1.71855 0
M  V30 2330 C 216.854 -2.83568 -2.24213 0
M  V30 2331 O 216.575 -4.0765 -1.60478 0
M  V30 2332 C 218.076 -3.12947 -3.13973 0
M  V30 2333 H 215.296 -0.569917 -0.354169 0
M  V30 2334 H 217.84 -1.98734 -0.482198 0
M  V30 2335 H 215.995 -2.57409 -2.89516 0
M  V30 2336 H 216.409 -4.70899 -2.30986 0
M  V30 2337 H 217.883 -3.95889 -3.84677 0
M  V30 2338 H 218.36 -2.26472 -3.76307 0
M  V30 2339 H 218.966 -3.40868 -2.5434 0
M  V30 2340 N 217.281 0.66697 -1.42791 0
M  V30 2341 C 218.53 1.42278 -1.42968 0
M  V30 2342 C 218.843 1.9553 -0.0524489 0
M  V30 2343 O 220.049 2.71414 0.068363 0
M  V30 2344 C 218.505 2.57418 -2.51524 0
M  V30 2345 C 218.113 2.10832 -3.9529 0
M  V30 2346 C 219.857 3.34878 -2.60877 0
M  V30 2347 C 217.764 3.23101 -4.95338 0
M  V30 2348 H 216.694 0.534533 -0.531781 0
M  V30 2349 H 219.345 0.721302 -1.68729 0
M  V30 2350 H 217.727 3.29971 -2.18941 0
M  V30 2351 H 218.901 1.4538 -4.37266 0
M  V30 2352 H 217.216 1.46289 -3.89857 0
M  V30 2353 H 219.813 4.18505 -3.32802 0
M  V30 2354 H 220.156 3.81993 -1.6549 0
M  V30 2355 H 220.689 2.69398 -2.92693 0
M  V30 2356 H 217.428 2.80969 -5.9223 0
M  V30 2357 H 216.948 3.87309 -4.57987 0
M  V30 2358 H 218.627 3.88447 -5.17415 0
M  V30 2359 N 218.759 1.29093 0.90403 0
M  V30 2360 C 219.722 1.1386 1.98919 0
M  V30 2361 C 220.722 0.0753457 1.60623 0
M  V30 2362 O 221.912 0.321931 1.71199 0
M  V30 2363 C 219.044 0.740198 3.32767 0
M  V30 2364 H 220.237 2.10246 2.13861 0
M  V30 2365 H 217.79 1.12218 1.08797 0
M  V30 2366 H 218.525 -0.223997 3.23525 0
M  V30 2367 H 218.31 1.50838 3.61926 0
M  V30 2368 H 219.8 0.656546 4.12407 0
M  V30 2369 N 220.237 -1.11381 1.11499 0
M  V30 2370 C 221.514 -1.7955 0.775965 0
M  V30 2371 C 221.894 -1.97859 -0.73588 0
M  V30 2372 O 221.242 -1.56376 -1.66609 0
M  V30 2373 C 221.452 -3.13196 1.53977 0
M  V30 2374 C 222.8 -3.88227 1.71944 0
M  V30 2375 O 223.824 -3.22887 1.50407 0
M  V30 2376 O 222.683 -5.05477 2.07738 0
M  V30 2377 H 219.777 -0.777728 0.28119 0
M  V30 2378 H 222.323 -1.18118 1.21845 0
M  V30 2379 H 221.095 -2.95229 2.56818 0
M  V30 2380 H 220.718 -3.82342 1.09088 0
M  V30 2381 N 221.715 -0.905404 -1.28997 0
M  V30 2382 C 222.964 -0.530191 -1.94607 0
M  V30 2383 C 223.277 0.929185 -1.72121 0
M  V30 2384 O 224.483 1.41218 -2.31883 0
M  V30 2385 C 222.939 -0.897333 -3.48534 0
M  V30 2386 C 222.547 -2.37587 -3.79811 0
M  V30 2387 C 224.291 -0.592304 -4.20347 0
M  V30 2388 C 222.198 -2.68357 -5.27009 0
M  V30 2389 H 221.128 -0.194558 -0.728466 0
M  V30 2390 H 223.779 -1.10318 -1.46636 0
M  V30 2391 H 222.161 -0.253214 -3.9519 0
M  V30 2392 H 223.335 -3.06602 -3.43994 0
M  V30 2393 H 221.65 -2.6505 -3.2115 0
M  V30 2394 H 224.247 -0.798975 -5.28697 0
M  V30 2395 H 224.59 0.469474 -4.13644 0
M  V30 2396 H 225.123 -1.19452 -3.79442 0
M  V30 2397 H 221.862 -3.73355 -5.38782 0
M  V30 2398 H 221.382 -2.03971 -5.64053 0
M  V30 2399 H 223.061 -2.54922 -5.94663 0
M  V30 2400 N 223.193 1.4272 -0.668489 0
M  V30 2401 C 224.44 2.01624 -0.18814 0
M  V30 2402 C 224.768 1.5282 1.20317 0
M  V30 2403 O 224.023 0.718323 1.8204 0
M  V30 2404 C 224.322 3.57021 -0.164499 0
M  V30 2405 C 223.988 4.25232 -1.49962 0
M  V30 2406 C 222.65 4.4358 -1.8652 0
M  V30 2407 C 225.002 4.63727 -2.37921 0
M  V30 2408 C 222.33 4.97694 -3.10674 0
M  V30 2409 C 224.682 5.19218 -3.6138 0
M  V30 2410 C 223.346 5.3578 -3.98115 0
M  V30 2411 H 222.616 0.737795 -0.0688454 0
M  V30 2412 H 225.263 1.70991 -0.862225 0
M  V30 2413 H 223.568 3.87285 0.593079 0
M  V30 2414 H 225.265 4.00372 0.224271 0
M  V30 2415 H 221.855 4.11306 -1.20522 0
M  V30 2416 H 226.039 4.4923 -2.10964 0
M  V30 2417 H 221.295 5.08702 -3.39164 0
M  V30 2418 H 225.469 5.4799 -4.29743 0
M  V30 2419 H 223.096 5.77475 -4.94395 0
M  V30 2420 N 224.671 0.411399 1.52136 0
M  V30 2421 C 225.92 -0.165009 2.01024 0
M  V30 2422 C 226.233 -1.4603 1.30133 0
M  V30 2423 O 227.439 -2.1181 1.69849 0
M  V30 2424 C 225.895 -0.344618 3.58246 0
M  V30 2425 C 225.503 0.938716 4.38055 0
M  V30 2426 C 227.247 -0.876195 4.15359 0
M  V30 2427 C 225.154 0.726172 5.86925 0
M  V30 2428 H 224.084 -0.0654407 0.751155 0
M  V30 2429 H 226.735 0.537192 1.75461 0
M  V30 2430 H 225.117 -1.10921 3.80148 0
M  V30 2431 H 226.291 1.70963 4.27912 0
M  V30 2432 H 224.606 1.39688 3.92271 0
M  V30 2433 H 227.203 -1.05128 5.24263 0
M  V30 2434 H 227.546 -1.85152 3.7286 0
M  V30 2435 H 228.079 -0.170607 3.97434 0
M  V30 2436 H 224.818 1.67312 6.33788 0
M  V30 2437 H 224.338 -0.00540283 5.998 0
M  V30 2438 H 226.017 0.369231 6.45946 0
M  V30 2439 N 226.149 -1.5696 0.141893 0
M  V30 2440 C 227.374 -2.00754 -0.520838 0
M  V30 2441 C 227.799 -1.0213 -1.57959 0
M  V30 2442 O 227.157 0.00371324 -1.813 0
M  V30 2443 C 227.205 -3.43318 -1.10294 0
M  V30 2444 O 226.309 -3.47679 -2.21795 0
M  V30 2445 H 225.65 -0.651564 -0.127908 0
M  V30 2446 H 228.18 -2.03221 0.23712 0
M  V30 2447 H 228.19 -3.82012 -1.43287 0
M  V30 2448 H 226.865 -4.14608 -0.327574 0
M  V30 2449 H 225.442 -3.20824 -1.9007 0
M  V30 2450 N 227.627 0.131896 -1.57047 0
M  V30 2451 C 228.873 0.843179 -1.84441 0
M  V30 2452 C 229.206 1.80129 -0.725749 0
M  V30 2453 O 228.481 1.92624 0.269469 0
M  V30 2454 C 228.764 1.60442 -3.22382 0
M  V30 2455 C 228.617 0.666782 -4.4483 0
M  V30 2456 C 229.936 2.56354 -3.5773 0
M  V30 2457 H 227.055 0.305081 -0.670891 0
M  V30 2458 H 229.697 0.107839 -1.89694 0
M  V30 2459 H 227.847 2.23128 -3.18035 0
M  V30 2460 H 229.519 0.0497646 -4.61273 0
M  V30 2461 H 227.762 -0.022609 -4.33794 0
M  V30 2462 H 228.433 1.23579 -5.37989 0
M  V30 2463 H 230.909 2.0378 -3.62785 0
M  V30 2464 H 229.785 3.06657 -4.5525 0
M  V30 2465 H 230.046 3.38419 -2.84473 0
M  V30 2466 N 229.106 1.52395 0.401703 0
M  V30 2467 C 230.355 1.66044 1.14509 0
M  V30 2468 C 230.668 0.400216 1.91462 0
M  V30 2469 O 231.874 0.416632 2.68284 0
M  V30 2470 C 230.33 2.93388 2.0845 0
M  V30 2471 C 229.938 4.26545 1.36978 0
M  V30 2472 C 231.682 3.16402 2.83001 0
M  V30 2473 C 229.589 5.45007 2.29611 0
M  V30 2474 H 228.519 0.618562 0.431158 0
M  V30 2475 H 231.17 1.78886 0.40892 0
M  V30 2476 H 229.552 2.74263 2.8565 0
M  V30 2477 H 230.726 4.56179 0.650916 0
M  V30 2478 H 229.041 4.09692 0.74438 0
M  V30 2479 H 231.638 4.02085 3.52465 0
M  V30 2480 H 231.981 2.30943 3.46368 0
M  V30 2481 H 232.514 3.36034 2.12898 0
M  V30 2482 H 229.253 6.32835 1.70879 0
M  V30 2483 H 228.773 5.19702 2.9945 0
M  V30 2484 H 230.452 5.7838 2.89974 0
M  V30 2485 N 230.584 -0.659388 1.43143 0
M  V30 2486 C 231.514 -1.78422 1.50625 0
M  V30 2487 C 232.495 -1.66216 0.361443 0
M  V30 2488 O 233.68 -1.85404 0.577834 0
M  V30 2489 C 230.81 -3.16815 1.42287 0
M  V30 2490 C 229.764 -3.43777 2.54954 0
M  V30 2491 C 229.09 -4.81905 2.31671 0
M  V30 2492 C 230.39 -3.39134 3.97222 0
M  V30 2493 H 232.084 -1.72417 2.44771 0
M  V30 2494 H 229.63 -0.828084 1.17808 0
M  V30 2495 H 231.583 -3.95253 1.46127 0
M  V30 2496 H 230.307 -3.23534 0.446435 0
M  V30 2497 H 228.966 -2.67707 2.50457 0
M  V30 2498 H 228.614 -4.85294 1.32284 0
M  V30 2499 H 228.314 -5.00906 3.07192 0
M  V30 2500 H 229.838 -5.62609 2.37284 0
M  V30 2501 H 231.252 -4.07518 4.03239 0
M  V30 2502 H 229.649 -3.69671 4.72719 0
M  V30 2503 H 230.719 -2.37426 4.22797 0
M  V30 2504 N 232.062 -1.29571 -0.897171 0
M  V30 2505 C 233.292 -1.20408 -1.67886 0
M  V30 2506 C 233.7 0.237429 -1.87704 0
M  V30 2507 O 233.043 1.17048 -1.41582 0
M  V30 2508 C 233.105 -1.84887 -3.08314 0
M  V30 2509 C 232.769 -3.34189 -3.11716 0
M  V30 2510 C 233.766 -4.30374 -2.91675 0
M  V30 2511 C 231.451 -3.75431 -3.33701 0
M  V30 2512 C 233.445 -5.65776 -2.93557 0
M  V30 2513 C 231.132 -5.10955 -3.35214 0
M  V30 2514 C 232.13 -6.05938 -3.15164 0
M  V30 2515 O 231.818 -7.38987 -3.1647 0
M  V30 2516 H 231.55 -0.418289 -0.531046 0
M  V30 2517 H 234.104 -1.71514 -1.13014 0
M  V30 2518 H 232.334 -1.28295 -3.64798 0
M  V30 2519 H 234.023 -1.70011 -3.6858 0
M  V30 2520 H 234.789 -3.99844 -2.74499 0
M  V30 2521 H 230.668 -3.01953 -3.48347 0
M  V30 2522 H 234.212 -6.39889 -2.77826 0
M  V30 2523 H 230.109 -5.4113 -3.51922 0
M  V30 2524 H 230.877 -7.47823 -3.3272 0
M  V30 2525 N 233.54 1.10788 -1.12088 0
M  V30 2526 C 234.787 1.82671 -0.873931 0
M  V30 2527 C 235.115 1.85004 0.600311 0
M  V30 2528 O 234.37 1.30365 1.45957 0
M  V30 2529 C 234.669 3.29294 -1.38926 0
M  V30 2530 C 234.335 3.47113 -2.87791 0
M  V30 2531 C 232.997 3.51684 -3.28439 0
M  V30 2532 C 235.349 3.52808 -3.83635 0
M  V30 2533 C 232.677 3.59513 -4.63646 0
M  V30 2534 C 235.029 3.62169 -5.18668 0
M  V30 2535 C 233.693 3.65003 -5.58864 0
M  V30 2536 H 232.963 0.668441 -0.319794 0
M  V30 2537 H 235.61 1.30613 -1.40045 0
M  V30 2538 H 233.915 3.83894 -0.783122 0
M  V30 2539 H 235.612 3.83416 -1.17443 0
M  V30 2540 H 232.202 3.4423 -2.5535 0
M  V30 2541 H 236.386 3.4853 -3.53328 0
M  V30 2542 H 231.642 3.59987 -4.94185 0
M  V30 2543 H 235.816 3.6552 -5.92763 0
M  V30 2544 H 233.443 3.70822 -6.63623 0
M  V30 2545 N 235.018 0.912232 1.28515 0
M  V30 2546 C 236.243 0.559774 1.99703 0
M  V30 2547 C 236.668 -0.851393 1.67729 0
M  V30 2548 O 236.026 -1.56875 0.908834 0
M  V30 2549 C 236.074 0.773874 3.52198 0
M  V30 2550 O 235.178 -0.167842 4.12058 0
M  V30 2551 H 234.519 0.21723 0.627461 0
M  V30 2552 H 237.049 1.22725 1.63706 0
M  V30 2553 H 237.059 0.683386 4.02236 0
M  V30 2554 H 235.734 1.80261 3.74805 0
M  V30 2555 H 234.311 -0.0287509 3.72889 0
M  V30 2556 N 236.496 -1.42363 0.676048 0
M  V30 2557 C 237.426 -2.33497 0.0124832 0
M  V30 2558 C 238.407 -1.50748 -0.787981 0
M  V30 2559 O 239.592 -1.79346 -0.744884 0
M  V30 2560 C 236.722 -3.34377 -0.938582 0
M  V30 2561 C 235.676 -4.27289 -0.246622 0
M  V30 2562 C 235.002 -5.18386 -1.31071 0
M  V30 2563 C 236.302 -5.14916 0.875125 0
M  V30 2564 H 237.996 -2.89233 0.773593 0
M  V30 2565 H 235.542 -1.39073 0.37346 0
M  V30 2566 H 237.495 -3.97044 -1.41188 0
M  V30 2567 H 236.219 -2.76947 -1.73113 0
M  V30 2568 H 234.878 -3.66018 0.206456 0
M  V30 2569 H 234.526 -4.57282 -2.09528 0
M  V30 2570 H 234.226 -5.81378 -0.852839 0
M  V30 2571 H 235.75 -5.83929 -1.78492 0
M  V30 2572 H 237.164 -5.71262 0.482983 0
M  V30 2573 H 235.561 -5.86747 1.25887 0
M  V30 2574 H 236.631 -4.53242 1.72335 0
M  V30 2575 N 237.974 -0.419461 -1.51915 0
M  V30 2576 C 238.922 0.415502 -2.28859 0
M  V30 2577 C 239.916 1.03674 -1.3397 0
M  V30 2578 O 241.122 0.973757 -1.51387 0
M  V30 2579 H 237.497 0.152786 -0.736315 0
M  V30 2580 H 239.468 -0.254531 -2.97312 0
M  V30 2581 C 238.217 1.51425 -3.12995 0
M  V30 2582 H 237.54 1.04556 -3.85886 0
M  V30 2583 H 238.98 2.07208 -3.6992 0
M  V30 2584 C 237.439 2.48745 -2.27217 0
M  V30 2585 O 237.969 3.52871 -1.9195 0
M  V30 2586 N 236.175 2.19202 -1.90785 0
M  V30 2587 H 235.722 1.34556 -2.19664 0
M  V30 2588 H 235.68 2.84561 -1.33687 0
M  V30 2589 N 239.452 1.56882 -0.150215 0
M  V30 2590 C 240.677 2.01027 0.510184 0
M  V30 2591 C 241.102 1.02966 1.57415 0
M  V30 2592 O 240.46 0.00590158 1.81299 0
M  V30 2593 C 240.508 3.43899 1.08472 0
M  V30 2594 O 239.612 3.4885 2.19948 0
M  V30 2595 H 238.953 0.652233 0.124451 0
M  V30 2596 H 241.483 2.03093 -0.247894 0
M  V30 2597 H 241.493 3.82766 1.41259 0
M  V30 2598 H 240.168 4.14776 0.305582 0
M  V30 2599 H 238.745 3.21827 1.88366 0
M  V30 2600 N 240.93 -0.123565 1.57115 0
M  V30 2601 C 242.178 -0.83051 1.84247 0
M  V30 2602 C 242.499 -1.80629 0.73471 0
M  V30 2603 O 241.769 -1.94403 -0.241688 0
M  V30 2604 H 240.349 -0.309694 0.679778 0
M  V30 2605 H 243.011 -0.111976 1.94578 0
M  V30 2606 H 242.107 -1.37852 2.80006 0
M  V30 2607 N 242.408 -1.52605 -0.393616 0
M  V30 2608 C 243.371 -1.76415 -1.46323 0
M  V30 2609 C 244.371 -0.634126 -1.47768 0
M  V30 2610 O 245.561 -0.902142 -1.4902 0
M  V30 2611 C 242.693 -1.8607 -2.85641 0
M  V30 2612 H 243.886 -2.71916 -1.26498 0
M  V30 2613 H 241.439 -1.43257 -0.625073 0
M  V30 2614 H 242.174 -0.925378 -3.10817 0
M  V30 2615 H 241.959 -2.68235 -2.85993 0
M  V30 2616 H 243.449 -2.06179 -3.63153 0
M  V30 2617 N 243.887 0.651787 -1.4349 0
M  V30 2618 C 244.817 1.77621 -1.51569 0
M  V30 2619 C 245.798 1.66022 -0.370253 0
M  V30 2620 O 246.983 1.85095 -0.587658 0
M  V30 2621 C 244.113 3.16056 -1.43966 0
M  V30 2622 C 243.067 3.4242 -2.56774 0
M  V30 2623 C 242.393 4.8067 -2.34223 0
M  V30 2624 C 243.693 3.37023 -3.99015 0
M  V30 2625 H 245.387 1.71117 -2.45681 0
M  V30 2626 H 242.933 0.821825 -1.18246 0
M  V30 2627 H 244.886 3.94472 -1.48221 0
M  V30 2628 H 243.61 3.23293 -0.463586 0
M  V30 2629 H 242.269 2.66375 -2.51873 0
M  V30 2630 H 241.917 4.84585 -1.34856 0
M  V30 2631 H 241.617 4.9927 -3.09844 0
M  V30 2632 H 243.141 5.61342 -2.40265 0
M  V30 2633 H 244.555 4.05374 -4.05395 0
M  V30 2634 H 242.952 3.67159 -4.74673 0
M  V30 2635 H 244.022 2.3518 -4.2405 0
M  V30 2636 N 245.365 1.30045 0.890287 0
M  V30 2637 C 246.313 1.15873 2.01683 0
M  V30 2638 C 247.307 0.0719403 1.69247 0
M  V30 2639 O 248.513 0.232414 1.78493 0
M  V30 2640 H 244.888 0.358203 0.661207 0
M  V30 2641 H 246.859 2.11229 2.10772 0
M  V30 2642 C 245.608 0.861842 3.36849 0
M  V30 2643 H 244.931 1.69016 3.62317 0
M  V30 2644 H 246.371 0.802762 4.16331 0
M  V30 2645 C 244.83 -0.435132 3.34078 0
M  V30 2646 O 245.36 -1.4583 3.74295 0
M  V30 2647 N 243.566 -0.444377 2.87182 0
M  V30 2648 H 243.113 0.388723 2.5465 0
M  V30 2649 H 243.071 -1.31213 2.85711 0
M  V30 2650 N 246.843 -1.10192 1.12674 0
M  V30 2651 C 247.753 -2.20172 0.810026 0
M  V30 2652 C 248.769 -1.72821 -0.202188 0
M  V30 2653 O 249.945 -2.01369 -0.0351691 0
M  V30 2654 C 247.01 -3.45631 0.272007 0
M  V30 2655 C 246.071 -4.07704 1.34447 0
M  V30 2656 C 245.304 -5.27175 0.832029 0
M  V30 2657 O 245.527 -5.69425 -0.333284 0
M  V30 2658 O 244.461 -5.80168 1.60277 0
M  V30 2659 H 248.287 -2.49701 1.72867 0
M  V30 2660 H 245.872 -1.18977 0.903597 0
M  V30 2661 H 247.754 -4.21394 -0.0230219 0
M  V30 2662 H 246.429 -3.17723 -0.619164 0
M  V30 2663 H 245.336 -3.33614 1.6927 0
M  V30 2664 H 246.669 -4.3982 2.2095 0
M  V30 2665 N 248.321 -0.919034 -1.28029 0
M  V30 2666 C 249.546 -0.570357 -1.99403 0
M  V30 2667 C 249.971 0.842486 -1.68178 0
M  V30 2668 O 249.329 1.56391 -0.917141 0
M  V30 2669 C 249.377 -0.792541 -3.51783 0
M  V30 2670 O 248.481 0.145988 -4.12142 0
M  V30 2671 H 247.822 -0.220555 -0.6263 0
M  V30 2672 H 250.352 -1.23592 -1.63053 0
M  V30 2673 H 250.362 -0.704708 -4.01868 0
M  V30 2674 H 249.037 -1.82247 -3.73844 0
M  V30 2675 H 247.614 0.00897528 -3.72899 0
M  V30 2676 N 249.799 1.42003 -0.683588 0
M  V30 2677 C 251.048 2.00638 -0.206681 0
M  V30 2678 C 251.361 1.5472 1.19671 0
M  V30 2679 O 252.567 2.05833 1.77045 0
M  V30 2680 C 251.023 3.58487 -0.318632 0
M  V30 2681 C 250.631 4.1339 -1.72663 0
M  V30 2682 C 252.375 4.24384 0.0991141 0
M  V30 2683 C 250.282 5.63633 -1.79087 0
M  V30 2684 H 249.212 0.750408 -0.0735107 0
M  V30 2685 H 251.863 1.62624 -0.850048 0
M  V30 2686 H 250.245 3.94047 0.392781 0
M  V30 2687 H 251.419 3.89273 -2.46583 0
M  V30 2688 H 249.734 3.59976 -2.09299 0
M  V30 2689 H 252.331 5.34652 0.0713833 0
M  V30 2690 H 252.674 4.00505 1.13586 0
M  V30 2691 H 253.207 3.93816 -0.561599 0
M  V30 2692 H 249.946 5.92323 -2.80774 0
M  V30 2693 H 249.466 5.89714 -1.09535 0
M  V30 2694 H 251.145 6.28201 -1.5483 0
M  V30 2695 N 251.277 0.427512 1.51691 0
M  V30 2696 C 252.523 -0.142439 2.02299 0
M  V30 2697 C 252.856 -1.43214 1.31162 0
M  V30 2698 O 252.131 -1.89833 0.423511 0
M  V30 2699 C 252.414 -0.371301 3.58181 0
M  V30 2700 C 252.267 0.936358 4.39946 0
M  V30 2701 C 253.586 -1.14542 4.24933 0
M  V30 2702 H 250.705 -0.0502937 0.735282 0
M  V30 2703 H 253.347 0.564584 1.81418 0
M  V30 2704 H 251.497 -0.973559 3.76104 0
M  V30 2705 H 253.169 1.57184 4.33694 0
M  V30 2706 H 251.412 1.5432 4.05423 0
M  V30 2707 H 252.083 0.730388 5.47147 0
M  V30 2708 H 254.559 -0.635362 4.11221 0
M  V30 2709 H 253.435 -1.27431 5.33903 0
M  V30 2710 H 253.696 -2.17093 3.85127 0
M  V30 2711 N 252.755 -1.56801 0.158532 0
M  V30 2712 C 253.685 -2.20347 -0.772609 0
M  V30 2713 C 254.666 -1.15518 -1.24859 0
M  V30 2714 O 255.851 -1.43902 -1.30406 0
M  V30 2715 C 252.981 -2.83417 -2.00729 0
M  V30 2716 C 251.935 -3.94174 -1.66765 0
M  V30 2717 C 251.261 -4.44233 -2.97592 0
M  V30 2718 C 252.561 -5.14392 -0.905447 0
M  V30 2719 H 254.255 -2.98413 -0.242959 0
M  V30 2720 H 251.801 -1.43537 -0.115419 0
M  V30 2721 H 253.754 -3.26543 -2.6636 0
M  V30 2722 H 252.478 -2.02701 -2.56086 0
M  V30 2723 H 251.137 -3.51684 -1.03508 0
M  V30 2724 H 250.785 -3.60325 -3.50963 0
M  V30 2725 H 250.485 -5.18945 -2.75626 0
M  V30 2726 H 252.009 -4.90037 -3.64274 0
M  V30 2727 H 253.423 -5.5429 -1.46408 0
M  V30 2728 H 251.82 -5.9494 -0.7853 0
M  V30 2729 H 252.89 -4.84795 0.100668 0
M  V30 2730 N 254.233 0.115231 -1.57178 0
M  V30 2731 C 255.18 1.14115 -2.00615 0
M  V30 2732 C 256.15 1.40939 -0.878941 0
M  V30 2733 O 257.335 1.52741 -1.14345 0
M  V30 2734 C 254.475 2.46156 -2.4187 0
M  V30 2735 C 253.588 2.26236 -3.68024 0
M  V30 2736 C 252.723 3.51534 -3.98243 0
M  V30 2737 C 251.762 3.26787 -5.17568 0
M  V30 2738 N 250.899 4.44298 -5.43639 0
M  V30 2739 H 255.739 0.763743 -2.88047 0
M  V30 2740 H 253.276 0.365615 -1.42484 0
M  V30 2741 H 255.234 3.23189 -2.63827 0
M  V30 2742 H 253.864 2.81783 -1.57475 0
M  V30 2743 H 252.916 1.40102 -3.5366 0
M  V30 2744 H 254.228 2.03929 -4.55208 0
M  V30 2745 H 253.382 4.36984 -4.20868 0
M  V30 2746 H 252.121 3.76876 -3.09541 0
M  V30 2747 H 251.126 2.39729 -4.94783 0
M  V30 2748 H 252.351 3.02812 -6.0785 0
M  V30 2749 H 250.297 4.69754 -4.57895 0
M  V30 2750 H 250.214 4.25109 -6.25154 0
M  V30 2751 H 251.482 5.3087 -5.70786 0
M  V30 2752 N 255.711 1.52812 0.385517 0
M  V30 2753 C 256.941 1.71658 1.14966 0
M  V30 2754 C 257.349 0.436253 1.84102 0
M  V30 2755 O 256.692 -0.599313 1.73649 0
M  V30 2756 C 256.754 2.81309 2.23843 0
M  V30 2757 C 256.418 4.22313 1.74644 0
M  V30 2758 C 257.415 5.05352 1.22129 0
M  V30 2759 C 255.1 4.68648 1.80761 0
M  V30 2760 C 257.094 6.32807 0.763838 0
M  V30 2761 C 254.781 5.96086 1.34627 0
M  V30 2762 C 255.779 6.77996 0.825264 0
M  V30 2763 O 255.467 8.03045 0.370669 0
M  V30 2764 H 255.199 0.578022 0.350523 0
M  V30 2765 H 257.753 2.00263 0.456509 0
M  V30 2766 H 255.983 2.48133 2.96592 0
M  V30 2767 H 257.672 2.88524 2.85497 0
M  V30 2768 H 258.438 4.70736 1.16758 0
M  V30 2769 H 254.317 4.04979 2.20256 0
M  V30 2770 H 257.861 6.96689 0.356494 0
M  V30 2771 H 253.758 6.30205 1.39686 0
M  V30 2772 H 254.526 8.17021 0.491829 0
M  V30 2773 N 257.189 -0.644168 1.43834 0
M  V30 2774 C 258.136 -1.75671 1.49694 0
M  V30 2775 C 259.106 -1.6246 0.345809 0
M  V30 2776 O 260.291 -1.82573 0.554234 0
M  V30 2777 C 257.431 -3.13867 1.43463 0
M  V30 2778 C 256.544 -3.38147 2.6885 0
M  V30 2779 C 255.679 -4.66241 2.54544 0
M  V30 2780 C 254.718 -4.83657 3.75157 0
M  V30 2781 N 253.855 -6.03016 3.59605 0
M  V30 2782 H 258.695 -1.69998 2.44754 0
M  V30 2783 H 256.232 -0.829458 1.21484 0
M  V30 2784 H 258.19 -3.9377 1.37843 0
M  V30 2785 H 256.82 -3.18588 0.519783 0
M  V30 2786 H 255.872 -2.52276 2.84712 0
M  V30 2787 H 257.184 -3.46899 3.58417 0
M  V30 2788 H 256.338 -5.54285 2.46683 0
M  V30 2789 H 255.077 -4.59826 1.62516 0
M  V30 2790 H 254.082 -3.94046 3.83416 0
M  V30 2791 H 255.307 -4.91896 4.68204 0
M  V30 2792 H 253.253 -5.97715 2.7032 0
M  V30 2793 H 253.17 -6.12766 4.42779 0
M  V30 2794 H 254.438 -6.93657 3.55613 0
M  V30 2795 N 258.668 -1.30515 -0.883378 0
M  V30 2796 C 259.616 -1.16941 -2.01066 0
M  V30 2797 C 260.61 -0.0809148 -1.69207 0
M  V30 2798 O 261.816 -0.241877 -1.78367 0
M  V30 2799 H 258.191 -0.361705 -0.659298 0
M  V30 2800 H 260.162 -2.12344 -2.09649 0
M  V30 2801 C 258.911 -0.879694 -3.36388 0
M  V30 2802 H 258.234 -1.70936 -3.61415 0
M  V30 2803 H 259.674 -0.82483 -4.159 0
M  V30 2804 C 258.133 0.417409 -3.34304 0
M  V30 2805 O 258.663 1.43843 -3.75063 0
M  V30 2806 N 256.869 0.429141 -2.87414 0
M  V30 2807 H 256.416 -0.402222 -2.5444 0
M  V30 2808 H 256.374 1.29696 -2.86403 0
M  V30 2809 N 260.146 1.09593 -1.13257 0
M  V30 2810 C 261.076 2.18214 -0.830946 0
M  V30 2811 C 262.057 1.68812 0.208966 0
M  V30 2812 O 263.242 1.9408 0.0682666 0
M  V30 2813 C 260.372 3.46051 -0.294296 0
M  V30 2814 C 259.326 4.08778 -1.26826 0
M  V30 2815 C 258.652 5.31419 -0.591449 0
M  V30 2816 C 259.952 4.51476 -2.62615 0
M  V30 2817 H 261.646 2.43703 -1.73923 0
M  V30 2818 H 259.192 1.17128 -0.837675 0
M  V30 2819 H 261.145 4.2134 -0.0709606 0
M  V30 2820 H 259.869 3.20079 0.649366 0
M  V30 2821 H 258.528 3.35505 -1.47756 0
M  V30 2822 H 258.176 5.01727 0.357633 0
M  V30 2823 H 257.876 5.74341 -1.24123 0
M  V30 2824 H 259.4 6.09433 -0.377355 0
M  V30 2825 H 260.814 5.17999 -2.45663 0
M  V30 2826 H 259.211 5.05277 -3.23752 0
M  V30 2827 H 260.281 3.63962 -3.20406 0
M  V30 2828 N 261.624 0.925811 1.2754 0
M  V30 2829 C 262.854 0.580666 1.98272 0
M  V30 2830 C 263.262 -0.845207 1.69272 0
M  V30 2831 O 262.605 -1.57306 0.948707 0
M  V30 2832 C 262.667 0.724418 3.52126 0
M  V30 2833 C 262.331 2.12206 4.04744 0
M  V30 2834 C 263.328 3.09604 4.17662 0
M  V30 2835 C 261.013 2.4385 4.39138 0
M  V30 2836 C 263.007 4.36755 4.64246 0
M  V30 2837 C 260.694 3.71237 4.85414 0
M  V30 2838 C 261.692 4.67503 4.97926 0
M  V30 2839 O 261.38 5.92624 5.43187 0
M  V30 2840 H 261.112 0.218987 0.639547 0
M  V30 2841 H 263.666 1.24452 1.63404 0
M  V30 2842 H 261.896 0.0034663 3.867 0
M  V30 2843 H 263.585 0.384607 4.04074 0
M  V30 2844 H 264.351 2.86478 3.91351 0
M  V30 2845 H 260.23 1.69665 4.28643 0
M  V30 2846 H 263.774 5.11898 4.73927 0
M  V30 2847 H 259.671 3.94182 5.11166 0
M  V30 2848 H 260.439 5.95585 5.61445 0
M  V30 2849 N 263.102 -1.41638 0.69111 0
M  V30 2850 C 264.518 -1.55435 0.362224 0
M  V30 2851 C 264.718 -1.66754 -1.13117 0
M  V30 2852 O 263.774 -1.64348 -1.91692 0
M  V30 2853 C 265.087 -2.79588 1.10684 0
M  V30 2854 C 266.635 -2.9338 1.09075 0
M  V30 2855 C 267.11 -4.20414 1.81703 0
M  V30 2856 N 268.601 -4.27362 1.7865 0
M  V30 2857 C 269.336 -5.24507 2.31689 0
M  V30 2858 N 268.832 -6.27708 2.93179 0
M  V30 2859 N 270.625 -5.16416 2.2197 0
M  V30 2860 H 262.776 -1.32536 1.65976 0
M  V30 2861 H 265.039 -0.639115 0.700168 0
M  V30 2862 H 264.745 -2.77419 2.16175 0
M  V30 2863 H 264.619 -3.70973 0.682545 0
M  V30 2864 H 267.006 -2.95067 0.0441238 0
M  V30 2865 H 267.087 -2.0318 1.55407 0
M  V30 2866 H 266.731 -4.19488 2.86343 0
M  V30 2867 H 266.661 -5.09578 1.32808 0
M  V30 2868 H 269.152 -3.53415 1.33815 0
M  V30 2869 H 269.465 -6.98217 3.31229 0
M  V30 2870 H 267.81 -6.28223 2.97255 0
M  V30 2871 H 271.001 -4.34716 1.73607 0
M  V30 2872 H 271.174 -5.91958 2.63609 0
M  V30 2873 N 264.58 -0.43555 -1.51462 0
M  V30 2874 C 265.51 0.367376 -2.30592 0
M  V30 2875 C 266.491 1.02263 -1.35928 0
M  V30 2876 O 267.676 1.02661 -1.64847 0
M  V30 2877 C 264.806 1.46983 -3.14664 0
M  V30 2878 C 263.76 0.938161 -4.17591 0
M  V30 2879 C 263.086 2.13622 -4.90173 0
M  V30 2880 C 264.386 -0.0261621 -5.22293 0
M  V30 2881 H 266.08 -0.292969 -2.97963 0
M  V30 2882 H 263.626 -0.14234 -1.43295 0
M  V30 2883 H 265.579 2.03873 -3.688 0
M  V30 2884 H 264.303 2.15843 -2.4511 0
M  V30 2885 H 262.962 0.391481 -3.64504 0
M  V30 2886 H 262.61 2.81098 -4.17124 0
M  V30 2887 H 262.31 1.78688 -5.59772 0
M  V30 2888 H 263.834 2.7107 -5.47132 0
M  V30 2889 H 265.248 0.452384 -5.71512 0
M  V30 2890 H 263.645 -0.287992 -5.99409 0
M  V30 2891 H 264.715 -0.963391 -4.75233 0
M  V30 2892 N 266.058 1.56714 -0.166846 0
M  V30 2893 C 267.288 2.00828 0.48494 0
M  V30 2894 C 267.696 1.04612 1.57648 0
M  V30 2895 O 267.039 0.0383201 1.8366 0
M  V30 2896 C 267.101 3.4137 1.12723 0
M  V30 2897 C 266.765 4.56654 0.177886 0
M  V30 2898 C 267.762 5.16402 -0.60207 0
M  V30 2899 C 265.447 5.02244 0.0750139 0
M  V30 2900 C 267.441 6.20167 -1.47215 0
M  V30 2901 C 265.128 6.05859 -0.798649 0
M  V30 2902 C 266.126 6.64691 -1.57082 0
M  V30 2903 O 265.814 7.66297 -2.42989 0
M  V30 2904 H 265.546 0.663587 0.128953 0
M  V30 2905 H 268.1 2.03692 -0.264365 0
M  V30 2906 H 266.33 3.35406 1.92457 0
M  V30 2907 H 268.019 3.69466 1.68076 0
M  V30 2908 H 268.785 4.82065 -0.53274 0
M  V30 2909 H 264.664 4.56167 0.665812 0
M  V30 2910 H 268.208 6.66016 -2.07531 0
M  V30 2911 H 264.105 6.39621 -0.869199 0
M  V30 2912 H 264.873 7.83601 -2.36455 0
M  V30 2913 N 267.536 -0.106894 1.57237 0
M  V30 2914 C 268.813 -0.843526 1.76477 0
M  V30 2915 C 269.193 -1.97499 0.745464 0
M  V30 2916 O 268.541 -2.27357 -0.228306 0
M  V30 2917 C 268.751 -1.34903 3.21873 0
M  V30 2918 C 270.099 -1.79654 3.8472 0
M  V30 2919 O 271.123 -1.44554 3.2555 0
M  V30 2920 O 269.982 -2.44515 4.88748 0
M  V30 2921 H 267.076 -0.401468 0.723016 0
M  V30 2922 H 269.622 -0.0896927 1.69463 0
M  V30 2923 H 268.394 -0.53781 3.87586 0
M  V30 2924 H 268.017 -2.16522 3.33473 0
M  V30 2925 N 269.014 -1.53014 -0.377408 0
M  V30 2926 C 270.242 -1.72515 -1.14219 0
M  V30 2927 C 270.657 -0.448735 -1.8339 0
M  V30 2928 O 270.014 0.577592 -1.73119 0
M  V30 2929 C 270.065 -2.8826 -2.18148 0
M  V30 2930 O 269.786 -4.10962 -1.51795 0
M  V30 2931 C 271.287 -3.19536 -3.07264 0
M  V30 2932 H 268.507 -0.577301 -0.342001 0
M  V30 2933 H 271.051 -1.99712 -0.439935 0
M  V30 2934 H 269.206 -2.63492 -2.83991 0
M  V30 2935 H 269.62 -4.75693 -2.20945 0
M  V30 2936 H 271.094 -4.03959 -3.76193 0
M  V30 2937 H 271.571 -2.34403 -3.71419 0
M  V30 2938 H 272.177 -3.46186 -2.47053 0
M  V30 2939 N 270.492 0.636531 -1.44174 0
M  V30 2940 C 271.741 1.39213 -1.45954 0
M  V30 2941 C 272.054 1.95374 -0.0939119 0
M  V30 2942 O 273.26 2.71498 0.0107767 0
M  V30 2943 C 271.716 2.52025 -2.56927 0
M  V30 2944 C 271.324 2.024 -3.99673 0
M  V30 2945 C 273.068 3.29269 -2.67922 0
M  V30 2946 C 270.975 3.12521 -5.0208 0
M  V30 2947 H 269.905 0.523132 -0.542999 0
M  V30 2948 H 272.556 0.685349 -1.70221 0
M  V30 2949 H 270.938 3.25253 -2.25891 0
M  V30 2950 H 272.112 1.36073 -4.40251 0
M  V30 2951 H 270.427 1.37987 -3.92872 0
M  V30 2952 H 273.024 4.11352 -3.41605 0
M  V30 2953 H 273.367 3.78397 -1.73555 0
M  V30 2954 H 273.9 2.63129 -2.98342 0
M  V30 2955 H 270.639 2.68343 -5.98057 0
M  V30 2956 H 270.159 3.77507 -4.66099 0
M  V30 2957 H 271.838 3.77385 -5.25538 0
M  V30 2958 N 271.97 1.30982 0.876444 0
M  V30 2959 C 273.195 1.23373 1.66715 0
M  V30 2960 C 273.62 -0.19885 1.87046 0
M  V30 2961 O 272.978 -1.1427 1.40756 0
M  V30 2962 C 273.026 1.97644 3.01611 0
M  V30 2963 O 272.13 1.30935 3.91062 0
M  V30 2964 H 271.471 0.426279 0.509099 0
M  V30 2965 H 274.001 1.72944 1.09323 0
M  V30 2966 H 274.011 2.06992 3.51594 0
M  V30 2967 H 272.686 3.01829 2.86133 0
M  V30 2968 H 271.263 1.29996 3.49507 0
M  V30 2969 N 273.449 -1.08991 1.13837 0
M  V30 2970 C 274.397 -2.17841 0.815347 0
M  V30 2971 C 275.391 -1.68164 -0.204233 0
M  V30 2972 O 276.597 -1.79897 -0.0609304 0
M  V30 2973 H 272.972 -0.710654 0.245915 0
M  V30 2974 H 274.943 -2.42315 1.74143 0
M  V30 2975 C 273.692 -3.46381 0.302614 0
M  V30 2976 H 273.015 -3.84979 1.0785 0
M  V30 2977 H 274.455 -4.23844 0.115074 0
M  V30 2978 C 272.914 -3.22556 -0.972591 0
M  V30 2979 O 273.444 -3.45599 -2.04754 0
M  V30 2980 N 271.65 -2.76134 -0.905455 0
M  V30 2981 H 271.197 -2.57582 -0.0305421 0
M  V30 2982 H 271.155 -2.60571 -1.75926 0
M  V30 2983 N 274.927 -0.932562 -1.27047 0
M  V30 2984 C 275.859 -0.392734 -2.2581 0
M  V30 2985 C 276.872 0.479241 -1.55586 0
M  V30 2986 O 278.061 0.291078 -1.76111 0
M  V30 2987 C 275.161 0.455456 -3.35826 0
M  V30 2988 C 274.334 -0.398355 -4.35582 0
M  V30 2989 C 273.393 0.387985 -5.24768 0
M  V30 2990 O 272.419 -0.206003 -5.68827 0
M  V30 2991 N 273.621 1.68664 -5.55457 0
M  V30 2992 H 276.386 -1.24173 -2.72766 0
M  V30 2993 H 273.947 -0.800511 -1.40725 0
M  V30 2994 H 275.939 0.988692 -3.92437 0
M  V30 2995 H 274.509 1.20522 -2.88432 0
M  V30 2996 H 273.729 -1.11286 -3.78165 0
M  V30 2997 H 275.017 -0.981889 -4.99236 0
M  V30 2998 H 274.415 2.19147 -5.21528 0
M  V30 2999 H 272.972 2.1663 -6.14748 0
M  V30 3000 N 276.405 1.4127 -0.698611 0
M  V30 3001 C 277.352 2.30773 -0.0352094 0
M  V30 3002 C 278.322 1.47273 0.768111 0
M  V30 3003 O 279.507 1.76053 0.735524 0
M  V30 3004 C 276.647 3.33346 0.893 0
M  V30 3005 C 275.76 4.31924 0.0809695 0
M  V30 3006 C 274.895 5.21566 1.0071 0
M  V30 3007 C 273.934 6.11811 0.188155 0
M  V30 3008 N 273.071 6.93926 1.06825 0
M  V30 3009 H 277.911 2.86943 -0.804207 0
M  V30 3010 H 275.448 1.4132 -0.408294 0
M  V30 3011 H 277.406 3.91368 1.44523 0
M  V30 3012 H 276.036 2.78719 1.62836 0
M  V30 3013 H 275.088 3.75825 -0.588224 0
M  V30 3014 H 276.4 4.95716 -0.553801 0
M  V30 3015 H 275.554 5.84437 1.62845 0
M  V30 3016 H 274.293 4.58008 1.67572 0
M  V30 3017 H 273.298 5.47986 -0.446254 0
M  V30 3018 H 274.523 6.77425 -0.476716 0
M  V30 3019 H 272.469 6.32973 1.72283 0
M  V30 3020 H 272.386 7.54416 0.489123 0
M  V30 3021 H 273.654 7.61262 1.67632 0
M  V30 3022 N 277.883 0.443576 1.51229 0
M  V30 3023 C 278.815 -0.400608 2.25672 0
M  V30 3024 C 279.828 -0.980945 1.29928 0
M  V30 3025 O 281.017 -0.874024 1.55638 0
M  V30 3026 C 278.117 -1.57304 3.00181 0
M  V30 3027 C 277.29 -1.11046 4.23069 0
M  V30 3028 C 276.349 -2.15374 4.80105 0
M  V30 3029 O 275.375 -1.74554 5.41774 0
M  V30 3030 N 276.577 -3.47922 4.64683 0
M  V30 3031 H 279.342 0.23745 2.98758 0
M  V30 3032 H 276.903 0.272809 1.59585 0
M  V30 3033 H 278.895 -2.26733 3.35223 0
M  V30 3034 H 277.465 -2.11632 2.30066 0
M  V30 3035 H 276.685 -0.243019 3.9345 0
M  V30 3036 H 277.973 -0.778888 5.02803 0
M  V30 3037 H 277.371 -3.83815 4.15575 0
M  V30 3038 H 275.928 -4.13228 5.0407 0
M  V30 3039 N 279.361 -1.56624 0.175154 0
M  V30 3040 C 280.608 -1.96999 -0.468811 0
M  V30 3041 C 280.936 -1.06129 -1.62994 0
M  V30 3042 O 280.191 -0.0961771 -1.95464 0
M  V30 3043 C 280.49 -3.43419 -0.989864 0
M  V30 3044 C 280.156 -4.50866 0.0557687 0
M  V30 3045 C 278.818 -4.79975 0.343134 0
M  V30 3046 C 281.17 -5.15551 0.765308 0
M  V30 3047 C 278.498 -5.71066 1.34536 0
M  V30 3048 C 280.85 -6.07724 1.75654 0
M  V30 3049 C 279.514 -6.35199 2.05132 0
M  V30 3050 H 278.784 -0.720869 -0.17155 0
M  V30 3051 H 281.431 -1.89616 0.267924 0
M  V30 3052 H 279.736 -3.47772 -1.80449 0
M  V30 3053 H 281.433 -3.72002 -1.49719 0
M  V30 3054 H 278.023 -4.28229 -0.178381 0
M  V30 3055 H 282.207 -4.9317 0.556513 0
M  V30 3056 H 277.463 -5.90635 1.57988 0
M  V30 3057 H 281.637 -6.56912 2.31169 0
M  V30 3058 H 279.264 -7.05584 2.8294 0
M  V30 3059 N 280.839 0.0985539 -1.57292 0
M  V30 3060 C 281.786 1.11981 -2.01814 0
M  V30 3061 C 282.756 1.39999 -0.89384 0
M  V30 3062 O 283.941 1.5152 -1.15958 0
M  V30 3063 C 281.081 2.43577 -2.44467 0
M  V30 3064 C 280.194 2.2232 -3.70402 0
M  V30 3065 C 279.329 3.4729 -4.01949 0
M  V30 3066 C 278.368 3.2128 -5.21005 0
M  V30 3067 N 277.505 4.38507 -5.48321 0
M  V30 3068 H 282.345 0.733149 -2.88841 0
M  V30 3069 H 279.882 0.350482 -1.42864 0
M  V30 3070 H 281.84 3.20373 -2.6724 0
M  V30 3071 H 280.47 2.80097 -1.60455 0
M  V30 3072 H 279.522 1.36343 -3.55126 0
M  V30 3073 H 280.834 1.99089 -4.57345 0
M  V30 3074 H 279.988 4.32495 -4.25479 0
M  V30 3075 H 278.727 3.73572 -3.13521 0
M  V30 3076 H 277.732 2.34468 -4.97298 0
M  V30 3077 H 278.957 2.96348 -6.11028 0
M  V30 3078 H 276.903 4.64871 -4.62851 0
M  V30 3079 H 276.82 4.18455 -6.29628 0
M  V30 3080 H 278.088 5.24787 -5.76385 0
M  V30 3081 N 282.317 1.53212 0.369288 0
M  V30 3082 C 283.547 1.72868 1.13139 0
M  V30 3083 C 283.955 0.455754 1.83629 0
M  V30 3084 O 283.298 -0.580861 1.74275 0
M  V30 3085 C 283.36 2.83667 2.20847 0
M  V30 3086 C 283.024 4.24142 1.70155 0
M  V30 3087 C 284.021 5.06619 1.16763 0
M  V30 3088 C 281.706 4.70539 1.7578 0
M  V30 3089 C 283.7 6.33581 0.696678 0
M  V30 3090 C 281.387 5.97481 1.28297 0
M  V30 3091 C 282.385 6.78833 0.753307 0
M  V30 3092 O 282.073 8.03393 0.285475 0
M  V30 3093 H 281.805 0.581707 0.344373 0
M  V30 3094 H 284.359 2.00736 0.435243 0
M  V30 3095 H 282.589 2.51265 2.93944 0
M  V30 3096 H 284.278 2.91536 2.82421 0
M  V30 3097 H 285.044 4.71948 1.11758 0
M  V30 3098 H 280.923 4.07293 2.15949 0
M  V30 3099 H 284.467 6.97027 0.282581 0
M  V30 3100 H 280.364 6.31651 1.32994 0
M  V30 3101 H 281.132 8.17497 0.405145 0
M  V30 3102 N 283.795 -0.628877 1.44509 0
M  V30 3103 C 285.041 -1.39045 1.47629 0
M  V30 3104 C 285.374 -1.93892 0.109343 0
M  V30 3105 O 284.649 -1.7379 -0.87334 0
M  V30 3106 C 284.932 -2.55408 2.53848 0
M  V30 3107 C 284.785 -2.05896 3.99909 0
M  V30 3108 C 286.104 -3.5759 2.56549 0
M  V30 3109 H 283.223 -0.504232 0.537512 0
M  V30 3110 H 285.865 -0.710854 1.76201 0
M  V30 3111 H 284.015 -3.13384 2.29615 0
M  V30 3112 H 285.687 -1.52734 4.35282 0
M  V30 3113 H 283.93 -1.37061 4.11578 0
M  V30 3114 H 284.601 -2.89681 4.69882 0
M  V30 3115 H 287.077 -3.09419 2.78207 0
M  V30 3116 H 285.953 -4.36527 3.32769 0
M  V30 3117 H 286.214 -4.11808 1.60832 0
M  V30 3118 N 285.273 -1.31445 -0.869486 0
M  V30 3119 C 286.52 -1.21158 -1.62256 0
M  V30 3120 C 286.848 0.230155 -1.93133 0
M  V30 3121 O 286.103 1.17906 -1.56194 0
M  V30 3122 C 286.402 -2.00145 -2.96102 0
M  V30 3123 C 286.068 -3.4964 -2.84715 0
M  V30 3124 C 284.73 -3.90403 -2.81317 0
M  V30 3125 C 287.082 -4.44769 -2.71716 0
M  V30 3126 C 284.41 -5.24561 -2.62778 0
M  V30 3127 C 286.762 -5.79054 -2.54714 0
M  V30 3128 C 285.426 -6.19037 -2.49699 0
M  V30 3129 H 284.696 -0.443348 -0.593737 0
M  V30 3130 H 287.343 -1.62715 -1.00976 0
M  V30 3131 H 285.648 -1.5127 -3.6142 0
M  V30 3132 H 287.345 -1.89566 -3.53363 0
M  V30 3133 H 283.935 -3.17256 -2.88178 0
M  V30 3134 H 288.119 -4.14208 -2.73397 0
M  V30 3135 H 283.375 -5.54613 -2.57321 0
M  V30 3136 H 287.549 -6.52393 -2.43632 0
M  V30 3137 H 285.176 -7.22935 -2.35093 0
M  V30 3138 N 286.751 1.08385 -1.14413 0
M  V30 3139 C 287.714 2.13486 -0.834048 0
M  V30 3140 C 288.714 1.59988 0.161418 0
M  V30 3141 O 289.904 1.74071 -0.0669575 0
M  V30 3142 C 287.036 3.4003 -0.243354 0
M  V30 3143 H 288.229 2.42425 -1.7655 0
M  V30 3144 H 285.782 1.24101 -0.950189 0
M  V30 3145 H 286.517 3.16726 0.696807 0
M  V30 3146 H 286.302 3.80157 -0.960367 0
M  V30 3147 H 287.792 4.17577 -0.0436242 0
M  V30 3148 N 288.23 0.939286 1.26551 0
M  V30 3149 C 289.47 0.5933 1.956 0
M  V30 3150 C 289.834 -0.851515 1.72085 0
M  V30 3151 O 291.035 -1.30634 2.34921 0
M  V30 3152 C 289.306 0.923996 3.45249 0
M  V30 3153 S 290.865 0.688269 4.33369 0
M  V30 3154 H 287.683 0.218591 0.676564 0
M  V30 3155 H 290.285 1.2102 1.5354 0
M  V30 3156 H 288.989 1.97297 3.59864 0
M  V30 3157 H 288.52 0.296746 3.92279 0
M  V30 3158 H 290.535 -0.448434 4.9417 0
M  V30 3159 N 289.708 -1.40897 0.706093 0
M  V30 3160 C 290.985 -1.94868 0.169099 0
M  V30 3161 C 291.365 -1.64485 -1.32318 0
M  V30 3162 O 290.713 -0.95744 -2.07474 0
M  V30 3163 C 290.923 -3.45798 0.471654 0
M  V30 3164 C 292.271 -4.22663 0.405127 0
M  V30 3165 O 293.295 -3.53865 0.407168 0
M  V30 3166 O 292.154 -5.45216 0.374383 0
M  V30 3167 H 289.248 -0.82673 0.0211352 0
M  V30 3168 H 291.794 -1.50558 0.782976 0
M  V30 3169 H 290.566 -3.61235 1.50416 0
M  V30 3170 H 290.189 -3.97225 -0.172666 0
M  V30 3171 N 291.186 -0.45159 -1.50991 0
M  V30 3172 C 292.118 0.388634 -2.25881 0
M  V30 3173 C 293.131 0.974041 -1.30446 0
M  V30 3174 O 294.32 0.865758 -1.56099 0
M  V30 3175 C 291.42 1.5571 -3.01011 0
M  V30 3176 C 290.593 1.08801 -4.23652 0
M  V30 3177 C 289.652 2.12825 -4.8124 0
M  V30 3178 O 288.678 1.71678 -5.42693 0
M  V30 3179 N 289.88 3.45453 -4.66522 0
M  V30 3180 H 292.645 -0.25329 -2.98628 0
M  V30 3181 H 290.206 -0.281268 -1.59438 0
M  V30 3182 H 292.198 2.24952 -3.3642 0
M  V30 3183 H 290.768 2.10409 -2.31186 0
M  V30 3184 H 289.988 0.22215 -3.93574 0
M  V30 3185 H 291.276 0.752213 -5.03209 0
M  V30 3186 H 290.674 3.81605 -4.17605 0
M  V30 3187 H 289.231 4.10549 -5.06254 0
M  V30 3188 N 292.664 1.56529 -0.183458 0
M  V30 3189 C 293.612 2.19873 0.758845 0
M  V30 3190 C 294.606 1.16638 1.22849 0
M  V30 3191 O 295.812 1.3481 1.19274 0
M  V30 3192 H 292.187 0.7045 0.263029 0
M  V30 3193 H 294.158 2.97724 0.200755 0
M  V30 3194 C 292.907 2.86314 1.9728 0
M  V30 3195 H 292.23 3.65487 1.62047 0
M  V30 3196 H 293.67 3.3409 2.61075 0
M  V30 3197 C 292.129 1.86729 2.80418 0
M  V30 3198 O 292.659 1.36031 3.77966 0
M  V30 3199 N 290.865 1.55216 2.45675 0
M  V30 3200 H 290.412 1.96636 1.66409 0
M  V30 3201 H 290.37 0.888388 3.01588 0
M  V30 3202 N 294.142 -0.090211 1.57342 0
M  V30 3203 C 295.089 -1.10909 2.02405 0
M  V30 3204 C 296.059 -1.39523 0.901252 0
M  V30 3205 O 297.244 -1.50903 1.1676 0
M  V30 3206 C 294.384 -2.42277 2.45755 0
M  V30 3207 C 293.497 -2.20352 3.71576 0
M  V30 3208 C 292.632 -3.45154 4.03785 0
M  V30 3209 C 291.671 -3.18512 5.22701 0
M  V30 3210 N 290.808 -4.35593 5.50639 0
M  V30 3211 H 295.648 -0.71782 2.89225 0
M  V30 3212 H 293.185 -0.342901 1.43048 0
M  V30 3213 H 295.143 -3.18951 2.68935 0
M  V30 3214 H 293.773 -2.79242 1.61938 0
M  V30 3215 H 292.825 -1.34458 3.55844 0
M  V30 3216 H 294.137 -1.96661 4.58395 0
M  V30 3217 H 293.291 -4.30233 4.27767 0
M  V30 3218 H 292.03 -3.71904 3.15498 0
M  V30 3219 H 291.035 -2.31827 4.98534 0
M  V30 3220 H 292.26 -2.93103 6.12591 0
M  V30 3221 H 290.206 -4.6241 4.6531 0
M  V30 3222 H 290.123 -4.1511 6.31838 0
M  V30 3223 H 291.391 -5.21723 5.7916 0
M  V30 3224 N 295.62 -1.53406 -0.361157 0
M  V30 3225 C 296.567 -1.80156 -1.44265 0
M  V30 3226 C 297.537 -0.646183 -1.53015 0
M  V30 3227 O 298.722 -0.888818 -1.68833 0
M  V30 3228 C 295.862 -2.00116 -2.81154 0
M  V30 3229 C 294.975 -3.27833 -2.81335 0
M  V30 3230 C 294.11 -3.37957 -4.09828 0
M  V30 3231 C 293.149 -4.59689 -4.04168 0
M  V30 3232 N 292.286 -4.66942 -5.24318 0
M  V30 3233 H 297.126 -2.72438 -1.20754 0
M  V30 3234 H 294.663 -1.34954 -0.585296 0
M  V30 3235 H 296.621 -2.09677 -3.60682 0
M  V30 3236 H 295.251 -1.11167 -3.03054 0
M  V30 3237 H 294.303 -3.27204 -1.94014 0
M  V30 3238 H 295.615 -4.17442 -2.73027 0
M  V30 3239 H 294.769 -3.46853 -4.97773 0
M  V30 3240 H 293.508 -2.46372 -4.20894 0
M  V30 3241 H 292.513 -4.50889 -3.14609 0
M  V30 3242 H 293.738 -5.5262 -3.947 0
M  V30 3243 H 291.684 -3.7826 -5.35962 0
M  V30 3244 H 291.601 -5.50462 -5.18197 0
M  V30 3245 H 292.869 -4.80127 -6.14084 0
M  V30 3246 N 297.098 0.621204 -1.44841 0
M  V30 3247 C 298.045 1.73267 -1.5247 0
M  V30 3248 C 299.015 1.6189 -0.371611 0
M  V30 3249 O 300.2 1.81668 -0.58321 0
M  V30 3250 C 297.34 3.11545 -1.48438 0
M  V30 3251 C 296.453 3.33827 -2.74196 0
M  V30 3252 C 295.588 4.62133 -2.61929 0
M  V30 3253 C 294.627 4.77627 -3.82804 0
M  V30 3254 N 293.764 5.97219 -3.69153 0
M  V30 3255 H 298.604 1.66082 -2.47428 0
M  V30 3256 H 296.141 0.810026 -1.22788 0
M  V30 3257 H 298.099 3.91528 -1.4409 0
M  V30 3258 H 296.729 3.1772 -0.570402 0
M  V30 3259 H 295.781 2.47715 -2.88689 0
M  V30 3260 H 297.093 3.41153 -3.6389 0
M  V30 3261 H 296.247 5.50291 -2.5547 0
M  V30 3262 H 294.986 4.57182 -1.69811 0
M  V30 3263 H 293.991 3.87896 -3.89637 0
M  V30 3264 H 295.216 4.84385 -4.75971 0
M  V30 3265 H 293.162 5.93339 -2.79794 0
M  V30 3266 H 293.079 6.05644 -4.52472 0
M  V30 3267 H 294.347 6.87912 -3.66603 0
M  V30 3268 N 298.576 1.31904 0.862503 0
M  V30 3269 C 299.524 1.20125 1.9918 0
M  V30 3270 C 300.518 0.107824 1.69056 0
M  V30 3271 O 301.724 0.270223 1.7796 0
M  V30 3272 H 298.099 0.372148 0.65346 0
M  V30 3273 H 300.07 2.15652 2.06244 0
M  V30 3274 C 298.819 0.933099 3.34946 0
M  V30 3275 H 298.142 1.76664 3.5865 0
M  V30 3276 H 299.582 0.890892 4.14535 0
M  V30 3277 C 298.041 -0.364172 3.34926 0
M  V30 3278 O 298.571 -1.37858 3.77304 0
M  V30 3279 N 296.777 -0.383362 2.8806 0
M  V30 3280 H 296.324 0.442651 2.53768 0
M  V30 3281 H 296.282 -1.25123 2.8843 0
M  V30 3282 N 300.054 -1.07777 1.14986 0
M  V30 3283 C 301.282 -1.84018 0.945773 0
M  V30 3284 C 301.697 -1.81897 -0.505863 0
M  V30 3285 O 301.054 -1.22726 -1.35072 0
M  V30 3286 C 301.105 -3.31287 1.44677 0
M  V30 3287 O 300.826 -3.33449 2.84154 0
M  V30 3288 C 302.327 -4.24311 1.28355 0
M  V30 3289 H 299.547 -0.580716 0.336169 0
M  V30 3290 H 302.091 -1.36077 1.52654 0
M  V30 3291 H 300.246 -3.76594 0.908625 0
M  V30 3292 H 300.66 -4.25427 3.06777 0
M  V30 3293 H 302.134 -5.2573 1.68261 0
M  V30 3294 H 302.611 -4.38612 0.227184 0
M  V30 3295 H 303.217 -3.84836 1.81056 0
M  V30 3296 N 301.532 -0.945985 -1.26051 0
M  V30 3297 C 302.464 -0.416662 -2.25381 0
M  V30 3298 C 303.477 0.462712 -1.56086 0
M  V30 3299 O 304.666 0.272383 -1.7641 0
M  V30 3300 C 301.766 0.419812 -3.3629 0
M  V30 3301 C 300.939 -0.444531 -4.35135 0
M  V30 3302 C 299.998 0.332305 -5.2515 0
M  V30 3303 O 299.024 -0.266324 -5.68577 0
M  V30 3304 N 300.226 1.62763 -5.57215 0
M  V30 3305 H 302.991 -1.27059 -2.71433 0
M  V30 3306 H 300.552 -0.815392 -1.39868 0
M  V30 3307 H 302.544 0.947013 -3.93464 0
M  V30 3308 H 301.114 1.17456 -2.89694 0
M  V30 3309 H 300.334 -1.15291 -3.76964 0
M  V30 3310 H 301.622 -1.03478 -4.98166 0
M  V30 3311 H 301.02 2.13603 -5.23823 0
M  V30 3312 H 299.577 2.10097 -6.17011 0
M  V30 3313 N 303.011 1.40521 -0.713556 0
M  V30 3314 C 304.288 1.94775 -0.17943 0
M  V30 3315 C 304.668 1.65184 1.31444 0
M  V30 3316 O 304.016 0.968429 2.06963 0
M  V30 3317 C 304.226 3.45543 -0.489986 0
M  V30 3318 C 305.574 4.22442 -0.427536 0
M  V30 3319 O 306.598 3.53644 -0.425929 0
M  V30 3320 O 305.457 5.4501 -0.403292 0
M  V30 3321 H 302.551 0.826606 -0.0255192 0
M  V30 3322 H 305.097 1.5014 -0.790949 0
M  V30 3323 H 303.869 3.60432 -1.5233 0
M  V30 3324 H 303.492 3.97311 0.151598 0
M  V30 3325 N 304.489 0.459591 1.5075 0
M  V30 3326 C 305.436 -0.340524 2.28274 0
M  V30 3327 C 306.406 -0.997371 1.32822 0
M  V30 3328 O 307.591 -1.01202 1.61749 0
M  V30 3329 C 304.731 -1.42317 3.14388 0
M  V30 3330 C 303.844 -0.782251 4.24859 0
M  V30 3331 C 302.979 -1.84182 4.98247 0
M  V30 3332 C 302.018 -1.18053 6.00608 0
M  V30 3333 N 301.155 -2.18244 6.67319 0
M  V30 3334 H 305.995 0.326899 2.96202 0
M  V30 3335 H 303.532 0.173057 1.46078 0
M  V30 3336 H 305.49 -2.06241 3.62658 0
M  V30 3337 H 304.12 -2.05992 2.4853 0
M  V30 3338 H 303.172 -0.0307404 3.80388 0
M  V30 3339 H 304.484 -0.259663 4.98124 0
M  V30 3340 H 303.638 -2.55714 5.50177 0
M  V30 3341 H 302.377 -2.39819 4.24662 0
M  V30 3342 H 301.382 -0.450776 5.47949 0
M  V30 3343 H 302.607 -0.631202 6.7616 0
M  V30 3344 H 300.553 -2.72919 5.96533 0
M  V30 3345 H 300.47 -1.70938 7.36421 0
M  V30 3346 H 301.738 -2.89191 7.23871 0
M  V30 3347 N 305.967 -1.56429 0.191757 0
M  V30 3348 C 307.192 -2.02309 -0.456706 0
M  V30 3349 C 307.617 -1.07103 -1.5463 0
M  V30 3350 O 306.975 -0.0539677 -1.8122 0
M  V30 3351 C 307.023 -3.46654 -0.993159 0
M  V30 3352 O 306.127 -3.54559 -2.10622 0
M  V30 3353 H 305.468 -0.655303 -0.107114 0
M  V30 3354 H 307.998 -2.02364 0.301653 0
M  V30 3355 H 308.008 -3.86377 -1.31061 0
M  V30 3356 H 306.683 -4.1544 -0.195504 0
M  V30 3357 H 305.26 -3.26708 -1.79767 0
M  V30 3358 N 307.445 0.0818655 -1.57387 0
M  V30 3359 C 308.673 0.796108 -1.9097 0
M  V30 3360 C 309.088 1.71626 -0.786757 0
M  V30 3361 O 308.445 1.80908 0.240513 0
M  V30 3362 C 308.496 1.59829 -3.24248 0
M  V30 3363 O 308.217 0.715131 -4.32224 0
M  V30 3364 C 309.718 2.41442 -3.7178 0
M  V30 3365 H 306.938 0.22691 -0.631469 0
M  V30 3366 H 309.482 0.0551439 -2.04426 0
M  V30 3367 H 307.637 2.29163 -3.12351 0
M  V30 3368 H 308.051 1.27205 -5.08841 0
M  V30 3369 H 309.525 2.932 -4.67694 0
M  V30 3370 H 310.002 3.2051 -3.00283 0
M  V30 3371 H 310.608 1.77283 -3.86589 0
M  V30 3372 N 308.923 1.53595 0.353017 0
M  V30 3373 C 310.171 1.70049 1.09215 0
M  V30 3374 C 310.492 0.461406 1.89463 0
M  V30 3375 O 309.762 -0.524633 1.88744 0
M  V30 3376 H 308.342 0.626912 0.40619 0
M  V30 3377 H 311.004 1.90822 0.396585 0
M  V30 3378 H 310.1 2.56718 1.77488 0
M  V30 3379 N 310.401 -0.613514 1.45168 0
M  V30 3380 C 311.364 -1.7065 1.53007 0
M  V30 3381 C 312.364 -1.5548 0.410184 0
M  V30 3382 O 313.554 -1.60656 0.673455 0
M  V30 3383 C 310.686 -3.09875 1.42093 0
M  V30 3384 H 311.879 -1.65068 2.50385 0
M  V30 3385 H 309.432 -0.828728 1.32521 0
M  V30 3386 H 310.167 -3.21039 0.458769 0
M  V30 3387 H 309.952 -3.22293 2.23315 0
M  V30 3388 H 311.442 -3.895 1.50598 0
M  V30 3389 N 311.879 -1.3236 -0.855495 0
M  V30 3390 C 312.826 -1.21225 -1.964 0
M  V30 3391 C 313.796 -0.0946204 -1.6583 0
M  V30 3392 O 314.981 -0.27002 -1.8888 0
M  V30 3393 C 312.121 -0.940419 -3.32039 0
M  V30 3394 C 311.234 -2.14276 -3.75113 0
M  V30 3395 C 310.369 -1.80648 -4.9954 0
M  V30 3396 C 309.408 -2.97208 -5.35102 0
M  V30 3397 N 308.545 -2.63678 -6.50706 0
M  V30 3398 H 313.385 -2.16042 -2.05255 0
M  V30 3399 H 310.922 -1.07451 -1.00463 0
M  V30 3400 H 312.88 -0.763311 -4.10158 0
M  V30 3401 H 311.51 -0.0290413 -3.22787 0
M  V30 3402 H 310.562 -2.43017 -2.92655 0
M  V30 3403 H 311.874 -3.01468 -3.97389 0
M  V30 3404 H 311.028 -1.59484 -5.85363 0
M  V30 3405 H 309.767 -0.906678 -4.79198 0
M  V30 3406 H 308.772 -3.19004 -4.47791 0
M  V30 3407 H 309.997 -3.87918 -5.57401 0
M  V30 3408 H 307.943 -1.76238 -6.31883 0
M  V30 3409 H 307.86 -3.444 -6.72997 0
M  V30 3410 H 309.128 -2.45942 -7.39684 0
M  V30 3411 N 313.357 1.07166 -1.15556 0
M  V30 3412 C 314.304 2.14417 -0.854055 0
M  V30 3413 C 315.274 1.64965 0.193806 0
M  V30 3414 O 316.459 1.90703 0.0609443 0
M  V30 3415 C 313.599 3.43304 -0.351574 0
M  V30 3416 C 312.712 4.06537 -1.46123 0
M  V30 3417 C 311.847 5.23266 -0.914677 0
M  V30 3418 C 310.886 5.78464 -2.00114 0
M  V30 3419 N 310.023 6.86521 -1.47083 0
M  V30 3420 H 314.863 2.39548 -1.77259 0
M  V30 3421 H 312.4 1.17543 -0.884425 0
M  V30 3422 H 314.358 4.17179 -0.0419409 0
M  V30 3423 H 312.988 3.18419 0.530037 0
M  V30 3424 H 312.04 3.30297 -1.88701 0
M  V30 3425 H 313.352 4.43567 -2.28144 0
M  V30 3426 H 312.506 6.04131 -0.557698 0
M  V30 3427 H 311.245 4.87658 -0.0636583 0
M  V30 3428 H 310.25 4.96243 -2.36692 0
M  V30 3429 H 311.475 6.16126 -2.85597 0
M  V30 3430 H 309.421 6.52849 -0.642198 0
M  V30 3431 H 309.338 7.22446 -2.22729 0
M  V30 3432 H 310.606 7.71087 -1.14215 0
M  V30 3433 N 314.835 0.952656 1.25548 0
M  V30 3434 C 315.782 0.47008 2.25962 0
M  V30 3435 C 316.752 -0.476384 1.59122 0
M  V30 3436 O 317.937 -0.39007 1.8677 0
M  V30 3437 C 315.077 -0.247881 3.44209 0
M  V30 3438 C 314.19 0.735591 4.25691 0
M  V30 3439 C 313.325 -0.0047306 5.312 0
M  V30 3440 C 312.364 0.969805 6.04368 0
M  V30 3441 N 311.501 0.260486 7.01617 0
M  V30 3442 H 316.341 1.33126 2.66611 0
M  V30 3443 H 313.878 0.66765 1.31076 0
M  V30 3444 H 315.836 -0.680695 4.1161 0
M  V30 3445 H 314.466 -1.07312 3.0444 0
M  V30 3446 H 313.518 1.28689 3.57971 0
M  V30 3447 H 314.83 1.47934 4.76358 0
M  V30 3448 H 313.984 -0.496275 6.04667 0
M  V30 3449 H 312.723 -0.781282 4.81401 0
M  V30 3450 H 311.728 1.47237 5.29718 0
M  V30 3451 H 312.953 1.74655 6.56256 0
M  V30 3452 H 310.899 -0.497364 6.54112 0
M  V30 3453 H 310.816 0.943362 7.50091 0
M  V30 3454 H 312.084 -0.209587 7.79218 0
M  V30 3455 N 316.313 -1.40141 0.720998 0
M  V30 3456 C 317.245 -2.29177 0.0324669 0
M  V30 3457 C 318.258 -1.46105 -0.718126 0
M  V30 3458 O 319.447 -1.69335 -0.564608 0
M  V30 3459 C 316.547 -3.24473 -0.978292 0
M  V30 3460 C 315.72 -4.36423 -0.292115 0
M  V30 3461 C 314.779 -5.12122 -1.20901 0
M  V30 3462 O 313.805 -5.64981 -0.691766 0
M  V30 3463 N 315.007 -5.21992 -2.53978 0
M  V30 3464 H 317.772 -2.88909 0.796984 0
M  V30 3465 H 315.333 -1.51569 0.569068 0
M  V30 3466 H 317.325 -3.71987 -1.59398 0
M  V30 3467 H 315.895 -2.65871 -1.64413 0
M  V30 3468 H 315.115 -3.90967 0.503847 0
M  V30 3469 H 316.403 -5.08467 0.183971 0
M  V30 3470 H 315.801 -4.8054 -2.98493 0
M  V30 3471 H 314.358 -5.72995 -3.10677 0
M  V30 3472 N 317.792 -0.46758 -1.50504 0
M  V30 3473 C 319.04 0.0884469 -2.01906 0
M  V30 3474 C 319.361 1.40532 -1.35188 0
M  V30 3475 O 318.631 1.89515 -0.496079 0
M  V30 3476 H 317.211 0.0356765 -0.746148 0
M  V30 3477 H 319.873 -0.6172 -1.84869 0
M  V30 3478 H 318.969 0.2425 -3.11156 0
M  V30 3479 N 319.27 1.56325 -0.20005 0
M  V30 3480 C 320.218 2.20666 0.735482 0
M  V30 3481 C 321.212 1.17934 1.21605 0
M  V30 3482 O 322.418 1.36068 1.17837 0
M  V30 3483 H 318.793 0.70725 0.255542 0
M  V30 3484 H 320.764 2.9792 0.169166 0
M  V30 3485 C 319.513 2.88391 1.94232 0
M  V30 3486 H 318.836 3.67185 1.58161 0
M  V30 3487 H 320.276 3.3684 2.57517 0
M  V30 3488 C 318.735 1.89692 2.78421 0
M  V30 3489 O 319.265 1.40032 3.76502 0
M  V30 3490 N 317.471 1.57813 2.44015 0
M  V30 3491 H 317.018 1.9839 1.64314 0
M  V30 3492 H 316.976 0.920325 3.00628 0
M  V30 3493 N 320.748 -0.0735177 1.57428 0
M  V30 3494 C 321.696 -1.10628 2.04607 0
M  V30 3495 C 322.69 -1.40181 0.951088 0
M  V30 3496 O 323.896 -1.39608 1.1362 0
M  V30 3497 H 320.271 -0.374088 0.652351 0
M  V30 3498 H 322.242 -0.682218 2.90497 0
M  V30 3499 C 320.991 -2.41212 2.50423 0
M  V30 3500 H 320.314 -2.19322 3.34272 0
M  V30 3501 H 321.754 -3.11927 2.87189 0
M  V30 3502 C 320.213 -3.0705 1.38644 0
M  V30 3503 O 320.743 -3.95056 0.727582 0
M  V30 3504 N 318.949 -2.67645 1.132 0
M  V30 3505 H 318.496 -1.96169 1.66959 0
M  V30 3506 H 318.454 -3.1202 0.386147 0
M  V30 3507 N 322.226 -1.5378 -0.344866 0
M  V30 3508 C 323.173 -1.81676 -1.42346 0
M  V30 3509 C 324.143 -0.662376 -1.52321 0
M  V30 3510 O 325.328 -0.906675 -1.67881 0
M  V30 3511 C 322.468 -2.03087 -2.79015 0
M  V30 3512 C 321.581 -3.30799 -2.77842 0
M  V30 3513 C 320.716 -3.42285 -4.0622 0
M  V30 3514 C 319.755 -4.6395 -3.9927 0
M  V30 3515 N 318.892 -4.72477 -5.19336 0
M  V30 3516 H 323.732 -2.73703 -1.17858 0
M  V30 3517 H 321.269 -1.35568 -0.570949 0
M  V30 3518 H 323.227 -2.1349 -3.58438 0
M  V30 3519 H 321.857 -1.14375 -3.01858 0
M  V30 3520 H 320.909 -3.29244 -1.90533 0
M  V30 3521 H 322.221 -4.20314 -2.68584 0
M  V30 3522 H 321.375 -3.52113 -4.94066 0
M  V30 3523 H 320.114 -2.50823 -4.18258 0
M  V30 3524 H 319.119 -4.54201 -3.09809 0
M  V30 3525 H 320.344 -5.56775 -3.88817 0
M  V30 3526 H 318.29 -3.83924 -5.3192 0
M  V30 3527 H 318.207 -5.55927 -5.12329 0
M  V30 3528 H 319.475 -4.86613 -6.08957 0
M  V30 3529 N 323.704 0.605807 -1.45491 0
M  V30 3530 C 324.651 1.7164 -1.54299 0
M  V30 3531 C 325.621 1.61486 -0.388761 0
M  V30 3532 O 326.806 1.81039 -0.602445 0
M  V30 3533 C 323.946 3.09953 -1.51734 0
M  V30 3534 C 323.059 3.309 -2.77721 0
M  V30 3535 C 322.194 4.59329 -2.66816 0
M  V30 3536 C 321.233 4.7354 -3.87848 0
M  V30 3537 N 320.37 5.9327 -3.75467 0
M  V30 3538 H 325.21 1.63449 -2.49176 0
M  V30 3539 H 322.747 0.796957 -1.23641 0
M  V30 3540 H 324.705 3.89977 -1.48235 0
M  V30 3541 H 323.335 3.17098 -0.604068 0
M  V30 3542 H 322.387 2.44639 -2.913 0
M  V30 3543 H 323.699 3.37274 -3.67488 0
M  V30 3544 H 322.853 5.4755 -2.61292 0
M  V30 3545 H 321.592 4.55355 -1.74651 0
M  V30 3546 H 320.597 3.83741 -3.93729 0
M  V30 3547 H 321.822 4.79309 -4.81082 0
M  V30 3548 H 319.768 5.90338 -2.86072 0
M  V30 3549 H 319.685 6.00811 -4.5887 0
M  V30 3550 H 320.953 6.83984 -3.73879 0
M  V30 3551 N 325.182 1.32811 0.848464 0
M  V30 3552 C 326.459 1.14334 1.58704 0
M  V30 3553 C 326.839 -0.293948 2.09043 0
M  V30 3554 O 326.187 -1.29153 1.88499 0
M  V30 3555 C 326.397 2.17626 2.72837 0
M  V30 3556 C 327.745 2.51282 3.42261 0
M  V30 3557 O 328.769 2.16219 2.83068 0
M  V30 3558 O 327.628 3.11413 4.49093 0
M  V30 3559 H 324.722 0.441601 0.699226 0
M  V30 3560 H 327.268 1.44362 0.892053 0
M  V30 3561 H 326.04 3.14211 2.3321 0
M  V30 3562 H 325.663 1.88628 3.50008 0
M  V30 3563 N 326.66 -1.06551 1.16123 0
M  V30 3564 C 327.937 -1.76097 0.85142 0
M  V30 3565 C 328.317 -2.00802 -0.6513 0
M  V30 3566 O 327.665 -1.63302 -1.59827 0
M  V30 3567 C 327.875 -3.06384 1.67122 0
M  V30 3568 C 329.223 -3.80585 1.88255 0
M  V30 3569 O 330.247 -3.16218 1.63966 0
M  V30 3570 O 329.106 -4.96212 2.2899 0
M  V30 3571 H 326.2 -0.765102 0.313923 0
M  V30 3572 H 328.746 -1.12844 1.26745 0
M  V30 3573 H 327.518 -2.84071 2.69108 0
M  V30 3574 H 327.141 -3.77371 1.25206 0
M  V30 3575 N 328.138 -0.959301 -1.25041 0
M  V30 3576 C 329.086 -0.474437 -2.2771 0
M  V30 3577 C 330.08 0.457697 -1.631 0
M  V30 3578 O 331.286 0.333912 -1.76876 0
M  V30 3579 H 327.661 -0.134936 -0.739795 0
M  V30 3580 H 329.632 -1.35251 -2.65988 0
M  V30 3581 C 328.381 0.227884 -3.46952 0
M  V30 3582 H 327.704 -0.480248 -3.96905 0
M  V30 3583 H 329.144 0.531091 -4.20661 0
M  V30 3584 C 327.603 1.452 -3.04004 0
M  V30 3585 O 328.133 2.54949 -3.10426 0
M  V30 3586 N 326.339 1.31502 -2.59144 0
M  V30 3587 H 325.886 0.422065 -2.54119 0
M  V30 3588 H 325.844 2.13521 -2.30773 0
M  V30 3589 N 329.616 1.39756 -0.72842 0
M  V30 3590 C 330.564 2.32485 -0.0731849 0
M  V30 3591 C 331.558 1.52717 0.733063 0
M  V30 3592 O 332.764 1.68428 0.634988 0
M  V30 3593 H 329.139 0.751984 -0.00486469 0
M  V30 3594 H 331.11 2.85382 -0.871761 0
M  V30 3595 C 329.859 3.37773 0.824908 0
M  V30 3596 H 329.182 3.99227 0.213915 0
M  V30 3597 H 330.622 4.05121 1.25111 0
M  V30 3598 C 329.081 2.74287 1.95622 0
M  V30 3599 O 329.611 2.61618 3.04826 0
M  V30 3600 N 327.817 2.32475 1.74367 0
M  V30 3601 H 327.364 2.4298 0.855494 0
M  V30 3602 H 327.322 1.90337 2.50238 0
M  V30 3603 N 331.094 0.475555 1.50254 0
M  V30 3604 C 332.042 -0.330276 2.30243 0
M  V30 3605 C 333.036 -0.986306 1.37726 0
M  V30 3606 O 334.242 -0.9169 1.54897 0
M  V30 3607 H 330.617 -0.125353 0.741479 0
M  V30 3608 H 332.588 0.364702 2.96163 0
M  V30 3609 C 331.337 -1.39704 3.18399 0
M  V30 3610 H 330.66 -0.901621 3.89501 0
M  V30 3611 H 332.1 -1.93336 3.77355 0
M  V30 3612 C 330.559 -2.4014 2.36293 0
M  V30 3613 O 331.089 -3.45504 2.04914 0
M  V30 3614 N 329.295 -2.1197 1.98789 0
M  V30 3615 H 328.842 -1.2631 2.24507 0
M  V30 3616 H 328.8 -2.79403 1.44157 0
M  V30 3617 N 332.573 -1.56217 0.208337 0
M  V30 3618 C 333.521 -2.21053 -0.723769 0
M  V30 3619 C 334.515 -1.18578 -1.20978 0
M  V30 3620 O 335.721 -1.36691 -1.17114 0
M  V30 3621 H 332.096 -0.708595 -0.251788 0
M  V30 3622 H 334.067 -2.98006 -0.153365 0
M  V30 3623 C 332.816 -2.89417 -1.927 0
M  V30 3624 H 332.139 -3.68019 -1.56212 0
M  V30 3625 H 333.579 -3.38201 -2.55727 0
M  V30 3626 C 332.038 -1.91166 -2.77411 0
M  V30 3627 O 332.568 -1.42026 -3.75754 0
M  V30 3628 N 330.774 -1.59105 -2.43175 0
M  V30 3629 H 330.321 -1.99259 -1.63259 0
M  V30 3630 H 330.279 -0.936255 -3.00136 0
M  V30 3631 N 334.051 0.0651679 -1.57465 0
M  V30 3632 C 334.999 1.09542 -2.05191 0
M  V30 3633 C 335.993 1.39675 -0.958509 0
M  V30 3634 O 337.199 1.39003 -1.14359 0
M  V30 3635 H 333.574 0.370623 -0.654326 0
M  V30 3636 H 335.545 0.666802 -2.90854 0
M  V30 3637 C 334.294 2.39881 -2.51699 0
M  V30 3638 H 333.617 2.17547 -3.3543 0
M  V30 3639 H 335.057 3.104 -2.88839 0
M  V30 3640 C 333.516 3.0631 -1.40271 0
M  V30 3641 O 334.046 3.94664 -0.748523 0
M  V30 3642 N 332.252 2.67041 -1.14618 0
M  V30 3643 H 331.799 1.95281 -1.67997 0
M  V30 3644 H 331.757 3.1181 -0.402688 0
M  V30 3645 N 335.529 1.53961 0.336706 0
M  V30 3646 C 336.477 1.83136 1.43401 0
M  V30 3647 C 337.471 0.702313 1.54156 0
M  V30 3648 O 338.677 0.885765 1.56698 0
M  V30 3649 H 335.052 0.580309 0.478273 0
M  V30 3650 H 337.023 2.74925 1.16012 0
M  V30 3651 C 335.772 2.06385 2.79822 0
M  V30 3652 H 335.095 2.92718 2.72316 0
M  V30 3653 H 336.535 2.30761 3.55704 0
M  V30 3654 C 334.994 0.851414 3.25964 0
M  V30 3655 O 335.524 0.0541904 4.01663 0
M  V30 3656 N 333.73 0.66672 2.82848 0
M  V30 3657 H 333.277 1.31665 2.21409 0
M  V30 3658 H 333.235 -0.143032 3.14074 0
M  V30 3659 N 337.007 -0.598083 1.45811 0
M  V30 3660 C 337.955 -1.72932 1.55555 0
M  V30 3661 C 338.949 -1.63984 0.424921 0
M  V30 3662 O 340.155 -1.69663 0.601205 0
M  V30 3663 H 336.53 -0.571489 0.488779 0
M  V30 3664 H 338.501 -1.61842 2.50699 0
M  V30 3665 C 337.25 -3.11318 1.54843 0
M  V30 3666 H 336.573 -3.18867 2.41172 0
M  V30 3667 H 338.013 -3.90274 1.65717 0
M  V30 3668 C 336.472 -3.3578 0.274427 0
M  V30 3669 O 337.002 -3.9654 -0.641778 0
M  V30 3670 N 335.208 -2.90119 0.167139 0
M  V30 3671 H 334.755 -2.40855 0.913596 0
M  V30 3672 H 334.713 -3.0686 -0.684435 0
M  V30 3673 N 338.485 -1.33259 -0.841409 0
M  V30 3674 C 339.762 -1.15174 -1.58096 0
M  V30 3675 C 340.142 0.282858 -2.09196 0
M  V30 3676 O 339.49 1.28151 -1.89181 0
M  V30 3677 C 339.7 -2.1907 -2.71679 0
M  V30 3678 C 341.048 -2.53093 -3.40924 0
M  V30 3679 O 342.072 -2.17717 -2.81918 0
M  V30 3680 O 340.931 -3.1379 -4.47435 0
M  V30 3681 H 338.025 -0.445303 -0.696875 0
M  V30 3682 H 340.571 -1.44833 -0.884385 0
M  V30 3683 H 339.343 -3.15443 -2.31541 0
M  V30 3684 H 338.966 -1.90481 -3.49002 0
M  V30 3685 N 339.963 1.05934 -1.16686 0
M  V30 3686 C 340.926 2.11669 -0.879144 0
M  V30 3687 C 341.926 1.60294 0.127445 0
M  V30 3688 O 343.116 1.7389 -0.103865 0
M  V30 3689 C 340.248 3.39438 -0.315425 0
M  V30 3690 H 341.441 2.38626 -1.81653 0
M  V30 3691 H 338.994 1.22058 -0.976299 0
M  V30 3692 H 339.729 3.18132 0.629468 0
M  V30 3693 H 339.514 3.78034 -1.04079 0
M  V30 3694 H 341.004 4.17391 -0.132189 0
M  V30 3695 N 341.441 0.965919 1.2453 0
M  V30 3696 C 342.718 0.543777 1.87889 0
M  V30 3697 C 343.098 -0.97909 1.87021 0
M  V30 3698 O 342.446 -1.84969 1.3416 0
M  V30 3699 C 342.656 1.13327 3.30088 0
M  V30 3700 C 344.004 1.21707 4.06783 0
M  V30 3701 O 345.028 1.08566 3.39252 0
M  V30 3702 O 343.887 1.42456 5.27606 0
M  V30 3703 H 340.981 0.181054 0.806938 0
M  V30 3704 H 343.527 1.06007 1.32516 0
M  V30 3705 H 342.299 2.17612 3.25209 0
M  V30 3706 H 341.922 0.600911 3.93033 0
M  V30 3707 N 342.919 -1.39368 0.735821 0
M  V30 3708 C 343.867 -2.32443 0.0855131 0
M  V30 3709 C 344.861 -1.53104 -0.724954 0
M  V30 3710 O 346.067 -1.68762 -0.626047 0
M  V30 3711 H 342.442 -0.751948 0.00885257 0
M  V30 3712 H 344.413 -2.84916 0.886883 0
M  V30 3713 C 343.162 -3.38206 -0.806983 0
M  V30 3714 H 342.485 -3.99335 -0.19274 0
M  V30 3715 H 343.925 -4.05779 -1.2296 0
M  V30 3716 C 342.384 -2.75321 -1.94165 0
M  V30 3717 O 342.914 -2.63231 -3.03435 0
M  V30 3718 N 341.12 -2.33396 -1.73132 0
M  V30 3719 H 340.667 -2.4343 -0.842596 0
M  V30 3720 H 340.625 -1.91661 -2.49225 0
M  V30 3721 N 344.397 -0.483516 -1.5 0
M  V30 3722 C 345.329 0.340634 -2.26655 0
M  V30 3723 C 346.342 0.946152 -1.32483 0
M  V30 3724 O 347.531 0.832453 -1.579 0
M  V30 3725 C 344.631 1.4929 -3.04246 0
M  V30 3726 C 343.804 0.997903 -4.25865 0
M  V30 3727 C 342.863 2.02569 -4.85646 0
M  V30 3728 O 341.889 1.60128 -5.46212 0
M  V30 3729 N 343.091 3.3548 -4.73744 0
M  V30 3730 H 345.856 -0.316577 -2.98023 0
M  V30 3731 H 343.417 -0.315024 -1.58806 0
M  V30 3732 H 345.409 2.17766 -3.41116 0
M  V30 3733 H 343.979 2.05458 -2.35597 0
M  V30 3734 H 343.199 0.138617 -3.93956 0
M  V30 3735 H 344.487 0.645305 -5.04691 0
M  V30 3736 H 343.885 3.72661 -4.25605 0
M  V30 3737 H 342.442 3.99718 -5.14848 0
M  V30 3738 N 345.875 1.56104 -0.216619 0
M  V30 3739 C 346.825 2.16703 0.708798 0
M  V30 3740 C 347.809 1.11392 1.16106 0
M  V30 3741 O 349.001 1.37395 1.11587 0
M  V30 3742 C 346.13 2.84666 1.91886 0
M  V30 3743 C 345.216 3.97195 1.48651 0
M  V30 3744 N 345.607 4.99959 0.766434 0
M  V30 3745 C 343.905 4.09193 1.77418 0
M  V30 3746 C 344.606 5.79126 0.546659 0
M  V30 3747 N 343.582 5.32315 1.10188 0
M  V30 3748 H 347.384 2.93516 0.150162 0
M  V30 3749 H 344.898 1.6239 -0.0176768 0
M  V30 3750 H 346.895 3.26486 2.59253 0
M  V30 3751 H 345.555 2.09347 2.48202 0
M  V30 3752 H 346.566 5.16197 0.419634 0
M  V30 3753 H 343.243 3.45021 2.35088 0
M  V30 3754 H 344.633 6.71895 -0.026103 0
M  V30 3755 N 347.353 -0.0568162 1.57498 0
M  V30 3756 C 348.316 -1.05038 2.03715 0
M  V30 3757 C 349.316 -1.30709 0.936577 0
M  V30 3758 O 350.506 -1.26178 1.20103 0
M  V30 3759 C 347.638 -2.39034 2.43055 0
M  V30 3760 H 348.831 -0.651715 2.92733 0
M  V30 3761 H 346.384 -0.302947 1.53336 0
M  V30 3762 H 347.119 -2.83703 1.57108 0
M  V30 3763 H 346.904 -2.21739 3.2338 0
M  V30 3764 H 348.394 -3.10421 2.79336 0
M  V30 3765 N 348.832 -1.54138 -0.328536 0
M  V30 3766 C 350.109 -1.62749 -1.08499 0
M  V30 3767 C 350.489 -0.458198 -2.06067 0
M  V30 3768 O 349.837 0.548046 -2.2183 0
M  V30 3769 C 350.047 -2.99519 -1.79135 0
M  V30 3770 C 351.395 -3.55394 -2.32337 0
M  V30 3771 O 352.419 -3.01792 -1.89209 0
M  V30 3772 O 351.278 -4.49186 -3.11279 0
M  V30 3773 H 348.372 -0.65886 -0.499832 0
M  V30 3774 H 350.918 -1.66484 -0.328826 0
M  V30 3775 H 349.69 -3.76061 -1.08139 0
M  V30 3776 H 349.313 -2.99441 -2.61574 0
M  V30 3777 N 350.31 0.590341 -1.46126 0
M  V30 3778 C 351.24 1.71032 -1.58966 0
M  V30 3779 C 352.221 1.64302 -0.440335 0
M  V30 3780 O 353.406 1.82436 -0.665634 0
M  V30 3781 C 350.536 3.09665 -1.57241 0
M  V30 3782 C 349.49 3.31221 -2.71066 0
M  V30 3783 C 348.816 4.70303 -2.54399 0
M  V30 3784 C 350.116 3.19796 -4.1295 0
M  V30 3785 H 351.81 1.60543 -2.52718 0
M  V30 3786 H 349.356 0.770933 -1.21625 0
M  V30 3787 H 351.309 3.87831 -1.64819 0
M  V30 3788 H 350.033 3.21036 -0.600289 0
M  V30 3789 H 348.692 2.55452 -2.62944 0
M  V30 3790 H 348.34 4.78429 -1.55288 0
M  V30 3791 H 348.04 4.85679 -3.30741 0
M  V30 3792 H 349.564 5.50647 -2.63857 0
M  V30 3793 H 350.978 3.87815 -4.22223 0
M  V30 3794 H 349.375 3.46696 -4.89818 0
M  V30 3795 H 350.445 2.16983 -4.33643 0
M  V30 3796 N 351.788 1.33704 0.83433 0
M  V30 3797 C 352.718 1.26967 1.95963 0
M  V30 3798 C 353.699 0.149337 1.69443 0
M  V30 3799 O 354.884 0.339852 1.91203 0
M  V30 3800 C 352.014 1.01275 3.32206 0
M  V30 3801 C 350.968 2.09652 3.73136 0
M  V30 3802 C 350.294 1.69166 5.07235 0
M  V30 3803 C 351.594 3.51372 3.86439 0
M  V30 3804 H 353.288 2.2112 2.01857 0
M  V30 3805 H 350.834 1.06447 0.969793 0
M  V30 3806 H 352.787 0.952106 4.10503 0
M  V30 3807 H 351.511 0.0356203 3.26581 0
M  V30 3808 H 350.17 2.14766 2.97104 0
M  V30 3809 H 349.818 0.701437 4.98085 0
M  V30 3810 H 349.518 2.41694 5.35591 0
M  V30 3811 H 351.042 1.64576 5.88003 0
M  V30 3812 H 352.456 3.48734 4.55036 0
M  V30 3813 H 350.853 4.22425 4.26236 0
M  V30 3814 H 351.923 3.89546 2.88759 0
M  V30 3815 N 353.266 -1.05314 1.17247 0
M  V30 3816 C 354.491 -1.82509 0.985148 0
M  V30 3817 C 354.916 -1.82343 -0.461788 0
M  V30 3818 O 354.274 -1.23151 -1.33055 0
M  V30 3819 C 354.322 -3.26566 1.52929 0
M  V30 3820 O 353.426 -4.05666 0.742225 0
M  V30 3821 H 352.767 -0.564347 0.349869 0
M  V30 3822 H 355.297 -1.32718 1.55715 0
M  V30 3823 H 355.307 -3.77369 1.55103 0
M  V30 3824 H 353.982 -3.26001 2.58256 0
M  V30 3825 H 352.559 -3.64397 0.791794 0
M  V30 3826 N 354.744 -0.972509 -1.24016 0
M  V30 3827 C 356.021 -0.553733 -1.87598 0
M  V30 3828 C 356.401 0.969158 -1.87538 0
M  V30 3829 O 355.749 1.84255 -1.35139 0
M  V30 3830 C 355.959 -1.15076 -3.29482 0
M  V30 3831 C 357.307 -1.23862 -4.06132 0
M  V30 3832 O 358.331 -1.10363 -3.38672 0
M  V30 3833 O 357.19 -1.45252 -5.26844 0
M  V30 3834 H 354.284 -0.185331 -0.805966 0
M  V30 3835 H 356.83 -1.06709 -1.31952 0
M  V30 3836 H 355.602 -2.19333 -3.2405 0
M  V30 3837 H 355.225 -0.621746 -3.92709 0
M  V30 3838 N 356.222 1.38976 -0.743202 0
M  V30 3839 C 357.499 1.94351 -0.220705 0
M  V30 3840 C 357.879 1.67935 1.2791 0
M  V30 3841 O 357.227 1.01211 2.04862 0
M  V30 3842 C 357.437 3.44426 -0.563171 0
M  V30 3843 C 358.785 4.2144 -0.517046 0
M  V30 3844 O 359.809 3.52661 -0.500846 0
M  V30 3845 O 358.668 5.44032 -0.518806 0
M  V30 3846 H 355.762 0.825879 -0.043047 0
M  V30 3847 H 358.308 1.48429 -0.822618 0
M  V30 3848 H 357.08 3.5712 -1.59941 0
M  V30 3849 H 356.703 3.97543 0.0672883 0
M  V30 3850 N 357.7 0.491464 1.49741 0
M  V30 3851 C 358.63 -0.28154 2.31796 0
M  V30 3852 C 359.611 -0.971473 1.3963 0
M  V30 3853 O 360.796 -0.964719 1.68543 0
M  V30 3854 C 357.926 -1.35203 3.19902 0
M  V30 3855 C 356.88 -0.782529 4.20786 0
M  V30 3856 C 356.206 -1.95283 4.97764 0
M  V30 3857 C 357.506 0.21999 5.21837 0
M  V30 3858 H 359.2 0.403355 2.96671 0
M  V30 3859 H 356.746 0.195425 1.42668 0
M  V30 3860 H 358.699 -1.90045 3.76113 0
M  V30 3861 H 357.423 -2.06598 2.52953 0
M  V30 3862 H 356.082 -0.255928 3.65706 0
M  V30 3863 H 355.73 -2.65423 4.2727 0
M  V30 3864 H 355.43 -1.57789 5.66018 0
M  V30 3865 H 356.954 -2.50577 5.56816 0
M  V30 3866 H 358.368 -0.23996 5.72798 0
M  V30 3867 H 356.765 0.51026 5.97927 0
M  V30 3868 H 357.835 1.13911 4.7133 0
M  V30 3869 N 359.178 -1.55987 0.224894 0
M  V30 3870 C 360.141 -2.19178 -0.670348 0
M  V30 3871 C 361.141 -1.15461 -1.11917 0
M  V30 3872 O 362.331 -1.40675 -1.02743 0
M  V30 3873 C 359.463 -2.81777 -1.9187 0
M  V30 3874 H 360.656 -2.99662 -0.119364 0
M  V30 3875 H 358.209 -1.5628 -0.0247128 0
M  V30 3876 H 358.944 -2.05172 -2.51147 0
M  V30 3877 H 358.729 -3.57732 -1.60531 0
M  V30 3878 H 360.219 -3.30205 -2.55645 0
M  V30 3879 N 360.656 0.0484629 -1.57525 0
M  V30 3880 C 361.566 1.07241 -2.08654 0
M  V30 3881 C 362.582 1.409 -1.02095 0
M  V30 3882 O 363.758 1.50609 -1.33712 0
M  V30 3883 C 360.823 2.36008 -2.5397 0
M  V30 3884 C 359.884 2.09108 -3.7493 0
M  V30 3885 C 359.117 3.31736 -4.18075 0
M  V30 3886 O 359.34 4.41714 -3.60895 0
M  V30 3887 O 358.274 3.18576 -5.10679 0
M  V30 3888 H 362.1 0.667965 -2.96263 0
M  V30 3889 H 359.685 0.26417 -1.47046 0
M  V30 3890 H 361.567 3.11747 -2.83535 0
M  V30 3891 H 360.242 2.75786 -1.69481 0
M  V30 3892 H 359.149 1.31 -3.50414 0
M  V30 3893 H 360.482 1.74198 -4.60343 0
M  V30 3894 N 362.134 1.5431 0.320358 0
M  V30 3895 C 363.081 1.83918 1.39438 0
M  V30 3896 C 364.051 0.686525 1.51248 0
M  V30 3897 O 365.236 0.933269 1.66417 0
M  V30 3898 C 362.376 2.075 2.75749 0
M  V30 3899 C 361.489 3.35177 2.72544 0
M  V30 3900 C 360.624 3.48704 4.00723 0
M  V30 3901 C 359.663 4.70244 3.91838 0
M  V30 3902 N 358.8 4.80679 5.11754 0
M  V30 3903 H 363.64 2.75544 1.13489 0
M  V30 3904 H 361.177 1.36459 0.549309 0
M  V30 3905 H 363.135 2.19166 3.54996 0
M  V30 3906 H 361.765 1.19163 3 0
M  V30 3907 H 360.817 3.32233 1.85271 0
M  V30 3908 H 362.129 4.24534 2.61863 0
M  V30 3909 H 361.283 3.59928 4.88402 0
M  V30 3910 H 360.022 2.57445 4.14214 0
M  V30 3911 H 359.027 4.59072 3.02544 0
M  V30 3912 H 360.252 5.6289 3.7991 0
M  V30 3913 H 358.198 3.92337 5.25745 0
M  V30 3914 H 358.115 5.64007 5.0342 0
M  V30 3915 H 359.383 4.96239 6.01138 0
M  V30 3916 N 363.613 -0.582584 1.46437 0
M  V30 3917 C 364.56 -1.69164 1.5701 0
M  V30 3918 C 365.53 -1.60847 0.414403 0
M  V30 3919 O 366.715 -1.80058 0.631171 0
M  V30 3920 C 363.855 -3.075 1.56646 0
M  V30 3921 C 362.968 -3.2644 2.82951 0
M  V30 3922 C 362.103 -4.55026 2.7409 0
M  V30 3923 C 361.142 -4.6731 3.95333 0
M  V30 3924 N 360.279 -5.87221 3.84858 0
M  V30 3925 H 365.119 -1.59464 2.51744 0
M  V30 3926 H 362.656 -0.777186 1.24893 0
M  V30 3927 H 364.614 -3.8757 1.5442 0
M  V30 3928 H 363.244 -3.16096 0.654439 0
M  V30 3929 H 362.296 -2.39974 2.95155 0
M  V30 3930 H 363.608 -3.31385 3.72808 0
M  V30 3931 H 362.762 -5.43324 2.6997 0
M  V30 3932 H 361.501 -4.52519 1.81873 0
M  V30 3933 H 360.506 -3.77429 3.99784 0
M  V30 3934 H 361.731 -4.71595 4.88646 0
M  V30 3935 H 359.677 -5.85712 2.95427 0
M  V30 3936 H 359.594 -5.93435 4.6837 0
M  V30 3937 H 360.862 -6.7795 3.84713 0
M  V30 3938 N 365.091 -1.34144 -0.827227 0
M  V30 3939 C 366.023 -1.21206 -1.9453 0
M  V30 3940 C 367.036 -0.140176 -1.62195 0
M  V30 3941 O 368.225 -0.391647 -1.7415 0
M  V30 3942 C 365.325 -0.839141 -3.28347 0
M  V30 3943 C 364.498 -2.0051 -3.88734 0
M  V30 3944 C 363.557 -1.61128 -5.00923 0
M  V30 3945 O 362.583 -2.32726 -5.19449 0
M  V30 3946 N 363.785 -0.522958 -5.7814 0
M  V30 3947 H 366.55 -2.17525 -2.06162 0
M  V30 3948 H 364.111 -1.27043 -1.00358 0
M  V30 3949 H 366.103 -0.557556 -4.00841 0
M  V30 3950 H 364.673 0.0337293 -3.12582 0
M  V30 3951 H 363.893 -2.45166 -3.08686 0
M  V30 3952 H 365.181 -2.78498 -4.25812 0
M  V30 3953 H 364.579 0.0723518 -5.65654 0
M  V30 3954 H 363.136 -0.301089 -6.51104 0
M  V30 3955 N 366.569 1.04691 -1.17803 0
M  V30 3956 C 367.98 1.59238 -0.974689 0
M  V30 3957 C 368.331 1.90306 0.477292 0
M  V30 3958 O 367.456 1.68846 1.35352 0
M  V30 3959 C 368.051 2.89318 -1.76296 0
M  V30 3960 C 366.61 3.40506 -1.60414 0
M  V30 3961 C 365.757 2.14172 -1.76141 0
M  V30 3962 H 368.708 0.874395 -1.32439 0
M  V30 3963 H 368.729 3.5944 -1.24833 0
M  V30 3964 H 368.241 2.66675 -2.81968 0
M  V30 3965 H 366.342 3.68175 -0.572519 0
M  V30 3966 H 366.455 4.14753 -2.39827 0
M  V30 3967 H 364.819 2.25176 -1.19028 0
M  V30 3968 H 365.602 1.93992 -2.83235 0
M  V30 3969 N 368.047 0.979072 1.23499 0
M  V30 3970 C 368.994 0.517904 2.24914 0
M  V30 3971 C 369.964 -0.442525 1.60097 0
M  V30 3972 O 371.149 -0.350365 1.87556 0
M  V30 3973 C 368.289 -0.174813 3.44657 0
M  V30 3974 C 367.402 0.825721 4.24035 0
M  V30 3975 C 366.537 0.107946 5.3109 0
M  V30 3976 C 365.576 1.09778 6.02175 0
M  V30 3977 N 364.713 0.40925 7.00906 0
M  V30 3978 H 369.553 1.38751 2.63727 0
M  V30 3979 H 367.09 0.695303 1.2963 0
M  V30 3980 H 369.048 -0.593233 4.12961 0
M  V30 3981 H 367.678 -1.0083 3.06648 0
M  V30 3982 H 366.73 1.36253 3.55161 0
M  V30 3983 H 368.042 1.58005 4.73113 0
M  V30 3984 H 367.196 -0.367904 6.05583 0
M  V30 3985 H 365.935 -0.678994 4.8295 0
M  V30 3986 H 364.94 1.5844 5.26476 0
M  V30 3987 H 366.165 1.88536 6.52404 0
M  V30 3988 H 364.111 -0.358506 6.5502 0
M  V30 3989 H 364.028 1.10226 7.47921 0
M  V30 3990 H 365.296 -0.0442557 7.79487 0
M  V30 3991 N 369.525 -1.3858 0.750561 0
M  V30 3992 C 370.472 -2.30483 0.120835 0
M  V30 3993 C 371.442 -1.50022 -0.712923 0
M  V30 3994 O 372.627 -1.78662 -0.669676 0
M  V30 3995 C 369.767 -3.36431 -0.768666 0
M  V30 3996 C 368.88 -4.31927 0.0793922 0
M  V30 3997 C 368.015 -5.24944 -0.81283 0
M  V30 3998 C 367.054 -6.12088 0.0390447 0
M  V30 3999 N 366.191 -6.97412 -0.809969 0
M  V30 4000 H 371.031 -2.83761 0.91015 0
M  V30 4001 H 368.568 -1.39707 0.460463 0
M  V30 4002 H 370.526 -3.96462 -1.29898 0
M  V30 4003 H 369.156 -2.8457 -1.5238 0
M  V30 4004 H 368.208 -3.73382 0.727303 0
M  V30 4005 H 369.52 -4.93319 0.737401 0
M  V30 4006 H 368.674 -5.90078 -1.41042 0
M  V30 4007 H 367.413 -4.63911 -1.50458 0
M  V30 4008 H 366.418 -5.45952 0.649328 0
M  V30 4009 H 367.643 -6.75189 0.727809 0
M  V30 4010 H 365.589 -6.38931 -1.48672 0
M  V30 4011 H 365.506 -7.55712 -0.208789 0
M  V30 4012 H 366.774 -7.66959 -1.39263 0
M  V30 4013 N 371.003 -0.499398 -1.49478 0
M  V30 4014 C 372.231 0.0425456 -2.06856 0
M  V30 4015 C 372.646 1.30964 -1.35992 0
M  V30 4016 O 372.003 1.77172 -0.437762 0
M  V30 4017 C 372.054 0.301735 -3.60239 0
M  V30 4018 O 371.775 -0.915127 -4.28436 0
M  V30 4019 C 373.276 0.887499 -4.34325 0
M  V30 4020 H 370.496 -0.0197482 -0.670709 0
M  V30 4021 H 373.04 -0.696297 -1.92281 0
M  V30 4022 H 371.195 0.990556 -3.74522 0
M  V30 4023 H 371.609 -0.676993 -5.20113 0
M  V30 4024 H 373.083 1.01845 -5.42523 0
M  V30 4025 H 373.56 1.88488 -3.96698 0
M  V30 4026 H 374.166 0.236196 -4.24644 0
M  V30 4027 N 372.481 1.55866 -0.233164 0
M  V30 4028 C 373.429 2.22176 0.68851 0
M  V30 4029 C 374.423 1.20487 1.19076 0
M  V30 4030 O 375.629 1.38536 1.14925 0
M  V30 4031 H 372.004 0.712511 0.240483 0
M  V30 4032 H 373.975 2.98212 0.105935 0
M  V30 4033 C 372.724 2.92446 1.88071 0
M  V30 4034 H 372.047 3.70458 1.50337 0
M  V30 4035 H 373.487 3.42226 2.50314 0
M  V30 4036 C 371.946 1.95555 2.74335 0
M  V30 4037 O 372.476 1.47986 3.73447 0
M  V30 4038 N 370.682 1.62953 2.40613 0
M  V30 4039 H 370.229 2.01831 1.60069 0
M  V30 4040 H 370.187 0.983886 2.98609 0
M  V30 4041 N 373.959 -0.0401083 1.57549 0
M  V30 4042 C 375.37 -0.588097 1.77196 0
M  V30 4043 C 375.721 -1.76209 0.862832 0
M  V30 4044 O 374.846 -2.16331 0.0548389 0
M  V30 4045 C 375.441 -1.07363 3.21339 0
M  V30 4046 C 374 -1.56723 3.42221 0
M  V30 4047 C 373.147 -0.50041 2.72747 0
M  V30 4048 H 376.098 0.186119 1.57605 0
M  V30 4049 H 376.119 -1.94143 3.27244 0
M  V30 4050 H 375.631 -0.218975 3.87482 0
M  V30 4051 H 373.732 -2.4441 2.81237 0
M  V30 4052 H 373.845 -1.62234 4.50796 0
M  V30 4053 H 372.209 -0.952894 2.36203 0
M  V30 4054 H 372.992 0.344599 3.41566 0
M  V30 4055 N 375.437 -1.54477 -0.31217 0
M  V30 4056 C 376.367 -1.87652 -1.38957 0
M  V30 4057 C 377.348 -0.734358 -1.53431 0
M  V30 4058 O 378.533 -0.98911 -1.67123 0
M  V30 4059 C 375.663 -2.11396 -2.75552 0
M  V30 4060 C 374.617 -3.27243 -2.75855 0
M  V30 4061 C 373.943 -3.36382 -4.15633 0
M  V30 4062 C 375.243 -4.64622 -2.38587 0
M  V30 4063 H 376.937 -2.77887 -1.11442 0
M  V30 4064 H 374.483 -1.33707 -0.534655 0
M  V30 4065 H 376.436 -2.33189 -3.51 0
M  V30 4066 H 375.16 -1.17921 -3.04569 0
M  V30 4067 H 373.819 -3.05356 -2.02863 0
M  V30 4068 H 373.467 -2.40445 -4.41809 0
M  V30 4069 H 373.167 -4.14249 -4.1674 0
M  V30 4070 H 374.691 -3.60422 -4.92877 0
M  V30 4071 H 376.105 -4.86219 -3.03749 0
M  V30 4072 H 374.502 -5.45121 -2.50925 0
M  V30 4073 H 375.572 -4.66097 -1.33723 0
M  V30 4074 N 376.915 0.57481 -1.46744 0
M  V30 4075 C 378.192 1.3352 -1.4294 0
M  V30 4076 C 378.572 2.10775 -0.117009 0
M  V30 4077 O 377.92 2.09966 0.901474 0
M  V30 4078 C 378.13 2.25456 -2.66403 0
M  V30 4079 C 379.478 2.87035 -3.12883 0
M  V30 4080 O 380.502 2.35766 -2.67007 0
M  V30 4081 O 379.361 3.80179 -3.92589 0
M  V30 4082 H 376.455 0.600318 -0.568812 0
M  V30 4083 H 379.001 0.595171 -1.58921 0
M  V30 4084 H 377.773 1.67851 -3.53471 0
M  V30 4085 H 377.396 3.06785 -2.52921 0
M  V30 4086 N 378.394 1.34581 0.820102 0
M  V30 4087 C 379.324 1.29038 1.94606 0
M  V30 4088 C 380.305 0.1673 1.69275 0
M  V30 4089 O 381.49 0.360112 1.90832 0
M  V30 4090 C 378.62 1.04793 3.31113 0
M  V30 4091 C 377.574 2.13597 3.70891 0
M  V30 4092 C 376.9 1.74537 5.05412 0
M  V30 4093 C 378.2 3.55451 3.8269 0
M  V30 4094 H 379.894 2.23248 1.99501 0
M  V30 4095 H 377.44 1.0747 0.958449 0
M  V30 4096 H 379.393 0.995592 4.0947 0
M  V30 4097 H 378.117 0.0702565 3.26524 0
M  V30 4098 H 376.776 2.17905 2.9481 0
M  V30 4099 H 376.424 0.754226 4.97313 0
M  V30 4100 H 376.124 2.47361 5.32997 0
M  V30 4101 H 377.648 1.70803 5.86224 0
M  V30 4102 H 379.062 3.5354 4.51312 0
M  V30 4103 H 377.459 4.26922 4.21732 0
M  V30 4104 H 378.529 3.92587 2.84611 0
M  V30 4105 N 379.872 -1.04064 1.18357 0
M  V30 4106 C 380.802 -2.14001 0.934113 0
M  V30 4107 C 381.783 -1.69616 -0.128186 0
M  V30 4108 O 382.968 -1.94185 0.0244093 0
M  V30 4109 C 380.098 -3.44253 0.459066 0
M  V30 4110 C 379.052 -4.02261 1.46185 0
M  V30 4111 C 378.378 -5.27992 0.844322 0
M  V30 4112 C 379.678 -4.38432 2.83856 0
M  V30 4113 H 381.372 -2.35127 1.85352 0
M  V30 4114 H 378.918 -1.12998 0.892604 0
M  V30 4115 H 380.871 -4.20522 0.271907 0
M  V30 4116 H 379.595 -3.22813 -0.495912 0
M  V30 4117 H 378.254 -3.28074 1.63595 0
M  V30 4118 H 377.902 -5.02862 -0.117845 0
M  V30 4119 H 377.602 -5.67765 1.51384 0
M  V30 4120 H 379.126 -6.06938 0.667693 0
M  V30 4121 H 380.54 -5.05688 2.70098 0
M  V30 4122 H 378.937 -4.89254 3.47491 0
M  V30 4123 H 380.007 -3.4826 3.37406 0
M  V30 4124 N 381.35 -0.985608 -1.22978 0
M  V30 4125 C 382.761 -0.693593 -1.73338 0
M  V30 4126 C 383.112 0.789935 -1.79595 0
M  V30 4127 O 382.237 1.61771 -1.43733 0
M  V30 4128 C 382.832 -1.25235 -3.14804 0
M  V30 4129 C 381.391 -1.00987 -3.626 0
M  V30 4130 C 380.538 -1.37695 -2.40698 0
M  V30 4131 H 383.489 -1.15884 -1.08428 0
M  V30 4132 H 383.51 -0.627329 -3.75293 0
M  V30 4133 H 383.022 -2.33209 -3.10218 0
M  V30 4134 H 381.123 0.0535565 -3.72562 0
M  V30 4135 H 381.236 -1.66812 -4.49122 0
M  V30 4136 H 379.6 -0.795459 -2.4196 0
M  V30 4137 H 380.383 -2.46657 -2.38779 0
M  V30 4138 N 382.828 1.3818 -0.7579 0
M  V30 4139 C 384.239 1.82726 -0.383134 0
M  V30 4140 C 384.59 1.63214 1.08884 0
M  V30 4141 O 383.715 1.13566 1.84205 0
M  V30 4142 C 384.31 3.31728 -0.688631 0
M  V30 4143 C 382.869 3.74606 -0.367091 0
M  V30 4144 C 382.016 2.60896 -0.939599 0
M  V30 4145 H 384.967 1.26847 -0.953699 0
M  V30 4146 H 384.988 3.80487 0.0316492 0
M  V30 4147 H 384.5 3.45898 -1.76001 0
M  V30 4148 H 382.601 3.66013 0.697532 0
M  V30 4149 H 382.714 4.71215 -0.865658 0
M  V30 4150 H 381.078 2.52075 -0.3647 0
M  V30 4151 H 381.861 2.77864 -2.0161 0
M  V30 4152 N 384.306 0.507319 1.49211 0
M  V30 4153 C 385.531 -0.033725 2.07373 0
M  V30 4154 C 385.956 -1.29485 1.36437 0
M  V30 4155 O 385.314 -1.76294 0.423087 0
M  V30 4156 C 385.362 -0.263945 3.59633 0
M  V30 4157 O 384.466 -1.33737 3.90113 0
M  V30 4158 H 383.807 0.0290331 0.663365 0
M  V30 4159 H 386.337 0.708749 1.91932 0
M  V30 4160 H 386.347 -0.493536 4.05004 0
M  V30 4161 H 385.022 0.657424 4.10671 0
M  V30 4162 H 383.599 -1.09224 3.56545 0
M  V30 4163 N 385.784 -1.5574 0.241426 0
M  V30 4164 C 386.732 -2.22538 -0.676718 0
M  V30 4165 C 387.726 -1.21117 -1.18436 0
M  V30 4166 O 388.932 -1.39144 -1.14188 0
M  V30 4167 H 385.307 -0.713776 -0.236701 0
M  V30 4168 H 387.278 -2.98264 -0.0901187 0
M  V30 4169 C 386.027 -2.93439 -1.86518 0
M  V30 4170 H 385.35 -3.7125 -1.4837 0
M  V30 4171 H 386.79 -3.43549 -2.48495 0
M  V30 4172 C 385.249 -1.97008 -2.73294 0
M  V30 4173 O 385.779 -1.49965 -3.72657 0
M  V30 4174 N 383.985 -1.64227 -2.39745 0
M  V30 4175 H 383.532 -2.02677 -1.58996 0
M  V30 4176 H 383.49 -0.999708 -2.98083 0
M  V30 4177 N 387.262 0.0317525 -1.57568 0
M  V30 4178 C 388.509 0.723104 -1.89149 0
M  V30 4179 C 388.837 1.75504 -0.838377 0
M  V30 4180 O 388.092 1.95037 0.160982 0
M  V30 4181 C 388.391 1.43167 -3.27472 0
M  V30 4182 C 388.057 0.535972 -4.47703 0
M  V30 4183 C 386.719 0.289262 -4.8033 0
M  V30 4184 C 389.071 -0.0826125 -5.21135 0
M  V30 4185 C 386.399 -0.584853 -5.83778 0
M  V30 4186 C 388.751 -0.944414 -6.25511 0
M  V30 4187 C 387.415 -1.20061 -6.56614 0
M  V30 4188 H 386.685 0.264602 -0.692146 0
M  V30 4189 H 389.332 -0.0169496 -1.91492 0
M  V30 4190 H 387.637 2.24497 -3.21105 0
M  V30 4191 H 389.334 1.97209 -3.49155 0
M  V30 4192 H 385.924 0.738414 -4.22191 0
M  V30 4193 H 390.108 0.0950302 -4.96209 0
M  V30 4194 H 385.364 -0.79168 -6.06253 0
M  V30 4195 H 389.538 -1.43026 -6.81554 0
M  V30 4196 H 387.165 -1.87967 -7.36595 0
M  V30 4197 N 388.74 1.54641 0.303973 0
M  V30 4198 C 389.965 1.78092 1.06292 0
M  V30 4199 C 390.39 0.537342 1.80262 0
M  V30 4200 O 389.748 -0.511993 1.7392 0
M  V30 4201 C 389.796 2.98612 2.02147 0
M  V30 4202 O 388.9 2.71528 3.10397 0
M  V30 4203 H 388.241 0.589548 0.305497 0
M  V30 4204 H 390.771 2.01716 0.3423 0
M  V30 4205 H 390.781 3.265 2.44667 0
M  V30 4206 H 389.456 3.88785 1.47714 0
M  V30 4207 H 388.033 2.54648 2.72413 0
M  V30 4208 N 390.218 -0.567019 1.47046 0
M  V30 4209 C 391.148 -1.68482 1.61667 0
M  V30 4210 C 392.129 -1.6358 0.466418 0
M  V30 4211 O 393.314 -1.81354 0.694574 0
M  V30 4212 C 390.444 -3.07124 1.62148 0
M  V30 4213 C 389.398 -3.26867 2.76301 0
M  V30 4214 C 388.724 -4.66196 2.61849 0
M  V30 4215 C 390.024 -3.13186 4.17986 0
M  V30 4216 H 391.718 -1.56502 2.5524 0
M  V30 4217 H 389.264 -0.751486 1.22836 0
M  V30 4218 H 391.217 -3.8516 1.70968 0
M  V30 4219 H 389.941 -3.2004 0.651287 0
M  V30 4220 H 388.6 -2.51237 2.66975 0
M  V30 4221 H 388.248 -4.75898 1.62879 0
M  V30 4222 H 387.948 -4.80356 3.38425 0
M  V30 4223 H 389.472 -5.46379 2.72584 0
M  V30 4224 H 390.886 -3.81049 4.2834 0
M  V30 4225 H 389.283 -3.3886 4.95272 0
M  V30 4226 H 390.353 -2.10057 4.3704 0
M  V30 4227 N 391.696 -1.35014 -0.812953 0
M  V30 4228 C 392.973 -1.18502 -1.55617 0
M  V30 4229 C 393.353 0.238421 -2.09749 0
M  V30 4230 O 392.701 1.2411 -1.91857 0
M  V30 4231 C 392.911 -2.24783 -2.66971 0
M  V30 4232 C 394.259 -2.60268 -3.35478 0
M  V30 4233 O 395.283 -2.23648 -2.77236 0
M  V30 4234 O 394.142 -3.2321 -4.40678 0
M  V30 4235 H 391.236 -0.459984 -0.687272 0
M  V30 4236 H 393.782 -1.46677 -0.853464 0
M  V30 4237 H 392.554 -3.20284 -2.24798 0
M  V30 4238 H 392.177 -1.97841 -3.44884 0
M  V30 4239 N 393.175 1.03435 -1.18907 0
M  V30 4240 C 394.085 2.15075 -0.937015 0
M  V30 4241 C 395.101 1.73706 0.101085 0
M  V30 4242 O 396.277 2.01232 -0.0822948 0
M  V30 4243 C 393.342 3.43458 -0.473057 0
M  V30 4244 C 392.403 3.99172 -1.57989 0
M  V30 4245 C 391.636 5.21427 -1.13797 0
M  V30 4246 O 391.859 5.704 0.000725941 0
M  V30 4247 O 390.793 5.69837 -1.9383 0
M  V30 4248 H 394.619 2.39198 -1.87131 0
M  V30 4249 H 392.204 1.13506 -0.971427 0
M  V30 4250 H 394.086 4.20811 -0.222702 0
M  V30 4251 H 392.761 3.20793 0.432869 0
M  V30 4252 H 391.668 3.23178 -1.88433 0
M  V30 4253 H 393.001 4.2619 -2.46217 0
M  V30 4254 N 394.653 0.992116 1.22453 0
M  V30 4255 C 395.899 0.678177 1.91761 0
M  V30 4256 C 396.254 -0.781141 1.75829 0
M  V30 4257 O 395.547 -1.55747 1.11595 0
M  V30 4258 C 395.741 1.01832 3.42586 0
M  V30 4259 C 395.57 2.50916 3.73191 0
M  V30 4260 C 394.34 3.17308 3.93248 0
M  V30 4261 C 396.538 3.49032 3.77732 0
M  V30 4262 N 394.52 4.55876 4.11157 0
M  V30 4263 C 395.891 4.73055 4.00773 0
M  V30 4264 C 397.946 3.43349 3.60577 0
M  V30 4265 C 396.649 5.92089 4.0844 0
M  V30 4266 C 398.675 4.61759 3.69503 0
M  V30 4267 C 398.037 5.84582 3.92993 0
M  V30 4268 H 394.136 0.299425 0.722405 0
M  V30 4269 H 396.72 1.27197 1.47408 0
M  V30 4270 H 394.891 0.453118 3.85748 0
M  V30 4271 H 396.623 0.660454 3.99274 0
M  V30 4272 H 393.378 2.67778 3.9063 0
M  V30 4273 H 393.802 5.27748 4.24042 0
M  V30 4274 H 398.444 2.49408 3.41402 0
M  V30 4275 H 396.162 6.86435 4.26418 0
M  V30 4276 H 399.748 4.58951 3.57569 0
M  V30 4277 H 398.628 6.74676 3.99728 0
M  V30 4278 N 396.131 -1.37776 0.765217 0
M  V30 4279 C 397.078 -2.30342 0.145274 0
M  V30 4280 C 398.048 -1.5077 -0.696971 0
M  V30 4281 O 399.233 -1.79362 -0.650689 0
M  V30 4282 C 396.373 -3.37227 -0.732939 0
M  V30 4283 C 395.486 -4.31819 0.125199 0
M  V30 4284 C 394.621 -5.25777 -0.757107 0
M  V30 4285 C 393.66 -6.12012 0.103963 0
M  V30 4286 N 392.797 -6.98232 -0.735953 0
M  V30 4287 H 397.637 -2.8278 0.940195 0
M  V30 4288 H 395.174 -1.39211 0.475255 0
M  V30 4289 H 397.132 -3.97818 -1.25686 0
M  V30 4290 H 395.762 -2.86171 -1.49353 0
M  V30 4291 H 394.814 -3.7259 0.766865 0
M  V30 4292 H 396.126 -4.92509 0.789683 0
M  V30 4293 H 395.28 -5.91541 -1.34776 0
M  V30 4294 H 394.019 -4.65481 -1.45529 0
M  V30 4295 H 393.024 -5.45233 0.707197 0
M  V30 4296 H 394.249 -6.74379 0.799381 0
M  V30 4297 H 392.195 -6.40472 -1.41887 0
M  V30 4298 H 392.112 -7.55891 -0.128624 0
M  V30 4299 H 393.38 -7.68393 -1.31121 0
M  V30 4300 N 397.609 -0.515225 -1.4894 0
M  V30 4301 C 398.839 0.0205735 -2.0659 0
M  V30 4302 C 399.247 1.30064 -1.37405 0
M  V30 4303 O 398.59 1.78087 -0.450632 0
M  V30 4304 C 398.652 0.330124 -3.57981 0
M  V30 4305 C 398.316 -0.854295 -4.48944 0
M  V30 4306 C 399.313 -1.7487 -4.89609 0
M  V30 4307 C 396.998 -1.05712 -4.9105 0
M  V30 4308 C 398.992 -2.82996 -5.71132 0
M  V30 4309 C 396.679 -2.14154 -5.72347 0
M  V30 4310 C 397.677 -3.0263 -6.12294 0
M  V30 4311 O 397.365 -4.09198 -6.91962 0
M  V30 4312 H 397.097 -0.0236833 -0.675585 0
M  V30 4313 H 399.651 -0.715956 -1.92518 0
M  V30 4314 H 397.881 1.12044 -3.70112 0
M  V30 4315 H 399.57 0.806233 -3.97812 0
M  V30 4316 H 400.336 -1.60388 -4.57712 0
M  V30 4317 H 396.215 -0.377788 -4.59449 0
M  V30 4318 H 399.759 -3.52083 -6.02232 0
M  V30 4319 H 395.656 -2.28626 -6.03656 0
M  V30 4320 H 396.424 -4.06726 -7.10293 0
M  V30 4321 N 399.087 1.5561 -0.249682 0
M  V30 4322 C 400.034 2.21496 0.648694 0
M  V30 4323 C 401.004 1.17977 1.16921 0
M  V30 4324 O 402.189 1.46434 1.22318 0
M  V30 4325 C 399.329 2.92039 1.83868 0
M  V30 4326 C 398.442 4.10219 1.35442 0
M  V30 4327 C 397.577 4.6847 2.50419 0
M  V30 4328 C 396.616 5.78893 1.98869 0
M  V30 4329 N 395.753 6.31315 3.07223 0
M  V30 4330 H 400.593 2.97892 0.0801582 0
M  V30 4331 H 398.13 1.47074 0.0278031 0
M  V30 4332 H 400.088 3.31138 2.53778 0
M  V30 4333 H 398.718 2.18111 2.37965 0
M  V30 4334 H 397.77 3.76413 0.54928 0
M  V30 4335 H 399.082 4.89927 0.936649 0
M  V30 4336 H 398.236 5.10158 3.28366 0
M  V30 4337 H 396.975 3.87984 2.95499 0
M  V30 4338 H 395.98 5.3668 1.19393 0
M  V30 4339 H 397.205 6.61232 1.54755 0
M  V30 4340 H 395.151 5.53733 3.51732 0
M  V30 4341 H 395.068 7.06224 2.69784 0
M  V30 4342 H 396.336 6.77662 3.8522 0
M  V30 4343 N 400.565 -0.0233959 1.57583 0
M  V30 4344 C 401.812 -0.713063 1.8953 0
M  V30 4345 C 402.14 -1.75056 0.847673 0
M  V30 4346 O 401.395 -1.95119 -0.150636 0
M  V30 4347 C 401.694 -1.41428 3.28227 0
M  V30 4348 C 401.36 -0.512222 4.47981 0
M  V30 4349 C 400.022 -0.263785 4.80476 0
M  V30 4350 C 402.374 0.110248 5.21083 0
M  V30 4351 C 399.702 0.615804 5.83459 0
M  V30 4352 C 402.054 0.977573 6.25001 0
M  V30 4353 C 400.718 1.23542 6.55968 0
M  V30 4354 H 399.988 -0.260928 0.69354 0
M  V30 4355 H 402.635 0.0271047 1.91481 0
M  V30 4356 H 400.94 -2.22791 3.22291 0
M  V30 4357 H 402.637 -1.95355 3.50196 0
M  V30 4358 H 399.227 -0.716013 4.22577 0
M  V30 4359 H 403.411 -0.0687137 4.96252 0
M  V30 4360 H 398.667 0.82382 6.05824 0
M  V30 4361 H 402.841 1.46638 6.80786 0
M  V30 4362 H 400.468 1.91871 7.35588 0
M  V30 4363 N 402.043 -1.548 -0.295768 0
M  V30 4364 C 403.268 -1.78653 -1.05346 0
M  V30 4365 C 403.693 -0.546894 -1.79974 0
M  V30 4366 O 403.051 0.502763 -1.7419 0
M  V30 4367 C 403.099 -2.99679 -2.00561 0
M  V30 4368 O 402.203 -2.7317 -3.08953 0
M  V30 4369 H 401.544 -0.59116 -0.302367 0
M  V30 4370 H 404.074 -2.01895 -0.331598 0
M  V30 4371 H 404.084 -3.27793 -2.42932 0
M  V30 4372 H 402.759 -3.89562 -1.4565 0
M  V30 4373 H 401.336 -2.56089 -2.71059 0
M  V30 4374 N 403.521 0.559213 -1.47345 0
M  V30 4375 C 404.469 1.68747 -1.60085 0
M  V30 4376 C 405.463 1.628 -0.46825 0
M  V30 4377 O 406.669 1.68009 -0.645977 0
M  V30 4378 H 403.044 0.558329 -0.503759 0
M  V30 4379 H 405.015 1.55138 -2.54902 0
M  V30 4380 C 403.764 3.07103 -1.63042 0
M  V30 4381 H 403.087 3.12361 -2.49541 0
M  V30 4382 H 404.527 3.85743 -1.76006 0
M  V30 4383 C 402.986 3.34935 -0.363357 0
M  V30 4384 O 403.516 3.98102 0.536416 0
M  V30 4385 N 401.722 2.89574 -0.244 0
M  V30 4386 H 401.269 2.38348 -0.977133 0
M  V30 4387 H 401.227 3.08566 0.602836 0
M  V30 4388 N 404.999 1.35443 0.805782 0
M  V30 4389 C 405.909 1.30546 1.94923 0
M  V30 4390 C 406.925 0.210233 1.72725 0
M  V30 4391 O 408.101 0.43975 1.9654 0
M  V30 4392 C 405.166 1.07782 3.29521 0
M  V30 4393 C 404.227 2.26625 3.64609 0
M  V30 4394 C 403.46 2.04938 4.92784 0
M  V30 4395 O 403.683 1.01624 5.61274 0
M  V30 4396 O 402.617 2.9232 5.26149 0
M  V30 4397 H 406.443 2.26779 2.02002 0
M  V30 4398 H 404.028 1.15823 0.943682 0
M  V30 4399 H 405.91 0.969392 4.10098 0
M  V30 4400 H 404.585 0.146003 3.23371 0
M  V30 4401 H 403.492 2.43033 2.84404 0
M  V30 4402 H 404.825 3.18257 3.75464 0
M  V30 4403 N 406.477 -1.02803 1.19454 0
M  V30 4404 C 407.424 -2.11099 0.933046 0
M  V30 4405 C 408.394 -1.65571 -0.132447 0
M  V30 4406 O 409.579 -1.90797 0.00987576 0
M  V30 4407 C 406.719 -3.41763 0.478747 0
M  V30 4408 C 405.832 -4.00833 1.6111 0
M  V30 4409 C 404.967 -5.19511 1.10825 0
M  V30 4410 C 404.006 -5.70639 2.21445 0
M  V30 4411 N 403.143 -6.80589 1.72461 0
M  V30 4412 H 407.983 -2.32804 1.86028 0
M  V30 4413 H 405.52 -1.14179 0.927441 0
M  V30 4414 H 407.478 -4.16736 0.196745 0
M  V30 4415 H 406.108 -3.20166 -0.411493 0
M  V30 4416 H 405.16 -3.23066 2.00829 0
M  V30 4417 H 406.472 -4.34794 2.4445 0
M  V30 4418 H 405.626 -6.01645 0.781533 0
M  V30 4419 H 404.365 -4.87086 0.244606 0
M  V30 4420 H 403.37 -4.87116 2.54947 0
M  V30 4421 H 404.595 -6.05102 3.08267 0
M  V30 4422 H 402.541 -6.50016 0.884056 0
M  V30 4423 H 402.458 -7.13681 2.49389 0
M  V30 4424 H 403.726 -7.66317 1.42755 0
M  V30 4425 N 407.956 -0.998596 -1.21925 0
M  V30 4426 C 409.233 -0.593401 -1.86382 0
M  V30 4427 C 409.613 0.92916 -1.89552 0
M  V30 4428 O 408.961 1.81347 -1.39017 0
M  V30 4429 C 409.171 -1.22039 -3.26967 0
M  V30 4430 C 410.519 -1.32449 -4.03413 0
M  V30 4431 O 411.543 -1.17522 -3.36254 0
M  V30 4432 O 410.402 -1.56395 -5.23644 0
M  V30 4433 H 407.496 -0.202385 -0.801854 0
M  V30 4434 H 410.042 -1.09484 -1.29659 0
M  V30 4435 H 408.814 -2.26158 -3.19325 0
M  V30 4436 H 408.437 -0.704906 -3.91301 0
M  V30 4437 N 409.434 1.37368 -0.772513 0
M  V30 4438 C 410.364 2.32856 -0.173304 0
M  V30 4439 C 411.345 1.55818 0.682262 0
M  V30 4440 O 412.53 1.84052 0.619566 0
M  V30 4441 C 409.66 3.40048 0.706007 0
M  V30 4442 C 408.614 4.27973 -0.0483144 0
M  V30 4443 C 407.94 5.26184 0.950491 0
M  V30 4444 C 409.24 5.07665 -1.22776 0
M  V30 4445 H 410.934 2.83217 -0.971002 0
M  V30 4446 H 408.48 1.3617 -0.468377 0
M  V30 4447 H 410.433 4.05827 1.13501 0
M  V30 4448 H 409.157 2.88214 1.53623 0
M  V30 4449 H 407.816 3.63726 -0.458107 0
M  V30 4450 H 407.464 4.7063 1.77529 0
M  V30 4451 H 407.164 5.85872 0.450314 0
M  V30 4452 H 408.688 5.94838 1.37842 0
M  V30 4453 H 410.102 5.66578 -0.875366 0
M  V30 4454 H 408.499 5.76681 -1.66007 0
M  V30 4455 H 409.569 4.40294 -2.03149 0
M  V30 4456 N 410.912 0.523116 1.48665 0
M  V30 4457 C 411.842 -0.23231 2.32342 0
M  V30 4458 C 412.823 -0.941637 1.41659 0
M  V30 4459 O 414.008 -0.928751 1.70552 0
M  V30 4460 C 411.138 -1.28387 3.22698 0
M  V30 4461 C 410.092 -0.693098 4.22351 0
M  V30 4462 C 409.418 -1.8468 5.01794 0
M  V30 4463 C 410.718 0.33063 5.21252 0
M  V30 4464 H 412.412 0.466192 2.95748 0
M  V30 4465 H 409.958 0.225643 1.42221 0
M  V30 4466 H 411.911 -1.82024 3.80059 0
M  V30 4467 H 410.635 -2.01186 2.57278 0
M  V30 4468 H 409.294 -0.178299 3.66166 0
M  V30 4469 H 408.942 -2.56301 4.32804 0
M  V30 4470 H 408.642 -1.45747 5.69238 0
M  V30 4471 H 410.166 -2.38709 5.62006 0
M  V30 4472 H 411.58 -0.118407 5.73178 0
M  V30 4473 H 409.977 0.636974 5.9671 0
M  V30 4474 H 411.047 1.23883 4.68808 0
M  V30 4475 N 412.39 -1.55475 0.257931 0
M  V30 4476 C 413.338 -2.23244 -0.653076 0
M  V30 4477 C 414.332 -1.22366 -1.17144 0
M  V30 4478 O 415.538 -1.40347 -1.12706 0
M  V30 4479 H 411.913 -0.716247 -0.229117 0
M  V30 4480 H 413.884 -2.98343 -0.0584788 0
M  V30 4481 C 412.633 -2.95401 -1.83395 0
M  V30 4482 H 411.956 -3.72802 -1.44424 0
M  V30 4483 H 413.396 -3.46165 -2.44838 0
M  V30 4484 C 411.855 -1.99895 -2.71189 0
M  V30 4485 O 412.385 -1.53909 -3.71046 0
M  V30 4486 N 410.591 -1.6676 -2.3799 0
M  V30 4487 H 410.138 -2.04352 -1.56837 0
M  V30 4488 H 410.096 -1.03127 -2.97005 0
M  V30 4489 N 413.868 0.0150385 -1.57593 0
M  V30 4490 C 414.816 1.02958 -2.08572 0
M  V30 4491 C 415.81 1.36554 -1.00246 0
M  V30 4492 O 417.016 1.35295 -1.18724 0
M  V30 4493 H 413.391 0.349619 -0.665786 0
M  V30 4494 H 415.362 0.573932 -2.92829 0
M  V30 4495 C 414.111 2.31752 -2.59203 0
M  V30 4496 H 413.434 2.06765 -3.42182 0
M  V30 4497 H 414.874 3.01053 -2.98568 0
M  V30 4498 C 413.333 3.01692 -1.49945 0
M  V30 4499 O 413.863 3.92083 -0.873704 0
M  V30 4500 N 412.069 2.6326 -1.23056 0
M  V30 4501 H 411.616 1.89838 -1.74125 0
M  V30 4502 H 411.574 3.10372 -0.501685 0
M  V30 4503 N 415.346 1.54954 0.287554 0
M  V30 4504 C 416.309 1.86076 1.33823 0
M  V30 4505 C 417.309 0.734414 1.43049 0
M  V30 4506 O 418.499 1.00266 1.42452 0
M  V30 4507 C 415.631 2.05305 2.72144 0
M  V30 4508 H 416.824 2.79984 1.07465 0
M  V30 4509 H 414.377 1.47223 0.524902 0
M  V30 4510 H 415.112 1.1373 3.03704 0
M  V30 4511 H 414.897 2.873 2.66836 0
M  V30 4512 H 416.387 2.30706 3.48087 0
M  V30 4513 N 416.824 -0.551391 1.4764 0
M  V30 4514 C 417.757 -1.6738 1.5511 0
M  V30 4515 C 418.735 -1.5753 0.402856 0
M  V30 4516 O 419.919 -1.78307 0.611475 0
M  V30 4517 C 417.046 -3.05661 1.45908 0
M  V30 4518 C 416.092 -3.33938 2.65307 0
M  V30 4519 S 416.925 -3.22553 4.27457 0
M  V30 4520 C 418.081 -4.63317 4.20818 0
M  V30 4521 H 418.314 -1.6079 2.50068 0
M  V30 4522 H 415.847 -0.732674 1.35909 0
M  V30 4523 H 417.805 -3.8542 1.41286 0
M  V30 4524 H 416.466 -3.09711 0.523248 0
M  V30 4525 H 415.659 -4.34761 2.54948 0
M  V30 4526 H 415.261 -2.61809 2.67081 0
M  V30 4527 H 417.553 -5.54391 3.89431 0
M  V30 4528 H 418.496 -4.78732 5.21748 0
M  V30 4529 H 418.904 -4.41636 3.51593 0
M  V30 4530 N 418.302 -1.35869 -0.798587 0
M  V30 4531 C 419.713 -1.26498 -1.37314 0
M  V30 4532 C 420.064 0.0991899 -1.95949 0
M  V30 4533 O 419.189 1.0004 -1.91888 0
M  V30 4534 C 419.784 -2.29054 -2.49639 0
M  V30 4535 C 418.343 -2.234 -3.02935 0
M  V30 4536 C 417.49 -2.14329 -1.75949 0
M  V30 4537 H 420.441 -1.46881 -0.600971 0
M  V30 4538 H 420.462 -1.92166 -3.28409 0
M  V30 4539 H 419.974 -3.2833 -2.06933 0
M  V30 4540 H 418.075 -1.27562 -3.50084 0
M  V30 4541 H 418.188 -3.15703 -3.60372 0
M  V30 4542 H 416.552 -1.60435 -1.9782 0
M  V30 4543 H 417.335 -3.15477 -1.35384 0
M  V30 4544 N 419.78 1.02168 -1.19998 0
M  V30 4545 C 420.73 2.08969 -0.911921 0
M  V30 4546 C 421.714 1.60404 0.12621 0
M  V30 4547 O 422.906 1.76817 -0.0804706 0
M  V30 4548 C 420.035 3.402 -0.460277 0
M  V30 4549 C 419.121 3.9548 -1.53155 0
M  V30 4550 N 419.512 4.24332 -2.75275 0
M  V30 4551 C 417.81 4.23572 -1.39653 0
M  V30 4552 C 418.511 4.68834 -3.44339 0
M  V30 4553 N 417.487 4.70804 -2.71744 0
M  V30 4554 H 421.289 2.29178 -1.83997 0
M  V30 4555 H 418.803 1.20094 -1.09322 0
M  V30 4556 H 420.8 4.16235 -0.235337 0
M  V30 4557 H 419.46 3.21408 0.4612 0
M  V30 4558 H 420.471 4.13393 -3.11973 0
M  V30 4559 H 417.148 4.14005 -0.539067 0
M  V30 4560 H 418.538 5.00019 -4.4881 0
M  V30 4561 N 421.258 1.00505 1.21394 0
M  V30 4562 C 422.505 0.687774 1.90462 0
M  V30 4563 C 422.833 -0.78147 1.7811 0
M  V30 4564 O 422.088 -1.58208 1.1519 0
M  V30 4565 C 422.387 1.0546 3.41486 0
M  V30 4566 C 422.053 2.51812 3.74034 0
M  V30 4567 C 420.715 2.91804 3.82628 0
M  V30 4568 C 423.067 3.46614 3.8924 0
M  V30 4569 C 420.395 4.2556 4.03876 0
M  V30 4570 C 422.747 4.80044 4.11995 0
M  V30 4571 C 421.411 5.19759 4.18816 0
M  V30 4572 H 420.681 0.251674 0.696951 0
M  V30 4573 H 423.328 1.26349 1.43903 0
M  V30 4574 H 421.633 0.397133 3.89782 0
M  V30 4575 H 423.33 0.786976 3.93202 0
M  V30 4576 H 419.92 2.1982 3.67936 0
M  V30 4577 H 424.104 3.16883 3.81967 0
M  V30 4578 H 419.36 4.55901 4.07387 0
M  V30 4579 H 423.534 5.53439 4.22704 0
M  V30 4580 H 421.161 6.23418 4.35033 0
M  V30 4581 N 422.737 -1.36956 0.779787 0
M  V30 4582 C 423.983 -2.00237 0.357324 0
M  V30 4583 C 424.338 -1.60787 -1.05666 0
M  V30 4584 O 423.631 -0.847836 -1.71821 0
M  V30 4585 C 423.825 -3.54585 0.447686 0
M  V30 4586 C 423.654 -4.09025 1.86891 0
M  V30 4587 C 422.424 -4.39612 2.49138 0
M  V30 4588 C 424.622 -4.29461 2.82963 0
M  V30 4589 N 422.604 -4.79816 3.82949 0
M  V30 4590 C 423.975 -4.72363 4.01588 0
M  V30 4591 C 426.03 -4.1161 2.80145 0
M  V30 4592 C 424.733 -4.99284 5.17791 0
M  V30 4593 C 426.759 -4.39672 3.95528 0
M  V30 4594 C 426.121 -4.82822 5.12896 0
M  V30 4595 H 422.22 -0.76148 0.177968 0
M  V30 4596 H 424.804 -1.6613 1.01533 0
M  V30 4597 H 422.975 -3.87982 -0.180184 0
M  V30 4598 H 424.707 -4.047 0.0023955 0
M  V30 4599 H 421.462 -4.28975 2.00693 0
M  V30 4600 H 421.886 -5.04216 4.51769 0
M  V30 4601 H 426.528 -3.77415 1.90572 0
M  V30 4602 H 424.246 -5.32365 6.07958 0
M  V30 4603 H 427.832 -4.27441 3.94697 0
M  V30 4604 H 426.712 -5.04118 6.00695 0
M  V30 4605 N 424.215 -0.530993 -1.48385 0
M  V30 4606 C 425.162 0.231223 -2.29639 0
M  V30 4607 C 426.132 0.932864 -1.37429 0
M  V30 4608 O 427.317 0.933692 -1.66394 0
M  V30 4609 C 424.457 1.27155 -3.2082 0
M  V30 4610 C 423.57 0.578655 -4.28107 0
M  V30 4611 C 422.705 1.602 -5.06467 0
M  V30 4612 C 421.744 0.892625 -6.05556 0
M  V30 4613 N 420.881 1.86157 -6.76971 0
M  V30 4614 H 425.721 -0.467848 -2.94305 0
M  V30 4615 H 423.258 -0.242556 -1.45086 0
M  V30 4616 H 425.216 1.88703 -3.72085 0
M  V30 4617 H 423.846 1.939 -2.58075 0
M  V30 4618 H 422.898 -0.150782 -3.80101 0
M  V30 4619 H 424.21 0.0217065 -4.98795 0
M  V30 4620 H 423.364 2.29173 -5.61751 0
M  V30 4621 H 422.103 2.19285 -4.35621 0
M  V30 4622 H 421.108 0.188829 -5.49476 0
M  V30 4623 H 422.333 0.307878 -6.78402 0
M  V30 4624 H 420.279 2.44147 -6.08875 0
M  V30 4625 H 420.196 1.35608 -7.43738 0
M  V30 4626 H 421.464 2.54325 -7.36844 0
M  V30 4627 N 425.693 1.55336 -0.266172 0
M  V30 4628 C 426.921 2.03801 0.356756 0
M  V30 4629 C 427.336 1.14485 1.50129 0
M  V30 4630 O 426.693 0.163121 1.8177 0
M  V30 4631 C 426.744 3.51455 0.846281 0
M  V30 4632 O 426.465 4.37371 -0.252663 0
M  V30 4633 C 427.966 4.15767 1.53794 0
M  V30 4634 H 425.186 0.665906 0.0825218 0
M  V30 4635 H 427.73 2.00636 -0.39566 0
M  V30 4636 H 425.885 3.55092 1.54881 0
M  V30 4637 H 426.299 5.24358 0.122173 0
M  V30 4638 H 427.773 5.20714 1.83198 0
M  V30 4639 H 428.25 3.63404 2.46646 0
M  V30 4640 H 428.856 4.16107 0.879488 0
M  V30 4641 N 427.171 -0.0066808 1.57599 0
M  V30 4642 C 428.401 -0.703066 1.94269 0
M  V30 4643 C 428.809 -1.68206 0.866222 0
M  V30 4644 O 428.152 -1.82966 -0.164087 0
M  V30 4645 C 428.214 -1.49616 3.26887 0
M  V30 4646 C 427.878 -0.679494 4.5192 0
M  V30 4647 C 428.875 0.0299508 5.19891 0
M  V30 4648 C 426.56 -0.627433 4.98366 0
M  V30 4649 C 428.554 0.780514 6.32603 0
M  V30 4650 C 426.241 0.126861 6.10968 0
M  V30 4651 C 427.239 0.829574 6.77943 0
M  V30 4652 O 426.927 1.57157 7.88389 0
M  V30 4653 H 426.659 -0.201217 0.645359 0
M  V30 4654 H 429.213 0.0385326 2.05364 0
M  V30 4655 H 427.443 -2.28209 3.12182 0
M  V30 4656 H 429.132 -2.07726 3.48719 0
M  V30 4657 H 429.898 -0.00115963 4.85 0
M  V30 4658 H 425.777 -1.16392 4.46065 0
M  V30 4659 H 429.321 1.32954 6.84813 0
M  V30 4660 H 425.218 0.159815 6.45302 0
M  V30 4661 H 425.986 1.48758 8.04868 0
M  V30 4662 N 428.649 -1.55105 -0.279332 0
M  V30 4663 C 429.926 -1.66119 -1.03267 0
M  V30 4664 C 430.306 -0.523525 -2.04505 0
M  V30 4665 O 429.654 0.477194 -2.23462 0
M  V30 4666 C 429.864 -3.05067 -1.69515 0
M  V30 4667 C 431.212 -3.62606 -2.20912 0
M  V30 4668 O 432.236 -3.07659 -1.79512 0
M  V30 4669 O 431.095 -4.58861 -2.96831 0
M  V30 4670 H 428.189 -0.674429 -0.478618 0
M  V30 4671 H 430.735 -1.67446 -0.275694 0
M  V30 4672 H 429.507 -3.79311 -0.9612 0
M  V30 4673 H 429.13 -3.07611 -2.51915 0
M  V30 4674 N 430.127 0.543554 -1.4793 0
M  V30 4675 C 431.538 1.12561 -1.48953 0
M  V30 4676 C 431.889 1.94578 -0.251754 0
M  V30 4677 O 431.014 2.0665 0.642255 0
M  V30 4678 C 431.609 2.04801 -2.69892 0
M  V30 4679 C 430.168 2.58251 -2.73831 0
M  V30 4680 C 429.315 1.34918 -2.42265 0
M  V30 4681 H 432.266 0.32947 -1.55242 0
M  V30 4682 H 432.287 2.88886 -2.47639 0
M  V30 4683 H 431.799 1.4508 -3.59963 0
M  V30 4684 H 429.9 3.21732 -1.87934 0
M  V30 4685 H 430.013 2.98312 -3.74895 0
M  V30 4686 H 428.377 1.66046 -1.93134 0
M  V30 4687 H 429.16 0.769693 -3.3456 0
M  V30 4688 N 431.605 1.3629 0.791371 0
M  V30 4689 C 432.553 1.30514 1.92533 0
M  V30 4690 C 433.547 0.197285 1.68247 0
M  V30 4691 O 434.753 0.364176 1.76278 0
M  V30 4692 H 431.128 0.406263 0.632815 0
M  V30 4693 H 433.099 2.26282 1.94523 0
M  V30 4694 C 431.848 1.10933 3.29529 0
M  V30 4695 H 431.171 1.95427 3.48781 0
M  V30 4696 H 432.611 1.10937 4.0923 0
M  V30 4697 C 431.07 -0.186123 3.36385 0
M  V30 4698 O 431.6 -1.17664 3.84081 0
M  V30 4699 N 429.806 -0.230128 2.89687 0
M  V30 4700 H 429.353 0.576545 2.51065 0
M  V30 4701 H 429.311 -1.09658 2.94657 0
M  V30 4702 N 433.083 -1.0153 1.20538 0
M  V30 4703 C 434.331 -1.74803 1.01432 0
M  V30 4704 C 434.652 -1.8963 -0.454456 0
M  V30 4705 O 433.922 -1.43975 -1.32846 0
M  V30 4706 H 432.502 -0.647598 0.372324 0
M  V30 4707 H 435.164 -1.22402 1.5167 0
M  V30 4708 H 434.26 -2.75114 1.47373 0
M  V30 4709 N 434.561 -1.01147 -1.20859 0
M  V30 4710 C 435.808 -0.697865 -1.90095 0
M  V30 4711 C 436.136 0.772014 -1.78522 0
M  V30 4712 O 435.391 1.57595 -1.16027 0
M  V30 4713 C 435.69 -1.0727 -3.40922 0
M  V30 4714 C 435.356 -2.53792 -3.72693 0
M  V30 4715 C 434.018 -2.93829 -3.81075 0
M  V30 4716 C 436.37 -3.48674 -3.87397 0
M  V30 4717 C 433.698 -4.27696 -4.01613 0
M  V30 4718 C 436.05 -4.82223 -4.09444 0
M  V30 4719 C 434.714 -5.21973 -4.16054 0
M  V30 4720 H 433.984 -0.255367 -0.695607 0
M  V30 4721 H 436.631 -1.27111 -1.43231 0
M  V30 4722 H 434.936 -0.417799 -3.89566 0
M  V30 4723 H 436.633 -0.807818 -3.92779 0
M  V30 4724 H 433.223 -2.21768 -3.66765 0
M  V30 4725 H 437.407 -3.18904 -3.80281 0
M  V30 4726 H 432.663 -4.58055 -4.04964 0
M  V30 4727 H 436.837 -5.55672 -4.19763 0
M  V30 4728 H 434.464 -6.25717 -4.31721 0
M  V30 4729 N 436.039 1.36541 -0.78704 0
M  V30 4730 C 437.264 2.0409 -0.369053 0
M  V30 4731 C 437.689 1.58957 1.00569 0
M  V30 4732 O 437.047 0.756926 1.64743 0
M  V30 4733 C 437.095 3.57924 -0.438466 0
M  V30 4734 O 436.199 4.08642 0.555479 0
M  V30 4735 H 435.54 0.645142 -0.157122 0
M  V30 4736 H 438.07 1.74545 -1.06749 0
M  V30 4737 H 438.08 4.06887 -0.301218 0
M  V30 4738 H 436.755 3.90127 -1.44132 0
M  V30 4739 H 435.332 3.70958 0.380088 0
M  V30 4740 N 437.518 0.538854 1.48102 0
M  V30 4741 C 438.448 -0.207654 2.32575 0
M  V30 4742 C 439.429 -0.926559 1.4265 0
M  V30 4743 O 440.614 -0.91061 1.71527 0
M  V30 4744 C 437.744 -1.24957 3.24042 0
M  V30 4745 C 436.698 -0.648263 4.23062 0
M  V30 4746 C 436.024 -1.79348 5.03725 0
M  V30 4747 C 437.324 0.385897 5.20872 0
M  V30 4748 H 439.018 0.497534 2.95237 0
M  V30 4749 H 436.564 0.240715 1.41974 0
M  V30 4750 H 438.517 -1.77983 3.81969 0
M  V30 4751 H 437.241 -1.98446 2.59397 0
M  V30 4752 H 435.9 -0.139452 3.66335 0
M  V30 4753 H 435.548 -2.51696 4.35498 0
M  V30 4754 H 435.248 -1.39702 5.70751 0
M  V30 4755 H 436.772 -2.32735 5.64506 0
M  V30 4756 H 438.186 -0.057607 5.73271 0
M  V30 4757 H 436.583 0.700227 5.96001 0
M  V30 4758 H 437.653 1.28848 4.67468 0
M  V30 4759 N 438.996 -1.55193 0.274407 0
M  V30 4760 C 440.226 -2.03692 -0.345442 0
M  V30 4761 C 440.634 -1.15224 -1.50067 0
M  V30 4762 O 439.977 -0.164749 -1.8296 0
M  V30 4763 C 440.039 -3.48325 -0.88939 0
M  V30 4764 C 439.703 -4.56794 0.137115 0
M  V30 4765 C 440.7 -5.11028 0.956378 0
M  V30 4766 C 438.385 -5.01568 0.27115 0
M  V30 4767 C 440.379 -6.08552 1.89587 0
M  V30 4768 C 438.066 -5.98918 1.21412 0
M  V30 4769 C 439.064 -6.52291 2.02498 0
M  V30 4770 O 438.752 -7.47738 2.952 0
M  V30 4771 H 438.484 -0.670893 -0.0829332 0
M  V30 4772 H 441.038 -2.01387 0.404056 0
M  V30 4773 H 439.268 -3.47867 -1.68895 0
M  V30 4774 H 440.957 -3.80167 -1.42225 0
M  V30 4775 H 441.723 -4.7725 0.863559 0
M  V30 4776 H 437.602 -4.5967 -0.349987 0
M  V30 4777 H 441.146 -6.50137 2.52918 0
M  V30 4778 H 437.043 -6.32114 1.30776 0
M  V30 4779 H 437.811 -7.65451 2.89874 0
M  V30 4780 N 440.474 -0.00167713 -1.576 0
M  V30 4781 C 441.704 0.692754 -1.94639 0
M  V30 4782 C 442.112 1.67744 -0.87513 0
M  V30 4783 O 441.455 1.8305 0.154382 0
M  V30 4784 C 441.517 1.47881 -3.27676 0
M  V30 4785 C 441.181 0.655518 -4.52274 0
M  V30 4786 C 442.178 -0.0575214 -5.19868 0
M  V30 4787 C 439.863 0.600994 -4.98692 0
M  V30 4788 C 441.857 -0.814052 -6.3218 0
M  V30 4789 C 439.544 -0.15926 -6.10892 0
M  V30 4790 C 440.542 -0.865515 -6.77494 0
M  V30 4791 O 440.23 -1.61336 -7.87544 0
M  V30 4792 H 439.962 0.197792 -0.646417 0
M  V30 4793 H 442.516 -0.049423 -2.05341 0
M  V30 4794 H 440.746 2.2655 -3.13388 0
M  V30 4795 H 442.435 2.05874 -3.49816 0
M  V30 4796 H 443.201 -0.0245611 -4.84994 0
M  V30 4797 H 439.08 1.14025 -4.46676 0
M  V30 4798 H 442.624 -1.36584 -6.84098 0
M  V30 4799 H 438.521 -0.194035 -6.45208 0
M  V30 4800 H 439.289 -1.53025 -8.04068 0
M  V30 4801 N 441.952 1.55251 0.271103 0
M  V30 4802 C 442.885 1.83191 1.36075 0
M  V30 4803 C 443.863 0.685091 1.47463 0
M  V30 4804 O 445.047 0.928292 1.64058 0
M  V30 4805 C 442.174 1.99521 2.73696 0
M  V30 4806 C 441.22 3.22081 2.79582 0
M  V30 4807 S 442.053 4.79388 2.38636 0
M  V30 4808 C 443.209 4.98693 3.78228 0
M  V30 4809 H 443.442 2.75327 1.12171 0
M  V30 4810 H 440.975 1.47046 0.470833 0
M  V30 4811 H 442.933 2.09613 3.52948 0
M  V30 4812 H 441.594 1.0827 2.9485 0
M  V30 4813 H 440.787 3.304 3.80594 0
M  V30 4814 H 440.389 3.10589 2.08352 0
M  V30 4815 H 442.681 4.84551 4.73515 0
M  V30 4816 H 443.624 6.00738 3.7486 0
M  V30 4817 H 444.032 4.26665 3.69618 0
M  V30 4818 N 443.43 -0.535701 1.48216 0
M  V30 4819 C 444.377 -1.64083 1.62312 0
M  V30 4820 C 445.347 -1.59448 0.465365 0
M  V30 4821 O 446.532 -1.77959 0.688135 0
M  V30 4822 C 443.672 -3.0236 1.66349 0
M  V30 4823 C 442.785 -3.17273 2.93193 0
M  V30 4824 C 441.92 -4.46075 2.88427 0
M  V30 4825 C 440.959 -4.54496 4.1 0
M  V30 4826 N 440.096 -5.7468 4.03345 0
M  V30 4827 H 444.936 -1.51374 2.5669 0
M  V30 4828 H 442.473 -0.737059 1.27302 0
M  V30 4829 H 444.431 -3.82461 1.66672 0
M  V30 4830 H 443.061 -3.13854 0.754672 0
M  V30 4831 H 442.113 -2.30462 3.02641 0
M  V30 4832 H 443.425 -3.19357 3.83162 0
M  V30 4833 H 442.579 -5.3446 2.87119 0
M  V30 4834 H 441.318 -4.46504 1.96177 0
M  V30 4835 H 440.323 -3.64519 4.11589 0
M  V30 4836 H 441.548 -4.5581 5.03402 0
M  V30 4837 H 439.494 -5.76017 3.13912 0
M  V30 4838 H 439.411 -5.78234 4.87013 0
M  V30 4839 H 440.679 -6.65367 4.06087 0
M  V30 4840 N 444.908 -1.36708 -0.784132 0
M  V30 4841 C 446.138 -1.34203 -1.57077 0
M  V30 4842 C 446.546 0.0774945 -1.89041 0
M  V30 4843 O 445.889 1.04628 -1.50992 0
M  V30 4844 C 445.951 -2.10351 -2.91535 0
M  V30 4845 C 445.615 -3.59405 -2.82272 0
M  V30 4846 C 446.612 -4.53545 -2.54151 0
M  V30 4847 C 444.297 -4.02362 -3.00683 0
M  V30 4848 C 446.291 -5.8862 -2.44551 0
M  V30 4849 C 443.978 -5.37526 -2.90704 0
M  V30 4850 C 444.976 -6.30468 -2.62677 0
M  V30 4851 O 444.664 -7.63149 -2.52702 0
M  V30 4852 H 444.396 -0.461791 -0.493685 0
M  V30 4853 H 446.95 -1.80475 -0.980712 0
M  V30 4854 H 445.18 -1.5875 -3.52612 0
M  V30 4855 H 446.869 -2.00636 -3.52845 0
M  V30 4856 H 447.635 -4.21669 -2.39625 0
M  V30 4857 H 443.514 -3.30389 -3.21503 0
M  V30 4858 H 447.058 -6.61133 -2.22596 0
M  V30 4859 H 442.955 -5.69008 -3.04795 0
M  V30 4860 H 443.723 -7.73331 -2.68144 0
M  V30 4861 N 446.386 1.0089 -1.21074 0
M  V30 4862 C 447.663 1.71834 -0.934469 0
M  V30 4863 C 448.043 2.0368 0.554753 0
M  V30 4864 O 447.391 1.70742 1.51854 0
M  V30 4865 C 447.601 2.98061 -1.8155 0
M  V30 4866 C 448.949 3.7117 -2.06199 0
M  V30 4867 O 449.973 3.08034 -1.78867 0
M  V30 4868 O 448.832 4.84721 -2.52404 0
M  V30 4869 H 445.926 0.749253 -0.35007 0
M  V30 4870 H 448.472 1.06668 -1.31985 0
M  V30 4871 H 447.244 2.70908 -2.82355 0
M  V30 4872 H 446.867 3.70968 -1.43068 0
M  V30 4873 N 447.864 1.01787 1.20321 0
M  V30 4874 C 448.811 0.589197 2.23153 0
M  V30 4875 C 449.781 -0.391367 1.61423 0
M  V30 4876 O 450.966 -0.290518 1.88575 0
M  V30 4877 C 448.106 -0.0650747 3.45039 0
M  V30 4878 C 447.219 0.960207 4.21194 0
M  V30 4879 C 446.354 0.276854 5.30478 0
M  V30 4880 C 445.393 1.2888 5.98378 0
M  V30 4881 N 444.53 0.632031 6.99249 0
M  V30 4882 H 449.37 1.47071 2.59179 0
M  V30 4883 H 446.907 0.736192 1.27352 0
M  V30 4884 H 448.865 -0.461552 4.14639 0
M  V30 4885 H 447.495 -0.910233 3.09701 0
M  V30 4886 H 446.547 1.47484 3.50646 0
M  V30 4887 H 447.859 1.72977 4.67847 0
M  V30 4888 H 447.013 -0.175056 6.06447 0
M  V30 4889 H 445.752 -0.525004 4.84866 0
M  V30 4890 H 444.757 1.75109 5.21169 0
M  V30 4891 H 445.982 2.09196 6.46076 0
M  V30 4892 H 443.928 -0.149935 6.55829 0
M  V30 4893 H 443.845 1.33964 7.44036 0
M  V30 4894 H 445.113 0.203755 7.79234 0
M  V30 4895 N 449.342 -1.36122 0.79427 0
M  V30 4896 C 450.272 -2.32551 0.210328 0
M  V30 4897 C 451.253 -1.56884 -0.657386 0
M  V30 4898 O 452.438 -1.85014 -0.590207 0
M  V30 4899 C 449.568 -3.41128 -0.651819 0
M  V30 4900 C 448.522 -4.27842 0.116395 0
M  V30 4901 C 447.848 -5.2763 -0.86666 0
M  V30 4902 C 449.148 -5.05647 1.30837 0
M  V30 4903 H 450.842 -2.81636 1.01594 0
M  V30 4904 H 448.388 -1.35407 0.489981 0
M  V30 4905 H 450.341 -4.07581 -1.07031 0
M  V30 4906 H 449.065 -2.90622 -1.49019 0
M  V30 4907 H 447.724 -3.62952 0.515915 0
M  V30 4908 H 447.372 -4.73395 -1.70019 0
M  V30 4909 H 447.072 -5.86514 -0.35705 0
M  V30 4910 H 448.596 -5.96955 -1.28361 0
M  V30 4911 H 450.01 -5.65113 0.965393 0
M  V30 4912 H 448.407 -5.73967 1.75161 0
M  V30 4913 H 449.477 -4.37006 2.10128 0
M  V30 4914 N 450.82 -0.546701 -1.47814 0
M  V30 4915 C 451.73 0.21026 -2.33656 0
M  V30 4916 C 452.746 0.922413 -1.47538 0
M  V30 4917 O 453.922 0.893652 -1.80488 0
M  V30 4918 C 450.987 1.23348 -3.24016 0
M  V30 4919 C 450.048 0.529883 -4.26017 0
M  V30 4920 C 449.281 1.50435 -5.12059 0
M  V30 4921 O 449.504 2.73837 -5.00369 0
M  V30 4922 O 448.438 1.03459 -5.92942 0
M  V30 4923 H 452.264 -0.493605 -2.99662 0
M  V30 4924 H 449.849 -0.307427 -1.46203 0
M  V30 4925 H 451.731 1.82438 -3.79861 0
M  V30 4926 H 450.406 1.91945 -2.60651 0
M  V30 4927 H 449.313 -0.101948 -3.73961 0
M  V30 4928 H 450.646 -0.11445 -4.92067 0
M  V30 4929 N 452.299 1.55045 -0.282633 0
M  V30 4930 C 453.576 1.9179 0.384166 0
M  V30 4931 C 453.956 1.20778 1.73136 0
M  V30 4932 O 453.304 0.33719 2.25998 0
M  V30 4933 C 453.514 3.45149 0.517014 0
M  V30 4934 C 454.862 4.17064 0.796427 0
M  V30 4935 O 455.886 3.51084 0.601535 0
M  V30 4936 O 454.745 5.33837 1.16962 0
M  V30 4937 H 451.839 0.799483 0.211558 0
M  V30 4938 H 454.385 1.66474 -0.32934 0
M  V30 4939 H 453.157 3.88922 -0.430772 0
M  V30 4940 H 452.78 3.76443 1.2797 0
M  V30 4941 N 453.777 0.010035 1.57597 0
M  V30 4942 C 454.687 -0.994226 2.12491 0
M  V30 4943 C 455.703 -1.37013 1.07254 0
M  V30 4944 O 456.879 -1.45542 1.3921 0
M  V30 4945 C 453.944 -2.2642 2.62555 0
M  V30 4946 C 453.005 -1.95049 3.82432 0
M  V30 4947 C 452.238 -3.15991 4.30099 0
M  V30 4948 O 452.461 -4.28015 3.7704 0
M  V30 4949 O 451.395 -2.99403 5.22151 0
M  V30 4950 H 455.221 -0.557549 2.98538 0
M  V30 4951 H 452.806 -0.209413 1.47925 0
M  V30 4952 H 454.688 -3.01009 2.9491 0
M  V30 4953 H 453.363 -2.69306 1.796 0
M  V30 4954 H 452.27 -1.17904 3.55034 0
M  V30 4955 H 453.603 -1.56992 4.66491 0
M  V30 4956 N 455.255 -1.55392 -0.262866 0
M  V30 4957 C 456.495 -1.78231 -1.00064 0
M  V30 4958 C 456.859 -0.576966 -1.83126 0
M  V30 4959 O 458.06 -0.683809 -2.59957 0
M  V30 4960 C 456.331 -3.05701 -1.85153 0
M  V30 4961 S 457.89 -3.49699 -2.65058 0
M  V30 4962 H 454.708 -0.626138 -0.336856 0
M  V30 4963 H 457.31 -1.93626 -0.27005 0
M  V30 4964 H 456.014 -3.91511 -1.23074 0
M  V30 4965 H 455.545 -2.93 -2.62515 0
M  V30 4966 H 457.56 -3.09772 -3.87629 0
M  V30 4967 N 456.733 0.527833 -1.48498 0
M  V30 4968 C 457.665 1.6482 -1.5927 0
M  V30 4969 C 458.678 1.55659 -0.476869 0
M  V30 4970 O 459.867 1.62081 -0.747806 0
M  V30 4971 C 456.967 3.0348 -1.50842 0
M  V30 4972 C 456.14 3.381 -2.77502 0
M  V30 4973 C 455.199 4.5605 -2.62497 0
M  V30 4974 O 454.225 4.59165 -3.36387 0
M  V30 4975 N 455.427 5.54353 -1.72257 0
M  V30 4976 H 458.192 1.56015 -2.55889 0
M  V30 4977 H 455.753 0.715152 -1.45249 0
M  V30 4978 H 457.745 3.80264 -1.38496 0
M  V30 4979 H 456.315 3.06352 -0.621887 0
M  V30 4980 H 455.535 2.50473 -3.04396 0
M  V30 4981 H 456.823 3.58017 -3.61527 0
M  V30 4982 H 456.221 5.54617 -1.11431 0
M  V30 4983 H 454.778 6.30347 -1.65849 0
M  V30 4984 N 458.211 1.37122 0.776871 0
M  V30 4985 C 459.46 1.31373 1.53049 0
M  V30 4986 C 459.773 -0.101016 1.95339 0
M  V30 4987 O 460.979 -0.280953 2.70042 0
M  V30 4988 C 459.435 2.30567 2.76346 0
M  V30 4989 C 459.043 3.77543 2.41175 0
M  V30 4990 C 460.787 2.33818 3.54301 0
M  V30 4991 C 458.694 4.68481 3.60943 0
M  V30 4992 H 457.624 0.488234 0.574581 0
M  V30 4993 H 460.275 1.62554 0.851372 0
M  V30 4994 H 458.657 1.92396 3.46121 0
M  V30 4995 H 459.831 4.24521 1.79216 0
M  V30 4996 H 458.146 3.77187 1.76405 0
M  V30 4997 H 460.743 2.98965 4.4331 0
M  V30 4998 H 461.086 1.3503 3.93793 0
M  V30 4999 H 461.619 2.7067 2.91518 0
M  V30 5000 H 458.358 5.68378 3.26537 0
M  V30 5001 H 457.878 4.2621 4.22025 0
M  V30 5002 H 459.557 4.85366 4.27819 0
M  V30 5003 N 459.689 -1.00246 1.21608 0
M  V30 5004 C 460.914 -1.78167 1.06167 0
M  V30 5005 C 461.339 -1.84138 -0.384035 0
M  V30 5006 O 460.697 -1.28683 -1.27712 0
M  V30 5007 C 460.745 -3.19786 1.66642 0
M  V30 5008 O 459.849 -4.02153 0.913613 0
M  V30 5009 H 459.19 -0.549 0.37349 0
M  V30 5010 H 461.72 -1.25994 1.61204 0
M  V30 5011 H 461.73 -3.70451 1.70969 0
M  V30 5012 H 460.405 -3.14754 2.7185 0
M  V30 5013 H 458.982 -3.60711 0.945635 0
M  V30 5014 N 461.167 -1.02423 -1.1978 0
M  V30 5015 C 462.414 -0.717988 -1.89344 0
M  V30 5016 C 462.742 0.753036 -1.79331 0
M  V30 5017 O 461.997 1.56355 -1.17692 0
M  V30 5018 C 462.296 -1.1088 -3.39765 0
M  V30 5019 C 461.962 -2.57731 -3.6998 0
M  V30 5020 C 460.624 -2.97854 -3.77937 0
M  V30 5021 C 462.976 -3.52763 -3.83677 0
M  V30 5022 C 460.304 -4.31931 -3.97054 0
M  V30 5023 C 462.656 -4.86538 -4.04306 0
M  V30 5024 C 461.32 -5.26356 -4.10494 0
M  V30 5025 H 460.59 -0.26273 -0.692859 0
M  V30 5026 H 463.237 -1.28623 -1.41875 0
M  V30 5027 H 461.542 -0.459094 -3.89101 0
M  V30 5028 H 463.239 -0.849432 -3.919 0
M  V30 5029 H 459.829 -2.25646 -3.64393 0
M  V30 5030 H 464.013 -3.2292 -3.76877 0
M  V30 5031 H 459.269 -4.62324 -4.00083 0
M  V30 5032 H 463.443 -5.60093 -4.13846 0
M  V30 5033 H 461.07 -6.3026 -4.2506 0
M  V30 5034 N 462.645 1.35699 -0.801477 0
M  V30 5035 C 463.891 1.99208 -0.380022 0
M  V30 5036 C 464.224 1.63445 1.04878 0
M  V30 5037 O 463.499 0.895223 1.72673 0
M  V30 5038 C 463.782 3.55755 -0.557708 0
M  V30 5039 C 463.635 4.01332 -2.03107 0
M  V30 5040 C 464.954 4.40096 0.0197968 0
M  V30 5041 H 462.073 0.723667 -0.139552 0
M  V30 5042 H 464.715 1.60928 -1.01006 0
M  V30 5043 H 462.865 3.88494 -0.0213741 0
M  V30 5044 H 464.537 3.79026 -2.62939 0
M  V30 5045 H 462.78 3.52429 -2.52936 0
M  V30 5046 H 463.451 5.10234 -2.1063 0
M  V30 5047 H 465.927 4.13786 -0.438179 0
M  V30 5048 H 464.803 5.48735 -0.134477 0
M  V30 5049 H 465.064 4.2786 1.11303 0
M  V30 5050 N 464.123 0.554532 1.47522 0
M  V30 5051 C 465.086 -0.184174 2.28459 0
M  V30 5052 C 466.086 -0.845195 1.36796 0
M  V30 5053 O 467.276 -0.701467 1.59452 0
M  V30 5054 C 464.408 -1.26903 3.16399 0
M  V30 5055 H 465.601 0.526751 2.95238 0
M  V30 5056 H 463.154 0.311375 1.53167 0
M  V30 5057 H 463.889 -2.01244 2.54306 0
M  V30 5058 H 463.674 -0.799883 3.83854 0
M  V30 5059 H 465.164 -1.78794 3.77389 0
M  V30 5060 N 465.601 -1.54893 0.290851 0
M  V30 5061 C 466.841 -2.01842 -0.322388 0
M  V30 5062 C 467.205 -1.17477 -1.51865 0
M  V30 5063 O 468.406 -1.54077 -2.20258 0
M  V30 5064 C 466.677 -3.50874 -0.679844 0
M  V30 5065 S 468.236 -4.19796 -1.27739 0
M  V30 5066 H 465.054 -0.704005 -0.0994866 0
M  V30 5067 H 467.656 -1.91015 0.416358 0
M  V30 5068 H 466.36 -4.09915 0.199435 0
M  V30 5069 H 465.891 -3.65717 -1.44964 0
M  V30 5070 H 467.906 -4.24729 -2.56554 0
M  V30 5071 N 467.08 -0.0183926 -1.57589 0
M  V30 5072 C 468.028 0.985111 -2.10709 0
M  V30 5073 C 469.022 1.34397 -1.0312 0
M  V30 5074 O 470.228 1.32746 -1.21567 0
M  V30 5075 H 466.603 0.335418 -0.673052 0
M  V30 5076 H 468.574 0.511689 -2.9398 0
M  V30 5077 C 467.323 2.26202 -2.64061 0
M  V30 5078 H 466.646 1.9946 -3.4649 0
M  V30 5079 H 468.086 2.94652 -3.04887 0
M  V30 5080 C 466.545 2.98444 -1.5631 0
M  V30 5081 O 467.075 3.90142 -0.956674 0
M  V30 5082 N 465.281 2.6059 -1.28612 0
M  V30 5083 H 464.828 1.86101 -1.78112 0
M  V30 5084 H 464.786 3.09238 -0.567406 0
M  V30 5085 N 468.558 1.5553 0.254621 0
M  V30 5086 C 469.491 1.84624 1.34124 0
M  V30 5087 C 470.469 0.700693 1.46728 0
M  V30 5088 O 471.653 0.94564 1.63064 0
M  V30 5089 C 468.78 2.02412 2.71564 0
M  V30 5090 C 467.826 3.25028 2.7615 0
M  V30 5091 S 468.659 4.81893 2.33538 0
M  V30 5092 C 469.815 5.02677 3.72917 0
M  V30 5093 H 470.048 2.76501 1.09245 0
M  V30 5094 H 467.581 1.47537 0.455211 0
M  V30 5095 H 469.539 2.13345 3.50705 0
M  V30 5096 H 468.2 1.11391 2.93685 0
M  V30 5097 H 467.393 3.34418 3.77069 0
M  V30 5098 H 466.995 3.12781 2.05046 0
M  V30 5099 H 469.287 4.89546 4.68349 0
M  V30 5100 H 470.23 6.0468 3.68467 0
M  V30 5101 H 470.638 4.30561 3.65072 0
M  V30 5102 N 470.036 -0.519951 1.48776 0
M  V30 5103 C 470.999 -1.60574 1.6355 0
M  V30 5104 C 471.999 -1.52557 0.508234 0
M  V30 5105 O 473.189 -1.56047 0.774262 0
M  V30 5106 C 470.321 -3.00211 1.61512 0
M  V30 5107 H 471.514 -1.4881 2.60376 0
M  V30 5108 H 469.067 -0.742772 1.37523 0
M  V30 5109 H 469.802 -3.17471 0.662009 0
M  V30 5110 H 469.587 -3.07439 2.43359 0
M  V30 5111 H 471.077 -3.79134 1.75064 0
M  V30 5112 N 471.514 -1.37532 -0.769588 0
M  V30 5113 C 472.762 -1.32597 -1.5252 0
M  V30 5114 C 473.083 0.0884294 -1.94799 0
M  V30 5115 O 472.353 1.03289 -1.66458 0
M  V30 5116 H 470.933 -0.487846 -0.565699 0
M  V30 5117 H 473.595 -1.72044 -0.915806 0
M  V30 5118 H 472.691 -1.96643 -2.42359 0
M  V30 5119 N 472.992 0.995999 -1.22138 0
M  V30 5120 C 474.24 1.73167 -1.042 0
M  V30 5121 C 474.561 1.90329 0.42423 0
M  V30 5122 O 473.831 1.4607 1.30539 0
M  V30 5123 H 472.411 0.641593 -0.38258 0
M  V30 5124 H 475.073 1.19974 -1.53598 0
M  V30 5125 H 474.169 2.72734 -1.51731 0
M  V30 5126 N 474.47 1.03057 1.19235 0
M  V30 5127 C 475.717 0.728019 1.88961 0
M  V30 5128 C 476.045 -0.743515 1.79728 0
M  V30 5129 O 475.3 -1.55729 1.1852 0
M  V30 5130 C 475.599 1.1268 3.39172 0
M  V30 5131 C 475.265 2.5969 3.68608 0
M  V30 5132 C 473.927 2.99854 3.76352 0
M  V30 5133 C 476.279 3.54793 3.81801 0
M  V30 5134 C 473.607 4.34031 3.94758 0
M  V30 5135 C 475.959 4.88675 4.0172 0
M  V30 5136 C 474.623 5.28526 4.07697 0
M  V30 5137 H 473.893 0.266401 0.691456 0
M  V30 5138 H 476.54 1.29373 1.41191 0
M  V30 5139 H 474.845 0.479722 3.88852 0
M  V30 5140 H 476.542 0.870203 3.91444 0
M  V30 5141 H 473.132 2.27575 3.63191 0
M  V30 5142 H 477.316 3.24914 3.7516 0
M  V30 5143 H 472.572 4.6444 3.97625 0
M  V30 5144 H 476.746 5.6228 4.1087 0
M  V30 5145 H 474.373 6.32506 4.21712 0
M  V30 5146 N 475.948 -1.35272 0.808662 0
M  V30 5147 C 476.878 -2.32315 0.234981 0
M  V30 5148 C 477.859 -1.57572 -0.64071 0
M  V30 5149 O 479.044 -1.8563 -0.570551 0
M  V30 5150 C 476.174 -3.41801 -0.615601 0
M  V30 5151 C 475.128 -4.27694 0.161767 0
M  V30 5152 C 474.454 -5.28519 -0.810649 0
M  V30 5153 C 475.754 -5.04231 1.36193 0
M  V30 5154 H 477.448 -2.80543 1.04575 0
M  V30 5155 H 474.994 -1.3488 0.504315 0
M  V30 5156 H 476.947 -4.08693 -1.02702 0
M  V30 5157 H 475.671 -2.92186 -1.45928 0
M  V30 5158 H 474.33 -3.62384 0.554382 0
M  V30 5159 H 473.978 -4.75171 -1.64988 0
M  V30 5160 H 473.678 -5.8686 -0.294822 0
M  V30 5161 H 475.202 -5.98283 -1.22023 0
M  V30 5162 H 476.616 -5.64058 1.02528 0
M  V30 5163 H 475.013 -5.72077 1.81239 0
M  V30 5164 H 476.083 -4.34753 2.14751 0
M  V30 5165 N 477.426 -0.562348 -1.47226 0
M  V30 5166 C 478.358 0.220011 -2.28142 0
M  V30 5167 C 479.371 0.874596 -1.37312 0
M  V30 5168 O 480.56 0.747583 -1.62091 0
M  V30 5169 C 477.66 1.32953 -3.11732 0
M  V30 5170 C 476.833 0.770759 -4.30556 0
M  V30 5171 C 475.892 1.76541 -4.95701 0
M  V30 5172 O 474.918 1.3095 -5.53932 0
M  V30 5173 N 476.12 3.09896 -4.90861 0
M  V30 5174 H 478.885 -0.474107 -2.95926 0
M  V30 5175 H 476.446 -0.398761 -1.56912 0
M  V30 5176 H 478.438 1.99378 -3.5218 0
M  V30 5177 H 477.008 1.92681 -2.46156 0
M  V30 5178 H 476.228 -0.0704056 -3.94137 0
M  V30 5179 H 477.516 0.376872 -5.07402 0
M  V30 5180 H 476.914 3.49577 -4.44761 0
M  V30 5181 H 475.471 3.71865 -5.35313 0
M  V30 5182 N 478.904 1.54736 -0.299062 0
M  V30 5183 C 480.32 1.59507 0.0543849 0
M  V30 5184 C 480.52 1.31606 1.52585 0
M  V30 5185 O 479.576 1.08853 2.27832 0
M  V30 5186 C 480.889 2.98751 -0.34181 0
M  V30 5187 C 482.437 3.1165 -0.290414 0
M  V30 5188 C 482.912 4.53199 -0.661402 0
M  V30 5189 N 484.403 4.59114 -0.613863 0
M  V30 5190 C 485.138 5.66709 -0.873417 0
M  V30 5191 N 484.634 6.82349 -1.19884 0
M  V30 5192 N 486.427 5.56369 -0.800608 0
M  V30 5193 H 478.578 1.71133 -1.25806 0
M  V30 5194 H 480.841 0.799186 -0.509908 0
M  V30 5195 H 480.547 3.24085 -1.36608 0
M  V30 5196 H 480.421 3.75961 0.305508 0
M  V30 5197 H 482.808 2.86066 0.724605 0
M  V30 5198 H 482.889 2.366 -0.972327 0
M  V30 5199 H 482.533 4.79513 -1.67422 0
M  V30 5200 H 482.463 5.26583 0.0425612 0
M  V30 5201 H 484.954 3.76053 -0.3732 0
M  V30 5202 H 485.267 7.60326 -1.38291 0
M  V30 5203 H 483.612 6.83906 -1.23685 0
M  V30 5204 H 486.803 4.64904 -0.546045 0
M  V30 5205 H 486.976 6.40139 -1.00626 0
M  V30 5206 N 480.382 0.0267497 1.57577 0
M  V30 5207 C 481.312 -0.954308 2.13108 0
M  V30 5208 C 482.293 -1.34088 1.04663 0
M  V30 5209 O 483.478 -1.41992 1.32484 0
M  V30 5210 C 480.608 -2.23744 2.65624 0
M  V30 5211 C 479.562 -1.99168 3.78835 0
M  V30 5212 C 478.888 -3.33726 4.17769 0
M  V30 5213 C 480.188 -1.33277 5.0501 0
M  V30 5214 H 481.882 -0.491848 2.95332 0
M  V30 5215 H 479.428 -0.23514 1.42067 0
M  V30 5216 H 481.381 -2.92754 3.03106 0
M  V30 5217 H 480.105 -2.72151 1.80558 0
M  V30 5218 H 478.764 -1.32577 3.41788 0
M  V30 5219 H 478.412 -3.79888 3.29688 0
M  V30 5220 H 478.112 -3.18089 4.94058 0
M  V30 5221 H 479.636 -4.04008 4.57832 0
M  V30 5222 H 481.05 -1.92283 5.40093 0
M  V30 5223 H 479.447 -1.28045 5.8628 0
M  V30 5224 H 480.517 -0.305411 4.83937 0
M  V30 5225 N 481.861 -1.55662 -0.24637 0
M  V30 5226 C 482.771 -1.93495 -1.32653 0
M  V30 5227 C 483.787 -0.835462 -1.5263 0
M  V30 5228 O 484.963 -1.1369 -1.66242 0
M  V30 5229 C 482.028 -2.22242 -2.66101 0
M  V30 5230 C 481.089 -3.45625 -2.54641 0
M  V30 5231 C 480.322 -3.72991 -3.81724 0
M  V30 5232 O 480.545 -3.02421 -4.8363 0
M  V30 5233 O 479.479 -4.66515 -3.80325 0
M  V30 5234 H 483.305 -2.85498 -1.03559 0
M  V30 5235 H 480.89 -1.42551 -0.44717 0
M  V30 5236 H 482.772 -2.42037 -3.44958 0
M  V30 5237 H 481.447 -1.33417 -2.94926 0
M  V30 5238 H 480.354 -3.31136 -1.74067 0
M  V30 5239 H 481.687 -4.34754 -2.3076 0
M  V30 5240 N 483.339 0.512053 -1.4905 0
M  V30 5241 C 484.287 1.63568 -1.65373 0
M  V30 5242 C 485.281 1.61228 -0.519806 0
M  V30 5243 O 486.487 1.65869 -0.699101 0
M  V30 5244 H 482.862 0.542019 -0.521267 0
M  V30 5245 H 484.833 1.4695 -2.59708 0
M  V30 5246 C 483.582 3.01761 -1.7273 0
M  V30 5247 H 482.905 3.04263 -2.59353 0
M  V30 5248 H 484.345 3.79948 -1.8819 0
M  V30 5249 C 482.804 3.33609 -0.46973 0
M  V30 5250 O 483.334 3.99607 0.409492 0
M  V30 5251 N 481.54 2.88651 -0.336003 0
M  V30 5252 H 481.087 2.35119 -1.05247 0
M  V30 5253 H 481.045 3.10328 0.504363 0
M  V30 5254 N 484.817 1.37938 0.762283 0
M  V30 5255 C 485.765 1.34569 1.89721 0
M  V30 5256 C 486.759 0.232929 1.67791 0
M  V30 5257 O 487.965 0.401485 1.75465 0
M  V30 5258 H 484.34 0.419594 0.624055 0
M  V30 5259 H 486.311 2.30357 1.8968 0
M  V30 5260 C 485.06 1.17898 3.27101 0
M  V30 5261 H 484.383 2.02781 3.44558 0
M  V30 5262 H 485.823 1.19593 4.06784 0
M  V30 5263 C 484.282 -0.114728 3.36705 0
M  V30 5264 O 484.812 -1.0949 3.8649 0
M  V30 5265 N 483.018 -0.16863 2.9011 0
M  V30 5266 H 482.565 0.62967 2.49786 0
M  V30 5267 H 482.523 -1.03383 2.96916 0
M  V30 5268 N 486.295 -0.989507 1.22664 0
M  V30 5269 C 487.542 -1.72953 1.05325 0
M  V30 5270 C 487.87 -1.90104 -0.411168 0
M  V30 5271 O 487.125 -1.44386 -1.32103 0
M  V30 5272 C 487.424 -3.13649 1.71345 0
M  V30 5273 C 487.09 -3.16403 3.21248 0
M  V30 5274 C 485.752 -3.16862 3.62149 0
M  V30 5275 C 488.104 -3.12428 4.17179 0
M  V30 5276 C 485.432 -3.11051 4.97458 0
M  V30 5277 C 487.784 -3.08159 5.52468 0
M  V30 5278 C 486.448 -3.06935 5.92746 0
M  V30 5279 H 485.718 -0.632881 0.385412 0
M  V30 5280 H 488.365 -1.15863 1.52473 0
M  V30 5281 H 486.67 -3.74069 1.16532 0
M  V30 5282 H 488.367 -3.69658 1.55416 0
M  V30 5283 H 484.957 -3.16798 2.88682 0
M  V30 5284 H 489.141 -3.11221 3.86595 0
M  V30 5285 H 484.397 -3.0845 5.27891 0
M  V30 5286 H 488.571 -3.04039 6.26525 0
M  V30 5287 H 486.198 -3.02186 6.97558 0
M  V30 5288 N 487.773 -1.03688 -1.18687 0
M  V30 5289 C 488.998 -0.757819 -1.93059 0
M  V30 5290 C 489.423 0.678353 -1.75442 0
M  V30 5291 O 488.781 1.46938 -1.06203 0
M  V30 5292 C 488.829 -1.12423 -3.42627 0
M  V30 5293 O 487.933 -0.247505 -4.11657 0
M  V30 5294 H 487.274 -0.279245 -0.602427 0
M  V30 5295 H 489.804 -1.3857 -1.5053 0
M  V30 5296 H 489.814 -1.08454 -3.93322 0
M  V30 5297 H 488.489 -2.17049 -3.54771 0
M  V30 5298 H 487.066 -0.34649 -3.71287 0
M  V30 5299 N 489.251 1.34841 -0.815825 0
M  V30 5300 C 490.198 2.29644 -0.230664 0
M  V30 5301 C 491.168 1.53253 0.640533 0
M  V30 5302 O 492.353 1.81653 0.583672 0
M  V30 5303 C 489.493 3.39715 0.607275 0
M  V30 5304 C 488.606 4.31056 -0.28538 0
M  V30 5305 C 487.741 5.28225 0.561446 0
M  V30 5306 C 486.78 6.11204 -0.331035 0
M  V30 5307 N 485.917 7.00483 0.476302 0
M  V30 5308 H 490.757 2.79095 -1.0445 0
M  V30 5309 H 488.294 1.37351 -0.526595 0
M  V30 5310 H 490.252 4.02208 1.10835 0
M  V30 5311 H 488.882 2.91517 1.38629 0
M  V30 5312 H 487.934 3.69487 -0.904621 0
M  V30 5313 H 489.246 4.89239 -0.97193 0
M  V30 5314 H 488.4 5.96135 1.12728 0
M  V30 5315 H 487.139 4.70562 1.28153 0
M  V30 5316 H 486.144 5.42232 -0.909069 0
M  V30 5317 H 487.369 6.70947 -1.04912 0
M  V30 5318 H 485.315 6.45296 1.18019 0
M  V30 5319 H 485.232 7.55847 -0.152008 0
M  V30 5320 H 486.5 7.7273 1.02512 0
M  V30 5321 N 490.729 0.570148 1.46925 0
M  V30 5322 C 491.959 0.0561151 2.06524 0
M  V30 5323 C 492.367 -1.24874 1.42137 0
M  V30 5324 O 491.71 -1.76292 0.516417 0
M  V30 5325 C 491.772 -0.197035 3.5896 0
M  V30 5326 C 491.436 1.02033 4.45464 0
M  V30 5327 C 492.433 1.92921 4.82781 0
M  V30 5328 C 490.118 1.23864 4.86788 0
M  V30 5329 C 492.112 3.03999 5.60235 0
M  V30 5330 C 489.799 2.35249 5.64004 0
M  V30 5331 C 490.797 3.25146 6.0064 0
M  V30 5332 O 490.485 4.34598 6.76299 0
M  V30 5333 H 490.217 0.0487409 0.674241 0
M  V30 5334 H 492.771 0.786915 1.89728 0
M  V30 5335 H 491.001 -0.982299 3.74016 0
M  V30 5336 H 492.69 -0.658032 4.00531 0
M  V30 5337 H 493.456 1.77265 4.51444 0
M  V30 5338 H 489.335 0.54805 4.57731 0
M  V30 5339 H 492.879 3.74192 5.8875 0
M  V30 5340 H 488.776 2.50873 5.94755 0
M  V30 5341 H 489.544 4.32808 6.94708 0
M  V30 5342 N 492.207 -1.54576 0.307264 0
M  V30 5343 C 493.432 -2.05139 -0.305379 0
M  V30 5344 C 493.857 -1.18278 -1.46259 0
M  V30 5345 O 493.215 -0.188243 -1.8032 0
M  V30 5346 C 493.263 -3.53066 -0.733283 0
M  V30 5347 O 492.367 -3.69206 -1.83741 0
M  V30 5348 H 491.708 -0.661444 -0.0582105 0
M  V30 5349 H 494.238 -1.99569 0.450931 0
M  V30 5350 H 494.248 -3.95034 -1.02039 0
M  V30 5351 H 492.923 -4.15746 0.113198 0
M  V30 5352 H 491.5 -3.39143 -1.55037 0
M  V30 5353 N 493.685 -0.035106 -1.57561 0
M  V30 5354 C 494.932 0.642229 -1.92046 0
M  V30 5355 C 495.26 1.7179 -0.91206 0
M  V30 5356 O 494.515 1.95544 0.0781153 0
M  V30 5357 C 494.814 1.29149 -3.3325 0
M  V30 5358 C 494.48 0.345604 -4.49574 0
M  V30 5359 C 493.142 0.0852775 -4.81124 0
M  V30 5360 C 495.494 -0.303569 -5.20315 0
M  V30 5361 C 492.822 -0.831927 -5.80772 0
M  V30 5362 C 495.174 -1.20886 -6.20942 0
M  V30 5363 C 493.838 -1.47802 -6.50931 0
M  V30 5364 H 493.108 0.235008 -0.702746 0
M  V30 5365 H 495.755 -0.0981529 -1.91248 0
M  V30 5366 H 494.06 2.10676 -3.30337 0
M  V30 5367 H 495.757 1.82223 -3.57205 0
M  V30 5368 H 492.347 0.558683 -4.24943 0
M  V30 5369 H 496.531 -0.115515 -4.96166 0
M  V30 5370 H 491.787 -1.0481 -6.02349 0
M  V30 5371 H 495.961 -1.71804 -6.74875 0
M  V30 5372 H 493.588 -2.19039 -7.2796 0
M  V30 5373 N 495.163 1.55791 0.238111 0
M  V30 5374 C 496.126 1.90239 1.27835 0
M  V30 5375 C 497.126 0.779552 1.4064 0
M  V30 5376 O 498.316 1.04747 1.3919 0
M  V30 5377 C 495.448 2.13859 2.65475 0
M  V30 5378 H 496.641 2.83262 0.985034 0
M  V30 5379 H 494.194 1.48818 0.477799 0
M  V30 5380 H 494.929 1.23334 2.99932 0
M  V30 5381 H 494.714 2.95643 2.57561 0
M  V30 5382 H 496.204 2.41664 3.40571 0
M  V30 5383 N 496.642 -0.504142 1.49319 0
M  V30 5384 C 497.888 -1.26033 1.58882 0
M  V30 5385 C 498.221 -1.92268 0.273274 0
M  V30 5386 O 497.496 -1.80567 -0.72291 0
M  V30 5387 C 497.779 -2.32976 2.7458 0
M  V30 5388 C 497.632 -1.71263 4.1592 0
M  V30 5389 C 498.951 -3.34561 2.85932 0
M  V30 5390 H 496.07 -0.456863 0.578312 0
M  V30 5391 H 498.712 -0.558965 1.81592 0
M  V30 5392 H 496.862 -2.92796 2.55348 0
M  V30 5393 H 498.534 -1.15294 4.4666 0
M  V30 5394 H 496.777 -1.01686 4.21714 0
M  V30 5395 H 497.448 -2.48816 4.92742 0
M  V30 5396 H 499.924 -2.84727 3.0343 0
M  V30 5397 H 498.8 -4.06754 3.68568 0
M  V30 5398 H 499.061 -3.96695 1.95154 0
M  V30 5399 N 498.12 -1.38341 -0.754957 0
M  V30 5400 C 499.366 -1.34672 -1.51628 0
M  V30 5401 C 499.699 0.0636036 -1.94096 0
M  V30 5402 O 498.974 1.0245 -1.6533 0
M  V30 5403 C 499.257 -2.30116 -2.76981 0
M  V30 5404 C 499.11 -3.80003 -2.4066 0
M  V30 5405 C 500.429 -2.23715 -3.78998 0
M  V30 5406 H 497.548 -0.490517 -0.550056 0
M  V30 5407 H 500.19 -1.69178 -0.864807 0
M  V30 5408 H 498.34 -2.00821 -3.3257 0
M  V30 5409 H 500.012 -4.19966 -1.90856 0
M  V30 5410 H 498.255 -3.97751 -1.73137 0
M  V30 5411 H 498.926 -4.42244 -3.30339 0
M  V30 5412 H 501.402 -2.49574 -3.32945 0
M  V30 5413 H 500.278 -2.9261 -4.64403 0
M  V30 5414 H 500.539 -1.23554 -4.24484 0
M  V30 5415 N 499.598 0.982988 -1.23187 0
M  V30 5416 C 500.826 1.75921 -1.08901 0
M  V30 5417 C 501.241 1.85341 0.359719 0
M  V30 5418 O 500.598 1.33072 1.24892 0
M  V30 5419 C 500.649 3.18742 -1.70545 0
M  V30 5420 O 500.37 3.09814 -3.09753 0
M  V30 5421 C 501.871 4.1277 -1.61667 0
M  V30 5422 H 499.091 0.552166 -0.381252 0
M  V30 5423 H 501.635 1.23516 -1.62985 0
M  V30 5424 H 499.79 3.68182 -1.20501 0
M  V30 5425 H 500.204 3.99703 -3.39614 0
M  V30 5426 H 501.678 5.10697 -2.09506 0
M  V30 5427 H 502.155 4.3542 -0.575009 0
M  V30 5428 H 502.761 3.69232 -2.11064 0
M  V30 5429 N 501.076 1.04316 1.18135 0
M  V30 5430 C 502.322 0.749128 1.88457 0
M  V30 5431 C 502.655 -0.72149 1.803 0
M  V30 5432 O 501.93 -1.52676 1.205 0
M  V30 5433 C 502.213 1.21905 3.38838 0
M  V30 5434 C 502.066 2.75195 3.55792 0
M  V30 5435 C 503.385 0.811085 4.32561 0
M  V30 5436 H 500.504 0.273611 0.684329 0
M  V30 5437 H 503.146 1.29561 1.38975 0
M  V30 5438 H 501.296 0.754137 3.8111 0
M  V30 5439 H 502.968 3.29743 3.22595 0
M  V30 5440 H 501.211 3.14899 2.98364 0
M  V30 5441 H 501.882 3.03135 4.61317 0
M  V30 5442 H 504.358 1.21118 3.98082 0
M  V30 5443 H 503.234 1.16761 5.36338 0
M  V30 5444 H 503.495 -0.285596 4.41177 0
M  V30 5445 N 502.554 -1.34406 0.822964 0
M  V30 5446 C 503.484 -2.32052 0.259608 0
M  V30 5447 C 504.465 -1.58243 -0.623961 0
M  V30 5448 O 505.65 -1.86224 -0.55083 0
M  V30 5449 C 502.78 -3.42434 -0.579314 0
M  V30 5450 C 501.734 -4.27499 0.20712 0
M  V30 5451 C 501.06 -5.29349 -0.754547 0
M  V30 5452 C 502.36 -5.02758 1.41533 0
M  V30 5453 H 504.054 -2.79418 1.07545 0
M  V30 5454 H 501.6 -1.34338 0.518593 0
M  V30 5455 H 503.553 -4.0976 -0.983612 0
M  V30 5456 H 502.277 -2.93717 -1.4282 0
M  V30 5457 H 500.936 -3.61776 0.592787 0
M  V30 5458 H 500.584 -4.76895 -1.59939 0
M  V30 5459 H 500.284 -5.8714 -0.232561 0
M  V30 5460 H 501.808 -5.99544 -1.1567 0
M  V30 5461 H 503.222 -5.62938 1.08504 0
M  V30 5462 H 501.619 -5.70123 1.87296 0
M  V30 5463 H 502.689 -4.32451 2.1935 0
M  V30 5464 N 504.032 -0.577932 -1.46621 0
M  V30 5465 C 505.28 -0.061566 -2.02006 0
M  V30 5466 C 505.601 1.30117 -1.4524 0
M  V30 5467 O 504.871 1.85313 -0.63529 0
M  V30 5468 H 503.451 -0.0197692 -0.746738 0
M  V30 5469 H 506.113 -0.752631 -1.79782 0
M  V30 5470 H 505.209 0.0110238 -3.12098 0
M  V30 5471 N 505.51 1.54411 -0.315457 0
M  V30 5472 C 506.42 2.27737 0.56329 0
M  V30 5473 C 507.436 1.31787 1.13614 0
M  V30 5474 O 508.612 1.64791 1.15784 0
M  V30 5475 C 505.677 3.01478 1.71207 0
M  V30 5476 C 504.738 4.12997 1.17185 0
M  V30 5477 C 503.971 4.83212 2.26588 0
M  V30 5478 O 504.194 4.52884 3.46775 0
M  V30 5479 O 503.128 5.70299 1.92463 0
M  V30 5480 H 506.954 3.03683 -0.0319614 0
M  V30 5481 H 504.539 1.49178 -0.0814188 0
M  V30 5482 H 506.421 3.47683 2.38106 0
M  V30 5483 H 505.096 2.28414 2.29366 0
M  V30 5484 H 504.003 3.71159 0.468174 0
M  V30 5485 H 505.336 4.8808 0.635501 0
M  V30 5486 N 506.988 0.0434614 1.5754 0
M  V30 5487 C 507.936 -0.951465 2.1225 0
M  V30 5488 C 508.93 -1.3274 1.05245 0
M  V30 5489 O 510.136 -1.30795 1.23663 0
M  V30 5490 H 506.511 -0.324667 0.678303 0
M  V30 5491 H 508.482 -0.464855 2.94757 0
M  V30 5492 C 507.231 -2.21972 2.67626 0
M  V30 5493 H 506.554 -1.93923 3.4962 0
M  V30 5494 H 507.994 -2.89765 3.09536 0
M  V30 5495 C 506.453 -2.95919 1.61038 0
M  V30 5496 O 506.983 -3.8857 1.01862 0
M  V30 5497 N 505.189 -2.58511 1.32741 0
M  V30 5498 H 504.736 -1.83244 1.81051 0
M  V30 5499 H 504.694 -3.08296 0.616531 0
M  V30 5500 N 508.466 -1.55915 -0.229846 0
M  V30 5501 C 509.413 -1.91734 -1.28478 0
M  V30 5502 C 510.383 -0.773539 -1.46988 0
M  V30 5503 O 511.568 -1.02871 -1.60693 0
M  V30 5504 C 508.708 -2.23224 -2.63182 0
M  V30 5505 C 507.821 -3.50497 -2.52539 0
M  V30 5506 C 506.956 -3.71474 -3.79711 0
M  V30 5507 C 505.995 -4.92289 -3.63755 0
M  V30 5508 N 505.132 -5.09698 -4.82858 0
M  V30 5509 H 509.972 -2.81692 -0.972308 0
M  V30 5510 H 507.509 -1.39429 -0.468815 0
M  V30 5511 H 509.467 -2.3949 -3.41614 0
M  V30 5512 H 508.097 -1.36451 -2.92542 0
M  V30 5513 H 507.149 -3.4247 -1.65585 0
M  V30 5514 H 508.461 -4.39079 -2.36666 0
M  V30 5515 H 507.615 -3.87791 -4.66586 0
M  V30 5516 H 506.354 -2.81157 -3.985 0
M  V30 5517 H 505.359 -4.7593 -2.75264 0
M  V30 5518 H 506.584 -5.84083 -3.46445 0
M  V30 5519 H 504.53 -4.22322 -5.01976 0
M  V30 5520 H 504.447 -5.92399 -4.69681 0
M  V30 5521 H 505.715 -5.30443 -5.71183 0
M  V30 5522 N 509.944 0.496216 -1.49584 0
M  V30 5523 C 511.169 1.27865 -1.63295 0
M  V30 5524 C 511.594 1.85592 -0.306156 0
M  V30 5525 O 510.952 1.66092 0.726851 0
M  V30 5526 C 511 2.38128 -2.7079 0
M  V30 5527 O 510.104 3.42108 -2.30296 0
M  V30 5528 H 509.445 0.377279 -0.546403 0
M  V30 5529 H 511.975 0.593497 -1.95803 0
M  V30 5530 H 511.985 2.8382 -2.93104 0
M  V30 5531 H 510.66 1.95479 -3.67098 0
M  V30 5532 H 509.237 3.02301 -2.18331 0
M  V30 5533 N 511.423 1.38739 0.74761 0
M  V30 5534 C 512.653 1.3832 1.53464 0
M  V30 5535 C 513.061 -0.0273464 1.8918 0
M  V30 5536 O 512.404 -1.00588 1.53713 0
M  V30 5537 C 512.466 2.18007 2.85855 0
M  V30 5538 C 512.13 3.66762 2.72644 0
M  V30 5539 C 513.127 4.60124 2.42037 0
M  V30 5540 C 510.812 4.10193 2.89909 0
M  V30 5541 C 512.806 5.94897 2.28859 0
M  V30 5542 C 510.493 5.45045 2.7635 0
M  V30 5543 C 511.491 6.37211 2.45869 0
M  V30 5544 O 511.179 7.69581 2.3238 0
M  V30 5545 H 510.911 0.474718 0.481268 0
M  V30 5546 H 513.465 1.83012 0.932518 0
M  V30 5547 H 511.695 1.68043 3.48279 0
M  V30 5548 H 513.384 2.09921 3.47402 0
M  V30 5549 H 514.15 4.27874 2.28361 0
M  V30 5550 H 510.029 3.38797 3.1263 0
M  V30 5551 H 513.573 6.66802 2.04989 0
M  V30 5552 H 509.47 5.76889 2.89601 0
M  V30 5553 H 510.238 7.80169 2.47546 0
M  V30 5554 N 512.901 -0.976442 1.23707 0
M  V30 5555 C 514.178 -1.69296 0.979699 0
M  V30 5556 C 514.558 -2.0508 -0.500555 0
M  V30 5557 O 513.906 -1.74708 -1.47273 0
M  V30 5558 C 514.116 -2.93143 1.89389 0
M  V30 5559 C 515.464 -3.65572 2.15968 0
M  V30 5560 O 516.488 -3.03184 1.86971 0
M  V30 5561 O 515.347 -4.77859 2.65167 0
M  V30 5562 H 512.441 -0.739708 0.369812 0
M  V30 5563 H 514.987 -1.03131 1.34767 0
M  V30 5564 H 513.759 -2.63327 2.89439 0
M  V30 5565 H 513.382 -3.67044 1.52854 0
M  V30 5566 N 514.379 -1.04941 -1.1758 0
M  V30 5567 C 515.628 -0.753124 -1.87112 0
M  V30 5568 C 515.941 0.722507 -1.81767 0
M  V30 5569 O 517.147 1.13265 -2.46746 0
M  V30 5570 C 515.603 -1.29695 -3.35719 0
M  V30 5571 C 515.211 -2.80184 -3.49572 0
M  V30 5572 C 516.955 -1.07759 -4.10595 0
M  V30 5573 C 514.862 -3.2788 -4.92187 0
M  V30 5574 H 513.792 -0.278034 -0.700866 0
M  V30 5575 H 516.443 -1.26637 -1.32798 0
M  V30 5576 H 514.825 -0.711522 -3.89555 0
M  V30 5577 H 515.999 -3.44561 -3.05965 0
M  V30 5578 H 514.314 -3.00632 -2.88113 0
M  V30 5579 H 516.911 -1.40899 -5.15802 0
M  V30 5580 H 517.254 -0.0152302 -4.16297 0
M  V30 5581 H 517.787 -1.62809 -3.62957 0
M  V30 5582 H 514.526 -4.33535 -4.91658 0
M  V30 5583 H 514.046 -2.68245 -5.36475 0
M  V30 5584 H 515.725 -3.22412 -5.60945 0
M  V30 5585 N 515.857 1.33968 -0.830081 0
M  V30 5586 C 516.767 2.33164 -0.259207 0
M  V30 5587 C 517.783 1.62951 0.610164 0
M  V30 5588 O 518.959 1.94668 0.516369 0
M  V30 5589 C 516.024 3.42088 0.563598 0
M  V30 5590 C 515.085 4.28037 -0.329014 0
M  V30 5591 C 514.318 5.3176 0.454616 0
M  V30 5592 O 514.541 5.44876 1.6872 0
M  V30 5593 O 513.475 6.01669 -0.166794 0
M  V30 5594 H 517.301 2.83832 -1.08041 0
M  V30 5595 H 514.886 1.37154 -0.59239 0
M  V30 5596 H 516.768 4.08581 1.03147 0
M  V30 5597 H 515.443 2.93651 1.36201 0
M  V30 5598 H 514.35 3.64443 -0.844538 0
M  V30 5599 H 515.683 4.79934 -1.09196 0
M  V30 5600 N 517.335 0.585699 1.46312 0
M  V30 5601 C 518.583 0.072278 2.01971 0
M  V30 5602 C 518.904 -1.29345 1.45928 0
M  V30 5603 O 518.174 -1.84973 0.645109 0
M  V30 5604 H 516.754 0.023729 0.746623 0
M  V30 5605 H 519.416 0.762155 1.7938 0
M  V30 5606 H 518.512 0.00552767 3.121 0
M  V30 5607 N 518.813 -1.54241 0.323641 0
M  V30 5608 C 520.059 -2.00867 -0.279323 0
M  V30 5609 C 520.392 -1.21146 -1.5178 0
M  V30 5610 O 519.667 -0.29378 -1.92269 0
M  V30 5611 C 519.95 -3.54837 -0.613387 0
M  V30 5612 C 519.803 -4.45284 0.635803 0
M  V30 5613 C 521.122 -4.16186 -1.43099 0
M  V30 5614 H 518.241 -0.730177 -0.100049 0
M  V30 5615 H 520.883 -1.84829 0.440235 0
M  V30 5616 H 519.033 -3.68634 -1.22641 0
M  V30 5617 H 520.705 -4.43357 1.27406 0
M  V30 5618 H 518.948 -4.14956 1.26466 0
M  V30 5619 H 519.619 -5.5084 0.357597 0
M  V30 5620 H 522.095 -4.05964 -0.912814 0
M  V30 5621 H 520.971 -5.24031 -1.6335 0
M  V30 5622 H 521.232 -3.69516 -2.42715 0
M  V30 5623 N 520.291 -0.0518155 -1.57515 0
M  V30 5624 C 521.537 0.616839 -1.93821 0
M  V30 5625 C 521.892 1.68413 -0.930307 0
M  V30 5626 O 521.185 1.91534 0.0504231 0
M  V30 5627 C 521.379 1.25607 -3.34601 0
M  V30 5628 C 521.208 0.252222 -4.48992 0
M  V30 5629 C 519.978 -0.156031 -5.05059 0
M  V30 5630 C 522.176 -0.502613 -5.11838 0
M  V30 5631 N 520.158 -1.15267 -6.02981 0
M  V30 5632 C 521.529 -1.35232 -6.05072 0
M  V30 5633 C 523.584 -0.560855 -4.94731 0
M  V30 5634 C 522.287 -2.25505 -6.83037 0
M  V30 5635 C 524.313 -1.45102 -5.73323 0
M  V30 5636 C 523.675 -2.28845 -6.6619 0
M  V30 5637 H 519.774 0.197344 -0.75669 0
M  V30 5638 H 522.358 -0.124297 -1.94303 0
M  V30 5639 H 520.529 1.96723 -3.34895 0
M  V30 5640 H 522.261 1.88358 -3.58195 0
M  V30 5641 H 519.016 0.22306 -4.73074 0
M  V30 5642 H 519.44 -1.64791 -6.56638 0
M  V30 5643 H 524.082 0.0723639 -4.22738 0
M  V30 5644 H 521.8 -2.89872 -7.54321 0
M  V30 5645 H 525.386 -1.50066 -5.62113 0
M  V30 5646 H 524.266 -2.96608 -7.25943 0
M  V30 5647 N 521.769 1.56035 0.221574 0
M  V30 5648 C 522.699 1.95434 1.2778 0
M  V30 5649 C 523.68 0.822564 1.48889 0
M  V30 5650 O 524.865 1.08486 1.61072 0
M  V30 5651 C 521.995 2.27102 2.62759 0
M  V30 5652 C 520.949 3.4277 2.56306 0
M  V30 5653 C 520.275 3.60043 3.95314 0
M  V30 5654 C 521.575 4.77742 2.11093 0
M  V30 5655 H 523.269 2.83912 0.950504 0
M  V30 5656 H 520.815 1.36596 0.455791 0
M  V30 5657 H 522.768 2.53256 3.36807 0
M  V30 5658 H 521.492 1.35478 2.97176 0
M  V30 5659 H 520.151 3.16664 1.84715 0
M  V30 5660 H 519.799 2.65794 4.27039 0
M  V30 5661 H 519.499 4.37841 3.91879 0
M  V30 5662 H 521.023 3.88545 4.71025 0
M  V30 5663 H 522.437 5.03102 2.74885 0
M  V30 5664 H 520.834 5.58823 2.18716 0
M  V30 5665 H 521.904 4.731 1.06321 0
M  V30 5666 N 523.247 -0.488276 1.49845 0
M  V30 5667 C 524.494 -1.24157 1.59973 0
M  V30 5668 C 524.822 -1.92293 0.292182 0
M  V30 5669 O 524.077 -1.81942 -0.720813 0
M  V30 5670 C 524.376 -2.32152 2.71735 0
M  V30 5671 C 524.042 -1.81387 4.12807 0
M  V30 5672 C 522.704 -1.67262 4.51195 0
M  V30 5673 C 525.056 -1.43537 5.01045 0
M  V30 5674 C 522.384 -1.13685 5.7558 0
M  V30 5675 C 524.736 -0.914081 6.25961 0
M  V30 5676 C 523.4 -0.759327 6.63167 0
M  V30 5677 H 522.67 -0.454322 0.585383 0
M  V30 5678 H 525.317 -0.540261 1.83721 0
M  V30 5679 H 523.622 -3.08122 2.42008 0
M  V30 5680 H 525.319 -2.90164 2.76778 0
M  V30 5681 H 521.909 -1.93344 3.82513 0
M  V30 5682 H 526.093 -1.53292 4.72033 0
M  V30 5683 H 521.349 -1.00426 6.03096 0
M  V30 5684 H 525.523 -0.612066 6.93705 0
M  V30 5685 H 523.15 -0.342002 7.5943 0
M  V30 5686 N 524.725 -1.39134 -0.740242 0
M  V30 5687 C 526.141 -1.20623 -1.0451 0
M  V30 5688 C 526.341 -0.0641651 -2.01398 0
M  V30 5689 O 525.397 0.585843 -2.4561 0
M  V30 5690 C 526.71 -2.53815 -1.6124 0
M  V30 5691 C 528.258 -2.60615 -1.73346 0
M  V30 5692 C 528.733 -3.94015 -2.33486 0
M  V30 5693 N 530.224 -3.95627 -2.40902 0
M  V30 5694 C 530.959 -4.95616 -2.88361 0
M  V30 5695 N 530.455 -6.06003 -3.35756 0
M  V30 5696 N 532.248 -4.82998 -2.87523 0
M  V30 5697 H 524.399 -2.12176 -0.0975576 0
M  V30 5698 H 526.662 -0.942066 -0.105904 0
M  V30 5699 H 526.368 -3.37911 -0.975144 0
M  V30 5700 H 526.242 -2.73162 -2.6012 0
M  V30 5701 H 528.629 -1.76906 -2.36195 0
M  V30 5702 H 528.71 -2.45123 -0.731336 0
M  V30 5703 H 528.354 -4.78153 -1.71267 0
M  V30 5704 H 528.284 -4.06825 -3.34366 0
M  V30 5705 H 530.775 -3.15903 -2.07398 0
M  V30 5706 H 531.088 -6.78215 -3.70464 0
M  V30 5707 H 529.433 -6.09604 -3.33778 0
M  V30 5708 H 532.624 -3.95866 -2.49816 0
M  V30 5709 H 532.797 -5.61072 -3.24196 0
M  V30 5710 N 526.204 0.969867 -1.24223 0
M  V30 5711 C 527.452 1.70918 -1.0785 0
M  V30 5712 C 527.773 1.91186 0.383763 0
M  V30 5713 O 527.043 1.48806 1.27411 0
M  V30 5714 H 525.623 0.633334 -0.396103 0
M  V30 5715 H 528.285 1.16689 -1.56108 0
M  V30 5716 H 527.381 2.69455 -1.57482 0
M  V30 5717 N 527.682 1.05563 1.17022 0
M  V30 5718 C 528.91 0.78845 1.91288 0
M  V30 5719 C 529.325 -0.656318 1.77025 0
M  V30 5720 O 528.682 -1.44869 1.10992 0
M  V30 5721 C 528.733 1.16444 3.42232 0
M  V30 5722 O 528.454 2.5525 3.5606 0
M  V30 5723 C 529.955 0.923937 4.33565 0
M  V30 5724 H 527.175 0.286389 0.606813 0
M  V30 5725 H 529.719 1.4073 1.48375 0
M  V30 5726 H 527.874 0.590266 3.82877 0
M  V30 5727 H 528.288 2.70097 4.49609 0
M  V30 5728 H 529.762 1.23672 5.37968 0
M  V30 5729 H 530.239 -0.140688 4.38975 0
M  V30 5730 H 530.845 1.48214 3.98639 0
M  V30 5731 N 529.16 -1.33526 0.837174 0
M  V30 5732 C 530.437 -1.92369 0.354065 0
M  V30 5733 C 530.817 -1.76348 -1.16038 0
M  V30 5734 O 530.165 -1.15083 -1.97403 0
M  V30 5735 C 530.375 -3.39728 0.799101 0
M  V30 5736 C 531.723 -4.16877 0.806139 0
M  V30 5737 O 532.747 -3.48373 0.742597 0
M  V30 5738 O 531.606 -5.39166 0.892345 0
M  V30 5739 H 528.7 -0.820952 0.0998378 0
M  V30 5740 H 531.246 -1.42409 0.922913 0
M  V30 5741 H 530.018 -3.45254 1.84162 0
M  V30 5742 H 529.641 -3.97062 0.206731 0
M  V30 5743 N 530.638 -0.59345 -1.46 0
M  V30 5744 C 531.887 -0.0808084 -2.01538 0
M  V30 5745 C 532.2 1.29112 -1.46934 0
M  V30 5746 O 533.406 1.8957 -1.94359 0
M  V30 5747 C 531.862 -0.0938311 -3.59778 0
M  V30 5748 C 531.47 -1.46474 -4.23379 0
M  V30 5749 C 533.214 0.364306 -4.22934 0
M  V30 5750 C 531.121 -1.4349 -5.73729 0
M  V30 5751 H 530.051 -0.0264407 -0.753536 0
M  V30 5752 H 532.702 -0.746689 -1.67621 0
M  V30 5753 H 531.084 0.638427 -3.9082 0
M  V30 5754 H 532.258 -2.21758 -4.03931 0
M  V30 5755 H 530.573 -1.86379 -3.7236 0
M  V30 5756 H 533.17 0.405584 -5.3316 0
M  V30 5757 H 533.513 1.38409 -3.92618 0
M  V30 5758 H 534.046 -0.31423 -3.96557 0
M  V30 5759 H 530.785 -2.43184 -6.08722 0
M  V30 5760 H 530.305 -0.724431 -5.95409 0
M  V30 5761 H 531.984 -1.15243 -6.36654 0
M  V30 5762 N 532.116 1.54067 -0.331816 0
M  V30 5763 C 533.527 1.86059 0.15454 0
M  V30 5764 C 533.878 1.25331 1.50952 0
M  V30 5765 O 533.003 0.562441 2.08963 0
M  V30 5766 C 533.598 3.37581 0.287192 0
M  V30 5767 C 532.157 3.69493 0.717773 0
M  V30 5768 C 531.304 2.76863 -0.155569 0
M  V30 5769 H 534.255 1.48797 -0.55182 0
M  V30 5770 H 534.276 3.63744 1.11671 0
M  V30 5771 H 533.788 3.81751 -0.699131 0
M  V30 5772 H 531.889 3.3086 1.71354 0
M  V30 5773 H 532.002 4.76315 0.5158 0
M  V30 5774 H 530.366 2.51995 0.370213 0
M  V30 5775 H 531.149 3.23861 -1.13881 0
M  V30 5776 N 533.594 0.0601682 1.57485 0
M  V30 5777 C 534.841 -0.611594 1.93043 0
M  V30 5778 C 535.169 -1.70317 0.939274 0
M  V30 5779 O 534.424 -1.95644 -0.046996 0
M  V30 5780 C 534.723 -1.23831 3.35262 0
M  V30 5781 C 534.389 -0.274037 4.50066 0
M  V30 5782 C 533.051 -0.00872394 4.81199 0
M  V30 5783 C 535.403 0.386308 5.19766 0
M  V30 5784 C 532.731 0.924218 5.79375 0
M  V30 5785 C 535.083 1.3075 6.1894 0
M  V30 5786 C 533.747 1.58139 6.48497 0
M  V30 5787 H 533.017 -0.223798 0.706396 0
M  V30 5788 H 535.664 0.128566 1.91068 0
M  V30 5789 H 533.969 -2.05394 3.33647 0
M  V30 5790 H 535.666 -1.76517 3.60059 0
M  V30 5791 H 532.256 -0.491008 4.25778 0
M  V30 5792 H 536.44 0.194436 4.95919 0
M  V30 5793 H 531.696 1.1438 6.00606 0
M  V30 5794 H 535.87 1.82519 6.72056 0
M  V30 5795 H 533.497 2.30593 7.24383 0
M  V30 5796 N 535.072 -1.5615 -0.213296 0
M  V30 5797 C 535.982 -1.96265 -1.28519 0
M  V30 5798 C 536.998 -0.86765 -1.50824 0
M  V30 5799 O 538.174 -1.17191 -1.63793 0
M  V30 5800 C 535.239 -2.27836 -2.61327 0
M  V30 5801 C 534.3 -3.50949 -2.47252 0
M  V30 5802 C 533.533 -3.81004 -3.73727 0
M  V30 5803 O 533.756 -3.12612 -4.77106 0
M  V30 5804 O 532.69 -4.74477 -3.70344 0
M  V30 5805 H 536.516 -2.87631 -0.974795 0
M  V30 5806 H 534.101 -1.43467 -0.416832 0
M  V30 5807 H 535.983 -2.49299 -3.39747 0
M  V30 5808 H 534.658 -1.39643 -2.9203 0
M  V30 5809 H 533.565 -3.34754 -1.67004 0
M  V30 5810 H 534.898 -4.39551 -2.21486 0
M  V30 5811 N 536.55 0.480323 -1.50102 0
M  V30 5812 C 537.483 1.59789 -1.62919 0
M  V30 5813 C 538.461 1.55429 -0.477557 0
M  V30 5814 O 539.645 1.75186 -0.695851 0
M  V30 5815 C 536.772 2.98351 -1.60325 0
M  V30 5816 C 535.818 3.20899 -2.80938 0
M  V30 5817 S 536.651 3.01791 -4.4236 0
M  V30 5818 C 537.807 4.42712 -4.42444 0
M  V30 5819 H 538.04 1.48676 -2.57454 0
M  V30 5820 H 535.573 0.666996 -1.3925 0
M  V30 5821 H 537.531 3.7824 -1.59514 0
M  V30 5822 H 536.192 3.06862 -0.670419 0
M  V30 5823 H 535.385 4.22102 -2.75401 0
M  V30 5824 H 534.987 2.48768 -2.79268 0
M  V30 5825 H 537.279 5.3518 -4.15438 0
M  V30 5826 H 538.222 4.53294 -5.43995 0
M  V30 5827 H 538.63 4.24359 -3.72263 0
M  V30 5828 N 538.028 1.39524 0.732853 0
M  V30 5829 C 538.975 1.38416 1.84688 0
M  V30 5830 C 539.945 0.243539 1.64305 0
M  V30 5831 O 541.13 0.438979 1.85681 0
M  V30 5832 C 538.27 1.23555 3.22224 0
M  V30 5833 C 537.383 2.47179 3.54298 0
M  V30 5834 C 536.518 2.2489 4.81246 0
M  V30 5835 C 535.557 3.44178 5.0617 0
M  V30 5836 N 534.694 3.21192 6.24323 0
M  V30 5837 H 539.534 2.33645 1.84971 0
M  V30 5838 H 537.071 1.16059 0.903804 0
M  V30 5839 H 539.029 1.12949 4.0162 0
M  V30 5840 H 537.659 0.31954 3.21215 0
M  V30 5841 H 536.711 2.68379 2.69587 0
M  V30 5842 H 538.023 3.36022 3.68633 0
M  V30 5843 H 537.177 2.11538 5.68627 0
M  V30 5844 H 535.916 1.33443 4.69089 0
M  V30 5845 H 534.921 3.58025 4.17251 0
M  V30 5846 H 536.146 4.36528 5.20212 0
M  V30 5847 H 534.092 2.32413 6.1345 0
M  V30 5848 H 534.009 4.03594 6.39256 0
M  V30 5849 H 535.277 3.1154 7.14537 0
M  V30 5850 N 539.506 -0.963266 1.24736 0
M  V30 5851 C 540.783 -1.68248 0.9976 0
M  V30 5852 C 541.163 -2.05599 -0.478776 0
M  V30 5853 O 540.511 -1.7626 -1.45412 0
M  V30 5854 C 540.721 -2.91118 1.92487 0
M  V30 5855 C 542.069 -3.63261 2.19833 0
M  V30 5856 O 543.093 -3.01184 1.90176 0
M  V30 5857 O 541.952 -4.75019 2.7022 0
M  V30 5858 H 539.046 -0.735744 0.377637 0
M  V30 5859 H 541.592 -1.01696 1.35853 0
M  V30 5860 H 540.364 -2.60242 2.92215 0
M  V30 5861 H 539.987 -3.65402 1.56738 0
M  V30 5862 N 540.985 -1.06182 -1.16461 0
M  V30 5863 C 541.935 -0.641619 -2.18786 0
M  V30 5864 C 542.919 0.327122 -1.5754 0
M  V30 5865 O 544.111 0.142746 -1.76423 0
M  V30 5866 C 541.24 -0.0283734 -3.43288 0
M  V30 5867 C 540.326 -1.02154 -4.11613 0
M  V30 5868 N 540.717 -2.19671 -4.55608 0
M  V30 5869 C 539.015 -0.852229 -4.37782 0
M  V30 5870 C 539.716 -2.82583 -5.0845 0
M  V30 5871 N 538.692 -2.10318 -5.01266 0
M  V30 5872 H 542.494 -1.53684 -2.50516 0
M  V30 5873 H 540.008 -0.933349 -1.329 0
M  V30 5874 H 542.005 0.29049 -4.15887 0
M  V30 5875 H 540.665 0.862118 -3.13046 0
M  V30 5876 H 541.676 -2.57453 -4.49375 0
M  V30 5877 H 538.353 -0.0136314 -4.17498 0
M  V30 5878 H 539.743 -3.82298 -5.52538 0
M  V30 5879 N 542.463 1.3308 -0.844243 0
M  V30 5880 C 543.874 1.7992 -0.498566 0
M  V30 5881 C 544.225 1.69808 0.982834 0
M  V30 5882 O 543.35 1.25051 1.7661 0
M  V30 5883 C 543.945 3.26677 -0.898204 0
M  V30 5884 C 542.504 3.71513 -0.604583 0
M  V30 5885 C 541.651 2.54393 -1.10362 0
M  V30 5886 H 544.602 1.20526 -1.03244 0
M  V30 5887 H 544.623 3.79918 -0.21039 0
M  V30 5888 H 544.135 3.34004 -1.97643 0
M  V30 5889 H 542.236 3.69708 0.46335 0
M  V30 5890 H 542.349 4.64755 -1.16358 0
M  V30 5891 H 540.713 2.49246 -0.524273 0
M  V30 5892 H 541.496 2.6448 -2.18873 0
M  V30 5893 N 543.941 0.601185 1.45683 0
M  V30 5894 C 545.166 0.0982245 2.07167 0
M  V30 5895 C 545.591 -1.20546 1.44396 0
M  V30 5896 O 544.949 -1.73247 0.534347 0
M  V30 5897 C 544.997 -0.0346976 3.60583 0
M  V30 5898 O 544.101 -1.08657 3.97828 0
M  V30 5899 H 543.442 0.0711618 0.660176 0
M  V30 5900 H 545.972 0.829376 1.87036 0
M  V30 5901 H 545.982 -0.234969 4.07323 0
M  V30 5902 H 544.657 0.917265 4.05659 0
M  V30 5903 H 543.234 -0.863275 3.6277 0
M  V30 5904 N 545.419 -1.53889 0.339982 0
M  V30 5905 C 546.666 -2.00855 -0.257621 0
M  V30 5906 C 546.994 -1.22788 -1.50842 0
M  V30 5907 O 546.249 -0.302567 -1.93347 0
M  V30 5908 C 546.548 -3.51968 -0.620735 0
M  V30 5909 C 546.214 -4.47741 0.532771 0
M  V30 5910 C 544.876 -4.73645 0.849339 0
M  V30 5911 C 547.228 -5.04551 1.3068 0
M  V30 5912 C 544.556 -5.53614 1.94237 0
M  V30 5913 C 546.908 -5.85713 2.39005 0
M  V30 5914 C 545.572 -6.09912 2.71225 0
M  V30 5915 H 544.842 -0.734979 -0.0942703 0
M  V30 5916 H 547.489 -1.85714 0.467159 0
M  V30 5917 H 545.794 -3.64921 -1.42618 0
M  V30 5918 H 547.491 -3.85762 -1.09495 0
M  V30 5919 H 544.081 -4.27711 0.275973 0
M  V30 5920 H 548.265 -4.84507 1.07549 0
M  V30 5921 H 543.521 -5.7059 2.19628 0
M  V30 5922 H 547.695 -6.28748 2.99415 0
M  V30 5923 H 545.322 -6.71665 3.56047 0
M  V30 5924 N 546.897 -0.0685191 -1.57451 0
M  V30 5925 C 547.807 0.914677 -2.16034 0
M  V30 5926 C 548.823 1.32938 -1.12265 0
M  V30 5927 O 549.999 1.40275 -1.44516 0
M  V30 5928 C 547.064 2.16519 -2.70777 0
M  V30 5929 C 546.125 1.80721 -3.89408 0
M  V30 5930 C 545.358 2.9981 -4.41531 0
M  V30 5931 O 545.581 4.13727 -3.92666 0
M  V30 5932 O 544.515 2.79817 -5.32903 0
M  V30 5933 H 548.341 0.446364 -3.00402 0
M  V30 5934 H 545.926 0.154367 -1.486 0
M  V30 5935 H 547.808 2.89856 -3.05878 0
M  V30 5936 H 546.483 2.62454 -1.89471 0
M  V30 5937 H 545.39 1.04646 -3.59166 0
M  V30 5938 H 546.723 1.39571 -4.71997 0
M  V30 5939 N 548.375 1.56261 0.205012 0
M  V30 5940 C 549.605 1.83874 0.942018 0
M  V30 5941 C 550.013 0.647595 1.77772 0
M  V30 5942 O 549.356 -0.393098 1.79445 0
M  V30 5943 C 549.418 3.05453 1.89575 0
M  V30 5944 C 549.082 4.39772 1.24296 0
M  V30 5945 C 550.079 5.16133 0.624724 0
M  V30 5946 C 547.764 4.86504 1.24978 0
M  V30 5947 C 549.758 6.37396 0.0220117 0
M  V30 5948 C 547.445 6.07705 0.643232 0
M  V30 5949 C 548.443 6.82993 0.0304164 0
M  V30 5950 O 548.131 8.019 -0.566654 0
M  V30 5951 H 547.863 0.614896 0.280854 0
M  V30 5952 H 550.417 2.04215 0.220285 0
M  V30 5953 H 548.647 2.80972 2.65691 0
M  V30 5954 H 550.336 3.19797 2.4997 0
M  V30 5955 H 551.102 4.81127 0.611666 0
M  V30 5956 H 546.981 4.27865 1.71616 0
M  V30 5957 H 550.525 6.96102 -0.456926 0
M  V30 5958 H 546.422 6.42181 0.653759 0
M  V30 5959 H 547.19 8.17192 -0.462588 0
M  V30 5960 N 549.853 -0.472356 1.50355 0
M  V30 5961 C 550.803 -1.56809 1.65514 0
M  V30 5962 C 551.787 -1.5261 0.509801 0
M  V30 5963 O 552.979 -1.59655 0.764145 0
M  V30 5964 C 550.108 -2.9526 1.75146 0
M  V30 5965 C 549.194 -3.04348 2.95353 0
M  V30 5966 N 549.585 -2.83253 4.19048 0
M  V30 5967 C 547.883 -3.35482 2.93884 0
M  V30 5968 C 548.584 -2.97273 5.00003 0
M  V30 5969 N 547.56 -3.27418 4.33934 0
M  V30 5970 H 551.362 -1.39197 2.58846 0
M  V30 5971 H 548.876 -0.67906 1.47521 0
M  V30 5972 H 550.873 -3.74044 1.8411 0
M  V30 5973 H 549.533 -3.1392 0.829717 0
M  V30 5974 H 550.544 -2.5886 4.48567 0
M  V30 5975 H 547.221 -3.60138 2.11204 0
M  V30 5976 H 548.611 -2.85214 6.08361 0
M  V30 5977 N 551.331 -1.39911 -0.725443 0
M  V30 5978 C 552.58 -1.36963 -1.48068 0
M  V30 5979 C 552.893 0.0284478 -1.95579 0
M  V30 5980 O 554.099 0.180535 -2.70899 0
M  V30 5981 C 552.555 -2.40664 -2.67598 0
M  V30 5982 C 552.163 -3.86234 -2.26997 0
M  V30 5983 C 553.907 -2.46807 -3.45379 0
M  V30 5984 C 551.814 -4.81554 -3.43307 0
M  V30 5985 H 550.744 -0.509223 -0.556065 0
M  V30 5986 H 553.395 -1.65602 -0.790454 0
M  V30 5987 H 551.777 -2.05109 -3.38742 0
M  V30 5988 H 552.951 -4.3088 -1.63337 0
M  V30 5989 H 551.266 -3.83475 -1.62284 0
M  V30 5990 H 553.863 -3.15213 -4.31909 0
M  V30 5991 H 554.206 -1.49552 -3.8851 0
M  V30 5992 H 554.739 -2.81303 -2.81271 0
M  V30 5993 H 551.478 -5.80106 -3.05217 0
M  V30 5994 H 550.998 -4.4158 -4.05915 0
M  V30 5995 H 552.677 -5.0091 -4.0951 0
M  V30 5996 N 552.809 0.956637 -1.25245 0
M  V30 5997 C 554.056 1.701 -1.09874 0
M  V30 5998 C 554.384 1.91128 0.36062 0
M  V30 5999 O 553.639 1.47837 1.28229 0
M  V30 6000 C 553.938 3.08996 -1.79601 0
M  V30 6001 C 553.604 3.07774 -3.29523 0
M  V30 6002 C 552.266 3.07149 -3.70423 0
M  V30 6003 C 554.618 3.01257 -4.25316 0
M  V30 6004 C 551.946 2.97752 -5.0553 0
M  V30 6005 C 554.298 2.93403 -5.60444 0
M  V30 6006 C 552.962 2.91111 -6.00675 0
M  V30 6007 H 552.232 0.62244 -0.402056 0
M  V30 6008 H 554.879 1.1178 -1.55491 0
M  V30 6009 H 553.184 3.70848 -1.26408 0
M  V30 6010 H 554.881 3.65407 -1.65162 0
M  V30 6011 H 551.471 3.09032 -2.9698 0
M  V30 6012 H 555.655 3.00861 -3.9471 0
M  V30 6013 H 550.911 2.94346 -5.35883 0
M  V30 6014 H 555.085 2.87321 -6.34366 0
M  V30 6015 H 552.712 2.83586 -7.05325 0
M  V30 6016 N 554.287 1.06798 1.15896 0
M  V30 6017 C 555.234 0.683314 2.20453 0
M  V30 6018 C 556.204 -0.32255 1.62938 0
M  V30 6019 O 557.389 -0.210276 1.89638 0
M  V30 6020 C 554.529 0.0813266 3.45004 0
M  V30 6021 C 553.642 1.13799 4.16742 0
M  V30 6022 C 552.777 0.501598 5.28826 0
M  V30 6023 C 551.816 1.54144 5.92373 0
M  V30 6024 N 550.953 0.928038 6.9594 0
M  V30 6025 H 555.793 1.57932 2.52708 0
M  V30 6026 H 553.33 0.789544 1.24115 0
M  V30 6027 H 555.288 -0.285274 4.16224 0
M  V30 6028 H 553.918 -0.77806 3.13283 0
M  V30 6029 H 552.97 1.62223 3.44075 0
M  V30 6030 H 554.282 1.92664 4.60089 0
M  V30 6031 H 553.436 0.0823162 6.06644 0
M  V30 6032 H 552.175 -0.318883 4.86656 0
M  V30 6033 H 551.18 1.97056 5.13273 0
M  V30 6034 H 552.405 2.3641 6.36621 0
M  V30 6035 H 550.351 0.12836 6.55874 0
M  V30 6036 H 550.268 1.65401 7.37685 0
M  V30 6037 H 551.536 0.534071 7.77668 0
M  V30 6038 N 555.766 -1.3263 0.851289 0
M  V30 6039 C 556.713 -2.28952 0.291469 0
M  V30 6040 C 557.683 -1.54897 -0.599676 0
M  V30 6041 O 558.868 -1.83137 -0.535305 0
M  V30 6042 C 556.008 -3.41206 -0.516992 0
M  V30 6043 C 555.121 -4.30148 0.399566 0
M  V30 6044 C 554.256 -5.29527 -0.4212 0
M  V30 6045 C 553.295 -6.10112 0.492969 0
M  V30 6046 N 552.432 -7.01499 -0.290414 0
M  V30 6047 H 557.272 -2.76228 1.11813 0
M  V30 6048 H 554.809 -1.35907 0.562826 0
M  V30 6049 H 556.767 -4.05005 -1.00132 0
M  V30 6050 H 555.397 -2.9509 -1.30851 0
M  V30 6051 H 554.449 -3.66959 1.00227 0
M  V30 6052 H 555.761 -4.8649 1.1013 0
M  V30 6053 H 554.915 -5.98914 -0.968832 0
M  V30 6054 H 553.654 -4.73794 -1.15632 0
M  V30 6055 H 552.659 -5.39632 1.05251 0
M  V30 6056 H 553.884 -6.6793 1.22664 0
M  V30 6057 H 551.83 -6.48199 -1.00868 0
M  V30 6058 H 551.747 -7.55178 0.352354 0
M  V30 6059 H 553.015 -7.75176 -0.819882 0
M  V30 6060 N 557.244 -0.608902 -1.45362 0
M  V30 6061 C 558.174 0.0964526 -2.33301 0
M  V30 6062 C 559.155 0.857444 -1.46908 0
M  V30 6063 O 560.34 0.827735 -1.75676 0
M  V30 6064 C 557.47 1.09354 -3.29635 0
M  V30 6065 C 556.424 0.445676 -4.25673 0
M  V30 6066 C 555.75 1.5511 -5.11708 0
M  V30 6067 C 557.05 -0.633972 -5.18438 0
M  V30 6068 H 558.744 -0.637829 -2.92527 0
M  V30 6069 H 556.29 -0.308178 -1.40664 0
M  V30 6070 H 558.243 1.59556 -3.90025 0
M  V30 6071 H 556.967 1.85843 -2.6857 0
M  V30 6072 H 555.626 -0.0354897 -3.66583 0
M  V30 6073 H 555.274 2.30631 -4.4701 0
M  V30 6074 H 554.974 1.12311 -5.76767 0
M  V30 6075 H 556.498 2.05537 -5.74967 0
M  V30 6076 H 557.912 -0.215974 -5.72893 0
M  V30 6077 H 556.309 -0.983789 -5.91981 0
M  V30 6078 H 557.379 -1.51005 -4.60788 0
M  V30 6079 N 558.722 1.53707 -0.348139 0
M  V30 6080 C 559.999 1.93247 0.302475 0
M  V30 6081 C 560.379 1.28012 1.67857 0
M  V30 6082 O 559.727 0.43274 2.24365 0
M  V30 6083 C 559.937 3.47031 0.370159 0
M  V30 6084 C 561.285 4.20066 0.61882 0
M  V30 6085 O 562.309 3.53319 0.452087 0
M  V30 6086 O 561.168 5.38318 0.94215 0
M  V30 6087 H 558.262 0.807736 0.177458 0
M  V30 6088 H 560.808 1.64927 -0.399651 0
M  V30 6089 H 559.58 3.86745 -0.59534 0
M  V30 6090 H 559.203 3.81532 1.11888 0
M  V30 6091 N 560.2 0.0768682 1.57412 0
M  V30 6092 C 561.449 -0.590679 1.92857 0
M  V30 6093 C 561.762 -1.70461 0.959293 0
M  V30 6094 O 562.968 -2.43207 1.20675 0
M  V30 6095 C 561.424 -1.10204 3.42612 0
M  V30 6096 C 561.032 -0.0188447 4.47996 0
M  V30 6097 C 562.776 -1.74336 3.87049 0
M  V30 6098 C 560.683 -0.544536 5.88888 0
M  V30 6099 H 559.613 -0.224411 0.71983 0
M  V30 6100 H 562.264 0.149924 1.82887 0
M  V30 6101 H 560.646 -1.89577 3.47673 0
M  V30 6102 H 561.82 0.755936 4.54557 0
M  V30 6103 H 560.135 0.526555 4.13057 0
M  V30 6104 H 562.732 -2.14708 4.89699 0
M  V30 6105 H 563.075 -2.60537 3.24694 0
M  V30 6106 H 563.608 -1.01577 3.84613 0
M  V30 6107 H 560.347 0.280426 6.549 0
M  V30 6108 H 559.867 -1.28673 5.85836 0
M  V30 6109 H 561.546 -1.01933 6.3892 0
M  V30 6110 N 561.678 -1.56367 -0.196722 0
M  V30 6111 C 562.626 -1.95304 -1.2633 0
M  V30 6112 C 563.62 -0.838252 -1.47206 0
M  V30 6113 O 564.826 -1.02325 -1.48087 0
M  V30 6114 H 561.201 -0.621013 -0.424083 0
M  V30 6115 H 563.172 -2.84254 -0.907879 0
M  V30 6116 C 561.921 -2.3074 -2.60104 0
M  V30 6117 H 561.244 -3.16047 -2.44856 0
M  V30 6118 H 562.684 -2.61849 -3.33484 0
M  V30 6119 C 561.143 -1.14143 -3.16975 0
M  V30 6120 O 561.673 -0.415602 -3.99544 0
M  V30 6121 N 559.879 -0.91867 -2.75697 0
M  V30 6122 H 559.426 -1.51065 -2.08656 0
M  V30 6123 H 559.384 -0.140321 -3.14087 0
M  V30 6124 N 563.156 0.464375 -1.50603 0
M  V30 6125 C 564.104 1.58224 -1.70493 0
M  V30 6126 C 565.098 1.59492 -0.570836 0
M  V30 6127 O 566.304 1.63561 -0.751517 0
M  V30 6128 H 562.679 0.525161 -0.538247 0
M  V30 6129 H 564.65 1.38613 -2.64252 0
M  V30 6130 C 563.399 2.96113 -1.82243 0
M  V30 6131 H 562.722 2.95858 -2.68901 0
M  V30 6132 H 564.162 3.73769 -2.00182 0
M  V30 6133 C 562.621 3.31946 -0.575628 0
M  V30 6134 O 563.151 4.00708 0.282152 0
M  V30 6135 N 561.357 2.87436 -0.427665 0
M  V30 6136 H 560.904 2.31652 -1.12674 0
M  V30 6137 H 560.862 3.11776 0.405379 0
M  V30 6138 N 564.634 1.40294 0.718013 0
M  V30 6139 C 565.862 1.4175 1.50714 0
M  V30 6140 C 566.277 0.0165366 1.88793 0
M  V30 6141 O 565.634 -0.958942 1.55276 0
M  V30 6142 C 565.685 2.30598 2.784 0
M  V30 6143 O 565.406 3.6524 2.41932 0
M  V30 6144 C 566.907 2.4062 3.72313 0
M  V30 6145 H 564.127 0.483565 0.465194 0
M  V30 6146 H 566.671 1.84316 0.885889 0
M  V30 6147 H 564.826 1.91401 3.36815 0
M  V30 6148 H 565.24 4.12402 3.24076 0
M  V30 6149 H 566.714 3.07001 4.58753 0
M  V30 6150 H 567.191 1.4305 4.15251 0
M  V30 6151 H 567.797 2.80359 3.19811 0
M  V30 6152 N 566.112 -0.949982 1.2575 0
M  V30 6153 C 567.044 -2.05088 1.02331 0
M  V30 6154 C 568.057 -1.62795 -0.0133247 0
M  V30 6155 O 569.246 -1.77067 0.225759 0
M  V30 6156 C 566.346 -3.34794 0.525924 0
M  V30 6157 C 565.519 -4.05903 1.62978 0
M  V30 6158 C 564.578 -5.1388 1.13196 0
M  V30 6159 O 563.604 -5.39072 1.82729 0
M  V30 6160 N 564.806 -5.80495 -0.0242926 0
M  V30 6161 H 567.571 -2.25747 1.97125 0
M  V30 6162 H 565.132 -1.11886 1.17018 0
M  V30 6163 H 567.124 -4.04312 0.177263 0
M  V30 6164 H 565.694 -3.10872 -0.328202 0
M  V30 6165 H 564.914 -3.3042 2.1498 0
M  V30 6166 H 566.202 -4.50166 2.37124 0
M  V30 6167 H 565.6 -5.62454 -0.605184 0
M  V30 6168 H 564.157 -6.51043 -0.313947 0
M  V30 6169 N 567.59 -1.07411 -1.15328 0
M  V30 6170 C 568.867 -0.710732 -1.82231 0
M  V30 6171 C 569.247 0.806732 -1.95077 0
M  V30 6172 O 568.595 1.72139 -1.50268 0
M  V30 6173 C 568.805 -1.42586 -3.18544 0
M  V30 6174 C 570.153 -1.57836 -3.94174 0
M  V30 6175 O 571.177 -1.38669 -3.281 0
M  V30 6176 O 570.036 -1.8938 -5.12638 0
M  V30 6177 H 567.13 -0.25297 -0.78736 0
M  V30 6178 H 569.676 -1.17508 -1.22434 0
M  V30 6179 H 568.448 -2.46008 -3.04296 0
M  V30 6180 H 568.071 -0.952332 -3.86026 0
M  V30 6181 N 569.068 1.32177 -0.85831 0
M  V30 6182 C 570.015 2.28794 -0.303607 0
M  V30 6183 C 570.985 1.55213 0.591453 0
M  V30 6184 O 572.17 1.83418 0.525585 0
M  V30 6185 C 569.31 3.41475 0.49889 0
M  V30 6186 C 568.423 4.2993 -0.422373 0
M  V30 6187 C 567.558 5.29743 0.393111 0
M  V30 6188 C 566.597 6.09842 -0.525317 0
M  V30 6189 N 565.734 7.01643 0.253208 0
M  V30 6190 H 570.574 2.75631 -1.13276 0
M  V30 6191 H 568.111 1.35606 -0.570026 0
M  V30 6192 H 570.069 4.05531 0.979826 0
M  V30 6193 H 568.699 2.95779 1.29284 0
M  V30 6194 H 567.751 3.66422 -1.02171 0
M  V30 6195 H 569.063 4.85899 -1.12709 0
M  V30 6196 H 568.217 5.9942 0.937056 0
M  V30 6197 H 566.956 4.744 1.13117 0
M  V30 6198 H 565.961 5.39066 -1.08112 0
M  V30 6199 H 567.186 6.6727 -1.26205 0
M  V30 6200 H 565.132 6.48725 0.974295 0
M  V30 6201 H 565.049 7.54981 -0.392398 0
M  V30 6202 H 566.317 7.756 0.778761 0
M  V30 6203 N 570.547 0.616602 1.45037 0
M  V30 6204 C 571.494 -0.0969439 2.30596 0
M  V30 6205 C 572.464 -0.851151 1.42635 0
M  V30 6206 O 573.649 -0.835092 1.71554 0
M  V30 6207 C 570.789 -1.08234 3.27688 0
M  V30 6208 C 569.902 -0.328072 4.30752 0
M  V30 6209 C 569.037 -1.30399 5.14946 0
M  V30 6210 C 568.076 -0.538049 6.09731 0
M  V30 6211 N 567.213 -1.46371 6.86673 0
M  V30 6212 H 572.053 0.63864 2.91076 0
M  V30 6213 H 569.59 0.326733 1.43425 0
M  V30 6214 H 571.548 -1.66688 3.82454 0
M  V30 6215 H 570.178 -1.78523 2.68941 0
M  V30 6216 H 569.23 0.372136 3.78575 0
M  V30 6217 H 570.542 0.269142 4.98073 0
M  V30 6218 H 569.696 -1.96032 5.74157 0
M  V30 6219 H 568.435 -1.93514 4.47665 0
M  V30 6220 H 567.44 0.131852 5.49642 0
M  V30 6221 H 568.665 0.0881732 6.79043 0
M  V30 6222 H 566.611 -2.08233 6.22073 0
M  V30 6223 H 566.528 -0.920152 7.50379 0
M  V30 6224 H 567.796 -2.10932 7.50418 0
M  V30 6225 N 572.025 -1.5352 0.356285 0
M  V30 6226 C 573.274 -2.00298 -0.237373 0
M  V30 6227 C 573.587 -1.24784 -1.50627 0
M  V30 6228 O 574.793 -1.62103 -2.17795 0
M  V30 6229 C 573.249 -3.56771 -0.473545 0
M  V30 6230 C 572.857 -4.41154 0.780183 0
M  V30 6231 C 574.601 -4.1193 -1.02537 0
M  V30 6232 C 572.508 -5.89161 0.514108 0
M  V30 6233 H 571.438 -0.748307 -0.092478 0
M  V30 6234 H 574.089 -1.77283 0.473588 0
M  V30 6235 H 572.471 -3.75902 -1.24553 0
M  V30 6236 H 573.645 -4.33797 1.55425 0
M  V30 6237 H 571.96 -3.97052 1.25455 0
M  V30 6238 H 574.557 -5.20133 -1.2396 0
M  V30 6239 H 574.9 -3.65943 -1.98473 0
M  V30 6240 H 575.433 -3.96561 -0.313775 0
M  V30 6241 H 572.172 -6.39408 1.44355 0
M  V30 6242 H 571.692 -5.9939 -0.221632 0
M  V30 6243 H 573.371 -6.46857 0.136122 0
M  V30 6244 N 573.503 -0.0852151 -1.57369 0
M  V30 6245 C 574.749 0.581666 -1.94279 0
M  V30 6246 C 575.082 1.68444 -0.966446 0
M  V30 6247 O 574.357 1.945 0.00215277 0
M  V30 6248 C 574.64 1.14609 -3.41375 0
M  V30 6249 C 574.493 0.0490414 -4.49773 0
M  V30 6250 C 575.812 2.04751 -3.8957 0
M  V30 6251 H 572.931 0.209972 -0.706456 0
M  V30 6252 H 575.573 -0.153915 -1.89376 0
M  V30 6253 H 573.723 1.77297 -3.45685 0
M  V30 6254 H 575.395 -0.584721 -4.57579 0
M  V30 6255 H 573.638 -0.618638 -4.29366 0
M  V30 6256 H 574.309 0.484601 -5.49869 0
M  V30 6257 H 576.785 1.51981 -3.87351 0
M  V30 6258 H 575.661 2.41173 -4.93079 0
M  V30 6259 H 575.922 2.96107 -3.28288 0
M  V30 6260 N 574.981 1.5647 0.188427 0
M  V30 6261 C 575.891 1.98285 1.2538 0
M  V30 6262 C 576.907 0.891535 1.49424 0
M  V30 6263 O 578.083 1.19782 1.61908 0
M  V30 6264 C 575.148 2.31965 2.57669 0
M  V30 6265 C 574.209 3.54838 2.41638 0
M  V30 6266 C 573.442 3.86901 3.67618 0
M  V30 6267 O 573.665 3.20163 4.72072 0
M  V30 6268 O 572.599 4.80309 3.62749 0
M  V30 6269 H 576.425 2.89145 0.928912 0
M  V30 6270 H 574.01 1.44112 0.393955 0
M  V30 6271 H 575.892 2.54673 3.35737 0
M  V30 6272 H 574.567 1.44271 2.89771 0
M  V30 6273 H 573.474 3.37369 1.61658 0
M  V30 6274 H 574.807 4.43019 2.14465 0
M  V30 6275 N 576.459 -0.456382 1.50847 0
M  V30 6276 C 577.369 -1.57805 1.73594 0
M  V30 6277 C 578.385 -1.62599 0.619476 0
M  V30 6278 O 579.561 -1.80195 0.899532 0
M  V30 6279 C 576.626 -2.93926 1.8387 0
M  V30 6280 C 575.687 -2.99402 3.07663 0
M  V30 6281 C 574.92 -4.29031 3.1744 0
M  V30 6282 O 575.143 -5.20358 2.33631 0
M  V30 6283 O 574.077 -4.40401 4.10281 0
M  V30 6284 H 577.903 -1.41531 2.68705 0
M  V30 6285 H 575.488 -0.637422 1.3512 0
M  V30 6286 H 577.37 -3.74747 1.92725 0
M  V30 6287 H 576.045 -3.10368 0.91944 0
M  V30 6288 H 574.952 -2.17606 3.043 0
M  V30 6289 H 576.285 -2.87901 3.99216 0
M  V30 6290 N 577.937 -1.40673 -0.710563 0
M  V30 6291 C 579.167 -1.4234 -1.49742 0
M  V30 6292 C 579.575 -0.022821 -1.89186 0
M  V30 6293 O 578.918 0.964773 -1.56326 0
M  V30 6294 C 578.98 -2.25509 -2.79975 0
M  V30 6295 C 578.644 -3.73862 -2.62824 0
M  V30 6296 C 579.641 -4.66379 -2.29752 0
M  V30 6297 C 577.326 -4.17735 -2.78932 0
M  V30 6298 C 579.32 -6.00756 -2.13006 0
M  V30 6299 C 577.007 -5.5218 -2.61802 0
M  V30 6300 C 578.005 -6.43505 -2.28888 0
M  V30 6301 O 577.693 -7.75472 -2.11894 0
M  V30 6302 H 577.425 -0.487311 -0.468513 0
M  V30 6303 H 579.979 -1.8542 -0.883668 0
M  V30 6304 H 578.209 -1.77218 -3.43701 0
M  V30 6305 H 579.898 -2.19058 -3.41714 0
M  V30 6306 H 580.664 -4.33778 -2.16936 0
M  V30 6307 H 576.543 -3.46967 -3.03537 0
M  V30 6308 H 580.087 -6.72003 -1.87237 0
M  V30 6309 H 575.984 -5.84365 -2.74204 0
M  V30 6310 H 576.752 -7.86458 -2.26775 0
M  V30 6311 N 579.415 0.9433 -1.26252 0
M  V30 6312 C 580.661 1.69226 -1.12846 0
M  V30 6313 C 581.016 1.8963 0.325282 0
M  V30 6314 O 580.309 1.46435 1.23561 0
M  V30 6315 C 580.503 3.07073 -1.82868 0
M  V30 6316 C 580.332 3.00118 -3.34902 0
M  V30 6317 C 579.102 3.03251 -4.04186 0
M  V30 6318 C 581.3 2.80418 -4.31127 0
M  V30 6319 N 579.282 2.86573 -5.42908 0
M  V30 6320 C 580.653 2.72287 -5.5701 0
M  V30 6321 C 582.708 2.65185 -4.21404 0
M  V30 6322 C 581.411 2.50479 -6.74279 0
M  V30 6323 C 583.437 2.4475 -5.38378 0
M  V30 6324 C 582.799 2.37349 -6.63208 0
M  V30 6325 H 578.898 0.626716 -0.467708 0
M  V30 6326 H 581.482 1.11645 -1.5951 0
M  V30 6327 H 579.653 3.62797 -1.38682 0
M  V30 6328 H 581.385 3.70816 -1.62103 0
M  V30 6329 H 578.14 3.12882 -3.55531 0
M  V30 6330 H 578.564 2.81408 -6.15742 0
M  V30 6331 H 583.206 2.69675 -3.25631 0
M  V30 6332 H 580.924 2.4473 -7.70151 0
M  V30 6333 H 584.51 2.33872 -5.32724 0
M  V30 6334 H 583.39 2.21746 -7.52196 0
M  V30 6335 N 580.893 1.08022 1.14757 0
M  V30 6336 C 582.133 0.816959 1.87364 0
M  V30 6337 C 582.497 -0.645407 1.80827 0
M  V30 6338 O 583.698 -1.024 2.48531 0
M  V30 6339 C 581.969 1.31961 3.32146 0
M  V30 6340 S 583.528 1.18806 4.2241 0
M  V30 6341 H 580.346 0.295862 0.646519 0
M  V30 6342 H 582.948 1.3807 1.38408 0
M  V30 6343 H 581.652 2.37847 3.3445 0
M  V30 6344 H 581.183 0.751371 3.86158 0
M  V30 6345 H 583.198 0.129865 4.9603 0
M  V30 6346 N 582.371 -1.3172 0.865308 0
M  V30 6347 C 583.596 -2.01591 0.487415 0
M  V30 6348 C 584.021 -1.6455 -0.911307 0
M  V30 6349 O 583.379 -0.851689 -1.6005 0
M  V30 6350 C 583.427 -3.54759 0.646401 0
M  V30 6351 O 582.531 -4.11185 -0.316284 0
M  V30 6352 H 581.872 -0.634884 0.194468 0
M  V30 6353 H 584.402 -1.68024 1.16744 0
M  V30 6354 H 584.412 -4.04438 0.537932 0
M  V30 6355 H 583.087 -3.8106 1.66632 0
M  V30 6356 H 581.664 -3.72543 -0.163162 0
M  V30 6357 N 583.85 -0.624285 -1.44708 0
M  V30 6358 C 584.797 0.0847135 -2.30644 0
M  V30 6359 C 585.767 0.843575 -1.43084 0
M  V30 6360 O 586.952 0.825982 -1.71995 0
M  V30 6361 C 584.091 1.06495 -3.28257 0
M  V30 6362 C 583.205 0.305224 -4.3092 0
M  V30 6363 C 582.34 1.27667 -5.1563 0
M  V30 6364 C 581.379 0.505706 -6.10007 0
M  V30 6365 N 580.516 1.42727 -6.8744 0
M  V30 6366 H 585.356 -0.654068 -2.90733 0
M  V30 6367 H 582.893 -0.334334 -1.4325 0
M  V30 6368 H 584.851 1.64658 -3.83332 0
M  V30 6369 H 583.481 1.77094 -2.69884 0
M  V30 6370 H 582.533 -0.392207 -3.78373 0
M  V30 6371 H 583.845 -0.295553 -4.97924 0
M  V30 6372 H 582.999 1.92984 -5.75189 0
M  V30 6373 H 581.738 1.91137 -4.48685 0
M  V30 6374 H 580.743 -0.160999 -5.49564 0
M  V30 6375 H 581.968 -0.124183 -6.78986 0
M  V30 6376 H 579.913 2.04931 -6.23169 0
M  V30 6377 H 579.831 0.880345 -7.50857 0
M  V30 6378 H 581.099 2.0695 -7.51526 0
M  V30 6379 N 585.328 1.53329 -0.364422 0
M  V30 6380 C 586.238 2.29414 0.490552 0
M  V30 6381 C 587.254 1.35335 1.09363 0
M  V30 6382 O 588.43 1.68391 1.10483 0
M  V30 6383 C 585.495 3.06772 1.61529 0
M  V30 6384 C 584.556 4.16516 1.03986 0
M  V30 6385 C 583.789 4.90176 2.111 0
M  V30 6386 O 584.012 4.63687 3.32191 0
M  V30 6387 O 582.946 5.76134 1.74222 0
M  V30 6388 H 586.772 3.03428 -0.12856 0
M  V30 6389 H 584.357 1.48843 -0.128837 0
M  V30 6390 H 586.239 3.55082 2.26924 0
M  V30 6391 H 584.914 2.35596 2.21983 0
M  V30 6392 H 583.821 3.7246 0.349856 0
M  V30 6393 H 585.154 4.89855 0.4799 0
M  V30 6394 N 586.806 0.0935595 1.57322 0
M  V30 6395 C 588.034 -0.578934 1.98635 0
M  V30 6396 C 588.449 -1.61819 0.972626 0
M  V30 6397 O 587.806 -1.82461 -0.0379638 0
M  V30 6398 C 587.857 -1.22802 3.40003 0
M  V30 6399 O 587.578 -0.230334 4.37494 0
M  V30 6400 C 589.079 -1.98627 3.96311 0
M  V30 6401 H 586.299 -0.155324 0.652775 0
M  V30 6402 H 588.843 0.172393 2.03772 0
M  V30 6403 H 586.998 -1.93029 3.35885 0
M  V30 6404 H 587.412 -0.698649 5.19826 0
M  V30 6405 H 588.886 -2.39405 4.97382 0
M  V30 6406 H 589.363 -2.85151 3.34044 0
M  V30 6407 H 589.969 -1.3322 4.03897 0
M  V30 6408 N 588.284 -1.56567 -0.180126 0
M  V30 6409 C 589.53 -1.81761 -0.899497 0
M  V30 6410 C 589.863 -0.670015 -1.82276 0
M  V30 6411 O 589.138 0.328575 -1.91705 0
M  V30 6412 C 589.421 -3.17296 -1.7028 0
M  V30 6413 C 589.274 -4.4257 -0.803255 0
M  V30 6414 C 590.593 -3.49678 -2.67233 0
M  V30 6415 H 587.712 -0.661192 -0.325567 0
M  V30 6416 H 590.354 -1.89272 -0.16612 0
M  V30 6417 H 588.504 -3.11023 -2.32802 0
M  V30 6418 H 590.176 -4.60902 -0.191585 0
M  V30 6419 H 588.419 -4.33658 -0.110796 0
M  V30 6420 H 589.09 -5.33935 -1.40064 0
M  V30 6421 H 591.566 -3.56347 -2.14839 0
M  V30 6422 H 590.442 -4.45605 -3.20511 0
M  V30 6423 H 590.703 -2.73932 -3.47007 0
M  V30 6424 N 589.762 0.448376 -1.51087 0
M  V30 6425 C 591.039 1.20926 -1.53741 0
M  V30 6426 C 591.419 2.09025 -0.295222 0
M  V30 6427 O 590.767 2.16851 0.720283 0
M  V30 6428 C 590.977 2.02067 -2.84552 0
M  V30 6429 C 592.325 2.59486 -3.36084 0
M  V30 6430 O 593.349 2.12289 -2.86028 0
M  V30 6431 O 592.208 3.45539 -4.23397 0
M  V30 6432 H 589.302 0.549951 -0.617643 0
M  V30 6433 H 591.848 0.458344 -1.63393 0
M  V30 6434 H 590.62 1.37291 -3.66425 0
M  V30 6435 H 590.243 2.84246 -2.78011 0
M  V30 6436 N 591.24 1.41047 0.703093 0
M  V30 6437 C 592.188 1.42494 1.83843 0
M  V30 6438 C 593.182 0.303885 1.66652 0
M  V30 6439 O 594.388 0.475544 1.73605 0
M  V30 6440 H 590.763 0.445685 0.605697 0
M  V30 6441 H 592.734 2.38194 1.79739 0
M  V30 6442 C 591.483 1.31666 3.21807 0
M  V30 6443 H 590.806 2.17212 3.35647 0
M  V30 6444 H 592.246 1.36738 4.01346 0
M  V30 6445 C 590.705 0.0281828 3.36888 0
M  V30 6446 O 591.235 -0.929995 3.90786 0
M  V30 6447 N 589.441 -0.0454322 2.90564 0
M  V30 6448 H 588.988 0.735046 2.4689 0
M  V30 6449 H 588.946 -0.906968 3.01034 0
M  V30 6450 N 592.718 -0.936591 1.26751 0
M  V30 6451 C 594.134 -1.21095 1.03963 0
M  V30 6452 C 594.334 -2.00156 -0.232372 0
M  V30 6453 O 593.39 -2.3434 -0.940274 0
M  V30 6454 C 594.703 -1.96775 2.27377 0
M  V30 6455 C 596.251 -2.09749 2.32324 0
M  V30 6456 C 596.726 -2.88832 3.55443 0
M  V30 6457 N 598.217 -2.96404 3.55948 0
M  V30 6458 C 598.952 -3.58036 4.47881 0
M  V30 6459 N 598.448 -4.21132 5.50109 0
M  V30 6460 N 600.241 -3.55353 4.35523 0
M  V30 6461 H 592.392 -0.408173 2.08441 0
M  V30 6462 H 594.655 -0.243139 0.91629 0
M  V30 6463 H 594.361 -1.46094 3.19921 0
M  V30 6464 H 594.235 -2.97424 2.31989 0
M  V30 6465 H 596.622 -2.5962 1.40291 0
M  V30 6466 H 596.703 -1.08347 2.31721 0
M  V30 6467 H 596.347 -2.39647 4.47808 0
M  V30 6468 H 596.277 -3.90499 3.53296 0
M  V30 6469 H 598.768 -2.51552 2.82011 0
M  V30 6470 H 599.081 -4.66071 6.16439 0
M  V30 6471 H 597.426 -4.19705 5.53961 0
M  V30 6472 H 600.617 -3.05256 3.54875 0
M  V30 6473 H 600.79 -4.03097 5.07363 0
M  V30 6474 N 594.196 -1.08629 -1.14182 0
M  V30 6475 C 595.607 -0.838003 -1.66836 0
M  V30 6476 C 595.958 0.634885 -1.85644 0
M  V30 6477 O 595.083 1.49008 -1.56926 0
M  V30 6478 C 595.678 -1.51465 -3.03058 0
M  V30 6479 C 594.237 -1.31355 -3.52736 0
M  V30 6480 C 593.384 -1.57599 -2.28162 0
M  V30 6481 H 596.335 -1.24656 -0.982165 0
M  V30 6482 H 596.356 -0.943134 -3.68626 0
M  V30 6483 H 595.868 -2.58661 -2.89337 0
M  V30 6484 H 593.969 -0.262384 -3.71675 0
M  V30 6485 H 594.082 -2.04275 -4.33369 0
M  V30 6486 H 592.446 -0.997659 -2.34348 0
M  V30 6487 H 593.229 -2.66006 -2.17015 0
M  V30 6488 N 595.674 1.31259 -0.872281 0
M  V30 6489 C 596.604 2.30929 -0.345554 0
M  V30 6490 C 597.585 1.60449 0.5648 0
M  V30 6491 O 598.77 1.8814 0.481335 0
M  V30 6492 C 595.9 3.44348 0.451823 0
M  V30 6493 C 594.854 4.26435 -0.365641 0
M  V30 6494 C 594.18 5.31785 0.557562 0
M  V30 6495 C 595.48 4.97159 -1.60095 0
M  V30 6496 H 597.174 2.75234 -1.17841 0
M  V30 6497 H 594.72 1.3232 -0.568094 0
M  V30 6498 H 596.673 4.13128 0.830854 0
M  V30 6499 H 595.397 2.98816 1.31821 0
M  V30 6500 H 594.056 3.59326 -0.726649 0
M  V30 6501 H 593.704 4.82502 1.4213 0
M  V30 6502 H 593.404 5.87598 0.0144878 0
M  V30 6503 H 594.928 6.03424 0.933387 0
M  V30 6504 H 596.342 5.58523 -1.29323 0
M  V30 6505 H 594.739 5.62779 -2.08327 0
M  V30 6506 H 595.809 4.24012 -2.35249 0
M  V30 6507 N 597.152 0.631951 1.44375 0
M  V30 6508 C 598.398 0.13697 2.02337 0
M  V30 6509 C 598.731 -1.23826 1.49602 0
M  V30 6510 O 598.006 -1.8221 0.680415 0
M  V30 6511 C 598.289 0.124536 3.59885 0
M  V30 6512 C 598.142 1.53217 4.229 0
M  V30 6513 C 599.461 -0.550481 4.36644 0
M  V30 6514 H 596.58 0.051247 0.735216 0
M  V30 6515 H 599.222 0.808581 1.71936 0
M  V30 6516 H 597.372 -0.44737 3.85916 0
M  V30 6517 H 599.044 2.15303 4.07973 0
M  V30 6518 H 597.287 2.0858 3.80364 0
M  V30 6519 H 597.958 1.4755 5.31914 0
M  V30 6520 H 600.434 -0.0641154 4.16051 0
M  V30 6521 H 599.31 -0.528371 5.46351 0
M  V30 6522 H 599.571 -1.62097 4.11311 0
M  V30 6523 N 598.631 -1.53133 0.372548 0
M  V30 6524 C 599.908 -1.93704 -0.271693 0
M  V30 6525 C 600.288 -1.30667 -1.65799 0
M  V30 6526 O 599.636 -0.46838 -2.23648 0
M  V30 6527 C 599.846 -3.47576 -0.314903 0
M  V30 6528 C 601.194 -4.20998 -0.551912 0
M  V30 6529 O 602.218 -3.53994 -0.39582 0
M  V30 6530 O 601.077 -5.39748 -0.85639 0
M  V30 6531 H 598.171 -0.810457 -0.164586 0
M  V30 6532 H 600.717 -1.6427 0.425838 0
M  V30 6533 H 599.489 -3.85749 0.656792 0
M  V30 6534 H 599.112 -3.83264 -1.05804 0
M  V30 6535 N 600.109 -0.101901 -1.5727 0
M  V30 6536 C 601.525 0.254739 -1.57554 0
M  V30 6537 C 601.725 1.67937 -1.11352 0
M  V30 6538 O 600.781 2.39722 -0.793081 0
M  V30 6539 C 602.094 0.036975 -3.00677 0
M  V30 6540 C 603.642 0.104199 -3.12827 0
M  V30 6541 C 604.117 -0.0856565 -4.5792 0
M  V30 6542 N 605.608 -0.0310498 -4.6319 0
M  V30 6543 C 606.343 -0.153099 -5.73196 0
M  V30 6544 N 605.839 -0.330364 -6.92012 0
M  V30 6545 N 607.632 -0.0938854 -5.62022 0
M  V30 6546 H 599.783 -1.03263 -1.85609 0
M  V30 6547 H 602.046 -0.405251 -0.857016 0
M  V30 6548 H 601.752 -0.947254 -3.38703 0
M  V30 6549 H 601.626 0.776335 -3.69124 0
M  V30 6550 H 604.013 1.07894 -2.74669 0
M  V30 6551 H 604.094 -0.666762 -2.46957 0
M  V30 6552 H 603.738 -1.05729 -4.96773 0
M  V30 6553 H 603.668 0.705082 -5.21858 0
M  V30 6554 H 606.159 0.103141 -3.77759 0
M  V30 6555 H 606.472 -0.41482 -7.71686 0
M  V30 6556 H 604.817 -0.366119 -6.94035 0
M  V30 6557 H 608.008 0.0435168 -4.6808 0
M  V30 6558 H 608.181 -0.19245 -6.47714 0
M  V30 6559 N 601.587 1.56661 0.17182 0
M  V30 6560 C 602.534 1.96371 1.21273 0
M  V30 6561 C 603.504 0.82756 1.44016 0
M  V30 6562 O 604.689 1.08764 1.56764 0
M  V30 6563 C 601.829 2.32838 2.54716 0
M  V30 6564 C 600.942 3.59628 2.39356 0
M  V30 6565 C 600.077 3.85311 3.65662 0
M  V30 6566 C 599.116 5.0545 3.45234 0
M  V30 6567 N 598.253 5.27268 4.63608 0
M  V30 6568 H 603.093 2.85106 0.86709 0
M  V30 6569 H 600.63 1.41073 0.416744 0
M  V30 6570 H 602.588 2.52004 3.3249 0
M  V30 6571 H 601.218 1.47214 2.87277 0
M  V30 6572 H 600.27 3.4838 1.52761 0
M  V30 6573 H 601.582 4.4756 2.20207 0
M  V30 6574 H 600.736 4.04841 4.51872 0
M  V30 6575 H 599.475 2.95753 3.8779 0
M  V30 6576 H 598.48 4.85819 2.5741 0
M  V30 6577 H 599.705 5.96538 3.24529 0
M  V30 6578 H 597.651 4.40662 4.85956 0
M  V30 6579 H 597.568 6.09422 4.4737 0
M  V30 6580 H 598.836 5.51277 5.51103 0
M  V30 6581 N 603.065 -0.440357 1.51323 0
M  V30 6582 C 604.311 -1.19181 1.64085 0
M  V30 6583 C 604.644 -1.90936 0.354575 0
M  V30 6584 O 603.919 -1.8347 -0.645675 0
M  V30 6585 C 604.202 -2.2112 2.84215 0
M  V30 6586 C 604.055 -1.53468 4.22809 0
M  V30 6587 C 605.374 -3.22133 2.99864 0
M  V30 6588 H 602.493 -0.431924 0.597169 0
M  V30 6589 H 605.135 -0.481443 1.83799 0
M  V30 6590 H 603.285 -2.81703 2.67537 0
M  V30 6591 H 604.957 -0.962455 4.51148 0
M  V30 6592 H 603.2 -0.837086 4.25647 0
M  V30 6593 H 603.871 -2.27694 5.02852 0
M  V30 6594 H 606.347 -2.71601 3.15233 0
M  V30 6595 H 605.223 -3.90756 3.85488 0
M  V30 6596 H 605.484 -3.88061 2.11804 0
M  V30 6597 N 604.543 -1.41418 -0.695603 0
M  V30 6598 C 605.789 -1.41983 -1.45645 0
M  V30 6599 C 606.144 -0.0282216 -1.92379 0
M  V30 6600 O 605.437 0.945916 -1.66622 0
M  V30 6601 C 605.631 -2.36112 -2.68302 0
M  V30 6602 C 605.46 -3.84288 -2.33566 0
M  V30 6603 C 604.23 -4.52971 -2.23932 0
M  V30 6604 C 606.428 -4.75264 -1.96543 0
M  V30 6605 N 604.41 -5.86276 -1.82081 0
M  V30 6606 C 605.781 -5.97517 -1.6545 0
M  V30 6607 C 607.836 -4.62911 -1.83352 0
M  V30 6608 C 606.539 -7.08793 -1.22492 0
M  V30 6609 C 608.565 -5.74149 -1.41799 0
M  V30 6610 C 607.927 -6.95501 -1.11617 0
M  V30 6611 H 604.026 -0.574771 -0.530247 0
M  V30 6612 H 606.61 -1.77289 -0.804788 0
M  V30 6613 H 604.781 -2.02902 -3.31188 0
M  V30 6614 H 606.513 -2.27397 -3.34773 0
M  V30 6615 H 603.268 -4.06909 -2.42327 0
M  V30 6616 H 603.692 -6.56926 -1.63638 0
M  V30 6617 H 608.334 -3.69588 -2.05341 0
M  V30 6618 H 606.052 -8.01982 -0.992482 0
M  V30 6619 H 609.638 -5.66595 -1.32143 0
M  V30 6620 H 608.518 -7.80114 -0.799493 0
M  V30 6621 N 606.021 0.929856 -1.27246 0
M  V30 6622 C 606.968 2.03017 -1.09785 0
M  V30 6623 C 607.938 1.661 0.000456744 0
M  V30 6624 O 609.123 1.90116 -0.161462 0
M  V30 6625 C 606.263 3.36878 -0.748816 0
M  V30 6626 C 605.376 3.86763 -1.92453 0
M  V30 6627 C 604.511 5.09061 -1.51758 0
M  V30 6628 C 603.55 5.51237 -2.66091 0
M  V30 6629 N 602.687 6.64732 -2.25999 0
M  V30 6630 H 607.527 2.17285 -2.03939 0
M  V30 6631 H 605.064 1.06448 -1.01524 0
M  V30 6632 H 607.022 4.13855 -0.527283 0
M  V30 6633 H 605.652 3.22424 0.155771 0
M  V30 6634 H 604.704 3.06086 -2.25867 0
M  V30 6635 H 606.016 4.13994 -2.78227 0
M  V30 6636 H 605.17 5.93532 -1.25716 0
M  V30 6637 H 603.909 4.83602 -0.630896 0
M  V30 6638 H 602.914 4.65316 -2.92849 0
M  V30 6639 H 604.139 5.78692 -3.55377 0
M  V30 6640 H 602.085 6.40935 -1.3978 0
M  V30 6641 H 602.002 6.91607 -3.05313 0
M  V30 6642 H 603.27 7.52549 -2.03199 0
M  V30 6643 O 607.538 1.21494 1.06403 0
M  V30 6644 H 608.229 0.975073 1.67368 0
M  V30 END ATOM
M  V30 BEGIN BOND
M  V30 END BOND
M  V30 END CTAB
M  END
$$$$
