drugbank_target|P48443 Retinoic acid receptor RXR-gamma (DB00210; DB00307; DB00412; DB00459; DB00523; DB00755; DB00926; DB01393; DB02746; DB03756)
 OpenBabel12092119373D

  0  0  0     0  0            999 V3000
M  V30 BEGIN CTAB
M  V30 COUNTS 7112 7188 0 0 0
M  V30 BEGIN ATOM
M  V30 1 H -0.908 1.98254 -0.117106 0
M  V30 2 N 0 1.576 0 0
M  V30 3 C 0.933 2.03868 1.02534 0
M  V30 4 C 1.911 0.928543 1.3348 0
M  V30 5 O 3.095 1.19667 1.45644 0
M  V30 6 C 0.222 2.43627 2.35294 0
M  V30 7 C -0.732 3.65373 2.2001 0
M  V30 8 S 0.101 5.13292 1.52614 0
M  V30 9 C 1.257 5.56322 2.86805 0
M  V30 10 H 1.49 2.90518 0.631377 0
M  V30 11 H -0.977 1.52953 0.210867 0
M  V30 12 H 0.981 2.67203 3.11629 0
M  V30 13 H -0.358 1.57376 2.7183 0
M  V30 14 H -1.165 3.90944 3.18086 0
M  V30 15 H -1.563 3.418 1.51819 0
M  V30 16 H 0.729 5.58782 3.83104 0
M  V30 17 H 1.672 6.56266 2.65933 0
M  V30 18 H 2.08 4.83886 2.90714 0
M  V30 19 N 1.4781 -0.272755 1.55222 0
M  V30 20 C 2.7081 -1.02107 1.79604 0
M  V30 21 C 3.1161 -1.80419 0.569693 0
M  V30 22 O 2.4591 -1.77566 -0.470743 0
M  V30 23 C 2.5211 -2.02675 2.96922 0
M  V30 24 C 2.1851 -1.43299 4.33952 0
M  V30 25 C 3.1821 -0.84853 5.12929 0
M  V30 26 C 0.8671 -1.46012 4.8061 0
M  V30 27 C 2.8611 -0.299109 6.36698 0
M  V30 28 C 0.5481 -0.906833 6.04334 0
M  V30 29 C 1.5461 -0.32733 6.82215 0
M  V30 30 O 1.2341 0.217479 8.03606 0
M  V30 31 H 0.9661 -0.307322 0.602104 0
M  V30 32 H 3.5201 -0.308862 2.03065 0
M  V30 33 H 1.7501 -2.77656 2.69155 0
M  V30 34 H 3.4391 -2.63637 3.08626 0
M  V30 35 H 4.2051 -0.820265 4.78013 0
M  V30 36 H 0.0841 -1.90056 4.2 0
M  V30 37 H 3.6281 0.153852 6.9743 0
M  V30 38 H -0.4749 -0.932339 6.38731 0
M  V30 39 H 0.2931 0.106863 8.1843 0
M  V30 40 N 2.9562 -1.48159 -0.537278 0
M  V30 41 C 4.2042 -1.55497 -1.29094 0
M  V30 42 C 4.5252 -0.227454 -1.93669 0
M  V30 43 O 3.7952 0.750386 -1.80959 0
M  V30 44 H 2.3752 -0.572832 -0.47945 0
M  V30 45 H 5.0372 -1.84579 -0.625818 0
M  V30 46 H 4.1332 -2.33216 -2.07405 0
M  V30 47 N 4.4343 0.785586 -1.36625 0
M  V30 48 C 5.3823 1.91978 -1.31329 0
M  V30 49 C 6.3763 1.68162 -0.204416 0
M  V30 50 O 7.5823 1.76122 -0.371645 0
M  V30 51 H 3.9573 0.631087 -0.408942 0
M  V30 52 H 5.9283 1.93562 -2.27104 0
M  V30 53 C 4.6773 3.29055 -1.12329 0
M  V30 54 H 4.0003 3.4795 -1.96903 0
M  V30 55 H 5.4403 4.08756 -1.12671 0
M  V30 56 C 3.8993 3.36461 0.171861 0
M  V30 57 O 4.4293 3.84576 1.16035 0
M  V30 58 N 2.6353 2.89782 0.217846 0
M  V30 59 H 2.1823 2.50819 -0.587183 0
M  V30 60 H 2.1403 2.95119 1.08408 0
M  V30 61 N 5.9124 1.20967 1.01018 0
M  V30 62 C 7.1424 1.04803 1.78044 0
M  V30 63 C 7.5504 -0.405462 1.84804 0
M  V30 64 O 6.8934 -1.2932 1.30468 0
M  V30 65 C 6.9554 1.56377 3.23707 0
M  V30 66 C 6.6194 3.04767 3.40538 0
M  V30 67 C 7.6164 4.02366 3.29239 0
M  V30 68 C 5.3014 3.43862 3.66147 0
M  V30 69 C 7.2954 5.37049 3.43304 0
M  V30 70 C 4.9824 4.78699 3.79855 0
M  V30 71 C 5.9804 5.75101 3.68439 0
M  V30 72 O 5.6684 7.07493 3.81719 0
M  V30 73 H 5.4004 0.368778 0.56655 0
M  V30 74 H 7.9544 1.60642 1.27997 0
M  V30 75 H 6.1844 0.949297 3.74867 0
M  V30 76 H 7.8734 1.36136 3.8239 0
M  V30 77 H 8.6394 3.73506 3.09384 0
M  V30 78 H 4.5184 2.69364 3.74118 0
M  V30 79 H 8.0624 6.12277 3.34309 0
M  V30 80 H 3.9594 5.07247 3.99213 0
M  V30 81 H 4.7274 7.1483 3.98697 0
M  V30 82 N 7.3905 -1.2043 1.01659 0
M  V30 83 C 8.6155 -1.94318 0.724942 0
M  V30 84 C 9.0405 -1.74266 -0.708034 0
M  V30 85 O 8.3985 -1.03694 -1.48719 0
M  V30 86 C 8.4465 -3.44486 1.06591 0
M  V30 87 O 7.5505 -4.12017 0.177599 0
M  V30 88 H 6.8915 -0.60708 0.26898 0
M  V30 89 H 9.4215 -1.52861 1.35995 0
M  V30 90 H 9.4315 -3.95106 1.01762 0
M  V30 91 H 8.1065 -3.58404 2.10997 0
M  V30 92 H 6.6835 -3.71821 0.283421 0
M  V30 93 N 8.8686 -0.792821 -1.36206 0
M  V30 94 C 9.8186 -0.166598 -2.27391 0
M  V30 95 C 10.8026 0.651479 -1.47121 0
M  V30 96 O 11.9946 0.510994 -1.69463 0
M  V30 97 C 9.1236 0.695033 -3.36191 0
M  V30 98 C 8.2096 -0.132019 -4.23894 0
M  V30 99 N 8.6006 -1.18822 -4.91645 0
M  V30 100 C 6.8986 0.0885952 -4.45912 0
M  V30 101 C 7.5996 -1.69198 -5.56549 0
M  V30 102 N 6.5756 -1.00065 -5.34311 0
M  V30 103 H 10.3776 -0.974947 -2.77258 0
M  V30 104 H 7.8916 -0.632616 -1.49572 0
M  V30 105 H 9.8886 1.1596 -4.00448 0
M  V30 106 H 8.5486 1.50189 -2.87877 0
M  V30 107 H 9.5596 -1.57069 -4.93507 0
M  V30 108 H 6.2366 0.865688 -4.08426 0
M  V30 109 H 7.6266 -2.57395 -6.20643 0
M  V30 110 N 10.3467 1.47872 -0.545128 0
M  V30 111 C 11.5937 2.02493 -0.0165858 0
M  V30 112 C 11.9217 1.42073 1.32836 0
M  V30 113 O 11.1767 0.561459 1.87473 0
M  V30 114 C 11.4757 3.57131 0.13867 0
M  V30 115 C 11.1417 4.36411 -1.13384 0
M  V30 116 C 9.8037 4.57792 -1.48256 0
M  V30 117 C 12.1557 4.82223 -1.97764 0
M  V30 118 C 9.4837 5.22233 -2.67376 0
M  V30 119 C 11.8357 5.47977 -3.16076 0
M  V30 120 C 10.4997 5.67593 -3.51275 0
M  V30 121 H 9.7697 0.740975 -0.00606918 0
M  V30 122 H 12.4167 1.77683 -0.714207 0
M  V30 123 H 10.7217 3.80865 0.919172 0
M  V30 124 H 12.4187 3.97031 0.562782 0
M  V30 125 H 9.0087 4.2004 -0.852297 0
M  V30 126 H 13.1927 4.65493 -1.72132 0
M  V30 127 H 8.4487 5.35616 -2.94831 0
M  V30 128 H 12.6227 5.8244 -3.81755 0
M  V30 129 H 10.2497 6.17298 -4.43675 0
M  V30 130 N 11.8248 0.280983 1.55075 0
M  V30 131 C 12.7578 -0.645439 2.18882 0
M  V30 132 C 13.7358 -1.14786 1.15165 0
M  V30 133 O 14.9198 -1.21975 1.43716 0
M  V30 134 C 12.0468 -1.88088 2.81674 0
M  V30 135 C 11.0928 -1.51343 3.98745 0
M  V30 136 S 11.9258 -0.586548 5.32278 0
M  V30 137 C 13.0818 -1.83024 5.98543 0
M  V30 138 H 13.3148 -0.1033 2.9712 0
M  V30 139 H 10.8478 0.0652099 1.54262 0
M  V30 140 H 12.8058 -2.58997 3.18482 0
M  V30 141 H 11.4668 -2.39417 2.03318 0
M  V30 142 H 10.6598 -2.43289 4.41392 0
M  V30 143 H 10.2618 -0.884477 3.63391 0
M  V30 144 H 12.5538 -2.77342 6.18133 0
M  V30 145 H 13.4968 -1.44668 6.93164 0
M  V30 146 H 13.9048 -1.99785 5.27964 0
M  V30 147 N 13.3029 -1.57598 0.00835791 0
M  V30 148 C 14.2499 -2.08945 -0.980346 0
M  V30 149 C 15.2199 -0.986738 -1.33614 0
M  V30 150 O 16.4049 -1.25968 -1.43306 0
M  V30 151 C 13.5449 -2.60425 -2.26435 0
M  V30 152 C 12.6579 -3.84628 -1.96685 0
M  V30 153 C 11.7929 -4.24579 -3.19228 0
M  V30 154 C 10.8319 -5.41596 -2.85202 0
M  V30 155 N 9.9689 -5.768 -4.00307 0
M  V30 156 H 14.8089 -2.93148 -0.535551 0
M  V30 157 H 12.3459 -1.44912 -0.252776 0
M  V30 158 H 14.3039 -2.88354 -3.01509 0
M  V30 159 H 12.9339 -1.79083 -2.68568 0
M  V30 160 H 11.9859 -3.63556 -1.11942 0
M  V30 161 H 13.2979 -4.69796 -1.67611 0
M  V30 162 H 12.4519 -4.53834 -4.02641 0
M  V30 163 H 11.1909 -3.38137 -3.51447 0
M  V30 164 H 10.1959 -5.12056 -2.00198 0
M  V30 165 H 11.4209 -6.29721 -2.54222 0
M  V30 166 H 9.3669 -4.93316 -4.32407 0
M  V30 167 H 9.2839 -6.5656 -3.74786 0
M  V30 168 H 10.5519 -6.10652 -4.84484 0
M  V30 169 N 14.781 0.264519 -1.55364 0
M  V30 170 C 16.028 0.994986 -1.7637 0
M  V30 171 C 16.356 1.85976 -0.5695 0
M  V30 172 O 15.611 1.90509 0.44776 0
M  V30 173 C 15.91 1.9004 -3.02687 0
M  V30 174 C 15.576 1.19243 -4.34847 0
M  V30 175 C 14.238 0.996709 -4.70764 0
M  V30 176 C 16.59 0.689296 -5.16622 0
M  V30 177 C 13.918 0.285261 -5.86006 0
M  V30 178 C 16.27 -0.00860079 -6.32599 0
M  V30 179 C 14.934 -0.215963 -6.67151 0
M  V30 180 H 14.204 0.364091 -0.645383 0
M  V30 181 H 16.851 0.266543 -1.89636 0
M  V30 182 H 15.156 2.69533 -2.84357 0
M  V30 183 H 16.853 2.46695 -3.16137 0
M  V30 184 H 13.443 1.3549 -4.06621 0
M  V30 185 H 17.627 0.828108 -4.89342 0
M  V30 186 H 12.883 0.113961 -6.11294 0
M  V30 187 H 17.057 -0.406186 -6.95214 0
M  V30 188 H 14.684 -0.769217 -7.56298 0
M  V30 189 N 16.2591 1.48442 0.529413 0
M  V30 190 C 17.6701 1.5002 1.11134 0
M  V30 191 C 18.0211 0.27031 1.94329 0
M  V30 192 O 17.1461 -0.622507 2.07253 0
M  V30 193 C 17.7411 2.71834 2.02217 0
M  V30 194 C 16.3001 2.76283 2.55627 0
M  V30 195 C 15.4471 2.43542 1.326 0
M  V30 196 H 18.3981 1.5555 0.314641 0
M  V30 197 H 18.4191 2.50384 2.8651 0
M  V30 198 H 17.9311 3.61331 1.41639 0
M  V30 199 H 16.0321 1.90995 3.19924 0
M  V30 200 H 16.1451 3.77725 2.94721 0
M  V30 201 H 14.5091 1.94709 1.64196 0
M  V30 202 H 15.2921 3.3528 0.737734 0
M  V30 203 N 17.7372 -0.778329 1.37039 0
M  V30 204 C 18.7002 -1.87301 1.32102 0
M  V30 205 C 19.7002 -1.59198 0.226405 0
M  V30 206 O 20.8902 -1.67403 0.481861 0
M  V30 207 C 18.0222 -3.24309 1.05055 0
M  V30 208 H 19.2152 -1.93093 2.29467 0
M  V30 209 H 16.7682 -0.977358 1.21973 0
M  V30 210 H 17.5032 -3.24196 0.0819373 0
M  V30 211 H 17.2882 -3.46098 1.84279 0
M  V30 212 H 18.7782 -4.04382 1.04234 0
M  V30 213 N 19.2153 -1.21501 -1.00376 0
M  V30 214 C 20.4633 -1.03095 -1.73827 0
M  V30 215 C 20.7843 0.436341 -1.90055 0
M  V30 216 O 20.0543 1.31466 -1.45236 0
M  V30 217 H 18.6343 -0.378487 -0.644016 0
M  V30 218 H 21.2963 -1.52831 -1.20949 0
M  V30 219 H 20.3923 -1.49991 -2.73695 0
M  V30 220 N 20.6934 1.19889 -1.02296 0
M  V30 221 C 21.9234 1.93109 -0.734332 0
M  V30 222 C 22.3314 1.75377 0.709889 0
M  V30 223 O 21.6744 1.06912 1.49384 0
M  V30 224 C 21.7364 3.45362 -0.99827 0
M  V30 225 C 21.4004 3.8686 -2.43287 0
M  V30 226 C 22.3974 3.92102 -3.41397 0
M  V30 227 C 20.0824 4.18668 -2.77529 0
M  V30 228 C 22.0764 4.28573 -4.71809 0
M  V30 229 C 19.7634 4.54813 -4.08153 0
M  V30 230 C 20.7614 4.59739 -5.05103 0
M  V30 231 O 20.4494 4.95051 -6.33388 0
M  V30 232 H 20.1814 0.620409 -0.268456 0
M  V30 233 H 22.7354 1.53144 -1.3688 0
M  V30 234 H 20.9654 3.85482 -0.306645 0
M  V30 235 H 22.6544 3.99814 -0.700234 0
M  V30 236 H 23.4204 3.67685 -3.1628 0
M  V30 237 H 19.2994 4.14021 -2.0275 0
M  V30 238 H 22.8434 4.32333 -5.4748 0
M  V30 239 H 18.7404 4.78687 -4.33047 0
M  V30 240 H 19.5084 5.1302 -6.37772 0
M  V30 241 N 22.1715 0.800033 1.35784 0
M  V30 242 C 23.4195 0.376597 1.9856 0
M  V30 243 C 23.7405 -1.05812 1.63795 0
M  V30 244 O 23.0105 -1.73103 0.917171 0
M  V30 245 H 21.5905 0.136261 0.734467 0
M  V30 246 H 24.2525 1.02442 1.65806 0
M  V30 247 H 23.3485 0.477002 3.08433 0
M  V30 248 N 23.6496 -1.47581 0.552962 0
M  V30 249 C 24.8976 -2.02082 0.0272703 0
M  V30 250 C 25.2186 -1.4301 -1.32563 0
M  V30 251 O 24.4886 -0.603745 -1.86365 0
M  V30 252 H 23.0686 -0.746966 0.00709182 0
M  V30 253 H 25.7306 -1.81033 0.722008 0
M  V30 254 H 24.8266 -3.12034 -0.0639951 0
M  V30 255 N 25.1277 -0.289203 -1.54924 0
M  V30 256 C 26.3527 0.329299 -2.04769 0
M  V30 257 C 26.7777 1.4763 -1.16564 0
M  V30 258 O 26.1357 1.80527 -0.167186 0
M  V30 259 C 26.1837 0.774438 -3.52186 0
M  V30 260 O 25.2877 1.88038 -3.67036 0
M  V30 261 H 24.6287 0.0659259 -0.660719 0
M  V30 262 H 27.1587 -0.42761 -2.00082 0
M  V30 263 H 27.1687 1.06642 -3.93816 0
M  V30 264 H 25.8437 -0.0646707 -4.1585 0
M  V30 265 H 24.4207 1.58985 -3.3731 0
M  V30 266 N 26.6058 1.57591 -0.0167156 0
M  V30 267 C 28.0168 1.79201 0.523834 0
M  V30 268 C 28.3678 0.925796 1.72984 0
M  V30 269 O 27.4928 0.132792 2.15992 0
M  V30 270 C 28.0878 3.25 0.957091 0
M  V30 271 C 26.6468 3.47648 1.44283 0
M  V30 272 C 25.7938 2.74374 0.401757 0
M  V30 273 H 28.7448 1.56831 -0.242816 0
M  V30 274 H 28.7658 3.34031 1.82219 0
M  V30 275 H 28.2778 3.88019 0.0791415 0
M  V30 276 H 26.3788 2.89866 2.34113 0
M  V30 277 H 26.4918 4.56352 1.45877 0
M  V30 278 H 24.8558 2.39485 0.867121 0
M  V30 279 H 25.6388 3.40102 -0.467513 0
M  V30 280 N 28.0839 -0.256276 1.55502 0
M  V30 281 C 29.3319 -0.983672 1.76545 0
M  V30 282 C 29.6529 -1.86206 0.578982 0
M  V30 283 O 28.9229 -1.91656 -0.405577 0
M  V30 284 H 27.5029 -0.366191 0.651086 0
M  V30 285 H 30.1649 -0.276479 1.92929 0
M  V30 286 H 29.2609 -1.61087 2.67315 0
M  V30 287 N 29.562 -1.4872 -0.521534 0
M  V30 288 C 30.512 -1.60269 -1.62166 0
M  V30 289 C 31.496 -0.45935 -1.54204 0
M  V30 290 O 32.688 -0.711241 -1.62081 0
M  V30 291 C 29.817 -1.65344 -3.00859 0
M  V30 292 C 28.903 -2.85187 -3.13894 0
M  V30 293 N 29.294 -4.09509 -2.96877 0
M  V30 294 C 27.592 -2.82695 -3.44963 0
M  V30 295 C 28.293 -4.89959 -3.13552 0
M  V30 296 N 27.269 -4.22934 -3.41508 0
M  V30 297 H 31.071 -2.5413 -1.47632 0
M  V30 298 H 28.585 -1.45209 -0.727194 0
M  V30 299 H 30.582 -1.71713 -3.79895 0
M  V30 300 H 29.242 -0.726058 -3.16478 0
M  V30 301 H 30.253 -4.39814 -2.73467 0
M  V30 302 H 26.93 -1.99249 -3.66887 0
M  V30 303 H 28.32 -5.98654 -3.05061 0
M  V30 304 N 31.0401 0.771051 -1.3745 0
M  V30 305 C 32.2681 1.56015 -1.35893 0
M  V30 306 C 32.6831 1.88718 0.0555523 0
M  V30 307 O 32.0401 1.51502 1.01752 0
M  V30 308 C 32.0911 2.87001 -2.19801 0
M  V30 309 O 31.8121 2.557 -3.55738 0
M  V30 310 C 33.3131 3.81228 -2.26231 0
M  V30 311 H 30.5331 0.483317 -0.465453 0
M  V30 312 H 33.0771 0.955611 -1.80799 0
M  V30 313 H 31.2321 3.43877 -1.78402 0
M  V30 314 H 31.6461 3.39584 -3.99729 0
M  V30 315 H 33.1201 4.70139 -2.89263 0
M  V30 316 H 33.5971 4.20409 -1.27093 0
M  V30 317 H 34.2031 3.30281 -2.67945 0
M  V30 318 N 32.5182 1.22032 0.997298 0
M  V30 319 C 33.7662 1.04016 1.73278 0
M  V30 320 C 34.0872 -0.426255 1.90284 0
M  V30 321 O 33.3572 -1.30694 1.45931 0
M  V30 322 H 31.9372 0.381897 0.642 0
M  V30 323 H 34.5992 1.5347 1.20137 0
M  V30 324 H 33.6952 1.51441 2.72896 0
M  V30 325 N 33.9963 -1.19345 1.0293 0
M  V30 326 C 35.2213 -1.93538 0.745511 0
M  V30 327 C 35.6463 -1.75007 -0.689511 0
M  V30 328 O 35.0043 -1.05265 -1.47611 0
M  V30 329 C 35.0523 -3.43336 1.10239 0
M  V30 330 O 34.1563 -4.11806 0.221289 0
M  V30 331 H 33.4973 -0.604193 0.275404 0
M  V30 332 H 36.0273 -1.5141 1.37609 0
M  V30 333 H 36.0373 -3.94004 1.05947 0
M  V30 334 H 34.7123 -3.56146 2.14786 0
M  V30 335 H 33.2893 -3.715 0.322842 0
M  V30 336 N 35.4744 -0.807222 -1.35358 0
M  V30 337 C 36.7024 -0.400377 -2.02989 0
M  V30 338 C 37.1174 0.988859 -1.60832 0
M  V30 339 O 36.4744 1.63729 -0.806175 0
M  V30 340 C 36.5254 -0.474867 -3.58368 0
M  V30 341 O 36.2464 -1.80933 -3.98992 0
M  V30 342 C 37.7474 -0.0609112 -4.43258 0
M  V30 343 H 34.9674 -0.162587 -0.651004 0
M  V30 344 H 37.5114 -1.09102 -1.72965 0
M  V30 345 H 35.6664 0.167534 -3.87038 0
M  V30 346 H 36.0804 -1.77256 -4.9364 0
M  V30 347 H 37.5544 -0.164145 -5.51756 0
M  V30 348 H 38.0314 0.993831 -4.27808 0
M  V30 349 H 38.6374 -0.676492 -4.19885 0
M  V30 350 N 36.9525 1.47285 -0.560781 0
M  V30 351 C 38.1775 2.07359 -0.0410566 0
M  V30 352 C 38.6025 1.41017 1.24483 0
M  V30 353 O 37.9605 0.486368 1.74654 0
M  V30 354 C 38.0085 3.6035 0.134123 0
M  V30 355 O 37.1125 3.94681 1.19587 0
M  V30 356 H 36.4535 0.661887 -0.0529291 0
M  V30 357 H 38.9835 1.89252 -0.777482 0
M  V30 358 H 38.9935 4.0652 0.347207 0
M  V30 359 H 37.6685 4.08034 -0.805047 0
M  V30 360 H 36.2455 3.60251 0.962987 0
M  V30 361 N 38.4306 0.297415 1.54768 0
M  V30 362 C 39.3636 -0.622188 2.19554 0
M  V30 363 C 40.3416 -1.13558 1.16376 0
M  V30 364 O 41.5256 -1.20444 1.45002 0
M  V30 365 C 38.6526 -1.8509 2.83653 0
M  V30 366 C 37.6986 -1.47106 4.00328 0
M  V30 367 S 38.5316 -0.53006 5.3287 0
M  V30 368 C 39.6876 -1.76665 6.0045 0
M  V30 369 H 39.9206 -0.0717806 2.97213 0
M  V30 370 H 37.4536 0.0815678 1.54184 0
M  V30 371 H 39.4116 -2.55605 3.21211 0
M  V30 372 H 38.0726 -2.37247 2.05846 0
M  V30 373 H 37.2656 -2.38594 4.43947 0
M  V30 374 H 36.8676 -0.845885 3.64309 0
M  V30 375 H 39.1596 -2.7077 6.21039 0
M  V30 376 H 40.1026 -1.37308 6.9466 0
M  V30 377 H 40.5106 -1.94174 5.30054 0
M  V30 378 N 39.9087 -1.5758 0.0250728 0
M  V30 379 C 41.1337 -1.96337 -0.668317 0
M  V30 380 C 41.5587 -0.901314 -1.651 0
M  V30 381 O 40.9167 0.138187 -1.80773 0
M  V30 382 C 40.9647 -3.34191 -1.35457 0
M  V30 383 O 40.0687 -3.30269 -2.46974 0
M  V30 384 H 39.4097 -0.640281 -0.175887 0
M  V30 385 H 41.9397 -2.0442 0.0857224 0
M  V30 386 H 41.9497 -3.70331 -1.71228 0
M  V30 387 H 40.6247 -4.11036 -0.634218 0
M  V30 388 H 39.2017 -3.05841 -2.13344 0
M  V30 389 N 41.3868 0.248026 -1.55636 0
M  V30 390 C 42.7978 0.817177 -1.67866 0
M  V30 391 C 43.1488 1.86069 -0.622322 0
M  V30 392 O 42.2738 2.15157 0.231618 0
M  V30 393 C 42.8688 1.489 -3.04326 0
M  V30 394 C 41.4278 2.00587 -3.185 0
M  V30 395 C 40.5748 0.856573 -2.63739 0
M  V30 396 H 43.5258 0.0238579 -1.58682 0
M  V30 397 H 43.5468 2.35698 -2.98708 0
M  V30 398 H 43.0588 0.729279 -3.81186 0
M  V30 399 H 41.1598 2.79443 -2.4646 0
M  V30 400 H 41.2728 2.20402 -4.25393 0
M  V30 401 H 39.6368 1.25678 -2.21534 0
M  V30 402 H 40.4198 0.109953 -3.43124 0
M  V30 403 N 42.8649 1.48995 0.513639 0
M  V30 404 C 44.0899 1.61792 1.29762 0
M  V30 405 C 44.5149 0.284475 1.85936 0
M  V30 406 O 43.8729 -0.746185 1.65232 0
M  V30 407 C 43.9209 2.67993 2.41272 0
M  V30 408 O 43.0249 2.26287 3.44772 0
M  V30 409 H 42.3659 0.541963 0.38363 0
M  V30 410 H 44.8959 1.95097 0.616307 0
M  V30 411 H 44.9059 2.89772 2.87221 0
M  V30 412 H 43.5809 3.64791 1.9975 0
M  V30 413 H 42.1579 2.14788 3.04829 0
M  V30 414 N 44.343 -0.763751 1.37857 0
M  V30 415 C 45.306 -1.85889 1.34081 0
M  V30 416 C 46.306 -1.58949 0.243277 0
M  V30 417 O 47.496 -1.66882 0.499589 0
M  V30 418 C 44.628 -3.23176 1.08489 0
M  V30 419 H 45.821 -1.90648 2.31502 0
M  V30 420 H 43.374 -0.964367 1.23003 0
M  V30 421 H 44.109 -3.24091 0.116318 0
M  V30 422 H 43.894 -3.44124 1.8794 0
M  V30 423 H 45.384 -4.03254 1.08517 0
M  V30 424 N 45.8211 -1.22559 -0.990812 0
M  V30 425 C 46.7841 -0.998863 -2.0629 0
M  V30 426 C 47.7841 0.0354834 -1.60761 0
M  V30 427 O 48.9741 -0.203231 -1.7301 0
M  V30 428 C 46.1061 -0.509203 -3.37076 0
M  V30 429 H 47.2991 -1.95014 -2.27837 0
M  V30 430 H 44.8521 -1.04456 -1.16269 0
M  V30 431 H 45.5871 0.446335 -3.21214 0
M  V30 432 H 45.3721 -1.25547 -3.71457 0
M  V30 433 H 46.8621 -0.370888 -4.1595 0
M  V30 434 N 47.2992 1.18797 -1.03562 0
M  V30 435 C 48.2292 2.24472 -0.643019 0
M  V30 436 C 49.2102 1.66433 0.351283 0
M  V30 437 O 50.3952 1.92803 0.232505 0
M  V30 438 C 47.5252 3.473 4.24935e-05 0
M  V30 439 C 46.4792 4.18055 -0.917257 0
M  V30 440 C 45.8052 5.34519 -0.138941 0
M  V30 441 C 47.1052 4.72109 -2.23407 0
M  V30 442 H 48.7992 2.57566 -1.52643 0
M  V30 443 H 46.3452 1.23806 -0.735394 0
M  V30 444 H 48.2982 4.20426 0.286383 0
M  V30 445 H 47.0222 3.13424 0.918299 0
M  V30 446 H 45.6812 3.46821 -1.1879 0
M  V30 447 H 45.3292 4.96891 0.781562 0
M  V30 448 H 45.0292 5.82794 -0.750005 0
M  V30 449 H 46.5532 6.10438 0.1405 0
M  V30 450 H 47.9672 5.36955 -2.00879 0
M  V30 451 H 46.3642 5.30897 -2.79765 0
M  V30 452 H 47.4342 3.89807 -2.88407 0
M  V30 453 N 48.7773 0.814389 1.34928 0
M  V30 454 C 50.0023 0.410097 2.03305 0
M  V30 455 C 50.4273 -0.973464 1.60951 0
M  V30 456 O 49.7853 -1.63185 0.789964 0
M  V30 457 C 49.8333 0.51049 3.56968 0
M  V30 458 O 48.9373 -0.473035 4.09678 0
M  V30 459 H 48.2783 0.170088 0.641846 0
M  V30 460 H 50.8083 1.10244 1.72358 0
M  V30 461 H 50.8183 0.383135 4.06197 0
M  V30 462 H 49.4933 1.51963 3.87144 0
M  V30 463 H 48.0703 -0.305272 3.71648 0
M  V30 464 N 50.2554 -1.46986 0.568584 0
M  V30 465 C 51.4834 -2.0683 0.0539956 0
M  V30 466 C 51.8984 -1.41953 -1.24478 0
M  V30 467 O 51.2554 -0.519933 -1.74937 0
M  V30 468 C 51.3064 -3.61254 -0.133362 0
M  V30 469 O 51.0274 -4.237 1.11399 0
M  V30 470 C 52.5284 -4.37992 -0.683927 0
M  V30 471 H 49.7484 -0.669058 0.0510141 0
M  V30 472 H 52.2924 -1.88824 0.785234 0
M  V30 473 H 50.4474 -3.78735 -0.81477 0
M  V30 474 H 50.8614 -5.16388 0.91888 0
M  V30 475 H 52.3354 -5.46684 -0.764263 0
M  V30 476 H 52.8124 -4.05058 -1.69778 0
M  V30 477 H 53.4184 -4.25283 -0.0378494 0
M  V30 478 N 51.7335 -0.305618 -1.54608 0
M  V30 479 C 52.9815 0.301701 -1.99835 0
M  V30 480 C 53.3025 1.54054 -1.19551 0
M  V30 481 O 52.5725 1.93702 -0.292658 0
M  V30 482 H 51.1525 0.114468 -0.738178 0
M  V30 483 H 53.8145 -0.418016 -1.90364 0
M  V30 484 H 52.9105 0.570548 -3.06841 0
M  V30 485 N 53.2116 1.57565 -0.0334293 0
M  V30 486 C 54.1586 2.10478 0.946981 0
M  V30 487 C 55.1286 1.00787 1.32027 0
M  V30 488 O 56.3136 1.28232 1.41284 0
M  V30 489 C 53.4536 2.63994 2.22263 0
M  V30 490 C 52.5666 3.87709 1.90541 0
M  V30 491 C 51.7016 4.29604 3.12433 0
M  V30 492 C 50.7406 5.46065 2.76549 0
M  V30 493 N 49.8776 5.83096 3.9108 0
M  V30 494 H 54.7176 2.93963 0.488846 0
M  V30 495 H 52.2546 1.45296 0.22969 0
M  V30 496 H 54.2126 2.93114 2.96884 0
M  V30 497 H 52.8426 1.83333 2.65685 0
M  V30 498 H 51.8946 3.65291 1.06144 0
M  V30 499 H 53.2066 4.72403 1.60116 0
M  V30 500 H 52.3606 4.60182 3.9537 0
M  V30 501 H 51.0996 3.43685 3.46023 0
M  V30 502 H 50.1046 5.15176 1.92026 0
M  V30 503 H 51.3296 6.33685 2.44171 0
M  V30 504 H 49.2756 5.00132 4.24504 0
M  V30 505 H 49.1926 6.6244 3.64293 0
M  V30 506 H 50.4606 6.18282 4.74708 0
M  V30 507 N 54.6897 -0.239769 1.55765 0
M  V30 508 C 56.1007 -0.808263 1.68297 0
M  V30 509 C 56.4517 -1.85736 0.632181 0
M  V30 510 O 55.5767 -2.15277 -0.220204 0
M  V30 511 C 56.1717 -1.47284 3.05111 0
M  V30 512 C 54.7307 -1.98895 3.19559 0
M  V30 513 C 53.8777 -0.842575 2.64189 0
M  V30 514 H 56.8287 -0.0154422 1.58692 0
M  V30 515 H 56.8497 -2.34111 2.99954 0
M  V30 516 H 56.3617 -0.709053 3.81568 0
M  V30 517 H 54.4627 -2.78132 2.47938 0
M  V30 518 H 54.5757 -2.18143 4.26556 0
M  V30 519 H 52.9397 -1.24501 2.22197 0
M  V30 520 H 53.7227 -0.0917552 3.43177 0
M  V30 521 N 56.1678 -1.49265 -0.50573 0
M  V30 522 C 57.1008 -1.60183 -1.62532 0
M  V30 523 C 58.0788 -0.451107 -1.56217 0
M  V30 524 O 59.2628 -0.666016 -1.76342 0
M  V30 525 C 56.3898 -1.55238 -3.01029 0
M  V30 526 C 55.4358 -2.7545 -3.25621 0
M  V30 527 S 56.2688 -4.37174 -3.09256 0
M  V30 528 C 57.4248 -4.34866 -4.50158 0
M  V30 529 H 57.6578 -2.54894 -1.53025 0
M  V30 530 H 55.1908 -1.38098 -0.690535 0
M  V30 531 H 57.1488 -1.53071 -3.80893 0
M  V30 532 H 55.8098 -0.618238 -3.07956 0
M  V30 533 H 55.0028 -2.68197 -4.26716 0
M  V30 534 H 54.6048 -2.75005 -2.53472 0
M  V30 535 H 56.8968 -4.06295 -5.42154 0
M  V30 536 H 57.8398 -5.36223 -4.62462 0
M  V30 537 H 58.2478 -3.65007 -4.30616 0
M  V30 538 N 57.6459 0.756429 -1.3826 0
M  V30 539 C 58.9229 1.50584 -1.24835 0
M  V30 540 C 59.3029 2.10556 0.151485 0
M  V30 541 O 58.6509 1.96825 1.1607 0
M  V30 542 C 58.8609 2.57448 -2.3563 0
M  V30 543 C 60.2089 3.24429 -2.73917 0
M  V30 544 O 61.2329 2.67751 -2.34921 0
M  V30 545 O 60.0919 4.26937 -3.41156 0
M  V30 546 H 57.1859 0.667664 -0.48801 0
M  V30 547 H 59.7319 0.792083 -1.5008 0
M  V30 548 H 58.5039 2.11362 -3.29305 0
M  V30 549 H 58.1269 3.36408 -2.11933 0
M  V30 550 N 59.124 1.23083 0.984299 0
M  V30 551 C 60.349 1.088 1.76571 0
M  V30 552 C 60.774 -0.356657 1.84688 0
M  V30 553 O 60.132 -1.25788 1.30565 0
M  V30 554 C 60.18 1.71371 3.17277 0
M  V30 555 O 59.284 0.973213 4.00752 0
M  V30 556 H 58.625 0.381599 0.543395 0
M  V30 557 H 61.155 1.63057 1.23587 0
M  V30 558 H 61.165 1.76449 3.67872 0
M  V30 559 H 59.84 2.76493 3.10684 0
M  V30 560 H 58.417 0.999078 3.59267 0
M  V30 561 N 60.6021 -1.18246 1.0419 0
M  V30 562 C 61.5521 -2.19843 0.604392 0
M  V30 563 C 62.5361 -1.56962 -0.353814 0
M  V30 564 O 63.7281 -1.76156 -0.17267 0
M  V30 565 C 60.8571 -3.43287 -0.0298975 0
M  V30 566 C 59.9431 -4.13288 0.951531 0
M  V30 567 N 60.3341 -4.59271 2.11906 0
M  V30 568 C 58.6321 -4.39165 0.7778 0
M  V30 569 C 59.3331 -5.13173 2.73912 0
M  V30 570 N 58.3091 -5.04763 2.01779 0
M  V30 571 H 62.1111 -2.53089 1.4941 0
M  V30 572 H 59.6251 -1.34465 0.910658 0
M  V30 573 H 61.6221 -4.15334 -0.361037 0
M  V30 574 H 60.2821 -3.11537 -0.915127 0
M  V30 575 H 61.2931 -4.5368 2.49789 0
M  V30 576 H 57.9701 -4.17461 -0.0572331 0
M  V30 577 H 59.3601 -5.58947 3.72864 0
M  V30 578 N 62.0802 -0.821533 -1.34494 0
M  V30 579 C 63.4912 -0.467956 -1.8074 0
M  V30 580 C 63.8422 1.01151 -1.68116 0
M  V30 581 O 62.9672 1.78707 -1.22036 0
M  V30 582 C 63.5622 -0.842627 -3.28154 0
M  V30 583 C 62.1212 -0.541439 -3.72485 0
M  V30 584 C 61.2682 -1.06028 -2.56229 0
M  V30 585 H 64.2192 -1.01183 -1.22261 0
M  V30 586 H 64.2402 -0.145876 -3.8022 0
M  V30 587 H 63.7522 -1.91945 -3.37311 0
M  V30 588 H 61.8532 0.526034 -3.68868 0
M  V30 589 H 61.9662 -1.08453 -4.66663 0
M  V30 590 H 60.3302 -0.481892 -2.501 0
M  V30 591 H 61.1132 -2.14352 -2.68157 0
M  V30 592 N 63.5583 1.46682 -0.576371 0
M  V30 593 C 64.7833 2.07304 -0.0630475 0
M  V30 594 C 65.2083 1.42329 1.2298 0
M  V30 595 O 64.5663 0.504865 1.74129 0
M  V30 596 C 64.6143 3.60472 0.095895 0
M  V30 597 O 63.7183 3.95927 1.15394 0
M  V30 598 H 63.0593 0.661288 -0.0599463 0
M  V30 599 H 65.5893 1.88417 -0.797511 0
M  V30 600 H 65.5993 4.06865 0.304071 0
M  V30 601 H 64.2743 4.07157 -0.84828 0
M  V30 602 H 62.8513 3.61252 0.924724 0
M  V30 603 N 65.0364 0.313813 1.54444 0
M  V30 604 C 66.2664 -0.293491 2.04505 0
M  V30 605 C 66.6744 -1.47086 1.19005 0
M  V30 606 O 66.0174 -1.82481 0.211257 0
M  V30 607 C 66.0794 -0.800455 3.50475 0
M  V30 608 C 65.7434 0.253322 4.56297 0
M  V30 609 C 66.7404 1.08612 5.08428 0
M  V30 610 C 64.4254 0.398708 5.00715 0
M  V30 611 C 66.4194 2.05013 6.0353 0
M  V30 612 C 64.1064 1.36614 5.95634 0
M  V30 613 C 65.1044 2.19033 6.46926 0
M  V30 614 O 64.7924 3.14134 7.39983 0
M  V30 615 H 64.5244 -0.0658325 0.672787 0
M  V30 616 H 67.0784 0.455177 2.00293 0
M  V30 617 H 65.3084 -1.59987 3.52053 0
M  V30 618 H 66.9974 -1.32504 3.83663 0
M  V30 619 H 67.7634 0.984736 4.74898 0
M  V30 620 H 63.6424 -0.23289 4.60411 0
M  V30 621 H 67.1864 2.69382 6.4349 0
M  V30 622 H 63.0834 1.4682 6.28581 0
M  V30 623 H 63.8514 3.0926 7.57826 0
M  V30 624 N 66.5145 -1.57545 0.0417849 0
M  V30 625 C 67.7425 -1.96624 -0.643928 0
M  V30 626 C 68.1575 -0.918897 -1.64929 0
M  V30 627 O 67.5145 0.0979323 -1.82237 0
M  V30 628 C 67.5655 -3.35781 -1.33914 0
M  V30 629 O 67.2865 -4.365 -0.374048 0
M  V30 630 C 68.7875 -3.89566 -2.1155 0
M  V30 631 H 66.0075 -0.647316 -0.176702 0
M  V30 632 H 68.5515 -2.04229 0.105304 0
M  V30 633 H 66.7065 -3.29357 -2.03968 0
M  V30 634 H 67.1205 -5.17248 -0.869179 0
M  V30 635 H 68.5945 -4.89242 -2.55628 0
M  V30 636 H 69.0715 -3.24488 -2.9598 0
M  V30 637 H 69.6775 -3.99298 -1.46427 0
M  V30 638 N 67.9926 0.231505 -1.5589 0
M  V30 639 C 69.2696 0.981096 -1.69215 0
M  V30 640 C 69.6496 2.02799 -0.586164 0
M  V30 641 O 68.9976 2.24823 0.408253 0
M  V30 642 C 69.2076 1.60054 -3.10135 0
M  V30 643 C 70.5556 2.09658 -3.69227 0
M  V30 644 O 71.5796 1.69967 -3.13033 0
M  V30 645 O 70.4386 2.8258 -4.67772 0
M  V30 646 H 67.5326 0.457653 -0.688827 0
M  V30 647 H 70.0786 0.224073 -1.68214 0
M  V30 648 H 68.8506 0.844105 -3.82087 0
M  V30 649 H 68.4736 2.42336 -3.15212 0
M  V30 650 N 69.4707 1.49531 0.497807 0
M  V30 651 C 70.6987 1.62893 1.27567 0
M  V30 652 C 71.1137 0.301585 1.86376 0
M  V30 653 O 70.4707 -0.713335 1.67982 0
M  V30 654 C 70.5217 2.70013 2.40364 0
M  V30 655 O 70.2427 3.976 1.83972 0
M  V30 656 C 71.7437 2.94109 3.31685 0
M  V30 657 H 68.9637 0.548298 0.386794 0
M  V30 658 H 71.5077 1.95584 0.597245 0
M  V30 659 H 69.6627 2.40092 3.04031 0
M  V30 660 H 70.0767 4.56631 2.58047 0
M  V30 661 H 71.5507 3.72788 4.07104 0
M  V30 662 H 72.0277 2.04147 3.88871 0
M  V30 663 H 72.6337 3.2546 2.73781 0
M  V30 664 N 70.9488 -0.749086 1.3866 0
M  V30 665 C 72.3598 -1.32664 1.31366 0
M  V30 666 C 72.7108 -1.96179 -0.028484 0
M  V30 667 O 71.8358 -1.9537 -0.93057 0
M  V30 668 C 72.4308 -2.41219 2.37905 0
M  V30 669 C 70.9898 -2.94684 2.34176 0
M  V30 670 C 70.1368 -1.68108 2.20533 0
M  V30 671 H 73.0878 -0.547628 1.48952 0
M  V30 672 H 73.1088 -3.21268 2.0388 0
M  V30 673 H 72.6208 -1.94962 3.35576 0
M  V30 674 H 70.7218 -3.45258 1.401 0
M  V30 675 H 70.8348 -3.48757 3.2849 0
M  V30 676 H 69.1988 -1.91907 1.67463 0
M  V30 677 H 69.9818 -1.23923 3.20153 0
M  V30 678 N 72.4269 -1.23603 -0.977757 0
M  V30 679 C 73.6729 -1.07129 -1.72195 0
M  V30 680 C 74.0059 0.390501 -1.90233 0
M  V30 681 O 73.2809 1.28902 -1.45653 0
M  V30 682 C 73.5639 -1.80031 -3.11867 0
M  V30 683 C 73.4169 -3.33899 -3.01383 0
M  V30 684 C 74.7359 -1.56492 -4.11337 0
M  V30 685 H 71.8549 -0.390571 -0.624999 0
M  V30 686 H 74.4969 -1.52142 -1.13811 0
M  V30 687 H 72.6469 -1.41768 -3.6171 0
M  V30 688 H 74.3189 -3.81699 -2.59043 0
M  V30 689 H 72.5619 -3.62796 -2.37827 0
M  V30 690 H 73.2329 -3.801 -4.00285 0
M  V30 691 H 75.7089 -1.89757 -3.70313 0
M  V30 692 H 74.5849 -2.09973 -5.07151 0
M  V30 693 H 74.8459 -0.500874 -4.39254 0
M  V30 694 N 73.905 1.17692 -1.04816 0
M  V30 695 C 75.13 1.92327 -0.776207 0
M  V30 696 C 75.555 1.76082 0.661581 0
M  V30 697 O 74.913 1.076 1.45917 0
M  V30 698 C 74.961 3.41539 -1.15687 0
M  V30 699 O 74.065 4.11402 -0.286775 0
M  V30 700 H 73.406 0.599735 -0.284981 0
M  V30 701 H 75.936 1.49201 -1.4 0
M  V30 702 H 75.946 3.92269 -1.12202 0
M  V30 703 H 74.621 3.52684 -2.20425 0
M  V30 704 H 73.198 3.70939 -0.381903 0
M  V30 705 N 75.3831 0.828654 1.34056 0
M  V30 706 C 76.3461 0.259927 2.27721 0
M  V30 707 C 77.3461 -0.565478 1.50529 0
M  V30 708 O 78.5361 -0.38075 1.69988 0
M  V30 709 C 75.6681 -0.634944 3.34935 0
M  V30 710 H 76.8611 1.0863 2.79534 0
M  V30 711 H 74.4141 0.600951 1.44285 0
M  V30 712 H 75.1491 -1.48416 2.88346 0
M  V30 713 H 74.9341 -0.0444999 3.92075 0
M  V30 714 H 76.4241 -1.02648 4.04788 0
M  V30 715 N 76.8612 -1.46375 0.584142 0
M  V30 716 C 78.2722 -1.86031 0.157959 0
M  V30 717 C 78.6232 -1.48753 -1.27933 0
M  V30 718 O 77.7482 -0.903098 -1.96655 0
M  V30 719 C 78.3432 -3.37642 0.279892 0
M  V30 720 C 76.9022 -3.76289 -0.09143 0
M  V30 721 C 76.0492 -2.7039 0.615178 0
M  V30 722 H 79.0002 -1.37509 0.792274 0
M  V30 723 H 79.0212 -3.77275 -0.494364 0
M  V30 724 H 78.5332 -3.64742 1.32607 0
M  V30 725 H 76.6342 -3.54806 -1.13769 0
M  V30 726 H 76.7472 -4.78246 0.285886 0
M  V30 727 H 75.1112 -2.5464 0.0552833 0
M  V30 728 H 75.8942 -3.0033 1.66303 0
M  V30 729 N 78.3393 -0.321999 -1.54275 0
M  V30 730 C 79.7553 0.0306999 -1.5957 0
M  V30 731 C 79.9553 1.50614 -1.33857 0
M  V30 732 O 79.0113 2.2619 -1.12223 0
M  V30 733 C 80.3243 -0.386122 -2.98211 0
M  V30 734 C 81.8723 -0.336647 -3.11184 0
M  V30 735 C 82.3473 -0.728607 -4.52167 0
M  V30 736 N 83.8383 -0.681952 -4.58152 0
M  V30 737 C 84.5733 -0.957449 -5.6535 0
M  V30 738 N 84.0693 -1.3 -6.80494 0
M  V30 739 N 85.8623 -0.883113 -5.55119 0
M  V30 740 H 78.0133 -1.28332 -1.69247 0
M  V30 741 H 80.2763 -0.521716 -0.791528 0
M  V30 742 H 79.9823 -1.41404 -3.22022 0
M  V30 743 H 79.8563 0.249662 -3.76373 0
M  V30 744 H 82.2433 0.682058 -2.8711 0
M  V30 745 H 82.3243 -1.00734 -2.3513 0
M  V30 746 H 81.9683 -1.74522 -4.76974 0
M  V30 747 H 81.8983 -0.0356152 -5.26588 0
M  V30 748 H 84.3893 -0.428985 -3.75457 0
M  V30 749 H 84.7023 -1.49563 -7.58189 0
M  V30 750 H 83.0473 -1.33824 -6.81994 0
M  V30 751 H 86.2383 -0.615001 -4.64042 0
M  V30 752 H 86.4113 -1.10118 -6.38575 0
M  V30 753 N 79.8174 1.5752 -0.0501392 0
M  V30 754 C 81.0454 1.96963 0.633492 0
M  V30 755 C 81.4604 0.927631 1.6444 0
M  V30 756 O 80.8174 -0.0882665 1.82286 0
M  V30 757 C 80.8684 3.36487 1.32132 0
M  V30 758 O 80.5894 4.36693 0.350894 0
M  V30 759 C 82.0904 3.90682 2.09481 0
M  V30 760 H 79.3104 0.648244 0.173266 0
M  V30 761 H 81.8544 2.0417 -0.116134 0
M  V30 762 H 80.0094 3.30434 2.02218 0
M  V30 763 H 80.4234 5.17702 0.841735 0
M  V30 764 H 81.8974 4.90591 2.5303 0
M  V30 765 H 82.3744 3.26053 2.94255 0
M  V30 766 H 82.9804 4.00069 1.44307 0
M  V30 767 N 81.2955 -0.223234 1.56011 0
M  V30 768 C 82.2255 -1.27988 1.95298 0
M  V30 769 C 83.2065 -1.48976 0.820979 0
M  V30 770 O 84.3915 -1.61188 1.08315 0
M  V30 771 C 81.5215 -2.63 2.26822 0
M  V30 772 C 80.4755 -2.56671 3.42497 0
M  V30 773 C 79.8015 -3.95697 3.59622 0
M  V30 774 C 81.1015 -2.11601 4.77517 0
M  V30 775 H 82.7955 -0.953525 2.8381 0
M  V30 776 H 80.3415 -0.457244 1.36548 0
M  V30 777 H 82.2945 -3.37077 2.52898 0
M  V30 778 H 81.0185 -2.9732 1.35161 0
M  V30 779 H 79.6775 -1.85051 3.16467 0
M  V30 780 H 79.3255 -4.27322 2.6534 0
M  V30 781 H 79.0255 -3.92345 4.37424 0
M  V30 782 H 80.5495 -4.71438 3.88044 0
M  V30 783 H 81.9635 -2.7542 5.02809 0
M  V30 784 H 80.3605 -2.19311 5.5859 0
M  V30 785 H 81.4305 -1.06824 4.72987 0
M  V30 786 N 82.7736 -1.49793 -0.48987 0
M  V30 787 C 83.9986 -1.63836 -1.27172 0
M  V30 788 C 84.4236 -0.31402 -1.8546 0
M  V30 789 O 83.7816 0.719803 -1.66399 0
M  V30 790 C 83.8296 -2.71797 -2.36978 0
M  V30 791 O 82.9336 -2.31744 -3.41128 0
M  V30 792 H 82.2746 -0.547997 -0.37496 0
M  V30 793 H 84.8046 -1.96053 -0.585191 0
M  V30 794 H 84.8146 -2.94305 -2.82575 0
M  V30 795 H 83.4896 -3.67923 -1.93921 0
M  V30 796 H 82.0666 -2.1961 -3.01373 0
M  V30 797 N 84.2517 0.741722 -1.39055 0
M  V30 798 C 85.2147 1.83733 -1.37021 0
M  V30 799 C 86.2147 1.58542 -0.268534 0
M  V30 800 O 87.4047 1.66067 -0.526076 0
M  V30 801 C 84.5367 3.2141 -1.13617 0
M  V30 802 H 85.7297 1.86941 -2.34506 0
M  V30 803 H 83.2827 0.944676 -1.24521 0
M  V30 804 H 84.0177 3.23865 -0.167863 0
M  V30 805 H 83.8027 3.4109 -1.93391 0
M  V30 806 H 85.2927 4.01477 -1.14918 0
M  V30 807 N 85.7298 1.2412 0.971189 0
M  V30 808 C 86.9758 1.08041 1.71625 0
M  V30 809 C 87.3088 -0.380407 1.90438 0
M  V30 810 O 86.5838 -1.28127 1.46334 0
M  V30 811 C 86.8668 1.81682 3.10908 0
M  V30 812 C 86.7198 3.35493 2.99608 0
M  V30 813 C 88.0388 1.58671 4.10501 0
M  V30 814 H 85.1578 0.39388 0.622919 0
M  V30 815 H 87.7998 1.52743 1.13003 0
M  V30 816 H 85.9498 1.43684 3.60953 0
M  V30 817 H 87.6218 3.83068 2.57015 0
M  V30 818 H 85.8648 3.64052 2.35899 0
M  V30 819 H 86.5358 3.82217 3.98264 0
M  V30 820 H 89.0118 1.91719 3.69301 0
M  V30 821 H 87.8878 2.1266 5.06031 0
M  V30 822 H 88.1488 0.524161 4.38982 0
M  V30 823 N 87.2079 -1.17134 1.05439 0
M  V30 824 C 88.4559 -1.87085 0.764429 0
M  V30 825 C 88.7769 -1.81584 -0.710787 0
M  V30 826 O 88.0469 -1.24349 -1.51374 0
M  V30 827 H 86.6269 -0.692627 0.279779 0
M  V30 828 H 89.2889 -1.42087 1.33406 0
M  V30 829 H 88.3849 -2.92759 1.0816 0
M  V30 830 N 88.686 -0.835752 -1.33615 0
M  V30 831 C 89.914 -0.443344 -2.02094 0
M  V30 832 C 90.329 0.954522 -1.62894 0
M  V30 833 O 89.686 1.61982 -0.840723 0
M  V30 834 C 89.737 -0.550775 -3.5728 0
M  V30 835 O 89.458 -1.89356 -3.95065 0
M  V30 836 C 90.959 -0.154919 -4.43029 0
M  V30 837 H 88.179 -0.176359 -0.647409 0
M  V30 838 H 90.723 -1.12746 -1.70612 0
M  V30 839 H 88.878 0.0853997 -3.87306 0
M  V30 840 H 89.292 -1.87687 -4.89769 0
M  V30 841 H 90.766 -0.281144 -5.51284 0
M  V30 842 H 91.243 0.902863 -4.2982 0
M  V30 843 H 91.849 -0.765404 -4.18356 0
M  V30 844 N 90.1641 1.46063 -0.591896 0
M  V30 845 C 91.5751 1.85944 -0.167822 0
M  V30 846 C 91.9261 1.49429 1.27143 0
M  V30 847 O 91.0511 0.913515 1.96173 0
M  V30 848 C 91.6461 3.37489 -0.297794 0
M  V30 849 C 90.2051 3.76332 0.0714732 0
M  V30 850 C 89.3521 2.7006 -0.629509 0
M  V30 851 H 92.3031 1.37087 -0.799555 0
M  V30 852 H 92.3241 3.77532 0.474349 0
M  V30 853 H 91.8361 3.64034 -1.3454 0
M  V30 854 H 89.9371 3.55405 1.11886 0
M  V30 855 H 90.0501 4.78088 -0.311245 0
M  V30 856 H 88.4141 2.54607 -0.0687867 0
M  V30 857 H 89.1971 2.99444 -1.67894 0
M  V30 858 N 91.6422 0.330177 1.54103 0
M  V30 859 C 92.5722 -0.525353 2.27513 0
M  V30 860 C 93.5532 -1.11383 1.2856 0
M  V30 861 O 94.7382 -1.13773 1.57383 0
M  V30 862 C 91.8682 -1.6831 3.03791 0
M  V30 863 C 90.8222 -1.2236 4.10137 0
M  V30 864 C 90.1482 -2.46882 4.74293 0
M  V30 865 C 91.4482 -0.333697 5.21233 0
M  V30 866 H 93.1422 0.087013 2.99274 0
M  V30 867 H 90.6882 0.0432893 1.43935 0
M  V30 868 H 92.6412 -2.28795 3.5388 0
M  V30 869 H 91.3652 -2.32216 2.29659 0
M  V30 870 H 90.0242 -0.64165 3.60941 0
M  V30 871 H 89.6722 -3.09165 3.96769 0
M  V30 872 H 89.3722 -2.16825 5.46133 0
M  V30 873 H 90.8962 -3.08117 5.27159 0
M  V30 874 H 92.3102 -0.845013 5.67038 0
M  V30 875 H 90.7072 -0.125612 5.99969 0
M  V30 876 H 91.7772 0.633724 4.80741 0
M  V30 877 N 93.1203 -1.57491 0.0584922 0
M  V30 878 C 94.0683 -2.13148 -0.931168 0
M  V30 879 C 95.0623 -1.06507 -1.31729 0
M  V30 880 O 96.2683 -1.24906 -1.29609 0
M  V30 881 H 92.6433 -0.68137 -0.31818 0
M  V30 882 H 94.6143 -2.95187 -0.436707 0
M  V30 883 C 93.3633 -2.69732 -2.19408 0
M  V30 884 H 92.6863 -3.51454 -1.90578 0
M  V30 885 H 94.1263 -3.12287 -2.86798 0
M  V30 886 C 92.5853 -1.63855 -2.94369 0
M  V30 887 O 93.1153 -1.05565 -3.87581 0
M  V30 888 N 91.3213 -1.35202 -2.57233 0
M  V30 889 H 90.8683 -1.82791 -1.81508 0
M  V30 890 H 90.8263 -0.645922 -3.07693 0
M  V30 891 N 94.5984 0.214957 -1.56127 0
M  V30 892 C 95.5614 1.24997 -1.92116 0
M  V30 893 C 96.5614 1.39467 -0.800344 0
M  V30 894 O 97.7514 1.37619 -1.06802 0
M  V30 895 C 94.8834 2.62271 -2.17777 0
M  V30 896 H 96.0764 0.942875 -2.84693 0
M  V30 897 H 93.6294 0.455654 -1.49511 0
M  V30 898 H 94.3644 2.98068 -1.27773 0
M  V30 899 H 94.1494 2.53143 -2.99434 0
M  V30 900 H 95.6394 3.36946 -2.46693 0
M  V30 901 N 96.0765 1.50051 0.48192 0
M  V30 902 C 97.0065 1.71046 1.58951 0
M  V30 903 C 97.9875 0.559288 1.60642 0
M  V30 904 O 99.1725 0.797243 1.77081 0
M  V30 905 C 96.3025 1.79462 2.97339 0
M  V30 906 C 95.2565 2.94558 3.10515 0
M  V30 907 C 94.5825 2.88105 4.50444 0
M  V30 908 C 95.8825 4.35227 2.88747 0
M  V30 909 H 97.5765 2.6378 1.41635 0
M  V30 910 H 95.1225 1.26936 0.679942 0
M  V30 911 H 97.0755 1.92734 3.74742 0
M  V30 912 H 95.7995 0.833412 3.15788 0
M  V30 913 H 94.4585 2.80918 2.35543 0
M  V30 914 H 94.1065 1.89853 4.65795 0
M  V30 915 H 93.8065 3.65366 4.60197 0
M  V30 916 H 95.3305 3.03412 5.29881 0
M  V30 917 H 96.7445 4.49449 3.55905 0
M  V30 918 H 95.1415 5.13856 3.09955 0
M  V30 919 H 96.2115 4.48347 1.84696 0
M  V30 920 N 97.5546 -0.734337 1.39446 0
M  V30 921 C 98.8026 -1.49096 1.36436 0
M  V30 922 C 99.1236 -1.94961 -0.0388255 0
M  V30 923 O 98.3936 -1.69033 -0.990191 0
M  V30 924 H 96.9736 -0.5531 0.502085 0
M  V30 925 H 99.6356 -0.871725 1.74319 0
M  V30 926 H 98.7316 -2.37276 2.02747 0
M  V30 927 N 99.0327 -1.24633 -0.964593 0
M  V30 928 C 100.258 -1.11596 -1.74818 0
M  V30 929 C 100.683 0.32723 -1.85232 0
M  V30 930 O 100.041 1.23695 -1.32549 0
M  V30 931 C 100.089 -1.76397 -3.1451 0
M  V30 932 O 99.1927 -1.03685 -3.99153 0
M  V30 933 H 98.5337 -0.390196 -0.537255 0
M  V30 934 H 101.064 -1.65002 -1.20977 0
M  V30 935 H 101.074 -1.8228 -3.65018 0
M  V30 936 H 99.7487 -2.81401 -3.06246 0
M  V30 937 H 98.3257 -1.05611 -3.57632 0
M  V30 938 N 100.511 1.16574 -1.06058 0
M  V30 939 C 101.922 1.68662 -0.800632 0
M  V30 940 C 102.273 1.84184 0.67608 0
M  V30 941 O 101.398 1.53568 1.52466 0
M  V30 942 C 101.993 3.06356 -1.44676 0
M  V30 943 C 100.552 3.55575 -1.23465 0
M  V30 944 C 99.6988 2.31616 -1.52477 0
M  V30 945 H 102.65 1.00969 -1.22438 0
M  V30 946 H 102.671 3.70636 -0.860788 0
M  V30 947 H 102.183 2.95027 -2.52152 0
M  V30 948 H 100.284 3.72167 -0.179527 0
M  V30 949 H 100.397 4.37812 -1.94571 0
M  V30 950 H 98.7608 2.36512 -0.945209 0
M  V30 951 H 99.5438 2.22887 -2.61106 0
M  V30 952 N 101.989 0.842826 1.3317 0
M  V30 953 C 103.219 0.453397 2.01564 0
M  V30 954 C 103.627 -0.951147 1.63554 0
M  V30 955 O 102.97 -1.63021 0.846746 0
M  V30 956 C 103.032 0.499013 3.5602 0
M  V30 957 C 102.696 1.86037 4.1742 0
M  V30 958 C 103.693 2.82416 4.36506 0
M  V30 959 C 101.378 2.15428 4.53757 0
M  V30 960 C 103.372 4.06346 4.91082 0
M  V30 961 C 101.059 3.39615 5.0804 0
M  V30 962 C 102.057 4.3489 5.26649 0
M  V30 963 O 101.745 5.5688 5.79776 0
M  V30 964 H 101.477 0.177871 0.652179 0
M  V30 965 H 104.031 1.13808 1.70988 0
M  V30 966 H 102.261 -0.242467 3.85939 0
M  V30 967 H 103.95 0.126852 4.05702 0
M  V30 968 H 104.716 2.6101 4.08777 0
M  V30 969 H 100.595 1.42061 4.38565 0
M  V30 970 H 104.139 4.80722 5.05522 0
M  V30 971 H 100.036 3.60876 5.352 0
M  V30 972 H 100.804 5.58674 5.98185 0
M  V30 973 N 103.467 -1.45747 0.599634 0
M  V30 974 C 104.883 -1.57424 0.26264 0
M  V30 975 C 105.083 -1.59222 -1.23493 0
M  V30 976 O 104.139 -1.51825 -2.01756 0
M  V30 977 C 105.452 -2.86061 0.926795 0
M  V30 978 C 107 -2.99722 0.901967 0
M  V30 979 C 107.475 -4.31119 1.54598 0
M  V30 980 N 108.966 -4.37858 1.5111 0
M  V30 981 C 109.701 -5.3818 1.97863 0
M  V30 982 N 109.197 -6.45083 2.52666 0
M  V30 983 N 110.99 -5.29487 1.88679 0
M  V30 984 H 103.141 -1.42823 1.57211 0
M  V30 985 H 105.404 -0.68235 0.658105 0
M  V30 986 H 105.11 -2.90605 1.98095 0
M  V30 987 H 104.984 -3.74563 0.445238 0
M  V30 988 H 107.371 -2.9475 -0.143617 0
M  V30 989 H 107.452 -2.12652 1.42171 0
M  V30 990 H 107.096 -4.36849 2.59085 0
M  V30 991 H 107.026 -5.16992 1.00132 0
M  V30 992 H 109.517 -3.61209 1.11068 0
M  V30 993 H 109.83 -7.17869 2.86155 0
M  V30 994 H 108.175 -6.45856 2.56701 0
M  V30 995 H 111.366 -4.44877 1.4561 0
M  V30 996 H 111.539 -6.07524 2.25429 0
M  V30 997 N 104.945 -0.338344 -1.53925 0
M  V30 998 C 106.191 0.260143 -2.01125 0
M  V30 999 C 106.524 1.50617 -1.22589 0
M  V30 1000 O 105.799 1.91979 -0.312113 0
M  V30 1001 C 106.082 0.579499 -3.55407 0
M  V30 1002 C 105.935 -0.678264 -4.44657 0
M  V30 1003 C 107.254 1.39122 -4.17532 0
M  V30 1004 H 104.373 0.0930772 -0.731099 0
M  V30 1005 H 107.015 -0.457852 -1.84401 0
M  V30 1006 H 105.165 1.19118 -3.69788 0
M  V30 1007 H 106.837 -1.31631 -4.42121 0
M  V30 1008 H 105.08 -1.3042 -4.13731 0
M  V30 1009 H 105.751 -0.410143 -5.50474 0
M  V30 1010 H 108.227 0.874035 -4.06817 0
M  V30 1011 H 107.103 1.58342 -5.25565 0
M  V30 1012 H 107.364 2.39178 -3.71815 0
M  V30 1013 N 106.423 1.57458 -0.0668435 0
M  V30 1014 C 107.672 1.92477 0.602947 0
M  V30 1015 C 107.985 0.948419 1.71068 0
M  V30 1016 O 109.191 1.19124 2.43971 0
M  V30 1017 C 107.647 3.41903 1.12383 0
M  V30 1018 C 107.255 4.47975 0.04737 0
M  V30 1019 C 108.999 3.85931 1.76797 0
M  V30 1020 C 106.906 5.88529 0.582022 0
M  V30 1021 H 105.836 0.718387 0.22899 0
M  V30 1022 H 108.487 1.82978 -0.138276 0
M  V30 1023 H 106.869 3.46459 1.91787 0
M  V30 1024 H 108.043 4.55029 -0.726978 0
M  V30 1025 H 106.358 4.13384 -0.500243 0
M  V30 1026 H 108.955 4.88322 2.17821 0
M  V30 1027 H 109.298 3.23029 2.62599 0
M  V30 1028 H 109.831 3.83958 1.04024 0
M  V30 1029 H 106.57 6.55065 -0.238721 0
M  V30 1030 H 106.09 5.85004 1.324 0
M  V30 1031 H 107.769 6.38258 1.05999 0
M  V30 1032 N 107.901 -0.206675 1.56239 0
M  V30 1033 C 109.129 -0.945345 1.8404 0
M  V30 1034 C 109.544 -1.77336 0.647885 0
M  V30 1035 O 108.901 -1.78425 -0.383511 0
M  V30 1036 C 108.952 -1.8509 3.10522 0
M  V30 1037 O 108.673 -1.05634 4.25174 0
M  V30 1038 C 110.174 -2.70222 3.51418 0
M  V30 1039 H 107.394 -0.276372 0.61144 0
M  V30 1040 H 109.938 -0.217417 2.03341 0
M  V30 1041 H 108.093 -2.53259 2.93153 0
M  V30 1042 H 108.507 -1.67238 4.97124 0
M  V30 1043 H 109.981 -3.29438 4.42916 0
M  V30 1044 H 110.458 -3.43358 2.73864 0
M  V30 1045 H 111.064 -2.07443 3.71278 0
M  V30 1046 N 109.379 -1.50304 -0.473955 0
M  V30 1047 C 110.604 -1.65175 -1.25427 0
M  V30 1048 C 111.029 -0.333673 -1.85117 0
M  V30 1049 O 110.387 0.702114 -1.67153 0
M  V30 1050 C 110.435 -2.74295 -2.34082 0
M  V30 1051 O 109.539 -2.35349 -3.38651 0
M  V30 1052 H 108.88 -0.551944 -0.369126 0
M  V30 1053 H 111.41 -1.96662 -0.564364 0
M  V30 1054 H 111.42 -2.97285 -2.79438 0
M  V30 1055 H 110.095 -3.69959 -1.90008 0
M  V30 1056 H 108.672 -2.22794 -2.99027 0
M  V30 1057 N 110.857 0.726932 -1.39834 0
M  V30 1058 C 111.82 1.82269 -1.38962 0
M  V30 1059 C 112.82 1.58248 -0.285334 0
M  V30 1060 O 114.01 1.65499 -0.54366 0
M  V30 1061 C 111.142 3.20186 -1.17019 0
M  V30 1062 H 112.335 1.84443 -2.36476 0
M  V30 1063 H 109.888 0.931416 -1.25516 0
M  V30 1064 H 110.623 3.23669 -0.202204 0
M  V30 1065 H 110.408 3.3902 -1.96998 0
M  V30 1066 H 111.898 4.00235 -1.1917 0
M  V30 1067 N 112.336 1.25143 0.95797 0
M  V30 1068 C 113.269 0.995565 2.05338 0
M  V30 1069 C 114.247 -0.0740423 1.62431 0
M  V30 1070 O 115.431 0.0649212 1.88388 0
M  V30 1071 C 112.558 0.504298 3.34925 0
M  V30 1072 C 111.604 1.56393 3.96792 0
M  V30 1073 S 112.437 3.14815 4.33188 0
M  V30 1074 C 113.593 2.67415 5.65898 0
M  V30 1075 H 113.826 1.92309 2.26726 0
M  V30 1076 H 111.359 1.08635 1.09716 0
M  V30 1077 H 113.317 0.227497 4.09869 0
M  V30 1078 H 111.978 -0.402671 3.11508 0
M  V30 1079 H 111.171 1.17082 4.90212 0
M  V30 1080 H 110.773 1.79124 3.28315 0
M  V30 1081 H 113.065 2.10833 6.4386 0
M  V30 1082 H 114.008 3.59463 6.10076 0
M  V30 1083 H 114.416 2.07521 5.24972 0
M  V30 1084 N 113.814 -1.1601 1.06675 0
M  V30 1085 C 115.062 -1.86264 0.784229 0
M  V30 1086 C 115.383 -1.82328 -0.691488 0
M  V30 1087 O 114.653 -1.25947 -1.50047 0
M  V30 1088 H 113.233 -0.689621 0.28711 0
M  V30 1089 H 115.895 -1.40664 1.34906 0
M  V30 1090 H 114.991 -2.91595 1.11259 0
M  V30 1091 N 115.292 -0.849877 -1.32721 0
M  V30 1092 C 116.703 -0.506188 -1.79707 0
M  V30 1093 C 117.054 0.975627 -1.70223 0
M  V30 1094 O 116.179 1.76078 -1.25799 0
M  V30 1095 C 116.774 -0.912044 -3.26293 0
M  V30 1096 C 115.333 -0.620326 -3.71253 0
M  V30 1097 C 114.48 -1.11439 -2.53922 0
M  V30 1098 H 117.431 -1.03754 -1.20087 0
M  V30 1099 H 117.452 -0.226493 -3.79825 0
M  V30 1100 H 116.964 -1.99057 -3.33164 0
M  V30 1101 H 115.065 0.447674 -3.69901 0
M  V30 1102 H 115.178 -1.18327 -4.64258 0
M  V30 1103 H 113.542 -0.534834 -2.49021 0
M  V30 1104 H 114.325 -2.19992 -2.6355 0
M  V30 1105 N 116.77 1.45427 -0.607355 0
M  V30 1106 C 118.181 1.85756 -0.187535 0
M  V30 1107 C 118.532 1.5077 1.25551 0
M  V30 1108 O 117.657 0.93427 1.95193 0
M  V30 1109 C 118.252 3.37154 -0.333572 0
M  V30 1110 C 116.811 3.76387 0.0315542 0
M  V30 1111 C 115.958 2.69377 -0.658117 0
M  V30 1112 H 118.909 1.36231 -0.81405 0
M  V30 1113 H 118.93 3.78014 0.43428 0
M  V30 1114 H 118.442 3.62586 -1.38393 0
M  V30 1115 H 116.543 3.56571 1.0811 0
M  V30 1116 H 116.656 4.77731 -0.361935 0
M  V30 1117 H 115.02 2.5452 -0.0957873 0
M  V30 1118 H 115.803 2.97646 -1.7106 0
M  V30 1119 N 118.248 0.346503 1.53744 0
M  V30 1120 C 119.473 -0.253074 2.0585 0
M  V30 1121 C 119.898 -1.43202 1.21962 0
M  V30 1122 O 119.256 -1.79783 0.234073 0
M  V30 1123 C 119.304 -0.643193 3.54817 0
M  V30 1124 O 118.408 -1.74286 3.73762 0
M  V30 1125 H 117.749 -0.0413583 0.662711 0
M  V30 1126 H 120.279 0.501574 1.98357 0
M  V30 1127 H 120.289 -0.919526 3.97503 0
M  V30 1128 H 118.964 0.218966 4.15323 0
M  V30 1129 H 117.541 -1.46356 3.42979 0
M  V30 1130 N 119.726 -1.57421 0.075193 0
M  V30 1131 C 120.974 -1.93236 -0.591974 0
M  V30 1132 C 121.295 -0.956241 -1.69944 0
M  V30 1133 O 120.565 -0.00494792 -1.95899 0
M  V30 1134 H 119.145 -0.713355 -0.22166 0
M  V30 1135 H 121.807 -1.9444 0.133848 0
M  V30 1136 H 120.903 -2.95131 -1.01509 0
M  V30 1137 N 121.204 0.198386 -1.56346 0
M  V30 1138 C 122.167 1.22952 -1.93431 0
M  V30 1139 C 123.167 1.38611 -0.815092 0
M  V30 1140 O 124.357 1.36479 -1.08255 0
M  V30 1141 C 121.489 2.59946 -2.20546 0
M  V30 1142 H 122.682 0.912626 -2.85677 0
M  V30 1143 H 120.235 0.43977 -1.49986 0
M  V30 1144 H 120.97 2.96696 -1.30927 0
M  V30 1145 H 120.755 2.49953 -3.02102 0
M  V30 1146 H 122.245 3.3431 -2.50253 0
M  V30 1147 N 122.682 1.50554 0.465978 0
M  V30 1148 C 123.612 1.72722 1.57128 0
M  V30 1149 C 124.593 0.576294 1.6004 0
M  V30 1150 O 125.778 0.81598 1.76225 0
M  V30 1151 C 122.908 1.82605 2.95419 0
M  V30 1152 C 121.862 2.97835 3.07373 0
M  V30 1153 C 121.188 2.92867 4.47363 0
M  V30 1154 C 122.488 4.38265 2.84114 0
M  V30 1155 H 124.182 2.65267 1.38829 0
M  V30 1156 H 121.728 1.2765 0.666441 0
M  V30 1157 H 123.681 1.96698 3.72677 0
M  V30 1158 H 122.405 0.866858 3.14886 0
M  V30 1159 H 121.064 2.83401 2.3255 0
M  V30 1160 H 120.712 1.94783 4.63755 0
M  V30 1161 H 120.412 3.70227 4.56296 0
M  V30 1162 H 121.936 3.09015 5.26633 0
M  V30 1163 H 123.35 4.53198 3.51118 0
M  V30 1164 H 121.747 5.17115 3.04487 0
M  V30 1165 H 122.817 4.50281 1.7993 0
M  V30 1166 N 124.16 -0.719506 1.40217 0
M  V30 1167 C 125.123 -1.8153 1.39927 0
M  V30 1168 C 126.123 -1.58095 0.293723 0
M  V30 1169 O 127.313 -1.65209 0.552429 0
M  V30 1170 C 124.445 -3.19561 1.18716 0
M  V30 1171 H 125.638 -1.83186 2.37451 0
M  V30 1172 H 123.191 -0.924746 1.26008 0
M  V30 1173 H 123.926 -3.23557 0.219366 0
M  V30 1174 H 123.711 -3.3797 1.98793 0
M  V30 1175 H 125.201 -3.99598 1.21291 0
M  V30 1176 N 125.638 -1.25649 -0.95132 0
M  V30 1177 C 126.601 -1.06399 -2.03007 0
M  V30 1178 C 127.601 -0.0156794 -1.60792 0
M  V30 1179 O 128.791 -0.25817 -1.72276 0
M  V30 1180 C 125.923 -0.616184 -3.35285 0
M  V30 1181 H 127.116 -2.02164 -2.21517 0
M  V30 1182 H 124.669 -1.08103 -1.12887 0
M  V30 1183 H 125.404 0.343917 -3.22471 0
M  V30 1184 H 125.189 -1.37301 -3.67275 0
M  V30 1185 H 126.679 -0.503032 -4.14559 0
M  V30 1186 N 127.117 1.15442 -1.07289 0
M  V30 1187 C 128.528 1.67803 -0.818475 0
M  V30 1188 C 128.879 1.8489 0.656507 0
M  V30 1189 O 128.004 1.55176 1.50829 0
M  V30 1190 C 128.599 3.04805 -1.47917 0
M  V30 1191 C 127.158 3.54245 -1.27229 0
M  V30 1192 C 126.305 2.29986 -1.54925 0
M  V30 1193 H 129.256 0.996646 -1.23502 0
M  V30 1194 H 129.277 3.69702 -0.90005 0
M  V30 1195 H 128.789 2.92336 -2.55267 0
M  V30 1196 H 126.89 3.71956 -0.21899 0
M  V30 1197 H 127.003 4.35723 -1.99203 0
M  V30 1198 H 125.367 2.35496 -0.970242 0
M  V30 1199 H 126.15 2.20105 -2.63455 0
M  V30 1200 N 128.595 0.856903 1.32268 0
M  V30 1201 C 130.006 0.515711 1.79436 0
M  V30 1202 C 130.357 -0.966586 1.70738 0
M  V30 1203 O 129.482 -1.75409 1.26731 0
M  V30 1204 C 130.077 0.929335 3.25805 0
M  V30 1205 C 128.636 0.640006 3.70919 0
M  V30 1206 C 127.783 1.12784 2.53328 0
M  V30 1207 H 130.734 1.04389 1.19535 0
M  V30 1208 H 130.755 0.246633 3.797 0
M  V30 1209 H 130.267 2.00821 3.32103 0
M  V30 1210 H 128.368 -0.428051 3.70133 0
M  V30 1211 H 128.481 1.20788 4.63624 0
M  V30 1212 H 126.845 0.548033 2.48734 0
M  V30 1213 H 127.628 2.21387 2.62379 0
M  V30 1214 N 130.073 -1.45103 0.615059 0
M  V30 1215 C 131.321 -2.01784 0.112955 0
M  V30 1216 C 131.642 -1.48504 -1.26378 0
M  V30 1217 O 130.912 -0.682245 -1.83636 0
M  V30 1218 H 129.492 -0.745993 0.0387668 0
M  V30 1219 H 132.154 -1.77808 0.798141 0
M  V30 1220 H 131.25 -3.12025 0.0684069 0
M  V30 1221 N 131.551 -0.354651 -1.53558 0
M  V30 1222 C 132.8 0.239504 -2.00273 0
M  V30 1223 C 133.113 1.50759 -1.24623 0
M  V30 1224 O 134.319 2.17968 -1.61871 0
M  V30 1225 C 132.775 0.477341 -3.5672 0
M  V30 1226 C 132.383 -0.775488 -4.41237 0
M  V30 1227 C 134.127 1.02975 -4.11821 0
M  V30 1228 C 132.034 -0.507838 -5.89216 0
M  V30 1229 H 130.964 0.0932743 -0.748208 0
M  V30 1230 H 133.615 -0.471701 -1.77334 0
M  V30 1231 H 131.997 1.24953 -3.7577 0
M  V30 1232 H 133.171 -1.54963 -4.33962 0
M  V30 1233 H 131.486 -1.25033 -3.97185 0
M  V30 1234 H 134.083 1.24513 -5.2 0
M  V30 1235 H 134.426 1.98862 -3.65731 0
M  V30 1236 H 134.959 0.317994 -3.96527 0
M  V30 1237 H 131.698 -1.43674 -6.39561 0
M  V30 1238 H 131.218 0.228011 -5.99366 0
M  V30 1239 H 132.897 -0.129238 -6.46871 0
M  V30 1240 N 133.029 1.57378 -0.0835403 0
M  V30 1241 C 133.977 2.14602 0.89714 0
M  V30 1242 C 134.971 1.08589 1.30018 0
M  V30 1243 O 136.177 1.26952 1.27606 0
M  V30 1244 H 132.552 0.686346 0.3073 0
M  V30 1245 H 134.523 2.95845 0.38969 0
M  V30 1246 C 133.272 2.73188 2.15089 0
M  V30 1247 H 132.595 3.54442 1.84962 0
M  V30 1248 H 134.035 3.1681 2.81793 0
M  V30 1249 C 132.494 1.68517 2.91725 0
M  V30 1250 O 133.024 1.11718 3.85852 0
M  V30 1251 N 131.23 1.39277 2.55049 0
M  V30 1252 H 130.777 1.85655 1.78577 0
M  V30 1253 H 130.735 0.694791 3.06627 0
M  V30 1254 N 134.507 -0.190092 1.56449 0
M  V30 1255 C 135.437 -1.23816 1.97969 0
M  V30 1256 C 136.418 -1.47201 0.852395 0
M  V30 1257 O 137.603 -1.58854 1.1171 0
M  V30 1258 C 134.733 -2.5813 2.3235 0
M  V30 1259 C 133.687 -2.49348 3.47864 0
M  V30 1260 C 133.013 -3.8798 3.67934 0
M  V30 1261 C 134.313 -2.01424 4.81898 0
M  V30 1262 H 136.007 -0.89311 2.85769 0
M  V30 1263 H 133.553 -0.428177 1.37487 0
M  V30 1264 H 135.506 -3.31637 2.59991 0
M  V30 1265 H 134.23 -2.94386 1.41438 0
M  V30 1266 H 132.889 -1.78297 3.20321 0
M  V30 1267 H 132.537 -4.21597 2.74344 0
M  V30 1268 H 132.237 -3.82978 4.45648 0
M  V30 1269 H 133.761 -4.63101 3.97957 0
M  V30 1270 H 135.175 -2.64693 5.08538 0
M  V30 1271 H 133.572 -2.07413 5.63116 0
M  V30 1272 H 134.642 -0.967677 4.75146 0
M  V30 1273 N 135.985 -1.50799 -0.457987 0
M  V30 1274 C 137.231 -1.62683 -1.21088 0
M  V30 1275 C 137.564 -0.332268 -1.91336 0
M  V30 1276 O 136.839 0.667043 -1.82704 0
M  V30 1277 C 137.122 -2.81615 -2.24422 0
M  V30 1278 C 136.975 -4.20989 -1.58392 0
M  V30 1279 C 138.294 -2.96085 -3.2561 0
M  V30 1280 H 135.413 -0.592087 -0.438864 0
M  V30 1281 H 138.055 -1.83225 -0.50286 0
M  V30 1282 H 136.205 -2.64231 -2.84806 0
M  V30 1283 H 137.877 -4.49994 -1.01504 0
M  V30 1284 H 136.12 -4.24641 -0.886704 0
M  V30 1285 H 136.791 -5.0016 -2.33547 0
M  V30 1286 H 139.267 -3.12042 -2.75262 0
M  V30 1287 H 138.143 -3.80902 -3.95228 0
M  V30 1288 H 138.404 -2.0726 -3.90507 0
M  V30 1289 N 137.463 0.71206 -1.40597 0
M  V30 1290 C 138.426 1.80785 -1.40888 0
M  V30 1291 C 139.426 1.57937 -0.302103 0
M  V30 1292 O 140.616 1.64913 -0.561182 0
M  V30 1293 C 137.748 3.18927 -1.20409 0
M  V30 1294 H 138.941 1.81924 -2.38419 0
M  V30 1295 H 136.494 0.91805 -1.26497 0
M  V30 1296 H 137.229 3.23436 -0.236522 0
M  V30 1297 H 137.014 3.36911 -2.00582 0
M  V30 1298 H 138.504 3.98949 -1.23408 0
M  V30 1299 N 138.941 1.26152 0.944643 0
M  V30 1300 C 140.352 1.10454 1.50522 0
M  V30 1301 C 140.703 -0.31635 1.93633 0
M  V30 1302 O 139.828 -1.20746 1.79581 0
M  V30 1303 C 140.423 1.99891 2.73549 0
M  V30 1304 C 138.982 1.88348 3.25886 0
M  V30 1305 C 138.129 1.93447 1.9868 0
M  V30 1306 H 141.08 1.39292 0.760489 0
M  V30 1307 H 141.101 1.54477 3.47732 0
M  V30 1308 H 140.613 3.03297 2.42141 0
M  V30 1309 H 138.714 0.878636 3.62092 0
M  V30 1310 H 138.827 2.73696 3.93227 0
M  V30 1311 H 137.191 1.37456 2.14425 0
M  V30 1312 H 137.974 2.98476 1.69607 0
M  V30 1313 N 140.419 -1.14872 1.07899 0
M  V30 1314 C 141.83 -1.67367 0.827363 0
M  V30 1315 C 142.181 -1.85236 -0.646693 0
M  V30 1316 O 141.306 -1.55974 -1.50004 0
M  V30 1317 C 141.901 -3.04016 1.49532 0
M  V30 1318 C 140.46 -3.53566 1.29106 0
M  V30 1319 C 139.607 -2.29161 1.56143 0
M  V30 1320 H 142.558 -0.990083 1.24028 0
M  V30 1321 H 142.579 -3.69219 0.919643 0
M  V30 1322 H 142.091 -2.90978 2.56814 0
M  V30 1323 H 140.192 -3.71835 0.238713 0
M  V30 1324 H 140.305 -4.34661 2.01511 0
M  V30 1325 H 138.669 -2.34978 0.982717 0
M  V30 1326 H 139.452 -2.18705 2.64619 0
M  V30 1327 N 141.898 -0.863906 -1.31812 0
M  V30 1328 C 143.123 -0.48527 -2.01643 0
M  V30 1329 C 143.548 0.913058 -1.64453 0
M  V30 1330 O 142.906 1.6014 -0.849985 0
M  V30 1331 C 142.954 -0.642625 -3.54828 0
M  V30 1332 O 142.058 0.320659 -4.11151 0
M  V30 1333 H 141.399 -0.193793 -0.635091 0
M  V30 1334 H 143.929 -1.16565 -1.68148 0
M  V30 1335 H 143.939 -0.533628 -4.04495 0
M  V30 1336 H 142.614 -1.66227 -3.81237 0
M  V30 1337 H 141.191 0.167126 -3.72525 0
M  V30 1338 N 143.376 1.44774 -0.622745 0
M  V30 1339 C 144.601 2.06999 -0.128968 0
M  V30 1340 C 145.026 1.4617 1.1839 0
M  V30 1341 O 144.384 0.560007 1.72434 0
M  V30 1342 C 144.432 3.60595 -0.0188351 0
M  V30 1343 O 143.536 3.99398 1.02739 0
M  V30 1344 H 142.877 0.659047 -0.0809544 0
M  V30 1345 H 145.407 1.85784 -0.85705 0
M  V30 1346 H 145.417 4.07627 0.174476 0
M  V30 1347 H 144.092 4.04252 -0.977384 0
M  V30 1348 H 142.669 3.64011 0.809326 0
M  V30 1349 N 144.854 0.36279 1.53368 0
M  V30 1350 C 145.786 -0.519668 2.23231 0
M  V30 1351 C 146.799 -1.04844 1.24546 0
M  V30 1352 O 147.988 -0.955296 1.50786 0
M  V30 1353 C 145.088 -1.72995 2.9142 0
M  V30 1354 C 144.261 -1.33316 4.16588 0
M  V30 1355 C 143.32 -2.40521 4.68013 0
M  V30 1356 O 142.346 -2.03027 5.3176 0
M  V30 1357 N 143.548 -3.72065 4.45587 0
M  V30 1358 H 146.313 0.078751 2.99597 0
M  V30 1359 H 143.874 0.187833 1.60807 0
M  V30 1360 H 145.866 -2.44184 3.22733 0
M  V30 1361 H 144.436 -2.2353 2.18525 0
M  V30 1362 H 143.656 -0.451236 3.91609 0
M  V30 1363 H 144.944 -1.04432 4.97967 0
M  V30 1364 H 144.342 -4.05304 3.94646 0
M  V30 1365 H 142.899 -4.39366 4.81457 0
M  V30 1366 N 146.332 -1.57332 0.0918853 0
M  V30 1367 C 147.262 -2.16872 -0.865371 0
M  V30 1368 C 148.243 -1.10118 -1.29646 0
M  V30 1369 O 149.428 -1.38242 -1.36392 0
M  V30 1370 C 146.558 -2.74649 -2.12569 0
M  V30 1371 C 145.512 -3.86747 -1.83333 0
M  V30 1372 C 144.838 -4.31212 -3.16166 0
M  V30 1373 C 146.138 -5.10089 -1.1228 0
M  V30 1374 H 147.832 -2.97114 -0.369307 0
M  V30 1375 H 145.378 -1.42918 -0.176194 0
M  V30 1376 H 147.331 -3.14952 -2.7997 0
M  V30 1377 H 146.055 -1.91657 -2.64452 0
M  V30 1378 H 144.714 -3.46978 -1.18331 0
M  V30 1379 H 144.362 -3.45115 -3.6593 0
M  V30 1380 H 144.062 -5.06788 -2.97388 0
M  V30 1381 H 145.586 -4.74146 -3.84731 0
M  V30 1382 H 147 -5.47582 -1.69785 0
M  V30 1383 H 145.397 -5.91073 -1.03693 0
M  V30 1384 H 146.467 -4.84786 -0.105041 0
M  V30 1385 N 147.81 0.181792 -1.56548 0
M  V30 1386 C 148.758 1.24461 -1.965 0
M  V30 1387 C 149.752 1.464 -0.852261 0
M  V30 1388 O 150.958 1.47103 -1.03733 0
M  V30 1389 H 147.333 0.418138 -0.625031 0
M  V30 1390 H 149.304 0.880714 -2.85107 0
M  V30 1391 C 148.053 2.57891 -2.33212 0
M  V30 1392 H 147.376 2.41829 -3.18369 0
M  V30 1393 H 148.816 3.3097 -2.65019 0
M  V30 1394 C 147.275 3.15871 -1.17163 0
M  V30 1395 O 147.805 3.9913 -0.453708 0
M  V30 1396 N 146.011 2.74808 -0.944936 0
M  V30 1397 H 145.558 2.07205 -1.53049 0
M  V30 1398 H 145.516 3.13939 -0.170286 0
M  V30 1399 N 149.288 1.51039 0.449983 0
M  V30 1400 C 150.534 1.63322 1.20223 0
M  V30 1401 C 150.867 0.34241 1.91158 0
M  V30 1402 O 150.142 -0.657344 1.83055 0
M  V30 1403 C 150.425 2.82801 2.22925 0
M  V30 1404 C 150.278 4.21823 1.56157 0
M  V30 1405 C 151.597 2.97807 3.24035 0
M  V30 1406 H 148.716 0.594407 0.435718 0
M  V30 1407 H 151.358 1.83489 0.493136 0
M  V30 1408 H 149.508 2.65738 2.834 0
M  V30 1409 H 151.18 4.50526 0.991162 0
M  V30 1410 H 149.423 4.25105 0.864172 0
M  V30 1411 H 150.094 5.01391 2.30891 0
M  V30 1412 H 152.57 3.13497 2.73603 0
M  V30 1413 H 151.446 3.82992 3.93202 0
M  V30 1414 H 151.707 2.09328 3.89402 0
M  V30 1415 N 150.766 -0.704594 1.40972 0
M  V30 1416 C 152.012 -1.46675 1.40051 0
M  V30 1417 C 152.345 -1.94199 0.00641102 0
M  V30 1418 O 151.62 -1.68916 -0.964235 0
M  V30 1419 C 151.903 -2.68505 2.39952 0
M  V30 1420 C 151.756 -2.26805 3.88432 0
M  V30 1421 C 153.075 -3.70686 2.37233 0
M  V30 1422 H 150.194 -0.532015 0.510028 0
M  V30 1423 H 152.836 -0.803255 1.72185 0
M  V30 1424 H 150.986 -3.25114 2.1268 0
M  V30 1425 H 152.658 -1.75592 4.26574 0
M  V30 1426 H 150.901 -1.58685 4.03734 0
M  V30 1427 H 151.572 -3.14181 4.53866 0
M  V30 1428 H 154.048 -3.23731 2.61415 0
M  V30 1429 H 152.924 -4.53553 3.09162 0
M  V30 1430 H 153.185 -4.19754 1.38777 0
M  V30 1431 N 152.244 -1.26651 -0.937939 0
M  V30 1432 C 153.192 -1.08308 -2.05845 0
M  V30 1433 C 154.186 -0.0090757 -1.69398 0
M  V30 1434 O 155.392 -0.166007 -1.79233 0
M  V30 1435 H 151.767 -0.333416 -0.674046 0
M  V30 1436 H 153.738 -2.03261 -2.18467 0
M  V30 1437 C 152.487 -0.736229 -3.39816 0
M  V30 1438 H 151.81 -1.55453 -3.6834 0
M  V30 1439 H 153.25 -0.64769 -4.19024 0
M  V30 1440 C 151.709 0.558824 -3.32233 0
M  V30 1441 O 152.239 1.59621 -3.68624 0
M  V30 1442 N 150.445 0.550657 -2.85335 0
M  V30 1443 H 149.992 -0.293943 -2.55917 0
M  V30 1444 H 149.95 1.41726 -2.80644 0
M  V30 1445 N 153.722 1.14298 -1.08507 0
M  V30 1446 C 154.947 1.8976 -0.837001 0
M  V30 1447 C 155.372 1.78097 0.605228 0
M  V30 1448 O 154.73 1.12188 1.4242 0
M  V30 1449 C 154.778 3.37685 -1.26495 0
M  V30 1450 O 153.882 4.10281 -0.417514 0
M  V30 1451 H 153.223 0.590365 -0.303917 0
M  V30 1452 H 155.753 1.44672 -1.44676 0
M  V30 1453 H 155.763 3.88501 -1.24625 0
M  V30 1454 H 154.438 3.45492 -2.31534 0
M  V30 1455 H 153.015 3.69536 -0.499722 0
M  V30 1456 N 155.201 0.870884 1.31352 0
M  V30 1457 C 156.447 0.482987 1.96965 0
M  V30 1458 C 156.78 -0.962462 1.68672 0
M  V30 1459 O 156.055 -1.6779 0.98371 0
M  V30 1460 C 156.338 0.741752 3.52378 0
M  V30 1461 C 156.191 2.2368 3.9024 0
M  V30 1462 C 157.51 0.208838 4.39604 0
M  V30 1463 H 154.629 0.176955 0.715441 0
M  V30 1464 H 157.271 1.09229 1.55464 0
M  V30 1465 H 155.421 0.223149 3.87859 0
M  V30 1466 H 157.093 2.82273 3.64856 0
M  V30 1467 H 155.336 2.70901 3.38814 0
M  V30 1468 H 156.007 2.3685 4.98604 0
M  V30 1469 H 158.483 0.652529 4.10952 0
M  V30 1470 H 157.359 0.419336 5.47296 0
M  V30 1471 H 157.62 -0.889275 4.33064 0
M  V30 1472 N 156.679 -1.44442 0.630414 0
M  V30 1473 C 157.904 -2.06927 0.139944 0
M  V30 1474 C 158.329 -1.46795 -1.17613 0
M  V30 1475 O 157.687 -0.569144 -1.72135 0
M  V30 1476 C 157.735 -3.6058 0.0379581 0
M  V30 1477 O 156.839 -3.99937 -1.0062 0
M  V30 1478 H 156.18 -0.658608 0.0844483 0
M  V30 1479 H 158.71 -1.85327 0.866891 0
M  V30 1480 H 158.72 -4.07714 -0.152856 0
M  V30 1481 H 157.395 -4.03728 0.998809 0
M  V30 1482 H 155.972 -3.64436 -0.79001 0
M  V30 1483 N 158.157 -0.370918 -1.53173 0
M  V30 1484 C 159.382 0.220293 -2.06227 0
M  V30 1485 C 159.807 1.41243 -1.24225 0
M  V30 1486 O 159.165 1.79387 -0.262645 0
M  V30 1487 C 159.213 0.586663 -3.55796 0
M  V30 1488 O 158.317 1.68317 -3.76488 0
M  V30 1489 H 157.658 0.0308099 -0.663285 0
M  V30 1490 H 160.188 -0.533068 -1.97534 0
M  V30 1491 H 160.198 0.85617 -3.98916 0
M  V30 1492 H 158.873 -0.285013 -4.14922 0
M  V30 1493 H 157.45 1.40881 -3.45264 0
M  V30 1494 N 159.635 1.57281 -0.100228 0
M  V30 1495 C 160.86 1.99302 0.573881 0
M  V30 1496 C 161.285 0.979059 1.60611 0
M  V30 1497 O 160.643 -0.0517803 1.81226 0
M  V30 1498 C 160.691 3.40274 1.19358 0
M  V30 1499 O 159.795 3.41676 2.30935 0
M  V30 1500 H 159.136 0.647944 0.145138 0
M  V30 1501 H 161.666 2.03779 -0.183156 0
M  V30 1502 H 161.676 3.78078 1.53365 0
M  V30 1503 H 160.351 4.13594 0.437385 0
M  V30 1504 H 158.928 3.15672 1.98509 0
M  V30 1505 N 161.113 -0.173488 1.56642 0
M  V30 1506 C 162.023 -1.23482 1.99473 0
M  V30 1507 C 163.039 -1.48567 0.905752 0
M  V30 1508 O 164.215 -1.60758 1.21321 0
M  V30 1509 C 161.28 -2.55444 2.34413 0
M  V30 1510 C 160.341 -2.38241 3.57127 0
M  V30 1511 C 159.574 -3.63909 3.90392 0
M  V30 1512 O 159.797 -4.68996 3.24653 0
M  V30 1513 O 158.731 -3.58149 4.83749 0
M  V30 1514 H 162.557 -0.901279 2.90018 0
M  V30 1515 H 160.142 -0.380185 1.44482 0
M  V30 1516 H 162.024 -3.33292 2.57865 0
M  V30 1517 H 160.699 -2.88382 1.4703 0
M  V30 1518 H 159.606 -1.58431 3.38896 0
M  V30 1519 H 160.939 -2.10228 4.45045 0
M  V30 1520 N 162.591 -1.51276 -0.441967 0
M  V30 1521 C 163.868 -1.54252 -1.20273 0
M  V30 1522 C 164.248 -0.30408 -2.08898 0
M  V30 1523 O 163.596 0.711084 -2.17154 0
M  V30 1524 C 163.806 -2.85406 -2.00859 0
M  V30 1525 C 165.154 -3.37181 -2.58059 0
M  V30 1526 O 166.178 -2.86925 -2.11074 0
M  V30 1527 O 165.037 -4.24858 -3.43741 0
M  V30 1528 H 162.131 -0.619969 -0.547328 0
M  V30 1529 H 164.677 -1.63586 -0.451413 0
M  V30 1530 H 163.449 -3.67003 -1.35736 0
M  V30 1531 H 163.072 -2.79213 -2.83065 0
M  V30 1532 N 164.069 0.697108 -1.41344 0
M  V30 1533 C 165.318 1.45279 -1.39918 0
M  V30 1534 C 165.631 1.95597 -0.0109624 0
M  V30 1535 O 166.837 2.71208 0.125919 0
M  V30 1536 C 165.293 2.62695 -2.46007 0
M  V30 1537 C 164.901 2.19169 -3.90729 0
M  V30 1538 C 166.645 3.40336 -2.53715 0
M  V30 1539 C 164.552 3.33535 -4.88373 0
M  V30 1540 H 163.482 0.545692 -0.520323 0
M  V30 1541 H 166.133 0.756929 -1.67161 0
M  V30 1542 H 164.515 3.34541 -2.11892 0
M  V30 1543 H 165.689 1.54623 -4.34083 0
M  V30 1544 H 164.004 1.54525 -3.86666 0
M  V30 1545 H 166.601 4.2547 -3.2385 0
M  V30 1546 H 166.944 3.85418 -1.5735 0
M  V30 1547 H 167.477 2.75546 -2.86913 0
M  V30 1548 H 164.216 2.93468 -5.86137 0
M  V30 1549 H 163.736 3.96936 -4.49668 0
M  V30 1550 H 165.415 3.99335 -5.09059 0
M  V30 1551 N 165.547 1.27147 0.931209 0
M  V30 1552 C 166.494 1.09568 2.03134 0
M  V30 1553 C 167.464 -0.00222433 1.661 0
M  V30 1554 O 168.649 0.159439 1.90133 0
M  V30 1555 C 165.789 0.745231 3.36957 0
M  V30 1556 C 164.902 1.92041 3.86968 0
M  V30 1557 C 164.037 1.51216 5.09222 0
M  V30 1558 C 163.076 2.65504 5.5152 0
M  V30 1559 N 162.213 2.25291 6.64972 0
M  V30 1560 H 167.053 2.03708 2.17502 0
M  V30 1561 H 164.59 1.01411 1.06556 0
M  V30 1562 H 166.548 0.522878 4.1391 0
M  V30 1563 H 165.178 -0.159202 3.22407 0
M  V30 1564 H 164.23 2.25541 3.06326 0
M  V30 1565 H 165.542 2.77787 4.1429 0
M  V30 1566 H 164.696 1.25084 5.93666 0
M  V30 1567 H 163.435 0.625749 4.83669 0
M  V30 1568 H 162.44 2.92354 4.65628 0
M  V30 1569 H 163.665 3.54761 5.7907 0
M  V30 1570 H 161.611 1.39098 6.41083 0
M  V30 1571 H 161.528 3.04577 6.91931 0
M  V30 1572 H 162.796 2.02398 7.52765 0
M  V30 1573 N 167.025 -1.13721 1.09112 0
M  V30 1574 C 168.436 -1.6648 0.845068 0
M  V30 1575 C 168.787 -1.85911 -0.62701 0
M  V30 1576 O 167.912 -1.57556 -1.48341 0
M  V30 1577 C 168.507 -3.02413 1.52748 0
M  V30 1578 C 167.066 -3.52176 1.32849 0
M  V30 1579 C 166.213 -2.27492 1.58564 0
M  V30 1580 H 169.164 -0.976872 1.25072 0
M  V30 1581 H 169.185 -3.68223 0.958752 0
M  V30 1582 H 168.697 -2.88238 2.59885 0
M  V30 1583 H 166.798 -3.7156 0.278137 0
M  V30 1584 H 166.911 -4.32499 2.0611 0
M  V30 1585 H 165.275 -2.33923 1.00758 0
M  V30 1586 H 166.058 -2.15886 2.66924 0
M  V30 1587 N 168.503 -0.877838 -1.30888 0
M  V30 1588 C 169.433 -0.35534 -2.3078 0
M  V30 1589 C 170.414 0.557994 -1.60687 0
M  V30 1590 O 171.599 0.473355 -1.88343 0
M  V30 1591 C 168.729 0.437221 -3.44537 0
M  V30 1592 C 167.683 -0.383715 -4.26276 0
M  V30 1593 C 167.009 0.535014 -5.32017 0
M  V30 1594 C 168.309 -1.62201 -4.96476 0
M  V30 1595 H 170.003 -1.19007 -2.74732 0
M  V30 1596 H 167.549 -0.573698 -1.32078 0
M  V30 1597 H 169.502 0.813334 -4.13477 0
M  V30 1598 H 168.226 1.30553 -2.99372 0
M  V30 1599 H 166.885 -0.741874 -3.59015 0
M  V30 1600 H 166.533 1.40083 -4.831 0
M  V30 1601 H 166.233 -0.0104211 -5.87599 0
M  V30 1602 H 167.757 0.907799 -6.03814 0
M  V30 1603 H 169.171 -1.31689 -5.5797 0
M  V30 1604 H 167.568 -2.10711 -5.61891 0
M  V30 1605 H 168.638 -2.37044 -4.23011 0
M  V30 1606 N 169.982 1.44106 -0.638065 0
M  V30 1607 C 171.393 1.85316 -0.226894 0
M  V30 1608 C 171.744 1.53399 1.22324 0
M  V30 1609 O 170.869 0.975463 1.93167 0
M  V30 1610 C 171.464 3.3637 -0.405013 0
M  V30 1611 C 170.023 3.76369 -0.0482902 0
M  V30 1612 C 169.17 2.67921 -0.715108 0
M  V30 1613 H 172.121 1.34474 -0.842764 0
M  V30 1614 H 172.142 3.7885 0.354 0
M  V30 1615 H 171.654 3.59569 -1.46053 0
M  V30 1616 H 169.755 3.58784 1.00522 0
M  V30 1617 H 169.868 4.76856 -0.463187 0
M  V30 1618 H 168.232 2.54259 -0.149753 0
M  V30 1619 H 169.015 2.93951 -1.77335 0
M  V30 1620 N 171.46 0.379036 1.52974 0
M  V30 1621 C 172.708 -0.206014 2.01047 0
M  V30 1622 C 173.029 -1.48175 1.26765 0
M  V30 1623 O 172.299 -1.92085 0.384743 0
M  V30 1624 H 170.879 -0.0791184 0.742798 0
M  V30 1625 H 173.541 0.508366 1.88153 0
M  V30 1626 H 172.637 -0.423501 3.09213 0
M  V30 1627 N 172.938 -1.57226 0.108567 0
M  V30 1628 C 173.868 -2.17778 -0.84232 0
M  V30 1629 C 174.849 -1.11487 -1.2847 0
M  V30 1630 O 176.034 -1.39681 -1.34918 0
M  V30 1631 C 173.164 -2.76888 -2.09644 0
M  V30 1632 C 172.118 -3.88669 -1.79221 0
M  V30 1633 C 171.444 -4.34541 -3.11574 0
M  V30 1634 C 172.744 -5.11251 -1.06864 0
M  V30 1635 H 174.438 -2.97489 -0.337774 0
M  V30 1636 H 171.984 -1.43097 -0.161025 0
M  V30 1637 H 173.937 -3.17904 -2.76614 0
M  V30 1638 H 172.661 -1.94451 -2.62405 0
M  V30 1639 H 171.32 -3.48213 -1.14644 0
M  V30 1640 H 170.968 -3.48977 -3.62249 0
M  V30 1641 H 170.668 -5.09914 -2.91996 0
M  V30 1642 H 172.192 -4.782 -3.7968 0
M  V30 1643 H 173.606 -5.49352 -1.63968 0
M  V30 1644 H 172.003 -5.9214 -0.974178 0
M  V30 1645 H 173.073 -4.8487 -0.0536168 0
M  V30 1646 N 174.416 0.165178 -1.56732 0
M  V30 1647 C 175.827 0.727046 -1.71962 0
M  V30 1648 C 176.178 1.82508 -0.720078 0
M  V30 1649 O 175.303 2.16082 0.117242 0
M  V30 1650 C 175.898 1.32559 -3.11791 0
M  V30 1651 C 174.457 1.83422 -3.28684 0
M  V30 1652 C 173.604 0.715567 -2.67908 0
M  V30 1653 H 176.555 -0.0602896 -1.58585 0
M  V30 1654 H 176.576 2.19533 -3.10782 0
M  V30 1655 H 176.088 0.526195 -3.84516 0
M  V30 1656 H 174.189 2.65986 -2.60926 0
M  V30 1657 H 174.302 1.97543 -4.36478 0
M  V30 1658 H 172.666 1.13758 -2.27884 0
M  V30 1659 H 173.449 -0.0720836 -3.43224 0
M  V30 1660 N 175.894 1.51508 0.433938 0
M  V30 1661 C 177.142 1.6402 1.18075 0
M  V30 1662 C 177.463 0.360328 1.91642 0
M  V30 1663 O 176.733 -0.623945 1.85698 0
M  V30 1664 H 175.313 0.6045 0.43885 0
M  V30 1665 H 177.975 1.88452 0.497178 0
M  V30 1666 H 177.071 2.46949 1.90847 0
M  V30 1667 N 177.372 -0.689602 1.41712 0
M  V30 1668 C 178.621 -1.44534 1.40686 0
M  V30 1669 C 178.934 -1.95588 0.0213352 0
M  V30 1670 O 180.14 -2.71271 -0.111534 0
M  V30 1671 C 178.596 -2.61387 2.47396 0
M  V30 1672 C 178.204 -2.17094 3.91885 0
M  V30 1673 C 179.948 -3.38986 2.55517 0
M  V30 1674 C 177.855 -3.3094 4.90135 0
M  V30 1675 H 176.785 -0.542925 0.52321 0
M  V30 1676 H 179.436 -0.748054 1.6756 0
M  V30 1677 H 177.818 -3.33412 2.13664 0
M  V30 1678 H 178.992 -1.52318 4.34897 0
M  V30 1679 H 177.307 -1.52473 3.8748 0
M  V30 1680 H 179.904 -4.23747 3.26102 0
M  V30 1681 H 180.247 -3.84578 1.59391 0
M  V30 1682 H 180.78 -2.74021 2.8837 0
M  V30 1683 H 177.519 -2.90355 5.87685 0
M  V30 1684 H 177.039 -3.94546 4.51767 0
M  V30 1685 H 178.718 -3.9663 5.11169 0
M  V30 1686 N 178.85 -1.27639 -0.924453 0
M  V30 1687 C 180.098 -1.13941 -1.66918 0
M  V30 1688 C 180.419 0.314589 -1.92446 0
M  V30 1689 O 179.689 1.21964 -1.53303 0
M  V30 1690 H 178.269 -0.418678 -0.618642 0
M  V30 1691 H 180.931 -1.60213 -1.10985 0
M  V30 1692 H 180.027 -1.67094 -2.63602 0
M  V30 1693 N 180.328 1.1314 -1.09713 0
M  V30 1694 C 181.276 2.20717 -0.733934 0
M  V30 1695 C 182.27 1.6729 0.266506 0
M  V30 1696 O 183.476 1.79547 0.127656 0
M  V30 1697 H 179.851 0.719292 -0.21937 0
M  V30 1698 H 181.822 2.48611 -1.6503 0
M  V30 1699 C 180.571 3.47265 -0.173849 0
M  V30 1700 H 179.894 3.88716 -0.934873 0
M  V30 1701 H 181.334 4.23979 0.0423126 0
M  V30 1702 C 179.793 3.18724 1.09164 0
M  V30 1703 O 180.323 3.37762 2.17439 0
M  V30 1704 N 178.529 2.72583 1.00732 0
M  V30 1705 H 178.076 2.57291 0.126121 0
M  V30 1706 H 178.034 2.53862 1.85476 0
M  V30 1707 N 181.806 0.884767 1.30421 0
M  V30 1708 C 182.739 0.295999 2.26272 0
M  V30 1709 C 183.717 -0.58332 1.51777 0
M  V30 1710 O 184.901 -0.53346 1.80794 0
M  V30 1711 C 182.028 -0.57944 3.33707 0
M  V30 1712 C 181.074 0.230525 4.25877 0
M  V30 1713 S 181.907 1.61867 5.1045 0
M  V30 1714 C 183.063 0.749756 6.21393 0
M  V30 1715 H 183.296 1.10848 2.75862 0
M  V30 1716 H 180.829 0.684178 1.38414 0
M  V30 1717 H 182.787 -1.07879 3.96071 0
M  V30 1718 H 181.448 -1.36601 2.82841 0
M  V30 1719 H 180.641 -0.437542 5.02097 0
M  V30 1720 H 180.243 0.662493 3.68086 0
M  V30 1721 H 182.535 -0.0333547 6.77492 0
M  V30 1722 H 183.478 1.48356 6.92384 0
M  V30 1723 H 183.886 0.310751 5.63644 0
M  V30 1724 N 183.284 -1.43765 0.645699 0
M  V30 1725 C 184.232 -2.32516 -0.0624849 0
M  V30 1726 C 185.226 -1.48183 -0.820855 0
M  V30 1727 O 186.432 -1.64439 -0.732106 0
M  V30 1728 H 182.807 -0.750989 -0.0389864 0
M  V30 1729 H 184.778 -2.89979 0.703892 0
M  V30 1730 C 183.527 -3.32389 -1.02044 0
M  V30 1731 H 182.85 -3.97301 -0.446312 0
M  V30 1732 H 184.29 -3.97138 -1.48517 0
M  V30 1733 C 182.749 -2.62416 -2.11281 0
M  V30 1734 O 183.279 -2.434 -3.19561 0
M  V30 1735 N 181.485 -2.21913 -1.87624 0
M  V30 1736 H 181.032 -2.37578 -0.995703 0
M  V30 1737 H 180.99 -1.75424 -2.6091 0
M  V30 1738 N 184.763 -0.387143 -1.52771 0
M  V30 1739 C 185.993 0.195585 -2.05672 0
M  V30 1740 C 186.401 1.41241 -1.25887 0
M  V30 1741 O 185.744 1.81265 -0.298081 0
M  V30 1742 C 185.806 0.632327 -3.53895 0
M  V30 1743 C 185.47 -0.470739 -4.54569 0
M  V30 1744 C 186.467 -1.32746 -5.02667 0
M  V30 1745 C 184.152 -0.637151 -4.98243 0
M  V30 1746 C 186.146 -2.33574 -5.93061 0
M  V30 1747 C 183.833 -1.64877 -5.88438 0
M  V30 1748 C 184.831 -2.49649 -6.35739 0
M  V30 1749 O 184.519 -3.49082 -7.24153 0
M  V30 1750 H 184.251 0.033658 -0.675162 0
M  V30 1751 H 186.805 -0.550221 -1.97893 0
M  V30 1752 H 185.035 1.43008 -3.59285 0
M  V30 1753 H 186.724 1.14048 -3.89548 0
M  V30 1754 H 187.49 -1.21019 -4.69659 0
M  V30 1755 H 183.369 0.0129567 -4.60998 0
M  V30 1756 H 186.913 -2.99777 -6.29904 0
M  V30 1757 H 182.81 -1.76643 -6.2086 0
M  V30 1758 H 183.578 -3.45065 -7.42208 0
M  V30 1759 N 186.241 1.57166 -0.116904 0
M  V30 1760 C 187.652 1.82169 0.408809 0
M  V30 1761 C 188.003 1.03393 1.66746 0
M  V30 1762 O 187.128 0.269886 2.1471 0
M  V30 1763 C 187.723 3.30429 0.748466 0
M  V30 1764 C 186.282 3.5612 1.21882 0
M  V30 1765 C 185.429 2.76374 0.226452 0
M  V30 1766 H 188.38 1.5497 -0.342063 0
M  V30 1767 H 188.401 3.44943 1.60607 0
M  V30 1768 H 187.913 3.87737 -0.167784 0
M  V30 1769 H 186.014 3.04168 2.15204 0
M  V30 1770 H 186.127 4.64705 1.16559 0
M  V30 1771 H 184.491 2.44515 0.713063 0
M  V30 1772 H 185.274 3.3644 -0.682859 0
M  V30 1773 N 187.719 -0.156864 1.56817 0
M  V30 1774 C 188.944 -0.890331 1.87318 0
M  V30 1775 C 189.369 -1.74394 0.704855 0
M  V30 1776 O 188.727 -1.77972 -0.345786 0
M  V30 1777 C 188.775 -1.73102 3.16336 0
M  V30 1778 O 187.879 -2.83422 2.99576 0
M  V30 1779 H 187.22 -0.24857 0.615718 0
M  V30 1780 H 189.75 -0.150649 2.04045 0
M  V30 1781 H 189.76 -2.12803 3.48107 0
M  V30 1782 H 188.435 -1.10412 4.00976 0
M  V30 1783 H 187.012 -2.47199 2.7919 0
M  V30 1784 N 189.197 -1.51736 -0.425897 0
M  V30 1785 C 190.425 -1.68794 -1.1965 0
M  V30 1786 C 190.84 -0.390164 -1.84725 0
M  V30 1787 O 190.197 0.632376 -1.71194 0
M  V30 1788 C 190.248 -2.81174 -2.27208 0
M  V30 1789 O 189.969 -4.05925 -1.64793 0
M  V30 1790 C 191.47 -3.09599 -3.17275 0
M  V30 1791 H 188.69 -0.566128 -0.360194 0
M  V30 1792 H 191.234 -1.98211 -0.503249 0
M  V30 1793 H 189.389 -2.54324 -2.9223 0
M  V30 1794 H 189.803 -4.68423 -2.35967 0
M  V30 1795 H 191.277 -3.91786 -3.88854 0
M  V30 1796 H 191.754 -2.22468 -3.78688 0
M  V30 1797 H 192.36 -3.38151 -2.57941 0
M  V30 1798 N 190.675 0.682077 -1.42076 0
M  V30 1799 C 191.9 1.47558 -1.45744 0
M  V30 1800 C 192.325 1.87977 -0.0680981 0
M  V30 1801 O 191.683 1.55522 0.9318 0
M  V30 1802 C 191.731 2.70575 -2.38373 0
M  V30 1803 O 190.835 3.68573 -1.85007 0
M  V30 1804 H 190.176 0.443585 -0.494093 0
M  V30 1805 H 192.706 0.837238 -1.86686 0
M  V30 1806 H 192.716 3.18729 -2.54707 0
M  V30 1807 H 191.391 2.40495 -3.39315 0
M  V30 1808 H 189.968 3.2757 -1.78192 0
M  V30 1809 N 192.153 1.28127 0.917671 0
M  V30 1810 C 193.564 1.13622 1.48145 0
M  V30 1811 C 193.915 -0.275207 1.9426 0
M  V30 1812 O 193.04 -1.1691 1.82102 0
M  V30 1813 C 193.635 2.05648 2.69248 0
M  V30 1814 C 192.194 1.95219 3.21818 0
M  V30 1815 C 191.341 1.97618 1.94532 0
M  V30 1816 H 194.292 1.40874 0.730772 0
M  V30 1817 H 194.313 1.61818 3.44377 0
M  V30 1818 H 193.825 3.08365 2.35653 0
M  V30 1819 H 191.926 0.955244 3.60147 0
M  V30 1820 H 192.039 2.81976 3.87333 0
M  V30 1821 H 190.403 1.41973 2.11461 0
M  V30 1822 H 191.186 3.02007 1.63238 0
M  V30 1823 N 193.631 -1.12557 1.10312 0
M  V30 1824 C 194.879 -1.83675 0.843091 0
M  V30 1825 C 195.2 -1.84435 -0.633131 0
M  V30 1826 O 194.47 -1.30657 -1.45964 0
M  V30 1827 H 193.05 -0.680138 0.308904 0
M  V30 1828 H 195.712 -1.36301 1.39313 0
M  V30 1829 H 194.808 -2.87908 1.2048 0
M  V30 1830 N 195.109 -0.891671 -1.2995 0
M  V30 1831 C 196.334 -0.527932 -2.00568 0
M  V30 1832 C 196.759 0.877969 -1.66353 0
M  V30 1833 O 196.117 1.58301 -0.883762 0
M  V30 1834 C 196.165 -0.717745 -3.53385 0
M  V30 1835 O 195.269 0.233376 -4.11739 0
M  V30 1836 H 194.61 -0.20722 -0.630837 0
M  V30 1837 H 197.14 -1.20105 -1.65638 0
M  V30 1838 H 197.15 -0.619307 -4.03272 0
M  V30 1839 H 195.825 -1.74276 -3.77625 0
M  V30 1840 H 194.402 0.0880706 -3.72796 0
M  V30 1841 N 196.587 1.43421 -0.653314 0
M  V30 1842 C 197.517 2.33487 0.0246656 0
M  V30 1843 C 198.498 1.49475 0.811863 0
M  V30 1844 O 199.683 1.78139 0.773322 0
M  V30 1845 C 196.813 3.32841 0.99166 0
M  V30 1846 C 195.767 4.26842 0.314568 0
M  V30 1847 C 195.093 5.16236 1.39302 0
M  V30 1848 C 196.393 5.16243 -0.793095 0
M  V30 1849 H 198.087 2.90427 -0.727481 0
M  V30 1850 H 195.633 1.39649 -0.351287 0
M  V30 1851 H 197.586 3.94747 1.47487 0
M  V30 1852 H 196.31 2.74158 1.77497 0
M  V30 1853 H 194.969 3.663 -0.148199 0
M  V30 1854 H 194.617 4.53891 2.16776 0
M  V30 1855 H 194.317 5.79948 0.945223 0
M  V30 1856 H 195.841 5.81015 1.87759 0
M  V30 1857 H 197.255 5.71958 -0.392039 0
M  V30 1858 H 195.652 5.88676 -1.16536 0
M  V30 1859 H 196.722 4.55927 -1.65103 0
M  V30 1860 N 198.065 0.39524 1.52563 0
M  V30 1861 C 199.311 -0.185318 2.01952 0
M  V30 1862 C 199.644 -1.45964 1.28095 0
M  V30 1863 O 198.919 -1.90689 0.38315 0
M  V30 1864 C 199.202 -0.447193 3.57312 0
M  V30 1865 C 199.055 0.842828 4.41833 0
M  V30 1866 C 200.374 -1.23529 4.22408 0
M  V30 1867 H 197.493 -0.0658788 0.73405 0
M  V30 1868 H 200.135 0.525975 1.82575 0
M  V30 1869 H 198.285 -1.05312 3.73954 0
M  V30 1870 H 199.957 1.4795 4.36931 0
M  V30 1871 H 198.2 1.45686 4.08605 0
M  V30 1872 H 198.871 0.614165 5.48573 0
M  V30 1873 H 201.347 -0.722445 4.0978 0
M  V30 1874 H 200.223 -1.38727 5.3108 0
M  V30 1875 H 200.484 -2.25213 3.80436 0
M  V30 1876 N 199.544 -1.57102 0.125237 0
M  V30 1877 C 200.491 -2.15641 -0.822655 0
M  V30 1878 C 201.461 -1.08313 -1.25927 0
M  V30 1879 O 202.646 -1.36251 -1.33567 0
M  V30 1880 C 199.786 -2.76504 -2.06494 0
M  V30 1881 C 198.899 -3.98158 -1.67612 0
M  V30 1882 C 198.034 -4.47088 -2.86854 0
M  V30 1883 C 197.073 -5.6126 -2.44242 0
M  V30 1884 N 196.21 -6.04905 -3.56419 0
M  V30 1885 H 201.05 -2.96313 -0.316625 0
M  V30 1886 H 198.587 -1.46388 -0.144588 0
M  V30 1887 H 200.545 -3.09925 -2.79289 0
M  V30 1888 H 199.175 -1.98512 -2.54545 0
M  V30 1889 H 198.227 -3.70858 -0.846661 0
M  V30 1890 H 199.539 -4.80934 -1.32301 0
M  V30 1891 H 198.693 -4.82451 -3.67867 0
M  V30 1892 H 197.432 -3.63275 -3.25396 0
M  V30 1893 H 196.437 -5.25495 -1.61663 0
M  V30 1894 H 197.662 -6.46843 -2.0681 0
M  V30 1895 H 195.608 -5.24032 -3.94623 0
M  V30 1896 H 195.525 -6.82552 -3.25051 0
M  V30 1897 H 196.793 -6.44907 -4.37853 0
M  V30 1898 N 201.022 0.148545 -1.56898 0
M  V30 1899 C 201.972 1.1886 -1.94567 0
M  V30 1900 C 202.956 1.3863 -0.816735 0
M  V30 1901 O 204.148 1.40218 -1.08018 0
M  V30 1902 C 201.277 2.52262 -2.32849 0
M  V30 1903 C 200.363 2.36092 -3.52309 0
M  V30 1904 N 200.754 1.89674 -4.6889 0
M  V30 1905 C 199.052 2.66848 -3.57363 0
M  V30 1906 C 199.753 1.86511 -5.50989 0
M  V30 1907 N 198.729 2.29766 -4.92655 0
M  V30 1908 H 202.531 0.821793 -2.82177 0
M  V30 1909 H 200.045 0.356615 -1.58436 0
M  V30 1910 H 202.042 3.27447 -2.58039 0
M  V30 1911 H 200.702 2.89727 -1.46589 0
M  V30 1912 H 201.713 1.59663 -4.92674 0
M  V30 1913 H 198.39 3.08198 -2.81639 0
M  V30 1914 H 199.78 1.52128 -6.54452 0
M  V30 1915 N 202.5 1.5196 0.417844 0
M  V30 1916 C 203.749 1.6482 1.16264 0
M  V30 1917 C 204.062 0.379886 1.91876 0
M  V30 1918 O 205.268 0.388154 2.68711 0
M  V30 1919 C 203.724 2.91161 2.1155 0
M  V30 1920 C 203.332 4.25068 1.41495 0
M  V30 1921 C 205.076 3.13383 2.86341 0
M  V30 1922 C 202.983 5.42541 2.35379 0
M  V30 1923 H 201.913 0.613954 0.437694 0
M  V30 1924 H 204.564 1.78442 0.427871 0
M  V30 1925 H 202.946 2.71218 2.88543 0
M  V30 1926 H 204.12 4.55463 0.699263 0
M  V30 1927 H 202.435 4.0888 0.787792 0
M  V30 1928 H 205.032 3.98324 3.5671 0
M  V30 1929 H 205.375 2.27256 3.48798 0
M  V30 1930 H 205.908 3.33757 2.1645 0
M  V30 1931 H 202.647 6.30987 1.77582 0
M  V30 1932 H 202.167 5.16497 3.04945 0
M  V30 1933 H 203.846 5.75272 2.96093 0
M  V30 1934 N 203.978 -0.674533 1.42435 0
M  V30 1935 C 205.218 -1.4466 1.44405 0
M  V30 1936 C 205.582 -1.91911 0.0585784 0
M  V30 1937 O 206.783 -2.68759 -0.0469991 0
M  V30 1938 C 205.054 -2.61136 2.44013 0
M  V30 1939 S 206.613 -3.49981 2.64687 0
M  V30 1940 H 203.431 -0.494074 0.511284 0
M  V30 1941 H 206.033 -0.785162 1.7904 0
M  V30 1942 H 204.737 -2.24662 3.43446 0
M  V30 1943 H 204.268 -3.32153 2.10803 0
M  V30 1944 H 206.283 -4.57124 1.93007 0
M  V30 1945 N 205.456 -1.28612 -0.910864 0
M  V30 1946 C 206.419 -1.12803 -1.9952 0
M  V30 1947 C 207.419 -0.0668264 -1.60661 0
M  V30 1948 O 208.609 -0.312847 -1.71368 0
M  V30 1949 C 205.741 -0.72254 -3.33155 0
M  V30 1950 H 206.934 -2.09109 -2.14973 0
M  V30 1951 H 204.487 -1.11639 -1.09391 0
M  V30 1952 H 205.222 0.241152 -3.23402 0
M  V30 1953 H 205.007 -1.48916 -3.62721 0
M  V30 1954 H 206.497 -0.634666 -4.12749 0
M  V30 1955 N 206.934 1.1197 -1.10907 0
M  V30 1956 C 208.183 1.82947 -0.849302 0
M  V30 1957 C 208.496 1.85275 0.627112 0
M  V30 1958 O 209.702 2.52296 1.00295 0
M  V30 1959 C 208.158 3.28529 -1.46959 0
M  V30 1960 C 207.766 3.34546 -2.97965 0
M  V30 1961 C 209.51 4.04443 -1.28942 0
M  V30 1962 C 207.417 4.74491 -3.53004 0
M  V30 1963 H 206.347 0.685477 -0.314065 0
M  V30 1964 H 208.998 1.2604 -1.33365 0
M  V30 1965 H 207.38 3.85333 -0.912917 0
M  V30 1966 H 208.554 2.87654 -3.59989 0
M  V30 1967 H 206.869 2.72108 -3.15192 0
M  V30 1968 H 209.466 5.07787 -1.67502 0
M  V30 1969 H 209.809 4.15656 -0.231456 0
M  V30 1970 H 210.342 3.5401 -1.81443 0
M  V30 1971 H 207.081 4.68474 -4.58489 0
M  V30 1972 H 206.601 5.21816 -2.9575 0
M  V30 1973 H 208.28 5.4344 -3.51115 0
M  V30 1974 N 208.412 0.89855 1.29475 0
M  V30 1975 C 209.652 0.530771 1.97388 0
M  V30 1976 C 210.016 -0.905832 1.69289 0
M  V30 1977 O 211.217 -1.38042 2.30646 0
M  V30 1978 C 209.488 0.81369 3.48014 0
M  V30 1979 S 211.047 0.550048 4.35339 0
M  V30 1980 H 207.865 0.196956 0.683176 0
M  V30 1981 H 210.467 1.16074 1.57312 0
M  V30 1982 H 209.171 1.85749 3.65958 0
M  V30 1983 H 208.702 0.171795 3.93025 0
M  V30 1984 H 210.717 -0.605423 4.92493 0
M  V30 1985 N 209.89 -1.43072 0.660911 0
M  V30 1986 C 211.138 -2.01323 0.177094 0
M  V30 1987 C 211.459 -1.5245 -1.2159 0
M  V30 1988 O 210.729 -0.740322 -1.81373 0
M  V30 1989 H 209.309 -0.744382 0.0624804 0
M  V30 1990 H 211.971 -1.75179 0.854305 0
M  V30 1991 H 211.067 -3.11649 0.167641 0
M  V30 1992 N 211.368 -0.403325 -1.52352 0
M  V30 1993 C 212.645 0.232611 -1.94212 0
M  V30 1994 C 213.025 1.63133 -1.33981 0
M  V30 1995 O 212.373 2.22659 -0.513344 0
M  V30 1996 C 212.583 0.244811 -3.4814 0
M  V30 1997 C 213.931 0.46698 -4.22024 0
M  V30 1998 O 214.955 0.324419 -3.5472 0
M  V30 1999 O 213.814 0.74747 -5.41364 0
M  V30 2000 H 210.908 0.148223 -0.813609 0
M  V30 2001 H 213.454 -0.458848 -1.63379 0
M  V30 2002 H 212.226 -0.734378 -3.84347 0
M  V30 2003 H 211.849 0.980611 -3.85318 0
M  V30 2004 N 212.846 1.57033 -0.133567 0
M  V30 2005 C 214.262 1.58035 0.222944 0
M  V30 2006 C 214.462 1.14713 1.6566 0
M  V30 2007 O 213.518 0.841218 2.38075 0
M  V30 2008 C 214.831 3.00691 -0.0236116 0
M  V30 2009 C 216.379 3.12973 0.0411512 0
M  V30 2010 C 216.854 4.57654 -0.177899 0
M  V30 2011 N 218.345 4.63033 -0.124365 0
M  V30 2012 C 219.08 5.72771 -0.268553 0
M  V30 2013 N 218.576 6.91206 -0.46972 0
M  V30 2014 N 220.369 5.61718 -0.2071 0
M  V30 2015 H 212.52 1.8349 -1.06981 0
M  V30 2016 H 214.783 0.848677 -0.422436 0
M  V30 2017 H 214.489 3.36726 -1.0153 0
M  V30 2018 H 214.363 3.70614 0.701808 0
M  V30 2019 H 216.75 2.76787 1.02338 0
M  V30 2020 H 216.831 2.45564 -0.716383 0
M  V30 2021 H 216.475 4.94542 -1.15717 0
M  V30 2022 H 216.405 5.23173 0.599797 0
M  V30 2023 H 218.896 3.7789 0.027011 0
M  V30 2024 H 219.209 7.70693 -0.570212 0
M  V30 2025 H 217.554 6.93156 -0.505876 0
M  V30 2026 H 220.745 4.68072 -0.0507986 0
M  V30 2027 H 220.918 6.47195 -0.322909 0
M  V30 2028 N 214.325 -0.140222 1.56975 0
M  V30 2029 C 215.55 -0.870414 1.88251 0
M  V30 2030 C 215.975 -1.73637 0.723312 0
M  V30 2031 O 215.333 -1.78329 -0.32689 0
M  V30 2032 C 215.381 -1.69737 3.18154 0
M  V30 2033 O 214.485 -2.80229 3.02565 0
M  V30 2034 H 213.826 -0.242025 0.61832 0
M  V30 2035 H 216.356 -0.128999 2.04193 0
M  V30 2036 H 216.366 -2.09099 3.50345 0
M  V30 2037 H 215.041 -1.06152 4.02125 0
M  V30 2038 H 213.618 -2.44224 2.81796 0
M  V30 2039 N 215.803 -1.52179 -0.40978 0
M  V30 2040 C 217.028 -1.70347 -1.18308 0
M  V30 2041 C 217.453 -0.411887 -1.83535 0
M  V30 2042 O 216.811 0.630587 -1.6998 0
M  V30 2043 C 216.859 -2.83977 -2.22238 0
M  V30 2044 O 215.963 -2.495 -3.28365 0
M  V30 2045 H 215.304 -0.567103 -0.345384 0
M  V30 2046 H 217.834 -1.98879 -0.480445 0
M  V30 2047 H 217.844 -3.0887 -2.66577 0
M  V30 2048 H 216.519 -3.77685 -1.74146 0
M  V30 2049 H 215.096 -2.35277 -2.89308 0
M  V30 2050 N 217.281 0.66697 -1.42791 0
M  V30 2051 C 218.529 1.42417 -1.43394 0
M  V30 2052 C 218.85 1.94925 -0.0542373 0
M  V30 2053 O 218.12 1.73564 0.908415 0
M  V30 2054 H 216.7 0.528515 -0.527902 0
M  V30 2055 H 219.362 0.787562 -1.78279 0
M  V30 2056 H 218.458 2.27333 -2.13837 0
M  V30 2057 N 218.759 1.29093 0.90403 0
M  V30 2058 C 219.706 1.13853 2.00764 0
M  V30 2059 C 220.676 0.0330084 1.66067 0
M  V30 2060 O 221.861 0.199733 1.89752 0
M  V30 2061 C 219.001 0.816537 3.35301 0
M  V30 2062 C 218.114 2.00206 3.82807 0
M  V30 2063 C 217.249 1.61983 5.059 0
M  V30 2064 C 216.288 2.77143 5.45764 0
M  V30 2065 N 215.425 2.39346 6.60044 0
M  V30 2066 H 220.265 2.08276 2.13132 0
M  V30 2067 H 217.802 1.03648 1.04381 0
M  V30 2068 H 219.76 0.610557 4.12708 0
M  V30 2069 H 218.39 -0.090779 3.22672 0
M  V30 2070 H 217.442 2.31988 3.01473 0
M  V30 2071 H 218.754 2.86512 4.08304 0
M  V30 2072 H 217.908 1.37649 5.90879 0
M  V30 2073 H 216.647 0.728202 4.82233 0
M  V30 2074 H 215.652 3.02165 4.59322 0
M  V30 2075 H 216.877 3.66964 5.71414 0
M  V30 2076 H 214.823 1.52665 6.37989 0
M  V30 2077 H 214.74 3.19185 6.85315 0
M  V30 2078 H 216.008 2.1832 7.48303 0
M  V30 2079 N 220.237 -1.11381 1.11499 0
M  V30 2080 C 221.187 -2.15555 0.74298 0
M  V30 2081 C 222.171 -1.58894 -0.253276 0
M  V30 2082 O 223.363 -1.76897 -0.0602918 0
M  V30 2083 C 220.492 -3.42782 0.188481 0
M  V30 2084 C 219.578 -4.064 1.21244 0
M  V30 2085 N 219.969 -4.44864 2.40685 0
M  V30 2086 C 218.267 -4.3333 1.05552 0
M  V30 2087 C 218.968 -4.94715 3.05994 0
M  V30 2088 N 217.944 -4.90909 2.33472 0
M  V30 2089 H 221.746 -2.43074 1.65203 0
M  V30 2090 H 219.26 -1.28401 0.994329 0
M  V30 2091 H 221.257 -4.16789 -0.0961693 0
M  V30 2092 H 219.917 -3.16727 -0.715149 0
M  V30 2093 H 220.928 -4.36876 2.78136 0
M  V30 2094 H 217.605 -4.1698 0.208372 0
M  V30 2095 H 218.995 -5.34103 4.07656 0
M  V30 2096 N 221.715 -0.905404 -1.28997 0
M  V30 2097 C 222.945 -0.549049 -1.99171 0
M  V30 2098 C 223.353 0.87203 -1.67906 0
M  V30 2099 O 222.696 1.58796 -0.923561 0
M  V30 2100 C 222.758 -0.668306 -3.53234 0
M  V30 2101 C 222.422 -2.0574 -4.08069 0
M  V30 2102 C 223.419 -3.0292 -4.22534 0
M  V30 2103 C 221.104 -2.36833 -4.42962 0
M  V30 2104 C 223.098 -4.29314 -4.71135 0
M  V30 2105 C 220.785 -3.63467 -4.91258 0
M  V30 2106 C 221.783 -4.59522 -5.053 0
M  V30 2107 O 221.471 -5.83907 -5.52546 0
M  V30 2108 H 221.203 -0.208784 -0.64295 0
M  V30 2109 H 223.757 -1.21836 -1.65363 0
M  V30 2110 H 221.987 0.0580547 -3.86656 0
M  V30 2111 H 223.676 -0.320273 -4.04634 0
M  V30 2112 H 224.442 -2.80216 -3.95859 0
M  V30 2113 H 220.321 -1.62824 -4.31288 0
M  V30 2114 H 223.865 -5.04293 -4.8201 0
M  V30 2115 H 219.762 -3.86 -5.17372 0
M  V30 2116 H 220.53 -5.86578 -5.70849 0
M  V30 2117 N 223.193 1.4272 -0.668489 0
M  V30 2118 C 224.441 2.01226 -0.187769 0
M  V30 2119 C 224.762 1.53092 1.2078 0
M  V30 2120 O 224.032 0.74993 1.80977 0
M  V30 2121 H 222.612 0.744041 -0.0664272 0
M  V30 2122 H 225.274 1.74723 -0.863583 0
M  V30 2123 H 224.37 3.11556 -0.184166 0
M  V30 2124 N 224.671 0.411399 1.52136 0
M  V30 2125 C 225.917 -0.163888 2.02137 0
M  V30 2126 C 226.25 -1.44597 1.29636 0
M  V30 2127 O 225.525 -1.90272 0.403353 0
M  V30 2128 C 225.808 -0.40927 3.57767 0
M  V30 2129 C 225.661 0.889643 4.40914 0
M  V30 2130 C 226.98 -1.19042 4.23694 0
M  V30 2131 H 224.099 -0.0580896 0.734707 0
M  V30 2132 H 226.741 0.54531 1.82007 0
M  V30 2133 H 224.891 -1.0134 3.7505 0
M  V30 2134 H 226.563 1.52575 4.35337 0
M  V30 2135 H 224.806 1.50011 4.07037 0
M  V30 2136 H 225.477 0.672314 5.4789 0
M  V30 2137 H 227.953 -0.678942 4.10524 0
M  V30 2138 H 226.829 -1.33086 5.32522 0
M  V30 2139 H 227.09 -2.21166 3.82803 0
M  V30 2140 N 226.149 -1.5696 0.141893 0
M  V30 2141 C 227.379 -2.00031 -0.516828 0
M  V30 2142 C 227.787 -1.02091 -1.59293 0
M  V30 2143 O 227.13 -0.00909657 -1.83698 0
M  V30 2144 C 227.192 -3.39534 -1.1814 0
M  V30 2145 C 226.856 -4.56313 -0.250513 0
M  V30 2146 C 227.853 -5.17295 0.519839 0
M  V30 2147 C 225.538 -5.02061 -0.154907 0
M  V30 2148 C 227.532 -6.2243 1.3733 0
M  V30 2149 C 225.219 -6.07053 0.702161 0
M  V30 2150 C 226.217 -6.67106 1.46487 0
M  V30 2151 O 225.905 -7.70066 2.30767 0
M  V30 2152 H 225.637 -0.661451 -0.139493 0
M  V30 2153 H 228.191 -2.04086 0.231926 0
M  V30 2154 H 226.421 -3.32302 -1.97769 0
M  V30 2155 H 228.11 -3.66745 -1.73933 0
M  V30 2156 H 228.876 -4.82852 0.45598 0
M  V30 2157 H 224.755 -4.5505 -0.7383 0
M  V30 2158 H 228.299 -6.69233 1.96909 0
M  V30 2159 H 224.196 -6.40923 0.76733 0
M  V30 2160 H 224.964 -7.87264 2.23959 0
M  V30 2161 N 227.627 0.131896 -1.57047 0
M  V30 2162 C 228.852 0.860418 -1.8871 0
M  V30 2163 C 229.277 1.73251 -0.73251 0
M  V30 2164 O 228.635 1.785 0.317429 0
M  V30 2165 C 228.683 1.68047 -3.19049 0
M  V30 2166 O 227.787 2.7862 -3.04047 0
M  V30 2167 H 227.128 0.238743 -0.619595 0
M  V30 2168 H 229.658 0.118169 -2.04258 0
M  V30 2169 H 229.668 2.07238 -3.51449 0
M  V30 2170 H 228.343 1.04018 -4.02682 0
M  V30 2171 H 226.92 2.42726 -2.83088 0
M  V30 2172 N 229.106 1.52395 0.401703 0
M  V30 2173 C 230.346 1.68498 1.15705 0
M  V30 2174 C 230.71 0.409748 1.87577 0
M  V30 2175 O 231.911 0.446983 2.65058 0
M  V30 2176 C 230.182 2.87789 2.11924 0
M  V30 2177 S 231.741 3.24415 2.95466 0
M  V30 2178 H 228.559 0.593267 0.391862 0
M  V30 2179 H 231.161 1.90408 0.443282 0
M  V30 2180 H 229.865 3.7884 1.57824 0
M  V30 2181 H 229.396 2.68175 2.87829 0
M  V30 2182 H 231.411 2.73614 4.13944 0
M  V30 2183 N 230.584 -0.659388 1.43143 0
M  V30 2184 C 231.494 -1.80167 1.50256 0
M  V30 2185 C 232.51 -1.69571 0.390106 0
M  V30 2186 O 233.686 -1.90849 0.643319 0
M  V30 2187 C 230.751 -3.16409 1.41725 0
M  V30 2188 C 229.812 -3.38848 2.63591 0
M  V30 2189 C 229.045 -4.68591 2.55458 0
M  V30 2190 O 229.268 -5.47532 1.59891 0
M  V30 2191 O 228.202 -4.92614 3.45854 0
M  V30 2192 H 232.028 -1.77121 2.46702 0
M  V30 2193 H 229.613 -0.817092 1.25076 0
M  V30 2194 H 231.495 -3.9768 1.39387 0
M  V30 2195 H 230.17 -3.20059 0.484118 0
M  V30 2196 H 229.077 -2.57366 2.71502 0
M  V30 2197 H 230.41 -3.4004 3.55856 0
M  V30 2198 N 232.062 -1.29571 -0.897171 0
M  V30 2199 C 233.31 -1.17456 -1.64464 0
M  V30 2200 C 233.631 0.273698 -1.9307 0
M  V30 2201 O 232.901 1.18684 -1.55855 0
M  V30 2202 H 231.481 -0.431706 -0.609622 0
M  V30 2203 H 234.143 -1.62531 -1.07562 0
M  V30 2204 H 233.239 -1.72648 -2.59998 0
M  V30 2205 N 233.54 1.10788 -1.12088 0
M  V30 2206 C 234.78 1.84297 -0.883974 0
M  V30 2207 C 235.144 1.83036 0.579797 0
M  V30 2208 O 236.345 2.52061 0.933734 0
M  V30 2209 C 234.616 3.27173 -1.43849 0
M  V30 2210 S 236.175 4.17853 -1.33957 0
M  V30 2211 H 232.993 0.635433 -0.318977 0
M  V30 2212 H 235.595 1.33341 -1.4297 0
M  V30 2213 H 234.299 3.25658 -2.49749 0
M  V30 2214 H 233.83 3.83198 -0.890096 0
M  V30 2215 H 235.845 4.95239 -0.308603 0
M  V30 2216 N 235.018 0.912232 1.28515 0
M  V30 2217 C 235.965 0.397954 2.27343 0
M  V30 2218 C 236.935 -0.526766 1.57526 0
M  V30 2219 O 238.12 -0.449292 1.85435 0
M  V30 2220 C 235.26 -0.357263 3.43246 0
M  V30 2221 C 234.373 0.599788 4.27816 0
M  V30 2222 C 233.508 -0.173725 5.30916 0
M  V30 2223 C 232.547 0.777039 6.07148 0
M  V30 2224 N 231.684 0.0371398 7.0209 0
M  V30 2225 H 236.524 1.24577 2.70711 0
M  V30 2226 H 234.061 0.625612 1.33133 0
M  V30 2227 H 236.019 -0.8113 4.09236 0
M  V30 2228 H 234.649 -1.16943 3.00872 0
M  V30 2229 H 233.701 1.17235 3.61884 0
M  V30 2230 H 235.013 1.32704 4.80823 0
M  V30 2231 H 234.167 -0.688394 6.02782 0
M  V30 2232 H 232.906 -0.934041 4.78672 0
M  V30 2233 H 231.911 1.3031 5.34134 0
M  V30 2234 H 233.136 1.53689 6.61481 0
M  V30 2235 H 231.082 -0.705213 6.52198 0
M  V30 2236 H 230.999 0.704249 7.52713 0
M  V30 2237 H 232.267 -0.457383 7.78157 0
M  V30 2238 N 236.496 -1.42363 0.676048 0
M  V30 2239 C 237.744 -2.01123 0.198437 0
M  V30 2240 C 238.065 -1.53731 -1.19966 0
M  V30 2241 O 237.335 -0.759518 -1.80577 0
M  V30 2242 H 235.915 -0.743678 0.0703721 0
M  V30 2243 H 238.577 -1.74263 0.872837 0
M  V30 2244 H 237.673 -3.11454 0.200686 0
M  V30 2245 N 237.974 -0.419461 -1.51915 0
M  V30 2246 C 239.221 0.152939 -2.01922 0
M  V30 2247 C 239.549 1.4426 -1.30458 0
M  V30 2248 O 238.804 1.91514 -0.402593 0
M  V30 2249 C 239.103 0.437067 -3.54717 0
M  V30 2250 C 238.769 -0.764632 -4.44369 0
M  V30 2251 C 237.431 -1.09423 -4.68594 0
M  V30 2252 C 239.783 -1.56713 -4.97082 0
M  V30 2253 C 237.111 -2.22732 -5.42777 0
M  V30 2254 C 239.463 -2.69107 -5.72507 0
M  V30 2255 C 238.127 -3.02541 -5.95 0
M  V30 2256 H 237.397 0.0559644 -0.738884 0
M  V30 2257 H 240.044 -0.562998 -1.83037 0
M  V30 2258 H 238.349 1.23469 -3.71837 0
M  V30 2259 H 240.046 0.893083 -3.90928 0
M  V30 2260 H 236.636 -0.497775 -4.257 0
M  V30 2261 H 240.82 -1.32571 -4.78266 0
M  V30 2262 H 236.076 -2.48971 -5.58411 0
M  V30 2263 H 240.25 -3.31671 -6.12346 0
M  V30 2264 H 237.877 -3.90457 -6.52264 0
M  V30 2265 N 239.452 1.56882 -0.150215 0
M  V30 2266 C 240.699 1.96228 0.500093 0
M  V30 2267 C 241.027 1.03522 1.64661 0
M  V30 2268 O 240.282 0.0650683 1.95592 0
M  V30 2269 C 240.581 3.41801 1.04437 0
M  V30 2270 C 240.247 4.50897 0.0159671 0
M  V30 2271 C 238.909 4.8046 -0.266731 0
M  V30 2272 C 241.261 5.16703 -0.683192 0
M  V30 2273 C 238.589 5.73135 -1.25434 0
M  V30 2274 C 240.941 6.10441 -1.65964 0
M  V30 2275 C 239.605 6.38382 -1.95 0
M  V30 2276 H 238.875 0.718048 0.182997 0
M  V30 2277 H 241.522 1.90019 -0.237724 0
M  V30 2278 H 239.827 3.44857 1.85959 0
M  V30 2279 H 241.524 3.69573 1.55618 0
M  V30 2280 H 238.114 4.27891 0.246485 0
M  V30 2281 H 242.298 4.93993 -0.477983 0
M  V30 2282 H 237.554 5.93074 -1.48571 0
M  V30 2283 H 241.728 6.60507 -2.20689 0
M  V30 2284 H 239.355 7.09996 -2.71679 0
M  V30 2285 N 240.93 -0.123565 1.57115 0
M  V30 2286 C 241.877 -1.15177 2.00007 0
M  V30 2287 C 242.847 -1.41403 0.871454 0
M  V30 2288 O 244.032 -1.53346 1.13533 0
M  V30 2289 C 241.172 -2.47436 2.40561 0
M  V30 2290 C 240.285 -2.28184 3.66819 0
M  V30 2291 C 239.42 -3.53641 3.96373 0
M  V30 2292 C 238.459 -3.29528 5.15827 0
M  V30 2293 N 237.596 -4.47175 5.41275 0
M  V30 2294 H 242.436 -0.779008 2.87638 0
M  V30 2295 H 239.973 -0.373166 1.42288 0
M  V30 2296 H 241.931 -3.24584 2.62109 0
M  V30 2297 H 240.561 -2.82614 1.55978 0
M  V30 2298 H 239.613 -1.41976 3.52912 0
M  V30 2299 H 240.925 -2.0634 4.5412 0
M  V30 2300 H 240.079 -4.39209 4.18545 0
M  V30 2301 H 238.818 -3.78512 3.07538 0
M  V30 2302 H 237.823 -2.42349 4.93505 0
M  V30 2303 H 239.048 -3.06031 6.06236 0
M  V30 2304 H 236.994 -4.72175 4.55397 0
M  V30 2305 H 236.911 -4.28419 6.22891 0
M  V30 2306 H 238.179 -5.3389 5.67963 0
M  V30 2307 N 242.408 -1.52605 -0.393616 0
M  V30 2308 C 243.824 -1.41753 -0.733357 0
M  V30 2309 C 244.024 -0.534293 -1.94287 0
M  V30 2310 O 243.08 -0.0059787 -2.52499 0
M  V30 2311 C 244.393 -2.84531 -0.972772 0
M  V30 2312 C 245.941 -2.93978 -1.07453 0
M  V30 2313 C 246.416 -4.37756 -1.3466 0
M  V30 2314 N 247.907 -4.4106 -1.41492 0
M  V30 2315 C 248.642 -5.49387 -1.642 0
M  V30 2316 N 248.138 -6.67806 -1.8441 0
M  V30 2317 N 249.931 -5.36923 -1.66342 0
M  V30 2318 H 242.082 -2.08555 0.402328 0
M  V30 2319 H 244.345 -0.940654 0.117789 0
M  V30 2320 H 244.051 -3.51353 -0.156204 0
M  V30 2321 H 243.925 -3.26508 -1.88871 0
M  V30 2322 H 246.312 -2.27326 -1.88167 0
M  V30 2323 H 246.393 -2.55435 -0.136605 0
M  V30 2324 H 246.037 -5.04972 -0.544581 0
M  V30 2325 H 245.967 -4.73848 -2.2973 0
M  V30 2326 H 248.458 -3.55705 -1.27601 0
M  V30 2327 H 248.771 -7.46141 -2.01231 0
M  V30 2328 H 247.116 -6.70843 -1.81644 0
M  V30 2329 H 250.307 -4.43381 -1.50102 0
M  V30 2330 H 250.48 -6.21416 -1.837 0
M  V30 2331 N 243.887 0.651787 -1.4349 0
M  V30 2332 C 245.115 1.43937 -1.48626 0
M  V30 2333 C 245.53 1.8851 -0.104587 0
M  V30 2334 O 244.887 1.5958 0.885464 0
M  V30 2335 C 244.938 2.6734 -2.43334 0
M  V30 2336 O 244.659 2.24631 -3.76128 0
M  V30 2337 C 246.16 3.60683 -2.57726 0
M  V30 2338 H 243.38 0.44213 -0.504739 0
M  V30 2339 H 245.924 0.798944 -1.88248 0
M  V30 2340 H 244.079 3.2752 -2.06904 0
M  V30 2341 H 244.493 3.04485 -4.2707 0
M  V30 2342 H 245.967 4.43933 -3.28067 0
M  V30 2343 H 246.444 4.08126 -1.62265 0
M  V30 2344 H 247.05 3.06384 -2.94973 0
M  V30 2345 N 245.365 1.30045 0.890287 0
M  V30 2346 C 246.614 1.17929 1.63633 0
M  V30 2347 C 246.927 -0.266204 1.9378 0
M  V30 2348 O 248.133 -0.508804 2.6669 0
M  V30 2349 C 246.589 2.06317 2.94892 0
M  V30 2350 C 246.197 3.55745 2.72305 0
M  V30 2351 C 247.941 2.0295 3.72843 0
M  V30 2352 C 245.848 4.36205 3.99348 0
M  V30 2353 H 244.778 0.437782 0.613892 0
M  V30 2354 H 247.429 1.54754 0.986075 0
M  V30 2355 H 245.811 1.6237 3.61182 0
M  V30 2356 H 246.985 4.07805 2.1455 0
M  V30 2357 H 245.3 3.6088 2.07737 0
M  V30 2358 H 247.897 2.60319 4.67053 0
M  V30 2359 H 248.24 1.0117 4.0382 0
M  V30 2360 H 248.773 2.4499 3.13408 0
M  V30 2361 H 245.512 5.38659 3.73533 0
M  V30 2362 H 245.032 3.8891 4.56628 0
M  V30 2363 H 246.711 4.47362 4.67415 0
M  V30 2364 N 246.843 -1.10192 1.12674 0
M  V30 2365 C 248.259 -1.34235 0.863317 0
M  V30 2366 C 248.459 -1.95062 -0.505277 0
M  V30 2367 O 247.515 -2.19192 -1.25345 0
M  V30 2368 C 248.828 -2.2616 1.98172 0
M  V30 2369 C 250.376 -2.3969 2.0129 0
M  V30 2370 C 250.851 -3.34946 3.1237 0
M  V30 2371 N 252.342 -3.42515 3.11829 0
M  V30 2372 C 253.077 -4.16199 3.94419 0
M  V30 2373 N 252.573 -4.92747 4.87004 0
M  V30 2374 N 254.366 -4.11843 3.82547 0
M  V30 2375 H 246.517 -0.690798 2.00853 0
M  V30 2376 H 248.78 -0.366774 0.874174 0
M  V30 2377 H 248.486 -1.8868 2.96804 0
M  V30 2378 H 248.36 -3.26488 1.88906 0
M  V30 2379 H 250.747 -2.76438 1.03276 0
M  V30 2380 H 250.828 -1.39169 2.14629 0
M  V30 2381 H 250.472 -2.98923 4.10619 0
M  V30 2382 H 250.402 -4.35353 2.96269 0
M  V30 2383 H 252.893 -2.87926 2.44759 0
M  V30 2384 H 253.206 -5.46376 5.46528 0
M  V30 2385 H 251.551 -4.91862 4.91016 0
M  V30 2386 H 254.742 -3.51136 3.0955 0
M  V30 2387 H 254.915 -4.69007 4.47142 0
M  V30 2388 N 248.321 -0.919034 -1.28029 0
M  V30 2389 C 249.268 -0.410005 -2.27129 0
M  V30 2390 C 250.238 0.518405 -1.57803 0
M  V30 2391 O 251.423 0.439451 -1.8567 0
M  V30 2392 C 248.563 0.339054 -3.4343 0
M  V30 2393 C 247.676 -0.622468 -4.27492 0
M  V30 2394 C 246.811 0.145567 -5.31001 0
M  V30 2395 C 245.85 -0.809226 -6.06727 0
M  V30 2396 N 244.987 -0.0743728 -7.02061 0
M  V30 2397 H 249.827 -1.26011 -2.70047 0
M  V30 2398 H 247.364 -0.632663 -1.328 0
M  V30 2399 H 249.322 0.789586 -4.0966 0
M  V30 2400 H 247.952 1.15346 -3.01488 0
M  V30 2401 H 247.004 -1.19153 -3.61257 0
M  V30 2402 H 248.316 -1.35252 -4.80113 0
M  V30 2403 H 247.47 0.656417 -6.03139 0
M  V30 2404 H 246.209 0.908643 -4.79161 0
M  V30 2405 H 245.214 -1.3314 -5.33436 0
M  V30 2406 H 246.439 -1.57194 -6.60656 0
M  V30 2407 H 244.385 0.670616 -6.52563 0
M  V30 2408 H 244.302 -0.744157 -7.52329 0
M  V30 2409 H 245.57 0.416109 -7.78389 0
M  V30 2410 N 249.799 1.42003 -0.683588 0
M  V30 2411 C 251.076 1.95112 -0.138075 0
M  V30 2412 C 251.456 1.62359 1.34918 0
M  V30 2413 O 250.804 0.924311 2.08971 0
M  V30 2414 C 251.014 3.46505 -0.416581 0
M  V30 2415 C 252.362 4.23254 -0.337834 0
M  V30 2416 O 253.386 3.54468 -0.35082 0
M  V30 2417 O 252.245 5.45743 -0.287596 0
M  V30 2418 H 249.339 0.826961 -0.00797996 0
M  V30 2419 H 251.885 1.51784 -0.758924 0
M  V30 2420 H 250.657 3.63582 -1.4465 0
M  V30 2421 H 250.28 3.969 0.235839 0
M  V30 2422 N 251.277 0.427512 1.51691 0
M  V30 2423 C 252.207 -0.3796 2.30394 0
M  V30 2424 C 253.188 -1.02982 1.35384 0
M  V30 2425 O 254.373 -1.03534 1.643 0
M  V30 2426 C 251.503 -1.48649 3.1388 0
M  V30 2427 C 250.457 -0.960294 4.17088 0
M  V30 2428 C 249.783 -2.16219 4.89033 0
M  V30 2429 C 251.083 -0.00153679 5.223 0
M  V30 2430 H 252.777 0.277164 2.98114 0
M  V30 2431 H 250.323 0.134739 1.43368 0
M  V30 2432 H 252.276 -2.05826 3.67714 0
M  V30 2433 H 251 -2.1714 2.43962 0
M  V30 2434 H 249.659 -0.410806 3.64291 0
M  V30 2435 H 249.307 -2.83307 4.15628 0
M  V30 2436 H 249.007 -1.81654 5.58816 0
M  V30 2437 H 250.531 -2.73968 5.45687 0
M  V30 2438 H 251.945 -0.482687 5.71264 0
M  V30 2439 H 250.342 0.256199 5.99553 0
M  V30 2440 H 251.412 0.938174 4.75738 0
M  V30 2441 N 252.755 -1.56801 0.158532 0
M  V30 2442 C 254.004 -1.95665 -0.489702 0
M  V30 2443 C 254.317 -1.04654 -1.65248 0
M  V30 2444 O 255.523 -1.33146 -2.3661 0
M  V30 2445 C 253.979 -3.47874 -0.922582 0
M  V30 2446 C 253.587 -4.47489 0.213893 0
M  V30 2447 C 255.331 -3.95583 -1.53996 0
M  V30 2448 C 253.238 -5.90921 -0.237903 0
M  V30 2449 H 252.168 -0.730516 -0.186716 0
M  V30 2450 H 254.819 -1.81861 0.244722 0
M  V30 2451 H 253.201 -3.57051 -1.71261 0
M  V30 2452 H 254.375 -4.50017 0.991036 0
M  V30 2453 H 252.69 -4.09764 0.740407 0
M  V30 2454 H 255.287 -5.0019 -1.8898 0
M  V30 2455 H 255.63 -3.37789 -2.43319 0
M  V30 2456 H 256.163 -3.8937 -0.814611 0
M  V30 2457 H 252.902 -6.52559 0.620236 0
M  V30 2458 H 252.422 -5.91729 -0.980676 0
M  V30 2459 H 254.101 -6.43352 -0.686067 0
M  V30 2460 N 254.233 0.115231 -1.57178 0
M  V30 2461 C 255.463 0.835224 -1.88964 0
M  V30 2462 C 255.871 1.73774 -0.74829 0
M  V30 2463 O 255.214 1.81401 0.289739 0
M  V30 2464 C 255.276 1.7178 -3.15804 0
M  V30 2465 C 254.94 0.989198 -4.46166 0
M  V30 2466 C 255.937 0.328263 -5.18863 0
M  V30 2467 C 253.622 0.969256 -4.9286 0
M  V30 2468 C 255.616 -0.342873 -6.36477 0
M  V30 2469 C 253.303 0.294324 -6.10391 0
M  V30 2470 C 254.301 -0.360582 -6.82048 0
M  V30 2471 O 253.989 -1.02474 -7.97342 0
M  V30 2472 H 253.721 0.245197 -0.629964 0
M  V30 2473 H 256.275 0.10303 -2.05141 0
M  V30 2474 H 254.505 2.49173 -2.95719 0
M  V30 2475 H 256.194 2.31255 -3.33581 0
M  V30 2476 H 256.96 0.335263 -4.8384 0
M  V30 2477 H 252.839 1.46844 -4.36987 0
M  V30 2478 H 256.383 -0.854629 -6.92345 0
M  V30 2479 H 252.28 0.285099 -6.4487 0
M  V30 2480 H 253.048 -0.929594 -8.13204 0
M  V30 2481 N 255.711 1.52812 0.385517 0
M  V30 2482 C 256.939 1.71907 1.15133 0
M  V30 2483 C 257.354 0.439004 1.83625 0
M  V30 2484 O 256.711 -0.586765 1.7281 0
M  V30 2485 C 256.762 2.87099 2.19673 0
M  V30 2486 O 256.483 4.10151 1.53973 0
M  V30 2487 C 257.984 3.17902 3.08955 0
M  V30 2488 H 255.204 0.575479 0.345057 0
M  V30 2489 H 257.748 1.99476 0.45052 0
M  V30 2490 H 255.903 2.61982 2.85384 0
M  V30 2491 H 256.317 4.74514 2.23465 0
M  V30 2492 H 257.791 4.01959 3.7833 0
M  V30 2493 H 258.268 2.3243 3.72657 0
M  V30 2494 H 258.874 3.44871 2.48885 0
M  V30 2495 N 257.189 -0.644168 1.43834 0
M  V30 2496 C 258.429 -1.41565 1.47441 0
M  V30 2497 C 258.793 -1.91743 0.0992723 0
M  V30 2498 O 259.994 -2.68798 0.0100192 0
M  V30 2499 C 258.265 -2.55902 2.49498 0
M  V30 2500 S 259.824 -3.44287 2.72051 0
M  V30 2501 H 256.642 -0.483118 0.521649 0
M  V30 2502 H 259.244 -0.747008 1.80666 0
M  V30 2503 H 257.948 -2.17327 3.48134 0
M  V30 2504 H 257.479 -3.27607 2.17801 0
M  V30 2505 H 259.494 -4.52927 2.0266 0
M  V30 2506 N 258.668 -1.30515 -0.883378 0
M  V30 2507 C 260.084 -1.08881 -1.16692 0
M  V30 2508 C 260.284 0.149409 -2.00945 0
M  V30 2509 O 259.34 0.84257 -2.38027 0
M  V30 2510 C 260.653 -2.35319 -1.87204 0
M  V30 2511 C 262.201 -2.40799 -1.99962 0
M  V30 2512 C 262.676 -3.67083 -2.73887 0
M  V30 2513 N 264.167 -3.679 -2.81432 0
M  V30 2514 C 264.902 -4.62303 -3.3921 0
M  V30 2515 N 264.398 -5.67052 -3.98025 0
M  V30 2516 N 266.191 -4.49845 -3.3704 0
M  V30 2517 H 258.342 -2.09951 -0.321633 0
M  V30 2518 H 260.605 -0.92556 -0.205043 0
M  V30 2519 H 260.311 -3.25689 -1.3274 0
M  V30 2520 H 260.185 -2.44089 -2.87577 0
M  V30 2521 H 262.572 -1.50907 -2.53597 0
M  V30 2522 H 262.653 -2.36003 -0.98673 0
M  V30 2523 H 262.297 -4.57334 -2.20925 0
M  V30 2524 H 262.227 -3.69141 -3.75556 0
M  V30 2525 H 264.718 -2.92171 -2.39676 0
M  V30 2526 H 265.031 -6.35184 -4.40183 0
M  V30 2527 H 263.376 -5.70842 -3.96439 0
M  V30 2528 H 266.567 -3.67194 -2.90321 0
M  V30 2529 H 266.74 -5.23597 -3.81772 0
M  V30 2530 N 260.146 1.09593 -1.13257 0
M  V30 2531 C 261.423 1.78293 -0.804432 0
M  V30 2532 C 261.803 1.99004 0.70431 0
M  V30 2533 O 261.151 1.59007 1.641 0
M  V30 2534 C 261.361 3.10707 -1.5894 0
M  V30 2535 C 262.709 3.85443 -1.78099 0
M  V30 2536 O 263.733 3.20454 -1.55525 0
M  V30 2537 O 262.592 5.02108 -2.15753 0
M  V30 2538 H 259.686 0.773156 -0.293528 0
M  V30 2539 H 262.232 1.16164 -1.23709 0
M  V30 2540 H 261.004 2.91106 -2.61482 0
M  V30 2541 H 260.627 3.80558 -1.15157 0
M  V30 2542 N 261.624 0.925811 1.2754 0
M  V30 2543 C 262.572 0.413897 2.28888 0
M  V30 2544 C 263.566 -0.500779 1.61829 0
M  V30 2545 O 264.772 -0.38069 1.75928 0
M  V30 2546 H 261.147 0.115274 0.743112 0
M  V30 2547 H 263.118 1.28151 2.69481 0
M  V30 2548 C 261.867 -0.319792 3.46226 0
M  V30 2549 H 261.19 0.374846 3.98039 0
M  V30 2550 H 262.63 -0.642435 4.19105 0
M  V30 2551 C 261.089 -1.53209 3.00048 0
M  V30 2552 O 261.619 -2.6309 3.03557 0
M  V30 2553 N 259.825 -1.38326 2.55566 0
M  V30 2554 H 259.372 -0.489292 2.5291 0
M  V30 2555 H 259.33 -2.19564 2.25031 0
M  V30 2556 N 263.102 -1.41638 0.69111 0
M  V30 2557 C 264.049 -2.30789 0.0229705 0
M  V30 2558 C 265.019 -1.46863 -0.775911 0
M  V30 2559 O 266.204 -1.75661 -0.74485 0
M  V30 2560 C 263.344 -3.32868 -0.910666 0
M  V30 2561 C 262.457 -4.31875 -0.103874 0
M  V30 2562 C 261.592 -5.21024 -1.03475 0
M  V30 2563 C 260.631 -6.11702 -0.220598 0
M  V30 2564 N 259.768 -6.93349 -1.10504 0
M  V30 2565 H 264.608 -2.87366 0.788978 0
M  V30 2566 H 262.145 -1.41535 0.400794 0
M  V30 2567 H 264.103 -3.90596 -1.46597 0
M  V30 2568 H 262.733 -2.77851 -1.64312 0
M  V30 2569 H 261.785 -3.76131 0.568285 0
M  V30 2570 H 263.097 -4.96003 0.527504 0
M  V30 2571 H 262.251 -5.83565 -1.65943 0
M  V30 2572 H 260.99 -4.57112 -1.69999 0
M  V30 2573 H 259.995 -5.48215 0.417187 0
M  V30 2574 H 261.22 -6.77668 0.440784 0
M  V30 2575 H 259.166 -6.3205 -1.75638 0
M  V30 2576 H 259.083 -7.54146 -0.529125 0
M  V30 2577 H 260.351 -7.60362 -1.71667 0
M  V30 2578 N 264.58 -0.43555 -1.51462 0
M  V30 2579 C 265.857 0.191364 -1.94662 0
M  V30 2580 C 266.237 1.60254 -1.37411 0
M  V30 2581 O 265.585 2.2152 -0.560458 0
M  V30 2582 C 265.795 0.17091 -3.48581 0
M  V30 2583 C 267.143 0.377357 -4.2292 0
M  V30 2584 O 268.167 0.249104 -3.55328 0
M  V30 2585 O 267.026 0.63247 -5.42828 0
M  V30 2586 H 264.12 0.130932 -0.816569 0
M  V30 2587 H 266.666 -0.4934 -1.62369 0
M  V30 2588 H 265.438 -0.815738 -3.82703 0
M  V30 2589 H 265.061 0.898659 -3.87311 0
M  V30 2590 N 266.058 1.56714 -0.166846 0
M  V30 2591 C 267.298 1.98641 0.481763 0
M  V30 2592 C 267.662 1.05038 1.6072 0
M  V30 2593 O 268.863 1.36087 2.31805 0
M  V30 2594 C 267.134 3.44362 0.956517 0
M  V30 2595 S 268.693 4.08317 1.60694 0
M  V30 2596 H 265.511 0.693873 0.155116 0
M  V30 2597 H 268.113 1.93719 -0.263251 0
M  V30 2598 H 266.817 4.10204 0.126936 0
M  V30 2599 H 266.348 3.53041 1.73568 0
M  V30 2600 H 268.363 4.02999 2.89494 0
M  V30 2601 N 267.536 -0.106894 1.57237 0
M  V30 2602 C 268.466 -1.13148 2.04254 0
M  V30 2603 C 269.447 -1.42476 0.929224 0
M  V30 2604 O 270.632 -1.52709 1.19973 0
M  V30 2605 C 267.762 -2.4545 2.45706 0
M  V30 2606 C 266.716 -2.30558 3.60592 0
M  V30 2607 C 266.042 -3.67931 3.87983 0
M  V30 2608 C 267.342 -1.75597 4.91897 0
M  V30 2609 H 269.036 -0.740374 2.90101 0
M  V30 2610 H 266.582 -0.354696 1.39563 0
M  V30 2611 H 268.535 -3.17389 2.77205 0
M  V30 2612 H 267.259 -2.86475 1.56843 0
M  V30 2613 H 265.918 -1.61067 3.29322 0
M  V30 2614 H 265.566 -4.06462 2.96306 0
M  V30 2615 H 265.266 -3.58817 4.65322 0
M  V30 2616 H 266.79 -4.41356 4.21945 0
M  V30 2617 H 268.204 -2.37364 5.21854 0
M  V30 2618 H 266.601 -1.77272 5.73319 0
M  V30 2619 H 267.671 -0.714451 4.79608 0
M  V30 2620 N 269.014 -1.53014 -0.377408 0
M  V30 2621 C 270.263 -1.67845 -1.11853 0
M  V30 2622 C 270.576 -0.430625 -1.90801 0
M  V30 2623 O 271.782 -0.459261 -2.67587 0
M  V30 2624 C 270.238 -2.96668 -2.03756 0
M  V30 2625 C 269.846 -4.28671 -1.30175 0
M  V30 2626 C 271.59 -3.20865 -2.77932 0
M  V30 2627 C 269.497 -5.48591 -2.20911 0
M  V30 2628 H 268.427 -0.625343 -0.421263 0
M  V30 2629 H 271.078 -1.79514 -0.380409 0
M  V30 2630 H 269.46 -2.78773 -2.8125 0
M  V30 2631 H 270.634 -4.57157 -0.578259 0
M  V30 2632 H 268.949 -4.10825 -0.679108 0
M  V30 2633 H 271.546 -4.07642 -3.46024 0
M  V30 2634 H 271.889 -2.36424 -3.4265 0
M  V30 2635 H 272.422 -3.39379 -2.07525 0
M  V30 2636 H 269.161 -6.35474 -1.6079 0
M  V30 2637 H 268.681 -5.244 -2.91144 0
M  V30 2638 H 270.36 -5.8292 -2.80736 0
M  V30 2639 N 270.492 0.636531 -1.44174 0
M  V30 2640 C 271.769 1.39463 -1.37148 0
M  V30 2641 C 272.149 2.11082 -0.027507 0
M  V30 2642 O 271.497 2.05954 0.989716 0
M  V30 2643 C 271.707 2.36552 -2.56601 0
M  V30 2644 C 273.055 3.00048 -3.00427 0
M  V30 2645 O 274.079 2.46878 -2.56767 0
M  V30 2646 O 272.938 3.96488 -3.76111 0
M  V30 2647 H 270.032 0.623903 -0.542839 0
M  V30 2648 H 272.578 0.662039 -1.56253 0
M  V30 2649 H 271.35 1.82692 -3.46034 0
M  V30 2650 H 270.973 3.17236 -2.39681 0
M  V30 2651 N 271.97 1.30982 0.876444 0
M  V30 2652 C 272.917 1.18085 1.98304 0
M  V30 2653 C 273.887 0.0682263 1.6596 0
M  V30 2654 O 275.072 0.239937 1.89285 0
M  V30 2655 C 272.212 0.887475 3.33493 0
M  V30 2656 C 271.325 2.08281 3.78475 0
M  V30 2657 C 270.46 1.72678 5.0235 0
M  V30 2658 C 269.499 2.88657 5.39762 0
M  V30 2659 N 268.636 2.53292 6.54819 0
M  V30 2660 H 273.476 2.1275 2.08666 0
M  V30 2661 H 271.013 1.05839 1.02159 0
M  V30 2662 H 272.971 0.697961 4.1132 0
M  V30 2663 H 271.601 -0.022315 3.22792 0
M  V30 2664 H 270.653 2.3833 2.96484 0
M  V30 2665 H 271.965 2.95108 4.02135 0
M  V30 2666 H 271.119 1.50151 5.87826 0
M  V30 2667 H 269.858 0.830327 4.8058 0
M  V30 2668 H 268.863 3.1184 4.52809 0
M  V30 2669 H 270.088 3.79002 5.63502 0
M  V30 2670 H 268.034 1.66163 6.34607 0
M  V30 2671 H 267.951 3.3365 6.7839 0
M  V30 2672 H 269.219 2.34143 7.43503 0
M  V30 2673 N 273.449 -1.08991 1.13837 0
M  V30 2674 C 274.865 -1.33312 0.877506 0
M  V30 2675 C 275.065 -1.95587 -0.48456 0
M  V30 2676 O 274.121 -2.20509 -1.23013 0
M  V30 2677 C 275.434 -2.24045 2.0056 0
M  V30 2678 C 276.982 -2.37542 2.03821 0
M  V30 2679 C 277.457 -3.31614 3.15905 0
M  V30 2680 N 278.948 -3.39189 3.15445 0
M  V30 2681 C 279.683 -4.11992 3.98811 0
M  V30 2682 N 279.179 -4.87553 4.92203 0
M  V30 2683 N 280.972 -4.07762 3.86894 0
M  V30 2684 H 273.123 -0.669456 2.01574 0
M  V30 2685 H 275.386 -0.357482 0.878015 0
M  V30 2686 H 275.092 -1.85521 2.98789 0
M  V30 2687 H 274.966 -3.24466 1.92359 0
M  V30 2688 H 277.353 -2.75327 1.06202 0
M  V30 2689 H 277.434 -1.36884 2.16093 0
M  V30 2690 H 277.078 -2.94551 4.13766 0
M  V30 2691 H 277.008 -4.32186 3.0087 0
M  V30 2692 H 279.499 -2.85314 2.47799 0
M  V30 2693 H 279.812 -5.40549 5.52292 0
M  V30 2694 H 278.157 -4.86627 4.96205 0
M  V30 2695 H 281.348 -3.47833 3.13257 0
M  V30 2696 H 281.521 -4.64238 4.52092 0
M  V30 2697 N 274.927 -0.932562 -1.27047 0
M  V30 2698 C 275.859 -0.392734 -2.2581 0
M  V30 2699 C 276.872 0.479241 -1.55586 0
M  V30 2700 O 278.061 0.291078 -1.76111 0
M  V30 2701 C 275.161 0.455456 -3.35826 0
M  V30 2702 C 274.334 -0.398355 -4.35582 0
M  V30 2703 C 273.393 0.387985 -5.24768 0
M  V30 2704 O 272.419 -0.206003 -5.68827 0
M  V30 2705 N 273.621 1.68664 -5.55457 0
M  V30 2706 H 276.386 -1.24173 -2.72766 0
M  V30 2707 H 273.947 -0.800511 -1.40725 0
M  V30 2708 H 275.939 0.988692 -3.92437 0
M  V30 2709 H 274.509 1.20522 -2.88432 0
M  V30 2710 H 273.729 -1.11286 -3.78165 0
M  V30 2711 H 275.017 -0.981889 -4.99236 0
M  V30 2712 H 274.415 2.19147 -5.21528 0
M  V30 2713 H 272.972 2.1663 -6.14748 0
M  V30 2714 N 276.405 1.4127 -0.698611 0
M  V30 2715 C 277.821 1.55241 -0.370462 0
M  V30 2716 C 278.021 1.67351 1.12231 0
M  V30 2717 O 277.077 1.65363 1.90818 0
M  V30 2718 C 278.39 2.78997 -1.12165 0
M  V30 2719 C 279.938 2.92797 -1.1063 0
M  V30 2720 C 280.413 4.19445 -1.8393 0
M  V30 2721 N 281.904 4.26409 -1.80914 0
M  V30 2722 C 282.639 5.23271 -2.34467 0
M  V30 2723 N 282.135 6.26145 -2.96504 0
M  V30 2724 N 283.928 5.15232 -2.24706 0
M  V30 2725 H 276.079 1.31654 -1.66676 0
M  V30 2726 H 278.342 0.635393 -0.703548 0
M  V30 2727 H 278.048 2.76268 -2.17644 0
M  V30 2728 H 277.922 3.70606 -0.702209 0
M  V30 2729 H 280.309 2.95039 -0.0597713 0
M  V30 2730 H 280.39 2.02353 -1.56483 0
M  V30 2731 H 280.034 4.17964 -2.88563 0
M  V30 2732 H 279.964 5.08866 -1.35509 0
M  V30 2733 H 282.455 3.527 -1.35687 0
M  V30 2734 H 282.768 6.96451 -3.34927 0
M  V30 2735 H 281.113 6.26638 -3.00583 0
M  V30 2736 H 284.304 4.33789 -1.7591 0
M  V30 2737 H 284.477 5.90552 -2.66745 0
M  V30 2738 N 277.883 0.443576 1.51229 0
M  V30 2739 C 278.831 -0.37904 2.29491 0
M  V30 2740 C 279.825 -1.0153 1.35603 0
M  V30 2741 O 281.031 -0.94955 1.52917 0
M  V30 2742 H 277.406 -0.141053 0.738653 0
M  V30 2743 H 279.377 0.301799 2.9687 0
M  V30 2744 C 278.126 -1.46426 3.15364 0
M  V30 2745 H 277.449 -0.984037 3.87501 0
M  V30 2746 H 278.889 -2.01297 3.7317 0
M  V30 2747 C 277.348 -2.45099 2.31146 0
M  V30 2748 O 277.878 -3.49773 1.9754 0
M  V30 2749 N 276.084 -2.16139 1.94249 0
M  V30 2750 H 275.631 -1.31044 2.21777 0
M  V30 2751 H 275.589 -2.82398 1.38198 0
M  V30 2752 N 279.361 -1.56624 0.175154 0
M  V30 2753 C 280.777 -1.58571 -0.180966 0
M  V30 2754 C 280.977 -1.19065 -1.6256 0
M  V30 2755 O 280.033 -0.904044 -2.35761 0
M  V30 2756 C 281.346 -3.00522 0.103326 0
M  V30 2757 C 282.894 -3.12972 0.0418426 0
M  V30 2758 C 283.369 -4.57022 0.299175 0
M  V30 2759 N 284.86 -4.62541 0.247086 0
M  V30 2760 C 285.595 -5.71857 0.420318 0
M  V30 2761 N 285.091 -6.89717 0.652816 0
M  V30 2762 N 286.884 -5.60972 0.355957 0
M  V30 2763 H 279.035 -1.80589 1.11809 0
M  V30 2764 H 281.298 -0.837178 0.444788 0
M  V30 2765 H 281.004 -3.33916 1.10422 0
M  V30 2766 H 280.878 -3.72344 -0.603299 0
M  V30 2767 H 283.265 -2.79403 -0.949636 0
M  V30 2768 H 283.346 -2.43578 0.781238 0
M  V30 2769 H 282.99 -4.913 1.28788 0
M  V30 2770 H 282.92 -5.24579 -0.460876 0
M  V30 2771 H 285.411 -3.77829 0.0731895 0
M  V30 2772 H 285.724 -7.68911 0.774347 0
M  V30 2773 H 284.069 -6.91572 0.689476 0
M  V30 2774 H 287.26 -4.67773 0.174882 0
M  V30 2775 H 287.433 -6.46111 0.494388 0
M  V30 2776 N 280.839 0.0985539 -1.57292 0
M  V30 2777 C 282.079 0.808332 -1.87737 0
M  V30 2778 C 282.443 1.7607 -0.76572 0
M  V30 2779 O 283.644 2.51358 -0.952499 0
M  V30 2780 C 281.915 1.52093 -3.23423 0
M  V30 2781 S 283.474 2.26947 -3.75554 0
M  V30 2782 H 280.292 0.269377 -0.657995 0
M  V30 2783 H 282.894 0.0656269 -1.9539 0
M  V30 2784 H 281.598 0.81363 -4.02254 0
M  V30 2785 H 281.129 2.30361 -3.189 0
M  V30 2786 H 283.144 3.53027 -3.48692 0
M  V30 2787 N 282.317 1.53212 0.369288 0
M  V30 2788 C 283.249 1.75668 1.47219 0
M  V30 2789 C 284.262 0.637387 1.49804 0
M  V30 2790 O 285.451 0.913561 1.5335 0
M  V30 2791 C 282.551 1.81818 2.85999 0
M  V30 2792 C 281.724 3.11409 3.07153 0
M  V30 2793 C 280.783 3.08849 4.26026 0
M  V30 2794 O 279.809 3.82659 4.2138 0
M  V30 2795 N 281.011 2.29409 5.33246 0
M  V30 2796 H 283.776 2.70832 1.28337 0
M  V30 2797 H 281.337 1.51944 0.55898 0
M  V30 2798 H 283.329 1.77588 3.63655 0
M  V30 2799 H 281.899 0.939544 2.98146 0
M  V30 2800 H 281.119 3.28971 2.1719 0
M  V30 2801 H 282.407 3.97059 3.18154 0
M  V30 2802 H 281.805 1.68946 5.39883 0
M  V30 2803 H 280.362 2.31001 6.09493 0
M  V30 2804 N 283.795 -0.628877 1.44509 0
M  V30 2805 C 285.025 -1.41349 1.50678 0
M  V30 2806 C 285.433 -1.88745 0.131075 0
M  V30 2807 O 284.776 -1.61592 -0.87371 0
M  V30 2808 C 284.838 -2.66608 2.41165 0
M  V30 2809 C 284.502 -2.40993 3.88293 0
M  V30 2810 C 285.499 -2.0268 4.78766 0
M  V30 2811 C 283.184 -2.54563 4.33016 0
M  V30 2812 C 285.178 -1.78269 6.11963 0
M  V30 2813 C 282.865 -2.29766 5.6626 0
M  V30 2814 C 283.863 -1.91678 6.55552 0
M  V30 2815 O 283.551 -1.67158 7.86329 0
M  V30 2816 H 283.283 -0.439851 0.51333 0
M  V30 2817 H 285.837 -0.776084 1.90174 0
M  V30 2818 H 284.067 -3.32994 1.96601 0
M  V30 2819 H 285.756 -3.28615 2.38259 0
M  V30 2820 H 286.522 -1.91751 4.45485 0
M  V30 2821 H 282.401 -2.83179 3.63773 0
M  V30 2822 H 285.945 -1.48465 6.81619 0
M  V30 2823 H 281.842 -2.40306 5.99102 0
M  V30 2824 H 282.61 -1.81386 7.98149 0
M  V30 2825 N 285.273 -1.31445 -0.869486 0
M  V30 2826 C 286.513 -1.22458 -1.63656 0
M  V30 2827 C 286.877 0.213846 -1.90805 0
M  V30 2828 O 288.078 0.427212 -2.65383 0
M  V30 2829 C 286.349 -2.04564 -2.93067 0
M  V30 2830 S 287.908 -2.12445 -3.83944 0
M  V30 2831 H 284.726 -0.436145 -0.561514 0
M  V30 2832 H 287.328 -1.66114 -1.03085 0
M  V30 2833 H 286.032 -3.0816 -2.71045 0
M  V30 2834 H 285.563 -1.6163 -3.58663 0
M  V30 2835 H 287.578 -1.26312 -4.79854 0
M  V30 2836 N 286.751 1.08385 -1.14413 0
M  V30 2837 C 288.167 1.32844 -0.884563 0
M  V30 2838 C 288.367 1.95841 0.474181 0
M  V30 2839 O 287.423 2.21158 1.21842 0
M  V30 2840 C 288.736 2.22978 -2.01745 0
M  V30 2841 C 290.284 2.36458 -2.05077 0
M  V30 2842 C 290.759 3.29934 -3.1766 0
M  V30 2843 N 292.25 3.37511 -3.17239 0
M  V30 2844 C 292.985 4.09871 -4.0099 0
M  V30 2845 N 292.481 4.84936 -4.94781 0
M  V30 2846 N 294.274 4.05704 -3.89051 0
M  V30 2847 H 286.425 0.658756 -2.01926 0
M  V30 2848 H 288.688 0.352821 -0.879899 0
M  V30 2849 H 288.394 1.83934 -2.99769 0
M  V30 2850 H 288.268 3.23441 -1.94077 0
M  V30 2851 H 290.655 2.7476 -1.0766 0
M  V30 2852 H 290.736 1.35736 -2.16816 0
M  V30 2853 H 290.38 2.92352 -4.15322 0
M  V30 2854 H 290.31 4.30584 -3.03158 0
M  V30 2855 H 292.801 2.83996 -2.49308 0
M  V30 2856 H 293.114 5.37612 -5.55151 0
M  V30 2857 H 291.459 4.83988 -4.98779 0
M  V30 2858 H 294.65 3.46167 -3.15097 0
M  V30 2859 H 294.823 4.61834 -4.54547 0
M  V30 2860 N 288.23 0.939286 1.26551 0
M  V30 2861 C 289.46 0.601663 1.97645 0
M  V30 2862 C 289.868 -0.827206 1.70159 0
M  V30 2863 O 289.211 -1.56291 0.965338 0
M  V30 2864 C 289.273 0.761725 3.51337 0
M  V30 2865 C 288.937 2.16487 4.0247 0
M  V30 2866 C 289.934 3.14016 4.14355 0
M  V30 2867 C 287.619 2.48494 4.36527 0
M  V30 2868 C 289.613 4.41654 4.59587 0
M  V30 2869 C 287.3 3.76364 4.81449 0
M  V30 2870 C 288.298 4.72758 4.92939 0
M  V30 2871 O 287.986 5.98352 5.36871 0
M  V30 2872 H 287.718 0.225758 0.637189 0
M  V30 2873 H 290.272 1.26178 1.62075 0
M  V30 2874 H 288.502 0.0444808 3.86674 0
M  V30 2875 H 290.191 0.427442 4.03643 0
M  V30 2876 H 290.957 2.90613 3.8829 0
M  V30 2877 H 286.836 1.74202 4.26819 0
M  V30 2878 H 290.38 5.16896 4.68471 0
M  V30 2879 H 286.277 3.99582 5.06956 0
M  V30 2880 H 287.045 6.01507 5.55096 0
M  V30 2881 N 289.708 -1.40897 0.706093 0
M  V30 2882 C 290.64 -2.29199 0.00815776 0
M  V30 2883 C 291.653 -1.45336 -0.733582 0
M  V30 2884 O 292.842 -1.68727 -0.582537 0
M  V30 2885 C 289.942 -3.23417 -1.01265 0
M  V30 2886 C 289.115 -4.36089 -0.338387 0
M  V30 2887 C 288.174 -5.10811 -1.26326 0
M  V30 2888 O 287.2 -5.64215 -0.751651 0
M  V30 2889 N 288.402 -5.19269 -2.595 0
M  V30 2890 H 291.167 -2.89738 0.766297 0
M  V30 2891 H 288.728 -1.52164 0.55296 0
M  V30 2892 H 290.72 -3.70276 -1.63334 0
M  V30 2893 H 289.29 -2.64112 -1.67223 0
M  V30 2894 H 288.51 -3.91479 0.462352 0
M  V30 2895 H 289.798 -5.08634 0.130031 0
M  V30 2896 H 289.196 -4.77347 -3.03573 0
M  V30 2897 H 287.753 -5.69667 -3.16737 0
M  V30 2898 N 291.186 -0.45159 -1.50991 0
M  V30 2899 C 292.133 0.352625 -2.2809 0
M  V30 2900 C 293.103 1.0044 -1.32291 0
M  V30 2901 O 294.288 1.02058 -1.6121 0
M  V30 2902 C 291.428 1.43983 -3.13629 0
M  V30 2903 C 290.541 0.804772 -4.24438 0
M  V30 2904 C 289.676 1.86822 -4.97263 0
M  V30 2905 C 288.715 1.21236 -5.99973 0
M  V30 2906 N 287.852 2.2178 -6.66152 0
M  V30 2907 H 292.692 -0.311186 -2.96371 0
M  V30 2908 H 290.229 -0.165308 -1.46168 0
M  V30 2909 H 292.187 2.08161 -3.61559 0
M  V30 2910 H 290.817 2.07307 -2.47434 0
M  V30 2911 H 289.869 0.0509129 -3.80366 0
M  V30 2912 H 291.181 0.286076 -4.97979 0
M  V30 2913 H 290.335 2.58628 -5.48813 0
M  V30 2914 H 289.074 2.42068 -4.23385 0
M  V30 2915 H 288.079 0.479828 -5.47702 0
M  V30 2916 H 289.304 0.667051 -6.75816 0
M  V30 2917 H 287.25 2.76079 -5.95077 0
M  V30 2918 H 287.167 1.74841 -7.35504 0
M  V30 2919 H 288.435 2.93026 -7.22327 0
M  V30 2920 N 292.664 1.56529 -0.183458 0
M  V30 2921 C 293.904 1.99141 0.460667 0
M  V30 2922 C 294.268 1.06736 1.59597 0
M  V30 2923 O 295.469 1.38538 2.30349 0
M  V30 2924 C 293.74 3.45358 0.919939 0
M  V30 2925 S 295.299 4.09999 1.56354 0
M  V30 2926 H 292.117 0.695479 0.147748 0
M  V30 2927 H 294.719 1.93429 -0.283782 0
M  V30 2928 H 293.423 4.10315 0.0834208 0
M  V30 2929 H 292.954 3.54862 1.69814 0
M  V30 2930 H 294.969 4.06046 2.85203 0
M  V30 2931 N 294.142 -0.090211 1.57342 0
M  V30 2932 C 295.072 -1.10976 2.05443 0
M  V30 2933 C 296.053 -1.41482 0.944284 0
M  V30 2934 O 297.238 -1.51428 1.21586 0
M  V30 2935 C 294.368 -2.42831 2.48295 0
M  V30 2936 C 293.322 -2.26721 3.63018 0
M  V30 2937 C 292.648 -3.63796 3.91863 0
M  V30 2938 C 293.948 -1.7037 4.93732 0
M  V30 2939 H 295.642 -0.709564 2.9087 0
M  V30 2940 H 293.188 -0.339874 1.39932 0
M  V30 2941 H 295.141 -3.14431 2.80555 0
M  V30 2942 H 293.865 -2.84795 1.59873 0
M  V30 2943 H 292.524 -1.57565 3.31012 0
M  V30 2944 H 292.172 -4.03297 3.00601 0
M  V30 2945 H 291.872 -3.53861 4.69101 0
M  V30 2946 H 293.396 -4.36855 4.26603 0
M  V30 2947 H 294.81 -2.31816 5.24342 0
M  V30 2948 H 293.207 -1.71181 5.75167 0
M  V30 2949 H 294.277 -0.663542 4.80339 0
M  V30 2950 N 295.62 -1.53406 -0.361157 0
M  V30 2951 C 296.866 -1.70054 -1.10496 0
M  V30 2952 C 297.199 -0.453278 -1.88836 0
M  V30 2953 O 296.474 0.5495 -1.86576 0
M  V30 2954 C 296.757 -2.95317 -2.06058 0
M  V30 2955 C 296.61 -4.3021 -1.31298 0
M  V30 2956 C 297.929 -3.16193 -3.06121 0
M  V30 2957 H 295.048 -0.618799 -0.400321 0
M  V30 2958 H 297.69 -1.86052 -0.385318 0
M  V30 2959 H 295.84 -2.81809 -2.67425 0
M  V30 2960 H 297.512 -4.55538 -0.726807 0
M  V30 2961 H 295.755 -4.29421 -0.614853 0
M  V30 2962 H 296.426 -5.14 -2.01265 0
M  V30 2963 H 298.902 -3.28916 -2.5486 0
M  V30 2964 H 297.778 -4.05266 -3.70204 0
M  V30 2965 H 298.039 -2.31676 -3.76535 0
M  V30 2966 N 297.098 0.621204 -1.44841 0
M  V30 2967 C 298.031 1.7459 -1.46947 0
M  V30 2968 C 299.009 1.59273 -0.327238 0
M  V30 2969 O 300.193 1.81021 -0.525706 0
M  V30 2970 C 297.32 3.12274 -1.31159 0
M  V30 2971 C 296.366 3.46216 -2.49072 0
M  V30 2972 S 297.199 3.4258 -4.11581 0
M  V30 2973 C 298.355 4.82867 -3.98233 0
M  V30 2974 H 298.588 1.72538 -2.42111 0
M  V30 2975 H 296.121 0.796683 -1.32259 0
M  V30 2976 H 298.079 3.91722 -1.22737 0
M  V30 2977 H 296.74 3.11855 -0.374885 0
M  V30 2978 H 295.933 4.4643 -2.33915 0
M  V30 2979 H 295.535 2.74253 -2.54286 0
M  V30 2980 H 297.827 5.7234 -3.62537 0
M  V30 2981 H 298.77 5.0308 -4.98313 0
M  V30 2982 H 299.178 4.57908 -3.30121 0
M  V30 2983 N 298.576 1.31904 0.862503 0
M  V30 2984 C 299.824 1.21776 1.61292 0
M  V30 2985 C 300.145 -0.222413 1.93727 0
M  V30 2986 O 299.415 -1.1451 1.58947 0
M  V30 2987 H 297.995 0.447717 0.597962 0
M  V30 2988 H 300.657 1.65326 1.03215 0
M  V30 2989 H 299.753 1.7948 2.5533 0
M  V30 2990 N 300.054 -1.07777 1.14986 0
M  V30 2991 C 300.987 -2.14228 0.786243 0
M  V30 2992 C 301.965 -1.60888 -0.235347 0
M  V30 2993 O 303.149 -1.88099 -0.122909 0
M  V30 2994 C 300.276 -3.38281 0.168433 0
M  V30 2995 C 299.322 -4.10387 1.16123 0
M  V30 2996 S 300.155 -4.62371 2.70135 0
M  V30 2997 C 301.311 -5.89704 2.09762 0
M  V30 2998 H 301.544 -2.44741 1.68787 0
M  V30 2999 H 299.077 -1.19984 0.971756 0
M  V30 3000 H 301.035 -4.10098 -0.181588 0
M  V30 3001 H 299.696 -3.05953 -0.710725 0
M  V30 3002 H 298.889 -4.99431 0.677086 0
M  V30 3003 H 298.491 -3.44513 1.45556 0
M  V30 3004 H 300.783 -6.61648 1.45701 0
M  V30 3005 H 301.726 -6.42824 2.96955 0
M  V30 3006 H 302.134 -5.4302 1.54239 0
M  V30 3007 N 301.532 -0.945985 -1.26051 0
M  V30 3008 C 302.479 -0.45809 -2.26208 0
M  V30 3009 C 303.449 0.484816 -1.58867 0
M  V30 3010 O 304.634 0.399969 -1.86561 0
M  V30 3011 C 301.774 0.266131 -3.44072 0
M  V30 3012 C 300.887 -0.713005 -4.26075 0
M  V30 3013 C 300.022 0.0329013 -5.3119 0
M  V30 3014 C 299.061 -0.93774 -6.04874 0
M  V30 3015 N 298.198 -0.223274 -7.01745 0
M  V30 3016 H 303.038 -1.3171 -2.67313 0
M  V30 3017 H 300.575 -0.66069 -1.31428 0
M  V30 3018 H 302.533 0.702514 -4.11243 0
M  V30 3019 H 301.163 1.08925 -3.03867 0
M  V30 3020 H 300.215 -1.26789 -3.58648 0
M  V30 3021 H 301.527 -1.45406 -4.77136 0
M  V30 3022 H 300.681 0.528335 -6.04395 0
M  V30 3023 H 299.42 0.806801 -4.8098 0
M  V30 3024 H 298.425 -1.44425 -5.30492 0
M  V30 3025 H 299.65 -1.71172 -6.57173 0
M  V30 3026 H 297.596 0.532046 -6.53839 0
M  V30 3027 H 297.513 -0.90357 -7.50581 0
M  V30 3028 H 298.781 0.250907 -7.79096 0
M  V30 3029 N 303.011 1.40521 -0.713556 0
M  V30 3030 C 304.427 1.54839 -0.386907 0
M  V30 3031 C 304.627 1.68532 1.1045 0
M  V30 3032 O 303.683 1.67377 1.89053 0
M  V30 3033 C 304.996 2.77792 -1.15118 0
M  V30 3034 C 306.544 2.91607 -1.13729 0
M  V30 3035 C 307.019 4.1747 -1.88368 0
M  V30 3036 N 308.51 4.24466 -1.85427 0
M  V30 3037 C 309.245 5.20755 -2.40004 0
M  V30 3038 N 308.741 6.22965 -3.03129 0
M  V30 3039 N 310.534 5.1282 -2.30158 0
M  V30 3040 H 302.685 1.29879 -1.68063 0
M  V30 3041 H 304.948 0.627896 -0.710247 0
M  V30 3042 H 304.654 2.73944 -2.20561 0
M  V30 3043 H 304.528 3.6984 -0.741477 0
M  V30 3044 H 306.915 2.94959 -0.0910608 0
M  V30 3045 H 306.996 2.00682 -1.5862 0
M  V30 3046 H 306.64 4.1488 -2.9298 0
M  V30 3047 H 306.57 5.074 -1.40898 0
M  V30 3048 H 309.061 3.51241 -1.3942 0
M  V30 3049 H 309.374 6.92859 -3.42295 0
M  V30 3050 H 307.719 6.23415 -3.07212 0
M  V30 3051 H 310.91 4.31899 -1.80501 0
M  V30 3052 H 311.083 5.87689 -2.72993 0
M  V30 3053 N 304.489 0.459591 1.5075 0
M  V30 3054 C 305.399 -0.34613 2.32033 0
M  V30 3055 C 306.415 -1.00686 1.41909 0
M  V30 3056 O 307.591 -0.997361 1.7497 0
M  V30 3057 C 304.656 -1.42029 3.16273 0
M  V30 3058 C 303.717 -0.777362 4.22203 0
M  V30 3059 C 302.95 -1.80034 5.02418 0
M  V30 3060 O 303.173 -3.02544 4.83553 0
M  V30 3061 O 302.107 -1.37853 5.85901 0
M  V30 3062 H 305.933 0.318054 3.0203 0
M  V30 3063 H 303.518 0.221663 1.47746 0
M  V30 3064 H 305.4 -2.04275 3.68578 0
M  V30 3065 H 304.075 -2.06815 2.49016 0
M  V30 3066 H 302.982 -0.116256 3.73919 0
M  V30 3067 H 304.315 -0.172634 4.91897 0
M  V30 3068 N 305.967 -1.56429 0.191757 0
M  V30 3069 C 306.93 -2.17707 -0.716688 0
M  V30 3070 C 307.93 -1.13061 -1.14341 0
M  V30 3071 O 309.12 -1.38464 -1.05704 0
M  V30 3072 C 306.252 -2.77644 -1.97804 0
M  V30 3073 H 307.445 -2.99342 -0.1829 0
M  V30 3074 H 304.998 -1.56193 -0.0578566 0
M  V30 3075 H 305.733 -1.99799 -2.55443 0
M  V30 3076 H 305.518 -3.54246 -1.68083 0
M  V30 3077 H 307.008 -3.24708 -2.62592 0
M  V30 3078 N 307.445 0.0818655 -1.57387 0
M  V30 3079 C 308.691 0.784074 -1.8703 0
M  V30 3080 C 309.024 1.77729 -0.782689 0
M  V30 3081 O 308.299 1.93384 0.208051 0
M  V30 3082 C 308.582 1.50105 -3.27323 0
M  V30 3083 C 308.435 0.524925 -4.46727 0
M  V30 3084 C 309.754 2.44843 -3.65705 0
M  V30 3085 H 306.873 0.283582 -0.680257 0
M  V30 3086 H 309.515 0.0474352 -1.89941 0
M  V30 3087 H 307.665 2.12897 -3.24972 0
M  V30 3088 H 309.337 -0.0970111 -4.61198 0
M  V30 3089 H 307.58 -0.160606 -4.33503 0
M  V30 3090 H 308.251 1.064 -5.41648 0
M  V30 3091 H 310.727 1.92135 -3.69085 0
M  V30 3092 H 309.603 2.92018 -4.64776 0
M  V30 3093 H 309.864 3.29197 -2.95096 0
M  V30 3094 N 308.923 1.53595 0.353017 0
M  V30 3095 C 309.855 1.77219 1.45348 0
M  V30 3096 C 310.868 0.65324 1.49119 0
M  V30 3097 O 312.057 0.929775 1.52373 0
M  V30 3098 C 309.157 1.84841 2.84055 0
M  V30 3099 C 308.33 3.14649 3.03833 0
M  V30 3100 C 307.389 3.13351 4.22727 0
M  V30 3101 O 306.415 3.87107 4.17297 0
M  V30 3102 N 307.617 2.35052 5.30783 0
M  V30 3103 H 310.382 2.72178 1.25457 0
M  V30 3104 H 307.943 1.52528 0.542833 0
M  V30 3105 H 309.935 1.81435 3.61751 0
M  V30 3106 H 308.505 0.971114 2.97133 0
M  V30 3107 H 307.725 3.31256 2.13689 0
M  V30 3108 H 309.013 4.00411 3.13925 0
M  V30 3109 H 308.411 1.74663 5.38061 0
M  V30 3110 H 306.968 2.37453 6.07009 0
M  V30 3111 N 310.401 -0.613514 1.45168 0
M  V30 3112 C 311.311 -1.75296 1.55912 0
M  V30 3113 C 312.327 -1.68244 0.443856 0
M  V30 3114 O 313.503 -1.88706 0.70371 0
M  V30 3115 C 310.568 -3.1174 1.5172 0
M  V30 3116 C 309.629 -3.30291 2.74238 0
M  V30 3117 C 308.862 -4.60226 2.70236 0
M  V30 3118 O 309.085 -5.42168 1.77229 0
M  V30 3119 O 308.019 -4.81361 3.61352 0
M  V30 3120 H 311.845 -1.69183 2.52212 0
M  V30 3121 H 309.43 -0.776886 1.27612 0
M  V30 3122 H 311.312 -3.93044 1.51968 0
M  V30 3123 H 309.987 -3.18357 0.585697 0
M  V30 3124 H 308.894 -2.48598 2.79553 0
M  V30 3125 H 310.227 -3.28547 3.66494 0
M  V30 3126 N 311.879 -1.3236 -0.855495 0
M  V30 3127 C 312.789 -1.23221 -1.99634 0
M  V30 3128 C 313.805 -0.145983 -1.73387 0
M  V30 3129 O 314.981 -0.366502 -1.98037 0
M  V30 3130 C 312.046 -0.954782 -3.33294 0
M  V30 3131 C 311.107 -2.12937 -3.72769 0
M  V30 3132 C 310.34 -1.86508 -5.00051 0
M  V30 3133 O 310.563 -0.807231 -5.64659 0
M  V30 3134 O 309.497 -2.72591 -5.36636 0
M  V30 3135 H 313.323 -2.19126 -2.1028 0
M  V30 3136 H 310.908 -1.12241 -0.986018 0
M  V30 3137 H 312.79 -0.816519 -4.13414 0
M  V30 3138 H 311.465 -0.0258854 -3.2369 0
M  V30 3139 H 310.372 -2.3231 -2.93228 0
M  V30 3140 H 311.705 -3.04102 -3.87018 0
M  V30 3141 N 313.357 1.07166 -1.15556 0
M  V30 3142 C 314.773 1.31899 -0.898603 0
M  V30 3143 C 314.973 1.96333 0.453383 0
M  V30 3144 O 314.029 2.22438 1.19489 0
M  V30 3145 C 315.342 2.20826 -2.04099 0
M  V30 3146 C 316.89 2.34269 -2.07574 0
M  V30 3147 C 317.365 3.26546 -3.21141 0
M  V30 3148 N 318.856 3.34127 -3.20801 0
M  V30 3149 C 319.591 4.05595 -4.05315 0
M  V30 3150 N 319.087 4.79661 -4.99897 0
M  V30 3151 N 320.88 4.01555 -3.93332 0
M  V30 3152 H 313.031 0.637302 -2.02613 0
M  V30 3153 H 315.294 0.343468 -0.883591 0
M  V30 3154 H 315 1.80744 -3.01703 0
M  V30 3155 H 314.874 3.21364 -1.97496 0
M  V30 3156 H 317.261 2.73603 -1.10568 0
M  V30 3157 H 317.342 1.33429 -2.18244 0
M  V30 3158 H 316.986 2.87931 -4.184 0
M  V30 3159 H 316.916 4.27345 -3.07708 0
M  V30 3160 H 319.407 2.81336 -2.52306 0
M  V30 3161 H 319.72 5.31694 -5.60822 0
M  V30 3162 H 318.065 4.78671 -5.03884 0
M  V30 3163 H 321.256 3.42806 -3.18751 0
M  V30 3164 H 321.429 4.56987 -4.5942 0
M  V30 3165 N 314.835 0.952656 1.25548 0
M  V30 3166 C 315.767 0.428609 2.25157 0
M  V30 3167 C 316.78 -0.454428 1.56329 0
M  V30 3168 O 317.969 -0.263023 1.76552 0
M  V30 3169 C 315.069 -0.401972 3.36508 0
M  V30 3170 C 314.242 0.467601 4.34893 0
M  V30 3171 C 313.301 -0.30445 5.25319 0
M  V30 3172 O 312.327 0.296473 5.68427 0
M  V30 3173 N 313.529 -1.59805 5.5807 0
M  V30 3174 H 316.294 1.28497 2.70756 0
M  V30 3175 H 313.855 0.822798 1.39433 0
M  V30 3176 H 315.847 -0.926134 3.9396 0
M  V30 3177 H 314.417 -1.15918 2.90313 0
M  V30 3178 H 313.637 1.17288 3.76347 0
M  V30 3179 H 314.925 1.06119 4.97611 0
M  V30 3180 H 314.323 -2.10823 5.24948 0
M  V30 3181 H 312.88 -2.06822 6.18116 0
M  V30 3182 N 316.313 -1.40141 0.720998 0
M  V30 3183 C 317.729 -1.54632 0.395113 0
M  V30 3184 C 317.929 -1.69115 -1.09555 0
M  V30 3185 O 316.985 -1.68377 -1.88163 0
M  V30 3186 C 318.298 -2.77177 1.1659 0
M  V30 3187 C 319.846 -2.91 1.15274 0
M  V30 3188 C 320.321 -4.16465 1.90579 0
M  V30 3189 N 321.812 -4.23476 1.87675 0
M  V30 3190 C 322.547 -5.19475 2.42762 0
M  V30 3191 N 322.043 -6.21348 3.06428 0
M  V30 3192 N 323.836 -5.11592 2.32874 0
M  V30 3193 H 315.987 -1.28986 1.68749 0
M  V30 3194 H 318.25 -0.62412 0.713567 0
M  V30 3195 H 317.956 -2.72771 2.22011 0
M  V30 3196 H 317.83 -3.69442 0.76108 0
M  V30 3197 H 320.217 -2.94907 0.106702 0
M  V30 3198 H 320.298 -1.99838 1.59682 0
M  V30 3199 H 319.942 -4.1332 2.95176 0
M  V30 3200 H 319.872 -5.06646 1.43587 0
M  V30 3201 H 322.363 -3.50497 1.41281 0
M  V30 3202 H 322.676 -6.91034 3.45965 0
M  V30 3203 H 321.021 -6.21777 3.10514 0
M  V30 3204 H 324.212 -4.30936 1.82789 0
M  V30 3205 H 324.385 -5.86233 2.76106 0
M  V30 3206 N 317.792 -0.46758 -1.50504 0
M  V30 3207 C 319.017 0.0886943 -2.0721 0
M  V30 3208 C 319.442 1.33057 -1.32956 0
M  V30 3209 O 318.8 1.77354 -0.376197 0
M  V30 3210 C 318.848 0.359202 -3.58806 0
M  V30 3211 O 317.952 1.44034 -3.8643 0
M  V30 3212 H 317.293 -0.0114349 -0.663902 0
M  V30 3213 H 319.823 -0.657613 -1.93744 0
M  V30 3214 H 319.833 0.600742 -4.03553 0
M  V30 3215 H 318.508 -0.548311 -4.1227 0
M  V30 3216 H 317.085 1.18638 -3.53524 0
M  V30 3217 N 319.27 1.56325 -0.20005 0
M  V30 3218 C 320.686 1.58839 0.155716 0
M  V30 3219 C 320.886 1.21636 1.60645 0
M  V30 3220 O 319.942 0.941437 2.34293 0
M  V30 3221 C 321.255 3.0032 -0.151124 0
M  V30 3222 C 322.803 3.12866 -0.0916284 0
M  V30 3223 C 323.278 4.56488 -0.371845 0
M  V30 3224 N 324.769 4.62089 -0.320641 0
M  V30 3225 C 325.504 5.71116 -0.511243 0
M  V30 3226 N 325 6.88592 -0.762461 0
M  V30 3227 N 326.793 5.60335 -0.445157 0
M  V30 3228 H 318.944 1.78788 -1.14668 0
M  V30 3229 H 321.207 0.829996 -0.458051 0
M  V30 3230 H 320.913 3.32117 -1.15721 0
M  V30 3231 H 320.787 3.73257 0.543986 0
M  V30 3232 H 323.174 2.80878 0.905065 0
M  V30 3233 H 323.255 2.42304 -0.81989 0
M  V30 3234 H 322.899 4.89189 -1.36588 0
M  V30 3235 H 322.829 5.25246 0.377362 0
M  V30 3236 H 325.32 3.77665 -0.13329 0
M  V30 3237 H 325.633 7.67581 -0.896576 0
M  V30 3238 H 323.978 6.90387 -0.799412 0
M  V30 3239 H 327.169 4.67436 -0.249278 0
M  V30 3240 H 327.342 6.45243 -0.597116 0
M  V30 3241 N 320.748 -0.0735177 1.57428 0
M  V30 3242 C 321.658 -1.10547 2.06922 0
M  V30 3243 C 322.674 -1.42506 0.998402 0
M  V30 3244 O 323.85 -1.52717 1.31299 0
M  V30 3245 C 320.915 -2.40019 2.50184 0
M  V30 3246 C 319.976 -2.15046 3.71556 0
M  V30 3247 C 319.209 -3.38345 4.12745 0
M  V30 3248 O 319.432 -4.47399 3.53822 0
M  V30 3249 O 318.366 -3.2666 5.05546 0
M  V30 3250 H 322.192 -0.715013 2.95163 0
M  V30 3251 H 319.777 -0.287531 1.46607 0
M  V30 3252 H 321.659 -3.16218 2.78539 0
M  V30 3253 H 320.334 -2.78447 1.65072 0
M  V30 3254 H 319.241 -1.36558 3.48285 0
M  V30 3255 H 320.574 -1.81499 4.57514 0
M  V30 3256 N 322.226 -1.5378 -0.344866 0
M  V30 3257 C 323.642 -1.44015 -0.687888 0
M  V30 3258 C 323.842 -0.595834 -1.92489 0
M  V30 3259 O 322.898 -0.0863064 -2.52352 0
M  V30 3260 C 324.211 -2.87481 -0.881758 0
M  V30 3261 C 325.759 -2.97247 -0.980459 0
M  V30 3262 C 326.234 -4.41819 -1.20665 0
M  V30 3263 N 327.725 -4.45339 -1.27389 0
M  V30 3264 C 328.46 -5.54333 -1.46639 0
M  V30 3265 N 327.956 -6.73335 -1.63071 0
M  V30 3266 N 329.749 -5.41944 -1.49176 0
M  V30 3267 H 321.9 -2.07169 0.468475 0
M  V30 3268 H 324.163 -0.93643 0.147655 0
M  V30 3269 H 323.869 -3.51672 -0.0443444 0
M  V30 3270 H 323.743 -3.32352 -1.78388 0
M  V30 3271 H 326.13 -2.33197 -1.8084 0
M  V30 3272 H 326.211 -2.5574 -0.0552713 0
M  V30 3273 H 325.855 -5.06449 -0.383652 0
M  V30 3274 H 325.785 -4.80917 -2.14539 0
M  V30 3275 H 328.276 -3.59585 -1.1622 0
M  V30 3276 H 328.589 -7.52165 -1.77391 0
M  V30 3277 H 326.934 -6.76282 -1.60209 0
M  V30 3278 H 330.125 -4.47932 -1.3592 0
M  V30 3279 H 330.298 -6.26946 -1.63837 0
M  V30 3280 N 323.704 0.605807 -1.45491 0
M  V30 3281 C 324.667 1.69836 -1.5391 0
M  V30 3282 C 325.667 1.55261 -0.418424 0
M  V30 3283 O 326.857 1.60296 -0.681965 0
M  V30 3284 C 323.989 3.09117 -1.43734 0
M  V30 3285 H 325.182 1.63738 -2.51257 0
M  V30 3286 H 322.735 0.821689 -1.32959 0
M  V30 3287 H 323.47 3.20791 -0.475788 0
M  V30 3288 H 323.255 3.21104 -2.25021 0
M  V30 3289 H 324.745 3.88696 -1.52661 0
M  V30 3290 N 325.182 1.32811 0.848464 0
M  V30 3291 C 326.092 1.24278 1.98978 0
M  V30 3292 C 327.108 0.155176 1.73307 0
M  V30 3293 O 328.284 0.376999 1.9784 0
M  V30 3294 C 325.349 0.972444 3.32783 0
M  V30 3295 C 324.41 2.14911 3.71634 0
M  V30 3296 C 323.643 1.89157 4.99054 0
M  V30 3297 O 323.866 0.837165 5.64223 0
M  V30 3298 O 322.8 2.75433 5.35183 0
M  V30 3299 H 326.626 2.20238 2.09115 0
M  V30 3300 H 324.211 1.12762 0.980052 0
M  V30 3301 H 326.093 0.838432 4.12975 0
M  V30 3302 H 324.768 0.043051 3.23671 0
M  V30 3303 H 323.675 2.33862 2.91992 0
M  V30 3304 H 325.008 3.06151 3.85399 0
M  V30 3305 N 326.66 -1.06551 1.16123 0
M  V30 3306 C 327.885 -1.83544 0.965735 0
M  V30 3307 C 328.31 -1.81843 -0.481102 0
M  V30 3308 O 327.668 -1.21732 -1.34354 0
M  V30 3309 C 327.716 -3.28169 1.49457 0
M  V30 3310 O 326.82 -4.0643 0.699157 0
M  V30 3311 H 326.161 -0.568026 0.343864 0
M  V30 3312 H 328.691 -1.34362 1.54299 0
M  V30 3313 H 328.701 -3.78992 1.51092 0
M  V30 3314 H 327.376 -3.28722 2.54784 0
M  V30 3315 H 325.953 -3.65216 0.7531 0
M  V30 3316 N 328.138 -0.959301 -1.25041 0
M  V30 3317 C 329.048 -0.489994 -2.29426 0
M  V30 3318 C 330.064 0.444944 -1.68215 0
M  V30 3319 O 331.24 0.320046 -1.98841 0
M  V30 3320 C 328.305 0.220309 -3.45999 0
M  V30 3321 C 327.366 -0.753418 -4.22637 0
M  V30 3322 C 326.599 -0.076918 -5.33645 0
M  V30 3323 O 326.822 1.13649 -5.58963 0
M  V30 3324 O 325.756 -0.764824 -5.97021 0
M  V30 3325 H 329.582 -1.35755 -2.71669 0
M  V30 3326 H 327.167 -0.725961 -1.30576 0
M  V30 3327 H 329.049 0.619677 -4.16819 0
M  V30 3328 H 327.724 1.06296 -3.0575 0
M  V30 3329 H 326.631 -1.20308 -3.54227 0
M  V30 3330 H 327.964 -1.56423 -4.66683 0
M  V30 3331 N 329.616 1.39756 -0.72842 0
M  V30 3332 C 330.579 2.29012 -0.0927297 0
M  V30 3333 C 331.579 1.45992 0.674025 0
M  V30 3334 O 332.769 1.66749 0.50402 0
M  V30 3335 C 329.901 3.29396 0.878137 0
M  V30 3336 H 331.094 2.86729 -0.879011 0
M  V30 3337 H 328.647 1.48293 -0.493847 0
M  V30 3338 H 329.382 2.76722 1.69101 0
M  V30 3339 H 329.167 3.907 0.331051 0
M  V30 3340 H 330.657 3.96199 1.3197 0
M  V30 3341 N 331.094 0.475555 1.50254 0
M  V30 3342 C 332.004 -0.321501 2.32387 0
M  V30 3343 C 333.02 -0.991755 1.42969 0
M  V30 3344 O 334.196 -0.978747 1.76018 0
M  V30 3345 C 331.261 -1.38667 3.17762 0
M  V30 3346 C 330.322 -0.732538 4.23004 0
M  V30 3347 C 329.555 -1.74695 5.04299 0
M  V30 3348 O 329.778 -2.97399 4.86734 0
M  V30 3349 O 328.712 -1.31631 5.8733 0
M  V30 3350 H 332.538 0.350071 3.01676 0
M  V30 3351 H 330.123 0.237321 1.47503 0
M  V30 3352 H 332.005 -2.00354 3.70724 0
M  V30 3353 H 330.68 -2.04163 2.51196 0
M  V30 3354 H 329.587 -0.0765902 3.74022 0
M  V30 3355 H 330.92 -0.120452 4.92053 0
M  V30 3356 N 332.573 -1.56217 0.208337 0
M  V30 3357 C 333.813 -1.99849 -0.428927 0
M  V30 3358 C 334.177 -1.09262 -1.57879 0
M  V30 3359 O 335.378 -1.42185 -2.28116 0
M  V30 3360 C 333.649 -3.46777 -0.864879 0
M  V30 3361 S 335.208 -4.12434 -1.49811 0
M  V30 3362 H 332.026 -0.697742 -0.136665 0
M  V30 3363 H 334.628 -1.92953 0.314519 0
M  V30 3364 H 333.332 -4.10396 -0.0181326 0
M  V30 3365 H 332.863 -3.57518 -1.64147 0
M  V30 3366 H 334.878 -4.10532 -2.78707 0
M  V30 3367 N 334.051 0.0651679 -1.57465 0
M  V30 3368 C 335.014 1.06117 -2.03155 0
M  V30 3369 C 336.014 1.31204 -0.929632 0
M  V30 3370 O 337.204 1.26813 -1.19432 0
M  V30 3371 C 334.336 2.4032 -2.41783 0
M  V30 3372 H 335.529 0.667231 -2.92383 0
M  V30 3373 H 333.082 0.311075 -1.53173 0
M  V30 3374 H 333.817 2.84532 -1.55601 0
M  V30 3375 H 333.602 2.23451 -3.22199 0
M  V30 3376 H 335.092 3.11898 -2.77685 0
M  V30 3377 N 335.529 1.53961 0.336706 0
M  V30 3378 C 336.757 1.75483 1.09605 0
M  V30 3379 C 337.172 0.4972 1.82136 0
M  V30 3380 O 336.529 -0.53149 1.74589 0
M  V30 3381 C 336.58 2.93943 2.10428 0
M  V30 3382 O 336.301 4.14842 1.40846 0
M  V30 3383 C 337.802 3.27571 2.98684 0
M  V30 3384 H 335.022 0.586166 0.326574 0
M  V30 3385 H 337.566 2.00808 0.38683 0
M  V30 3386 H 335.721 2.70929 2.76905 0
M  V30 3387 H 336.135 4.81383 2.08255 0
M  V30 3388 H 337.609 4.13791 3.6535 0
M  V30 3389 H 338.086 2.44168 3.65074 0
M  V30 3390 H 338.692 3.52615 2.37787 0
M  V30 3391 N 337.007 -0.598083 1.45811 0
M  V30 3392 C 338.232 -1.3881 1.54099 0
M  V30 3393 C 338.657 -1.8726 0.177578 0
M  V30 3394 O 338.015 -1.6069 -0.839541 0
M  V30 3395 C 338.063 -2.56217 2.53743 0
M  V30 3396 O 337.167 -3.5716 2.06182 0
M  V30 3397 H 336.508 -0.414024 0.519115 0
M  V30 3398 H 339.038 -0.726971 1.91249 0
M  V30 3399 H 339.048 -3.03337 2.72856 0
M  V30 3400 H 337.723 -2.20303 3.5276 0
M  V30 3401 H 336.3 -3.16624 1.96987 0
M  V30 3402 N 338.485 -1.33259 -0.841409 0
M  V30 3403 C 339.733 -1.24326 -1.59334 0
M  V30 3404 C 340.054 0.191564 -1.94057 0
M  V30 3405 O 339.324 1.11967 -1.60749 0
M  V30 3406 H 337.904 -0.457174 -0.590763 0
M  V30 3407 H 340.566 -1.66947 -1.00571 0
M  V30 3408 H 339.662 -1.8352 -2.52442 0
M  V30 3409 N 339.963 1.05934 -1.16686 0
M  V30 3410 C 340.913 2.11764 -0.844978 0
M  V30 3411 C 341.897 1.59922 0.177178 0
M  V30 3412 O 343.089 1.76983 -0.0241768 0
M  V30 3413 C 340.218 3.41493 -0.351812 0
M  V30 3414 C 339.304 4.00152 -1.40496 0
M  V30 3415 N 339.695 4.32874 -2.61636 0
M  V30 3416 C 337.993 4.278 -1.26106 0
M  V30 3417 C 338.694 4.79552 -3.29249 0
M  V30 3418 N 337.67 4.79211 -2.56628 0
M  V30 3419 H 341.472 2.34916 -1.76612 0
M  V30 3420 H 338.986 1.23511 -1.05446 0
M  V30 3421 H 340.983 4.16773 -0.102796 0
M  V30 3422 H 339.643 3.19778 0.56322 0
M  V30 3423 H 340.654 4.23109 -2.98663 0
M  V30 3424 H 337.331 4.15511 -0.407081 0
M  V30 3425 H 338.721 5.14045 -4.32675 0
M  V30 3426 N 341.441 0.965919 1.2453 0
M  V30 3427 C 342.351 0.502154 2.29163 0
M  V30 3428 C 343.367 -0.436017 1.68448 0
M  V30 3429 O 344.543 -0.309497 1.99008 0
M  V30 3430 C 341.608 -0.201956 3.46111 0
M  V30 3431 C 340.669 0.775821 4.22232 0
M  V30 3432 C 339.902 0.105217 5.33596 0
M  V30 3433 O 340.125 -1.10683 5.59558 0
M  V30 3434 O 339.059 0.796475 5.96607 0
M  V30 3435 H 342.885 1.37194 2.70946 0
M  V30 3436 H 340.47 0.732875 1.30189 0
M  V30 3437 H 342.352 -0.597564 4.17142 0
M  V30 3438 H 341.027 -1.04673 3.06309 0
M  V30 3439 H 339.934 1.22185 3.53584 0
M  V30 3440 H 341.267 1.58896 4.65846 0
M  V30 3441 N 342.919 -1.39368 0.735821 0
M  V30 3442 C 344.196 -1.94465 0.210395 0
M  V30 3443 C 344.576 -1.67254 -1.28799 0
M  V30 3444 O 343.924 -1.00123 -2.05396 0
M  V30 3445 C 344.134 -3.4472 0.544897 0
M  V30 3446 C 345.482 -4.21708 0.494689 0
M  V30 3447 O 346.506 -3.52922 0.482136 0
M  V30 3448 O 345.365 -5.44299 0.489947 0
M  V30 3449 H 342.459 -0.826096 0.0386666 0
M  V30 3450 H 345.005 -1.48863 0.814735 0
M  V30 3451 H 343.777 -3.57963 1.58045 0
M  V30 3452 H 343.4 -3.97502 -0.08837 0
M  V30 3453 N 344.397 -0.483516 -1.5 0
M  V30 3454 C 345.33 0.350427 -2.25493 0
M  V30 3455 C 346.308 0.985549 -1.29328 0
M  V30 3456 O 347.492 1.01906 -1.58579 0
M  V30 3457 C 344.619 1.49202 -3.04066 0
M  V30 3458 C 343.665 0.973036 -4.15252 0
M  V30 3459 S 344.498 -0.122237 -5.3536 0
M  V30 3460 C 345.654 1.02294 -6.17484 0
M  V30 3461 H 345.887 -0.290381 -2.95878 0
M  V30 3462 H 343.42 -0.268562 -1.52046 0
M  V30 3463 H 345.378 2.14623 -3.49925 0
M  V30 3464 H 344.039 2.10438 -2.33183 0
M  V30 3465 H 343.232 1.82804 -4.69679 0
M  V30 3466 H 342.834 0.396335 -3.71894 0
M  V30 3467 H 345.126 1.93195 -6.49371 0
M  V30 3468 H 346.069 0.517664 -7.06205 0
M  V30 3469 H 346.477 1.28238 -5.49741 0
M  V30 3470 N 345.875 1.56104 -0.216619 0
M  V30 3471 C 347.286 1.844 0.292128 0
M  V30 3472 C 347.637 1.13788 1.59833 0
M  V30 3473 O 346.762 0.405888 2.12559 0
M  V30 3474 C 347.357 3.3452 0.53681 0
M  V30 3475 C 345.916 3.63151 0.989876 0
M  V30 3476 C 345.063 2.77255 0.0502302 0
M  V30 3477 H 348.014 1.52481 -0.439926 0
M  V30 3478 H 348.035 3.54459 1.38345 0
M  V30 3479 H 347.547 3.85885 -0.414031 0
M  V30 3480 H 345.648 3.17238 1.95425 0
M  V30 3481 H 345.761 4.71177 0.867698 0
M  V30 3482 H 344.125 2.48555 0.556117 0
M  V30 3483 H 344.908 3.31416 -0.89544 0
M  V30 3484 N 347.353 -0.0568162 1.57498 0
M  V30 3485 C 348.599 -0.75422 1.88253 0
M  V30 3486 C 348.932 -1.76461 0.810865 0
M  V30 3487 O 348.207 -1.93691 -0.177259 0
M  V30 3488 C 348.49 -1.44878 3.2967 0
M  V30 3489 C 348.343 -0.453789 4.47505 0
M  V30 3490 C 349.662 -2.38994 3.69554 0
M  V30 3491 H 346.781 -0.272724 0.684683 0
M  V30 3492 H 349.423 -0.0172113 1.89992 0
M  V30 3493 H 347.573 -2.077 3.28318 0
M  V30 3494 H 349.245 0.170371 4.60985 0
M  V30 3495 H 347.488 0.229552 4.33192 0
M  V30 3496 H 348.159 -0.977699 5.43273 0
M  V30 3497 H 350.635 -1.86239 3.72095 0
M  V30 3498 H 349.511 -2.84587 4.69363 0
M  V30 3499 H 349.772 -3.24461 3.00296 0
M  V30 3500 N 348.832 -1.54138 -0.328536 0
M  V30 3501 C 349.742 -1.86192 -1.42723 0
M  V30 3502 C 350.758 -0.753382 -1.56844 0
M  V30 3503 O 351.934 -1.04718 -1.72035 0
M  V30 3504 C 348.999 -2.07824 -2.77507 0
M  V30 3505 C 348.06 -3.31641 -2.72603 0
M  V30 3506 C 347.293 -3.52232 -4.00959 0
M  V30 3507 O 347.516 -2.7636 -4.9898 0
M  V30 3508 O 346.45 -4.45699 -4.0452 0
M  V30 3509 H 350.276 -2.79608 -1.18547 0
M  V30 3510 H 347.861 -1.3998 -0.522104 0
M  V30 3511 H 349.743 -2.23411 -3.57303 0
M  V30 3512 H 348.418 -1.17596 -3.01584 0
M  V30 3513 H 347.325 -3.21444 -1.91376 0
M  V30 3514 H 348.658 -4.2191 -2.53481 0
M  V30 3515 N 350.31 0.590341 -1.46126 0
M  V30 3516 C 351.726 0.912917 -1.30912 0
M  V30 3517 C 351.926 1.99616 -0.274893 0
M  V30 3518 O 350.982 2.50397 0.325197 0
M  V30 3519 C 352.295 1.3375 -2.69317 0
M  V30 3520 C 353.843 1.45077 -2.77348 0
M  V30 3521 C 354.318 1.90904 -4.16317 0
M  V30 3522 N 355.809 1.9811 -4.18696 0
M  V30 3523 C 356.544 2.34828 -5.23109 0
M  V30 3524 N 356.04 2.70393 -6.37856 0
M  V30 3525 N 357.833 2.35317 -5.10473 0
M  V30 3526 H 349.984 -0.125358 -2.1203 0
M  V30 3527 H 352.247 0.00658481 -0.947977 0
M  V30 3528 H 351.953 0.615614 -3.4627 0
M  V30 3529 H 351.827 2.30058 -2.9892 0
M  V30 3530 H 354.214 2.16353 -2.00687 0
M  V30 3531 H 354.295 0.4704 -2.51438 0
M  V30 3532 H 353.939 1.20209 -4.9347 0
M  V30 3533 H 353.869 2.89886 -4.39629 0
M  V30 3534 H 356.36 1.73146 -3.359 0
M  V30 3535 H 356.673 2.97341 -7.13308 0
M  V30 3536 H 355.018 2.68048 -6.41229 0
M  V30 3537 H 358.209 2.0695 -4.19868 0
M  V30 3538 H 358.382 2.63605 -5.9196 0
M  V30 3539 N 351.788 1.33704 0.83433 0
M  V30 3540 C 353.037 1.24763 1.58484 0
M  V30 3541 C 353.35 -0.183775 1.94735 0
M  V30 3542 O 354.556 -0.395234 2.68608 0
M  V30 3543 C 353.012 2.18638 2.85876 0
M  V30 3544 C 352.62 3.66974 2.56971 0
M  V30 3545 C 354.364 2.18581 3.63899 0
M  V30 3546 C 352.271 4.5275 3.80488 0
M  V30 3547 H 351.201 0.463425 0.594772 0
M  V30 3548 H 353.852 1.58797 0.919551 0
M  V30 3549 H 352.234 1.77542 3.5397 0
M  V30 3550 H 353.408 4.16538 1.9706 0
M  V30 3551 H 351.723 3.69366 1.92244 0
M  V30 3552 H 354.32 2.79894 4.55591 0
M  V30 3553 H 354.663 1.18207 3.99165 0
M  V30 3554 H 355.196 2.58062 3.02735 0
M  V30 3555 H 351.935 5.54017 3.5035 0
M  V30 3556 H 351.455 4.07927 4.39722 0
M  V30 3557 H 353.134 4.66784 4.4802 0
M  V30 3558 N 353.266 -1.05314 1.17247 0
M  V30 3559 C 354.196 -2.1498 0.911362 0
M  V30 3560 C 355.177 -1.69471 -0.146169 0
M  V30 3561 O 356.362 -1.942 0.003812 0
M  V30 3562 C 353.492 -3.4472 0.422528 0
M  V30 3563 C 352.446 -4.03789 1.4191 0
M  V30 3564 C 351.772 -5.28858 0.788274 0
M  V30 3565 C 353.072 -4.41418 2.7919 0
M  V30 3566 H 354.766 -2.3708 1.82848 0
M  V30 3567 H 352.312 -1.13938 0.880569 0
M  V30 3568 H 354.265 -4.20787 0.227289 0
M  V30 3569 H 352.989 -3.22269 -0.530123 0
M  V30 3570 H 351.648 -3.2979 1.60106 0
M  V30 3571 H 351.296 -5.02709 -0.171173 0
M  V30 3572 H 350.996 -5.69338 1.45353 0
M  V30 3573 H 352.52 -6.07612 0.603282 0
M  V30 3574 H 353.934 -5.08524 2.64719 0
M  V30 3575 H 352.331 -4.92913 3.42282 0
M  V30 3576 H 353.401 -3.51819 3.33693 0
M  V30 3577 N 354.744 -0.972509 -1.24016 0
M  V30 3578 C 355.654 -0.5143 -2.28893 0
M  V30 3579 C 356.67 0.427078 -1.68677 0
M  V30 3580 O 357.846 0.298939 -1.99169 0
M  V30 3581 C 354.911 0.183598 -3.46214 0
M  V30 3582 C 353.972 -0.798202 -4.21814 0
M  V30 3583 C 353.205 -0.133514 -5.33533 0
M  V30 3584 O 353.428 1.07714 -5.60137 0
M  V30 3585 O 352.362 -0.828103 -5.96176 0
M  V30 3586 H 356.188 -1.38629 -2.70214 0
M  V30 3587 H 353.773 -0.739769 -1.29799 0
M  V30 3588 H 355.655 0.575433 -4.17453 0
M  V30 3589 H 354.33 1.03048 -3.0686 0
M  V30 3590 H 353.237 -1.24059 -3.52931 0
M  V30 3591 H 354.57 -1.61364 -4.64997 0
M  V30 3592 N 356.222 1.38976 -0.743202 0
M  V30 3593 C 357.185 2.28901 -0.117014 0
M  V30 3594 C 358.185 1.46698 0.658503 0
M  V30 3595 O 359.375 1.67274 0.486305 0
M  V30 3596 C 356.507 3.30309 0.84315 0
M  V30 3597 H 357.7 2.8578 -0.909373 0
M  V30 3598 H 355.253 1.47761 -0.509547 0
M  V30 3599 H 355.988 2.785 1.66157 0
M  V30 3600 H 355.773 3.91029 0.289594 0
M  V30 3601 H 357.263 3.97577 1.2776 0
M  V30 3602 N 357.7 0.491464 1.49741 0
M  V30 3603 C 358.61 -0.296835 2.32715 0
M  V30 3604 C 359.626 -0.976536 1.44013 0
M  V30 3605 O 360.802 -0.960023 1.77047 0
M  V30 3606 C 357.867 -1.35288 3.19215 0
M  V30 3607 C 356.928 -0.687632 4.23757 0
M  V30 3608 C 356.161 -1.69336 5.06123 0
M  V30 3609 O 356.384 -2.92219 4.89861 0
M  V30 3610 O 355.318 -1.25394 5.88693 0
M  V30 3611 H 359.144 0.382048 3.01287 0
M  V30 3612 H 356.729 0.252953 1.47243 0
M  V30 3613 H 358.611 -1.96411 3.72828 0
M  V30 3614 H 357.286 -2.01487 2.53347 0
M  V30 3615 H 356.193 -0.0369159 3.74082 0
M  V30 3616 H 357.526 -0.0682566 4.92153 0
M  V30 3617 N 359.178 -1.55987 0.224894 0
M  V30 3618 C 360.108 -2.23426 -0.678457 0
M  V30 3619 C 361.089 -1.20709 -1.19847 0
M  V30 3620 O 362.274 -1.49304 -1.24186 0
M  V30 3621 C 359.404 -2.91676 -1.88527 0
M  V30 3622 C 358.358 -4.00893 -1.49896 0
M  V30 3623 C 357.684 -4.56455 -2.78483 0
M  V30 3624 C 358.984 -5.17769 -0.686461 0
M  V30 3625 H 360.678 -2.99175 -0.116173 0
M  V30 3626 H 358.224 -1.43897 -0.054436 0
M  V30 3627 H 360.177 -3.37547 -2.5227 0
M  V30 3628 H 358.901 -2.1338 -2.47258 0
M  V30 3629 H 357.56 -3.55758 -0.884985 0
M  V30 3630 H 357.208 -3.74886 -3.35365 0
M  V30 3631 H 356.908 -5.30169 -2.53368 0
M  V30 3632 H 358.432 -5.05047 -3.43162 0
M  V30 3633 H 359.846 -5.60001 -1.22767 0
M  V30 3634 H 358.243 -5.97735 -0.532259 0
M  V30 3635 H 359.313 -4.83932 0.306196 0
M  V30 3636 N 360.656 0.0484629 -1.57525 0
M  V30 3637 C 361.619 1.03956 -2.04269 0
M  V30 3638 C 362.619 1.30211 -0.943496 0
M  V30 3639 O 363.809 1.25539 -1.20771 0
M  V30 3640 C 360.941 2.37742 -2.44319 0
M  V30 3641 H 362.134 0.636182 -2.93075 0
M  V30 3642 H 359.687 0.294811 -1.53494 0
M  V30 3643 H 360.422 2.82866 -1.5861 0
M  V30 3644 H 360.207 2.20021 -3.24551 0
M  V30 3645 H 361.697 3.08936 -2.80978 0
M  V30 3646 N 362.134 1.5431 0.320358 0
M  V30 3647 C 363.38 1.72924 1.05949 0
M  V30 3648 C 363.713 0.503185 1.87568 0
M  V30 3649 O 362.988 -0.499839 1.87968 0
M  V30 3650 C 363.271 3.00676 1.98156 0
M  V30 3651 C 363.124 4.3354 1.19845 0
M  V30 3652 C 364.443 3.24198 2.9763 0
M  V30 3653 H 361.562 0.629195 0.383774 0
M  V30 3654 H 364.204 1.87008 0.335854 0
M  V30 3655 H 362.354 2.888 2.59859 0
M  V30 3656 H 364.026 4.57305 0.605773 0
M  V30 3657 H 362.269 4.309 0.500784 0
M  V30 3658 H 362.94 5.19156 1.87567 0
M  V30 3659 H 365.416 3.35557 2.4605 0
M  V30 3660 H 364.292 4.14938 3.59329 0
M  V30 3661 H 364.553 2.41577 3.7026 0
M  V30 3662 N 363.613 -0.582584 1.46437 0
M  V30 3663 C 364.523 -1.71949 1.59595 0
M  V30 3664 C 365.539 -1.67264 0.479443 0
M  V30 3665 O 366.715 -1.87171 0.743579 0
M  V30 3666 C 363.78 -3.08452 1.58298 0
M  V30 3667 C 362.841 -3.244 2.81182 0
M  V30 3668 C 362.074 -4.54391 2.79937 0
M  V30 3669 O 362.297 -5.38287 1.8869 0
M  V30 3670 O 361.231 -4.73588 3.71481 0
M  V30 3671 H 365.057 -1.63795 2.55744 0
M  V30 3672 H 362.642 -0.749643 1.29231 0
M  V30 3673 H 364.524 -3.89732 1.60271 0
M  V30 3674 H 363.199 -3.17043 0.653094 0
M  V30 3675 H 362.106 -2.42613 2.84763 0
M  V30 3676 H 363.439 -3.20699 3.7338 0
M  V30 3677 N 365.091 -1.34144 -0.827227 0
M  V30 3678 C 366.502 -1.23557 -1.39966 0
M  V30 3679 C 366.853 0.140731 -1.95695 0
M  V30 3680 O 365.978 1.04087 -1.89723 0
M  V30 3681 C 366.573 -2.23708 -2.54441 0
M  V30 3682 C 365.132 -2.16924 -3.07605 0
M  V30 3683 C 364.279 -2.10549 -1.80456 0
M  V30 3684 H 367.23 -1.45573 -0.631991 0
M  V30 3685 H 367.251 -1.85157 -3.32411 0
M  V30 3686 H 366.763 -3.23866 -2.13851 0
M  V30 3687 H 364.864 -1.20107 -3.52711 0
M  V30 3688 H 364.977 -3.07988 -3.66988 0
M  V30 3689 H 363.341 -1.56203 -2.01178 0
M  V30 3690 H 364.124 -3.12535 -1.42046 0
M  V30 3691 N 366.569 1.04691 -1.17803 0
M  V30 3692 C 367.516 2.12557 -0.899343 0
M  V30 3693 C 368.486 1.65339 0.158771 0
M  V30 3694 O 369.671 1.90789 0.0204797 0
M  V30 3695 C 366.811 3.42481 -0.424315 0
M  V30 3696 C 365.924 4.03346 -1.54713 0
M  V30 3697 C 365.059 5.21208 -1.02546 0
M  V30 3698 C 364.098 5.74089 -2.12339 0
M  V30 3699 N 363.235 6.83247 -1.61612 0
M  V30 3700 H 368.075 2.35734 -1.823 0
M  V30 3701 H 365.612 1.1564 -0.909159 0
M  V30 3702 H 367.57 4.16996 -0.130421 0
M  V30 3703 H 366.2 3.19471 0.462377 0
M  V30 3704 H 365.252 3.2622 -1.95664 0
M  V30 3705 H 366.564 4.38628 -2.37501 0
M  V30 3706 H 365.718 6.02812 -0.685718 0
M  V30 3707 H 364.457 4.87414 -0.167084 0
M  V30 3708 H 363.462 4.91111 -2.47165 0
M  V30 3709 H 364.687 6.0993 -2.98601 0
M  V30 3710 H 362.633 6.5134 -0.780533 0
M  V30 3711 H 362.55 7.17559 -2.38003 0
M  V30 3712 H 363.818 7.68491 -1.30545 0
M  V30 3713 N 368.047 0.979072 1.23499 0
M  V30 3714 C 369.275 0.665202 1.95915 0
M  V30 3715 C 369.69 -0.767571 1.72493 0
M  V30 3716 O 369.047 -1.51635 1.01554 0
M  V30 3717 C 369.098 0.944438 3.48945 0
M  V30 3718 O 368.819 2.3209 3.71572 0
M  V30 3719 C 370.32 0.646336 4.38563 0
M  V30 3720 H 367.54 0.247218 0.623798 0
M  V30 3721 H 370.084 1.31009 1.57025 0
M  V30 3722 H 368.239 0.345575 3.85856 0
M  V30 3723 H 368.653 2.40957 4.65876 0
M  V30 3724 H 370.127 0.892091 5.44744 0
M  V30 3725 H 370.604 -0.419575 4.37191 0
M  V30 3726 H 371.21 1.22562 4.07258 0
M  V30 3727 N 369.525 -1.3858 0.750561 0
M  V30 3728 C 370.435 -2.34278 0.122825 0
M  V30 3729 C 371.451 -1.59116 -0.704131 0
M  V30 3730 O 372.627 -1.91326 -0.628987 0
M  V30 3731 C 369.692 -3.38221 -0.762086 0
M  V30 3732 C 368.753 -4.29227 0.078896 0
M  V30 3733 C 367.986 -5.28205 -0.763874 0
M  V30 3734 O 368.209 -5.34112 -2.00201 0
M  V30 3735 O 367.143 -6.01618 -0.18428 0
M  V30 3736 H 370.969 -2.89649 0.913088 0
M  V30 3737 H 368.554 -1.40374 0.511417 0
M  V30 3738 H 370.436 -4.01872 -1.26793 0
M  V30 3739 H 369.111 -2.85211 -1.5309 0
M  V30 3740 H 368.018 -3.68747 0.630621 0
M  V30 3741 H 369.351 -4.85484 0.810289 0
M  V30 3742 N 371.003 -0.499398 -1.49478 0
M  V30 3743 C 372.228 0.044722 -2.07352 0
M  V30 3744 C 372.653 1.30207 -1.35749 0
M  V30 3745 O 372.011 1.76516 -0.413732 0
M  V30 3746 C 372.059 0.283013 -3.59488 0
M  V30 3747 O 371.163 1.35804 -3.89398 0
M  V30 3748 H 370.504 -0.0255147 -0.66351 0
M  V30 3749 H 373.034 -0.698561 -1.92305 0
M  V30 3750 H 373.044 0.515007 -4.04737 0
M  V30 3751 H 371.719 -0.635636 -4.11014 0
M  V30 3752 H 370.296 1.11113 -3.55961 0
M  V30 3753 N 372.481 1.55866 -0.233164 0
M  V30 3754 C 373.711 2.02704 0.399325 0
M  V30 3755 C 374.119 1.11204 1.53069 0
M  V30 3756 O 373.462 0.116182 1.83332 0
M  V30 3757 C 373.524 3.45844 0.981429 0
M  V30 3758 C 373.188 4.56997 -0.0159561 0
M  V30 3759 C 374.185 5.13384 -0.820552 0
M  V30 3760 C 371.87 5.0211 -0.138072 0
M  V30 3761 C 373.864 6.13365 -1.73386 0
M  V30 3762 C 371.551 6.01926 -1.0549 0
M  V30 3763 C 372.549 6.57431 -1.85132 0
M  V30 3764 O 372.237 7.55302 -2.75272 0
M  V30 3765 H 371.969 0.668459 0.100692 0
M  V30 3766 H 374.523 2.02387 -0.35052 0
M  V30 3767 H 372.753 3.43267 1.78058 0
M  V30 3768 H 374.442 3.76262 1.52255 0
M  V30 3769 H 375.208 4.79372 -0.736721 0
M  V30 3770 H 371.087 4.5858 0.471737 0
M  V30 3771 H 374.631 6.56614 -2.35592 0
M  V30 3772 H 370.528 6.35359 -1.1397 0
M  V30 3773 H 371.296 7.72867 -2.69477 0
M  V30 3774 N 373.959 -0.0401083 1.57549 0
M  V30 3775 C 375.207 -0.731677 1.8839 0
M  V30 3776 C 375.528 -1.76481 0.829425 0
M  V30 3777 O 374.798 -1.95411 -0.1383 0
M  V30 3778 H 373.378 -0.273225 0.695239 0
M  V30 3779 H 376.04 -0.00867725 1.94898 0
M  V30 3780 H 375.136 -1.22816 2.86919 0
M  V30 3781 N 375.437 -1.54477 -0.31217 0
M  V30 3782 C 376.714 -1.63891 -1.06767 0
M  V30 3783 C 377.094 -0.480028 -2.0557 0
M  V30 3784 O 376.442 0.524487 -2.22399 0
M  V30 3785 C 376.652 -3.01402 -1.75948 0
M  V30 3786 C 378 -3.57838 -2.28554 0
M  V30 3787 O 379.024 -3.03782 -1.85998 0
M  V30 3788 O 377.883 -4.52462 -3.06497 0
M  V30 3789 H 374.977 -0.664125 -0.492816 0
M  V30 3790 H 377.523 -1.66823 -0.311149 0
M  V30 3791 H 376.295 -3.77187 -1.04144 0
M  V30 3792 H 375.918 -3.02199 -2.58383 0
M  V30 3793 N 376.915 0.57481 -1.46744 0
M  V30 3794 C 377.848 1.69827 -1.52427 0
M  V30 3795 C 378.826 1.58151 -0.377744 0
M  V30 3796 O 380.01 1.79257 -0.58303 0
M  V30 3797 C 377.137 3.07943 -1.41027 0
M  V30 3798 C 376.183 3.38116 -2.59961 0
M  V30 3799 S 377.016 3.29313 -4.22272 0
M  V30 3800 C 378.172 4.69953 -4.13394 0
M  V30 3801 H 378.405 1.64748 -2.47478 0
M  V30 3802 H 375.938 0.754203 -1.34726 0
M  V30 3803 H 377.896 3.87619 -1.35137 0
M  V30 3804 H 376.557 3.10504 -0.473909 0
M  V30 3805 H 375.75 4.38762 -2.47999 0
M  V30 3806 H 375.352 2.66024 -2.62882 0
M  V30 3807 H 377.644 5.60517 -3.80562 0
M  V30 3808 H 378.587 4.86972 -5.14066 0
M  V30 3809 H 378.995 4.47174 -3.44522 0
M  V30 3810 N 378.394 1.34581 0.820102 0
M  V30 3811 C 379.342 1.26401 1.95258 0
M  V30 3812 C 380.336 0.161553 1.68628 0
M  V30 3813 O 381.542 0.326703 1.7701 0
M  V30 3814 H 377.917 0.392749 0.64129 0
M  V30 3815 H 379.888 2.22105 1.99279 0
M  V30 3816 C 378.637 1.03919 3.31807 0
M  V30 3817 H 377.96 1.87984 3.52848 0
M  V30 3818 H 379.4 1.02232 4.11491 0
M  V30 3819 C 377.859 -0.257433 3.35915 0
M  V30 3820 O 378.389 -1.25784 3.81499 0
M  V30 3821 N 376.595 -0.291524 2.89134 0
M  V30 3822 H 376.142 0.523161 2.52232 0
M  V30 3823 H 376.1 -1.15883 2.92264 0
M  V30 3824 N 379.872 -1.04064 1.18357 0
M  V30 3825 C 380.805 -2.11618 0.854 0
M  V30 3826 C 381.783 -1.61555 -0.184043 0
M  V30 3827 O 382.967 -1.88395 -0.0630048 0
M  V30 3828 C 380.094 -3.37574 0.27597 0
M  V30 3829 C 379.14 -4.06485 1.2912 0
M  V30 3830 S 379.973 -4.53543 2.84709 0
M  V30 3831 C 381.129 -5.82732 2.28417 0
M  V30 3832 H 381.362 -2.39247 1.76488 0
M  V30 3833 H 378.895 -1.16832 1.00944 0
M  V30 3834 H 380.853 -4.10468 -0.051026 0
M  V30 3835 H 379.514 -3.0806 -0.613028 0
M  V30 3836 H 378.707 -4.97024 0.835633 0
M  V30 3837 H 378.309 -3.39708 1.56443 0
M  V30 3838 H 380.601 -6.56677 1.66677 0
M  V30 3839 H 381.544 -6.33052 3.17256 0
M  V30 3840 H 381.952 -5.37838 1.71436 0
M  V30 3841 N 381.35 -0.985608 -1.22978 0
M  V30 3842 C 382.26 -0.538548 -2.28335 0
M  V30 3843 C 383.276 0.409163 -1.69121 0
M  V30 3844 O 384.452 0.277797 -1.99475 0
M  V30 3845 C 381.517 0.146867 -3.46389 0
M  V30 3846 C 380.578 -0.842896 -4.20944 0
M  V30 3847 C 379.811 -0.190095 -5.33361 0
M  V30 3848 O 380.034 1.01767 -5.61248 0
M  V30 3849 O 378.968 -0.891289 -5.95264 0
M  V30 3850 H 382.794 -1.41487 -2.68729 0
M  V30 3851 H 380.379 -0.753495 -1.29007 0
M  V30 3852 H 382.261 0.531125 -4.1804 0
M  V30 3853 H 380.936 0.997871 -3.07935 0
M  V30 3854 H 379.843 -1.27795 -3.51595 0
M  V30 3855 H 381.176 -1.66287 -4.6326 0
M  V30 3856 N 382.828 1.3818 -0.7579 0
M  V30 3857 C 383.776 2.32277 -0.122482 0
M  V30 3858 C 384.77 1.54238 0.700505 0
M  V30 3859 O 385.976 1.69737 0.599119 0
M  V30 3860 H 382.351 0.751712 -0.0208143 0
M  V30 3861 H 384.322 2.83469 -0.932099 0
M  V30 3862 C 383.071 3.39447 0.753076 0
M  V30 3863 H 382.394 3.99591 0.129184 0
M  V30 3864 H 383.834 4.07684 1.16489 0
M  V30 3865 C 382.293 2.78375 1.8976 0
M  V30 3866 O 382.823 2.68025 2.99208 0
M  V30 3867 N 381.029 2.36121 1.69397 0
M  V30 3868 H 380.576 2.4474 0.803762 0
M  V30 3869 H 380.534 1.95602 2.46145 0
M  V30 3870 N 384.306 0.507319 1.49211 0
M  V30 3871 C 385.531 -0.033725 2.07373 0
M  V30 3872 C 385.956 -1.29485 1.36437 0
M  V30 3873 O 385.314 -1.76294 0.423087 0
M  V30 3874 C 385.362 -0.263945 3.59633 0
M  V30 3875 O 384.466 -1.33737 3.90113 0
M  V30 3876 H 383.807 0.0290331 0.663365 0
M  V30 3877 H 386.337 0.708749 1.91932 0
M  V30 3878 H 386.347 -0.493536 4.05004 0
M  V30 3879 H 385.022 0.657424 4.10671 0
M  V30 3880 H 383.599 -1.09224 3.56545 0
M  V30 3881 N 385.784 -1.5574 0.241426 0
M  V30 3882 C 387.012 -2.03208 -0.389134 0
M  V30 3883 C 387.427 -1.12082 -1.51931 0
M  V30 3884 O 386.784 -0.134183 -1.82006 0
M  V30 3885 C 386.835 -3.50064 -0.902087 0
M  V30 3886 O 386.556 -4.37717 0.18305 0
M  V30 3887 C 388.057 -4.13268 -1.60389 0
M  V30 3888 H 385.277 -0.664509 -0.0931053 0
M  V30 3889 H 387.821 -2.0124 0.36369 0
M  V30 3890 H 385.976 -3.52583 -1.60511 0
M  V30 3891 H 386.39 -5.24097 -0.205579 0
M  V30 3892 H 387.864 -5.17733 -1.91458 0
M  V30 3893 H 388.341 -3.59434 -2.52397 0
M  V30 3894 H 388.947 -4.14655 -0.945576 0
M  V30 3895 N 387.262 0.0317525 -1.57568 0
M  V30 3896 C 388.21 1.05165 -2.07468 0
M  V30 3897 C 389.204 1.3761 -0.98792 0
M  V30 3898 O 390.41 1.36546 -1.17282 0
M  V30 3899 H 386.785 0.35666 -0.66204 0
M  V30 3900 H 388.756 0.604958 -2.92203 0
M  V30 3901 C 387.505 2.34488 -2.56731 0
M  V30 3902 H 386.828 2.10383 -3.39969 0
M  V30 3903 H 388.268 3.04203 -2.95358 0
M  V30 3904 C 386.727 3.03266 -1.46736 0
M  V30 3905 O 387.257 3.92988 -0.832069 0
M  V30 3906 N 385.463 2.6455 -1.20256 0
M  V30 3907 H 385.01 1.91674 -1.72102 0
M  V30 3908 H 384.968 3.10886 -0.468737 0
M  V30 3909 N 388.74 1.54641 0.303973 0
M  V30 3910 C 390.017 1.64455 1.05896 0
M  V30 3911 C 390.397 0.490923 2.05312 0
M  V30 3912 O 389.745 -0.512685 2.22674 0
M  V30 3913 C 389.955 3.02331 1.74347 0
M  V30 3914 C 391.303 3.59045 2.26653 0
M  V30 3915 O 392.327 3.04764 1.84384 0
M  V30 3916 O 391.186 4.54081 3.04093 0
M  V30 3917 H 388.28 0.666729 0.489287 0
M  V30 3918 H 390.826 1.66986 0.302298 0
M  V30 3919 H 389.598 3.77734 1.02142 0
M  V30 3920 H 389.221 3.03565 2.56777 0
M  V30 3921 N 390.218 -0.567019 1.47046 0
M  V30 3922 C 391.629 -1.14916 1.47143 0
M  V30 3923 C 391.98 -1.94954 0.220767 0
M  V30 3924 O 391.105 -2.05602 -0.67505 0
M  V30 3925 C 391.7 -2.09069 2.666 0
M  V30 3926 C 390.259 -2.62575 2.69687 0
M  V30 3927 C 389.406 -1.38755 2.40088 0
M  V30 3928 H 392.357 -0.354126 1.54699 0
M  V30 3929 H 392.378 -2.92789 2.43011 0
M  V30 3930 H 391.89 -1.50789 3.57609 0
M  V30 3931 H 389.991 -3.24681 1.82792 0
M  V30 3932 H 390.104 -3.04239 3.70102 0
M  V30 3933 H 388.468 -1.69098 1.90468 0
M  V30 3934 H 389.251 -0.822822 3.33293 0
M  V30 3935 N 391.696 -1.35014 -0.812953 0
M  V30 3936 C 392.942 -1.2812 -1.57204 0
M  V30 3937 C 393.275 0.145869 -1.93651 0
M  V30 3938 O 392.55 1.0937 -1.60836 0
M  V30 3939 C 392.833 -2.18162 -2.86492 0
M  V30 3940 C 392.686 -3.69454 -2.56561 0
M  V30 3941 C 394.005 -2.07439 -3.88145 0
M  V30 3942 H 391.124 -0.466746 -0.570366 0
M  V30 3943 H 393.766 -1.65357 -0.935783 0
M  V30 3944 H 391.916 -1.86535 -3.40789 0
M  V30 3945 H 393.588 -4.11493 -2.08497 0
M  V30 3946 H 391.831 -3.9005 -1.89851 0
M  V30 3947 H 392.502 -4.27835 -3.48799 0
M  V30 3948 H 394.978 -2.35228 -3.4323 0
M  V30 3949 H 393.854 -2.7265 -4.76396 0
M  V30 3950 H 394.115 -1.05439 -4.29343 0
M  V30 3951 N 393.175 1.03435 -1.18907 0
M  V30 3952 C 394.403 1.80381 -1.01342 0
M  V30 3953 C 394.818 1.83649 0.438005 0
M  V30 3954 O 394.175 1.27655 1.30424 0
M  V30 3955 C 394.226 3.25689 -1.56873 0
M  V30 3956 O 393.947 3.22673 -2.96334 0
M  V30 3957 C 395.448 4.19255 -1.44014 0
M  V30 3958 H 392.668 0.56784 -0.35749 0
M  V30 3959 H 395.212 1.30317 -1.576 0
M  V30 3960 H 393.367 3.72962 -1.04777 0
M  V30 3961 H 393.781 4.13748 -3.22355 0
M  V30 3962 H 395.255 5.19123 -1.87657 0
M  V30 3963 H 395.732 4.37467 -0.389815 0
M  V30 3964 H 396.338 3.77851 -1.95214 0
M  V30 3965 N 394.653 0.992116 1.22453 0
M  V30 3966 C 395.601 0.534644 2.26372 0
M  V30 3967 C 396.595 -0.414293 1.64256 0
M  V30 3968 O 397.801 -0.286899 1.77699 0
M  V30 3969 H 394.176 0.154502 0.735957 0
M  V30 3970 H 396.147 1.42256 2.62309 0
M  V30 3971 C 394.896 -0.135815 3.47435 0
M  V30 3972 H 394.219 0.585311 3.95492 0
M  V30 3973 H 395.659 -0.419374 4.21921 0
M  V30 3974 C 394.118 -1.37089 3.07747 0
M  V30 3975 O 394.648 -2.46629 3.17076 0
M  V30 3976 N 392.854 -1.24585 2.62539 0
M  V30 3977 H 392.401 -0.354542 2.55149 0
M  V30 3978 H 392.359 -2.07327 2.36353 0
M  V30 3979 N 396.131 -1.37776 0.765217 0
M  V30 3980 C 397.38 -1.99092 0.323307 0
M  V30 3981 C 397.693 -1.61434 -1.10446 0
M  V30 3982 O 398.899 -2.15805 -1.64743 0
M  V30 3983 C 397.355 -3.56019 0.527098 0
M  V30 3984 C 396.963 -4.0262 1.96471 0
M  V30 3985 C 398.707 -4.2424 0.148483 0
M  V30 3986 C 396.614 -5.52233 2.11644 0
M  V30 3987 H 395.544 -0.744846 0.117137 0
M  V30 3988 H 398.195 -1.57391 0.943417 0
M  V30 3989 H 396.577 -3.95667 -0.162372 0
M  V30 3990 H 397.751 -3.74234 2.68859 0
M  V30 3991 H 396.066 -3.47161 2.29931 0
M  V30 3992 H 398.663 -5.34159 0.240456 0
M  V30 3993 H 399.006 -4.06446 -0.900422 0
M  V30 3994 H 399.539 -3.89872 0.79025 0
M  V30 3995 H 396.278 -5.74945 3.1483 0
M  V30 3996 H 395.798 -5.82324 1.4373 0
M  V30 3997 H 397.477 -6.18106 1.91193 0
M  V30 3998 N 397.609 -0.515225 -1.4894 0
M  V30 3999 C 398.849 0.0223983 -2.04388 0
M  V30 4000 C 399.213 1.32961 -1.38511 0
M  V30 4001 O 400.414 1.95236 -1.8476 0
M  V30 4002 C 398.685 0.157056 -3.57055 0
M  V30 4003 S 400.244 0.646875 -4.34006 0
M  V30 4004 H 397.062 -0.00500662 -0.710982 0
M  V30 4005 H 399.664 -0.69243 -1.82827 0
M  V30 4006 H 398.368 -0.799412 -4.02539 0
M  V30 4007 H 397.899 0.896704 -3.83044 0
M  V30 4008 H 399.914 1.91381 -4.57808 0
M  V30 4009 N 399.087 1.5561 -0.249682 0
M  V30 4010 C 400.037 2.18157 0.662673 0
M  V30 4011 C 401.021 1.1383 1.13717 0
M  V30 4012 O 402.213 1.39731 1.08648 0
M  V30 4013 C 399.342 2.88672 1.85805 0
M  V30 4014 C 398.428 4.00258 1.40193 0
M  V30 4015 N 398.819 5.01473 0.660213 0
M  V30 4016 C 397.117 4.12864 1.68698 0
M  V30 4017 C 397.818 5.80155 0.423695 0
M  V30 4018 N 396.794 5.34533 0.988721 0
M  V30 4019 H 400.596 2.93769 0.0878688 0
M  V30 4020 H 398.11 1.62316 -0.0521183 0
M  V30 4021 H 400.107 3.31912 2.5227 0
M  V30 4022 H 398.767 2.14564 2.43705 0
M  V30 4023 H 399.778 5.16971 0.310047 0
M  V30 4024 H 396.455 3.4993 2.27717 0
M  V30 4025 H 397.845 6.71688 -0.168616 0
M  V30 4026 N 400.565 -0.0233959 1.57583 0
M  V30 4027 C 401.528 -1.00693 2.05897 0
M  V30 4028 C 402.528 -1.28693 0.964092 0
M  V30 4029 O 403.718 -1.23602 1.22753 0
M  V30 4030 C 400.85 -2.33825 2.4807 0
M  V30 4031 H 402.043 -0.589476 2.9405 0
M  V30 4032 H 399.596 -0.270354 1.53944 0
M  V30 4033 H 400.331 -2.80307 1.6309 0
M  V30 4034 H 400.116 -2.1483 3.2801 0
M  V30 4035 H 401.606 -3.04426 2.85857 0
M  V30 4036 N 402.043 -1.548 -0.295768 0
M  V30 4037 C 403.006 -1.85363 -1.34808 0
M  V30 4038 C 404.006 -0.726817 -1.43436 0
M  V30 4039 O 405.196 -0.995088 -1.42981 0
M  V30 4040 C 402.328 -2.03859 -2.73229 0
M  V30 4041 H 403.521 -2.7941 -1.08949 0
M  V30 4042 H 401.074 -1.46942 -0.532702 0
M  V30 4043 H 401.809 -1.12117 -3.04303 0
M  V30 4044 H 401.594 -2.8588 -2.68356 0
M  V30 4045 H 403.084 -2.28857 -3.49305 0
M  V30 4046 N 403.521 0.559213 -1.47345 0
M  V30 4047 C 404.798 1.31997 -1.44348 0
M  V30 4048 C 405.178 2.1064 -0.139358 0
M  V30 4049 O 404.526 2.1091 0.879153 0
M  V30 4050 C 404.736 2.22618 -2.68779 0
M  V30 4051 C 406.084 2.83701 -3.1591 0
M  V30 4052 O 407.108 2.32921 -2.69493 0
M  V30 4053 O 405.967 3.75993 -3.966 0
M  V30 4054 H 403.061 0.594251 -0.575147 0
M  V30 4055 H 405.607 0.578282 -1.59543 0
M  V30 4056 H 404.379 1.64093 -3.55231 0
M  V30 4057 H 404.002 3.04085 -2.5616 0
M  V30 4058 N 404.999 1.35443 0.805782 0
M  V30 4059 C 405.946 1.28431 1.91766 0
M  V30 4060 C 406.916 0.156102 1.65365 0
M  V30 4061 O 408.101 0.339936 1.87747 0
M  V30 4062 C 405.241 1.06301 3.2832 0
M  V30 4063 C 404.354 2.2805 3.66902 0
M  V30 4064 C 403.489 1.99064 4.92491 0
M  V30 4065 C 402.528 3.16863 5.23703 0
M  V30 4066 N 401.665 2.87647 6.40471 0
M  V30 4067 H 406.505 2.23511 1.97096 0
M  V30 4068 H 404.042 1.11105 0.964054 0
M  V30 4069 H 406 0.915012 4.07042 0
M  V30 4070 H 404.63 0.148822 3.22457 0
M  V30 4071 H 403.682 2.53711 2.83434 0
M  V30 4072 H 404.994 3.1601 3.85927 0
M  V30 4073 H 404.148 1.81099 5.7904 0
M  V30 4074 H 402.887 1.0839 4.75503 0
M  V30 4075 H 401.892 3.35404 4.35642 0
M  V30 4076 H 403.117 4.08339 5.4262 0
M  V30 4077 H 401.063 1.99568 6.24907 0
M  V30 4078 H 400.98 3.69141 6.59751 0
M  V30 4079 H 402.248 2.73226 7.30047 0
M  V30 4080 N 406.477 -1.02803 1.19454 0
M  V30 4081 C 407.409 -2.11181 0.890807 0
M  V30 4082 C 408.422 -1.6238 -0.116829 0
M  V30 4083 O 409.611 -1.78144 0.112694 0
M  V30 4084 C 406.711 -3.37461 0.311942 0
M  V30 4085 C 405.884 -4.15446 1.36834 0
M  V30 4086 C 404.943 -5.20039 0.802864 0
M  V30 4087 O 403.969 -5.49602 1.48077 0
M  V30 4088 N 405.171 -5.79165 -0.393417 0
M  V30 4089 H 407.936 -2.37827 1.82369 0
M  V30 4090 H 405.497 -1.19101 1.09666 0
M  V30 4091 H 407.489 -4.0462 -0.0802225 0
M  V30 4092 H 406.059 -3.08156 -0.52524 0
M  V30 4093 H 405.279 -3.43423 1.93531 0
M  V30 4094 H 406.567 -4.64335 2.08015 0
M  V30 4095 H 405.965 -5.57466 -0.961658 0
M  V30 4096 H 404.522 -6.47729 -0.727351 0
M  V30 4097 N 407.956 -0.998596 -1.21925 0
M  V30 4098 C 408.886 -0.573688 -2.26343 0
M  V30 4099 C 409.867 0.402296 -1.65274 0
M  V30 4100 O 411.052 0.291683 -1.91997 0
M  V30 4101 C 408.182 0.106839 -3.47136 0
M  V30 4102 C 407.136 -0.788269 -4.20678 0
M  V30 4103 C 406.462 0.0254927 -5.34694 0
M  V30 4104 C 407.762 -2.08784 -4.78755 0
M  V30 4105 H 409.456 -1.44651 -2.62138 0
M  V30 4106 H 407.002 -0.696975 -1.26009 0
M  V30 4107 H 408.955 0.415531 -4.19346 0
M  V30 4108 H 407.679 1.01424 -3.10452 0
M  V30 4109 H 406.338 -1.08069 -3.50309 0
M  V30 4110 H 405.986 0.933989 -4.94253 0
M  V30 4111 H 405.686 -0.570437 -5.84825 0
M  V30 4112 H 407.21 0.328147 -6.09718 0
M  V30 4113 H 408.624 -1.84272 -5.42878 0
M  V30 4114 H 407.021 -2.63307 -5.39249 0
M  V30 4115 H 408.091 -2.76284 -3.98491 0
M  V30 4116 N 409.434 1.37368 -0.772513 0
M  V30 4117 C 410.681 1.99673 -0.337182 0
M  V30 4118 C 411.009 1.61324 1.0865 0
M  V30 4119 O 410.264 0.851377 1.7621 0
M  V30 4120 C 410.563 3.54817 -0.428876 0
M  V30 4121 C 410.229 4.12936 -1.81092 0
M  V30 4122 C 408.891 4.28523 -2.1891 0
M  V30 4123 C 411.243 4.44801 -2.71664 0
M  V30 4124 C 408.571 4.73277 -3.46735 0
M  V30 4125 C 410.923 4.90981 -3.98899 0
M  V30 4126 C 409.587 5.04773 -4.36761 0
M  V30 4127 H 408.857 0.730656 -0.123384 0
M  V30 4128 H 411.504 1.64124 -0.986686 0
M  V30 4129 H 409.809 3.90618 0.304167 0
M  V30 4130 H 411.506 4.00933 -0.0733334 0
M  V30 4131 H 408.096 4.01233 -1.50699 0
M  V30 4132 H 412.28 4.32344 -2.43706 0
M  V30 4133 H 407.536 4.82142 -3.75964 0
M  V30 4134 H 411.71 5.14603 -4.69208 0
M  V30 4135 H 409.337 5.39211 -5.35868 0
M  V30 4136 N 410.912 0.523116 1.48665 0
M  V30 4137 C 412.14 -0.0096312 2.06898 0
M  V30 4138 C 412.555 -1.28784 1.38059 0
M  V30 4139 O 411.912 -1.76453 0.465893 0
M  V30 4140 C 411.963 -0.244386 3.60673 0
M  V30 4141 O 411.684 0.983172 4.26925 0
M  V30 4142 C 413.185 -0.818289 4.35682 0
M  V30 4143 H 410.405 0.0304161 0.67031 0
M  V30 4144 H 412.949 0.726799 1.91149 0
M  V30 4145 H 411.104 -0.930847 3.76051 0
M  V30 4146 H 411.518 0.759653 5.1897 0
M  V30 4147 H 412.992 -0.93201 5.44075 0
M  V30 4148 H 413.469 -1.82153 3.99646 0
M  V30 4149 H 414.075 -0.168609 4.24966 0
M  V30 4150 N 412.39 -1.55475 0.257931 0
M  V30 4151 C 413.32 -2.24815 -0.630912 0
M  V30 4152 C 414.301 -1.23224 -1.17259 0
M  V30 4153 O 415.486 -1.51904 -1.20991 0
M  V30 4154 C 412.616 -2.95609 -1.82298 0
M  V30 4155 C 411.57 -4.03982 -1.41359 0
M  V30 4156 C 410.896 -4.6226 -2.68738 0
M  V30 4157 C 412.196 -5.19109 -0.57648 0
M  V30 4158 H 413.89 -2.99354 -0.0526878 0
M  V30 4159 H 411.436 -1.4398 -0.023901 0
M  V30 4160 H 413.389 -3.42822 -2.45054 0
M  V30 4161 H 412.113 -2.18577 -2.42676 0
M  V30 4162 H 410.772 -3.57555 -0.809324 0
M  V30 4163 H 410.42 -3.81915 -3.27338 0
M  V30 4164 H 410.12 -5.35424 -2.42065 0
M  V30 4165 H 411.644 -5.12212 -3.32372 0
M  V30 4166 H 413.058 -5.62479 -1.10861 0
M  V30 4167 H 411.455 -5.98729 -0.405351 0
M  V30 4168 H 412.525 -4.83174 0.408776 0
M  V30 4169 N 413.868 0.0150385 -1.57593 0
M  V30 4170 C 415.114 0.704043 -1.90187 0
M  V30 4171 C 415.447 1.74249 -0.857366 0
M  V30 4172 O 414.722 1.94092 0.125843 0
M  V30 4173 C 415.005 1.36087 -3.33395 0
M  V30 4174 C 414.858 0.334981 -4.48551 0
M  V30 4175 C 416.177 2.29112 -3.7576 0
M  V30 4176 H 413.296 0.254475 -0.691673 0
M  V30 4177 H 415.938 -0.0331678 -1.89971 0
M  V30 4178 H 414.088 1.98922 -3.3371 0
M  V30 4179 H 415.76 -0.292534 -4.60372 0
M  V30 4180 H 414.003 -0.344325 -4.32431 0
M  V30 4181 H 414.674 0.833316 -5.45674 0
M  V30 4182 H 417.15 1.76308 -3.76902 0
M  V30 4183 H 416.026 2.72043 -4.76743 0
M  V30 4184 H 416.287 3.16385 -3.08793 0
M  V30 4185 N 415.346 1.54954 0.287554 0
M  V30 4186 C 416.256 1.8991 1.37736 0
M  V30 4187 C 417.272 0.794701 1.54792 0
M  V30 4188 O 418.448 1.09243 1.69198 0
M  V30 4189 C 415.513 2.15108 2.71899 0
M  V30 4190 C 414.574 3.38752 2.63715 0
M  V30 4191 C 413.807 3.62739 3.91479 0
M  V30 4192 O 414.03 2.89492 4.91478 0
M  V30 4193 O 412.964 4.56267 3.92561 0
M  V30 4194 H 416.79 2.82652 1.11092 0
M  V30 4195 H 414.375 1.41315 0.484807 0
M  V30 4196 H 416.257 2.32806 3.51254 0
M  V30 4197 H 414.932 1.25551 2.9836 0
M  V30 4198 H 413.839 3.26405 1.82786 0
M  V30 4199 H 415.172 4.28483 2.42205 0
M  V30 4200 N 416.824 -0.551391 1.4764 0
M  V30 4201 C 418.07 -1.30789 1.55774 0
M  V30 4202 C 418.425 -1.91143 0.219562 0
M  V30 4203 O 417.718 -1.7521 -0.775375 0
M  V30 4204 C 417.912 -2.43469 2.61644 0
M  V30 4205 C 417.741 -1.94157 4.05627 0
M  V30 4206 C 416.511 -1.77734 4.7301 0
M  V30 4207 C 418.709 -1.48262 4.92466 0
M  V30 4208 N 416.691 -1.22823 6.01488 0
M  V30 4209 C 418.062 -1.05156 6.11017 0
M  V30 4210 C 420.117 -1.36367 4.78862 0
M  V30 4211 C 418.82 -0.513357 7.17466 0
M  V30 4212 C 420.846 -0.839484 5.85411 0
M  V30 4213 C 420.208 -0.418377 7.03156 0
M  V30 4214 H 416.307 -0.470406 0.624694 0
M  V30 4215 H 418.891 -0.624331 1.84419 0
M  V30 4216 H 417.062 -3.09348 2.34859 0
M  V30 4217 H 418.794 -3.10477 2.59589 0
M  V30 4218 H 415.549 -2.00623 4.29007 0
M  V30 4219 H 415.973 -0.974393 6.69951 0
M  V30 4220 H 420.615 -1.67535 3.88191 0
M  V30 4221 H 418.333 -0.189318 8.07878 0
M  V30 4222 H 421.919 -0.750921 5.76934 0
M  V30 4223 H 420.799 -0.0190538 7.84198 0
M  V30 4224 N 418.302 -1.35869 -0.798587 0
M  V30 4225 C 419.265 -1.29307 -1.89242 0
M  V30 4226 C 420.265 -0.202747 -1.59517 0
M  V30 4227 O 421.455 -0.456957 -1.681 0
M  V30 4228 C 418.587 -1.00229 -3.25833 0
M  V30 4229 H 419.78 -2.26576 -1.96478 0
M  V30 4230 H 417.333 -1.20509 -0.995358 0
M  V30 4231 H 418.068 -0.033801 -3.24282 0
M  V30 4232 H 417.853 -1.79121 -3.48795 0
M  V30 4233 H 419.343 -0.98219 -4.05885 0
M  V30 4234 N 419.78 1.02168 -1.19998 0
M  V30 4235 C 420.727 2.10601 -0.944228 0
M  V30 4236 C 421.697 1.65639 0.123664 0
M  V30 4237 O 422.882 1.9079 -0.0199941 0
M  V30 4238 C 420.022 3.41504 -0.496865 0
M  V30 4239 C 419.135 3.99973 -1.63234 0
M  V30 4240 C 418.27 5.18915 -1.13579 0
M  V30 4241 C 417.309 5.69456 -2.24468 0
M  V30 4242 N 416.446 6.79665 -1.76068 0
M  V30 4243 H 421.286 2.31814 -1.8726 0
M  V30 4244 H 418.823 1.13686 -0.933483 0
M  V30 4245 H 420.781 4.16626 -0.218843 0
M  V30 4246 H 419.411 3.2038 0.394508 0
M  V30 4247 H 418.463 3.21997 -2.0254 0
M  V30 4248 H 419.775 4.33492 -2.46752 0
M  V30 4249 H 418.929 6.01222 -0.813429 0
M  V30 4250 H 417.668 4.8695 -0.270434 0
M  V30 4251 H 416.673 4.85757 -2.57526 0
M  V30 4252 H 417.898 6.03459 -3.11472 0
M  V30 4253 H 415.844 6.49538 -0.918516 0
M  V30 4254 H 415.761 7.12349 -2.5317 0
M  V30 4255 H 417.029 7.65549 -1.46817 0
M  V30 4256 N 421.258 1.00505 1.21394 0
M  V30 4257 C 422.674 0.717873 1.42544 0
M  V30 4258 C 422.874 -0.706936 1.88692 0
M  V30 4259 O 421.93 -1.47627 2.04847 0
M  V30 4260 C 423.243 1.73377 2.45684 0
M  V30 4261 C 424.791 1.75059 2.59467 0
M  V30 4262 C 425.266 2.75545 3.6584 0
M  V30 4263 N 426.757 2.74213 3.73311 0
M  V30 4264 C 427.492 3.48626 4.55245 0
M  V30 4265 N 426.988 4.32678 5.41075 0
M  V30 4266 N 428.781 3.37276 4.49668 0
M  V30 4267 H 420.932 1.92506 0.897503 0
M  V30 4268 H 423.195 0.830919 0.456375 0
M  V30 4269 H 422.901 2.75395 2.18748 0
M  V30 4270 H 422.775 1.53647 3.44489 0
M  V30 4271 H 425.162 0.737337 2.8574 0
M  V30 4272 H 425.243 1.98861 1.60897 0
M  V30 4273 H 424.887 3.77028 3.40313 0
M  V30 4274 H 424.817 2.49009 4.64007 0
M  V30 4275 H 427.308 2.13234 3.11993 0
M  V30 4276 H 427.621 4.86253 6.00648 0
M  V30 4277 H 425.966 4.3676 5.40616 0
M  V30 4278 H 429.157 2.71043 3.81646 0
M  V30 4279 H 429.33 3.95524 5.13288 0
M  V30 4280 N 422.737 -1.36956 0.779787 0
M  V30 4281 C 423.986 -1.98738 0.344405 0
M  V30 4282 C 424.299 -1.62596 -1.08728 0
M  V30 4283 O 425.505 -2.1754 -1.62445 0
M  V30 4284 C 423.961 -3.5544 0.564829 0
M  V30 4285 C 423.569 -4.00514 2.0073 0
M  V30 4286 C 425.313 -4.24059 0.193471 0
M  V30 4287 C 423.22 -5.49957 2.17489 0
M  V30 4288 H 422.15 -0.743561 0.12503 0
M  V30 4289 H 424.801 -1.56381 0.960057 0
M  V30 4290 H 423.183 -3.95817 -0.120397 0
M  V30 4291 H 424.357 -3.71362 2.72814 0
M  V30 4292 H 422.672 -3.44703 2.336 0
M  V30 4293 H 425.269 -5.33874 0.297097 0
M  V30 4294 H 425.612 -4.07378 -0.857263 0
M  V30 4295 H 426.145 -3.89012 0.831556 0
M  V30 4296 H 422.884 -5.71574 3.2091 0
M  V30 4297 H 422.404 -5.80767 1.49899 0
M  V30 4298 H 424.083 -6.16043 1.97738 0
M  V30 4299 N 424.215 -0.530993 -1.48385 0
M  V30 4300 C 425.626 -0.0907905 -1.86479 0
M  V30 4301 C 425.977 1.33213 -1.44044 0
M  V30 4302 O 425.102 1.99783 -0.831615 0
M  V30 4303 C 425.697 -0.157987 -3.38431 0
M  V30 4304 C 424.256 0.227026 -3.75715 0
M  V30 4305 C 423.403 -0.5173 -2.72432 0
M  V30 4306 H 426.354 -0.742186 -1.40276 0
M  V30 4307 H 426.375 0.630053 -3.75247 0
M  V30 4308 H 425.887 -1.19372 -3.69286 0
M  V30 4309 H 423.988 1.26486 -3.50474 0
M  V30 4310 H 424.101 -0.113288 -4.78966 0
M  V30 4311 H 422.465 0.0365527 -2.54674 0
M  V30 4312 H 423.248 -1.55368 -3.0613 0
M  V30 4313 N 425.693 1.55336 -0.266172 0
M  V30 4314 C 426.643 2.18848 0.639497 0
M  V30 4315 C 427.627 1.1503 1.12503 0
M  V30 4316 O 428.819 1.40875 1.0716 0
M  V30 4317 C 425.948 2.90626 1.82733 0
M  V30 4318 C 425.034 4.01723 1.35939 0
M  V30 4319 N 425.425 5.02145 0.606988 0
M  V30 4320 C 423.723 4.1463 1.6431 0
M  V30 4321 C 424.424 5.80572 0.362138 0
M  V30 4322 N 423.4 5.35551 0.931971 0
M  V30 4323 H 427.202 2.93845 0.0567057 0
M  V30 4324 H 424.716 1.62252 -0.0693312 0
M  V30 4325 H 426.713 3.34569 2.48735 0
M  V30 4326 H 425.373 2.17137 2.41416 0
M  V30 4327 H 426.384 5.17271 0.255198 0
M  V30 4328 H 423.061 3.52326 2.23993 0
M  V30 4329 H 424.451 6.71472 -0.239848 0
M  V30 4330 N 427.171 -0.0066808 1.57599 0
M  V30 4331 C 428.418 -0.69292 1.90276 0
M  V30 4332 C 428.746 -1.74148 0.866192 0
M  V30 4333 O 428.001 -1.95268 -0.129933 0
M  V30 4334 C 428.3 -1.37939 3.29708 0
M  V30 4335 C 427.966 -0.464679 4.48499 0
M  V30 4336 C 426.628 -0.212809 4.80729 0
M  V30 4337 C 428.98 0.16551 5.20937 0
M  V30 4338 C 426.308 0.677653 5.82773 0
M  V30 4339 C 428.66 1.04381 6.23929 0
M  V30 4340 C 427.324 1.30492 6.54621 0
M  V30 4341 H 426.594 -0.253558 0.696268 0
M  V30 4342 H 429.241 0.0474123 1.91441 0
M  V30 4343 H 427.546 -2.1936 3.24636 0
M  V30 4344 H 429.243 -1.9163 3.52249 0
M  V30 4345 H 425.833 -0.671153 4.23313 0
M  V30 4346 H 430.017 -0.0160756 4.96297 0
M  V30 4347 H 425.273 0.88803 6.04917 0
M  V30 4348 H 429.447 1.53851 6.79193 0
M  V30 4349 H 427.074 1.99662 7.33512 0
M  V30 4350 N 428.649 -1.55105 -0.279332 0
M  V30 4351 C 429.874 -1.7976 -1.03446 0
M  V30 4352 C 430.299 -0.565952 -1.79384 0
M  V30 4353 O 429.657 0.484259 -1.74713 0
M  V30 4354 C 429.705 -3.0179 -1.97371 0
M  V30 4355 O 428.809 -2.76432 -3.06038 0
M  V30 4356 H 428.15 -0.594334 -0.29608 0
M  V30 4357 H 430.68 -2.02235 -0.310165 0
M  V30 4358 H 430.69 -3.30351 -2.39441 0
M  V30 4359 H 429.365 -3.91085 -1.4151 0
M  V30 4360 H 427.942 -2.58949 -2.68328 0
M  V30 4361 N 430.127 0.543554 -1.4793 0
M  V30 4362 C 431.404 1.30458 -1.4574 0
M  V30 4363 C 431.784 2.1048 -0.161692 0
M  V30 4364 O 431.132 2.11831 0.856734 0
M  V30 4365 C 431.342 2.19754 -2.71126 0
M  V30 4366 C 432.69 2.80334 -3.18901 0
M  V30 4367 O 433.714 2.30049 -2.71948 0
M  V30 4368 O 432.573 3.71766 -4.00565 0
M  V30 4369 H 429.667 0.588117 -0.581418 0
M  V30 4370 H 432.213 0.561328 -1.60147 0
M  V30 4371 H 430.985 1.60316 -3.56952 0
M  V30 4372 H 430.608 3.01351 -2.59371 0
M  V30 4373 N 431.605 1.3629 0.791371 0
M  V30 4374 C 432.535 1.33137 1.91825 0
M  V30 4375 C 433.516 0.203168 1.68882 0
M  V30 4376 O 434.701 0.400509 1.90025 0
M  V30 4377 C 431.831 1.11793 3.28816 0
M  V30 4378 C 430.785 2.21417 3.66277 0
M  V30 4379 C 430.111 1.85218 5.01596 0
M  V30 4380 C 431.411 3.63489 3.75064 0
M  V30 4381 H 433.105 2.2743 1.9472 0
M  V30 4382 H 430.651 1.09479 0.935437 0
M  V30 4383 H 432.604 1.08222 4.07266 0
M  V30 4384 H 431.328 0.139501 3.26302 0
M  V30 4385 H 429.987 2.2411 2.90121 0
M  V30 4386 H 429.635 0.859544 4.95602 0
M  V30 4387 H 429.335 2.58611 5.27631 0
M  V30 4388 H 430.859 1.832 5.82469 0
M  V30 4389 H 432.273 3.63034 4.43711 0
M  V30 4390 H 430.67 4.35771 4.12582 0
M  V30 4391 H 431.74 3.98536 2.76219 0
M  V30 4392 N 433.083 -1.0153 1.20538 0
M  V30 4393 C 434.311 -1.78746 1.04199 0
M  V30 4394 C 434.726 -1.84323 -0.408733 0
M  V30 4395 O 434.083 -1.29714 -1.28377 0
M  V30 4396 C 434.134 -3.23152 1.62035 0
M  V30 4397 O 433.855 -3.17918 3.0143 0
M  V30 4398 C 435.356 -4.16911 1.50666 0
M  V30 4399 H 432.576 -0.56208 0.366479 0
M  V30 4400 H 435.12 -1.27794 1.59653 0
M  V30 4401 H 433.275 -3.71248 1.10697 0
M  V30 4402 H 433.689 -4.08567 3.28897 0
M  V30 4403 H 435.163 -5.16072 1.95892 0
M  V30 4404 H 435.64 -4.36791 0.459363 0
M  V30 4405 H 436.246 -3.74698 2.01201 0
M  V30 4406 N 434.561 -1.01147 -1.20859 0
M  V30 4407 C 435.491 -0.597663 -2.25722 0
M  V30 4408 C 436.472 0.384744 -1.65692 0
M  V30 4409 O 437.657 0.271303 -1.92296 0
M  V30 4410 C 434.787 0.0700149 -3.47229 0
M  V30 4411 C 433.741 -0.832843 -4.19819 0
M  V30 4412 C 433.067 -0.0312202 -5.34691 0
M  V30 4413 C 434.367 -2.1385 -4.76514 0
M  V30 4414 H 436.061 -1.47423 -2.60589 0
M  V30 4415 H 433.607 -0.710301 -1.25263 0
M  V30 4416 H 435.56 0.37103 -4.19763 0
M  V30 4417 H 434.284 0.981259 -3.11511 0
M  V30 4418 H 432.943 -1.11778 -3.49144 0
M  V30 4419 H 432.591 0.881515 -4.95215 0
M  V30 4420 H 432.291 -0.632434 -5.84187 0
M  V30 4421 H 433.815 0.26346 -6.10031 0
M  V30 4422 H 435.229 -1.9002 -5.40893 0
M  V30 4423 H 433.626 -2.69012 -5.36426 0
M  V30 4424 H 434.696 -2.80495 -3.95538 0
M  V30 4425 N 436.039 1.36541 -0.78704 0
M  V30 4426 C 436.949 2.3387 -0.184896 0
M  V30 4427 C 437.965 1.60927 0.661697 0
M  V30 4428 O 439.141 1.92927 0.57804 0
M  V30 4429 C 436.206 3.40122 0.672145 0
M  V30 4430 C 435.267 4.28867 -0.19267 0
M  V30 4431 C 434.5 5.30045 0.623561 0
M  V30 4432 O 434.723 5.39232 1.8597 0
M  V30 4433 O 433.657 6.01895 0.0247068 0
M  V30 4434 H 437.483 2.87126 -0.989562 0
M  V30 4435 H 435.068 1.38969 -0.548455 0
M  V30 4436 H 436.95 4.05093 1.16094 0
M  V30 4437 H 435.625 2.89169 1.45474 0
M  V30 4438 H 434.532 3.66945 -0.728166 0
M  V30 4439 H 435.865 4.83165 -0.938722 0
M  V30 4440 N 437.518 0.538854 1.48102 0
M  V30 4441 C 438.795 -0.0568108 1.95517 0
M  V30 4442 C 439.175 -1.50408 1.48124 0
M  V30 4443 O 438.523 -2.17133 0.711727 0
M  V30 4444 C 438.733 0.0696262 3.48931 0
M  V30 4445 C 440.081 -0.0851202 4.24515 0
M  V30 4446 O 441.105 -0.0037347 3.562 0
M  V30 4447 O 439.964 -0.257025 5.45895 0
M  V30 4448 H 437.058 -0.0743695 0.823649 0
M  V30 4449 H 439.604 0.604081 1.58584 0
M  V30 4450 H 438.376 1.07744 3.76174 0
M  V30 4451 H 437.999 -0.629714 3.92582 0
M  V30 4452 N 438.996 -1.55193 0.274407 0
M  V30 4453 C 439.928 -2.1989 -0.646595 0
M  V30 4454 C 440.941 -1.1834 -1.11801 0
M  V30 4455 O 442.13 -1.4507 -1.04004 0
M  V30 4456 C 439.23 -2.8104 -1.89393 0
M  V30 4457 C 438.403 -4.08274 -1.56943 0
M  V30 4458 C 437.462 -4.53478 -2.66916 0
M  V30 4459 O 436.488 -5.19267 -2.33132 0
M  V30 4460 N 437.69 -4.2356 -3.9696 0
M  V30 4461 H 440.455 -2.99556 -0.0928686 0
M  V30 4462 H 438.016 -1.61618 0.0954783 0
M  V30 4463 H 440.008 -3.08226 -2.62257 0
M  V30 4464 H 438.578 -2.05372 -2.35672 0
M  V30 4465 H 437.798 -3.88384 -0.674655 0
M  V30 4466 H 439.086 -4.91173 -1.32764 0
M  V30 4467 H 438.484 -3.70799 -4.27229 0
M  V30 4468 H 437.041 -4.55518 -4.66205 0
M  V30 4469 N 440.474 -0.00167713 -1.576 0
M  V30 4470 C 441.72 0.683832 -1.90923 0
M  V30 4471 C 442.053 1.7333 -0.875799 0
M  V30 4472 O 441.328 1.94215 0.10525 0
M  V30 4473 C 441.611 1.32543 -3.3482 0
M  V30 4474 C 441.464 0.287387 -4.48881 0
M  V30 4475 C 442.783 2.25114 -3.78169 0
M  V30 4476 H 439.902 0.247125 -0.694333 0
M  V30 4477 H 442.544 -0.0533149 -1.89925 0
M  V30 4478 H 440.694 1.95372 -3.35801 0
M  V30 4479 H 442.366 -0.341346 -4.60035 0
M  V30 4480 H 440.609 -0.39017 -4.32042 0
M  V30 4481 H 441.28 0.775393 -5.46527 0
M  V30 4482 H 443.756 1.723 -3.7875 0
M  V30 4483 H 442.632 2.66971 -4.79602 0
M  V30 4484 H 442.893 3.13092 -3.12131 0
M  V30 4485 N 441.952 1.55251 0.271103 0
M  V30 4486 C 443.201 1.75151 1.00025 0
M  V30 4487 C 443.514 0.561041 1.87381 0
M  V30 4488 O 444.72 0.642506 2.63788 0
M  V30 4489 C 443.176 3.09999 1.82835 0
M  V30 4490 C 442.784 4.3662 1.00336 0
M  V30 4491 C 444.528 3.39249 2.55168 0
M  V30 4492 C 442.435 5.62506 1.82595 0
M  V30 4493 H 441.365 0.652877 0.377183 0
M  V30 4494 H 444.016 1.81708 0.255843 0
M  V30 4495 H 442.398 2.97485 2.61378 0
M  V30 4496 H 443.572 4.60055 0.261959 0
M  V30 4497 H 441.887 4.14527 0.394486 0
M  V30 4498 H 444.484 4.3051 3.1712 0
M  V30 4499 H 444.827 2.59467 3.2555 0
M  V30 4500 H 445.36 3.52869 1.83653 0
M  V30 4501 H 442.099 6.45041 1.16631 0
M  V30 4502 H 441.619 5.43211 2.54327 0
M  V30 4503 H 443.298 6.00875 2.39913 0
M  V30 4504 N 443.43 -0.535701 1.48216 0
M  V30 4505 C 444.36 -1.65014 1.65204 0
M  V30 4506 C 445.341 -1.62554 0.501011 0
M  V30 4507 O 446.526 -1.7984 0.732886 0
M  V30 4508 C 443.656 -3.03616 1.68626 0
M  V30 4509 C 442.61 -3.20932 2.83172 0
M  V30 4510 C 441.936 -4.60537 2.71679 0
M  V30 4511 C 443.236 -3.04249 4.24535 0
M  V30 4512 H 444.93 -1.51053 2.58502 0
M  V30 4513 H 442.476 -0.725262 1.24402 0
M  V30 4514 H 444.429 -3.81446 1.79099 0
M  V30 4515 H 443.153 -3.18587 0.719026 0
M  V30 4516 H 441.812 -2.45517 2.72244 0
M  V30 4517 H 441.46 -4.72336 1.72937 0
M  V30 4518 H 441.16 -4.73069 3.48538 0
M  V30 4519 H 442.684 -5.40475 2.84112 0
M  V30 4520 H 444.098 -3.71877 4.36326 0
M  V30 4521 H 442.495 -3.28278 5.02348 0
M  V30 4522 H 443.565 -2.00739 4.41397 0
M  V30 4523 N 444.908 -1.36708 -0.784132 0
M  V30 4524 C 445.838 -1.34153 -1.91116 0
M  V30 4525 C 446.819 -0.212121 -1.68772 0
M  V30 4526 O 448.004 -0.410581 -1.8981 0
M  V30 4527 C 445.134 -1.13535 -3.28218 0
M  V30 4528 C 444.088 -2.23356 -3.65097 0
M  V30 4529 C 443.414 -1.87875 -5.00607 0
M  V30 4530 C 444.714 -3.65473 -3.73131 0
M  V30 4531 H 446.408 -2.28459 -1.93512 0
M  V30 4532 H 443.954 -1.09973 -0.929618 0
M  V30 4533 H 445.907 -1.10381 -4.06687 0
M  V30 4534 H 444.631 -0.156804 -3.26223 0
M  V30 4535 H 443.29 -2.25645 -2.88929 0
M  V30 4536 H 442.938 -0.885814 -4.95139 0
M  V30 4537 H 442.638 -2.61406 -5.26252 0
M  V30 4538 H 444.162 -1.86286 -5.81489 0
M  V30 4539 H 445.576 -3.65382 -4.41779 0
M  V30 4540 H 443.973 -4.37953 -4.10265 0
M  V30 4541 H 445.043 -3.99995 -2.74102 0
M  V30 4542 N 446.386 1.0089 -1.21074 0
M  V30 4543 C 447.802 1.2695 -0.967257 0
M  V30 4544 C 448.002 1.9846 0.348673 0
M  V30 4545 O 447.058 2.28459 1.0753 0
M  V30 4546 C 448.371 2.09697 -2.15517 0
M  V30 4547 C 449.919 2.22937 -2.197 0
M  V30 4548 C 450.394 3.09064 -3.37999 0
M  V30 4549 N 451.885 3.16653 -3.38061 0
M  V30 4550 C 452.62 3.8354 -4.26245 0
M  V30 4551 N 452.116 4.52488 -5.2462 0
M  V30 4552 N 453.909 3.80141 -4.14064 0
M  V30 4553 H 446.06 0.529005 -2.05707 0
M  V30 4554 H 448.323 0.296148 -0.900556 0
M  V30 4555 H 448.029 1.64497 -3.10859 0
M  V30 4556 H 447.903 3.10444 -2.14253 0
M  V30 4557 H 450.29 2.67357 -1.24916 0
M  V30 4558 H 450.371 1.21673 -2.2501 0
M  V30 4559 H 450.015 2.65347 -4.33074 0
M  V30 4560 H 449.945 4.10433 -3.29928 0
M  V30 4561 H 452.436 2.67566 -2.66865 0
M  V30 4562 H 452.749 5.01219 -5.88217 0
M  V30 4563 H 451.094 4.51288 -5.28549 0
M  V30 4564 H 454.285 3.25427 -3.36474 0
M  V30 4565 H 454.458 4.31992 -4.82998 0
M  V30 4566 N 447.864 1.01787 1.20321 0
M  V30 4567 C 448.827 0.593972 2.2137 0
M  V30 4568 C 449.827 -0.336553 1.57239 0
M  V30 4569 O 451.017 -0.125069 1.7375 0
M  V30 4570 C 448.149 -0.132433 3.40643 0
M  V30 4571 H 449.342 1.48791 2.60387 0
M  V30 4572 H 446.895 0.807803 1.33807 0
M  V30 4573 H 447.63 -1.04123 3.0713 0
M  V30 4574 H 447.415 0.53605 3.88418 0
M  V30 4575 H 448.905 -0.416314 4.1552 0
M  V30 4576 N 449.342 -1.36122 0.79427 0
M  V30 4577 C 450.59 -1.98718 0.368177 0
M  V30 4578 C 450.911 -1.63345 -1.06506 0
M  V30 4579 O 450.181 -0.909825 -1.73491 0
M  V30 4580 H 448.761 -0.735038 0.133146 0
M  V30 4581 H 451.423 -1.66239 1.01739 0
M  V30 4582 H 450.519 -3.08633 0.463923 0
M  V30 4583 N 450.82 -0.546701 -1.47814 0
M  V30 4584 C 452.066 -0.0269594 -2.03382 0
M  V30 4585 C 452.421 1.30406 -1.41464 0
M  V30 4586 O 451.714 1.8332 -0.557151 0
M  V30 4587 C 451.908 0.134869 -3.57145 0
M  V30 4588 C 451.737 -1.17891 -4.33972 0
M  V30 4589 C 450.507 -1.74336 -4.74273 0
M  V30 4590 C 452.705 -2.09361 -4.69758 0
M  V30 4591 N 450.687 -2.99829 -5.35701 0
M  V30 4592 C 452.058 -3.19431 -5.31379 0
M  V30 4593 C 454.113 -2.09484 -4.51687 0
M  V30 4594 C 452.816 -4.2971 -5.76838 0
M  V30 4595 C 454.842 -3.18767 -4.98138 0
M  V30 4596 C 454.204 -4.27557 -5.59799 0
M  V30 4597 H 450.303 -0.0517733 -0.780284 0
M  V30 4598 H 452.887 -0.731673 -1.80429 0
M  V30 4599 H 451.058 0.80869 -3.79888 0
M  V30 4600 H 452.79 0.655726 -3.99352 0
M  V30 4601 H 449.545 -1.28265 -4.559 0
M  V30 4602 H 449.969 -3.63765 -5.70968 0
M  V30 4603 H 454.611 -1.26663 -4.03381 0
M  V30 4604 H 452.329 -5.13297 -6.24141 0
M  V30 4605 H 455.915 -3.19937 -4.85934 0
M  V30 4606 H 454.795 -5.10725 -5.95088 0
M  V30 4607 N 452.299 1.55045 -0.282633 0
M  V30 4608 C 453.247 2.24254 0.617478 0
M  V30 4609 C 454.241 1.24215 1.15183 0
M  V30 4610 O 455.447 1.42123 1.10459 0
M  V30 4611 H 451.822 0.719801 0.217693 0
M  V30 4612 H 453.793 2.98398 0.0110076 0
M  V30 4613 C 452.542 2.98281 1.78672 0
M  V30 4614 H 451.865 3.75053 1.38475 0
M  V30 4615 H 453.305 3.50017 2.393 0
M  V30 4616 C 451.764 2.04184 2.67975 0
M  V30 4617 O 452.294 1.59792 3.6855 0
M  V30 4618 N 450.5 1.70526 2.35307 0
M  V30 4619 H 450.047 2.06821 1.53567 0
M  V30 4620 H 450.005 1.07839 2.95327 0
M  V30 4621 N 453.777 0.010035 1.57597 0
M  V30 4622 C 454.687 -0.994226 2.12491 0
M  V30 4623 C 455.703 -1.37013 1.07254 0
M  V30 4624 O 456.879 -1.45542 1.3921 0
M  V30 4625 C 453.944 -2.2642 2.62555 0
M  V30 4626 C 453.005 -1.95049 3.82432 0
M  V30 4627 C 452.238 -3.15991 4.30099 0
M  V30 4628 O 452.461 -4.28015 3.7704 0
M  V30 4629 O 451.395 -2.99403 5.22151 0
M  V30 4630 H 455.221 -0.557549 2.98538 0
M  V30 4631 H 452.806 -0.209413 1.47925 0
M  V30 4632 H 454.688 -3.01009 2.9491 0
M  V30 4633 H 453.363 -2.69306 1.796 0
M  V30 4634 H 452.27 -1.17904 3.55034 0
M  V30 4635 H 453.603 -1.56992 4.66491 0
M  V30 4636 N 455.255 -1.55392 -0.262866 0
M  V30 4637 C 456.185 -1.91978 -1.32917 0
M  V30 4638 C 457.166 -0.7828 -1.51017 0
M  V30 4639 O 458.351 -1.04178 -1.63892 0
M  V30 4640 C 455.481 -2.20055 -2.68687 0
M  V30 4641 C 454.435 -3.35854 -2.65304 0
M  V30 4642 C 453.761 -3.49435 -4.04721 0
M  V30 4643 C 455.061 -4.71977 -2.23685 0
M  V30 4644 H 456.755 -2.81292 -1.02544 0
M  V30 4645 H 454.301 -1.3534 -0.491846 0
M  V30 4646 H 456.254 -2.44237 -3.43404 0
M  V30 4647 H 454.978 -1.27551 -3.00663 0
M  V30 4648 H 453.637 -3.11655 -1.93045 0
M  V30 4649 H 453.285 -2.54379 -4.33936 0
M  V30 4650 H 452.985 -4.27297 -4.0335 0
M  V30 4651 H 454.509 -3.7592 -4.81161 0
M  V30 4652 H 455.923 -4.95637 -2.88127 0
M  V30 4653 H 454.32 -5.52828 -2.33456 0
M  V30 4654 H 455.39 -4.70115 -1.18827 0
M  V30 4655 N 456.733 0.527833 -1.48498 0
M  V30 4656 C 457.663 1.64136 -1.66077 0
M  V30 4657 C 458.644 1.62286 -0.509625 0
M  V30 4658 O 459.829 1.79449 -0.742413 0
M  V30 4659 C 456.959 3.02717 -1.70234 0
M  V30 4660 C 455.913 3.19426 -2.8487 0
M  V30 4661 C 455.239 4.5909 -2.74118 0
M  V30 4662 C 456.539 3.01993 -4.26142 0
M  V30 4663 H 458.233 1.4968 -2.593 0
M  V30 4664 H 455.779 0.718654 -1.24785 0
M  V30 4665 H 457.732 3.80491 -1.8112 0
M  V30 4666 H 456.456 3.18201 -0.735911 0
M  V30 4667 H 455.115 2.4407 -2.73542 0
M  V30 4668 H 454.763 4.71413 -1.7544 0
M  V30 4669 H 454.463 4.71214 -3.51042 0
M  V30 4670 H 455.987 5.3896 -2.86974 0
M  V30 4671 H 457.401 3.69558 -4.38292 0
M  V30 4672 H 455.798 3.2561 -5.04082 0
M  V30 4673 H 456.868 1.98396 -4.42456 0
M  V30 4674 N 458.211 1.37122 0.776871 0
M  V30 4675 C 459.46 1.31373 1.53049 0
M  V30 4676 C 459.773 -0.101016 1.95339 0
M  V30 4677 O 460.979 -0.280953 2.70042 0
M  V30 4678 C 459.435 2.30567 2.76346 0
M  V30 4679 C 459.043 3.77543 2.41175 0
M  V30 4680 C 460.787 2.33818 3.54301 0
M  V30 4681 C 458.694 4.68481 3.60943 0
M  V30 4682 H 457.624 0.488234 0.574581 0
M  V30 4683 H 460.275 1.62554 0.851372 0
M  V30 4684 H 458.657 1.92396 3.46121 0
M  V30 4685 H 459.831 4.24521 1.79216 0
M  V30 4686 H 458.146 3.77187 1.76405 0
M  V30 4687 H 460.743 2.98965 4.4331 0
M  V30 4688 H 461.086 1.3503 3.93793 0
M  V30 4689 H 461.619 2.7067 2.91518 0
M  V30 4690 H 458.358 5.68378 3.26537 0
M  V30 4691 H 457.878 4.2621 4.22025 0
M  V30 4692 H 459.557 4.85366 4.27819 0
M  V30 4693 N 459.689 -1.00246 1.21608 0
M  V30 4694 C 460.652 -2.07233 0.979133 0
M  V30 4695 C 461.652 -1.6072 -0.0508219 0
M  V30 4696 O 462.842 -1.73196 0.186712 0
M  V30 4697 C 459.974 -3.37546 0.477016 0
M  V30 4698 H 461.167 -2.29687 1.92831 0
M  V30 4699 H 458.72 -1.17261 1.03342 0
M  V30 4700 H 459.455 -3.20773 -0.476966 0
M  V30 4701 H 459.24 -3.72638 1.21997 0
M  V30 4702 H 460.73 -4.16285 0.331181 0
M  V30 4703 N 461.167 -1.02423 -1.1978 0
M  V30 4704 C 462.392 -0.7373 -1.93852 0
M  V30 4705 C 462.817 0.696923 -1.74713 0
M  V30 4706 O 462.175 1.48056 -1.04638 0
M  V30 4707 C 462.223 -1.08783 -3.438 0
M  V30 4708 O 461.327 -0.20383 -4.11896 0
M  V30 4709 H 460.668 -0.27284 -0.605355 0
M  V30 4710 H 463.198 -1.36966 -1.51992 0
M  V30 4711 H 463.208 -1.04276 -3.9445 0
M  V30 4712 H 461.883 -2.13274 -3.57053 0
M  V30 4713 H 460.46 -0.307091 -3.71633 0
M  V30 4714 N 462.645 1.35699 -0.801477 0
M  V30 4715 C 463.892 1.98913 -0.379459 0
M  V30 4716 C 464.22 1.63592 1.05204 0
M  V30 4717 O 463.475 0.888563 1.74365 0
M  V30 4718 C 463.774 3.53828 -0.504041 0
M  V30 4719 C 463.44 4.09002 -1.8981 0
M  V30 4720 C 462.102 4.23783 -2.27951 0
M  V30 4721 C 464.454 4.38939 -2.81038 0
M  V30 4722 C 461.782 4.65816 -3.56696 0
M  V30 4723 C 464.134 4.82409 -4.09224 0
M  V30 4724 C 462.798 4.95395 -4.4737 0
M  V30 4725 H 462.068 0.727874 -0.138854 0
M  V30 4726 H 464.715 1.61994 -1.02128 0
M  V30 4727 H 463.02 3.91175 0.221242 0
M  V30 4728 H 464.717 4.00687 -0.158361 0
M  V30 4729 H 461.307 3.97946 -1.59176 0
M  V30 4730 H 465.491 4.27077 -2.52821 0
M  V30 4731 H 460.747 4.74059 -3.86106 0
M  V30 4732 H 464.921 5.04535 -4.80018 0
M  V30 4733 H 462.548 5.27724 -5.47185 0
M  V30 4734 N 464.123 0.554532 1.47522 0
M  V30 4735 C 465.348 0.0322661 2.07375 0
M  V30 4736 C 465.773 -1.25079 1.40488 0
M  V30 4737 O 465.131 -1.74859 0.47896 0
M  V30 4738 C 465.179 -0.149397 3.6029 0
M  V30 4739 O 464.283 -1.21259 3.9417 0
M  V30 4740 H 463.624 0.0501228 0.662106 0
M  V30 4741 H 466.154 0.769452 1.8958 0
M  V30 4742 H 466.164 -0.364437 4.06369 0
M  V30 4743 H 464.839 0.787743 4.08372 0
M  V30 4744 H 463.416 -0.97825 3.5984 0
M  V30 4745 N 465.601 -1.54893 0.290851 0
M  V30 4746 C 466.551 -2.19838 -0.604599 0
M  V30 4747 C 467.535 -1.16805 -1.10659 0
M  V30 4748 O 468.727 -1.42562 -1.04905 0
M  V30 4749 C 465.856 -2.93497 -1.78086 0
M  V30 4750 C 464.942 -4.03835 -1.29531 0
M  V30 4751 N 465.333 -5.03047 -0.527024 0
M  V30 4752 C 463.631 -4.17192 -1.57693 0
M  V30 4753 C 464.332 -5.81074 -0.269728 0
M  V30 4754 N 463.308 -5.36966 -0.846651 0
M  V30 4755 H 467.11 -2.93898 -0.00995032 0
M  V30 4756 H 464.624 -1.62121 0.0951353 0
M  V30 4757 H 466.621 -3.38484 -2.43381 0
M  V30 4758 H 465.281 -2.2095 -2.37931 0
M  V30 4759 H 466.292 -5.17611 -0.172872 0
M  V30 4760 H 462.969 -3.55845 -2.18359 0
M  V30 4761 H 464.359 -6.71005 0.346643 0
M  V30 4762 N 467.08 -0.0183926 -1.57589 0
M  V30 4763 C 468.496 0.337897 -1.55982 0
M  V30 4764 C 468.696 1.73604 -1.02294 0
M  V30 4765 O 467.752 2.43589 -0.664895 0
M  V30 4766 C 469.065 0.196305 -3.00059 0
M  V30 4767 C 470.613 0.269875 -3.11834 0
M  V30 4768 C 471.088 0.157197 -4.5773 0
M  V30 4769 N 472.579 0.214521 -4.62703 0
M  V30 4770 C 473.314 0.150955 -5.73201 0
M  V30 4771 N 472.81 0.0369212 -6.9279 0
M  V30 4772 N 474.603 0.204162 -5.61729 0
M  V30 4773 H 466.754 -0.93279 -1.90821 0
M  V30 4774 H 469.017 -0.359253 -0.877292 0
M  V30 4775 H 468.723 -0.766383 -3.43248 0
M  V30 4776 H 468.597 0.970908 -3.6449 0
M  V30 4777 H 470.984 1.22302 -2.68563 0
M  V30 4778 H 471.065 -0.534918 -2.50144 0
M  V30 4779 H 470.709 -0.792479 -5.01679 0
M  V30 4780 H 470.639 0.980717 -5.17387 0
M  V30 4781 H 473.13 0.303238 -3.76681 0
M  V30 4782 H 473.443 -0.00518321 -7.728 0
M  V30 4783 H 471.788 0.0022886 -6.95 0
M  V30 4784 H 474.979 0.291575 -4.67191 0
M  V30 4785 H 475.152 0.15116 -6.47824 0
M  V30 4786 N 468.558 1.5553 0.254621 0
M  V30 4787 C 469.783 1.81383 1.00573 0
M  V30 4788 C 470.208 0.594419 1.78461 0
M  V30 4789 O 469.566 -0.456403 1.75461 0
M  V30 4790 C 469.614 3.04892 1.92545 0
M  V30 4791 O 468.718 2.81266 3.01601 0
M  V30 4792 H 468.059 0.598969 0.286587 0
M  V30 4793 H 470.589 2.02703 0.277952 0
M  V30 4794 H 470.599 3.34119 2.34155 0
M  V30 4795 H 469.274 3.93287 1.3527 0
M  V30 4796 H 467.851 2.63185 2.64174 0
M  V30 4797 N 470.036 -0.519951 1.48776 0
M  V30 4798 C 471.282 -1.27711 1.57536 0
M  V30 4799 C 471.615 -1.92547 0.252866 0
M  V30 4800 O 470.89 -1.7979 -0.742021 0
M  V30 4801 C 471.173 -2.35875 2.72094 0
M  V30 4802 C 471.026 -1.75664 4.1408 0
M  V30 4803 C 472.345 -3.37575 2.82367 0
M  V30 4804 H 469.464 -0.462971 0.573434 0
M  V30 4805 H 472.106 -0.578194 1.80989 0
M  V30 4806 H 470.256 -2.95488 2.52228 0
M  V30 4807 H 471.928 -1.20025 4.45412 0
M  V30 4808 H 470.171 -1.06154 4.20611 0
M  V30 4809 H 470.842 -2.54029 4.90075 0
M  V30 4810 H 473.318 -2.87929 3.00393 0
M  V30 4811 H 472.194 -4.1064 3.64233 0
M  V30 4812 H 472.455 -3.98743 1.90936 0
M  V30 4813 N 471.514 -1.37532 -0.769588 0
M  V30 4814 C 472.739 -1.36231 -1.56384 0
M  V30 4815 C 473.164 0.0495849 -1.88035 0
M  V30 4816 O 472.522 1.02723 -1.49391 0
M  V30 4817 C 472.57 -2.20986 -2.84952 0
M  V30 4818 O 471.674 -1.61597 -3.79421 0
M  V30 4819 H 471.015 -0.465387 -0.473615 0
M  V30 4820 H 473.545 -1.81085 -0.952342 0
M  V30 4821 H 473.555 -2.34277 -3.34034 0
M  V30 4822 H 472.23 -3.23612 -2.61243 0
M  V30 4823 H 470.807 -1.57359 -3.38072 0
M  V30 4824 N 472.992 0.995999 -1.22138 0
M  V30 4825 C 474.238 1.73767 -1.04561 0
M  V30 4826 C 474.571 1.89633 0.418698 0
M  V30 4827 O 473.846 1.43723 1.3105 0
M  V30 4828 C 474.129 3.14505 -1.75382 0
M  V30 4829 C 473.982 3.06306 -3.29388 0
M  V30 4830 C 475.301 4.13615 -1.50369 0
M  V30 4831 H 472.42 0.630728 -0.38125 0
M  V30 4832 H 475.062 1.16057 -1.50435 0
M  V30 4833 H 473.212 3.63775 -1.36383 0
M  V30 4834 H 474.884 2.64681 -3.77812 0
M  V30 4835 H 473.127 2.43186 -3.59226 0
M  V30 4836 H 473.798 4.05884 -3.74116 0
M  V30 4837 H 476.274 3.73089 -1.84239 0
M  V30 4838 H 475.15 5.10212 -2.02421 0
M  V30 4839 H 475.411 4.39949 -0.435611 0
M  V30 4840 N 474.47 1.03057 1.19235 0
M  V30 4841 C 475.402 0.570932 2.21975 0
M  V30 4842 C 476.415 -0.354088 1.58903 0
M  V30 4843 O 477.604 -0.150211 1.77867 0
M  V30 4844 C 474.704 -0.187152 3.38383 0
M  V30 4845 C 473.877 0.743231 4.31039 0
M  V30 4846 C 472.936 0.0302493 5.26191 0
M  V30 4847 O 471.962 0.657371 5.65391 0
M  V30 4848 N 473.164 -1.23991 5.67104 0
M  V30 4849 H 475.929 1.45456 2.62036 0
M  V30 4850 H 473.49 0.909807 1.33918 0
M  V30 4851 H 475.482 -0.673715 3.99053 0
M  V30 4852 H 474.052 -0.972205 2.97098 0
M  V30 4853 H 473.272 1.40985 3.68126 0
M  V30 4854 H 474.56 1.3755 4.89854 0
M  V30 4855 H 473.958 -1.77011 5.37293 0
M  V30 4856 H 472.515 -1.67093 6.30018 0
M  V30 4857 N 475.948 -1.35272 0.808662 0
M  V30 4858 C 477.225 -1.93077 0.313181 0
M  V30 4859 C 477.605 -1.73847 -1.19752 0
M  V30 4860 O 476.953 -1.1087 -1.998 0
M  V30 4861 C 477.163 -3.41347 0.726859 0
M  V30 4862 C 478.511 -4.18493 0.717532 0
M  V30 4863 O 479.535 -3.4987 0.668535 0
M  V30 4864 O 478.394 -5.40937 0.777779 0
M  V30 4865 H 475.488 -0.822885 0.0824018 0
M  V30 4866 H 478.034 -1.44335 0.892499 0
M  V30 4867 H 476.806 -3.49082 1.76797 0
M  V30 4868 H 476.429 -3.97411 0.122461 0
M  V30 4869 N 477.426 -0.562348 -1.47226 0
M  V30 4870 C 478.674 -0.0401371 -2.0206 0
M  V30 4871 C 478.995 1.3165 -1.43852 0
M  V30 4872 O 478.265 1.85976 -0.615599 0
M  V30 4873 H 476.845 -0.0118479 -0.746906 0
M  V30 4874 H 479.507 -0.73352 -1.8057 0
M  V30 4875 H 478.603 0.0441254 -3.12069 0
M  V30 4876 N 478.904 1.54736 -0.299062 0
M  V30 4877 C 480.153 1.99279 0.311549 0
M  V30 4878 C 480.466 1.19107 1.55154 0
M  V30 4879 O 481.672 1.53908 2.23662 0
M  V30 4880 C 480.128 3.54768 0.605632 0
M  V30 4881 C 479.736 4.43746 -0.615914 0
M  V30 4882 C 481.48 4.07841 1.17754 0
M  V30 4883 C 479.387 5.90663 -0.29509 0
M  V30 4884 H 478.317 0.744359 0.120187 0
M  V30 4885 H 480.968 1.78919 -0.407464 0
M  V30 4886 H 479.35 3.71021 1.38419 0
M  V30 4887 H 480.524 4.39267 -1.39218 0
M  V30 4888 H 478.839 4.01434 -1.10633 0
M  V30 4889 H 481.436 5.15174 1.43179 0
M  V30 4890 H 481.779 3.58324 2.11918 0
M  V30 4891 H 482.312 3.95123 0.460739 0
M  V30 4892 H 479.051 6.44325 -1.20524 0
M  V30 4893 H 478.571 5.98155 0.44394 0
M  V30 4894 H 480.25 6.46916 0.104048 0
M  V30 4895 N 480.382 0.0267497 1.57577 0
M  V30 4896 C 481.312 -0.954308 2.13108 0
M  V30 4897 C 482.293 -1.34088 1.04663 0
M  V30 4898 O 483.478 -1.41992 1.32484 0
M  V30 4899 C 480.608 -2.23744 2.65624 0
M  V30 4900 C 479.562 -1.99168 3.78835 0
M  V30 4901 C 478.888 -3.33726 4.17769 0
M  V30 4902 C 480.188 -1.33277 5.0501 0
M  V30 4903 H 481.882 -0.491848 2.95332 0
M  V30 4904 H 479.428 -0.23514 1.42067 0
M  V30 4905 H 481.381 -2.92754 3.03106 0
M  V30 4906 H 480.105 -2.72151 1.80558 0
M  V30 4907 H 478.764 -1.32577 3.41788 0
M  V30 4908 H 478.412 -3.79888 3.29688 0
M  V30 4909 H 478.112 -3.18089 4.94058 0
M  V30 4910 H 479.636 -4.04008 4.57832 0
M  V30 4911 H 481.05 -1.92283 5.40093 0
M  V30 4912 H 479.447 -1.28045 5.8628 0
M  V30 4913 H 480.517 -0.305411 4.83937 0
M  V30 4914 N 481.861 -1.55662 -0.24637 0
M  V30 4915 C 482.791 -1.93377 -1.30873 0
M  V30 4916 C 483.772 -0.798773 -1.50179 0
M  V30 4917 O 484.957 -1.0591 -1.62778 0
M  V30 4918 C 482.087 -2.22893 -2.66338 0
M  V30 4919 C 481.041 -3.38649 -2.61727 0
M  V30 4920 C 480.367 -3.53708 -4.00992 0
M  V30 4921 C 481.667 -4.74323 -2.18666 0
M  V30 4922 H 483.361 -2.82363 -0.995552 0
M  V30 4923 H 480.907 -1.35854 -0.477464 0
M  V30 4924 H 482.86 -2.47866 -3.40794 0
M  V30 4925 H 481.584 -1.30733 -2.99293 0
M  V30 4926 H 480.243 -3.13685 -1.89729 0
M  V30 4927 H 479.891 -2.58967 -4.31214 0
M  V30 4928 H 479.591 -4.31551 -3.98795 0
M  V30 4929 H 481.115 -3.81003 -4.77147 0
M  V30 4930 H 482.529 -4.98665 -2.82854 0
M  V30 4931 H 480.926 -5.55273 -2.27579 0
M  V30 4932 H 481.996 -4.71349 -1.13834 0
M  V30 4933 N 483.339 0.512053 -1.4905 0
M  V30 4934 C 484.302 1.59704 -1.64399 0
M  V30 4935 C 485.302 1.52285 -0.516317 0
M  V30 4936 O 486.492 1.55635 -0.782527 0
M  V30 4937 C 483.624 2.9935 -1.63102 0
M  V30 4938 H 484.817 1.47428 -2.61161 0
M  V30 4939 H 482.37 0.735469 -1.37915 0
M  V30 4940 H 483.105 3.17116 -0.678836 0
M  V30 4941 H 482.89 3.06144 -2.44986 0
M  V30 4942 H 484.38 3.782 -1.77072 0
M  V30 4943 N 484.817 1.37938 0.762283 0
M  V30 4944 C 486.045 1.36883 1.55147 0
M  V30 4945 C 486.46 -0.0435348 1.8875 0
M  V30 4946 O 485.817 -1.00786 1.52146 0
M  V30 4947 C 485.868 2.21624 2.85596 0
M  V30 4948 O 485.589 3.57358 2.5343 0
M  V30 4949 C 487.09 2.28653 3.7978 0
M  V30 4950 H 484.31 0.468521 0.480343 0
M  V30 4951 H 486.854 1.81404 0.944079 0
M  V30 4952 H 485.009 1.80588 3.42734 0
M  V30 4953 H 485.423 4.01883 3.37032 0
M  V30 4954 H 486.897 2.9225 4.68288 0
M  V30 4955 H 487.374 1.29767 4.19592 0
M  V30 4956 H 487.98 2.70043 3.28568 0
M  V30 4957 N 486.295 -0.989507 1.22664 0
M  V30 4958 C 487.543 -1.72612 1.05117 0
M  V30 4959 C 487.864 -1.90552 -0.414131 0
M  V30 4960 O 487.134 -1.4676 -1.29762 0
M  V30 4961 H 485.714 -0.639555 0.385977 0
M  V30 4962 H 488.376 -1.19158 1.54232 0
M  V30 4963 H 487.472 -2.71926 1.53175 0
M  V30 4964 N 487.773 -1.03688 -1.18687 0
M  V30 4965 C 488.703 -0.645407 -2.24403 0
M  V30 4966 C 489.684 0.349511 -1.66471 0
M  V30 4967 O 490.869 0.230453 -1.92828 0
M  V30 4968 C 487.999 -0.00365337 -3.473 0
M  V30 4969 C 486.953 -0.921705 -4.17958 0
M  V30 4970 C 486.279 -0.144629 -5.34504 0
M  V30 4971 C 487.579 -2.23909 -4.71871 0
M  V30 4972 H 489.273 -1.52917 -2.57404 0
M  V30 4973 H 486.819 -0.736711 -1.23728 0
M  V30 4974 H 488.772 0.281908 -4.20456 0
M  V30 4975 H 487.496 0.914963 -3.13522 0
M  V30 4976 H 486.155 -1.19159 -3.46694 0
M  V30 4977 H 485.803 0.776274 -4.96974 0
M  V30 4978 H 485.503 -0.756206 -5.82714 0
M  V30 4979 H 487.027 0.134004 -6.10453 0
M  V30 4980 H 488.441 -2.0145 -5.36741 0
M  V30 4981 H 486.838 -2.8033 -5.30599 0
M  V30 4982 H 487.908 -2.88822 -3.895 0
M  V30 4983 N 489.251 1.34841 -0.815825 0
M  V30 4984 C 490.201 2.27075 -0.205169 0
M  V30 4985 C 491.185 1.48205 0.626414 0
M  V30 4986 O 492.377 1.70306 0.482157 0
M  V30 4987 C 489.506 3.37322 0.637871 0
M  V30 4988 C 488.592 4.23609 -0.203948 0
M  V30 4989 N 488.983 4.89558 -1.27149 0
M  V30 4990 C 487.281 4.45998 0.0128971 0
M  V30 4991 C 487.982 5.53597 -1.7862 0
M  V30 4992 N 486.958 5.32535 -1.0912 0
M  V30 4993 H 490.76 2.75563 -1.02187 0
M  V30 4994 H 488.274 1.48477 -0.657912 0
M  V30 4995 H 490.271 4.02359 1.09146 0
M  V30 4996 H 488.931 2.90385 1.45281 0
M  V30 4997 H 489.942 4.9077 -1.65423 0
M  V30 4998 H 486.619 4.09837 0.79624 0
M  V30 4999 H 488.009 6.16184 -2.67892 0
M  V30 5000 N 490.729 0.570148 1.46925 0
M  V30 5001 C 491.975 0.0510284 2.02736 0
M  V30 5002 C 492.308 -1.3006 1.44215 0
M  V30 5003 O 491.583 -1.84932 0.602521 0
M  V30 5004 C 491.866 -0.028215 3.60089 0
M  V30 5005 C 491.719 1.35142 4.29018 0
M  V30 5006 C 493.038 -0.735181 4.33916 0
M  V30 5007 H 490.157 0.0200178 0.736728 0
M  V30 5008 H 492.799 0.73493 1.75211 0
M  V30 5009 H 490.949 -0.610648 3.83671 0
M  V30 5010 H 492.621 1.97806 4.16738 0
M  V30 5011 H 490.864 1.9226 3.88868 0
M  V30 5012 H 491.535 1.24857 5.37694 0
M  V30 5013 H 494.011 -0.240519 4.15404 0
M  V30 5014 H 492.887 -0.759622 5.43618 0
M  V30 5015 H 493.148 -1.79397 4.04066 0
M  V30 5016 N 492.207 -1.54576 0.307264 0
M  V30 5017 C 493.157 -2.20467 -0.581249 0
M  V30 5018 C 494.141 -1.17972 -1.09414 0
M  V30 5019 O 495.333 -1.43667 -1.03387 0
M  V30 5020 C 492.462 -2.95369 -1.74963 0
M  V30 5021 C 491.548 -4.05186 -1.25241 0
M  V30 5022 N 491.939 -5.03577 -0.47364 0
M  V30 5023 C 490.237 -4.18841 -1.53259 0
M  V30 5024 C 490.938 -5.81328 -0.208083 0
M  V30 5025 N 489.914 -5.37834 -0.789651 0
M  V30 5026 H 493.716 -2.93892 0.0212221 0
M  V30 5027 H 491.23 -1.62011 0.112325 0
M  V30 5028 H 493.227 -3.41046 -2.39777 0
M  V30 5029 H 491.887 -2.23461 -2.35574 0
M  V30 5030 H 492.898 -5.17766 -0.117963 0
M  V30 5031 H 489.575 -3.58141 -2.14573 0
M  V30 5032 H 490.965 -6.706 0.417793 0
M  V30 5033 N 493.685 -0.035106 -1.57561 0
M  V30 5034 C 495.101 0.321334 -1.56332 0
M  V30 5035 C 495.301 1.72509 -1.04129 0
M  V30 5036 O 494.357 2.4287 -0.690694 0
M  V30 5037 C 495.67 0.164469 -3.0025 0
M  V30 5038 C 497.218 0.236786 -3.12103 0
M  V30 5039 C 497.693 0.10864 -4.57871 0
M  V30 5040 N 499.184 0.165433 -4.62904 0
M  V30 5041 C 499.919 0.0901506 -5.73329 0
M  V30 5042 N 499.415 -0.0365606 -6.9279 0
M  V30 5043 N 501.208 0.144572 -5.61914 0
M  V30 5044 H 493.359 -0.952976 -1.89821 0
M  V30 5045 H 495.622 -0.368537 -0.873432 0
M  V30 5046 H 495.328 -0.802746 -3.42416 0
M  V30 5047 H 495.202 0.932194 -3.655 0
M  V30 5048 H 497.589 1.19446 -2.69845 0
M  V30 5049 H 497.67 -0.561419 -2.49563 0
M  V30 5050 H 497.314 -0.845644 -5.00811 0
M  V30 5051 H 497.244 0.925786 -5.18398 0
M  V30 5052 H 499.735 0.263269 -3.76982 0
M  V30 5053 H 500.048 -0.0871487 -7.72751 0
M  V30 5054 H 498.393 -0.0714256 -6.94963 0
M  V30 5055 H 501.584 0.242006 -4.67474 0
M  V30 5056 H 501.757 0.0824413 -6.47948 0
M  V30 5057 N 495.163 1.55791 0.238111 0
M  V30 5058 C 496.388 1.8244 0.986432 0
M  V30 5059 C 496.813 0.613314 1.7782 0
M  V30 5060 O 496.171 -0.437767 1.75935 0
M  V30 5061 C 496.219 3.06917 1.893 0
M  V30 5062 O 495.323 2.84449 2.98601 0
M  V30 5063 H 494.664 0.601975 0.280218 0
M  V30 5064 H 497.194 2.02987 0.256437 0
M  V30 5065 H 497.204 3.36583 2.30598 0
M  V30 5066 H 495.879 3.947 1.31091 0
M  V30 5067 H 494.456 2.65972 2.61368 0
M  V30 5068 N 496.642 -0.504142 1.49319 0
M  V30 5069 C 497.867 -1.28729 1.62615 0
M  V30 5070 C 498.292 -1.85752 0.296309 0
M  V30 5071 O 497.65 -1.65704 -0.735649 0
M  V30 5072 C 497.698 -2.39561 2.69524 0
M  V30 5073 O 496.802 -3.43324 2.28478 0
M  V30 5074 H 496.143 -0.380172 0.544395 0
M  V30 5075 H 498.673 -0.603872 1.95485 0
M  V30 5076 H 498.683 -2.8537 2.91595 0
M  V30 5077 H 497.358 -1.97423 3.66056 0
M  V30 5078 H 495.935 -3.03455 2.16725 0
M  V30 5079 N 498.12 -1.38341 -0.754957 0
M  V30 5080 C 499.083 -1.35262 -1.85032 0
M  V30 5081 C 500.083 -0.253393 -1.58791 0
M  V30 5082 O 501.273 -0.510205 -1.66561 0
M  V30 5083 C 498.405 -1.10544 -3.22479 0
M  V30 5084 H 499.598 -2.32712 -1.8917 0
M  V30 5085 H 497.151 -1.23614 -0.956515 0
M  V30 5086 H 497.886 -0.136952 -3.24011 0
M  V30 5087 H 497.671 -1.90127 -3.4292 0
M  V30 5088 H 499.161 -1.11082 -4.02555 0
M  V30 5089 N 499.598 0.982988 -1.23187 0
M  V30 5090 C 500.548 2.05962 -0.977942 0
M  V30 5091 C 501.532 1.60725 0.0751148 0
M  V30 5092 O 502.724 1.76471 -0.136683 0
M  V30 5093 C 499.853 3.38564 -0.568276 0
M  V30 5094 C 498.939 3.90407 -1.6566 0
M  V30 5095 N 499.33 4.15359 -2.88635 0
M  V30 5096 C 497.628 4.18915 -1.53058 0
M  V30 5097 C 498.329 4.57642 -3.5908 0
M  V30 5098 N 497.305 4.6192 -2.86584 0
M  V30 5099 H 501.107 2.23208 -1.91195 0
M  V30 5100 H 498.621 1.16555 -1.13087 0
M  V30 5101 H 500.618 4.15276 -0.36764 0
M  V30 5102 H 499.278 3.22712 0.358713 0
M  V30 5103 H 500.289 4.03258 -3.24966 0
M  V30 5104 H 496.966 4.12081 -0.670506 0
M  V30 5105 H 498.356 4.85488 -4.6449 0
M  V30 5106 N 501.076 1.04316 1.18135 0
M  V30 5107 C 502.301 0.768047 1.92655 0
M  V30 5108 C 502.726 -0.66904 1.758 0
M  V30 5109 O 502.084 -1.46372 1.06981 0
M  V30 5110 C 502.132 1.14239 3.42026 0
M  V30 5111 O 501.236 0.269333 4.1152 0
M  V30 5112 H 500.577 0.282436 0.600937 0
M  V30 5113 H 503.107 1.39367 1.49793 0
M  V30 5114 H 503.117 1.10538 3.92741 0
M  V30 5115 H 501.792 2.18928 3.53615 0
M  V30 5116 H 500.369 0.366175 3.71098 0
M  V30 5117 N 502.554 -1.34406 0.822964 0
M  V30 5118 C 503.517 -2.2783 0.250271 0
M  V30 5119 C 504.517 -1.50288 -0.571854 0
M  V30 5120 O 505.707 -1.69825 -0.387952 0
M  V30 5121 C 502.839 -3.34663 -0.649137 0
M  V30 5122 H 504.032 -2.79992 1.07444 0
M  V30 5123 H 501.585 -1.44539 0.594829 0
M  V30 5124 H 502.32 -2.87714 -1.49637 0
M  V30 5125 H 502.105 -3.92052 -0.0611199 0
M  V30 5126 H 503.595 -4.04349 -1.04363 0
M  V30 5127 N 504.032 -0.577932 -1.46621 0
M  V30 5128 C 505.28 -0.061566 -2.02006 0
M  V30 5129 C 505.601 1.30117 -1.4524 0
M  V30 5130 O 504.871 1.85313 -0.63529 0
M  V30 5131 H 503.451 -0.0197692 -0.746738 0
M  V30 5132 H 506.113 -0.752631 -1.79782 0
M  V30 5133 H 505.209 0.0110238 -3.12098 0
M  V30 5134 N 505.51 1.54411 -0.315457 0
M  V30 5135 C 506.756 2.00716 0.289972 0
M  V30 5136 C 507.089 1.2034 1.5242 0
M  V30 5137 O 506.364 0.283579 1.92422 0
M  V30 5138 C 506.647 3.54507 0.632196 0
M  V30 5139 C 506.5 4.45615 -0.61218 0
M  V30 5140 C 507.819 4.15421 1.45305 0
M  V30 5141 H 504.938 0.729637 0.10392 0
M  V30 5142 H 507.58 1.8506 -0.430427 0
M  V30 5143 H 505.73 3.67979 1.24595 0
M  V30 5144 H 507.402 4.44026 -1.25053 0
M  V30 5145 H 505.645 4.15621 -1.24264 0
M  V30 5146 H 506.316 5.51022 -0.328379 0
M  V30 5147 H 508.792 4.05474 0.934331 0
M  V30 5148 H 507.668 5.23157 1.66127 0
M  V30 5149 H 507.929 3.68223 2.44671 0
M  V30 5150 N 506.988 0.0434614 1.5754 0
M  V30 5151 C 508.236 -0.630786 1.92004 0
M  V30 5152 C 508.557 -1.71836 0.921807 0
M  V30 5153 O 507.827 -1.9587 -0.034522 0
M  V30 5154 H 506.407 -0.235988 0.708745 0
M  V30 5155 H 509.069 0.0946462 1.9467 0
M  V30 5156 H 508.165 -1.07434 2.93026 0
M  V30 5157 N 508.466 -1.55915 -0.229846 0
M  V30 5158 C 509.691 -1.8296 -0.976743 0
M  V30 5159 C 510.116 -0.622735 -1.77493 0
M  V30 5160 O 509.474 0.428431 -1.76165 0
M  V30 5161 C 509.522 -3.07916 -1.8767 0
M  V30 5162 O 508.626 -2.86028 -2.97088 0
M  V30 5163 H 507.967 -0.603453 -0.277021 0
M  V30 5164 H 510.497 -2.0312 -0.245669 0
M  V30 5165 H 510.507 -3.37802 -2.2881 0
M  V30 5166 H 509.182 -3.95389 -1.28996 0
M  V30 5167 H 507.759 -2.67355 -2.59954 0
M  V30 5168 N 509.944 0.496216 -1.49584 0
M  V30 5169 C 511.193 1.24668 -1.58558 0
M  V30 5170 C 511.506 1.9359 -0.279703 0
M  V30 5171 O 512.712 2.70365 -0.248048 0
M  V30 5172 C 511.168 2.26388 -2.79779 0
M  V30 5173 C 510.776 1.63384 -4.17145 0
M  V30 5174 C 512.52 3.02233 -2.98086 0
M  V30 5175 C 510.427 2.63243 -5.29582 0
M  V30 5176 H 509.357 0.468995 -0.590389 0
M  V30 5177 H 512.008 0.519985 -1.75978 0
M  V30 5178 H 510.39 3.02241 -2.55863 0
M  V30 5179 H 511.564 0.93491 -4.51216 0
M  V30 5180 H 509.879 0.999121 -4.04236 0
M  V30 5181 H 512.476 3.76919 -3.79257 0
M  V30 5182 H 512.819 3.60132 -2.08831 0
M  V30 5183 H 513.352 2.33495 -3.22063 0
M  V30 5184 H 510.091 2.10119 -6.20911 0
M  V30 5185 H 509.611 3.31363 -4.99959 0
M  V30 5186 H 511.29 3.25575 -5.59115 0
M  V30 5187 N 511.423 1.38739 0.74761 0
M  V30 5188 C 512.67 1.35274 1.50689 0
M  V30 5189 C 512.998 -0.0553359 1.94421 0
M  V30 5190 O 512.253 -1.03365 1.66175 0
M  V30 5191 C 512.552 2.25992 2.7688 0
M  V30 5192 C 512.218 3.73854 2.5208 0
M  V30 5193 C 510.88 4.14145 2.45025 0
M  V30 5194 C 513.232 4.67427 2.30568 0
M  V30 5195 C 510.56 5.4609 2.14483 0
M  V30 5196 C 512.912 5.99635 2.01545 0
M  V30 5197 C 511.576 6.39004 1.92951 0
M  V30 5198 H 510.846 0.495003 0.55141 0
M  V30 5199 H 513.493 1.71145 0.859158 0
M  V30 5200 H 511.798 1.83196 3.46333 0
M  V30 5201 H 513.495 2.20611 3.34861 0
M  V30 5202 H 510.085 3.41913 2.58444 0
M  V30 5203 H 514.269 4.3714 2.34994 0
M  V30 5204 H 509.525 5.75528 2.06342 0
M  V30 5205 H 513.699 6.71678 1.83906 0
M  V30 5206 H 511.326 7.41165 1.6905 0
M  V30 5207 N 512.901 -0.976442 1.23707 0
M  V30 5208 C 514.178 -1.69296 0.979699 0
M  V30 5209 C 514.558 -2.0508 -0.500555 0
M  V30 5210 O 513.906 -1.74708 -1.47273 0
M  V30 5211 C 514.116 -2.93143 1.89389 0
M  V30 5212 C 515.464 -3.65572 2.15968 0
M  V30 5213 O 516.488 -3.03184 1.86971 0
M  V30 5214 O 515.347 -4.77859 2.65167 0
M  V30 5215 H 512.441 -0.739708 0.369812 0
M  V30 5216 H 514.987 -1.03131 1.34767 0
M  V30 5217 H 513.759 -2.63327 2.89439 0
M  V30 5218 H 513.382 -3.67044 1.52854 0
M  V30 5219 N 514.379 -1.04941 -1.1758 0
M  V30 5220 C 515.795 -0.770282 -1.39781 0
M  V30 5221 C 515.995 0.636417 -1.91186 0
M  V30 5222 O 515.051 1.39923 -2.10185 0
M  V30 5223 C 516.364 -1.82376 -2.3908 0
M  V30 5224 C 517.912 -1.84569 -2.52791 0
M  V30 5225 C 518.387 -2.88933 -3.55361 0
M  V30 5226 N 519.878 -2.8788 -3.62877 0
M  V30 5227 C 520.613 -3.65282 -4.41992 0
M  V30 5228 N 520.109 -4.52461 -5.24643 0
M  V30 5229 N 521.902 -3.53732 -4.36841 0
M  V30 5230 H 514.053 -1.95705 -0.825438 0
M  V30 5231 H 516.316 -0.847284 -0.425222 0
M  V30 5232 H 516.022 -2.83323 -2.08376 0
M  V30 5233 H 515.896 -1.66327 -3.38549 0
M  V30 5234 H 518.283 -0.842879 -2.82807 0
M  V30 5235 H 518.364 -2.04696 -1.53406 0
M  V30 5236 H 518.008 -3.89398 -3.26085 0
M  V30 5237 H 517.938 -2.66059 -4.54445 0
M  V30 5238 H 520.429 -2.24666 -3.03864 0
M  V30 5239 H 520.742 -5.08211 -5.82187 0
M  V30 5240 H 519.087 -4.56524 -5.24033 0
M  V30 5241 H 522.278 -2.85021 -3.71323 0
M  V30 5242 H 522.451 -4.14302 -4.98255 0
M  V30 5243 N 515.857 1.33968 -0.830081 0
M  V30 5244 C 517.103 1.98357 -0.422191 0
M  V30 5245 C 517.436 1.65633 1.01387 0
M  V30 5246 O 516.711 0.931648 1.70735 0
M  V30 5247 C 516.994 3.54492 -0.633043 0
M  V30 5248 C 516.847 3.96934 -2.11574 0
M  V30 5249 C 518.166 4.40039 -0.0735584 0
M  V30 5250 H 515.285 0.720544 -0.154871 0
M  V30 5251 H 517.927 1.58749 -1.04397 0
M  V30 5252 H 516.077 3.88361 -0.103775 0
M  V30 5253 H 517.749 3.73363 -2.7092 0
M  V30 5254 H 515.992 3.46984 -2.60354 0
M  V30 5255 H 516.663 5.05651 -2.21406 0
M  V30 5256 H 519.139 4.12764 -0.52585 0
M  V30 5257 H 518.015 5.48327 -0.250841 0
M  V30 5258 H 518.276 4.30124 1.02202 0
M  V30 5259 N 517.335 0.585699 1.46312 0
M  V30 5260 C 518.265 -0.133556 2.33118 0
M  V30 5261 C 519.246 -0.880707 1.45525 0
M  V30 5262 O 520.431 -0.855579 1.74337 0
M  V30 5263 C 517.561 -1.14585 3.27853 0
M  V30 5264 C 516.515 -0.513341 4.2491 0
M  V30 5265 C 515.841 -1.63231 5.09175 0
M  V30 5266 C 517.141 0.551413 5.19381 0
M  V30 5267 H 518.835 0.59121 2.93505 0
M  V30 5268 H 516.381 0.285761 1.41136 0
M  V30 5269 H 518.334 -1.65741 3.87438 0
M  V30 5270 H 517.058 -1.90093 2.65579 0
M  V30 5271 H 515.717 -0.0228349 3.66593 0
M  V30 5272 H 515.365 -2.37713 4.43285 0
M  V30 5273 H 515.065 -1.21473 5.74907 0
M  V30 5274 H 516.589 -2.14658 5.71624 0
M  V30 5275 H 518.003 0.124804 5.73164 0
M  V30 5276 H 516.4 0.889486 5.93471 0
M  V30 5277 H 517.47 1.43655 4.63132 0
M  V30 5278 N 518.813 -1.54241 0.323641 0
M  V30 5279 C 520.041 -2.04985 -0.280871 0
M  V30 5280 C 520.456 -1.19978 -1.45777 0
M  V30 5281 O 519.813 -0.230471 -1.81039 0
M  V30 5282 C 519.864 -3.54353 -0.715258 0
M  V30 5283 O 519.585 -4.36132 0.414817 0
M  V30 5284 C 521.086 -4.21189 -1.38257 0
M  V30 5285 H 518.306 -0.66851 -0.0577502 0
M  V30 5286 H 520.85 -1.99029 0.469852 0
M  V30 5287 H 519.005 -3.60596 -1.41596 0
M  V30 5288 H 519.419 -5.2445 0.0725227 0
M  V30 5289 H 520.893 -5.27154 -1.63745 0
M  V30 5290 H 521.37 -3.72307 -2.32989 0
M  V30 5291 H 521.976 -4.19085 -0.724447 0
M  V30 5292 N 520.291 -0.0518155 -1.57515 0
M  V30 5293 C 521.201 0.937539 -2.15052 0
M  V30 5294 C 522.217 1.34121 -1.10849 0
M  V30 5295 O 523.393 1.418 -1.4302 0
M  V30 5296 C 520.458 2.19379 -2.68466 0
M  V30 5297 C 519.519 1.84841 -3.87469 0
M  V30 5298 C 518.752 3.04477 -4.38326 0
M  V30 5299 O 518.975 4.17868 -3.88256 0
M  V30 5300 O 517.909 2.85453 -5.29906 0
M  V30 5301 H 521.735 0.478201 -2.99912 0
M  V30 5302 H 519.32 0.17012 -1.48428 0
M  V30 5303 H 521.202 2.93084 -3.02787 0
M  V30 5304 H 519.877 2.64449 -1.86677 0
M  V30 5305 H 518.784 1.08449 -3.58036 0
M  V30 5306 H 520.117 1.44569 -4.7049 0
M  V30 5307 N 521.769 1.56035 0.221574 0
M  V30 5308 C 522.699 1.95434 1.2778 0
M  V30 5309 C 523.68 0.822564 1.48889 0
M  V30 5310 O 524.865 1.08486 1.61072 0
M  V30 5311 C 521.995 2.27102 2.62759 0
M  V30 5312 C 520.949 3.4277 2.56306 0
M  V30 5313 C 520.275 3.60043 3.95314 0
M  V30 5314 C 521.575 4.77742 2.11093 0
M  V30 5315 H 523.269 2.83912 0.950504 0
M  V30 5316 H 520.815 1.36596 0.455791 0
M  V30 5317 H 522.768 2.53256 3.36807 0
M  V30 5318 H 521.492 1.35478 2.97176 0
M  V30 5319 H 520.151 3.16664 1.84715 0
M  V30 5320 H 519.799 2.65794 4.27039 0
M  V30 5321 H 519.499 4.37841 3.91879 0
M  V30 5322 H 521.023 3.88545 4.71025 0
M  V30 5323 H 522.437 5.03102 2.74885 0
M  V30 5324 H 520.834 5.58823 2.18716 0
M  V30 5325 H 521.904 4.731 1.06321 0
M  V30 5326 N 523.247 -0.488276 1.49845 0
M  V30 5327 C 524.493 -1.24341 1.6021 0
M  V30 5328 C 524.826 -1.91967 0.293651 0
M  V30 5329 O 524.101 -1.81323 -0.703718 0
M  V30 5330 C 524.384 -2.3005 2.77036 0
M  V30 5331 C 524.237 -1.66842 4.17713 0
M  V30 5332 C 525.556 -3.31509 2.89464 0
M  V30 5333 H 522.675 -0.450704 0.583125 0
M  V30 5334 H 525.317 -0.539673 1.82174 0
M  V30 5335 H 523.467 -2.90071 2.58439 0
M  V30 5336 H 525.139 -1.1055 4.47858 0
M  V30 5337 H 523.382 -0.972079 4.22768 0
M  V30 5338 H 524.053 -2.43576 4.95353 0
M  V30 5339 H 526.529 -2.81493 3.06433 0
M  V30 5340 H 525.405 -4.02822 3.72861 0
M  V30 5341 H 525.666 -3.94603 1.99351 0
M  V30 5342 N 524.725 -1.39134 -0.740242 0
M  V30 5343 C 525.95 -1.39518 -1.53459 0
M  V30 5344 C 526.375 0.00968883 -1.88098 0
M  V30 5345 O 525.733 0.995312 -1.51536 0
M  V30 5346 C 525.781 -2.26981 -2.802 0
M  V30 5347 O 524.885 -1.69609 -3.75908 0
M  V30 5348 H 524.226 -0.475328 -0.463637 0
M  V30 5349 H 526.756 -1.83064 -0.913717 0
M  V30 5350 H 526.766 -2.41309 -3.28989 0
M  V30 5351 H 525.441 -3.29081 -2.5432 0
M  V30 5352 H 524.018 -1.64495 -3.34658 0
M  V30 5353 N 526.204 0.969867 -1.24223 0
M  V30 5354 C 527.151 2.06407 -1.0327 0
M  V30 5355 C 528.121 1.66014 0.0533 0
M  V30 5356 O 529.306 1.90533 -0.100896 0
M  V30 5357 C 526.446 3.3909 -0.641262 0
M  V30 5358 C 525.559 3.9269 -1.80051 0
M  V30 5359 C 524.694 5.13631 -1.35486 0
M  V30 5360 C 523.733 5.59423 -2.48419 0
M  V30 5361 N 522.87 6.71586 -2.04737 0
M  V30 5362 H 527.71 2.23663 -1.96923 0
M  V30 5363 H 525.247 1.09624 -0.980862 0
M  V30 5364 H 527.205 4.15323 -0.395351 0
M  V30 5365 H 525.835 3.21765 0.258269 0
M  V30 5366 H 524.887 3.13116 -2.16014 0
M  V30 5367 H 526.199 4.22636 -2.64916 0
M  V30 5368 H 525.353 5.97231 -1.0677 0
M  V30 5369 H 524.092 4.85364 -0.476722 0
M  V30 5370 H 523.097 4.74398 -2.77897 0
M  V30 5371 H 524.322 5.89705 -3.36786 0
M  V30 5372 H 522.268 6.45058 -1.19318 0
M  V30 5373 H 522.185 7.0097 -2.83156 0
M  V30 5374 H 523.453 7.58633 -1.79154 0
M  V30 5375 N 527.682 1.05563 1.17022 0
M  V30 5376 C 528.615 0.604197 2.20056 0
M  V30 5377 C 529.593 -0.369169 1.58354 0
M  V30 5378 O 530.777 -0.279898 1.8641 0
M  V30 5379 C 527.904 -0.115265 3.38504 0
M  V30 5380 C 526.95 0.813698 4.18666 0
M  V30 5381 S 527.783 2.30492 4.83357 0
M  V30 5382 C 528.939 1.59674 6.0519 0
M  V30 5383 H 529.172 1.47713 2.58008 0
M  V30 5384 H 526.705 0.867932 1.27696 0
M  V30 5385 H 528.663 -0.524162 4.0714 0
M  V30 5386 H 527.324 -0.964284 2.98932 0
M  V30 5387 H 526.517 0.256736 5.03346 0
M  V30 5388 H 526.119 1.16213 3.55486 0
M  V30 5389 H 528.411 0.898164 6.7152 0
M  V30 5390 H 529.354 2.42115 6.65422 0
M  V30 5391 H 529.762 1.08252 5.54023 0
M  V30 5392 N 529.16 -1.33526 0.837174 0
M  V30 5393 C 530.107 -2.29248 0.267169 0
M  V30 5394 C 531.077 -1.54252 -0.616071 0
M  V30 5395 O 532.262 -1.82559 -0.554699 0
M  V30 5396 C 529.402 -3.40638 -0.553152 0
M  V30 5397 C 528.515 -4.30548 0.353921 0
M  V30 5398 C 527.65 -5.29051 -0.477339 0
M  V30 5399 C 526.689 -6.106 0.42823 0
M  V30 5400 N 525.826 -7.01152 -0.364801 0
M  V30 5401 H 530.666 -2.77398 1.08877 0
M  V30 5402 H 528.203 -1.36496 0.54838 0
M  V30 5403 H 530.161 -4.03921 -1.04422 0
M  V30 5404 H 528.791 -2.93685 -1.33973 0
M  V30 5405 H 527.843 -3.68001 0.963289 0
M  V30 5406 H 529.155 -4.87631 1.04964 0
M  V30 5407 H 528.309 -5.97853 -1.0323 0
M  V30 5408 H 527.048 -4.72541 -1.2065 0
M  V30 5409 H 526.053 -5.40718 0.995219 0
M  V30 5410 H 527.278 -6.69193 1.15573 0
M  V30 5411 H 525.224 -6.47092 -1.07738 0
M  V30 5412 H 525.141 -7.5551 0.272238 0
M  V30 5413 H 526.409 -7.74263 -0.902054 0
M  V30 5414 N 530.638 -0.59345 -1.46 0
M  V30 5415 C 531.915 -0.0157933 -1.95594 0
M  V30 5416 C 532.295 1.44807 -1.53604 0
M  V30 5417 O 531.643 2.14342 -0.791824 0
M  V30 5418 C 531.853 -0.199081 -3.48432 0
M  V30 5419 C 533.201 -0.0724943 -4.24538 0
M  V30 5420 O 534.225 -0.128469 -3.55968 0
M  V30 5421 O 533.084 0.0542426 -5.46473 0
M  V30 5422 H 530.178 0.043749 -0.825842 0
M  V30 5423 H 532.724 -0.662522 -1.56233 0
M  V30 5424 H 531.496 -1.21631 -3.71916 0
M  V30 5425 H 531.119 0.483576 -3.94648 0
M  V30 5426 N 532.116 1.54067 -0.331816 0
M  V30 5427 C 533.049 2.20886 0.573127 0
M  V30 5428 C 534.027 1.18876 1.10938 0
M  V30 5429 O 535.211 1.47649 1.17184 0
M  V30 5430 C 532.338 2.87706 1.78726 0
M  V30 5431 C 531.384 4.03505 1.38152 0
M  V30 5432 S 532.217 5.33919 0.41123 0
M  V30 5433 C 533.373 6.04236 1.63246 0
M  V30 5434 H 533.606 2.97299 0.00555737 0
M  V30 5435 H 531.139 1.53964 -0.115893 0
M  V30 5436 H 533.097 3.26825 2.48386 0
M  V30 5437 H 531.758 2.1108 2.32603 0
M  V30 5438 H 530.951 4.49152 2.28645 0
M  V30 5439 H 530.553 3.66102 0.764524 0
M  V30 5440 H 532.845 6.26917 2.56869 0
M  V30 5441 H 533.788 6.97546 1.218 0
M  V30 5442 H 534.196 5.34247 1.82318 0
M  V30 5443 N 533.594 0.0601682 1.57485 0
M  V30 5444 C 534.526 -0.94047 2.09016 0
M  V30 5445 C 535.539 -1.26897 1.01985 0
M  V30 5446 O 536.728 -1.22819 1.29529 0
M  V30 5447 C 533.828 -2.25955 2.52582 0
M  V30 5448 C 533.001 -2.11163 3.83052 0
M  V30 5449 C 532.06 -3.26273 4.12835 0
M  V30 5450 O 531.086 -3.01779 4.82616 0
M  V30 5451 N 532.288 -4.51022 3.65458 0
M  V30 5452 H 535.053 -0.500578 2.9549 0
M  V30 5453 H 532.614 -0.125852 1.6141 0
M  V30 5454 H 534.606 -3.01846 2.69575 0
M  V30 5455 H 533.176 -2.61481 1.71308 0
M  V30 5456 H 532.396 -1.19808 3.75552 0
M  V30 5457 H 533.684 -1.98517 4.68475 0
M  V30 5458 H 533.082 -4.73811 3.09062 0
M  V30 5459 H 531.639 -5.23978 3.87673 0
M  V30 5460 N 535.072 -1.5615 -0.213296 0
M  V30 5461 C 536.005 -1.88115 -1.29182 0
M  V30 5462 C 536.983 -0.739348 -1.44819 0
M  V30 5463 O 538.167 -0.988541 -1.605 0
M  V30 5464 C 535.294 -2.09541 -2.66102 0
M  V30 5465 C 534.34 -3.32236 -2.67436 0
M  V30 5466 S 535.173 -4.87915 -2.20679 0
M  V30 5467 C 536.329 -5.12387 -3.59458 0
M  V30 5468 H 536.562 -2.793 -1.01876 0
M  V30 5469 H 534.095 -1.48692 -0.415934 0
M  V30 5470 H 536.053 -2.22568 -3.44925 0
M  V30 5471 H 534.714 -1.19138 -2.90628 0
M  V30 5472 H 533.907 -3.44297 -3.6807 0
M  V30 5473 H 533.509 -3.18108 -1.96681 0
M  V30 5474 H 535.801 -5.01791 -4.55205 0
M  V30 5475 H 536.744 -6.14236 -3.52306 0
M  V30 5476 H 537.152 -4.40089 -3.53528 0
M  V30 5477 N 536.55 0.480323 -1.50102 0
M  V30 5478 C 537.827 1.24159 -1.51142 0
M  V30 5479 C 538.207 2.09605 -0.250818 0
M  V30 5480 O 537.555 2.15274 0.766118 0
M  V30 5481 C 537.765 2.08057 -2.80202 0
M  V30 5482 C 539.113 2.66556 -3.30504 0
M  V30 5483 O 540.137 2.18308 -2.81461 0
M  V30 5484 O 538.996 3.54442 -4.15973 0
M  V30 5485 H 536.09 0.562928 -0.605839 0
M  V30 5486 H 538.636 0.492899 -1.62384 0
M  V30 5487 H 537.408 1.45032 -3.6343 0
M  V30 5488 H 537.031 2.90079 -2.71919 0
M  V30 5489 N 538.028 1.39524 0.732853 0
M  V30 5490 C 538.975 1.38416 1.84688 0
M  V30 5491 C 539.945 0.243539 1.64305 0
M  V30 5492 O 541.13 0.438979 1.85681 0
M  V30 5493 C 538.27 1.23555 3.22224 0
M  V30 5494 C 537.383 2.47179 3.54298 0
M  V30 5495 C 536.518 2.2489 4.81246 0
M  V30 5496 C 535.557 3.44178 5.0617 0
M  V30 5497 N 534.694 3.21192 6.24323 0
M  V30 5498 H 539.534 2.33645 1.84971 0
M  V30 5499 H 537.071 1.16059 0.903804 0
M  V30 5500 H 539.029 1.12949 4.0162 0
M  V30 5501 H 537.659 0.31954 3.21215 0
M  V30 5502 H 536.711 2.68379 2.69587 0
M  V30 5503 H 538.023 3.36022 3.68633 0
M  V30 5504 H 537.177 2.11538 5.68627 0
M  V30 5505 H 535.916 1.33443 4.69089 0
M  V30 5506 H 534.921 3.58025 4.17251 0
M  V30 5507 H 536.146 4.36528 5.20212 0
M  V30 5508 H 534.092 2.32413 6.1345 0
M  V30 5509 H 534.009 4.03594 6.39256 0
M  V30 5510 H 535.277 3.1154 7.14537 0
M  V30 5511 N 539.506 -0.963266 1.24736 0
M  V30 5512 C 540.731 -1.74699 1.11781 0
M  V30 5513 C 541.156 -1.85267 -0.325258 0
M  V30 5514 O 540.514 -1.32681 -1.23553 0
M  V30 5515 C 540.562 -3.14322 1.76731 0
M  V30 5516 O 539.666 -3.99043 1.04109 0
M  V30 5517 H 539.007 -0.53684 0.390767 0
M  V30 5518 H 541.537 -1.20801 1.65131 0
M  V30 5519 H 541.547 -3.64824 1.82668 0
M  V30 5520 H 540.222 -3.05946 2.81726 0
M  V30 5521 H 538.799 -3.5752 1.05991 0
M  V30 5522 N 540.985 -1.06182 -1.16461 0
M  V30 5523 C 541.895 -0.682671 -2.24448 0
M  V30 5524 C 542.911 0.30078 -1.71381 0
M  V30 5525 O 544.087 0.150376 -2.00838 0
M  V30 5526 C 541.152 -0.0737202 -3.46622 0
M  V30 5527 C 540.213 -1.10889 -4.14731 0
M  V30 5528 C 539.446 -0.528908 -5.31073 0
M  V30 5529 O 539.669 0.65868 -5.66584 0
M  V30 5530 O 538.603 -1.26805 -5.88391 0
M  V30 5531 H 542.429 -1.58291 -2.59187 0
M  V30 5532 H 540.014 -0.834013 -1.23954 0
M  V30 5533 H 541.896 0.264192 -4.20571 0
M  V30 5534 H 540.571 0.800015 -3.13658 0
M  V30 5535 H 539.478 -1.49896 -3.42756 0
M  V30 5536 H 540.811 -1.95412 -4.51747 0
M  V30 5537 N 542.463 1.3308 -0.844243 0
M  V30 5538 C 543.393 2.3161 -0.296493 0
M  V30 5539 C 544.374 1.59215 0.598707 0
M  V30 5540 O 545.559 1.87077 0.521134 0
M  V30 5541 C 542.689 3.43313 0.524762 0
M  V30 5542 C 541.643 4.27115 -0.275106 0
M  V30 5543 C 540.969 5.30483 0.670236 0
M  V30 5544 C 542.269 5.00443 -1.49514 0
M  V30 5545 H 543.963 2.77672 -1.11976 0
M  V30 5546 H 541.509 1.33496 -0.539899 0
M  V30 5547 H 543.462 4.11273 0.918298 0
M  V30 5548 H 542.186 2.95952 1.3813 0
M  V30 5549 H 540.845 3.60787 -0.650267 0
M  V30 5550 H 540.493 4.79379 1.52332 0
M  V30 5551 H 540.193 5.87435 0.139123 0
M  V30 5552 H 541.717 6.01308 1.06117 0
M  V30 5553 H 543.131 5.61141 -1.17447 0
M  V30 5554 H 541.528 5.67071 -1.96343 0
M  V30 5555 H 542.598 4.28906 -2.26202 0
M  V30 5556 N 543.941 0.601185 1.45683 0
M  V30 5557 C 545.189 0.0936957 2.01883 0
M  V30 5558 C 545.51 -1.2779 1.47291 0
M  V30 5559 O 544.78 -1.84279 0.664691 0
M  V30 5560 H 543.36 0.0316466 0.746329 0
M  V30 5561 H 546.022 0.781137 1.78562 0
M  V30 5562 H 545.118 0.0386297 3.12076 0
M  V30 5563 N 545.419 -1.53889 0.339982 0
M  V30 5564 C 546.659 -2.02765 -0.258011 0
M  V30 5565 C 547.023 -1.22249 -1.48051 0
M  V30 5566 O 548.224 -1.61007 -2.15245 0
M  V30 5567 C 546.495 -3.5286 -0.567872 0
M  V30 5568 S 548.054 -4.23647 -1.14318 0
M  V30 5569 H 544.872 -0.706814 -0.0770389 0
M  V30 5570 H 547.474 -1.89594 0.476917 0
M  V30 5571 H 546.178 -4.09073 0.329745 0
M  V30 5572 H 545.709 -3.70144 -1.33256 0
M  V30 5573 H 547.724 -4.32676 -2.42911 0
M  V30 5574 N 546.897 -0.0685191 -1.57451 0
M  V30 5575 C 547.827 0.89747 -2.15564 0
M  V30 5576 C 548.808 1.31266 -1.08181 0
M  V30 5577 O 549.993 1.38429 -1.36202 0
M  V30 5578 C 547.123 2.16623 -2.71463 0
M  V30 5579 C 546.077 1.89054 -3.83982 0
M  V30 5580 C 545.403 3.22532 -4.26471 0
M  V30 5581 C 546.703 1.1984 -5.08366 0
M  V30 5582 H 548.397 0.413373 -2.96533 0
M  V30 5583 H 545.943 0.197391 -1.42641 0
M  V30 5584 H 547.896 2.84614 -3.10761 0
M  V30 5585 H 546.62 2.67269 -1.8771 0
M  V30 5586 H 545.279 1.23469 -3.45183 0
M  V30 5587 H 544.927 3.71013 -3.39644 0
M  V30 5588 H 544.627 3.04879 -5.02317 0
M  V30 5589 H 546.151 3.91727 -4.68383 0
M  V30 5590 H 547.565 1.77896 -5.45001 0
M  V30 5591 H 545.962 1.12456 -5.89469 0
M  V30 5592 H 547.032 0.176996 -4.84577 0
M  V30 5593 N 548.375 1.56261 0.205012 0
M  V30 5594 C 549.791 1.49623 0.555433 0
M  V30 5595 C 549.991 0.766719 1.86343 0
M  V30 5596 O 549.047 0.313158 2.50551 0
M  V30 5597 C 550.36 2.94253 0.619347 0
M  V30 5598 C 551.908 3.04868 0.708855 0
M  V30 5599 C 552.383 4.50888 0.803969 0
M  V30 5600 N 553.874 4.54999 0.867758 0
M  V30 5601 C 554.609 5.65284 0.96135 0
M  V30 5602 N 554.105 6.85282 1.01786 0
M  V30 5603 N 555.898 5.53174 0.997771 0
M  V30 5604 H 548.049 2.0211 -0.653094 0
M  V30 5605 H 550.312 0.919333 -0.231366 0
M  V30 5606 H 550.018 3.50643 -0.272458 0
M  V30 5607 H 549.892 3.47063 1.47741 0
M  V30 5608 H 552.279 2.48532 1.5911 0
M  V30 5609 H 552.36 2.55199 -0.175205 0
M  V30 5610 H 552.004 5.07846 -0.0738798 0
M  V30 5611 H 551.934 4.98279 1.70369 0
M  V30 5612 H 554.425 3.68588 0.833735 0
M  V30 5613 H 554.738 7.65081 1.08951 0
M  V30 5614 H 553.083 6.8796 0.986706 0
M  V30 5615 H 556.274 4.5835 0.950392 0
M  V30 5616 H 556.447 6.39151 1.06725 0
M  V30 5617 N 549.853 -0.472356 1.50355 0
M  V30 5618 C 550.816 -1.5529 1.68576 0
M  V30 5619 C 551.816 -1.50863 0.556511 0
M  V30 5620 O 553.006 -1.53505 0.823516 0
M  V30 5621 C 550.138 -2.94921 1.70981 0
M  V30 5622 H 551.331 -1.40451 2.64978 0
M  V30 5623 H 548.884 -0.698645 1.39816 0
M  V30 5624 H 549.619 -3.15204 0.762675 0
M  V30 5625 H 549.404 -2.99541 2.53017 0
M  V30 5626 H 550.894 -3.73372 1.87037 0
M  V30 5627 N 551.331 -1.39911 -0.725443 0
M  V30 5628 C 552.58 -1.36963 -1.48068 0
M  V30 5629 C 552.893 0.0284478 -1.95579 0
M  V30 5630 O 554.099 0.180535 -2.70899 0
M  V30 5631 C 552.555 -2.40664 -2.67598 0
M  V30 5632 C 552.163 -3.86234 -2.26997 0
M  V30 5633 C 553.907 -2.46807 -3.45379 0
M  V30 5634 C 551.814 -4.81554 -3.43307 0
M  V30 5635 H 550.744 -0.509223 -0.556065 0
M  V30 5636 H 553.395 -1.65602 -0.790454 0
M  V30 5637 H 551.777 -2.05109 -3.38742 0
M  V30 5638 H 552.951 -4.3088 -1.63337 0
M  V30 5639 H 551.266 -3.83475 -1.62284 0
M  V30 5640 H 553.863 -3.15213 -4.31909 0
M  V30 5641 H 554.206 -1.49552 -3.8851 0
M  V30 5642 H 554.739 -2.81303 -2.81271 0
M  V30 5643 H 551.478 -5.80106 -3.05217 0
M  V30 5644 H 550.998 -4.4158 -4.05915 0
M  V30 5645 H 552.677 -5.0091 -4.0951 0
M  V30 5646 N 552.809 0.956637 -1.25245 0
M  V30 5647 C 554.055 1.70352 -1.10036 0
M  V30 5648 C 554.388 1.90869 0.358156 0
M  V30 5649 O 553.663 1.47819 1.26411 0
M  V30 5650 C 553.946 3.08766 -1.85298 0
M  V30 5651 C 553.799 2.95672 -3.38966 0
M  V30 5652 C 555.118 4.08622 -1.63451 0
M  V30 5653 H 552.237 0.618279 -0.401123 0
M  V30 5654 H 554.879 1.11212 -1.54051 0
M  V30 5655 H 553.029 3.59252 -1.47887 0
M  V30 5656 H 554.701 2.52527 -3.86041 0
M  V30 5657 H 552.944 2.31634 -3.6678 0
M  V30 5658 H 553.615 3.93776 -3.86839 0
M  V30 5659 H 556.091 3.67038 -1.96015 0
M  V30 5660 H 554.967 5.03514 -2.18551 0
M  V30 5661 H 555.228 4.3834 -0.575357 0
M  V30 5662 N 554.287 1.06798 1.15896 0
M  V30 5663 C 555.217 0.704677 2.22613 0
M  V30 5664 C 556.198 -0.305252 1.67339 0
M  V30 5665 O 557.383 -0.179247 1.93371 0
M  V30 5666 C 554.513 0.0957325 3.47168 0
M  V30 5667 C 553.467 1.0322 4.15367 0
M  V30 5668 C 552.793 0.286293 5.33933 0
M  V30 5669 C 554.093 2.36341 4.65768 0
M  V30 5670 H 555.787 1.59688 2.53259 0
M  V30 5671 H 553.333 0.769257 1.21731 0
M  V30 5672 H 555.286 -0.170333 4.21056 0
M  V30 5673 H 554.01 -0.831516 3.15838 0
M  V30 5674 H 552.669 1.28309 3.43413 0
M  V30 5675 H 552.317 -0.644237 4.98857 0
M  V30 5676 H 552.017 0.910436 5.80504 0
M  V30 5677 H 553.541 0.0278938 6.10594 0
M  V30 5678 H 554.955 2.1561 5.31211 0
M  V30 5679 H 553.352 2.94299 5.2298 0
M  V30 5680 H 554.422 2.99047 3.81705 0
M  V30 5681 N 555.766 -1.3263 0.851289 0
M  V30 5682 C 557.013 -1.97368 0.453023 0
M  V30 5683 C 557.341 -1.67384 -0.990596 0
M  V30 5684 O 556.596 -0.952665 -1.70947 0
M  V30 5685 C 556.895 -3.51713 0.635015 0
M  V30 5686 C 556.561 -4.01676 2.04859 0
M  V30 5687 C 555.223 -4.15031 2.43522 0
M  V30 5688 C 557.575 -4.28206 2.97135 0
M  V30 5689 C 554.903 -4.52257 3.73739 0
M  V30 5690 C 557.255 -4.66889 4.26846 0
M  V30 5691 C 555.919 -4.7845 4.65448 0
M  V30 5692 H 555.189 -0.722219 0.165773 0
M  V30 5693 H 557.836 -1.58092 1.0807 0
M  V30 5694 H 556.141 -3.91726 -0.0759081 0
M  V30 5695 H 557.838 -3.99823 0.306964 0
M  V30 5696 H 554.428 -3.91764 1.73836 0
M  V30 5697 H 558.612 -4.174 2.68498 0
M  V30 5698 H 553.868 -4.59402 4.03435 0
M  V30 5699 H 558.042 -4.86372 4.98413 0
M  V30 5700 H 555.669 -5.07052 5.66395 0
M  V30 5701 N 557.244 -0.608902 -1.45362 0
M  V30 5702 C 558.192 0.121639 -2.32282 0
M  V30 5703 C 559.186 0.858301 -1.46046 0
M  V30 5704 O 560.392 0.773718 -1.62523 0
M  V30 5705 H 556.767 0.058086 -0.749753 0
M  V30 5706 H 558.738 -0.629866 -2.91677 0
M  V30 5707 C 557.487 1.1047 -3.29684 0
M  V30 5708 H 556.81 0.547278 -3.96036 0
M  V30 5709 H 558.25 1.58576 -3.9323 0
M  V30 5710 C 556.709 2.17891 -2.56954 0
M  V30 5711 O 557.239 3.25652 -2.35189 0
M  V30 5712 N 555.445 1.93211 -2.17066 0
M  V30 5713 H 554.992 1.05584 -2.34967 0
M  V30 5714 H 554.95 2.6529 -1.68727 0
M  V30 5715 N 558.722 1.53707 -0.348139 0
M  V30 5716 C 560.133 1.86213 0.134797 0
M  V30 5717 C 560.484 1.26925 1.49614 0
M  V30 5718 O 559.609 0.584573 2.08355 0
M  V30 5719 C 560.204 3.37866 0.251371 0
M  V30 5720 C 558.763 3.70233 0.678543 0
M  V30 5721 C 557.91 2.76683 -0.184925 0
M  V30 5722 H 560.861 1.48204 -0.567571 0
M  V30 5723 H 560.882 3.64908 1.07806 0
M  V30 5724 H 560.394 3.80988 -0.739581 0
M  V30 5725 H 558.495 3.32659 1.67835 0
M  V30 5726 H 558.608 4.76836 0.465251 0
M  V30 5727 H 556.972 2.52374 0.343465 0
M  V30 5728 H 557.755 3.22635 -1.1731 0
M  V30 5729 N 560.2 0.0768682 1.57412 0
M  V30 5730 C 561.477 -0.632359 1.85096 0
M  V30 5731 C 561.857 -1.87479 0.9703 0
M  V30 5732 O 561.205 -2.28469 0.0379062 0
M  V30 5733 C 561.415 -0.965174 3.35388 0
M  V30 5734 C 562.763 -1.33648 4.03018 0
M  V30 5735 O 563.787 -1.05675 3.40164 0
M  V30 5736 O 562.646 -1.85959 5.13889 0
M  V30 5737 H 559.74 -0.314574 0.764835 0
M  V30 5738 H 562.286 0.108184 1.69355 0
M  V30 5739 H 561.058 -0.0829745 3.91212 0
M  V30 5740 H 560.681 -1.76231 3.5641 0
M  V30 5741 N 561.678 -1.56367 -0.196722 0
M  V30 5742 C 562.641 -1.93561 -1.22746 0
M  V30 5743 C 563.641 -0.816566 -1.38524 0
M  V30 5744 O 564.831 -1.084 -1.36363 0
M  V30 5745 C 561.963 -2.20823 -2.59712 0
M  V30 5746 H 563.156 -2.85774 -0.909586 0
M  V30 5747 H 560.709 -1.50032 -0.438174 0
M  V30 5748 H 561.444 -1.31243 -2.96557 0
M  V30 5749 H 561.229 -3.02368 -2.49632 0
M  V30 5750 H 562.719 -2.50608 -3.34044 0
M  V30 5751 N 563.156 0.464375 -1.50603 0
M  V30 5752 C 564.103 1.56152 -1.69956 0
M  V30 5753 C 565.073 1.57046 -0.54091 0
M  V30 5754 O 566.258 1.74473 -0.772258 0
M  V30 5755 C 563.398 2.94079 -1.80586 0
M  V30 5756 C 562.511 3.02923 -3.07996 0
M  V30 5757 C 561.646 4.31806 -3.09382 0
M  V30 5758 C 560.685 4.34417 -4.31218 0
M  V30 5759 N 559.822 5.54782 -4.30304 0
M  V30 5760 H 564.662 1.38955 -2.6362 0
M  V30 5761 H 562.199 0.675482 -1.30674 0
M  V30 5762 H 564.157 3.74073 -1.8473 0
M  V30 5763 H 562.787 3.09896 -0.903556 0
M  V30 5764 H 561.839 2.1576 -3.13292 0
M  V30 5765 H 563.151 3.00712 -3.97962 0
M  V30 5766 H 562.305 5.20153 -3.12292 0
M  V30 5767 H 561.044 4.36636 -2.17257 0
M  V30 5768 H 560.049 3.44467 -4.28512 0
M  V30 5769 H 561.274 4.31273 -5.24576 0
M  V30 5770 H 559.22 5.60384 -3.41037 0
M  V30 5771 H 559.137 5.54339 -5.14047 0
M  V30 5772 H 560.405 6.45235 -4.3737 0
M  V30 5773 N 564.634 1.40294 0.718013 0
M  V30 5774 C 565.882 1.38167 1.47494 0
M  V30 5775 C 566.203 -0.01607 1.94993 0
M  V30 5776 O 565.473 -0.970396 1.70177 0
M  V30 5777 H 564.053 0.508505 0.547203 0
M  V30 5778 H 566.715 1.75324 0.851322 0
M  V30 5779 H 565.811 2.05503 2.34894 0
M  V30 5780 N 566.112 -0.949982 1.2575 0
M  V30 5781 C 567.042 -2.06483 1.09028 0
M  V30 5782 C 568.023 -1.701 -0.00201532 0
M  V30 5783 O 569.208 -1.93469 0.168383 0
M  V30 5784 C 566.338 -3.39899 0.71316 0
M  V30 5785 C 565.292 -3.90309 1.75621 0
M  V30 5786 C 564.618 -5.20274 1.23365 0
M  V30 5787 C 565.918 -4.16169 3.15596 0
M  V30 5788 H 567.612 -2.20731 2.02283 0
M  V30 5789 H 565.158 -1.06066 0.973964 0
M  V30 5790 H 567.111 -4.17346 0.58309 0
M  V30 5791 H 565.835 -3.25602 -0.255091 0
M  V30 5792 H 564.494 -3.15035 1.8748 0
M  V30 5793 H 564.142 -5.02351 0.255491 0
M  V30 5794 H 563.842 -5.54971 1.93082 0
M  V30 5795 H 565.366 -6.00314 1.11607 0
M  V30 5796 H 566.78 -4.84259 3.06864 0
M  V30 5797 H 565.177 -4.62131 3.82825 0
M  V30 5798 H 566.247 -3.22273 3.6231 0
M  V30 5799 N 567.59 -1.07411 -1.15328 0
M  V30 5800 C 568.815 -0.818856 -1.90551 0
M  V30 5801 C 569.24 0.622194 -1.77512 0
M  V30 5802 O 568.598 1.43484 -1.10824 0
M  V30 5803 C 568.646 -1.23267 -3.38877 0
M  V30 5804 O 567.75 -0.378345 -4.10661 0
M  V30 5805 H 567.091 -0.29827 -0.593238 0
M  V30 5806 H 569.621 -1.43289 -1.46046 0
M  V30 5807 H 569.631 -1.20912 -3.89672 0
M  V30 5808 H 568.306 -2.28226 -3.47686 0
M  V30 5809 H 566.883 -0.464437 -3.69996 0
M  V30 5810 N 569.068 1.32177 -0.85831 0
M  V30 5811 C 570.016 2.30729 -0.294442 0
M  V30 5812 C 571.01 1.59009 0.584165 0
M  V30 5813 O 572.216 1.73713 0.471562 0
M  V30 5814 H 568.591 0.748097 -0.0765171 0
M  V30 5815 H 570.562 2.75774 -1.1398 0
M  V30 5816 C 569.311 3.44098 0.499208 0
M  V30 5817 H 568.634 3.99449 -0.167579 0
M  V30 5818 H 570.074 4.15202 0.859273 0
M  V30 5819 C 568.533 2.91684 1.68588 0
M  V30 5820 O 569.063 2.89481 2.78503 0
M  V30 5821 N 567.269 2.48036 1.51415 0
M  V30 5822 H 566.816 2.50027 0.620006 0
M  V30 5823 H 566.774 2.13322 2.30957 0
M  V30 5824 N 570.547 0.616602 1.45037 0
M  V30 5825 C 571.958 0.199359 1.85633 0
M  V30 5826 C 572.309 -1.24588 1.51566 0
M  V30 5827 O 571.434 -1.94594 0.94668 0
M  V30 5828 C 572.029 0.355033 3.36935 0
M  V30 5829 C 570.588 -0.00758748 3.76399 0
M  V30 5830 C 569.735 0.675256 2.68953 0
M  V30 5831 H 572.686 0.822708 1.3571 0
M  V30 5832 H 572.707 -0.410201 3.78282 0
M  V30 5833 H 572.219 1.40699 3.61698 0
M  V30 5834 H 570.32 -1.05837 3.57252 0
M  V30 5835 H 570.433 0.392346 4.77491 0
M  V30 5836 H 568.797 0.111992 2.54454 0
M  V30 5837 H 569.58 1.72952 2.96551 0
M  V30 5838 N 572.025 -1.5352 0.356285 0
M  V30 5839 C 573.25 -2.06007 -0.239961 0
M  V30 5840 C 573.675 -1.22872 -1.42422 0
M  V30 5841 O 573.033 -0.245516 -1.7963 0
M  V30 5842 C 573.081 -3.5522 -0.620587 0
M  V30 5843 O 572.185 -3.74864 -1.71902 0
M  V30 5844 H 571.526 -0.662961 -0.0371377 0
M  V30 5845 H 574.056 -1.98033 0.514194 0
M  V30 5846 H 574.066 -3.98081 -0.894197 0
M  V30 5847 H 572.741 -4.15175 0.245407 0
M  V30 5848 H 571.318 -3.43904 -1.44169 0
M  V30 5849 N 573.503 -0.0852151 -1.57369 0
M  V30 5850 C 574.413 0.891712 -2.16992 0
M  V30 5851 C 575.429 1.3174 -1.13669 0
M  V30 5852 O 576.605 1.38735 -1.45995 0
M  V30 5853 C 573.67 2.13635 -2.73059 0
M  V30 5854 C 572.731 1.7658 -3.91303 0
M  V30 5855 C 571.964 2.95111 -4.44686 0
M  V30 5856 O 572.187 4.09539 -3.97032 0
M  V30 5857 O 571.121 2.74149 -5.35841 0
M  V30 5858 H 574.947 0.414477 -3.00858 0
M  V30 5859 H 572.532 0.138598 -1.48756 0
M  V30 5860 H 574.414 2.86595 -3.08935 0
M  V30 5861 H 573.089 2.6043 -1.92244 0
M  V30 5862 H 571.996 1.00831 -3.60255 0
M  V30 5863 H 573.329 1.34557 -4.7345 0
M  V30 5864 N 574.981 1.5647 0.188427 0
M  V30 5865 C 576.227 1.81281 0.909124 0
M  V30 5866 C 576.56 0.66034 1.82628 0
M  V30 5867 O 575.835 -0.338737 1.91528 0
M  V30 5868 C 576.118 3.16388 1.7196 0
M  V30 5869 C 575.971 4.42137 0.826714 0
M  V30 5870 C 577.29 3.48256 2.69083 0
M  V30 5871 H 574.409 0.659457 0.329068 0
M  V30 5872 H 577.051 1.89182 0.176156 0
M  V30 5873 H 575.201 3.09784 2.34448 0
M  V30 5874 H 576.873 4.60794 0.216025 0
M  V30 5875 H 575.116 4.33594 0.133792 0
M  V30 5876 H 575.787 5.33184 1.42893 0
M  V30 5877 H 578.263 3.55203 2.16726 0
M  V30 5878 H 577.139 4.43899 3.2287 0
M  V30 5879 H 577.4 2.72088 3.48455 0
M  V30 5880 N 576.459 -0.456382 1.50847 0
M  V30 5881 C 577.369 -1.57805 1.73594 0
M  V30 5882 C 578.385 -1.62599 0.619476 0
M  V30 5883 O 579.561 -1.80195 0.899532 0
M  V30 5884 C 576.626 -2.93926 1.8387 0
M  V30 5885 C 575.687 -2.99402 3.07663 0
M  V30 5886 C 574.92 -4.29031 3.1744 0
M  V30 5887 O 575.143 -5.20358 2.33631 0
M  V30 5888 O 574.077 -4.40401 4.10281 0
M  V30 5889 H 577.903 -1.41531 2.68705 0
M  V30 5890 H 575.488 -0.637422 1.3512 0
M  V30 5891 H 577.37 -3.74747 1.92725 0
M  V30 5892 H 576.045 -3.10368 0.91944 0
M  V30 5893 H 574.952 -2.17606 3.043 0
M  V30 5894 H 576.285 -2.87901 3.99216 0
M  V30 5895 N 577.937 -1.40673 -0.710563 0
M  V30 5896 C 579.165 -1.42547 -1.4996 0
M  V30 5897 C 579.58 -0.0265485 -1.88781 0
M  V30 5898 O 578.937 0.950694 -1.55782 0
M  V30 5899 C 578.988 -2.32071 -2.77173 0
M  V30 5900 O 578.709 -3.66518 -2.39992 0
M  V30 5901 C 580.21 -2.42591 -3.71032 0
M  V30 5902 H 577.43 -0.486025 -0.462623 0
M  V30 5903 H 579.974 -1.84783 -0.876102 0
M  V30 5904 H 578.129 -1.93184 -3.35795 0
M  V30 5905 H 578.543 -4.14115 -3.21884 0
M  V30 5906 H 580.017 -3.09429 -4.57119 0
M  V30 5907 H 580.494 -1.4525 -4.14486 0
M  V30 5908 H 581.1 -2.82051 -3.18319 0
M  V30 5909 N 579.415 0.9433 -1.26252 0
M  V30 5910 C 580.345 2.05902 -1.10122 0
M  V30 5911 C 581.326 1.70099 -0.00700552 0
M  V30 5912 O 582.511 1.93377 -0.178641 0
M  V30 5913 C 579.641 3.39516 -0.731175 0
M  V30 5914 C 578.595 3.89372 -1.77688 0
M  V30 5915 C 577.921 5.19613 -1.26122 0
M  V30 5916 C 579.221 4.14489 -3.17799 0
M  V30 5917 H 580.915 2.19655 -2.03451 0
M  V30 5918 H 578.461 1.05548 -0.979576 0
M  V30 5919 H 580.414 4.17031 -0.605215 0
M  V30 5920 H 579.138 3.25733 0.23782 0
M  V30 5921 H 577.797 3.14036 -1.89148 0
M  V30 5922 H 577.445 5.02208 -0.282128 0
M  V30 5923 H 577.145 5.53939 -1.96023 0
M  V30 5924 H 578.669 5.99713 -1.14789 0
M  V30 5925 H 580.083 4.82625 -3.09428 0
M  V30 5926 H 578.48 4.60094 -3.85271 0
M  V30 5927 H 579.55 3.20347 -3.64014 0
M  V30 5928 N 580.893 1.08022 1.14757 0
M  V30 5929 C 582.309 0.807072 1.3769 0
M  V30 5930 C 582.509 -0.585504 1.92806 0
M  V30 5931 O 581.565 -1.34301 2.13821 0
M  V30 5932 C 582.878 1.88651 2.34161 0
M  V30 5933 C 584.426 1.91206 2.47809 0
M  V30 5934 C 584.901 2.98253 3.47576 0
M  V30 5935 N 586.392 2.974 3.55117 0
M  V30 5936 C 587.127 3.76872 4.32152 0
M  V30 5937 N 586.623 4.66212 5.12463 0
M  V30 5938 N 588.416 3.6519 4.27309 0
M  V30 5939 H 580.567 1.97824 0.77326 0
M  V30 5940 H 582.83 0.85826 0.402608 0
M  V30 5941 H 582.536 2.88749 2.00791 0
M  V30 5942 H 582.41 1.75244 3.3402 0
M  V30 5943 H 584.797 0.917564 2.80472 0
M  V30 5944 H 584.878 2.08691 1.47925 0
M  V30 5945 H 584.522 3.97907 3.15646 0
M  V30 5946 H 584.452 2.78014 4.47231 0
M  V30 5947 H 586.943 2.32643 2.97801 0
M  V30 5948 H 587.256 5.23468 5.68508 0
M  V30 5949 H 585.601 4.70257 5.11745 0
M  V30 5950 H 588.792 2.94765 3.63636 0
M  V30 5951 H 588.965 4.27366 4.87095 0
M  V30 5952 N 582.371 -1.3172 0.865308 0
M  V30 5953 C 583.281 -2.32394 0.320935 0
M  V30 5954 C 584.297 -1.64511 -0.566746 0
M  V30 5955 O 585.473 -1.95969 -0.464575 0
M  V30 5956 C 582.538 -3.43462 -0.472701 0
M  V30 5957 C 581.599 -4.27015 0.442385 0
M  V30 5958 C 580.832 -5.32779 -0.313469 0
M  V30 5959 O 581.055 -5.49158 -1.54214 0
M  V30 5960 O 579.989 -6.01015 0.326257 0
M  V30 5961 H 583.815 -2.80868 1.15528 0
M  V30 5962 H 581.4 -1.35535 0.628545 0
M  V30 5963 H 583.282 -4.11172 -0.922781 0
M  V30 5964 H 581.957 -2.97159 -1.28367 0
M  V30 5965 H 580.864 -3.62075 0.940866 0
M  V30 5966 H 582.197 -4.76871 1.21882 0
M  V30 5967 N 583.85 -0.624285 -1.44708 0
M  V30 5968 C 584.797 0.0847135 -2.30644 0
M  V30 5969 C 585.767 0.843575 -1.43084 0
M  V30 5970 O 586.952 0.825982 -1.71995 0
M  V30 5971 C 584.091 1.06495 -3.28257 0
M  V30 5972 C 583.205 0.305224 -4.3092 0
M  V30 5973 C 582.34 1.27667 -5.1563 0
M  V30 5974 C 581.379 0.505706 -6.10007 0
M  V30 5975 N 580.516 1.42727 -6.8744 0
M  V30 5976 H 585.356 -0.654068 -2.90733 0
M  V30 5977 H 582.893 -0.334334 -1.4325 0
M  V30 5978 H 584.851 1.64658 -3.83332 0
M  V30 5979 H 583.481 1.77094 -2.69884 0
M  V30 5980 H 582.533 -0.392207 -3.78373 0
M  V30 5981 H 583.845 -0.295553 -4.97924 0
M  V30 5982 H 582.999 1.92984 -5.75189 0
M  V30 5983 H 581.738 1.91137 -4.48685 0
M  V30 5984 H 580.743 -0.160999 -5.49564 0
M  V30 5985 H 581.968 -0.124183 -6.78986 0
M  V30 5986 H 579.913 2.04931 -6.23169 0
M  V30 5987 H 579.831 0.880345 -7.50857 0
M  V30 5988 H 581.099 2.0695 -7.51526 0
M  V30 5989 N 585.328 1.53329 -0.364422 0
M  V30 5990 C 586.574 2.01537 0.225969 0
M  V30 5991 C 586.907 1.25128 1.48515 0
M  V30 5992 O 586.182 0.344653 1.91422 0
M  V30 5993 C 586.465 3.56339 0.519092 0
M  V30 5994 C 586.318 4.43441 -0.753639 0
M  V30 5995 C 587.637 4.19833 1.32015 0
M  V30 5996 H 584.756 0.732573 0.0806548 0
M  V30 5997 H 587.398 1.83597 -0.489084 0
M  V30 5998 H 585.548 3.71756 1.12825 0
M  V30 5999 H 587.22 4.39823 -1.39116 0
M  V30 6000 H 585.463 4.11457 -1.37424 0
M  V30 6001 H 586.134 5.49699 -0.503517 0
M  V30 6002 H 588.61 4.08242 0.804859 0
M  V30 6003 H 587.486 5.28177 1.49399 0
M  V30 6004 H 587.747 3.75821 2.32832 0
M  V30 6005 N 586.806 0.0935595 1.57322 0
M  V30 6006 C 588.036 -0.578095 1.98347 0
M  V30 6007 C 588.444 -1.62357 0.971441 0
M  V30 6008 O 587.787 -1.83639 -0.0473959 0
M  V30 6009 C 587.849 -1.28525 3.3574 0
M  V30 6010 C 587.513 -0.390714 4.55327 0
M  V30 6011 C 588.51 0.360522 5.18648 0
M  V30 6012 C 586.195 -0.309221 5.01347 0
M  V30 6013 C 588.189 1.18125 6.26359 0
M  V30 6014 C 585.876 0.515157 6.08925 0
M  V30 6015 C 586.874 1.25904 6.71295 0
M  V30 6016 O 586.562 2.06978 7.76798 0
M  V30 6017 H 586.294 -0.159767 0.656849 0
M  V30 6018 H 588.848 0.169058 2.04703 0
M  V30 6019 H 587.078 -2.07894 3.26063 0
M  V30 6020 H 588.767 -1.85128 3.61223 0
M  V30 6021 H 589.533 0.307285 4.84026 0
M  V30 6022 H 585.412 -0.877881 4.52564 0
M  V30 6023 H 588.956 1.76236 6.74971 0
M  V30 6024 H 584.853 0.56988 6.42979 0
M  V30 6025 H 585.621 1.99644 7.93779 0
M  V30 6026 N 588.284 -1.56567 -0.180126 0
M  V30 6027 C 589.247 -1.94852 -1.20686 0
M  V30 6028 C 590.247 -0.831212 -1.3765 0
M  V30 6029 O 591.437 -1.09841 -1.35206 0
M  V30 6030 C 588.569 -2.23565 -2.57355 0
M  V30 6031 H 589.762 -2.86722 -0.879225 0
M  V30 6032 H 587.315 -1.50489 -0.422237 0
M  V30 6033 H 588.05 -1.34381 -2.95148 0
M  V30 6034 H 587.835 -3.04999 -2.46411 0
M  V30 6035 H 589.325 -2.54137 -3.31367 0
M  V30 6036 N 589.762 0.448376 -1.51087 0
M  V30 6037 C 590.99 1.22143 -1.66999 0
M  V30 6038 C 591.405 1.85283 -0.362699 0
M  V30 6039 O 590.762 1.70236 0.65772 0
M  V30 6040 C 590.813 2.31357 -2.7777 0
M  V30 6041 O 590.534 1.70801 -4.03434 0
M  V30 6042 C 592.035 3.21836 -3.04855 0
M  V30 6043 H 589.255 0.368558 -0.560719 0
M  V30 6044 H 591.799 0.532618 -1.97442 0
M  V30 6045 H 589.954 2.95973 -2.49958 0
M  V30 6046 H 590.368 2.42895 -4.64868 0
M  V30 6047 H 591.842 3.94627 -3.85971 0
M  V30 6048 H 592.319 3.81949 -2.16821 0
M  V30 6049 H 592.925 2.62933 -3.34285 0
M  V30 6050 N 591.24 1.41047 0.703093 0
M  V30 6051 C 592.17 1.45067 1.82969 0
M  V30 6052 C 593.151 0.31016 1.67248 0
M  V30 6053 O 594.336 0.520548 1.87093 0
M  V30 6054 C 591.466 1.32478 3.2104 0
M  V30 6055 C 590.42 2.44262 3.51454 0
M  V30 6056 C 589.746 2.16742 4.88801 0
M  V30 6057 C 591.046 3.86606 3.51189 0
M  V30 6058 H 592.74 2.39353 1.79863 0
M  V30 6059 H 590.286 1.15206 0.863919 0
M  V30 6060 H 592.239 1.33904 3.99559 0
M  V30 6061 H 590.963 0.346735 3.24754 0
M  V30 6062 H 589.622 2.42107 2.75282 0
M  V30 6063 H 589.27 1.17299 4.89132 0
M  V30 6064 H 588.97 2.91643 5.10116 0
M  V30 6065 H 590.494 2.19872 5.69639 0
M  V30 6066 H 591.908 3.90517 4.19725 0
M  V30 6067 H 590.305 4.61128 3.84033 0
M  V30 6068 H 591.375 4.15296 2.50315 0
M  V30 6069 N 592.718 -0.936591 1.26751 0
M  V30 6070 C 593.628 -2.06949 1.10496 0
M  V30 6071 C 594.644 -1.7396 0.037271 0
M  V30 6072 O 595.82 -1.99941 0.241944 0
M  V30 6073 C 592.885 -3.38612 0.744491 0
M  V30 6074 C 591.946 -3.85355 1.89209 0
M  V30 6075 C 591.179 -5.10735 1.54873 0
M  V30 6076 O 591.402 -5.68602 0.452546 0
M  V30 6077 O 590.336 -5.52632 2.38499 0
M  V30 6078 H 594.162 -2.23571 2.05547 0
M  V30 6079 H 591.747 -1.05428 1.05855 0
M  V30 6080 H 593.629 -4.17711 0.556396 0
M  V30 6081 H 592.304 -3.23218 -0.176582 0
M  V30 6082 H 591.211 -3.07182 2.13518 0
M  V30 6083 H 592.544 -4.05277 2.79305 0
M  V30 6084 N 594.196 -1.08629 -1.14182 0
M  V30 6085 C 595.159 -0.722027 -2.1753 0
M  V30 6086 C 596.159 0.244305 -1.58933 0
M  V30 6087 O 597.349 0.0235545 -1.74184 0
M  V30 6088 C 594.481 -0.0663966 -3.40835 0
M  V30 6089 H 595.674 -1.63719 -2.51269 0
M  V30 6090 H 593.227 -0.884442 -1.28869 0
M  V30 6091 H 593.962 0.860389 -3.12678 0
M  V30 6092 H 593.747 -0.761598 -3.84632 0
M  V30 6093 H 595.237 0.173346 -4.1724 0
M  V30 6094 N 595.674 1.31259 -0.872281 0
M  V30 6095 C 596.904 2.00504 -0.498183 0
M  V30 6096 C 597.312 1.65632 0.914479 0
M  V30 6097 O 596.655 0.882849 1.61095 0
M  V30 6098 C 596.717 3.5482 -0.578194 0
M  V30 6099 C 596.381 4.13172 -1.95289 0
M  V30 6100 C 597.378 4.30107 -2.92069 0
M  V30 6101 C 595.063 4.48846 -2.25483 0
M  V30 6102 C 597.057 4.81908 -4.17185 0
M  V30 6103 C 594.744 5.00349 -3.50847 0
M  V30 6104 C 595.742 5.16831 -4.46514 0
M  V30 6105 O 595.43 5.67228 -5.69656 0
M  V30 6106 H 595.162 0.648055 -0.192354 0
M  V30 6107 H 597.716 1.6841 -1.17589 0
M  V30 6108 H 595.946 3.86383 0.156438 0
M  V30 6109 H 597.635 4.05318 -0.217192 0
M  V30 6110 H 598.401 4.02862 -2.7005 0
M  V30 6111 H 594.28 4.35292 -1.51795 0
M  V30 6112 H 597.824 4.94688 -4.91863 0
M  V30 6113 H 593.721 5.27028 -3.72708 0
M  V30 6114 H 594.489 5.85592 -5.7186 0
M  V30 6115 N 597.152 0.631951 1.44375 0
M  V30 6116 C 598.38 0.143867 2.06399 0
M  V30 6117 C 598.795 -1.18188 1.47231 0
M  V30 6118 O 598.152 -1.72511 0.595498 0
M  V30 6119 C 598.203 0.0238253 3.61492 0
M  V30 6120 O 597.924 1.29715 4.18456 0
M  V30 6121 C 599.425 -0.492856 4.40552 0
M  V30 6122 H 596.645 0.0800542 0.666207 0
M  V30 6123 H 599.189 0.866586 1.85231 0
M  V30 6124 H 597.344 -0.649338 3.81919 0
M  V30 6125 H 597.758 1.14252 5.11905 0
M  V30 6126 H 599.232 -0.525861 5.49489 0
M  V30 6127 H 599.709 -1.52006 4.12057 0
M  V30 6128 H 600.315 0.147085 4.25046 0
M  V30 6129 N 598.631 -1.53133 0.372548 0
M  V30 6130 C 599.578 -2.25951 -0.470631 0
M  V30 6131 C 600.548 -1.26895 -1.07176 0
M  V30 6132 O 601.733 -1.55691 -1.10294 0
M  V30 6133 C 598.873 -3.05726 -1.6008 0
M  V30 6134 C 597.986 -4.19684 -1.02416 0
M  V30 6135 C 597.121 -4.86888 -2.124 0
M  V30 6136 C 596.16 -5.92866 -1.52238 0
M  V30 6137 N 595.297 -6.53732 -2.56084 0
M  V30 6138 H 600.137 -2.97587 0.156816 0
M  V30 6139 H 597.674 -1.4683 0.0891571 0
M  V30 6140 H 599.632 -3.50258 -2.26661 0
M  V30 6141 H 598.262 -2.36331 -2.1988 0
M  V30 6142 H 597.314 -3.79588 -0.248426 0
M  V30 6143 H 598.626 -4.95821 -0.544366 0
M  V30 6144 H 597.78 -5.34638 -2.86787 0
M  V30 6145 H 596.519 -4.10239 -2.63734 0
M  V30 6146 H 595.524 -5.4447 -0.763685 0
M  V30 6147 H 596.749 -6.71439 -1.0172 0
M  V30 6148 H 594.695 -5.79932 -3.06618 0
M  V30 6149 H 594.612 -7.25429 -2.12811 0
M  V30 6150 H 595.88 -7.0613 -3.30152 0
M  V30 6151 N 600.109 -0.101901 -1.5727 0
M  V30 6152 C 601.041 0.884723 -2.11436 0
M  V30 6153 C 602.054 1.24149 -1.05314 0
M  V30 6154 O 603.243 1.19341 -1.3274 0
M  V30 6155 C 600.343 2.19179 -2.58484 0
M  V30 6156 C 599.516 2.00933 -3.88516 0
M  V30 6157 C 598.575 3.15213 -4.2134 0
M  V30 6158 O 597.601 2.88877 -4.90448 0
M  V30 6159 N 598.803 4.41174 -3.77288 0
M  V30 6160 H 601.568 0.422058 -2.96713 0
M  V30 6161 H 599.129 0.0830128 -1.61687 0
M  V30 6162 H 601.121 2.94593 -2.77484 0
M  V30 6163 H 599.691 2.56847 -1.7818 0
M  V30 6164 H 598.911 1.09809 -3.78597 0
M  V30 6165 H 600.199 1.86026 -4.73573 0
M  V30 6166 H 599.597 4.6545 -3.21516 0
M  V30 6167 H 598.154 5.13515 -4.01429 0
M  V30 6168 N 601.587 1.56661 0.17182 0
M  V30 6169 C 602.534 1.96371 1.21273 0
M  V30 6170 C 603.504 0.82756 1.44016 0
M  V30 6171 O 604.689 1.08764 1.56764 0
M  V30 6172 C 601.829 2.32838 2.54716 0
M  V30 6173 C 600.942 3.59628 2.39356 0
M  V30 6174 C 600.077 3.85311 3.65662 0
M  V30 6175 C 599.116 5.0545 3.45234 0
M  V30 6176 N 598.253 5.27268 4.63608 0
M  V30 6177 H 603.093 2.85106 0.86709 0
M  V30 6178 H 600.63 1.41073 0.416744 0
M  V30 6179 H 602.588 2.52004 3.3249 0
M  V30 6180 H 601.218 1.47214 2.87277 0
M  V30 6181 H 600.27 3.4838 1.52761 0
M  V30 6182 H 601.582 4.4756 2.20207 0
M  V30 6183 H 600.736 4.04841 4.51872 0
M  V30 6184 H 599.475 2.95753 3.8779 0
M  V30 6185 H 598.48 4.85819 2.5741 0
M  V30 6186 H 599.705 5.96538 3.24529 0
M  V30 6187 H 597.651 4.40662 4.85956 0
M  V30 6188 H 597.568 6.09422 4.4737 0
M  V30 6189 H 598.836 5.51277 5.51103 0
M  V30 6190 N 603.065 -0.440357 1.51323 0
M  V30 6191 C 604.295 -1.21079 1.67402 0
M  V30 6192 C 604.703 -1.85555 0.369599 0
M  V30 6193 O 604.046 -1.71375 -0.661525 0
M  V30 6194 C 604.108 -2.33839 2.73056 0
M  V30 6195 C 603.772 -1.89755 4.15743 0
M  V30 6196 C 604.769 -1.40268 5.0062 0
M  V30 6197 C 602.454 -1.97539 4.61826 0
M  V30 6198 C 604.448 -0.991474 6.29642 0
M  V30 6199 C 602.135 -1.56029 5.90845 0
M  V30 6200 C 603.133 -1.06915 6.7458 0
M  V30 6201 O 602.821 -0.659933 8.01187 0
M  V30 6202 H 602.553 -0.371133 0.56501 0
M  V30 6203 H 605.107 -0.528409 1.98487 0
M  V30 6204 H 603.337 -3.05345 2.37279 0
M  V30 6205 H 605.026 -2.95713 2.78044 0
M  V30 6206 H 605.792 -1.33652 4.66221 0
M  V30 6207 H 601.671 -2.34713 3.96776 0
M  V30 6208 H 605.215 -0.607425 6.9495 0
M  V30 6209 H 601.112 -1.62315 6.24759 0
M  V30 6210 H 601.88 -0.786052 8.14717 0
M  V30 6211 N 604.543 -1.41418 -0.695603 0
M  V30 6212 C 605.954 -1.36335 -1.27552 0
M  V30 6213 C 606.305 -0.0464336 -1.96145 0
M  V30 6214 O 605.43 0.855304 -1.9878 0
M  V30 6215 C 606.025 -2.46941 -2.3196 0
M  V30 6216 C 604.584 -2.45256 -2.85529 0
M  V30 6217 C 603.731 -2.2679 -1.59566 0
M  V30 6218 H 606.682 -1.50934 -0.490362 0
M  V30 6219 H 606.703 -2.15997 -3.1325 0
M  V30 6220 H 606.215 -3.42775 -1.82008 0
M  V30 6221 H 604.316 -1.53179 -3.39657 0
M  V30 6222 H 604.429 -3.41565 -3.35961 0
M  V30 6223 H 602.793 -1.74667 -1.85374 0
M  V30 6224 H 603.576 -3.24651 -1.1161 0
M  V30 6225 N 606.021 0.929856 -1.27246 0
M  V30 6226 C 606.931 2.0636 -1.11592 0
M  V30 6227 C 607.947 1.73938 -0.046496 0
M  V30 6228 O 609.123 1.9981 -0.252544 0
M  V30 6229 C 606.188 3.38213 -0.762437 0
M  V30 6230 C 605.249 3.84346 -1.9125 0
M  V30 6231 C 604.482 5.09906 -1.57579 0
M  V30 6232 O 604.705 5.68354 -0.482694 0
M  V30 6233 O 603.639 5.51359 -2.41426 0
M  V30 6234 H 607.465 2.22478 -2.0673 0
M  V30 6235 H 605.05 1.04865 -1.06413 0
M  V30 6236 H 606.932 4.1741 -0.57854 0
M  V30 6237 H 605.607 3.23307 0.159439 0
M  V30 6238 H 604.514 3.06045 -2.15144 0
M  V30 6239 H 605.847 4.0379 -2.81451 0
M  V30 6240 N 607.499 1.09233 1.13605 0
M  V30 6241 C 608.431 0.687794 2.18637 0
M  V30 6242 C 609.444 -0.26936 1.60556 0
M  V30 6243 O 610.633 -0.0557162 1.78413 0
M  V30 6244 C 607.733 -0.00751901 3.38899 0
M  V30 6245 C 606.906 0.97067 4.26494 0
M  V30 6246 C 605.965 0.309129 5.25291 0
M  V30 6247 O 604.991 0.956149 5.61112 0
M  V30 6248 N 606.193 -0.937555 5.72879 0
M  V30 6249 H 608.958 1.59141 2.53957 0
M  V30 6250 H 606.519 0.979515 1.28907 0
M  V30 6251 H 608.511 -0.461238 4.02063 0
M  V30 6252 H 607.081 -0.813353 3.01833 0
M  V30 6253 H 606.301 1.603 3.60135 0
M  V30 6254 H 607.589 1.63323 4.81875 0
M  V30 6255 H 606.987 -1.48281 5.4592 0
M  V30 6256 H 605.544 -1.33463 6.3799 0
M  V30 6257 N 608.977 -1.30795 0.87923 0
M  V30 6258 C 610.388 -1.78535 0.546093 0
M  V30 6259 C 610.739 -1.72354 -0.937467 0
M  V30 6260 O 609.864 -1.2969 -1.73233 0
M  V30 6261 C 610.459 -3.24181 0.9845 0
M  V30 6262 C 609.018 -3.69779 0.702871 0
M  V30 6263 C 608.165 -2.51377 1.17068 0
M  V30 6264 H 611.116 -1.17746 1.06403 0
M  V30 6265 H 611.137 -3.79227 0.311045 0
M  V30 6266 H 610.649 -3.28647 2.06429 0
M  V30 6267 H 608.75 -3.70806 -0.365166 0
M  V30 6268 H 608.863 -4.61507 1.28639 0
M  V30 6269 H 607.227 -2.47768 0.590172 0
M  V30 6270 H 608.01 -2.58584 2.25808 0
M  V30 6271 N 610.455 -0.639598 -1.44038 0
M  V30 6272 C 611.703 -0.147188 -2.01563 0
M  V30 6273 C 612.024 1.2384 -1.50628 0
M  V30 6274 O 611.294 1.82452 -0.713316 0
M  V30 6275 H 609.874 -0.0514231 -0.745228 0
M  V30 6276 H 612.536 -0.828205 -1.76428 0
M  V30 6277 H 611.632 -0.121358 -3.11864 0
M  V30 6278 N 611.933 1.52934 -0.380664 0
M  V30 6279 C 613.349 1.59571 -0.0302429 0
M  V30 6280 C 613.549 1.39509 1.45394 0
M  V30 6281 O 612.605 1.20777 2.21741 0
M  V30 6282 C 613.918 2.96519 -0.499691 0
M  V30 6283 C 615.466 3.09672 -0.455204 0
M  V30 6284 C 615.941 4.49056 -0.900703 0
M  V30 6285 N 617.432 4.55215 -0.856367 0
M  V30 6286 C 618.167 5.61282 -1.17259 0
M  V30 6287 N 617.663 6.75035 -1.55885 0
M  V30 6288 N 619.456 5.51343 -1.0944 0
M  V30 6289 H 611.607 1.64224 -1.347 0
M  V30 6290 H 613.87 0.771033 -0.551554 0
M  V30 6291 H 613.576 3.16388 -1.53595 0
M  V30 6292 H 613.45 3.77052 0.105789 0
M  V30 6293 H 615.837 2.89504 0.571949 0
M  V30 6294 H 615.918 2.31113 -1.09638 0
M  V30 6295 H 615.562 4.69964 -1.92604 0
M  V30 6296 H 615.492 5.26068 -0.236629 0
M  V30 6297 H 617.983 3.73546 -0.572013 0
M  V30 6298 H 618.296 7.51926 -1.784 0
M  V30 6299 H 616.641 6.76388 -1.59764 0
M  V30 6300 H 619.832 4.61356 -0.791713 0
M  V30 6301 H 620.005 6.33905 -1.34417 0
M  V30 6302 N 613.412 0.11024 1.57214 0
M  V30 6303 C 614.659 -0.54987 1.94891 0
M  V30 6304 C 614.987 -1.67243 0.992984 0
M  V30 6305 O 614.242 -1.95694 0.0152703 0
M  V30 6306 C 614.541 -1.13102 3.39032 0
M  V30 6307 C 614.207 -0.130713 4.5071 0
M  V30 6308 C 612.869 0.14437 4.80983 0
M  V30 6309 C 615.221 0.551472 5.18274 0
M  V30 6310 C 612.549 1.10807 5.76141 0
M  V30 6311 C 614.901 1.50375 6.14467 0
M  V30 6312 C 613.565 1.78691 6.43138 0
M  V30 6313 H 612.835 -0.201212 0.713158 0
M  V30 6314 H 615.482 0.189288 1.90562 0
M  V30 6315 H 613.787 -1.94675 3.40013 0
M  V30 6316 H 615.484 -1.64973 3.65493 0
M  V30 6317 H 612.074 -0.355301 4.27125 0
M  V30 6318 H 616.258 0.35211 4.95049 0
M  V30 6319 H 611.514 1.3343 5.96663 0
M  V30 6320 H 615.688 2.03808 6.65909 0
M  V30 6321 H 613.315 2.53522 7.1668 0
M  V30 6322 N 614.89 -1.56749 -0.16351 0
M  V30 6323 C 615.853 -1.96121 -1.18613 0
M  V30 6324 C 616.853 -0.845765 -1.36761 0
M  V30 6325 O 618.043 -1.11268 -1.34033 0
M  V30 6326 C 615.175 -2.26282 -2.54969 0
M  V30 6327 H 616.368 -2.87639 -0.848764 0
M  V30 6328 H 613.921 -1.50928 -0.406251 0
M  V30 6329 H 614.656 -1.37504 -2.93706 0
M  V30 6330 H 614.441 -3.07595 -2.43162 0
M  V30 6331 H 615.931 -2.57638 -3.28653 0
M  V30 6332 N 616.368 0.432326 -1.51554 0
M  V30 6333 C 617.315 1.52512 -1.7323 0
M  V30 6334 C 618.285 1.55863 -0.5741 0
M  V30 6335 O 619.47 1.72796 -0.809093 0
M  V30 6336 C 616.61 2.90183 -1.86783 0
M  V30 6337 C 615.723 2.96322 -3.14352 0
M  V30 6338 C 614.858 4.25147 -3.18471 0
M  V30 6339 C 613.897 4.25172 -4.40335 0
M  V30 6340 N 613.034 5.45529 -4.41975 0
M  V30 6341 H 617.874 1.33332 -2.66508 0
M  V30 6342 H 615.411 0.647613 -1.32077 0
M  V30 6343 H 617.369 3.70071 -1.92623 0
M  V30 6344 H 615.999 3.0791 -0.969087 0
M  V30 6345 H 615.051 2.09066 -3.17798 0
M  V30 6346 H 616.363 2.92203 -4.04251 0
M  V30 6347 H 615.517 5.13411 -3.23255 0
M  V30 6348 H 614.256 4.31929 -2.2647 0
M  V30 6349 H 613.261 3.353 -4.35723 0
M  V30 6350 H 614.486 4.20049 -5.33606 0
M  V30 6351 H 612.432 5.53024 -3.52847 0
M  V30 6352 H 612.349 5.43311 -5.25689 0
M  V30 6353 H 613.617 6.35812 -4.50958 0
M  V30 6354 N 617.846 1.41785 0.688094 0
M  V30 6355 C 618.776 1.47 1.8142 0
M  V30 6356 C 619.757 0.327881 1.6691 0
M  V30 6357 O 620.942 0.540362 1.86531 0
M  V30 6358 C 618.072 1.35876 3.19617 0
M  V30 6359 C 617.026 2.47976 3.48844 0
M  V30 6360 C 616.352 2.21915 4.86475 0
M  V30 6361 C 617.652 3.90309 3.47068 0
M  V30 6362 H 619.346 2.41247 1.77314 0
M  V30 6363 H 616.892 1.16116 0.851651 0
M  V30 6364 H 618.845 1.38134 3.98117 0
M  V30 6365 H 617.569 0.38116 3.24368 0
M  V30 6366 H 616.228 2.45013 2.72698 0
M  V30 6367 H 615.876 1.2248 4.8786 0
M  V30 6368 H 615.576 2.97037 5.06994 0
M  V30 6369 H 617.1 2.25901 5.67275 0
M  V30 6370 H 618.514 3.94947 4.1556 0
M  V30 6371 H 616.911 4.65175 3.7912 0
M  V30 6372 H 617.981 4.17927 2.45896 0
M  V30 6373 N 619.324 -0.923095 1.27737 0
M  V30 6374 C 620.254 -2.04124 1.13383 0
M  V30 6375 C 621.235 -1.70066 0.0340658 0
M  V30 6376 O 622.42 -1.93068 0.209383 0
M  V30 6377 C 619.55 -3.3831 0.785097 0
M  V30 6378 C 618.504 -3.86496 1.8386 0
M  V30 6379 C 617.83 -5.1754 1.34373 0
M  V30 6380 C 619.13 -4.09381 3.24353 0
M  V30 6381 H 620.824 -2.1639 2.06919 0
M  V30 6382 H 618.37 -1.03976 0.996243 0
M  V30 6383 H 620.323 -4.16016 0.671485 0
M  V30 6384 H 619.047 -3.2607 -0.185969 0
M  V30 6385 H 617.706 -3.10987 1.9412 0
M  V30 6386 H 617.354 -5.01696 0.361989 0
M  V30 6387 H 617.054 -5.50751 2.04811 0
M  V30 6388 H 618.578 -5.97811 1.24315 0
M  V30 6389 H 619.992 -4.77641 3.17067 0
M  V30 6390 H 618.389 -4.53906 3.92542 0
M  V30 6391 H 619.459 -3.14515 3.69064 0
M  V30 6392 N 620.802 -1.09834 -1.13024 0
M  V30 6393 C 621.732 -0.763451 -2.20666 0
M  V30 6394 C 622.713 0.260778 -1.68089 0
M  V30 6395 O 623.898 0.127915 -1.93778 0
M  V30 6396 C 621.028 -0.187744 -3.46792 0
M  V30 6397 C 619.982 -1.14196 -4.12484 0
M  V30 6398 C 619.308 -0.427755 -5.32986 0
M  V30 6399 C 620.608 -2.48607 -4.59338 0
M  V30 6400 H 622.302 -1.66347 -2.48936 0
M  V30 6401 H 619.848 -0.801261 -1.19649 0
M  V30 6402 H 621.801 0.0586375 -4.21359 0
M  V30 6403 H 620.525 0.747485 -3.17931 0
M  V30 6404 H 619.184 -1.37369 -3.3989 0
M  V30 6405 H 618.832 0.511747 -5.0039 0
M  V30 6406 H 618.532 -1.06403 -5.77886 0
M  V30 6407 H 620.056 -0.189772 -6.10305 0
M  V30 6408 H 621.47 -2.29618 -5.25308 0
M  V30 6409 H 619.867 -3.08062 -5.14993 0
M  V30 6410 H 620.937 -3.09062 -3.73642 0
M  V30 6411 N 622.28 1.30327 -0.886154 0
M  V30 6412 C 623.696 1.48676 -0.580323 0
M  V30 6413 C 623.896 1.81189 0.881639 0
M  V30 6414 O 622.952 1.90021 1.66278 0
M  V30 6415 C 624.265 2.60932 -1.49449 0
M  V30 6416 C 625.813 2.74812 -1.49824 0
M  V30 6417 C 626.288 3.90183 -2.39836 0
M  V30 6418 N 627.779 3.97495 -2.37806 0
M  V30 6419 C 628.514 4.86078 -3.04165 0
M  V30 6420 N 628.01 5.79448 -3.79753 0
M  V30 6421 N 629.803 4.79456 -2.93391 0
M  V30 6422 H 621.954 1.07495 -1.8319 0
M  V30 6423 H 624.217 0.532661 -0.784204 0
M  V30 6424 H 623.923 2.43731 -2.5355 0
M  V30 6425 H 623.797 3.57437 -1.20494 0
M  V30 6426 H 626.184 2.91418 -0.464731 0
M  V30 6427 H 626.265 1.78924 -1.82811 0
M  V30 6428 H 625.909 3.74334 -3.43273 0
M  V30 6429 H 625.839 4.85411 -2.04166 0
M  V30 6430 H 628.33 3.30703 -1.82877 0
M  V30 6431 H 628.643 6.43805 -4.27475 0
M  V30 6432 H 626.988 5.79376 -3.8386 0
M  V30 6433 H 630.179 4.05494 -2.33864 0
M  V30 6434 H 630.352 5.48283 -3.45383 0
M  V30 6435 N 623.758 0.647228 1.43697 0
M  V30 6436 C 624.688 -0.0345631 2.33474 0
M  V30 6437 C 625.669 -0.818193 1.4913 0
M  V30 6438 O 626.854 -0.780867 1.77809 0
M  V30 6439 C 623.984 -1.00576 3.32418 0
M  V30 6440 C 622.938 -0.33266 4.26705 0
M  V30 6441 C 622.264 -1.41489 5.1564 0
M  V30 6442 C 623.564 0.771204 5.16575 0
M  V30 6443 H 625.258 0.715163 2.90733 0
M  V30 6444 H 622.804 0.345364 1.39797 0
M  V30 6445 H 624.757 -1.49159 3.94119 0
M  V30 6446 H 623.481 -1.78657 2.73403 0
M  V30 6447 H 622.14 0.13267 3.6636 0
M  V30 6448 H 621.788 -2.18698 4.52968 0
M  V30 6449 H 621.488 -0.969799 5.79542 0
M  V30 6450 H 623.012 -1.9022 5.80214 0
M  V30 6451 H 624.426 0.36779 5.72119 0
M  V30 6452 H 622.823 1.1404 5.89165 0
M  V30 6453 H 623.893 1.63169 4.56622 0
M  V30 6454 N 625.236 -1.5273 0.388769 0
M  V30 6455 C 626.647 -1.86505 -0.0853788 0
M  V30 6456 C 626.998 -1.30847 -1.46197 0
M  V30 6457 O 626.123 -0.639609 -2.06732 0
M  V30 6458 C 626.718 -3.38414 -0.161703 0
M  V30 6459 C 625.277 -3.71902 -0.580144 0
M  V30 6460 C 624.424 -2.76095 0.258218 0
M  V30 6461 H 627.375 -1.46647 0.606665 0
M  V30 6462 H 627.396 -3.67638 -0.980936 0
M  V30 6463 H 626.908 -3.78893 0.840333 0
M  V30 6464 H 625.009 -3.36992 -1.58957 0
M  V30 6465 H 625.122 -4.77902 -0.338663 0
M  V30 6466 H 623.486 -2.53195 -0.276432 0
M  V30 6467 H 624.269 -3.19411 1.25822 0
M  V30 6468 N 626.714 -0.118576 -1.57153 0
M  V30 6469 C 627.677 0.817464 -2.14127 0
M  V30 6470 C 628.677 1.1949 -1.07604 0
M  V30 6471 O 629.867 1.12048 -1.33382 0
M  V30 6472 C 626.999 2.10541 -2.68115 0
M  V30 6473 H 628.192 0.322339 -2.98163 0
M  V30 6474 H 625.745 0.130655 -1.55753 0
M  V30 6475 H 626.48 2.64485 -1.87665 0
M  V30 6476 H 626.265 1.84425 -3.4602 0
M  V30 6477 H 627.755 2.77453 -3.12105 0
M  V30 6478 N 628.193 1.56834 0.155195 0
M  V30 6479 C 629.123 2.00678 1.19376 0
M  V30 6480 C 630.104 0.884973 1.45266 0
M  V30 6481 O 631.289 1.1522 1.56326 0
M  V30 6482 C 628.419 2.38042 2.5289 0
M  V30 6483 C 627.373 3.53332 2.41538 0
M  V30 6484 C 626.699 3.76485 3.79688 0
M  V30 6485 C 627.999 4.86265 1.9064 0
M  V30 6486 H 629.693 2.87688 0.829232 0
M  V30 6487 H 627.239 1.38407 0.397445 0
M  V30 6488 H 629.192 2.67314 3.25763 0
M  V30 6489 H 627.916 1.4796 2.91162 0
M  V30 6490 H 626.575 3.24213 1.71117 0
M  V30 6491 H 626.223 2.83667 4.15382 0
M  V30 6492 H 625.923 4.54068 3.72956 0
M  V30 6493 H 627.447 4.08174 4.54122 0
M  V30 6494 H 628.861 5.14308 2.53299 0
M  V30 6495 H 627.258 5.67597 1.94818 0
M  V30 6496 H 628.328 4.77184 0.861596 0
M  V30 6497 N 629.671 -0.424282 1.51781 0
M  V30 6498 C 631.087 -0.761768 1.40247 0
M  V30 6499 C 631.287 -1.95324 0.495041 0
M  V30 6500 O 630.343 -2.5246 -0.0448949 0
M  V30 6501 C 631.656 -1.0299 2.82513 0
M  V30 6502 C 633.204 -1.13354 2.91753 0
M  V30 6503 C 633.679 -1.43453 4.34954 0
M  V30 6504 N 635.17 -1.5035 4.3812 0
M  V30 6505 C 635.905 -1.75236 5.45967 0
M  V30 6506 N 635.401 -1.97827 6.63955 0
M  V30 6507 N 637.194 -1.77126 5.33463 0
M  V30 6508 H 629.345 0.360228 2.09323 0
M  V30 6509 H 631.608 0.0988128 0.942836 0
M  V30 6510 H 631.314 -0.226961 3.50967 0
M  V30 6511 H 631.188 -1.95411 3.22637 0
M  V30 6512 H 633.575 -1.92709 2.23489 0
M  V30 6513 H 633.656 -0.188041 2.55108 0
M  V30 6514 H 633.3 -0.646209 5.03772 0
M  V30 6515 H 633.23 -2.3923 4.69123 0
M  V30 6516 H 635.721 -1.34742 3.53062 0
M  V30 6517 H 636.034 -2.16223 7.41935 0
M  V30 6518 H 634.379 -1.95123 6.67047 0
M  V30 6519 H 637.57 -1.59005 4.40267 0
M  V30 6520 H 637.743 -1.96182 6.17589 0
M  V30 6521 N 631.149 -1.42148 -0.680565 0
M  V30 6522 C 632.374 -1.45901 -1.47403 0
M  V30 6523 C 632.799 -0.0700985 -1.87969 0
M  V30 6524 O 632.157 0.930145 -1.55621 0
M  V30 6525 C 632.205 -2.38661 -2.70321 0
M  V30 6526 O 631.309 -1.85399 -3.68376 0
M  V30 6527 H 630.65 -0.494565 -0.443059 0
M  V30 6528 H 633.18 -1.86774 -0.835251 0
M  V30 6529 H 633.19 -2.55046 -3.18458 0
M  V30 6530 H 631.865 -3.39571 -2.40134 0
M  V30 6531 H 630.442 -1.78541 -3.2738 0
M  V30 6532 N 632.627 0.916307 -1.28225 0
M  V30 6533 C 633.876 1.65975 -1.14608 0
M  V30 6534 C 634.189 1.93204 0.305191 0
M  V30 6535 O 635.395 2.65611 0.562432 0
M  V30 6536 C 633.851 2.98989 -2.00333 0
M  V30 6537 C 633.459 2.79417 -3.50186 0
M  V30 6538 C 635.203 3.76856 -1.95397 0
M  V30 6539 C 633.11 4.08056 -4.28071 0
M  V30 6540 H 632.04 0.622587 -0.425324 0
M  V30 6541 H 634.691 1.01705 -1.52736 0
M  V30 6542 H 633.073 3.6438 -1.5506 0
M  V30 6543 H 634.247 2.22723 -4.034 0
M  V30 6544 H 632.562 2.14966 -3.56621 0
M  V30 6545 H 635.159 4.72203 -2.50856 0
M  V30 6546 H 635.502 4.05776 -0.930137 0
M  V30 6547 H 636.035 3.1828 -2.38626 0
M  V30 6548 H 632.774 3.8431 -5.31024 0
M  V30 6549 H 632.294 4.64371 -3.79631 0
M  V30 6550 H 633.973 4.76333 -4.37854 0
M  V30 6551 N 634.105 1.10431 1.1244 0
M  V30 6552 C 635.353 0.845045 1.83585 0
M  V30 6553 C 635.674 -0.631168 1.84503 0
M  V30 6554 O 634.944 -1.45825 1.30813 0
M  V30 6555 H 633.524 0.309628 0.679809 0
M  V30 6556 H 636.186 1.39458 1.36153 0
M  V30 6557 H 635.282 1.20786 2.8778 0
M  V30 6558 N 635.583 -1.29855 0.893053 0
M  V30 6559 C 636.513 -2.3035 0.382249 0
M  V30 6560 C 637.494 -1.61328 -0.539203 0
M  V30 6561 O 638.679 -1.88882 -0.451342 0
M  V30 6562 C 635.809 -3.45024 -0.396983 0
M  V30 6563 C 634.763 -4.258 0.433437 0
M  V30 6564 C 634.089 -5.32605 -0.472889 0
M  V30 6565 C 635.389 -4.94549 1.67984 0
M  V30 6566 H 637.083 -2.73325 1.22205 0
M  V30 6567 H 634.629 -1.314 0.589073 0
M  V30 6568 H 636.582 -4.14398 -0.765024 0
M  V30 6569 H 635.306 -3.00875 -1.2705 0
M  V30 6570 H 633.965 -3.58125 0.783723 0
M  V30 6571 H 633.613 -4.84702 -1.34435 0
M  V30 6572 H 633.313 -5.87547 0.0789958 0
M  V30 6573 H 634.837 -6.04832 -0.837269 0
M  V30 6574 H 636.251 -5.56395 1.38192 0
M  V30 6575 H 634.648 -5.59393 2.17254 0
M  V30 6576 H 635.718 -4.20215 2.41965 0
M  V30 6577 N 637.061 -0.65484 -1.43351 0
M  V30 6578 C 638.008 0.0357713 -2.30772 0
M  V30 6579 C 638.978 0.813035 -1.44841 0
M  V30 6580 O 640.163 0.789314 -1.73708 0
M  V30 6581 C 637.303 0.995084 -3.30442 0
M  V30 6582 C 636.416 0.21375 -4.31471 0
M  V30 6583 C 635.551 1.16701 -5.18222 0
M  V30 6584 C 634.59 0.376201 -6.10943 0
M  V30 6585 N 633.727 1.28113 -6.90313 0
M  V30 6586 H 638.567 -0.71559 -2.89281 0
M  V30 6587 H 636.104 -0.364645 -1.42509 0
M  V30 6588 H 638.062 1.5649 -3.86739 0
M  V30 6589 H 636.692 1.7133 -2.7358 0
M  V30 6590 H 635.744 -0.472377 -3.77456 0
M  V30 6591 H 637.056 -0.401103 -4.97185 0
M  V30 6592 H 636.21 1.8074 -5.79153 0
M  V30 6593 H 634.949 1.81577 -4.52638 0
M  V30 6594 H 633.954 -0.277534 -5.49099 0
M  V30 6595 H 635.179 -0.268178 -6.7857 0
M  V30 6596 H 633.125 1.91666 -6.27376 0
M  V30 6597 H 633.042 0.720879 -7.52555 0
M  V30 6598 H 634.31 1.90962 -7.55747 0
M  V30 6599 N 638.539 1.52521 -0.396863 0
M  V30 6600 C 639.779 2.03583 0.182578 0
M  V30 6601 C 640.143 1.2766 1.43412 0
M  V30 6602 O 641.344 1.68884 2.09121 0
M  V30 6603 C 639.615 3.54724 0.436519 0
M  V30 6604 S 641.174 4.27598 0.985163 0
M  V30 6605 H 637.992 0.709186 0.0507529 0
M  V30 6606 H 640.594 1.87693 -0.546955 0
M  V30 6607 H 639.298 4.07567 -0.481343 0
M  V30 6608 H 638.829 3.74834 1.19427 0
M  V30 6609 H 640.844 4.41393 2.26686 0
M  V30 6610 N 640.017 0.126909 1.57088 0
M  V30 6611 C 640.947 -0.816847 2.18746 0
M  V30 6612 C 641.928 -1.27161 1.12979 0
M  V30 6613 O 643.113 -1.33279 1.41246 0
M  V30 6614 C 640.243 -2.06398 2.79315 0
M  V30 6615 C 639.197 -1.74673 3.90735 0
M  V30 6616 C 638.523 -3.06482 4.38147 0
M  V30 6617 C 639.823 -1.0089 5.12463 0
M  V30 6618 H 641.517 -0.303032 2.97863 0
M  V30 6619 H 639.063 -0.144314 1.43275 0
M  V30 6620 H 641.016 -2.72885 3.2111 0
M  V30 6621 H 639.74 -2.60118 1.975 0
M  V30 6622 H 638.399 -1.10572 3.49527 0
M  V30 6623 H 638.047 -3.58152 3.5318 0
M  V30 6624 H 637.747 -2.86025 5.13287 0
M  V30 6625 H 639.271 -3.74073 4.82599 0
M  V30 6626 H 640.685 -1.57546 5.51228 0
M  V30 6627 H 639.082 -0.905006 5.93237 0
M  V30 6628 H 640.152 0.00297335 4.849 0
M  V30 6629 N 641.495 -1.56914 -0.146875 0
M  V30 6630 C 642.405 -2.0154 -1.20079 0
M  V30 6631 C 643.421 -0.930838 -1.47008 0
M  V30 6632 O 644.597 -1.24032 -1.58676 0
M  V30 6633 C 641.662 -2.38715 -2.51428 0
M  V30 6634 C 640.723 -3.6112 -2.32145 0
M  V30 6635 C 639.956 -3.96512 -3.57231 0
M  V30 6636 O 640.179 -3.32566 -4.63418 0
M  V30 6637 O 639.113 -4.89758 -3.49887 0
M  V30 6638 H 642.939 -2.91506 -0.851924 0
M  V30 6639 H 640.524 -1.45106 -0.355607 0
M  V30 6640 H 642.406 -2.63485 -3.28867 0
M  V30 6641 H 641.081 -1.51903 -2.85845 0
M  V30 6642 H 639.988 -3.41536 -1.52656 0
M  V30 6643 H 641.321 -4.48549 -2.02644 0
M  V30 6644 N 642.974 0.416227 -1.52004 0
M  V30 6645 C 643.924 1.50558 -1.7122 0
M  V30 6646 C 644.908 1.50613 -0.56609 0
M  V30 6647 O 646.1 1.56709 -0.822874 0
M  V30 6648 C 643.229 2.88556 -1.85984 0
M  V30 6649 C 642.315 2.93177 -3.06445 0
M  V30 6650 N 642.706 2.67505 -4.29272 0
M  V30 6651 C 641.004 3.24343 -3.06133 0
M  V30 6652 C 641.705 2.78511 -5.10692 0
M  V30 6653 N 640.681 3.11087 -4.45787 0
M  V30 6654 H 644.483 1.29494 -2.63834 0
M  V30 6655 H 641.997 0.62384 -1.4994 0
M  V30 6656 H 643.994 3.66954 -1.97865 0
M  V30 6657 H 642.654 3.10624 -0.945654 0
M  V30 6658 H 643.665 2.42033 -4.57865 0
M  V30 6659 H 640.342 3.52051 -2.24425 0
M  V30 6660 H 641.732 2.62438 -6.18527 0
M  V30 6661 N 644.452 1.42507 0.673017 0
M  V30 6662 C 645.382 1.48916 1.79851 0
M  V30 6663 C 646.363 0.345566 1.66553 0
M  V30 6664 O 647.548 0.560116 1.85947 0
M  V30 6665 C 644.678 1.39258 3.18158 0
M  V30 6666 C 643.632 2.51662 3.46194 0
M  V30 6667 C 642.958 2.27062 4.84094 0
M  V30 6668 C 644.258 3.93968 3.42909 0
M  V30 6669 H 645.952 2.43114 1.74745 0
M  V30 6670 H 643.498 1.17013 0.839288 0
M  V30 6671 H 645.451 1.42349 3.96629 0
M  V30 6672 H 644.175 0.415542 3.23946 0
M  V30 6673 H 642.834 2.47891 2.70084 0
M  V30 6674 H 642.482 1.27648 4.86534 0
M  V30 6675 H 642.182 3.02398 5.03815 0
M  V30 6676 H 643.706 2.31905 5.64847 0
M  V30 6677 H 645.12 3.99332 4.11347 0
M  V30 6678 H 643.517 4.6917 3.74165 0
M  V30 6679 H 644.587 4.20512 2.41449 0
M  V30 6680 N 645.93 -0.909495 1.28709 0
M  V30 6681 C 647.177 -1.65905 1.16111 0
M  V30 6682 C 647.505 -1.92334 -0.289436 0
M  V30 6683 O 646.76 -1.52495 -1.22653 0
M  V30 6684 C 647.059 -3.02117 1.90945 0
M  V30 6685 C 646.725 -2.95332 3.40719 0
M  V30 6686 C 645.387 -2.93189 3.81567 0
M  V30 6687 C 647.739 -2.85264 4.36204 0
M  V30 6688 C 645.067 -2.78784 5.16233 0
M  V30 6689 C 647.419 -2.724 5.70948 0
M  V30 6690 C 646.083 -2.68617 6.11066 0
M  V30 6691 H 645.353 -0.60709 0.42488 0
M  V30 6692 H 648 -1.05932 1.59533 0
M  V30 6693 H 646.305 -3.65901 1.40085 0
M  V30 6694 H 648.002 -3.59026 1.7861 0
M  V30 6695 H 644.592 -2.97797 3.08245 0
M  V30 6696 H 648.776 -2.86005 4.05605 0
M  V30 6697 H 644.032 -2.74254 5.46438 0
M  V30 6698 H 648.206 -2.63579 6.44592 0
M  V30 6699 H 645.833 -2.57213 7.15364 0
M  V30 6700 N 647.408 -1.11026 -1.11852 0
M  V30 6701 C 648.655 -0.85646 -1.83497 0
M  V30 6702 C 648.983 0.617938 -1.84423 0
M  V30 6703 O 648.238 1.47194 -1.28966 0
M  V30 6704 C 648.537 -1.35777 -3.30604 0
M  V30 6705 C 648.203 -2.84465 -3.49843 0
M  V30 6706 C 646.865 -3.25068 -3.54802 0
M  V30 6707 C 649.217 -3.80251 -3.56453 0
M  V30 6708 C 646.545 -4.60194 -3.63921 0
M  V30 6709 C 648.897 -5.15188 -3.67102 0
M  V30 6710 C 647.561 -5.55356 -3.70319 0
M  V30 6711 H 646.831 -0.313401 -0.671462 0
M  V30 6712 H 649.478 -1.38792 -1.31943 0
M  V30 6713 H 647.783 -0.746455 -3.84624 0
M  V30 6714 H 649.48 -1.13779 -3.8452 0
M  V30 6715 H 646.07 -2.52054 -3.46651 0
M  V30 6716 H 650.254 -3.49986 -3.51886 0
M  V30 6717 H 645.51 -4.90728 -3.64686 0
M  V30 6718 H 649.684 -5.89248 -3.71159 0
M  V30 6719 H 647.311 -6.60054 -3.77138 0
M  V30 6720 N 648.886 1.2938 -0.899927 0
M  V30 6721 C 650.133 1.9555 -0.525963 0
M  V30 6722 C 650.461 1.70945 0.927789 0
M  V30 6723 O 649.716 1.01545 1.67293 0
M  V30 6724 C 650.015 3.49114 -0.765113 0
M  V30 6725 C 649.681 3.93796 -2.19626 0
M  V30 6726 C 648.343 4.05707 -2.58758 0
M  V30 6727 C 650.695 4.16883 -3.12823 0
M  V30 6728 C 648.023 4.38074 -3.90267 0
M  V30 6729 C 650.375 4.50725 -4.4388 0
M  V30 6730 C 649.039 4.60845 -4.82885 0
M  V30 6731 H 648.309 0.715569 -0.192463 0
M  V30 6732 H 650.956 1.53972 -1.13863 0
M  V30 6733 H 649.261 3.91738 -0.069531 0
M  V30 6734 H 650.958 3.98409 -0.455144 0
M  V30 6735 H 647.548 3.85042 -1.88256 0
M  V30 6736 H 651.732 4.07147 -2.83804 0
M  V30 6737 H 646.988 4.44112 -4.20207 0
M  V30 6738 H 651.162 4.67538 -5.16121 0
M  V30 6739 H 648.789 4.85681 -5.84823 0
M  V30 6740 N 650.364 0.662433 1.43002 0
M  V30 6741 C 651.311 -0.0235324 2.30788 0
M  V30 6742 C 652.281 -0.805342 1.4527 0
M  V30 6743 O 653.466 -0.78009 1.74124 0
M  V30 6744 C 650.606 -0.977545 3.30965 0
M  V30 6745 C 649.719 -0.190865 4.31578 0
M  V30 6746 C 648.854 -1.13951 5.18834 0
M  V30 6747 C 647.893 -0.343796 6.11134 0
M  V30 6748 N 647.03 -1.2445 6.90982 0
M  V30 6749 H 651.87 0.730921 2.88897 0
M  V30 6750 H 649.407 0.372197 1.42313 0
M  V30 6751 H 651.365 -1.54437 3.87563 0
M  V30 6752 H 649.995 -1.69877 2.74484 0
M  V30 6753 H 649.047 0.492388 3.772 0
M  V30 6754 H 650.359 0.427464 4.96965 0
M  V30 6755 H 649.513 -1.77666 5.80103 0
M  V30 6756 H 648.252 -1.79174 4.53595 0
M  V30 6757 H 647.257 0.30665 5.48944 0
M  V30 6758 H 648.482 0.304161 6.78419 0
M  V30 6759 H 646.428 -1.88336 6.28383 0
M  V30 6760 H 646.345 -0.680959 7.52927 0
M  V30 6761 H 647.613 -1.86952 7.56749 0
M  V30 6762 N 651.842 -1.52309 0.404946 0
M  V30 6763 C 652.772 -2.29805 -0.41376 0
M  V30 6764 C 653.753 -1.3384 -1.0498 0
M  V30 6765 O 654.938 -1.62745 -1.05961 0
M  V30 6766 C 652.068 -3.11639 -1.53292 0
M  V30 6767 C 651.022 -4.15616 -1.02211 0
M  V30 6768 C 650.348 -4.8577 -2.23455 0
M  V30 6769 C 651.648 -5.2224 -0.0790725 0
M  V30 6770 H 653.342 -2.98493 0.232878 0
M  V30 6771 H 650.888 -1.43552 0.113441 0
M  V30 6772 H 652.841 -3.64618 -2.11262 0
M  V30 6773 H 651.565 -2.40712 -2.20738 0
M  V30 6774 H 650.224 -3.63641 -0.46484 0
M  V30 6775 H 649.872 -4.11376 -2.89445 0
M  V30 6776 H 649.572 -5.56058 -1.89929 0
M  V30 6777 H 651.096 -5.4156 -2.82038 0
M  V30 6778 H 652.51 -5.70485 -0.567438 0
M  V30 6779 H 650.907 -5.99867 0.167167 0
M  V30 6780 H 651.977 -4.77078 0.867447 0
M  V30 6781 N 653.32 -0.135238 -1.57019 0
M  V30 6782 C 654.569 0.518694 -1.94917 0
M  V30 6783 C 654.882 1.66783 -1.0219 0
M  V30 6784 O 656.088 2.38561 -1.29619 0
M  V30 6785 C 654.544 0.974123 -3.46466 0
M  V30 6786 C 654.152 -0.147439 -4.47757 0
M  V30 6787 C 655.896 1.59851 -3.93253 0
M  V30 6788 C 653.803 0.325599 -5.90503 0
M  V30 6789 H 652.733 0.19754 -0.727663 0
M  V30 6790 H 655.384 -0.217698 -1.82204 0
M  V30 6791 H 653.766 1.76542 -3.5447 0
M  V30 6792 H 654.94 -0.924122 -4.51438 0
M  V30 6793 H 653.255 -0.679496 -4.10818 0
M  V30 6794 H 655.852 1.96385 -4.9733 0
M  V30 6795 H 656.195 2.48306 -3.3414 0
M  V30 6796 H 656.728 0.872323 -3.88118 0
M  V30 6797 H 653.467 -0.523295 -6.53408 0
M  V30 6798 H 652.987 1.06841 -5.90208 0
M  V30 6799 H 654.666 0.781498 -6.42263 0
M  V30 6800 N 654.798 1.5699 0.138552 0
M  V30 6801 C 656.046 1.83446 0.848053 0
M  V30 6802 C 656.367 0.71744 1.81322 0
M  V30 6803 O 655.637 -0.260228 1.94164 0
M  V30 6804 H 654.217 0.676792 0.316166 0
M  V30 6805 H 656.879 1.94462 0.130538 0
M  V30 6806 H 655.975 2.78677 1.40518 0
M  V30 6807 N 656.276 -0.40816 1.52223 0
M  V30 6808 C 657.553 -1.16807 1.56893 0
M  V30 6809 C 657.933 -2.08169 0.350537 0
M  V30 6810 O 657.281 -2.18684 -0.662536 0
M  V30 6811 C 657.491 -1.94451 2.8981 0
M  V30 6812 C 658.839 -2.50484 3.42845 0
M  V30 6813 O 659.863 -2.0463 2.91556 0
M  V30 6814 O 658.722 -3.34192 4.3241 0
M  V30 6815 H 655.816 -0.533382 0.632007 0
M  V30 6816 H 658.362 -0.414862 1.64551 0
M  V30 6817 H 657.134 -1.27527 3.69936 0
M  V30 6818 H 656.757 -2.76775 2.85449 0
M  V30 6819 N 657.755 -1.42862 -0.66545 0
M  V30 6820 C 658.983 -1.47246 -1.45349 0
M  V30 6821 C 659.398 -0.0865944 -1.88601 0
M  V30 6822 O 658.755 0.900652 -1.58728 0
M  V30 6823 C 658.806 -2.40772 -2.6965 0
M  V30 6824 O 658.527 -3.73968 -2.2821 0
M  V30 6825 C 660.028 -2.54272 -3.63126 0
M  V30 6826 H 657.248 -0.500497 -0.446927 0
M  V30 6827 H 659.792 -1.87477 -0.816871 0
M  V30 6828 H 657.947 -2.0377 -3.29479 0
M  V30 6829 H 658.361 -4.24146 -3.08546 0
M  V30 6830 H 659.835 -3.23815 -4.47043 0
M  V30 6831 H 660.312 -1.58364 -4.09656 0
M  V30 6832 H 660.918 -2.92036 -3.09185 0
M  V30 6833 N 659.233 0.902656 -1.29189 0
M  V30 6834 C 660.644 1.46809 -1.15343 0
M  V30 6835 C 660.995 1.94568 0.252517 0
M  V30 6836 O 660.12 1.83454 1.14777 0
M  V30 6837 C 660.715 2.66829 -2.08776 0
M  V30 6838 C 659.274 3.19518 -1.98961 0
M  V30 6839 C 658.421 1.92212 -1.99874 0
M  V30 6840 H 661.372 0.714282 -1.41717 0
M  V30 6841 H 661.393 3.42465 -1.65826 0
M  V30 6842 H 660.905 2.32039 -3.11094 0
M  V30 6843 H 659.006 3.59008 -0.99721 0
M  V30 6844 H 659.119 3.84016 -2.86477 0
M  V30 6845 H 657.483 2.0979 -1.44431 0
M  V30 6846 H 658.266 1.59702 -3.03891 0
M  V30 6847 N 660.711 1.11618 1.11262 0
M  V30 6848 C 661.96 0.860934 1.82403 0
M  V30 6849 C 662.273 -0.615303 1.8567 0
M  V30 6850 O 663.479 -0.986861 2.52929 0
M  V30 6851 C 661.935 1.49048 3.27586 0
M  V30 6852 C 661.543 3.00089 3.32642 0
M  V30 6853 C 663.287 1.31515 4.03614 0
M  V30 6854 C 661.194 3.56019 4.72234 0
M  V30 6855 H 660.124 0.318423 0.683464 0
M  V30 6856 H 662.775 1.34165 1.25188 0
M  V30 6857 H 661.157 0.937434 3.84744 0
M  V30 6858 H 662.331 3.61813 2.85356 0
M  V30 6859 H 660.646 3.16919 2.70096 0
M  V30 6860 H 663.243 1.70732 5.0671 0
M  V30 6861 H 663.586 0.257917 4.155 0
M  V30 6862 H 664.119 1.83694 3.52848 0
M  V30 6863 H 660.858 4.61463 4.65545 0
M  V30 6864 H 660.378 2.99066 5.19923 0
M  V30 6865 H 662.057 3.54568 5.41193 0
M  V30 6866 N 662.189 -1.289 0.906776 0
M  V30 6867 C 663.466 -1.90221 0.455537 0
M  V30 6868 C 663.846 -1.82251 -1.06527 0
M  V30 6869 O 663.194 -1.25385 -1.91026 0
M  V30 6870 C 663.404 -3.35015 0.97806 0
M  V30 6871 C 664.752 -4.12018 1.02598 0
M  V30 6872 O 665.776 -3.43947 0.926218 0
M  V30 6873 O 664.635 -5.33677 1.17689 0
M  V30 6874 H 661.729 -0.814505 0.143214 0
M  V30 6875 H 664.275 -1.37317 0.997104 0
M  V30 6876 H 663.047 -3.35006 2.02204 0
M  V30 6877 H 662.67 -3.95408 0.416914 0
M  V30 6878 N 663.667 -0.670007 -1.42649 0
M  V30 6879 C 664.895 -0.19854 -2.05945 0
M  V30 6880 C 665.31 1.14243 -1.50313 0
M  V30 6881 O 664.667 1.70872 -0.641027 0
M  V30 6882 C 664.718 -0.11966 -3.61302 0
M  V30 6883 O 664.439 -1.40764 -4.1487 0
M  V30 6884 C 665.94 0.375878 -4.41704 0
M  V30 6885 H 663.16 -0.0976894 -0.663851 0
M  V30 6886 H 665.704 -0.915392 -1.82868 0
M  V30 6887 H 663.859 0.547851 -3.83507 0
M  V30 6888 H 664.273 -1.27784 -5.08696 0
M  V30 6889 H 665.747 0.379988 -5.50691 0
M  V30 6890 H 666.224 1.41028 -4.15942 0
M  V30 6891 H 666.83 -0.259727 -4.24506 0
M  V30 6892 N 665.145 1.52092 -0.413018 0
M  V30 6893 C 666.392 2.01855 0.161497 0
M  V30 6894 C 666.72 1.29845 1.44812 0
M  V30 6895 O 665.975 0.394471 1.91683 0
M  V30 6896 C 666.274 3.54529 0.4521 0
M  V30 6897 C 665.94 4.4469 -0.745788 0
M  V30 6898 C 664.602 4.69053 -1.07435 0
M  V30 6899 C 666.954 4.97742 -1.54604 0
M  V30 6900 C 664.282 5.43717 -2.20429 0
M  V30 6901 C 666.634 5.73642 -2.66678 0
M  V30 6902 C 665.298 5.96277 -3.00016 0
M  V30 6903 H 664.568 0.73864 0.0590961 0
M  V30 6904 H 667.215 1.83274 -0.555234 0
M  V30 6905 H 665.52 3.7131 1.25045 0
M  V30 6906 H 667.217 3.90546 0.909647 0
M  V30 6907 H 663.807 4.25907 -0.479725 0
M  V30 6908 H 667.991 4.78824 -1.30543 0
M  V30 6909 H 663.247 5.59462 -2.46602 0
M  V30 6910 H 667.421 6.13746 -3.29072 0
M  V30 6911 H 665.048 6.53913 -3.87688 0
M  V30 6912 N 666.623 0.143563 1.56945 0
M  V30 6913 C 667.553 -0.7936 2.196 0
M  V30 6914 C 668.534 -1.25955 1.14321 0
M  V30 6915 O 669.719 -1.31773 1.42651 0
M  V30 6916 C 666.849 -2.03424 2.81489 0
M  V30 6917 C 665.803 -1.70519 3.92565 0
M  V30 6918 C 665.129 -3.01817 4.41373 0
M  V30 6919 C 666.429 -0.95449 5.13504 0
M  V30 6920 H 668.123 -0.271423 2.98167 0
M  V30 6921 H 665.669 -0.12911 1.4342 0
M  V30 6922 H 667.622 -2.69463 3.23987 0
M  V30 6923 H 666.346 -2.58008 2.00248 0
M  V30 6924 H 665.005 -1.06859 3.5068 0
M  V30 6925 H 664.653 -3.54386 3.56959 0
M  V30 6926 H 664.353 -2.80565 5.16292 0
M  V30 6927 H 665.877 -3.68934 4.86539 0
M  V30 6928 H 667.291 -1.5169 5.52868 0
M  V30 6929 H 665.688 -0.842035 5.94163 0
M  V30 6930 H 666.758 0.0544033 4.84869 0
M  V30 6931 N 668.101 -1.57061 -0.130224 0
M  V30 6932 C 669.034 -1.94698 -1.19029 0
M  V30 6933 C 670.012 -0.815074 -1.40696 0
M  V30 6934 O 671.196 -1.07223 -1.55034 0
M  V30 6935 C 668.323 -2.23352 -2.5462 0
M  V30 6936 C 667.369 -3.45945 -2.49448 0
M  V30 6937 S 668.202 -4.98927 -1.94505 0
M  V30 6938 C 669.358 -5.30721 -3.31792 0
M  V30 6939 H 669.591 -2.84308 -0.869272 0
M  V30 6940 H 667.124 -1.50688 -0.336531 0
M  V30 6941 H 669.082 -2.40539 -3.32643 0
M  V30 6942 H 667.743 -1.34376 -2.83905 0
M  V30 6943 H 666.936 -3.63324 -3.49302 0
M  V30 6944 H 666.538 -3.28086 -1.79543 0
M  V30 6945 H 668.83 -5.25215 -4.27966 0
M  V30 6946 H 669.773 -6.32048 -3.19251 0
M  V30 6947 H 670.181 -4.5821 -3.29703 0
M  V30 6948 N 669.579 0.400081 -1.52437 0
M  V30 6949 C 670.489 1.51253 -1.79331 0
M  V30 6950 C 671.505 1.60188 -0.679396 0
M  V30 6951 O 672.681 1.76733 -0.965791 0
M  V30 6952 C 669.746 2.869 -1.94652 0
M  V30 6953 C 668.807 2.87777 -3.18564 0
M  V30 6954 C 668.04 4.16954 -3.33145 0
M  V30 6955 O 668.263 5.11329 -2.52783 0
M  V30 6956 O 667.197 4.2487 -4.26343 0
M  V30 6957 H 671.023 1.31461 -2.73773 0
M  V30 6958 H 668.608 0.586834 -1.37392 0
M  V30 6959 H 670.49 3.67336 -2.065 0
M  V30 6960 H 669.165 3.06741 -1.034 0
M  V30 6961 H 668.072 2.06162 -3.12167 0
M  V30 6962 H 669.405 2.72886 -4.09627 0
M  V30 6963 N 671.057 1.43213 0.657864 0
M  V30 6964 C 671.99 1.42456 1.78273 0
M  V30 6965 C 672.968 0.286598 1.60054 0
M  V30 6966 O 674.152 0.479467 1.823 0
M  V30 6967 C 671.279 1.23169 3.15511 0
M  V30 6968 C 670.325 2.40181 3.52442 0
M  V30 6969 S 671.158 4.02729 3.52944 0
M  V30 6970 C 672.314 3.85816 4.92846 0
M  V30 6971 H 672.547 2.37642 1.78644 0
M  V30 6972 H 670.08 1.30188 0.830084 0
M  V30 6973 H 672.038 1.12728 3.94719 0
M  V30 6974 H 670.699 0.295398 3.12708 0
M  V30 6975 H 669.892 2.22478 4.52239 0
M  V30 6976 H 669.494 2.47224 2.80636 0
M  V30 6977 H 671.786 3.47853 5.81381 0
M  V30 6978 H 672.729 4.85348 5.15599 0
M  V30 6979 H 673.137 3.18361 4.66162 0
M  V30 6980 N 672.536 -0.895792 1.29666 0
M  V30 6981 C 673.466 -2.01673 1.17688 0
M  V30 6982 C 674.447 -1.69955 0.0701317 0
M  V30 6983 O 675.632 -1.9258 0.250289 0
M  V30 6984 C 672.762 -3.36568 0.856681 0
M  V30 6985 C 671.716 -3.82509 1.92017 0
M  V30 6986 C 671.042 -5.14574 1.4532 0
M  V30 6987 C 672.342 -4.02409 3.32963 0
M  V30 6988 H 674.036 -2.11953 2.11463 0
M  V30 6989 H 671.582 -1.01839 1.01807 0
M  V30 6990 H 673.535 -4.14498 0.759577 0
M  V30 6991 H 672.259 -3.26391 -0.116763 0
M  V30 6992 H 670.918 -3.068 2.00673 0
M  V30 6993 H 670.566 -5.00815 0.468325 0
M  V30 6994 H 670.266 -5.46283 2.16447 0
M  V30 6995 H 671.79 -5.9504 1.36968 0
M  V30 6996 H 673.204 -4.70808 3.27127 0
M  V30 6997 H 671.601 -4.45478 4.02082 0
M  V30 6998 H 672.671 -3.06616 3.75652 0
M  V30 6999 N 674.014 -1.12206 -1.10668 0
M  V30 7000 C 674.924 -0.800686 -2.20513 0
M  V30 7001 C 675.94 0.209512 -1.72734 0
M  V30 7002 O 677.116 0.043705 -2.01353 0
M  V30 7003 C 674.181 -0.257353 -3.45744 0
M  V30 7004 C 673.242 -1.32718 -4.0827 0
M  V30 7005 C 672.475 -0.809674 -5.27522 0
M  V30 7006 O 672.698 0.35742 -5.69279 0
M  V30 7007 O 671.632 -1.57816 -5.80842 0
M  V30 7008 H 675.458 -1.71807 -2.50432 0
M  V30 7009 H 673.043 -0.898546 -1.19359 0
M  V30 7010 H 674.925 0.0408849 -4.2138 0
M  V30 7011 H 673.6 0.632627 -3.17458 0
M  V30 7012 H 672.507 -1.67855 -3.34329 0
M  V30 7013 H 673.84 -2.19083 -4.40753 0
M  V30 7014 N 675.492 1.28418 -0.913599 0
M  V30 7015 C 676.72 1.99106 -0.562536 0
M  V30 7016 C 677.135 1.68273 0.856137 0
M  V30 7017 O 676.492 0.935401 1.56705 0
M  V30 7018 C 676.543 3.5338 -0.761903 0
M  V30 7019 O 676.264 3.83127 -2.12475 0
M  V30 7020 C 677.765 4.41328 -0.417651 0
M  V30 7021 H 674.985 0.635798 -0.214481 0
M  V30 7022 H 677.529 1.63618 -1.22676 0
M  V30 7023 H 675.684 3.8713 -0.144676 0
M  V30 7024 H 676.098 4.77763 -2.16431 0
M  V30 7025 H 677.572 5.48642 -0.607919 0
M  V30 7026 H 678.049 4.34422 0.646108 0
M  V30 7027 H 678.655 4.13074 -1.01241 0
M  V30 7028 N 676.97 0.677563 1.42291 0
M  V30 7029 C 678.381 0.277912 1.8462 0
M  V30 7030 C 678.732 -1.18048 1.56714 0
M  V30 7031 O 677.857 -1.90404 1.02836 0
M  V30 7032 C 678.452 0.497619 3.35126 0
M  V30 7033 C 677.011 0.152063 3.76093 0
M  V30 7034 C 676.158 0.78872 2.65847 0
M  V30 7035 H 679.109 0.879527 1.32098 0
M  V30 7036 H 679.13 -0.24939 3.79682 0
M  V30 7037 H 678.642 1.55913 3.55405 0
M  V30 7038 H 676.743 -0.905896 3.6142 0
M  V30 7039 H 676.856 0.594514 4.75397 0
M  V30 7040 H 675.22 0.219813 2.5375 0
M  V30 7041 H 676.003 1.85374 2.88949 0
M  V30 7042 N 678.448 -1.51871 0.421078 0
M  V30 7043 C 679.378 -2.30231 -0.389363 0
M  V30 7044 C 680.359 -1.34946 -1.03555 0
M  V30 7045 O 681.544 -1.63859 -1.04229 0
M  V30 7046 C 678.674 -3.13247 -1.49979 0
M  V30 7047 C 677.628 -4.16677 -0.977966 0
M  V30 7048 C 676.954 -4.88112 -2.1829 0
M  V30 7049 C 678.254 -5.22295 -0.0236775 0
M  V30 7050 H 679.948 -2.98229 0.264524 0
M  V30 7051 H 677.494 -1.43424 0.12866 0
M  V30 7052 H 679.447 -3.66838 -2.07383 0
M  V30 7053 H 678.171 -2.4304 -2.18173 0
M  V30 7054 H 676.83 -3.64114 -0.426245 0
M  V30 7055 H 676.478 -4.14423 -2.85066 0
M  V30 7056 H 676.178 -5.58041 -1.84021 0
M  V30 7057 H 677.702 -5.44521 -2.76278 0
M  V30 7058 H 679.116 -5.71055 -0.506899 0
M  V30 7059 H 677.513 -5.99656 0.230782 0
M  V30 7060 H 678.583 -4.76131 0.917999 0
M  V30 7061 N 679.926 -0.151884 -1.56866 0
M  V30 7062 C 680.858 0.817008 -2.14144 0
M  V30 7063 C 681.871 1.20735 -1.0921 0
M  V30 7064 O 683.06 1.15058 -1.36469 0
M  V30 7065 C 680.16 2.10844 -2.65326 0
M  V30 7066 C 679.333 1.88471 -3.94712 0
M  V30 7067 C 678.392 3.01649 -4.31155 0
M  V30 7068 O 677.418 2.73127 -4.9939 0
M  V30 7069 N 678.62 4.28947 -3.91132 0
M  V30 7070 H 681.385 0.327448 -2.97906 0
M  V30 7071 H 678.946 0.0315313 -1.61869 0
M  V30 7072 H 680.938 2.85616 -2.86715 0
M  V30 7073 H 679.508 2.51049 -1.86262 0
M  V30 7074 H 678.728 0.977088 -3.81899 0
M  V30 7075 H 680.016 1.70866 -4.79252 0
M  V30 7076 H 679.414 4.54986 -3.36161 0
M  V30 7077 H 677.971 5.00484 -4.17563 0
M  V30 7078 N 681.404 1.57128 0.121893 0
M  V30 7079 C 682.653 1.83888 0.828748 0
M  V30 7080 C 682.966 0.737087 1.81181 0
M  V30 7081 O 684.172 0.891007 2.56463 0
M  V30 7082 C 682.628 3.26014 1.52455 0
M  V30 7083 C 682.236 4.44195 0.58263 0
M  V30 7084 C 683.98 3.62025 2.21671 0
M  V30 7085 C 681.887 5.77349 1.28149 0
M  V30 7086 H 680.817 0.685856 0.313238 0
M  V30 7087 H 683.468 1.83319 0.0814851 0
M  V30 7088 H 681.85 3.21044 2.31834 0
M  V30 7089 H 683.024 4.60457 -0.177729 0
M  V30 7090 H 681.339 4.164 -0.00241228 0
M  V30 7091 H 683.936 4.58776 2.74643 0
M  V30 7092 H 684.279 2.89315 2.99337 0
M  V30 7093 H 684.812 3.68767 1.49184 0
M  V30 7094 H 681.551 6.53221 0.546189 0
M  V30 7095 H 681.071 5.64978 2.01394 0
M  V30 7096 H 682.75 6.21006 1.81549 0
M  V30 7097 N 682.882 -0.391992 1.52647 0
M  V30 7098 C 684.11 -1.1586 1.71418 0
M  V30 7099 C 684.525 -1.8381 0.431216 0
M  V30 7100 O 683.882 -1.7256 -0.594085 0
M  V30 7101 C 683.933 -2.20888 2.86165 0
M  V30 7102 O 683.654 -1.5571 4.09495 0
M  V30 7103 C 685.155 -3.103 3.1659 0
M  V30 7104 H 682.375 -0.347494 0.574011 0
M  V30 7105 H 684.919 -0.458972 1.99283 0
M  V30 7106 H 683.074 -2.86492 2.6077 0
M  V30 7107 H 683.488 -2.25474 4.73563 0
M  V30 7108 H 684.962 -3.8003 4.00351 0
M  V30 7109 H 685.439 -3.73639 2.30848 0
M  V30 7110 H 686.045 -2.50345 3.43813 0
M  V30 7111 O 684.399 -1.52278 -0.537924 0
M  V30 7112 H 685.09 -1.52597 -1.19306 0
M  V30 END ATOM
M  V30 BEGIN BOND
M  V30 END BOND
M  V30 END CTAB
M  END
$$$$
