drugbank_target|P9WKK7 Isocitrate lyase (DB04343)
 OpenBabel12092119593D

  0  0  0     0  0            999 V3000
M  V30 BEGIN CTAB
M  V30 COUNTS 6526 6598 0 0 0
M  V30 BEGIN ATOM
M  V30 1 H -0.908 1.98254 -0.117106 0
M  V30 2 N 0 1.576 0 0
M  V30 3 C 0.933 2.03868 1.02534 0
M  V30 4 C 1.911 0.928543 1.3348 0
M  V30 5 O 3.095 1.19667 1.45644 0
M  V30 6 C 0.222 2.43627 2.35294 0
M  V30 7 C -0.732 3.65373 2.2001 0
M  V30 8 S 0.101 5.13292 1.52614 0
M  V30 9 C 1.257 5.56322 2.86805 0
M  V30 10 H 1.49 2.90518 0.631377 0
M  V30 11 H -0.977 1.52953 0.210867 0
M  V30 12 H 0.981 2.67203 3.11629 0
M  V30 13 H -0.358 1.57376 2.7183 0
M  V30 14 H -1.165 3.90944 3.18086 0
M  V30 15 H -1.563 3.418 1.51819 0
M  V30 16 H 0.729 5.58782 3.83104 0
M  V30 17 H 1.672 6.56266 2.65933 0
M  V30 18 H 2.08 4.83886 2.90714 0
M  V30 19 N 1.4781 -0.272755 1.55222 0
M  V30 20 C 2.7031 -1.02683 1.80197 0
M  V30 21 C 3.1281 -1.79142 0.573551 0
M  V30 22 O 2.4861 -1.74917 -0.476849 0
M  V30 23 C 2.5341 -1.9609 3.02624 0
M  V30 24 O 1.6381 -3.04863 2.77727 0
M  V30 25 H 0.9791 -0.293557 0.595584 0
M  V30 26 H 3.5091 -0.30159 2.02365 0
M  V30 27 H 3.5191 -2.38039 3.31363 0
M  V30 28 H 2.1941 -1.39851 3.91682 0
M  V30 29 H 0.7711 -2.67228 2.60084 0
M  V30 30 N 2.9562 -1.48159 -0.537278 0
M  V30 31 C 4.2022 -1.56035 -1.29541 0
M  V30 32 C 4.5352 -0.230377 -1.92829 0
M  V30 33 O 3.8102 0.762952 -1.78911 0
M  V30 34 C 4.0932 -2.69323 -2.39034 0
M  V30 35 C 3.9462 -4.12002 -1.80485 0
M  V30 36 C 5.2652 -2.78408 -3.40847 0
M  V30 37 H 2.3842 -0.567992 -0.469632 0
M  V30 38 H 5.0262 -1.80302 -0.599277 0
M  V30 39 H 3.1762 -2.48763 -2.98412 0
M  V30 40 H 4.8482 -4.43981 -1.25215 0
M  V30 41 H 3.0912 -4.19344 -1.11055 0
M  V30 42 H 3.7622 -4.87077 -2.59731 0
M  V30 43 H 6.2382 -2.97012 -2.91416 0
M  V30 44 H 5.1142 -3.59416 -4.14863 0
M  V30 45 H 5.3752 -1.86269 -4.00944 0
M  V30 46 N 4.4343 0.785586 -1.36625 0
M  V30 47 C 5.6803 1.54591 -1.31261 0
M  V30 48 C 6.0133 1.93906 0.106823 0
M  V30 49 O 5.2883 1.63007 1.06108 0
M  V30 50 C 5.5713 2.82038 -2.23889 0
M  V30 51 C 5.4243 2.49066 -3.74548 0
M  V30 52 C 6.7433 3.83887 -2.15217 0
M  V30 53 H 3.8623 0.560846 -0.478143 0
M  V30 54 H 6.5043 0.902278 -1.67209 0
M  V30 55 H 4.6543 3.36961 -1.93363 0
M  V30 56 H 6.3263 2.00164 -4.15611 0
M  V30 57 H 4.5693 1.81954 -3.93796 0
M  V30 58 H 5.2403 3.40109 -4.34776 0
M  V30 59 H 7.7163 3.38421 -2.42096 0
M  V30 60 H 6.5923 4.70806 -2.82193 0
M  V30 61 H 6.8533 4.27131 -1.14068 0
M  V30 62 N 5.9124 1.20967 1.01018 0
M  V30 63 C 7.1604 1.02172 1.74371 0
M  V30 64 C 7.4814 -0.446414 1.89821 0
M  V30 65 O 6.7514 -1.32234 1.44537 0
M  V30 66 H 5.3314 0.375066 0.646014 0
M  V30 67 H 7.9934 1.52187 1.21758 0
M  V30 68 H 7.0894 1.48538 2.74487 0
M  V30 69 N 7.3905 -1.2043 1.01659 0
M  V30 70 C 8.6185 -1.93777 0.725132 0
M  V30 71 C 9.0335 -1.74772 -0.714166 0
M  V30 72 O 8.3905 -1.06169 -1.4844 0
M  V30 73 C 8.4415 -3.45876 1.05129 0
M  V30 74 O 8.1625 -3.6426 2.43406 0
M  V30 75 C 9.6635 -4.36368 0.780891 0
M  V30 76 H 6.8835 -0.615901 0.266284 0
M  V30 77 H 9.4275 -1.52922 1.35776 0
M  V30 78 H 7.5825 -3.8461 0.464065 0
M  V30 79 H 7.9965 -4.58246 2.55169 0
M  V30 80 H 9.4705 -5.41743 1.05918 0
M  V30 81 H 9.9475 -4.38275 -0.284937 0
M  V30 82 H 10.5535 -4.03296 1.35027 0
M  V30 83 N 8.8686 -0.792821 -1.36206 0
M  V30 84 C 10.2796 -0.429513 -1.81692 0
M  V30 85 C 10.6306 1.04695 -1.65932 0
M  V30 86 O 9.7556 1.81256 -1.18218 0
M  V30 87 C 10.3506 -0.772831 -3.29868 0
M  V30 88 C 8.9096 -0.462307 -3.7355 0
M  V30 89 C 8.0566 -1.00569 -2.5842 0
M  V30 90 H 11.0076 -0.985672 -1.24379 0
M  V30 91 H 11.0286 -0.0651928 -3.80444 0
M  V30 92 H 10.5406 -1.84747 -3.41307 0
M  V30 93 H 8.6416 0.604158 -3.67669 0
M  V30 94 H 8.7546 -0.985299 -4.68859 0
M  V30 95 H 7.1186 -0.428734 -2.51066 0
M  V30 96 H 7.9016 -2.08616 -2.72643 0
M  V30 97 N 10.3467 1.47872 -0.545128 0
M  V30 98 C 11.2937 2.29849 0.2093 0
M  V30 99 C 12.2637 1.38313 0.919707 0
M  V30 100 O 13.4487 1.67277 0.917772 0
M  V30 101 C 10.5887 3.22019 1.24088 0
M  V30 102 C 9.7017 4.2864 0.537778 0
M  V30 103 C 8.8367 5.07973 1.5536 0
M  V30 104 C 7.8757 6.06381 0.8348 0
M  V30 105 N 7.0127 6.78717 1.79688 0
M  V30 106 H 11.8527 2.93845 -0.49591 0
M  V30 107 H 9.3897 1.44848 -0.256389 0
M  V30 108 H 11.3477 3.73868 1.85144 0
M  V30 109 H 9.9777 2.59914 1.91428 0
M  V30 110 H 9.0297 3.7994 -0.187046 0
M  V30 111 H 10.3417 4.98793 -0.0258907 0
M  V30 112 H 9.4957 5.63912 2.23803 0
M  V30 113 H 8.2347 4.37693 2.15118 0
M  V30 114 H 7.2397 5.49631 0.136388 0
M  V30 115 H 8.4647 6.78665 0.24313 0
M  V30 116 H 6.4107 6.11177 2.38326 0
M  V30 117 H 6.3277 7.44998 1.28505 0
M  V30 118 H 7.5957 7.39237 2.47282 0
M  V30 119 N 11.8248 0.280983 1.55075 0
M  V30 120 C 13.0498 -0.340154 2.04592 0
M  V30 121 C 13.4748 -1.48246 1.15779 0
M  V30 122 O 12.8328 -1.80614 0.15761 0
M  V30 123 C 12.8808 -0.793104 3.5177 0
M  V30 124 O 11.9848 -1.89981 3.66034 0
M  V30 125 H 11.3258 -0.0694289 0.66036 0
M  V30 126 H 13.8558 0.416993 2.00306 0
M  V30 127 H 13.8658 -1.08729 3.93245 0
M  V30 128 H 12.5408 0.0426163 4.15878 0
M  V30 129 H 11.1178 -1.60771 3.36463 0
M  V30 130 N 13.3029 -1.57598 0.00835791 0
M  V30 131 C 14.2659 -2.07884 -0.965242 0
M  V30 132 C 15.2659 -0.989825 -1.26725 0
M  V30 133 O 16.4559 -1.25218 -1.21104 0
M  V30 134 C 13.5879 -2.52731 -2.28779 0
M  V30 135 H 14.7809 -2.95178 -0.530112 0
M  V30 136 H 12.3339 -1.54458 -0.239283 0
M  V30 137 H 13.0689 -1.68705 -2.76964 0
M  V30 138 H 12.8539 -3.32272 -2.08177 0
M  V30 139 H 14.3439 -2.91933 -2.98605 0
M  V30 140 N 14.781 0.264519 -1.55364 0
M  V30 141 C 15.691 1.34902 -1.91934 0
M  V30 142 C 16.707 1.53595 -0.817593 0
M  V30 143 O 17.883 1.67558 -1.11742 0
M  V30 144 C 14.948 2.68676 -2.19121 0
M  V30 145 C 14.009 2.58657 -3.4263 0
M  V30 146 C 13.242 3.86051 -3.68511 0
M  V30 147 O 13.465 4.87126 -2.96757 0
M  V30 148 O 12.399 3.85744 -4.62045 0
M  V30 149 H 16.225 1.06883 -2.8427 0
M  V30 150 H 13.81 0.463775 -1.42019 0
M  V30 151 H 15.692 3.47759 -2.37995 0
M  V30 152 H 14.367 2.96463 -1.29966 0
M  V30 153 H 13.274 1.7792 -3.29082 0
M  V30 154 H 14.607 2.35818 -4.32031 0
M  V30 155 N 16.2591 1.48442 0.529413 0
M  V30 156 C 17.1911 1.59095 1.64989 0
M  V30 157 C 18.2041 0.475212 1.5571 0
M  V30 158 O 19.3931 0.746081 1.6216 0
M  V30 159 C 16.4931 1.50518 3.0364 0
M  V30 160 C 15.6661 2.77142 3.38395 0
M  V30 161 C 14.7251 2.62012 4.56329 0
M  V30 162 O 13.7511 3.35898 4.59522 0
M  V30 163 N 14.9531 1.71667 5.54536 0
M  V30 164 H 17.7181 2.55723 1.56287 0
M  V30 165 H 15.2791 1.45173 0.716697 0
M  V30 166 H 17.2711 1.38091 3.80412 0
M  V30 167 H 15.8411 0.618627 3.06418 0
M  V30 168 H 15.0611 3.0413 2.50796 0
M  V30 169 H 16.3491 3.61146 3.58401 0
M  V30 170 H 15.7471 1.10841 5.54735 0
M  V30 171 H 14.3041 1.65178 6.30523 0
M  V30 172 N 17.7372 -0.778329 1.37039 0
M  V30 173 C 18.9862 -1.53189 1.3121 0
M  V30 174 C 19.2992 -1.95328 -0.103095 0
M  V30 175 O 20.5052 -2.70012 -0.283826 0
M  V30 176 C 18.9612 -2.76591 2.30272 0
M  V30 177 C 18.5692 -2.41577 3.77286 0
M  V30 178 C 20.3132 -3.5455 2.33441 0
M  V30 179 C 18.2202 -3.61441 4.68096 0
M  V30 180 H 17.1502 -0.5751 0.487622 0
M  V30 181 H 19.8012 -0.853101 1.62464 0
M  V30 182 H 18.1832 -3.46326 1.92027 0
M  V30 183 H 19.3572 -1.79668 4.2433 0
M  V30 184 H 17.6722 -1.76806 3.76999 0
M  V30 185 H 20.2692 -4.43628 2.98493 0
M  V30 186 H 20.6122 -3.93936 1.34611 0
M  V30 187 H 21.1452 -2.91805 2.7036 0
M  V30 188 H 17.8842 -3.27142 5.6803 0
M  V30 189 H 17.4042 -4.22478 4.25761 0
M  V30 190 H 19.0832 -4.28335 4.8491 0
M  V30 191 N 19.2153 -1.21501 -1.00376 0
M  V30 192 C 20.1473 -0.933174 -2.09343 0
M  V30 193 C 21.1603 0.0840896 -1.62583 0
M  V30 194 O 22.3493 -0.148563 -1.77881 0
M  V30 195 C 19.4493 -0.379869 -3.36764 0
M  V30 196 C 18.6223 -1.45176 -4.12605 0
M  V30 197 C 17.6813 -0.907476 -5.18316 0
M  V30 198 O 16.7073 -1.5912 -5.46507 0
M  V30 199 N 17.9093 0.276649 -5.7984 0
M  V30 200 H 20.6743 -1.87124 -2.34104 0
M  V30 201 H 18.2353 -1.12043 -1.16867 0
M  V30 202 H 20.2273 -0.00131488 -4.047 0
M  V30 203 H 18.7973 0.463048 -3.09151 0
M  V30 204 H 18.0173 -2.00411 -3.39454 0
M  V30 205 H 19.3053 -2.17328 -4.6005 0
M  V30 206 H 18.7033 0.849147 -5.59291 0
M  V30 207 H 17.2603 0.596702 -6.49063 0
M  V30 208 N 20.6934 1.19889 -1.02296 0
M  V30 209 C 21.6254 2.22334 -0.556787 0
M  V30 210 C 22.6384 1.58674 0.364199 0
M  V30 211 O 23.8274 1.77768 0.161533 0
M  V30 212 C 20.9274 3.38257 0.208694 0
M  V30 213 C 20.1004 4.31504 -0.71577 0
M  V30 214 C 19.1594 5.262 0.00325597 0
M  V30 215 O 18.1854 5.65798 -0.621357 0
M  V30 216 N 19.3874 5.66303 1.27599 0
M  V30 217 H 22.1524 2.62957 -1.43784 0
M  V30 218 H 19.7134 1.34495 -0.901261 0
M  V30 219 H 21.7054 3.98616 0.699111 0
M  V30 220 H 20.2754 2.96472 0.991102 0
M  V30 221 H 19.4954 3.69016 -1.38638 0
M  V30 222 H 20.7834 4.9072 -1.34428 0
M  V30 223 H 20.1814 5.36155 1.80429 0
M  V30 224 H 18.7384 6.28942 1.71102 0
M  V30 225 N 22.1715 0.800033 1.35784 0
M  V30 226 C 23.0815 0.207204 2.33683 0
M  V30 227 C 24.0975 -0.64631 1.61551 0
M  V30 228 O 25.2735 -0.559604 1.93469 0
M  V30 229 C 22.3385 -0.639659 3.40748 0
M  V30 230 C 21.3995 0.233585 4.28664 0
M  V30 231 C 20.6325 -0.572954 5.30616 0
M  V30 232 O 20.8555 -1.80816 5.40982 0
M  V30 233 O 19.7895 0.0327285 6.01891 0
M  V30 234 H 23.6155 1.01692 2.86169 0
M  V30 235 H 21.2005 0.561691 1.38439 0
M  V30 236 H 23.0825 -1.12223 4.06182 0
M  V30 237 H 21.7575 -1.42708 2.90544 0
M  V30 238 H 20.6645 0.763147 3.66233 0
M  V30 239 H 21.9975 0.984784 4.82248 0
M  V30 240 N 23.6496 -1.47581 0.552962 0
M  V30 241 C 24.8956 -2.03369 0.0355807 0
M  V30 242 C 25.2506 -1.42016 -1.29805 0
M  V30 243 O 24.5436 -0.564917 -1.83083 0
M  V30 244 C 24.7376 -3.57199 -0.119728 0
M  V30 245 C 24.5666 -4.33468 1.1973 0
M  V30 246 C 23.3366 -4.7353 1.76345 0
M  V30 247 C 25.5346 -4.68866 2.11351 0
M  V30 248 N 23.5166 -5.34426 3.02097 0
M  V30 249 C 24.8876 -5.3002 3.21681 0
M  V30 250 C 26.9426 -4.50795 2.11397 0
M  V30 251 C 25.6456 -5.75011 4.32151 0
M  V30 252 C 27.6716 -4.96782 3.20876 0
M  V30 253 C 27.0336 -5.57981 4.29926 0
M  V30 254 H 23.1326 -0.780058 0.0550806 0
M  V30 255 H 25.7166 -1.80117 0.739315 0
M  V30 256 H 23.8876 -3.80227 -0.792579 0
M  V30 257 H 25.6196 -3.99627 -0.638792 0
M  V30 258 H 22.3746 -4.55352 1.30196 0
M  V30 259 H 22.7986 -5.69421 3.66182 0
M  V30 260 H 27.4406 -4.0284 1.28372 0
M  V30 261 H 25.1586 -6.21959 5.15938 0
M  V30 262 H 28.7446 -4.84573 3.21994 0
M  V30 263 H 27.6246 -5.92918 5.13243 0
M  V30 264 N 25.1277 -0.289203 -1.54924 0
M  V30 265 C 26.4047 0.376032 -1.91951 0
M  V30 266 C 26.7847 1.72622 -1.21511 0
M  V30 267 O 26.1327 2.25853 -0.346767 0
M  V30 268 C 26.3427 0.502378 -3.45365 0
M  V30 269 C 27.6907 0.778741 -4.17398 0
M  V30 270 O 28.7147 0.586647 -3.51336 0
M  V30 271 O 27.5737 1.14698 -5.34328 0
M  V30 272 H 24.6677 0.208167 -0.800372 0
M  V30 273 H 27.2137 -0.336394 -1.66332 0
M  V30 274 H 25.9857 -0.447255 -3.88736 0
M  V30 275 H 25.6087 1.26373 -3.76982 0
M  V30 276 N 26.6058 1.57591 -0.0167156 0
M  V30 277 C 27.8338 1.95575 0.675128 0
M  V30 278 C 28.2488 0.892542 1.6637 0
M  V30 279 O 27.6058 -0.126912 1.82058 0
M  V30 280 C 27.6568 3.33608 1.39239 0
M  V30 281 O 27.3778 4.3585 0.443444 0
M  V30 282 C 28.8788 3.86151 2.17721 0
M  V30 283 H 26.0988 0.644423 0.186978 0
M  V30 284 H 28.6428 2.0437 -0.0728 0
M  V30 285 H 26.7978 3.2607 2.09182 0
M  V30 286 H 27.2118 5.158 0.951358 0
M  V30 287 H 28.6858 4.85114 2.63379 0
M  V30 288 H 29.1628 3.19738 3.01105 0
M  V30 289 H 29.7688 3.96918 1.52761 0
M  V30 290 N 28.0839 -0.256276 1.55502 0
M  V30 291 C 29.0319 -1.33694 1.90338 0
M  V30 292 C 30.0259 -1.50299 0.781441 0
M  V30 293 O 31.2319 -1.51885 0.965966 0
M  V30 294 H 27.6069 -0.447483 0.60437 0
M  V30 295 H 29.5779 -1.01574 2.8058 0
M  V30 296 C 28.3269 -2.68724 2.20642 0
M  V30 297 H 27.6499 -2.56743 3.06469 0
M  V30 298 H 29.0899 -3.43237 2.48926 0
M  V30 299 C 27.5489 -3.21101 1.01959 0
M  V30 300 O 28.0789 -4.0084 0.262762 0
M  V30 301 N 26.2849 -2.79003 0.812746 0
M  V30 302 H 25.8319 -2.14271 1.42989 0
M  V30 303 H 25.7899 -3.14393 0.0203076 0
M  V30 304 N 29.562 -1.4872 -0.521534 0
M  V30 305 C 30.973 -1.50607 -1.10337 0
M  V30 306 C 31.324 -0.280612 -1.94183 0
M  V30 307 O 30.449 0.611507 -2.0758 0
M  V30 308 C 31.044 -2.72903 -2.00772 0
M  V30 309 C 29.603 -2.77634 -2.54158 0
M  V30 310 C 28.75 -2.44241 -1.31307 0
M  V30 311 H 31.701 -1.55714 -0.306388 0
M  V30 312 H 31.722 -2.519 -2.85178 0
M  V30 313 H 31.234 -3.62077 -1.39721 0
M  V30 314 H 29.335 -1.92689 -3.18907 0
M  V30 315 H 29.448 -3.79283 -2.92714 0
M  V30 316 H 27.812 -1.95577 -1.63161 0
M  V30 317 H 28.595 -3.35666 -0.719943 0
M  V30 318 N 31.0401 0.771051 -1.3745 0
M  V30 319 C 32.4561 1.07171 -1.18265 0
M  V30 320 C 32.6561 2.01491 -0.019287 0
M  V30 321 O 31.7121 2.44244 0.640408 0
M  V30 322 C 33.0251 1.66854 -2.50161 0
M  V30 323 C 34.5731 1.79109 -2.56689 0
M  V30 324 C 35.0481 2.42205 -3.88717 0
M  V30 325 N 36.5391 2.49655 -3.90162 0
M  V30 326 C 37.2741 2.9933 -4.8907 0
M  V30 327 N 36.7701 3.49172 -5.98374 0
M  V30 328 N 38.5631 2.9821 -4.76474 0
M  V30 329 H 30.7141 0.144796 -2.11906 0
M  V30 330 H 32.9771 0.126863 -0.939473 0
M  V30 331 H 32.6831 1.05017 -3.35655 0
M  V30 332 H 32.5571 2.6614 -2.673 0
M  V30 333 H 34.9441 2.40077 -1.71601 0
M  V30 334 H 35.0251 0.785757 -2.43433 0
M  V30 335 H 34.6691 1.81875 -4.74219 0
M  V30 336 H 34.5991 3.43345 -3.99276 0
M  V30 337 H 37.0901 2.14383 -3.11205 0
M  V30 338 H 37.4031 3.8548 -6.69795 0
M  V30 339 H 35.7481 3.47275 -6.02018 0
M  V30 340 H 38.9391 2.58572 -3.90203 0
M  V30 341 H 39.1121 3.36613 -5.53711 0
M  V30 342 N 32.5182 1.22032 0.997298 0
M  V30 343 C 33.7642 1.05382 1.73972 0
M  V30 344 C 34.1192 -0.407419 1.88037 0
M  V30 345 O 33.4122 -1.29811 1.40924 0
M  V30 346 C 33.6062 1.69345 3.14733 0
M  V30 347 C 33.4352 3.21537 3.14395 0
M  V30 348 C 32.2052 3.9062 3.20537 0
M  V30 349 C 34.4032 4.18527 2.98897 0
M  V30 350 N 32.3852 5.29935 3.09906 0
M  V30 351 C 33.7562 5.44645 2.96247 0
M  V30 352 C 35.8112 4.09476 2.83255 0
M  V30 353 C 34.5142 6.62752 2.79557 0
M  V30 354 C 36.5402 5.27228 2.67926 0
M  V30 355 C 35.9022 6.52262 2.65959 0
M  V30 356 H 32.0012 0.440018 0.646458 0
M  V30 357 H 34.5852 1.54505 1.18475 0
M  V30 358 H 32.7562 1.22778 3.68484 0
M  V30 359 H 34.4882 1.45828 3.77513 0
M  V30 360 H 31.2432 3.41592 3.28043 0
M  V30 361 H 31.6672 6.02926 3.07912 0
M  V30 362 H 36.3092 3.13598 2.83577 0
M  V30 363 H 34.0272 7.58783 2.77982 0
M  V30 364 H 37.6132 5.22053 2.56812 0
M  V30 365 H 36.4932 7.41844 2.54239 0
M  V30 366 N 33.9963 -1.19345 1.0293 0
M  V30 367 C 34.9433 -2.2258 0.610464 0
M  V30 368 C 35.9133 -1.6179 -0.375946 0
M  V30 369 O 37.0983 -1.88844 -0.272511 0
M  V30 370 C 34.2383 -3.45085 -0.0321473 0
M  V30 371 C 33.3513 -4.20258 1.00035 0
M  V30 372 C 32.4863 -5.3019 0.32746 0
M  V30 373 C 31.5253 -5.97121 1.34584 0
M  V30 374 N 30.6623 -6.98615 0.698726 0
M  V30 375 H 35.5023 -2.57764 1.49538 0
M  V30 376 H 33.0393 -1.26644 0.748311 0
M  V30 377 H 34.9973 -4.15061 -0.421966 0
M  V30 378 H 33.6273 -3.10555 -0.88064 0
M  V30 379 H 32.6793 -3.49223 1.50823 0
M  V30 380 H 33.9913 -4.66175 1.77433 0
M  V30 381 H 33.1453 -6.06587 -0.11718 0
M  V30 382 H 31.8843 -4.85345 -0.478713 0
M  V30 383 H 30.8893 -5.19474 1.80074 0
M  V30 384 H 32.1143 -6.4405 2.15352 0
M  V30 385 H 30.0603 -6.55942 -0.0873471 0
M  V30 386 H 29.9773 -7.42724 1.41058 0
M  V30 387 H 31.2453 -7.79004 0.278102 0
M  V30 388 N 35.4744 -0.807222 -1.35358 0
M  V30 389 C 36.7514 -0.311126 -1.9311 0
M  V30 390 C 37.1314 1.19937 -1.73719 0
M  V30 391 O 36.4794 1.99918 -1.10657 0
M  V30 392 C 36.6894 -0.723226 -3.41424 0
M  V30 393 C 38.0374 -0.713078 -4.18569 0
M  V30 394 O 39.0614 -0.664811 -3.49941 0
M  V30 395 O 37.9204 -0.772022 -5.41019 0
M  V30 396 H 35.0144 -0.081526 -0.822972 0
M  V30 397 H 37.5604 -0.890962 -1.4443 0
M  V30 398 H 36.3324 -1.76426 -3.4927 0
M  V30 399 H 35.9554 -0.118232 -3.97424 0
M  V30 400 N 36.9525 1.47285 -0.560781 0
M  V30 401 C 38.1985 2.02764 -0.0381184 0
M  V30 402 C 38.5315 1.43384 1.30976 0
M  V30 403 O 37.8065 0.590733 1.85312 0
M  V30 404 C 38.0895 3.60064 0.0511427 0
M  V30 405 C 37.9425 4.2987 -1.32408 0
M  V30 406 C 39.2615 4.33439 0.762795 0
M  V30 407 H 36.3805 0.736841 -0.0153264 0
M  V30 408 H 39.0225 1.75675 -0.723759 0
M  V30 409 H 37.1725 3.83274 0.635065 0
M  V30 410 H 38.8445 4.17989 -1.95148 0
M  V30 411 H 37.0875 3.90085 -1.8978 0
M  V30 412 H 37.7585 5.38478 -1.21431 0
M  V30 413 H 40.2345 4.15243 0.266965 0
M  V30 414 H 39.1105 5.43124 0.794221 0
M  V30 415 H 39.3715 4.02915 1.81966 0
M  V30 416 N 38.4306 0.297415 1.54768 0
M  V30 417 C 39.6586 -0.315623 2.04478 0
M  V30 418 C 40.0736 -1.47792 1.17486 0
M  V30 419 O 39.4306 -1.81404 0.19971 0
M  V30 420 C 39.4816 -0.7753 3.53088 0
M  V30 421 O 39.2026 0.340732 4.36773 0
M  V30 422 C 40.7036 -1.45386 4.18781 0
M  V30 423 H 37.9236 -0.0690887 0.667434 0
M  V30 424 H 40.4676 0.436003 1.99798 0
M  V30 425 H 38.6226 -1.47696 3.58141 0
M  V30 426 H 39.0366 -0.0165035 5.24497 0
M  V30 427 H 40.5106 -1.72669 5.24299 0
M  V30 428 H 40.9876 -2.39275 3.68299 0
M  V30 429 H 41.5936 -0.795475 4.17795 0
M  V30 430 N 39.9087 -1.5758 0.0250728 0
M  V30 431 C 41.3247 -1.56124 -0.331282 0
M  V30 432 C 41.5247 -1.03029 -1.73169 0
M  V30 433 O 40.5807 -0.675215 -2.43305 0
M  V30 434 C 41.8937 -3.00139 -0.183584 0
M  V30 435 C 43.4417 -3.11946 -0.256654 0
M  V30 436 C 43.9167 -4.57793 -0.137792 0
M  V30 437 N 45.4077 -4.6279 -0.194904 0
M  V30 438 C 46.1427 -5.7326 -0.126655 0
M  V30 439 N 45.6387 -6.928 -0.00755288 0
M  V30 440 N 47.4317 -5.61811 -0.180348 0
M  V30 441 H 39.5827 -1.90424 0.94087 0
M  V30 442 H 41.8457 -0.875761 0.362968 0
M  V30 443 H 41.5517 -3.4292 0.780927 0
M  V30 444 H 41.4257 -3.64899 -0.955448 0
M  V30 445 H 43.8127 -2.69079 -1.21162 0
M  V30 446 H 43.8937 -2.49915 0.545517 0
M  V30 447 H 43.5377 -5.01339 0.813739 0
M  V30 448 H 43.4677 -5.17798 -0.958775 0
M  V30 449 H 45.9587 -3.76807 -0.287267 0
M  V30 450 H 46.2717 -7.72791 0.0379428 0
M  V30 451 H 44.6167 -6.94995 0.0271731 0
M  V30 452 H 47.8077 -4.6731 -0.271767 0
M  V30 453 H 47.9807 -6.47882 -0.123697 0
M  V30 454 N 41.3868 0.248026 -1.55636 0
M  V30 455 C 42.6148 0.993808 -1.81469 0
M  V30 456 C 43.0298 1.78991 -0.60064 0
M  V30 457 O 42.3868 1.77345 0.430682 0
M  V30 458 C 42.4378 1.93258 -3.05506 0
M  V30 459 O 42.1588 1.16869 -4.22224 0
M  V30 460 C 43.6598 2.79444 -3.4413 0
M  V30 461 H 40.8798 0.292486 -0.603898 0
M  V30 462 H 43.4238 0.271253 -2.02693 0
M  V30 463 H 41.5788 2.60943 -2.86335 0
M  V30 464 H 41.9928 1.80359 -4.92515 0
M  V30 465 H 43.4668 3.41066 -4.34026 0
M  V30 466 H 43.9438 3.50499 -2.64665 0
M  V30 467 H 44.5498 2.17214 -3.65648 0
M  V30 468 N 42.8649 1.48995 0.513639 0
M  V30 469 C 44.0949 1.61297 1.291 0
M  V30 470 C 44.5029 0.278656 1.87137 0
M  V30 471 O 43.8459 -0.744325 1.67945 0
M  V30 472 C 43.9079 2.61326 2.46879 0
M  V30 473 C 43.5719 4.05993 2.09807 0
M  V30 474 C 44.5689 4.93183 1.64519 0
M  V30 475 C 42.2539 4.51642 2.19829 0
M  V30 476 C 44.2479 6.24056 1.2974 0
M  V30 477 C 41.9349 5.82532 1.84662 0
M  V30 478 C 42.9329 6.68562 1.3969 0
M  V30 479 O 42.6209 7.97014 1.04992 0
M  V30 480 H 42.3529 0.546236 0.39825 0
M  V30 481 H 44.9069 1.95673 0.62459 0
M  V30 482 H 43.1369 2.22104 3.16554 0
M  V30 483 H 44.8259 2.6329 3.08923 0
M  V30 484 H 45.5919 4.59147 1.56233 0
M  V30 485 H 41.4709 3.84855 2.53786 0
M  V30 486 H 45.0149 6.91161 0.945659 0
M  V30 487 H 40.9119 6.16099 1.92594 0
M  V30 488 H 41.6799 8.09913 1.18249 0
M  V30 489 N 44.343 -0.763751 1.37857 0
M  V30 490 C 45.568 -1.55805 1.36893 0
M  V30 491 C 45.993 -1.88054 -0.0416135 0
M  V30 492 O 45.351 -1.49825 -1.02089 0
M  V30 493 C 45.399 -2.84012 2.22192 0
M  V30 494 O 44.503 -3.78732 1.63204 0
M  V30 495 H 43.844 -0.471638 0.46739 0
M  V30 496 H 46.374 -0.944657 1.81487 0
M  V30 497 H 46.384 -3.33037 2.35691 0
M  V30 498 H 45.059 -2.59869 3.24716 0
M  V30 499 H 43.636 -3.37402 1.58791 0
M  V30 500 N 45.8211 -1.22559 -0.990812 0
M  V30 501 C 46.7841 -0.998863 -2.0629 0
M  V30 502 C 47.7841 0.0354834 -1.60761 0
M  V30 503 O 48.9741 -0.203231 -1.7301 0
M  V30 504 C 46.1061 -0.509203 -3.37076 0
M  V30 505 H 47.2991 -1.95014 -2.27837 0
M  V30 506 H 44.8521 -1.04456 -1.16269 0
M  V30 507 H 45.5871 0.446335 -3.21214 0
M  V30 508 H 45.3721 -1.25547 -3.71457 0
M  V30 509 H 46.8621 -0.370888 -4.1595 0
M  V30 510 N 47.2992 1.18797 -1.03562 0
M  V30 511 C 48.2092 2.25913 -0.632505 0
M  V30 512 C 49.2252 1.70668 0.338882 0
M  V30 513 O 50.4012 2.00453 0.195076 0
M  V30 514 C 47.4662 3.467 0.00350942 0
M  V30 515 C 46.5272 4.17098 -1.01624 0
M  V30 516 C 45.7602 5.32119 -0.410478 0
M  V30 517 O 45.9832 5.64976 0.784725 0
M  V30 518 O 44.9172 5.9107 -1.13667 0
M  V30 519 H 48.7432 2.62648 -1.52478 0
M  V30 520 H 46.3282 1.25781 -0.806195 0
M  V30 521 H 48.2102 4.19878 0.35781 0
M  V30 522 H 46.8852 3.11798 0.869686 0
M  V30 523 H 45.7922 3.4601 -1.42224 0
M  V30 524 H 47.1252 4.55987 -1.85301 0
M  V30 525 N 48.7773 0.814389 1.34928 0
M  V30 526 C 50.0543 0.321363 1.92942 0
M  V30 527 C 50.4343 -1.19014 1.74353 0
M  V30 528 O 49.7823 -1.99328 1.11716 0
M  V30 529 C 49.9923 0.741323 3.41036 0
M  V30 530 C 51.3403 0.735266 4.18185 0
M  V30 531 O 52.3643 0.68336 3.49584 0
M  V30 532 O 51.2233 0.800703 5.40602 0
M  V30 533 H 48.3173 0.0858893 0.822528 0
M  V30 534 H 50.8633 0.898609 1.43955 0
M  V30 535 H 49.6353 1.78276 3.4833 0
M  V30 536 H 49.2583 0.139307 3.97356 0
M  V30 537 N 50.2554 -1.46986 0.568584 0
M  V30 538 C 51.5014 -2.02741 0.0488709 0
M  V30 539 C 51.8344 -1.44077 -1.30214 0
M  V30 540 O 51.1094 -0.600552 -1.84996 0
M  V30 541 C 51.3924 -3.60086 -0.032047 0
M  V30 542 C 51.2454 -4.29162 1.34686 0
M  V30 543 C 52.5644 -4.33838 -0.739798 0
M  V30 544 H 49.6834 -0.736749 0.0192338 0
M  V30 545 H 52.3254 -1.75289 0.733065 0
M  V30 546 H 50.4754 -3.83606 -0.61473 0
M  V30 547 H 52.1474 -4.16948 1.97362 0
M  V30 548 H 50.3904 -3.89073 1.91846 0
M  V30 549 H 51.0614 -5.37826 1.24285 0
M  V30 550 H 53.5374 -4.15378 -0.244939 0
M  V30 551 H 52.4134 -5.43537 -0.765406 0
M  V30 552 H 52.6744 -4.03875 -1.79827 0
M  V30 553 N 51.7335 -0.305618 -1.54608 0
M  V30 554 C 52.9795 0.302746 -2.00528 0
M  V30 555 C 53.3125 1.53184 -1.19367 0
M  V30 556 O 52.5875 1.92598 -0.271321 0
M  V30 557 C 52.8705 0.654756 -3.54097 0
M  V30 558 C 52.7235 -0.583793 -4.45995 0
M  V30 559 C 54.0425 1.47947 -4.14487 0
M  V30 560 H 51.1615 0.108564 -0.72896 0
M  V30 561 H 53.8035 -0.418634 -1.85331 0
M  V30 562 H 51.9535 1.26935 -3.67178 0
M  V30 563 H 53.6255 -1.22224 -4.44814 0
M  V30 564 H 51.8685 -1.21615 -4.16404 0
M  V30 565 H 52.5395 -0.293287 -5.5122 0
M  V30 566 H 55.0155 0.96013 -4.04871 0
M  V30 567 H 53.8915 1.69454 -5.22088 0
M  V30 568 H 54.1525 2.47011 -3.66658 0
M  V30 569 N 53.2116 1.57565 -0.0334293 0
M  V30 570 C 54.1746 2.09393 0.932048 0
M  V30 571 C 55.1746 1.00986 1.25134 0
M  V30 572 O 56.3646 1.27129 1.19096 0
M  V30 573 C 53.4966 2.56338 2.2473 0
M  V30 574 H 54.6896 2.95984 0.483085 0
M  V30 575 H 52.2426 1.54819 0.21468 0
M  V30 576 H 52.9776 1.7309 2.74245 0
M  V30 577 H 52.7626 3.35542 2.02865 0
M  V30 578 H 54.2526 2.96646 2.93923 0
M  V30 579 N 54.6897 -0.239769 1.55765 0
M  V30 580 C 55.6197 -1.30052 1.9393 0
M  V30 581 C 56.6007 -1.49839 0.805132 0
M  V30 582 O 57.7857 -1.62328 1.06599 0
M  V30 583 C 54.9157 -2.65391 2.2402 0
M  V30 584 C 53.8697 -2.60289 3.39755 0
M  V30 585 C 53.1957 -3.99489 3.55405 0
M  V30 586 C 54.4957 -2.16654 4.75246 0
M  V30 587 H 56.1897 -0.983573 2.82783 0
M  V30 588 H 53.7357 -0.471701 1.36055 0
M  V30 589 H 55.6887 -3.3974 2.49308 0
M  V30 590 H 54.4127 -2.98736 1.32 0
M  V30 591 H 53.0717 -1.88398 3.14487 0
M  V30 592 H 52.7197 -4.30112 2.60793 0
M  V30 593 H 52.4197 -3.96962 4.33238 0
M  V30 594 H 53.9437 -4.75528 3.83022 0
M  V30 595 H 55.3577 -2.80737 4.99859 0
M  V30 596 H 53.7547 -2.25223 5.56232 0
M  V30 597 H 54.8247 -1.11835 4.71827 0
M  V30 598 N 56.1678 -1.49265 -0.50573 0
M  V30 599 C 57.0998 -1.617 -1.62437 0
M  V30 600 C 58.1128 -0.499924 -1.54934 0
M  V30 601 O 59.3018 -0.771785 -1.60953 0
M  V30 602 C 56.4018 -1.5533 -3.01207 0
M  V30 603 C 55.5748 -2.8249 -3.33943 0
M  V30 604 C 54.6338 -2.69238 -4.52103 0
M  V30 605 O 53.6598 -3.43167 -4.5412 0
M  V30 606 N 54.8618 -1.80468 -5.51735 0
M  V30 607 H 57.6268 -2.58177 -1.52199 0
M  V30 608 H 55.1878 -1.46294 -0.693511 0
M  V30 609 H 57.1798 -1.44125 -3.78167 0
M  V30 610 H 55.7498 -0.667297 -3.05395 0
M  V30 611 H 54.9698 -3.08081 -2.45926 0
M  V30 612 H 56.2578 -3.66802 -3.5261 0
M  V30 613 H 55.6558 -1.19653 -5.52901 0
M  V30 614 H 54.2128 -1.75188 -6.27816 0
M  V30 615 N 57.6459 0.756429 -1.3826 0
M  V30 616 C 58.8939 1.51248 -1.34047 0
M  V30 617 C 59.2149 1.94875 0.0698372 0
M  V30 618 O 58.4849 1.67436 1.01696 0
M  V30 619 H 57.0649 0.561018 -0.493222 0
M  V30 620 H 59.7269 0.899347 -1.7291 0
M  V30 621 H 58.8229 2.40472 -1.98947 0
M  V30 622 N 59.124 1.23083 0.984299 0
M  V30 623 C 60.349 1.088 1.76571 0
M  V30 624 C 60.774 -0.356657 1.84688 0
M  V30 625 O 60.132 -1.25788 1.30565 0
M  V30 626 C 60.18 1.71371 3.17277 0
M  V30 627 O 59.284 0.973213 4.00752 0
M  V30 628 H 58.625 0.381599 0.543395 0
M  V30 629 H 61.155 1.63057 1.23587 0
M  V30 630 H 61.165 1.76449 3.67872 0
M  V30 631 H 59.84 2.76493 3.10684 0
M  V30 632 H 58.417 0.999078 3.59267 0
M  V30 633 N 60.6021 -1.18246 1.0419 0
M  V30 634 C 61.8481 -1.88536 0.747122 0
M  V30 635 C 62.1811 -1.80223 -0.723409 0
M  V30 636 O 61.4561 -1.20337 -1.52804 0
M  V30 637 C 61.7391 -3.38968 1.21544 0
M  V30 638 C 61.5921 -3.56084 2.74816 0
M  V30 639 C 62.9111 -4.32648 0.806482 0
M  V30 640 H 60.0301 -0.684619 0.272883 0
M  V30 641 H 62.6721 -1.39113 1.29413 0
M  V30 642 H 60.8221 -3.8119 0.750081 0
M  V30 643 H 62.4941 -3.22946 3.29399 0
M  V30 644 H 60.7371 -2.98699 3.14582 0
M  V30 645 H 61.4081 -4.61639 3.02644 0
M  V30 646 H 63.8841 -3.98211 1.20695 0
M  V30 647 H 62.7601 -5.36462 1.1619 0
M  V30 648 H 63.0211 -4.41146 -0.29029 0
M  V30 649 N 62.0802 -0.821533 -1.34494 0
M  V30 650 C 63.3262 -0.409552 -1.98622 0
M  V30 651 C 63.6592 1.0244 -1.64984 0
M  V30 652 O 62.9342 1.71325 -0.920758 0
M  V30 653 C 63.2172 -0.610458 -3.54888 0
M  V30 654 C 63.0702 -2.09043 -3.98273 0
M  V30 655 C 64.3892 -0.0455379 -4.40076 0
M  V30 656 H 61.5082 -0.15028 -0.721516 0
M  V30 657 H 64.1502 -1.03384 -1.59411 0
M  V30 658 H 62.3002 -0.079044 -3.8842 0
M  V30 659 H 63.9722 -2.68537 -3.75081 0
M  V30 660 H 62.2152 -2.58139 -3.48635 0
M  V30 661 H 62.8862 -2.18182 -5.07051 0
M  V30 662 H 65.3622 -0.499557 -4.1309 0
M  V30 663 H 64.2382 -0.215922 -5.48475 0
M  V30 664 H 64.4992 1.04939 -4.29465 0
M  V30 665 N 63.5583 1.46682 -0.576371 0
M  V30 666 C 64.4683 2.34032 0.163141 0
M  V30 667 C 65.4843 1.49367 0.892501 0
M  V30 668 O 66.6603 1.82252 0.857106 0
M  V30 669 C 63.7253 3.26435 1.16795 0
M  V30 670 C 62.7863 4.26998 0.443944 0
M  V30 671 C 62.0193 5.14986 1.40088 0
M  V30 672 O 62.2423 5.05785 2.637 0
M  V30 673 O 61.1763 5.94906 0.914917 0
M  V30 674 H 65.0023 2.98607 -0.55388 0
M  V30 675 H 62.5873 1.45554 -0.336821 0
M  V30 676 H 64.4693 3.83459 1.74748 0
M  V30 677 H 63.1443 2.64465 1.86655 0
M  V30 678 H 62.0513 3.7368 -0.177271 0
M  V30 679 H 63.3843 4.91736 -0.213566 0
M  V30 680 N 65.0364 0.313813 1.54444 0
M  V30 681 C 65.9464 -0.565714 2.27677 0
M  V30 682 C 66.9624 -1.13754 1.31666 0
M  V30 683 O 68.1384 -1.15959 1.64668 0
M  V30 684 C 65.2034 -1.71528 3.01296 0
M  V30 685 C 64.2644 -1.17624 4.12872 0
M  V30 686 C 63.4974 -2.27102 4.8297 0
M  V30 687 O 63.7204 -3.47256 4.52514 0
M  V30 688 O 62.6544 -1.9307 5.70094 0
M  V30 689 H 66.4804 0.0287296 3.03686 0
M  V30 690 H 64.0654 0.0798312 1.49187 0
M  V30 691 H 65.9474 -2.38476 3.4743 0
M  V30 692 H 64.6224 -2.29608 2.2817 0
M  V30 693 H 63.5294 -0.472124 3.71109 0
M  V30 694 H 64.8624 -0.640695 4.88012 0
M  V30 695 N 66.5145 -1.57545 0.0417849 0
M  V30 696 C 67.4645 -2.07483 -0.945247 0
M  V30 697 C 68.4485 -0.977983 -1.27767 0
M  V30 698 O 69.6405 -1.24142 -1.26166 0
M  V30 699 C 66.7695 -2.61576 -2.22335 0
M  V30 700 C 65.8555 -3.78213 -1.91874 0
M  V30 701 N 66.2465 -4.88344 -1.31733 0
M  V30 702 C 64.5445 -3.8694 -2.21796 0
M  V30 703 C 65.2455 -5.69462 -1.1869 0
M  V30 704 N 64.2215 -5.16771 -1.68666 0
M  V30 705 H 68.0235 -2.90029 -0.475441 0
M  V30 706 H 65.5375 -1.61581 -0.162911 0
M  V30 707 H 67.5345 -2.95651 -2.93932 0
M  V30 708 H 66.1945 -1.80465 -2.69931 0
M  V30 709 H 67.2055 -5.08335 -0.990729 0
M  V30 710 H 63.8825 -3.16757 -2.71977 0
M  V30 711 H 65.2725 -6.68023 -0.720793 0
M  V30 712 N 67.9926 0.231505 -1.5589 0
M  V30 713 C 69.2206 0.974505 -1.82513 0
M  V30 714 C 69.6356 1.78344 -0.619591 0
M  V30 715 O 68.9926 1.77792 0.411848 0
M  V30 716 C 69.0436 1.90007 -3.07538 0
M  V30 717 O 68.7646 1.12385 -4.2344 0
M  V30 718 C 70.2656 2.75779 -3.47075 0
M  V30 719 H 67.4856 0.286065 -0.606966 0
M  V30 720 H 70.0296 0.249739 -2.02969 0
M  V30 721 H 68.1846 2.57891 -2.89086 0
M  V30 722 H 68.5986 1.75125 -4.944 0
M  V30 723 H 70.0726 3.36443 -4.37619 0
M  V30 724 H 70.5496 3.47672 -2.68367 0
M  V30 725 H 71.1556 2.13323 -3.67931 0
M  V30 726 N 69.4707 1.49531 0.497807 0
M  V30 727 C 70.4007 1.6935 1.60757 0
M  V30 728 C 71.3817 0.542218 1.61227 0
M  V30 729 O 72.5667 0.778417 1.77917 0
M  V30 730 C 69.6967 1.76298 2.99226 0
M  V30 731 C 68.6507 2.91248 3.13622 0
M  V30 732 C 67.9767 2.83312 4.53474 0
M  V30 733 C 69.2767 4.3214 2.93346 0
M  V30 734 H 70.9707 2.62263 1.44425 0
M  V30 735 H 68.5167 1.26208 0.693367 0
M  V30 736 H 70.4697 1.88749 3.76765 0
M  V30 737 H 69.1937 0.799871 3.16654 0
M  V30 738 H 67.8527 2.78404 2.38509 0
M  V30 739 H 67.5007 1.84902 4.67782 0
M  V30 740 H 67.2007 3.60465 4.64046 0
M  V30 741 H 68.7247 2.97775 5.33069 0
M  V30 742 H 70.1387 4.45649 3.60652 0
M  V30 743 H 68.5357 5.1054 3.15387 0
M  V30 744 H 69.6057 4.46363 1.89441 0
M  V30 745 N 70.9488 -0.749086 1.3866 0
M  V30 746 C 71.9118 -1.84457 1.36045 0
M  V30 747 C 72.9118 -1.58682 0.260122 0
M  V30 748 O 74.1018 -1.66343 0.517261 0
M  V30 749 C 71.2338 -3.22008 1.11911 0
M  V30 750 H 72.4268 -1.88182 2.33512 0
M  V30 751 H 69.9798 -0.951266 1.24019 0
M  V30 752 H 70.7148 -3.2395 0.150686 0
M  V30 753 H 70.4998 -3.42111 1.91579 0
M  V30 754 H 71.9898 -4.0208 1.12788 0
M  V30 755 N 72.4269 -1.23603 -0.977757 0
M  V30 756 C 73.8429 -0.999251 -1.24447 0
M  V30 757 C 74.0429 0.298053 -1.99283 0
M  V30 758 O 73.0989 1.01681 -2.31122 0
M  V30 759 C 74.4119 -2.20784 -2.04144 0
M  V30 760 C 75.9599 -2.25303 -2.17273 0
M  V30 761 C 76.4349 -3.45755 -3.00362 0
M  V30 762 N 77.9259 -3.4601 -3.07947 0
M  V30 763 C 78.6609 -4.35868 -3.72568 0
M  V30 764 N 78.1569 -5.35966 -4.38991 0
M  V30 765 N 79.9499 -4.23605 -3.6948 0
M  V30 766 H 72.1009 -2.06986 -0.476483 0
M  V30 767 H 74.3639 -0.907801 -0.273134 0
M  V30 768 H 74.0699 -3.14945 -1.56533 0
M  V30 769 H 73.9439 -2.22085 -3.04891 0
M  V30 770 H 76.3309 -1.3168 -2.64092 0
M  V30 771 H 76.4119 -2.28033 -1.15907 0
M  V30 772 H 76.0559 -4.39687 -2.5424 0
M  V30 773 H 75.9859 -3.40266 -4.01904 0
M  V30 774 H 78.4769 -2.73588 -2.60688 0
M  V30 775 H 78.7899 -6.00783 -4.86086 0
M  V30 776 H 77.1349 -5.39863 -4.37691 0
M  V30 777 H 80.3259 -3.44647 -3.16759 0
M  V30 778 H 80.4989 -4.93836 -4.1956 0
M  V30 779 N 73.905 1.17692 -1.04816 0
M  V30 780 C 75.321 1.39863 -0.768794 0
M  V30 781 C 75.521 1.91118 0.638451 0
M  V30 782 O 74.577 2.10036 1.40146 0
M  V30 783 C 75.89 2.39274 -1.82122 0
M  V30 784 C 77.438 2.52987 -1.843 0
M  V30 785 C 77.913 3.55669 -2.88555 0
M  V30 786 N 79.404 3.63183 -2.87493 0
M  V30 787 C 80.139 4.42381 -3.64811 0
M  V30 788 N 79.635 5.25125 -4.51903 0
M  V30 789 N 81.428 4.37217 -3.53267 0
M  V30 790 H 73.579 0.82752 -1.95617 0
M  V30 791 H 75.842 0.426123 -0.846831 0
M  V30 792 H 75.548 2.08678 -2.83102 0
M  V30 793 H 75.422 3.38725 -1.65967 0
M  V30 794 H 77.809 2.82896 -0.839869 0
M  V30 795 H 77.89 1.53623 -2.04532 0
M  V30 796 H 77.534 3.26499 -3.89051 0
M  V30 797 H 77.464 4.54728 -2.65575 0
M  V30 798 H 79.955 3.04103 -2.24343 0
M  V30 799 H 80.268 5.82728 -5.07591 0
M  V30 800 H 78.613 5.24519 -4.55966 0
M  V30 801 H 81.804 3.71626 -2.84625 0
M  V30 802 H 81.977 4.98696 -4.13771 0
M  V30 803 N 75.3831 0.828654 1.34056 0
M  V30 804 C 76.6311 0.41863 1.97717 0
M  V30 805 C 76.9521 -1.02314 1.66002 0
M  V30 806 O 76.2221 -1.71119 0.953683 0
M  V30 807 H 74.8021 0.151809 0.731412 0
M  V30 808 H 77.4641 1.05936 1.63596 0
M  V30 809 H 76.5601 0.542318 3.07352 0
M  V30 810 N 76.8612 -1.46375 0.584142 0
M  V30 811 C 77.8242 -2.28784 -0.138108 0
M  V30 812 C 78.8242 -1.38471 -0.817462 0
M  V30 813 O 80.0142 -1.60833 -0.669199 0
M  V30 814 C 77.1462 -3.18892 -1.20503 0
M  V30 815 H 78.3392 -2.94117 0.586127 0
M  V30 816 H 75.8922 -1.52509 0.342171 0
M  V30 817 H 76.6272 -2.58309 -1.96079 0
M  V30 818 H 76.4122 -3.85388 -0.722384 0
M  V30 819 H 77.9022 -3.80914 -1.71155 0
M  V30 820 N 78.3393 -0.321999 -1.54275 0
M  V30 821 C 79.2493 0.553631 -2.27974 0
M  V30 822 C 80.2653 1.13054 -1.32268 0
M  V30 823 O 81.4413 1.15084 -1.6528 0
M  V30 824 C 78.5063 1.69927 -3.02201 0
M  V30 825 C 77.5673 1.15433 -4.1349 0
M  V30 826 C 76.8003 2.24537 -4.84168 0
M  V30 827 O 77.0233 3.44852 -4.5435 0
M  V30 828 O 75.9573 1.90044 -5.7111 0
M  V30 829 H 79.7833 -0.0448345 -3.03667 0
M  V30 830 H 77.3683 -0.0877418 -1.49142 0
M  V30 831 H 79.2503 2.3663 -3.48689 0
M  V30 832 H 77.9253 2.28395 -2.29385 0
M  V30 833 H 76.8323 0.452436 -3.71354 0
M  V30 834 H 78.1653 0.614805 -4.88345 0
M  V30 835 N 79.8174 1.5752 -0.0501392 0
M  V30 836 C 81.0634 1.92936 0.624798 0
M  V30 837 C 81.3964 0.928685 1.70555 0
M  V30 838 O 80.6714 -0.0454779 1.94447 0
M  V30 839 C 80.9544 3.38737 1.22185 0
M  V30 840 C 80.8074 4.49552 0.149218 0
M  V30 841 C 82.1264 3.84913 2.13378 0
M  V30 842 H 79.2454 0.701604 0.225657 0
M  V30 843 H 81.8874 1.89671 -0.111693 0
M  V30 844 H 80.0374 3.4165 1.84953 0
M  V30 845 H 81.7094 4.58768 -0.482648 0
M  V30 846 H 79.9524 4.30638 -0.522841 0
M  V30 847 H 80.6234 5.48653 0.606966 0
M  V30 848 H 83.0994 3.8387 1.60572 0
M  V30 849 H 81.9754 4.87584 2.52097 0
M  V30 850 H 82.2364 3.21611 3.03346 0
M  V30 851 N 81.2955 -0.223234 1.56011 0
M  V30 852 C 82.2255 -1.27988 1.95298 0
M  V30 853 C 83.2065 -1.48976 0.820979 0
M  V30 854 O 84.3915 -1.61188 1.08315 0
M  V30 855 C 81.5215 -2.63 2.26822 0
M  V30 856 C 80.4755 -2.56671 3.42497 0
M  V30 857 C 79.8015 -3.95697 3.59622 0
M  V30 858 C 81.1015 -2.11601 4.77517 0
M  V30 859 H 82.7955 -0.953525 2.8381 0
M  V30 860 H 80.3415 -0.457244 1.36548 0
M  V30 861 H 82.2945 -3.37077 2.52898 0
M  V30 862 H 81.0185 -2.9732 1.35161 0
M  V30 863 H 79.6775 -1.85051 3.16467 0
M  V30 864 H 79.3255 -4.27322 2.6534 0
M  V30 865 H 79.0255 -3.92345 4.37424 0
M  V30 866 H 80.5495 -4.71438 3.88044 0
M  V30 867 H 81.9635 -2.7542 5.02809 0
M  V30 868 H 80.3605 -2.19311 5.5859 0
M  V30 869 H 81.4305 -1.06824 4.72987 0
M  V30 870 N 82.7736 -1.49793 -0.48987 0
M  V30 871 C 84.0196 -1.61049 -1.24236 0
M  V30 872 C 84.3746 -0.298412 -1.90072 0
M  V30 873 O 83.6676 0.702262 -1.78266 0
M  V30 874 C 83.8616 -2.71488 -2.32441 0
M  V30 875 C 83.6906 -4.13308 -1.77218 0
M  V30 876 C 82.4606 -4.79955 -1.58023 0
M  V30 877 C 84.6586 -4.98176 -1.27772 0
M  V30 878 N 82.6406 -6.06052 -0.978465 0
M  V30 879 C 84.0116 -6.14843 -0.798 0
M  V30 880 C 86.0666 -4.84091 -1.16449 0
M  V30 881 C 84.7696 -7.18975 -0.216245 0
M  V30 882 C 86.7956 -5.88382 -0.596698 0
M  V30 883 C 86.1576 -7.04285 -0.127262 0
M  V30 884 H 82.2566 -0.643611 -0.444172 0
M  V30 885 H 84.8406 -1.86842 -0.54754 0
M  V30 886 H 83.0116 -2.47449 -2.99372 0
M  V30 887 H 84.7436 -2.72205 -2.99477 0
M  V30 888 H 81.4986 -4.36936 -1.82712 0
M  V30 889 H 81.9226 -6.73407 -0.696534 0
M  V30 890 H 86.5646 -3.94786 -1.5134 0
M  V30 891 H 84.2826 -8.0797 0.144903 0
M  V30 892 H 87.8686 -5.79545 -0.511716 0
M  V30 893 H 86.7486 -7.83606 0.30523 0
M  V30 894 N 84.2517 0.741722 -1.39055 0
M  V30 895 C 85.1617 1.88621 -1.39496 0
M  V30 896 C 86.1777 1.71557 -0.290578 0
M  V30 897 O 87.3537 1.94275 -0.530954 0
M  V30 898 C 84.4187 3.24134 -1.23037 0
M  V30 899 C 83.4797 3.5364 -2.43387 0
M  V30 900 C 82.7127 4.82687 -2.27703 0
M  V30 901 O 82.9357 5.55922 -1.27696 0
M  V30 902 O 81.8697 5.1194 -3.16545 0
M  V30 903 H 85.6957 1.91203 -2.35956 0
M  V30 904 H 83.2807 0.888625 -1.20099 0
M  V30 905 H 85.1627 4.0513 -1.15964 0
M  V30 906 H 83.8377 3.22337 -0.296691 0
M  V30 907 H 82.7447 2.72758 -2.56035 0
M  V30 908 H 84.0777 3.60209 -3.35425 0
M  V30 909 N 85.7298 1.2412 0.971189 0
M  V30 910 C 86.6618 0.988349 2.06795 0
M  V30 911 C 87.6748 -0.0409541 1.62748 0
M  V30 912 O 88.8638 0.195673 1.77424 0
M  V30 913 C 85.9638 0.469023 3.35639 0
M  V30 914 C 85.1368 1.56065 4.08611 0
M  V30 915 C 84.1958 1.04458 5.15728 0
M  V30 916 O 83.2218 1.73553 5.42096 0
M  V30 917 N 84.4238 -0.122817 5.8037 0
M  V30 918 H 87.1888 1.93265 2.29061 0
M  V30 919 H 84.7498 1.15102 1.13856 0
M  V30 920 H 86.7418 0.108613 4.04554 0
M  V30 921 H 85.3118 -0.380919 3.1027 0
M  V30 922 H 84.5318 2.09341 3.34021 0
M  V30 923 H 85.8198 2.29449 4.54126 0
M  V30 924 H 85.2178 -0.700563 5.61345 0
M  V30 925 H 83.7748 -0.424404 6.50417 0
M  V30 926 N 87.2079 -1.17134 1.05439 0
M  V30 927 C 88.1379 -2.2342 0.678649 0
M  V30 928 C 89.1189 -1.66971 -0.32476 0
M  V30 929 O 90.3039 -1.93149 -0.201802 0
M  V30 930 C 87.4339 -3.47256 0.0552099 0
M  V30 931 C 86.3879 -4.16543 0.98365 0
M  V30 932 C 85.7139 -5.34231 0.223961 0
M  V30 933 C 87.0139 -4.68495 2.3089 0
M  V30 934 H 88.7079 -2.55105 1.56722 0
M  V30 935 H 86.2539 -1.2262 0.754998 0
M  V30 936 H 88.2069 -4.20828 -0.21946 0
M  V30 937 H 86.9309 -3.14846 -0.868319 0
M  V30 938 H 85.5899 -3.44887 1.24293 0
M  V30 939 H 85.2379 -4.98071 -0.702412 0
M  V30 940 H 84.9379 -5.81527 0.842627 0
M  V30 941 H 86.4619 -6.10585 -0.0433671 0
M  V30 942 H 87.8759 -5.33691 2.09396 0
M  V30 943 H 86.2729 -5.26379 2.88176 0
M  V30 944 H 87.3429 -3.85169 2.94572 0
M  V30 945 N 88.686 -0.835752 -1.33615 0
M  V30 946 C 89.636 -0.238856 -2.26745 0
M  V30 947 C 90.62 0.604343 -1.49119 0
M  V30 948 O 91.812 0.456822 -1.71003 0
M  V30 949 C 88.941 0.587725 -3.38232 0
M  V30 950 C 88.027 -0.266811 -4.2326 0
M  V30 951 N 88.418 -1.34403 -4.87616 0
M  V30 952 C 86.716 -0.0533131 -4.45968 0
M  V30 953 C 87.417 -1.86819 -5.50884 0
M  V30 954 N 86.393 -1.17013 -5.30857 0
M  V30 955 H 90.195 -1.06266 -2.74016 0
M  V30 956 H 87.709 -0.679881 -1.47483 0
M  V30 957 H 89.706 1.03161 -4.03935 0
M  V30 958 H 88.366 1.40954 -2.9251 0
M  V30 959 H 89.377 -1.7269 -4.88261 0
M  V30 960 H 86.054 0.735312 -4.10974 0
M  V30 961 H 87.444 -2.7701 -6.1214 0
M  V30 962 N 90.1641 1.46063 -0.591896 0
M  V30 963 C 91.4411 1.95595 -0.0137119 0
M  V30 964 C 91.8211 1.5345 1.4497 0
M  V30 965 O 91.1691 0.789543 2.14426 0
M  V30 966 C 91.3791 3.48453 -0.195373 0
M  V30 967 C 92.7271 4.24546 -0.0679765 0
M  V30 968 O 93.7511 3.55982 -0.124681 0
M  V30 969 O 92.6101 5.46467 0.0600579 0
M  V30 970 H 89.7041 0.825795 0.0446279 0
M  V30 971 H 92.2501 1.56303 -0.660859 0
M  V30 972 H 91.0221 3.72045 -1.21235 0
M  V30 973 H 90.6451 3.94597 0.487775 0
M  V30 974 N 91.6422 0.330177 1.54103 0
M  V30 975 C 92.5722 -0.525353 2.27513 0
M  V30 976 C 93.5532 -1.11383 1.2856 0
M  V30 977 O 94.7382 -1.13773 1.57383 0
M  V30 978 C 91.8682 -1.6831 3.03791 0
M  V30 979 C 90.8222 -1.2236 4.10137 0
M  V30 980 C 90.1482 -2.46882 4.74293 0
M  V30 981 C 91.4482 -0.333697 5.21233 0
M  V30 982 H 93.1422 0.087013 2.99274 0
M  V30 983 H 90.6882 0.0432893 1.43935 0
M  V30 984 H 92.6412 -2.28795 3.5388 0
M  V30 985 H 91.3652 -2.32216 2.29659 0
M  V30 986 H 90.0242 -0.64165 3.60941 0
M  V30 987 H 89.6722 -3.09165 3.96769 0
M  V30 988 H 89.3722 -2.16825 5.46133 0
M  V30 989 H 90.8962 -3.08117 5.27159 0
M  V30 990 H 92.3102 -0.845013 5.67038 0
M  V30 991 H 90.7072 -0.125612 5.99969 0
M  V30 992 H 91.7772 0.633724 4.80741 0
M  V30 993 N 93.1203 -1.57491 0.0584922 0
M  V30 994 C 94.0303 -2.15448 -0.928414 0
M  V30 995 C 95.0463 -1.11416 -1.3365 0
M  V30 996 O 96.2223 -1.4362 -1.41193 0
M  V30 997 C 93.2873 -2.69393 -2.18239 0
M  V30 998 C 92.3483 -3.88249 -1.83196 0
M  V30 999 C 91.5813 -4.39613 -3.02616 0
M  V30 1000 O 91.8043 -3.90023 -4.16219 0
M  V30 1001 O 90.7383 -5.31111 -2.83204 0
M  V30 1002 H 94.5643 -3.00112 -0.465483 0
M  V30 1003 H 92.1493 -1.48499 -0.163826 0
M  V30 1004 H 94.0313 -3.04026 -2.91798 0
M  V30 1005 H 92.7063 -1.87796 -2.63656 0
M  V30 1006 H 91.6133 -3.58492 -1.06931 0
M  V30 1007 H 92.9463 -4.71098 -1.42573 0
M  V30 1008 N 94.5984 0.214957 -1.56127 0
M  V30 1009 C 95.8444 0.935325 -1.80619 0
M  V30 1010 C 96.1994 1.81706 -0.632507 0
M  V30 1011 O 95.4924 1.87931 0.373182 0
M  V30 1012 C 95.6864 1.80314 -3.0858 0
M  V30 1013 C 95.5154 1.00691 -4.38282 0
M  V30 1014 C 94.2854 0.699211 -5.00439 0
M  V30 1015 C 96.4834 0.369057 -5.12974 0
M  V30 1016 N 94.4654 -0.117734 -6.13787 0
M  V30 1017 C 95.8364 -0.310981 -6.1922 0
M  V30 1018 C 97.8914 0.282759 -4.97096 0
M  V30 1019 C 96.5944 -1.06907 -7.11311 0
M  V30 1020 C 98.6204 -0.461881 -5.89594 0
M  V30 1021 C 97.9824 -1.13044 -6.9527 0
M  V30 1022 H 94.0814 0.322307 -0.71249 0
M  V30 1023 H 96.6654 0.205649 -1.93611 0
M  V30 1024 H 94.8364 2.50458 -2.96859 0
M  V30 1025 H 96.5684 2.46148 -3.21237 0
M  V30 1026 H 93.3234 1.01884 -4.62511 0
M  V30 1027 H 93.7474 -0.515235 -6.75037 0
M  V30 1028 H 98.3894 0.785292 -4.15443 0
M  V30 1029 H 96.1074 -1.5831 -7.92442 0
M  V30 1030 H 99.6934 -0.529746 -5.79383 0
M  V30 1031 H 98.5734 -1.69742 -7.65609 0
M  V30 1032 N 96.0765 1.50051 0.48192 0
M  V30 1033 C 97.3225 1.60736 1.2366 0
M  V30 1034 C 97.6555 0.301786 1.91841 0
M  V30 1035 O 96.9305 -0.696025 1.8162 0
M  V30 1036 C 97.2135 2.78009 2.28874 0
M  V30 1037 C 97.0665 4.18416 1.65069 0
M  V30 1038 C 98.3855 2.90867 3.30279 0
M  V30 1039 H 95.5045 0.585031 0.448228 0
M  V30 1040 H 98.1465 1.82402 0.531946 0
M  V30 1041 H 96.2965 2.59667 2.88973 0
M  V30 1042 H 97.9685 4.48322 1.0865 0
M  V30 1043 H 96.2115 4.23177 0.954148 0
M  V30 1044 H 96.8825 4.96381 2.41474 0
M  V30 1045 H 99.3585 3.07623 2.80191 0
M  V30 1046 H 98.2345 3.74566 4.01238 0
M  V30 1047 H 98.4955 2.01021 3.93755 0
M  V30 1048 N 97.5546 -0.734337 1.39446 0
M  V30 1049 C 98.5026 -1.86971 1.38364 0
M  V30 1050 C 99.4966 -1.67288 0.266687 0
M  V30 1051 O 100.703 -1.74621 0.436755 0
M  V30 1052 H 97.0776 -0.615474 0.432082 0
M  V30 1053 H 99.0486 -1.85 2.34132 0
M  V30 1054 C 97.7976 -3.2466 1.24465 0
M  V30 1055 H 97.1206 -3.40402 2.09682 0
M  V30 1056 H 98.5606 -4.04292 1.27764 0
M  V30 1057 C 97.0196 -3.36867 -0.0468674 0
M  V30 1058 O 97.5496 -3.88618 -1.01681 0
M  V30 1059 N 95.7556 -2.90391 -0.110145 0
M  V30 1060 H 95.3026 -2.48466 0.679868 0
M  V30 1061 H 95.2606 -2.98939 -0.973799 0
M  V30 1062 N 99.0327 -1.24633 -0.964593 0
M  V30 1063 C 99.9957 -1.0424 -2.04124 0
M  V30 1064 C 100.996 0.00137563 -1.608 0
M  V30 1065 O 102.186 -0.239883 -1.7254 0
M  V30 1066 C 99.3177 -0.580588 -3.3592 0
M  V30 1067 H 100.511 -1.99803 -2.23649 0
M  V30 1068 H 98.0637 -1.06899 -1.14027 0
M  V30 1069 H 98.7987 0.3781 -3.22088 0
M  V30 1070 H 98.5837 -1.33398 -3.6871 0
M  V30 1071 H 100.074 -0.459034 -4.15069 0
M  V30 1072 N 100.511 1.16574 -1.06058 0
M  V30 1073 C 101.441 2.23057 -0.690488 0
M  V30 1074 C 102.422 1.67141 0.315901 0
M  V30 1075 O 103.607 1.93253 0.191556 0
M  V30 1076 C 100.737 3.47222 -0.073625 0
M  V30 1077 C 99.6908 4.16016 -1.00573 0
M  V30 1078 C 99.0168 5.34104 -0.252289 0
M  V30 1079 C 100.317 4.67264 -2.33371 0
M  V30 1080 H 102.011 2.54271 -1.58072 0
M  V30 1081 H 99.5568 1.22218 -0.76149 0
M  V30 1082 H 101.51 4.20939 0.19714 0
M  V30 1083 H 100.234 3.15302 0.85161 0
M  V30 1084 H 98.8928 3.44223 -1.2612 0
M  V30 1085 H 98.5408 4.98437 0.675988 0
M  V30 1086 H 98.2408 5.81072 -0.873455 0
M  V30 1087 H 99.7648 6.10599 0.0109857 0
M  V30 1088 H 101.179 5.32573 -2.12223 0
M  V30 1089 H 99.5758 5.24843 -2.90963 0
M  V30 1090 H 100.646 3.83602 -2.96611 0
M  V30 1091 N 101.989 0.842826 1.3317 0
M  V30 1092 C 103.237 0.439577 1.97262 0
M  V30 1093 C 103.558 -1.00548 1.67078 0
M  V30 1094 O 102.828 -1.70098 0.971779 0
M  V30 1095 H 101.408 0.159558 0.72976 0
M  V30 1096 H 104.07 1.07665 1.62463 0
M  V30 1097 H 103.166 0.574886 3.0676 0
M  V30 1098 N 103.467 -1.45747 0.599634 0
M  V30 1099 C 104.43 -2.28917 -0.113835 0
M  V30 1100 C 105.43 -1.3933 -0.802729 0
M  V30 1101 O 106.62 -1.61534 -0.652103 0
M  V30 1102 C 103.752 -3.20152 -1.17114 0
M  V30 1103 H 104.945 -2.93478 0.617289 0
M  V30 1104 H 102.498 -1.52137 0.358327 0
M  V30 1105 H 103.233 -2.60374 -1.93329 0
M  V30 1106 H 103.018 -3.86133 -0.681468 0
M  V30 1107 H 104.508 -3.82708 -1.67105 0
M  V30 1108 N 104.945 -0.338344 -1.53925 0
M  V30 1109 C 105.875 0.51328 -2.27789 0
M  V30 1110 C 106.856 1.107 -1.29149 0
M  V30 1111 O 108.041 1.12937 -1.57984 0
M  V30 1112 C 105.171 1.66697 -3.04679 0
M  V30 1113 C 104.125 1.20183 -4.1078 0
M  V30 1114 C 103.451 2.44363 -4.75595 0
M  V30 1115 C 104.751 0.30605 -5.21403 0
M  V30 1116 H 106.445 -0.102883 -2.99223 0
M  V30 1117 H 103.991 -0.0509219 -1.4391 0
M  V30 1118 H 105.944 2.26915 -3.55088 0
M  V30 1119 H 104.668 2.30995 -2.30887 0
M  V30 1120 H 103.327 0.622499 -3.61276 0
M  V30 1121 H 102.975 3.07057 -3.98403 0
M  V30 1122 H 102.675 2.13925 -5.47275 0
M  V30 1123 H 104.199 3.05317 -5.28786 0
M  V30 1124 H 105.613 0.814929 -5.67478 0
M  V30 1125 H 104.01 0.0937929 -6.00027 0
M  V30 1126 H 105.08 -0.65921 -4.80398 0
M  V30 1127 N 106.423 1.57458 -0.0668435 0
M  V30 1128 C 107.651 1.97624 0.612565 0
M  V30 1129 C 108.066 0.94502 1.63447 0
M  V30 1130 O 107.423 -0.0689276 1.8237 0
M  V30 1131 C 107.474 3.37869 1.28555 0
M  V30 1132 O 107.195 4.3704 0.304557 0
M  V30 1133 C 108.696 3.92882 2.05325 0
M  V30 1134 H 105.916 0.650045 0.166381 0
M  V30 1135 H 108.46 2.04035 -0.137782 0
M  V30 1136 H 106.615 3.3256 1.98702 0
M  V30 1137 H 107.029 5.18565 0.786779 0
M  V30 1138 H 108.503 4.93247 2.47812 0
M  V30 1139 H 108.98 3.29156 2.9078 0
M  V30 1140 H 109.586 4.01577 1.40056 0
M  V30 1141 N 107.901 -0.206675 1.56239 0
M  V30 1142 C 109.149 -0.927007 1.79586 0
M  V30 1143 C 109.47 -1.8427 0.637929 0
M  V30 1144 O 108.74 -1.92849 -0.344398 0
M  V30 1145 H 107.32 -0.345292 0.662407 0
M  V30 1146 H 109.982 -0.21496 1.93711 0
M  V30 1147 H 109.078 -1.52501 2.72305 0
M  V30 1148 N 109.379 -1.50304 -0.473955 0
M  V30 1149 C 110.327 -1.69482 -1.59307 0
M  V30 1150 C 111.321 -0.560669 -1.59853 0
M  V30 1151 O 112.527 -0.741087 -1.64036 0
M  V30 1152 H 108.902 -0.534892 -0.528578 0
M  V30 1153 H 110.873 -2.63364 -1.40293 0
M  V30 1154 C 109.622 -1.80354 -2.97267 0
M  V30 1155 H 108.945 -2.67012 -2.97564 0
M  V30 1156 H 110.385 -1.97798 -3.75036 0
M  V30 1157 C 108.844 -0.55448 -3.32306 0
M  V30 1158 O 109.374 0.307661 -4.0052 0
M  V30 1159 N 107.58 -0.409354 -2.87702 0
M  V30 1160 H 107.127 -1.11196 -2.32364 0
M  V30 1161 H 107.085 0.425223 -3.11511 0
M  V30 1162 N 110.857 0.726932 -1.39834 0
M  V30 1163 C 111.79 1.8501 -1.33592 0
M  V30 1164 C 112.768 1.61262 -0.208191 0
M  V30 1165 O 113.952 1.84422 -0.389981 0
M  V30 1166 C 111.079 3.21143 -1.07633 0
M  V30 1167 C 110.125 3.63737 -2.22705 0
M  V30 1168 S 110.958 3.72167 -3.85035 0
M  V30 1169 C 112.114 5.11077 -3.61318 0
M  V30 1170 H 112.347 1.90022 -2.28646 0
M  V30 1171 H 109.88 0.892595 -1.25985 0
M  V30 1172 H 111.838 3.99747 -0.933415 0
M  V30 1173 H 110.499 3.13776 -0.142526 0
M  V30 1174 H 109.692 4.62551 -2.00155 0
M  V30 1175 H 109.294 2.9236 -2.33242 0
M  V30 1176 H 111.586 5.97656 -3.19083 0
M  V30 1177 H 112.529 5.38658 -4.59623 0
M  V30 1178 H 112.937 4.81135 -2.95245 0
M  V30 1179 N 112.336 1.25143 0.95797 0
M  V30 1180 C 113.299 1.05321 2.03569 0
M  V30 1181 C 114.299 0.007152 1.60798 0
M  V30 1182 O 115.489 0.24903 1.72411 0
M  V30 1183 C 112.621 0.598394 3.35607 0
M  V30 1184 H 113.814 2.00986 2.22586 0
M  V30 1185 H 111.367 1.07502 1.13459 0
M  V30 1186 H 112.102 -0.361014 3.22284 0
M  V30 1187 H 111.887 1.35351 3.67998 0
M  V30 1188 H 113.377 0.48104 4.1482 0
M  V30 1189 N 113.814 -1.1601 1.06675 0
M  V30 1190 C 115.06 -1.86909 0.786945 0
M  V30 1191 C 115.393 -1.81717 -0.685018 0
M  V30 1192 O 114.668 -1.23551 -1.50218 0
M  V30 1193 C 114.951 -3.36313 1.28707 0
M  V30 1194 C 114.804 -3.50175 2.82308 0
M  V30 1195 C 116.123 -4.3084 0.898071 0
M  V30 1196 H 113.242 -0.678677 0.287343 0
M  V30 1197 H 115.884 -1.36336 1.32334 0
M  V30 1198 H 114.034 -3.79513 0.830768 0
M  V30 1199 H 115.706 -3.15886 3.36175 0
M  V30 1200 H 113.949 -2.91959 3.20847 0
M  V30 1201 H 114.62 -4.55116 3.12368 0
M  V30 1202 H 117.096 -3.95561 1.29114 0
M  V30 1203 H 115.972 -5.33876 1.27543 0
M  V30 1204 H 116.233 -4.41662 -0.196651 0
M  V30 1205 N 115.292 -0.849877 -1.32721 0
M  V30 1206 C 116.224 -0.248332 -2.27851 0
M  V30 1207 C 117.237 0.577218 -1.52224 0
M  V30 1208 O 118.426 0.402489 -1.73903 0
M  V30 1209 C 115.526 0.668107 -3.32249 0
M  V30 1210 C 114.699 -0.120534 -4.37234 0
M  V30 1211 C 113.758 0.720932 -5.21238 0
M  V30 1212 O 112.784 0.156166 -5.68986 0
M  V30 1213 N 113.986 2.03647 -5.43607 0
M  V30 1214 H 116.751 -1.06575 -2.80111 0
M  V30 1215 H 114.312 -0.709395 -1.45531 0
M  V30 1216 H 116.304 1.23627 -3.85355 0
M  V30 1217 H 114.874 1.38621 -2.80184 0
M  V30 1218 H 114.094 -0.870108 -3.84477 0
M  V30 1219 H 115.382 -0.662406 -5.0447 0
M  V30 1220 H 114.78 2.51871 -5.06535 0
M  V30 1221 H 113.337 2.55287 -5.99727 0
M  V30 1222 N 116.77 1.45427 -0.607355 0
M  V30 1223 C 117.702 2.2871 0.149752 0
M  V30 1224 C 118.715 1.39937 0.831958 0
M  V30 1225 O 119.904 1.64313 0.697385 0
M  V30 1226 C 117.004 3.15673 1.23304 0
M  V30 1227 C 116.177 4.32722 0.637996 0
M  V30 1228 C 115.236 5.00895 1.61215 0
M  V30 1229 O 114.262 5.57697 1.13854 0
M  V30 1230 N 115.464 5.00159 2.94655 0
M  V30 1231 H 118.229 2.94328 -0.564882 0
M  V30 1232 H 115.79 1.55612 -0.446823 0
M  V30 1233 H 117.782 3.58144 1.88454 0
M  V30 1234 H 116.352 2.51965 1.8502 0
M  V30 1235 H 115.572 3.93734 -0.191572 0
M  V30 1236 H 116.86 5.08321 0.220665 0
M  V30 1237 H 116.258 4.553 3.35735 0
M  V30 1238 H 114.815 5.46495 3.55228 0
M  V30 1239 N 118.248 0.346503 1.53744 0
M  V30 1240 C 119.494 -0.249473 2.0126 0
M  V30 1241 C 119.827 -1.49965 1.23386 0
M  V30 1242 O 119.102 -1.91811 0.32229 0
M  V30 1243 C 119.385 -0.560643 3.55709 0
M  V30 1244 C 119.238 0.701836 4.44291 0
M  V30 1245 C 120.557 -1.36905 4.18264 0
M  V30 1246 H 117.676 -0.0891987 0.731582 0
M  V30 1247 H 120.318 0.467624 1.84156 0
M  V30 1248 H 118.468 -1.17156 3.70414 0
M  V30 1249 H 120.14 1.33974 4.41417 0
M  V30 1250 H 118.383 1.32612 4.13033 0
M  V30 1251 H 119.054 0.43933 5.50249 0
M  V30 1252 H 121.53 -0.852448 4.07275 0
M  V30 1253 H 120.406 -1.55553 5.26398 0
M  V30 1254 H 120.667 -2.37203 3.73078 0
M  V30 1255 N 119.726 -1.57421 0.075193 0
M  V30 1256 C 121.142 -1.57099 -0.281444 0
M  V30 1257 C 121.342 -1.08486 -1.69803 0
M  V30 1258 O 120.398 -0.752279 -2.41033 0
M  V30 1259 C 121.711 -3.00571 -0.0880041 0
M  V30 1260 C 123.259 -3.12605 -0.157281 0
M  V30 1261 C 123.734 -4.57999 0.0079207 0
M  V30 1262 N 125.225 -4.63176 -0.0475725 0
M  V30 1263 C 125.96 -5.73373 0.0557876 0
M  V30 1264 N 125.456 -6.92473 0.21286 0
M  V30 1265 N 127.249 -5.621 -0.00152098 0
M  V30 1266 H 119.4 -1.87335 1.00098 0
M  V30 1267 H 121.663 -0.86377 0.390646 0
M  V30 1268 H 121.369 -3.40262 0.889629 0
M  V30 1269 H 121.243 -3.67754 -0.838875 0
M  V30 1270 H 123.63 -2.72798 -1.1254 0
M  V30 1271 H 123.711 -2.48053 0.62475 0
M  V30 1272 H 123.355 -4.98496 0.972824 0
M  V30 1273 H 123.285 -5.20586 -0.793556 0
M  V30 1274 H 125.776 -3.7753 -0.167244 0
M  V30 1275 H 126.089 -7.72279 0.283781 0
M  V30 1276 H 124.434 -6.94556 0.248267 0
M  V30 1277 H 127.625 -4.67938 -0.122958 0
M  V30 1278 H 127.798 -6.47948 0.0824844 0
M  V30 1279 N 121.204 0.198386 -1.56346 0
M  V30 1280 C 122.167 1.22952 -1.93431 0
M  V30 1281 C 123.167 1.38611 -0.815092 0
M  V30 1282 O 124.357 1.36479 -1.08255 0
M  V30 1283 C 121.489 2.59946 -2.20546 0
M  V30 1284 H 122.682 0.912626 -2.85677 0
M  V30 1285 H 120.235 0.43977 -1.49986 0
M  V30 1286 H 120.97 2.96696 -1.30927 0
M  V30 1287 H 120.755 2.49953 -3.02102 0
M  V30 1288 H 122.245 3.3431 -2.50253 0
M  V30 1289 N 122.682 1.50554 0.465978 0
M  V30 1290 C 123.93 1.61479 1.21528 0
M  V30 1291 C 124.251 0.319596 1.92363 0
M  V30 1292 O 123.521 -0.663194 1.84333 0
M  V30 1293 H 122.101 0.595055 0.451573 0
M  V30 1294 H 124.763 1.87355 0.53704 0
M  V30 1295 H 123.859 2.42846 1.96042 0
M  V30 1296 N 124.16 -0.719506 1.40217 0
M  V30 1297 C 125.09 -1.8465 1.42922 0
M  V30 1298 C 126.071 -1.67599 0.29062 0
M  V30 1299 O 127.256 -1.87688 0.498677 0
M  V30 1300 C 124.386 -3.22565 1.28722 0
M  V30 1301 C 123.34 -3.54281 2.40144 0
M  V30 1302 C 122.666 -4.91298 2.11023 0
M  V30 1303 C 123.966 -3.55676 3.82481 0
M  V30 1304 H 125.66 -1.82644 2.37237 0
M  V30 1305 H 123.206 -0.877305 1.1419 0
M  V30 1306 H 125.159 -4.01095 1.29232 0
M  V30 1307 H 123.883 -3.25137 0.308811 0
M  V30 1308 H 122.542 -2.78088 2.38877 0
M  V30 1309 H 122.19 -4.90468 1.11582 0
M  V30 1310 H 121.89 -5.13485 2.8567 0
M  V30 1311 H 123.414 -5.72166 2.13209 0
M  V30 1312 H 124.828 -4.24254 3.85592 0
M  V30 1313 H 123.225 -3.89388 4.56614 0
M  V30 1314 H 124.295 -2.55144 4.12346 0
M  V30 1315 N 125.638 -1.25649 -0.95132 0
M  V30 1316 C 126.585 -1.06323 -2.04851 0
M  V30 1317 C 127.555 0.0286491 -1.66075 0
M  V30 1318 O 128.74 -0.12917 -1.90362 0
M  V30 1319 C 125.88 -0.691529 -3.381 0
M  V30 1320 C 124.993 -1.85861 -3.89974 0
M  V30 1321 C 124.128 -1.43096 -5.11563 0
M  V30 1322 C 123.167 -2.56696 -5.55674 0
M  V30 1323 N 122.304 -2.14684 -6.68472 0
M  V30 1324 H 127.144 -2.00222 -2.20715 0
M  V30 1325 H 124.681 -0.997027 -1.08156 0
M  V30 1326 H 126.639 -0.456963 -4.1469 0
M  V30 1327 H 125.269 0.210474 -3.22113 0
M  V30 1328 H 124.321 -2.20639 -3.09875 0
M  V30 1329 H 125.633 -2.71161 -4.18657 0
M  V30 1330 H 124.787 -1.15624 -5.9558 0
M  V30 1331 H 123.526 -0.548722 -4.84603 0
M  V30 1332 H 122.531 -2.84909 -4.7022 0
M  V30 1333 H 123.756 -3.45503 -5.8464 0
M  V30 1334 H 121.702 -1.28881 -6.43215 0
M  V30 1335 H 121.619 -2.9353 -6.96689 0
M  V30 1336 H 122.887 -1.90397 -7.5589 0
M  V30 1337 N 127.117 1.15442 -1.07289 0
M  V30 1338 C 128.08 2.18358 -0.696591 0
M  V30 1339 C 129.08 1.58637 0.262837 0
M  V30 1340 O 130.27 1.74145 0.0438809 0
M  V30 1341 C 127.402 3.4089 -0.0266151 0
M  V30 1342 H 128.595 2.53162 -1.60776 0
M  V30 1343 H 126.148 1.29893 -0.869342 0
M  V30 1344 H 126.883 3.11653 0.896822 0
M  V30 1345 H 126.668 3.85495 -0.716657 0
M  V30 1346 H 128.158 4.17009 0.222028 0
M  V30 1347 N 128.595 0.856903 1.32268 0
M  V30 1348 C 129.844 0.457599 1.96441 0
M  V30 1349 C 130.157 -0.992426 1.68553 0
M  V30 1350 O 131.363 -1.49727 2.26482 0
M  V30 1351 C 129.819 0.767358 3.51624 0
M  V30 1352 C 129.427 2.23326 3.88367 0
M  V30 1353 C 131.171 0.435887 4.22256 0
M  V30 1354 C 129.078 2.48613 5.36606 0
M  V30 1355 H 128.008 0.167387 0.735185 0
M  V30 1356 H 130.659 1.048 1.5063 0
M  V30 1357 H 129.041 0.106367 3.95857 0
M  V30 1358 H 130.215 2.93623 3.55137 0
M  V30 1359 H 128.53 2.52948 3.30766 0
M  V30 1360 H 131.127 0.602202 5.31298 0
M  V30 1361 H 131.47 -0.622672 4.11617 0
M  V30 1362 H 132.003 1.05286 3.83614 0
M  V30 1363 H 128.742 3.53101 5.52268 0
M  V30 1364 H 128.262 1.82896 5.71235 0
M  V30 1365 H 129.941 2.32676 6.03714 0
M  V30 1366 N 130.073 -1.45103 0.615059 0
M  V30 1367 C 131.303 -2.06254 0.119596 0
M  V30 1368 C 131.711 -1.4591 -1.20445 0
M  V30 1369 O 131.054 -0.570384 -1.7462 0
M  V30 1370 C 131.116 -3.59396 -0.0865591 0
M  V30 1371 C 130.78 -4.42116 1.15683 0
M  V30 1372 C 131.777 -4.7662 2.07676 0
M  V30 1373 C 129.462 -4.82749 1.38775 0
M  V30 1374 C 131.456 -5.50622 3.21082 0
M  V30 1375 C 129.143 -5.56504 2.52481 0
M  V30 1376 C 130.141 -5.90358 3.43463 0
M  V30 1377 O 129.829 -6.62615 4.55189 0
M  V30 1378 H 129.561 -0.672423 0.0694512 0
M  V30 1379 H 132.115 -1.87219 0.844885 0
M  V30 1380 H 130.345 -3.76859 -0.866823 0
M  V30 1381 H 132.034 -4.02365 -0.534555 0
M  V30 1382 H 132.8 -4.4578 1.91063 0
M  V30 1383 H 128.679 -4.55829 0.688545 0
M  V30 1384 H 132.223 -5.76965 3.92119 0
M  V30 1385 H 128.12 -5.86759 2.69043 0
M  V30 1386 H 128.888 -6.81071 4.53966 0
M  V30 1387 N 131.551 -0.354651 -1.53558 0
M  V30 1388 C 132.481 0.489091 -2.2832 0
M  V30 1389 C 133.462 1.09324 -1.30316 0
M  V30 1390 O 134.647 1.11255 -1.59173 0
M  V30 1391 C 131.777 1.63456 -3.0643 0
M  V30 1392 C 130.731 1.1582 -4.12031 0
M  V30 1393 C 130.057 2.39305 -4.7816 0
M  V30 1394 C 131.357 0.250731 -5.21698 0
M  V30 1395 H 133.051 -0.134614 -2.99097 0
M  V30 1396 H 130.597 -0.0661826 -1.43848 0
M  V30 1397 H 132.55 2.23136 -3.57475 0
M  V30 1398 H 131.274 2.28533 -2.33325 0
M  V30 1399 H 129.933 0.584146 -3.61916 0
M  V30 1400 H 129.581 3.02814 -4.01637 0
M  V30 1401 H 129.281 2.08109 -5.49513 0
M  V30 1402 H 130.805 2.99691 -5.31994 0
M  V30 1403 H 132.219 0.754695 -5.68311 0
M  V30 1404 H 130.616 0.0301468 -6.00092 0
M  V30 1405 H 131.686 -0.710125 -4.79672 0
M  V30 1406 N 133.029 1.57378 -0.0835403 0
M  V30 1407 C 134.254 1.98682 0.594987 0
M  V30 1408 C 134.679 0.961969 1.61641 0
M  V30 1409 O 134.037 -0.0709989 1.81161 0
M  V30 1410 C 134.085 3.38988 1.2296 0
M  V30 1411 O 133.189 3.39208 2.34546 0
M  V30 1412 H 132.53 0.646368 0.152002 0
M  V30 1413 H 135.06 2.03961 -0.161533 0
M  V30 1414 H 135.07 3.76431 1.57366 0
M  V30 1415 H 133.745 4.13107 0.481228 0
M  V30 1416 H 132.322 3.13548 2.01846 0
M  V30 1417 N 134.507 -0.190092 1.56449 0
M  V30 1418 C 135.755 -0.907908 1.80559 0
M  V30 1419 C 136.076 -1.83583 0.657438 0
M  V30 1420 O 135.346 -1.93203 -0.323924 0
M  V30 1421 H 133.926 -0.338247 0.666032 0
M  V30 1422 H 136.588 -0.194403 1.93928 0
M  V30 1423 H 135.684 -1.49604 2.73907 0
M  V30 1424 N 135.985 -1.50799 -0.457987 0
M  V30 1425 C 137.231 -1.63648 -1.20792 0
M  V30 1426 C 137.586 -0.338662 -1.89396 0
M  V30 1427 O 136.879 0.664291 -1.79716 0
M  V30 1428 C 137.073 -2.76358 -2.2663 0
M  V30 1429 C 136.902 -4.16974 -1.68411 0
M  V30 1430 C 135.672 -4.83199 -1.47807 0
M  V30 1431 C 137.87 -5.00774 -1.17176 0
M  V30 1432 N 135.852 -6.07991 -0.849692 0
M  V30 1433 C 137.223 -6.16397 -0.667403 0
M  V30 1434 C 139.278 -4.86452 -1.06155 0
M  V30 1435 C 137.981 -7.19272 -0.0636908 0
M  V30 1436 C 140.007 -5.89515 -0.471759 0
M  V30 1437 C 139.369 -7.04397 0.0221557 0
M  V30 1438 H 135.468 -0.652888 -0.43042 0
M  V30 1439 H 138.052 -1.87962 -0.507785 0
M  V30 1440 H 136.223 -2.53744 -2.94056 0
M  V30 1441 H 137.955 -2.78496 -2.93636 0
M  V30 1442 H 134.71 -4.40714 -1.73403 0
M  V30 1443 H 135.134 -6.74733 -0.553537 0
M  V30 1444 H 139.776 -3.97907 -1.42932 0
M  V30 1445 H 137.494 -8.07481 0.316253 0
M  V30 1446 H 141.08 -5.805 -0.388671 0
M  V30 1447 H 139.96 -7.82782 0.471375 0
M  V30 1448 N 137.463 0.71206 -1.40597 0
M  V30 1449 C 138.395 1.83704 -1.37061 0
M  V30 1450 C 139.408 1.60453 -0.275426 0
M  V30 1451 O 140.597 1.70262 -0.53602 0
M  V30 1452 C 137.697 3.20172 -1.11099 0
M  V30 1453 C 136.87 3.7059 -2.3234 0
M  V30 1454 C 135.929 4.85681 -2.02485 0
M  V30 1455 O 134.955 4.9815 -2.75382 0
M  V30 1456 N 136.157 5.71735 -1.00497 0
M  V30 1457 H 138.922 1.87235 -2.34016 0
M  V30 1458 H 136.483 0.893739 -1.34996 0
M  V30 1459 H 138.475 3.94768 -0.891064 0
M  V30 1460 H 137.045 3.11767 -0.227989 0
M  V30 1461 H 136.265 2.87085 -2.7014 0
M  V30 1462 H 137.553 4.01011 -3.13157 0
M  V30 1463 H 136.951 5.64275 -0.401298 0
M  V30 1464 H 135.508 6.463 -0.844942 0
M  V30 1465 N 138.941 1.26152 0.944643 0
M  V30 1466 C 140.187 1.11657 1.69294 0
M  V30 1467 C 140.52 -0.339926 1.91202 0
M  V30 1468 O 139.795 -1.24994 1.49019 0
M  V30 1469 C 140.078 1.88236 3.06984 0
M  V30 1470 C 139.931 3.41772 2.92424 0
M  V30 1471 C 141.25 1.67343 4.07043 0
M  V30 1472 H 138.369 0.407004 0.614424 0
M  V30 1473 H 141.011 1.55106 1.09737 0
M  V30 1474 H 139.161 1.51308 3.57824 0
M  V30 1475 H 140.833 3.88433 2.48832 0
M  V30 1476 H 139.076 3.68974 2.28124 0
M  V30 1477 H 139.747 3.90579 3.90067 0
M  V30 1478 H 142.223 1.99509 3.65151 0
M  V30 1479 H 141.099 2.23346 5.01406 0
M  V30 1480 H 141.36 0.617158 4.37771 0
M  V30 1481 N 140.419 -1.14872 1.07899 0
M  V30 1482 C 141.382 -2.17986 0.708161 0
M  V30 1483 C 142.382 -1.58775 -0.25442 0
M  V30 1484 O 143.572 -1.74166 -0.034645 0
M  V30 1485 C 140.704 -3.40871 0.0446929 0
M  V30 1486 H 141.897 -2.52306 1.62116 0
M  V30 1487 H 139.45 -1.2943 0.876218 0
M  V30 1488 H 140.185 -3.12124 -0.880281 0
M  V30 1489 H 139.97 -3.8511 0.737091 0
M  V30 1490 H 141.46 -4.17121 -0.19991 0
M  V30 1491 N 141.898 -0.863906 -1.31812 0
M  V30 1492 C 143.146 -0.470904 -1.96537 0
M  V30 1493 C 143.467 0.978771 -1.68657 0
M  V30 1494 O 142.737 1.6853 -0.998717 0
M  V30 1495 H 141.317 -0.171148 -0.72713 0
M  V30 1496 H 143.979 -1.10236 -1.60729 0
M  V30 1497 H 143.075 -0.623616 -3.05806 0
M  V30 1498 N 143.376 1.44774 -0.622745 0
M  V30 1499 C 144.653 1.95522 -0.0551974 0
M  V30 1500 C 145.033 1.5649 1.41683 0
M  V30 1501 O 144.381 0.834848 2.12703 0
M  V30 1502 C 144.591 3.4796 -0.269242 0
M  V30 1503 C 145.939 4.24306 -0.158014 0
M  V30 1504 O 146.963 3.55637 -0.200162 0
M  V30 1505 O 145.822 5.46471 -0.0558693 0
M  V30 1506 H 142.916 0.826556 0.0271015 0
M  V30 1507 H 145.462 1.54866 -0.693864 0
M  V30 1508 H 144.234 3.6939 -1.29099 0
M  V30 1509 H 143.857 3.95543 0.403966 0
M  V30 1510 N 144.854 0.36279 1.53368 0
M  V30 1511 C 145.817 -0.472679 2.24273 0
M  V30 1512 C 146.817 -1.012 1.24961 0
M  V30 1513 O 148.007 -0.898194 1.49259 0
M  V30 1514 C 145.139 -1.66039 2.97731 0
M  V30 1515 H 146.332 0.14773 2.99536 0
M  V30 1516 H 143.885 0.114434 1.55881 0
M  V30 1517 H 144.62 -2.31896 2.26704 0
M  V30 1518 H 144.405 -1.28066 3.70596 0
M  V30 1519 H 145.895 -2.25252 3.51641 0
M  V30 1520 N 146.332 -1.57332 0.0918853 0
M  V30 1521 C 147.28 -2.15075 -0.885747 0
M  V30 1522 C 148.274 -1.09277 -1.29441 0
M  V30 1523 O 149.48 -1.27627 -1.26931 0
M  V30 1524 H 145.855 -0.687966 -0.303656 0
M  V30 1525 H 147.826 -2.96047 -0.373995 0
M  V30 1526 C 146.575 -2.74325 -2.13638 0
M  V30 1527 H 145.898 -3.55418 -1.8308 0
M  V30 1528 H 147.338 -3.183 -2.80109 0
M  V30 1529 C 145.797 -1.70062 -2.90827 0
M  V30 1530 O 146.327 -1.13763 -3.85254 0
M  V30 1531 N 144.533 -1.40628 -2.54307 0
M  V30 1532 H 144.08 -1.866 -1.7759 0
M  V30 1533 H 144.038 -0.711043 -3.06254 0
M  V30 1534 N 147.81 0.181792 -1.56548 0
M  V30 1535 C 148.74 1.22765 -1.98623 0
M  V30 1536 C 149.721 1.46747 -0.860189 0
M  V30 1537 O 150.906 1.58259 -1.12551 0
M  V30 1538 C 148.036 2.56894 -2.33715 0
M  V30 1539 C 146.99 2.475 -3.49182 0
M  V30 1540 C 146.316 3.86023 -3.69986 0
M  V30 1541 C 147.616 1.98866 -4.82959 0
M  V30 1542 H 149.31 0.877942 -2.86239 0
M  V30 1543 H 146.856 0.42088 -1.37712 0
M  V30 1544 H 148.809 3.30253 -2.61746 0
M  V30 1545 H 147.533 2.93632 -1.42997 0
M  V30 1546 H 146.192 1.76596 -3.21262 0
M  V30 1547 H 145.84 4.20136 -2.76576 0
M  V30 1548 H 145.54 3.80609 -4.47672 0
M  V30 1549 H 147.064 4.60984 -4.00407 0
M  V30 1550 H 148.478 2.61992 -5.09934 0
M  V30 1551 H 146.875 2.04424 -5.64208 0
M  V30 1552 H 147.945 0.942465 -4.75653 0
M  V30 1553 N 149.288 1.51039 0.449983 0
M  V30 1554 C 150.513 1.6715 1.22783 0
M  V30 1555 C 150.938 0.363081 1.84563 0
M  V30 1556 O 150.296 -0.675433 1.68249 0
M  V30 1557 C 150.344 2.77985 2.29689 0
M  V30 1558 O 149.448 2.40707 3.34864 0
M  V30 1559 H 148.789 0.557746 0.360299 0
M  V30 1560 H 151.319 1.97535 0.533005 0
M  V30 1561 H 151.329 3.01693 2.74673 0
M  V30 1562 H 150.004 3.72935 1.84098 0
M  V30 1563 H 148.581 2.27523 2.95445 0
M  V30 1564 N 150.766 -0.704594 1.40972 0
M  V30 1565 C 152.014 -1.46169 1.39568 0
M  V30 1566 C 152.335 -1.95 0.00253745 0
M  V30 1567 O 151.605 -1.71095 -0.954114 0
M  V30 1568 H 150.185 -0.542326 0.513704 0
M  V30 1569 H 152.847 -0.834553 1.76128 0
M  V30 1570 H 151.943 -2.32922 2.07735 0
M  V30 1571 N 152.244 -1.26651 -0.937939 0
M  V30 1572 C 153.194 -1.05156 -2.02302 0
M  V30 1573 C 154.178 0.0171233 -1.60891 0
M  V30 1574 O 155.37 -0.200213 -1.75864 0
M  V30 1575 C 152.499 -0.689962 -3.36295 0
M  V30 1576 C 151.585 -1.79626 -3.84181 0
M  V30 1577 N 151.976 -3.03422 -4.04684 0
M  V30 1578 C 150.274 -1.6806 -4.13124 0
M  V30 1579 C 150.975 -3.75345 -4.444 0
M  V30 1580 N 149.951 -3.03051 -4.51288 0
M  V30 1581 H 153.753 -1.99117 -2.1617 0
M  V30 1582 H 151.267 -1.17216 -1.12402 0
M  V30 1583 H 153.264 -0.517112 -4.13681 0
M  V30 1584 H 151.924 0.242139 -3.23796 0
M  V30 1585 H 152.935 -3.39293 -3.91281 0
M  V30 1586 H 149.612 -0.818629 -4.09396 0
M  V30 1587 H 151.002 -4.81691 -4.68427 0
M  V30 1588 N 153.722 1.14298 -1.08507 0
M  V30 1589 C 154.95 1.89219 -0.836876 0
M  V30 1590 C 155.365 1.78638 0.611054 0
M  V30 1591 O 154.722 1.14643 1.41998 0
M  V30 1592 C 154.773 3.39158 -1.25116 0
M  V30 1593 O 154.494 3.49449 -2.64229 0
M  V30 1594 C 155.995 4.31073 -1.03398 0
M  V30 1595 H 153.215 0.599328 -0.301739 0
M  V30 1596 H 155.759 1.44746 -1.44461 0
M  V30 1597 H 153.914 3.81251 -0.687514 0
M  V30 1598 H 154.328 4.42589 -2.81452 0
M  V30 1599 H 155.802 5.34646 -1.37323 0
M  V30 1600 H 156.279 4.3919 0.0289259 0
M  V30 1601 H 156.885 3.94738 -1.58311 0
M  V30 1602 N 155.201 0.870884 1.31352 0
M  V30 1603 C 156.431 0.496049 2.00557 0
M  V30 1604 C 156.839 -0.916241 1.65534 0
M  V30 1605 O 156.182 -1.61188 0.881134 0
M  V30 1606 C 156.244 0.574418 3.54881 0
M  V30 1607 C 155.908 1.94849 4.1338 0
M  V30 1608 C 156.905 2.91611 4.30417 0
M  V30 1609 C 154.59 2.25005 4.49086 0
M  V30 1610 C 156.584 4.16672 4.82352 0
M  V30 1611 C 154.271 3.50315 5.00722 0
M  V30 1612 C 155.269 4.45964 5.17306 0
M  V30 1613 O 154.957 5.69052 5.67833 0
M  V30 1614 H 154.689 0.191664 0.64826 0
M  V30 1615 H 157.243 1.17409 1.68536 0
M  V30 1616 H 155.473 -0.160549 3.86367 0
M  V30 1617 H 157.162 0.212879 4.05341 0
M  V30 1618 H 157.928 2.69622 4.03149 0
M  V30 1619 H 153.807 1.51332 4.35453 0
M  V30 1620 H 157.351 4.91336 4.95211 0
M  V30 1621 H 153.248 3.72147 5.27424 0
M  V30 1622 H 154.016 5.71236 5.86201 0
M  V30 1623 N 156.679 -1.44442 0.630414 0
M  V30 1624 C 158.09 -1.85434 0.217063 0
M  V30 1625 C 158.441 -1.52748 -1.23136 0
M  V30 1626 O 157.566 -0.965205 -1.93682 0
M  V30 1627 C 158.161 -3.36581 0.387168 0
M  V30 1628 C 156.72 -3.76389 0.0283297 0
M  V30 1629 C 155.867 -2.68296 0.700889 0
M  V30 1630 H 158.818 -1.34919 0.83562 0
M  V30 1631 H 158.839 -3.78657 -0.374086 0
M  V30 1632 H 158.351 -3.60339 1.44144 0
M  V30 1633 H 156.452 -3.58246 -1.02423 0
M  V30 1634 H 156.565 -4.77095 0.437892 0
M  V30 1635 H 154.929 -2.54335 0.136267 0
M  V30 1636 H 155.712 -2.94887 1.75774 0
M  V30 1637 N 158.157 -0.370918 -1.53173 0
M  V30 1638 C 159.434 0.273754 -1.93675 0
M  V30 1639 C 159.814 1.65938 -1.3049 0
M  V30 1640 O 159.162 2.23698 -0.465999 0
M  V30 1641 C 159.372 0.318602 -3.47543 0
M  V30 1642 C 160.72 0.556392 -4.20939 0
M  V30 1643 O 161.744 0.399587 -3.53952 0
M  V30 1644 O 160.603 0.862133 -5.39657 0
M  V30 1645 H 157.697 0.165448 -0.810281 0
M  V30 1646 H 160.243 -0.42409 -1.64315 0
M  V30 1647 H 159.015 -0.652687 -3.85818 0
M  V30 1648 H 158.638 1.06212 -3.83151 0
M  V30 1649 N 159.635 1.57281 -0.100228 0
M  V30 1650 C 160.567 2.11342 0.886972 0
M  V30 1651 C 161.58 1.05182 1.24261 0
M  V30 1652 O 162.769 1.32613 1.19483 0
M  V30 1653 C 159.869 2.5825 2.19454 0
M  V30 1654 C 159.042 3.88302 2.01346 0
M  V30 1655 C 158.101 4.21004 3.15661 0
M  V30 1656 O 157.127 4.9014 2.89398 0
M  V30 1657 N 158.329 3.76818 4.41575 0
M  V30 1658 H 161.094 2.96668 0.425216 0
M  V30 1659 H 158.655 1.61678 0.0847334 0
M  V30 1660 H 160.647 2.7717 2.94888 0
M  V30 1661 H 159.217 1.77907 2.57037 0
M  V30 1662 H 158.437 3.7848 1.10212 0
M  V30 1663 H 159.725 4.73375 1.8653 0
M  V30 1664 H 159.123 3.2102 4.65792 0
M  V30 1665 H 157.68 4.00882 5.13942 0
M  V30 1666 N 161.113 -0.173488 1.56642 0
M  V30 1667 C 162.338 -0.910149 1.86363 0
M  V30 1668 C 162.763 -1.75132 0.686318 0
M  V30 1669 O 162.121 -1.77595 -0.364643 0
M  V30 1670 C 162.169 -1.76447 3.14482 0
M  V30 1671 O 161.273 -2.86584 2.96553 0
M  V30 1672 H 160.614 -0.255086 0.613047 0
M  V30 1673 H 163.144 -0.172283 2.03873 0
M  V30 1674 H 163.154 -2.16483 3.45831 0
M  V30 1675 H 161.829 -1.14658 3.99783 0
M  V30 1676 H 160.406 -2.50146 2.76553 0
M  V30 1677 N 162.591 -1.51276 -0.441967 0
M  V30 1678 C 163.521 -1.752 -1.54361 0
M  V30 1679 C 164.502 -0.601682 -1.59103 0
M  V30 1680 O 165.687 -0.843913 -1.74905 0
M  V30 1681 C 162.817 -1.87282 -2.92477 0
M  V30 1682 C 161.771 -3.02687 -3.02596 0
M  V30 1683 C 161.097 -2.99947 -4.42647 0
M  V30 1684 C 162.397 -4.4273 -2.77106 0
M  V30 1685 H 164.091 -2.67442 -1.34592 0
M  V30 1686 H 161.637 -1.28694 -0.646048 0
M  V30 1687 H 163.59 -2.02602 -3.695 0
M  V30 1688 H 162.314 -0.916844 -3.13467 0
M  V30 1689 H 160.973 -2.87065 -2.28012 0
M  V30 1690 H 160.621 -2.02136 -4.60597 0
M  V30 1691 H 160.321 -3.77439 -4.50348 0
M  V30 1692 H 161.845 -3.17354 -5.2165 0
M  V30 1693 H 163.259 -4.58727 -3.43864 0
M  V30 1694 H 161.656 -5.21893 -2.96222 0
M  V30 1695 H 162.726 -4.53087 -1.72744 0
M  V30 1696 N 164.069 0.697108 -1.41344 0
M  V30 1697 C 165.299 1.48377 -1.43763 0
M  V30 1698 C 165.707 1.89156 -0.0408726 0
M  V30 1699 O 165.05 1.57239 0.949812 0
M  V30 1700 C 165.112 2.7781 -2.2817 0
M  V30 1701 C 164.776 2.59244 -3.76353 0
M  V30 1702 C 165.773 2.25292 -4.68551 0
M  V30 1703 C 163.458 2.74933 -4.20378 0
M  V30 1704 C 165.452 2.07264 -6.02761 0
M  V30 1705 C 163.139 2.56521 -5.54653 0
M  V30 1706 C 164.137 2.22737 -6.4566 0
M  V30 1707 O 163.825 2.04485 -7.77458 0
M  V30 1708 H 163.557 0.463842 -0.491759 0
M  V30 1709 H 166.111 0.865934 -1.86255 0
M  V30 1710 H 164.341 3.41995 -1.8049 0
M  V30 1711 H 166.03 3.39608 -2.22309 0
M  V30 1712 H 166.796 2.12787 -4.35829 0
M  V30 1713 H 162.675 3.00213 -3.49848 0
M  V30 1714 H 166.219 1.80817 -6.73759 0
M  V30 1715 H 162.116 2.68616 -5.86955 0
M  V30 1716 H 162.884 2.1926 -7.88586 0
M  V30 1717 N 165.547 1.27147 0.931209 0
M  V30 1718 C 166.958 1.12044 1.49342 0
M  V30 1719 C 167.309 -0.295795 1.93957 0
M  V30 1720 O 166.434 -1.18835 1.80852 0
M  V30 1721 C 167.029 2.02781 2.71414 0
M  V30 1722 C 165.588 1.91794 3.2387 0
M  V30 1723 C 164.735 1.95543 1.96617 0
M  V30 1724 H 167.686 1.40091 0.745672 0
M  V30 1725 H 167.707 1.58156 3.46074 0
M  V30 1726 H 167.219 3.05848 2.38911 0
M  V30 1727 H 165.32 0.916992 3.6114 0
M  V30 1728 H 165.433 2.77852 3.90302 0
M  V30 1729 H 163.797 1.39722 2.12955 0
M  V30 1730 H 164.58 3.00259 1.66432 0
M  V30 1731 N 167.025 -1.13721 1.09112 0
M  V30 1732 C 167.988 -2.17222 0.731241 0
M  V30 1733 C 168.988 -1.59035 -0.237566 0
M  V30 1734 O 170.178 -1.74192 -0.0161704 0
M  V30 1735 C 167.31 -3.40804 0.0808443 0
M  V30 1736 H 168.503 -2.50573 1.64783 0
M  V30 1737 H 166.056 -1.28493 0.889897 0
M  V30 1738 H 166.791 -3.1304 -0.847127 0
M  V30 1739 H 166.576 -3.84306 0.777896 0
M  V30 1740 H 168.066 -4.1731 -0.155657 0
M  V30 1741 N 168.503 -0.877838 -1.30888 0
M  V30 1742 C 169.451 -0.328662 -2.30266 0
M  V30 1743 C 170.445 0.560496 -1.59859 0
M  V30 1744 O 171.651 0.445722 -1.74394 0
M  V30 1745 H 168.026 -0.0876142 -0.746879 0
M  V30 1746 H 169.997 -1.18061 -2.74051 0
M  V30 1747 C 168.746 0.448071 -3.44801 0
M  V30 1748 H 168.069 -0.226859 -3.99156 0
M  V30 1749 H 169.509 0.797541 -4.16432 0
M  V30 1750 C 167.968 1.64239 -2.94155 0
M  V30 1751 O 168.498 2.74175 -2.93583 0
M  V30 1752 N 166.704 1.47716 -2.50256 0
M  V30 1753 H 166.251 0.582821 -2.5092 0
M  V30 1754 H 166.209 2.27765 -2.16727 0
M  V30 1755 N 169.982 1.44106 -0.638065 0
M  V30 1756 C 171.207 2.0685 -0.150916 0
M  V30 1757 C 171.632 1.47417 1.16833 0
M  V30 1758 O 170.99 0.578264 1.71831 0
M  V30 1759 C 171.038 3.60555 -0.05708 0
M  V30 1760 O 170.142 4.00465 0.984972 0
M  V30 1761 H 169.483 0.658151 -0.0879399 0
M  V30 1762 H 172.013 1.84865 -0.876707 0
M  V30 1763 H 172.023 4.07789 0.131232 0
M  V30 1764 H 170.698 4.03193 -1.02021 0
M  V30 1765 H 169.275 3.64849 0.770672 0
M  V30 1766 N 171.46 0.379036 1.52974 0
M  V30 1767 C 172.706 -0.206727 2.01744 0
M  V30 1768 C 173.039 -1.47314 1.26539 0
M  V30 1769 O 172.314 -1.91084 0.362903 0
M  V30 1770 C 172.597 -0.485066 3.56818 0
M  V30 1771 C 172.45 0.795919 4.42702 0
M  V30 1772 C 173.769 -1.28003 4.21074 0
M  V30 1773 H 170.888 -0.0736607 0.73331 0
M  V30 1774 H 173.53 0.506581 1.83122 0
M  V30 1775 H 171.68 -1.09272 3.72816 0
M  V30 1776 H 173.352 1.43307 4.38476 0
M  V30 1777 H 171.595 1.41344 4.10127 0
M  V30 1778 H 172.266 0.555947 5.49193 0
M  V30 1779 H 174.742 -0.765867 4.08991 0
M  V30 1780 H 173.618 -1.44352 5.29579 0
M  V30 1781 H 173.879 -2.29236 3.78026 0
M  V30 1782 N 172.938 -1.57226 0.108567 0
M  V30 1783 C 174.349 -1.8195 -0.418464 0
M  V30 1784 C 174.7 -1.02508 -1.67292 0
M  V30 1785 O 173.825 -0.258496 -2.14851 0
M  V30 1786 C 174.42 -3.30028 -0.765979 0
M  V30 1787 C 172.979 -3.55469 -1.23769 0
M  V30 1788 C 172.126 -2.7625 -0.241106 0
M  V30 1789 H 175.077 -1.55149 0.33384 0
M  V30 1790 H 175.098 -3.44086 -1.62434 0
M  V30 1791 H 174.61 -3.87821 0.147219 0
M  V30 1792 H 172.711 -3.03022 -2.16814 0
M  V30 1793 H 172.824 -4.6408 -1.19022 0
M  V30 1794 H 171.188 -2.44133 -0.72602 0
M  V30 1795 H 171.971 -3.36797 0.665007 0
M  V30 1796 N 174.416 0.165178 -1.56732 0
M  V30 1797 C 175.348 1.22911 -1.93457 0
M  V30 1798 C 176.361 1.40152 -0.828333 0
M  V30 1799 O 177.55 1.40046 -1.10677 0
M  V30 1800 C 174.65 2.59686 -2.17753 0
M  V30 1801 C 173.823 2.63663 -3.48999 0
M  V30 1802 C 172.882 3.81845 -3.62051 0
M  V30 1803 O 171.908 3.67559 -4.34613 0
M  V30 1804 N 173.11 4.98557 -2.97357 0
M  V30 1805 H 175.875 0.917118 -2.85323 0
M  V30 1806 H 173.436 0.354895 -1.57962 0
M  V30 1807 H 175.428 3.37225 -2.23743 0
M  V30 1808 H 173.998 2.83251 -1.32242 0
M  V30 1809 H 173.218 1.72173 -3.54612 0
M  V30 1810 H 174.506 2.63336 -4.35352 0
M  V30 1811 H 173.904 5.13065 -2.38287 0
M  V30 1812 H 172.461 5.73936 -3.08934 0
M  V30 1813 N 175.894 1.51508 0.433938 0
M  V30 1814 C 177.14 1.64588 1.18484 0
M  V30 1815 C 177.473 0.362666 1.90784 0
M  V30 1816 O 176.748 -0.637892 1.83742 0
M  V30 1817 C 177.031 2.85149 2.19913 0
M  V30 1818 C 176.884 4.23456 1.51674 0
M  V30 1819 C 178.203 3.01227 3.20858 0
M  V30 1820 H 175.322 0.598994 0.429389 0
M  V30 1821 H 177.964 1.84002 0.473647 0
M  V30 1822 H 176.114 2.68729 2.80566 0
M  V30 1823 H 177.786 4.51552 0.943322 0
M  V30 1824 H 176.029 4.25998 0.819035 0
M  V30 1825 H 176.7 5.03812 2.2556 0
M  V30 1826 H 179.176 3.16382 2.70263 0
M  V30 1827 H 178.052 3.87141 3.89118 0
M  V30 1828 H 178.313 2.13447 3.8716 0
M  V30 1829 N 177.372 -0.689602 1.41712 0
M  V30 1830 C 178.618 -1.45181 1.41599 0
M  V30 1831 C 178.951 -1.94181 0.0270081 0
M  V30 1832 O 178.226 -1.6993 -0.946265 0
M  V30 1833 C 178.509 -2.65945 2.42787 0
M  V30 1834 C 178.362 -2.22672 3.90816 0
M  V30 1835 C 179.681 -3.68149 2.41151 0
M  V30 1836 H 176.8 -0.526576 0.515642 0
M  V30 1837 H 179.442 -0.784947 1.73028 0
M  V30 1838 H 177.592 -3.2284 2.16116 0
M  V30 1839 H 179.264 -1.71058 4.28412 0
M  V30 1840 H 177.507 -1.54394 4.05395 0
M  V30 1841 H 178.178 -3.0935 4.57172 0
M  V30 1842 H 180.654 -3.2094 2.64834 0
M  V30 1843 H 179.53 -4.50248 3.13955 0
M  V30 1844 H 179.791 -4.18259 1.43221 0
M  V30 1845 N 178.85 -1.27639 -0.924453 0
M  V30 1846 C 180.266 -1.05113 -1.20097 0
M  V30 1847 C 180.466 0.213262 -2.00368 0
M  V30 1848 O 179.522 0.91787 -2.35226 0
M  V30 1849 C 180.835 -2.29244 -1.94596 0
M  V30 1850 C 182.383 -2.34315 -2.07522 0
M  V30 1851 C 182.858 -3.58183 -2.85427 0
M  V30 1852 N 184.349 -3.5876 -2.92994 0
M  V30 1853 C 185.084 -4.51277 -3.53746 0
M  V30 1854 N 184.58 -5.54102 -4.15863 0
M  V30 1855 N 186.373 -4.38894 -3.51181 0
M  V30 1856 H 178.524 -2.08821 -0.388264 0
M  V30 1857 H 180.787 -0.918568 -0.234385 0
M  V30 1858 H 180.493 -3.21301 -1.43034 0
M  V30 1859 H 180.367 -2.34816 -2.95197 0
M  V30 1860 H 182.754 -1.42762 -2.58269 0
M  V30 1861 H 182.835 -2.32744 -1.06131 0
M  V30 1862 H 182.479 -4.50074 -2.35363 0
M  V30 1863 H 182.409 -3.57006 -3.8711 0
M  V30 1864 H 184.9 -2.84398 -2.4885 0
M  V30 1865 H 185.213 -6.20859 -4.60168 0
M  V30 1866 H 183.558 -5.57941 -4.144 0
M  V30 1867 H 186.749 -3.57772 -3.01856 0
M  V30 1868 H 186.922 -5.11186 -3.98237 0
M  V30 1869 N 180.328 1.1314 -1.09713 0
M  V30 1870 C 181.744 1.36477 -0.827423 0
M  V30 1871 C 181.944 1.93654 0.556817 0
M  V30 1872 O 181 2.15791 1.31112 0
M  V30 1873 C 182.313 2.31334 -1.92106 0
M  V30 1874 C 183.861 2.44943 -1.94864 0
M  V30 1875 C 184.336 3.4311 -3.0338 0
M  V30 1876 N 185.827 3.50662 -3.02639 0
M  V30 1877 C 186.562 4.2651 -3.83246 0
M  V30 1878 N 186.058 5.05485 -4.73768 0
M  V30 1879 N 187.851 4.2184 -3.71493 0
M  V30 1880 H 180.002 0.743807 -1.9895 0
M  V30 1881 H 182.265 0.389823 -0.864143 0
M  V30 1882 H 181.971 1.96483 -2.91698 0
M  V30 1883 H 181.845 3.31381 -1.80184 0
M  V30 1884 H 184.232 2.79079 -0.959099 0
M  V30 1885 H 184.313 1.4481 -2.10864 0
M  V30 1886 H 183.957 3.09704 -4.02549 0
M  V30 1887 H 183.887 4.43055 -2.84622 0
M  V30 1888 H 186.378 2.94315 -2.37039 0
M  V30 1889 H 186.691 5.60675 -5.3185 0
M  V30 1890 H 185.036 5.04708 -4.77802 0
M  V30 1891 H 188.227 3.5922 -3.00131 0
M  V30 1892 H 188.4 4.80697 -4.3455 0
M  V30 1893 N 181.806 0.884767 1.30421 0
M  V30 1894 C 183.055 0.499164 1.95426 0
M  V30 1895 C 183.368 -0.95645 1.70621 0
M  V30 1896 O 184.574 -1.44889 2.29607 0
M  V30 1897 C 183.03 0.84177 3.49917 0
M  V30 1898 C 182.638 2.31514 3.83543 0
M  V30 1899 C 184.382 0.525355 4.21237 0
M  V30 1900 C 182.289 2.59939 5.31212 0
M  V30 1901 H 181.219 0.182944 0.73147 0
M  V30 1902 H 183.87 1.07971 1.48373 0
M  V30 1903 H 182.252 0.190311 3.95542 0
M  V30 1904 H 183.426 3.0109 3.48829 0
M  V30 1905 H 181.741 2.59907 3.25326 0
M  V30 1906 H 184.338 0.714762 5.29901 0
M  V30 1907 H 184.681 -0.535222 4.12845 0
M  V30 1908 H 185.214 1.134 3.81294 0
M  V30 1909 H 181.953 3.64736 5.44654 0
M  V30 1910 H 181.473 1.94972 5.67227 0
M  V30 1911 H 183.152 2.45429 5.98643 0
M  V30 1912 N 183.284 -1.43765 0.645699 0
M  V30 1913 C 184.232 -2.32516 -0.0624849 0
M  V30 1914 C 185.226 -1.48183 -0.820855 0
M  V30 1915 O 186.432 -1.64439 -0.732106 0
M  V30 1916 H 182.807 -0.750989 -0.0389864 0
M  V30 1917 H 184.778 -2.89979 0.703892 0
M  V30 1918 C 183.527 -3.32389 -1.02044 0
M  V30 1919 H 182.85 -3.97301 -0.446312 0
M  V30 1920 H 184.29 -3.97138 -1.48517 0
M  V30 1921 C 182.749 -2.62416 -2.11281 0
M  V30 1922 O 183.279 -2.434 -3.19561 0
M  V30 1923 N 181.485 -2.21913 -1.87624 0
M  V30 1924 H 181.032 -2.37578 -0.995703 0
M  V30 1925 H 180.99 -1.75424 -2.6091 0
M  V30 1926 N 184.763 -0.387143 -1.52771 0
M  V30 1927 C 185.711 0.463953 -2.27926 0
M  V30 1928 C 186.705 1.06493 -1.31741 0
M  V30 1929 O 187.911 1.00565 -1.49287 0
M  V30 1930 H 184.286 0.16837 -0.732909 0
M  V30 1931 H 186.257 -0.19141 -2.97785 0
M  V30 1932 C 185.006 1.5803 -3.09713 0
M  V30 1933 H 184.329 1.12718 -3.83581 0
M  V30 1934 H 185.769 2.15008 -3.65442 0
M  V30 1935 C 184.228 2.53509 -2.2189 0
M  V30 1936 O 184.758 3.56863 -1.84422 0
M  V30 1937 N 182.964 2.23199 -1.86093 0
M  V30 1938 H 182.511 1.39185 -2.16761 0
M  V30 1939 H 182.469 2.87333 -1.27621 0
M  V30 1940 N 186.241 1.57166 -0.116904 0
M  V30 1941 C 187.204 2.14039 0.819742 0
M  V30 1942 C 188.204 1.07477 1.19605 0
M  V30 1943 O 189.394 1.33263 1.1219 0
M  V30 1944 C 186.526 2.67891 2.10826 0
M  V30 1945 H 187.719 2.98128 0.325511 0
M  V30 1946 H 185.272 1.55739 0.132312 0
M  V30 1947 H 186.007 1.87384 2.64685 0
M  V30 1948 H 185.792 3.45823 1.84793 0
M  V30 1949 H 187.282 3.11809 2.77785 0
M  V30 1950 N 187.719 -0.156864 1.56817 0
M  V30 1951 C 188.649 -1.19589 2.00551 0
M  V30 1952 C 189.63 -1.4536 0.883426 0
M  V30 1953 O 190.815 -1.56449 1.15054 0
M  V30 1954 C 187.945 -2.53143 2.37773 0
M  V30 1955 C 186.899 -2.41913 3.53075 0
M  V30 1956 C 186.225 -3.80088 3.76081 0
M  V30 1957 C 187.525 -1.91157 4.86062 0
M  V30 1958 H 189.219 -0.832293 2.87599 0
M  V30 1959 H 186.765 -0.398918 1.38364 0
M  V30 1960 H 188.718 -3.26047 2.66967 0
M  V30 1961 H 187.442 -2.91319 1.4765 0
M  V30 1962 H 186.101 -1.71462 3.24031 0
M  V30 1963 H 185.749 -4.15683 2.83225 0
M  V30 1964 H 185.449 -3.73439 4.53671 0
M  V30 1965 H 186.973 -4.54556 4.0769 0
M  V30 1966 H 188.387 -2.53846 5.14038 0
M  V30 1967 H 186.784 -1.95422 5.67389 0
M  V30 1968 H 187.854 -0.866673 4.77092 0
M  V30 1969 N 189.197 -1.51736 -0.425897 0
M  V30 1970 C 190.129 -1.70083 -1.53638 0
M  V30 1971 C 191.142 -0.581349 -1.52066 0
M  V30 1972 O 192.331 -0.856017 -1.56635 0
M  V30 1973 C 189.431 -1.71078 -2.9255 0
M  V30 1974 C 188.604 -2.99795 -3.185 0
M  V30 1975 C 187.663 -2.92825 -4.37196 0
M  V30 1976 O 186.689 -3.66756 -4.35291 0
M  V30 1977 N 187.891 -2.0946 -5.41393 0
M  V30 1978 H 190.656 -2.65882 -1.383 0
M  V30 1979 H 188.217 -1.49765 -0.614988 0
M  V30 1980 H 190.209 -1.63969 -3.69995 0
M  V30 1981 H 188.779 -0.828242 -3.01428 0
M  V30 1982 H 187.999 -3.20684 -2.2925 0
M  V30 1983 H 189.287 -3.84977 -3.32671 0
M  V30 1984 H 188.685 -1.48792 -5.45781 0
M  V30 1985 H 187.242 -2.08221 -6.17647 0
M  V30 1986 N 190.675 0.682077 -1.42076 0
M  V30 1987 C 192.091 0.994324 -1.24841 0
M  V30 1988 C 192.291 2.0096 -0.147389 0
M  V30 1989 O 191.347 2.47822 0.483782 0
M  V30 1990 C 192.66 1.50607 -2.60265 0
M  V30 1991 C 194.208 1.62421 -2.6756 0
M  V30 1992 C 194.683 2.16994 -4.03333 0
M  V30 1993 N 196.174 2.24337 -4.0525 0
M  V30 1994 C 196.909 2.67621 -5.07116 0
M  V30 1995 N 196.405 3.1041 -6.19368 0
M  V30 1996 N 198.198 2.67305 -4.94474 0
M  V30 1997 H 190.349 0.00973908 -2.12398 0
M  V30 1998 H 192.612 0.0668593 -0.945639 0
M  V30 1999 H 192.318 0.834583 -3.41654 0
M  V30 2000 H 192.192 2.48602 -2.83684 0
M  V30 2001 H 194.579 2.28678 -1.86521 0
M  V30 2002 H 194.66 0.629352 -2.47937 0
M  V30 2003 H 194.304 1.51349 -4.84826 0
M  V30 2004 H 194.234 3.17258 -4.20304 0
M  V30 2005 H 196.725 1.94158 -3.24209 0
M  V30 2006 H 197.038 3.42103 -6.92954 0
M  V30 2007 H 195.383 3.08286 -6.22884 0
M  V30 2008 H 198.574 2.33233 -4.05857 0
M  V30 2009 H 198.747 3.00718 -5.73997 0
M  V30 2010 N 192.153 1.28127 0.917671 0
M  V30 2011 C 193.116 1.11744 2.00115 0
M  V30 2012 C 194.116 0.0583052 1.60694 0
M  V30 2013 O 195.306 0.303755 1.71531 0
M  V30 2014 C 192.438 0.704862 3.33533 0
M  V30 2015 H 193.631 2.07966 2.16079 0
M  V30 2016 H 191.184 1.11058 1.09981 0
M  V30 2017 H 191.919 -0.258299 3.2327 0
M  V30 2018 H 191.704 1.4699 3.63505 0
M  V30 2019 H 193.194 0.612768 4.1308 0
M  V30 2020 N 193.631 -1.12557 1.10312 0
M  V30 2021 C 194.908 -1.80363 0.756878 0
M  V30 2022 C 195.288 -1.97067 -0.756824 0
M  V30 2023 O 194.636 -1.54601 -1.68259 0
M  V30 2024 C 194.846 -3.14812 1.50647 0
M  V30 2025 C 196.194 -3.90029 1.67817 0
M  V30 2026 O 197.218 -3.24464 1.46974 0
M  V30 2027 O 196.077 -5.07652 2.02365 0
M  V30 2028 H 193.171 -0.780667 0.272926 0
M  V30 2029 H 195.717 -1.19404 1.20586 0
M  V30 2030 H 194.489 -2.97936 2.53672 0
M  V30 2031 H 194.112 -3.83478 1.05026 0
M  V30 2032 N 195.109 -0.891671 -1.2995 0
M  V30 2033 C 196.041 -0.320695 -2.26945 0
M  V30 2034 C 197.054 0.528497 -1.53983 0
M  V30 2035 O 198.243 0.346959 -1.75096 0
M  V30 2036 C 195.343 0.562066 -3.34207 0
M  V30 2037 C 194.516 -0.259576 -4.36629 0
M  V30 2038 C 193.575 0.554739 -5.23268 0
M  V30 2039 O 192.601 -0.0249311 -5.69195 0
M  V30 2040 N 193.803 1.8625 -5.4981 0
M  V30 2041 H 196.568 -1.15432 -2.76578 0
M  V30 2042 H 194.129 -0.755336 -1.432 0
M  V30 2043 H 196.121 1.11304 -3.89093 0
M  V30 2044 H 194.691 1.29637 -2.84452 0
M  V30 2045 H 193.911 -0.991986 -3.81514 0
M  V30 2046 H 195.199 -0.822564 -5.02107 0
M  V30 2047 H 194.597 2.35628 -5.14292 0
M  V30 2048 H 193.154 2.36078 -6.07545 0
M  V30 2049 N 196.587 1.43421 -0.653314 0
M  V30 2050 C 197.836 2.01032 -0.164076 0
M  V30 2051 C 198.149 1.52147 1.22926 0
M  V30 2052 O 199.355 2.02031 1.81371 0
M  V30 2053 C 197.811 3.59082 -0.24252 0
M  V30 2054 C 197.419 4.1696 -1.63855 0
M  V30 2055 C 199.163 4.24079 0.18911 0
M  V30 2056 C 197.07 5.67304 -1.67092 0
M  V30 2057 H 196 0.751798 -0.0575769 0
M  V30 2058 H 198.651 1.6439 -0.815362 0
M  V30 2059 H 197.033 3.93125 0.476276 0
M  V30 2060 H 198.207 3.94416 -2.38271 0
M  V30 2061 H 196.522 3.64335 -2.01616 0
M  V30 2062 H 199.119 5.34381 0.184775 0
M  V30 2063 H 199.462 3.98005 1.22056 0
M  V30 2064 H 199.995 3.94918 -0.477938 0
M  V30 2065 H 196.734 5.98145 -2.68146 0
M  V30 2066 H 196.254 5.91904 -0.970014 0
M  V30 2067 H 197.933 6.31344 -1.4147 0
M  V30 2068 N 198.065 0.39524 1.52563 0
M  V30 2069 C 199.028 -0.425001 2.25225 0
M  V30 2070 C 200.028 -0.985266 1.27079 0
M  V30 2071 O 201.218 -0.866332 1.5113 0
M  V30 2072 C 198.35 -1.59686 3.01186 0
M  V30 2073 H 199.543 0.211233 2.99155 0
M  V30 2074 H 197.096 0.147472 1.55603 0
M  V30 2075 H 197.831 -2.27035 2.31572 0
M  V30 2076 H 197.616 -1.20176 3.73229 0
M  V30 2077 H 199.106 -2.17743 3.5634 0
M  V30 2078 N 199.544 -1.57102 0.125237 0
M  V30 2079 C 200.491 -2.15641 -0.822655 0
M  V30 2080 C 201.461 -1.08313 -1.25927 0
M  V30 2081 O 202.646 -1.36251 -1.33567 0
M  V30 2082 C 199.786 -2.76504 -2.06494 0
M  V30 2083 C 198.899 -3.98158 -1.67612 0
M  V30 2084 C 198.034 -4.47088 -2.86854 0
M  V30 2085 C 197.073 -5.6126 -2.44242 0
M  V30 2086 N 196.21 -6.04905 -3.56419 0
M  V30 2087 H 201.05 -2.96313 -0.316625 0
M  V30 2088 H 198.587 -1.46388 -0.144588 0
M  V30 2089 H 200.545 -3.09925 -2.79289 0
M  V30 2090 H 199.175 -1.98512 -2.54545 0
M  V30 2091 H 198.227 -3.70858 -0.846661 0
M  V30 2092 H 199.539 -4.80934 -1.32301 0
M  V30 2093 H 198.693 -4.82451 -3.67867 0
M  V30 2094 H 197.432 -3.63275 -3.25396 0
M  V30 2095 H 196.437 -5.25495 -1.61663 0
M  V30 2096 H 197.662 -6.46843 -2.0681 0
M  V30 2097 H 195.608 -5.24032 -3.94623 0
M  V30 2098 H 195.525 -6.82552 -3.25051 0
M  V30 2099 H 196.793 -6.44907 -4.37853 0
M  V30 2100 N 201.022 0.148545 -1.56898 0
M  V30 2101 C 202.271 0.85984 -1.82454 0
M  V30 2102 C 202.584 1.82406 -0.706229 0
M  V30 2103 O 203.79 2.57938 -0.847349 0
M  V30 2104 C 202.246 1.57967 -3.2338 0
M  V30 2105 C 201.854 0.65794 -4.43142 0
M  V30 2106 C 203.598 2.27784 -3.58211 0
M  V30 2107 C 201.505 1.3793 -5.75091 0
M  V30 2108 H 200.435 0.324834 -0.68044 0
M  V30 2109 H 203.086 0.112588 -1.83154 0
M  V30 2110 H 201.468 2.37249 -3.17063 0
M  V30 2111 H 202.642 -0.0995497 -4.60692 0
M  V30 2112 H 200.957 0.0682643 -4.16344 0
M  V30 2113 H 203.554 2.8239 -4.54048 0
M  V30 2114 H 203.897 3.04204 -2.84193 0
M  V30 2115 H 204.43 1.55421 -3.66182 0
M  V30 2116 H 201.169 0.656982 -6.52199 0
M  V30 2117 H 200.689 2.10954 -5.61479 0
M  V30 2118 H 202.368 1.92063 -6.17835 0
M  V30 2119 N 202.5 1.5196 0.417844 0
M  V30 2120 C 203.41 1.77554 1.53336 0
M  V30 2121 C 204.426 0.660655 1.6097 0
M  V30 2122 O 205.602 0.945099 1.77848 0
M  V30 2123 C 202.667 1.91291 2.89152 0
M  V30 2124 C 201.728 3.15183 2.91475 0
M  V30 2125 C 200.961 3.28256 4.20813 0
M  V30 2126 O 201.184 2.46798 5.14244 0
M  V30 2127 O 200.118 4.21356 4.29817 0
M  V30 2128 H 203.944 2.7222 1.34647 0
M  V30 2129 H 201.529 1.36698 0.602828 0
M  V30 2130 H 203.411 2.02199 3.69721 0
M  V30 2131 H 202.086 0.998129 3.07927 0
M  V30 2132 H 200.993 3.09739 2.09791 0
M  V30 2133 H 202.326 4.06414 2.77648 0
M  V30 2134 N 203.978 -0.674533 1.42435 0
M  V30 2135 C 205.226 -1.43175 1.42637 0
M  V30 2136 C 205.547 -1.94951 0.0438992 0
M  V30 2137 O 204.817 -1.7308 -0.917607 0
M  V30 2138 H 203.397 -0.531307 0.525092 0
M  V30 2139 H 206.059 -0.797006 1.77859 0
M  V30 2140 H 205.155 -2.28463 2.12629 0
M  V30 2141 N 205.456 -1.28612 -0.910864 0
M  V30 2142 C 206.733 -1.06632 -1.63979 0
M  V30 2143 C 207.113 0.393351 -2.07403 0
M  V30 2144 O 206.461 1.37999 -1.82122 0
M  V30 2145 C 206.671 -2.0436 -2.8291 0
M  V30 2146 C 208.019 -2.34666 -3.5386 0
M  V30 2147 O 209.043 -2.02467 -2.93062 0
M  V30 2148 O 207.902 -2.89631 -4.63439 0
M  V30 2149 H 204.996 -0.407737 -0.7195 0
M  V30 2150 H 207.542 -1.39942 -0.959914 0
M  V30 2151 H 206.314 -3.02727 -2.47936 0
M  V30 2152 H 205.937 -1.71714 -3.58609 0
M  V30 2153 N 206.934 1.1197 -1.10907 0
M  V30 2154 C 208.162 1.87402 -0.876824 0
M  V30 2155 C 208.577 1.79894 0.573025 0
M  V30 2156 O 207.934 1.17629 1.39534 0
M  V30 2157 C 207.985 3.36428 -1.32282 0
M  V30 2158 O 207.706 3.43765 -2.71582 0
M  V30 2159 C 209.207 4.28783 -1.12518 0
M  V30 2160 H 206.427 0.592793 -0.314384 0
M  V30 2161 H 208.971 1.41649 -1.47499 0
M  V30 2162 H 207.126 3.79706 -0.768229 0
M  V30 2163 H 207.54 4.3652 -2.90776 0
M  V30 2164 H 209.014 5.31613 -1.48633 0
M  V30 2165 H 209.491 4.39153 -0.0642394 0
M  V30 2166 H 210.097 3.91291 -1.66648 0
M  V30 2167 N 208.412 0.89855 1.29475 0
M  V30 2168 C 209.637 0.538561 2.00285 0
M  V30 2169 C 210.062 -0.869135 1.66816 0
M  V30 2170 O 209.42 -1.57831 0.892145 0
M  V30 2171 C 209.468 0.736475 3.52999 0
M  V30 2172 O 208.572 -0.211537 4.11857 0
M  V30 2173 H 207.913 0.210563 0.62973 0
M  V30 2174 H 210.443 1.20982 1.64998 0
M  V30 2175 H 210.453 0.640685 4.02938 0
M  V30 2176 H 209.128 1.76276 3.76696 0
M  V30 2177 H 207.705 -0.0682991 3.72837 0
M  V30 2178 N 209.89 -1.43072 0.660911 0
M  V30 2179 C 211.136 -2.0202 0.177708 0
M  V30 2180 C 211.469 -1.52066 -1.20787 0
M  V30 2181 O 210.744 -0.716987 -1.80802 0
M  V30 2182 C 211.027 -3.59561 0.197019 0
M  V30 2183 C 210.88 -4.19727 1.61706 0
M  V30 2184 C 212.199 -4.37664 -0.462396 0
M  V30 2185 H 209.318 -0.734034 0.0660494 0
M  V30 2186 H 211.96 -1.70272 0.843058 0
M  V30 2187 H 210.11 -3.86739 -0.369527 0
M  V30 2188 H 211.782 -4.03553 2.23479 0
M  V30 2189 H 210.025 -3.76084 2.16201 0
M  V30 2190 H 210.696 -5.28834 1.58237 0
M  V30 2191 H 213.172 -4.16095 0.0197215 0
M  V30 2192 H 212.048 -5.47305 -0.418188 0
M  V30 2193 H 212.309 -4.14493 -1.53778 0
M  V30 2194 N 211.368 -0.403325 -1.52352 0
M  V30 2195 C 212.278 0.432009 -2.30588 0
M  V30 2196 C 213.294 1.05884 -1.38075 0
M  V30 2197 O 214.47 1.06161 -1.71148 0
M  V30 2198 C 211.535 1.53669 -3.10784 0
M  V30 2199 C 210.596 0.933525 -4.19027 0
M  V30 2200 C 209.829 1.98557 -4.9539 0
M  V30 2201 O 210.052 3.20283 -4.71991 0
M  V30 2202 O 208.986 1.59504 -5.80381 0
M  V30 2203 H 212.812 -0.205739 -3.03002 0
M  V30 2204 H 210.397 -0.166675 -1.48467 0
M  V30 2205 H 212.279 2.17814 -3.60742 0
M  V30 2206 H 210.954 2.15915 -2.41169 0
M  V30 2207 H 209.861 0.254954 -3.7323 0
M  V30 2208 H 211.194 0.35508 -4.90918 0
M  V30 2209 N 212.846 1.57033 -0.133567 0
M  V30 2210 C 213.794 2.17348 0.828412 0
M  V30 2211 C 214.788 1.12671 1.26498 0
M  V30 2212 O 215.994 1.30947 1.23502 0
M  V30 2213 H 212.369 0.695775 0.285309 0
M  V30 2214 H 214.34 2.96935 0.295372 0
M  V30 2215 C 213.089 2.79893 2.06289 0
M  V30 2216 H 212.412 3.60147 1.73592 0
M  V30 2217 H 213.852 3.25615 2.71572 0
M  V30 2218 C 212.311 1.77713 2.86216 0
M  V30 2219 O 212.841 1.23937 3.82103 0
M  V30 2220 N 211.047 1.47321 2.50489 0
M  V30 2221 H 210.594 1.91243 1.7258 0
M  V30 2222 H 210.552 0.79199 3.04261 0
M  V30 2223 N 214.325 -0.140222 1.56975 0
M  V30 2224 C 215.571 -0.848084 1.84876 0
M  V30 2225 C 215.926 -1.78481 0.718481 0
M  V30 2226 O 215.219 -1.89497 -0.283093 0
M  V30 2227 C 215.413 -1.65386 3.16832 0
M  V30 2228 C 215.242 -0.79665 4.42587 0
M  V30 2229 C 214.012 -0.459648 5.03205 0
M  V30 2230 C 216.21 -0.12389 5.14151 0
M  V30 2231 N 214.192 0.410446 6.12526 0
M  V30 2232 C 215.563 0.606064 6.17031 0
M  V30 2233 C 217.618 -0.0452654 4.97879 0
M  V30 2234 C 216.321 1.40723 7.054 0
M  V30 2235 C 218.347 0.742658 5.86718 0
M  V30 2236 C 217.709 1.46087 6.89085 0
M  V30 2237 H 213.808 -0.287946 0.727056 0
M  V30 2238 H 216.392 -0.11304 1.94372 0
M  V30 2239 H 214.563 -2.36009 3.08471 0
M  V30 2240 H 216.295 -2.30541 3.32615 0
M  V30 2241 H 213.05 -0.797006 4.66846 0
M  V30 2242 H 213.474 0.836716 6.7181 0
M  V30 2243 H 218.116 -0.586184 4.18717 0
M  V30 2244 H 215.834 1.95938 7.83986 0
M  V30 2245 H 219.42 0.805574 5.76196 0
M  V30 2246 H 218.3 2.06077 7.56639 0
M  V30 2247 N 215.803 -1.52179 -0.40978 0
M  V30 2248 C 216.733 -1.78435 -1.5061 0
M  V30 2249 C 217.714 -0.635295 -1.57791 0
M  V30 2250 O 218.899 -0.880823 -1.73076 0
M  V30 2251 C 216.029 -1.93444 -2.88439 0
M  V30 2252 C 214.983 -3.09038 -2.96108 0
M  V30 2253 C 214.309 -3.09268 -4.36185 0
M  V30 2254 C 215.609 -4.48508 -2.67652 0
M  V30 2255 H 217.303 -2.70237 -1.28889 0
M  V30 2256 H 214.849 -1.30036 -0.618605 0
M  V30 2257 H 216.802 -2.10394 -3.65119 0
M  V30 2258 H 215.526 -0.983129 -3.11452 0
M  V30 2259 H 214.185 -2.91837 -2.21872 0
M  V30 2260 H 213.833 -2.11861 -4.56206 0
M  V30 2261 H 213.533 -3.86907 -4.42241 0
M  V30 2262 H 215.057 -3.28348 -5.14801 0
M  V30 2263 H 216.471 -4.65918 -3.34056 0
M  V30 2264 H 214.868 -5.28059 -2.85085 0
M  V30 2265 H 215.938 -4.56649 -1.63095 0
M  V30 2266 N 217.281 0.66697 -1.42791 0
M  V30 2267 C 218.244 1.76211 -1.46568 0
M  V30 2268 C 219.244 1.56896 -0.352196 0
M  V30 2269 O 220.434 1.63044 -0.613364 0
M  V30 2270 C 217.566 3.14935 -1.30494 0
M  V30 2271 H 218.759 1.74247 -2.44086 0
M  V30 2272 H 216.312 0.877342 -1.29354 0
M  V30 2273 H 217.047 3.2252 -0.339301 0
M  V30 2274 H 216.832 3.30359 -2.11199 0
M  V30 2275 H 218.322 3.94821 -1.36038 0
M  V30 2276 N 218.759 1.29093 0.90403 0
M  V30 2277 C 220.17 1.15186 1.46932 0
M  V30 2278 C 220.521 -0.254587 1.94541 0
M  V30 2279 O 219.646 -1.14972 1.83332 0
M  V30 2280 C 220.241 2.08492 2.67051 0
M  V30 2281 C 218.8 1.98621 3.19729 0
M  V30 2282 C 217.947 1.9967 1.92425 0
M  V30 2283 H 220.898 1.41641 0.715789 0
M  V30 2284 H 220.919 1.65461 3.42641 0
M  V30 2285 H 220.431 3.10847 2.3237 0
M  V30 2286 H 218.532 0.993389 3.59114 0
M  V30 2287 H 218.645 2.86068 3.8432 0
M  V30 2288 H 217.009 1.44208 2.09943 0
M  V30 2289 H 217.792 3.03721 1.60026 0
M  V30 2290 N 220.237 -1.11381 1.11499 0
M  V30 2291 C 221.486 -1.82494 0.858993 0
M  V30 2292 C 221.799 -1.85605 -0.617278 0
M  V30 2293 O 223.005 -2.52824 -0.989552 0
M  V30 2294 C 221.461 -3.27745 1.48699 0
M  V30 2295 C 221.069 -3.32961 2.99735 0
M  V30 2296 C 222.813 -4.03754 1.31085 0
M  V30 2297 C 220.72 -4.72612 3.55516 0
M  V30 2298 H 219.65 -0.683802 0.317696 0
M  V30 2299 H 222.301 -1.25331 1.34031 0
M  V30 2300 H 220.683 -3.84844 0.933339 0
M  V30 2301 H 221.857 -2.85741 3.61509 0
M  V30 2302 H 220.172 -2.70433 3.16631 0
M  V30 2303 H 222.769 -5.06891 1.70192 0
M  V30 2304 H 223.112 -4.15527 0.253496 0
M  V30 2305 H 223.645 -3.53043 1.83318 0
M  V30 2306 H 220.384 -4.66036 4.60967 0
M  V30 2307 H 219.904 -5.2024 2.98513 0
M  V30 2308 H 221.583 -5.4157 3.53992 0
M  V30 2309 N 221.715 -0.905404 -1.28997 0
M  V30 2310 C 222.961 -0.535039 -1.95615 0
M  V30 2311 C 223.294 0.917404 -1.71165 0
M  V30 2312 O 222.569 1.65123 -1.02785 0
M  V30 2313 C 222.852 -0.834918 -3.50287 0
M  V30 2314 C 222.705 -2.33948 -3.84172 0
M  V30 2315 C 224.024 -0.325318 -4.38896 0
M  V30 2316 H 221.143 -0.195861 -0.710498 0
M  V30 2317 H 223.785 -1.13313 -1.52513 0
M  V30 2318 H 221.935 -0.325904 -3.87131 0
M  V30 2319 H 223.607 -2.91847 -3.57243 0
M  V30 2320 H 221.85 -2.79789 -3.31513 0
M  V30 2321 H 222.521 -2.49987 -4.92149 0
M  V30 2322 H 224.997 -0.761256 -4.09077 0
M  V30 2323 H 223.873 -0.564295 -5.45992 0
M  V30 2324 H 224.134 0.774144 -4.35269 0
M  V30 2325 N 223.193 1.4272 -0.668489 0
M  V30 2326 C 224.156 2.292 0.00448567 0
M  V30 2327 C 225.156 1.43001 0.735339 0
M  V30 2328 O 226.346 1.64461 0.57429 0
M  V30 2329 C 223.478 3.25375 1.01705 0
M  V30 2330 H 224.671 2.90199 -0.756608 0
M  V30 2331 H 222.224 1.50254 -0.430506 0
M  V30 2332 H 222.959 2.69301 1.80686 0
M  V30 2333 H 222.744 3.88944 0.496463 0
M  V30 2334 H 224.234 3.90245 1.48655 0
M  V30 2335 N 224.671 0.411399 1.52136 0
M  V30 2336 C 225.948 -0.222308 1.94333 0
M  V30 2337 C 226.328 -1.6242 1.34844 0
M  V30 2338 O 225.676 -2.22384 0.525145 0
M  V30 2339 C 225.886 -0.226345 3.48265 0
M  V30 2340 C 227.234 -0.444592 4.22266 0
M  V30 2341 O 228.258 -0.305602 3.54887 0
M  V30 2342 O 227.117 -0.718749 5.41753 0
M  V30 2343 H 224.211 -0.143907 0.814383 0
M  V30 2344 H 226.757 0.467506 1.63133 0
M  V30 2345 H 225.529 0.75475 3.83952 0
M  V30 2346 H 225.152 -0.960163 3.85832 0
M  V30 2347 N 226.149 -1.5696 0.141893 0
M  V30 2348 C 227.397 -1.95573 -0.509484 0
M  V30 2349 C 227.718 -1.02746 -1.65736 0
M  V30 2350 O 226.988 -0.0880311 -1.95702 0
M  V30 2351 H 225.568 -0.722115 -0.191205 0
M  V30 2352 H 228.23 -1.93697 0.216196 0
M  V30 2353 H 227.326 -2.99171 -0.889 0
M  V30 2354 N 227.627 0.131896 -1.57047 0
M  V30 2355 C 228.537 1.1815 -2.02676 0
M  V30 2356 C 229.553 1.46113 -0.944824 0
M  V30 2357 O 230.729 1.57485 -1.25541 0
M  V30 2358 C 227.794 2.49139 -2.41103 0
M  V30 2359 C 226.855 2.28688 -3.63318 0
M  V30 2360 C 226.088 3.53431 -3.99903 0
M  V30 2361 O 226.311 4.60223 -3.36973 0
M  V30 2362 O 225.245 3.45198 -4.93074 0
M  V30 2363 H 229.071 0.824069 -2.92306 0
M  V30 2364 H 226.656 0.341745 -1.45439 0
M  V30 2365 H 228.538 3.26338 -2.66611 0
M  V30 2366 H 227.213 2.84382 -1.54624 0
M  V30 2367 H 226.12 1.4939 -3.42977 0
M  V30 2368 H 227.453 1.98355 -4.50462 0
M  V30 2369 N 229.106 1.52395 0.401703 0
M  V30 2370 C 230.069 1.75636 1.47257 0
M  V30 2371 C 231.069 0.62628 1.48103 0
M  V30 2372 O 232.259 0.894227 1.49497 0
M  V30 2373 C 229.391 1.84553 2.86624 0
M  V30 2374 H 230.584 2.71241 1.27938 0
M  V30 2375 H 228.137 1.42923 0.632662 0
M  V30 2376 H 228.872 0.908882 3.11303 0
M  V30 2377 H 228.657 2.66715 2.87412 0
M  V30 2378 H 230.147 2.04251 3.64241 0
M  V30 2379 N 230.584 -0.659388 1.43143 0
M  V30 2380 C 231.832 -1.41654 1.44147 0
M  V30 2381 C 232.153 -1.94893 0.0645739 0
M  V30 2382 O 231.423 -1.74044 -0.899198 0
M  V30 2383 H 230.003 -0.525708 0.530697 0
M  V30 2384 H 232.665 -0.778097 1.78694 0
M  V30 2385 H 231.761 -2.26195 2.1504 0
M  V30 2386 N 232.062 -1.29571 -0.897171 0
M  V30 2387 C 233.309 -1.17689 -1.6479 0
M  V30 2388 C 233.637 0.27107 -1.92602 0
M  V30 2389 O 232.892 1.21193 -1.53658 0
M  V30 2390 C 233.191 -1.9382 -3.00281 0
M  V30 2391 C 232.857 -3.43522 -2.92068 0
M  V30 2392 C 231.519 -3.84348 -2.89535 0
M  V30 2393 C 233.871 -4.38906 -2.81089 0
M  V30 2394 C 231.199 -5.18869 -2.73846 0
M  V30 2395 C 233.551 -5.73521 -2.66939 0
M  V30 2396 C 232.215 -6.13601 -2.62774 0
M  V30 2397 H 231.485 -0.430654 -0.603008 0
M  V30 2398 H 234.132 -1.60536 -1.04404 0
M  V30 2399 H 232.437 -1.4357 -3.64547 0
M  V30 2400 H 234.134 -1.82028 -3.57305 0
M  V30 2401 H 230.724 -3.11072 -2.94842 0
M  V30 2402 H 234.908 -4.08315 -2.82121 0
M  V30 2403 H 230.164 -5.4903 -2.69027 0
M  V30 2404 H 234.338 -6.47078 -2.57416 0
M  V30 2405 H 231.965 -7.17786 -2.50375 0
M  V30 2406 N 233.54 1.10788 -1.12088 0
M  V30 2407 C 234.788 1.8231 -0.872205 0
M  V30 2408 C 235.109 1.85419 0.603709 0
M  V30 2409 O 234.379 1.32963 1.43867 0
M  V30 2410 H 232.959 0.675137 -0.319686 0
M  V30 2411 H 235.621 1.34068 -1.41463 0
M  V30 2412 H 234.717 2.85955 -1.25045 0
M  V30 2413 N 235.018 0.912232 1.28515 0
M  V30 2414 C 236.266 0.543523 1.94654 0
M  V30 2415 C 236.587 -0.9155 1.72173 0
M  V30 2416 O 235.857 -1.64708 1.06058 0
M  V30 2417 H 234.437 0.198017 0.720277 0
M  V30 2418 H 237.099 1.16126 1.56527 0
M  V30 2419 H 236.195 0.736684 3.03281 0
M  V30 2420 N 236.496 -1.42363 0.676048 0
M  V30 2421 C 237.459 -2.29199 0.00766941 0
M  V30 2422 C 238.459 -1.43389 -0.727745 0
M  V30 2423 O 239.649 -1.64764 -0.56556 0
M  V30 2424 C 236.781 -3.2591 -0.999785 0
M  V30 2425 H 237.974 -2.89794 0.771988 0
M  V30 2426 H 235.527 -1.50024 0.438468 0
M  V30 2427 H 236.262 -2.70256 -1.79255 0
M  V30 2428 H 236.047 -3.89202 -0.475829 0
M  V30 2429 H 237.537 -3.91028 -1.46583 0
M  V30 2430 N 237.974 -0.419461 -1.51915 0
M  V30 2431 C 238.904 0.391813 -2.30189 0
M  V30 2432 C 239.885 1.03699 -1.34836 0
M  V30 2433 O 241.07 1.04403 -1.63748 0
M  V30 2434 C 238.2 1.50312 -3.13087 0
M  V30 2435 C 237.154 0.9824 -4.16573 0
M  V30 2436 C 236.48 2.18809 -4.8788 0
M  V30 2437 C 237.78 0.0292356 -5.22292 0
M  V30 2438 H 239.474 -0.26135 -2.98257 0
M  V30 2439 H 237.02 -0.127134 -1.43438 0
M  V30 2440 H 238.973 2.07773 -3.66617 0
M  V30 2441 H 237.697 2.18431 -2.42807 0
M  V30 2442 H 236.356 0.430119 -3.64068 0
M  V30 2443 H 236.004 2.85507 -4.14119 0
M  V30 2444 H 235.704 1.84615 -5.57845 0
M  V30 2445 H 237.228 2.76858 -5.44226 0
M  V30 2446 H 238.642 0.512976 -5.71 0
M  V30 2447 H 237.039 -0.2244 -5.9968 0
M  V30 2448 H 238.109 -0.912931 -4.76228 0
M  V30 2449 N 239.452 1.56882 -0.150215 0
M  V30 2450 C 240.4 2.18214 0.805313 0
M  V30 2451 C 241.394 1.14006 1.25296 0
M  V30 2452 O 242.6 1.3225 1.22107 0
M  V30 2453 H 238.975 0.698762 0.277913 0
M  V30 2454 H 240.946 2.97231 0.263862 0
M  V30 2455 C 239.695 2.82065 2.03309 0
M  V30 2456 H 239.018 3.61968 1.69763 0
M  V30 2457 H 240.458 3.28477 2.68103 0
M  V30 2458 C 238.917 1.80739 2.84315 0
M  V30 2459 O 239.447 1.27983 3.80767 0
M  V30 2460 N 237.653 1.4997 2.48913 0
M  V30 2461 H 237.2 1.93062 1.70542 0
M  V30 2462 H 237.158 0.824217 3.03404 0
M  V30 2463 N 240.93 -0.123565 1.57115 0
M  V30 2464 C 242.176 -0.833386 1.84885 0
M  V30 2465 C 242.509 -1.79742 0.735292 0
M  V30 2466 O 241.784 -1.92764 -0.25925 0
M  V30 2467 C 242.067 -1.5873 3.23228 0
M  V30 2468 C 241.92 -0.643183 4.45178 0
M  V30 2469 C 243.239 -2.54453 3.59085 0
M  V30 2470 H 240.358 -0.301518 0.6725 0
M  V30 2471 H 243 -0.097778 1.89748 0
M  V30 2472 H 241.15 -2.21438 3.19214 0
M  V30 2473 H 242.822 -0.0253015 4.61293 0
M  V30 2474 H 241.065 0.0456139 4.33776 0
M  V30 2475 H 241.736 -1.20724 5.38637 0
M  V30 2476 H 244.212 -2.01853 3.63861 0
M  V30 2477 H 243.088 -3.04238 4.5687 0
M  V30 2478 H 243.349 -3.36906 2.86264 0
M  V30 2479 N 242.408 -1.52605 -0.393616 0
M  V30 2480 C 243.638 -1.71046 -1.15874 0
M  V30 2481 C 244.046 -0.426483 -1.84331 0
M  V30 2482 O 243.389 0.608513 -1.73329 0
M  V30 2483 C 243.451 -2.80118 -2.25332 0
M  V30 2484 C 243.115 -4.21381 -1.76881 0
M  V30 2485 C 244.112 -5.04697 -1.24808 0
M  V30 2486 C 241.797 -4.67683 -1.83244 0
M  V30 2487 C 243.791 -6.32393 -0.797387 0
M  V30 2488 C 241.478 -5.95364 -1.37787 0
M  V30 2489 C 242.476 -6.77549 -0.861208 0
M  V30 2490 O 242.164 -8.02837 -0.413252 0
M  V30 2491 H 241.896 -0.576155 -0.353583 0
M  V30 2492 H 244.45 -2.00018 -0.467123 0
M  V30 2493 H 242.68 -2.46557 -2.97904 0
M  V30 2494 H 244.369 -2.87006 -2.87023 0
M  V30 2495 H 245.135 -4.70111 -1.19252 0
M  V30 2496 H 241.014 -4.03805 -2.22401 0
M  V30 2497 H 244.558 -6.9649 -0.393437 0
M  V30 2498 H 240.455 -6.29455 -1.43026 0
M  V30 2499 H 241.223 -8.16749 -0.53515 0
M  V30 2500 N 243.887 0.651787 -1.4349 0
M  V30 2501 C 244.797 1.79368 -1.5121 0
M  V30 2502 C 245.813 1.69361 -0.399093 0
M  V30 2503 O 246.989 1.90505 -0.653431 0
M  V30 2504 C 244.054 3.15653 -1.43401 0
M  V30 2505 C 243.115 3.37446 -2.65384 0
M  V30 2506 C 242.348 4.67229 -2.57939 0
M  V30 2507 O 242.571 5.46676 -1.62792 0
M  V30 2508 O 241.505 4.90773 -3.48462 0
M  V30 2509 H 245.331 1.7581 -2.47638 0
M  V30 2510 H 242.916 0.810447 -1.25507 0
M  V30 2511 H 244.798 3.96935 -1.41494 0
M  V30 2512 H 243.473 3.19798 -0.501085 0
M  V30 2513 H 242.38 2.55923 -2.72863 0
M  V30 2514 H 243.713 3.38148 -3.57654 0
M  V30 2515 N 245.365 1.30045 0.890287 0
M  V30 2516 C 246.295 1.18541 2.01172 0
M  V30 2517 C 247.276 0.0773356 1.69924 0
M  V30 2518 O 248.461 0.25845 1.92473 0
M  V30 2519 C 245.591 0.870941 3.36202 0
M  V30 2520 C 244.545 1.93637 3.81692 0
M  V30 2521 C 243.871 1.475 5.13953 0
M  V30 2522 C 245.171 3.34666 4.00994 0
M  V30 2523 H 246.865 2.12359 2.11054 0
M  V30 2524 H 244.411 1.02238 1.01407 0
M  V30 2525 H 246.364 0.777141 4.14172 0
M  V30 2526 H 245.088 -0.102926 3.26438 0
M  V30 2527 H 243.747 2.01972 3.05946 0
M  V30 2528 H 243.395 0.489551 5.00612 0
M  V30 2529 H 243.095 2.1876 5.4536 0
M  V30 2530 H 244.619 1.39489 5.94454 0
M  V30 2531 H 246.033 3.2912 4.69417 0
M  V30 2532 H 244.43 4.03966 4.43769 0
M  V30 2533 H 245.5 3.76949 3.05021 0
M  V30 2534 N 246.843 -1.10192 1.12674 0
M  V30 2535 C 247.775 -2.16418 0.754701 0
M  V30 2536 C 248.788 -1.61309 -0.21986 0
M  V30 2537 O 249.977 -1.785 -0.000826841 0
M  V30 2538 C 247.077 -3.38762 0.096698 0
M  V30 2539 C 246.25 -4.23307 1.10136 0
M  V30 2540 C 245.309 -5.24092 0.470513 0
M  V30 2541 O 244.335 -5.57906 1.12824 0
M  V30 2542 N 245.537 -5.75491 -0.760948 0
M  V30 2543 H 248.302 -2.48943 1.66875 0
M  V30 2544 H 245.863 -1.25834 1.01869 0
M  V30 2545 H 247.855 -4.03291 -0.337384 0
M  V30 2546 H 246.425 -3.04192 -0.720153 0
M  V30 2547 H 245.645 -3.55036 1.71299 0
M  V30 2548 H 246.933 -4.76624 1.78064 0
M  V30 2549 H 246.331 -5.50222 -1.31424 0
M  V30 2550 H 244.888 -6.41792 -1.13781 0
M  V30 2551 N 248.321 -0.919034 -1.28029 0
M  V30 2552 C 249.268 -0.410005 -2.27129 0
M  V30 2553 C 250.238 0.518405 -1.57803 0
M  V30 2554 O 251.423 0.439451 -1.8567 0
M  V30 2555 C 248.563 0.339054 -3.4343 0
M  V30 2556 C 247.676 -0.622468 -4.27492 0
M  V30 2557 C 246.811 0.145567 -5.31001 0
M  V30 2558 C 245.85 -0.809226 -6.06727 0
M  V30 2559 N 244.987 -0.0743728 -7.02061 0
M  V30 2560 H 249.827 -1.26011 -2.70047 0
M  V30 2561 H 247.364 -0.632663 -1.328 0
M  V30 2562 H 249.322 0.789586 -4.0966 0
M  V30 2563 H 247.952 1.15346 -3.01488 0
M  V30 2564 H 247.004 -1.19153 -3.61257 0
M  V30 2565 H 248.316 -1.35252 -4.80113 0
M  V30 2566 H 247.47 0.656417 -6.03139 0
M  V30 2567 H 246.209 0.908643 -4.79161 0
M  V30 2568 H 245.214 -1.3314 -5.33436 0
M  V30 2569 H 246.439 -1.57194 -6.60656 0
M  V30 2570 H 244.385 0.670616 -6.52563 0
M  V30 2571 H 244.302 -0.744157 -7.52329 0
M  V30 2572 H 245.57 0.416109 -7.78389 0
M  V30 2573 N 249.799 1.42003 -0.683588 0
M  V30 2574 C 250.762 2.29191 -0.0198243 0
M  V30 2575 C 251.762 1.43773 0.72013 0
M  V30 2576 O 252.952 1.65061 0.556815 0
M  V30 2577 C 250.084 3.26435 0.982487 0
M  V30 2578 H 251.277 2.8938 -0.787345 0
M  V30 2579 H 248.83 1.49789 -0.446418 0
M  V30 2580 H 249.565 2.71203 1.77819 0
M  V30 2581 H 249.35 3.89449 0.455182 0
M  V30 2582 H 250.84 3.918 1.44508 0
M  V30 2583 N 251.277 0.427512 1.51691 0
M  V30 2584 C 252.207 -0.3796 2.30394 0
M  V30 2585 C 253.188 -1.02982 1.35384 0
M  V30 2586 O 254.373 -1.03534 1.643 0
M  V30 2587 C 251.503 -1.48649 3.1388 0
M  V30 2588 C 250.457 -0.960294 4.17088 0
M  V30 2589 C 249.783 -2.16219 4.89033 0
M  V30 2590 C 251.083 -0.00153679 5.223 0
M  V30 2591 H 252.777 0.277164 2.98114 0
M  V30 2592 H 250.323 0.134739 1.43368 0
M  V30 2593 H 252.276 -2.05826 3.67714 0
M  V30 2594 H 251 -2.1714 2.43962 0
M  V30 2595 H 249.659 -0.410806 3.64291 0
M  V30 2596 H 249.307 -2.83307 4.15628 0
M  V30 2597 H 249.007 -1.81654 5.58816 0
M  V30 2598 H 250.531 -2.73968 5.45687 0
M  V30 2599 H 251.945 -0.482687 5.71264 0
M  V30 2600 H 250.342 0.256199 5.99553 0
M  V30 2601 H 251.412 0.938174 4.75738 0
M  V30 2602 N 252.755 -1.56801 0.158532 0
M  V30 2603 C 254.004 -1.95665 -0.489702 0
M  V30 2604 C 254.317 -1.04654 -1.65248 0
M  V30 2605 O 255.523 -1.33146 -2.3661 0
M  V30 2606 C 253.979 -3.47874 -0.922582 0
M  V30 2607 C 253.587 -4.47489 0.213893 0
M  V30 2608 C 255.331 -3.95583 -1.53996 0
M  V30 2609 C 253.238 -5.90921 -0.237903 0
M  V30 2610 H 252.168 -0.730516 -0.186716 0
M  V30 2611 H 254.819 -1.81861 0.244722 0
M  V30 2612 H 253.201 -3.57051 -1.71261 0
M  V30 2613 H 254.375 -4.50017 0.991036 0
M  V30 2614 H 252.69 -4.09764 0.740407 0
M  V30 2615 H 255.287 -5.0019 -1.8898 0
M  V30 2616 H 255.63 -3.37789 -2.43319 0
M  V30 2617 H 256.163 -3.8937 -0.814611 0
M  V30 2618 H 252.902 -6.52559 0.620236 0
M  V30 2619 H 252.422 -5.91729 -0.980676 0
M  V30 2620 H 254.101 -6.43352 -0.686067 0
M  V30 2621 N 254.233 0.115231 -1.57178 0
M  V30 2622 C 255.196 1.12526 -1.99676 0
M  V30 2623 C 256.196 1.34095 -0.88742 0
M  V30 2624 O 257.386 1.30548 -1.15337 0
M  V30 2625 C 254.518 2.4789 -2.34015 0
M  V30 2626 H 255.711 0.759912 -2.90113 0
M  V30 2627 H 253.264 0.359648 -1.52106 0
M  V30 2628 H 253.999 2.89339 -1.4647 0
M  V30 2629 H 253.784 2.33588 -3.14927 0
M  V30 2630 H 255.274 3.20575 -2.67622 0
M  V30 2631 N 255.711 1.52812 0.385517 0
M  V30 2632 C 256.674 1.77188 1.45386 0
M  V30 2633 C 257.674 0.641953 1.4743 0
M  V30 2634 O 258.864 0.910033 1.4854 0
M  V30 2635 C 255.996 1.87582 2.8465 0
M  V30 2636 H 257.189 2.72583 1.25054 0
M  V30 2637 H 254.742 1.43586 0.617467 0
M  V30 2638 H 255.477 0.941849 3.10322 0
M  V30 2639 H 255.262 2.69748 2.84567 0
M  V30 2640 H 256.752 2.08102 3.62054 0
M  V30 2641 N 257.189 -0.644168 1.43834 0
M  V30 2642 C 258.437 -1.40117 1.45642 0
M  V30 2643 C 258.758 -1.94814 0.0852413 0
M  V30 2644 O 258.028 -1.74988 -0.880688 0
M  V30 2645 H 256.608 -0.52005 0.536243 0
M  V30 2646 H 259.27 -0.7591 1.7951 0
M  V30 2647 H 258.366 -2.23902 2.17427 0
M  V30 2648 N 258.668 -1.30515 -0.883378 0
M  V30 2649 C 259.914 -1.19607 -1.63774 0
M  V30 2650 C 260.247 0.248314 -1.92606 0
M  V30 2651 O 259.522 1.17742 -1.54813 0
M  V30 2652 C 259.805 -2.02669 -2.97653 0
M  V30 2653 C 259.658 -3.55335 -2.75784 0
M  V30 2654 C 260.977 -1.86573 -3.98596 0
M  V30 2655 H 258.096 -0.435856 -0.594305 0
M  V30 2656 H 260.738 -1.60165 -1.02212 0
M  V30 2657 H 258.888 -1.68208 -3.50197 0
M  V30 2658 H 260.56 -3.99863 -2.30016 0
M  V30 2659 H 258.803 -3.79438 -2.1026 0
M  V30 2660 H 259.474 -4.08745 -3.70988 0
M  V30 2661 H 261.95 -2.16703 -3.55217 0
M  V30 2662 H 260.826 -2.47014 -4.90179 0
M  V30 2663 H 261.087 -0.825321 -4.34328 0
M  V30 2664 N 260.146 1.09593 -1.13257 0
M  V30 2665 C 261.109 2.14359 -0.811358 0
M  V30 2666 C 262.109 1.59808 0.178377 0
M  V30 2667 O 263.299 1.74132 -0.0484911 0
M  V30 2668 C 260.431 3.40269 -0.207276 0
M  V30 2669 H 261.624 2.44284 -1.73969 0
M  V30 2670 H 259.177 1.25102 -0.936973 0
M  V30 2671 H 259.912 3.15969 0.73036 0
M  V30 2672 H 259.697 3.81154 -0.919992 0
M  V30 2673 H 261.187 4.176 0.000667944 0
M  V30 2674 N 261.624 0.925811 1.2754 0
M  V30 2675 C 262.872 0.564138 1.94067 0
M  V30 2676 C 263.193 -0.897188 1.73134 0
M  V30 2677 O 262.463 -1.63573 1.07799 0
M  V30 2678 H 261.043 0.205645 0.718136 0
M  V30 2679 H 263.705 1.1778 1.55287 0
M  V30 2680 H 262.801 0.76881 3.02483 0
M  V30 2681 N 263.102 -1.41638 0.69111 0
M  V30 2682 C 264.327 -2.06148 0.227583 0
M  V30 2683 C 264.752 -1.51652 -1.11281 0
M  V30 2684 O 264.11 -0.64164 -1.69566 0
M  V30 2685 C 264.158 -3.60095 0.190858 0
M  V30 2686 O 263.262 -4.03845 -0.835664 0
M  V30 2687 H 262.603 -0.654434 0.112306 0
M  V30 2688 H 265.133 -1.81484 0.944714 0
M  V30 2689 H 265.143 -4.07995 0.020207 0
M  V30 2690 H 263.818 -3.99129 1.16915 0
M  V30 2691 H 262.395 -3.67458 -0.63473 0
M  V30 2692 N 264.58 -0.43555 -1.51462 0
M  V30 2693 C 265.53 0.394701 -2.24558 0
M  V30 2694 C 266.514 0.99157 -1.26715 0
M  V30 2695 O 267.706 0.910007 -1.51815 0
M  V30 2696 C 264.835 1.4963 -3.08975 0
M  V30 2697 C 263.921 0.908912 -4.14246 0
M  V30 2698 N 264.312 0.0505335 -5.05775 0
M  V30 2699 C 262.61 1.17668 -4.30198 0
M  V30 2700 C 263.311 -0.279161 -5.8103 0
M  V30 2701 N 262.287 0.336767 -5.42556 0
M  V30 2702 H 266.089 -0.267106 -2.92684 0
M  V30 2703 H 263.603 -0.247518 -1.60503 0
M  V30 2704 H 265.6 2.10394 -3.59917 0
M  V30 2705 H 264.26 2.16046 -2.42393 0
M  V30 2706 H 265.271 -0.31577 -5.16936 0
M  V30 2707 H 261.948 1.83847 -3.74842 0
M  V30 2708 H 263.338 -0.977553 -6.64751 0
M  V30 2709 N 266.058 1.56714 -0.166846 0
M  V30 2710 C 267.304 1.97813 0.473473 0
M  V30 2711 C 267.659 1.05095 1.61161 0
M  V30 2712 O 266.952 0.0897541 1.9139 0
M  V30 2713 C 267.146 3.42889 1.00806 0
M  V30 2714 C 266.975 4.49635 -0.0767392 0
M  V30 2715 C 265.745 5.02566 -0.524894 0
M  V30 2716 C 267.943 5.06793 -0.875504 0
M  V30 2717 N 265.925 5.9294 -1.59047 0
M  V30 2718 C 267.296 5.93565 -1.79111 0
M  V30 2719 C 269.351 4.89306 -0.921083 0
M  V30 2720 C 268.054 6.64721 -2.74843 0
M  V30 2721 C 270.08 5.61179 -1.86633 0
M  V30 2722 C 269.442 6.47675 -2.76942 0
M  V30 2723 H 265.541 0.769093 0.141489 0
M  V30 2724 H 268.125 1.92874 -0.266031 0
M  V30 2725 H 266.296 3.48382 1.7171 0
M  V30 2726 H 268.028 3.71008 1.61664 0
M  V30 2727 H 264.783 4.73439 -0.123432 0
M  V30 2728 H 265.207 6.42831 -2.12361 0
M  V30 2729 H 269.849 4.22136 -0.23692 0
M  V30 2730 H 267.567 7.31107 -3.44249 0
M  V30 2731 H 271.153 5.49636 -1.90764 0
M  V30 2732 H 270.033 7.02313 -3.48893 0
M  V30 2733 N 267.536 -0.106894 1.57237 0
M  V30 2734 C 268.446 -1.14911 2.0453 0
M  V30 2735 C 269.462 -1.44592 0.96795 0
M  V30 2736 O 270.638 -1.55468 1.2803 0
M  V30 2737 C 267.703 -2.45272 2.45036 0
M  V30 2738 C 266.764 -2.22879 3.66911 0
M  V30 2739 C 265.997 -3.47024 4.05475 0
M  V30 2740 O 266.22 -4.54804 3.44252 0
M  V30 2741 O 265.154 -3.3731 4.98504 0
M  V30 2742 H 268.98 -0.777461 2.9358 0
M  V30 2743 H 266.565 -0.318563 1.45964 0
M  V30 2744 H 268.447 -3.22055 2.71769 0
M  V30 2745 H 267.122 -2.81886 1.59129 0
M  V30 2746 H 266.029 -1.43915 3.45311 0
M  V30 2747 H 267.362 -1.91163 4.53561 0
M  V30 2748 N 269.014 -1.53014 -0.377408 0
M  V30 2749 C 270.291 -1.59215 -1.13622 0
M  V30 2750 C 270.671 -0.392407 -2.07421 0
M  V30 2751 O 270.019 0.618342 -2.19975 0
M  V30 2752 C 270.229 -2.93669 -1.88573 0
M  V30 2753 C 271.577 -3.47822 -2.43526 0
M  V30 2754 O 272.601 -2.9562 -1.98715 0
M  V30 2755 O 271.46 -4.39055 -3.25412 0
M  V30 2756 H 268.554 -0.642625 -0.52054 0
M  V30 2757 H 271.1 -1.65353 -0.381625 0
M  V30 2758 H 269.872 -3.7243 -1.20048 0
M  V30 2759 H 269.495 -2.90968 -2.70968 0
M  V30 2760 N 270.492 0.636531 -1.44174 0
M  V30 2761 C 271.424 1.7618 -1.46606 0
M  V30 2762 C 272.437 1.58768 -0.360091 0
M  V30 2763 O 273.626 1.67181 -0.625518 0
M  V30 2764 C 270.726 3.13833 -1.27915 0
M  V30 2765 C 269.899 3.57753 -2.51658 0
M  V30 2766 C 268.958 4.74265 -2.27945 0
M  V30 2767 O 267.984 4.82852 -3.01401 0
M  V30 2768 N 269.186 5.65604 -1.30662 0
M  V30 2769 H 271.951 1.74567 -2.43612 0
M  V30 2770 H 269.512 0.820924 -1.39544 0
M  V30 2771 H 271.504 3.8949 -1.09907 0
M  V30 2772 H 270.074 3.10121 -0.39293 0
M  V30 2773 H 269.294 2.72362 -2.84978 0
M  V30 2774 H 270.582 3.83847 -3.33974 0
M  V30 2775 H 269.98 5.61354 -0.699844 0
M  V30 2776 H 268.537 6.40913 -1.18634 0
M  V30 2777 N 271.97 1.30982 0.876444 0
M  V30 2778 C 272.9 1.20668 1.99903 0
M  V30 2779 C 273.881 0.095354 1.69833 0
M  V30 2780 O 275.066 0.27885 1.92188 0
M  V30 2781 C 272.196 0.90655 3.3526 0
M  V30 2782 C 271.15 1.97675 3.79617 0
M  V30 2783 C 270.476 1.52943 5.1236 0
M  V30 2784 C 271.776 3.389 3.97422 0
M  V30 2785 H 273.47 2.14586 2.0879 0
M  V30 2786 H 271.016 1.03308 1.00317 0
M  V30 2787 H 272.969 0.821025 4.13324 0
M  V30 2788 H 271.693 -0.0682969 3.26529 0
M  V30 2789 H 270.352 2.05205 3.03787 0
M  V30 2790 H 270 0.54262 5.00065 0
M  V30 2791 H 269.7 2.24532 5.43009 0
M  V30 2792 H 271.224 1.45786 5.92941 0
M  V30 2793 H 272.638 3.34081 4.659 0
M  V30 2794 H 271.035 4.0865 4.3946 0
M  V30 2795 H 272.105 3.80163 3.01006 0
M  V30 2796 N 273.449 -1.08991 1.13837 0
M  V30 2797 C 274.412 -2.13925 0.822715 0
M  V30 2798 C 275.412 -1.599 -0.1699 0
M  V30 2799 O 276.602 -1.74104 0.0577251 0
M  V30 2800 C 273.734 -3.40155 0.225318 0
M  V30 2801 H 274.927 -2.43358 1.75262 0
M  V30 2802 H 272.48 -1.24603 0.943594 0
M  V30 2803 H 273.215 -3.16352 -0.713594 0
M  V30 2804 H 273 -3.80661 0.940193 0
M  V30 2805 H 274.49 -4.17594 0.0214784 0
M  V30 2806 N 274.927 -0.932562 -1.27047 0
M  V30 2807 C 276.152 -0.591474 -1.98787 0
M  V30 2808 C 276.577 0.824601 -1.69062 0
M  V30 2809 O 275.935 1.5541 -0.933677 0
M  V30 2810 C 275.983 -0.829808 -3.50922 0
M  V30 2811 O 275.087 0.102266 -4.12273 0
M  V30 2812 H 274.428 -0.227185 -0.623926 0
M  V30 2813 H 276.958 -1.25314 -1.61733 0
M  V30 2814 H 276.968 -0.747292 -4.01098 0
M  V30 2815 H 275.643 -1.86201 -3.7189 0
M  V30 2816 H 274.22 -0.0305761 -3.72887 0
M  V30 2817 N 276.405 1.4127 -0.698611 0
M  V30 2818 C 277.315 2.34573 -0.0357891 0
M  V30 2819 C 278.331 1.56393 0.762701 0
M  V30 2820 O 279.507 1.8886 0.699564 0
M  V30 2821 C 276.572 3.35159 0.887089 0
M  V30 2822 C 275.633 4.29225 0.0804634 0
M  V30 2823 C 274.866 5.25006 0.959387 0
M  V30 2824 O 275.089 5.26314 2.19886 0
M  V30 2825 O 274.023 6.00519 0.407439 0
M  V30 2826 H 277.849 2.92838 -0.804957 0
M  V30 2827 H 275.434 1.42175 -0.458966 0
M  V30 2828 H 277.316 3.9689 1.41621 0
M  V30 2829 H 275.991 2.79333 1.6357 0
M  V30 2830 H 274.898 3.70833 -0.493328 0
M  V30 2831 H 276.231 4.88157 -0.629547 0
M  V30 2832 N 277.883 0.443576 1.51229 0
M  V30 2833 C 278.83 -0.364716 2.279 0
M  V30 2834 C 279.8 -1.0114 1.31757 0
M  V30 2835 O 280.985 -1.02912 1.60667 0
M  V30 2836 C 278.125 -1.45644 3.12861 0
M  V30 2837 C 277.238 -0.827269 4.24005 0
M  V30 2838 C 276.373 -1.89456 4.96266 0
M  V30 2839 C 275.412 -1.24416 5.99322 0
M  V30 2840 N 274.549 -2.25309 6.64966 0
M  V30 2841 H 279.389 0.295464 2.96532 0
M  V30 2842 H 276.926 0.157554 1.46254 0
M  V30 2843 H 278.884 -2.10076 3.6045 0
M  V30 2844 H 277.514 -2.08616 2.46331 0
M  V30 2845 H 276.566 -0.0710839 3.80334 0
M  V30 2846 H 277.878 -0.312481 4.9782 0
M  V30 2847 H 277.032 -2.61535 5.47434 0
M  V30 2848 H 275.771 -2.4431 4.22095 0
M  V30 2849 H 274.776 -0.508868 5.4744 0
M  V30 2850 H 276.001 -0.702882 6.75453 0
M  V30 2851 H 273.947 -2.79231 5.93604 0
M  V30 2852 H 273.864 -1.78739 7.34567 0
M  V30 2853 H 275.132 -2.96853 7.20763 0
M  V30 2854 N 279.361 -1.56624 0.175154 0
M  V30 2855 C 280.308 -2.18149 -0.753634 0
M  V30 2856 C 281.278 -1.12265 -1.22417 0
M  V30 2857 O 282.463 -1.40432 -1.29165 0
M  V30 2858 C 279.603 -2.82933 -1.97592 0
M  V30 2859 C 278.716 -4.03289 -1.5486 0
M  V30 2860 C 277.851 -4.55988 -2.72485 0
M  V30 2861 C 276.89 -5.68746 -2.26262 0
M  V30 2862 N 276.027 -6.15938 -3.36994 0
M  V30 2863 H 280.867 -2.9717 -0.222195 0
M  V30 2864 H 278.404 -1.46774 -0.0979422 0
M  V30 2865 H 280.362 -3.18653 -2.69288 0
M  V30 2866 H 278.992 -2.06509 -2.481 0
M  V30 2867 H 278.044 -3.73364 -0.728246 0
M  V30 2868 H 279.356 -4.849 -1.16933 0
M  V30 2869 H 278.51 -4.9391 -3.52332 0
M  V30 2870 H 277.249 -3.73443 -3.13674 0
M  V30 2871 H 276.254 -5.30372 -1.44863 0
M  V30 2872 H 277.479 -6.53095 -1.86127 0
M  V30 2873 H 275.425 -5.36321 -3.77751 0
M  V30 2874 H 275.342 -6.92548 -3.03172 0
M  V30 2875 H 276.61 -6.58511 -4.17114 0
M  V30 2876 N 280.839 0.0985539 -1.57292 0
M  V30 2877 C 282.079 0.808332 -1.87737 0
M  V30 2878 C 282.443 1.7607 -0.76572 0
M  V30 2879 O 283.644 2.51358 -0.952499 0
M  V30 2880 C 281.915 1.52093 -3.23423 0
M  V30 2881 S 283.474 2.26947 -3.75554 0
M  V30 2882 H 280.292 0.269377 -0.657995 0
M  V30 2883 H 282.894 0.0656269 -1.9539 0
M  V30 2884 H 281.598 0.81363 -4.02254 0
M  V30 2885 H 281.129 2.30361 -3.189 0
M  V30 2886 H 283.144 3.53027 -3.48692 0
M  V30 2887 N 282.317 1.53212 0.369288 0
M  V30 2888 C 283.565 1.68881 1.11012 0
M  V30 2889 C 283.886 0.441285 1.89941 0
M  V30 2890 O 283.156 -0.544623 1.88177 0
M  V30 2891 H 281.736 0.622569 0.412816 0
M  V30 2892 H 284.398 1.90391 0.416802 0
M  V30 2893 H 283.494 2.54822 1.80201 0
M  V30 2894 N 283.795 -0.628877 1.44509 0
M  V30 2895 C 284.745 -1.7345 1.47983 0
M  V30 2896 C 285.729 -1.5715 0.345373 0
M  V30 2897 O 286.921 -1.66848 0.590829 0
M  V30 2898 C 284.05 -3.12143 1.42904 0
M  V30 2899 C 283.136 -3.33906 2.61472 0
M  V30 2900 N 283.527 -3.26024 3.86706 0
M  V30 2901 C 281.825 -3.64709 2.56716 0
M  V30 2902 C 282.526 -3.48536 4.65722 0
M  V30 2903 N 281.502 -3.71517 3.96832 0
M  V30 2904 H 285.304 -1.65818 2.42655 0
M  V30 2905 H 282.818 -0.831419 1.39503 0
M  V30 2906 H 284.815 -3.91433 1.43476 0
M  V30 2907 H 283.475 -3.2094 0.492717 0
M  V30 2908 H 284.486 -3.04893 4.18641 0
M  V30 2909 H 281.163 -3.80473 1.71891 0
M  V30 2910 H 282.553 -3.48016 5.74747 0
M  V30 2911 N 285.273 -1.31445 -0.869486 0
M  V30 2912 C 286.203 -1.21727 -1.99261 0
M  V30 2913 C 287.184 -0.104359 -1.6978 0
M  V30 2914 O 288.369 -0.289038 -1.92037 0
M  V30 2915 C 285.499 -0.924317 -3.34774 0
M  V30 2916 C 284.453 -1.99685 -3.78563 0
M  V30 2917 C 283.779 -1.55658 -5.11541 0
M  V30 2918 C 285.079 -3.41003 -3.95619 0
M  V30 2919 H 286.773 -2.1569 -2.07649 0
M  V30 2920 H 284.319 -1.03839 -0.997675 0
M  V30 2921 H 286.272 -0.842934 -4.12883 0
M  V30 2922 H 284.996 0.0509793 -3.2656 0
M  V30 2923 H 283.655 -2.06813 -3.02694 0
M  V30 2924 H 283.303 -0.569132 -4.9977 0
M  V30 2925 H 283.003 -2.27409 -5.41811 0
M  V30 2926 H 284.527 -1.48928 -5.92159 0
M  V30 2927 H 285.941 -3.36547 -4.64122 0
M  V30 2928 H 284.338 -4.10975 -4.37286 0
M  V30 2929 H 285.408 -3.81754 -2.98985 0
M  V30 2930 N 286.751 1.08385 -1.14413 0
M  V30 2931 C 287.999 1.80419 -0.910679 0
M  V30 2932 C 288.32 1.86658 0.564243 0
M  V30 2933 O 287.59 1.35985 1.41014 0
M  V30 2934 H 286.17 0.668204 -0.333934 0
M  V30 2935 H 288.832 1.31037 -1.44275 0
M  V30 2936 H 287.928 2.83238 -1.31082 0
M  V30 2937 N 288.23 0.939286 1.26551 0
M  V30 2938 C 289.478 0.58469 1.93457 0
M  V30 2939 C 289.799 -0.878774 1.74076 0
M  V30 2940 O 289.069 -1.62421 1.09528 0
M  V30 2941 H 287.649 0.21325 0.715914 0
M  V30 2942 H 290.311 1.1942 1.54029 0
M  V30 2943 H 289.407 0.800849 3.0165 0
M  V30 2944 N 289.708 -1.40897 0.706093 0
M  V30 2945 C 290.655 -2.30751 0.0474474 0
M  V30 2946 C 291.625 -1.47678 -0.76029 0
M  V30 2947 O 292.81 -1.76441 -0.726177 0
M  V30 2948 C 289.95 -3.33815 -0.875309 0
M  V30 2949 C 289.063 -4.31961 -0.0580623 0
M  V30 2950 C 288.198 -5.22093 -0.979425 0
M  V30 2951 C 287.237 -6.11902 -0.155706 0
M  V30 2952 N 286.374 -6.94482 -1.03144 0
M  V30 2953 H 291.214 -2.86513 0.819413 0
M  V30 2954 H 288.751 -1.41102 0.415783 0
M  V30 2955 H 290.709 -3.92129 -1.42446 0
M  V30 2956 H 289.339 -2.79579 -1.61356 0
M  V30 2957 H 288.391 -3.75507 0.608147 0
M  V30 2958 H 289.703 -4.95415 0.580082 0
M  V30 2959 H 288.857 -5.85292 -1.59744 0
M  V30 2960 H 287.596 -4.5889 -1.65141 0
M  V30 2961 H 286.601 -5.47742 0.475309 0
M  V30 2962 H 287.826 -6.77162 0.512635 0
M  V30 2963 H 285.772 -6.33877 -1.68924 0
M  V30 2964 H 285.689 -7.54665 -0.449108 0
M  V30 2965 H 286.957 -7.6214 -1.63593 0
M  V30 2966 N 291.186 -0.45159 -1.50991 0
M  V30 2967 C 292.432 0.110237 -2.025 0
M  V30 2968 C 292.765 1.41109 -1.33424 0
M  V30 2969 O 292.04 1.89135 -0.453659 0
M  V30 2970 C 292.323 0.314271 -3.58726 0
M  V30 2971 C 292.176 -1.00623 -4.38401 0
M  V30 2972 C 293.495 1.07767 -4.26702 0
M  V30 2973 H 290.614 0.0385897 -0.735989 0
M  V30 2974 H 293.256 -0.593374 -1.80497 0
M  V30 2975 H 291.406 0.913601 -3.77605 0
M  V30 2976 H 293.078 -1.64064 -4.31139 0
M  V30 2977 H 291.321 -1.6075 -4.02917 0
M  V30 2978 H 291.992 -0.817341 -5.45915 0
M  V30 2979 H 294.468 0.56986 -4.12179 0
M  V30 2980 H 293.344 1.18921 -5.35863 0
M  V30 2981 H 293.605 2.10939 -3.88532 0
M  V30 2982 N 292.664 1.56529 -0.183458 0
M  V30 2983 C 293.594 2.21549 0.737456 0
M  V30 2984 C 294.575 1.17489 1.23005 0
M  V30 2985 O 295.76 1.45959 1.281 0
M  V30 2986 C 292.89 2.86575 1.96194 0
M  V30 2987 C 291.844 3.96778 1.60473 0
M  V30 2988 C 291.17 4.48911 2.90487 0
M  V30 2989 C 292.47 5.15767 0.823497 0
M  V30 2990 H 294.164 2.98761 0.195453 0
M  V30 2991 H 291.71 1.43702 0.0925686 0
M  V30 2992 H 293.663 3.30739 2.61131 0
M  V30 2993 H 292.387 2.06749 2.52828 0
M  V30 2994 H 291.046 3.53286 0.978997 0
M  V30 2995 H 290.694 3.65862 3.45186 0
M  V30 2996 H 290.394 5.23265 2.67335 0
M  V30 2997 H 291.918 4.95771 3.56432 0
M  V30 2998 H 293.332 5.56549 1.37571 0
M  V30 2999 H 291.729 5.96114 0.690551 0
M  V30 3000 H 292.799 4.84574 -0.177782 0
M  V30 3001 N 294.142 -0.090211 1.57342 0
M  V30 3002 C 295.391 -0.791531 1.8552 0
M  V30 3003 C 295.704 -1.79659 0.773441 0
M  V30 3004 O 296.91 -2.54616 0.942497 0
M  V30 3005 C 295.366 -1.45856 3.2902 0
M  V30 3006 C 294.974 -0.493017 4.45279 0
M  V30 3007 C 296.718 -2.14332 3.66418 0
M  V30 3008 C 294.625 -1.16491 5.79814 0
M  V30 3009 H 293.555 -0.299356 0.692027 0
M  V30 3010 H 296.206 -0.0445343 1.83446 0
M  V30 3011 H 294.588 -2.25318 3.2565 0
M  V30 3012 H 295.762 0.270464 4.60006 0
M  V30 3013 H 294.077 0.0863061 4.16311 0
M  V30 3014 H 296.674 -2.65344 4.64216 0
M  V30 3015 H 297.017 -2.93447 2.95287 0
M  V30 3016 H 297.55 -1.41724 3.71698 0
M  V30 3017 H 294.289 -0.41447 6.54188 0
M  V30 3018 H 293.809 -1.8997 5.68921 0
M  V30 3019 H 295.488 -1.69001 6.24538 0
M  V30 3020 N 295.62 -1.53406 -0.361157 0
M  V30 3021 C 297.031 -1.61442 -0.937728 0
M  V30 3022 C 297.382 -0.48461 -1.90121 0
M  V30 3023 O 296.507 0.388312 -2.12888 0
M  V30 3024 C 297.102 -2.92624 -1.70753 0
M  V30 3025 C 295.661 -3.02981 -2.23337 0
M  V30 3026 C 294.808 -2.5677 -1.04712 0
M  V30 3027 H 297.759 -1.58083 -0.139816 0
M  V30 3028 H 297.78 -2.80675 -2.56908 0
M  V30 3029 H 297.292 -3.74834 -1.00604 0
M  V30 3030 H 295.393 -2.25368 -2.96715 0
M  V30 3031 H 295.506 -4.0814 -2.50916 0
M  V30 3032 H 293.87 -2.11752 -1.41539 0
M  V30 3033 H 294.653 -3.41402 -0.360539 0
M  V30 3034 N 297.098 0.621204 -1.44841 0
M  V30 3035 C 298.326 1.40752 -1.51646 0
M  V30 3036 C 298.741 1.88246 -0.144549 0
M  V30 3037 O 298.098 1.61422 0.851416 0
M  V30 3038 C 298.149 2.62119 -2.4895 0
M  V30 3039 O 297.87 2.16602 -3.80808 0
M  V30 3040 C 299.371 3.55135 -2.65319 0
M  V30 3041 H 296.591 0.431325 -0.514004 0
M  V30 3042 H 299.135 0.758835 -1.899 0
M  V30 3043 H 297.29 3.23058 -2.13805 0
M  V30 3044 H 297.704 2.95358 -4.33433 0
M  V30 3045 H 299.178 4.36874 -3.37409 0
M  V30 3046 H 299.655 4.04592 -1.70886 0
M  V30 3047 H 300.261 3.00058 -3.01405 0
M  V30 3048 N 298.576 1.31904 0.862503 0
M  V30 3049 C 299.508 1.16005 1.97675 0
M  V30 3050 C 300.521 0.0971234 1.6251 0
M  V30 3051 O 301.71 0.345337 1.75128 0
M  V30 3052 C 298.81 0.751791 3.30456 0
M  V30 3053 C 297.983 1.90133 3.93914 0
M  V30 3054 C 297.042 1.4779 5.05019 0
M  V30 3055 O 296.068 2.18872 5.25437 0
M  V30 3056 N 297.27 0.369491 5.79323 0
M  V30 3057 H 300.035 2.11982 2.11857 0
M  V30 3058 H 297.596 1.24337 1.03691 0
M  V30 3059 H 299.588 0.451084 4.02178 0
M  V30 3060 H 298.158 -0.116593 3.12382 0
M  V30 3061 H 297.378 2.36896 3.15078 0
M  V30 3062 H 298.666 2.67111 4.33047 0
M  V30 3063 H 298.064 -0.222299 5.65263 0
M  V30 3064 H 296.621 0.128354 6.51674 0
M  V30 3065 N 300.054 -1.07777 1.14986 0
M  V30 3066 C 300.986 -2.14769 0.800436 0
M  V30 3067 C 301.999 -1.61739 -0.185595 0
M  V30 3068 O 303.188 -1.78462 0.0370358 0
M  V30 3069 C 300.288 -3.38481 0.168533 0
M  V30 3070 C 299.461 -4.20876 1.1909 0
M  V30 3071 C 298.52 -5.22976 0.581575 0
M  V30 3072 O 297.546 -5.55388 1.24633 0
M  V30 3073 N 298.748 -5.76976 -0.638706 0
M  V30 3074 H 301.513 -2.45348 1.72118 0
M  V30 3075 H 299.074 -1.23645 1.04515 0
M  V30 3076 H 301.066 -4.03916 -0.251764 0
M  V30 3077 H 299.636 -3.05651 -0.655467 0
M  V30 3078 H 298.856 -3.51322 1.78791 0
M  V30 3079 H 300.144 -4.7274 1.88133 0
M  V30 3080 H 299.542 -5.52886 -1.19723 0
M  V30 3081 H 298.099 -6.44061 -1.00142 0
M  V30 3082 N 301.532 -0.945985 -1.26051 0
M  V30 3083 C 302.482 -0.430164 -2.23905 0
M  V30 3084 C 303.466 0.47579 -1.53704 0
M  V30 3085 O 304.658 0.310252 -1.7426 0
M  V30 3086 C 301.787 0.298957 -3.41996 0
M  V30 3087 C 300.873 -0.624566 -4.19476 0
M  V30 3088 N 301.264 -1.75245 -4.74471 0
M  V30 3089 C 299.562 -0.431082 -4.43912 0
M  V30 3090 C 300.263 -2.32834 -5.3307 0
M  V30 3091 N 299.239 -1.61583 -5.1903 0
M  V30 3092 H 303.041 -1.29107 -2.64024 0
M  V30 3093 H 300.555 -0.802428 -1.41191 0
M  V30 3094 H 302.552 0.685565 -4.11225 0
M  V30 3095 H 301.212 1.15657 -3.03403 0
M  V30 3096 H 302.223 -2.13449 -4.71868 0
M  V30 3097 H 298.9 0.384364 -4.15727 0
M  V30 3098 H 300.29 -3.27893 -5.86461 0
M  V30 3099 N 303.011 1.40521 -0.713556 0
M  V30 3100 C 304.26 2.00155 -0.249192 0
M  V30 3101 C 304.573 1.57224 1.16362 0
M  V30 3102 O 305.779 2.09542 1.72639 0
M  V30 3103 C 304.235 3.5773 -0.3946 0
M  V30 3104 C 303.843 4.09635 -1.81392 0
M  V30 3105 C 305.587 4.24499 0.00907364 0
M  V30 3106 C 303.494 5.59707 -1.91003 0
M  V30 3107 H 302.424 0.74868 -0.0894114 0
M  V30 3108 H 305.075 1.60784 -0.884352 0
M  V30 3109 H 303.457 3.94792 0.30911 0
M  V30 3110 H 304.631 3.83955 -2.54785 0
M  V30 3111 H 302.946 3.55456 -2.16888 0
M  V30 3112 H 305.543 5.34683 -0.0420404 0
M  V30 3113 H 305.886 4.02824 1.05065 0
M  V30 3114 H 306.419 3.92536 -0.645007 0
M  V30 3115 H 303.158 5.86234 -2.93275 0
M  V30 3116 H 302.678 5.87258 -1.22019 0
M  V30 3117 H 304.357 6.24776 -1.6812 0
M  V30 3118 N 304.489 0.459591 1.5075 0
M  V30 3119 C 305.905 0.113092 1.59199 0
M  V30 3120 C 306.105 -1.37951 1.46874 0
M  V30 3121 O 305.161 -2.15168 1.32132 0
M  V30 3122 C 306.474 0.653043 2.93523 0
M  V30 3123 C 308.022 0.615449 3.0689 0
M  V30 3124 C 308.497 1.13275 4.43771 0
M  V30 3125 N 309.988 1.09167 4.50152 0
M  V30 3126 C 310.723 1.46256 5.54434 0
M  V30 3127 N 310.219 1.90739 6.66026 0
M  V30 3128 N 312.012 1.37932 5.44914 0
M  V30 3129 H 304.163 1.43049 1.57005 0
M  V30 3130 H 306.426 0.590861 0.741341 0
M  V30 3131 H 306.132 1.69822 3.07983 0
M  V30 3132 H 306.006 0.0902132 3.77092 0
M  V30 3133 H 308.393 -0.420793 2.92084 0
M  V30 3134 H 308.474 1.21495 2.25106 0
M  V30 3135 H 308.118 2.16757 4.59324 0
M  V30 3136 H 308.048 0.509576 5.24129 0
M  V30 3137 H 310.539 0.76528 3.7007 0
M  V30 3138 H 310.852 2.17218 7.41644 0
M  V30 3139 H 309.197 1.94683 6.67176 0
M  V30 3140 H 312.388 1.0303 4.56621 0
M  V30 3141 H 312.561 1.67164 6.26067 0
M  V30 3142 N 305.967 -1.56429 0.191757 0
M  V30 3143 C 307.195 -2.01867 -0.453586 0
M  V30 3144 C 307.61 -1.07191 -1.5542 0
M  V30 3145 O 306.967 -0.0762108 -1.82341 0
M  V30 3146 C 307.018 -3.47017 -1.013 0
M  V30 3147 O 306.739 -4.38078 0.0437005 0
M  V30 3148 C 308.24 -4.07956 -1.73456 0
M  V30 3149 H 305.46 -0.661211 -0.114199 0
M  V30 3150 H 308.004 -2.02295 0.299483 0
M  V30 3151 H 306.159 -3.47298 -1.71647 0
M  V30 3152 H 306.573 -5.23178 -0.372212 0
M  V30 3153 H 308.047 -5.1138 -2.07833 0
M  V30 3154 H 308.524 -3.51222 -2.63704 0
M  V30 3155 H 309.13 -4.11437 -1.07702 0
M  V30 3156 N 307.445 0.0818655 -1.57387 0
M  V30 3157 C 308.375 1.09885 -2.06028 0
M  V30 3158 C 309.356 1.4098 -0.951774 0
M  V30 3159 O 310.541 1.50781 -1.22387 0
M  V30 3160 C 307.671 2.4151 -2.4958 0
M  V30 3161 C 306.625 2.24792 -3.64215 0
M  V30 3162 C 305.951 3.61712 -3.93787 0
M  V30 3163 C 307.251 1.67749 -4.94629 0
M  V30 3164 H 308.945 0.694128 -2.91243 0
M  V30 3165 H 306.491 0.332448 -1.4011 0
M  V30 3166 H 308.444 3.12939 -2.82219 0
M  V30 3167 H 307.168 2.83943 -1.61381 0
M  V30 3168 H 305.827 1.55807 -3.31843 0
M  V30 3169 H 305.475 4.01697 -3.02735 0
M  V30 3170 H 305.175 3.51368 -4.70971 0
M  V30 3171 H 306.699 4.34587 -4.28913 0
M  V30 3172 H 308.113 2.29032 -5.25564 0
M  V30 3173 H 306.51 1.68128 -5.76067 0
M  V30 3174 H 307.58 0.638059 -4.80684 0
M  V30 3175 N 308.923 1.53595 0.353017 0
M  V30 3176 C 310.151 1.74311 1.1146 0
M  V30 3177 C 310.566 0.477854 1.82653 0
M  V30 3178 O 309.923 -0.549977 1.74016 0
M  V30 3179 C 309.974 2.91694 2.13534 0
M  V30 3180 O 309.695 4.13325 1.45238 0
M  V30 3181 C 311.196 3.24384 3.02142 0
M  V30 3182 H 308.416 0.582669 0.332773 0
M  V30 3183 H 310.96 2.00386 0.408107 0
M  V30 3184 H 309.115 2.67977 2.79763 0
M  V30 3185 H 309.529 4.79148 2.13349 0
M  V30 3186 H 311.003 4.09893 3.69718 0
M  V30 3187 H 311.48 2.40282 3.67643 0
M  V30 3188 H 312.086 3.50073 2.41514 0
M  V30 3189 N 310.401 -0.613514 1.45168 0
M  V30 3190 C 311.626 -1.40437 1.52618 0
M  V30 3191 C 312.051 -1.87438 0.157707 0
M  V30 3192 O 311.409 -1.59791 -0.856537 0
M  V30 3193 C 311.457 -2.58894 2.51011 0
M  V30 3194 O 310.561 -3.59326 2.02382 0
M  V30 3195 H 309.902 -0.419506 0.514695 0
M  V30 3196 H 312.432 -0.747215 1.90467 0
M  V30 3197 H 312.442 -3.06214 2.69624 0
M  V30 3198 H 311.117 -2.24032 3.50403 0
M  V30 3199 H 309.694 -3.18695 1.93618 0
M  V30 3200 N 311.879 -1.3236 -0.855495 0
M  V30 3201 C 312.842 -1.21164 -1.94556 0
M  V30 3202 C 313.842 -0.134908 -1.60233 0
M  V30 3203 O 315.032 -0.385249 -1.69887 0
M  V30 3204 C 312.164 -0.863192 -3.29791 0
M  V30 3205 H 313.357 -2.18038 -2.05911 0
M  V30 3206 H 310.91 -1.16179 -1.04557 0
M  V30 3207 H 311.645 0.103769 -3.24134 0
M  V30 3208 H 311.43 -1.64166 -3.56078 0
M  V30 3209 H 312.92 -0.809156 -4.09686 0
M  V30 3210 N 313.357 1.07166 -1.15556 0
M  V30 3211 C 314.773 1.31899 -0.898603 0
M  V30 3212 C 314.973 1.96333 0.453383 0
M  V30 3213 O 314.029 2.22438 1.19489 0
M  V30 3214 C 315.342 2.20826 -2.04099 0
M  V30 3215 C 316.89 2.34269 -2.07574 0
M  V30 3216 C 317.365 3.26546 -3.21141 0
M  V30 3217 N 318.856 3.34127 -3.20801 0
M  V30 3218 C 319.591 4.05595 -4.05315 0
M  V30 3219 N 319.087 4.79661 -4.99897 0
M  V30 3220 N 320.88 4.01555 -3.93332 0
M  V30 3221 H 313.031 0.637302 -2.02613 0
M  V30 3222 H 315.294 0.343468 -0.883591 0
M  V30 3223 H 315 1.80744 -3.01703 0
M  V30 3224 H 314.874 3.21364 -1.97496 0
M  V30 3225 H 317.261 2.73603 -1.10568 0
M  V30 3226 H 317.342 1.33429 -2.18244 0
M  V30 3227 H 316.986 2.87931 -4.184 0
M  V30 3228 H 316.916 4.27345 -3.07708 0
M  V30 3229 H 319.407 2.81336 -2.52306 0
M  V30 3230 H 319.72 5.31694 -5.60822 0
M  V30 3231 H 318.065 4.78671 -5.03884 0
M  V30 3232 H 321.256 3.42806 -3.18751 0
M  V30 3233 H 321.429 4.56987 -4.5942 0
M  V30 3234 N 314.835 0.952656 1.25548 0
M  V30 3235 C 315.765 0.489287 2.28316 0
M  V30 3236 C 316.746 -0.463359 1.63667 0
M  V30 3237 O 317.931 -0.36274 1.90782 0
M  V30 3238 C 315.061 -0.235603 3.465 0
M  V30 3239 C 314.015 0.631593 4.23314 0
M  V30 3240 C 313.341 -0.223923 5.34231 0
M  V30 3241 C 314.641 1.90871 4.86174 0
M  V30 3242 H 316.335 1.34822 2.67326 0
M  V30 3243 H 313.881 0.649728 1.28509 0
M  V30 3244 H 315.834 -0.570882 4.17515 0
M  V30 3245 H 314.558 -1.12877 3.06474 0
M  V30 3246 H 313.217 0.949929 3.54079 0
M  V30 3247 H 312.865 -1.11678 4.90446 0
M  V30 3248 H 312.565 0.35299 5.86539 0
M  V30 3249 H 314.089 -0.554214 6.0808 0
M  V30 3250 H 315.503 1.63997 5.49343 0
M  V30 3251 H 313.9 2.43112 5.4865 0
M  V30 3252 H 314.97 2.61304 4.08471 0
M  V30 3253 N 316.313 -1.40141 0.720998 0
M  V30 3254 C 317.276 -2.29058 0.0805834 0
M  V30 3255 C 318.276 -1.45632 -0.681758 0
M  V30 3256 O 319.466 -1.6648 -0.512856 0
M  V30 3257 C 316.598 -3.28925 -0.895593 0
M  V30 3258 H 317.791 -2.87191 0.863793 0
M  V30 3259 H 315.344 -1.48553 0.485975 0
M  V30 3260 H 316.079 -2.75822 -1.70566 0
M  V30 3261 H 315.864 -3.90519 -0.351766 0
M  V30 3262 H 317.354 -3.95494 -1.34069 0
M  V30 3263 N 317.792 -0.46758 -1.50504 0
M  V30 3264 C 318.755 0.317059 -2.26996 0
M  V30 3265 C 319.755 0.923513 -1.31635 0
M  V30 3266 O 320.945 0.793239 -1.55091 0
M  V30 3267 C 318.077 1.45134 -3.08462 0
M  V30 3268 H 319.27 -0.353723 -2.97807 0
M  V30 3269 H 316.823 -0.221545 -1.54722 0
M  V30 3270 H 317.558 2.15728 -2.4214 0
M  V30 3271 H 317.343 1.02232 -3.78538 0
M  V30 3272 H 318.833 2.00493 -3.66323 0
M  V30 3273 N 319.27 1.56325 -0.20005 0
M  V30 3274 C 320.547 1.89484 0.48529 0
M  V30 3275 C 320.927 1.1143 1.79294 0
M  V30 3276 O 320.275 0.216919 2.27468 0
M  V30 3277 C 320.485 3.41923 0.699243 0
M  V30 3278 C 321.833 4.12256 1.01638 0
M  V30 3279 O 322.857 3.47402 0.786792 0
M  V30 3280 O 321.716 5.26887 1.45095 0
M  V30 3281 H 318.81 0.787144 0.253639 0
M  V30 3282 H 321.356 1.67985 -0.240633 0
M  V30 3283 H 320.128 3.90658 -0.224008 0
M  V30 3284 H 319.751 3.69131 1.47744 0
M  V30 3285 N 320.748 -0.0735177 1.57428 0
M  V30 3286 C 321.994 -0.774145 1.87443 0
M  V30 3287 C 322.327 -1.77311 0.792103 0
M  V30 3288 O 321.602 -1.93492 -0.197793 0
M  V30 3289 C 321.885 -1.48367 3.28115 0
M  V30 3290 C 321.738 -0.501227 4.46999 0
M  V30 3291 C 323.057 -2.429 3.66998 0
M  V30 3292 H 320.176 -0.279971 0.681752 0
M  V30 3293 H 322.818 -0.0373616 1.89963 0
M  V30 3294 H 320.968 -2.11171 3.26097 0
M  V30 3295 H 322.64 0.121468 4.6114 0
M  V30 3296 H 320.883 0.183593 4.33411 0
M  V30 3297 H 321.554 -1.03526 5.42205 0
M  V30 3298 H 324.03 -1.90175 3.70098 0
M  V30 3299 H 322.906 -2.89549 4.66318 0
M  V30 3300 H 323.167 -3.27628 2.96837 0
M  V30 3301 N 322.226 -1.5378 -0.344866 0
M  V30 3302 C 323.189 -1.80981 -1.40637 0
M  V30 3303 C 324.189 -0.680816 -1.45676 0
M  V30 3304 O 325.379 -0.949095 -1.46075 0
M  V30 3305 C 322.511 -1.95063 -2.79577 0
M  V30 3306 H 323.704 -2.75803 -1.17783 0
M  V30 3307 H 321.257 -1.45173 -0.579181 0
M  V30 3308 H 321.992 -1.02379 -3.07716 0
M  V30 3309 H 321.777 -2.77198 -2.77315 0
M  V30 3310 H 323.267 -2.17629 -3.56409 0
M  V30 3311 N 323.704 0.605807 -1.45491 0
M  V30 3312 C 324.981 1.36522 -1.40075 0
M  V30 3313 C 325.361 2.10976 -0.0722744 0
M  V30 3314 O 324.709 2.08007 0.945808 0
M  V30 3315 C 324.919 2.31056 -2.61561 0
M  V30 3316 C 326.267 2.93608 -3.06724 0
M  V30 3317 O 327.291 2.41376 -2.61946 0
M  V30 3318 O 326.15 3.88421 -3.84437 0
M  V30 3319 H 323.244 0.612248 -0.555951 0
M  V30 3320 H 325.79 0.628747 -1.57623 0
M  V30 3321 H 324.562 1.75311 -3.49831 0
M  V30 3322 H 324.185 3.12081 -2.46356 0
M  V30 3323 N 325.182 1.32811 0.848464 0
M  V30 3324 C 326.428 1.23907 1.60546 0
M  V30 3325 C 326.761 -0.197161 1.93197 0
M  V30 3326 O 326.036 -1.13596 1.5788 0
M  V30 3327 C 326.319 2.10489 2.92175 0
M  V30 3328 C 326.172 3.62522 2.66266 0
M  V30 3329 C 327.491 1.97075 3.93509 0
M  V30 3330 H 324.61 0.451459 0.58254 0
M  V30 3331 H 327.252 1.62818 0.979296 0
M  V30 3332 H 325.402 1.77434 3.45614 0
M  V30 3333 H 327.074 4.05821 2.19334 0
M  V30 3334 H 325.317 3.84879 2.00126 0
M  V30 3335 H 325.988 4.18437 3.6002 0
M  V30 3336 H 328.464 2.26045 3.49346 0
M  V30 3337 H 327.34 2.59923 4.83457 0
M  V30 3338 H 327.601 0.940186 4.31987 0
M  V30 3339 N 326.66 -1.06551 1.16123 0
M  V30 3340 C 328.071 -1.60768 0.949232 0
M  V30 3341 C 328.422 -1.89523 -0.507508 0
M  V30 3342 O 327.547 -1.66671 -1.38021 0
M  V30 3343 C 328.142 -2.92086 1.71671 0
M  V30 3344 C 326.701 -3.43015 1.54977 0
M  V30 3345 C 325.848 -2.16947 1.72711 0
M  V30 3346 H 328.799 -0.895354 1.31031 0
M  V30 3347 H 328.82 -3.6138 1.19099 0
M  V30 3348 H 328.332 -2.71127 2.7769 0
M  V30 3349 H 326.433 -3.69039 0.513873 0
M  V30 3350 H 326.546 -4.18516 2.33198 0
M  V30 3351 H 324.91 -2.27041 1.15431 0
M  V30 3352 H 325.693 -1.98473 2.80113 0
M  V30 3353 N 328.138 -0.959301 -1.25041 0
M  V30 3354 C 329.366 -0.633949 -1.96948 0
M  V30 3355 C 329.781 0.794916 -1.7125 0
M  V30 3356 O 329.138 1.53231 -0.991287 0
M  V30 3357 C 329.189 -0.888805 -3.50403 0
M  V30 3358 O 328.91 -2.26149 -3.75218 0
M  V30 3359 C 330.411 -0.576482 -4.39536 0
M  V30 3360 H 327.631 -0.237263 -0.627652 0
M  V30 3361 H 330.175 -1.28495 -1.59089 0
M  V30 3362 H 328.33 -0.284145 -3.86357 0
M  V30 3363 H 328.744 -2.33514 -4.6965 0
M  V30 3364 H 330.218 -0.805314 -5.46094 0
M  V30 3365 H 330.695 0.489075 -4.36468 0
M  V30 3366 H 331.301 -1.16067 -4.09156 0
M  V30 3367 N 329.616 1.39756 -0.72842 0
M  V30 3368 C 330.862 2.00942 -0.273892 0
M  V30 3369 C 331.195 1.57656 1.13394 0
M  V30 3370 O 330.47 0.802434 1.77176 0
M  V30 3371 C 330.753 3.58211 -0.368346 0
M  V30 3372 C 330.606 4.11534 -1.81548 0
M  V30 3373 C 331.925 4.39372 0.253054 0
M  V30 3374 H 329.044 0.730047 -0.100996 0
M  V30 3375 H 331.686 1.66056 -0.923337 0
M  V30 3376 H 329.836 3.88061 0.184588 0
M  V30 3377 H 331.508 3.92431 -2.42478 0
M  V30 3378 H 329.751 3.65341 -2.33898 0
M  V30 3379 H 330.422 5.20682 -1.83288 0
M  V30 3380 H 332.898 4.15527 -0.218224 0
M  V30 3381 H 331.774 5.48677 0.156585 0
M  V30 3382 H 332.035 4.21358 1.33826 0
M  V30 3383 N 331.094 0.475555 1.50254 0
M  V30 3384 C 332.34 -0.0780073 2.0265 0
M  V30 3385 C 332.673 -1.38968 1.35652 0
M  V30 3386 O 331.948 -1.8839 0.483691 0
M  V30 3387 C 332.231 -0.257161 3.59181 0
M  V30 3388 C 332.084 1.07585 4.36744 0
M  V30 3389 C 333.403 -1.00965 4.28362 0
M  V30 3390 H 330.522 -0.0268758 0.73651 0
M  V30 3391 H 333.164 0.622015 1.7953 0
M  V30 3392 H 331.314 -0.853412 3.79011 0
M  V30 3393 H 332.986 1.70902 4.28474 0
M  V30 3394 H 331.229 1.6714 4.00308 0
M  V30 3395 H 331.9 0.904088 5.44546 0
M  V30 3396 H 334.376 -0.504214 4.13034 0
M  V30 3397 H 333.252 -1.10381 5.37687 0
M  V30 3398 H 333.513 -2.04731 3.91839 0
M  V30 3399 N 332.573 -1.56217 0.208337 0
M  V30 3400 C 333.822 -1.97124 -0.427204 0
M  V30 3401 C 334.135 -1.09859 -1.61835 0
M  V30 3402 O 335.341 -1.40606 -2.32255 0
M  V30 3403 C 333.797 -3.50633 -0.811442 0
M  V30 3404 C 333.405 -4.46582 0.35615 0
M  V30 3405 C 335.149 -4.00282 -1.41332 0
M  V30 3406 C 333.056 -5.91379 -0.0497852 0
M  V30 3407 H 331.986 -0.736086 -0.163381 0
M  V30 3408 H 334.637 -1.8099 0.302456 0
M  V30 3409 H 333.019 -3.62319 -1.59815 0
M  V30 3410 H 334.193 -4.46636 1.1337 0
M  V30 3411 H 332.508 -4.07202 0.870396 0
M  V30 3412 H 335.105 -5.0595 -1.72972 0
M  V30 3413 H 335.448 -3.45359 -2.32449 0
M  V30 3414 H 335.981 -3.91764 -0.690323 0
M  V30 3415 H 332.72 -6.50255 0.827529 0
M  V30 3416 H 332.24 -5.94549 -0.791926 0
M  V30 3417 H 333.919 -6.45209 -0.481042 0
M  V30 3418 N 334.051 0.0651679 -1.57465 0
M  V30 3419 C 335.014 1.06117 -2.03155 0
M  V30 3420 C 336.014 1.31204 -0.929632 0
M  V30 3421 O 337.204 1.26813 -1.19432 0
M  V30 3422 C 334.336 2.4032 -2.41783 0
M  V30 3423 H 335.529 0.667231 -2.92383 0
M  V30 3424 H 333.082 0.311075 -1.53173 0
M  V30 3425 H 333.817 2.84532 -1.55601 0
M  V30 3426 H 333.602 2.23451 -3.22199 0
M  V30 3427 H 335.092 3.11898 -2.77685 0
M  V30 3428 N 335.529 1.53961 0.336706 0
M  V30 3429 C 336.945 1.44378 0.680241 0
M  V30 3430 C 337.145 0.606034 1.9217 0
M  V30 3431 O 336.201 0.099688 2.52303 0
M  V30 3432 C 337.514 2.87945 0.8665 0
M  V30 3433 C 339.062 2.97763 0.964682 0
M  V30 3434 C 339.537 4.42453 1.18321 0
M  V30 3435 N 341.028 4.46008 1.25025 0
M  V30 3436 C 341.763 5.55102 1.43697 0
M  V30 3437 N 341.259 6.7419 1.59498 0
M  V30 3438 N 343.052 5.42727 1.463 0
M  V30 3439 H 335.203 2.06918 -0.479455 0
M  V30 3440 H 337.466 0.935634 -0.152619 0
M  V30 3441 H 337.172 3.51691 0.0256937 0
M  V30 3442 H 337.046 3.33293 1.76623 0
M  V30 3443 H 339.433 2.34153 1.796 0
M  V30 3444 H 339.514 2.55766 0.041708 0
M  V30 3445 H 339.158 5.06645 0.356788 0
M  V30 3446 H 339.088 4.82048 2.11985 0
M  V30 3447 H 341.579 3.60196 1.14312 0
M  V30 3448 H 341.892 7.53095 1.734 0
M  V30 3449 H 340.237 6.77123 1.56621 0
M  V30 3450 H 343.428 4.48647 1.33543 0
M  V30 3451 H 343.601 6.27806 1.6051 0
M  V30 3452 N 337.007 -0.598083 1.45811 0
M  V30 3453 C 338.235 -1.38322 1.53866 0
M  V30 3454 C 338.65 -1.87992 0.174479 0
M  V30 3455 O 338.007 -1.62756 -0.825627 0
M  V30 3456 C 338.058 -2.58125 2.53089 0
M  V30 3457 O 337.779 -2.10516 3.84206 0
M  V30 3458 C 339.28 -3.50869 2.70935 0
M  V30 3459 H 336.5 -0.423093 0.520801 0
M  V30 3460 H 339.044 -0.728527 1.91083 0
M  V30 3461 H 337.199 -3.19615 2.18917 0
M  V30 3462 H 337.613 -2.88425 4.38077 0
M  V30 3463 H 339.087 -4.31451 3.44317 0
M  V30 3464 H 339.564 -4.01822 1.77301 0
M  V30 3465 H 340.17 -2.95225 3.06141 0
M  V30 3466 N 338.485 -1.33259 -0.841409 0
M  V30 3467 C 339.762 -1.15174 -1.58096 0
M  V30 3468 C 340.142 0.282858 -2.09196 0
M  V30 3469 O 339.49 1.28151 -1.89181 0
M  V30 3470 C 339.7 -2.1907 -2.71679 0
M  V30 3471 C 341.048 -2.53093 -3.40924 0
M  V30 3472 O 342.072 -2.17717 -2.81918 0
M  V30 3473 O 340.931 -3.1379 -4.47435 0
M  V30 3474 H 338.025 -0.445303 -0.696875 0
M  V30 3475 H 340.571 -1.44833 -0.884385 0
M  V30 3476 H 339.343 -3.15443 -2.31541 0
M  V30 3477 H 338.966 -1.90481 -3.49002 0
M  V30 3478 N 339.963 1.05934 -1.16686 0
M  V30 3479 C 340.926 2.11669 -0.879144 0
M  V30 3480 C 341.926 1.60294 0.127445 0
M  V30 3481 O 343.116 1.7389 -0.103865 0
M  V30 3482 C 340.248 3.39438 -0.315425 0
M  V30 3483 H 341.441 2.38626 -1.81653 0
M  V30 3484 H 338.994 1.22058 -0.976299 0
M  V30 3485 H 339.729 3.18132 0.629468 0
M  V30 3486 H 339.514 3.78034 -1.04079 0
M  V30 3487 H 341.004 4.17391 -0.132189 0
M  V30 3488 N 341.441 0.965919 1.2453 0
M  V30 3489 C 342.351 0.502154 2.29163 0
M  V30 3490 C 343.367 -0.436017 1.68448 0
M  V30 3491 O 344.543 -0.309497 1.99008 0
M  V30 3492 C 341.608 -0.201956 3.46111 0
M  V30 3493 C 340.669 0.775821 4.22232 0
M  V30 3494 C 339.902 0.105217 5.33596 0
M  V30 3495 O 340.125 -1.10683 5.59558 0
M  V30 3496 O 339.059 0.796475 5.96607 0
M  V30 3497 H 342.885 1.37194 2.70946 0
M  V30 3498 H 340.47 0.732875 1.30189 0
M  V30 3499 H 342.352 -0.597564 4.17142 0
M  V30 3500 H 341.027 -1.04673 3.06309 0
M  V30 3501 H 339.934 1.22185 3.53584 0
M  V30 3502 H 341.267 1.58896 4.65846 0
M  V30 3503 N 342.919 -1.39368 0.735821 0
M  V30 3504 C 343.882 -2.2896 0.104874 0
M  V30 3505 C 344.882 -1.46347 -0.666274 0
M  V30 3506 O 346.072 -1.67014 -0.49517 0
M  V30 3507 C 343.204 -3.29857 -0.860656 0
M  V30 3508 H 344.397 -2.86259 0.894205 0
M  V30 3509 H 341.95 -1.48029 0.501704 0
M  V30 3510 H 342.685 -2.77615 -1.67631 0
M  V30 3511 H 342.47 -3.9087 -0.310327 0
M  V30 3512 H 343.96 -3.96893 -1.29867 0
M  V30 3513 N 344.397 -0.483516 -1.5 0
M  V30 3514 C 345.36 0.292965 -2.2732 0
M  V30 3515 C 346.36 0.909499 -1.32608 0
M  V30 3516 O 347.55 0.776745 -1.55924 0
M  V30 3517 C 344.682 1.41854 -3.09984 0
M  V30 3518 H 345.875 -0.385289 -2.97415 0
M  V30 3519 H 343.428 -0.237942 -1.54478 0
M  V30 3520 H 344.163 2.13148 -2.44414 0
M  V30 3521 H 343.948 0.982114 -3.79601 0
M  V30 3522 H 345.438 1.96597 -3.68429 0
M  V30 3523 N 345.875 1.56104 -0.216619 0
M  V30 3524 C 347.103 2.02563 0.421413 0
M  V30 3525 C 347.518 1.0965 1.53695 0
M  V30 3526 O 346.875 0.10521 1.82196 0
M  V30 3527 C 346.926 3.48584 0.957665 0
M  V30 3528 O 346.647 4.37953 -0.113389 0
M  V30 3529 C 348.148 4.10664 1.66943 0
M  V30 3530 H 345.368 0.662944 0.103665 0
M  V30 3531 H 347.912 2.01793 -0.331629 0
M  V30 3532 H 346.067 3.49985 1.661 0
M  V30 3533 H 346.481 5.23704 0.288932 0
M  V30 3534 H 347.955 5.14622 1.99671 0
M  V30 3535 H 348.432 3.55373 2.58083 0
M  V30 3536 H 349.038 4.13098 1.01142 0
M  V30 3537 N 347.353 -0.0568162 1.57498 0
M  V30 3538 C 348.283 -1.06593 2.0775 0
M  V30 3539 C 349.264 -1.39448 0.974082 0
M  V30 3540 O 350.449 -1.48815 1.24771 0
M  V30 3541 C 347.579 -2.37509 2.5339 0
M  V30 3542 C 346.533 -2.1897 3.67745 0
M  V30 3543 C 345.859 -3.55402 3.99492 0
M  V30 3544 C 347.159 -1.59859 4.97235 0
M  V30 3545 H 348.853 -0.647706 2.9231 0
M  V30 3546 H 346.399 -0.310116 1.40621 0
M  V30 3547 H 348.352 -3.08409 2.87162 0
M  V30 3548 H 347.076 -2.8134 1.65878 0
M  V30 3549 H 345.735 -1.50508 3.3428 0
M  V30 3550 H 345.383 -3.9683 3.09088 0
M  V30 3551 H 345.083 -3.43831 4.76502 0
M  V30 3552 H 346.607 -4.27708 4.35773 0
M  V30 3553 H 348.021 -2.20642 5.29141 0
M  V30 3554 H 346.418 -1.58942 5.78669 0
M  V30 3555 H 347.488 -0.561506 4.81638 0
M  V30 3556 N 348.832 -1.54138 -0.328536 0
M  V30 3557 C 350.081 -1.71318 -1.06456 0
M  V30 3558 C 350.394 -0.491109 -1.89334 0
M  V30 3559 O 351.6 -0.54416 -2.65991 0
M  V30 3560 C 350.056 -3.03 -1.94214 0
M  V30 3561 C 349.664 -4.32595 -1.16471 0
M  V30 3562 C 351.408 -3.29544 -2.67583 0
M  V30 3563 C 349.315 -5.55341 -2.03347 0
M  V30 3564 H 348.245 -0.638429 -0.401155 0
M  V30 3565 H 350.896 -1.80633 -0.323106 0
M  V30 3566 H 349.278 -2.87579 -2.72239 0
M  V30 3567 H 350.452 -4.58766 -0.432525 0
M  V30 3568 H 348.767 -4.12777 -0.548063 0
M  V30 3569 H 351.364 -4.18444 -3.3288 0
M  V30 3570 H 351.707 -2.47206 -3.34955 0
M  V30 3571 H 352.24 -3.45809 -1.96623 0
M  V30 3572 H 348.979 -6.40268 -1.40491 0
M  V30 3573 H 348.499 -5.33397 -2.74313 0
M  V30 3574 H 350.178 -5.91557 -2.62049 0
M  V30 3575 N 350.31 0.590341 -1.46126 0
M  V30 3576 C 351.538 1.37504 -1.54597 0
M  V30 3577 C 351.953 1.87897 -0.184447 0
M  V30 3578 O 351.31 1.63192 0.816984 0
M  V30 3579 C 351.361 2.56779 -2.54454 0
M  V30 3580 O 351.082 2.08476 -3.85317 0
M  V30 3581 C 352.583 3.49427 -2.72792 0
M  V30 3582 H 349.803 0.420325 -0.523037 0
M  V30 3583 H 352.347 0.718383 -1.91467 0
M  V30 3584 H 350.502 3.1845 -2.20609 0
M  V30 3585 H 350.916 2.86097 -4.396 0
M  V30 3586 H 352.39 4.29619 -3.466 0
M  V30 3587 H 352.867 4.00876 -1.79429 0
M  V30 3588 H 353.473 2.93598 -3.07702 0
M  V30 3589 N 351.788 1.33704 0.83433 0
M  V30 3590 C 353.013 1.28615 1.62705 0
M  V30 3591 C 353.438 -0.139242 1.87584 0
M  V30 3592 O 352.796 -1.09734 1.4432 0
M  V30 3593 C 352.844 2.07139 2.95171 0
M  V30 3594 O 351.948 1.4331 3.86699 0
M  V30 3595 H 351.289 0.44226 0.49528 0
M  V30 3596 H 353.819 1.76335 1.03766 0
M  V30 3597 H 353.829 2.18073 3.44831 0
M  V30 3598 H 352.504 3.10779 2.76386 0
M  V30 3599 H 351.081 1.4105 3.45195 0
M  V30 3600 N 353.266 -1.05314 1.17247 0
M  V30 3601 C 354.543 -1.75184 0.87005 0
M  V30 3602 C 354.923 -2.01481 -0.629965 0
M  V30 3603 O 354.271 -1.64988 -1.58086 0
M  V30 3604 C 354.481 -3.04594 1.70363 0
M  V30 3605 C 355.829 -3.78567 1.92281 0
M  V30 3606 O 356.853 -3.14461 1.67311 0
M  V30 3607 O 355.712 -4.93755 2.3424 0
M  V30 3608 H 352.806 -0.761729 0.322021 0
M  V30 3609 H 355.352 -1.11493 1.27935 0
M  V30 3610 H 354.124 -2.81201 2.72106 0
M  V30 3611 H 353.747 -3.76022 1.29202 0
M  V30 3612 N 354.744 -0.972509 -1.24016 0
M  V30 3613 C 355.99 -0.637978 -1.92504 0
M  V30 3614 C 356.323 0.825383 -1.75787 0
M  V30 3615 O 355.598 1.59442 -1.11393 0
M  V30 3616 C 355.881 -1.01942 -3.45369 0
M  V30 3617 C 355.734 -2.53983 -3.71231 0
M  V30 3618 C 357.053 -0.55751 -4.36555 0
M  V30 3619 H 354.172 -0.233248 -0.699117 0
M  V30 3620 H 356.814 -1.21238 -1.46292 0
M  V30 3621 H 354.964 -0.530656 -3.84859 0
M  V30 3622 H 356.636 -3.10374 -3.41271 0
M  V30 3623 H 354.879 -2.96968 -3.16216 0
M  V30 3624 H 355.55 -2.75723 -4.78206 0
M  V30 3625 H 358.026 -0.977029 -4.04467 0
M  V30 3626 H 356.902 -0.85292 -5.42233 0
M  V30 3627 H 357.163 0.542328 -4.38761 0
M  V30 3628 N 356.222 1.38976 -0.743202 0
M  V30 3629 C 357.499 1.94351 -0.220705 0
M  V30 3630 C 357.879 1.67935 1.2791 0
M  V30 3631 O 357.227 1.01211 2.04862 0
M  V30 3632 C 357.437 3.44426 -0.563171 0
M  V30 3633 C 358.785 4.2144 -0.517046 0
M  V30 3634 O 359.809 3.52661 -0.500846 0
M  V30 3635 O 358.668 5.44032 -0.518806 0
M  V30 3636 H 355.762 0.825879 -0.043047 0
M  V30 3637 H 358.308 1.48429 -0.822618 0
M  V30 3638 H 357.08 3.5712 -1.59941 0
M  V30 3639 H 356.703 3.97543 0.0672883 0
M  V30 3640 N 357.7 0.491464 1.49741 0
M  V30 3641 C 358.61 -0.296835 2.32715 0
M  V30 3642 C 359.626 -0.976536 1.44013 0
M  V30 3643 O 360.802 -0.960023 1.77047 0
M  V30 3644 C 357.867 -1.35288 3.19215 0
M  V30 3645 C 356.928 -0.687632 4.23757 0
M  V30 3646 C 356.161 -1.69336 5.06123 0
M  V30 3647 O 356.384 -2.92219 4.89861 0
M  V30 3648 O 355.318 -1.25394 5.88693 0
M  V30 3649 H 359.144 0.382048 3.01287 0
M  V30 3650 H 356.729 0.252953 1.47243 0
M  V30 3651 H 358.611 -1.96411 3.72828 0
M  V30 3652 H 357.286 -2.01487 2.53347 0
M  V30 3653 H 356.193 -0.0369159 3.74082 0
M  V30 3654 H 357.526 -0.0682566 4.92153 0
M  V30 3655 N 359.178 -1.55987 0.224894 0
M  V30 3656 C 360.594 -1.59066 -0.130426 0
M  V30 3657 C 360.794 -1.24176 -1.5869 0
M  V30 3658 O 359.85 -0.978592 -2.32766 0
M  V30 3659 C 361.163 -3.00042 0.198883 0
M  V30 3660 C 362.711 -3.1268 0.141391 0
M  V30 3661 C 363.186 -4.55839 0.444422 0
M  V30 3662 N 364.677 -4.6152 0.394115 0
M  V30 3663 C 365.412 -5.70231 0.602038 0
M  V30 3664 N 364.908 -6.87291 0.871914 0
M  V30 3665 N 366.701 -5.59555 0.534245 0
M  V30 3666 H 358.852 -1.76941 1.17497 0
M  V30 3667 H 361.115 -0.822604 0.471197 0
M  V30 3668 H 360.821 -3.30234 1.2099 0
M  V30 3669 H 360.695 -3.74075 -0.484535 0
M  V30 3670 H 363.082 -2.82283 -0.860265 0
M  V30 3671 H 363.163 -2.40969 0.858335 0
M  V30 3672 H 362.807 -4.86954 1.44353 0
M  V30 3673 H 362.737 -5.2578 -0.293752 0
M  V30 3674 H 365.228 -3.77405 0.193356 0
M  V30 3675 H 365.541 -7.66058 1.01858 0
M  V30 3676 H 363.886 -6.89028 0.909145 0
M  V30 3677 H 367.077 -4.6698 0.323612 0
M  V30 3678 H 367.25 -6.44211 0.699693 0
M  V30 3679 N 360.656 0.0484629 -1.57525 0
M  V30 3680 C 361.933 0.777447 -1.79486 0
M  V30 3681 C 362.313 1.94597 -0.818251 0
M  V30 3682 O 361.661 2.28047 0.143767 0
M  V30 3683 C 361.871 1.22864 -3.26658 0
M  V30 3684 C 363.219 1.65251 -3.91123 0
M  V30 3685 O 364.243 1.32372 -3.3069 0
M  V30 3686 O 363.102 2.26207 -4.97486 0
M  V30 3687 H 360.196 0.374357 -0.737419 0
M  V30 3688 H 362.742 0.0267359 -1.69679 0
M  V30 3689 H 361.514 0.393589 -3.89316 0
M  V30 3690 H 361.137 2.03996 -3.41279 0
M  V30 3691 N 362.134 1.5431 0.320358 0
M  V30 3692 C 363.066 1.80262 1.41556 0
M  V30 3693 C 364.079 0.684723 1.477 0
M  V30 3694 O 365.268 0.961886 1.50366 0
M  V30 3695 C 362.368 1.90825 2.8007 0
M  V30 3696 C 361.541 3.21023 2.97091 0
M  V30 3697 C 360.6 3.22247 4.15985 0
M  V30 3698 O 359.626 3.95871 4.08992 0
M  V30 3699 N 360.828 2.46258 5.25678 0
M  V30 3700 H 363.593 2.74778 1.19655 0
M  V30 3701 H 361.154 1.53646 0.510358 0
M  V30 3702 H 363.146 1.89067 3.57821 0
M  V30 3703 H 361.716 1.03392 2.95006 0
M  V30 3704 H 360.936 3.35715 2.06614 0
M  V30 3705 H 362.224 4.0698 3.05361 0
M  V30 3706 H 361.622 1.86037 5.34235 0
M  V30 3707 H 360.179 2.50275 6.01835 0
M  V30 3708 N 363.613 -0.582584 1.46437 0
M  V30 3709 C 365.024 -1.1647 1.45916 0
M  V30 3710 C 365.375 -1.95177 0.200077 0
M  V30 3711 O 364.5 -2.04874 -0.696819 0
M  V30 3712 C 365.095 -2.11885 2.64367 0
M  V30 3713 C 363.654 -2.65421 2.66887 0
M  V30 3714 C 362.801 -1.41294 2.38603 0
M  V30 3715 H 365.752 -0.370514 1.54314 0
M  V30 3716 H 365.773 -2.9535 2.39892 0
M  V30 3717 H 365.285 -1.54573 3.5599 0
M  V30 3718 H 363.386 -3.26602 1.79338 0
M  V30 3719 H 363.499 -3.08147 3.66854 0
M  V30 3720 H 361.863 -1.71109 1.88663 0
M  V30 3721 H 362.646 -0.858125 3.32402 0
M  V30 3722 N 365.091 -1.34144 -0.827227 0
M  V30 3723 C 366.338 -1.26258 -1.58319 0
M  V30 3724 C 366.666 0.168595 -1.93768 0
M  V30 3725 O 365.921 1.12877 -1.59866 0
M  V30 3726 C 366.22 -2.09464 -2.89585 0
M  V30 3727 C 365.886 -3.58521 -2.73448 0
M  V30 3728 C 364.548 -3.99155 -2.68754 0
M  V30 3729 C 366.9 -4.53189 -2.57428 0
M  V30 3730 C 364.228 -5.32656 -2.45957 0
M  V30 3731 C 366.58 -5.86864 -2.36163 0
M  V30 3732 C 365.244 -6.26667 -2.29879 0
M  V30 3733 H 364.514 -0.462013 -0.579332 0
M  V30 3734 H 367.161 -1.65845 -0.95748 0
M  V30 3735 H 365.466 -1.62692 -3.56425 0
M  V30 3736 H 367.163 -2.00712 -3.47154 0
M  V30 3737 H 363.753 -3.26264 -2.77939 0
M  V30 3738 H 367.937 -4.22696 -2.60081 0
M  V30 3739 H 363.193 -5.62519 -2.39546 0
M  V30 3740 H 367.367 -6.59813 -2.22754 0
M  V30 3741 H 364.994 -7.30049 -2.11975 0
M  V30 3742 N 366.569 1.04691 -1.17803 0
M  V30 3743 C 367.818 1.77176 -0.963931 0
M  V30 3744 C 368.131 1.88888 0.508015 0
M  V30 3745 O 369.337 2.58164 0.840465 0
M  V30 3746 C 367.793 3.18518 -1.67555 0
M  V30 3747 C 367.401 3.14919 -3.18637 0
M  V30 3748 C 369.145 3.95424 -1.54402 0
M  V30 3749 C 367.052 4.51081 -3.82466 0
M  V30 3750 H 365.982 0.664116 -0.357023 0
M  V30 3751 H 368.633 1.17303 -1.4111 0
M  V30 3752 H 367.015 3.78748 -1.15613 0
M  V30 3753 H 368.189 2.64178 -3.77554 0
M  V30 3754 H 366.504 2.51512 -3.31859 0
M  V30 3755 H 369.101 4.96106 -1.99456 0
M  V30 3756 H 369.444 4.13343 -0.495329 0
M  V30 3757 H 369.977 3.41754 -2.0359 0
M  V30 3758 H 366.716 4.38368 -4.87354 0
M  V30 3759 H 366.236 5.01951 -3.28337 0
M  V30 3760 H 367.915 5.2001 -3.84965 0
M  V30 3761 N 368.047 0.979072 1.23499 0
M  V30 3762 C 369.275 0.665202 1.95915 0
M  V30 3763 C 369.69 -0.767571 1.72493 0
M  V30 3764 O 369.047 -1.51635 1.01554 0
M  V30 3765 C 369.098 0.944438 3.48945 0
M  V30 3766 O 368.819 2.3209 3.71572 0
M  V30 3767 C 370.32 0.646336 4.38563 0
M  V30 3768 H 367.54 0.247218 0.623798 0
M  V30 3769 H 370.084 1.31009 1.57025 0
M  V30 3770 H 368.239 0.345575 3.85856 0
M  V30 3771 H 368.653 2.40957 4.65876 0
M  V30 3772 H 370.127 0.892091 5.44744 0
M  V30 3773 H 370.604 -0.419575 4.37191 0
M  V30 3774 H 371.21 1.22562 4.07258 0
M  V30 3775 N 369.525 -1.3858 0.750561 0
M  V30 3776 C 370.773 -1.99789 0.30477 0
M  V30 3777 C 371.094 -1.59874 -1.11649 0
M  V30 3778 O 370.364 -0.85417 -1.76297 0
M  V30 3779 H 368.944 -0.738902 0.109694 0
M  V30 3780 H 371.606 -1.69391 0.963983 0
M  V30 3781 H 370.702 -3.09952 0.365499 0
M  V30 3782 N 371.003 -0.499398 -1.49478 0
M  V30 3783 C 371.913 0.284489 -2.32869 0
M  V30 3784 C 372.929 0.968885 -1.44529 0
M  V30 3785 O 374.105 0.95062 -1.77553 0
M  V30 3786 C 371.17 1.33594 -3.19928 0
M  V30 3787 C 370.231 0.665149 -4.24116 0
M  V30 3788 C 369.464 1.6665 -5.07014 0
M  V30 3789 O 369.687 2.89618 -4.91404 0
M  V30 3790 O 368.621 1.22271 -5.8935 0
M  V30 3791 H 372.447 -0.39802 -3.01081 0
M  V30 3792 H 370.032 -0.260758 -1.47107 0
M  V30 3793 H 371.914 1.94431 -3.73864 0
M  V30 3794 H 370.589 2.0014 -2.54412 0
M  V30 3795 H 369.496 0.0170769 -3.74096 0
M  V30 3796 H 370.829 0.0421555 -4.92182 0
M  V30 3797 N 372.481 1.55866 -0.233164 0
M  V30 3798 C 373.897 1.59133 0.121988 0
M  V30 3799 C 374.097 1.25016 1.58029 0
M  V30 3800 O 373.153 0.990922 2.32243 0
M  V30 3801 C 374.466 2.99932 -0.214792 0
M  V30 3802 C 376.014 3.12601 -0.157971 0
M  V30 3803 C 376.489 4.55597 -0.46859 0
M  V30 3804 N 377.98 4.61305 -0.418585 0
M  V30 3805 C 378.715 5.69903 -0.63227 0
M  V30 3806 N 378.211 6.86819 -0.90835 0
M  V30 3807 N 380.004 5.59264 -0.563913 0
M  V30 3808 H 372.155 1.76315 -1.18434 0
M  V30 3809 H 374.418 0.820093 -0.475553 0
M  V30 3810 H 374.124 3.29588 -1.22739 0
M  V30 3811 H 373.998 3.74327 0.464691 0
M  V30 3812 H 376.385 2.82735 0.845283 0
M  V30 3813 H 376.466 2.40511 -0.871102 0
M  V30 3814 H 376.11 4.86182 -1.46934 0
M  V30 3815 H 376.04 5.25928 0.265865 0
M  V30 3816 H 378.531 3.77297 -0.213368 0
M  V30 3817 H 378.844 7.65507 -1.05919 0
M  V30 3818 H 377.189 6.88536 -0.945673 0
M  V30 3819 H 380.38 4.66802 -0.348372 0
M  V30 3820 H 380.553 6.43831 -0.733847 0
M  V30 3821 N 373.959 -0.0401083 1.57549 0
M  V30 3822 C 375.187 -0.745196 1.93014 0
M  V30 3823 C 375.602 -1.6948 0.831984 0
M  V30 3824 O 374.959 -1.81482 -0.192463 0
M  V30 3825 C 375.01 -1.51176 3.28372 0
M  V30 3826 O 374.731 -0.600284 4.33968 0
M  V30 3827 C 376.232 -2.315 3.78051 0
M  V30 3828 H 373.452 -0.210088 0.637263 0
M  V30 3829 H 375.996 -0.000924689 2.045 0
M  V30 3830 H 374.151 -2.20801 3.18317 0
M  V30 3831 H 374.565 -1.13669 5.12035 0
M  V30 3832 H 376.039 -2.80697 4.75303 0
M  V30 3833 H 376.516 -3.12436 3.08675 0
M  V30 3834 H 377.122 -1.66971 3.91153 0
M  V30 3835 N 375.437 -1.54477 -0.31217 0
M  V30 3836 C 376.853 -1.45442 -0.657185 0
M  V30 3837 C 377.053 -0.63653 -1.91182 0
M  V30 3838 O 376.109 -0.139815 -2.52113 0
M  V30 3839 C 377.422 -2.89287 -0.82058 0
M  V30 3840 C 378.97 -2.9926 -0.917188 0
M  V30 3841 C 379.445 -4.44279 -1.11267 0
M  V30 3842 N 380.936 -4.4794 -1.17914 0
M  V30 3843 C 381.671 -5.57318 -1.34848 0
M  V30 3844 N 381.167 -6.76642 -1.48752 0
M  V30 3845 N 382.96 -5.44986 -1.37647 0
M  V30 3846 H 375.111 -2.06129 0.512313 0
M  V30 3847 H 377.374 -0.933088 0.167485 0
M  V30 3848 H 377.08 -3.51687 0.0302604 0
M  V30 3849 H 376.954 -3.36061 -1.71298 0
M  V30 3850 H 379.341 -2.36981 -1.75852 0
M  V30 3851 H 379.422 -2.558 -0.00101257 0
M  V30 3852 H 379.066 -5.07149 -0.27614 0
M  V30 3853 H 378.996 -4.85359 -2.04289 0
M  V30 3854 H 381.487 -3.61969 -1.08567 0
M  V30 3855 H 381.8 -7.55758 -1.61397 0
M  V30 3856 H 380.145 -6.79529 -1.45828 0
M  V30 3857 H 383.336 -4.50715 -1.26388 0
M  V30 3858 H 383.509 -6.3028 -1.50501 0
M  V30 3859 N 376.915 0.57481 -1.46744 0
M  V30 3860 C 377.825 1.711 -1.60505 0
M  V30 3861 C 378.841 1.67008 -0.488307 0
M  V30 3862 O 380.017 1.86774 -0.753495 0
M  V30 3863 C 377.082 3.07608 -1.59932 0
M  V30 3864 C 376.143 3.22904 -2.82898 0
M  V30 3865 C 375.376 4.529 -2.82343 0
M  V30 3866 O 375.599 5.37278 -1.91542 0
M  V30 3867 O 374.533 4.71611 -3.73987 0
M  V30 3868 H 378.359 1.62436 -2.56609 0
M  V30 3869 H 375.944 0.742779 -1.29627 0
M  V30 3870 H 377.826 3.88877 -1.62336 0
M  V30 3871 H 376.501 3.16692 -0.669898 0
M  V30 3872 H 375.408 2.41099 -2.86046 0
M  V30 3873 H 376.741 3.18715 -3.75076 0
M  V30 3874 N 378.394 1.34581 0.820102 0
M  V30 3875 C 379.642 1.26845 1.57336 0
M  V30 3876 C 379.963 -0.160667 1.94337 0
M  V30 3877 O 379.233 -1.09396 1.6251 0
M  V30 3878 H 377.813 0.466514 0.583415 0
M  V30 3879 H 380.475 1.68526 0.979027 0
M  V30 3880 H 379.571 1.87513 2.4949 0
M  V30 3881 N 379.872 -1.04064 1.18357 0
M  V30 3882 C 381.119 -1.77265 0.978947 0
M  V30 3883 C 381.447 -1.88189 -0.491428 0
M  V30 3884 O 380.702 -1.38653 -1.38108 0
M  V30 3885 C 381.001 -3.20634 1.57888 0
M  V30 3886 C 380.667 -3.29743 3.07539 0
M  V30 3887 C 379.329 -3.31937 3.48384 0
M  V30 3888 C 381.681 -3.29841 4.03552 0
M  V30 3889 C 379.009 -3.3187 4.83818 0
M  V30 3890 C 381.361 -3.31313 5.38901 0
M  V30 3891 C 380.025 -3.31799 5.79194 0
M  V30 3892 H 379.295 -0.648659 0.358222 0
M  V30 3893 H 381.942 -1.22225 1.47422 0
M  V30 3894 H 380.247 -3.78675 1.00561 0
M  V30 3895 H 381.944 -3.75917 1.39598 0
M  V30 3896 H 378.534 -3.28757 2.74986 0
M  V30 3897 H 382.718 -3.27337 3.73047 0
M  V30 3898 H 377.974 -3.30562 5.14333 0
M  V30 3899 H 382.148 -3.30338 6.13066 0
M  V30 3900 H 379.775 -3.315 6.84114 0
M  V30 3901 N 381.35 -0.985608 -1.22978 0
M  V30 3902 C 382.58 -0.674603 -1.95276 0
M  V30 3903 C 382.988 0.763483 -1.73111 0
M  V30 3904 O 382.331 1.52601 -1.02268 0
M  V30 3905 C 382.393 -0.891597 -3.48268 0
M  V30 3906 C 382.057 -2.31275 -3.94158 0
M  V30 3907 C 383.054 -3.29179 -4.02415 0
M  V30 3908 C 380.739 -2.64524 -4.27004 0
M  V30 3909 C 382.733 -4.58407 -4.42879 0
M  V30 3910 C 380.42 -3.93974 -4.67149 0
M  V30 3911 C 381.418 -4.90727 -4.75053 0
M  V30 3912 O 381.106 -6.17865 -5.14294 0
M  V30 3913 H 380.838 -0.249251 -0.628371 0
M  V30 3914 H 383.392 -1.32106 -1.5728 0
M  V30 3915 H 381.622 -0.187962 -3.86243 0
M  V30 3916 H 383.311 -0.576957 -4.01779 0
M  V30 3917 H 384.077 -3.04823 -3.77237 0
M  V30 3918 H 379.956 -1.89923 -4.2006 0
M  V30 3919 H 383.5 -5.33926 -4.48964 0
M  V30 3920 H 379.397 -4.18122 -4.91777 0
M  V30 3921 H 380.165 -6.21694 -5.32389 0
M  V30 3922 N 382.828 1.3818 -0.7579 0
M  V30 3923 C 384.244 1.5353 -0.435972 0
M  V30 3924 C 384.444 1.71961 1.05032 0
M  V30 3925 O 383.5 1.73307 1.83633 0
M  V30 3926 C 384.813 2.73989 -1.23898 0
M  V30 3927 C 386.361 2.87841 -1.22949 0
M  V30 3928 C 386.836 4.11266 -2.01554 0
M  V30 3929 N 388.327 4.18352 -1.98837 0
M  V30 3930 C 389.062 5.12856 -2.5645 0
M  V30 3931 N 388.558 6.13005 -3.22794 0
M  V30 3932 N 390.351 5.05238 -2.46356 0
M  V30 3933 H 382.502 1.24467 -1.7211 0
M  V30 3934 H 384.765 0.604982 -0.729864 0
M  V30 3935 H 384.471 2.66789 -2.29165 0
M  V30 3936 H 384.345 3.67294 -0.858764 0
M  V30 3937 H 386.732 2.9452 -0.184854 0
M  V30 3938 H 386.813 1.95534 -1.64924 0
M  V30 3939 H 386.457 4.05349 -3.06031 0
M  V30 3940 H 386.387 5.02661 -1.5697 0
M  V30 3941 H 388.878 3.46628 -1.50524 0
M  V30 3942 H 389.191 6.81619 -3.64165 0
M  V30 3943 H 387.536 6.13325 -3.2689 0
M  V30 3944 H 390.727 4.25938 -1.9415 0
M  V30 3945 H 390.9 5.78707 -2.91552 0
M  V30 3946 N 384.306 0.507319 1.49211 0
M  V30 3947 C 385.534 -0.0315749 2.06876 0
M  V30 3948 C 385.949 -1.30241 1.36685 0
M  V30 3949 O 385.306 -1.76937 0.447152 0
M  V30 3950 C 385.357 -0.282627 3.60393 0
M  V30 3951 O 385.078 0.937835 4.27944 0
M  V30 3952 C 386.579 -0.864453 4.3479 0
M  V30 3953 H 383.799 0.0233048 0.670595 0
M  V30 3954 H 386.343 0.706484 1.91909 0
M  V30 3955 H 384.498 -0.97068 3.75042 0
M  V30 3956 H 384.912 0.704567 5.19746 0
M  V30 3957 H 386.386 -0.989664 5.43056 0
M  V30 3958 H 386.863 -1.86382 3.97692 0
M  V30 3959 H 387.469 -0.213672 4.24763 0
M  V30 3960 N 385.784 -1.5574 0.241426 0
M  V30 3961 C 386.731 -2.21149 -0.660432 0
M  V30 3962 C 387.701 -1.17356 -1.17545 0
M  V30 3963 O 388.886 -1.45784 -1.23093 0
M  V30 3964 C 386.026 -2.91059 -1.85414 0
M  V30 3965 C 385.139 -4.09495 -1.37616 0
M  V30 3966 C 384.274 -4.67135 -2.529 0
M  V30 3967 C 383.313 -5.77831 -2.01936 0
M  V30 3968 N 382.45 -6.29677 -3.10566 0
M  V30 3969 H 387.29 -2.97845 -0.095955 0
M  V30 3970 H 384.827 -1.47057 -0.0356024 0
M  V30 3971 H 386.785 -3.29788 -2.5553 0
M  V30 3972 H 385.415 -2.16846 -2.39118 0
M  V30 3973 H 384.467 -3.76117 -0.569235 0
M  V30 3974 H 385.779 -4.89423 -0.962618 0
M  V30 3975 H 384.933 -5.08409 -3.31067 0
M  V30 3976 H 383.672 -3.86411 -2.97553 0
M  V30 3977 H 382.677 -5.36039 -1.22238 0
M  V30 3978 H 383.902 -6.60402 -1.58259 0
M  V30 3979 H 381.848 -5.5186 -3.54664 0
M  V30 3980 H 381.765 -7.04783 -2.73526 0
M  V30 3981 H 383.033 -6.75609 -3.88809 0
M  V30 3982 N 387.262 0.0317525 -1.57568 0
M  V30 3983 C 388.21 1.05165 -2.07468 0
M  V30 3984 C 389.204 1.3761 -0.98792 0
M  V30 3985 O 390.41 1.36546 -1.17282 0
M  V30 3986 H 386.785 0.35666 -0.66204 0
M  V30 3987 H 388.756 0.604958 -2.92203 0
M  V30 3988 C 387.505 2.34488 -2.56731 0
M  V30 3989 H 386.828 2.10383 -3.39969 0
M  V30 3990 H 388.268 3.04203 -2.95358 0
M  V30 3991 C 386.727 3.03266 -1.46736 0
M  V30 3992 O 387.257 3.92988 -0.832069 0
M  V30 3993 N 385.463 2.6455 -1.20256 0
M  V30 3994 H 385.01 1.91674 -1.72102 0
M  V30 3995 H 384.968 3.10886 -0.468737 0
M  V30 3996 N 388.74 1.54641 0.303973 0
M  V30 3997 C 389.988 1.73437 1.0375 0
M  V30 3998 C 390.309 0.521449 1.87899 0
M  V30 3999 O 389.579 -0.46432 1.90318 0
M  V30 4000 H 388.159 0.639518 0.386039 0
M  V30 4001 H 390.821 1.91988 0.335675 0
M  V30 4002 H 389.917 2.62235 1.69231 0
M  V30 4003 N 390.218 -0.567019 1.47046 0
M  V30 4004 C 391.467 -1.32091 1.5243 0
M  V30 4005 C 391.78 -1.94704 0.187021 0
M  V30 4006 O 392.986 -2.7124 0.118771 0
M  V30 4007 C 391.442 -2.39479 2.68659 0
M  V30 4008 C 391.05 -1.831 4.08874 0
M  V30 4009 C 392.794 -3.16111 2.83327 0
M  V30 4010 C 390.701 -2.8821 5.16419 0
M  V30 4011 H 389.631 -0.496629 0.56734 0
M  V30 4012 H 392.282 -0.603354 1.73297 0
M  V30 4013 H 390.664 -3.14105 2.41152 0
M  V30 4014 H 391.838 -1.14913 4.46242 0
M  V30 4015 H 390.153 -1.19085 3.99008 0
M  V30 4016 H 392.75 -3.94585 3.60842 0
M  V30 4017 H 393.093 -3.69686 1.91411 0
M  V30 4018 H 393.626 -2.48595 3.10556 0
M  V30 4019 H 390.365 -2.39504 6.10179 0
M  V30 4020 H 389.885 -3.54839 4.8358 0
M  V30 4021 H 391.564 -3.51881 5.42945 0
M  V30 4022 N 391.696 -1.35014 -0.812953 0
M  V30 4023 C 392.606 -1.2951 -1.95613 0
M  V30 4024 C 393.622 -0.20107 -1.72834 0
M  V30 4025 O 394.798 -0.42932 -1.96771 0
M  V30 4026 C 391.863 -1.06033 -3.30088 0
M  V30 4027 C 390.924 -2.24688 -3.65805 0
M  V30 4028 C 390.157 -2.02322 -4.93864 0
M  V30 4029 O 390.38 -0.986464 -5.61805 0
M  V30 4030 O 389.314 -2.89525 -5.27692 0
M  V30 4031 H 393.14 -2.25705 -2.03202 0
M  V30 4032 H 390.725 -1.15321 -0.949811 0
M  V30 4033 H 392.607 -0.94763 -4.10607 0
M  V30 4034 H 391.282 -0.128852 -3.23443 0
M  V30 4035 H 390.189 -2.41521 -2.85689 0
M  V30 4036 H 391.522 -3.16261 -3.77147 0
M  V30 4037 N 393.175 1.03435 -1.18907 0
M  V30 4038 C 394.586 1.58195 -0.991523 0
M  V30 4039 C 394.937 1.90801 0.457081 0
M  V30 4040 O 394.062 1.70272 1.33553 0
M  V30 4041 C 394.657 2.87432 -1.79355 0
M  V30 4042 C 393.216 3.38785 -1.64017 0
M  V30 4043 C 392.363 2.12292 -1.78402 0
M  V30 4044 H 395.314 0.860299 -1.33359 0
M  V30 4045 H 395.335 3.58096 -1.28638 0
M  V30 4046 H 394.847 2.63669 -2.84781 0
M  V30 4047 H 392.948 3.67547 -0.611536 0
M  V30 4048 H 393.061 4.12186 -2.44212 0
M  V30 4049 H 391.425 2.23901 -1.2141 0
M  V30 4050 H 392.208 1.90977 -2.85277 0
M  V30 4051 N 394.653 0.992116 1.22453 0
M  V30 4052 C 395.893 0.675727 1.92907 0
M  V30 4053 C 396.257 -0.777762 1.75542 0
M  V30 4054 O 397.458 -1.20553 2.40251 0
M  V30 4055 C 395.729 1.0696 3.4102 0
M  V30 4056 S 397.288 0.871456 4.30059 0
M  V30 4057 H 394.106 0.247089 0.666684 0
M  V30 4058 H 396.708 1.27423 1.48269 0
M  V30 4059 H 395.412 2.12383 3.51172 0
M  V30 4060 H 394.943 0.462858 3.90668 0
M  V30 4061 H 396.958 -0.238436 4.95627 0
M  V30 4062 N 396.131 -1.37776 0.765217 0
M  V30 4063 C 397.38 -1.99092 0.323307 0
M  V30 4064 C 397.693 -1.61434 -1.10446 0
M  V30 4065 O 398.899 -2.15805 -1.64743 0
M  V30 4066 C 397.355 -3.56019 0.527098 0
M  V30 4067 C 396.963 -4.0262 1.96471 0
M  V30 4068 C 398.707 -4.2424 0.148483 0
M  V30 4069 C 396.614 -5.52233 2.11644 0
M  V30 4070 H 395.544 -0.744846 0.117137 0
M  V30 4071 H 398.195 -1.57391 0.943417 0
M  V30 4072 H 396.577 -3.95667 -0.162372 0
M  V30 4073 H 397.751 -3.74234 2.68859 0
M  V30 4074 H 396.066 -3.47161 2.29931 0
M  V30 4075 H 398.663 -5.34159 0.240456 0
M  V30 4076 H 399.006 -4.06446 -0.900422 0
M  V30 4077 H 399.539 -3.89872 0.79025 0
M  V30 4078 H 396.278 -5.74945 3.1483 0
M  V30 4079 H 395.798 -5.82324 1.4373 0
M  V30 4080 H 397.477 -6.18106 1.91193 0
M  V30 4081 N 397.609 -0.515225 -1.4894 0
M  V30 4082 C 398.572 0.244681 -2.2789 0
M  V30 4083 C 399.572 0.881166 -1.34507 0
M  V30 4084 O 400.762 0.743497 -1.57537 0
M  V30 4085 C 397.894 1.35247 -3.12923 0
M  V30 4086 H 399.087 -0.448289 -2.96531 0
M  V30 4087 H 396.64 -0.270656 -1.53939 0
M  V30 4088 H 397.375 2.07916 -2.48881 0
M  V30 4089 H 397.16 0.901374 -3.81599 0
M  V30 4090 H 398.65 1.88737 -3.72516 0
M  V30 4091 N 399.087 1.5561 -0.249682 0
M  V30 4092 C 400.503 1.59254 0.105103 0
M  V30 4093 C 400.703 1.26685 1.56694 0
M  V30 4094 O 399.759 1.0155 2.31179 0
M  V30 4095 C 401.072 2.99687 -0.246592 0
M  V30 4096 C 402.62 3.12416 -0.191118 0
M  V30 4097 C 403.095 4.55074 -0.516885 0
M  V30 4098 N 404.586 4.60835 -0.467489 0
M  V30 4099 C 405.321 5.69201 -0.69268 0
M  V30 4100 N 404.817 6.85817 -0.981146 0
M  V30 4101 N 406.61 5.58635 -0.623198 0
M  V30 4102 H 398.761 1.75049 -1.20298 0
M  V30 4103 H 401.024 0.815003 -0.484225 0
M  V30 4104 H 400.73 3.28267 -1.26228 0
M  V30 4105 H 400.604 3.74798 0.424962 0
M  V30 4106 H 402.991 2.83615 0.815247 0
M  V30 4107 H 403.072 2.39573 -0.896563 0
M  V30 4108 H 402.716 4.84596 -1.52082 0
M  V30 4109 H 402.646 5.26181 0.210068 0
M  V30 4110 H 405.137 3.7705 -0.253373 0
M  V30 4111 H 405.45 7.64341 -1.14032 0
M  V30 4112 H 403.795 6.87494 -1.01865 0
M  V30 4113 H 406.986 4.66406 -0.397863 0
M  V30 4114 H 407.159 6.43017 -0.802093 0
M  V30 4115 N 400.565 -0.0233959 1.57583 0
M  V30 4116 C 401.528 -1.00693 2.05897 0
M  V30 4117 C 402.528 -1.28693 0.964092 0
M  V30 4118 O 403.718 -1.23602 1.22753 0
M  V30 4119 C 400.85 -2.33825 2.4807 0
M  V30 4120 H 402.043 -0.589476 2.9405 0
M  V30 4121 H 399.596 -0.270354 1.53944 0
M  V30 4122 H 400.331 -2.80307 1.6309 0
M  V30 4123 H 400.116 -2.1483 3.2801 0
M  V30 4124 H 401.606 -3.04426 2.85857 0
M  V30 4125 N 402.043 -1.548 -0.295768 0
M  V30 4126 C 402.99 -1.86113 -1.36494 0
M  V30 4127 C 403.96 -0.7105 -1.50137 0
M  V30 4128 O 405.145 -0.959626 -1.64912 0
M  V30 4129 C 402.285 -2.11861 -2.72413 0
M  V30 4130 C 401.398 -3.39471 -2.67177 0
M  V30 4131 C 400.533 -3.55035 -3.95125 0
M  V30 4132 C 399.572 -4.76418 -3.84308 0
M  V30 4133 N 398.709 -4.8876 -5.04042 0
M  V30 4134 H 403.549 -2.77314 -1.09091 0
M  V30 4135 H 401.086 -1.37315 -0.52753 0
M  V30 4136 H 403.044 -2.24786 -3.51464 0
M  V30 4137 H 401.674 -1.2392 -2.98066 0
M  V30 4138 H 400.726 -3.35139 -1.79962 0
M  V30 4139 H 402.038 -4.28646 -2.55076 0
M  V30 4140 H 401.192 -3.67653 -4.82614 0
M  V30 4141 H 399.931 -2.64002 -4.10066 0
M  V30 4142 H 398.936 -4.63827 -2.95202 0
M  V30 4143 H 400.161 -5.68863 -3.70906 0
M  V30 4144 H 398.107 -4.00652 -5.19436 0
M  V30 4145 H 398.024 -5.71945 -4.94384 0
M  V30 4146 H 399.292 -5.0574 -5.93167 0
M  V30 4147 N 403.521 0.559213 -1.47345 0
M  V30 4148 C 404.484 1.64854 -1.59235 0
M  V30 4149 C 405.484 1.53851 -0.467607 0
M  V30 4150 O 406.674 1.58045 -0.732617 0
M  V30 4151 C 403.806 3.04388 -1.53496 0
M  V30 4152 H 404.999 1.55662 -2.56339 0
M  V30 4153 H 402.552 0.778973 -1.35505 0
M  V30 4154 H 403.287 3.19115 -0.577604 0
M  V30 4155 H 403.072 3.13783 -2.35123 0
M  V30 4156 H 404.562 3.83642 -1.6495 0
M  V30 4157 N 404.999 1.35443 0.805782 0
M  V30 4158 C 406.229 1.31687 1.59192 0
M  V30 4159 C 406.637 -0.10756 1.88894 0
M  V30 4160 O 405.98 -1.07017 1.49309 0
M  V30 4161 C 406.042 2.05686 2.94845 0
M  V30 4162 C 405.706 3.54868 2.87954 0
M  V30 4163 C 406.703 4.49444 2.61335 0
M  V30 4164 C 404.388 3.97528 3.07046 0
M  V30 4165 C 406.382 5.84655 2.53885 0
M  V30 4166 C 404.069 5.32833 2.99219 0
M  V30 4167 C 405.067 6.26209 2.72674 0
M  V30 4168 O 404.755 7.59032 2.64811 0
M  V30 4169 H 404.487 0.453878 0.50097 0
M  V30 4170 H 407.041 1.78892 1.0093 0
M  V30 4171 H 405.271 1.5312 3.55093 0
M  V30 4172 H 406.96 1.94998 3.55993 0
M  V30 4173 H 407.726 4.17804 2.46303 0
M  V30 4174 H 403.605 3.25233 3.26718 0
M  V30 4175 H 407.149 6.57508 2.33086 0
M  V30 4176 H 403.046 5.64087 3.13809 0
M  V30 4177 H 403.814 7.68967 2.80413 0
M  V30 4178 N 406.477 -1.02803 1.19454 0
M  V30 4179 C 407.44 -2.09264 0.934955 0
M  V30 4180 C 408.44 -1.60576 -0.0849015 0
M  V30 4181 O 409.63 -1.73554 0.149933 0
M  V30 4182 C 406.762 -3.38482 0.40531 0
M  V30 4183 H 407.955 -2.33726 1.87916 0
M  V30 4184 H 405.508 -1.19426 1.00832 0
M  V30 4185 H 406.243 -3.19689 -0.544899 0
M  V30 4186 H 406.028 -3.75142 1.14065 0
M  V30 4187 H 407.518 -4.16894 0.242806 0
M  V30 4188 N 407.956 -0.998596 -1.21925 0
M  V30 4189 C 409.367 -0.711939 -1.72593 0
M  V30 4190 C 409.718 0.770842 -1.80423 0
M  V30 4191 O 408.843 1.60237 -1.4544 0
M  V30 4192 C 409.438 -1.28567 -3.13458 0
M  V30 4193 C 407.997 -1.04828 -3.61508 0
M  V30 4194 C 407.144 -1.4024 -2.39224 0
M  V30 4195 H 410.095 -1.17027 -1.07193 0
M  V30 4196 H 410.116 -0.667098 -3.74607 0
M  V30 4197 H 409.628 -2.36486 -3.07727 0
M  V30 4198 H 407.729 0.0140383 -3.72597 0
M  V30 4199 H 407.842 -1.71566 -4.47328 0
M  V30 4200 H 406.206 -0.821077 -2.41103 0
M  V30 4201 H 406.989 -2.49176 -2.36149 0
M  V30 4202 N 409.434 1.37368 -0.772513 0
M  V30 4203 C 410.681 1.99673 -0.337182 0
M  V30 4204 C 411.009 1.61324 1.0865 0
M  V30 4205 O 410.264 0.851377 1.7621 0
M  V30 4206 C 410.563 3.54817 -0.428876 0
M  V30 4207 C 410.229 4.12936 -1.81092 0
M  V30 4208 C 408.891 4.28523 -2.1891 0
M  V30 4209 C 411.243 4.44801 -2.71664 0
M  V30 4210 C 408.571 4.73277 -3.46735 0
M  V30 4211 C 410.923 4.90981 -3.98899 0
M  V30 4212 C 409.587 5.04773 -4.36761 0
M  V30 4213 H 408.857 0.730656 -0.123384 0
M  V30 4214 H 411.504 1.64124 -0.986686 0
M  V30 4215 H 409.809 3.90618 0.304167 0
M  V30 4216 H 411.506 4.00933 -0.0733334 0
M  V30 4217 H 408.096 4.01233 -1.50699 0
M  V30 4218 H 412.28 4.32344 -2.43706 0
M  V30 4219 H 407.536 4.82142 -3.75964 0
M  V30 4220 H 411.71 5.14603 -4.69208 0
M  V30 4221 H 409.337 5.39211 -5.35868 0
M  V30 4222 N 410.912 0.523116 1.48665 0
M  V30 4223 C 411.875 -0.232592 2.28017 0
M  V30 4224 C 412.875 -0.874021 1.34972 0
M  V30 4225 O 414.065 -0.735132 1.57929 0
M  V30 4226 C 411.197 -1.33586 3.13636 0
M  V30 4227 H 412.39 0.464008 2.96289 0
M  V30 4228 H 409.943 0.278816 1.53793 0
M  V30 4229 H 410.678 -2.06593 2.4998 0
M  V30 4230 H 410.463 -0.881125 3.82071 0
M  V30 4231 H 411.953 -1.86759 3.73511 0
M  V30 4232 N 412.39 -1.55475 0.257931 0
M  V30 4233 C 413.667 -1.91155 -0.414629 0
M  V30 4234 C 414.047 -1.18008 -1.75035 0
M  V30 4235 O 413.395 -0.301193 -2.26506 0
M  V30 4236 C 413.605 -3.44283 -0.571859 0
M  V30 4237 C 414.953 -4.15744 -0.862678 0
M  V30 4238 O 415.977 -3.50083 -0.657314 0
M  V30 4239 O 414.836 -5.31909 -1.2544 0
M  V30 4240 H 411.93 -0.796016 -0.22425 0
M  V30 4241 H 414.476 -1.66976 0.302814 0
M  V30 4242 H 413.248 -3.89558 0.368844 0
M  V30 4243 H 412.871 -3.7436 -1.33943 0
M  V30 4244 N 413.868 0.0150385 -1.57593 0
M  V30 4245 C 414.798 1.01047 -2.10503 0
M  V30 4246 C 415.779 1.36816 -1.01071 0
M  V30 4247 O 416.964 1.45455 -1.28672 0
M  V30 4248 C 414.094 2.30708 -2.59598 0
M  V30 4249 C 413.048 2.09142 -3.73421 0
M  V30 4250 C 412.374 3.44685 -4.08774 0
M  V30 4251 C 413.674 1.46619 -5.01298 0
M  V30 4252 H 415.368 0.569978 -2.93925 0
M  V30 4253 H 412.914 0.272724 -1.41394 0
M  V30 4254 H 414.867 3.00687 -2.95238 0
M  V30 4255 H 413.591 2.76843 -1.73279 0
M  V30 4256 H 412.25 1.41592 -3.38153 0
M  V30 4257 H 411.898 3.88495 -3.195 0
M  V30 4258 H 411.598 3.31077 -4.8545 0
M  V30 4259 H 413.122 4.16004 -4.4696 0
M  V30 4260 H 414.536 2.06535 -5.34805 0
M  V30 4261 H 412.933 1.43544 -5.82679 0
M  V30 4262 H 414.003 0.433611 -4.82957 0
M  V30 4263 N 415.346 1.54954 0.287554 0
M  V30 4264 C 416.595 1.74081 1.01877 0
M  V30 4265 C 416.908 0.541135 1.87966 0
M  V30 4266 O 418.114 0.614491 2.64455 0
M  V30 4267 C 416.57 3.08042 1.86113 0
M  V30 4268 C 416.178 4.35531 1.04961 0
M  V30 4269 C 417.922 3.36523 2.58752 0
M  V30 4270 C 415.829 5.60538 1.88551 0
M  V30 4271 H 414.759 0.64884 0.384087 0
M  V30 4272 H 417.41 1.81426 0.275101 0
M  V30 4273 H 415.792 2.94696 2.64519 0
M  V30 4274 H 416.966 4.59751 0.31074 0
M  V30 4275 H 415.281 4.14085 0.43843 0
M  V30 4276 H 417.878 4.27122 3.21668 0
M  V30 4277 H 418.221 2.56 3.28283 0
M  V30 4278 H 418.754 3.50901 1.87386 0
M  V30 4279 H 415.493 6.43767 1.23466 0
M  V30 4280 H 415.013 5.40483 2.60074 0
M  V30 4281 H 416.692 5.98297 2.46273 0
M  V30 4282 N 416.824 -0.551391 1.4764 0
M  V30 4283 C 418.07 -1.30789 1.55774 0
M  V30 4284 C 418.425 -1.91143 0.219562 0
M  V30 4285 O 417.718 -1.7521 -0.775375 0
M  V30 4286 C 417.912 -2.43469 2.61644 0
M  V30 4287 C 417.741 -1.94157 4.05627 0
M  V30 4288 C 416.511 -1.77734 4.7301 0
M  V30 4289 C 418.709 -1.48262 4.92466 0
M  V30 4290 N 416.691 -1.22823 6.01488 0
M  V30 4291 C 418.062 -1.05156 6.11017 0
M  V30 4292 C 420.117 -1.36367 4.78862 0
M  V30 4293 C 418.82 -0.513357 7.17466 0
M  V30 4294 C 420.846 -0.839484 5.85411 0
M  V30 4295 C 420.208 -0.418377 7.03156 0
M  V30 4296 H 416.307 -0.470406 0.624694 0
M  V30 4297 H 418.891 -0.624331 1.84419 0
M  V30 4298 H 417.062 -3.09348 2.34859 0
M  V30 4299 H 418.794 -3.10477 2.59589 0
M  V30 4300 H 415.549 -2.00623 4.29007 0
M  V30 4301 H 415.973 -0.974393 6.69951 0
M  V30 4302 H 420.615 -1.67535 3.88191 0
M  V30 4303 H 418.333 -0.189318 8.07878 0
M  V30 4304 H 421.919 -0.750921 5.76934 0
M  V30 4305 H 420.799 -0.0190538 7.84198 0
M  V30 4306 N 418.302 -1.35869 -0.798587 0
M  V30 4307 C 419.235 -1.23801 -1.91699 0
M  V30 4308 C 420.213 -0.124143 -1.62125 0
M  V30 4309 O 421.397 -0.293656 -1.86199 0
M  V30 4310 C 418.524 -0.908063 -3.263 0
M  V30 4311 C 417.57 -2.0351 -3.74815 0
M  V30 4312 S 418.403 -3.65183 -3.91665 0
M  V30 4313 C 419.559 -3.34283 -5.29156 0
M  V30 4314 H 419.792 -2.18466 -2.01643 0
M  V30 4315 H 417.325 -1.21178 -0.956833 0
M  V30 4316 H 419.283 -0.724506 -4.04056 0
M  V30 4317 H 417.944 0.0206584 -3.14093 0
M  V30 4318 H 417.137 -1.75858 -4.72324 0
M  V30 4319 H 416.739 -2.1774 -3.04081 0
M  V30 4320 H 419.031 -2.87607 -6.13424 0
M  V30 4321 H 419.974 -4.31022 -5.61806 0
M  V30 4322 H 420.382 -2.69854 -4.95822 0
M  V30 4323 N 419.78 1.02168 -1.19998 0
M  V30 4324 C 420.69 2.14069 -0.959774 0
M  V30 4325 C 421.706 1.73804 0.082655 0
M  V30 4326 O 422.882 2.01133 -0.103633 0
M  V30 4327 C 419.947 3.42936 -0.509459 0
M  V30 4328 C 419.008 3.97474 -1.62213 0
M  V30 4329 C 418.241 5.2019 -1.19321 0
M  V30 4330 O 418.464 5.70369 -0.0597726 0
M  V30 4331 O 417.398 5.67749 -1.99863 0
M  V30 4332 H 421.224 2.37199 -1.89658 0
M  V30 4333 H 418.809 1.12469 -0.983411 0
M  V30 4334 H 420.691 4.20551 -0.267322 0
M  V30 4335 H 419.366 3.21234 0.398821 0
M  V30 4336 H 418.273 3.21161 -1.9185 0
M  V30 4337 H 419.606 4.23555 -2.50723 0
M  V30 4338 N 421.258 1.00505 1.21394 0
M  V30 4339 C 422.486 0.706609 1.9446 0
M  V30 4340 C 422.901 -0.73081 1.74082 0
M  V30 4341 O 422.258 -1.49446 1.04747 0
M  V30 4342 C 422.309 1.01824 3.46863 0
M  V30 4343 O 422.03 2.39919 3.66566 0
M  V30 4344 C 423.531 0.739216 4.37093 0
M  V30 4345 H 420.751 0.260394 0.618414 0
M  V30 4346 H 423.295 1.34311 1.54211 0
M  V30 4347 H 421.45 0.427343 3.85036 0
M  V30 4348 H 421.864 2.50784 4.6066 0
M  V30 4349 H 423.338 1.00744 5.42729 0
M  V30 4350 H 423.815 -0.326746 4.37983 0
M  V30 4351 H 424.421 1.31173 4.04566 0
M  V30 4352 N 422.737 -1.36956 0.779787 0
M  V30 4353 C 423.985 -1.99097 0.347079 0
M  V30 4354 C 424.306 -1.62206 -1.08232 0
M  V30 4355 O 423.576 -0.891373 -1.74446 0
M  V30 4356 H 422.156 -0.736409 0.125342 0
M  V30 4357 H 424.818 -1.67308 0.999696 0
M  V30 4358 H 423.914 -3.09107 0.431162 0
M  V30 4359 N 424.215 -0.530993 -1.48385 0
M  V30 4360 C 425.443 -0.00134122 -2.069 0
M  V30 4361 C 425.858 1.2805 -1.3874 0
M  V30 4362 O 425.215 1.76204 -0.475244 0
M  V30 4363 C 425.266 0.225256 -3.60798 0
M  V30 4364 O 424.987 -1.0058 -4.26398 0
M  V30 4365 C 426.488 0.795172 -4.3611 0
M  V30 4366 H 423.708 -0.0339704 -0.67014 0
M  V30 4367 H 426.252 -0.736926 -1.90761 0
M  V30 4368 H 424.407 0.910891 -3.76539 0
M  V30 4369 H 424.821 -0.787165 -5.1856 0
M  V30 4370 H 426.295 0.903143 -5.44562 0
M  V30 4371 H 426.772 1.80031 -4.00606 0
M  V30 4372 H 427.378 0.146069 -4.25049 0
M  V30 4373 N 425.693 1.55336 -0.266172 0
M  V30 4374 C 427.104 1.85236 0.233315 0
M  V30 4375 C 427.455 1.18816 1.56132 0
M  V30 4376 O 426.58 0.473307 2.11161 0
M  V30 4377 C 427.175 3.36059 0.430113 0
M  V30 4378 C 425.734 3.66116 0.873842 0
M  V30 4379 C 424.881 2.77274 -0.0380016 0
M  V30 4380 H 427.832 1.51004 -0.488214 0
M  V30 4381 H 427.853 3.58681 1.26998 0
M  V30 4382 H 427.365 3.84373 -0.536588 0
M  V30 4383 H 425.466 3.23295 1.85233 0
M  V30 4384 H 425.579 4.73699 0.717358 0
M  V30 4385 H 423.943 2.50198 0.476759 0
M  V30 4386 H 424.726 3.284 -1.00042 0
M  V30 4387 N 427.171 -0.0066808 1.57599 0
M  V30 4388 C 428.448 -0.729586 1.81484 0
M  V30 4389 C 428.828 -1.92359 0.869558 0
M  V30 4390 O 428.176 -2.28348 -0.0832533 0
M  V30 4391 C 428.386 -1.1416 3.29801 0
M  V30 4392 C 429.734 -1.54823 3.95367 0
M  V30 4393 O 430.758 -1.23558 3.34084 0
M  V30 4394 O 429.617 -2.12937 5.03309 0
M  V30 4395 H 426.711 -0.354674 0.747085 0
M  V30 4396 H 429.257 0.0182609 1.6969 0
M  V30 4397 H 428.029 -0.290231 3.90222 0
M  V30 4398 H 427.652 -1.94876 3.46568 0
M  V30 4399 N 428.649 -1.55105 -0.279332 0
M  V30 4400 C 429.579 -1.90557 -1.34945 0
M  V30 4401 C 430.56 -0.766738 -1.51839 0
M  V30 4402 O 431.745 -1.02434 -1.64988 0
M  V30 4403 C 428.875 -2.17193 -2.71006 0
M  V30 4404 C 427.829 -3.33021 -2.68851 0
M  V30 4405 C 427.155 -3.45123 -4.08405 0
M  V30 4406 C 428.455 -4.69578 -2.28678 0
M  V30 4407 H 430.149 -2.80188 -1.05522 0
M  V30 4408 H 427.695 -1.34811 -0.506173 0
M  V30 4409 H 429.648 -2.40581 -3.45975 0
M  V30 4410 H 428.372 -1.24355 -3.01999 0
M  V30 4411 H 427.031 -3.0959 -1.9634 0
M  V30 4412 H 426.679 -2.49762 -4.3661 0
M  V30 4413 H 426.379 -4.22995 -4.07859 0
M  V30 4414 H 427.903 -3.70796 -4.85121 0
M  V30 4415 H 429.317 -4.92553 -2.93368 0
M  V30 4416 H 427.714 -5.5032 -2.39306 0
M  V30 4417 H 428.784 -4.68828 -1.23807 0
M  V30 4418 N 430.127 0.543554 -1.4793 0
M  V30 4419 C 431.037 1.67657 -1.64098 0
M  V30 4420 C 432.053 1.65934 -0.523622 0
M  V30 4421 O 433.229 1.85133 -0.792943 0
M  V30 4422 C 430.294 3.04146 -1.66421 0
M  V30 4423 C 429.355 3.16831 -2.89684 0
M  V30 4424 C 428.588 4.46809 -2.91886 0
M  V30 4425 O 428.811 5.33095 -2.02895 0
M  V30 4426 O 427.745 4.63573 -3.83906 0
M  V30 4427 H 431.571 1.56957 -2.59997 0
M  V30 4428 H 429.156 0.715116 -1.31173 0
M  V30 4429 H 431.038 3.85346 -1.70548 0
M  V30 4430 H 429.713 3.152 -0.736923 0
M  V30 4431 H 428.62 2.34977 -2.91095 0
M  V30 4432 H 429.953 3.10687 -3.81752 0
M  V30 4433 N 431.605 1.3629 0.791371 0
M  V30 4434 C 432.568 1.30309 1.88553 0
M  V30 4435 C 433.568 0.211204 1.59407 0
M  V30 4436 O 434.758 0.465865 1.67855 0
M  V30 4437 C 431.89 1.01956 3.25297 0
M  V30 4438 H 433.083 2.27614 1.95273 0
M  V30 4439 H 430.636 1.21035 0.988953 0
M  V30 4440 H 431.371 0.050998 3.2426 0
M  V30 4441 H 431.156 1.80968 3.4784 0
M  V30 4442 H 432.646 1.0037 4.05359 0
M  V30 4443 N 433.083 -1.0153 1.20538 0
M  V30 4444 C 434.046 -2.0826 0.957098 0
M  V30 4445 C 435.046 -1.60657 -0.0678655 0
M  V30 4446 O 436.236 -1.73385 0.168332 0
M  V30 4447 C 433.368 -3.38033 0.441188 0
M  V30 4448 H 434.561 -2.31719 1.90384 0
M  V30 4449 H 432.114 -1.1835 1.02093 0
M  V30 4450 H 432.849 -3.20249 -0.510961 0
M  V30 4451 H 432.634 -3.73911 1.18038 0
M  V30 4452 H 434.124 -4.16613 0.287009 0
M  V30 4453 N 434.561 -1.01147 -1.20859 0
M  V30 4454 C 435.977 -0.725422 -1.42161 0
M  V30 4455 C 436.177 0.696919 -1.89064 0
M  V30 4456 O 435.233 1.46539 -2.05627 0
M  V30 4457 C 436.546 -1.74678 -2.44761 0
M  V30 4458 C 438.094 -1.76433 -2.58535 0
M  V30 4459 C 438.569 -2.77481 -3.64374 0
M  V30 4460 N 440.06 -2.76189 -3.71852 0
M  V30 4461 C 440.795 -3.51035 -4.53389 0
M  V30 4462 N 440.291 -4.35541 -5.38773 0
M  V30 4463 N 442.084 -3.39655 -4.47873 0
M  V30 4464 H 434.235 -1.92979 -0.887282 0
M  V30 4465 H 436.498 -0.833327 -0.451962 0
M  V30 4466 H 436.204 -2.76551 -2.17285 0
M  V30 4467 H 436.078 -1.55472 -3.43669 0
M  V30 4468 H 438.465 -0.75248 -2.85345 0
M  V30 4469 H 438.546 -1.99712 -1.5984 0
M  V30 4470 H 438.19 -3.78827 -3.38308 0
M  V30 4471 H 438.12 -2.51466 -4.6268 0
M  V30 4472 H 440.611 -2.14885 -3.10858 0
M  V30 4473 H 440.924 -4.89432 -5.98061 0
M  V30 4474 H 439.269 -4.39621 -5.38292 0
M  V30 4475 H 442.46 -2.73063 -3.80203 0
M  V30 4476 H 442.633 -3.9824 -5.11184 0
M  V30 4477 N 436.039 1.36541 -0.78704 0
M  V30 4478 C 436.971 2.28761 -0.141773 0
M  V30 4479 C 437.984 1.49365 0.647599 0
M  V30 4480 O 439.173 1.71836 0.483173 0
M  V30 4481 C 436.273 3.28771 0.822368 0
M  V30 4482 C 435.446 4.3732 0.0835594 0
M  V30 4483 C 434.505 5.17307 0.963296 0
M  V30 4484 O 433.531 5.67638 0.421419 0
M  V30 4485 N 434.733 5.33515 2.28784 0
M  V30 4486 H 437.498 2.84777 -0.933919 0
M  V30 4487 H 435.059 1.48682 -0.640735 0
M  V30 4488 H 437.051 3.79169 1.41468 0
M  V30 4489 H 435.621 2.73412 1.5154 0
M  V30 4490 H 434.841 3.88118 -0.689809 0
M  V30 4491 H 436.129 5.0701 -0.426358 0
M  V30 4492 H 435.527 4.94234 2.75226 0
M  V30 4493 H 434.084 5.87165 2.82985 0
M  V30 4494 N 437.518 0.538854 1.48102 0
M  V30 4495 C 438.765 0.0080018 2.02498 0
M  V30 4496 C 439.093 -1.33437 1.41509 0
M  V30 4497 O 438.348 -1.87709 0.553507 0
M  V30 4498 C 438.647 -0.153808 3.57069 0
M  V30 4499 C 438.313 1.11533 4.36888 0
M  V30 4500 C 436.975 1.46314 4.58417 0
M  V30 4501 C 439.327 1.95718 4.83057 0
M  V30 4502 C 436.655 2.6516 5.23361 0
M  V30 4503 C 439.007 3.13751 5.49312 0
M  V30 4504 C 437.671 3.48866 5.69077 0
M  V30 4505 H 436.941 0.00292807 0.740994 0
M  V30 4506 H 439.588 0.706668 1.77984 0
M  V30 4507 H 437.893 -0.935309 3.80472 0
M  V30 4508 H 439.59 -0.579607 3.96789 0
M  V30 4509 H 436.18 0.834484 4.20398 0
M  V30 4510 H 440.364 1.70158 4.66219 0
M  V30 4511 H 435.62 2.92558 5.36861 0
M  V30 4512 H 439.794 3.79282 5.84053 0
M  V30 4513 H 437.421 4.41054 6.19173 0
M  V30 4514 N 438.996 -1.55193 0.274407 0
M  V30 4515 C 440.221 -2.04446 -0.348824 0
M  V30 4516 C 440.646 -1.15149 -1.48735 0
M  V30 4517 O 440.004 -0.149952 -1.80679 0
M  V30 4518 C 440.052 -3.51431 -0.808009 0
M  V30 4519 O 439.156 -3.65225 -1.91531 0
M  V30 4520 H 438.497 -0.66006 -0.0722276 0
M  V30 4521 H 441.027 -2.00481 0.408498 0
M  V30 4522 H 441.037 -3.92781 -1.10395 0
M  V30 4523 H 439.712 -4.15892 0.0249865 0
M  V30 4524 H 438.289 -3.35778 -1.62196 0
M  V30 4525 N 440.474 -0.00167713 -1.576 0
M  V30 4526 C 441.384 1.00548 -2.1196 0
M  V30 4527 C 442.4 1.3758 -1.06526 0
M  V30 4528 O 443.576 1.46278 -1.38436 0
M  V30 4529 C 440.641 2.27809 -2.6135 0
M  V30 4530 C 439.702 1.97074 -3.81393 0
M  V30 4531 C 438.935 3.18267 -4.28417 0
M  V30 4532 O 439.158 4.30009 -3.74765 0
M  V30 4533 O 438.092 3.02167 -5.20556 0
M  V30 4534 H 441.918 0.573373 -2.98238 0
M  V30 4535 H 439.503 0.217255 -1.47812 0
M  V30 4536 H 441.385 3.02568 -2.93309 0
M  V30 4537 H 440.06 2.70254 -1.78169 0
M  V30 4538 H 438.967 1.19785 -3.54404 0
M  V30 4539 H 440.3 1.59464 -4.65652 0
M  V30 4540 N 441.952 1.55251 0.271103 0
M  V30 4541 C 442.915 1.87484 1.31842 0
M  V30 4542 C 443.915 0.749545 1.42262 0
M  V30 4543 O 445.105 1.01771 1.4138 0
M  V30 4544 C 442.237 2.0818 2.69951 0
M  V30 4545 H 443.43 2.81108 1.0449 0
M  V30 4546 H 440.983 1.47771 0.509258 0
M  V30 4547 H 441.718 1.16944 3.02481 0
M  V30 4548 H 441.503 2.90114 2.63774 0
M  V30 4549 H 442.993 2.34385 3.4562 0
M  V30 4550 N 443.43 -0.535701 1.48216 0
M  V30 4551 C 444.676 -1.29375 1.56173 0
M  V30 4552 C 445.009 -1.92804 0.232429 0
M  V30 4553 O 444.284 -1.78992 -0.761048 0
M  V30 4554 C 444.567 -2.38747 2.69577 0
M  V30 4555 C 444.42 -1.80046 4.12193 0
M  V30 4556 C 445.739 -3.40551 2.78771 0
M  V30 4557 H 442.858 -0.469027 0.568491 0
M  V30 4558 H 445.5 -0.597358 1.80365 0
M  V30 4559 H 443.65 -2.98147 2.4908 0
M  V30 4560 H 445.322 -1.24742 4.44114 0
M  V30 4561 H 443.565 -1.10609 4.19462 0
M  V30 4562 H 444.236 -2.59212 4.87353 0
M  V30 4563 H 446.712 -2.91099 2.97322 0
M  V30 4564 H 445.588 -4.1448 3.59857 0
M  V30 4565 H 445.849 -4.00746 1.86696 0
M  V30 4566 N 444.908 -1.36708 -0.784132 0
M  V30 4567 C 445.855 -1.31466 -1.89698 0
M  V30 4568 C 446.825 -0.18239 -1.65096 0
M  V30 4569 O 448.01 -0.369762 -1.87183 0
M  V30 4570 C 445.15 -1.1151 -3.26588 0
M  V30 4571 C 444.263 -2.33859 -3.63227 0
M  V30 4572 C 443.398 -2.06873 -4.89262 0
M  V30 4573 C 442.437 -3.25154 -5.18595 0
M  V30 4574 N 441.574 -2.978 -6.35814 0
M  V30 4575 H 446.414 -2.26619 -1.93515 0
M  V30 4576 H 443.951 -1.12625 -0.946256 0
M  V30 4577 H 445.909 -0.979653 -4.05535 0
M  V30 4578 H 444.539 -0.200103 -3.22179 0
M  V30 4579 H 443.591 -2.58188 -2.79362 0
M  V30 4580 H 444.903 -3.22109 -3.8085 0
M  V30 4581 H 444.057 -1.90289 -5.76086 0
M  V30 4582 H 442.796 -1.15942 -4.73718 0
M  V30 4583 H 441.801 -3.42292 -4.30251 0
M  V30 4584 H 443.026 -4.1692 -5.36055 0
M  V30 4585 H 440.972 -2.09485 -6.21653 0
M  V30 4586 H 440.889 -3.7959 -6.53794 0
M  V30 4587 H 442.157 -2.84805 -7.25607 0
M  V30 4588 N 446.386 1.0089 -1.21074 0
M  V30 4589 C 447.349 2.0775 -0.968129 0
M  V30 4590 C 448.349 1.6069 0.0593445 0
M  V30 4591 O 449.539 1.73293 -0.177525 0
M  V30 4592 C 446.671 3.37794 -0.459108 0
M  V30 4593 H 447.864 2.30707 -1.9161 0
M  V30 4594 H 445.417 1.17807 -1.02719 0
M  V30 4595 H 446.152 3.20516 0.49397 0
M  V30 4596 H 445.937 3.7328 -1.20019 0
M  V30 4597 H 447.427 4.16454 -0.309099 0
M  V30 4598 N 447.864 1.01787 1.20321 0
M  V30 4599 C 448.774 0.598898 2.26827 0
M  V30 4600 C 449.79 -0.36418 1.70146 0
M  V30 4601 O 450.966 -0.224812 2.00141 0
M  V30 4602 C 448.031 -0.0549769 3.46656 0
M  V30 4603 C 447.092 0.954205 4.18561 0
M  V30 4604 C 446.325 0.331439 5.3267 0
M  V30 4605 O 446.548 -0.86851 5.63749 0
M  V30 4606 O 445.482 1.0488 5.92692 0
M  V30 4607 H 449.308 1.48562 2.64883 0
M  V30 4608 H 446.893 0.787434 1.26964 0
M  V30 4609 H 448.775 -0.420102 4.19301 0
M  V30 4610 H 447.45 -0.915876 3.10473 0
M  V30 4611 H 446.357 1.37072 3.48083 0
M  V30 4612 H 447.69 1.78511 4.58688 0
M  V30 4613 N 449.342 -1.36122 0.79427 0
M  V30 4614 C 450.572 -2.03067 0.380437 0
M  V30 4615 C 450.98 -1.60018 -1.00949 0
M  V30 4616 O 450.323 -0.787425 -1.65968 0
M  V30 4617 C 450.385 -3.57587 0.37034 0
M  V30 4618 C 450.049 -4.23855 1.70867 0
M  V30 4619 C 451.046 -4.46404 2.66496 0
M  V30 4620 C 448.731 -4.61229 1.9893 0
M  V30 4621 C 450.725 -5.05412 3.88378 0
M  V30 4622 C 448.412 -5.19953 3.21079 0
M  V30 4623 C 449.41 -5.41985 4.15621 0
M  V30 4624 O 449.098 -5.99475 5.35616 0
M  V30 4625 H 448.83 -0.658168 0.154243 0
M  V30 4626 H 451.384 -1.7498 1.0757 0
M  V30 4627 H 449.614 -3.84814 -0.381444 0
M  V30 4628 H 451.303 -4.05895 -0.0194894 0
M  V30 4629 H 452.069 -4.17921 2.46103 0
M  V30 4630 H 447.948 -4.43402 1.26158 0
M  V30 4631 H 451.492 -5.22524 4.62185 0
M  V30 4632 H 447.389 -5.47862 3.41347 0
M  V30 4633 H 448.157 -6.17937 5.36745 0
M  V30 4634 N 450.82 -0.546701 -1.47814 0
M  V30 4635 C 452.231 -0.110564 -1.86372 0
M  V30 4636 C 452.582 1.31678 -1.45449 0
M  V30 4637 O 451.707 1.98889 -0.852758 0
M  V30 4638 C 452.302 -0.193873 -3.38245 0
M  V30 4639 C 450.861 0.187164 -3.75934 0
M  V30 4640 C 450.008 -0.546166 -2.71868 0
M  V30 4641 H 452.959 -0.757022 -1.39481 0
M  V30 4642 H 452.98 0.590218 -3.75895 0
M  V30 4643 H 452.492 -1.23282 -3.67999 0
M  V30 4644 H 450.593 1.22762 -3.51796 0
M  V30 4645 H 450.706 -0.164083 -4.78819 0
M  V30 4646 H 449.07 0.00953904 -2.54698 0
M  V30 4647 H 449.853 -1.58606 -3.04465 0
M  V30 4648 N 452.299 1.55045 -0.282633 0
M  V30 4649 C 453.576 1.9179 0.384166 0
M  V30 4650 C 453.956 1.20778 1.73136 0
M  V30 4651 O 453.304 0.33719 2.25998 0
M  V30 4652 C 453.514 3.45149 0.517014 0
M  V30 4653 C 454.862 4.17064 0.796427 0
M  V30 4654 O 455.886 3.51084 0.601535 0
M  V30 4655 O 454.745 5.33837 1.16962 0
M  V30 4656 H 451.839 0.799483 0.211558 0
M  V30 4657 H 454.385 1.66474 -0.32934 0
M  V30 4658 H 453.157 3.88922 -0.430772 0
M  V30 4659 H 452.78 3.76443 1.2797 0
M  V30 4660 N 453.777 0.010035 1.57597 0
M  V30 4661 C 454.709 -1.00649 2.05918 0
M  V30 4662 C 455.722 -1.30077 0.978964 0
M  V30 4663 O 456.911 -1.26878 1.25556 0
M  V30 4664 C 454.011 -2.33876 2.45265 0
M  V30 4665 C 453.184 -2.23242 3.7614 0
M  V30 4666 C 452.243 -3.39242 4.02245 0
M  V30 4667 O 451.269 -3.1698 4.72771 0
M  V30 4668 N 452.471 -4.6242 3.50924 0
M  V30 4669 H 455.236 -0.594333 2.93748 0
M  V30 4670 H 452.797 -0.17714 1.60928 0
M  V30 4671 H 454.789 -3.1027 2.59836 0
M  V30 4672 H 453.359 -2.66799 1.62902 0
M  V30 4673 H 452.579 -1.31696 3.71551 0
M  V30 4674 H 453.867 -2.13321 4.61922 0
M  V30 4675 H 453.265 -4.83404 2.93832 0
M  V30 4676 H 451.822 -5.36046 3.70807 0
M  V30 4677 N 455.255 -1.55392 -0.262866 0
M  V30 4678 C 456.188 -1.8391 -1.35101 0
M  V30 4679 C 457.166 -0.692901 -1.47097 0
M  V30 4680 O 458.35 -0.936979 -1.63563 0
M  V30 4681 C 455.477 -2.00969 -2.72634 0
M  V30 4682 C 454.523 -3.23559 -2.7787 0
M  V30 4683 S 455.356 -4.80647 -2.3609 0
M  V30 4684 C 456.512 -5.00692 -3.75578 0
M  V30 4685 H 456.745 -2.75918 -1.1071 0
M  V30 4686 H 454.278 -1.47294 -0.463029 0
M  V30 4687 H 456.236 -2.11482 -3.51832 0
M  V30 4688 H 454.897 -1.09832 -2.94272 0
M  V30 4689 H 454.09 -3.32413 -3.78837 0
M  V30 4690 H 453.692 -3.11689 -2.06702 0
M  V30 4691 H 455.984 -4.87055 -4.70939 0
M  V30 4692 H 456.927 -6.02717 -3.71669 0
M  V30 4693 H 457.335 -4.28619 -3.6735 0
M  V30 4694 N 456.733 0.527833 -1.48498 0
M  V30 4695 C 457.663 1.64136 -1.66077 0
M  V30 4696 C 458.644 1.62286 -0.509625 0
M  V30 4697 O 459.829 1.79449 -0.742413 0
M  V30 4698 C 456.959 3.02717 -1.70234 0
M  V30 4699 C 455.913 3.19426 -2.8487 0
M  V30 4700 C 455.239 4.5909 -2.74118 0
M  V30 4701 C 456.539 3.01993 -4.26142 0
M  V30 4702 H 458.233 1.4968 -2.593 0
M  V30 4703 H 455.779 0.718654 -1.24785 0
M  V30 4704 H 457.732 3.80491 -1.8112 0
M  V30 4705 H 456.456 3.18201 -0.735911 0
M  V30 4706 H 455.115 2.4407 -2.73542 0
M  V30 4707 H 454.763 4.71413 -1.7544 0
M  V30 4708 H 454.463 4.71214 -3.51042 0
M  V30 4709 H 455.987 5.3896 -2.86974 0
M  V30 4710 H 457.401 3.69558 -4.38292 0
M  V30 4711 H 455.798 3.2561 -5.04082 0
M  V30 4712 H 456.868 1.98396 -4.42456 0
M  V30 4713 N 458.211 1.37122 0.776871 0
M  V30 4714 C 459.174 1.32301 1.8716 0
M  V30 4715 C 460.174 0.228099 1.59174 0
M  V30 4716 O 461.364 0.483642 1.67352 0
M  V30 4717 C 458.496 1.054 3.24197 0
M  V30 4718 H 459.689 2.29673 1.92848 0
M  V30 4719 H 457.242 1.22077 0.97606 0
M  V30 4720 H 457.977 0.0853872 3.24188 0
M  V30 4721 H 457.762 1.84648 3.45901 0
M  V30 4722 H 459.252 1.04664 4.04271 0
M  V30 4723 N 459.689 -1.00246 1.21608 0
M  V30 4724 C 460.919 -1.77373 1.05935 0
M  V30 4725 C 461.327 -1.85059 -0.393686 0
M  V30 4726 O 460.67 -1.31289 -1.28487 0
M  V30 4727 C 460.732 -3.22705 1.58435 0
M  V30 4728 C 460.396 -3.38591 3.06929 0
M  V30 4729 C 461.393 -3.2667 4.04454 0
M  V30 4730 C 459.078 -3.6395 3.46187 0
M  V30 4731 C 461.072 -3.39877 5.39224 0
M  V30 4732 C 458.759 -3.768 4.81108 0
M  V30 4733 C 459.757 -3.6477 5.77436 0
M  V30 4734 O 459.445 -3.77206 7.09909 0
M  V30 4735 H 459.177 -0.56419 0.372378 0
M  V30 4736 H 461.731 -1.26971 1.61454 0
M  V30 4737 H 459.961 -3.74255 0.973147 0
M  V30 4738 H 461.65 -3.81515 1.38568 0
M  V30 4739 H 462.416 -3.06999 3.75468 0
M  V30 4740 H 458.295 -3.72395 2.71741 0
M  V30 4741 H 461.839 -3.30404 6.14393 0
M  V30 4742 H 457.736 -3.95975 5.09779 0
M  V30 4743 H 458.504 -3.94138 7.17355 0
M  V30 4744 N 461.167 -1.02423 -1.1978 0
M  V30 4745 C 462.115 -0.594474 -2.24875 0
M  V30 4746 C 463.109 0.370598 -1.65296 0
M  V30 4747 O 464.315 0.239684 -1.78397 0
M  V30 4748 H 460.69 -0.173961 -0.731602 0
M  V30 4749 H 462.661 -1.4916 -2.58445 0
M  V30 4750 C 461.41 0.0436512 -3.47673 0
M  V30 4751 H 460.733 -0.689963 -3.93801 0
M  V30 4752 H 462.173 0.307362 -4.22884 0
M  V30 4753 C 460.632 1.28881 -3.11274 0
M  V30 4754 O 461.162 2.38135 -3.23503 0
M  V30 4755 N 459.368 1.1758 -2.6575 0
M  V30 4756 H 458.915 0.286769 -2.55999 0
M  V30 4757 H 458.873 2.00988 -2.41767 0
M  V30 4758 N 462.645 1.35699 -0.801477 0
M  V30 4759 C 463.885 2.00741 -0.385027 0
M  V30 4760 C 464.249 1.62213 1.02718 0
M  V30 4761 O 465.45 2.19936 1.54537 0
M  V30 4762 C 463.721 3.53032 -0.557057 0
M  V30 4763 S 465.28 4.38195 -0.230272 0
M  V30 4764 H 462.098 0.695748 -0.146477 0
M  V30 4765 H 464.7 1.65378 -1.04261 0
M  V30 4766 H 463.404 3.7856 -1.58494 0
M  V30 4767 H 462.935 3.93229 0.116029 0
M  V30 4768 H 464.95 4.86748 0.963895 0
M  V30 4769 N 464.123 0.554532 1.47522 0
M  V30 4770 C 465.348 0.0322661 2.07375 0
M  V30 4771 C 465.773 -1.25079 1.40488 0
M  V30 4772 O 465.131 -1.74859 0.47896 0
M  V30 4773 C 465.179 -0.149397 3.6029 0
M  V30 4774 O 464.283 -1.21259 3.9417 0
M  V30 4775 H 463.624 0.0501228 0.662106 0
M  V30 4776 H 466.154 0.769452 1.8958 0
M  V30 4777 H 466.164 -0.364437 4.06369 0
M  V30 4778 H 464.839 0.787743 4.08372 0
M  V30 4779 H 463.416 -0.97825 3.5984 0
M  V30 4780 N 465.601 -1.54893 0.290851 0
M  V30 4781 C 467.012 -1.85584 -0.203816 0
M  V30 4782 C 467.363 -1.21285 -1.54222 0
M  V30 4783 O 466.488 -0.506841 -2.10381 0
M  V30 4784 C 467.083 -3.367 -0.376595 0
M  V30 4785 C 465.642 -3.6746 -0.815485 0
M  V30 4786 C 464.789 -2.77178 0.0821087 0
M  V30 4787 H 467.74 -1.50208 0.512175 0
M  V30 4788 H 467.761 -3.60656 -1.21275 0
M  V30 4789 H 467.273 -3.8347 0.59767 0
M  V30 4790 H 465.374 -3.26201 -1.80066 0
M  V30 4791 H 465.487 -4.7478 -0.641905 0
M  V30 4792 H 463.851 -2.50925 -0.436895 0
M  V30 4793 H 464.634 -3.26767 1.05254 0
M  V30 4794 N 467.08 -0.0183926 -1.57589 0
M  V30 4795 C 468.305 0.676634 -1.96052 0
M  V30 4796 C 468.73 1.6548 -0.894307 0
M  V30 4797 O 468.088 1.80712 0.145849 0
M  V30 4798 C 468.136 1.36872 -3.33614 0
M  V30 4799 O 467.24 2.48372 -3.29219 0
M  V30 4800 H 466.581 0.1786 -0.63953 0
M  V30 4801 H 469.111 -0.077056 -2.04455 0
M  V30 4802 H 469.121 1.72797 -3.69601 0
M  V30 4803 H 467.796 0.651636 -4.10763 0
M  V30 4804 H 466.373 2.14639 -3.04934 0
M  V30 4805 N 468.558 1.5553 0.254621 0
M  V30 4806 C 469.805 1.77 0.983736 0
M  V30 4807 C 470.133 0.58133 1.85609 0
M  V30 4808 O 469.388 -0.435621 1.9079 0
M  V30 4809 C 469.687 3.03891 1.88109 0
M  V30 4810 C 469.353 4.35597 1.16472 0
M  V30 4811 C 468.015 4.7139 0.966714 0
M  V30 4812 C 470.367 5.1705 0.656387 0
M  V30 4813 C 467.695 5.86176 0.247942 0
M  V30 4814 C 470.047 6.32581 -0.0488807 0
M  V30 4815 C 468.711 6.67 -0.258438 0
M  V30 4816 H 467.981 0.647688 0.359974 0
M  V30 4817 H 470.628 1.89802 0.254463 0
M  V30 4818 H 468.933 2.86068 2.67717 0
M  V30 4819 H 470.63 3.17701 2.44677 0
M  V30 4820 H 467.22 4.07475 1.32899 0
M  V30 4821 H 471.404 4.8986 0.796933 0
M  V30 4822 H 466.66 6.11354 0.075035 0
M  V30 4823 H 470.834 6.94942 -0.450444 0
M  V30 4824 H 468.461 7.55793 -0.817358 0
M  V30 4825 N 470.036 -0.519951 1.48776 0
M  V30 4826 C 470.984 -1.64443 1.64503 0
M  V30 4827 C 471.978 -1.61501 0.511248 0
M  V30 4828 O 473.184 -1.66238 0.690294 0
M  V30 4829 H 469.559 -0.544776 0.518385 0
M  V30 4830 H 471.53 -1.48325 2.58925 0
M  V30 4831 C 470.279 -3.02673 1.71127 0
M  V30 4832 H 469.602 -3.05635 2.57735 0
M  V30 4833 H 471.042 -3.80941 1.86172 0
M  V30 4834 C 469.501 -3.33854 0.452032 0
M  V30 4835 O 470.031 -3.99385 -0.430678 0
M  V30 4836 N 468.237 -2.88825 0.32069 0
M  V30 4837 H 467.784 -2.35674 1.03998 0
M  V30 4838 H 467.742 -3.10056 -0.520814 0
M  V30 4839 N 471.514 -1.37532 -0.769588 0
M  V30 4840 C 472.76 -1.34063 -1.52966 0
M  V30 4841 C 473.115 0.0737942 -1.92258 0
M  V30 4842 O 472.408 1.03291 -1.61374 0
M  V30 4843 C 472.602 -2.21558 -2.8044 0
M  V30 4844 C 472.431 -3.71367 -2.53608 0
M  V30 4845 C 471.201 -4.40464 -2.47628 0
M  V30 4846 C 473.399 -4.64177 -2.21459 0
M  V30 4847 N 471.381 -5.758 -2.12902 0
M  V30 4848 C 472.752 -5.87907 -1.9689 0
M  V30 4849 C 474.807 -4.52541 -2.07633 0
M  V30 4850 C 473.51 -7.01304 -1.59892 0
M  V30 4851 C 475.536 -5.65825 -1.72034 0
M  V30 4852 C 474.898 -6.88606 -1.48327 0
M  V30 4853 H 470.997 -0.545856 -0.559969 0
M  V30 4854 H 473.581 -1.72773 -0.897634 0
M  V30 4855 H 471.752 -1.85061 -3.41478 0
M  V30 4856 H 473.484 -2.09332 -3.46356 0
M  V30 4857 H 470.239 -3.93491 -2.63556 0
M  V30 4858 H 470.663 -6.47328 -1.9823 0
M  V30 4859 H 475.305 -3.58183 -2.24643 0
M  V30 4860 H 473.023 -7.95594 -1.4162 0
M  V30 4861 H 476.609 -5.58793 -1.61991 0
M  V30 4862 H 475.489 -7.74779 -1.21189 0
M  V30 4863 N 472.992 0.995999 -1.22138 0
M  V30 4864 C 473.939 2.08551 -0.988687 0
M  V30 4865 C 474.909 1.65864 0.0885021 0
M  V30 4866 O 476.094 1.90704 -0.0604589 0
M  V30 4867 C 473.234 3.40374 -0.569191 0
M  V30 4868 C 472.347 3.96421 -1.71681 0
M  V30 4869 C 471.482 5.1639 -1.2456 0
M  V30 4870 C 470.521 5.64567 -2.36497 0
M  V30 4871 N 469.658 6.75777 -1.90445 0
M  V30 4872 H 474.498 2.2779 -1.92135 0
M  V30 4873 H 472.035 1.1168 -0.957388 0
M  V30 4874 H 473.993 4.16068 -0.307166 0
M  V30 4875 H 472.623 3.21145 0.326462 0
M  V30 4876 H 471.675 3.17628 -2.09324 0
M  V30 4877 H 472.987 4.2816 -2.55891 0
M  V30 4878 H 472.141 5.99362 -0.940774 0
M  V30 4879 H 470.88 4.86266 -0.373662 0
M  V30 4880 H 469.885 4.80185 -2.67772 0
M  V30 4881 H 471.11 5.96716 -3.24202 0
M  V30 4882 H 469.056 6.47443 -1.05609 0
M  V30 4883 H 468.973 7.06818 -2.68223 0
M  V30 4884 H 470.241 7.62262 -1.63022 0
M  V30 4885 N 474.47 1.03057 1.19235 0
M  V30 4886 C 475.417 0.612832 2.22515 0
M  V30 4887 C 476.387 -0.374224 1.61829 0
M  V30 4888 O 477.572 -0.270501 1.88873 0
M  V30 4889 C 474.712 -0.028475 3.45088 0
M  V30 4890 C 473.825 1.00483 4.20151 0
M  V30 4891 C 472.96 0.333102 5.30155 0
M  V30 4892 C 471.999 1.3522 5.96977 0
M  V30 4893 N 471.136 0.70616 6.9854 0
M  V30 4894 H 475.976 1.49812 2.57605 0
M  V30 4895 H 473.513 0.749658 1.26564 0
M  V30 4896 H 475.471 -0.417548 4.15105 0
M  V30 4897 H 474.101 -0.877334 3.10649 0
M  V30 4898 H 473.153 1.51194 3.49062 0
M  V30 4899 H 474.465 1.77929 4.65986 0
M  V30 4900 H 473.619 -0.110725 6.06599 0
M  V30 4901 H 472.358 -0.473547 4.85396 0
M  V30 4902 H 471.363 1.80627 5.19282 0
M  V30 4903 H 472.588 2.16037 6.4382 0
M  V30 4904 H 470.534 -0.0803667 6.55951 0
M  V30 4905 H 470.451 1.41848 7.42573 0
M  V30 4906 H 471.719 0.286391 7.78974 0
M  V30 4907 N 475.948 -1.35272 0.808662 0
M  V30 4908 C 476.898 -2.27181 0.193124 0
M  V30 4909 C 477.882 -1.47871 -0.634265 0
M  V30 4910 O 479.074 -1.70048 -0.491182 0
M  V30 4911 C 476.203 -3.36979 -0.655751 0
M  V30 4912 C 475.289 -4.23712 0.181481 0
M  V30 4913 N 475.68 -4.90225 1.24551 0
M  V30 4914 C 473.978 -4.45985 -0.0365493 0
M  V30 4915 C 474.679 -5.54537 1.75682 0
M  V30 4916 N 473.655 -5.33107 1.06294 0
M  V30 4917 H 477.457 -2.76101 1.00724 0
M  V30 4918 H 474.971 -1.48823 0.650029 0
M  V30 4919 H 476.968 -4.01774 -1.11279 0
M  V30 4920 H 475.628 -2.89611 -1.46819 0
M  V30 4921 H 476.639 -4.91641 1.62818 0
M  V30 4922 H 473.316 -4.09409 -0.817964 0
M  V30 4923 H 474.706 -6.17597 2.64621 0
M  V30 4924 N 477.426 -0.562348 -1.47226 0
M  V30 4925 C 478.356 0.170627 -2.32876 0
M  V30 4926 C 479.337 0.903748 -1.44106 0
M  V30 4927 O 480.522 0.883206 -1.72954 0
M  V30 4928 C 477.652 1.19786 -3.25989 0
M  V30 4929 C 476.606 0.580875 -4.2404 0
M  V30 4930 C 475.932 1.71311 -5.06514 0
M  V30 4931 C 477.232 -0.468714 -5.20193 0
M  V30 4932 H 478.926 -0.544441 -2.94408 0
M  V30 4933 H 476.472 -0.263271 -1.41573 0
M  V30 4934 H 478.425 1.71884 -3.84752 0
M  V30 4935 H 477.149 1.94294 -2.62521 0
M  V30 4936 H 475.808 0.0811538 -3.6651 0
M  V30 4937 H 475.456 2.44736 -4.39447 0
M  V30 4938 H 475.156 1.30604 -5.72902 0
M  V30 4939 H 476.68 2.23725 -5.68137 0
M  V30 4940 H 478.094 -0.0336028 -5.7329 0
M  V30 4941 H 476.491 -0.794957 -5.94811 0
M  V30 4942 H 477.561 -1.36269 -4.65359 0
M  V30 4943 N 478.904 1.54736 -0.299062 0
M  V30 4944 C 480.181 1.92187 0.363802 0
M  V30 4945 C 480.561 1.22607 1.71845 0
M  V30 4946 O 479.909 0.361141 2.25628 0
M  V30 4947 C 480.119 3.45678 0.480377 0
M  V30 4948 C 481.467 4.17885 0.752147 0
M  V30 4949 O 482.491 3.51702 0.564264 0
M  V30 4950 O 481.35 5.35048 1.11294 0
M  V30 4951 H 478.444 0.801681 0.203066 0
M  V30 4952 H 480.99 1.66115 -0.346978 0
M  V30 4953 H 479.762 3.88443 -0.471999 0
M  V30 4954 H 479.385 3.77779 1.2397 0
M  V30 4955 N 480.382 0.0267497 1.57577 0
M  V30 4956 C 481.659 -0.690926 1.82991 0
M  V30 4957 C 482.039 -1.90471 0.910164 0
M  V30 4958 O 481.387 -2.28474 -0.0347985 0
M  V30 4959 C 481.597 -1.07139 3.32148 0
M  V30 4960 C 482.945 -1.46402 3.98562 0
M  V30 4961 O 483.969 -1.16443 3.36629 0
M  V30 4962 O 482.828 -2.02214 5.07712 0
M  V30 4963 H 479.922 -0.338747 0.75444 0
M  V30 4964 H 482.468 0.0542506 1.69613 0
M  V30 4965 H 481.24 -0.207394 3.9075 0
M  V30 4966 H 480.863 -1.87481 3.50623 0
M  V30 4967 N 481.861 -1.55662 -0.24637 0
M  V30 4968 C 482.824 -1.89558 -1.28842 0
M  V30 4969 C 483.824 -0.772082 -1.41052 0
M  V30 4970 O 485.014 -1.04007 -1.39743 0
M  V30 4971 C 482.146 -2.12449 -2.66605 0
M  V30 4972 H 483.339 -2.82735 -1.00004 0
M  V30 4973 H 480.892 -1.48562 -0.485684 0
M  V30 4974 H 481.627 -1.21742 -3.00582 0
M  V30 4975 H 481.412 -2.94273 -2.59125 0
M  V30 4976 H 482.902 -2.39854 -3.41847 0
M  V30 4977 N 483.339 0.512053 -1.4905 0
M  V30 4978 C 484.567 1.29116 -1.61669 0
M  V30 4979 C 484.982 1.86655 -0.283787 0
M  V30 4980 O 484.339 1.67293 0.729331 0
M  V30 4981 C 484.39 2.4293 -2.67707 0
M  V30 4982 O 484.111 1.87758 -3.95826 0
M  V30 4983 C 485.612 3.34476 -2.90931 0
M  V30 4984 H 482.832 0.392009 -0.544583 0
M  V30 4985 H 485.376 0.615881 -1.95006 0
M  V30 4986 H 483.531 3.06308 -2.37179 0
M  V30 4987 H 483.945 2.62393 -4.54148 0
M  V30 4988 H 485.419 4.10642 -3.68886 0
M  V30 4989 H 485.896 3.90801 -2.00427 0
M  V30 4990 H 486.502 2.76874 -3.22832 0
M  V30 4991 N 484.817 1.37938 0.762283 0
M  V30 4992 C 486.066 1.32989 1.51647 0
M  V30 4993 C 486.379 -0.0802922 1.95435 0
M  V30 4994 O 487.585 -0.252295 2.70325 0
M  V30 4995 C 486.041 2.33485 2.73885 0
M  V30 4996 C 485.649 3.80079 2.37157 0
M  V30 4997 C 487.393 2.37563 3.51801 0
M  V30 4998 C 485.3 4.72283 3.55954 0
M  V30 4999 H 484.23 0.494301 0.56937 0
M  V30 5000 H 486.881 1.63448 0.834083 0
M  V30 5001 H 485.263 1.96056 3.44061 0
M  V30 5002 H 486.437 4.26398 1.74704 0
M  V30 5003 H 484.752 3.79037 1.72395 0
M  V30 5004 H 487.349 3.0365 4.40114 0
M  V30 5005 H 487.692 1.39199 3.92338 0
M  V30 5006 H 488.225 2.73747 2.8863 0
M  V30 5007 H 484.964 5.7181 3.2049 0
M  V30 5008 H 484.484 4.30663 4.1748 0
M  V30 5009 H 486.163 4.89876 4.22647 0
M  V30 5010 N 486.295 -0.989507 1.22664 0
M  V30 5011 C 487.258 -2.06183 1.00106 0
M  V30 5012 C 488.258 -1.60765 -0.0337726 0
M  V30 5013 O 489.448 -1.72989 0.205072 0
M  V30 5014 C 486.58 -3.37021 0.51279 0
M  V30 5015 H 487.773 -2.27629 1.95256 0
M  V30 5016 H 485.326 -1.16158 1.0458 0
M  V30 5017 H 486.061 -3.21261 -0.442917 0
M  V30 5018 H 485.846 -3.71323 1.25942 0
M  V30 5019 H 487.336 -4.1591 0.375315 0
M  V30 5020 N 487.773 -1.03688 -1.18687 0
M  V30 5021 C 488.72 -0.624624 -2.22187 0
M  V30 5022 C 489.69 0.365636 -1.62026 0
M  V30 5023 O 490.875 0.260481 -1.89014 0
M  V30 5024 C 488.015 0.0101738 -3.45099 0
M  V30 5025 C 487.128 -1.02709 -4.19613 0
M  V30 5026 C 486.263 -0.361213 -5.2997 0
M  V30 5027 C 485.302 -1.38384 -5.96252 0
M  V30 5028 N 484.439 -0.743196 -6.98155 0
M  V30 5029 H 489.279 -1.51176 -2.56807 0
M  V30 5030 H 486.816 -0.75636 -1.26165 0
M  V30 5031 H 488.774 0.395528 -4.15321 0
M  V30 5032 H 487.404 0.860848 -3.1111 0
M  V30 5033 H 486.456 -1.53043 -3.48256 0
M  V30 5034 H 487.768 -1.80398 -4.65036 0
M  V30 5035 H 486.922 0.0785537 -6.06649 0
M  V30 5036 H 485.661 0.447799 -4.8564 0
M  V30 5037 H 484.666 -1.83378 -5.18317 0
M  V30 5038 H 485.891 -2.19448 -6.42666 0
M  V30 5039 H 483.837 0.0455789 -6.55984 0
M  V30 5040 H 483.754 -1.45784 -7.41811 0
M  V30 5041 H 485.022 -0.327698 -7.78811 0
M  V30 5042 N 489.251 1.34841 -0.815825 0
M  V30 5043 C 490.498 1.98499 -0.400535 0
M  V30 5044 C 490.826 1.64699 1.03463 0
M  V30 5045 O 490.081 0.907006 1.73412 0
M  V30 5046 C 490.38 3.53273 -0.541541 0
M  V30 5047 C 490.046 4.06966 -1.94138 0
M  V30 5048 C 488.708 4.21341 -2.32433 0
M  V30 5049 C 491.06 4.35933 -2.85677 0
M  V30 5050 C 488.388 4.62007 -3.61617 0
M  V30 5051 C 490.74 4.78042 -4.14317 0
M  V30 5052 C 489.404 4.90622 -4.52599 0
M  V30 5053 H 488.674 0.72636 -0.146566 0
M  V30 5054 H 491.321 1.60902 -1.0384 0
M  V30 5055 H 489.626 3.91387 0.179741 0
M  V30 5056 H 491.323 4.00497 -0.20085 0
M  V30 5057 H 487.913 3.96235 -1.63388 0
M  V30 5058 H 492.097 4.24372 -2.57337 0
M  V30 5059 H 487.353 4.69937 -3.91113 0
M  V30 5060 H 491.527 4.99415 -4.85342 0
M  V30 5061 H 489.154 5.2189 -5.52752 0
M  V30 5062 N 490.729 0.570148 1.46925 0
M  V30 5063 C 491.661 -0.207909 2.28255 0
M  V30 5064 C 492.674 -0.867301 1.37774 0
M  V30 5065 O 493.863 -0.738976 1.62485 0
M  V30 5066 C 490.963 -1.31298 3.12433 0
M  V30 5067 C 490.136 -0.747915 4.30958 0
M  V30 5068 C 489.195 -1.7391 4.9663 0
M  V30 5069 O 488.221 -1.2801 5.54619 0
M  V30 5070 N 489.423 -3.07288 4.92498 0
M  V30 5071 H 492.188 0.489794 2.95671 0
M  V30 5072 H 489.749 0.407076 1.56699 0
M  V30 5073 H 491.741 -1.97507 3.53232 0
M  V30 5074 H 490.311 -1.91373 2.47175 0
M  V30 5075 H 489.531 0.0913066 3.94094 0
M  V30 5076 H 490.819 -0.349958 5.07595 0
M  V30 5077 H 490.217 -3.47213 4.46609 0
M  V30 5078 H 488.774 -3.69021 5.37277 0
M  V30 5079 N 492.207 -1.54576 0.307264 0
M  V30 5080 C 493.154 -2.23751 -0.56604 0
M  V30 5081 C 494.124 -1.22235 -1.12462 0
M  V30 5082 O 495.309 -1.50873 -1.16799 0
M  V30 5083 C 492.449 -2.98661 -1.72903 0
M  V30 5084 C 491.562 -4.14963 -1.20124 0
M  V30 5085 C 490.697 -4.77441 -2.3286 0
M  V30 5086 C 489.736 -5.85875 -1.77247 0
M  V30 5087 N 488.873 -6.42282 -2.8358 0
M  V30 5088 H 493.713 -2.97984 0.0304578 0
M  V30 5089 H 491.25 -1.47076 0.0268015 0
M  V30 5090 H 493.208 -3.40329 -2.41313 0
M  V30 5091 H 491.838 -2.26793 -2.29706 0
M  V30 5092 H 490.89 -3.78193 -0.409198 0
M  V30 5093 H 492.202 -4.93066 -0.754171 0
M  V30 5094 H 491.356 -5.21993 -3.09205 0
M  V30 5095 H 490.095 -3.98684 -2.80896 0
M  V30 5096 H 489.1 -5.40741 -0.993926 0
M  V30 5097 H 490.325 -6.6652 -1.30107 0
M  V30 5098 H 488.271 -5.66406 -3.30939 0
M  V30 5099 H 488.188 -7.1575 -2.43388 0
M  V30 5100 H 489.456 -6.91492 -3.59804 0
M  V30 5101 N 493.685 -0.035106 -1.57561 0
M  V30 5102 C 494.595 0.960295 -2.14046 0
M  V30 5103 C 495.611 1.3529 -1.0942 0
M  V30 5104 O 496.787 1.43309 -1.41508 0
M  V30 5105 C 493.852 2.22214 -2.66124 0
M  V30 5106 C 492.913 1.8894 -3.85487 0
M  V30 5107 C 492.146 3.09109 -4.35072 0
M  V30 5108 O 492.369 4.21963 -3.83802 0
M  V30 5109 O 491.303 2.91058 -5.26848 0
M  V30 5110 H 495.129 0.509983 -2.99387 0
M  V30 5111 H 492.714 0.185853 -1.48239 0
M  V30 5112 H 494.596 2.96279 -2.99661 0
M  V30 5113 H 493.271 2.66414 -1.83862 0
M  V30 5114 H 492.178 1.12241 -3.56865 0
M  V30 5115 H 493.511 1.49551 -4.6893 0
M  V30 5116 N 495.163 1.55791 0.238111 0
M  V30 5117 C 496.093 1.94068 1.29846 0
M  V30 5118 C 497.074 0.806726 1.49753 0
M  V30 5119 O 498.259 1.06772 1.62214 0
M  V30 5120 C 495.389 2.24302 2.65153 0
M  V30 5121 C 494.343 3.40032 2.59927 0
M  V30 5122 C 493.669 3.55829 3.99111 0
M  V30 5123 C 494.969 4.75476 2.16148 0
M  V30 5124 H 496.663 2.82887 0.980563 0
M  V30 5125 H 494.209 1.36105 0.470253 0
M  V30 5126 H 496.162 2.4967 3.39475 0
M  V30 5127 H 494.886 1.32318 2.98596 0
M  V30 5128 H 493.545 3.14687 1.88063 0
M  V30 5129 H 493.193 2.6125 4.29834 0
M  V30 5130 H 492.893 4.3366 3.96501 0
M  V30 5131 H 494.417 3.83528 4.7512 0
M  V30 5132 H 495.831 5.00158 2.80205 0
M  V30 5133 H 494.228 5.56472 2.24631 0
M  V30 5134 H 495.298 4.71946 1.11333 0
M  V30 5135 N 496.642 -0.504142 1.49319 0
M  V30 5136 C 497.605 -1.5883 1.65244 0
M  V30 5137 C 498.605 -1.52009 0.524386 0
M  V30 5138 O 499.795 -1.55218 0.79077 0
M  V30 5139 C 496.927 -2.98481 1.64687 0
M  V30 5140 H 498.12 -1.4604 2.61939 0
M  V30 5141 H 495.673 -0.728144 1.38303 0
M  V30 5142 H 496.408 -3.16751 0.695644 0
M  V30 5143 H 496.193 -3.0484 2.46607 0
M  V30 5144 H 497.683 -3.77256 1.79075 0
M  V30 5145 N 498.12 -1.38341 -0.754957 0
M  V30 5146 C 499.083 -1.35262 -1.85032 0
M  V30 5147 C 500.083 -0.253393 -1.58791 0
M  V30 5148 O 501.273 -0.510205 -1.66561 0
M  V30 5149 C 498.405 -1.10544 -3.22479 0
M  V30 5150 H 499.598 -2.32712 -1.8917 0
M  V30 5151 H 497.151 -1.23614 -0.956515 0
M  V30 5152 H 497.886 -0.136952 -3.24011 0
M  V30 5153 H 497.671 -1.90127 -3.4292 0
M  V30 5154 H 499.161 -1.11082 -4.02555 0
M  V30 5155 N 499.598 0.982988 -1.23187 0
M  V30 5156 C 500.531 2.07302 -0.953993 0
M  V30 5157 C 501.509 1.62249 0.106753 0
M  V30 5158 O 502.693 1.88481 -0.0269525 0
M  V30 5159 C 499.82 3.35873 -0.436716 0
M  V30 5160 C 498.866 3.99862 -1.48367 0
M  V30 5161 S 499.699 4.39443 -3.06023 0
M  V30 5162 C 500.855 5.7117 -2.55959 0
M  V30 5163 H 501.088 2.30554 -1.87702 0
M  V30 5164 H 498.621 1.11883 -1.06403 0
M  V30 5165 H 500.579 4.10244 -0.144872 0
M  V30 5166 H 499.24 3.10634 0.465351 0
M  V30 5167 H 498.433 4.92471 -1.07182 0
M  V30 5168 H 498.035 3.31857 -1.72473 0
M  V30 5169 H 500.327 6.47977 -1.97818 0
M  V30 5170 H 501.27 6.17194 -3.47098 0
M  V30 5171 H 501.678 5.29046 -1.96902 0
M  V30 5172 N 501.076 1.04316 1.18135 0
M  V30 5173 C 502.324 0.746542 1.87806 0
M  V30 5174 C 502.645 -0.728082 1.80898 0
M  V30 5175 O 501.915 -1.52554 1.22899 0
M  V30 5176 H 500.495 0.273157 0.695265 0
M  V30 5177 H 503.157 1.32044 1.43354 0
M  V30 5178 H 502.253 1.05362 2.93778 0
M  V30 5179 N 502.554 -1.34406 0.822964 0
M  V30 5180 C 503.801 -1.98284 0.411057 0
M  V30 5181 C 504.129 -1.65245 -1.02588 0
M  V30 5182 O 503.384 -0.91619 -1.72929 0
M  V30 5183 C 503.683 -3.52981 0.560268 0
M  V30 5184 C 503.349 -4.05931 1.96293 0
M  V30 5185 C 502.011 -4.20103 2.34664 0
M  V30 5186 C 504.363 -4.34412 2.87985 0
M  V30 5187 C 501.691 -4.60082 3.64062 0
M  V30 5188 C 504.043 -4.75838 4.16847 0
M  V30 5189 C 502.707 -4.88215 4.55195 0
M  V30 5190 H 501.977 -0.725573 0.150416 0
M  V30 5191 H 504.624 -1.60349 1.04692 0
M  V30 5192 H 502.929 -3.91477 -0.158982 0
M  V30 5193 H 504.626 -4.00385 0.222087 0
M  V30 5194 H 501.216 -3.95363 1.65487 0
M  V30 5195 H 505.4 -4.23001 2.59584 0
M  V30 5196 H 500.656 -4.67856 3.93599 0
M  V30 5197 H 504.83 -4.96834 4.87984 0
M  V30 5198 H 502.457 -5.18952 5.55512 0
M  V30 5199 N 504.032 -0.577932 -1.46621 0
M  V30 5200 C 504.979 0.158048 -2.30258 0
M  V30 5201 C 505.949 0.888669 -1.40328 0
M  V30 5202 O 507.134 0.880283 -1.6928 0
M  V30 5203 C 504.274 1.16884 -3.24703 0
M  V30 5204 C 503.387 0.442163 -4.29731 0
M  V30 5205 C 502.522 1.44007 -5.11308 0
M  V30 5206 C 501.561 0.69952 -6.0809 0
M  V30 5207 N 500.698 1.64525 -6.82551 0
M  V30 5208 H 505.538 -0.561242 -2.92667 0
M  V30 5209 H 503.075 -0.288591 -1.44241 0
M  V30 5210 H 505.033 1.7677 -3.779 0
M  V30 5211 H 503.663 1.85591 -2.64113 0
M  V30 5212 H 502.715 -0.271632 -3.79429 0
M  V30 5213 H 504.027 -0.136992 -4.98612 0
M  V30 5214 H 503.181 2.11186 -5.68758 0
M  V30 5215 H 501.92 2.05315 -4.42377 0
M  V30 5216 H 500.925 0.0139217 -5.49798 0
M  V30 5217 H 502.15 0.091894 -6.79038 0
M  V30 5218 H 500.096 2.24653 -6.16334 0
M  V30 5219 H 500.013 1.11878 -7.47676 0
M  V30 5220 H 501.281 2.30754 -7.44562 0
M  V30 5221 N 505.51 1.54411 -0.315457 0
M  V30 5222 C 506.757 2.00419 0.289543 0
M  V30 5223 C 507.085 1.20373 1.52776 0
M  V30 5224 O 506.34 0.271769 1.93804 0
M  V30 5225 C 506.639 3.50936 0.676652 0
M  V30 5226 C 506.305 4.48532 -0.461472 0
M  V30 5227 C 504.967 4.74936 -0.773879 0
M  V30 5228 C 507.319 5.06567 -1.22637 0
M  V30 5229 C 504.647 5.56634 -1.85405 0
M  V30 5230 C 506.999 5.89441 -2.29657 0
M  V30 5231 C 505.663 6.1415 -2.61488 0
M  V30 5232 H 504.933 0.733386 0.105951 0
M  V30 5233 H 507.58 1.86434 -0.437554 0
M  V30 5234 H 505.885 3.62606 1.48405 0
M  V30 5235 H 507.582 3.83971 1.15618 0
M  V30 5236 H 504.172 4.28096 -0.207893 0
M  V30 5237 H 508.356 4.86157 -0.998271 0
M  V30 5238 H 503.612 5.74012 -2.10523 0
M  V30 5239 H 507.786 6.33432 -2.89374 0
M  V30 5240 H 505.413 6.77245 -3.45317 0
M  V30 5241 N 506.988 0.0434614 1.5754 0
M  V30 5242 C 507.92 -0.962586 2.08007 0
M  V30 5243 C 508.933 -1.27972 1.00634 0
M  V30 5244 O 510.122 -1.24186 1.28219 0
M  V30 5245 C 507.222 -2.28621 2.50171 0
M  V30 5246 C 506.395 -2.15214 3.80791 0
M  V30 5247 C 505.454 -3.30633 4.09351 0
M  V30 5248 O 504.48 -3.0688 4.79388 0
M  V30 5249 N 505.682 -4.54873 3.60654 0
M  V30 5250 H 508.447 -0.531891 2.94942 0
M  V30 5251 H 506.008 -0.142965 1.61268 0
M  V30 5252 H 508 -3.04689 2.66359 0
M  V30 5253 H 506.57 -2.63283 1.68525 0
M  V30 5254 H 505.79 -1.23785 3.74261 0
M  V30 5255 H 507.078 -2.03475 4.66343 0
M  V30 5256 H 506.476 -4.77063 3.04019 0
M  V30 5257 H 505.033 -5.2806 3.82094 0
M  V30 5258 N 508.466 -1.55915 -0.229846 0
M  V30 5259 C 509.713 -1.78542 -0.955452 0
M  V30 5260 C 510.041 -0.610785 -1.84661 0
M  V30 5261 O 509.296 0.405213 -1.91459 0
M  V30 5262 C 509.595 -3.06845 -1.8325 0
M  V30 5263 C 509.261 -4.37395 -1.09528 0
M  V30 5264 C 507.923 -4.72868 -0.891598 0
M  V30 5265 C 510.275 -5.18029 -0.574046 0
M  V30 5266 C 507.603 -5.86496 -0.154655 0
M  V30 5267 C 509.955 -6.32423 0.149513 0
M  V30 5268 C 508.619 -6.66504 0.364519 0
M  V30 5269 H 507.889 -0.653333 -0.349625 0
M  V30 5270 H 510.536 -1.90183 -0.224235 0
M  V30 5271 H 508.841 -2.90291 -2.63132 0
M  V30 5272 H 510.538 -3.21553 -2.39592 0
M  V30 5273 H 507.128 -4.09538 -1.26399 0
M  V30 5274 H 511.312 -4.91066 -0.718899 0
M  V30 5275 H 506.568 -6.11396 0.0222356 0
M  V30 5276 H 510.742 -6.94137 0.560947 0
M  V30 5277 H 508.369 -7.54397 0.937495 0
M  V30 5278 N 509.944 0.496216 -1.49584 0
M  V30 5279 C 511.193 1.24668 -1.58558 0
M  V30 5280 C 511.506 1.9359 -0.279703 0
M  V30 5281 O 512.712 2.70365 -0.248048 0
M  V30 5282 C 511.168 2.26388 -2.79779 0
M  V30 5283 C 510.776 1.63384 -4.17145 0
M  V30 5284 C 512.52 3.02233 -2.98086 0
M  V30 5285 C 510.427 2.63243 -5.29582 0
M  V30 5286 H 509.357 0.468995 -0.590389 0
M  V30 5287 H 512.008 0.519985 -1.75978 0
M  V30 5288 H 510.39 3.02241 -2.55863 0
M  V30 5289 H 511.564 0.93491 -4.51216 0
M  V30 5290 H 509.879 0.999121 -4.04236 0
M  V30 5291 H 512.476 3.76919 -3.79257 0
M  V30 5292 H 512.819 3.60132 -2.08831 0
M  V30 5293 H 513.352 2.33495 -3.22063 0
M  V30 5294 H 510.091 2.10119 -6.20911 0
M  V30 5295 H 509.611 3.31363 -4.99959 0
M  V30 5296 H 511.29 3.25575 -5.59115 0
M  V30 5297 N 511.423 1.38739 0.74761 0
M  V30 5298 C 512.651 1.38521 1.53686 0
M  V30 5299 C 513.066 -0.0235129 1.88785 0
M  V30 5300 O 512.423 -0.991662 1.53207 0
M  V30 5301 C 512.474 2.24641 2.83229 0
M  V30 5302 O 512.195 3.60026 2.49625 0
M  V30 5303 C 513.696 2.32669 3.77333 0
M  V30 5304 H 510.916 0.473589 0.475347 0
M  V30 5305 H 513.46 1.82395 0.924786 0
M  V30 5306 H 511.615 1.84213 3.40799 0
M  V30 5307 H 512.029 4.05435 3.3275 0
M  V30 5308 H 513.503 2.97201 4.65162 0
M  V30 5309 H 513.98 1.3421 4.18192 0
M  V30 5310 H 514.586 2.73512 3.25685 0
M  V30 5311 N 512.901 -0.976442 1.23707 0
M  V30 5312 C 513.831 -2.08749 1.04624 0
M  V30 5313 C 514.812 -1.70057 -0.0380956 0
M  V30 5314 O 515.997 -1.93782 0.127308 0
M  V30 5315 C 513.127 -3.41335 0.640902 0
M  V30 5316 C 512.081 -3.93947 1.67302 0
M  V30 5317 C 511.407 -5.22774 1.12301 0
M  V30 5318 C 512.707 -4.22769 3.06697 0
M  V30 5319 H 514.401 -2.24972 1.97555 0
M  V30 5320 H 511.947 -1.08108 0.951247 0
M  V30 5321 H 513.9 -4.18489 0.494434 0
M  V30 5322 H 512.624 -3.24988 -0.324099 0
M  V30 5323 H 511.283 -3.18941 1.80755 0
M  V30 5324 H 510.931 -5.0278 0.148877 0
M  V30 5325 H 510.631 -5.58942 1.81267 0
M  V30 5326 H 512.155 -6.02546 0.988479 0
M  V30 5327 H 513.569 -4.90659 2.96524 0
M  V30 5328 H 511.966 -4.70147 3.72937 0
M  V30 5329 H 513.036 -3.29885 3.55392 0
M  V30 5330 N 514.379 -1.04941 -1.1758 0
M  V30 5331 C 515.342 -0.652456 -2.19717 0
M  V30 5332 C 516.342 0.294745 -1.58076 0
M  V30 5333 O 517.532 0.0789579 -1.74021 0
M  V30 5334 C 514.664 0.0420712 -3.40874 0
M  V30 5335 H 515.857 -1.55642 -2.5635 0
M  V30 5336 H 513.41 -0.842995 -1.31618 0
M  V30 5337 H 514.145 0.95943 -3.09783 0
M  V30 5338 H 513.93 -0.638844 -3.86861 0
M  V30 5339 H 515.42 0.306 -4.16477 0
M  V30 5340 N 515.857 1.33968 -0.830081 0
M  V30 5341 C 517.105 1.97672 -0.420734 0
M  V30 5342 C 517.426 1.66111 1.02138 0
M  V30 5343 O 516.696 0.955503 1.71017 0
M  V30 5344 H 515.276 0.73125 -0.152587 0
M  V30 5345 H 517.938 1.63483 -1.0611 0
M  V30 5346 H 517.034 3.07294 -0.545588 0
M  V30 5347 N 517.335 0.585699 1.46312 0
M  V30 5348 C 518.582 0.0724211 2.0237 0
M  V30 5349 C 518.91 -1.28868 1.45683 0
M  V30 5350 O 518.165 -1.85853 0.612945 0
M  V30 5351 C 518.464 -0.0401312 3.57377 0
M  V30 5352 C 518.13 1.25376 4.33119 0
M  V30 5353 C 516.792 1.60824 4.5353 0
M  V30 5354 C 519.144 2.10987 4.76586 0
M  V30 5355 C 516.472 2.81676 5.14661 0
M  V30 5356 C 518.824 3.31068 5.39052 0
M  V30 5357 C 517.488 3.66794 5.5769 0
M  V30 5358 H 516.758 0.0265007 0.740526 0
M  V30 5359 H 519.405 0.762935 1.75646 0
M  V30 5360 H 517.71 -0.813791 3.83255 0
M  V30 5361 H 519.407 -0.453078 3.98432 0
M  V30 5362 H 515.997 0.967808 4.1753 0
M  V30 5363 H 520.181 1.84904 4.60569 0
M  V30 5364 H 515.437 3.0949 5.27282 0
M  V30 5365 H 519.611 3.97672 5.71691 0
M  V30 5366 H 517.238 4.60529 6.04828 0
M  V30 5367 N 518.813 -1.54241 0.323641 0
M  V30 5368 C 519.763 -2.21071 -0.557833 0
M  V30 5369 C 520.747 -1.19126 -1.08157 0
M  V30 5370 O 521.939 -1.44755 -1.01857 0
M  V30 5371 C 519.068 -2.97208 -1.71821 0
M  V30 5372 C 518.154 -4.06491 -1.20936 0
M  V30 5373 N 518.545 -5.04052 -0.420202 0
M  V30 5374 C 516.843 -4.20443 -1.48808 0
M  V30 5375 C 517.544 -5.81516 -0.146413 0
M  V30 5376 N 516.52 -5.38641 -0.732562 0
M  V30 5377 H 520.322 -2.93853 0.0523921 0
M  V30 5378 H 517.836 -1.61883 0.129502 0
M  V30 5379 H 519.833 -3.4357 -2.36146 0
M  V30 5380 H 518.493 -2.25947 -2.33191 0
M  V30 5381 H 519.504 -5.17862 -0.0630401 0
M  V30 5382 H 516.181 -3.60396 -2.10762 0
M  V30 5383 H 517.571 -6.70119 0.488895 0
M  V30 5384 N 520.291 -0.0518155 -1.57515 0
M  V30 5385 C 521.254 0.907547 -2.10467 0
M  V30 5386 C 522.254 1.23947 -1.02439 0
M  V30 5387 O 523.444 1.17604 -1.2851 0
M  V30 5388 C 520.576 2.21723 -2.58944 0
M  V30 5389 H 521.769 0.44851 -2.96527 0
M  V30 5390 H 519.322 0.196598 -1.55059 0
M  V30 5391 H 520.057 2.72206 -1.76279 0
M  V30 5392 H 519.842 1.98935 -3.37886 0
M  V30 5393 H 521.332 2.90441 -3.00056 0
M  V30 5394 N 521.769 1.56035 0.221574 0
M  V30 5395 C 522.699 1.95434 1.2778 0
M  V30 5396 C 523.68 0.822564 1.48889 0
M  V30 5397 O 524.865 1.08486 1.61072 0
M  V30 5398 C 521.995 2.27102 2.62759 0
M  V30 5399 C 520.949 3.4277 2.56306 0
M  V30 5400 C 520.275 3.60043 3.95314 0
M  V30 5401 C 521.575 4.77742 2.11093 0
M  V30 5402 H 523.269 2.83912 0.950504 0
M  V30 5403 H 520.815 1.36596 0.455791 0
M  V30 5404 H 522.768 2.53256 3.36807 0
M  V30 5405 H 521.492 1.35478 2.97176 0
M  V30 5406 H 520.151 3.16664 1.84715 0
M  V30 5407 H 519.799 2.65794 4.27039 0
M  V30 5408 H 519.499 4.37841 3.91879 0
M  V30 5409 H 521.023 3.88545 4.71025 0
M  V30 5410 H 522.437 5.03102 2.74885 0
M  V30 5411 H 520.834 5.58823 2.18716 0
M  V30 5412 H 521.904 4.731 1.06321 0
M  V30 5413 N 523.247 -0.488276 1.49845 0
M  V30 5414 C 524.195 -1.60917 1.67954 0
M  V30 5415 C 525.189 -1.6038 0.54539 0
M  V30 5416 O 526.395 -1.64736 0.7254 0
M  V30 5417 H 522.77 -0.533658 0.529824 0
M  V30 5418 H 524.741 -1.428 2.62013 0
M  V30 5419 C 523.49 -2.98975 1.77509 0
M  V30 5420 H 522.813 -3.00099 2.6416 0
M  V30 5421 H 524.253 -3.76906 1.9421 0
M  V30 5422 C 522.712 -3.3282 0.522745 0
M  V30 5423 O 523.242 -4.00208 -0.345866 0
M  V30 5424 N 521.448 -2.8808 0.381882 0
M  V30 5425 H 520.995 -2.33415 1.08974 0
M  V30 5426 H 520.953 -3.11091 -0.454929 0
M  V30 5427 N 524.725 -1.39134 -0.740242 0
M  V30 5428 C 525.955 -1.39132 -1.52728 0
M  V30 5429 C 526.363 0.0173133 -1.89192 0
M  V30 5430 O 525.706 0.997715 -1.54244 0
M  V30 5431 C 525.768 -2.1952 -2.84695 0
M  V30 5432 C 525.432 -3.68203 -2.70695 0
M  V30 5433 C 526.429 -4.61401 -2.39593 0
M  V30 5434 C 524.114 -4.11724 -2.8773 0
M  V30 5435 C 526.108 -5.96102 -2.25701 0
M  V30 5436 C 523.795 -5.46503 -2.73456 0
M  V30 5437 C 524.793 -6.38506 -2.42486 0
M  V30 5438 O 524.481 -7.70803 -2.28295 0
M  V30 5439 H 524.213 -0.477263 -0.478744 0
M  V30 5440 H 526.767 -1.83504 -0.922799 0
M  V30 5441 H 524.997 -1.69888 -3.47383 0
M  V30 5442 H 526.686 -2.1176 -3.46284 0
M  V30 5443 H 527.452 -4.29079 -2.26088 0
M  V30 5444 H 523.331 -3.4045 -3.10829 0
M  V30 5445 H 526.875 -6.6788 -2.0145 0
M  V30 5446 H 522.772 -5.78417 -2.86538 0
M  V30 5447 H 523.54 -7.8147 -2.43405 0
M  V30 5448 N 526.204 0.969867 -1.24223 0
M  V30 5449 C 527.429 1.75289 -1.10853 0
M  V30 5450 C 527.854 1.85091 0.335079 0
M  V30 5451 O 527.212 1.32024 1.24255 0
M  V30 5452 C 527.26 3.15255 -1.75062 0
M  V30 5453 O 526.364 3.99589 -1.01992 0
M  V30 5454 H 525.705 0.538904 -0.387915 0
M  V30 5455 H 528.235 1.21675 -1.64488 0
M  V30 5456 H 528.245 3.65787 -1.80731 0
M  V30 5457 H 526.92 3.07436 -2.801 0
M  V30 5458 H 525.497 3.58077 -1.04094 0
M  V30 5459 N 527.682 1.05563 1.17022 0
M  V30 5460 C 528.615 0.604197 2.20056 0
M  V30 5461 C 529.593 -0.369169 1.58354 0
M  V30 5462 O 530.777 -0.279898 1.8641 0
M  V30 5463 C 527.904 -0.115265 3.38504 0
M  V30 5464 C 526.95 0.813698 4.18666 0
M  V30 5465 S 527.783 2.30492 4.83357 0
M  V30 5466 C 528.939 1.59674 6.0519 0
M  V30 5467 H 529.172 1.47713 2.58008 0
M  V30 5468 H 526.705 0.867932 1.27696 0
M  V30 5469 H 528.663 -0.524162 4.0714 0
M  V30 5470 H 527.324 -0.964284 2.98932 0
M  V30 5471 H 526.517 0.256736 5.03346 0
M  V30 5472 H 526.119 1.16213 3.55486 0
M  V30 5473 H 528.411 0.898164 6.7152 0
M  V30 5474 H 529.354 2.42115 6.65422 0
M  V30 5475 H 529.762 1.08252 5.54023 0
M  V30 5476 N 529.16 -1.33526 0.837174 0
M  V30 5477 C 530.407 -1.97837 0.432064 0
M  V30 5478 C 530.735 -1.66324 -1.00829 0
M  V30 5479 O 529.99 -0.93448 -1.71948 0
M  V30 5480 C 530.289 -3.52367 0.597675 0
M  V30 5481 C 529.955 -4.03826 2.00587 0
M  V30 5482 C 528.617 -4.1759 2.39106 0
M  V30 5483 C 530.969 -4.31333 2.92576 0
M  V30 5484 C 528.297 -4.56195 3.68921 0
M  V30 5485 C 530.649 -4.7139 4.2187 0
M  V30 5486 C 529.313 -4.8336 4.60347 0
M  V30 5487 H 528.583 -0.723937 0.158104 0
M  V30 5488 H 531.23 -1.5923 1.06387 0
M  V30 5489 H 529.535 -3.91624 -0.117452 0
M  V30 5490 H 531.232 -4.00126 0.26454 0
M  V30 5491 H 527.822 -3.93586 1.69671 0
M  V30 5492 H 532.006 -4.20224 2.64056 0
M  V30 5493 H 527.262 -4.63655 3.9854 0
M  V30 5494 H 531.436 -4.91631 4.93226 0
M  V30 5495 H 529.063 -5.1303 5.60985 0
M  V30 5496 N 530.638 -0.59345 -1.46 0
M  V30 5497 C 531.915 -0.0157933 -1.95594 0
M  V30 5498 C 532.295 1.44807 -1.53604 0
M  V30 5499 O 531.643 2.14342 -0.791824 0
M  V30 5500 C 531.853 -0.199081 -3.48432 0
M  V30 5501 C 533.201 -0.0724943 -4.24538 0
M  V30 5502 O 534.225 -0.128469 -3.55968 0
M  V30 5503 O 533.084 0.0542426 -5.46473 0
M  V30 5504 H 530.178 0.043749 -0.825842 0
M  V30 5505 H 532.724 -0.662522 -1.56233 0
M  V30 5506 H 531.496 -1.21631 -3.71916 0
M  V30 5507 H 531.119 0.483576 -3.94648 0
M  V30 5508 N 532.116 1.54067 -0.331816 0
M  V30 5509 C 533.046 2.27569 0.522932 0
M  V30 5510 C 534.027 1.28679 1.11247 0
M  V30 5511 O 535.212 1.57504 1.13605 0
M  V30 5512 C 532.342 3.0397 1.67987 0
M  V30 5513 C 531.296 4.10267 1.21924 0
M  V30 5514 C 530.622 4.74555 2.46377 0
M  V30 5515 C 531.922 5.21268 0.32815 0
M  V30 5516 H 533.616 2.99264 -0.0901977 0
M  V30 5517 H 531.162 1.4393 -0.044821 0
M  V30 5518 H 533.115 3.54123 2.28418 0
M  V30 5519 H 531.839 2.29906 2.31971 0
M  V30 5520 H 530.498 3.61009 0.637809 0
M  V30 5521 H 530.146 3.97098 3.08743 0
M  V30 5522 H 529.846 5.46363 2.16243 0
M  V30 5523 H 531.37 5.27487 3.07555 0
M  V30 5524 H 532.784 5.67128 0.838978 0
M  V30 5525 H 531.181 5.99982 0.119228 0
M  V30 5526 H 532.251 4.80673 -0.638839 0
M  V30 5527 N 533.594 0.0601682 1.57485 0
M  V30 5528 C 534.557 -0.896373 2.10945 0
M  V30 5529 C 535.557 -1.23402 1.03095 0
M  V30 5530 O 536.747 -1.16921 1.29132 0
M  V30 5531 C 533.879 -2.20346 2.60116 0
M  V30 5532 H 535.072 -0.432778 2.96761 0
M  V30 5533 H 532.625 -0.188372 1.55161 0
M  V30 5534 H 533.36 -2.71268 1.7772 0
M  V30 5535 H 533.145 -1.9714 3.38937 0
M  V30 5536 H 534.635 -2.88846 3.01592 0
M  V30 5537 N 535.072 -1.5615 -0.213296 0
M  V30 5538 C 536.302 -1.83372 -0.951757 0
M  V30 5539 C 536.71 -0.638158 -1.78113 0
M  V30 5540 O 536.053 0.402609 -1.79234 0
M  V30 5541 C 536.115 -3.04444 -1.91192 0
M  V30 5542 C 535.779 -4.39107 -1.26627 0
M  V30 5543 C 536.776 -5.15794 -0.652087 0
M  V30 5544 C 534.461 -4.85834 -1.27556 0
M  V30 5545 C 536.455 -6.37376 -0.055814 0
M  V30 5546 C 534.142 -6.07356 -0.675451 0
M  V30 5547 C 535.14 -6.82967 -0.0666367 0
M  V30 5548 O 534.828 -8.0219 0.524119 0
M  V30 5549 H 534.56 -0.613398 -0.284111 0
M  V30 5550 H 537.114 -2.04096 -0.231112 0
M  V30 5551 H 535.344 -2.79559 -2.67178 0
M  V30 5552 H 537.033 -3.18466 -2.51662 0
M  V30 5553 H 537.799 -4.80796 -0.637172 0
M  V30 5554 H 533.678 -4.26949 -1.73883 0
M  V30 5555 H 537.222 -6.96334 0.420004 0
M  V30 5556 H 533.119 -6.41825 -0.687806 0
M  V30 5557 H 533.887 -8.17426 0.419243 0
M  V30 5558 N 536.55 0.480323 -1.50102 0
M  V30 5559 C 537.798 1.23063 -1.60312 0
M  V30 5560 C 538.119 1.92659 -0.301226 0
M  V30 5561 O 537.389 1.83691 0.680753 0
M  V30 5562 H 535.969 0.457231 -0.590719 0
M  V30 5563 H 538.631 0.554893 -1.86834 0
M  V30 5564 H 537.727 1.9835 -2.40964 0
M  V30 5565 N 538.028 1.39524 0.732853 0
M  V30 5566 C 539.258 1.3994 1.51988 0
M  V30 5567 C 539.666 -0.00727973 1.89199 0
M  V30 5568 O 539.009 -0.989521 1.54771 0
M  V30 5569 C 539.071 2.21026 2.83527 0
M  V30 5570 C 538.735 3.69633 2.68738 0
M  V30 5571 C 539.732 4.62665 2.37143 0
M  V30 5572 C 537.417 4.13244 2.85542 0
M  V30 5573 C 539.411 5.97291 2.22536 0
M  V30 5574 C 537.098 5.47945 2.70554 0
M  V30 5575 C 538.096 6.39783 2.39097 0
M  V30 5576 O 537.784 7.72002 2.24204 0
M  V30 5577 H 537.516 0.479795 0.476206 0
M  V30 5578 H 540.07 1.8399 0.913054 0
M  V30 5579 H 538.3 1.71728 3.46477 0
M  V30 5580 H 539.989 2.13594 3.45156 0
M  V30 5581 H 540.755 4.30272 2.2381 0
M  V30 5582 H 536.634 3.42094 3.09019 0
M  V30 5583 H 540.178 6.68939 1.97905 0
M  V30 5584 H 536.075 5.79928 2.83466 0
M  V30 5585 H 536.843 7.8275 2.39258 0
M  V30 5586 N 539.506 -0.963266 1.24736 0
M  V30 5587 C 540.469 -2.04013 1.04457 0
M  V30 5588 C 541.469 -1.608 0.000335555 0
M  V30 5589 O 542.659 -1.72515 0.241719 0
M  V30 5590 C 539.791 -3.35858 0.584162 0
M  V30 5591 H 540.984 -2.23436 2.00041 0
M  V30 5592 H 538.537 -1.13914 1.07021 0
M  V30 5593 H 539.272 -3.22128 -0.374673 0
M  V30 5594 H 539.057 -3.68568 1.3379 0
M  V30 5595 H 540.547 -4.1502 0.463451 0
M  V30 5596 N 540.985 -1.06182 -1.16461 0
M  V30 5597 C 541.917 -0.629584 -2.20383 0
M  V30 5598 C 542.93 0.311834 -1.59786 0
M  V30 5599 O 544.119 0.103 -1.78203 0
M  V30 5600 C 541.219 0.0973695 -3.3876 0
M  V30 5601 C 540.392 -0.857252 -4.28917 0
M  V30 5602 C 539.451 -0.169749 -5.25926 0
M  V30 5603 O 538.477 -0.807044 -5.6345 0
M  V30 5604 N 539.679 1.08911 -5.70192 0
M  V30 5605 H 542.444 -1.52352 -2.58087 0
M  V30 5606 H 540.005 -0.944993 -1.31459 0
M  V30 5607 H 541.997 0.567676 -4.00699 0
M  V30 5608 H 540.567 0.893093 -2.99571 0
M  V30 5609 H 539.787 -1.50696 -3.64259 0
M  V30 5610 H 541.075 -1.50489 -4.86035 0
M  V30 5611 H 540.473 1.62703 -5.41797 0
M  V30 5612 H 539.03 1.50331 -6.34227 0
M  V30 5613 N 542.463 1.3308 -0.844243 0
M  V30 5614 C 543.411 2.31028 -0.269954 0
M  V30 5615 C 544.405 1.58381 0.600997 0
M  V30 5616 O 545.611 1.73203 0.48996 0
M  V30 5617 H 541.986 0.748866 -0.0685782 0
M  V30 5618 H 543.957 2.76967 -1.11049 0
M  V30 5619 C 542.706 3.43549 0.535676 0
M  V30 5620 H 542.029 3.99604 -0.125202 0
M  V30 5621 H 543.469 4.14267 0.903262 0
M  V30 5622 C 541.928 2.8988 1.71672 0
M  V30 5623 O 542.458 2.86511 2.81557 0
M  V30 5624 N 540.664 2.46416 1.54037 0
M  V30 5625 H 540.211 2.49356 0.64649 0
M  V30 5626 H 540.169 2.1086 2.33207 0
M  V30 5627 N 543.941 0.601185 1.45683 0
M  V30 5628 C 544.873 -0.159446 2.28645 0
M  V30 5629 C 545.886 -0.837882 1.39583 0
M  V30 5630 O 547.075 -0.704344 1.64016 0
M  V30 5631 C 544.175 -1.24641 3.15147 0
M  V30 5632 C 543.348 -0.656334 4.32448 0
M  V30 5633 C 542.407 -1.63337 5.00208 0
M  V30 5634 O 541.433 -1.16217 5.57209 0
M  V30 5635 N 542.635 -2.96773 4.98905 0
M  V30 5636 H 545.4 0.5524 2.94565 0
M  V30 5637 H 542.961 0.440223 1.558 0
M  V30 5638 H 544.953 -1.8997 3.57342 0
M  V30 5639 H 543.523 -1.86087 2.51178 0
M  V30 5640 H 542.743 0.174879 3.93812 0
M  V30 5641 H 544.031 -0.242211 5.08223 0
M  V30 5642 H 543.429 -3.37662 4.53873 0
M  V30 5643 H 541.986 -3.57541 5.44984 0
M  V30 5644 N 545.419 -1.53889 0.339982 0
M  V30 5645 C 546.352 -2.21187 -0.561405 0
M  V30 5646 C 547.33 -1.19463 -1.10306 0
M  V30 5647 O 548.514 -1.48268 -1.164 0
M  V30 5648 C 545.641 -2.8865 -1.77198 0
M  V30 5649 C 544.687 -4.04232 -1.3601 0
M  V30 5650 S 545.52 -5.34129 -0.382909 0
M  V30 5651 C 546.676 -6.05094 -1.60039 0
M  V30 5652 H 546.909 -2.97298 0.0102092 0
M  V30 5653 H 544.442 -1.53901 0.124056 0
M  V30 5654 H 546.4 -3.28138 -2.4665 0
M  V30 5655 H 545.061 -2.12311 -2.3148 0
M  V30 5656 H 544.254 -4.50358 -2.2626 0
M  V30 5657 H 543.856 -3.66503 -0.745098 0
M  V30 5658 H 546.148 -6.2827 -2.53541 0
M  V30 5659 H 547.091 -6.98182 -1.18099 0
M  V30 5660 H 547.499 -5.35207 -1.79483 0
M  V30 5661 N 546.897 -0.0685191 -1.57451 0
M  V30 5662 C 548.122 0.613919 -1.98106 0
M  V30 5663 C 548.547 1.62551 -0.946501 0
M  V30 5664 O 547.905 1.81085 0.0882824 0
M  V30 5665 C 547.953 1.26189 -3.378 0
M  V30 5666 O 547.057 2.37773 -3.36954 0
M  V30 5667 H 546.398 0.158163 -0.644888 0
M  V30 5668 H 548.928 -0.142063 -2.04106 0
M  V30 5669 H 548.938 1.60951 -3.74912 0
M  V30 5670 H 547.613 0.520625 -4.12629 0
M  V30 5671 H 546.19 2.04829 -3.11608 0
M  V30 5672 N 548.375 1.56261 0.205012 0
M  V30 5673 C 549.338 1.92908 1.23771 0
M  V30 5674 C 550.338 0.809208 1.38955 0
M  V30 5675 O 551.528 1.07676 1.36936 0
M  V30 5676 C 548.66 2.19442 2.60879 0
M  V30 5677 H 549.853 2.85287 0.924728 0
M  V30 5678 H 547.406 1.49798 0.446125 0
M  V30 5679 H 548.141 1.29668 2.97248 0
M  V30 5680 H 547.926 3.0104 2.51232 0
M  V30 5681 H 549.416 2.48833 3.35368 0
M  V30 5682 N 549.853 -0.472356 1.50355 0
M  V30 5683 C 551.083 -1.24603 1.64796 0
M  V30 5684 C 551.491 -1.86297 0.330156 0
M  V30 5685 O 550.834 -1.69934 -0.697728 0
M  V30 5686 C 550.896 -2.39578 2.68035 0
M  V30 5687 C 550.56 -1.98531 4.11624 0
M  V30 5688 C 551.557 -1.50856 4.97532 0
M  V30 5689 C 549.242 -2.0729 4.57532 0
M  V30 5690 C 551.236 -1.12481 6.27397 0
M  V30 5691 C 548.923 -1.68527 5.87403 0
M  V30 5692 C 549.921 -1.212 6.7216 0
M  V30 5693 O 549.609 -0.829728 7.99607 0
M  V30 5694 H 549.341 -0.383035 0.55701 0
M  V30 5695 H 551.895 -0.570392 1.97321 0
M  V30 5696 H 550.125 -3.10309 2.30749 0
M  V30 5697 H 551.814 -3.01544 2.71709 0
M  V30 5698 H 552.58 -1.43511 4.63281 0
M  V30 5699 H 548.459 -2.43076 3.91708 0
M  V30 5700 H 552.003 -0.754698 6.93506 0
M  V30 5701 H 547.9 -1.7553 6.21176 0
M  V30 5702 H 548.668 -0.958689 8.12866 0
M  V30 5703 N 551.331 -1.39911 -0.725443 0
M  V30 5704 C 552.577 -1.37858 -1.48738 0
M  V30 5705 C 552.91 0.0224187 -1.94187 0
M  V30 5706 O 552.185 0.989204 -1.67466 0
M  V30 5707 C 552.468 -2.3594 -2.72038 0
M  V30 5708 C 552.321 -3.85023 -2.32546 0
M  V30 5709 C 553.64 -2.31704 -3.74167 0
M  V30 5710 H 550.759 -0.502074 -0.539528 0
M  V30 5711 H 553.401 -1.70974 -0.828728 0
M  V30 5712 H 551.551 -2.0783 -3.28236 0
M  V30 5713 H 553.223 -4.2392 -1.81905 0
M  V30 5714 H 551.466 -4.01334 -1.64661 0
M  V30 5715 H 552.137 -4.49152 -3.20884 0
M  V30 5716 H 554.613 -2.5658 -3.27576 0
M  V30 5717 H 553.489 -3.02395 -4.58092 0
M  V30 5718 H 553.75 -1.3253 -4.21768 0
M  V30 5719 N 552.809 0.956637 -1.25245 0
M  V30 5720 C 553.719 2.0868 -1.0719 0
M  V30 5721 C 554.735 1.73997 -0.00959074 0
M  V30 5722 O 555.911 2.00301 -0.210104 0
M  V30 5723 C 552.976 3.39754 -0.690526 0
M  V30 5724 C 552.037 3.88316 -1.83055 0
M  V30 5725 C 551.27 5.13134 -1.46728 0
M  V30 5726 O 551.493 5.6925 -0.362029 0
M  V30 5727 O 550.427 5.56356 -2.29677 0
M  V30 5728 H 554.253 2.26813 -2.01965 0
M  V30 5729 H 551.838 1.07098 -1.04165 0
M  V30 5730 H 553.72 4.18543 -0.489871 0
M  V30 5731 H 552.395 3.22896 0.227981 0
M  V30 5732 H 551.302 3.1054 -2.08604 0
M  V30 5733 H 552.635 4.09669 -2.72822 0
M  V30 5734 N 554.287 1.06798 1.15896 0
M  V30 5735 C 555.217 0.704677 2.22613 0
M  V30 5736 C 556.198 -0.305252 1.67339 0
M  V30 5737 O 557.383 -0.179247 1.93371 0
M  V30 5738 C 554.513 0.0957325 3.47168 0
M  V30 5739 C 553.467 1.0322 4.15367 0
M  V30 5740 C 552.793 0.286293 5.33933 0
M  V30 5741 C 554.093 2.36341 4.65768 0
M  V30 5742 H 555.787 1.59688 2.53259 0
M  V30 5743 H 553.333 0.769257 1.21731 0
M  V30 5744 H 555.286 -0.170333 4.21056 0
M  V30 5745 H 554.01 -0.831516 3.15838 0
M  V30 5746 H 552.669 1.28309 3.43413 0
M  V30 5747 H 552.317 -0.644237 4.98857 0
M  V30 5748 H 552.017 0.910436 5.80504 0
M  V30 5749 H 553.541 0.0278938 6.10594 0
M  V30 5750 H 554.955 2.1561 5.31211 0
M  V30 5751 H 553.352 2.94299 5.2298 0
M  V30 5752 H 554.422 2.99047 3.81705 0
M  V30 5753 N 555.766 -1.3263 0.851289 0
M  V30 5754 C 556.698 -2.27824 0.250757 0
M  V30 5755 C 557.711 -1.52285 -0.575598 0
M  V30 5756 O 558.9 -1.73946 -0.400638 0
M  V30 5757 C 556 -3.3232 -0.664571 0
M  V30 5758 C 555.173 -4.37221 0.125187 0
M  V30 5759 C 554.232 -5.21314 -0.715385 0
M  V30 5760 O 553.258 -5.69002 -0.150111 0
M  V30 5761 N 554.46 -5.43823 -2.03069 0
M  V30 5762 H 557.225 -2.79997 1.06873 0
M  V30 5763 H 554.786 -1.45455 0.710943 0
M  V30 5764 H 556.778 -3.85486 -1.23216 0
M  V30 5765 H 555.348 -2.80331 -1.38323 0
M  V30 5766 H 554.568 -3.84384 0.874199 0
M  V30 5767 H 555.856 -5.04399 0.667774 0
M  V30 5768 H 555.254 -5.06803 -2.51332 0
M  V30 5769 H 553.811 -5.99998 -2.54648 0
M  V30 5770 N 557.244 -0.608902 -1.45362 0
M  V30 5771 C 558.154 0.110969 -2.34337 0
M  V30 5772 C 559.17 0.859007 -1.51318 0
M  V30 5773 O 560.346 0.816296 -1.84116 0
M  V30 5774 C 557.411 1.09494 -3.28956 0
M  V30 5775 C 556.472 0.348718 -4.27881 0
M  V30 5776 C 555.705 1.28582 -5.17979 0
M  V30 5777 O 555.928 2.52369 -5.11533 0
M  V30 5778 O 554.862 0.782172 -5.96796 0
M  V30 5779 H 558.688 -0.620258 -2.97299 0
M  V30 5780 H 556.273 -0.36916 -1.44767 0
M  V30 5781 H 558.155 1.66163 -3.87257 0
M  V30 5782 H 556.83 1.80717 -2.68557 0
M  V30 5783 H 555.737 -0.260465 -3.73192 0
M  V30 5784 H 557.07 -0.323049 -4.91139 0
M  V30 5785 N 558.722 1.53707 -0.348139 0
M  V30 5786 C 560.138 1.596 0.00361134 0
M  V30 5787 C 560.338 1.36394 1.4832 0
M  V30 5788 O 559.394 1.16046 2.24253 0
M  V30 5789 C 560.707 2.97512 -0.436682 0
M  V30 5790 C 562.255 3.10568 -0.389416 0
M  V30 5791 C 562.73 4.50866 -0.805249 0
M  V30 5792 N 564.221 4.56929 -0.759616 0
M  V30 5793 C 564.956 5.63643 -1.05327 0
M  V30 5794 N 564.452 6.78189 -1.41531 0
M  V30 5795 N 566.245 5.5354 -0.977207 0
M  V30 5796 H 558.396 1.67044 -1.31187 0
M  V30 5797 H 560.659 0.782559 -0.535075 0
M  V30 5798 H 560.365 3.19575 -1.46849 0
M  V30 5799 H 560.239 3.76742 0.185744 0
M  V30 5800 H 562.626 2.88226 0.633228 0
M  V30 5801 H 562.707 2.33387 -1.04711 0
M  V30 5802 H 562.351 4.73943 -1.82593 0
M  V30 5803 H 562.281 5.26452 -0.124989 0
M  V30 5804 H 564.772 3.74675 -0.49265 0
M  V30 5805 H 565.085 7.55541 -1.62411 0
M  V30 5806 H 563.43 6.79624 -1.45381 0
M  V30 5807 H 566.621 4.62932 -0.693675 0
M  V30 5808 H 566.794 6.36614 -1.2094 0
M  V30 5809 N 560.2 0.0768682 1.57412 0
M  V30 5810 C 561.11 -0.903207 2.16516 0
M  V30 5811 C 562.126 -1.32341 1.12968 0
M  V30 5812 O 563.302 -1.39507 1.45258 0
M  V30 5813 C 560.367 -2.1508 2.71922 0
M  V30 5814 C 559.428 -1.78653 3.90361 0
M  V30 5815 C 558.661 -2.97465 4.43114 0
M  V30 5816 O 558.884 -4.11638 3.94854 0
M  V30 5817 O 557.818 -2.76987 5.3438 0
M  V30 5818 H 561.644 -0.430427 3.00634 0
M  V30 5819 H 559.229 -0.146485 1.4868 0
M  V30 5820 H 561.111 -2.8823 3.07411 0
M  V30 5821 H 559.786 -2.61446 1.9086 0
M  V30 5822 H 558.693 -1.0274 3.59716 0
M  V30 5823 H 560.026 -1.37066 4.7273 0
M  V30 5824 N 561.678 -1.56367 -0.196722 0
M  V30 5825 C 562.925 -1.80529 -0.917366 0
M  V30 5826 C 563.253 -0.649817 -1.83324 0
M  V30 5827 O 562.508 0.36451 -1.92275 0
M  V30 5828 C 562.807 -3.10663 -1.767 0
M  V30 5829 C 562.473 -4.3962 -1.00225 0
M  V30 5830 C 561.135 -4.74653 -0.791095 0
M  V30 5831 C 563.487 -5.1913 -0.464035 0
M  V30 5832 C 560.815 -5.86692 -0.0302155 0
M  V30 5833 C 563.167 -6.31964 0.283625 0
M  V30 5834 C 561.831 -6.65581 0.505813 0
M  V30 5835 H 561.101 -0.660602 -0.335688 0
M  V30 5836 H 563.748 -1.90615 -0.183844 0
M  V30 5837 H 562.053 -2.95807 -2.56915 0
M  V30 5838 H 563.75 -3.26563 -2.32718 0
M  V30 5839 H 560.34 -4.12127 -1.17684 0
M  V30 5840 H 564.524 -4.9248 -0.614575 0
M  V30 5841 H 559.78 -6.11211 0.151917 0
M  V30 5842 H 563.954 -6.92791 0.708057 0
M  V30 5843 H 561.581 -7.52239 1.0973 0
M  V30 5844 N 563.156 0.464375 -1.50603 0
M  V30 5845 C 564.119 1.54393 -1.69397 0
M  V30 5846 C 565.119 1.50566 -0.564504 0
M  V30 5847 O 566.309 1.53066 -0.831645 0
M  V30 5848 C 563.441 2.9401 -1.72543 0
M  V30 5849 H 564.634 1.39044 -2.65719 0
M  V30 5850 H 562.187 0.69122 -1.40185 0
M  V30 5851 H 562.922 3.14795 -0.77938 0
M  V30 5852 H 562.707 2.98195 -2.54602 0
M  V30 5853 H 564.197 3.72375 -1.89015 0
M  V30 5854 N 564.634 1.40294 0.718013 0
M  V30 5855 C 565.597 1.4012 1.81381 0
M  V30 5856 C 566.597 0.295405 1.58063 0
M  V30 5857 O 567.787 0.554187 1.6515 0
M  V30 5858 C 564.919 1.19056 3.19435 0
M  V30 5859 H 566.112 2.37645 1.82933 0
M  V30 5860 H 563.665 1.26107 0.923405 0
M  V30 5861 H 564.4 0.222809 3.23534 0
M  V30 5862 H 564.185 1.99152 3.37758 0
M  V30 5863 H 565.675 1.21716 3.99468 0
M  V30 5864 N 566.112 -0.949982 1.2575 0
M  V30 5865 C 567.022 -2.08109 1.08295 0
M  V30 5866 C 568.038 -1.7399 0.0188181 0
M  V30 5867 O 569.214 -2.00187 0.220724 0
M  V30 5868 C 566.279 -3.39383 0.708534 0
M  V30 5869 C 565.34 -3.8734 1.85111 0
M  V30 5870 C 564.573 -5.12349 1.49447 0
M  V30 5871 O 564.796 -5.6905 0.392212 0
M  V30 5872 O 563.73 -5.5513 2.32624 0
M  V30 5873 H 567.556 -2.25738 2.03165 0
M  V30 5874 H 565.141 -1.06545 1.04731 0
M  V30 5875 H 567.023 -4.18277 0.512061 0
M  V30 5876 H 565.698 -3.23013 -0.210854 0
M  V30 5877 H 564.605 -3.09429 2.10248 0
M  V30 5878 H 565.938 -4.08216 2.74991 0
M  V30 5879 N 567.59 -1.07411 -1.15328 0
M  V30 5880 C 568.5 -0.706438 -2.23711 0
M  V30 5881 C 569.516 0.282586 -1.7169 0
M  V30 5882 O 570.692 0.129066 -2.00986 0
M  V30 5883 C 567.757 -0.11048 -3.46524 0
M  V30 5884 C 566.818 -1.15282 -4.13532 0
M  V30 5885 C 566.051 -0.585205 -5.30482 0
M  V30 5886 O 566.274 0.598549 -5.67251 0
M  V30 5887 O 565.208 -1.33039 -5.87013 0
M  V30 5888 H 569.034 -1.61031 -2.57493 0
M  V30 5889 H 566.619 -0.847113 -1.23062 0
M  V30 5890 H 568.501 0.21957 -4.20828 0
M  V30 5891 H 567.176 0.766703 -3.14489 0
M  V30 5892 H 566.083 -1.53523 -3.41147 0
M  V30 5893 H 567.416 -2.00192 -4.49649 0
M  V30 5894 N 569.068 1.32177 -0.85831 0
M  V30 5895 C 570.484 1.49873 -0.548656 0
M  V30 5896 C 570.684 1.79278 0.919874 0
M  V30 5897 O 569.74 1.86451 1.70271 0
M  V30 5898 C 571.053 2.64043 -1.4388 0
M  V30 5899 C 572.601 2.77928 -1.43961 0
M  V30 5900 C 573.076 3.95182 -2.31506 0
M  V30 5901 N 574.567 4.0245 -2.29321 0
M  V30 5902 C 575.302 4.9242 -2.93786 0
M  V30 5903 N 574.798 5.87373 -3.67376 0
M  V30 5904 N 576.591 4.85572 -2.83155 0
M  V30 5905 H 568.742 1.11357 -1.80868 0
M  V30 5906 H 571.005 0.549175 -0.772729 0
M  V30 5907 H 570.711 2.49055 -2.48324 0
M  V30 5908 H 570.585 3.59912 -1.12885 0
M  V30 5909 H 572.972 2.92338 -0.402813 0
M  V30 5910 H 573.053 1.82762 -1.78974 0
M  V30 5911 H 572.697 3.81531 -3.35256 0
M  V30 5912 H 572.627 4.89633 -1.93823 0
M  V30 5913 H 575.118 3.34507 -1.75822 0
M  V30 5914 H 575.431 6.52728 -4.13722 0
M  V30 5915 H 573.776 5.87388 -3.71484 0
M  V30 5916 H 576.967 4.10363 -2.25211 0
M  V30 5917 H 577.14 5.55486 -3.33676 0
M  V30 5918 N 570.547 0.616602 1.45037 0
M  V30 5919 C 571.795 0.115103 2.01772 0
M  V30 5920 C 572.116 -1.2622 1.48639 0
M  V30 5921 O 571.386 -1.83563 0.684199 0
M  V30 5922 H 569.966 0.0395607 0.745952 0
M  V30 5923 H 572.628 0.800032 1.77723 0
M  V30 5924 H 571.724 0.0717274 3.12018 0
M  V30 5925 N 572.025 -1.5352 0.356285 0
M  V30 5926 C 573.255 -2.05236 -0.236983 0
M  V30 5927 C 573.663 -1.23016 -1.43749 0
M  V30 5928 O 573.006 -0.2615 -1.81829 0
M  V30 5929 C 573.068 -3.52549 -0.7035 0
M  V30 5930 C 572.732 -4.55425 0.379059 0
M  V30 5931 C 573.729 -5.0524 1.22592 0
M  V30 5932 C 571.414 -4.99425 0.536638 0
M  V30 5933 C 573.408 -5.97647 2.21578 0
M  V30 5934 C 571.095 -5.9164 1.52988 0
M  V30 5935 C 572.093 -6.4064 2.3679 0
M  V30 5936 O 571.781 -7.31039 3.34421 0
M  V30 5937 H 571.513 -0.674346 -0.047254 0
M  V30 5938 H 574.067 -1.98962 0.510238 0
M  V30 5939 H 572.297 -3.56331 -1.50217 0
M  V30 5940 H 573.986 -3.87171 -1.21873 0
M  V30 5941 H 574.752 -4.72002 1.11532 0
M  V30 5942 H 570.631 -4.60879 -0.105834 0
M  V30 5943 H 574.175 -6.35816 2.87025 0
M  V30 5944 H 570.072 -6.24293 1.64099 0
M  V30 5945 H 570.84 -7.49009 3.30041 0
M  V30 5946 N 573.503 -0.0852151 -1.57369 0
M  V30 5947 C 574.731 0.58946 -1.98325 0
M  V30 5948 C 575.146 1.62333 -0.96403 0
M  V30 5949 O 574.503 1.82438 0.0476395 0
M  V30 5950 C 574.554 1.24604 -3.39347 0
M  V30 5951 O 574.275 0.253532 -4.37366 0
M  V30 5952 C 575.776 2.00726 -3.95252 0
M  V30 5953 H 572.996 0.158783 -0.651942 0
M  V30 5954 H 575.54 -0.161584 -2.03861 0
M  V30 5955 H 573.695 1.94808 -3.34856 0
M  V30 5956 H 574.109 0.726207 -5.19448 0
M  V30 5957 H 575.583 2.42039 -4.96106 0
M  V30 5958 H 576.06 2.86919 -3.32527 0
M  V30 5959 H 576.666 1.3536 -4.03185 0
M  V30 5960 N 574.981 1.5647 0.188427 0
M  V30 5961 C 575.944 1.9421 1.21718 0
M  V30 5962 C 576.944 0.823901 1.38089 0
M  V30 5963 O 578.134 1.09122 1.35787 0
M  V30 5964 C 575.266 2.22197 2.58537 0
M  V30 5965 H 576.459 2.86252 0.894418 0
M  V30 5966 H 574.012 1.50263 0.430211 0
M  V30 5967 H 574.747 1.32814 2.95856 0
M  V30 5968 H 574.532 3.03688 2.48025 0
M  V30 5969 H 576.022 2.52376 3.3271 0
M  V30 5970 N 576.459 -0.456382 1.50847 0
M  V30 5971 C 577.687 -1.23026 1.66349 0
M  V30 5972 C 578.102 -1.85473 0.352868 0
M  V30 5973 O 577.459 -1.69885 -0.666739 0
M  V30 5974 C 577.51 -2.32827 2.76539 0
M  V30 5975 O 577.231 -1.72938 4.02522 0
M  V30 5976 C 578.732 -3.23448 3.03144 0
M  V30 5977 H 575.952 -0.371527 0.558756 0
M  V30 5978 H 578.496 -0.543082 1.97157 0
M  V30 5979 H 576.651 -2.97294 2.48384 0
M  V30 5980 H 577.065 -2.45357 4.63573 0
M  V30 5981 H 578.539 -3.96669 3.83872 0
M  V30 5982 H 579.016 -3.83094 2.14793 0
M  V30 5983 H 579.622 -2.64702 3.32886 0
M  V30 5984 N 577.937 -1.40673 -0.710563 0
M  V30 5985 C 578.884 -1.41336 -1.82463 0
M  V30 5986 C 579.854 -0.269648 -1.63897 0
M  V30 5987 O 581.039 -0.468463 -1.8496 0
M  V30 5988 C 578.179 -1.28665 -3.20218 0
M  V30 5989 C 577.292 -2.52784 -3.5032 0
M  V30 5990 C 576.427 -2.32517 -4.77608 0
M  V30 5991 C 575.466 -3.52187 -5.0063 0
M  V30 5992 N 574.603 -3.31084 -6.19135 0
M  V30 5993 H 579.443 -2.36558 -1.8123 0
M  V30 5994 H 576.98 -1.17483 -0.885226 0
M  V30 5995 H 578.938 -1.19324 -3.99772 0
M  V30 5996 H 577.568 -0.370602 -3.20666 0
M  V30 5997 H 576.62 -2.72634 -2.65283 0
M  V30 5998 H 577.932 -3.41845 -3.63241 0
M  V30 5999 H 577.086 -2.20558 -5.65189 0
M  V30 6000 H 575.825 -1.40889 -4.66906 0
M  V30 6001 H 574.83 -3.64617 -4.11502 0
M  V30 6002 H 576.055 -4.44749 -5.13201 0
M  V30 6003 H 574.001 -2.42143 -6.09674 0
M  V30 6004 H 573.918 -4.13713 -6.32754 0
M  V30 6005 H 575.186 -3.22868 -7.0949 0
M  V30 6006 N 579.415 0.9433 -1.26252 0
M  V30 6007 C 580.365 2.02746 -1.04297 0
M  V30 6008 C 581.349 1.60882 0.0239435 0
M  V30 6009 O 582.541 1.75947 -0.192757 0
M  V30 6010 C 579.67 3.36585 -0.6757 0
M  V30 6011 C 578.756 3.84939 -1.77996 0
M  V30 6012 N 579.147 4.05966 -3.01704 0
M  V30 6013 C 577.445 4.13833 -1.66308 0
M  V30 6014 C 578.146 4.45987 -3.73458 0
M  V30 6015 N 577.122 4.52569 -3.01135 0
M  V30 6016 H 580.924 2.17012 -1.98199 0
M  V30 6017 H 578.438 1.12898 -1.16738 0
M  V30 6018 H 580.435 4.13896 -0.499571 0
M  V30 6019 H 579.095 3.2369 0.255863 0
M  V30 6020 H 580.106 3.92716 -3.37631 0
M  V30 6021 H 576.783 4.09739 -0.801267 0
M  V30 6022 H 578.173 4.70465 -4.79701 0
M  V30 6023 N 580.893 1.08022 1.14757 0
M  V30 6024 C 581.825 0.664566 2.19354 0
M  V30 6025 C 582.838 -0.286374 1.60261 0
M  V30 6026 O 584.027 -0.0746362 1.78344 0
M  V30 6027 C 581.127 -0.0434634 3.38872 0
M  V30 6028 C 580.3 0.925381 4.27499 0
M  V30 6029 C 579.359 0.253398 5.2559 0
M  V30 6030 O 578.385 0.896581 5.62094 0
M  V30 6031 N 579.587 -0.998263 5.71852 0
M  V30 6032 H 582.352 1.56438 2.55631 0
M  V30 6033 H 579.913 0.965788 1.29939 0
M  V30 6034 H 581.905 -0.503857 4.01551 0
M  V30 6035 H 580.475 -0.845321 3.00954 0
M  V30 6036 H 579.695 1.56472 3.61815 0
M  V30 6037 H 580.983 1.58203 4.8358 0
M  V30 6038 H 580.381 -1.54063 5.44317 0
M  V30 6039 H 578.938 -1.40222 6.36538 0
M  V30 6040 N 582.371 -1.3172 0.865308 0
M  V30 6041 C 583.787 -1.4958 0.556596 0
M  V30 6042 C 583.987 -1.79763 -0.910353 0
M  V30 6043 O 583.043 -1.87351 -1.6928 0
M  V30 6044 C 584.356 -2.63277 1.45279 0
M  V30 6045 C 585.904 -2.77161 1.45433 0
M  V30 6046 C 586.379 -3.93949 2.33598 0
M  V30 6047 N 587.87 -4.01228 2.31453 0
M  V30 6048 C 588.605 -4.90855 2.96393 0
M  V30 6049 N 588.101 -5.85416 3.70486 0
M  V30 6050 N 589.894 -4.84063 2.85726 0
M  V30 6051 H 582.045 -1.10396 1.81456 0
M  V30 6052 H 584.308 -0.54507 0.775631 0
M  V30 6053 H 584.014 -2.47734 2.49641 0
M  V30 6054 H 583.888 -3.59309 1.14792 0
M  V30 6055 H 586.275 -2.9212 0.41831 0
M  V30 6056 H 586.356 -1.8181 1.79941 0
M  V30 6057 H 586 -3.79748 3.37274 0
M  V30 6058 H 585.93 -4.88598 1.96417 0
M  V30 6059 H 588.421 -3.3357 1.77593 0
M  V30 6060 H 588.734 -6.50525 4.17178 0
M  V30 6061 H 587.079 -5.85409 3.74594 0
M  V30 6062 H 590.27 -4.09163 2.27384 0
M  V30 6063 H 590.443 -5.53708 3.36617 0
M  V30 6064 N 583.85 -0.624285 -1.44708 0
M  V30 6065 C 584.76 0.0861083 -2.34442 0
M  V30 6066 C 585.776 0.84291 -1.5222 0
M  V30 6067 O 586.952 0.796723 -1.84971 0
M  V30 6068 C 584.017 1.05999 -3.30099 0
M  V30 6069 C 583.077 0.303316 -4.28227 0
M  V30 6070 C 582.311 1.23081 -5.19314 0
M  V30 6071 O 582.534 2.46929 -5.14181 0
M  V30 6072 O 581.468 0.71883 -5.97592 0
M  V30 6073 H 585.293 -0.651756 -2.96624 0
M  V30 6074 H 582.879 -0.384493 -1.44368 0
M  V30 6075 H 584.76 1.62046 -3.88997 0
M  V30 6076 H 583.436 1.77859 -2.70459 0
M  V30 6077 H 582.343 -0.300033 -3.72895 0
M  V30 6078 H 583.676 -0.375123 -4.90768 0
M  V30 6079 N 585.328 1.53329 -0.364422 0
M  V30 6080 C 586.574 2.01537 0.225969 0
M  V30 6081 C 586.907 1.25128 1.48515 0
M  V30 6082 O 586.182 0.344653 1.91422 0
M  V30 6083 C 586.465 3.56339 0.519092 0
M  V30 6084 C 586.318 4.43441 -0.753639 0
M  V30 6085 C 587.637 4.19833 1.32015 0
M  V30 6086 H 584.756 0.732573 0.0806548 0
M  V30 6087 H 587.398 1.83597 -0.489084 0
M  V30 6088 H 585.548 3.71756 1.12825 0
M  V30 6089 H 587.22 4.39823 -1.39116 0
M  V30 6090 H 585.463 4.11457 -1.37424 0
M  V30 6091 H 586.134 5.49699 -0.503517 0
M  V30 6092 H 588.61 4.08242 0.804859 0
M  V30 6093 H 587.486 5.28177 1.49399 0
M  V30 6094 H 587.747 3.75821 2.32832 0
M  V30 6095 N 586.806 0.0935595 1.57322 0
M  V30 6096 C 588.054 -0.569383 1.93913 0
M  V30 6097 C 588.375 -1.68817 0.976009 0
M  V30 6098 O 587.645 -1.9588 0.0278099 0
M  V30 6099 H 586.225 -0.21332 0.715894 0
M  V30 6100 H 588.887 0.156531 1.9427 0
M  V30 6101 H 587.983 -0.980577 2.96296 0
M  V30 6102 N 588.284 -1.56567 -0.180126 0
M  V30 6103 C 589.247 -1.94852 -1.20686 0
M  V30 6104 C 590.247 -0.831212 -1.3765 0
M  V30 6105 O 591.437 -1.09841 -1.35206 0
M  V30 6106 C 588.569 -2.23565 -2.57355 0
M  V30 6107 H 589.762 -2.86722 -0.879225 0
M  V30 6108 H 587.315 -1.50489 -0.422237 0
M  V30 6109 H 588.05 -1.34381 -2.95148 0
M  V30 6110 H 587.835 -3.04999 -2.46411 0
M  V30 6111 H 589.325 -2.54137 -3.31367 0
M  V30 6112 N 589.762 0.448376 -1.51087 0
M  V30 6113 C 591.01 1.19635 -1.62886 0
M  V30 6114 C 591.331 1.91977 -0.342024 0
M  V30 6115 O 590.601 1.85094 0.641636 0
M  V30 6116 H 589.181 0.444598 -0.600285 0
M  V30 6117 H 591.843 0.515138 -1.87969 0
M  V30 6118 H 590.939 1.93194 -2.45117 0
M  V30 6119 N 591.24 1.41047 0.703093 0
M  V30 6120 C 592.47 1.43133 1.48985 0
M  V30 6121 C 592.878 0.0328537 1.89171 0
M  V30 6122 O 592.221 -0.956469 1.56835 0
M  V30 6123 C 592.283 2.26991 2.78775 0
M  V30 6124 C 591.947 3.7525 2.60837 0
M  V30 6125 C 592.944 4.67591 2.27276 0
M  V30 6126 C 590.629 4.19208 2.76712 0
M  V30 6127 C 592.623 6.01877 2.09817 0
M  V30 6128 C 590.31 5.53561 2.5887 0
M  V30 6129 C 591.308 6.4471 2.25472 0
M  V30 6130 O 590.996 7.76584 2.07778 0
M  V30 6131 H 590.728 0.489788 0.465922 0
M  V30 6132 H 593.282 1.85886 0.873822 0
M  V30 6133 H 591.512 1.79038 3.42757 0
M  V30 6134 H 593.201 2.20867 3.40547 0
M  V30 6135 H 593.967 4.34923 2.14633 0
M  V30 6136 H 589.846 3.48572 3.01693 0
M  V30 6137 H 593.39 6.72986 1.83671 0
M  V30 6138 H 589.287 5.85811 2.71102 0
M  V30 6139 H 590.055 7.87649 2.22601 0
M  V30 6140 N 592.718 -0.936591 1.26751 0
M  V30 6141 C 593.965 -1.68331 1.12566 0
M  V30 6142 C 594.293 -1.91677 -0.330168 0
M  V30 6143 O 593.548 -1.49859 -1.2586 0
M  V30 6144 C 593.847 -3.06099 1.84494 0
M  V30 6145 C 593.513 -3.02493 3.34378 0
M  V30 6146 C 592.175 -3.01217 3.75262 0
M  V30 6147 C 594.527 -2.94453 4.30055 0
M  V30 6148 C 591.855 -2.89672 5.10203 0
M  V30 6149 C 594.207 -2.84449 5.65041 0
M  V30 6150 C 592.871 -2.81518 6.0523 0
M  V30 6151 H 592.141 -0.615965 0.411907 0
M  V30 6152 H 594.788 -1.09292 1.5725 0
M  V30 6153 H 593.093 -3.6879 1.32292 0
M  V30 6154 H 594.79 -3.62733 1.70955 0
M  V30 6155 H 591.38 -3.04269 3.01858 0
M  V30 6156 H 595.564 -2.94544 3.99447 0
M  V30 6157 H 590.82 -2.85783 5.40498 0
M  V30 6158 H 594.994 -2.77192 6.38856 0
M  V30 6159 H 592.621 -2.72329 7.09747 0
M  V30 6160 N 594.196 -1.08629 -1.14182 0
M  V30 6161 C 595.473 -0.73002 -1.81466 0
M  V30 6162 C 595.853 0.785996 -1.95922 0
M  V30 6163 O 595.201 1.70535 -1.52086 0
M  V30 6164 C 595.411 -1.45957 -3.17014 0
M  V30 6165 C 596.759 -1.62008 -3.92477 0
M  V30 6166 O 597.783 -1.42141 -3.26611 0
M  V30 6167 O 596.642 -1.94806 -5.106 0
M  V30 6168 H 593.736 -0.261307 -0.784632 0
M  V30 6169 H 596.282 -1.188 -1.2118 0
M  V30 6170 H 595.054 -2.49221 -3.01669 0
M  V30 6171 H 594.677 -0.993222 -3.84995 0
M  V30 6172 N 595.674 1.31259 -0.872281 0
M  V30 6173 C 597.09 1.49283 -0.564521 0
M  V30 6174 C 597.29 1.80243 0.900807 0
M  V30 6175 O 596.346 1.88246 1.68284 0
M  V30 6176 C 597.659 2.62503 -1.46673 0
M  V30 6177 C 599.207 2.76386 -1.46901 0
M  V30 6178 C 599.682 3.92705 -2.35684 0
M  V30 6179 N 601.173 3.99995 -2.33577 0
M  V30 6180 C 601.908 4.89276 -2.98992 0
M  V30 6181 N 601.404 5.83443 -3.73585 0
M  V30 6182 N 603.197 4.82541 -2.88289 0
M  V30 6183 H 595.348 1.09432 -1.82039 0
M  V30 6184 H 597.611 0.540949 -0.77851 0
M  V30 6185 H 597.317 2.46407 -2.50951 0
M  V30 6186 H 597.191 3.58695 -1.16696 0
M  V30 6187 H 599.578 2.91894 -0.433796 0
M  V30 6188 H 599.659 1.80853 -1.80903 0
M  V30 6189 H 599.303 3.77954 -3.39283 0
M  V30 6190 H 599.233 4.87549 -1.99006 0
M  V30 6191 H 601.724 3.32624 -1.7936 0
M  V30 6192 H 602.037 6.48303 -4.20622 0
M  V30 6193 H 600.382 5.83415 -3.77694 0
M  V30 6194 H 603.573 4.07951 -2.2955 0
M  V30 6195 H 603.746 5.51916 -3.39549 0
M  V30 6196 N 597.152 0.631951 1.44375 0
M  V30 6197 C 598.401 0.134214 2.01253 0
M  V30 6198 C 598.714 -1.25171 1.50305 0
M  V30 6199 O 599.92 -1.8435 1.99317 0
M  V30 6200 C 598.376 0.189187 3.59402 0
M  V30 6201 C 597.984 1.57647 4.19346 0
M  V30 6202 C 599.728 -0.252044 4.23751 0
M  V30 6203 C 597.635 1.58651 5.69722 0
M  V30 6204 H 596.565 0.0464101 0.75257 0
M  V30 6205 H 599.216 0.790868 1.65582 0
M  V30 6206 H 597.598 -0.534584 3.92375 0
M  V30 6207 H 598.772 2.32389 3.97909 0
M  V30 6208 H 597.087 1.96186 3.67288 0
M  V30 6209 H 599.684 -0.264084 5.34047 0
M  V30 6210 H 600.027 -1.27951 3.96149 0
M  V30 6211 H 600.56 0.41926 3.95584 0
M  V30 6212 H 597.299 2.59237 6.0206 0
M  V30 6213 H 596.819 0.882039 5.93279 0
M  V30 6214 H 598.498 1.32082 6.33375 0
M  V30 6215 N 598.631 -1.53133 0.372548 0
M  V30 6216 C 599.594 -2.24569 -0.458389 0
M  V30 6217 C 600.594 -1.25603 -1.00402 0
M  V30 6218 O 601.784 -1.49827 -0.888672 0
M  V30 6219 C 598.916 -2.98783 -1.6414 0
M  V30 6220 H 600.109 -2.99436 0.166799 0
M  V30 6221 H 597.662 -1.55805 0.124357 0
M  V30 6222 H 598.397 -2.28176 -2.30448 0
M  V30 6223 H 598.182 -3.71404 -1.25704 0
M  V30 6224 H 599.672 -3.53068 -2.23008 0
M  V30 6225 N 600.109 -0.101901 -1.5727 0
M  V30 6226 C 601.337 0.568392 -1.98939 0
M  V30 6227 C 601.752 1.61301 -0.981194 0
M  V30 6228 O 601.109 1.82478 0.0282869 0
M  V30 6229 C 601.16 1.20997 -3.40649 0
M  V30 6230 O 600.881 0.207129 -4.3761 0
M  V30 6231 C 602.382 1.96523 -3.97358 0
M  V30 6232 H 599.602 0.15186 -0.65359 0
M  V30 6233 H 602.146 -0.183198 -2.03678 0
M  V30 6234 H 600.301 1.91245 -3.36904 0
M  V30 6235 H 600.715 0.671071 -5.20189 0
M  V30 6236 H 602.189 2.36764 -4.98645 0
M  V30 6237 H 602.666 2.83376 -3.35552 0
M  V30 6238 H 603.272 1.31076 -4.04598 0
M  V30 6239 N 601.587 1.56661 0.17182 0
M  V30 6240 C 602.815 1.861 0.904115 0
M  V30 6241 C 603.23 0.687227 1.75848 0
M  V30 6242 O 602.587 -0.343671 1.79235 0
M  V30 6243 C 602.638 3.14568 1.78127 0
M  V30 6244 O 602.359 4.27422 0.961366 0
M  V30 6245 C 603.86 3.5735 2.62327 0
M  V30 6246 H 601.08 0.617445 0.262684 0
M  V30 6247 H 603.624 2.03775 0.172068 0
M  V30 6248 H 601.779 2.98721 2.46666 0
M  V30 6249 H 602.193 5.00725 1.56123 0
M  V30 6250 H 603.667 4.50144 3.1949 0
M  V30 6251 H 604.144 2.81445 3.37173 0
M  V30 6252 H 604.75 3.75807 1.99121 0
M  V30 6253 N 603.065 -0.440357 1.51323 0
M  V30 6254 C 604.311 -1.19181 1.64085 0
M  V30 6255 C 604.644 -1.90936 0.354575 0
M  V30 6256 O 603.919 -1.8347 -0.645675 0
M  V30 6257 C 604.202 -2.2112 2.84215 0
M  V30 6258 C 604.055 -1.53468 4.22809 0
M  V30 6259 C 605.374 -3.22133 2.99864 0
M  V30 6260 H 602.493 -0.431924 0.597169 0
M  V30 6261 H 605.135 -0.481443 1.83799 0
M  V30 6262 H 603.285 -2.81703 2.67537 0
M  V30 6263 H 604.957 -0.962455 4.51148 0
M  V30 6264 H 603.2 -0.837086 4.25647 0
M  V30 6265 H 603.871 -2.27694 5.02852 0
M  V30 6266 H 606.347 -2.71601 3.15233 0
M  V30 6267 H 605.223 -3.90756 3.85488 0
M  V30 6268 H 605.484 -3.88061 2.11804 0
M  V30 6269 N 604.543 -1.41418 -0.695603 0
M  V30 6270 C 605.82 -1.31264 -1.45014 0
M  V30 6271 C 606.2 0.0597994 -2.11015 0
M  V30 6272 O 605.548 1.07403 -2.01685 0
M  V30 6273 C 605.758 -2.466 -2.4696 0
M  V30 6274 C 607.106 -2.87763 -3.12214 0
M  V30 6275 O 608.13 -2.46339 -2.57285 0
M  V30 6276 O 606.989 -3.59395 -4.11701 0
M  V30 6277 H 604.083 -0.516576 -0.645816 0
M  V30 6278 H 606.629 -1.53382 -0.726084 0
M  V30 6279 H 605.401 -3.38183 -1.96845 0
M  V30 6280 H 605.024 -2.26358 -3.26876 0
M  V30 6281 N 606.021 0.929856 -1.27246 0
M  V30 6282 C 607.432 1.49223 -1.12203 0
M  V30 6283 C 607.783 1.93989 0.293731 0
M  V30 6284 O 606.908 1.80978 1.18642 0
M  V30 6285 C 607.503 2.71198 -2.0307 0
M  V30 6286 C 606.062 3.23666 -1.92139 0
M  V30 6287 C 605.209 1.96409 -1.95752 0
M  V30 6288 H 608.16 0.744181 -1.4017 0
M  V30 6289 H 608.181 3.45905 -1.58524 0
M  V30 6290 H 607.693 2.38585 -3.06102 0
M  V30 6291 H 605.794 3.61042 -0.920834 0
M  V30 6292 H 605.907 3.90006 -2.78267 0
M  V30 6293 H 604.271 2.12806 -1.39949 0
M  V30 6294 H 605.054 1.66113 -3.00436 0
M  V30 6295 N 607.499 1.09233 1.13605 0
M  V30 6296 C 608.447 0.724572 2.21027 0
M  V30 6297 C 609.441 -0.273595 1.67176 0
M  V30 6298 O 610.647 -0.135266 1.79491 0
M  V30 6299 H 607.022 0.216319 0.720215 0
M  V30 6300 H 608.993 1.63975 2.49309 0
M  V30 6301 C 607.742 0.159126 3.47336 0
M  V30 6302 H 607.065 0.918387 3.89109 0
M  V30 6303 H 608.505 -0.0602851 4.23957 0
M  V30 6304 C 606.964 -1.10514 3.18258 0
M  V30 6305 O 607.494 -2.18869 3.36837 0
M  V30 6306 N 605.7 -1.01886 2.72154 0
M  V30 6307 H 605.247 -0.137027 2.57235 0
M  V30 6308 H 605.205 -1.8655 2.53074 0
M  V30 6309 N 608.977 -1.30795 0.87923 0
M  V30 6310 C 610.202 -2.01063 0.508769 0
M  V30 6311 C 610.627 -1.65508 -0.893803 0
M  V30 6312 O 609.985 -0.868616 -1.59138 0
M  V30 6313 C 610.033 -3.54054 0.683991 0
M  V30 6314 O 609.137 -4.11498 -0.272654 0
M  V30 6315 H 608.478 -0.632786 0.201191 0
M  V30 6316 H 611.008 -1.66776 1.18519 0
M  V30 6317 H 611.018 -4.03845 0.580798 0
M  V30 6318 H 609.693 -3.79271 1.70665 0
M  V30 6319 H 608.27 -3.72695 -0.12364 0
M  V30 6320 N 610.455 -0.639598 -1.44038 0
M  V30 6321 C 611.68 -0.153117 -2.06834 0
M  V30 6322 C 612.105 1.16676 -1.47541 0
M  V30 6323 O 611.463 1.71769 -0.580093 0
M  V30 6324 C 611.511 -0.0609169 -3.60549 0
M  V30 6325 O 610.615 0.98071 -4.00569 0
M  V30 6326 H 609.956 -0.0886402 -0.658057 0
M  V30 6327 H 612.486 -0.878674 -1.84771 0
M  V30 6328 H 612.496 0.126892 -4.07803 0
M  V30 6329 H 611.171 -1.0245 -4.03084 0
M  V30 6330 H 609.748 0.766789 -3.64931 0
M  V30 6331 N 611.933 1.52934 -0.380664 0
M  V30 6332 C 613.161 2.05886 0.204599 0
M  V30 6333 C 613.576 1.25305 1.41223 0
M  V30 6334 O 612.933 0.297504 1.80059 0
M  V30 6335 C 612.984 3.56764 0.583249 0
M  V30 6336 O 612.705 4.34292 -0.576398 0
M  V30 6337 C 614.206 4.2603 1.2253 0
M  V30 6338 H 611.426 0.670193 0.0328991 0
M  V30 6339 H 613.97 1.97148 -0.543397 0
M  V30 6340 H 612.125 3.65603 1.28115 0
M  V30 6341 H 612.539 5.23819 -0.267119 0
M  V30 6342 H 614.013 5.32868 1.44068 0
M  V30 6343 H 614.49 3.80698 2.19011 0
M  V30 6344 H 615.096 4.21485 0.568407 0
M  V30 6345 N 613.412 0.11024 1.57214 0
M  V30 6346 C 614.64 -0.557834 1.99238 0
M  V30 6347 C 615.055 -1.60778 0.989734 0
M  V30 6348 O 614.412 -1.82491 -0.0186092 0
M  V30 6349 C 614.463 -1.19189 3.41286 0
M  V30 6350 O 614.184 -0.183919 4.37714 0
M  V30 6351 C 615.685 -1.94413 3.98395 0
M  V30 6352 H 612.905 -0.148392 0.654386 0
M  V30 6353 H 615.449 0.193996 2.03578 0
M  V30 6354 H 613.604 -1.89456 3.37913 0
M  V30 6355 H 614.018 -0.643475 5.20538 0
M  V30 6356 H 615.492 -2.34116 4.99894 0
M  V30 6357 H 615.969 -2.81592 3.3705 0
M  V30 6358 H 616.575 -1.28928 4.05287 0
M  V30 6359 N 614.89 -1.56749 -0.16351 0
M  V30 6360 C 615.853 -1.96121 -1.18613 0
M  V30 6361 C 616.853 -0.845765 -1.36761 0
M  V30 6362 O 618.043 -1.11268 -1.34033 0
M  V30 6363 C 615.175 -2.26282 -2.54969 0
M  V30 6364 H 616.368 -2.87639 -0.848764 0
M  V30 6365 H 613.921 -1.50928 -0.406251 0
M  V30 6366 H 614.656 -1.37504 -2.93706 0
M  V30 6367 H 614.441 -3.07595 -2.43162 0
M  V30 6368 H 615.931 -2.57638 -3.28653 0
M  V30 6369 N 616.368 0.432326 -1.51554 0
M  V30 6370 C 617.298 1.53242 -1.76179 0
M  V30 6371 C 618.279 1.58717 -0.611801 0
M  V30 6372 O 619.464 1.74364 -0.855033 0
M  V30 6373 C 616.594 2.91278 -1.89141 0
M  V30 6374 C 615.548 3.00663 -3.04608 0
M  V30 6375 C 614.874 4.40728 -3.02759 0
M  V30 6376 C 616.174 2.74281 -4.44485 0
M  V30 6377 H 617.868 1.32886 -2.68294 0
M  V30 6378 H 615.414 0.637841 -1.29103 0
M  V30 6379 H 617.367 3.68203 -2.04951 0
M  V30 6380 H 616.091 3.12877 -0.936785 0
M  V30 6381 H 614.75 2.26179 -2.88511 0
M  V30 6382 H 614.398 4.59301 -2.05065 0
M  V30 6383 H 614.098 4.47936 -3.80299 0
M  V30 6384 H 615.622 5.19619 -3.20669 0
M  V30 6385 H 617.036 3.40936 -4.60907 0
M  V30 6386 H 615.433 2.92893 -5.23769 0
M  V30 6387 H 616.503 1.69856 -4.54177 0
M  V30 6388 N 617.846 1.41785 0.688094 0
M  V30 6389 C 619.074 1.44915 1.47673 0
M  V30 6390 C 619.489 0.0565786 1.88715 0
M  V30 6391 O 618.846 -0.92579 1.57275 0
M  V30 6392 C 618.897 2.36452 2.73446 0
M  V30 6393 O 618.618 3.7029 2.34131 0
M  V30 6394 C 620.119 2.48463 3.67125 0
M  V30 6395 H 617.339 0.493324 0.454832 0
M  V30 6396 H 619.883 1.86153 0.846594 0
M  V30 6397 H 618.038 1.98502 3.3268 0
M  V30 6398 H 618.452 4.19183 3.15255 0
M  V30 6399 H 619.926 3.16662 4.52138 0
M  V30 6400 H 620.403 1.51826 4.12123 0
M  V30 6401 H 621.009 2.8708 3.13792 0
M  V30 6402 N 619.324 -0.923095 1.27737 0
M  V30 6403 C 620.572 -1.66797 1.14119 0
M  V30 6404 C 620.893 -1.92479 -0.312541 0
M  V30 6405 O 620.163 -1.53432 -1.218 0
M  V30 6406 H 618.743 -0.618196 0.419336 0
M  V30 6407 H 621.405 -1.10815 1.60331 0
M  V30 6408 H 620.501 -2.63424 1.67374 0
M  V30 6409 N 620.802 -1.09834 -1.13024 0
M  V30 6410 C 622.027 -0.85909 -1.88771 0
M  V30 6411 C 622.452 0.584402 -1.78791 0
M  V30 6412 O 621.81 1.41101 -1.13842 0
M  V30 6413 C 621.858 -1.30427 -3.36186 0
M  V30 6414 O 620.962 -0.465368 -4.09766 0
M  V30 6415 H 620.303 -0.310786 -0.586778 0
M  V30 6416 H 622.833 -1.46355 -1.42973 0
M  V30 6417 H 622.843 -1.2915 -3.8702 0
M  V30 6418 H 621.518 -2.3555 -3.42767 0
M  V30 6419 H 620.095 -0.542814 -3.68928 0
M  V30 6420 N 622.28 1.30327 -0.886154 0
M  V30 6421 C 623.508 2.00254 -0.520176 0
M  V30 6422 C 623.923 1.66419 0.891637 0
M  V30 6423 O 623.28 0.901951 1.58654 0
M  V30 6424 C 623.331 3.54916 -0.686775 0
M  V30 6425 O 623.052 3.87547 -2.04301 0
M  V30 6426 C 624.553 4.42115 -0.323945 0
M  V30 6427 H 621.773 0.640204 -0.200947 0
M  V30 6428 H 624.317 1.66183 -1.19178 0
M  V30 6429 H 622.472 3.8735 -0.0625273 0
M  V30 6430 H 622.886 4.82247 -2.06249 0
M  V30 6431 H 624.36 5.49808 -0.491407 0
M  V30 6432 H 624.837 4.32953 0.73811 0
M  V30 6433 H 625.443 4.15129 -0.924565 0
M  V30 6434 N 623.758 0.647228 1.43697 0
M  V30 6435 C 624.668 -0.0487997 2.34549 0
M  V30 6436 C 625.684 -0.818586 1.53542 0
M  V30 6437 O 626.86 -0.767195 1.86215 0
M  V30 6438 C 623.925 -1.00734 3.31743 0
M  V30 6439 C 622.986 -0.23515 4.28655 0
M  V30 6440 C 622.219 -1.14803 5.21206 0
M  V30 6441 O 622.442 -2.38717 5.18045 0
M  V30 6442 O 621.376 -0.623667 5.9866 0
M  V30 6443 H 625.202 0.698863 2.9555 0
M  V30 6444 H 622.787 0.407412 1.43738 0
M  V30 6445 H 624.669 -1.55837 3.91526 0
M  V30 6446 H 623.344 -1.73534 2.73254 0
M  V30 6447 H 622.251 0.359319 3.7237 0
M  V30 6448 H 623.584 0.453152 4.9011 0
M  V30 6449 N 625.236 -1.5273 0.388769 0
M  V30 6450 C 626.146 -2.30165 -0.453993 0
M  V30 6451 C 627.162 -1.37058 -1.07197 0
M  V30 6452 O 628.338 -1.70127 -1.0779 0
M  V30 6453 C 625.403 -3.09303 -1.56628 0
M  V30 6454 C 624.464 -4.18117 -0.973467 0
M  V30 6455 C 623.697 -4.93472 -2.03275 0
M  V30 6456 O 623.92 -4.68913 -3.24772 0
M  V30 6457 O 622.854 -5.78833 -1.65034 0
M  V30 6458 H 626.68 -3.03185 0.176816 0
M  V30 6459 H 624.265 -1.4862 0.152501 0
M  V30 6460 H 626.147 -3.58648 -2.21246 0
M  V30 6461 H 624.822 -2.39098 -2.18206 0
M  V30 6462 H 623.729 -3.7297 -0.290556 0
M  V30 6463 H 625.062 -4.90556 -0.401908 0
M  V30 6464 N 626.714 -0.118576 -1.57153 0
M  V30 6465 C 627.962 0.538461 -1.94795 0
M  V30 6466 C 628.283 1.67243 -1.00274 0
M  V30 6467 O 627.553 1.95811 -0.0589692 0
M  V30 6468 H 626.133 0.201904 -0.719197 0
M  V30 6469 H 628.795 -0.187418 -1.93997 0
M  V30 6470 H 627.891 0.933315 -2.97818 0
M  V30 6471 N 628.193 1.56834 0.155195 0
M  V30 6472 C 629.125 1.94235 1.21677 0
M  V30 6473 C 630.138 0.83724 1.39621 0
M  V30 6474 O 631.327 1.11567 1.39338 0
M  V30 6475 C 628.427 2.19402 2.58294 0
M  V30 6476 C 627.6 3.50671 2.61436 0
M  V30 6477 C 626.659 3.64475 3.79532 0
M  V30 6478 O 625.685 4.36945 3.64784 0
M  V30 6479 N 626.887 3.00526 4.96653 0
M  V30 6480 H 629.652 2.85901 0.898932 0
M  V30 6481 H 627.213 1.58185 0.34483 0
M  V30 6482 H 629.205 2.25886 3.35794 0
M  V30 6483 H 627.775 1.34042 2.82403 0
M  V30 6484 H 626.995 3.55702 1.69912 0
M  V30 6485 H 628.283 4.3702 2.60559 0
M  V30 6486 H 627.681 2.41549 5.11538 0
M  V30 6487 H 626.238 3.12583 5.71958 0
M  V30 6488 N 629.671 -0.424282 1.51781 0
M  V30 6489 C 630.918 -1.1726 1.65095 0
M  V30 6490 C 631.246 -1.90881 0.373477 0
M  V30 6491 O 630.501 -1.84835 -0.642997 0
M  V30 6492 C 630.8 -2.20418 2.81337 0
M  V30 6493 C 630.466 -1.63715 4.20129 0
M  V30 6494 C 629.128 -1.47975 4.57883 0
M  V30 6495 C 631.48 -1.22157 5.06682 0
M  V30 6496 C 628.808 -0.891703 5.79884 0
M  V30 6497 C 631.16 -0.647767 6.29275 0
M  V30 6498 C 629.824 -0.477371 6.65791 0
M  V30 6499 H 629.094 -0.429085 0.604125 0
M  V30 6500 H 631.741 -0.461852 1.85847 0
M  V30 6501 H 630.046 -2.97581 2.54859 0
M  V30 6502 H 631.743 -2.78163 2.88836 0
M  V30 6503 H 628.333 -1.76946 3.90369 0
M  V30 6504 H 632.517 -1.33133 4.7811 0
M  V30 6505 H 627.773 -0.747563 6.06813 0
M  V30 6506 H 631.947 -0.317291 6.95677 0
M  V30 6507 H 629.574 -0.0195936 7.60197 0
M  V30 6508 N 631.149 -1.42148 -0.680565 0
M  V30 6509 C 632.099 -1.41634 -1.78672 0
M  V30 6510 C 633.083 -0.288494 -1.58293 0
M  V30 6511 O 634.275 -0.530295 -1.68869 0
M  V30 6512 C 631.404 -1.31558 -3.17092 0
M  V30 6513 C 630.49 -2.49265 -3.43115 0
M  V30 6514 N 630.881 -3.74702 -3.39753 0
M  V30 6515 C 629.179 -2.43401 -3.73727 0
M  V30 6516 C 629.88 -4.52854 -3.651 0
M  V30 6517 N 628.856 -3.83181 -3.85582 0
M  V30 6518 H 632.658 -2.3652 -1.74458 0
M  V30 6519 H 630.172 -1.36415 -0.881171 0
M  V30 6520 H 632.169 -1.29272 -3.96351 0
M  V30 6521 H 630.829 -0.376696 -3.22508 0
M  V30 6522 H 631.84 -4.07378 -3.19787 0
M  V30 6523 H 628.517 -1.58062 -3.86423 0
M  V30 6524 H 629.907 -5.61827 -3.6851 0
M  V30 6525 O 632.666 0.823011 -1.38956 0
M  V30 6526 H 633.357 1.46633 -1.26564 0
M  V30 END ATOM
M  V30 BEGIN BOND
M  V30 END BOND
M  V30 END CTAB
M  END
$$$$
