drugbank_target|Q15303 Receptor tyrosine-protein kinase erbB-4 (DB08916; DB12010; DB12267; DB15035)
 OpenBabel12092120583D

  0  0  0     0  0            999 V3000
M  V30 BEGIN CTAB
M  V30 COUNTS 20331 20585 0 0 0
M  V30 BEGIN ATOM
M  V30 1 H -0.908 1.98254 -0.117106 0
M  V30 2 N 0 1.576 0 0
M  V30 3 C 0.933 2.03868 1.02534 0
M  V30 4 C 1.911 0.928543 1.3348 0
M  V30 5 O 3.095 1.19667 1.45644 0
M  V30 6 C 0.222 2.43627 2.35294 0
M  V30 7 C -0.732 3.65373 2.2001 0
M  V30 8 S 0.101 5.13292 1.52614 0
M  V30 9 C 1.257 5.56322 2.86805 0
M  V30 10 H 1.49 2.90518 0.631377 0
M  V30 11 H -0.977 1.52953 0.210867 0
M  V30 12 H 0.981 2.67203 3.11629 0
M  V30 13 H -0.358 1.57376 2.7183 0
M  V30 14 H -1.165 3.90944 3.18086 0
M  V30 15 H -1.563 3.418 1.51819 0
M  V30 16 H 0.729 5.58782 3.83104 0
M  V30 17 H 1.672 6.56266 2.65933 0
M  V30 18 H 2.08 4.83886 2.90714 0
M  V30 19 N 1.4781 -0.272755 1.55222 0
M  V30 20 C 2.4251 -1.33716 1.88119 0
M  V30 21 C 3.3951 -1.49066 0.73271 0
M  V30 22 O 4.5801 -1.63469 0.984002 0
M  V30 23 C 1.7201 -2.69238 2.15882 0
M  V30 24 C 0.8331 -2.62108 3.43399 0
M  V30 25 C -0.0319 -3.89811 3.60861 0
M  V30 26 C -0.9929 -3.77193 4.8207 0
M  V30 27 N -1.8559 -4.9673 4.96189 0
M  V30 28 H 2.9841 -1.04962 2.78903 0
M  V30 29 H 0.5211 -0.507088 1.38083 0
M  V30 30 H 2.4791 -3.48089 2.29978 0
M  V30 31 H 1.1091 -2.96194 1.28331 0
M  V30 32 H 0.1611 -1.74967 3.37773 0
M  V30 33 H 1.4731 -2.48685 4.32386 0
M  V30 34 H 0.6271 -4.77103 3.74777 0
M  V30 35 H -0.6339 -4.06102 2.7006 0
M  V30 36 H -1.6289 -2.88284 4.68159 0
M  V30 37 H -0.4039 -3.62421 5.74307 0
M  V30 38 H -2.4579 -5.13431 4.08319 0
M  V30 39 H -2.5409 -4.85839 5.79221 0
M  V30 40 H -1.2729 -5.85594 5.1449 0
M  V30 41 N 2.9562 -1.48159 -0.537278 0
M  V30 42 C 4.3672 -1.49429 -1.11928 0
M  V30 43 C 4.7182 -0.26 -1.9447 0
M  V30 44 O 3.8432 0.633489 -2.0692 0
M  V30 45 C 4.4382 -2.70758 -2.03656 0
M  V30 46 C 2.9972 -2.74923 -2.57088 0
M  V30 47 C 2.1442 -2.42835 -1.3389 0
M  V30 48 H 5.0952 -1.55381 -0.322886 0
M  V30 49 H 5.1162 -2.48861 -2.87834 0
M  V30 50 H 4.6282 -3.60575 -1.43553 0
M  V30 51 H 2.7292 -1.89296 -3.20933 0
M  V30 52 H 2.8422 -3.76157 -2.9672 0
M  V30 53 H 1.2062 -1.93836 -1.65226 0
M  V30 54 H 1.9892 -3.34884 -0.755504 0
M  V30 55 N 4.4343 0.785586 -1.36625 0
M  V30 56 C 5.3973 1.87999 -1.31107 0
M  V30 57 C 6.3973 1.59316 -0.217959 0
M  V30 58 O 7.5873 1.67656 -0.472977 0
M  V30 59 C 4.7193 3.24861 -1.03334 0
M  V30 60 H 5.9123 1.94307 -2.2844 0
M  V30 61 H 3.4653 0.983813 -1.21453 0
M  V30 62 H 4.2003 3.24235 -0.0647432 0
M  V30 63 H 3.9853 3.4707 -1.82441 0
M  V30 64 H 5.4753 4.04929 -1.02088 0
M  V30 65 N 5.9124 1.20967 1.01018 0
M  V30 66 C 7.1404 1.04956 1.78303 0
M  V30 67 C 7.5554 -0.400915 1.84494 0
M  V30 68 O 6.9124 -1.27826 1.30257 0
M  V30 69 C 6.9634 1.63403 3.22462 0
M  V30 70 O 6.6844 3.02775 3.16637 0
M  V30 71 C 8.1854 1.52432 4.16268 0
M  V30 72 H 5.4054 0.368858 0.560522 0
M  V30 73 H 7.9494 1.60193 1.27116 0
M  V30 74 H 6.1044 1.1227 3.70775 0
M  V30 75 H 6.5184 3.30626 4.07169 0
M  V30 76 H 7.9924 1.98078 5.15237 0
M  V30 77 H 8.4694 0.477875 4.36592 0
M  V30 78 H 9.0754 2.02787 3.73841 0
M  V30 79 N 7.3905 -1.2043 1.01659 0
M  V30 80 C 8.6385 -1.89423 0.704522 0
M  V30 81 C 8.9595 -1.79231 -0.768197 0
M  V30 82 O 8.2295 -1.1947 -1.55254 0
M  V30 83 H 6.8095 -0.701178 0.257602 0
M  V30 84 H 9.4715 -1.4626 1.28818 0
M  V30 85 H 8.5675 -2.96052 0.987916 0
M  V30 86 N 8.8686 -0.792821 -1.36206 0
M  V30 87 C 9.7986 -0.207853 -2.32573 0
M  V30 88 C 10.7796 0.659055 -1.56813 0
M  V30 89 O 11.9646 0.592176 -1.84951 0
M  V30 90 C 9.0946 0.655449 -3.41059 0
M  V30 91 C 8.0486 -0.111842 -4.27854 0
M  V30 92 C 7.3746 0.872274 -5.27537 0
M  V30 93 C 8.6746 -1.30299 -5.05786 0
M  V30 94 H 10.3686 -1.01294 -2.81744 0
M  V30 95 H 7.9146 -0.48854 -1.3546 0
M  V30 96 H 9.8676 1.07464 -4.07467 0
M  V30 97 H 8.5916 1.49328 -2.90463 0
M  V30 98 H 7.2506 -0.512053 -3.63006 0
M  V30 99 H 6.8986 1.70523 -4.73214 0
M  V30 100 H 6.5986 0.363291 -5.86476 0
M  V30 101 H 8.1226 1.28996 -5.96818 0
M  V30 102 H 9.5366 -0.959379 -5.65216 0
M  V30 103 H 7.9336 -1.7455 -5.74154 0
M  V30 104 H 9.0036 -2.09663 -4.37229 0
M  V30 105 N 10.3467 1.47872 -0.545128 0
M  V30 106 C 11.5927 2.03385 -0.0247951 0
M  V30 107 C 11.9477 1.41325 1.30556 0
M  V30 108 O 11.2407 0.5552 1.8338 0
M  V30 109 C 11.4347 3.57131 0.13867 0
M  V30 110 C 11.2637 4.34097 -1.17429 0
M  V30 111 C 10.0337 4.74458 -1.73831 0
M  V30 112 C 12.2317 4.6998 -2.08861 0
M  V30 113 N 10.2137 5.3602 -2.99258 0
M  V30 114 C 11.5847 5.31719 -3.18866 0
M  V30 115 C 13.6397 4.5191 -2.09003 0
M  V30 116 C 12.3427 5.77295 -4.29096 0
M  V30 117 C 14.3687 4.98477 -3.18237 0
M  V30 118 C 13.7307 5.60253 -4.26961 0
M  V30 119 H 9.8297 0.780339 -0.050943 0
M  V30 120 H 12.4137 1.80507 -0.729753 0
M  V30 121 H 10.5847 3.79802 0.812733 0
M  V30 122 H 12.3167 3.99282 0.659976 0
M  V30 123 H 9.0717 4.56037 -1.2778 0
M  V30 124 H 9.4957 5.71355 -3.63157 0
M  V30 125 H 14.1377 4.03516 -1.26234 0
M  V30 126 H 11.8557 6.24687 -5.12633 0
M  V30 127 H 15.4417 4.86274 -3.1942 0
M  V30 128 H 14.3217 5.95631 -5.10091 0
M  V30 129 N 11.8248 0.280983 1.55075 0
M  V30 130 C 13.0708 -0.33461 2.00021 0
M  V30 131 C 13.4038 -1.55063 1.16915 0
M  V30 132 O 12.6788 -1.93006 0.240646 0
M  V30 133 C 12.9618 -0.711007 3.53011 0
M  V30 134 C 12.8148 0.512766 4.46868 0
M  V30 135 C 14.1338 -1.54522 4.12081 0
M  V30 136 H 11.2528 -0.120147 0.727141 0
M  V30 137 H 13.8948 0.389097 1.85973 0
M  V30 138 H 12.0448 -1.32761 3.65112 0
M  V30 139 H 13.7168 1.15131 4.46702 0
M  V30 140 H 11.9598 1.14975 4.18286 0
M  V30 141 H 12.6308 0.205556 5.51617 0
M  V30 142 H 15.1068 -1.02442 4.03293 0
M  V30 143 H 13.9828 -1.77739 5.19327 0
M  V30 144 H 14.2438 -2.52813 3.62682 0
M  V30 145 N 13.3029 -1.57598 0.00835791 0
M  V30 146 C 14.5489 -1.92046 -0.670055 0
M  V30 147 C 14.9039 -0.88351 -1.70915 0
M  V30 148 O 14.1969 0.103223 -1.91322 0
M  V30 149 C 14.3909 -3.3101 -1.34787 0
M  V30 150 C 14.2199 -4.48126 -0.375945 0
M  V30 151 C 12.9899 -5.05297 0.0166914 0
M  V30 152 C 15.1879 -5.1303 0.361272 0
M  V30 153 N 13.1699 -6.05931 0.985952 0
M  V30 154 C 14.5409 -6.08571 1.18495 0
M  V30 155 C 16.5959 -4.9609 0.42421 0
M  V30 156 C 15.2989 -6.88996 2.06584 0
M  V30 157 C 17.3249 -5.77107 1.29236 0
M  V30 158 C 16.6869 -6.72248 2.10386 0
M  V30 159 H 12.7859 -0.75096 -0.218136 0
M  V30 160 H 15.3699 -1.94572 0.0706669 0
M  V30 161 H 13.5409 -3.29342 -2.05884 0
M  V30 162 H 15.2729 -3.52864 -1.98164 0
M  V30 163 H 12.0279 -4.72279 -0.353435 0
M  V30 164 H 12.4519 -6.60932 1.4662 0
M  V30 165 H 17.0939 -4.22378 -0.188915 0
M  V30 166 H 14.8119 -7.62028 2.6896 0
M  V30 167 H 18.3979 -5.66038 1.34508 0
M  V30 168 H 17.2779 -7.33846 2.76476 0
M  V30 169 N 14.781 0.264519 -1.55364 0
M  V30 170 C 16.027 0.99646 -1.76631 0
M  V30 171 C 16.36 1.85632 -0.570478 0
M  V30 172 O 15.635 1.89647 0.43175 0
M  V30 173 C 15.918 1.87187 -3.07625 0
M  V30 174 C 15.771 1.04138 -4.37579 0
M  V30 175 C 17.09 2.85749 -3.34717 0
M  V30 176 H 14.209 0.360841 -0.642622 0
M  V30 177 H 16.851 0.268218 -1.88097 0
M  V30 178 H 15.001 2.49279 -2.9798 0
M  V30 179 H 16.673 0.440517 -4.59192 0
M  V30 180 H 14.916 0.345115 -4.32425 0
M  V30 181 H 15.587 1.68729 -5.2558 0
M  V30 182 H 18.063 2.33793 -3.4421 0
M  V30 183 H 16.939 3.44136 -4.27623 0
M  V30 184 H 17.2 3.61311 -2.54768 0
M  V30 185 N 16.2591 1.48442 0.529413 0
M  V30 186 C 17.4841 1.60406 1.31471 0
M  V30 187 C 17.9091 0.264738 1.86228 0
M  V30 188 O 17.2671 -0.763668 1.64432 0
M  V30 189 C 17.3151 2.65419 2.44101 0
M  V30 190 O 16.4191 2.22618 3.47153 0
M  V30 191 H 15.7601 0.537863 0.389357 0
M  V30 192 H 18.2901 1.94432 0.636965 0
M  V30 193 H 18.3001 2.86709 2.90279 0
M  V30 194 H 16.9751 3.62652 2.03608 0
M  V30 195 H 15.5521 2.11543 3.0709 0
M  V30 196 N 17.7372 -0.778329 1.37039 0
M  V30 197 C 18.6672 -1.90546 1.34962 0
M  V30 198 C 19.6482 -1.68681 0.219274 0
M  V30 199 O 20.8332 -1.89634 0.418624 0
M  V30 200 C 17.9632 -3.27734 1.14925 0
M  V30 201 C 16.9172 -3.64147 2.24902 0
M  V30 202 C 16.2432 -4.99806 1.89996 0
M  V30 203 C 17.5432 -3.71579 3.67051 0
M  V30 204 H 19.2372 -1.92541 2.29277 0
M  V30 205 H 16.7832 -0.924948 1.10366 0
M  V30 206 H 18.7362 -4.06215 1.12104 0
M  V30 207 H 17.4602 -3.26154 0.170631 0
M  V30 208 H 16.1192 -2.8797 2.26868 0
M  V30 209 H 15.7672 -4.94759 0.906796 0
M  V30 210 H 15.4672 -5.25139 2.63634 0
M  V30 211 H 16.9912 -5.80694 1.88749 0
M  V30 212 H 18.4052 -4.40227 3.67251 0
M  V30 213 H 16.8022 -4.08405 4.39688 0
M  V30 214 H 17.8722 -2.72404 4.01154 0
M  V30 215 N 19.2153 -1.21501 -1.00376 0
M  V30 216 C 20.1453 -0.999478 -2.11028 0
M  V30 217 C 21.1263 0.0759671 -1.6993 0
M  V30 218 O 22.3113 -0.0841106 -1.94018 0
M  V30 219 C 19.4413 -0.564709 -3.42678 0
M  V30 220 C 18.3953 -1.58486 -3.97576 0
M  V30 221 C 17.7213 -1.00628 -5.25146 0
M  V30 222 C 19.0213 -2.97204 -4.29496 0
M  V30 223 H 20.7153 -1.92495 -2.29317 0
M  V30 224 H 18.2613 -0.92693 -1.102 0
M  V30 225 H 20.2143 -0.401091 -4.19487 0
M  V30 226 H 18.9383 0.396411 -3.24185 0
M  V30 227 H 17.5973 -1.73606 -3.22888 0
M  V30 228 H 17.2453 -0.0368439 -5.02987 0
M  V30 229 H 16.9453 -1.68771 -5.62841 0
M  V30 230 H 18.4693 -0.854015 -6.04598 0
M  V30 231 H 19.8833 -2.8552 -4.97143 0
M  V30 232 H 18.2803 -3.62372 -4.78338 0
M  V30 233 H 19.3503 -3.47956 -3.3772 0
M  V30 234 N 20.6934 1.19889 -1.02296 0
M  V30 235 C 21.9394 1.89701 -0.717033 0
M  V30 236 C 22.2724 1.7905 0.751989 0
M  V30 237 O 21.5474 1.17891 1.547 0
M  V30 238 C 21.8304 3.40858 -1.16136 0
M  V30 239 C 21.6834 3.60411 -2.69117 0
M  V30 240 C 23.0024 4.33876 -0.737549 0
M  V30 241 H 20.1214 0.688874 -0.261957 0
M  V30 242 H 22.7634 1.41154 -1.27183 0
M  V30 243 H 20.9134 3.82335 -0.689342 0
M  V30 244 H 22.5854 3.28145 -3.2422 0
M  V30 245 H 20.8284 3.03665 -3.0979 0
M  V30 246 H 21.4994 4.66396 -2.95261 0
M  V30 247 H 23.9754 4.00081 -1.14344 0
M  V30 248 H 22.8514 5.38242 -1.0764 0
M  V30 249 H 23.1124 4.40628 0.360436 0
M  V30 250 N 22.1715 0.800033 1.35784 0
M  V30 251 C 23.1345 0.211565 2.28221 0
M  V30 252 C 24.1345 -0.59728 1.49296 0
M  V30 253 O 25.3245 -0.416721 1.69142 0
M  V30 254 C 22.4565 -0.705846 3.33513 0
M  V30 255 H 23.6495 1.02677 2.81776 0
M  V30 256 H 21.2025 0.570211 1.45528 0
M  V30 257 H 21.9375 -1.54498 2.85133 0
M  V30 258 H 21.7225 -0.127655 3.91892 0
M  V30 259 H 23.2125 -1.11211 4.02519 0
M  V30 260 N 23.6496 -1.47581 0.552962 0
M  V30 261 C 24.6126 -2.28439 -0.186605 0
M  V30 262 C 25.6126 -1.36706 -0.84665 0
M  V30 263 O 26.8026 -1.59378 -0.703164 0
M  V30 264 C 23.9346 -3.16264 -1.2724 0
M  V30 265 H 25.1276 -2.95294 0.523609 0
M  V30 266 H 22.6806 -1.532 0.309745 0
M  V30 267 H 23.4156 -2.54091 -2.01514 0
M  V30 268 H 23.2006 -3.83769 -0.803968 0
M  V30 269 H 24.6906 -3.77198 -1.79196 0
M  V30 270 N 25.1277 -0.289203 -1.54924 0
M  V30 271 C 26.3757 0.322879 -1.99504 0
M  V30 272 C 26.6967 1.55313 -1.1791 0
M  V30 273 O 25.9667 1.94001 -0.272097 0
M  V30 274 H 24.5467 0.122291 -0.736922 0
M  V30 275 H 27.2087 -0.397802 -1.90797 0
M  V30 276 H 26.3047 0.603061 -3.06218 0
M  V30 277 N 26.6058 1.57591 -0.0167156 0
M  V30 278 C 27.8338 1.95575 0.675128 0
M  V30 279 C 28.2488 0.892542 1.6637 0
M  V30 280 O 27.6058 -0.126912 1.82058 0
M  V30 281 C 27.6568 3.33608 1.39239 0
M  V30 282 O 27.3778 4.3585 0.443444 0
M  V30 283 C 28.8788 3.86151 2.17721 0
M  V30 284 H 26.0988 0.644423 0.186978 0
M  V30 285 H 28.6428 2.0437 -0.0728 0
M  V30 286 H 26.7978 3.2607 2.09182 0
M  V30 287 H 27.2118 5.158 0.951358 0
M  V30 288 H 28.6858 4.85114 2.63379 0
M  V30 289 H 29.1628 3.19738 3.01105 0
M  V30 290 H 29.7688 3.96918 1.52761 0
M  V30 291 N 28.0839 -0.256276 1.55502 0
M  V30 292 C 29.3299 -0.987079 1.77157 0
M  V30 293 C 29.6629 -1.85327 0.580315 0
M  V30 294 O 28.9379 -1.89874 -0.421686 0
M  V30 295 C 29.2209 -1.85553 3.08613 0
M  V30 296 C 29.0739 -1.01816 4.38125 0
M  V30 297 C 30.3929 -2.8397 3.36228 0
M  V30 298 H 27.5119 -0.357428 0.644526 0
M  V30 299 H 30.1539 -0.258239 1.88237 0
M  V30 300 H 28.3039 -2.47695 2.99298 0
M  V30 301 H 29.9759 -0.416159 4.59419 0
M  V30 302 H 28.2189 -0.322178 4.32602 0
M  V30 303 H 28.8899 -1.65939 5.26468 0
M  V30 304 H 31.3659 -2.31964 3.45445 0
M  V30 305 H 30.2419 -3.41864 4.29442 0
M  V30 306 H 30.5029 -3.59955 2.56681 0
M  V30 307 N 29.562 -1.4872 -0.521534 0
M  V30 308 C 30.494 -1.59968 -1.64143 0
M  V30 309 C 31.507 -0.483463 -1.55456 0
M  V30 310 O 32.696 -0.75467 -1.61762 0
M  V30 311 C 29.796 -1.52127 -3.02838 0
M  V30 312 C 28.969 -2.78932 -3.36921 0
M  V30 313 C 28.028 -2.64428 -4.54933 0
M  V30 314 O 27.054 -3.38331 -4.57735 0
M  V30 315 N 28.256 -1.74606 -5.53618 0
M  V30 316 H 31.021 -2.56548 -1.54929 0
M  V30 317 H 28.582 -1.45551 -0.708988 0
M  V30 318 H 30.574 -1.40106 -3.79674 0
M  V30 319 H 29.144 -0.634868 -3.06085 0
M  V30 320 H 28.364 -3.05455 -2.4918 0
M  V30 321 H 29.652 -3.63041 -3.56481 0
M  V30 322 H 29.05 -1.13782 -5.54139 0
M  V30 323 H 27.607 -1.6852 -6.29638 0
M  V30 324 N 31.0401 0.771051 -1.3745 0
M  V30 325 C 32.4511 1.34737 -1.29239 0
M  V30 326 C 32.8021 1.96109 0.0596908 0
M  V30 327 O 31.9271 1.93865 0.961534 0
M  V30 328 C 32.5221 2.44973 -2.34037 0
M  V30 329 C 31.0811 2.98372 -2.29458 0
M  V30 330 C 30.2281 1.71595 -2.17831 0
M  V30 331 H 33.1791 0.571256 -1.48062 0
M  V30 332 H 33.2001 3.24471 -1.98744 0
M  V30 333 H 32.7121 2.00276 -3.32432 0
M  V30 334 H 30.8131 3.47443 -1.34589 0
M  V30 335 H 30.9261 3.53939 -3.229 0
M  V30 336 H 29.2901 1.94547 -1.64388 0
M  V30 337 H 30.0731 1.29001 -3.18141 0
M  V30 338 N 32.5182 1.22032 0.997298 0
M  V30 339 C 33.7432 1.06921 1.77715 0
M  V30 340 C 34.1682 -0.376226 1.84299 0
M  V30 341 O 33.5262 -1.27165 1.29223 0
M  V30 342 C 33.5742 1.67996 3.19076 0
M  V30 343 O 32.6782 0.930653 4.01762 0
M  V30 344 H 32.0192 0.375814 0.547412 0
M  V30 345 H 34.5492 1.61737 1.25309 0
M  V30 346 H 34.5592 1.72538 3.69723 0
M  V30 347 H 33.2342 2.73182 3.13599 0
M  V30 348 H 31.8112 0.960917 3.60307 0
M  V30 349 N 33.9963 -1.19345 1.0293 0
M  V30 350 C 35.2733 -1.84811 0.640642 0
M  V30 351 C 35.6533 -1.91855 -0.88062 0
M  V30 352 O 35.0013 -1.43587 -1.7775 0
M  V30 353 C 35.2113 -3.23755 1.30321 0
M  V30 354 C 36.5593 -3.99912 1.42673 0
M  V30 355 O 37.5833 -3.33155 1.26041 0
M  V30 356 O 36.4423 -5.19494 1.6967 0
M  V30 357 H 33.5363 -0.796443 0.222726 0
M  V30 358 H 36.0823 -1.26831 1.12748 0
M  V30 359 H 34.8543 -3.13466 2.34211 0
M  V30 360 H 34.4773 -3.89381 0.804261 0
M  V30 361 N 35.4744 -0.807222 -1.35358 0
M  V30 362 C 36.6994 -0.399309 -2.0352 0
M  V30 363 C 37.1244 0.981986 -1.60433 0
M  V30 364 O 36.4824 1.63601 -0.781299 0
M  V30 365 C 36.5304 -0.491552 -3.57234 0
M  V30 366 O 35.6344 0.494754 -4.09421 0
M  V30 367 H 34.9754 -0.166682 -0.642739 0
M  V30 368 H 37.5054 -1.09328 -1.72941 0
M  V30 369 H 37.5154 -0.361588 -4.06395 0
M  V30 370 H 36.1904 -1.49907 -3.87944 0
M  V30 371 H 34.7674 0.324977 -3.71481 0
M  V30 372 N 36.9525 1.47285 -0.560781 0
M  V30 373 C 37.8845 2.28118 0.222438 0
M  V30 374 C 38.8975 1.37219 0.876056 0
M  V30 375 O 40.0865 1.62011 0.749307 0
M  V30 376 C 37.1865 3.1159 1.33285 0
M  V30 377 C 36.3595 4.30473 0.77534 0
M  V30 378 C 35.4185 4.95513 1.77069 0
M  V30 379 O 34.4445 5.53792 1.31539 0
M  V30 380 N 35.6465 4.90531 3.10418 0
M  V30 381 H 38.4115 2.95976 -0.470958 0
M  V30 382 H 35.9725 1.56955 -0.39709 0
M  V30 383 H 37.9645 3.51967 1.99752 0
M  V30 384 H 36.5345 2.45951 1.92943 0
M  V30 385 H 35.7545 3.94144 -0.0662113 0
M  V30 386 H 37.0425 5.07362 0.382272 0
M  V30 387 H 36.4405 4.44389 3.5005 0
M  V30 388 H 34.9975 5.34917 3.72434 0
M  V30 389 N 38.4306 0.297415 1.54768 0
M  V30 390 C 39.6556 -0.318435 2.04941 0
M  V30 391 C 40.0806 -1.4701 1.17345 0
M  V30 392 O 39.4386 -1.80436 0.176758 0
M  V30 393 C 39.4866 -0.755749 3.52592 0
M  V30 394 O 38.5906 -1.86088 3.68028 0
M  V30 395 H 37.9316 -0.062421 0.661059 0
M  V30 396 H 40.4616 0.438215 1.99852 0
M  V30 397 H 40.4716 -1.04552 3.94376 0
M  V30 398 H 39.1466 0.0867233 4.1581 0
M  V30 399 H 37.7236 -1.57193 3.38149 0
M  V30 400 N 39.9087 -1.5758 0.0250728 0
M  V30 401 C 41.1547 -1.91917 -0.655413 0
M  V30 402 C 41.4877 -0.901433 -1.72011 0
M  V30 403 O 40.7627 0.0764069 -1.9435 0
M  V30 404 C 41.0457 -3.36751 -1.27558 0
M  V30 405 C 40.8987 -4.49258 -0.220719 0
M  V30 406 C 42.2177 -3.81469 -2.19475 0
M  V30 407 H 39.3367 -0.697925 -0.23679 0
M  V30 408 H 41.9787 -1.89825 0.0815036 0
M  V30 409 H 40.1287 -3.38664 -1.90365 0
M  V30 410 H 41.8007 -4.59478 0.409601 0
M  V30 411 H 40.0437 -4.31415 0.454264 0
M  V30 412 H 40.7147 -5.47618 -0.694175 0
M  V30 413 H 43.1907 -3.81266 -1.66659 0
M  V30 414 H 42.0667 -4.83512 -2.59822 0
M  V30 415 H 42.3277 -3.16744 -3.08424 0
M  V30 416 N 41.3868 0.248026 -1.55636 0
M  V30 417 C 42.6268 0.983592 -1.79178 0
M  V30 418 C 42.9908 1.82567 -0.594414 0
M  V30 419 O 44.1918 2.59292 -0.708583 0
M  V30 420 C 42.4628 1.82228 -3.07454 0
M  V30 421 S 44.0218 2.61709 -3.52213 0
M  V30 422 H 40.8398 0.330866 -0.629324 0
M  V30 423 H 43.4418 0.251562 -1.93875 0
M  V30 424 H 42.1458 1.19333 -3.92668 0
M  V30 425 H 41.6768 2.59708 -2.95492 0
M  V30 426 H 43.6918 3.84655 -3.13457 0
M  V30 427 N 42.8649 1.48995 0.513639 0
M  V30 428 C 43.8279 1.64229 1.59879 0
M  V30 429 C 44.8279 0.514696 1.5234 0
M  V30 430 O 46.0179 0.78087 1.55718 0
M  V30 431 C 43.1499 1.62783 2.99524 0
M  V30 432 H 44.3429 2.61004 1.47705 0
M  V30 433 H 41.8959 1.37837 0.736936 0
M  V30 434 H 42.6309 0.675461 3.17188 0
M  V30 435 H 42.4159 2.4466 3.06404 0
M  V30 436 H 43.9059 1.76669 3.78388 0
M  V30 437 N 44.343 -0.763751 1.37857 0
M  V30 438 C 45.591 -1.51957 1.33243 0
M  V30 439 C 45.912 -1.94835 -0.0801709 0
M  V30 440 O 45.182 -1.66894 -1.02582 0
M  V30 441 H 43.762 -0.563626 0.49024 0
M  V30 442 H 46.424 -0.908504 1.7243 0
M  V30 443 H 45.52 -2.41523 1.97669 0
M  V30 444 N 45.8211 -1.22559 -0.990812 0
M  V30 445 C 47.0491 -1.07779 -1.76611 0
M  V30 446 C 47.4641 0.371513 -1.85109 0
M  V30 447 O 46.8211 1.25737 -1.32274 0
M  V30 448 C 46.8721 -1.68512 -3.19822 0
M  V30 449 O 46.5931 -3.07774 -3.1178 0
M  V30 450 C 48.0941 -1.59035 -4.13791 0
M  V30 451 H 45.3141 -0.377729 -0.554583 0
M  V30 452 H 47.8581 -1.62195 -1.24551 0
M  V30 453 H 46.0131 -1.18154 -3.68942 0
M  V30 454 H 46.4271 -3.37062 -4.01858 0
M  V30 455 H 47.9011 -2.0625 -5.1202 0
M  V30 456 H 48.3781 -0.547273 -4.35777 0
M  V30 457 H 48.9841 -2.08709 -3.70568 0
M  V30 458 N 47.2992 1.18797 -1.03562 0
M  V30 459 C 48.2092 2.25913 -0.632505 0
M  V30 460 C 49.2252 1.70668 0.338882 0
M  V30 461 O 50.4012 2.00453 0.195076 0
M  V30 462 C 47.4662 3.467 0.00350942 0
M  V30 463 C 46.5272 4.17098 -1.01624 0
M  V30 464 C 45.7602 5.32119 -0.410478 0
M  V30 465 O 45.9832 5.64976 0.784725 0
M  V30 466 O 44.9172 5.9107 -1.13667 0
M  V30 467 H 48.7432 2.62648 -1.52478 0
M  V30 468 H 46.3282 1.25781 -0.806195 0
M  V30 469 H 48.2102 4.19878 0.35781 0
M  V30 470 H 46.8852 3.11798 0.869686 0
M  V30 471 H 45.7922 3.4601 -1.42224 0
M  V30 472 H 47.1252 4.55987 -1.85301 0
M  V30 473 N 48.7773 0.814389 1.34928 0
M  V30 474 C 49.7253 0.218424 2.31572 0
M  V30 475 C 50.7193 -0.636128 1.57002 0
M  V30 476 O 51.9253 -0.52842 1.72069 0
M  V30 477 H 48.3003 0.0518799 0.750208 0
M  V30 478 H 50.2713 1.04852 2.79372 0
M  V30 479 C 49.0203 -0.61207 3.4227 0
M  V30 480 H 48.3433 0.0361578 3.99784 0
M  V30 481 H 49.7833 -0.995317 4.12152 0
M  V30 482 C 48.2423 -1.78087 2.85984 0
M  V30 483 O 48.7723 -2.8787 2.80168 0
M  V30 484 N 46.9783 -1.59488 2.42924 0
M  V30 485 H 46.5253 -0.701874 2.47854 0
M  V30 486 H 46.4833 -2.37846 2.05613 0
M  V30 487 N 50.2554 -1.46986 0.568584 0
M  V30 488 C 51.2024 -2.30153 -0.172707 0
M  V30 489 C 52.1724 -1.39759 -0.897586 0
M  V30 490 O 53.3574 -1.68716 -0.891044 0
M  V30 491 C 50.4974 -3.23952 -1.1895 0
M  V30 492 C 49.6104 -4.29441 -0.469517 0
M  V30 493 C 48.7454 -5.1038 -1.47259 0
M  V30 494 C 47.7844 -6.07632 -0.738225 0
M  V30 495 N 46.9214 -6.8149 -1.68868 0
M  V30 496 H 51.7614 -2.93019 0.542596 0
M  V30 497 H 49.2984 -1.44422 0.279401 0
M  V30 498 H 51.2564 -3.76767 -1.79173 0
M  V30 499 H 49.8864 -2.62926 -1.87269 0
M  V30 500 H 48.9384 -3.79594 0.247467 0
M  V30 501 H 50.2504 -4.98689 0.105241 0
M  V30 502 H 49.4044 -5.67402 -2.14803 0
M  V30 503 H 48.1434 -4.4106 -2.08128 0
M  V30 504 H 47.1484 -5.49778 -0.0489293 0
M  V30 505 H 48.3734 -6.78966 -0.135129 0
M  V30 506 H 46.3194 -6.14891 -2.28573 0
M  V30 507 H 46.2364 -7.46948 -1.16636 0
M  V30 508 H 47.5044 -7.43078 -2.3549 0
M  V30 509 N 51.7335 -0.305618 -1.54608 0
M  V30 510 C 52.6635 0.561482 -2.26649 0
M  V30 511 C 53.6445 1.13415 -1.26772 0
M  V30 512 O 54.8295 1.16262 -1.55553 0
M  V30 513 C 51.9595 1.73122 -3.01075 0
M  V30 514 C 50.9135 1.2887 -4.08138 0
M  V30 515 C 50.2395 2.54396 -4.70305 0
M  V30 516 C 51.5395 0.416578 -5.20636 0
M  V30 517 H 53.2335 -0.0393902 -2.99374 0
M  V30 518 H 50.7795 -0.020385 -1.43986 0
M  V30 519 H 52.7325 2.34396 -3.50195 0
M  V30 520 H 51.4565 2.3584 -2.25936 0
M  V30 521 H 50.1155 0.698991 -3.59875 0
M  V30 522 H 49.7635 3.15439 -3.918 0
M  V30 523 H 49.4635 2.25486 -5.42614 0
M  V30 524 H 50.9875 3.16464 -5.2219 0
M  V30 525 H 52.4015 0.935116 -5.65622 0
M  V30 526 H 50.7985 0.221046 -5.99693 0
M  V30 527 H 51.8685 -0.557162 -4.81688 0
M  V30 528 N 53.2116 1.57565 -0.0334293 0
M  V30 529 C 54.4366 1.96689 0.657895 0
M  V30 530 C 54.8616 0.910057 1.64619 0
M  V30 531 O 54.2196 -0.128598 1.80843 0
M  V30 532 C 54.2676 3.34905 1.33683 0
M  V30 533 O 53.3716 3.31574 2.45219 0
M  V30 534 H 52.7126 0.641205 0.172489 0
M  V30 535 H 55.2426 2.04372 -0.0965621 0
M  V30 536 H 55.2526 3.71234 1.69262 0
M  V30 537 H 53.9276 4.11366 0.612411 0
M  V30 538 H 52.5046 3.06968 2.11719 0
M  V30 539 N 54.6897 -0.239769 1.55765 0
M  V30 540 C 55.9147 -0.988373 1.82335 0
M  V30 541 C 56.3397 -1.77886 0.611421 0
M  V30 542 O 55.6977 -1.75889 -0.439639 0
M  V30 543 C 55.7457 -1.89627 3.06715 0
M  V30 544 O 54.8497 -2.98904 2.84131 0
M  V30 545 H 54.1907 -0.280858 0.601677 0
M  V30 546 H 56.7207 -0.258597 2.02959 0
M  V30 547 H 56.7307 -2.30957 3.36338 0
M  V30 548 H 55.4057 -1.31511 3.9456 0
M  V30 549 H 53.9827 -2.61651 2.65694 0
M  V30 550 N 56.1678 -1.49265 -0.50573 0
M  V30 551 C 57.0978 -1.68495 -1.61653 0
M  V30 552 C 58.0788 -0.53366 -1.61512 0
M  V30 553 O 59.2638 -0.76897 -1.78327 0
M  V30 554 C 56.3938 -1.74709 -3.00157 0
M  V30 555 C 55.3478 -2.89581 -3.15162 0
M  V30 556 C 54.6738 -2.80903 -4.5497 0
M  V30 557 C 55.9738 -4.30578 -2.95634 0
M  V30 558 H 57.6678 -2.61493 -1.45814 0
M  V30 559 H 55.2138 -1.25838 -0.70005 0
M  V30 560 H 57.1668 -1.86748 -3.77761 0
M  V30 561 H 55.8908 -0.783067 -3.17074 0
M  V30 562 H 54.5498 -2.77136 -2.39982 0
M  V30 563 H 54.1978 -1.82419 -4.68756 0
M  V30 564 H 53.8978 -3.57999 -4.65951 0
M  V30 565 H 55.4218 -2.94944 -5.34641 0
M  V30 566 H 56.8358 -4.4373 -3.63011 0
M  V30 567 H 55.2328 -5.0886 -3.18091 0
M  V30 568 H 56.3028 -4.45352 -1.91806 0
M  V30 569 N 57.6459 0.756429 -1.3826 0
M  V30 570 C 58.8709 1.55077 -1.37717 0
M  V30 571 C 59.2959 1.88073 0.03164 0
M  V30 572 O 58.6539 1.50364 1.01293 0
M  V30 573 C 58.7019 2.8283 -2.23695 0
M  V30 574 O 57.8059 3.77862 -1.6521 0
M  V30 575 H 57.1469 0.469152 -0.469885 0
M  V30 576 H 59.6769 0.935019 -1.81985 0
M  V30 577 H 59.6869 3.31783 -2.37453 0
M  V30 578 H 58.3619 2.58144 -3.2609 0
M  V30 579 H 56.9389 3.36555 -1.60578 0
M  V30 580 N 59.124 1.23083 0.984299 0
M  V30 581 C 60.401 0.9689 1.69917 0
M  V30 582 C 60.781 -0.513604 2.04757 0
M  V30 583 O 60.129 -1.48383 1.73767 0
M  V30 584 C 60.339 1.87518 2.94343 0
M  V30 585 C 61.687 2.13636 3.6694 0
M  V30 586 O 62.711 1.85036 3.04368 0
M  V30 587 O 61.57 2.62119 4.79537 0
M  V30 588 H 58.664 0.365095 0.742048 0
M  V30 589 H 61.21 1.34107 1.03987 0
M  V30 590 H 59.982 2.87756 2.65164 0
M  V30 591 H 59.605 1.50514 3.6801 0
M  V30 592 N 60.6021 -1.18246 1.0419 0
M  V30 593 C 61.5321 -2.24127 0.654914 0
M  V30 594 C 62.5131 -1.66617 -0.342451 0
M  V30 595 O 63.6981 -1.92924 -0.222277 0
M  V30 596 C 60.8281 -3.47295 0.0183757 0
M  V30 597 C 59.7821 -4.17563 0.939414 0
M  V30 598 C 59.1081 -5.34438 0.167286 0
M  V30 599 C 60.4081 -4.70917 2.25908 0
M  V30 600 H 62.1021 -2.56753 1.54007 0
M  V30 601 H 59.6481 -1.23414 0.74195 0
M  V30 602 H 61.6011 -4.20572 -0.264082 0
M  V30 603 H 60.3251 -3.13907 -0.901664 0
M  V30 604 H 58.9841 -3.46186 1.20628 0
M  V30 605 H 58.6321 -4.97298 -0.7552 0
M  V30 606 H 58.3321 -5.82388 0.780901 0
M  V30 607 H 59.8561 -6.10504 -0.108125 0
M  V30 608 H 61.2701 -5.35882 2.03724 0
M  V30 609 H 59.6671 -5.29406 2.82577 0
M  V30 610 H 60.7371 -3.88272 2.9047 0
M  V30 611 N 62.0802 -0.821533 -1.34494 0
M  V30 612 C 62.9902 -0.244355 -2.33324 0
M  V30 613 C 64.0062 0.620527 -1.62559 0
M  V30 614 O 65.1822 0.528754 -1.94335 0
M  V30 615 C 62.2472 0.585368 -3.41723 0
M  V30 616 C 61.3082 -0.301752 -4.28238 0
M  V30 617 C 60.5412 0.488466 -5.3146 0
M  V30 618 O 60.7642 1.72186 -5.4379 0
M  V30 619 O 59.6982 -0.12848 -6.01763 0
M  V30 620 H 63.5242 -1.06231 -2.84515 0
M  V30 621 H 61.1092 -0.583645 -1.37528 0
M  V30 622 H 62.9912 1.05747 -4.07916 0
M  V30 623 H 61.6662 1.38068 -2.92778 0
M  V30 624 H 60.5732 -0.821315 -3.64973 0
M  V30 625 H 61.9062 -1.06138 -4.8062 0
M  V30 626 N 63.5583 1.46682 -0.576371 0
M  V30 627 C 64.4903 2.28341 0.198231 0
M  V30 628 C 65.5033 1.38141 0.861453 0
M  V30 629 O 66.6923 1.62797 0.732082 0
M  V30 630 C 63.7923 3.12986 1.29972 0
M  V30 631 C 62.9653 4.31271 0.729639 0
M  V30 632 C 62.0243 4.97363 1.71803 0
M  V30 633 O 61.0503 5.55156 1.25658 0
M  V30 634 N 62.2523 4.93796 3.05198 0
M  V30 635 H 65.0173 2.9546 -0.502324 0
M  V30 636 H 62.5783 1.56525 -0.413715 0
M  V30 637 H 64.5703 3.54066 1.96008 0
M  V30 638 H 63.1403 2.47984 1.90323 0
M  V30 639 H 62.3603 3.94052 -0.108012 0
M  V30 640 H 63.6483 5.07739 0.328438 0
M  V30 641 H 63.0463 4.48077 3.45317 0
M  V30 642 H 61.6033 5.38837 3.6674 0
M  V30 643 N 65.0364 0.313813 1.54444 0
M  V30 644 C 65.9684 -0.590425 2.21465 0
M  V30 645 C 66.9814 -1.08753 1.21147 0
M  V30 646 O 68.1704 -1.00278 1.4767 0
M  V30 647 C 65.2704 -1.82179 2.85769 0
M  V30 648 C 64.4434 -1.46502 4.12136 0
M  V30 649 C 63.5024 -2.55288 4.60124 0
M  V30 650 O 62.5284 -2.19842 5.25032 0
M  V30 651 N 63.7304 -3.86053 4.33525 0
M  V30 652 H 66.4954 -0.0166033 2.99695 0
M  V30 653 H 64.0564 0.136578 1.61323 0
M  V30 654 H 66.0484 -2.54328 3.14801 0
M  V30 655 H 64.6184 -2.30369 2.11303 0
M  V30 656 H 63.8384 -0.575595 3.89975 0
M  V30 657 H 65.1264 -1.20221 4.94393 0
M  V30 658 H 64.5244 -4.17654 3.81552 0
M  V30 659 H 63.0814 -4.54461 4.67235 0
M  V30 660 N 66.5145 -1.57545 0.0417849 0
M  V30 661 C 67.7445 -1.96339 -0.642995 0
M  V30 662 C 68.1525 -0.917536 -1.65463 0
M  V30 663 O 67.4955 0.107747 -1.83384 0
M  V30 664 C 67.5575 -3.31333 -1.39494 0
M  V30 665 C 67.2215 -4.53796 -0.540204 0
M  V30 666 C 68.2185 -5.19553 0.189806 0
M  V30 667 C 65.9035 -5.0006 -0.473886 0
M  V30 668 C 67.8975 -6.29904 0.974674 0
M  V30 669 C 65.5845 -6.10289 0.314677 0
M  V30 670 C 66.5825 -6.75072 1.03765 0
M  V30 671 O 66.2705 -7.83183 1.81327 0
M  V30 672 H 66.0025 -0.651241 -0.181277 0
M  V30 673 H 68.5565 -2.05148 0.101665 0
M  V30 674 H 66.7865 -3.19052 -2.18502 0
M  V30 675 H 68.4755 -3.54942 -1.96904 0
M  V30 676 H 69.2415 -4.84774 0.147981 0
M  V30 677 H 65.1205 -4.49433 -1.0262 0
M  V30 678 H 68.6645 -6.80401 1.5395 0
M  V30 679 H 64.5615 -6.44506 0.358174 0
M  V30 680 H 65.3295 -7.99913 1.73438 0
M  V30 681 N 67.9926 0.231505 -1.5589 0
M  V30 682 C 69.4086 0.580748 -1.48659 0
M  V30 683 C 69.6086 1.87617 -0.73498 0
M  V30 684 O 68.6646 2.51046 -0.270586 0
M  V30 685 C 69.9776 0.669202 -2.93159 0
M  V30 686 C 71.5256 0.760499 -3.03621 0
M  V30 687 C 72.0006 0.880383 -4.49459 0
M  V30 688 N 73.4916 0.944861 -4.53461 0
M  V30 689 C 74.2266 1.05716 -5.63571 0
M  V30 690 N 73.7226 1.13403 -6.83456 0
M  V30 691 N 75.5156 1.09152 -5.514 0
M  V30 692 H 67.6666 -0.618695 -2.03189 0
M  V30 693 H 69.9296 -0.215728 -0.923128 0
M  V30 694 H 69.6356 -0.212904 -3.51055 0
M  V30 695 H 69.5096 1.5361 -3.44505 0
M  V30 696 H 71.8966 1.63305 -2.45796 0
M  V30 697 H 71.9776 -0.131864 -2.5546 0
M  V30 698 H 71.6216 0.0123284 -5.07899 0
M  V30 699 H 71.5516 1.78802 -4.95316 0
M  V30 700 H 74.0426 0.896176 -3.6712 0
M  V30 701 H 74.3556 1.21921 -7.63122 0
M  V30 702 H 72.7006 1.10333 -6.86186 0
M  V30 703 H 75.8916 1.02805 -4.56671 0
M  V30 704 H 76.0646 1.17558 -6.37247 0
M  V30 705 N 69.4707 1.49531 0.497807 0
M  V30 706 C 70.4337 1.65916 1.58128 0
M  V30 707 C 71.4337 0.530825 1.51786 0
M  V30 708 O 72.6237 0.797342 1.54881 0
M  V30 709 C 69.7557 1.65951 2.9778 0
M  V30 710 H 70.9487 2.62556 1.44929 0
M  V30 711 H 68.5017 1.38611 0.722275 0
M  V30 712 H 69.2367 0.709065 3.16453 0
M  V30 713 H 69.0217 2.47897 3.03792 0
M  V30 714 H 70.5117 1.80673 3.76493 0
M  V30 715 N 70.9488 -0.749086 1.3866 0
M  V30 716 C 71.8788 -1.8764 1.38973 0
M  V30 717 C 72.8598 -1.68178 0.255004 0
M  V30 718 O 74.0448 -1.88704 0.458754 0
M  V30 719 C 71.1748 -3.25222 1.21851 0
M  V30 720 C 70.1288 -3.59295 2.32575 0
M  V30 721 C 69.4548 -4.95663 2.00555 0
M  V30 722 C 70.7548 -3.63709 3.7485 0
M  V30 723 H 72.4488 -1.87635 2.3331 0
M  V30 724 H 69.9948 -0.901329 1.12303 0
M  V30 725 H 71.9478 -4.03746 1.20695 0
M  V30 726 H 70.6718 -3.25719 0.239775 0
M  V30 727 H 69.3308 -2.83093 2.32925 0
M  V30 728 H 68.9788 -4.92724 1.01154 0
M  V30 729 H 68.6788 -5.19429 2.74714 0
M  V30 730 H 70.2028 -5.7656 2.01024 0
M  V30 731 H 71.6168 -4.32338 3.76506 0
M  V30 732 H 70.0138 -3.98986 4.48252 0
M  V30 733 H 71.0838 -2.63834 4.06841 0
M  V30 734 N 72.4269 -1.23603 -0.977757 0
M  V30 735 C 73.8429 -0.999251 -1.24447 0
M  V30 736 C 74.0429 0.298053 -1.99283 0
M  V30 737 O 73.0989 1.01681 -2.31122 0
M  V30 738 C 74.4119 -2.20784 -2.04144 0
M  V30 739 C 75.9599 -2.25303 -2.17273 0
M  V30 740 C 76.4349 -3.45755 -3.00362 0
M  V30 741 N 77.9259 -3.4601 -3.07947 0
M  V30 742 C 78.6609 -4.35868 -3.72568 0
M  V30 743 N 78.1569 -5.35966 -4.38991 0
M  V30 744 N 79.9499 -4.23605 -3.6948 0
M  V30 745 H 72.1009 -2.06986 -0.476483 0
M  V30 746 H 74.3639 -0.907801 -0.273134 0
M  V30 747 H 74.0699 -3.14945 -1.56533 0
M  V30 748 H 73.9439 -2.22085 -3.04891 0
M  V30 749 H 76.3309 -1.3168 -2.64092 0
M  V30 750 H 76.4119 -2.28033 -1.15907 0
M  V30 751 H 76.0559 -4.39687 -2.5424 0
M  V30 752 H 75.9859 -3.40266 -4.01904 0
M  V30 753 H 78.4769 -2.73588 -2.60688 0
M  V30 754 H 78.7899 -6.00783 -4.86086 0
M  V30 755 H 77.1349 -5.39863 -4.37691 0
M  V30 756 H 80.3259 -3.44647 -3.16759 0
M  V30 757 H 80.4989 -4.93836 -4.1956 0
M  V30 758 N 73.905 1.17692 -1.04816 0
M  V30 759 C 74.852 2.21581 -0.645797 0
M  V30 760 C 75.822 1.62367 0.350159 0
M  V30 761 O 77.007 1.89254 0.242433 0
M  V30 762 C 74.147 3.45092 -0.0227568 0
M  V30 763 C 73.26 4.18613 -1.06709 0
M  V30 764 C 72.395 5.29602 -0.411767 0
M  V30 765 C 71.434 5.94904 -1.44067 0
M  V30 766 N 70.571 6.97414 -0.809781 0
M  V30 767 H 75.411 2.55353 -1.5362 0
M  V30 768 H 72.948 1.25438 -0.768364 0
M  V30 769 H 74.906 4.15679 0.35588 0
M  V30 770 H 73.536 3.11917 0.831122 0
M  V30 771 H 72.588 3.46779 -1.5636 0
M  V30 772 H 73.9 4.63293 -1.84827 0
M  V30 773 H 73.054 6.06696 0.0206623 0
M  V30 774 H 71.793 4.86045 0.401438 0
M  V30 775 H 70.798 5.16544 -1.88316 0
M  V30 776 H 72.023 6.40542 -2.25571 0
M  V30 777 H 69.969 6.55998 -0.0170186 0
M  V30 778 H 69.886 7.40386 -1.52856 0
M  V30 779 H 71.154 7.78463 -0.401999 0
M  V30 780 N 75.3831 0.828654 1.34056 0
M  V30 781 C 76.6131 0.431993 2.02033 0
M  V30 782 C 77.0211 -0.96844 1.62536 0
M  V30 783 O 76.3641 -1.6391 0.829408 0
M  V30 784 C 76.4261 0.461224 3.56529 0
M  V30 785 C 76.0901 1.81599 4.1937 0
M  V30 786 C 77.0871 2.7777 4.39477 0
M  V30 787 C 74.7721 2.10604 4.56017 0
M  V30 788 C 76.7661 4.01115 4.95364 0
M  V30 789 C 74.4531 3.34207 5.11614 0
M  V30 790 C 75.4511 4.2928 5.31232 0
M  V30 791 O 75.1391 5.50699 5.8565 0
M  V30 792 H 74.8711 0.170943 0.654029 0
M  V30 793 H 77.4251 1.11988 1.72185 0
M  V30 794 H 75.6551 -0.283388 3.8566 0
M  V30 795 H 77.3441 0.0838149 4.05813 0
M  V30 796 H 78.1101 2.56659 4.11523 0
M  V30 797 H 73.9891 1.37402 4.40047 0
M  V30 798 H 77.5331 4.75333 5.10592 0
M  V30 799 H 73.4301 3.55179 5.38997 0
M  V30 800 H 74.1981 5.52298 6.04077 0
M  V30 801 N 76.8612 -1.46375 0.584142 0
M  V30 802 C 78.0912 -2.06461 0.0758195 0
M  V30 803 C 78.4992 -1.43322 -1.23512 0
M  V30 804 O 77.8422 -0.533216 -1.75791 0
M  V30 805 C 77.9042 -3.59131 -0.162773 0
M  V30 806 C 77.5682 -4.4447 1.06279 0
M  V30 807 C 78.5652 -4.80918 1.97519 0
M  V30 808 C 76.2502 -4.85584 1.28504 0
M  V30 809 C 78.2442 -5.57309 3.09331 0
M  V30 810 C 75.9312 -5.61734 2.4062 0
M  V30 811 C 76.9292 -5.9751 3.30863 0
M  V30 812 O 76.6172 -6.72121 4.41032 0
M  V30 813 H 76.3492 -0.673745 0.0551725 0
M  V30 814 H 78.9032 -1.88969 0.804984 0
M  V30 815 H 77.1332 -3.74936 -0.946565 0
M  V30 816 H 78.8222 -4.0114 -0.619782 0
M  V30 817 H 79.5882 -4.49732 1.81565 0
M  V30 818 H 75.4672 -4.57187 0.591702 0
M  V30 819 H 79.0112 -5.85152 3.79793 0
M  V30 820 H 74.9082 -5.92334 2.56537 0
M  V30 821 H 75.6762 -6.90547 4.39417 0
M  V30 822 N 78.3393 -0.321999 -1.54275 0
M  V30 823 C 79.2493 0.553631 -2.27974 0
M  V30 824 C 80.2653 1.13054 -1.32268 0
M  V30 825 O 81.4413 1.15084 -1.6528 0
M  V30 826 C 78.5063 1.69927 -3.02201 0
M  V30 827 C 77.5673 1.15433 -4.1349 0
M  V30 828 C 76.8003 2.24537 -4.84168 0
M  V30 829 O 77.0233 3.44852 -4.5435 0
M  V30 830 O 75.9573 1.90044 -5.7111 0
M  V30 831 H 79.7833 -0.0448345 -3.03667 0
M  V30 832 H 77.3683 -0.0877418 -1.49142 0
M  V30 833 H 79.2503 2.3663 -3.48689 0
M  V30 834 H 77.9253 2.28395 -2.29385 0
M  V30 835 H 76.8323 0.452436 -3.71354 0
M  V30 836 H 78.1653 0.614805 -4.88345 0
M  V30 837 N 79.8174 1.5752 -0.0501392 0
M  V30 838 C 80.7654 2.12651 0.942459 0
M  V30 839 C 81.7594 1.05807 1.32292 0
M  V30 840 O 82.9654 1.24217 1.3027 0
M  V30 841 H 79.3404 0.679673 0.321789 0
M  V30 842 H 81.3114 2.94951 0.452356 0
M  V30 843 C 80.0604 2.68565 2.20836 0
M  V30 844 H 79.3834 3.50439 1.92439 0
M  V30 845 H 80.8234 3.10761 2.8845 0
M  V30 846 C 79.2824 1.62291 2.95234 0
M  V30 847 O 79.8124 1.03508 3.88135 0
M  V30 848 N 78.0184 1.33836 2.57946 0
M  V30 849 H 77.5654 1.81826 1.82475 0
M  V30 850 H 77.5234 0.629595 3.08032 0
M  V30 851 N 81.2955 -0.223234 1.56011 0
M  V30 852 C 82.5355 -0.954962 1.8072 0
M  V30 853 C 82.8995 -1.81598 0.623384 0
M  V30 854 O 84.1005 -2.58132 0.749745 0
M  V30 855 C 82.3715 -1.77313 3.10314 0
M  V30 856 S 83.9305 -2.56073 3.56332 0
M  V30 857 H 80.7485 -0.320812 0.634508 0
M  V30 858 H 83.3505 -0.220686 1.9425 0
M  V30 859 H 82.0545 -1.13071 3.94516 0
M  V30 860 H 81.5855 -2.54974 2.99586 0
M  V30 861 H 83.6005 -3.79619 3.19536 0
M  V30 862 N 82.7736 -1.49793 -0.48987 0
M  V30 863 C 83.6836 -1.70036 -1.61632 0
M  V30 864 C 84.6996 -0.583102 -1.63939 0
M  V30 865 O 85.8756 -0.859169 -1.82154 0
M  V30 866 C 82.9406 -1.77277 -2.97949 0
M  V30 867 C 82.0016 -3.00918 -3.06181 0
M  V30 868 C 81.2346 -3.07804 -4.35996 0
M  V30 869 O 81.4576 -2.21982 -5.25433 0
M  V30 870 O 80.3916 -4.00369 -4.49431 0
M  V30 871 H 84.2176 -2.65486 -1.47482 0
M  V30 872 H 81.8026 -1.33666 -0.667362 0
M  V30 873 H 83.6846 -1.84329 -3.78947 0
M  V30 874 H 82.3596 -0.850076 -3.12339 0
M  V30 875 H 81.2666 -2.99377 -2.2433 0
M  V30 876 H 82.5996 -3.92704 -2.96723 0
M  V30 877 N 84.2517 0.741722 -1.39055 0
M  V30 878 C 85.4977 1.50336 -1.36113 0
M  V30 879 C 85.8307 1.94148 0.0450796 0
M  V30 880 O 85.1057 1.66301 1.00868 0
M  V30 881 C 85.3887 2.74773 -2.32749 0
M  V30 882 C 85.2417 2.37023 -3.82283 0
M  V30 883 C 86.5607 3.76846 -2.27322 0
M  V30 884 H 83.6797 0.545351 -0.495743 0
M  V30 885 H 86.3217 0.848624 -1.69995 0
M  V30 886 H 84.4717 3.30639 -2.03986 0
M  V30 887 H 86.1437 1.8684 -4.21768 0
M  V30 888 H 84.3867 1.69334 -3.99385 0
M  V30 889 H 85.0577 3.26104 -4.45376 0
M  V30 890 H 87.5337 3.30548 -2.5274 0
M  V30 891 H 86.4097 4.6159 -2.97028 0
M  V30 892 H 86.6707 4.23286 -1.27599 0
M  V30 893 N 85.7298 1.2412 0.971189 0
M  V30 894 C 86.9758 1.08041 1.71625 0
M  V30 895 C 87.3088 -0.380407 1.90438 0
M  V30 896 O 86.5838 -1.28127 1.46334 0
M  V30 897 C 86.8668 1.81682 3.10908 0
M  V30 898 C 86.7198 3.35493 2.99608 0
M  V30 899 C 88.0388 1.58671 4.10501 0
M  V30 900 H 85.1578 0.39388 0.622919 0
M  V30 901 H 87.7998 1.52743 1.13003 0
M  V30 902 H 85.9498 1.43684 3.60953 0
M  V30 903 H 87.6218 3.83068 2.57015 0
M  V30 904 H 85.8648 3.64052 2.35899 0
M  V30 905 H 86.5358 3.82217 3.98264 0
M  V30 906 H 89.0118 1.91719 3.69301 0
M  V30 907 H 87.8878 2.1266 5.06031 0
M  V30 908 H 88.1488 0.524161 4.38982 0
M  V30 909 N 87.2079 -1.17134 1.05439 0
M  V30 910 C 88.1409 -2.2012 0.601855 0
M  V30 911 C 89.1189 -1.58314 -0.370854 0
M  V30 912 O 90.3029 -1.8638 -0.281882 0
M  V30 913 C 87.4299 -3.38491 -0.118868 0
M  V30 914 C 86.4759 -4.18752 0.809242 0
M  V30 915 S 87.3089 -4.83602 2.29977 0
M  V30 916 C 88.4649 -6.0536 1.59029 0
M  V30 917 H 88.6979 -2.58165 1.47438 0
M  V30 918 H 86.2309 -1.27788 0.866573 0
M  V30 919 H 88.1889 -4.07084 -0.528495 0
M  V30 920 H 86.8499 -2.98829 -0.967465 0
M  V30 921 H 86.0429 -5.03373 0.251379 0
M  V30 922 H 85.6449 -3.5561 1.15835 0
M  V30 923 H 87.9369 -6.71615 0.891017 0
M  V30 924 H 88.8799 -6.65679 2.41407 0
M  V30 925 H 89.2879 -5.54138 1.07663 0
M  V30 926 N 88.686 -0.835752 -1.33615 0
M  V30 927 C 89.934 -0.429109 -1.97492 0
M  V30 928 C 90.255 1.01433 -1.66543 0
M  V30 929 O 89.525 1.70611 -0.962744 0
M  V30 930 H 88.105 -0.155686 -0.730596 0
M  V30 931 H 90.767 -1.06802 -1.63031 0
M  V30 932 H 89.863 -0.55861 -3.0706 0
M  V30 933 N 90.1641 1.46063 -0.591896 0
M  V30 934 C 91.1121 2.32124 0.148739 0
M  V30 935 C 92.1061 1.45035 0.875286 0
M  V30 936 O 93.3121 1.61609 0.792632 0
M  V30 937 H 89.6871 0.749024 0.066832 0
M  V30 938 H 91.6581 2.92392 -0.595783 0
M  V30 939 C 90.4071 3.28373 1.1431 0
M  V30 940 H 89.7301 3.95371 0.59346 0
M  V30 941 H 91.1701 3.91352 1.63155 0
M  V30 942 C 89.6291 2.54393 2.20875 0
M  V30 943 O 90.1591 2.31373 3.28374 0
M  V30 944 N 88.3651 2.14797 1.95731 0
M  V30 945 H 87.9121 2.33719 1.08319 0
M  V30 946 H 87.8701 1.65619 2.67241 0
M  V30 947 N 91.6422 0.330177 1.54103 0
M  V30 948 C 92.5722 -0.525353 2.27513 0
M  V30 949 C 93.5532 -1.11383 1.2856 0
M  V30 950 O 94.7382 -1.13773 1.57383 0
M  V30 951 C 91.8682 -1.6831 3.03791 0
M  V30 952 C 90.8222 -1.2236 4.10137 0
M  V30 953 C 90.1482 -2.46882 4.74293 0
M  V30 954 C 91.4482 -0.333697 5.21233 0
M  V30 955 H 93.1422 0.087013 2.99274 0
M  V30 956 H 90.6882 0.0432893 1.43935 0
M  V30 957 H 92.6412 -2.28795 3.5388 0
M  V30 958 H 91.3652 -2.32216 2.29659 0
M  V30 959 H 90.0242 -0.64165 3.60941 0
M  V30 960 H 89.6722 -3.09165 3.96769 0
M  V30 961 H 89.3722 -2.16825 5.46133 0
M  V30 962 H 90.8962 -3.08117 5.27159 0
M  V30 963 H 92.3102 -0.845013 5.67038 0
M  V30 964 H 90.7072 -0.125612 5.99969 0
M  V30 965 H 91.7772 0.633724 4.80741 0
M  V30 966 N 93.1203 -1.57491 0.0584922 0
M  V30 967 C 94.0303 -2.15448 -0.928414 0
M  V30 968 C 95.0463 -1.11416 -1.3365 0
M  V30 969 O 96.2223 -1.4362 -1.41193 0
M  V30 970 C 93.2873 -2.69393 -2.18239 0
M  V30 971 C 92.3483 -3.88249 -1.83196 0
M  V30 972 C 91.5813 -4.39613 -3.02616 0
M  V30 973 O 91.8043 -3.90023 -4.16219 0
M  V30 974 O 90.7383 -5.31111 -2.83204 0
M  V30 975 H 94.5643 -3.00112 -0.465483 0
M  V30 976 H 92.1493 -1.48499 -0.163826 0
M  V30 977 H 94.0313 -3.04026 -2.91798 0
M  V30 978 H 92.7063 -1.87796 -2.63656 0
M  V30 979 H 91.6133 -3.58492 -1.06931 0
M  V30 980 H 92.9463 -4.71098 -1.42573 0
M  V30 981 N 94.5984 0.214957 -1.56127 0
M  V30 982 C 95.8474 0.936451 -1.78643 0
M  V30 983 C 96.1604 1.85237 -0.628229 0
M  V30 984 O 97.3664 2.613 -0.737186 0
M  V30 985 C 95.8224 1.7154 -3.16389 0
M  V30 986 C 95.4304 0.845299 -4.39953 0
M  V30 987 C 97.1744 2.42772 -3.48227 0
M  V30 988 C 95.0814 1.62198 -5.68723 0
M  V30 989 H 94.0114 0.353401 -0.666051 0
M  V30 990 H 96.6624 0.190169 -1.82512 0
M  V30 991 H 95.0444 2.50484 -3.06715 0
M  V30 992 H 96.2184 0.0959353 -4.607 0
M  V30 993 H 94.5334 0.244789 -4.1568 0
M  V30 994 H 97.1304 3.01394 -4.41663 0
M  V30 995 H 97.4734 3.15984 -2.71035 0
M  V30 996 H 98.0064 1.70813 -3.5926 0
M  V30 997 H 94.7454 0.933011 -6.48826 0
M  V30 998 H 94.2654 2.34579 -5.52026 0
M  V30 999 H 95.9444 2.18095 -6.09133 0
M  V30 1000 N 96.0765 1.50051 0.48192 0
M  V30 1001 C 97.3045 1.64237 1.25832 0
M  V30 1002 C 97.7195 0.321336 1.86045 0
M  V30 1003 O 97.0765 -0.695478 1.68729 0
M  V30 1004 C 97.1275 2.72548 2.37487 0
M  V30 1005 O 96.8485 3.99529 1.79745 0
M  V30 1006 C 98.3495 2.9761 3.28547 0
M  V30 1007 H 95.5695 0.55237 0.380957 0
M  V30 1008 H 98.1135 1.96207 0.576467 0
M  V30 1009 H 96.2685 2.43303 3.01467 0
M  V30 1010 H 96.6825 4.59342 2.5319 0
M  V30 1011 H 98.1565 3.77084 4.03127 0
M  V30 1012 H 98.6335 2.0826 3.86684 0
M  V30 1013 H 99.2395 3.28345 2.70314 0
M  V30 1014 N 97.5546 -0.734337 1.39446 0
M  V30 1015 C 98.7796 -1.52866 1.40167 0
M  V30 1016 C 99.2046 -1.881 -0.00171513 0
M  V30 1017 O 98.5626 -1.51957 -0.988879 0
M  V30 1018 C 98.6106 -2.79235 2.28167 0
M  V30 1019 O 97.7146 -3.75185 1.71201 0
M  V30 1020 H 97.0556 -0.461618 0.477289 0
M  V30 1021 H 99.5856 -0.905949 1.8345 0
M  V30 1022 H 99.5956 -3.27963 2.42702 0
M  V30 1023 H 98.2706 -2.52923 3.30156 0
M  V30 1024 H 96.8476 -3.33958 1.65912 0
M  V30 1025 N 99.0327 -1.24633 -0.964593 0
M  V30 1026 C 100.282 -1.08188 -1.7023 0
M  V30 1027 C 100.595 0.37873 -1.91898 0
M  V30 1028 O 101.801 0.663427 -2.6327 0
M  V30 1029 C 100.257 -1.88773 -3.06419 0
M  V30 1030 C 99.8647 -3.39263 -2.92582 0
M  V30 1031 C 101.609 -1.80867 -3.84041 0
M  V30 1032 C 99.5157 -4.1218 -4.24101 0
M  V30 1033 H 98.4457 -0.401245 -0.638372 0
M  V30 1034 H 101.097 -1.48742 -1.07462 0
M  V30 1035 H 99.4787 -1.41035 -3.70034 0
M  V30 1036 H 100.653 -3.94603 -2.37961 0
M  V30 1037 H 98.9677 -3.48154 -2.28424 0
M  V30 1038 H 101.565 -2.32646 -4.81435 0
M  V30 1039 H 101.908 -0.774543 -4.09031 0
M  V30 1040 H 102.441 -2.26301 -3.27159 0
M  V30 1041 H 99.1797 -5.15965 -4.04303 0
M  V30 1042 H 98.6997 -3.61626 -4.78526 0
M  V30 1043 H 100.379 -4.19349 -4.92702 0
M  V30 1044 N 100.511 1.16574 -1.06058 0
M  V30 1045 C 101.421 2.2452 -0.680282 0
M  V30 1046 C 102.437 1.71348 0.302604 0
M  V30 1047 O 103.613 2.00822 0.152513 0
M  V30 1048 C 100.678 3.46629 -0.0700315 0
M  V30 1049 C 99.7388 4.14849 -1.10448 0
M  V30 1050 C 98.9718 5.31129 -0.523256 0
M  V30 1051 O 99.1948 5.66514 0.664709 0
M  V30 1052 O 98.1288 5.88526 -1.26179 0
M  V30 1053 H 101.955 2.59355 -1.58015 0
M  V30 1054 H 99.5398 1.24043 -0.832694 0
M  V30 1055 H 101.422 4.20543 0.268667 0
M  V30 1056 H 100.097 3.13573 0.803353 0
M  V30 1057 H 99.0038 3.42916 -1.49532 0
M  V30 1058 H 100.337 4.51954 -1.94931 0
M  V30 1059 N 101.989 0.842826 1.3317 0
M  V30 1060 C 102.939 0.250877 2.26616 0
M  V30 1061 C 103.923 -0.596427 1.49437 0
M  V30 1062 O 105.115 -0.447747 1.71243 0
M  V30 1063 C 102.244 -0.569779 3.38539 0
M  V30 1064 C 101.33 0.289254 4.23112 0
M  V30 1065 N 101.721 1.36987 4.86897 0
M  V30 1066 C 100.019 0.0769631 4.45934 0
M  V30 1067 C 100.72 1.89737 5.49886 0
M  V30 1068 N 99.6959 1.19827 5.30229 0
M  V30 1069 H 103.498 1.07718 2.73448 0
M  V30 1070 H 101.012 0.687693 1.47121 0
M  V30 1071 H 103.009 -1.01018 4.04476 0
M  V30 1072 H 101.669 -1.39401 2.93253 0
M  V30 1073 H 102.68 1.75277 4.87338 0
M  V30 1074 H 99.3569 -0.713507 4.11358 0
M  V30 1075 H 100.747 2.80253 6.10662 0
M  V30 1076 N 103.467 -1.45747 0.599634 0
M  V30 1077 C 104.415 -2.322 -0.136426 0
M  V30 1078 C 105.409 -1.45497 -0.867583 0
M  V30 1079 O 106.615 -1.62027 -0.78405 0
M  V30 1080 H 102.99 -0.749368 -0.0628588 0
M  V30 1081 H 104.961 -2.92072 0.611281 0
M  V30 1082 C 103.71 -3.28974 -1.12567 0
M  V30 1083 H 103.033 -3.9568 -0.572484 0
M  V30 1084 H 104.473 -3.92212 -1.61077 0
M  V30 1085 C 102.932 -2.55561 -2.19523 0
M  V30 1086 O 103.462 -2.33111 -3.27143 0
M  V30 1087 N 101.668 -2.15832 -1.94589 0
M  V30 1088 H 101.215 -2.3429 -1.07078 0
M  V30 1089 H 101.173 -1.67034 -2.66359 0
M  V30 1090 N 104.945 -0.338344 -1.53925 0
M  V30 1091 C 106.361 0.0137736 -1.59594 0
M  V30 1092 C 106.561 1.49186 -1.35447 0
M  V30 1093 O 105.617 2.24987 -1.14616 0
M  V30 1094 C 106.93 -0.41773 -2.97784 0
M  V30 1095 C 108.478 -0.369633 -3.1081 0
M  V30 1096 C 108.953 -0.776524 -4.51369 0
M  V30 1097 N 110.444 -0.730506 -4.57403 0
M  V30 1098 C 111.179 -1.01736 -5.64303 0
M  V30 1099 N 110.675 -1.3721 -6.79077 0
M  V30 1100 N 112.468 -0.941942 -5.54151 0
M  V30 1101 H 104.619 -1.3012 -1.67876 0
M  V30 1102 H 106.882 -0.530082 -0.78595 0
M  V30 1103 H 106.588 -1.44811 -3.20504 0
M  V30 1104 H 106.462 0.209729 -3.76616 0
M  V30 1105 H 108.849 0.651568 -2.87817 0
M  V30 1106 H 108.93 -1.03223 -2.34049 0
M  V30 1107 H 108.574 -1.79571 -4.75096 0
M  V30 1108 H 108.504 -0.0914649 -5.26521 0
M  V30 1109 H 110.995 -0.468783 -3.74981 0
M  V30 1110 H 111.308 -1.57597 -7.5656 0
M  V30 1111 H 109.653 -1.4105 -6.80536 0
M  V30 1112 H 112.844 -0.664184 -4.63364 0
M  V30 1113 H 113.017 -1.16884 -6.37371 0
M  V30 1114 N 106.423 1.57458 -0.0668435 0
M  V30 1115 C 107.7 1.8469 0.644132 0
M  V30 1116 C 108.08 0.958343 1.88093 0
M  V30 1117 O 107.428 0.0233579 2.28488 0
M  V30 1118 C 107.638 3.34767 0.986509 0
M  V30 1119 C 108.986 4.02159 1.36212 0
M  V30 1120 O 110.01 3.39484 1.07839 0
M  V30 1121 O 108.869 5.12694 1.89227 0
M  V30 1122 H 105.963 0.762816 0.319437 0
M  V30 1123 H 108.509 1.6942 -0.0973986 0
M  V30 1124 H 107.281 3.91151 0.107883 0
M  V30 1125 H 106.904 3.55281 1.78497 0
M  V30 1126 N 107.901 -0.206675 1.56239 0
M  V30 1127 C 108.831 -1.25909 1.96645 0
M  V30 1128 C 109.812 -1.48097 0.836734 0
M  V30 1129 O 110.997 -1.6003 1.10019 0
M  V30 1130 C 108.127 -2.6058 2.29599 0
M  V30 1131 C 107.081 -2.53024 3.452 0
M  V30 1132 C 106.407 -3.91861 3.63798 0
M  V30 1133 C 107.707 -2.06524 4.79734 0
M  V30 1134 H 109.401 -0.923369 2.84806 0
M  V30 1135 H 106.947 -0.442735 1.37025 0
M  V30 1136 H 108.9 -3.34375 2.56459 0
M  V30 1137 H 107.624 -2.95869 1.38307 0
M  V30 1138 H 106.283 -1.81684 3.18412 0
M  V30 1139 H 105.931 -4.24483 2.69857 0
M  V30 1140 H 105.631 -3.87683 4.4156 0
M  V30 1141 H 107.155 -4.67296 3.93022 0
M  V30 1142 H 108.569 -2.70072 5.05702 0
M  V30 1143 H 106.966 -2.13374 5.60885 0
M  V30 1144 H 108.036 -1.01802 4.74093 0
M  V30 1145 N 109.379 -1.50304 -0.473955 0
M  V30 1146 C 110.604 -1.65175 -1.25427 0
M  V30 1147 C 111.029 -0.333673 -1.85117 0
M  V30 1148 O 110.387 0.702114 -1.67153 0
M  V30 1149 C 110.435 -2.74295 -2.34082 0
M  V30 1150 O 109.539 -2.35349 -3.38651 0
M  V30 1151 H 108.88 -0.551944 -0.369126 0
M  V30 1152 H 111.41 -1.96662 -0.564364 0
M  V30 1153 H 111.42 -2.97285 -2.79438 0
M  V30 1154 H 110.095 -3.69959 -1.90008 0
M  V30 1155 H 108.672 -2.22794 -2.99027 0
M  V30 1156 N 110.857 0.726932 -1.39834 0
M  V30 1157 C 112.104 1.48664 -1.37496 0
M  V30 1158 C 112.432 1.94482 0.0264678 0
M  V30 1159 O 111.687 1.67692 1.00886 0
M  V30 1160 C 111.986 2.73495 -2.30077 0
M  V30 1161 C 111.652 2.46502 -3.77555 0
M  V30 1162 C 110.314 2.3885 -4.17737 0
M  V30 1163 C 112.666 2.23604 -4.70798 0
M  V30 1164 C 109.994 2.06352 -5.49214 0
M  V30 1165 C 112.346 1.92622 -6.02561 0
M  V30 1166 C 111.01 1.83444 -6.41798 0
M  V30 1167 H 110.28 0.544001 -0.503135 0
M  V30 1168 H 112.927 0.833657 -1.72402 0
M  V30 1169 H 111.232 3.43575 -1.88317 0
M  V30 1170 H 112.929 3.31549 -2.25558 0
M  V30 1171 H 109.519 2.5334 -3.45712 0
M  V30 1172 H 113.703 2.28479 -4.40581 0
M  V30 1173 H 108.959 1.97776 -5.78528 0
M  V30 1174 H 113.133 1.73914 -6.74334 0
M  V30 1175 H 110.76 1.58029 -7.43593 0
M  V30 1176 N 112.336 1.25143 0.95797 0
M  V30 1177 C 113.266 1.07711 2.07173 0
M  V30 1178 C 114.247 -0.0128462 1.70095 0
M  V30 1179 O 115.432 0.156061 1.93572 0
M  V30 1180 C 112.562 0.691503 3.40346 0
M  V30 1181 C 111.516 1.73132 3.9142 0
M  V30 1182 C 110.842 1.20049 5.21049 0
M  V30 1183 C 112.142 3.1294 4.1817 0
M  V30 1184 H 113.836 2.00873 2.22014 0
M  V30 1185 H 111.382 0.967191 1.06684 0
M  V30 1186 H 113.335 0.556505 4.17709 0
M  V30 1187 H 112.059 -0.275819 3.25433 0
M  V30 1188 H 110.718 1.8547 3.16222 0
M  V30 1189 H 110.366 0.223499 5.02503 0
M  V30 1190 H 110.066 1.89545 5.56189 0
M  V30 1191 H 111.59 1.07782 6.01012 0
M  V30 1192 H 113.004 3.03775 4.86203 0
M  V30 1193 H 111.401 3.79875 4.64559 0
M  V30 1194 H 112.471 3.6025 3.24573 0
M  V30 1195 N 113.814 -1.1601 1.06675 0
M  V30 1196 C 115.23 -1.38622 0.790948 0
M  V30 1197 C 115.43 -1.92109 -0.607965 0
M  V30 1198 O 114.486 -2.12239 -1.36787 0
M  V30 1199 C 115.799 -2.36347 1.85905 0
M  V30 1200 C 117.347 -2.50023 1.88301 0
M  V30 1201 C 117.822 -3.51033 2.94176 0
M  V30 1202 N 119.313 -3.58563 2.93235 0
M  V30 1203 C 120.048 -4.36521 3.71803 0
M  V30 1204 N 119.544 -5.17869 4.602 0
M  V30 1205 N 121.337 -4.31541 3.60178 0
M  V30 1206 H 113.488 -0.796294 1.96908 0
M  V30 1207 H 115.751 -0.412597 0.853503 0
M  V30 1208 H 115.457 -2.04147 2.86386 0
M  V30 1209 H 115.331 -3.36042 1.71334 0
M  V30 1210 H 117.718 -2.81524 0.884769 0
M  V30 1211 H 117.799 -1.5035 2.06951 0
M  V30 1212 H 117.443 -3.20268 3.94196 0
M  V30 1213 H 117.373 -4.50445 2.72776 0
M  V30 1214 H 119.864 -3.00496 2.29152 0
M  V30 1215 H 120.177 -5.74578 5.16797 0
M  V30 1216 H 118.522 -5.17199 4.64253 0
M  V30 1217 H 121.713 -3.67051 2.90502 0
M  V30 1218 H 121.886 -4.9205 4.21653 0
M  V30 1219 N 115.292 -0.849877 -1.32721 0
M  V30 1220 C 116.517 -0.463856 -2.02146 0
M  V30 1221 C 116.942 0.930449 -1.63476 0
M  V30 1222 O 116.3 1.61033 -0.832952 0
M  V30 1223 C 116.348 -0.604955 -3.55489 0
M  V30 1224 O 115.452 0.36425 -4.10788 0
M  V30 1225 H 114.793 -0.187046 -0.637111 0
M  V30 1226 H 117.323 -1.14775 -1.69375 0
M  V30 1227 H 117.333 -0.490696 -4.05038 0
M  V30 1228 H 116.008 -1.62174 -3.82978 0
M  V30 1229 H 114.585 0.206628 -3.72327 0
M  V30 1230 N 116.77 1.45427 -0.607355 0
M  V30 1231 C 118.016 2.0254 -0.102607 0
M  V30 1232 C 118.349 1.47478 1.26348 0
M  V30 1233 O 117.624 0.64939 1.83339 0
M  V30 1234 C 117.907 3.60044 -0.0634347 0
M  V30 1235 C 117.76 4.2544 -1.46017 0
M  V30 1236 C 119.079 4.35646 0.624514 0
M  V30 1237 H 116.198 0.73598 -0.0387607 0
M  V30 1238 H 118.84 1.73284 -0.779282 0
M  V30 1239 H 116.99 3.85101 0.512808 0
M  V30 1240 H 118.662 4.11569 -2.08347 0
M  V30 1241 H 116.905 3.83849 -2.02094 0
M  V30 1242 H 117.576 5.34342 -1.385 0
M  V30 1243 H 120.052 4.15882 0.134723 0
M  V30 1244 H 118.928 5.45376 0.621028 0
M  V30 1245 H 119.189 4.08501 1.69055 0
M  V30 1246 N 118.248 0.346503 1.53744 0
M  V30 1247 C 119.664 -0.00530975 1.59599 0
M  V30 1248 C 119.864 -1.48465 1.36236 0
M  V30 1249 O 118.92 -2.24376 1.15808 0
M  V30 1250 C 120.233 0.433516 2.97559 0
M  V30 1251 C 121.781 0.386111 3.10609 0
M  V30 1252 C 122.256 0.800451 4.50951 0
M  V30 1253 N 123.747 0.754753 4.5701 0
M  V30 1254 C 124.482 1.04727 5.63755 0
M  V30 1255 N 123.978 1.4081 6.7834 0
M  V30 1256 N 125.771 0.971316 5.53644 0
M  V30 1257 H 117.922 1.31009 1.67184 0
M  V30 1258 H 120.185 0.534242 0.783128 0
M  V30 1259 H 119.891 1.46509 3.19731 0
M  V30 1260 H 119.765 -0.189753 3.76722 0
M  V30 1261 H 122.152 -0.636295 2.88158 0
M  V30 1262 H 122.233 1.04462 2.33498 0
M  V30 1263 H 121.877 1.82088 4.74137 0
M  V30 1264 H 121.807 0.119386 5.26465 0
M  V30 1265 H 124.298 0.488662 3.74727 0
M  V30 1266 H 124.611 1.61607 7.55714 0
M  V30 1267 H 122.956 1.44657 6.79779 0
M  V30 1268 H 126.147 0.688748 4.63005 0
M  V30 1269 H 126.32 1.20263 6.36742 0
M  V30 1270 N 119.726 -1.57421 0.075193 0
M  V30 1271 C 120.636 -2.1642 -0.905511 0
M  V30 1272 C 121.652 -1.12828 -1.32461 0
M  V30 1273 O 122.828 -1.45109 -1.39661 0
M  V30 1274 C 119.893 -2.71693 -2.15369 0
M  V30 1275 C 118.954 -3.90171 -1.79068 0
M  V30 1276 C 118.187 -4.42798 -2.97936 0
M  V30 1277 O 118.41 -3.94416 -4.12058 0
M  V30 1278 O 117.344 -5.34085 -2.77555 0
M  V30 1279 H 121.17 -3.00588 -0.433626 0
M  V30 1280 H 118.755 -1.48664 -0.148067 0
M  V30 1281 H 120.637 -3.07104 -2.88557 0
M  V30 1282 H 119.312 -1.90582 -2.61649 0
M  V30 1283 H 118.219 -3.59606 -1.03122 0
M  V30 1284 H 119.552 -4.72584 -1.37569 0
M  V30 1285 N 121.204 0.198386 -1.56346 0
M  V30 1286 C 122.45 0.920648 -1.80698 0
M  V30 1287 C 122.783 1.83045 -0.648697 0
M  V30 1288 O 122.058 1.91308 0.350925 0
M  V30 1289 C 122.341 1.73971 -3.15287 0
M  V30 1290 C 122.194 0.85485 -4.41602 0
M  V30 1291 C 123.513 2.71296 -3.46535 0
M  V30 1292 H 120.632 0.333261 -0.657348 0
M  V30 1293 H 123.274 0.188198 -1.89066 0
M  V30 1294 H 121.424 2.36416 -3.08285 0
M  V30 1295 H 123.096 0.245362 -4.60647 0
M  V30 1296 H 121.339 0.161398 -4.335 0
M  V30 1297 H 122.01 1.46286 -5.32264 0
M  V30 1298 H 124.486 2.18983 -3.53816 0
M  V30 1299 H 123.362 3.2569 -4.41834 0
M  V30 1300 H 123.623 3.5018 -2.69864 0
M  V30 1301 N 122.682 1.50554 0.465978 0
M  V30 1302 C 123.91 1.65563 1.24083 0
M  V30 1303 C 124.325 0.341051 1.85694 0
M  V30 1304 O 123.682 -0.677543 1.69457 0
M  V30 1305 C 123.733 2.75051 2.34583 0
M  V30 1306 O 123.454 4.01413 1.75497 0
M  V30 1307 C 124.955 3.01078 3.25372 0
M  V30 1308 H 122.175 0.55638 0.375077 0
M  V30 1309 H 124.719 1.96807 0.555624 0
M  V30 1310 H 122.874 2.46486 2.9887 0
M  V30 1311 H 123.288 4.62002 2.48303 0
M  V30 1312 H 124.762 3.81339 3.99105 0
M  V30 1313 H 125.239 2.12349 3.84453 0
M  V30 1314 H 125.845 3.31194 2.66816 0
M  V30 1315 N 124.16 -0.719506 1.40217 0
M  V30 1316 C 125.408 -1.47641 1.3801 0
M  V30 1317 C 125.729 -1.94992 -0.018145 0
M  V30 1318 O 124.999 -1.70073 -0.972207 0
M  V30 1319 H 123.579 -0.547744 0.507923 0
M  V30 1320 H 126.241 -0.853187 1.75233 0
M  V30 1321 H 125.337 -2.35112 2.05253 0
M  V30 1322 N 125.638 -1.25649 -0.95132 0
M  V30 1323 C 126.868 -1.13179 -1.72841 0
M  V30 1324 C 127.276 0.316827 -1.86528 0
M  V30 1325 O 126.619 1.22948 -1.3649 0
M  V30 1326 C 126.681 -1.71644 -3.15878 0
M  V30 1327 C 126.345 -3.20667 -3.25609 0
M  V30 1328 C 127.342 -4.17616 -3.09666 0
M  V30 1329 C 125.027 -3.6094 -3.49324 0
M  V30 1330 C 127.021 -5.52817 -3.17289 0
M  V30 1331 C 124.708 -4.96278 -3.56584 0
M  V30 1332 C 125.706 -5.92025 -3.40581 0
M  V30 1333 O 125.394 -7.24899 -3.47528 0
M  V30 1334 H 125.126 -0.395389 -0.54831 0
M  V30 1335 H 127.68 -1.66566 -1.20187 0
M  V30 1336 H 125.91 -1.12707 -3.69911 0
M  V30 1337 H 127.599 -1.54225 -3.75459 0
M  V30 1338 H 128.365 -3.87842 -2.91211 0
M  V30 1339 H 124.244 -2.86907 -3.6084 0
M  V30 1340 H 127.788 -6.2753 -3.04716 0
M  V30 1341 H 123.685 -5.25716 -3.74556 0
M  V30 1342 H 124.453 -7.33039 -3.64138 0
M  V30 1343 N 127.117 1.15442 -1.07289 0
M  V30 1344 C 128.363 1.86489 -0.796846 0
M  V30 1345 C 128.696 1.82078 0.675371 0
M  V30 1346 O 127.971 1.24346 1.4956 0
M  V30 1347 C 128.254 3.35626 -1.30489 0
M  V30 1348 C 128.107 3.48673 -2.84161 0
M  V30 1349 C 129.426 4.30357 -0.920907 0
M  V30 1350 H 126.545 0.677144 -0.290939 0
M  V30 1351 H 129.187 1.35633 -1.33056 0
M  V30 1352 H 127.337 3.79068 -0.850883 0
M  V30 1353 H 129.009 3.14099 -3.37846 0
M  V30 1354 H 127.252 2.90253 -3.22391 0
M  V30 1355 H 127.923 4.53453 -3.14777 0
M  V30 1356 H 130.399 3.94871 -1.3121 0
M  V30 1357 H 129.275 5.33193 -1.30372 0
M  V30 1358 H 129.536 4.4176 0.173226 0
M  V30 1359 N 128.595 0.856903 1.32268 0
M  V30 1360 C 129.525 0.31858 2.31316 0
M  V30 1361 C 130.506 -0.583487 1.59779 0
M  V30 1362 O 131.691 -0.503259 1.87566 0
M  V30 1363 C 128.821 -0.491979 3.43798 0
M  V30 1364 C 127.775 0.315849 4.26833 0
M  V30 1365 C 127.101 -0.619586 5.31098 0
M  V30 1366 C 128.401 1.54282 4.98993 0
M  V30 1367 H 130.095 1.14621 2.76591 0
M  V30 1368 H 127.641 0.552613 1.32974 0
M  V30 1369 H 129.594 -0.879012 4.1213 0
M  V30 1370 H 128.318 -1.35299 2.97257 0
M  V30 1371 H 126.977 0.684664 3.6015 0
M  V30 1372 H 126.625 -1.47751 4.8081 0
M  V30 1373 H 126.325 -0.0830621 5.87541 0
M  V30 1374 H 127.849 -1.00375 6.02293 0
M  V30 1375 H 129.263 1.22796 5.59995 0
M  V30 1376 H 127.66 2.01745 5.65172 0
M  V30 1377 H 128.73 2.30285 4.26728 0
M  V30 1378 N 130.073 -1.45103 0.615059 0
M  V30 1379 C 131.319 -2.02483 0.113347 0
M  V30 1380 C 131.652 -1.48146 -1.25564 0
M  V30 1381 O 130.927 -0.659104 -1.82992 0
M  V30 1382 C 131.21 -3.60005 0.0825278 0
M  V30 1383 C 131.063 -4.2466 1.48271 0
M  V30 1384 C 132.382 -4.35972 -0.601401 0
M  V30 1385 H 129.501 -0.735764 0.0426632 0
M  V30 1386 H 132.143 -1.72868 0.788461 0
M  V30 1387 H 130.293 -3.85367 -0.492378 0
M  V30 1388 H 131.965 -4.10458 2.10527 0
M  V30 1389 H 130.208 -3.82772 2.04127 0
M  V30 1390 H 130.879 -5.336 1.41332 0
M  V30 1391 H 133.355 -4.15947 -0.112666 0
M  V30 1392 H 132.231 -5.45697 -0.592097 0
M  V30 1393 H 132.492 -4.09391 -1.66887 0
M  V30 1394 N 131.551 -0.354651 -1.53558 0
M  V30 1395 C 132.514 0.484566 -2.24019 0
M  V30 1396 C 133.514 1.01861 -1.24422 0
M  V30 1397 O 134.704 0.906097 -1.4878 0
M  V30 1398 C 131.836 1.67615 -2.96847 0
M  V30 1399 H 133.029 -0.131843 -2.9961 0
M  V30 1400 H 130.582 -0.106165 -1.55939 0
M  V30 1401 H 131.317 2.33095 -2.25471 0
M  V30 1402 H 131.102 1.30029 -3.69912 0
M  V30 1403 H 132.592 2.27114 -3.50441 0
M  V30 1404 N 133.029 1.57378 -0.0835403 0
M  V30 1405 C 133.959 2.1641 0.87686 0
M  V30 1406 C 134.94 1.09429 1.30228 0
M  V30 1407 O 136.125 1.37516 1.37124 0
M  V30 1408 C 133.255 2.73517 2.14022 0
M  V30 1409 C 132.209 3.85769 1.85381 0
M  V30 1410 C 131.535 4.29529 3.18448 0
M  V30 1411 C 132.835 5.09486 1.14984 0
M  V30 1412 H 134.529 2.96914 0.385059 0
M  V30 1413 H 132.075 1.42823 0.18377 0
M  V30 1414 H 134.028 3.13463 2.81636 0
M  V30 1415 H 132.752 1.90252 2.65465 0
M  V30 1416 H 131.411 3.46345 1.20169 0
M  V30 1417 H 131.059 3.43169 3.67755 0
M  V30 1418 H 130.759 5.05204 3.00071 0
M  V30 1419 H 132.283 4.72099 3.8724 0
M  V30 1420 H 133.697 5.46674 1.72687 0
M  V30 1421 H 132.094 5.90515 1.06826 0
M  V30 1422 H 133.164 4.84724 0.130749 0
M  V30 1423 N 134.507 -0.190092 1.56449 0
M  V30 1424 C 135.455 -1.25501 1.95837 0
M  V30 1425 C 136.449 -1.4685 0.844485 0
M  V30 1426 O 137.655 -1.47651 1.02952 0
M  V30 1427 H 134.03 -0.421447 0.622805 0
M  V30 1428 H 136.001 -0.895821 2.84636 0
M  V30 1429 C 134.75 -2.59124 2.31841 0
M  V30 1430 H 134.073 -2.43514 3.17082 0
M  V30 1431 H 135.513 -3.32371 2.6326 0
M  V30 1432 C 133.972 -3.16488 1.15486 0
M  V30 1433 O 134.502 -3.99365 0.432535 0
M  V30 1434 N 132.708 -2.75305 0.930349 0
M  V30 1435 H 132.255 -2.08013 1.51948 0
M  V30 1436 H 132.213 -3.14024 0.153634 0
M  V30 1437 N 135.985 -1.50799 -0.457987 0
M  V30 1438 C 136.917 -1.66786 -1.57211 0
M  V30 1439 C 137.93 -0.548962 -1.53265 0
M  V30 1440 O 139.119 -0.8226 -1.58416 0
M  V30 1441 C 136.219 -1.64834 -2.96113 0
M  V30 1442 C 135.392 -2.92971 -3.24787 0
M  V30 1443 C 134.451 -2.83485 -4.43309 0
M  V30 1444 O 133.477 -3.5744 -4.42973 0
M  V30 1445 N 134.679 -1.97929 -5.45714 0
M  V30 1446 H 137.444 -2.62889 -1.43909 0
M  V30 1447 H 135.005 -1.48427 -0.646617 0
M  V30 1448 H 136.997 -1.56084 -3.7339 0
M  V30 1449 H 135.567 -0.764118 -3.03117 0
M  V30 1450 H 134.787 -3.15749 -2.36 0
M  V30 1451 H 136.075 -3.77834 -3.40762 0
M  V30 1452 H 135.473 -1.37182 -5.48815 0
M  V30 1453 H 134.03 -1.95073 -6.21924 0
M  V30 1454 N 137.463 0.71206 -1.40597 0
M  V30 1455 C 138.71 1.47197 -1.39065 0
M  V30 1456 C 139.038 1.94499 0.00583891 0
M  V30 1457 O 138.293 1.68752 0.99102 0
M  V30 1458 C 138.592 2.71039 -2.32965 0
M  V30 1459 C 138.258 2.42484 -3.80148 0
M  V30 1460 C 136.92 2.34406 -4.20247 0
M  V30 1461 C 139.272 2.18598 -4.73143 0
M  V30 1462 C 136.6 2.00516 -5.51371 0
M  V30 1463 C 138.952 1.8622 -6.0457 0
M  V30 1464 C 137.616 1.76626 -6.43708 0
M  V30 1465 H 136.886 0.538634 -0.508876 0
M  V30 1466 H 139.533 0.815325 -1.73276 0
M  V30 1467 H 137.838 3.41558 -1.91951 0
M  V30 1468 H 139.535 3.29138 -2.29061 0
M  V30 1469 H 136.125 2.49659 -3.4838 0
M  V30 1470 H 140.309 2.23793 -4.42979 0
M  V30 1471 H 135.565 1.91628 -5.80593 0
M  V30 1472 H 139.739 1.66752 -6.76141 0
M  V30 1473 H 137.366 1.50133 -7.45228 0
M  V30 1474 N 138.941 1.26152 0.944643 0
M  V30 1475 C 140.357 1.03189 1.21754 0
M  V30 1476 C 140.557 -0.245112 2.00004 0
M  V30 1477 O 139.613 -0.955176 2.33736 0
M  V30 1478 C 140.926 2.26119 1.98219 0
M  V30 1479 C 142.474 2.30984 2.11224 0
M  V30 1480 C 142.949 3.53597 2.91089 0
M  V30 1481 N 144.44 3.54053 2.98664 0
M  V30 1482 C 145.175 4.45593 3.60881 0
M  V30 1483 N 144.671 5.47416 4.24626 0
M  V30 1484 N 146.464 4.33252 3.58119 0
M  V30 1485 H 138.615 2.08177 0.421437 0
M  V30 1486 H 140.878 0.914723 0.248969 0
M  V30 1487 H 140.584 3.18984 1.48128 0
M  V30 1488 H 140.458 2.3009 2.98895 0
M  V30 1489 H 142.845 1.38635 2.60508 0
M  V30 1490 H 142.926 2.31026 1.09821 0
M  V30 1491 H 142.57 4.46273 2.42493 0
M  V30 1492 H 142.5 3.50802 3.92741 0
M  V30 1493 H 144.991 2.80403 2.53343 0
M  V30 1494 H 145.304 6.13459 4.69987 0
M  V30 1495 H 143.649 5.51278 4.23223 0
M  V30 1496 H 146.84 3.52924 3.0751 0
M  V30 1497 H 147.013 5.04786 4.06319 0
M  V30 1498 N 140.419 -1.14872 1.07899 0
M  V30 1499 C 141.649 -1.89386 0.825631 0
M  V30 1500 C 142.057 -1.78565 -0.625406 0
M  V30 1501 O 141.4 -1.13918 -1.44113 0
M  V30 1502 C 141.462 -3.40206 1.16191 0
M  V30 1503 C 141.126 -3.74812 2.61467 0
M  V30 1504 C 142.123 -3.75367 3.59716 0
M  V30 1505 C 139.808 -4.0495 2.97189 0
M  V30 1506 C 141.802 -4.05574 4.9172 0
M  V30 1507 C 139.489 -4.34821 4.29388 0
M  V30 1508 C 140.487 -4.35116 5.26463 0
M  V30 1509 O 140.175 -4.64267 6.56286 0
M  V30 1510 H 139.907 -0.606894 0.297751 0
M  V30 1511 H 142.461 -1.46438 1.44031 0
M  V30 1512 H 140.691 -3.8358 0.490214 0
M  V30 1513 H 142.38 -3.96018 0.890193 0
M  V30 1514 H 143.146 -3.52176 3.33462 0
M  V30 1515 H 139.025 -4.03876 2.22273 0
M  V30 1516 H 142.569 -4.05719 5.67484 0
M  V30 1517 H 138.466 -4.5748 4.55392 0
M  V30 1518 H 139.234 -4.82007 6.61522 0
M  V30 1519 N 141.898 -0.863906 -1.31812 0
M  V30 1520 C 142.828 -0.330843 -2.31144 0
M  V30 1521 C 143.809 0.575005 -1.60087 0
M  V30 1522 O 144.994 0.493304 -1.8783 0
M  V30 1523 C 142.124 0.47374 -3.44054 0
M  V30 1524 C 141.078 -0.338481 -4.26659 0
M  V30 1525 C 140.404 0.591412 -5.31419 0
M  V30 1526 C 141.704 -1.56926 -4.98168 0
M  V30 1527 H 143.398 -1.16086 -2.75979 0
M  V30 1528 H 140.944 -0.559657 -1.32679 0
M  V30 1529 H 142.897 0.857143 -4.12591 0
M  V30 1530 H 141.621 1.33721 -2.9797 0
M  V30 1531 H 140.28 -0.703754 -3.59782 0
M  V30 1532 H 139.928 1.45199 -4.81587 0
M  V30 1533 H 139.628 0.0519022 -5.87577 0
M  V30 1534 H 141.152 0.97179 -6.02817 0
M  V30 1535 H 142.566 -1.25764 -5.59336 0
M  V30 1536 H 140.963 -2.04739 -5.64094 0
M  V30 1537 H 142.033 -2.32544 -4.25501 0
M  V30 1538 N 143.376 1.44774 -0.622745 0
M  V30 1539 C 144.787 1.85546 -0.207226 0
M  V30 1540 C 145.138 1.52093 1.23944 0
M  V30 1541 O 144.263 0.95492 1.94191 0
M  V30 1542 C 144.858 3.36781 -0.369313 0
M  V30 1543 C 143.417 3.76399 -0.00836847 0
M  V30 1544 C 142.564 2.68664 -0.686651 0
M  V30 1545 H 145.515 1.3536 -0.828454 0
M  V30 1546 H 145.536 3.78453 0.394162 0
M  V30 1547 H 145.048 3.61098 -1.42231 0
M  V30 1548 H 143.149 3.57698 1.04322 0
M  V30 1549 H 143.262 4.7732 -0.412584 0
M  V30 1550 H 141.626 2.54404 -0.122777 0
M  V30 1551 H 142.409 2.95815 -1.74208 0
M  V30 1552 N 144.854 0.36279 1.53368 0
M  V30 1553 C 145.784 -0.476976 2.28576 0
M  V30 1554 C 146.765 -1.08631 1.30894 0
M  V30 1555 O 147.95 -1.10409 1.59761 0
M  V30 1556 C 145.08 -1.61828 3.07293 0
M  V30 1557 C 144.034 -1.13633 4.1264 0
M  V30 1558 C 143.36 -2.36766 4.79423 0
M  V30 1559 C 144.66 -0.223061 5.21823 0
M  V30 1560 H 146.354 0.150474 2.99022 0
M  V30 1561 H 143.9 0.0738103 1.43811 0
M  V30 1562 H 145.853 -2.21237 3.58653 0
M  V30 1563 H 144.577 -2.27292 2.34533 0
M  V30 1564 H 143.236 -0.564945 3.62221 0
M  V30 1565 H 142.884 -3.0068 4.03238 0
M  V30 1566 H 142.584 -2.05192 5.50609 0
M  V30 1567 H 144.108 -2.96865 5.33576 0
M  V30 1568 H 145.522 -0.724545 5.68703 0
M  V30 1569 H 143.919 0.001678 6.001 0
M  V30 1570 H 144.989 0.735553 4.79289 0
M  V30 1571 N 146.332 -1.57332 0.0918853 0
M  V30 1572 C 147.242 -2.17368 -0.882505 0
M  V30 1573 C 148.258 -1.14226 -1.31257 0
M  V30 1574 O 149.434 -1.46582 -1.38115 0
M  V30 1575 C 146.499 -2.73962 -2.12476 0
M  V30 1576 C 145.56 -3.92048 -1.7492 0
M  V30 1577 C 144.793 -4.45933 -2.93223 0
M  V30 1578 O 145.016 -3.98764 -4.07852 0
M  V30 1579 O 143.95 -5.36999 -2.71875 0
M  V30 1580 H 147.776 -3.01031 -0.40172 0
M  V30 1581 H 145.361 -1.48813 -0.132291 0
M  V30 1582 H 147.243 -3.10147 -2.85283 0
M  V30 1583 H 145.918 -1.93347 -2.59613 0
M  V30 1584 H 144.825 -3.6068 -0.993025 0
M  V30 1585 H 146.158 -4.74017 -1.32548 0
M  V30 1586 N 147.81 0.181792 -1.56548 0
M  V30 1587 C 148.758 1.24461 -1.965 0
M  V30 1588 C 149.752 1.464 -0.852261 0
M  V30 1589 O 150.958 1.47103 -1.03733 0
M  V30 1590 H 147.333 0.418138 -0.625031 0
M  V30 1591 H 149.304 0.880714 -2.85107 0
M  V30 1592 C 148.053 2.57891 -2.33212 0
M  V30 1593 H 147.376 2.41829 -3.18369 0
M  V30 1594 H 148.816 3.3097 -2.65019 0
M  V30 1595 C 147.275 3.15871 -1.17163 0
M  V30 1596 O 147.805 3.9913 -0.453708 0
M  V30 1597 N 146.011 2.74808 -0.944936 0
M  V30 1598 H 145.558 2.07205 -1.53049 0
M  V30 1599 H 145.516 3.13939 -0.170286 0
M  V30 1600 N 149.288 1.51039 0.449983 0
M  V30 1601 C 150.218 1.74379 1.55288 0
M  V30 1602 C 151.199 0.593236 1.5942 0
M  V30 1603 O 152.384 0.834625 1.7535 0
M  V30 1604 C 149.514 1.85728 2.93466 0
M  V30 1605 C 148.468 3.01078 3.04197 0
M  V30 1606 C 147.794 2.97595 4.44231 0
M  V30 1607 C 149.094 4.41254 2.7945 0
M  V30 1608 H 150.788 2.66725 1.36008 0
M  V30 1609 H 148.334 1.2835 0.652864 0
M  V30 1610 H 150.287 2.0064 3.70569 0
M  V30 1611 H 149.011 0.900207 3.13949 0
M  V30 1612 H 147.67 2.85851 2.29531 0
M  V30 1613 H 147.318 1.99691 4.61663 0
M  V30 1614 H 147.018 3.75046 4.52343 0
M  V30 1615 H 148.542 3.14583 5.23326 0
M  V30 1616 H 149.956 4.56897 3.46292 0
M  V30 1617 H 148.353 5.20315 2.98985 0
M  V30 1618 H 149.423 4.52164 1.75144 0
M  V30 1619 N 150.766 -0.704594 1.40972 0
M  V30 1620 C 152.182 -1.01406 1.23244 0
M  V30 1621 C 152.382 -2.01169 0.115399 0
M  V30 1622 O 151.438 -2.47021 -0.523147 0
M  V30 1623 C 152.751 -1.54728 2.57836 0
M  V30 1624 C 154.299 -1.66658 2.64942 0
M  V30 1625 C 154.774 -2.23383 3.9983 0
M  V30 1626 N 156.265 -2.30756 4.01629 0
M  V30 1627 C 157 -2.75655 5.02794 0
M  V30 1628 N 156.496 -3.20225 6.14352 0
M  V30 1629 N 158.289 -2.75138 4.90159 0
M  V30 1630 H 150.44 -0.0435285 2.12355 0
M  V30 1631 H 152.703 -0.0818951 0.944456 0
M  V30 1632 H 152.409 -0.888832 3.40283 0
M  V30 1633 H 152.283 -2.53084 2.79693 0
M  V30 1634 H 154.67 -2.31617 1.8286 0
M  V30 1635 H 154.751 -0.668717 2.46904 0
M  V30 1636 H 154.395 -1.59043 4.82357 0
M  V30 1637 H 154.325 -3.23904 4.15203 0
M  V30 1638 H 156.816 -1.99291 3.21079 0
M  V30 1639 H 157.129 -3.53084 6.87424 0
M  V30 1640 H 155.474 -3.18156 6.17901 0
M  V30 1641 H 158.665 -2.39661 4.02095 0
M  V30 1642 H 158.838 -3.09812 5.6914 0
M  V30 1643 N 152.244 -1.26651 -0.937939 0
M  V30 1644 C 153.493 -1.11775 -1.67897 0
M  V30 1645 C 153.806 0.33794 -1.92659 0
M  V30 1646 O 155.012 0.607434 -2.64618 0
M  V30 1647 C 153.468 -1.9523 -3.02346 0
M  V30 1648 C 153.076 -3.45393 -2.8532 0
M  V30 1649 C 154.82 -1.88972 -3.80118 0
M  V30 1650 C 152.727 -4.21083 -4.15263 0
M  V30 1651 H 151.657 -0.414696 -0.629717 0
M  V30 1652 H 154.308 -1.50988 -1.04283 0
M  V30 1653 H 152.69 -1.48853 -3.66959 0
M  V30 1654 H 153.864 -3.99561 -2.29537 0
M  V30 1655 H 152.179 -3.52921 -2.20988 0
M  V30 1656 H 154.776 -2.42805 -4.76392 0
M  V30 1657 H 155.119 -0.86113 -4.07296 0
M  V30 1658 H 155.652 -2.33189 -3.22285 0
M  V30 1659 H 152.391 -5.24425 -3.93267 0
M  V30 1660 H 151.911 -3.71695 -4.70747 0
M  V30 1661 H 153.59 -4.29706 -4.83696 0
M  V30 1662 N 153.722 1.14298 -1.08507 0
M  V30 1663 C 154.971 1.84708 -0.810305 0
M  V30 1664 C 155.284 1.83903 0.666271 0
M  V30 1665 O 156.49 2.50112 1.05624 0
M  V30 1666 C 154.946 3.31572 -1.39957 0
M  V30 1667 C 154.554 3.40791 -2.90801 0
M  V30 1668 C 156.298 4.07087 -1.20334 0
M  V30 1669 C 154.205 4.81872 -3.4286 0
M  V30 1670 H 153.135 0.691985 -0.299454 0
M  V30 1671 H 155.786 1.28841 -1.30661 0
M  V30 1672 H 154.168 3.87183 -0.830976 0
M  V30 1673 H 155.342 2.95225 -3.53806 0
M  V30 1674 H 153.657 2.78732 -3.0935 0
M  V30 1675 H 156.254 5.11225 -1.56693 0
M  V30 1676 H 156.597 4.16054 -0.143237 0
M  V30 1677 H 157.13 3.57779 -1.73893 0
M  V30 1678 H 153.869 4.78094 -4.48449 0
M  V30 1679 H 153.389 5.27972 -2.84615 0
M  V30 1680 H 155.068 5.50765 -3.39509 0
M  V30 1681 N 155.201 0.870884 1.31352 0
M  V30 1682 C 156.617 0.562932 1.49343 0
M  V30 1683 C 156.817 -0.902725 1.80148 0
M  V30 1684 O 155.873 -1.68484 1.88067 0
M  V30 1685 C 157.186 1.46393 2.62659 0
M  V30 1686 C 158.734 1.46607 2.76542 0
M  V30 1687 C 159.209 2.35266 3.92955 0
M  V30 1688 N 160.7 2.33151 4.00243 0
M  V30 1689 C 161.435 2.98471 4.89594 0
M  V30 1690 N 160.931 3.72964 5.8384 0
M  V30 1691 N 162.724 2.87775 4.82848 0
M  V30 1692 H 154.875 1.81923 1.09626 0
M  V30 1693 H 157.138 0.777934 0.541777 0
M  V30 1694 H 156.844 2.50689 2.46674 0
M  V30 1695 H 156.718 1.16314 3.58819 0
M  V30 1696 H 159.105 0.43069 2.9194 0
M  V30 1697 H 159.186 1.8071 1.81046 0
M  V30 1698 H 158.83 3.38881 3.78315 0
M  V30 1699 H 158.76 1.98487 4.87761 0
M  V30 1700 H 161.251 1.79006 3.32814 0
M  V30 1701 H 161.564 4.19932 6.4875 0
M  V30 1702 H 159.909 3.77073 5.83816 0
M  V30 1703 H 163.1 2.29116 4.08195 0
M  V30 1704 H 163.273 3.38961 5.52277 0
M  V30 1705 N 156.679 -1.44442 0.630414 0
M  V30 1706 C 157.927 -2.01653 0.134351 0
M  V30 1707 C 158.248 -1.49836 -1.24796 0
M  V30 1708 O 157.518 -0.701684 -1.82902 0
M  V30 1709 H 156.098 -0.74554 0.0466769 0
M  V30 1710 H 158.76 -1.76952 0.816955 0
M  V30 1711 H 157.856 -3.11935 0.101498 0
M  V30 1712 N 158.157 -0.370918 -1.53173 0
M  V30 1713 C 159.385 0.217704 -2.05751 0
M  V30 1714 C 159.8 1.42018 -1.24404 0
M  V30 1715 O 159.157 1.80245 -0.286033 0
M  V30 1716 C 159.208 0.605954 -3.56385 0
M  V30 1717 O 158.929 -0.548734 -4.3465 0
M  V30 1718 C 160.43 1.2524 -4.25241 0
M  V30 1719 H 157.65 0.0371659 -0.66997 0
M  V30 1720 H 160.194 -0.530832 -1.9749 0
M  V30 1721 H 158.349 1.3044 -3.6478 0
M  V30 1722 H 158.763 -0.23376 -5.23979 0
M  V30 1723 H 160.237 1.47458 -5.3194 0
M  V30 1724 H 160.714 2.2143 -3.79296 0
M  V30 1725 H 161.32 0.595233 -4.21114 0
M  V30 1726 N 159.635 1.57281 -0.100228 0
M  V30 1727 C 160.582 2.14305 0.856858 0
M  V30 1728 C 161.552 1.06296 1.27634 0
M  V30 1729 O 162.737 1.34109 1.35718 0
M  V30 1730 C 159.877 2.73184 2.10866 0
M  V30 1731 C 158.99 3.95442 1.73925 0
M  V30 1732 C 158.125 4.42468 2.93931 0
M  V30 1733 C 157.164 5.57303 2.5314 0
M  V30 1734 N 156.301 5.99158 3.65997 0
M  V30 1735 H 161.141 2.95772 0.363726 0
M  V30 1736 H 158.678 1.46139 0.167858 0
M  V30 1737 H 160.636 3.05442 2.84185 0
M  V30 1738 H 159.266 1.94437 2.57671 0
M  V30 1739 H 158.318 3.69464 0.905554 0
M  V30 1740 H 159.63 4.78769 1.39935 0
M  V30 1741 H 158.784 4.76537 3.75496 0
M  V30 1742 H 157.523 3.58052 3.31134 0
M  V30 1743 H 156.528 5.22857 1.70003 0
M  V30 1744 H 157.753 6.43471 2.17075 0
M  V30 1745 H 155.699 5.17687 4.02909 0
M  V30 1746 H 155.616 6.77295 3.35869 0
M  V30 1747 H 156.884 6.3786 4.48057 0
M  V30 1748 N 161.113 -0.173488 1.56642 0
M  V30 1749 C 162.043 -1.2171 1.99271 0
M  V30 1750 C 163.024 -1.46289 0.867959 0
M  V30 1751 O 164.209 -1.5766 1.13388 0
M  V30 1752 C 161.339 -2.55651 2.35074 0
M  V30 1753 C 160.293 -2.45645 3.50489 0
M  V30 1754 C 159.619 -3.84056 3.72028 0
M  V30 1755 C 160.919 -1.96302 4.84007 0
M  V30 1756 H 162.613 -0.86275 2.867 0
M  V30 1757 H 160.159 -0.413571 1.37933 0
M  V30 1758 H 162.112 -3.2886 2.63494 0
M  V30 1759 H 160.836 -2.92869 1.44552 0
M  V30 1760 H 159.495 -1.7489 3.22194 0
M  V30 1761 H 159.143 -4.18664 2.788 0
M  V30 1762 H 158.843 -3.7823 4.49684 0
M  V30 1763 H 160.367 -4.58854 4.02846 0
M  V30 1764 H 161.781 -2.59284 5.11317 0
M  V30 1765 H 160.178 -2.01429 5.65284 0
M  V30 1766 H 161.248 -0.917226 4.76146 0
M  V30 1767 N 162.591 -1.51276 -0.441967 0
M  V30 1768 C 163.821 -1.67273 -1.21257 0
M  V30 1769 C 164.229 -0.367624 -1.85594 0
M  V30 1770 O 163.572 0.663349 -1.71305 0
M  V30 1771 C 163.634 -2.72807 -2.34129 0
M  V30 1772 C 163.298 -4.1554 -1.90198 0
M  V30 1773 C 164.295 -5.00471 -1.40801 0
M  V30 1774 C 161.98 -4.61616 -1.9803 0
M  V30 1775 C 163.974 -6.29536 -0.998174 0
M  V30 1776 C 161.661 -5.90679 -1.56658 0
M  V30 1777 C 162.659 -6.74466 -1.07633 0
M  V30 1778 O 162.347 -8.01116 -0.668459 0
M  V30 1779 H 162.079 -0.564614 -0.371734 0
M  V30 1780 H 164.633 -1.9843 -0.530521 0
M  V30 1781 H 162.863 -2.36954 -3.05597 0
M  V30 1782 H 164.552 -2.77729 -2.96009 0
M  V30 1783 H 165.318 -4.66079 -1.34148 0
M  V30 1784 H 161.197 -3.96526 -2.35135 0
M  V30 1785 H 164.741 -6.94885 -0.61482 0
M  V30 1786 H 160.638 -6.24586 -1.62979 0
M  V30 1787 H 161.406 -8.14633 -0.794722 0
M  V30 1788 N 164.069 0.697108 -1.41344 0
M  V30 1789 C 164.979 1.84088 -1.45427 0
M  V30 1790 C 165.995 1.70545 -0.34501 0
M  V30 1791 O 167.171 1.92488 -0.592492 0
M  V30 1792 C 164.236 3.20056 -1.33286 0
M  V30 1793 C 163.297 3.45718 -2.54514 0
M  V30 1794 C 162.53 4.75199 -2.42944 0
M  V30 1795 O 162.753 5.51579 -1.45318 0
M  V30 1796 O 161.687 5.0161 -3.32672 0
M  V30 1797 H 165.513 1.836 -2.41919 0
M  V30 1798 H 163.098 0.849966 -1.22866 0
M  V30 1799 H 164.98 4.01236 -1.28794 0
M  V30 1800 H 163.655 3.2123 -0.39909 0
M  V30 1801 H 162.562 2.64474 -2.64583 0
M  V30 1802 H 163.895 3.49356 -3.46715 0
M  V30 1803 N 165.547 1.27147 0.931209 0
M  V30 1804 C 166.824 1.0401 1.65654 0
M  V30 1805 C 167.204 -0.426297 2.06751 0
M  V30 1806 O 166.552 -1.40879 1.79904 0
M  V30 1807 C 166.762 1.99834 2.86125 0
M  V30 1808 C 168.11 2.29007 3.57549 0
M  V30 1809 O 169.134 1.97779 2.96246 0
M  V30 1810 O 167.993 2.82222 4.67989 0
M  V30 1811 H 165.087 0.396239 0.725895 0
M  V30 1812 H 167.633 1.38397 0.982056 0
M  V30 1813 H 166.405 2.98744 2.52721 0
M  V30 1814 H 166.028 1.65987 3.61295 0
M  V30 1815 N 167.025 -1.13721 1.09112 0
M  V30 1816 C 168.441 -1.36914 0.820174 0
M  V30 1817 C 168.641 -1.93356 -0.567079 0
M  V30 1818 O 167.697 -2.15093 -1.32255 0
M  V30 1819 C 169.01 -2.3235 1.90877 0
M  V30 1820 C 170.558 -2.45973 1.93562 0
M  V30 1821 C 171.033 -3.44714 3.01556 0
M  V30 1822 N 172.524 -3.52263 3.00775 0
M  V30 1823 C 173.259 -4.28536 3.80978 0
M  V30 1824 N 172.755 -5.07991 4.71081 0
M  V30 1825 N 174.548 -4.23804 3.69251 0
M  V30 1826 H 166.699 -0.754348 1.98553 0
M  V30 1827 H 168.962 -0.3944 0.862063 0
M  V30 1828 H 168.668 -1.98027 2.90651 0
M  V30 1829 H 168.542 -3.32332 1.78424 0
M  V30 1830 H 170.929 -2.79584 0.944286 0
M  V30 1831 H 171.01 -1.45926 2.10093 0
M  V30 1832 H 170.654 -3.11835 4.00901 0
M  V30 1833 H 170.584 -4.44558 2.82269 0
M  V30 1834 H 173.075 -2.95567 2.35475 0
M  V30 1835 H 173.388 -5.63487 5.28869 0
M  V30 1836 H 171.733 -5.07235 4.75119 0
M  V30 1837 H 174.924 -3.60806 2.98222 0
M  V30 1838 H 175.097 -4.82995 4.31995 0
M  V30 1839 N 168.503 -0.877838 -1.30888 0
M  V30 1840 C 169.733 -0.506678 -2.00291 0
M  V30 1841 C 170.141 0.907449 -1.66018 0
M  V30 1842 O 169.484 1.60719 -0.88967 0
M  V30 1843 C 169.546 -0.59323 -3.54572 0
M  V30 1844 C 169.21 -1.97038 -4.12341 0
M  V30 1845 C 170.207 -2.93889 -4.28865 0
M  V30 1846 C 167.892 -2.27383 -4.47886 0
M  V30 1847 C 169.886 -4.19224 -4.80136 0
M  V30 1848 C 167.573 -3.52965 -4.98857 0
M  V30 1849 C 168.571 -4.48701 -5.14934 0
M  V30 1850 O 168.259 -5.72056 -5.64808 0
M  V30 1851 H 167.991 -0.1951 -0.647234 0
M  V30 1852 H 170.545 -1.18301 -1.6791 0
M  V30 1853 H 168.775 0.140057 -3.86446 0
M  V30 1854 H 170.464 -0.234372 -4.05223 0
M  V30 1855 H 171.23 -2.71756 -4.01714 0
M  V30 1856 H 167.109 -1.53639 -4.34645 0
M  V30 1857 H 170.653 -4.93956 -4.92599 0
M  V30 1858 H 166.55 -3.74939 -5.25443 0
M  V30 1859 H 167.318 -5.74337 -5.83163 0
M  V30 1860 N 169.982 1.44106 -0.638065 0
M  V30 1861 C 170.945 2.29138 0.0531013 0
M  V30 1862 C 171.945 1.41409 0.765506 0
M  V30 1863 O 173.135 1.63206 0.609046 0
M  V30 1864 C 170.267 3.23144 1.08584 0
M  V30 1865 H 171.46 2.91739 -0.694883 0
M  V30 1866 H 169.013 1.51134 -0.398538 0
M  V30 1867 H 169.748 2.65408 1.86357 0
M  V30 1868 H 169.533 3.87804 0.578852 0
M  V30 1869 H 171.023 3.87004 1.56899 0
M  V30 1870 N 171.46 0.379036 1.52974 0
M  V30 1871 C 172.39 -0.452706 2.29069 0
M  V30 1872 C 173.371 -1.07237 1.32039 0
M  V30 1873 O 174.556 -1.08708 1.60923 0
M  V30 1874 C 171.686 -1.5856 3.08992 0
M  V30 1875 C 170.64 -1.0925 4.13822 0
M  V30 1876 C 169.966 -2.31668 4.81907 0
M  V30 1877 C 171.266 -0.167702 5.22031 0
M  V30 1878 H 172.96 0.182181 2.98845 0
M  V30 1879 H 170.506 0.0890592 1.43724 0
M  V30 1880 H 172.459 -2.1742 3.6098 0
M  V30 1881 H 171.183 -2.24792 2.36931 0
M  V30 1882 H 169.842 -0.526494 3.628 0
M  V30 1883 H 169.49 -2.96386 4.06404 0
M  V30 1884 H 169.19 -1.9934 5.52754 0
M  V30 1885 H 170.714 -2.91189 5.36695 0
M  V30 1886 H 172.128 -0.664186 5.6944 0
M  V30 1887 H 170.525 0.0653265 6.00064 0
M  V30 1888 H 171.595 0.786347 4.78482 0
M  V30 1889 N 172.938 -1.57226 0.108567 0
M  V30 1890 C 173.901 -2.13602 -0.831082 0
M  V30 1891 C 174.901 -1.06841 -1.20173 0
M  V30 1892 O 176.091 -1.32666 -1.12895 0
M  V30 1893 C 173.223 -2.66769 -2.12243 0
M  V30 1894 H 174.416 -2.97951 -0.341317 0
M  V30 1895 H 171.969 -1.55667 -0.14057 0
M  V30 1896 H 172.704 -1.85977 -2.65675 0
M  V30 1897 H 172.489 -3.44839 -1.86625 0
M  V30 1898 H 173.979 -3.10332 -2.79435 0
M  V30 1899 N 174.416 0.165178 -1.56732 0
M  V30 1900 C 175.665 0.879143 -1.81532 0
M  V30 1901 C 175.978 1.83144 -0.686842 0
M  V30 1902 O 177.184 2.58823 -0.819944 0
M  V30 1903 C 175.64 1.61388 -3.21686 0
M  V30 1904 C 175.248 0.704904 -4.4242 0
M  V30 1905 C 176.992 2.3157 -3.55774 0
M  V30 1906 C 174.899 1.44022 -5.73595 0
M  V30 1907 H 173.829 0.332033 -0.676957 0
M  V30 1908 H 176.48 0.132008 -1.83025 0
M  V30 1909 H 174.862 2.40599 -3.14529 0
M  V30 1910 H 176.036 -0.0506815 -4.60772 0
M  V30 1911 H 174.351 0.112419 -4.16248 0
M  V30 1912 H 176.948 2.8719 -4.51028 0
M  V30 1913 H 177.291 3.07201 -2.8095 0
M  V30 1914 H 177.824 1.59297 -3.64513 0
M  V30 1915 H 174.563 0.72612 -6.51466 0
M  V30 1916 H 174.083 2.16898 -5.5921 0
M  V30 1917 H 175.762 1.98606 -6.15764 0
M  V30 1918 N 175.894 1.51508 0.433938 0
M  V30 1919 C 177.141 1.64345 1.18309 0
M  V30 1920 C 177.469 0.361315 1.91115 0
M  V30 1921 O 176.724 -0.654753 1.84422 0
M  V30 1922 C 177.023 2.79928 2.22205 0
M  V30 1923 C 176.689 4.19078 1.66387 0
M  V30 1924 C 175.351 4.56932 1.50887 0
M  V30 1925 C 177.703 5.05894 1.25381 0
M  V30 1926 C 175.031 5.79305 0.928608 0
M  V30 1927 C 177.383 6.2885 0.687823 0
M  V30 1928 C 176.047 6.65473 0.519755 0
M  V30 1929 H 175.317 0.601381 0.432923 0
M  V30 1930 H 177.964 1.85549 0.473676 0
M  V30 1931 H 176.269 2.52959 2.99197 0
M  V30 1932 H 177.966 2.87059 2.79997 0
M  V30 1933 H 174.556 3.89234 1.79428 0
M  V30 1934 H 178.74 4.77253 1.36175 0
M  V30 1935 H 173.996 6.06324 0.786186 0
M  V30 1936 H 178.17 6.95461 0.361581 0
M  V30 1937 H 175.797 7.6017 0.0679979 0
M  V30 1938 N 177.372 -0.689602 1.41712 0
M  V30 1939 C 178.302 -1.81577 1.46806 0
M  V30 1940 C 179.283 -1.66945 0.326105 0
M  V30 1941 O 180.468 -1.86588 0.538377 0
M  V30 1942 C 177.598 -3.19762 1.35535 0
M  V30 1943 C 176.552 -3.49107 2.47605 0
M  V30 1944 C 175.878 -4.86711 2.21397 0
M  V30 1945 C 177.178 -3.47483 3.89939 0
M  V30 1946 H 178.872 -1.7757 2.41058 0
M  V30 1947 H 176.418 -0.852887 1.16025 0
M  V30 1948 H 178.371 -3.98263 1.3771 0
M  V30 1949 H 177.095 -3.24409 0.377708 0
M  V30 1950 H 175.754 -2.72959 2.44722 0
M  V30 1951 H 175.402 -4.8799 1.21961 0
M  V30 1952 H 175.102 -5.0731 2.96497 0
M  V30 1953 H 176.626 -5.67515 2.25297 0
M  V30 1954 H 178.04 -4.1598 3.94505 0
M  V30 1955 H 176.437 -3.79615 4.64771 0
M  V30 1956 H 177.507 -2.46341 4.17665 0
M  V30 1957 N 178.85 -1.27639 -0.924453 0
M  V30 1958 C 179.798 -1.10485 -2.04685 0
M  V30 1959 C 180.792 -0.0270421 -1.69378 0
M  V30 1960 O 181.998 -0.185008 -1.79047 0
M  V30 1961 H 178.373 -0.340546 -0.670472 0
M  V30 1962 H 180.344 -2.05566 -2.16298 0
M  V30 1963 C 179.093 -0.772229 -3.39016 0
M  V30 1964 H 178.416 -1.59351 -3.66671 0
M  V30 1965 H 179.856 -0.692097 -4.18313 0
M  V30 1966 C 178.315 0.523554 -3.32807 0
M  V30 1967 O 178.845 1.55702 -3.70297 0
M  V30 1968 N 177.051 0.520363 -2.85903 0
M  V30 1969 H 176.598 -0.32107 -2.55591 0
M  V30 1970 H 176.556 1.38742 -2.82131 0
M  V30 1971 N 180.328 1.1314 -1.09713 0
M  V30 1972 C 181.558 1.88048 -0.855656 0
M  V30 1973 C 181.966 1.79537 0.596919 0
M  V30 1974 O 181.309 1.16196 1.42282 0
M  V30 1975 C 181.371 3.38314 -1.21589 0
M  V30 1976 C 181.035 3.70605 -2.67397 0
M  V30 1977 C 182.032 3.69596 -3.65643 0
M  V30 1978 C 179.717 4.0017 -3.03593 0
M  V30 1979 C 181.711 3.977 -4.9811 0
M  V30 1980 C 179.398 4.27935 -4.36251 0
M  V30 1981 C 180.396 4.26685 -5.33318 0
M  V30 1982 O 180.084 4.53767 -6.63589 0
M  V30 1983 H 179.816 0.60208 -0.307368 0
M  V30 1984 H 182.37 1.44128 -1.46343 0
M  V30 1985 H 180.6 3.82752 -0.551177 0
M  V30 1986 H 182.289 3.94552 -0.953083 0
M  V30 1987 H 183.055 3.46826 -3.39023 0
M  V30 1988 H 178.934 4.00289 -2.2867 0
M  V30 1989 H 182.478 3.9664 -5.73866 0
M  V30 1990 H 178.375 4.50178 -4.62613 0
M  V30 1991 H 179.143 4.71422 -6.69107 0
M  V30 1992 N 181.806 0.884767 1.30421 0
M  V30 1993 C 183.222 0.57874 1.48737 0
M  V30 1994 C 183.422 -0.883567 1.81095 0
M  V30 1995 O 182.478 -1.6648 1.89844 0
M  V30 1996 C 183.791 1.49171 2.61091 0
M  V30 1997 C 185.339 1.49532 2.74971 0
M  V30 1998 C 185.814 2.39421 3.90438 0
M  V30 1999 N 187.305 2.37383 3.97748 0
M  V30 2000 C 188.04 3.03647 4.86401 0
M  V30 2001 N 187.536 3.79136 5.79852 0
M  V30 2002 N 189.329 2.9288 4.79768 0
M  V30 2003 H 181.48 1.83075 1.0769 0
M  V30 2004 H 183.743 0.783637 0.533495 0
M  V30 2005 H 183.449 2.53291 2.44001 0
M  V30 2006 H 183.323 1.20113 3.57565 0
M  V30 2007 H 185.71 0.46163 2.91467 0
M  V30 2008 H 185.791 1.8262 1.79119 0
M  V30 2009 H 185.435 3.42874 3.74699 0
M  V30 2010 H 185.365 2.03649 4.85628 0
M  V30 2011 H 187.856 1.82525 3.30897 0
M  V30 2012 H 188.169 4.26789 6.4426 0
M  V30 2013 H 186.514 3.83243 5.79784 0
M  V30 2014 H 189.705 2.33433 4.05742 0
M  V30 2015 H 189.878 3.448 5.4865 0
M  V30 2016 N 183.284 -1.43765 0.645699 0
M  V30 2017 C 184.231 -2.30745 -0.0504648 0
M  V30 2018 C 185.201 -1.4432 -0.822241 0
M  V30 2019 O 186.386 -1.73202 -0.800358 0
M  V30 2020 C 183.526 -3.29802 -1.0161 0
M  V30 2021 C 182.639 -4.31326 -0.241219 0
M  V30 2022 C 181.774 -5.17469 -1.19998 0
M  V30 2023 C 180.813 -6.10691 -0.415094 0
M  V30 2024 N 179.95 -6.89483 -1.32506 0
M  V30 2025 H 184.79 -2.8973 0.697155 0
M  V30 2026 H 182.327 -1.42738 0.355563 0
M  V30 2027 H 184.285 -3.85734 -1.58949 0
M  V30 2028 H 182.915 -2.72483 -1.73069 0
M  V30 2029 H 181.967 -3.77749 0.448334 0
M  V30 2030 H 183.279 -4.9743 0.369437 0
M  V30 2031 H 182.433 -5.7799 -1.84424 0
M  V30 2032 H 181.172 -4.51473 -1.84455 0
M  V30 2033 H 180.177 -5.49265 0.242565 0
M  V30 2034 H 181.402 -6.78727 0.224966 0
M  V30 2035 H 179.348 -6.26142 -1.95657 0
M  V30 2036 H 179.265 -7.52081 -0.768783 0
M  V30 2037 H 180.533 -7.54516 -1.9577 0
M  V30 2038 N 184.763 -0.387143 -1.52771 0
M  V30 2039 C 186.04 0.253197 -1.93954 0
M  V30 2040 C 186.42 1.64545 -1.32243 0
M  V30 2041 O 185.768 2.23191 -0.489699 0
M  V30 2042 C 185.978 0.281722 -3.47861 0
M  V30 2043 C 187.326 0.511715 -4.21505 0
M  V30 2044 O 188.35 0.362023 -3.54356 0
M  V30 2045 O 187.209 0.804847 -5.40541 0
M  V30 2046 H 184.303 0.156845 -0.811991 0
M  V30 2047 H 186.849 -0.441494 -1.63856 0
M  V30 2048 H 185.621 -0.693571 -3.85104 0
M  V30 2049 H 185.244 1.02142 -3.84256 0
M  V30 2050 N 186.241 1.57166 -0.116904 0
M  V30 2051 C 187.489 1.94737 0.540533 0
M  V30 2052 C 187.81 1.00096 1.67349 0
M  V30 2053 O 187.08 0.0568854 1.95817 0
M  V30 2054 H 185.66 0.718981 0.202669 0
M  V30 2055 H 188.322 1.94017 -0.185353 0
M  V30 2056 H 187.418 2.97719 0.936483 0
M  V30 2057 N 187.719 -0.156864 1.56817 0
M  V30 2058 C 188.667 -1.21319 1.98455 0
M  V30 2059 C 189.661 -1.45025 0.875444 0
M  V30 2060 O 190.867 -1.45435 1.0606 0
M  V30 2061 H 187.242 -0.408142 0.631605 0
M  V30 2062 H 189.213 -0.835244 2.86472 0
M  V30 2063 C 187.962 -2.54148 2.37285 0
M  V30 2064 H 187.285 -2.36733 3.22176 0
M  V30 2065 H 188.725 -3.26712 2.70251 0
M  V30 2066 C 187.184 -3.13967 1.22173 0
M  V30 2067 O 187.714 -3.98357 0.517149 0
M  V30 2068 N 185.92 -2.7327 0.988536 0
M  V30 2069 H 185.467 -2.04744 1.56326 0
M  V30 2070 H 185.425 -3.13628 0.220209 0
M  V30 2071 N 189.197 -1.51736 -0.425897 0
M  V30 2072 C 190.444 -1.6497 -1.17436 0
M  V30 2073 C 190.772 -0.371445 -1.9092 0
M  V30 2074 O 190.027 0.644963 -1.84767 0
M  V30 2075 C 190.326 -2.81103 -2.20717 0
M  V30 2076 C 189.992 -4.19954 -1.64162 0
M  V30 2077 C 188.654 -4.57725 -1.48462 0
M  V30 2078 C 191.006 -5.06552 -1.22696 0
M  V30 2079 C 188.334 -5.79789 -0.897873 0
M  V30 2080 C 190.686 -6.29205 -0.654464 0
M  V30 2081 C 189.35 -6.6574 -0.484456 0
M  V30 2082 H 188.62 -0.603668 -0.429727 0
M  V30 2083 H 191.267 -1.85798 -0.463829 0
M  V30 2084 H 189.572 -2.54542 -2.97852 0
M  V30 2085 H 191.269 -2.8854 -2.78471 0
M  V30 2086 H 187.859 -3.90181 -1.77361 0
M  V30 2087 H 192.043 -4.77968 -1.33642 0
M  V30 2088 H 187.299 -6.06733 -0.75402 0
M  V30 2089 H 191.473 -6.95643 -0.324694 0
M  V30 2090 H 189.1 -7.60195 -0.0276833 0
M  V30 2091 N 190.675 0.682077 -1.42076 0
M  V30 2092 C 191.923 1.4393 -1.41876 0
M  V30 2093 C 192.244 1.94971 -0.0335599 0
M  V30 2094 O 191.514 1.72591 0.926773 0
M  V30 2095 H 190.094 0.534085 -0.522267 0
M  V30 2096 H 192.756 0.806427 -1.77434 0
M  V30 2097 H 191.852 2.29588 -2.11414 0
M  V30 2098 N 192.153 1.28127 0.917671 0
M  V30 2099 C 193.083 1.14248 2.03641 0
M  V30 2100 C 194.064 0.0412748 1.7005 0
M  V30 2101 O 195.249 0.217566 1.92977 0
M  V30 2102 C 192.379 0.799431 3.37974 0
M  V30 2103 C 191.333 1.85497 3.85713 0
M  V30 2104 C 190.659 1.36565 5.16966 0
M  V30 2105 C 191.959 3.26085 4.08002 0
M  V30 2106 H 193.653 2.07835 2.15511 0
M  V30 2107 H 191.199 1.00064 1.03553 0
M  V30 2108 H 193.152 0.689114 4.15727 0
M  V30 2109 H 191.876 -0.172145 3.26146 0
M  V30 2110 H 190.535 1.95437 3.10161 0
M  V30 2111 H 190.183 0.383253 5.01538 0
M  V30 2112 H 189.883 2.07143 5.49878 0
M  V30 2113 H 191.407 1.26848 5.97279 0
M  V30 2114 H 192.821 3.19089 4.76293 0
M  V30 2115 H 191.218 3.94462 4.52238 0
M  V30 2116 H 192.288 3.70394 3.12948 0
M  V30 2117 N 193.631 -1.12557 1.10312 0
M  V30 2118 C 194.563 -2.17971 0.708625 0
M  V30 2119 C 195.576 -1.60806 -0.254027 0
M  V30 2120 O 196.765 -1.78458 -0.0386891 0
M  V30 2121 C 193.865 -3.38891 0.0248198 0
M  V30 2122 C 193.038 -4.25548 1.01132 0
M  V30 2123 C 192.097 -5.24972 0.35924 0
M  V30 2124 O 191.123 -5.60174 1.00965 0
M  V30 2125 N 192.325 -5.73747 -0.882847 0
M  V30 2126 H 195.09 -2.52427 1.61557 0
M  V30 2127 H 192.651 -1.27967 0.991771 0
M  V30 2128 H 194.643 -4.02485 -0.422852 0
M  V30 2129 H 193.213 -3.02596 -0.784514 0
M  V30 2130 H 192.433 -3.58589 1.6373 0
M  V30 2131 H 193.721 -4.80294 1.67914 0
M  V30 2132 H 193.119 -5.4731 -1.43065 0
M  V30 2133 H 191.676 -6.39234 -1.27369 0
M  V30 2134 N 195.109 -0.891671 -1.2995 0
M  V30 2135 C 196.019 -0.367691 -2.31701 0
M  V30 2136 C 197.035 0.533486 -1.6562 0
M  V30 2137 O 198.211 0.424997 -1.96865 0
M  V30 2138 C 195.276 0.403406 -3.44345 0
M  V30 2139 C 194.337 -0.528328 -4.26037 0
M  V30 2140 C 193.57 0.206063 -5.33302 0
M  V30 2141 O 193.793 1.43119 -5.52153 0
M  V30 2142 O 192.727 -0.447281 -6.00236 0
M  V30 2143 H 196.553 -1.21163 -2.78484 0
M  V30 2144 H 194.138 -0.655725 -1.34241 0
M  V30 2145 H 196.02 0.839753 -4.12948 0
M  V30 2146 H 194.695 1.22354 -2.99685 0
M  V30 2147 H 193.602 -1.01362 -3.60106 0
M  V30 2148 H 194.935 -1.31465 -4.74318 0
M  V30 2149 N 196.587 1.43421 -0.653314 0
M  V30 2150 C 197.517 2.33487 0.0246656 0
M  V30 2151 C 198.498 1.49475 0.811863 0
M  V30 2152 O 199.683 1.78139 0.773322 0
M  V30 2153 C 196.813 3.32841 0.99166 0
M  V30 2154 C 195.767 4.26842 0.314568 0
M  V30 2155 C 195.093 5.16236 1.39302 0
M  V30 2156 C 196.393 5.16243 -0.793095 0
M  V30 2157 H 198.087 2.90427 -0.727481 0
M  V30 2158 H 195.633 1.39649 -0.351287 0
M  V30 2159 H 197.586 3.94747 1.47487 0
M  V30 2160 H 196.31 2.74158 1.77497 0
M  V30 2161 H 194.969 3.663 -0.148199 0
M  V30 2162 H 194.617 4.53891 2.16776 0
M  V30 2163 H 194.317 5.79948 0.945223 0
M  V30 2164 H 195.841 5.81015 1.87759 0
M  V30 2165 H 197.255 5.71958 -0.392039 0
M  V30 2166 H 195.652 5.88676 -1.16536 0
M  V30 2167 H 196.722 4.55927 -1.65103 0
M  V30 2168 N 198.065 0.39524 1.52563 0
M  V30 2169 C 199.313 -0.184678 2.01254 0
M  V30 2170 C 199.634 -1.46822 1.28329 0
M  V30 2171 O 198.904 -1.91666 0.405094 0
M  V30 2172 H 197.484 -0.0712355 0.743596 0
M  V30 2173 H 200.146 0.528293 1.87603 0
M  V30 2174 H 199.242 -0.390681 3.09645 0
M  V30 2175 N 199.544 -1.57102 0.125237 0
M  V30 2176 C 200.474 -2.18659 -0.819174 0
M  V30 2177 C 201.455 -1.12843 -1.27281 0
M  V30 2178 O 202.64 -1.41104 -1.33429 0
M  V30 2179 C 199.77 -2.79096 -2.06695 0
M  V30 2180 C 198.724 -3.90548 -1.75088 0
M  V30 2181 C 198.05 -4.37821 -3.06948 0
M  V30 2182 C 199.35 -5.12356 -1.01435 0
M  V30 2183 H 201.044 -2.9783 -0.306202 0
M  V30 2184 H 198.59 -1.4326 -0.145839 0
M  V30 2185 H 200.543 -3.2082 -2.73226 0
M  V30 2186 H 199.267 -1.97223 -2.60328 0
M  V30 2187 H 197.926 -3.49409 -1.10944 0
M  V30 2188 H 197.574 -3.52799 -3.58527 0
M  V30 2189 H 197.274 -5.12982 -2.86571 0
M  V30 2190 H 198.798 -4.822 -3.74587 0
M  V30 2191 H 200.212 -5.5106 -1.58132 0
M  V30 2192 H 198.609 -5.9314 -0.911319 0
M  V30 2193 H 199.679 -4.849 -0.00218681 0
M  V30 2194 N 201.022 0.148545 -1.56898 0
M  V30 2195 C 201.969 1.18345 -1.98149 0
M  V30 2196 C 202.939 1.42772 -0.848848 0
M  V30 2197 O 204.124 1.55132 -1.11079 0
M  V30 2198 C 201.264 2.51231 -2.36594 0
M  V30 2199 C 200.377 2.33991 -3.63142 0
M  V30 2200 C 199.512 3.59902 -3.90697 0
M  V30 2201 C 198.551 3.37692 -5.1052 0
M  V30 2202 N 197.688 4.5573 -5.34092 0
M  V30 2203 H 202.528 0.82467 -2.86362 0
M  V30 2204 H 200.065 0.395756 -1.41676 0
M  V30 2205 H 202.023 3.28713 -2.56912 0
M  V30 2206 H 200.653 2.85059 -1.51463 0
M  V30 2207 H 199.705 1.47572 -3.50609 0
M  V30 2208 H 201.017 2.13539 -4.5078 0
M  V30 2209 H 200.171 4.45813 -4.11505 0
M  V30 2210 H 198.91 3.83357 -3.01477 0
M  V30 2211 H 197.915 2.5017 -4.89587 0
M  V30 2212 H 199.14 3.15637 -6.0129 0
M  V30 2213 H 197.086 4.79361 -4.47827 0
M  V30 2214 H 197.003 4.38274 -6.15996 0
M  V30 2215 H 198.271 5.42858 -5.59397 0
M  V30 2216 N 202.5 1.5196 0.417844 0
M  V30 2217 C 203.448 1.75278 1.52907 0
M  V30 2218 C 204.442 0.619611 1.57662 0
M  V30 2219 O 205.648 0.801457 1.61173 0
M  V30 2220 H 202.023 0.554141 0.508362 0
M  V30 2221 H 203.994 2.68389 1.30422 0
M  V30 2222 C 202.743 1.91262 2.90369 0
M  V30 2223 H 202.066 2.77872 2.8745 0
M  V30 2224 H 203.506 2.11581 3.67436 0
M  V30 2225 C 201.965 0.677431 3.30019 0
M  V30 2226 O 202.495 -0.158799 4.01386 0
M  V30 2227 N 200.701 0.515851 2.85985 0
M  V30 2228 H 200.248 1.19744 2.28077 0
M  V30 2229 H 200.206 -0.309315 3.12875 0
M  V30 2230 N 203.978 -0.674533 1.42435 0
M  V30 2231 C 204.908 -1.80009 1.48724 0
M  V30 2232 C 205.889 -1.6659 0.343793 0
M  V30 2233 O 207.074 -1.86007 0.558137 0
M  V30 2234 C 204.204 -3.18306 1.38919 0
M  V30 2235 C 203.158 -3.46461 2.51294 0
M  V30 2236 C 202.484 -4.84335 2.26547 0
M  V30 2237 C 203.784 -3.43328 3.93603 0
M  V30 2238 H 205.478 -1.75004 2.42928 0
M  V30 2239 H 203.024 -0.840533 1.16923 0
M  V30 2240 H 204.977 -3.9678 1.41927 0
M  V30 2241 H 203.701 -3.2399 0.412094 0
M  V30 2242 H 202.36 -2.70348 2.47604 0
M  V30 2243 H 202.008 -4.86669 1.2713 0
M  V30 2244 H 201.708 -5.04136 3.01861 0
M  V30 2245 H 203.232 -5.65094 2.31304 0
M  V30 2246 H 204.646 -4.11772 3.98894 0
M  V30 2247 H 203.043 -3.74664 4.68771 0
M  V30 2248 H 204.113 -2.41897 4.20255 0
M  V30 2249 N 205.456 -1.28612 -0.910864 0
M  V30 2250 C 206.684 -1.18792 -1.69399 0
M  V30 2251 C 207.099 0.253039 -1.87097 0
M  V30 2252 O 206.456 1.17071 -1.40003 0
M  V30 2253 C 206.507 -1.88511 -3.08457 0
M  V30 2254 O 206.228 -3.26979 -2.91576 0
M  V30 2255 C 207.729 -1.85029 -4.02839 0
M  V30 2256 H 204.949 -0.412233 -0.529438 0
M  V30 2257 H 207.493 -1.69788 -1.13984 0
M  V30 2258 H 205.648 -1.41379 -3.60681 0
M  V30 2259 H 206.062 -3.61936 -3.79608 0
M  V30 2260 H 207.536 -2.38395 -4.97867 0
M  V30 2261 H 208.013 -0.823303 -4.31414 0
M  V30 2262 H 208.619 -2.31853 -3.56545 0
M  V30 2263 N 206.934 1.1197 -1.10907 0
M  V30 2264 C 207.844 2.21433 -0.774896 0
M  V30 2265 C 208.86 1.72478 0.229657 0
M  V30 2266 O 210.036 2.01288 0.0672008 0
M  V30 2267 C 207.101 3.4602 -0.216986 0
M  V30 2268 C 206.162 4.09791 -1.27944 0
M  V30 2269 C 205.395 5.28431 -0.748055 0
M  V30 2270 O 205.618 5.68823 0.423833 0
M  V30 2271 O 204.552 5.82644 -1.51027 0
M  V30 2272 H 208.378 2.5242 -1.68873 0
M  V30 2273 H 205.963 1.20399 -0.884555 0
M  V30 2274 H 207.845 4.21304 0.090059 0
M  V30 2275 H 206.52 3.16698 0.669633 0
M  V30 2276 H 205.427 3.36265 -1.63941 0
M  V30 2277 H 206.76 4.4328 -2.13925 0
M  V30 2278 N 208.412 0.89855 1.29475 0
M  V30 2279 C 209.661 0.519863 1.94885 0
M  V30 2280 C 209.974 -0.9383 1.71625 0
M  V30 2281 O 211.18 -1.42445 2.31131 0
M  V30 2282 C 209.636 0.878836 3.49005 0
M  V30 2283 C 209.244 2.35569 3.81066 0
M  V30 2284 C 210.988 0.570004 4.20656 0
M  V30 2285 C 208.895 2.65558 5.28425 0
M  V30 2286 H 207.825 0.190692 0.729488 0
M  V30 2287 H 210.476 1.09539 1.47219 0
M  V30 2288 H 208.858 0.232253 3.95318 0
M  V30 2289 H 210.032 3.04773 3.45616 0
M  V30 2290 H 208.347 2.63343 3.22552 0
M  V30 2291 H 210.944 0.770925 5.29113 0
M  V30 2292 H 211.287 -0.491404 4.1339 0
M  V30 2293 H 211.82 1.17438 3.8007 0
M  V30 2294 H 208.559 3.70493 5.40754 0
M  V30 2295 H 208.079 2.00977 5.65127 0
M  V30 2296 H 209.758 2.51765 5.96006 0
M  V30 2297 N 209.89 -1.43072 0.660911 0
M  V30 2298 C 210.82 -2.33497 -0.0122829 0
M  V30 2299 C 211.801 -1.49903 -0.803925 0
M  V30 2300 O 212.986 -1.78546 -0.763864 0
M  V30 2301 C 210.116 -3.33363 -0.973994 0
M  V30 2302 C 209.07 -4.27003 -0.291928 0
M  V30 2303 C 208.396 -5.16967 -1.36562 0
M  V30 2304 C 209.696 -5.15816 0.820462 0
M  V30 2305 H 211.39 -2.90038 0.742873 0
M  V30 2306 H 208.936 -1.39461 0.358688 0
M  V30 2307 H 210.889 -3.95524 -1.45392 0
M  V30 2308 H 209.613 -2.75095 -1.7604 0
M  V30 2309 H 208.272 -3.66217 0.167623 0
M  V30 2310 H 207.92 -4.55034 -2.14366 0
M  V30 2311 H 207.62 -5.80441 -0.914454 0
M  V30 2312 H 209.144 -5.82003 -1.84675 0
M  V30 2313 H 210.558 -5.71742 0.422366 0
M  V30 2314 H 208.955 -5.8805 1.19656 0
M  V30 2315 H 210.025 -4.55045 1.67518 0
M  V30 2316 N 211.368 -0.403325 -1.52352 0
M  V30 2317 C 212.316 0.439752 -2.28405 0
M  V30 2318 C 213.31 1.05089 -1.32863 0
M  V30 2319 O 214.516 0.989759 -1.50345 0
M  V30 2320 H 210.891 0.160587 -0.734653 0
M  V30 2321 H 212.862 -0.222983 -2.97566 0
M  V30 2322 C 211.611 1.54736 -3.11371 0
M  V30 2323 H 210.934 1.08643 -3.84755 0
M  V30 2324 H 212.374 2.1112 -3.67701 0
M  V30 2325 C 210.833 2.51141 -2.24566 0
M  V30 2326 O 211.363 3.54887 -1.88196 0
M  V30 2327 N 209.569 2.21213 -1.8845 0
M  V30 2328 H 209.116 1.36878 -2.18225 0
M  V30 2329 H 209.074 2.85963 -1.30662 0
M  V30 2330 N 212.846 1.57033 -0.133567 0
M  V30 2331 C 214.094 1.953 0.519848 0
M  V30 2332 C 214.415 1.01866 1.66278 0
M  V30 2333 O 213.685 0.0776513 1.95746 0
M  V30 2334 H 212.265 0.721091 0.195032 0
M  V30 2335 H 214.927 1.93809 -0.205921 0
M  V30 2336 H 214.023 2.98695 0.904854 0
M  V30 2337 N 214.325 -0.140222 1.56975 0
M  V30 2338 C 215.573 -0.850005 1.83356 0
M  V30 2339 C 215.894 -1.81399 0.71551 0
M  V30 2340 O 215.164 -1.94136 -0.262294 0
M  V30 2341 H 213.744 -0.316886 0.676456 0
M  V30 2342 H 216.406 -0.132608 1.94448 0
M  V30 2343 H 215.502 -1.40814 2.78528 0
M  V30 2344 N 215.803 -1.52179 -0.40978 0
M  V30 2345 C 217.049 -1.66453 -1.15851 0
M  V30 2346 C 217.382 -0.392972 -1.90182 0
M  V30 2347 O 216.657 0.608579 -1.84734 0
M  V30 2348 C 216.94 -2.88612 -2.15349 0
M  V30 2349 C 216.793 -4.25815 -1.44918 0
M  V30 2350 C 218.112 -3.06294 -3.16026 0
M  V30 2351 H 215.231 -0.60575 -0.419805 0
M  V30 2352 H 217.873 -1.84732 -0.444314 0
M  V30 2353 H 216.023 -2.73158 -2.76255 0
M  V30 2354 H 217.695 -4.52995 -0.871365 0
M  V30 2355 H 215.938 -4.27247 -0.751159 0
M  V30 2356 H 216.609 -5.07337 -2.17516 0
M  V30 2357 H 219.085 -3.20641 -2.65195 0
M  V30 2358 H 217.961 -3.93283 -3.8291 0
M  V30 2359 H 218.222 -2.19579 -3.83715 0
M  V30 2360 N 217.281 0.66697 -1.42791 0
M  V30 2361 C 218.511 1.45294 -1.46878 0
M  V30 2362 C 218.919 1.89027 -0.0809861 0
M  V30 2363 O 218.262 1.59219 0.916246 0
M  V30 2364 C 218.324 2.72908 -2.34012 0
M  V30 2365 C 217.988 2.51203 -3.81767 0
M  V30 2366 C 218.985 2.15302 -4.73224 0
M  V30 2367 C 216.67 2.65954 -4.26115 0
M  V30 2368 C 218.664 1.94431 -6.07022 0
M  V30 2369 C 216.351 2.44699 -5.59969 0
M  V30 2370 C 217.349 2.08992 -6.5024 0
M  V30 2371 O 217.037 1.87948 -7.81621 0
M  V30 2372 H 216.769 0.453306 -0.501487 0
M  V30 2373 H 219.323 0.826232 -1.88049 0
M  V30 2374 H 217.553 3.38089 -1.87703 0
M  V30 2375 H 219.242 3.34816 -2.29462 0
M  V30 2376 H 220.008 2.03495 -4.40244 0
M  V30 2377 H 215.887 2.92724 -3.56137 0
M  V30 2378 H 219.431 1.66484 -6.77443 0
M  V30 2379 H 215.328 2.56105 -5.9252 0
M  V30 2380 H 216.096 2.02483 -7.93059 0
M  V30 2381 N 218.759 1.29093 0.90403 0
M  V30 2382 C 220.005 1.16986 1.65656 0
M  V30 2383 C 220.338 -0.278925 1.92186 0
M  V30 2384 O 219.613 -1.2019 1.5292 0
M  V30 2385 C 219.896 1.97908 3.0084 0
M  V30 2386 C 219.749 3.50903 2.81403 0
M  V30 2387 C 221.068 1.80208 4.01513 0
M  V30 2388 H 218.187 0.426346 0.601164 0
M  V30 2389 H 220.829 1.58518 1.04747 0
M  V30 2390 H 218.979 1.62616 3.52829 0
M  V30 2391 H 220.651 3.96153 2.36348 0
M  V30 2392 H 218.894 3.76045 2.1627 0
M  V30 2393 H 219.565 4.02791 3.77443 0
M  V30 2394 H 222.041 2.11025 3.58619 0
M  V30 2395 H 220.917 2.39184 4.94047 0
M  V30 2396 H 221.178 0.756119 4.35586 0
M  V30 2397 N 220.237 -1.11381 1.11499 0
M  V30 2398 C 221.514 -1.7955 0.775965 0
M  V30 2399 C 221.894 -1.97859 -0.73588 0
M  V30 2400 O 221.242 -1.56376 -1.66609 0
M  V30 2401 C 221.452 -3.13196 1.53977 0
M  V30 2402 C 222.8 -3.88227 1.71944 0
M  V30 2403 O 223.824 -3.22887 1.50407 0
M  V30 2404 O 222.683 -5.05477 2.07738 0
M  V30 2405 H 219.777 -0.777728 0.28119 0
M  V30 2406 H 222.323 -1.18118 1.21845 0
M  V30 2407 H 221.095 -2.95229 2.56818 0
M  V30 2408 H 220.718 -3.82342 1.09088 0
M  V30 2409 N 221.715 -0.905404 -1.28997 0
M  V30 2410 C 222.647 -0.344748 -2.26592 0
M  V30 2411 C 223.66 0.512135 -1.54535 0
M  V30 2412 O 224.849 0.328368 -1.75454 0
M  V30 2413 C 221.949 0.526587 -3.34784 0
M  V30 2414 C 221.122 -0.305871 -4.36329 0
M  V30 2415 C 220.181 0.499209 -5.23827 0
M  V30 2416 O 219.207 -0.0853004 -5.69136 0
M  V30 2417 N 220.409 1.80408 -5.51755 0
M  V30 2418 H 223.174 -1.18359 -2.75338 0
M  V30 2419 H 220.735 -0.770481 -1.42391 0
M  V30 2420 H 222.727 1.07171 -3.90252 0
M  V30 2421 H 221.297 1.26613 -2.85811 0
M  V30 2422 H 220.517 -1.0324 -3.80441 0
M  V30 2423 H 221.805 -0.875773 -5.01206 0
M  V30 2424 H 221.203 2.3016 -5.16762 0
M  V30 2425 H 219.76 2.29621 -6.10014 0
M  V30 2426 N 223.193 1.4272 -0.668489 0
M  V30 2427 C 224.141 2.32586 0.0254857 0
M  V30 2428 C 225.135 1.49471 0.797176 0
M  V30 2429 O 226.341 1.65583 0.705853 0
M  V30 2430 H 222.716 0.751514 0.0270339 0
M  V30 2431 H 224.687 2.88823 -0.749936 0
M  V30 2432 C 223.436 3.3397 0.967427 0
M  V30 2433 H 222.759 3.97961 0.383048 0
M  V30 2434 H 224.199 3.9945 1.42181 0
M  V30 2435 C 222.658 2.65744 2.0708 0
M  V30 2436 O 223.188 2.48454 3.15648 0
M  V30 2437 N 221.394 2.2487 1.8407 0
M  V30 2438 H 220.941 2.39132 0.95778 0
M  V30 2439 H 220.899 1.79552 2.58086 0
M  V30 2440 N 224.671 0.411399 1.52136 0
M  V30 2441 C 225.618 -0.412975 2.27075 0
M  V30 2442 C 226.588 -1.03912 1.29582 0
M  V30 2443 O 227.773 -1.06296 1.58448 0
M  V30 2444 C 224.913 -1.52247 3.09701 0
M  V30 2445 C 224.026 -0.917021 4.22155 0
M  V30 2446 C 223.161 -1.9994 4.92135 0
M  V30 2447 C 222.2 -1.37101 5.96548 0
M  V30 2448 N 221.337 -2.39364 6.60038 0
M  V30 2449 H 226.177 0.232499 2.97092 0
M  V30 2450 H 223.714 0.126496 1.46555 0
M  V30 2451 H 225.672 -2.17674 3.55913 0
M  V30 2452 H 224.302 -2.13794 2.41851 0
M  V30 2453 H 223.354 -0.151742 3.80097 0
M  V30 2454 H 224.666 -0.418006 4.97045 0
M  V30 2455 H 223.82 -2.73088 5.41763 0
M  V30 2456 H 222.559 -2.53208 4.16818 0
M  V30 2457 H 221.564 -0.624873 5.46237 0
M  V30 2458 H 222.789 -0.845998 6.7381 0
M  V30 2459 H 220.735 -2.91759 5.87548 0
M  V30 2460 H 220.652 -1.9428 7.3061 0
M  V30 2461 H 221.92 -3.12074 7.14304 0
M  V30 2462 N 226.149 -1.5696 0.141893 0
M  V30 2463 C 227.396 -1.9596 -0.510492 0
M  V30 2464 C 227.724 -1.02648 -1.65208 0
M  V30 2465 O 226.979 -0.0546947 -1.95624 0
M  V30 2466 C 227.278 -3.41242 -1.06249 0
M  V30 2467 C 226.944 -4.50882 -0.0398791 0
M  V30 2468 C 225.606 -4.80595 0.241247 0
M  V30 2469 C 227.958 -5.17058 0.65578 0
M  V30 2470 C 225.286 -5.73792 1.22393 0
M  V30 2471 C 227.638 -6.11313 1.62724 0
M  V30 2472 C 226.302 -6.39407 1.91612 0
M  V30 2473 H 225.572 -0.717068 -0.186802 0
M  V30 2474 H 228.219 -1.90142 0.227643 0
M  V30 2475 H 226.524 -3.43866 -1.87785 0
M  V30 2476 H 228.221 -3.68742 -1.57576 0
M  V30 2477 H 224.811 -4.27754 -0.269174 0
M  V30 2478 H 228.995 -4.94239 0.451779 0
M  V30 2479 H 224.251 -5.93853 1.45424 0
M  V30 2480 H 228.425 -6.61668 2.17183 0
M  V30 2481 H 226.052 -7.11427 2.6791 0
M  V30 2482 N 227.627 0.131896 -1.57047 0
M  V30 2483 C 228.557 1.16384 -2.02428 0
M  V30 2484 C 229.538 1.43936 -0.90644 0
M  V30 2485 O 230.723 1.54599 -1.17528 0
M  V30 2486 C 227.853 2.49328 -2.4177 0
M  V30 2487 C 226.807 2.36266 -3.56879 0
M  V30 2488 C 226.133 3.74057 -3.8208 0
M  V30 2489 C 227.433 1.834 -4.89042 0
M  V30 2490 H 229.127 0.786433 -2.88887 0
M  V30 2491 H 226.673 0.376855 -1.38981 0
M  V30 2492 H 228.626 3.21759 -2.7212 0
M  V30 2493 H 227.35 2.88934 -1.52266 0
M  V30 2494 H 226.009 1.66286 -3.26718 0
M  V30 2495 H 225.657 4.11125 -2.89803 0
M  V30 2496 H 225.357 3.66174 -4.59554 0
M  V30 2497 H 226.881 4.48012 -4.1487 0
M  V30 2498 H 228.295 2.45636 -5.18011 0
M  V30 2499 H 226.692 1.8637 -5.70426 0
M  V30 2500 H 227.762 0.790662 -4.7841 0
M  V30 2501 N 229.106 1.52395 0.401703 0
M  V30 2502 C 230.346 1.68498 1.15705 0
M  V30 2503 C 230.71 0.409748 1.87577 0
M  V30 2504 O 231.911 0.446983 2.65058 0
M  V30 2505 C 230.182 2.87789 2.11924 0
M  V30 2506 S 231.741 3.24415 2.95466 0
M  V30 2507 H 228.559 0.593267 0.391862 0
M  V30 2508 H 231.161 1.90408 0.443282 0
M  V30 2509 H 229.865 3.7884 1.57824 0
M  V30 2510 H 229.396 2.68175 2.87829 0
M  V30 2511 H 231.411 2.73614 4.13944 0
M  V30 2512 N 230.584 -0.659388 1.43143 0
M  V30 2513 C 231.814 -1.44513 1.47646 0
M  V30 2514 C 232.222 -1.88981 0.0910095 0
M  V30 2515 O 231.565 -1.59702 -0.907789 0
M  V30 2516 C 231.627 -2.71663 2.35456 0
M  V30 2517 C 231.291 -2.49175 3.83094 0
M  V30 2518 C 232.288 -2.1279 4.74359 0
M  V30 2519 C 229.973 -2.63691 4.27519 0
M  V30 2520 C 231.967 -1.9121 6.08044 0
M  V30 2521 C 229.654 -2.41726 5.61259 0
M  V30 2522 C 230.652 -2.0554 6.51339 0
M  V30 2523 O 230.34 -1.838 7.82606 0
M  V30 2524 H 230.072 -0.45064 0.503884 0
M  V30 2525 H 232.626 -0.816248 1.88485 0
M  V30 2526 H 230.856 -3.37089 1.89493 0
M  V30 2527 H 232.545 -3.33595 2.31235 0
M  V30 2528 H 233.311 -2.01157 4.41317 0
M  V30 2529 H 229.19 -2.90832 3.57684 0
M  V30 2530 H 232.734 -1.62889 6.78316 0
M  V30 2531 H 228.631 -2.52959 5.9387 0
M  V30 2532 H 229.399 -1.98275 7.94122 0
M  V30 2533 N 232.062 -1.29571 -0.897171 0
M  V30 2534 C 233.025 -1.14913 -1.98312 0
M  V30 2535 C 234.025 -0.0838629 -1.60581 0
M  V30 2536 O 235.215 -0.331006 -1.71026 0
M  V30 2537 C 232.347 -0.757835 -3.3237 0
M  V30 2538 H 233.54 -2.11377 -2.12743 0
M  V30 2539 H 231.093 -1.12793 -1.08201 0
M  V30 2540 H 231.828 0.206837 -3.2364 0
M  V30 2541 H 231.613 -1.52755 -3.61121 0
M  V30 2542 H 233.103 -0.678408 -4.12053 0
M  V30 2543 N 233.54 1.10788 -1.12088 0
M  V30 2544 C 234.817 1.79136 -0.785476 0
M  V30 2545 C 235.197 1.98246 0.725377 0
M  V30 2546 O 234.545 1.57258 1.65778 0
M  V30 2547 C 234.755 3.12375 -1.55636 0
M  V30 2548 C 236.103 3.8731 -1.74001 0
M  V30 2549 O 237.127 3.22085 -1.52117 0
M  V30 2550 O 235.986 5.04369 -2.10415 0
M  V30 2551 H 233.08 0.776226 -0.285311 0
M  V30 2552 H 235.626 1.1747 -1.2247 0
M  V30 2553 H 234.398 2.93863 -2.5838 0
M  V30 2554 H 234.021 3.81758 -1.11114 0
M  V30 2555 N 235.018 0.912232 1.28515 0
M  V30 2556 C 236.246 0.560416 1.99166 0
M  V30 2557 C 236.661 -0.857927 1.68182 0
M  V30 2558 O 236.018 -1.56805 0.933733 0
M  V30 2559 C 236.069 0.758142 3.53461 0
M  V30 2560 O 235.79 2.12067 3.83352 0
M  V30 2561 C 237.291 0.412954 4.41372 0
M  V30 2562 H 234.511 0.213805 0.636026 0
M  V30 2563 H 237.055 1.22502 1.63749 0
M  V30 2564 H 235.21 0.140556 3.87145 0
M  V30 2565 H 235.624 2.15923 4.77993 0
M  V30 2566 H 237.098 0.60208 5.48707 0
M  V30 2567 H 237.575 -0.65073 4.34353 0
M  V30 2568 H 238.181 1.00802 4.13182 0
M  V30 2569 N 236.496 -1.42363 0.676048 0
M  V30 2570 C 237.745 -2.00745 0.196037 0
M  V30 2571 C 238.058 -1.54083 -1.20489 0
M  V30 2572 O 239.264 -2.04891 -1.78134 0
M  V30 2573 C 237.72 -3.58651 0.299616 0
M  V30 2574 C 237.328 -4.143 1.70468 0
M  V30 2575 C 239.072 -4.24326 -0.121619 0
M  V30 2576 C 236.979 -5.64574 1.76096 0
M  V30 2577 H 235.909 -0.750787 0.0695301 0
M  V30 2578 H 238.56 -1.63072 0.841412 0
M  V30 2579 H 236.942 -3.93833 -0.413673 0
M  V30 2580 H 238.116 -3.90575 2.44515 0
M  V30 2581 H 236.431 -3.61081 2.07387 0
M  V30 2582 H 239.028 -5.34607 -0.0997362 0
M  V30 2583 H 239.371 -3.99897 -1.15708 0
M  V30 2584 H 239.904 -3.94108 0.540706 0
M  V30 2585 H 236.643 -5.93804 2.77628 0
M  V30 2586 H 236.163 -5.90286 1.06406 0
M  V30 2587 H 237.842 -6.29013 1.51496 0
M  V30 2588 N 237.974 -0.419461 -1.51915 0
M  V30 2589 C 238.924 0.418496 -2.24126 0
M  V30 2590 C 239.908 1.00495 -1.25656 0
M  V30 2591 O 241.1 0.926058 -1.50842 0
M  V30 2592 C 238.229 1.52899 -3.07371 0
M  V30 2593 C 237.315 0.952797 -4.13258 0
M  V30 2594 N 237.706 0.104175 -5.05693 0
M  V30 2595 C 236.004 1.22224 -4.28926 0
M  V30 2596 C 236.705 -0.21752 -5.81293 0
M  V30 2597 N 235.681 0.394293 -5.42168 0
M  V30 2598 H 239.483 -0.236048 -2.92951 0
M  V30 2599 H 236.997 -0.230481 -1.60756 0
M  V30 2600 H 238.994 2.14199 -3.57665 0
M  V30 2601 H 237.654 2.18605 -2.40088 0
M  V30 2602 H 238.665 -0.260924 -5.17242 0
M  V30 2603 H 235.342 1.87812 -3.72871 0
M  V30 2604 H 236.732 -0.906992 -6.6575 0
M  V30 2605 N 239.452 1.56882 -0.150215 0
M  V30 2606 C 240.698 1.97299 0.494427 0
M  V30 2607 C 241.053 1.0338 1.62266 0
M  V30 2608 O 240.346 0.0694497 1.91474 0
M  V30 2609 C 240.54 3.41801 1.04437 0
M  V30 2610 C 240.369 4.49691 -0.0290451 0
M  V30 2611 C 239.139 5.03095 -0.47156 0
M  V30 2612 C 241.337 5.07693 -0.821703 0
M  V30 2613 N 239.319 5.94593 -1.52749 0
M  V30 2614 C 240.69 5.95431 -1.72805 0
M  V30 2615 C 242.745 4.90256 -0.869134 0
M  V30 2616 C 241.448 6.67599 -2.67777 0
M  V30 2617 C 243.474 5.63127 -1.8067 0
M  V30 2618 C 242.836 6.50576 -2.70057 0
M  V30 2619 H 238.935 0.76755 0.149639 0
M  V30 2620 H 241.519 1.93145 -0.24556 0
M  V30 2621 H 239.69 3.46541 1.75396 0
M  V30 2622 H 241.422 3.69272 1.6559 0
M  V30 2623 H 238.177 4.73543 -0.0732101 0
M  V30 2624 H 238.601 6.45047 -2.05531 0
M  V30 2625 H 243.243 4.22363 -0.192134 0
M  V30 2626 H 240.961 7.34717 -3.36476 0
M  V30 2627 H 244.547 5.51629 -1.84924 0
M  V30 2628 H 243.427 7.05974 -3.41424 0
M  V30 2629 N 240.93 -0.123565 1.57115 0
M  V30 2630 C 241.862 -1.17739 1.96648 0
M  V30 2631 C 242.875 -1.37906 0.865201 0
M  V30 2632 O 244.064 -1.37062 1.14351 0
M  V30 2633 C 241.164 -2.53821 2.24562 0
M  V30 2634 C 240.337 -2.54317 3.55867 0
M  V30 2635 C 239.396 -3.72112 3.72047 0
M  V30 2636 O 238.422 -3.55907 4.44206 0
M  V30 2637 N 239.624 -4.90498 3.10471 0
M  V30 2638 H 242.389 -0.841147 2.87654 0
M  V30 2639 H 239.95 -0.31289 1.58848 0
M  V30 2640 H 241.942 -3.31175 2.32606 0
M  V30 2641 H 240.512 -2.79645 1.39705 0
M  V30 2642 H 239.732 -1.62711 3.59053 0
M  V30 2643 H 241.02 -2.51701 4.42181 0
M  V30 2644 H 240.418 -5.06567 2.51806 0
M  V30 2645 H 238.975 -5.65544 3.24043 0
M  V30 2646 N 242.408 -1.52605 -0.393616 0
M  V30 2647 C 243.685 -1.58001 -1.15304 0
M  V30 2648 C 244.065 -0.370385 -2.07825 0
M  V30 2649 O 243.413 0.641638 -2.19306 0
M  V30 2650 C 243.623 -2.91652 -1.91677 0
M  V30 2651 C 244.971 -3.4522 -2.47201 0
M  V30 2652 O 245.995 -2.93495 -2.01839 0
M  V30 2653 O 244.854 -4.35579 -3.3005 0
M  V30 2654 H 241.948 -0.637068 -0.527327 0
M  V30 2655 H 244.494 -1.64939 -0.399141 0
M  V30 2656 H 243.266 -3.71136 -1.23992 0
M  V30 2657 H 242.889 -2.88077 -2.74039 0
M  V30 2658 N 243.887 0.651787 -1.4349 0
M  V30 2659 C 245.136 1.40754 -1.44469 0
M  V30 2660 C 245.449 1.95463 -0.0731845 0
M  V30 2661 O 246.655 2.71471 0.0395721 0
M  V30 2662 C 245.111 2.54735 -2.5424 0
M  V30 2663 C 244.719 2.06628 -3.97504 0
M  V30 2664 C 246.463 3.32092 -2.64414 0
M  V30 2665 C 244.37 3.17829 -4.98737 0
M  V30 2666 H 243.3 0.528862 -0.53742 0
M  V30 2667 H 245.951 0.703365 -1.69485 0
M  V30 2668 H 244.333 3.2763 -2.22428 0
M  V30 2669 H 245.507 1.40734 -4.38783 0
M  V30 2670 H 243.822 1.42146 -3.91387 0
M  V30 2671 H 246.419 4.14952 -3.37223 0
M  V30 2672 H 246.762 3.80217 -1.69532 0
M  V30 2673 H 247.295 2.66279 -2.95534 0
M  V30 2674 H 244.034 2.74671 -5.95177 0
M  V30 2675 H 243.554 3.82429 -4.62069 0
M  V30 2676 H 245.233 3.82937 -5.21505 0
M  V30 2677 N 245.365 1.30045 0.890287 0
M  V30 2678 C 246.611 1.18737 1.64406 0
M  V30 2679 C 246.944 -0.258525 1.92472 0
M  V30 2680 O 246.219 -1.18562 1.54186 0
M  V30 2681 C 246.502 2.01087 2.98724 0
M  V30 2682 C 246.355 3.53867 2.77665 0
M  V30 2683 C 247.674 1.84457 3.9958 0
M  V30 2684 H 244.793 0.432698 0.596608 0
M  V30 2685 H 247.435 1.5962 1.0306 0
M  V30 2686 H 245.585 1.66349 3.51084 0
M  V30 2687 H 247.257 3.98637 2.32133 0
M  V30 2688 H 245.5 3.78318 2.12269 0
M  V30 2689 H 246.171 4.06772 3.7315 0
M  V30 2690 H 248.647 2.14817 3.56361 0
M  V30 2691 H 247.523 2.44411 4.91482 0
M  V30 2692 H 247.784 0.802276 4.3476 0
M  V30 2693 N 246.843 -1.10192 1.12674 0
M  V30 2694 C 248.259 -1.34235 0.863317 0
M  V30 2695 C 248.459 -1.95062 -0.505277 0
M  V30 2696 O 247.515 -2.19192 -1.25345 0
M  V30 2697 C 248.828 -2.2616 1.98172 0
M  V30 2698 C 250.376 -2.3969 2.0129 0
M  V30 2699 C 250.851 -3.34946 3.1237 0
M  V30 2700 N 252.342 -3.42515 3.11829 0
M  V30 2701 C 253.077 -4.16199 3.94419 0
M  V30 2702 N 252.573 -4.92747 4.87004 0
M  V30 2703 N 254.366 -4.11843 3.82547 0
M  V30 2704 H 246.517 -0.690798 2.00853 0
M  V30 2705 H 248.78 -0.366774 0.874174 0
M  V30 2706 H 248.486 -1.8868 2.96804 0
M  V30 2707 H 248.36 -3.26488 1.88906 0
M  V30 2708 H 250.747 -2.76438 1.03276 0
M  V30 2709 H 250.828 -1.39169 2.14629 0
M  V30 2710 H 250.472 -2.98923 4.10619 0
M  V30 2711 H 250.402 -4.35353 2.96269 0
M  V30 2712 H 252.893 -2.87926 2.44759 0
M  V30 2713 H 253.206 -5.46376 5.46528 0
M  V30 2714 H 251.551 -4.91862 4.91016 0
M  V30 2715 H 254.742 -3.51136 3.0955 0
M  V30 2716 H 254.915 -4.69007 4.47142 0
M  V30 2717 N 248.321 -0.919034 -1.28029 0
M  V30 2718 C 249.269 -0.401753 -2.29104 0
M  V30 2719 C 250.263 0.509354 -1.61561 0
M  V30 2720 O 251.469 0.390014 -1.75724 0
M  V30 2721 H 247.844 -0.111331 -0.743713 0
M  V30 2722 H 249.815 -1.2672 -2.70156 0
M  V30 2723 C 248.564 0.338148 -3.46052 0
M  V30 2724 H 247.887 -0.353732 -3.98232 0
M  V30 2725 H 249.327 0.664653 -4.18758 0
M  V30 2726 C 247.786 1.54798 -2.99231 0
M  V30 2727 O 248.316 2.64696 -3.02157 0
M  V30 2728 N 246.522 1.3968 -2.54829 0
M  V30 2729 H 246.069 0.502698 -2.52647 0
M  V30 2730 H 246.027 2.20755 -2.23863 0
M  V30 2731 N 249.799 1.42003 -0.683588 0
M  V30 2732 C 251.21 1.84501 -0.285736 0
M  V30 2733 C 251.561 1.57213 1.17382 0
M  V30 2734 O 250.686 1.03642 1.89966 0
M  V30 2735 C 251.281 3.34912 -0.511821 0
M  V30 2736 C 249.84 3.76025 -0.168005 0
M  V30 2737 C 248.987 2.6551 -0.799983 0
M  V30 2738 H 251.938 1.31724 -0.885119 0
M  V30 2739 H 251.959 3.79784 0.233292 0
M  V30 2740 H 251.471 3.54741 -1.57418 0
M  V30 2741 H 249.572 3.61801 0.890567 0
M  V30 2742 H 249.685 4.75141 -0.614661 0
M  V30 2743 H 248.049 2.53654 -0.230568 0
M  V30 2744 H 248.832 2.8816 -1.86597 0
M  V30 2745 N 251.277 0.427512 1.51691 0
M  V30 2746 C 252.523 -0.134744 2.02953 0
M  V30 2747 C 252.878 -1.41235 1.30654 0
M  V30 2748 O 252.171 -1.87168 0.409713 0
M  V30 2749 C 252.365 -0.418249 3.54944 0
M  V30 2750 C 252.194 0.830327 4.41968 0
M  V30 2751 C 250.964 1.36097 4.86627 0
M  V30 2752 C 253.162 1.7137 4.84909 0
M  V30 2753 N 251.144 2.56311 5.57833 0
M  V30 2754 C 252.515 2.76195 5.55082 0
M  V30 2755 C 254.57 1.72928 4.66905 0
M  V30 2756 C 253.273 3.82512 6.09161 0
M  V30 2757 C 255.299 2.78175 5.21894 0
M  V30 2758 C 254.661 3.8172 5.92004 0
M  V30 2759 H 250.76 -0.0103958 0.781931 0
M  V30 2760 H 253.344 0.585981 1.85673 0
M  V30 2761 H 251.515 -1.10801 3.7226 0
M  V30 2762 H 253.247 -0.970999 3.92879 0
M  V30 2763 H 250.002 0.916311 4.64651 0
M  V30 2764 H 250.426 3.17242 5.98069 0
M  V30 2765 H 255.068 0.942081 4.12171 0
M  V30 2766 H 252.786 4.62077 6.62956 0
M  V30 2767 H 256.372 2.8031 5.09821 0
M  V30 2768 H 255.252 4.61821 6.33791 0
M  V30 2769 N 252.755 -1.56801 0.158532 0
M  V30 2770 C 254.166 -1.83189 -0.360366 0
M  V30 2771 C 254.517 -1.07778 -1.63946 0
M  V30 2772 O 253.642 -0.326718 -2.13919 0
M  V30 2773 C 254.237 -3.32297 -0.660595 0
M  V30 2774 C 252.796 -3.59227 -1.12398 0
M  V30 2775 C 251.943 -2.76877 -0.153097 0
M  V30 2776 H 254.894 -1.54008 0.383031 0
M  V30 2777 H 254.915 -3.4908 -1.51405 0
M  V30 2778 H 254.427 -3.87156 0.270527 0
M  V30 2779 H 252.528 -3.09766 -2.07064 0
M  V30 2780 H 252.641 -4.67632 -1.04197 0
M  V30 2781 H 251.005 -2.46319 -0.647983 0
M  V30 2782 H 251.788 -3.34511 0.77182 0
M  V30 2783 N 254.233 0.115231 -1.57178 0
M  V30 2784 C 255.458 0.840354 -1.89612 0
M  V30 2785 C 255.883 1.72464 -0.750845 0
M  V30 2786 O 255.241 1.78826 0.298478 0
M  V30 2787 C 255.289 1.64654 -3.20814 0
M  V30 2788 O 254.393 2.7538 -3.06985 0
M  V30 2789 H 253.734 0.232158 -0.622092 0
M  V30 2790 H 256.264 0.0964977 -2.04372 0
M  V30 2791 H 256.274 2.03499 -3.53627 0
M  V30 2792 H 254.949 0.997416 -4.03763 0
M  V30 2793 H 253.526 2.3971 -2.85646 0
M  V30 2794 N 255.711 1.52812 0.385517 0
M  V30 2795 C 256.659 1.78482 1.49155 0
M  V30 2796 C 257.653 0.652914 1.56312 0
M  V30 2797 O 258.859 0.835464 1.59436 0
M  V30 2798 H 255.234 0.5648 0.496493 0
M  V30 2799 H 257.205 2.71095 1.24699 0
M  V30 2800 C 255.954 1.97378 2.86247 0
M  V30 2801 H 255.277 2.83907 2.81491 0
M  V30 2802 H 256.717 2.19327 3.62866 0
M  V30 2803 C 255.176 0.74728 3.28508 0
M  V30 2804 O 255.706 -0.0736232 4.01633 0
M  V30 2805 N 253.912 0.576396 2.84826 0
M  V30 2806 H 253.459 1.24555 2.25486 0
M  V30 2807 H 253.417 -0.24288 3.1346 0
M  V30 2808 N 257.189 -0.644168 1.43834 0
M  V30 2809 C 258.119 -1.76814 1.52509 0
M  V30 2810 C 259.1 -1.65823 0.379052 0
M  V30 2811 O 260.285 -1.84781 0.597466 0
M  V30 2812 C 257.415 -3.15288 1.4564 0
M  V30 2813 C 256.369 -3.41053 2.58586 0
M  V30 2814 C 255.695 -4.79421 2.36769 0
M  V30 2815 C 256.995 -3.34902 4.00797 0
M  V30 2816 H 258.689 -1.69812 2.46586 0
M  V30 2817 H 256.235 -0.815542 1.1868 0
M  V30 2818 H 258.188 -3.93681 1.50311 0
M  V30 2819 H 256.912 -3.23043 0.480725 0
M  V30 2820 H 255.571 -2.65035 2.53282 0
M  V30 2821 H 255.219 -4.83863 1.37424 0
M  V30 2822 H 254.919 -4.9762 3.12487 0
M  V30 2823 H 256.443 -5.6006 2.43238 0
M  V30 2824 H 257.857 -4.03218 4.07539 0
M  V30 2825 H 256.254 -3.64637 4.76613 0
M  V30 2826 H 257.324 -2.32928 4.25291 0
M  V30 2827 N 258.668 -1.30515 -0.883378 0
M  V30 2828 C 259.896 -1.22359 -1.66841 0
M  V30 2829 C 260.311 0.213296 -1.87591 0
M  V30 2830 O 259.668 1.14075 -1.42454 0
M  V30 2831 C 259.719 -1.95011 -3.04389 0
M  V30 2832 O 259.44 -3.3309 -2.84575 0
M  V30 2833 C 260.941 -1.93532 -3.98824 0
M  V30 2834 H 258.161 -0.423371 -0.520575 0
M  V30 2835 H 260.705 -1.72167 -1.10357 0
M  V30 2836 H 258.86 -1.48997 -3.57601 0
M  V30 2837 H 259.274 -3.69907 -3.71846 0
M  V30 2838 H 260.748 -2.48902 -4.92699 0
M  V30 2839 H 261.225 -0.914627 -4.29571 0
M  V30 2840 H 261.831 -2.39364 -3.51547 0
M  V30 2841 N 260.146 1.09593 -1.13257 0
M  V30 2842 C 261.076 2.18214 -0.830946 0
M  V30 2843 C 262.057 1.68812 0.208966 0
M  V30 2844 O 263.242 1.9408 0.0682666 0
M  V30 2845 C 260.372 3.46051 -0.294296 0
M  V30 2846 C 259.326 4.08778 -1.26826 0
M  V30 2847 C 258.652 5.31419 -0.591449 0
M  V30 2848 C 259.952 4.51476 -2.62615 0
M  V30 2849 H 261.646 2.43703 -1.73923 0
M  V30 2850 H 259.192 1.17128 -0.837675 0
M  V30 2851 H 261.145 4.2134 -0.0709606 0
M  V30 2852 H 259.869 3.20079 0.649366 0
M  V30 2853 H 258.528 3.35505 -1.47756 0
M  V30 2854 H 258.176 5.01727 0.357633 0
M  V30 2855 H 257.876 5.74341 -1.24123 0
M  V30 2856 H 259.4 6.09433 -0.377355 0
M  V30 2857 H 260.814 5.17999 -2.45663 0
M  V30 2858 H 259.211 5.05277 -3.23752 0
M  V30 2859 H 260.281 3.63962 -3.20406 0
M  V30 2860 N 261.624 0.925811 1.2754 0
M  V30 2861 C 262.87 0.566092 1.94739 0
M  V30 2862 C 263.203 -0.890057 1.72603 0
M  V30 2863 O 262.478 -1.63467 1.05399 0
M  V30 2864 C 262.761 0.89054 3.48915 0
M  V30 2865 C 262.614 2.4003 3.80402 0
M  V30 2866 C 263.933 0.395101 4.38323 0
M  V30 2867 H 261.052 0.20714 0.707292 0
M  V30 2868 H 263.694 1.15725 1.50691 0
M  V30 2869 H 261.844 0.387452 3.86563 0
M  V30 2870 H 263.516 2.97494 3.52555 0
M  V30 2871 H 261.759 2.85028 3.2702 0
M  V30 2872 H 262.43 2.57785 4.8811 0
M  V30 2873 H 264.906 0.826241 4.07814 0
M  V30 2874 H 263.782 0.651086 5.45025 0
M  V30 2875 H 264.043 -0.704798 4.36446 0
M  V30 2876 N 263.102 -1.41638 0.69111 0
M  V30 2877 C 264.327 -2.06148 0.227583 0
M  V30 2878 C 264.752 -1.51652 -1.11281 0
M  V30 2879 O 264.11 -0.64164 -1.69566 0
M  V30 2880 C 264.158 -3.60095 0.190858 0
M  V30 2881 O 263.262 -4.03845 -0.835664 0
M  V30 2882 H 262.603 -0.654434 0.112306 0
M  V30 2883 H 265.133 -1.81484 0.944714 0
M  V30 2884 H 265.143 -4.07995 0.020207 0
M  V30 2885 H 263.818 -3.99129 1.16915 0
M  V30 2886 H 262.395 -3.67458 -0.63473 0
M  V30 2887 N 264.58 -0.43555 -1.51462 0
M  V30 2888 C 265.808 0.130242 -2.0649 0
M  V30 2889 C 266.223 1.36614 -1.30315 0
M  V30 2890 O 265.58 1.78869 -0.362223 0
M  V30 2891 C 265.631 0.454253 -3.58635 0
M  V30 2892 O 265.352 -0.73259 -4.31931 0
M  V30 2893 C 266.853 1.07091 -4.3017 0
M  V30 2894 H 264.073 0.00871669 -0.670943 0
M  V30 2895 H 266.617 -0.614117 -1.95061 0
M  V30 2896 H 264.772 1.14851 -3.69984 0
M  V30 2897 H 265.186 -0.455787 -5.22516 0
M  V30 2898 H 266.66 1.24764 -5.37716 0
M  V30 2899 H 267.137 2.05144 -3.88346 0
M  V30 2900 H 267.743 0.416089 -4.2326 0
M  V30 2901 N 266.058 1.56714 -0.166846 0
M  V30 2902 C 267.006 2.19056 0.782123 0
M  V30 2903 C 268 1.15328 1.24079 0
M  V30 2904 O 269.206 1.33537 1.20697 0
M  V30 2905 H 265.581 0.70167 0.270486 0
M  V30 2906 H 267.552 2.97494 0.232322 0
M  V30 2907 C 266.301 2.84206 2.00306 0
M  V30 2908 H 265.624 3.63748 1.65914 0
M  V30 2909 H 267.064 3.31302 2.64604 0
M  V30 2910 C 265.523 1.83744 2.82382 0
M  V30 2911 O 266.053 1.32014 3.79388 0
M  V30 2912 N 264.259 1.52601 2.47308 0
M  V30 2913 H 263.806 1.9486 1.68485 0
M  V30 2914 H 263.764 0.856351 3.02513 0
M  V30 2915 N 267.536 -0.106894 1.57237 0
M  V30 2916 C 268.784 -0.810921 1.85117 0
M  V30 2917 C 269.105 -1.7984 0.753827 0
M  V30 2918 O 268.375 -1.94649 -0.221056 0
M  V30 2919 H 266.955 -0.302466 0.683025 0
M  V30 2920 H 269.617 -0.0913324 1.94686 0
M  V30 2921 H 268.713 -1.34875 2.81452 0
M  V30 2922 N 269.014 -1.53014 -0.377408 0
M  V30 2923 C 270.239 -1.72818 -1.14668 0
M  V30 2924 C 270.664 -0.450725 -1.8262 0
M  V30 2925 O 270.022 0.59439 -1.7128 0
M  V30 2926 C 270.07 -2.88627 -2.16164 0
M  V30 2927 O 269.174 -2.56409 -3.22998 0
M  V30 2928 H 268.515 -0.574301 -0.333278 0
M  V30 2929 H 271.045 -1.99853 -0.438152 0
M  V30 2930 H 271.055 -3.14455 -2.59966 0
M  V30 2931 H 269.73 -3.81294 -1.66095 0
M  V30 2932 H 268.307 -2.4136 -2.84253 0
M  V30 2933 N 270.492 0.636531 -1.44174 0
M  V30 2934 C 271.717 1.42847 -1.50364 0
M  V30 2935 C 272.142 1.87665 -0.127867 0
M  V30 2936 O 271.5 1.58408 0.88185 0
M  V30 2937 C 271.548 2.62854 -2.4686 0
M  V30 2938 O 270.652 3.62501 -1.9664 0
M  V30 2939 H 269.993 0.427642 -0.507955 0
M  V30 2940 H 272.523 0.777422 -1.89255 0
M  V30 2941 H 272.533 3.10465 -2.64718 0
M  V30 2942 H 271.208 2.29578 -3.46795 0
M  V30 2943 H 269.785 3.21735 -1.88523 0
M  V30 2944 N 271.97 1.30982 0.876444 0
M  V30 2945 C 273.218 1.20058 1.62575 0
M  V30 2946 C 273.539 -0.242947 1.93481 0
M  V30 2947 O 272.809 -1.1619 1.57724 0
M  V30 2948 H 271.389 0.44135 0.602677 0
M  V30 2949 H 274.051 1.64222 1.04962 0
M  V30 2950 H 273.147 1.76762 2.57219 0
M  V30 2951 N 273.449 -1.08991 1.13837 0
M  V30 2952 C 274.689 -1.82867 0.913183 0
M  V30 2953 C 275.053 -1.83936 -0.550604 0
M  V30 2954 O 276.254 -2.53515 -0.893515 0
M  V30 2955 C 274.525 -3.24843 1.49036 0
M  V30 2956 S 276.084 -4.15669 1.40588 0
M  V30 2957 H 272.902 -0.630278 0.329046 0
M  V30 2958 H 275.504 -1.31049 1.45073 0
M  V30 2959 H 274.208 -3.21644 2.54899 0
M  V30 2960 H 273.739 -3.81734 0.950947 0
M  V30 2961 H 275.754 -4.94686 0.387353 0
M  V30 2962 N 274.927 -0.932562 -1.27047 0
M  V30 2963 C 276.175 -0.574422 -1.93765 0
M  V30 2964 C 276.496 0.887993 -1.73608 0
M  V30 2965 O 275.766 1.62999 -1.08665 0
M  V30 2966 H 274.346 -0.209451 -0.717035 0
M  V30 2967 H 277.008 -1.18601 -1.5466 0
M  V30 2968 H 276.104 -0.784841 -3.02071 0
M  V30 2969 N 276.405 1.4127 -0.698611 0
M  V30 2970 C 277.821 1.55241 -0.370462 0
M  V30 2971 C 278.021 1.67351 1.12231 0
M  V30 2972 O 277.077 1.65363 1.90818 0
M  V30 2973 C 278.39 2.78997 -1.12165 0
M  V30 2974 C 279.938 2.92797 -1.1063 0
M  V30 2975 C 280.413 4.19445 -1.8393 0
M  V30 2976 N 281.904 4.26409 -1.80914 0
M  V30 2977 C 282.639 5.23271 -2.34467 0
M  V30 2978 N 282.135 6.26145 -2.96504 0
M  V30 2979 N 283.928 5.15232 -2.24706 0
M  V30 2980 H 276.079 1.31654 -1.66676 0
M  V30 2981 H 278.342 0.635393 -0.703548 0
M  V30 2982 H 278.048 2.76268 -2.17644 0
M  V30 2983 H 277.922 3.70606 -0.702209 0
M  V30 2984 H 280.309 2.95039 -0.0597713 0
M  V30 2985 H 280.39 2.02353 -1.56483 0
M  V30 2986 H 280.034 4.17964 -2.88563 0
M  V30 2987 H 279.964 5.08866 -1.35509 0
M  V30 2988 H 282.455 3.527 -1.35687 0
M  V30 2989 H 282.768 6.96451 -3.34927 0
M  V30 2990 H 281.113 6.26638 -3.00583 0
M  V30 2991 H 284.304 4.33789 -1.7591 0
M  V30 2992 H 284.477 5.90552 -2.66745 0
M  V30 2993 N 277.883 0.443576 1.51229 0
M  V30 2994 C 279.123 -0.119889 2.04048 0
M  V30 2995 C 279.487 -1.39418 1.32009 0
M  V30 2996 O 280.688 -2.03829 1.75235 0
M  V30 2997 C 278.959 -0.327233 3.55899 0
M  V30 2998 S 280.518 -0.853208 4.30425 0
M  V30 2999 H 277.336 -0.028921 0.710412 0
M  V30 3000 H 279.938 0.604413 1.85922 0
M  V30 3001 H 278.642 0.606445 4.05895 0
M  V30 3002 H 278.173 -1.07844 3.7833 0
M  V30 3003 H 280.188 -2.13005 4.48155 0
M  V30 3004 N 279.361 -1.56624 0.175154 0
M  V30 3005 C 280.311 -2.14747 -0.766004 0
M  V30 3006 C 281.295 -1.08275 -1.19018 0
M  V30 3007 O 282.487 -1.34388 -1.15191 0
M  V30 3008 C 279.616 -2.79478 -1.99366 0
M  V30 3009 C 278.702 -3.93114 -1.5913 0
M  V30 3010 N 279.093 -4.97752 -0.89872 0
M  V30 3011 C 277.391 -4.04345 -1.88204 0
M  V30 3012 C 278.092 -5.77473 -0.700012 0
M  V30 3013 N 277.068 -5.29207 -1.24263 0
M  V30 3014 H 280.87 -2.93015 -0.22793 0
M  V30 3015 H 278.384 -1.6238 -0.0253843 0
M  V30 3016 H 280.381 -3.19498 -2.67818 0
M  V30 3017 H 279.041 -2.02692 -2.53665 0
M  V30 3018 H 280.052 -5.14903 -0.556347 0
M  V30 3019 H 276.729 -3.38667 -2.44153 0
M  V30 3020 H 278.119 -6.71728 -0.152047 0
M  V30 3021 N 280.839 0.0985539 -1.57292 0
M  V30 3022 C 281.786 1.11981 -2.01814 0
M  V30 3023 C 282.756 1.39999 -0.89384 0
M  V30 3024 O 283.941 1.5152 -1.15958 0
M  V30 3025 C 281.081 2.43577 -2.44467 0
M  V30 3026 C 280.194 2.2232 -3.70402 0
M  V30 3027 C 279.329 3.4729 -4.01949 0
M  V30 3028 C 278.368 3.2128 -5.21005 0
M  V30 3029 N 277.505 4.38507 -5.48321 0
M  V30 3030 H 282.345 0.733149 -2.88841 0
M  V30 3031 H 279.882 0.350482 -1.42864 0
M  V30 3032 H 281.84 3.20373 -2.6724 0
M  V30 3033 H 280.47 2.80097 -1.60455 0
M  V30 3034 H 279.522 1.36343 -3.55126 0
M  V30 3035 H 280.834 1.99089 -4.57345 0
M  V30 3036 H 279.988 4.32495 -4.25479 0
M  V30 3037 H 278.727 3.73572 -3.13521 0
M  V30 3038 H 277.732 2.34468 -4.97298 0
M  V30 3039 H 278.957 2.96348 -6.11028 0
M  V30 3040 H 276.903 4.64871 -4.62851 0
M  V30 3041 H 276.82 4.18455 -6.29628 0
M  V30 3042 H 278.088 5.24787 -5.76385 0
M  V30 3043 N 282.317 1.53212 0.369288 0
M  V30 3044 C 283.542 1.73423 1.1375 0
M  V30 3045 C 283.967 0.460404 1.82378 0
M  V30 3046 O 283.325 -0.585298 1.71592 0
M  V30 3047 C 283.373 2.89769 2.1463 0
M  V30 3048 O 282.477 2.58119 3.21634 0
M  V30 3049 H 281.818 0.576061 0.330227 0
M  V30 3050 H 284.348 2.00083 0.427547 0
M  V30 3051 H 284.358 3.15829 2.58294 0
M  V30 3052 H 283.033 3.8217 1.64071 0
M  V30 3053 H 281.61 2.42864 2.82969 0
M  V30 3054 N 283.795 -0.628877 1.44509 0
M  V30 3055 C 285.035 -1.39993 1.48934 0
M  V30 3056 C 285.399 -1.91627 0.119604 0
M  V30 3057 O 286.6 -2.68772 0.0385283 0
M  V30 3058 C 284.871 -2.53241 2.52198 0
M  V30 3059 S 286.43 -3.41383 2.75687 0
M  V30 3060 H 283.248 -0.477558 0.526744 0
M  V30 3061 H 285.85 -0.727804 1.81448 0
M  V30 3062 H 284.554 -2.13622 3.50419 0
M  V30 3063 H 284.085 -3.25278 2.21264 0
M  V30 3064 H 286.1 -4.50752 2.07453 0
M  V30 3065 N 285.273 -1.31445 -0.869486 0
M  V30 3066 C 286.501 -1.24122 -1.65534 0
M  V30 3067 C 286.916 0.193387 -1.87807 0
M  V30 3068 O 286.273 1.12557 -1.43656 0
M  V30 3069 C 286.324 -1.98229 -3.02304 0
M  V30 3070 O 286.045 -3.3609 -2.81026 0
M  V30 3071 C 287.546 -1.97751 -3.96749 0
M  V30 3072 H 284.766 -0.428868 -0.516055 0
M  V30 3073 H 287.31 -1.73328 -1.08525 0
M  V30 3074 H 285.465 -1.52782 -3.56001 0
M  V30 3075 H 285.879 -3.7383 -3.67902 0
M  V30 3076 H 287.353 -2.54114 -4.90031 0
M  V30 3077 H 287.83 -0.960137 -4.28577 0
M  V30 3078 H 288.436 -2.43079 -3.48988 0
M  V30 3079 N 286.751 1.08385 -1.14413 0
M  V30 3080 C 287.999 1.80419 -0.910679 0
M  V30 3081 C 288.32 1.86658 0.564243 0
M  V30 3082 O 287.59 1.35985 1.41014 0
M  V30 3083 H 286.17 0.668204 -0.333934 0
M  V30 3084 H 288.832 1.31037 -1.44275 0
M  V30 3085 H 287.928 2.83238 -1.31082 0
M  V30 3086 N 288.23 0.939286 1.26551 0
M  V30 3087 C 289.646 0.641304 1.46149 0
M  V30 3088 C 289.846 -0.805964 1.84679 0
M  V30 3089 O 288.902 -1.58278 1.96734 0
M  V30 3090 C 290.215 1.6011 2.54529 0
M  V30 3091 C 291.763 1.6106 2.68382 0
M  V30 3092 C 292.238 2.55765 3.79932 0
M  V30 3093 N 293.729 2.5404 3.87322 0
M  V30 3094 C 294.464 3.24004 4.73085 0
M  V30 3095 N 293.96 4.03388 5.63249 0
M  V30 3096 N 295.753 3.12965 4.66914 0
M  V30 3097 H 287.904 1.87478 0.998285 0
M  V30 3098 H 290.167 0.805559 0.499779 0
M  V30 3099 H 289.873 2.63412 2.33039 0
M  V30 3100 H 289.747 1.35171 3.52149 0
M  V30 3101 H 292.134 0.584835 2.89247 0
M  V30 3102 H 292.215 1.90053 1.71212 0
M  V30 3103 H 291.859 3.58458 3.5982 0
M  V30 3104 H 291.789 2.24063 4.76554 0
M  V30 3105 H 294.28 1.96396 3.22858 0
M  V30 3106 H 294.593 4.5373 6.25579 0
M  V30 3107 H 292.938 4.07489 5.63008 0
M  V30 3108 H 296.129 2.50432 3.95476 0
M  V30 3109 H 296.302 3.67759 5.33533 0
M  V30 3110 N 289.708 -1.40897 0.706093 0
M  V30 3111 C 290.948 -2.02916 0.245827 0
M  V30 3112 C 291.312 -1.54751 -1.13649 0
M  V30 3113 O 292.513 -2.08768 -1.69321 0
M  V30 3114 C 290.784 -3.56031 0.312537 0
M  V30 3115 S 292.343 -4.38741 -0.0721388 0
M  V30 3116 H 289.161 -0.704186 0.0982007 0
M  V30 3117 H 291.763 -1.72168 0.926207 0
M  V30 3118 H 290.467 -3.88579 1.32039 0
M  V30 3119 H 289.998 -3.91495 -0.386641 0
M  V30 3120 H 292.013 -4.78952 -1.29692 0
M  V30 3121 N 291.186 -0.45159 -1.50991 0
M  V30 3122 C 292.432 0.102439 -2.03142 0
M  V30 3123 C 292.787 1.39138 -1.32884 0
M  V30 3124 O 292.08 1.86493 -0.439438 0
M  V30 3125 C 292.274 0.361728 -3.55565 0
M  V30 3126 C 292.103 -0.900535 -4.40591 0
M  V30 3127 C 290.873 -1.43821 -4.844 0
M  V30 3128 C 293.071 -1.79063 -4.82121 0
M  V30 3129 N 291.053 -2.65153 -5.53685 0
M  V30 3130 C 292.424 -2.84991 -5.50618 0
M  V30 3131 C 294.479 -1.80334 -4.64095 0
M  V30 3132 C 293.182 -3.92155 -6.02998 0
M  V30 3133 C 295.208 -2.86442 -5.17402 0
M  V30 3134 C 294.57 -3.9109 -5.85857 0
M  V30 3135 H 290.669 -0.00204537 -0.781997 0
M  V30 3136 H 293.253 -0.615446 -1.84717 0
M  V30 3137 H 291.424 1.04865 -3.73976 0
M  V30 3138 H 293.156 0.908372 -3.94374 0
M  V30 3139 H 289.911 -0.990117 -4.63135 0
M  V30 3140 H 290.335 -3.26717 -5.92946 0
M  V30 3141 H 294.977 -1.00753 -4.1062 0
M  V30 3142 H 292.695 -4.72565 -6.55521 0
M  V30 3143 H 296.281 -2.88386 -5.05297 0
M  V30 3144 H 295.161 -4.71845 -6.26364 0
M  V30 3145 N 292.664 1.56529 -0.183458 0
M  V30 3146 C 293.912 1.96855 0.457452 0
M  V30 3147 C 294.233 1.07104 1.62953 0
M  V30 3148 O 293.503 0.139887 1.954 0
M  V30 3149 H 292.083 0.72693 0.171992 0
M  V30 3150 H 294.745 1.93056 -0.267476 0
M  V30 3151 H 293.841 3.01423 0.809368 0
M  V30 3152 N 294.142 -0.090211 1.57342 0
M  V30 3153 C 295.553 -0.644173 1.75235 0
M  V30 3154 C 295.904 -1.78865 0.806335 0
M  V30 3155 O 295.029 -2.16395 -0.0140128 0
M  V30 3156 C 295.624 -1.17532 3.1776 0
M  V30 3157 C 294.183 -1.67531 3.37061 0
M  V30 3158 C 293.33 -0.58693 2.71017 0
M  V30 3159 H 296.281 0.135884 1.58117 0
M  V30 3160 H 296.302 -2.04455 3.20902 0
M  V30 3161 H 295.814 -0.342138 3.86589 0
M  V30 3162 H 293.915 -2.53234 2.73319 0
M  V30 3163 H 294.028 -1.76493 4.45406 0
M  V30 3164 H 292.392 -1.02756 2.33052 0
M  V30 3165 H 293.175 0.235758 3.4249 0
M  V30 3166 N 295.62 -1.53406 -0.361157 0
M  V30 3167 C 296.848 -1.73717 -1.12383 0
M  V30 3168 C 297.263 -0.468161 -1.82904 0
M  V30 3169 O 296.62 0.559198 -1.73722 0
M  V30 3170 C 296.671 -2.90558 -2.15078 0
M  V30 3171 O 296.392 -4.12549 -1.47428 0
M  V30 3172 C 297.893 -3.22777 -3.03858 0
M  V30 3173 H 295.113 -0.580896 -0.335858 0
M  V30 3174 H 297.657 -2.00167 -0.418728 0
M  V30 3175 H 295.812 -2.66489 -2.8118 0
M  V30 3176 H 296.226 -4.78009 -2.15887 0
M  V30 3177 H 297.7 -4.07927 -3.71887 0
M  V30 3178 H 298.177 -2.38329 -3.68912 0
M  V30 3179 H 298.783 -3.48787 -2.43367 0
M  V30 3180 N 297.098 0.621204 -1.44841 0
M  V30 3181 C 298.008 1.7612 -1.5498 0
M  V30 3182 C 299.024 1.68477 -0.434927 0
M  V30 3183 O 300.2 1.89076 -0.693693 0
M  V30 3184 C 297.265 3.1254 -1.50065 0
M  V30 3185 C 296.326 3.31741 -2.72482 0
M  V30 3186 C 295.559 4.61653 -2.67792 0
M  V30 3187 O 295.782 5.431 -1.74352 0
M  V30 3188 O 294.716 4.83271 -3.58794 0
M  V30 3189 H 298.542 1.70518 -2.51311 0
M  V30 3190 H 296.127 0.783643 -1.27198 0
M  V30 3191 H 298.009 3.93844 -1.49882 0
M  V30 3192 H 296.684 3.18663 -0.568806 0
M  V30 3193 H 295.591 2.50077 -2.7823 0
M  V30 3194 H 296.924 3.30486 -3.64746 0
M  V30 3195 N 298.576 1.31904 0.862503 0
M  V30 3196 C 299.524 1.20125 1.9918 0
M  V30 3197 C 300.518 0.107824 1.69056 0
M  V30 3198 O 301.724 0.270223 1.7796 0
M  V30 3199 H 298.099 0.372148 0.65346 0
M  V30 3200 H 300.07 2.15652 2.06244 0
M  V30 3201 C 298.819 0.933099 3.34946 0
M  V30 3202 H 298.142 1.76664 3.5865 0
M  V30 3203 H 299.582 0.890892 4.14535 0
M  V30 3204 C 298.041 -0.364172 3.34926 0
M  V30 3205 O 298.571 -1.37858 3.77304 0
M  V30 3206 N 296.777 -0.383362 2.8806 0
M  V30 3207 H 296.324 0.442651 2.53768 0
M  V30 3208 H 296.282 -1.25123 2.8843 0
M  V30 3209 N 300.054 -1.07777 1.14986 0
M  V30 3210 C 301.004 -2.13082 0.811181 0
M  V30 3211 C 301.988 -1.59619 -0.202597 0
M  V30 3212 O 303.18 -1.77 -0.00398275 0
M  V30 3213 C 300.309 -3.42009 0.297439 0
M  V30 3214 C 299.395 -4.02337 1.34112 0
M  V30 3215 N 299.786 -4.36982 2.54716 0
M  V30 3216 C 298.084 -4.29752 1.19285 0
M  V30 3217 C 298.785 -4.84729 3.21578 0
M  V30 3218 N 297.761 -4.83233 2.48972 0
M  V30 3219 H 301.563 -2.37696 1.72853 0
M  V30 3220 H 299.077 -1.25173 1.03468 0
M  V30 3221 H 301.074 -4.16884 0.0364777 0
M  V30 3222 H 299.734 -3.18841 -0.614022 0
M  V30 3223 H 300.745 -4.27807 2.91894 0
M  V30 3224 H 297.422 -4.16106 0.340926 0
M  V30 3225 H 298.812 -5.20863 4.24442 0
M  V30 3226 N 301.532 -0.945985 -1.26051 0
M  V30 3227 C 302.772 -0.603665 -1.95282 0
M  V30 3228 C 303.136 0.842377 -1.72534 0
M  V30 3229 O 304.337 1.29387 -2.35611 0
M  V30 3230 C 302.608 -0.942292 -3.44754 0
M  V30 3231 S 304.167 -0.711242 -4.32997 0
M  V30 3232 H 300.985 -0.222176 -0.675395 0
M  V30 3233 H 303.587 -1.21832 -1.52896 0
M  V30 3234 H 302.291 -1.99203 -3.58812 0
M  V30 3235 H 301.822 -0.317546 -3.92116 0
M  V30 3236 H 303.837 0.422221 -4.944 0
M  V30 3237 N 303.011 1.40521 -0.713556 0
M  V30 3238 C 303.943 2.29191 -0.0203126 0
M  V30 3239 C 304.956 1.45723 0.725864 0
M  V30 3240 O 306.145 1.69033 0.573581 0
M  V30 3241 C 303.245 3.2395 0.995486 0
M  V30 3242 C 302.418 4.36262 0.315256 0
M  V30 3243 C 301.477 5.11474 1.23616 0
M  V30 3244 O 300.503 5.64606 0.721719 0
M  V30 3245 N 301.705 5.20638 2.56743 0
M  V30 3246 H 304.47 2.89327 -0.781652 0
M  V30 3247 H 302.031 1.51869 -0.561022 0
M  V30 3248 H 304.023 3.71137 1.61368 0
M  V30 3249 H 302.593 2.64995 1.6582 0
M  V30 3250 H 301.813 3.91228 -0.483106 0
M  V30 3251 H 303.101 5.08558 -0.157004 0
M  V30 3252 H 302.499 4.7895 3.01037 0
M  V30 3253 H 301.056 5.71339 3.13712 0
M  V30 3254 N 304.489 0.459591 1.5075 0
M  V30 3255 C 305.717 -0.0973749 2.06671 0
M  V30 3256 C 306.132 -1.34524 1.32472 0
M  V30 3257 O 305.489 -1.7827 0.390634 0
M  V30 3258 C 305.54 -0.39714 3.59312 0
M  V30 3259 O 305.261 0.801214 4.30711 0
M  V30 3260 C 306.762 -1.00234 4.31819 0
M  V30 3261 H 303.982 0.00195854 0.670997 0
M  V30 3262 H 306.526 0.645072 1.94059 0
M  V30 3263 H 304.681 -1.08951 3.71764 0
M  V30 3264 H 305.095 0.538857 5.21725 0
M  V30 3265 H 306.569 -1.16193 5.39632 0
M  V30 3266 H 307.046 -1.98939 3.91561 0
M  V30 3267 H 307.652 -0.348699 4.23868 0
M  V30 3268 N 305.967 -1.56429 0.191757 0
M  V30 3269 C 306.897 -2.21937 -0.725696 0
M  V30 3270 C 307.878 -1.1814 -1.2238 0
M  V30 3271 O 309.063 -1.46636 -1.27325 0
M  V30 3272 C 306.193 -2.87611 -1.94672 0
M  V30 3273 C 305.147 -3.97623 -1.58366 0
M  V30 3274 C 304.473 -4.50446 -2.88102 0
M  V30 3275 C 305.773 -5.16197 -0.796133 0
M  V30 3276 H 307.467 -2.98861 -0.179606 0
M  V30 3277 H 305.013 -1.43749 -0.0849464 0
M  V30 3278 H 306.966 -3.3212 -2.59373 0
M  V30 3279 H 305.69 -2.08087 -2.51728 0
M  V30 3280 H 304.349 -3.53801 -0.960247 0
M  V30 3281 H 303.997 -3.67688 -3.43241 0
M  V30 3282 H 303.697 -5.24675 -2.64556 0
M  V30 3283 H 305.221 -4.97654 -3.53798 0
M  V30 3284 H 306.635 -5.57271 -1.34618 0
M  V30 3285 H 305.032 -5.96471 -0.658928 0
M  V30 3286 H 306.102 -4.84473 0.203478 0
M  V30 3287 N 307.445 0.0818655 -1.57387 0
M  V30 3288 C 308.673 0.796108 -1.9097 0
M  V30 3289 C 309.088 1.71626 -0.786757 0
M  V30 3290 O 308.445 1.80908 0.240513 0
M  V30 3291 C 308.496 1.59829 -3.24248 0
M  V30 3292 O 308.217 0.715131 -4.32224 0
M  V30 3293 C 309.718 2.41442 -3.7178 0
M  V30 3294 H 306.938 0.22691 -0.631469 0
M  V30 3295 H 309.482 0.0551439 -2.04426 0
M  V30 3296 H 307.637 2.29163 -3.12351 0
M  V30 3297 H 308.051 1.27205 -5.08841 0
M  V30 3298 H 309.525 2.932 -4.67694 0
M  V30 3299 H 310.002 3.2051 -3.00283 0
M  V30 3300 H 310.608 1.77283 -3.86589 0
M  V30 3301 N 308.923 1.53595 0.353017 0
M  V30 3302 C 310.339 1.43648 0.695516 0
M  V30 3303 C 310.539 0.585617 1.92802 0
M  V30 3304 O 309.595 0.0729223 2.52395 0
M  V30 3305 C 310.908 2.8701 0.896991 0
M  V30 3306 C 312.456 2.96723 0.996209 0
M  V30 3307 C 312.931 4.41173 1.23007 0
M  V30 3308 N 314.422 4.44657 1.29749 0
M  V30 3309 C 315.157 5.53547 1.49577 0
M  V30 3310 N 314.653 6.72461 1.66639 0
M  V30 3311 N 316.446 5.41145 1.52048 0
M  V30 3312 H 308.597 2.07415 -0.457481 0
M  V30 3313 H 310.86 0.9372 -0.142687 0
M  V30 3314 H 310.566 3.51644 0.0629938 0
M  V30 3315 H 310.44 3.31401 1.80148 0
M  V30 3316 H 312.827 2.32235 1.82074 0
M  V30 3317 H 312.908 2.55707 0.0688331 0
M  V30 3318 H 312.552 5.06238 0.410505 0
M  V30 3319 H 312.482 4.79772 2.17086 0
M  V30 3320 H 314.973 3.58963 1.18126 0
M  V30 3321 H 315.286 7.51214 1.81378 0
M  V30 3322 H 313.631 6.75423 1.63794 0
M  V30 3323 H 316.822 4.47205 1.38294 0
M  V30 3324 H 316.995 6.26068 1.67159 0
M  V30 3325 N 310.401 -0.613514 1.45168 0
M  V30 3326 C 311.629 -1.39946 1.5239 0
M  V30 3327 C 312.044 -1.88167 0.154531 0
M  V30 3328 O 311.401 -1.61872 -0.842843 0
M  V30 3329 C 311.452 -2.60795 2.50337 0
M  V30 3330 O 311.173 -2.1458 3.81952 0
M  V30 3331 C 312.674 -3.53723 2.67198 0
M  V30 3332 H 309.894 -0.428593 0.516284 0
M  V30 3333 H 312.438 -0.748753 1.903 0
M  V30 3334 H 310.593 -3.21919 2.15515 0
M  V30 3335 H 311.007 -2.93055 4.34993 0
M  V30 3336 H 312.481 -4.35079 3.39721 0
M  V30 3337 H 312.958 -4.0368 1.73029 0
M  V30 3338 H 313.564 -2.98456 3.02992 0
M  V30 3339 N 311.879 -1.3236 -0.855495 0
M  V30 3340 C 313.125 -1.23054 -1.612 0
M  V30 3341 C 313.458 0.207404 -1.93089 0
M  V30 3342 O 312.733 1.14432 -1.57275 0
M  V30 3343 C 313.016 -2.08937 -2.93287 0
M  V30 3344 C 312.869 -3.61105 -2.68185 0
M  V30 3345 C 314.188 -1.94986 -3.94549 0
M  V30 3346 H 311.307 -0.448364 -0.584926 0
M  V30 3347 H 313.949 -1.62297 -0.987917 0
M  V30 3348 H 312.099 -1.75599 -3.46551 0
M  V30 3349 H 313.771 -4.04652 -2.21483 0
M  V30 3350 H 312.014 -3.83813 -2.02164 0
M  V30 3351 H 312.685 -4.16522 -3.62234 0
M  V30 3352 H 315.161 -2.24189 -3.5054 0
M  V30 3353 H 314.037 -2.57356 -4.84829 0
M  V30 3354 H 314.298 -0.917263 -4.3248 0
M  V30 3355 N 313.357 1.07166 -1.15556 0
M  V30 3356 C 314.597 1.81391 -0.94216 0
M  V30 3357 C 314.961 1.84788 0.521272 0
M  V30 3358 O 316.162 2.54904 0.85307 0
M  V30 3359 C 314.433 3.22431 -1.54185 0
M  V30 3360 S 315.992 4.13379 -1.47183 0
M  V30 3361 H 312.81 0.624963 -0.339031 0
M  V30 3362 H 315.412 1.28725 -1.4714 0
M  V30 3363 H 314.116 3.17548 -2.59984 0
M  V30 3364 H 313.647 3.80172 -1.01156 0
M  V30 3365 H 315.662 4.94007 -0.466004 0
M  V30 3366 N 314.835 0.952656 1.25548 0
M  V30 3367 C 315.798 0.475794 2.24207 0
M  V30 3368 C 316.798 -0.419428 1.55234 0
M  V30 3369 O 317.988 -0.216994 1.72843 0
M  V30 3370 C 315.12 -0.312814 3.39462 0
M  V30 3371 H 316.313 1.34779 2.67908 0
M  V30 3372 H 313.866 0.735739 1.37901 0
M  V30 3373 H 314.601 -1.20257 3.01179 0
M  V30 3374 H 314.386 0.329404 3.90714 0
M  V30 3375 H 315.876 -0.635986 4.12729 0
M  V30 3376 N 316.313 -1.40141 0.720998 0
M  V30 3377 C 317.223 -2.34486 0.0731031 0
M  V30 3378 C 318.239 -1.57587 -0.737723 0
M  V30 3379 O 319.415 -1.89949 -0.669429 0
M  V30 3380 C 316.48 -3.36528 -0.833656 0
M  V30 3381 C 315.541 -4.29298 -0.0121673 0
M  V30 3382 C 314.774 -5.26466 -0.875742 0
M  V30 3383 O 314.997 -5.29745 -2.11485 0
M  V30 3384 O 313.931 -6.01092 -0.31185 0
M  V30 3385 H 317.757 -2.9152 0.851444 0
M  V30 3386 H 315.342 -1.41427 0.481527 0
M  V30 3387 H 317.224 -3.99093 -1.35289 0
M  V30 3388 H 315.899 -2.81899 -1.59105 0
M  V30 3389 H 314.806 -3.70001 0.552262 0
M  V30 3390 H 316.139 -4.87094 0.707129 0
M  V30 3391 N 317.792 -0.46758 -1.50504 0
M  V30 3392 C 318.724 0.364655 -2.26281 0
M  V30 3393 C 319.737 0.960151 -1.31472 0
M  V30 3394 O 320.926 0.849153 -1.57008 0
M  V30 3395 C 318.026 1.52509 -3.02645 0
M  V30 3396 C 317.199 1.04302 -4.24782 0
M  V30 3397 C 316.258 2.07709 -4.8347 0
M  V30 3398 O 315.284 1.65913 -5.44483 0
M  V30 3399 N 316.486 3.40485 -4.70159 0
M  V30 3400 H 319.251 -0.28495 -2.98342 0
M  V30 3401 H 316.812 -0.298163 -1.59131 0
M  V30 3402 H 318.804 2.21371 -3.38787 0
M  V30 3403 H 317.374 2.07945 -2.33404 0
M  V30 3404 H 316.594 0.180393 -3.93787 0
M  V30 3405 H 317.882 0.698798 -5.03978 0
M  V30 3406 H 317.28 3.77155 -4.21629 0
M  V30 3407 H 315.837 4.05156 -5.1058 0
M  V30 3408 N 319.27 1.56325 -0.20005 0
M  V30 3409 C 320.51 1.99619 0.439519 0
M  V30 3410 C 320.874 1.08423 1.58456 0
M  V30 3411 O 322.075 1.40973 2.28867 0
M  V30 3412 C 320.346 3.46314 0.883258 0
M  V30 3413 S 321.905 4.11634 1.51997 0
M  V30 3414 H 318.723 0.697007 0.140363 0
M  V30 3415 H 321.325 1.93118 -0.304282 0
M  V30 3416 H 320.029 4.10381 0.0398967 0
M  V30 3417 H 319.56 3.56643 1.6604 0
M  V30 3418 H 321.575 4.09049 2.8088 0
M  V30 3419 N 320.748 -0.0735177 1.57428 0
M  V30 3420 C 322.025 -0.805903 1.78226 0
M  V30 3421 C 322.405 -1.95874 0.787189 0
M  V30 3422 O 321.753 -2.2779 -0.180029 0
M  V30 3423 C 321.963 -1.28045 3.24662 0
M  V30 3424 C 323.311 -1.71453 3.88444 0
M  V30 3425 O 324.335 -1.37616 3.28543 0
M  V30 3426 O 323.194 -2.34093 4.93825 0
M  V30 3427 H 320.288 -0.386041 0.73137 0
M  V30 3428 H 322.834 -0.0537269 1.69615 0
M  V30 3429 H 321.606 -0.455476 3.8864 0
M  V30 3430 H 321.229 -2.094 3.37991 0
M  V30 3431 N 322.226 -1.5378 -0.344866 0
M  V30 3432 C 323.474 -1.70625 -1.08311 0
M  V30 3433 C 323.795 -0.471447 -1.89215 0
M  V30 3434 O 323.065 0.514616 -1.8902 0
M  V30 3435 H 321.645 -0.629058 -0.402859 0
M  V30 3436 H 324.307 -1.9103 -0.386459 0
M  V30 3437 H 323.403 -2.57656 -1.76124 0
M  V30 3438 N 323.704 0.605807 -1.45491 0
M  V30 3439 C 325.12 0.926751 -1.29936 0
M  V30 3440 C 325.32 1.99896 -0.253706 0
M  V30 3441 O 324.376 2.50038 0.351737 0
M  V30 3442 C 325.689 1.36599 -2.67883 0
M  V30 3443 C 327.237 1.4801 -2.75793 0
M  V30 3444 C 327.712 1.95309 -4.14268 0
M  V30 3445 N 329.203 2.0254 -4.16571 0
M  V30 3446 C 329.938 2.40363 -5.20589 0
M  V30 3447 N 329.434 2.77143 -6.34952 0
M  V30 3448 N 331.227 2.40718 -5.07948 0
M  V30 3449 H 323.378 -0.102862 -2.12151 0
M  V30 3450 H 325.641 0.016639 -0.947854 0
M  V30 3451 H 325.347 0.652306 -3.45598 0
M  V30 3452 H 325.221 2.33215 -2.96463 0
M  V30 3453 H 327.608 2.1847 -1.98381 0
M  V30 3454 H 327.689 0.497041 -2.50925 0
M  V30 3455 H 327.333 1.25436 -4.92167 0
M  V30 3456 H 327.263 2.94532 -4.3653 0
M  V30 3457 H 329.754 1.76699 -3.34045 0
M  V30 3458 H 330.067 3.0489 -7.10114 0
M  V30 3459 H 328.412 2.74834 -6.3835 0
M  V30 3460 H 331.603 2.11392 -4.1765 0
M  V30 3461 H 331.776 2.69869 -5.89131 0
M  V30 3462 N 325.182 1.32811 0.848464 0
M  V30 3463 C 326.422 1.25046 1.61687 0
M  V30 3464 C 326.786 -0.183464 1.91121 0
M  V30 3465 O 327.987 -0.384937 2.66029 0
M  V30 3466 C 326.258 2.09201 2.89775 0
M  V30 3467 S 327.817 2.18526 3.80515 0
M  V30 3468 H 324.635 0.445023 0.554505 0
M  V30 3469 H 327.237 1.67733 1.00429 0
M  V30 3470 H 325.941 3.12433 2.66108 0
M  V30 3471 H 325.472 1.67315 3.56047 0
M  V30 3472 H 327.487 1.3393 4.77784 0
M  V30 3473 N 326.66 -1.06551 1.16123 0
M  V30 3474 C 327.89 -1.8274 0.963838 0
M  V30 3475 C 328.298 -1.82712 -0.491228 0
M  V30 3476 O 327.641 -1.24294 -1.35265 0
M  V30 3477 C 327.703 -3.3065 1.41106 0
M  V30 3478 C 327.367 -3.54384 2.88549 0
M  V30 3479 C 328.364 -3.4765 3.86569 0
M  V30 3480 C 326.049 -3.81789 3.26408 0
M  V30 3481 C 328.043 -3.67982 5.2045 0
M  V30 3482 C 325.73 -4.01772 4.60459 0
M  V30 3483 C 326.728 -3.94866 5.57288 0
M  V30 3484 O 326.416 -4.14306 6.88916 0
M  V30 3485 H 326.148 -0.583136 0.341948 0
M  V30 3486 H 328.702 -1.35351 1.54497 0
M  V30 3487 H 326.932 -3.78887 0.773394 0
M  V30 3488 H 328.621 -3.88324 1.1815 0
M  V30 3489 H 329.387 -3.2647 3.58667 0
M  V30 3490 H 325.266 -3.86276 2.51619 0
M  V30 3491 H 328.81 -3.62507 5.96015 0
M  V30 3492 H 324.707 -4.2244 4.88072 0
M  V30 3493 H 325.475 -4.31609 6.95454 0
M  V30 3494 N 328.138 -0.959301 -1.25041 0
M  V30 3495 C 329.386 -0.615393 -1.92503 0
M  V30 3496 C 329.707 0.850969 -1.75452 0
M  V30 3497 O 328.977 1.60658 -1.12098 0
M  V30 3498 H 327.557 -0.224613 -0.712431 0
M  V30 3499 H 330.219 -1.21855 -1.5211 0
M  V30 3500 H 329.315 -0.848738 -3.00338 0
M  V30 3501 N 329.616 1.39756 -0.72842 0
M  V30 3502 C 331.027 1.83498 -0.344289 0
M  V30 3503 C 331.378 1.60868 1.12321 0
M  V30 3504 O 330.503 1.09634 1.86573 0
M  V30 3505 C 331.098 3.33114 -0.618112 0
M  V30 3506 C 329.657 3.753 -0.287549 0
M  V30 3507 C 328.804 2.62831 -0.884048 0
M  V30 3508 H 331.755 1.28842 -0.926578 0
M  V30 3509 H 331.776 3.80334 0.112349 0
M  V30 3510 H 331.288 3.49553 -1.68625 0
M  V30 3511 H 329.389 3.64451 0.775012 0
M  V30 3512 H 329.502 4.72945 -0.765512 0
M  V30 3513 H 327.866 2.52792 -0.311149 0
M  V30 3514 H 328.649 2.82078 -1.95671 0
M  V30 3515 N 331.094 0.475555 1.50254 0
M  V30 3516 C 332.324 -0.0753399 2.06463 0
M  V30 3517 C 332.732 -1.33661 1.33908 0
M  V30 3518 O 332.075 -1.79219 0.403257 0
M  V30 3519 C 332.137 -0.424921 3.5698 0
M  V30 3520 C 331.801 0.734965 4.51051 0
M  V30 3521 C 332.798 1.61827 4.94073 0
M  V30 3522 C 330.483 0.926557 4.9368 0
M  V30 3523 C 332.477 2.67754 5.78434 0
M  V30 3524 C 330.164 1.98904 5.77824 0
M  V30 3525 C 331.162 2.8629 6.20103 0
M  V30 3526 O 330.85 3.90708 7.02568 0
M  V30 3527 H 330.582 0.00576308 0.675975 0
M  V30 3528 H 333.136 0.664662 1.94349 0
M  V30 3529 H 331.366 -1.21817 3.67012 0
M  V30 3530 H 333.055 -0.911422 3.95535 0
M  V30 3531 H 333.821 1.48196 4.61804 0
M  V30 3532 H 329.7 0.25584 4.6029 0
M  V30 3533 H 333.244 3.35992 6.11355 0
M  V30 3534 H 329.141 2.12541 6.09505 0
M  V30 3535 H 329.909 3.87751 7.20827 0
M  V30 3536 N 332.573 -1.56217 0.208337 0
M  V30 3537 C 333.819 -1.98242 -0.427552 0
M  V30 3538 C 334.152 -1.09554 -1.60348 0
M  V30 3539 O 333.427 -0.15035 -1.93918 0
M  V30 3540 C 333.71 -3.4931 -0.874907 0
M  V30 3541 C 333.563 -4.48773 0.303751 0
M  V30 3542 C 334.882 -4.04424 -1.73577 0
M  V30 3543 H 332.001 -0.720744 -0.153936 0
M  V30 3544 H 334.643 -1.87586 0.30192 0
M  V30 3545 H 332.793 -3.58522 -1.49648 0
M  V30 3546 H 334.465 -4.51586 0.941682 0
M  V30 3547 H 332.708 -4.23194 0.953375 0
M  V30 3548 H 333.379 -5.51976 -0.0519883 0
M  V30 3549 H 335.855 -3.98075 -1.21143 0
M  V30 3550 H 334.731 -5.1047 -2.01771 0
M  V30 3551 H 334.992 -3.50494 -2.69456 0
M  V30 3552 N 334.051 0.0651679 -1.57465 0
M  V30 3553 C 335.276 0.779605 -1.9219 0
M  V30 3554 C 335.701 1.69988 -0.805333 0
M  V30 3555 O 335.059 1.79685 0.241435 0
M  V30 3556 C 335.107 1.54364 -3.2589 0
M  V30 3557 O 334.211 2.65474 -3.1559 0
M  V30 3558 H 333.552 0.212249 -0.629163 0
M  V30 3559 H 336.082 0.0314294 -2.04576 0
M  V30 3560 H 336.092 1.92146 -3.59922 0
M  V30 3561 H 334.767 0.868457 -4.06732 0
M  V30 3562 H 333.344 2.30501 -2.93128 0
M  V30 3563 N 335.529 1.53961 0.336706 0
M  V30 3564 C 336.806 1.62171 1.09361 0
M  V30 3565 C 337.186 0.447263 2.06307 0
M  V30 3566 O 336.534 -0.559802 2.21537 0
M  V30 3567 C 336.744 2.98565 1.80721 0
M  V30 3568 C 338.092 3.54157 2.34218 0
M  V30 3569 O 339.116 3.00784 1.90807 0
M  V30 3570 O 337.975 4.47528 3.13657 0
M  V30 3571 H 335.069 0.6562 0.503319 0
M  V30 3572 H 337.615 1.66307 0.33765 0
M  V30 3573 H 336.387 3.75482 1.10132 0
M  V30 3574 H 336.01 2.9805 2.63158 0
M  V30 3575 N 337.007 -0.598083 1.45811 0
M  V30 3576 C 338.247 -1.36802 1.5187 0
M  V30 3577 C 338.611 -1.9133 0.160224 0
M  V30 3578 O 339.812 -2.6863 0.0955302 0
M  V30 3579 C 338.083 -2.47835 2.57513 0
M  V30 3580 S 339.642 -3.35458 2.82866 0
M  V30 3581 H 336.46 -0.466278 0.536755 0
M  V30 3582 H 339.062 -0.689152 1.82951 0
M  V30 3583 H 337.766 -2.06141 3.54872 0
M  V30 3584 H 337.297 -3.20512 2.28114 0
M  V30 3585 H 339.312 -4.46251 2.16967 0
M  V30 3586 N 338.485 -1.33259 -0.841409 0
M  V30 3587 C 339.725 -1.25902 -1.61022 0
M  V30 3588 C 340.089 0.173325 -1.91216 0
M  V30 3589 O 341.29 0.370824 -2.6623 0
M  V30 3590 C 339.561 -2.10735 -2.88662 0
M  V30 3591 S 341.12 -2.20541 -3.79351 0
M  V30 3592 H 337.938 -0.447958 -0.552137 0
M  V30 3593 H 340.54 -1.68263 -0.995382 0
M  V30 3594 H 339.244 -3.1384 -2.64448 0
M  V30 3595 H 338.775 -1.69201 -3.55154 0
M  V30 3596 H 340.79 -1.36462 -4.77067 0
M  V30 3597 N 339.963 1.05934 -1.16686 0
M  V30 3598 C 340.913 2.11764 -0.844978 0
M  V30 3599 C 341.897 1.59922 0.177178 0
M  V30 3600 O 343.089 1.76983 -0.0241768 0
M  V30 3601 C 340.218 3.41493 -0.351812 0
M  V30 3602 C 339.304 4.00152 -1.40496 0
M  V30 3603 N 339.695 4.32874 -2.61636 0
M  V30 3604 C 337.993 4.278 -1.26106 0
M  V30 3605 C 338.694 4.79552 -3.29249 0
M  V30 3606 N 337.67 4.79211 -2.56628 0
M  V30 3607 H 341.472 2.34916 -1.76612 0
M  V30 3608 H 338.986 1.23511 -1.05446 0
M  V30 3609 H 340.983 4.16773 -0.102796 0
M  V30 3610 H 339.643 3.19778 0.56322 0
M  V30 3611 H 340.654 4.23109 -2.98663 0
M  V30 3612 H 337.331 4.15511 -0.407081 0
M  V30 3613 H 338.721 5.14045 -4.32675 0
M  V30 3614 N 341.441 0.965919 1.2453 0
M  V30 3615 C 342.857 0.67216 1.44756 0
M  V30 3616 C 343.057 -0.766609 1.86347 0
M  V30 3617 O 342.113 -1.5407 2.00047 0
M  V30 3618 C 343.426 1.65473 2.51076 0
M  V30 3619 C 344.974 1.66716 2.64905 0
M  V30 3620 C 345.449 2.63766 3.74421 0
M  V30 3621 N 346.94 2.62198 3.81846 0
M  V30 3622 C 347.675 3.33966 4.66106 0
M  V30 3623 N 347.171 4.15245 5.54566 0
M  V30 3624 N 348.964 3.22799 4.60171 0
M  V30 3625 H 341.115 1.89553 0.958293 0
M  V30 3626 H 343.378 0.815979 0.482579 0
M  V30 3627 H 343.084 2.68296 2.27399 0
M  V30 3628 H 342.958 1.4261 3.49202 0
M  V30 3629 H 345.345 0.646057 2.87941 0
M  V30 3630 H 345.426 1.93642 1.67142 0
M  V30 3631 H 345.07 3.6601 3.52135 0
M  V30 3632 H 345 2.34121 4.71694 0
M  V30 3633 H 347.491 2.032 3.18619 0
M  V30 3634 H 347.804 4.66898 6.15814 0
M  V30 3635 H 346.149 4.1934 5.54237 0
M  V30 3636 H 349.34 2.58764 3.90075 0
M  V30 3637 H 349.513 3.78994 5.25612 0
M  V30 3638 N 342.919 -1.39368 0.735821 0
M  V30 3639 C 343.829 -2.34395 0.0979693 0
M  V30 3640 C 344.845 -1.58361 -0.720968 0
M  V30 3641 O 346.021 -1.90648 -0.649245 0
M  V30 3642 C 343.086 -3.37393 -0.797916 0
M  V30 3643 C 342.147 -4.29287 0.0333662 0
M  V30 3644 C 341.38 -5.27365 -0.819854 0
M  V30 3645 O 341.603 -5.31959 -2.05855 0
M  V30 3646 O 340.537 -6.01389 -0.248079 0
M  V30 3647 H 344.363 -2.90601 0.882315 0
M  V30 3648 H 341.948 -1.40909 0.4965 0
M  V30 3649 H 343.83 -4.00505 -1.31048 0
M  V30 3650 H 342.505 -2.83571 -1.56106 0
M  V30 3651 H 341.412 -3.69395 0.591475 0
M  V30 3652 H 342.745 -4.86317 0.758752 0
M  V30 3653 N 344.397 -0.483516 -1.5 0
M  V30 3654 C 345.637 0.0657469 -2.04294 0
M  V30 3655 C 346.001 1.35869 -1.35659 0
M  V30 3656 O 347.202 1.99111 -1.80578 0
M  V30 3657 C 345.473 0.232758 -3.56641 0
M  V30 3658 S 347.032 0.738788 -4.32536 0
M  V30 3659 H 343.85 0.0100755 -0.710929 0
M  V30 3660 H 346.452 -0.653494 -1.84254 0
M  V30 3661 H 345.156 -0.713847 -4.04144 0
M  V30 3662 H 344.687 0.977751 -3.81056 0
M  V30 3663 H 346.702 2.01048 -4.53645 0
M  V30 3664 N 345.875 1.56104 -0.216619 0
M  V30 3665 C 346.838 2.18819 0.681962 0
M  V30 3666 C 347.838 1.14866 1.12528 0
M  V30 3667 O 349.028 1.40128 1.03488 0
M  V30 3668 C 346.16 2.80756 1.93362 0
M  V30 3669 H 347.353 2.99595 0.135254 0
M  V30 3670 H 344.906 1.56265 0.0330003 0
M  V30 3671 H 345.641 2.03837 2.52232 0
M  V30 3672 H 345.426 3.56876 1.62426 0
M  V30 3673 H 346.916 3.28844 2.57393 0
M  V30 3674 N 347.353 -0.0568162 1.57498 0
M  V30 3675 C 348.601 -0.751617 1.87604 0
M  V30 3676 C 348.922 -1.77351 0.81066 0
M  V30 3677 O 348.192 -1.95254 -0.159018 0
M  V30 3678 H 346.772 -0.280583 0.692302 0
M  V30 3679 H 349.434 -0.0293483 1.94878 0
M  V30 3680 H 348.53 -1.25852 2.856 0
M  V30 3681 N 348.832 -1.54138 -0.328536 0
M  V30 3682 C 350.08 -1.71765 -1.06496 0
M  V30 3683 C 350.401 -0.49149 -1.88704 0
M  V30 3684 O 349.671 0.494539 -1.89555 0
M  V30 3685 H 348.251 -0.633295 -0.396164 0
M  V30 3686 H 350.913 -1.91429 -0.366176 0
M  V30 3687 H 350.009 -2.5951 -1.73381 0
M  V30 3688 N 350.31 0.590341 -1.46126 0
M  V30 3689 C 351.55 1.35995 -1.52593 0
M  V30 3690 C 351.914 1.91243 -0.170368 0
M  V30 3691 O 353.115 2.68576 -0.109775 0
M  V30 3692 C 351.386 2.46465 -2.58823 0
M  V30 3693 S 352.945 3.33953 -2.84641 0
M  V30 3694 H 349.763 0.463425 -0.53922 0
M  V30 3695 H 352.365 0.67944 -1.83314 0
M  V30 3696 H 351.069 2.04256 -3.5596 0
M  V30 3697 H 350.6 3.19297 -2.2981 0
M  V30 3698 H 352.615 4.45094 -2.19331 0
M  V30 3699 N 351.788 1.33704 0.83433 0
M  V30 3700 C 353.013 1.28615 1.62705 0
M  V30 3701 C 353.438 -0.139242 1.87584 0
M  V30 3702 O 352.796 -1.09734 1.4432 0
M  V30 3703 C 352.844 2.07139 2.95171 0
M  V30 3704 O 351.948 1.4331 3.86699 0
M  V30 3705 H 351.289 0.44226 0.49528 0
M  V30 3706 H 353.819 1.76335 1.03766 0
M  V30 3707 H 353.829 2.18073 3.44831 0
M  V30 3708 H 352.504 3.10779 2.76386 0
M  V30 3709 H 351.081 1.4105 3.45195 0
M  V30 3710 N 353.266 -1.05314 1.17247 0
M  V30 3711 C 354.514 -1.77941 0.958194 0
M  V30 3712 C 354.835 -1.88089 -0.514556 0
M  V30 3713 O 354.105 -1.39676 -1.37359 0
M  V30 3714 H 352.685 -0.659116 0.351533 0
M  V30 3715 H 355.347 -1.27166 1.47699 0
M  V30 3716 H 354.443 -2.79663 1.38546 0
M  V30 3717 N 354.744 -0.972509 -1.24016 0
M  V30 3718 C 356.155 -0.67517 -1.74064 0
M  V30 3719 C 356.506 0.808939 -1.78747 0
M  V30 3720 O 355.631 1.63286 -1.42009 0
M  V30 3721 C 356.226 -1.21889 -3.16115 0
M  V30 3722 C 354.785 -0.971358 -3.6365 0
M  V30 3723 C 353.932 -1.35134 -2.42145 0
M  V30 3724 H 356.883 -1.14727 -1.09651 0
M  V30 3725 H 356.904 -0.587489 -3.75937 0
M  V30 3726 H 356.416 -2.29906 -3.12674 0
M  V30 3727 H 354.517 0.0930686 -3.72484 0
M  V30 3728 H 354.63 -1.62039 -4.50866 0
M  V30 3729 H 352.994 -0.769751 -2.4279 0
M  V30 3730 H 353.777 -2.4411 -2.41381 0
M  V30 3731 N 356.222 1.38976 -0.743202 0
M  V30 3732 C 357.169 2.30544 -0.10861 0
M  V30 3733 C 358.139 1.49642 0.720869 0
M  V30 3734 O 359.324 1.78304 0.679142 0
M  V30 3735 C 356.464 3.36018 0.786496 0
M  V30 3736 C 355.577 4.31963 -0.0564849 0
M  V30 3737 C 354.712 5.24506 0.840657 0
M  V30 3738 C 353.751 6.121 -0.00658363 0
M  V30 3739 N 352.888 6.96973 0.846943 0
M  V30 3740 H 357.728 2.8424 -0.895088 0
M  V30 3741 H 355.265 1.3995 -0.453048 0
M  V30 3742 H 357.223 3.95768 1.31999 0
M  V30 3743 H 355.853 2.83758 1.53887 0
M  V30 3744 H 354.905 3.73763 -0.707492 0
M  V30 3745 H 356.217 4.93703 -0.711229 0
M  V30 3746 H 355.371 5.89322 1.4417 0
M  V30 3747 H 354.11 4.63107 1.52916 0
M  V30 3748 H 353.115 5.46289 -0.620366 0
M  V30 3749 H 354.34 6.75565 -0.691992 0
M  V30 3750 H 352.286 6.38133 1.52059 0
M  V30 3751 H 352.203 7.5559 0.248864 0
M  V30 3752 H 353.471 7.6621 1.43328 0
M  V30 3753 N 357.7 0.491464 1.49741 0
M  V30 3754 C 358.977 -0.118984 1.95238 0
M  V30 3755 C 359.357 -1.55044 1.43264 0
M  V30 3756 O 358.705 -2.19287 0.642287 0
M  V30 3757 C 358.915 -0.0414187 3.48975 0
M  V30 3758 C 360.263 -0.220133 4.24029 0
M  V30 3759 O 361.287 -0.117055 3.56008 0
M  V30 3760 O 360.146 -0.430567 5.44801 0
M  V30 3761 H 357.24 -0.100536 0.820866 0
M  V30 3762 H 359.786 0.553322 1.60426 0
M  V30 3763 H 358.558 0.957214 3.79412 0
M  V30 3764 H 358.181 -0.754292 3.9038 0
M  V30 3765 N 359.178 -1.55987 0.224894 0
M  V30 3766 C 360.406 -2.02784 -0.410665 0
M  V30 3767 C 360.821 -1.10464 -1.53112 0
M  V30 3768 O 360.178 -0.114871 -1.82138 0
M  V30 3769 C 360.229 -3.49087 -0.939165 0
M  V30 3770 O 359.95 -4.37887 0.136614 0
M  V30 3771 C 361.451 -4.11543 -1.64763 0
M  V30 3772 H 358.671 -0.663484 -0.100148 0
M  V30 3773 H 361.215 -2.01614 0.342326 0
M  V30 3774 H 359.37 -3.50861 -1.64242 0
M  V30 3775 H 359.784 -5.23849 -0.261155 0
M  V30 3776 H 361.258 -5.15673 -1.96939 0
M  V30 3777 H 361.735 -3.56736 -2.56195 0
M  V30 3778 H 362.341 -4.13629 -0.989503 0
M  V30 3779 N 360.656 0.0484629 -1.57525 0
M  V30 3780 C 361.933 0.777447 -1.79486 0
M  V30 3781 C 362.313 1.94597 -0.818251 0
M  V30 3782 O 361.661 2.28047 0.143767 0
M  V30 3783 C 361.871 1.22864 -3.26658 0
M  V30 3784 C 363.219 1.65251 -3.91123 0
M  V30 3785 O 364.243 1.32372 -3.3069 0
M  V30 3786 O 363.102 2.26207 -4.97486 0
M  V30 3787 H 360.196 0.374357 -0.737419 0
M  V30 3788 H 362.742 0.0267359 -1.69679 0
M  V30 3789 H 361.514 0.393589 -3.89316 0
M  V30 3790 H 361.137 2.03996 -3.41279 0
M  V30 3791 N 362.134 1.5431 0.320358 0
M  V30 3792 C 363.374 1.74395 1.0661 0
M  V30 3793 C 363.738 0.508602 1.85141 0
M  V30 3794 O 364.939 0.586856 2.62316 0
M  V30 3795 C 363.21 2.98619 1.96371 0
M  V30 3796 S 364.769 3.39621 2.77854 0
M  V30 3797 H 361.587 0.613204 0.359863 0
M  V30 3798 H 364.189 1.9249 0.341727 0
M  V30 3799 H 362.893 3.86673 1.3752 0
M  V30 3800 H 362.424 2.83055 2.73209 0
M  V30 3801 H 364.439 2.95172 3.98858 0
M  V30 3802 N 363.613 -0.582584 1.46437 0
M  V30 3803 C 364.86 -1.34079 1.51753 0
M  V30 3804 C 365.188 -1.93762 0.169299 0
M  V30 3805 O 364.443 -1.76989 -0.835062 0
M  V30 3806 C 364.742 -2.48964 2.56421 0
M  V30 3807 C 364.408 -2.07273 4.00436 0
M  V30 3808 C 363.07 -1.95618 4.39644 0
M  V30 3809 C 365.422 -1.75111 4.90903 0
M  V30 3810 C 362.75 -1.5006 5.67185 0
M  V30 3811 C 365.102 -1.31032 6.18881 0
M  V30 3812 C 363.766 -1.17954 6.56996 0
M  V30 3813 H 363.036 -0.49063 0.555304 0
M  V30 3814 H 365.683 -0.656007 1.79913 0
M  V30 3815 H 363.988 -3.22889 2.21923 0
M  V30 3816 H 365.685 -3.07178 2.57765 0
M  V30 3817 H 362.275 -2.17279 3.69443 0
M  V30 3818 H 366.459 -1.83001 4.61329 0
M  V30 3819 H 361.715 -1.38577 5.95488 0
M  V30 3820 H 365.889 -1.052 6.88408 0
M  V30 3821 H 363.516 -0.824279 7.55718 0
M  V30 3822 N 365.091 -1.34144 -0.827227 0
M  V30 3823 C 366.054 -1.25264 -1.91942 0
M  V30 3824 C 367.054 -0.168866 -1.59911 0
M  V30 3825 O 368.244 -0.421198 -1.69031 0
M  V30 3826 C 365.376 -0.932952 -3.27885 0
M  V30 3827 H 366.569 -2.22357 -2.0124 0
M  V30 3828 H 364.122 -1.1837 -1.0207 0
M  V30 3829 H 364.857 0.0349917 -3.24281 0
M  V30 3830 H 364.642 -1.71682 -3.52516 0
M  V30 3831 H 366.132 -0.895874 -4.07877 0
M  V30 3832 N 366.569 1.04691 -1.17803 0
M  V30 3833 C 367.809 1.79352 -0.980423 0
M  V30 3834 C 368.173 1.85853 0.481958 0
M  V30 3835 O 369.374 2.56656 0.798809 0
M  V30 3836 C 367.645 3.19088 -1.6099 0
M  V30 3837 S 369.204 4.10164 -1.55918 0
M  V30 3838 H 366.022 0.617631 -0.352211 0
M  V30 3839 H 368.624 1.25575 -1.49837 0
M  V30 3840 H 367.328 3.11962 -2.66661 0
M  V30 3841 H 366.859 3.77941 -1.09197 0
M  V30 3842 H 368.874 4.92907 -0.570685 0
M  V30 3843 N 368.047 0.979072 1.23499 0
M  V30 3844 C 368.98 0.463027 2.23453 0
M  V30 3845 C 369.958 -0.469128 1.55685 0
M  V30 3846 O 371.142 -0.397882 1.84253 0
M  V30 3847 C 368.269 -0.330308 3.37086 0
M  V30 3848 C 367.315 0.545795 4.22993 0
M  V30 3849 S 368.148 1.99285 4.97037 0
M  V30 3850 C 369.304 1.20862 6.1412 0
M  V30 3851 H 369.537 1.31005 2.6688 0
M  V30 3852 H 367.07 0.784965 1.32957 0
M  V30 3853 H 369.028 -0.782027 4.02982 0
M  V30 3854 H 367.689 -1.15244 2.92194 0
M  V30 3855 H 366.882 -0.0638928 5.03959 0
M  V30 3856 H 366.484 0.933705 3.62157 0
M  V30 3857 H 368.776 0.469284 6.75873 0
M  V30 3858 H 369.719 1.99307 6.79472 0
M  V30 3859 H 370.127 0.727992 5.59786 0
M  V30 3860 N 369.525 -1.3858 0.750561 0
M  V30 3861 C 370.473 -2.32339 0.110162 0
M  V30 3862 C 371.467 -1.53864 -0.708674 0
M  V30 3863 O 372.673 -1.69417 -0.608112 0
M  V30 3864 H 369.048 -0.751812 0.0168275 0
M  V30 3865 H 371.019 -2.83959 0.917053 0
M  V30 3866 C 369.768 -3.39043 -0.771067 0
M  V30 3867 H 369.091 -3.99517 -0.150374 0
M  V30 3868 H 370.531 -4.07061 -1.1865 0
M  V30 3869 C 368.99 -2.77365 -1.91234 0
M  V30 3870 O 369.52 -2.66434 -3.00626 0
M  V30 3871 N 367.726 -2.35219 -1.70646 0
M  V30 3872 H 367.273 -2.4431 -0.81673 0
M  V30 3873 H 367.231 -1.94294 -2.47178 0
M  V30 3874 N 371.003 -0.499398 -1.49478 0
M  V30 3875 C 372.25 0.0456899 -2.02448 0
M  V30 3876 C 372.578 1.37142 -1.37921 0
M  V30 3877 O 371.833 1.89111 -0.503544 0
M  V30 3878 C 372.132 0.248424 -3.56536 0
M  V30 3879 C 371.798 -0.999107 -4.39692 0
M  V30 3880 C 370.46 -1.34108 -4.62135 0
M  V30 3881 C 372.812 -1.82842 -4.88076 0
M  V30 3882 C 370.14 -2.51191 -5.30208 0
M  V30 3883 C 372.492 -2.99076 -5.57437 0
M  V30 3884 C 371.156 -3.33655 -5.78127 0
M  V30 3885 H 370.426 0.0167191 -0.740811 0
M  V30 3886 H 373.073 -0.65923 -1.79795 0
M  V30 3887 H 371.378 1.03586 -3.77859 0
M  V30 3888 H 373.075 0.684605 -3.95113 0
M  V30 3889 H 369.665 -0.722729 -4.22463 0
M  V30 3890 H 373.849 -1.57737 -4.70566 0
M  V30 3891 H 369.105 -2.78221 -5.44429 0
M  V30 3892 H 373.279 -3.63664 -5.93904 0
M  V30 3893 H 370.906 -4.24483 -6.30649 0
M  V30 3894 N 372.481 1.55866 -0.233164 0
M  V30 3895 C 373.429 2.22176 0.68851 0
M  V30 3896 C 374.423 1.20487 1.19076 0
M  V30 3897 O 375.629 1.38536 1.14925 0
M  V30 3898 H 372.004 0.712511 0.240483 0
M  V30 3899 H 373.975 2.98212 0.105935 0
M  V30 3900 C 372.724 2.92446 1.88071 0
M  V30 3901 H 372.047 3.70458 1.50337 0
M  V30 3902 H 373.487 3.42226 2.50314 0
M  V30 3903 C 371.946 1.95555 2.74335 0
M  V30 3904 O 372.476 1.47986 3.73447 0
M  V30 3905 N 370.682 1.62953 2.40613 0
M  V30 3906 H 370.229 2.01831 1.60069 0
M  V30 3907 H 370.187 0.983886 2.98609 0
M  V30 3908 N 373.959 -0.0401083 1.57549 0
M  V30 3909 C 375.236 -0.767917 1.79896 0
M  V30 3910 C 375.616 -1.9416 0.82856 0
M  V30 3911 O 374.964 -2.2812 -0.131671 0
M  V30 3912 C 375.174 -1.2113 3.27305 0
M  V30 3913 C 376.522 -1.63175 3.91994 0
M  V30 3914 O 377.546 -1.30616 3.31388 0
M  V30 3915 O 376.405 -2.23565 4.98679 0
M  V30 3916 H 373.499 -0.370441 0.739393 0
M  V30 3917 H 376.045 -0.017737 1.69691 0
M  V30 3918 H 374.817 -0.372937 3.89519 0
M  V30 3919 H 374.44 -2.02183 3.42356 0
M  V30 3920 N 375.437 -1.54477 -0.31217 0
M  V30 3921 C 376.662 -1.77526 -1.07235 0
M  V30 3922 C 377.087 -0.527775 -1.80544 0
M  V30 3923 O 376.445 0.52121 -1.73646 0
M  V30 3924 C 376.493 -2.97535 -2.03728 0
M  V30 3925 O 375.597 -2.69878 -3.11833 0
M  V30 3926 H 374.938 -0.58792 -0.30862 0
M  V30 3927 H 377.468 -2.01532 -0.352993 0
M  V30 3928 H 377.478 -3.25198 -2.46395 0
M  V30 3929 H 376.153 -3.87996 -1.49774 0
M  V30 3930 H 374.73 -2.53199 -2.7376 0
M  V30 3931 N 376.915 0.57481 -1.46744 0
M  V30 3932 C 378.163 1.33009 -1.52161 0
M  V30 3933 C 378.484 1.94185 -0.178092 0
M  V30 3934 O 377.754 1.7899 0.796196 0
M  V30 3935 H 376.334 0.493873 -0.560445 0
M  V30 3936 H 378.996 0.672589 -1.82927 0
M  V30 3937 H 378.092 2.13273 -2.27862 0
M  V30 3938 N 378.394 1.34581 0.820102 0
M  V30 3939 C 379.357 1.2628 1.91275 0
M  V30 3940 C 380.357 0.177344 1.59819 0
M  V30 3941 O 381.547 0.430156 1.68806 0
M  V30 3942 C 378.679 0.950327 3.27386 0
M  V30 3943 H 379.872 2.23421 2.00057 0
M  V30 3944 H 377.425 1.1891 1.0144 0
M  V30 3945 H 378.16 -0.0177938 3.24295 0
M  V30 3946 H 377.945 1.73549 3.51601 0
M  V30 3947 H 379.435 0.917492 4.07396 0
M  V30 3948 N 379.872 -1.04064 1.18357 0
M  V30 3949 C 381.112 -1.78829 0.989921 0
M  V30 3950 C 381.476 -1.86106 -0.472095 0
M  V30 3951 O 382.677 -2.57076 -0.785187 0
M  V30 3952 C 380.948 -3.1823 1.6268 0
M  V30 3953 S 382.507 -4.09332 1.58091 0
M  V30 3954 H 379.325 -0.615754 0.355482 0
M  V30 3955 H 381.927 -1.24778 1.50501 0
M  V30 3956 H 380.631 -3.10543 2.68311 0
M  V30 3957 H 380.162 -3.77357 1.112 0
M  V30 3958 H 382.177 -4.92598 0.596817 0
M  V30 3959 N 381.35 -0.985608 -1.22978 0
M  V30 3960 C 382.596 -0.65836 -1.91816 0
M  V30 3961 C 382.929 0.806692 -1.76653 0
M  V30 3962 O 382.204 1.58252 -1.13078 0
M  V30 3963 C 382.487 -1.056 -3.44268 0
M  V30 3964 C 382.34 -2.57906 -3.68516 0
M  V30 3965 C 383.659 -0.603781 -4.35939 0
M  V30 3966 H 380.778 -0.24065 -0.696604 0
M  V30 3967 H 383.42 -1.22783 -1.44998 0
M  V30 3968 H 381.57 -0.571445 -3.84274 0
M  V30 3969 H 383.242 -3.13976 -3.3796 0
M  V30 3970 H 381.485 -3.00305 -3.13048 0
M  V30 3971 H 382.156 -2.80779 -4.75255 0
M  V30 3972 H 384.632 -1.01987 -4.03408 0
M  V30 3973 H 383.508 -0.910383 -5.41298 0
M  V30 3974 H 383.769 0.495761 -4.39312 0
M  V30 3975 N 382.828 1.3818 -0.7579 0
M  V30 3976 C 384.056 2.04301 -0.326937 0
M  V30 3977 C 384.471 1.57163 1.0462 0
M  V30 3978 O 383.828 0.746626 1.66529 0
M  V30 3979 C 383.879 3.59846 -0.345363 0
M  V30 3980 O 383.6 4.05256 -1.66432 0
M  V30 3981 C 385.101 4.4319 0.098927 0
M  V30 3982 H 382.321 0.656443 -0.139012 0
M  V30 3983 H 384.865 1.76786 -1.02796 0
M  V30 3984 H 383.02 3.86182 0.306955 0
M  V30 3985 H 383.434 4.99709 -1.59345 0
M  V30 3986 H 384.908 5.51989 0.0348745 0
M  V30 3987 H 385.385 4.23947 1.14741 0
M  V30 3988 H 385.991 4.22051 -0.52468 0
M  V30 3989 N 384.306 0.507319 1.49211 0
M  V30 3990 C 385.238 -0.304532 2.27168 0
M  V30 3991 C 386.251 -0.924956 1.33972 0
M  V30 3992 O 387.44 -0.807227 1.59205 0
M  V30 3993 C 384.54 -1.44431 3.06583 0
M  V30 3994 C 383.713 -0.930026 4.27398 0
M  V30 3995 C 382.772 -1.94817 4.88807 0
M  V30 3996 O 381.798 -1.51418 5.4869 0
M  V30 3997 N 383 -3.279 4.79022 0
M  V30 3998 H 385.765 0.36395 2.97482 0
M  V30 3999 H 383.326 0.340249 1.58284 0
M  V30 4000 H 385.318 -2.12311 3.44537 0
M  V30 4001 H 383.888 -2.01684 2.38835 0
M  V30 4002 H 383.108 -0.0759244 3.94127 0
M  V30 4003 H 384.396 -0.564932 5.05654 0
M  V30 4004 H 383.794 -3.65843 4.3148 0
M  V30 4005 H 382.351 -3.91476 5.21142 0
M  V30 4006 N 385.784 -1.5574 0.241426 0
M  V30 4007 C 387.024 -2.00714 -0.38644 0
M  V30 4008 C 387.388 -1.12586 -1.55526 0
M  V30 4009 O 388.589 -1.46992 -2.25048 0
M  V30 4010 C 386.86 -3.48534 -0.791128 0
M  V30 4011 S 388.419 -4.15519 -1.41029 0
M  V30 4012 H 385.237 -0.700484 -0.121834 0
M  V30 4013 H 387.839 -1.92243 0.355377 0
M  V30 4014 H 386.543 -4.10342 0.0689225 0
M  V30 4015 H 386.074 -3.6092 -1.56526 0
M  V30 4016 H 388.089 -4.16352 -2.69936 0
M  V30 4017 N 387.262 0.0317525 -1.57568 0
M  V30 4018 C 388.673 0.578692 -1.77505 0
M  V30 4019 C 389.024 1.75749 -0.872164 0
M  V30 4020 O 388.149 2.16298 -0.0663106 0
M  V30 4021 C 388.744 1.05658 -3.21904 0
M  V30 4022 C 387.303 1.54906 -3.43047 0
M  V30 4023 C 386.45 0.485939 -2.73009 0
M  V30 4024 H 389.401 -0.194475 -1.57504 0
M  V30 4025 H 389.422 1.92404 -3.28269 0
M  V30 4026 H 388.934 0.198422 -3.87592 0
M  V30 4027 H 387.035 2.42915 -2.82529 0
M  V30 4028 H 387.148 1.59841 -4.5165 0
M  V30 4029 H 385.512 0.940354 -2.36705 0
M  V30 4030 H 386.295 -0.362709 -3.41379 0
M  V30 4031 N 388.74 1.54641 0.303973 0
M  V30 4032 C 389.672 1.81754 1.39636 0
M  V30 4033 C 390.685 0.70035 1.46966 0
M  V30 4034 O 391.874 0.97778 1.49338 0
M  V30 4035 C 388.974 1.93785 2.7803 0
M  V30 4036 C 388.147 3.24156 2.93669 0
M  V30 4037 C 387.206 3.26641 4.12544 0
M  V30 4038 O 386.232 4.00187 4.04771 0
M  V30 4039 N 387.434 2.5182 5.23036 0
M  V30 4040 H 390.199 2.76031 1.16734 0
M  V30 4041 H 387.76 1.54178 0.494033 0
M  V30 4042 H 389.752 1.92852 3.55795 0
M  V30 4043 H 388.322 1.06515 2.93893 0
M  V30 4044 H 387.542 3.37887 2.03042 0
M  V30 4045 H 388.83 4.10195 3.01027 0
M  V30 4046 H 388.228 1.91692 5.32232 0
M  V30 4047 H 386.785 2.56644 5.99147 0
M  V30 4048 N 390.218 -0.567019 1.47046 0
M  V30 4049 C 391.446 -1.35027 1.56765 0
M  V30 4050 C 391.861 -1.8758 0.214316 0
M  V30 4051 O 391.218 -1.64471 -0.790919 0
M  V30 4052 C 391.269 -2.52698 2.58507 0
M  V30 4053 O 390.99 -2.0232 3.88585 0
M  V30 4054 C 392.491 -3.45043 2.78316 0
M  V30 4055 H 389.711 -0.41195 0.529658 0
M  V30 4056 H 392.255 -0.687832 1.92585 0
M  V30 4057 H 390.41 -3.149 2.25648 0
M  V30 4058 H 390.824 -2.79068 4.44096 0
M  V30 4059 H 392.298 -4.2405 3.53391 0
M  V30 4060 H 392.775 -3.97971 1.85784 0
M  V30 4061 H 393.381 -2.88665 3.12334 0
M  V30 4062 N 391.696 -1.35014 -0.812953 0
M  V30 4063 C 392.943 -1.27931 -1.56971 0
M  V30 4064 C 393.271 0.148034 -1.93936 0
M  V30 4065 O 392.526 1.11175 -1.61054 0
M  V30 4066 C 392.825 -2.12524 -2.87347 0
M  V30 4067 C 392.491 -3.61401 -2.6963 0
M  V30 4068 C 391.153 -4.01983 -2.64506 0
M  V30 4069 C 393.505 -4.55894 -2.52607 0
M  V30 4070 C 390.833 -5.35235 -2.40293 0
M  V30 4071 C 393.185 -5.89336 -2.29925 0
M  V30 4072 C 391.849 -6.2907 -2.23219 0
M  V30 4073 H 391.119 -0.468131 -0.574399 0
M  V30 4074 H 393.766 -1.66851 -0.939836 0
M  V30 4075 H 392.071 -1.66463 -3.54679 0
M  V30 4076 H 393.768 -2.04383 -3.45005 0
M  V30 4077 H 390.358 -3.29193 -2.74463 0
M  V30 4078 H 394.542 -4.25431 -2.55583 0
M  V30 4079 H 389.798 -5.65028 -2.33566 0
M  V30 4080 H 393.972 -6.62139 -2.15743 0
M  V30 4081 H 391.599 -7.32256 -2.04219 0
M  V30 4082 N 393.175 1.03435 -1.18907 0
M  V30 4083 C 394.421 1.77005 -0.989798 0
M  V30 4084 C 394.754 1.88205 0.478816 0
M  V30 4085 O 394.029 1.39481 1.35556 0
M  V30 4086 C 394.312 3.19925 -1.65287 0
M  V30 4087 C 394.165 3.1663 -3.19477 0
M  V30 4088 C 395.484 4.18189 -1.37134 0
M  V30 4089 H 392.603 0.642538 -0.360991 0
M  V30 4090 H 395.245 1.20784 -1.46667 0
M  V30 4091 H 393.395 3.67929 -1.24741 0
M  V30 4092 H 395.067 2.76567 -3.692 0
M  V30 4093 H 393.31 2.54491 -3.51307 0
M  V30 4094 H 393.981 4.1758 -3.61013 0
M  V30 4095 H 396.457 3.78761 -1.72276 0
M  V30 4096 H 395.333 5.16394 -1.86087 0
M  V30 4097 H 395.594 4.41112 -0.295424 0
M  V30 4098 N 394.653 0.992116 1.22453 0
M  V30 4099 C 395.883 0.684949 1.94915 0
M  V30 4100 C 396.291 -0.754292 1.73514 0
M  V30 4101 O 395.634 -1.52056 1.03076 0
M  V30 4102 C 395.696 0.910054 3.47791 0
M  V30 4103 C 395.36 2.33363 3.92926 0
M  V30 4104 C 396.357 3.31308 4.00663 0
M  V30 4105 C 394.042 2.66785 4.25595 0
M  V30 4106 C 396.036 4.6075 4.40441 0
M  V30 4107 C 393.723 3.96446 4.65053 0
M  V30 4108 C 394.721 4.9324 4.72444 0
M  V30 4109 O 394.409 6.20584 5.1101 0
M  V30 4110 H 394.141 0.25258 0.62704 0
M  V30 4111 H 396.695 1.32939 1.56577 0
M  V30 4112 H 394.925 0.208443 3.86138 0
M  V30 4113 H 396.614 0.598257 4.01467 0
M  V30 4114 H 397.38 3.0682 3.75615 0
M  V30 4115 H 393.259 1.92148 4.19047 0
M  V30 4116 H 396.803 5.363 4.46126 0
M  V30 4117 H 392.7 4.20724 4.89552 0
M  V30 4118 H 393.468 6.24509 5.29085 0
M  V30 4119 N 396.131 -1.37776 0.765217 0
M  V30 4120 C 397.079 -2.32209 0.134798 0
M  V30 4121 C 398.073 -1.54607 -0.692315 0
M  V30 4122 O 399.279 -1.70052 -0.590109 0
M  V30 4123 H 395.654 -0.751591 0.0248005 0
M  V30 4124 H 397.625 -2.8297 0.947119 0
M  V30 4125 C 396.374 -3.39841 -0.735063 0
M  V30 4126 H 395.697 -3.99654 -0.107991 0
M  V30 4127 H 397.137 -4.08296 -1.14326 0
M  V30 4128 C 395.596 -2.79378 -1.88281 0
M  V30 4129 O 396.126 -2.69608 -2.97783 0
M  V30 4130 N 394.332 -2.37016 -1.68142 0
M  V30 4131 H 393.879 -2.45162 -0.790772 0
M  V30 4132 H 393.837 -1.96905 -2.45104 0
M  V30 4133 N 397.609 -0.515225 -1.4894 0
M  V30 4134 C 399.02 -0.0710067 -1.86565 0
M  V30 4135 C 399.371 1.34733 -1.42623 0
M  V30 4136 O 398.496 2.00653 -0.810379 0
M  V30 4137 C 399.091 -0.122083 -3.3858 0
M  V30 4138 C 397.65 0.266863 -3.75453 0
M  V30 4139 C 396.797 -0.488376 -2.72966 0
M  V30 4140 H 399.748 -0.727266 -1.41055 0
M  V30 4141 H 399.769 0.669818 -3.74558 0
M  V30 4142 H 399.281 -1.15448 -3.70531 0
M  V30 4143 H 397.382 1.30196 -3.49113 0
M  V30 4144 H 397.495 -0.0624811 -4.79059 0
M  V30 4145 H 395.859 0.0635622 -2.54621 0
M  V30 4146 H 396.642 -1.52113 -3.07761 0
M  V30 4147 N 399.087 1.5561 -0.249682 0
M  V30 4148 C 400.315 2.03411 0.378352 0
M  V30 4149 C 400.73 1.12886 1.51335 0
M  V30 4150 O 400.087 0.143833 1.81932 0
M  V30 4151 C 400.138 3.50537 0.88351 0
M  V30 4152 O 399.859 4.37614 -0.20626 0
M  V30 4153 C 401.36 4.14113 1.58195 0
M  V30 4154 H 398.58 0.664994 0.08958 0
M  V30 4155 H 401.124 2.01044 -0.374357 0
M  V30 4156 H 399.279 3.5343 1.58639 0
M  V30 4157 H 399.693 5.24199 0.177782 0
M  V30 4158 H 401.167 5.18741 1.8871 0
M  V30 4159 H 401.644 3.60767 2.50487 0
M  V30 4160 H 402.25 4.15151 0.923573 0
M  V30 4161 N 400.565 -0.0233959 1.57583 0
M  V30 4162 C 401.793 -0.724682 1.93794 0
M  V30 4163 C 402.208 -1.68588 0.849912 0
M  V30 4164 O 401.565 -1.81676 -0.173204 0
M  V30 4165 C 401.616 -1.47684 3.29957 0
M  V30 4166 O 401.337 -0.554222 4.3458 0
M  V30 4167 C 402.838 -2.27477 3.80485 0
M  V30 4168 H 400.058 -0.203317 0.639455 0
M  V30 4169 H 402.602 0.0207653 2.04489 0
M  V30 4170 H 400.757 -2.17412 3.20641 0
M  V30 4171 H 401.171 -1.08232 5.13212 0
M  V30 4172 H 402.645 -2.7564 4.78254 0
M  V30 4173 H 403.122 -3.09144 3.11972 0
M  V30 4174 H 403.728 -1.62813 3.92902 0
M  V30 4175 N 402.043 -1.548 -0.295768 0
M  V30 4176 C 403.29 -1.74329 -1.03032 0
M  V30 4177 C 403.618 -0.531915 -1.87085 0
M  V30 4178 O 402.873 0.486052 -1.89568 0
M  V30 4179 C 403.172 -2.98797 -1.961 0
M  V30 4180 C 402.838 -4.32356 -1.2798 0
M  V30 4181 C 401.5 -4.68661 -1.09135 0
M  V30 4182 C 403.852 -5.15128 -0.793243 0
M  V30 4183 C 401.18 -5.85312 -0.403269 0
M  V30 4184 C 403.532 -6.32488 -0.118854 0
M  V30 4185 C 402.196 -6.6745 0.0815043 0
M  V30 4186 H 401.466 -0.637916 -0.37702 0
M  V30 4187 H 404.113 -1.8906 -0.304696 0
M  V30 4188 H 402.418 -2.78869 -2.75207 0
M  V30 4189 H 404.115 -3.11102 -2.53015 0
M  V30 4190 H 400.705 -4.03808 -1.43655 0
M  V30 4191 H 404.889 -4.87575 -0.92653 0
M  V30 4192 H 400.145 -6.1094 -0.237098 0
M  V30 4193 H 404.319 -6.95892 0.266035 0
M  V30 4194 H 401.946 -7.57695 0.616685 0
M  V30 4195 N 403.521 0.559213 -1.47345 0
M  V30 4196 C 404.453 1.68161 -1.55738 0
M  V30 4197 C 405.466 1.56636 -0.443744 0
M  V30 4198 O 406.655 1.6363 -0.713258 0
M  V30 4199 C 403.755 3.06611 -1.4437 0
M  V30 4200 C 402.928 3.4391 -2.70268 0
M  V30 4201 C 401.987 4.61515 -2.52765 0
M  V30 4202 O 401.013 4.66197 -3.26572 0
M  V30 4203 N 402.215 5.57883 -1.6046 0
M  V30 4204 H 404.98 1.61408 -2.52522 0
M  V30 4205 H 402.541 0.7458 -1.43699 0
M  V30 4206 H 404.533 3.83117 -1.30398 0
M  V30 4207 H 403.103 3.07602 -0.556766 0
M  V30 4208 H 402.323 2.56873 -2.99015 0
M  V30 4209 H 403.611 3.65605 -3.53851 0
M  V30 4210 H 403.009 5.56855 -0.996422 0
M  V30 4211 H 401.566 6.33723 -1.52441 0
M  V30 4212 N 404.999 1.35443 0.805782 0
M  V30 4213 C 405.929 1.31095 1.93226 0
M  V30 4214 C 406.91 0.185244 1.69088 0
M  V30 4215 O 408.095 0.380332 1.90439 0
M  V30 4216 C 405.225 1.08299 3.29983 0
M  V30 4217 C 404.179 2.17519 3.68605 0
M  V30 4218 C 403.505 1.79887 5.03532 0
M  V30 4219 C 404.805 3.5949 3.78898 0
M  V30 4220 H 406.499 2.25352 1.97122 0
M  V30 4221 H 404.045 1.0848 0.946996 0
M  V30 4222 H 405.998 1.03897 4.08391 0
M  V30 4223 H 404.722 0.104885 3.26432 0
M  V30 4224 H 403.381 2.2102 2.92482 0
M  V30 4225 H 403.029 0.80693 4.96485 0
M  V30 4226 H 402.729 2.53001 5.30344 0
M  V30 4227 H 404.253 1.77011 5.84379 0
M  V30 4228 H 405.667 3.58307 4.47536 0
M  V30 4229 H 404.064 4.31371 4.1718 0
M  V30 4230 H 405.134 3.95584 2.80431 0
M  V30 4231 N 406.477 -1.02803 1.19454 0
M  V30 4232 C 407.387 -2.14575 0.948408 0
M  V30 4233 C 408.403 -1.73757 -0.091871 0
M  V30 4234 O 409.579 -2.01185 0.0929654 0
M  V30 4235 C 406.644 -3.43202 0.491265 0
M  V30 4236 C 405.705 -3.98328 1.60103 0
M  V30 4237 C 404.938 -5.20816 1.16561 0
M  V30 4238 O 405.161 -5.70392 0.0295238 0
M  V30 4239 O 404.095 -5.68801 1.96849 0
M  V30 4240 H 407.921 -2.38202 1.88397 0
M  V30 4241 H 405.506 -1.12989 0.977433 0
M  V30 4242 H 407.388 -4.20687 0.245015 0
M  V30 4243 H 406.063 -3.21018 -0.415851 0
M  V30 4244 H 404.97 -3.22174 1.90144 0
M  V30 4245 H 406.303 -4.24879 2.48473 0
M  V30 4246 N 407.956 -0.998596 -1.21925 0
M  V30 4247 C 408.906 -0.524743 -2.21879 0
M  V30 4248 C 409.89 0.41017 -1.55584 0
M  V30 4249 O 411.082 0.236063 -1.75419 0
M  V30 4250 C 408.211 0.153636 -3.42956 0
M  V30 4251 C 407.297 -0.801918 -4.16449 0
M  V30 4252 N 407.688 -1.95211 -4.66611 0
M  V30 4253 C 405.986 -0.618972 -4.41684 0
M  V30 4254 C 406.687 -2.55234 -5.22715 0
M  V30 4255 N 405.663 -1.83451 -5.1171 0
M  V30 4256 H 409.465 -1.40189 -2.58311 0
M  V30 4257 H 406.979 -0.86159 -1.3766 0
M  V30 4258 H 408.976 0.510534 -4.13762 0
M  V30 4259 H 407.636 1.02684 -3.08036 0
M  V30 4260 H 408.647 -2.33271 -4.62391 0
M  V30 4261 H 405.324 0.207694 -4.16983 0
M  V30 4262 H 406.714 -3.52471 -5.72026 0
M  V30 4263 N 409.434 1.37368 -0.772513 0
M  V30 4264 C 410.382 2.32134 -0.147111 0
M  V30 4265 C 411.376 1.54972 0.684106 0
M  V30 4266 O 412.582 1.70363 0.581083 0
M  V30 4267 H 408.957 0.751449 -0.028786 0
M  V30 4268 H 410.928 2.82464 -0.962112 0
M  V30 4269 C 409.677 3.40226 0.71703 0
M  V30 4270 H 409 3.99706 0.0867951 0
M  V30 4271 H 410.44 4.08897 1.12159 0
M  V30 4272 C 408.899 2.80372 1.86797 0
M  V30 4273 O 409.429 2.71183 2.96349 0
M  V30 4274 N 407.635 2.37904 1.66883 0
M  V30 4275 H 407.182 2.45578 0.777759 0
M  V30 4276 H 407.14 1.98202 2.44056 0
M  V30 4277 N 410.912 0.523116 1.48665 0
M  V30 4278 C 412.159 -0.0134763 2.02496 0
M  V30 4279 C 412.487 -1.3493 1.40086 0
M  V30 4280 O 411.742 -1.88286 0.533567 0
M  V30 4281 C 412.041 -0.191671 3.56886 0
M  V30 4282 C 411.707 1.06893 4.38046 0
M  V30 4283 C 410.369 1.41443 4.59943 0
M  V30 4284 C 412.721 1.90584 4.85106 0
M  V30 4285 C 410.049 2.59594 5.26144 0
M  V30 4286 C 412.401 3.07907 5.52609 0
M  V30 4287 C 411.065 3.42811 5.72745 0
M  V30 4288 H 410.335 -0.00493133 0.740984 0
M  V30 4289 H 412.982 0.687751 1.78724 0
M  V30 4290 H 411.287 -0.97561 3.79459 0
M  V30 4291 H 412.984 -0.621659 3.96152 0
M  V30 4292 H 409.574 0.789848 4.21259 0
M  V30 4293 H 413.758 1.65203 4.67997 0
M  V30 4294 H 409.014 2.86847 5.39934 0
M  V30 4295 H 413.188 3.73066 5.88043 0
M  V30 4296 H 410.815 4.34462 6.23816 0
M  V30 4297 N 412.39 -1.55475 0.257931 0
M  V30 4298 C 413.338 -2.23244 -0.653076 0
M  V30 4299 C 414.332 -1.22366 -1.17144 0
M  V30 4300 O 415.538 -1.40347 -1.12706 0
M  V30 4301 H 411.913 -0.716247 -0.229117 0
M  V30 4302 H 413.884 -2.98343 -0.0584788 0
M  V30 4303 C 412.633 -2.95401 -1.83395 0
M  V30 4304 H 411.956 -3.72802 -1.44424 0
M  V30 4305 H 413.396 -3.46165 -2.44838 0
M  V30 4306 C 411.855 -1.99895 -2.71189 0
M  V30 4307 O 412.385 -1.53909 -3.71046 0
M  V30 4308 N 410.591 -1.6676 -2.3799 0
M  V30 4309 H 410.138 -2.04352 -1.56837 0
M  V30 4310 H 410.096 -1.03127 -2.97005 0
M  V30 4311 N 413.868 0.0150385 -1.57593 0
M  V30 4312 C 414.831 0.995996 -2.06428 0
M  V30 4313 C 415.831 1.2818 -0.970903 0
M  V30 4314 O 417.021 1.22949 -1.23406 0
M  V30 4315 C 414.153 2.32506 -2.49307 0
M  V30 4316 H 415.346 0.573873 -2.94358 0
M  V30 4317 H 412.899 0.262186 -1.54085 0
M  V30 4318 H 413.634 2.79438 -1.64575 0
M  V30 4319 H 413.419 2.13087 -3.29145 0
M  V30 4320 H 414.909 3.02906 -2.87468 0
M  V30 4321 N 415.346 1.54954 0.287554 0
M  V30 4322 C 416.293 1.86834 1.35505 0
M  V30 4323 C 417.263 0.718452 1.49758 0
M  V30 4324 O 418.448 0.968358 1.644 0
M  V30 4325 C 415.588 2.13303 2.71286 0
M  V30 4326 C 414.701 3.40883 2.65373 0
M  V30 4327 C 413.836 3.57125 3.93236 0
M  V30 4328 C 412.875 4.78449 3.81776 0
M  V30 4329 N 412.012 4.91426 5.01443 0
M  V30 4330 H 416.852 2.77889 1.07619 0
M  V30 4331 H 414.389 1.37593 0.520241 0
M  V30 4332 H 416.347 2.26646 3.50267 0
M  V30 4333 H 414.977 1.25499 2.97405 0
M  V30 4334 H 414.029 3.36088 1.78182 0
M  V30 4335 H 415.341 4.29993 2.52799 0
M  V30 4336 H 414.495 3.70207 4.80658 0
M  V30 4337 H 413.234 2.66173 4.0866 0
M  V30 4338 H 412.239 4.65386 2.92738 0
M  V30 4339 H 413.464 5.70822 3.67884 0
M  V30 4340 H 411.41 4.03401 5.17304 0
M  V30 4341 H 411.327 5.74559 4.91343 0
M  V30 4342 H 412.595 5.08879 5.90477 0
M  V30 4343 N 416.824 -0.551391 1.4764 0
M  V30 4344 C 418.054 -1.33163 1.57959 0
M  V30 4345 C 418.462 -1.87785 0.23094 0
M  V30 4346 O 417.805 -1.65996 -0.786825 0
M  V30 4347 C 417.867 -2.53449 2.54958 0
M  V30 4348 C 417.531 -2.20071 4.00522 0
M  V30 4349 C 418.528 -1.77017 4.88836 0
M  V30 4350 C 416.213 -2.31252 4.45901 0
M  V30 4351 C 418.207 -1.4558 6.20552 0
M  V30 4352 C 415.894 -1.99427 5.77644 0
M  V30 4353 C 416.892 -1.56659 6.64791 0
M  V30 4354 O 416.58 -1.25242 7.94084 0
M  V30 4355 H 416.312 -0.412022 0.535923 0
M  V30 4356 H 418.866 -0.674186 1.9402 0
M  V30 4357 H 417.096 -3.22104 2.13976 0
M  V30 4358 H 418.785 -3.15523 2.55343 0
M  V30 4359 H 419.551 -1.67867 4.55023 0
M  V30 4360 H 415.43 -2.63498 3.78272 0
M  V30 4361 H 418.974 -1.12125 6.8853 0
M  V30 4362 H 414.871 -2.08211 6.10998 0
M  V30 4363 H 415.639 -1.38822 8.06642 0
M  V30 4364 N 418.302 -1.35869 -0.798587 0
M  V30 4365 C 419.53 -1.32722 -1.58722 0
M  V30 4366 C 419.945 0.0935631 -1.88568 0
M  V30 4367 O 419.302 1.04784 -1.49421 0
M  V30 4368 C 419.353 -2.13974 -2.91371 0
M  V30 4369 O 419.074 -3.50514 -2.62815 0
M  V30 4370 C 420.575 -2.18504 -3.85708 0
M  V30 4371 H 417.795 -0.45562 -0.492596 0
M  V30 4372 H 420.339 -1.78837 -0.991843 0
M  V30 4373 H 418.494 -1.71438 -3.47402 0
M  V30 4374 H 418.908 -3.92806 -3.47568 0
M  V30 4375 H 420.382 -2.79732 -4.75872 0
M  V30 4376 H 420.859 -1.18597 -4.22885 0
M  V30 4377 H 421.465 -2.61236 -3.35612 0
M  V30 4378 N 419.78 1.02168 -1.19998 0
M  V30 4379 C 421.01 1.79036 -1.031 0
M  V30 4380 C 421.418 1.84409 0.423078 0
M  V30 4381 O 420.761 1.29228 1.30559 0
M  V30 4382 C 420.823 3.25185 -1.53281 0
M  V30 4383 C 420.487 3.43431 -3.01503 0
M  V30 4384 C 421.484 3.33063 -3.99206 0
M  V30 4385 C 419.169 3.69412 -3.40353 0
M  V30 4386 C 421.163 3.48413 -5.33748 0
M  V30 4387 C 418.85 3.84406 -4.75053 0
M  V30 4388 C 419.848 3.7391 -5.71559 0
M  V30 4389 O 419.536 3.88452 -7.03818 0
M  V30 4390 H 419.268 0.570043 -0.363355 0
M  V30 4391 H 421.822 1.29524 -1.59414 0
M  V30 4392 H 420.052 3.75756 -0.913483 0
M  V30 4393 H 421.741 3.83671 -1.32481 0
M  V30 4394 H 422.507 3.12934 -3.70537 0
M  V30 4395 H 418.386 3.76671 -2.65782 0
M  V30 4396 H 421.93 3.40137 -6.09059 0
M  V30 4397 H 417.827 4.04035 -5.03415 0
M  V30 4398 H 418.595 4.055 -7.10993 0
M  V30 4399 N 421.258 1.00505 1.21394 0
M  V30 4400 C 422.506 0.686415 1.90086 0
M  V30 4401 C 422.827 -0.785264 1.7849 0
M  V30 4402 O 422.097 -1.56387 1.17983 0
M  V30 4403 H 420.677 0.2509 0.703604 0
M  V30 4404 H 423.339 1.27417 1.47482 0
M  V30 4405 H 422.435 0.959621 2.96981 0
M  V30 4406 N 422.737 -1.36956 0.779787 0
M  V30 4407 C 423.7 -2.2851 0.177662 0
M  V30 4408 C 424.7 -1.48393 -0.619377 0
M  V30 4409 O 425.89 -1.68505 -0.441785 0
M  V30 4410 C 423.022 -3.32428 -0.755279 0
M  V30 4411 H 424.215 -2.83269 0.984823 0
M  V30 4412 H 421.768 -1.46358 0.548544 0
M  V30 4413 H 422.503 -2.82808 -1.58714 0
M  V30 4414 H 422.288 -3.91659 -0.185817 0
M  V30 4415 H 423.778 -4.00824 -1.17174 0
M  V30 4416 N 424.215 -0.530993 -1.48385 0
M  V30 4417 C 425.462 0.0027373 -2.025 0
M  V30 4418 C 425.79 1.34186 -1.40799 0
M  V30 4419 O 425.045 1.88 -0.543544 0
M  V30 4420 C 425.344 0.172742 -3.56982 0
M  V30 4421 C 425.01 -1.09215 -4.37473 0
M  V30 4422 C 423.672 -1.43881 -4.59186 0
M  V30 4423 C 426.024 -1.93153 -4.84088 0
M  V30 4424 C 423.352 -2.62381 -5.2476 0
M  V30 4425 C 425.704 -3.10833 -5.50968 0
M  V30 4426 C 424.368 -3.45843 -5.70919 0
M  V30 4427 H 423.638 0.00100165 -0.740999 0
M  V30 4428 H 426.285 -0.697219 -1.78357 0
M  V30 4429 H 424.59 0.955473 -3.79971 0
M  V30 4430 H 426.287 0.600642 -3.96476 0
M  V30 4431 H 422.877 -0.812177 -4.20834 0
M  V30 4432 H 427.061 -1.67683 -4.67115 0
M  V30 4433 H 422.317 -2.89707 -5.38405 0
M  V30 4434 H 426.491 -3.7618 -5.86056 0
M  V30 4435 H 424.118 -4.37764 -6.21503 0
M  V30 4436 N 425.693 1.55336 -0.266172 0
M  V30 4437 C 426.933 2.01303 0.354459 0
M  V30 4438 C 427.297 1.15046 1.53715 0
M  V30 4439 O 428.498 1.50554 2.22681 0
M  V30 4440 C 426.769 3.49748 0.735579 0
M  V30 4441 S 428.328 4.1771 1.34401 0
M  V30 4442 H 425.146 0.702333 0.110674 0
M  V30 4443 H 427.748 1.91653 -0.385916 0
M  V30 4444 H 426.452 4.10181 -0.134196 0
M  V30 4445 H 425.983 3.63364 1.50764 0
M  V30 4446 H 427.998 4.20594 2.63278 0
M  V30 4447 N 427.171 -0.0066808 1.57599 0
M  V30 4448 C 428.417 -0.693947 1.90558 0
M  V30 4449 C 428.75 -1.73792 0.866594 0
M  V30 4450 O 428.025 -1.94156 -0.115548 0
M  V30 4451 C 428.308 -1.34317 3.34112 0
M  V30 4452 C 428.161 -0.311189 4.48722 0
M  V30 4453 C 429.48 -2.27116 3.7697 0
M  V30 4454 H 426.599 -0.250803 0.693013 0
M  V30 4455 H 429.241 0.043242 1.89951 0
M  V30 4456 H 427.391 -1.9715 3.3476 0
M  V30 4457 H 429.063 0.316944 4.6021 0
M  V30 4458 H 427.306 0.367253 4.32243 0
M  V30 4459 H 427.977 -0.804366 5.46108 0
M  V30 4460 H 430.453 -1.74306 3.77831 0
M  V30 4461 H 429.329 -2.69511 4.78179 0
M  V30 4462 H 429.59 -3.14743 3.10466 0
M  V30 4463 N 428.649 -1.55105 -0.279332 0
M  V30 4464 C 429.596 -1.8755 -1.34513 0
M  V30 4465 C 430.566 -0.726384 -1.49375 0
M  V30 4466 O 431.751 -0.977063 -1.63884 0
M  V30 4467 C 428.891 -2.14738 -2.70151 0
M  V30 4468 C 428.004 -3.42285 -2.63562 0
M  V30 4469 C 427.139 -3.59206 -3.91337 0
M  V30 4470 C 426.178 -4.80467 -3.79233 0
M  V30 4471 N 425.315 -4.94079 -4.98829 0
M  V30 4472 H 430.155 -2.78456 -1.06143 0
M  V30 4473 H 427.692 -1.37867 -0.512936 0
M  V30 4474 H 429.65 -2.28501 -3.49061 0
M  V30 4475 H 428.28 -1.27075 -2.96735 0
M  V30 4476 H 427.332 -3.37029 -1.76397 0
M  V30 4477 H 428.644 -4.31328 -2.50515 0
M  V30 4478 H 427.798 -3.72751 -4.78687 0
M  V30 4479 H 426.537 -2.68337 -4.07243 0
M  V30 4480 H 425.542 -4.66932 -2.90266 0
M  V30 4481 H 426.767 -5.72765 -3.64852 0
M  V30 4482 H 424.713 -4.06139 -5.15158 0
M  V30 4483 H 424.63 -5.77156 -4.8829 0
M  V30 4484 H 425.898 -5.12003 -5.8777 0
M  V30 4485 N 430.127 0.543554 -1.4793 0
M  V30 4486 C 431.074 1.64942 -1.6144 0
M  V30 4487 C 432.044 1.59692 -0.456903 0
M  V30 4488 O 433.229 1.78321 -0.678688 0
M  V30 4489 C 430.369 3.03238 -1.64744 0
M  V30 4490 C 429.482 3.18823 -2.91506 0
M  V30 4491 C 428.617 4.47599 -2.86057 0
M  V30 4492 C 427.656 4.56664 -4.07584 0
M  V30 4493 N 426.793 5.76811 -4.00292 0
M  V30 4494 H 431.633 1.52733 -2.55884 0
M  V30 4495 H 429.17 0.7438 -1.2691 0
M  V30 4496 H 431.128 3.83339 -1.64641 0
M  V30 4497 H 429.758 3.1425 -0.738017 0
M  V30 4498 H 428.81 2.32064 -3.01414 0
M  V30 4499 H 430.122 3.21384 -3.81463 0
M  V30 4500 H 429.276 5.35975 -2.84281 0
M  V30 4501 H 428.015 4.47538 -1.93807 0
M  V30 4502 H 427.02 3.66697 -4.09651 0
M  V30 4503 H 428.245 4.58474 -5.00978 0
M  V30 4504 H 426.191 5.77673 -3.10853 0
M  V30 4505 H 426.108 5.80808 -4.8394 0
M  V30 4506 H 427.376 6.67512 -4.02553 0
M  V30 4507 N 431.605 1.3629 0.791371 0
M  V30 4508 C 432.845 1.31792 1.56238 0
M  V30 4509 C 433.209 -0.102237 1.91728 0
M  V30 4510 O 434.41 -0.271759 2.67423 0
M  V30 4511 C 432.681 2.21303 2.80642 0
M  V30 4512 S 434.24 2.34468 3.70904 0
M  V30 4513 H 431.058 0.468141 0.535131 0
M  V30 4514 H 433.66 1.71841 0.932246 0
M  V30 4515 H 432.364 3.23439 2.52617 0
M  V30 4516 H 431.895 1.82266 3.4863 0
M  V30 4517 H 433.91 1.54074 4.71673 0
M  V30 4518 N 433.083 -1.0153 1.20538 0
M  V30 4519 C 434.494 -1.56598 1.01657 0
M  V30 4520 C 434.845 -1.91505 -0.426668 0
M  V30 4521 O 433.97 -1.72375 -1.30827 0
M  V30 4522 C 434.565 -2.84542 1.83905 0
M  V30 4523 C 433.124 -3.36133 1.69386 0
M  V30 4524 C 432.271 -2.09427 1.81757 0
M  V30 4525 H 435.222 -0.838974 1.34711 0
M  V30 4526 H 435.243 -3.56004 1.34319 0
M  V30 4527 H 434.755 -2.59105 2.8894 0
M  V30 4528 H 432.856 -3.66528 0.669933 0
M  V30 4529 H 432.969 -4.08248 2.50739 0
M  V30 4530 H 431.333 -2.21941 1.24957 0
M  V30 4531 H 432.116 -1.86414 2.88279 0
M  V30 4532 N 434.561 -1.01147 -1.20859 0
M  V30 4533 C 435.511 -0.548247 -2.2131 0
M  V30 4534 C 436.495 0.393646 -1.5601 0
M  V30 4535 O 437.687 0.217445 -1.75659 0
M  V30 4536 C 434.816 0.117252 -3.431 0
M  V30 4537 C 433.902 -0.846043 -4.15575 0
M  V30 4538 N 434.293 -2.00149 -4.64515 0
M  V30 4539 C 432.591 -0.665783 -4.41003 0
M  V30 4540 C 433.292 -2.60764 -5.19978 0
M  V30 4541 N 432.268 -1.88868 -5.09735 0
M  V30 4542 H 436.07 -1.42921 -2.56809 0
M  V30 4543 H 433.584 -0.876142 -1.36739 0
M  V30 4544 H 435.581 0.46662 -4.1428 0
M  V30 4545 H 434.241 0.994115 -3.09107 0
M  V30 4546 H 435.252 -2.38162 -4.5989 0
M  V30 4547 H 431.929 0.163456 -4.1718 0
M  V30 4548 H 433.319 -3.58519 -5.68255 0
M  V30 4549 N 436.039 1.36541 -0.78704 0
M  V30 4550 C 436.987 2.31965 -0.171724 0
M  V30 4551 C 437.981 1.55689 0.667631 0
M  V30 4552 O 439.187 1.70969 0.562981 0
M  V30 4553 H 435.562 0.751101 -0.0367545 0
M  V30 4554 H 437.533 2.81428 -0.992017 0
M  V30 4555 C 436.282 3.40968 0.680904 0
M  V30 4556 H 435.605 3.99775 0.0443961 0
M  V30 4557 H 437.045 4.10063 1.07815 0
M  V30 4558 C 435.504 2.82338 1.83813 0
M  V30 4559 O 436.034 2.74311 2.93456 0
M  V30 4560 N 434.24 2.39661 1.6435 0
M  V30 4561 H 433.787 2.46389 0.751668 0
M  V30 4562 H 433.745 2.00779 2.4194 0
M  V30 4563 N 437.518 0.538854 1.48102 0
M  V30 4564 C 438.765 0.0080018 2.02498 0
M  V30 4565 C 439.093 -1.33437 1.41509 0
M  V30 4566 O 438.348 -1.87709 0.553507 0
M  V30 4567 C 438.647 -0.153808 3.57069 0
M  V30 4568 C 438.313 1.11533 4.36888 0
M  V30 4569 C 436.975 1.46314 4.58417 0
M  V30 4570 C 439.327 1.95718 4.83057 0
M  V30 4571 C 436.655 2.6516 5.23361 0
M  V30 4572 C 439.007 3.13751 5.49312 0
M  V30 4573 C 437.671 3.48866 5.69077 0
M  V30 4574 H 436.941 0.00292807 0.740994 0
M  V30 4575 H 439.588 0.706668 1.77984 0
M  V30 4576 H 437.893 -0.935309 3.80472 0
M  V30 4577 H 439.59 -0.579607 3.96789 0
M  V30 4578 H 436.18 0.834484 4.20398 0
M  V30 4579 H 440.364 1.70158 4.66219 0
M  V30 4580 H 435.62 2.92558 5.36861 0
M  V30 4581 H 439.794 3.79282 5.84053 0
M  V30 4582 H 437.421 4.41054 6.19173 0
M  V30 4583 N 438.996 -1.55193 0.274407 0
M  V30 4584 C 440.242 -1.99877 -0.343086 0
M  V30 4585 C 440.575 -1.16256 -1.55558 0
M  V30 4586 O 439.85 -0.232462 -1.93106 0
M  V30 4587 C 440.133 -3.52706 -0.725965 0
M  V30 4588 C 439.986 -4.47081 0.493818 0
M  V30 4589 C 441.305 -4.11422 -1.56268 0
M  V30 4590 H 438.424 -0.726625 -0.123229 0
M  V30 4591 H 441.066 -1.86136 0.38121 0
M  V30 4592 H 439.216 -3.64546 -1.34307 0
M  V30 4593 H 440.888 -4.47186 1.13237 0
M  V30 4594 H 439.131 -4.1877 1.13201 0
M  V30 4595 H 439.802 -5.51699 0.18217 0
M  V30 4596 H 442.278 -4.02855 -1.04151 0
M  V30 4597 H 441.154 -5.18568 -1.79939 0
M  V30 4598 H 441.415 -3.61607 -2.54348 0
M  V30 4599 N 440.474 -0.00167713 -1.576 0
M  V30 4600 C 441.72 0.683832 -1.90923 0
M  V30 4601 C 442.053 1.7333 -0.875799 0
M  V30 4602 O 441.328 1.94215 0.10525 0
M  V30 4603 C 441.611 1.32543 -3.3482 0
M  V30 4604 C 441.464 0.287387 -4.48881 0
M  V30 4605 C 442.783 2.25114 -3.78169 0
M  V30 4606 H 439.902 0.247125 -0.694333 0
M  V30 4607 H 442.544 -0.0533149 -1.89925 0
M  V30 4608 H 440.694 1.95372 -3.35801 0
M  V30 4609 H 442.366 -0.341346 -4.60035 0
M  V30 4610 H 440.609 -0.39017 -4.32042 0
M  V30 4611 H 441.28 0.775393 -5.46527 0
M  V30 4612 H 443.756 1.723 -3.7875 0
M  V30 4613 H 442.632 2.66971 -4.79602 0
M  V30 4614 H 442.893 3.13092 -3.12131 0
M  V30 4615 N 441.952 1.55251 0.271103 0
M  V30 4616 C 443.229 1.66664 1.02384 0
M  V30 4617 C 443.609 0.534363 2.04225 0
M  V30 4618 O 442.957 -0.465337 2.23712 0
M  V30 4619 C 443.167 3.05961 1.67895 0
M  V30 4620 C 444.515 3.63772 2.18986 0
M  V30 4621 O 445.539 3.08606 1.77878 0
M  V30 4622 O 444.398 4.60429 2.94393 0
M  V30 4623 H 441.492 0.676957 0.475035 0
M  V30 4624 H 444.038 1.67589 0.26681 0
M  V30 4625 H 442.81 3.79815 0.941071 0
M  V30 4626 H 442.433 3.08943 2.5028 0
M  V30 4627 N 443.43 -0.535701 1.48216 0
M  V30 4628 C 444.655 -1.32149 1.59848 0
M  V30 4629 C 445.08 -1.86338 0.256842 0
M  V30 4630 O 444.438 -1.64107 -0.770632 0
M  V30 4631 C 444.486 -2.45224 2.64381 0
M  V30 4632 O 443.59 -3.48093 2.21144 0
M  V30 4633 H 442.931 -0.391634 0.536208 0
M  V30 4634 H 445.461 -0.645202 1.94161 0
M  V30 4635 H 445.471 -2.91491 2.85476 0
M  V30 4636 H 444.146 -2.05143 3.61786 0
M  V30 4637 H 442.723 -3.07984 2.10239 0
M  V30 4638 N 444.908 -1.36708 -0.784132 0
M  V30 4639 C 446.133 -1.34565 -1.5782 0
M  V30 4640 C 446.558 0.0695257 -1.87971 0
M  V30 4641 O 445.916 1.04302 -1.48293 0
M  V30 4642 C 445.964 -2.17952 -2.87279 0
M  V30 4643 O 445.068 -1.57563 -3.81114 0
M  V30 4644 H 444.409 -0.460337 -0.478524 0
M  V30 4645 H 446.939 -1.80064 -0.971495 0
M  V30 4646 H 446.949 -2.30721 -3.365 0
M  V30 4647 H 445.624 -3.20823 -2.64661 0
M  V30 4648 H 444.201 -1.53764 -3.39722 0
M  V30 4649 N 446.386 1.0089 -1.21074 0
M  V30 4650 C 447.611 1.78727 -1.05221 0
M  V30 4651 C 448.036 1.83932 0.393795 0
M  V30 4652 O 447.394 1.28004 1.28393 0
M  V30 4653 C 447.442 3.20665 -1.64944 0
M  V30 4654 O 446.546 4.02632 -0.892273 0
M  V30 4655 H 445.887 0.550973 -0.370574 0
M  V30 4656 H 448.417 1.26847 -1.60534 0
M  V30 4657 H 448.427 3.71352 -1.69002 0
M  V30 4658 H 447.102 3.16191 -2.70177 0
M  V30 4659 H 445.679 3.61207 -0.926492 0
M  V30 4660 N 447.864 1.01787 1.20321 0
M  V30 4661 C 449.104 0.716493 1.91431 0
M  V30 4662 C 449.468 -0.740352 1.77152 0
M  V30 4663 O 450.669 -1.1543 2.42754 0
M  V30 4664 C 448.94 1.14169 3.38674 0
M  V30 4665 S 450.499 0.962482 4.28114 0
M  V30 4666 H 447.317 0.261175 0.661293 0
M  V30 4667 H 449.919 1.30539 1.45533 0
M  V30 4668 H 448.623 2.19784 3.46588 0
M  V30 4669 H 448.154 0.545621 3.89598 0
M  V30 4670 H 450.169 -0.133253 4.96021 0
M  V30 4671 N 449.342 -1.36122 0.79427 0
M  V30 4672 C 450.588 -1.99406 0.369452 0
M  V30 4673 C 450.921 -1.62886 -1.05743 0
M  V30 4674 O 450.196 -0.886053 -1.73145 0
M  V30 4675 C 450.479 -3.56046 0.538833 0
M  V30 4676 C 450.332 -4.02404 2.00976 0
M  V30 4677 C 451.651 -4.40079 -0.0431359 0
M  V30 4678 H 448.77 -0.724397 0.135712 0
M  V30 4679 H 451.412 -1.61461 1.00151 0
M  V30 4680 H 449.562 -3.885 0.000771004 0
M  V30 4681 H 451.234 -3.80415 2.60926 0
M  V30 4682 H 449.477 -3.53765 2.51063 0
M  V30 4683 H 450.148 -5.11344 2.07922 0
M  V30 4684 H 452.624 -4.14013 0.416228 0
M  V30 4685 H 451.5 -5.48799 0.105374 0
M  V30 4686 H 451.761 -4.27264 -1.13571 0
M  V30 4687 N 450.82 -0.546701 -1.47814 0
M  V30 4688 C 452.236 -0.205717 -1.58269 0
M  V30 4689 C 452.436 1.29153 -1.54667 0
M  V30 4690 O 451.492 2.07098 -1.44453 0
M  V30 4691 C 452.805 -0.823065 -2.89216 0
M  V30 4692 C 454.353 -0.793328 -3.02779 0
M  V30 4693 C 454.828 -1.38955 -4.36412 0
M  V30 4694 N 456.319 -1.35227 -4.43021 0
M  V30 4695 C 457.054 -1.78333 -5.44963 0
M  V30 4696 N 456.55 -2.29246 -6.53772 0
M  V30 4697 N 458.343 -1.69467 -5.35945 0
M  V30 4698 H 450.494 -1.5196 -1.48398 0
M  V30 4699 H 452.757 -0.633078 -0.705632 0
M  V30 4700 H 452.463 -1.8749 -2.97558 0
M  V30 4701 H 452.337 -0.309915 -3.75925 0
M  V30 4702 H 454.724 0.249784 -2.94041 0
M  V30 4703 H 454.805 -1.34412 -2.17639 0
M  V30 4704 H 454.449 -2.43168 -4.45906 0
M  V30 4705 H 454.379 -0.814291 -5.20266 0
M  V30 4706 H 456.87 -0.979739 -3.64979 0
M  V30 4707 H 457.183 -2.60089 -7.27718 0
M  V30 4708 H 455.528 -2.3325 -6.5469 0
M  V30 4709 H 458.719 -1.29477 -4.49837 0
M  V30 4710 H 458.892 -2.03381 -6.15256 0
M  V30 4711 N 452.299 1.55045 -0.282633 0
M  V30 4712 C 453.262 2.21515 0.588539 0
M  V30 4713 C 454.262 1.19535 1.07554 0
M  V30 4714 O 455.452 1.44391 0.974514 0
M  V30 4715 C 452.584 2.88704 1.8128 0
M  V30 4716 H 453.777 2.99899 0.00806397 0
M  V30 4717 H 451.33 1.56265 -0.0333067 0
M  V30 4718 H 452.065 2.14352 2.43359 0
M  V30 4719 H 451.85 3.63443 1.47144 0
M  V30 4720 H 453.34 3.39465 2.43214 0
M  V30 4721 N 453.777 0.010035 1.57597 0
M  V30 4722 C 455.017 -0.677084 1.9286 0
M  V30 4723 C 455.381 -1.70377 0.885192 0
M  V30 4724 O 456.582 -2.44199 1.12339 0
M  V30 4725 C 454.853 -1.29452 3.33132 0
M  V30 4726 S 456.412 -2.00537 3.90295 0
M  V30 4727 H 453.23 -0.223409 0.674989 0
M  V30 4728 H 455.832 0.0691289 1.95378 0
M  V30 4729 H 454.536 -0.534593 4.06903 0
M  V30 4730 H 454.067 -2.07845 3.34012 0
M  V30 4731 H 456.082 -3.28168 3.72183 0
M  V30 4732 N 455.255 -1.55392 -0.262866 0
M  V30 4733 C 456.666 -1.67079 -0.833158 0
M  V30 4734 C 457.017 -0.604539 -1.86654 0
M  V30 4735 O 456.142 0.252138 -2.14926 0
M  V30 4736 C 456.737 -3.02891 -1.51797 0
M  V30 4737 C 455.296 -3.16571 -2.03617 0
M  V30 4738 C 454.443 -2.62909 -0.881701 0
M  V30 4739 H 457.394 -1.58652 -0.0389986 0
M  V30 4740 H 457.415 -2.96445 -2.38538 0
M  V30 4741 H 456.927 -3.80473 -0.765619 0
M  V30 4742 H 455.028 -2.43782 -2.81782 0
M  V30 4743 H 455.141 -4.23271 -2.24452 0
M  V30 4744 H 453.505 -2.20324 -1.27786 0
M  V30 4745 H 454.288 -3.43003 -0.14269 0
M  V30 4746 N 456.733 0.527833 -1.48498 0
M  V30 4747 C 457.958 1.313 -1.60546 0
M  V30 4748 C 458.383 1.86199 -0.26672 0
M  V30 4749 O 457.741 1.64513 0.761918 0
M  V30 4750 C 457.789 2.43818 -2.65678 0
M  V30 4751 O 456.893 3.46916 -2.22987 0
M  V30 4752 H 456.234 0.388784 -0.538277 0
M  V30 4753 H 458.764 0.634896 -1.945 0
M  V30 4754 H 458.774 2.89973 -2.87018 0
M  V30 4755 H 457.449 2.03222 -3.62869 0
M  V30 4756 H 456.026 3.06864 -2.11869 0
M  V30 4757 N 458.211 1.37122 0.776871 0
M  V30 4758 C 459.436 1.354 1.57104 0
M  V30 4759 C 459.861 -0.0595562 1.88006 0
M  V30 4760 O 459.219 -1.03514 1.48844 0
M  V30 4761 C 459.267 2.19472 2.8612 0
M  V30 4762 O 458.371 1.59582 3.80273 0
M  V30 4763 H 457.712 0.462869 0.476076 0
M  V30 4764 H 460.242 1.80577 0.961932 0
M  V30 4765 H 460.252 2.32502 3.35271 0
M  V30 4766 H 458.927 3.22222 2.62956 0
M  V30 4767 H 457.504 1.55564 3.38902 0
M  V30 4768 N 459.689 -1.00246 1.21608 0
M  V30 4769 C 460.636 -2.09073 0.977613 0
M  V30 4770 C 461.606 -1.65815 -0.097297 0
M  V30 4771 O 462.791 -1.90734 0.0503445 0
M  V30 4772 C 459.931 -3.40671 0.551133 0
M  V30 4773 C 459.044 -3.97326 1.69576 0
M  V30 4774 C 458.179 -5.17043 1.2182 0
M  V30 4775 C 457.218 -5.65813 2.335 0
M  V30 4776 N 456.355 -6.76778 1.86859 0
M  V30 4777 H 461.195 -2.28806 1.90924 0
M  V30 4778 H 458.732 -1.12186 0.951452 0
M  V30 4779 H 460.69 -4.16225 0.285097 0
M  V30 4780 H 459.32 -3.20967 -0.343489 0
M  V30 4781 H 458.372 -3.18734 2.07637 0
M  V30 4782 H 459.684 -4.29511 2.53617 0
M  V30 4783 H 458.838 -5.99852 0.908975 0
M  V30 4784 H 457.577 -4.86458 0.347869 0
M  V30 4785 H 456.582 -4.81599 2.65222 0
M  V30 4786 H 457.807 -5.98427 3.21033 0
M  V30 4787 H 455.753 -6.47994 1.02174 0
M  V30 4788 H 455.67 -7.08231 2.64471 0
M  V30 4789 H 456.938 -7.63116 1.58978 0
M  V30 4790 N 461.167 -1.02423 -1.1978 0
M  V30 4791 C 462.1 -0.545641 -2.21581 0
M  V30 4792 C 463.078 0.411024 -1.57319 0
M  V30 4793 O 464.262 0.329223 -1.85603 0
M  V30 4794 C 461.389 0.204973 -3.38079 0
M  V30 4795 C 460.435 -0.70241 -4.20676 0
M  V30 4796 S 461.268 -2.17595 -4.89298 0
M  V30 4797 C 462.424 -1.43572 -6.09211 0
M  V30 4798 H 462.657 -1.4082 -2.61834 0
M  V30 4799 H 460.19 -0.833771 -1.29952 0
M  V30 4800 H 462.148 0.631924 -4.05607 0
M  V30 4801 H 460.809 1.0432 -2.9627 0
M  V30 4802 H 460.002 -0.123193 -5.03849 0
M  V30 4803 H 459.604 -1.06747 -3.58442 0
M  V30 4804 H 461.896 -0.719806 -6.73665 0
M  V30 4805 H 462.839 -2.24388 -6.71607 0
M  V30 4806 H 463.247 -0.935252 -5.56699 0
M  V30 4807 N 462.645 1.35699 -0.801477 0
M  V30 4808 C 463.555 2.33661 -0.209691 0
M  V30 4809 C 464.571 1.6162 0.644591 0
M  V30 4810 O 465.747 1.93529 0.557545 0
M  V30 4811 C 462.812 3.40816 0.636033 0
M  V30 4812 C 461.873 4.28639 -0.238147 0
M  V30 4813 C 461.106 5.30676 0.567307 0
M  V30 4814 O 461.329 5.41174 1.8024 0
M  V30 4815 O 460.263 6.01887 -0.0391336 0
M  V30 4816 H 464.089 2.8606 -1.01996 0
M  V30 4817 H 461.674 1.38379 -0.563164 0
M  V30 4818 H 463.556 4.06301 1.11791 0
M  V30 4819 H 462.231 2.90696 1.42399 0
M  V30 4820 H 461.138 3.66152 -0.767044 0
M  V30 4821 H 462.471 4.82143 -0.989915 0
M  V30 4822 N 464.123 0.554532 1.47522 0
M  V30 4823 C 465.369 0.0295227 2.02779 0
M  V30 4824 C 465.702 -1.31582 1.42828 0
M  V30 4825 O 464.977 -1.85561 0.582872 0
M  V30 4826 C 465.26 -0.0664057 3.60039 0
M  V30 4827 C 465.113 1.30585 4.30427 0
M  V30 4828 C 466.432 -0.781162 4.33112 0
M  V30 4829 H 463.551 0.0122027 0.736899 0
M  V30 4830 H 466.193 0.716305 1.7598 0
M  V30 4831 H 464.343 -0.651307 3.83002 0
M  V30 4832 H 466.015 1.93374 4.18813 0
M  V30 4833 H 464.258 1.88125 3.90886 0
M  V30 4834 H 464.929 1.19147 5.38988 0
M  V30 4835 H 467.405 -0.284565 4.15126 0
M  V30 4836 H 466.281 -0.817237 5.42782 0
M  V30 4837 H 466.542 -1.83672 4.0214 0
M  V30 4838 N 465.601 -1.54893 0.290851 0
M  V30 4839 C 466.511 -2.26812 -0.59945 0
M  V30 4840 C 467.527 -1.29963 -1.15696 0
M  V30 4841 O 468.703 -1.62928 -1.18391 0
M  V30 4842 C 465.768 -2.98716 -1.75982 0
M  V30 4843 C 464.829 -4.1108 -1.2374 0
M  V30 4844 C 464.062 -4.79546 -2.34246 0
M  V30 4845 O 464.285 -4.47309 -3.53936 0
M  V30 4846 O 463.219 -5.67165 -2.01512 0
M  V30 4847 H 467.045 -3.03696 -0.0163561 0
M  V30 4848 H 464.63 -1.49289 0.0576755 0
M  V30 4849 H 466.512 -3.43851 -2.43607 0
M  V30 4850 H 465.187 -2.24737 -2.3297 0
M  V30 4851 H 464.094 -3.70367 -0.527163 0
M  V30 4852 H 465.427 -4.87007 -0.71307 0
M  V30 4853 N 467.08 -0.0183926 -1.57589 0
M  V30 4854 C 467.99 0.982943 -2.13015 0
M  V30 4855 C 469.006 1.36443 -1.07979 0
M  V30 4856 O 470.182 1.44802 -1.3998 0
M  V30 4857 C 467.247 2.25024 -2.63752 0
M  V30 4858 C 466.308 1.93018 -3.83461 0
M  V30 4859 C 465.541 3.13706 -4.31769 0
M  V30 4860 O 465.764 4.2601 -3.79305 0
M  V30 4861 O 464.698 2.96629 -5.23732 0
M  V30 4862 H 468.524 0.541709 -2.9883 0
M  V30 4863 H 466.109 0.201565 -1.48034 0
M  V30 4864 H 467.991 2.99441 -2.96502 0
M  V30 4865 H 466.666 2.68349 -1.81026 0
M  V30 4866 H 465.573 1.16019 -3.55655 0
M  V30 4867 H 466.906 1.54516 -4.67317 0
M  V30 4868 N 468.558 1.5553 0.254621 0
M  V30 4869 C 469.506 1.9048 1.33492 0
M  V30 4870 C 470.5 0.78304 1.50216 0
M  V30 4871 O 471.706 0.967582 1.51782 0
M  V30 4872 H 468.081 0.604846 0.44684 0
M  V30 4873 H 470.052 2.80688 1.01275 0
M  V30 4874 C 468.801 2.20928 2.68489 0
M  V30 4875 H 468.124 3.06742 2.56417 0
M  V30 4876 H 469.564 2.49291 3.42972 0
M  V30 4877 C 468.023 1.023 3.20993 0
M  V30 4878 O 468.553 0.267027 4.00811 0
M  V30 4879 N 466.759 0.815714 2.78917 0
M  V30 4880 H 466.306 1.43217 2.14119 0
M  V30 4881 H 466.264 0.0236532 3.14391 0
M  V30 4882 N 470.036 -0.519951 1.48776 0
M  V30 4883 C 471.284 -1.2727 1.56993 0
M  V30 4884 C 471.605 -1.9339 0.25004 0
M  V30 4885 O 470.875 -1.81822 -0.729216 0
M  V30 4886 H 469.455 -0.472732 0.578389 0
M  V30 4887 H 472.117 -0.604234 1.85297 0
M  V30 4888 H 471.213 -2.04669 2.3562 0
M  V30 4889 N 471.514 -1.37532 -0.769588 0
M  V30 4890 C 472.763 -1.32183 -1.5235 0
M  V30 4891 C 473.076 0.0906555 -1.9539 0
M  V30 4892 O 474.282 0.266628 -2.70188 0
M  V30 4893 C 472.738 -2.32029 -2.75119 0
M  V30 4894 C 472.346 -3.78816 -2.3917 0
M  V30 4895 C 474.09 -2.35694 -3.53056 0
M  V30 4896 C 471.997 -4.70388 -3.58453 0
M  V30 4897 H 470.927 -0.491275 -0.571984 0
M  V30 4898 H 473.578 -1.63004 -0.842739 0
M  V30 4899 H 471.96 -1.94229 -3.45096 0
M  V30 4900 H 473.134 -4.25466 -1.76962 0
M  V30 4901 H 471.449 -3.78117 -1.74402 0
M  V30 4902 H 474.046 -3.01312 -4.41718 0
M  V30 4903 H 474.389 -1.37117 -3.93071 0
M  V30 4904 H 474.922 -2.72212 -2.90078 0
M  V30 4905 H 471.661 -5.70102 -3.23518 0
M  V30 4906 H 471.181 -4.28442 -4.19758 0
M  V30 4907 H 472.86 -4.87628 -4.25239 0
M  V30 4908 N 472.992 0.995999 -1.22138 0
M  V30 4909 C 473.939 2.08551 -0.988687 0
M  V30 4910 C 474.909 1.65864 0.0885021 0
M  V30 4911 O 476.094 1.90704 -0.0604589 0
M  V30 4912 C 473.234 3.40374 -0.569191 0
M  V30 4913 C 472.347 3.96421 -1.71681 0
M  V30 4914 C 471.482 5.1639 -1.2456 0
M  V30 4915 C 470.521 5.64567 -2.36497 0
M  V30 4916 N 469.658 6.75777 -1.90445 0
M  V30 4917 H 474.498 2.2779 -1.92135 0
M  V30 4918 H 472.035 1.1168 -0.957388 0
M  V30 4919 H 473.993 4.16068 -0.307166 0
M  V30 4920 H 472.623 3.21145 0.326462 0
M  V30 4921 H 471.675 3.17628 -2.09324 0
M  V30 4922 H 472.987 4.2816 -2.55891 0
M  V30 4923 H 472.141 5.99362 -0.940774 0
M  V30 4924 H 470.88 4.86266 -0.373662 0
M  V30 4925 H 469.885 4.80185 -2.67772 0
M  V30 4926 H 471.11 5.96716 -3.24202 0
M  V30 4927 H 469.056 6.47443 -1.05609 0
M  V30 4928 H 468.973 7.06818 -2.68223 0
M  V30 4929 H 470.241 7.62262 -1.63022 0
M  V30 4930 N 474.47 1.03057 1.19235 0
M  V30 4931 C 475.403 0.557384 2.21288 0
M  V30 4932 C 476.381 -0.402675 1.57535 0
M  V30 4933 O 477.565 -0.319376 1.85775 0
M  V30 4934 C 474.692 -0.187041 3.38183 0
M  V30 4935 C 473.738 0.72471 4.20298 0
M  V30 4936 S 474.571 2.20187 4.88137 0
M  V30 4937 C 475.727 1.46801 6.08441 0
M  V30 4938 H 475.96 1.42207 2.61083 0
M  V30 4939 H 473.493 0.840651 1.29508 0
M  V30 4940 H 475.451 -0.610405 4.05936 0
M  V30 4941 H 474.112 -1.02748 2.96819 0
M  V30 4942 H 473.305 0.149911 5.03777 0
M  V30 4943 H 472.907 1.08647 3.57871 0
M  V30 4944 H 475.199 0.755522 6.73274 0
M  V30 4945 H 476.142 2.27946 6.70407 0
M  V30 4946 H 476.55 0.964762 5.56195 0
M  V30 4947 N 475.948 -1.35272 0.808662 0
M  V30 4948 C 477.188 -2.00534 0.395668 0
M  V30 4949 C 477.552 -1.62755 -1.01857 0
M  V30 4950 O 478.753 -2.20752 -1.53368 0
M  V30 4951 C 477.024 -3.52732 0.575771 0
M  V30 4952 S 478.583 -4.38067 0.253507 0
M  V30 4953 H 475.401 -0.694962 0.150165 0
M  V30 4954 H 478.003 -1.64823 1.05137 0
M  V30 4955 H 476.707 -3.77714 1.60499 0
M  V30 4956 H 476.238 -3.93285 -0.0951739 0
M  V30 4957 H 478.253 -4.87252 -0.938068 0
M  V30 4958 N 477.426 -0.562348 -1.47226 0
M  V30 4959 C 478.373 0.182461 -2.30078 0
M  V30 4960 C 479.343 0.903503 -1.39377 0
M  V30 4961 O 480.528 0.898188 -1.68337 0
M  V30 4962 C 477.668 1.20322 -3.23445 0
M  V30 4963 C 476.781 0.487717 -4.29238 0
M  V30 4964 C 475.916 1.49422 -5.09752 0
M  V30 4965 C 474.955 0.763976 -6.07314 0
M  V30 4966 N 474.092 1.71755 -6.80768 0
M  V30 4967 H 478.932 -0.530169 -2.93246 0
M  V30 4968 H 476.469 -0.273276 -1.44539 0
M  V30 4969 H 478.427 1.80768 -3.76004 0
M  V30 4970 H 477.057 1.88382 -2.6213 0
M  V30 4971 H 476.109 -0.231374 -3.79696 0
M  V30 4972 H 477.421 -0.0841003 -4.98729 0
M  V30 4973 H 476.575 2.17206 -5.66486 0
M  V30 4974 H 475.314 2.09995 -4.40174 0
M  V30 4975 H 474.319 0.0722344 -5.49753 0
M  V30 4976 H 475.544 0.16391 -6.78902 0
M  V30 4977 H 473.49 2.31177 -6.13916 0
M  V30 4978 H 473.407 1.19802 -7.46447 0
M  V30 4979 H 474.675 2.38638 -7.42073 0
M  V30 4980 N 478.904 1.54736 -0.299062 0
M  V30 4981 C 480.315 1.8569 0.193971 0
M  V30 4982 C 480.666 1.22101 1.53577 0
M  V30 4983 O 479.791 0.51799 2.10109 0
M  V30 4984 C 480.386 3.36895 0.358733 0
M  V30 4985 C 478.945 3.67887 0.795986 0
M  V30 4986 C 478.092 2.77131 -0.096807 0
M  V30 4987 H 481.043 1.49934 -0.520134 0
M  V30 4988 H 481.064 3.61294 1.19361 0
M  V30 4989 H 480.576 3.83148 -0.617998 0
M  V30 4990 H 478.677 3.27151 1.78334 0
M  V30 4991 H 478.79 4.75114 0.616718 0
M  V30 4992 H 477.154 2.51153 0.423581 0
M  V30 4993 H 477.937 3.26204 -1.06986 0
M  V30 4994 N 480.382 0.0267497 1.57577 0
M  V30 4995 C 481.622 -0.65659 1.93567 0
M  V30 4996 C 481.986 -1.69429 0.903213 0
M  V30 4997 O 483.187 -2.42994 1.14923 0
M  V30 4998 C 481.458 -1.25912 3.34486 0
M  V30 4999 S 483.017 -1.96386 3.924 0
M  V30 5000 H 479.835 -0.216237 0.67732 0
M  V30 5001 H 482.437 0.0898475 1.95293 0
M  V30 5002 H 481.141 -0.491405 4.07447 0
M  V30 5003 H 480.672 -2.04291 3.36198 0
M  V30 5004 H 482.687 -3.24202 3.75643 0
M  V30 5005 N 481.861 -1.55662 -0.24637 0
M  V30 5006 C 483.089 -1.81575 -0.991876 0
M  V30 5007 C 483.504 -0.602545 -1.78927 0
M  V30 5008 O 482.861 0.428795 -1.77391 0
M  V30 5009 C 482.912 -3.05711 -1.92933 0
M  V30 5010 O 482.633 -4.22348 -1.1642 0
M  V30 5011 C 484.134 -3.44428 -2.79078 0
M  V30 5012 H 481.354 -0.604209 -0.291844 0
M  V30 5013 H 483.898 -2.02722 -0.269095 0
M  V30 5014 H 482.053 -2.86612 -2.60638 0
M  V30 5015 H 482.467 -4.92706 -1.79835 0
M  V30 5016 H 483.941 -4.34388 -3.40603 0
M  V30 5017 H 484.418 -2.65037 -3.50217 0
M  V30 5018 H 485.024 -3.65879 -2.16824 0
M  V30 5019 N 483.339 0.512053 -1.4905 0
M  V30 5020 C 484.616 1.27337 -1.48474 0
M  V30 5021 C 484.996 2.1009 -0.206301 0
M  V30 5022 O 484.344 2.136 0.811609 0
M  V30 5023 C 484.554 2.13954 -2.75726 0
M  V30 5024 C 485.902 2.73507 -3.24776 0
M  V30 5025 O 486.926 2.24229 -2.76767 0
M  V30 5026 O 485.785 3.63186 -4.08361 0
M  V30 5027 H 482.879 0.575652 -0.593762 0
M  V30 5028 H 485.425 0.527232 -1.61302 0
M  V30 5029 H 484.197 1.52709 -3.60272 0
M  V30 5030 H 483.82 2.95782 -2.65705 0
M  V30 5031 N 484.817 1.37938 0.762283 0
M  V30 5032 C 486.066 1.32989 1.51647 0
M  V30 5033 C 486.379 -0.0802922 1.95435 0
M  V30 5034 O 487.585 -0.252295 2.70325 0
M  V30 5035 C 486.041 2.33485 2.73885 0
M  V30 5036 C 485.649 3.80079 2.37157 0
M  V30 5037 C 487.393 2.37563 3.51801 0
M  V30 5038 C 485.3 4.72283 3.55954 0
M  V30 5039 H 484.23 0.494301 0.56937 0
M  V30 5040 H 486.881 1.63448 0.834083 0
M  V30 5041 H 485.263 1.96056 3.44061 0
M  V30 5042 H 486.437 4.26398 1.74704 0
M  V30 5043 H 484.752 3.79037 1.72395 0
M  V30 5044 H 487.349 3.0365 4.40114 0
M  V30 5045 H 487.692 1.39199 3.92338 0
M  V30 5046 H 488.225 2.73747 2.8863 0
M  V30 5047 H 484.964 5.7181 3.2049 0
M  V30 5048 H 484.484 4.30663 4.1748 0
M  V30 5049 H 486.163 4.89876 4.22647 0
M  V30 5050 N 486.295 -0.989507 1.22664 0
M  V30 5051 C 487.535 -1.7447 1.06488 0
M  V30 5052 C 487.899 -1.8794 -0.392737 0
M  V30 5053 O 489.1 -2.60175 -0.675446 0
M  V30 5054 C 487.371 -3.11043 1.76031 0
M  V30 5055 S 488.93 -4.02258 1.7531 0
M  V30 5056 H 485.748 -0.600123 0.381278 0
M  V30 5057 H 488.35 -1.18283 1.55658 0
M  V30 5058 H 487.054 -2.98884 2.81241 0
M  V30 5059 H 486.585 -3.72301 1.27105 0
M  V30 5060 H 488.6 -4.89623 0.805208 0
M  V30 5061 N 487.773 -1.03688 -1.18687 0
M  V30 5062 C 489.184 -0.766488 -1.70241 0
M  V30 5063 C 489.535 0.713052 -1.82784 0
M  V30 5064 O 488.66 1.55529 -1.50465 0
M  V30 5065 C 489.255 -1.38475 -3.09209 0
M  V30 5066 C 487.814 -1.16276 -3.5799 0
M  V30 5067 C 486.961 -1.4778 -2.34641 0
M  V30 5068 H 489.912 -1.20378 -1.03415 0
M  V30 5069 H 489.933 -0.785939 -3.72295 0
M  V30 5070 H 489.445 -2.46157 -3.00048 0
M  V30 5071 H 487.546 -0.104508 -3.72453 0
M  V30 5072 H 487.659 -1.8571 -4.41643 0
M  V30 5073 H 486.023 -0.897366 -2.38368 0
M  V30 5074 H 486.806 -2.56562 -2.28102 0
M  V30 5075 N 489.251 1.34841 -0.815825 0
M  V30 5076 C 490.198 2.29644 -0.230664 0
M  V30 5077 C 491.168 1.53253 0.640533 0
M  V30 5078 O 492.353 1.81653 0.583672 0
M  V30 5079 C 489.493 3.39715 0.607275 0
M  V30 5080 C 488.606 4.31056 -0.28538 0
M  V30 5081 C 487.741 5.28225 0.561446 0
M  V30 5082 C 486.78 6.11204 -0.331035 0
M  V30 5083 N 485.917 7.00483 0.476302 0
M  V30 5084 H 490.757 2.79095 -1.0445 0
M  V30 5085 H 488.294 1.37351 -0.526595 0
M  V30 5086 H 490.252 4.02208 1.10835 0
M  V30 5087 H 488.882 2.91517 1.38629 0
M  V30 5088 H 487.934 3.69487 -0.904621 0
M  V30 5089 H 489.246 4.89239 -0.97193 0
M  V30 5090 H 488.4 5.96135 1.12728 0
M  V30 5091 H 487.139 4.70562 1.28153 0
M  V30 5092 H 486.144 5.42232 -0.909069 0
M  V30 5093 H 487.369 6.70947 -1.04912 0
M  V30 5094 H 485.315 6.45296 1.18019 0
M  V30 5095 H 485.232 7.55847 -0.152008 0
M  V30 5096 H 486.5 7.7273 1.02512 0
M  V30 5097 N 490.729 0.570148 1.46925 0
M  V30 5098 C 491.692 -0.159933 2.28641 0
M  V30 5099 C 492.692 -0.830638 1.37685 0
M  V30 5100 O 493.882 -0.684516 1.60187 0
M  V30 5101 C 491.014 -1.2354 3.17727 0
M  V30 5102 H 492.207 0.558035 2.94662 0
M  V30 5103 H 489.76 0.327603 1.52828 0
M  V30 5104 H 490.495 -1.98535 2.56426 0
M  V30 5105 H 490.28 -0.759125 3.84681 0
M  V30 5106 H 491.77 -1.74782 3.79264 0
M  V30 5107 N 492.207 -1.54576 0.307264 0
M  V30 5108 C 493.447 -2.02172 -0.300962 0
M  V30 5109 C 493.811 -1.19081 -1.50611 0
M  V30 5110 O 495.012 -1.56405 -2.18612 0
M  V30 5111 C 493.283 -3.51576 -0.642591 0
M  V30 5112 S 494.842 -4.21127 -1.23279 0
M  V30 5113 H 491.66 -0.705021 -0.0920141 0
M  V30 5114 H 494.262 -1.90563 0.436594 0
M  V30 5115 H 492.966 -4.09681 0.242901 0
M  V30 5116 H 492.497 -3.67234 -1.41077 0
M  V30 5117 H 494.512 -4.27426 -2.52034 0
M  V30 5118 N 493.685 -0.035106 -1.57561 0
M  V30 5119 C 494.962 0.681212 -1.83354 0
M  V30 5120 C 495.342 1.89986 -0.920252 0
M  V30 5121 O 494.69 2.28489 0.0226815 0
M  V30 5122 C 494.9 1.05376 -3.32712 0
M  V30 5123 C 496.248 1.44286 -3.99333 0
M  V30 5124 O 497.272 1.14656 -3.37242 0
M  V30 5125 O 496.131 1.99518 -5.08778 0
M  V30 5126 H 493.225 0.334741 -0.756226 0
M  V30 5127 H 495.771 -0.0632448 -1.69582 0
M  V30 5128 H 494.543 0.186668 -3.90854 0
M  V30 5129 H 494.166 1.85619 -3.51613 0
M  V30 5130 N 495.163 1.55791 0.238111 0
M  V30 5131 C 496.411 1.77681 0.963001 0
M  V30 5132 C 496.732 0.600674 1.85518 0
M  V30 5133 O 496.002 -0.383182 1.92116 0
M  V30 5134 H 494.582 0.655315 0.358568 0
M  V30 5135 H 497.244 1.93239 0.253945 0
M  V30 5136 H 496.34 2.69177 1.57956 0
M  V30 5137 N 496.642 -0.504142 1.49319 0
M  V30 5138 C 497.891 -1.25507 1.57895 0
M  V30 5139 C 498.204 -1.93735 0.269433 0
M  V30 5140 O 499.41 -2.70492 0.233706 0
M  V30 5141 C 497.866 -2.27869 2.78574 0
M  V30 5142 C 497.474 -1.65594 4.16272 0
M  V30 5143 C 499.218 -3.0381 2.96479 0
M  V30 5144 C 497.125 -2.66048 5.28178 0
M  V30 5145 H 496.055 -0.47212 0.587894 0
M  V30 5146 H 498.706 -0.52931 1.757 0
M  V30 5147 H 497.088 -3.03594 2.54257 0
M  V30 5148 H 498.262 -0.958826 4.50714 0
M  V30 5149 H 496.577 -1.02055 4.037 0
M  V30 5150 H 499.174 -3.78925 3.77253 0
M  V30 5151 H 499.517 -3.61235 2.06918 0
M  V30 5152 H 500.05 -2.352 3.20821 0
M  V30 5153 H 496.789 -2.13408 6.19788 0
M  V30 5154 H 496.309 -3.34009 4.98195 0
M  V30 5155 H 497.988 -3.28536 5.57381 0
M  V30 5156 N 498.12 -1.38341 -0.754957 0
M  V30 5157 C 499.368 -1.34208 -1.51105 0
M  V30 5158 C 499.689 0.0677634 -1.94882 0
M  V30 5159 O 498.959 1.01517 -1.67544 0
M  V30 5160 H 497.539 -0.493819 -0.560493 0
M  V30 5161 H 500.201 -1.73005 -0.897507 0
M  V30 5162 H 499.297 -1.99203 -2.4026 0
M  V30 5163 N 499.598 0.982988 -1.23187 0
M  V30 5164 C 500.826 1.75921 -1.08901 0
M  V30 5165 C 501.241 1.85341 0.359719 0
M  V30 5166 O 500.598 1.33072 1.24892 0
M  V30 5167 C 500.649 3.18742 -1.70545 0
M  V30 5168 O 500.37 3.09814 -3.09753 0
M  V30 5169 C 501.871 4.1277 -1.61667 0
M  V30 5170 H 499.091 0.552166 -0.381252 0
M  V30 5171 H 501.635 1.23516 -1.62985 0
M  V30 5172 H 499.79 3.68182 -1.20501 0
M  V30 5173 H 500.204 3.99703 -3.39614 0
M  V30 5174 H 501.678 5.10697 -2.09506 0
M  V30 5175 H 502.155 4.3542 -0.575009 0
M  V30 5176 H 502.761 3.69232 -2.11064 0
M  V30 5177 N 501.076 1.04316 1.18135 0
M  V30 5178 C 502.324 0.746542 1.87806 0
M  V30 5179 C 502.645 -0.728082 1.80898 0
M  V30 5180 O 501.915 -1.52554 1.22899 0
M  V30 5181 H 500.495 0.273157 0.695265 0
M  V30 5182 H 503.157 1.32044 1.43354 0
M  V30 5183 H 502.253 1.05362 2.93778 0
M  V30 5184 N 502.554 -1.34406 0.822964 0
M  V30 5185 C 503.779 -2.0304 0.423034 0
M  V30 5186 C 504.204 -1.61568 -0.963196 0
M  V30 5187 O 503.562 -0.800339 -1.62678 0
M  V30 5188 C 503.61 -3.56636 0.53321 0
M  V30 5189 O 502.714 -4.09971 -0.446939 0
M  V30 5190 H 502.055 -0.64075 0.174171 0
M  V30 5191 H 504.585 -1.71653 1.11339 0
M  V30 5192 H 504.595 -4.05945 0.408991 0
M  V30 5193 H 503.27 -3.86168 1.54425 0
M  V30 5194 H 501.847 -3.71835 -0.281601 0
M  V30 5195 N 504.032 -0.577932 -1.46621 0
M  V30 5196 C 504.962 0.145917 -2.33044 0
M  V30 5197 C 505.943 0.888412 -1.45056 0
M  V30 5198 O 507.128 0.864812 -1.73881 0
M  V30 5199 C 504.258 1.16322 -3.27241 0
M  V30 5200 C 503.212 0.535868 -4.24632 0
M  V30 5201 C 502.538 1.65929 -5.08303 0
M  V30 5202 C 503.838 -0.523861 -5.19666 0
M  V30 5203 H 505.532 -0.575636 -2.93814 0
M  V30 5204 H 503.078 -0.278272 -1.41286 0
M  V30 5205 H 505.031 1.67793 -3.86553 0
M  V30 5206 H 503.755 1.91498 -2.64567 0
M  V30 5207 H 502.414 0.0422759 -3.66576 0
M  V30 5208 H 502.062 2.40061 -4.42018 0
M  V30 5209 H 501.762 1.2452 -5.74255 0
M  V30 5210 H 503.286 2.17686 -5.70478 0
M  V30 5211 H 504.7 -0.0944059 -5.73222 0
M  V30 5212 H 503.097 -0.858 -5.93935 0
M  V30 5213 H 504.167 -1.41197 -4.63887 0
M  V30 5214 N 505.51 1.54411 -0.315457 0
M  V30 5215 C 506.443 2.20265 0.596522 0
M  V30 5216 C 507.421 1.17693 1.12192 0
M  V30 5217 O 508.605 1.46397 1.18744 0
M  V30 5218 C 505.732 2.85794 1.81767 0
M  V30 5219 C 504.778 4.02017 1.42424 0
M  V30 5220 S 505.611 5.33452 0.467836 0
M  V30 5221 C 506.767 6.02471 1.69645 0
M  V30 5222 H 507 2.97277 0.0370896 0
M  V30 5223 H 504.533 1.54079 -0.0995562 0
M  V30 5224 H 506.491 3.24172 2.51839 0
M  V30 5225 H 505.152 2.08601 2.34828 0
M  V30 5226 H 504.345 4.46701 2.33396 0
M  V30 5227 H 503.947 3.65271 0.803311 0
M  V30 5228 H 506.239 6.24157 2.63504 0
M  V30 5229 H 507.182 6.96215 1.29192 0
M  V30 5230 H 507.59 5.32284 1.87974 0
M  V30 5231 N 506.988 0.0434614 1.5754 0
M  V30 5232 C 508.213 -0.645358 1.97104 0
M  V30 5233 C 508.638 -1.64037 0.920521 0
M  V30 5234 O 507.996 -1.80922 -0.11708 0
M  V30 5235 C 508.044 -1.31547 3.35749 0
M  V30 5236 O 507.148 -2.43103 3.33129 0
M  V30 5237 H 506.489 -0.168403 0.64229 0
M  V30 5238 H 509.019 0.109573 2.04306 0
M  V30 5239 H 509.029 -1.66895 3.72304 0
M  V30 5240 H 507.704 -0.586205 4.11748 0
M  V30 5241 H 506.281 -2.0976 3.0831 0
M  V30 5242 N 508.466 -1.55915 -0.229846 0
M  V30 5243 C 509.429 -1.90914 -1.26824 0
M  V30 5244 C 510.429 -0.786999 -1.40225 0
M  V30 5245 O 511.619 -1.05484 -1.38632 0
M  V30 5246 C 508.751 -2.15264 -2.64337 0
M  V30 5247 H 509.944 -2.8378 -0.969998 0
M  V30 5248 H 507.497 -1.49069 -0.4699 0
M  V30 5249 H 508.232 -1.24923 -2.99274 0
M  V30 5250 H 508.017 -2.97005 -2.55989 0
M  V30 5251 H 509.507 -2.43467 -3.39284 0
M  V30 5252 N 509.944 0.496216 -1.49584 0
M  V30 5253 C 510.876 1.61404 -1.62731 0
M  V30 5254 C 511.889 1.54613 -0.50978 0
M  V30 5255 O 513.078 1.60458 -0.782017 0
M  V30 5256 C 510.178 3.00212 -1.57245 0
M  V30 5257 C 509.351 3.32138 -2.84611 0
M  V30 5258 C 508.41 4.5038 -2.72112 0
M  V30 5259 O 507.436 4.51926 -3.46051 0
M  V30 5260 N 508.638 5.50575 -1.83977 0
M  V30 5261 H 511.403 1.50552 -2.59141 0
M  V30 5262 H 508.964 0.684182 -1.46733 0
M  V30 5263 H 510.956 3.77241 -1.4653 0
M  V30 5264 H 509.526 3.04964 -0.686729 0
M  V30 5265 H 508.746 2.4396 -3.09641 0
M  V30 5266 H 510.034 3.50268 -3.69039 0
M  V30 5267 H 509.432 5.52128 -1.23171 0
M  V30 5268 H 507.989 6.26687 -1.79182 0
M  V30 5269 N 511.423 1.38739 0.74761 0
M  V30 5270 C 512.651 1.38521 1.53686 0
M  V30 5271 C 513.066 -0.0235129 1.88785 0
M  V30 5272 O 512.423 -0.991662 1.53207 0
M  V30 5273 C 512.474 2.24641 2.83229 0
M  V30 5274 O 512.195 3.60026 2.49625 0
M  V30 5275 C 513.696 2.32669 3.77333 0
M  V30 5276 H 510.916 0.473589 0.475347 0
M  V30 5277 H 513.46 1.82395 0.924786 0
M  V30 5278 H 511.615 1.84213 3.40799 0
M  V30 5279 H 512.029 4.05435 3.3275 0
M  V30 5280 H 513.503 2.97201 4.65162 0
M  V30 5281 H 513.98 1.3421 4.18192 0
M  V30 5282 H 514.586 2.73512 3.25685 0
M  V30 5283 N 512.901 -0.976442 1.23707 0
M  V30 5284 C 514.147 -1.72081 1.07312 0
M  V30 5285 C 514.48 -1.90275 -0.388476 0
M  V30 5286 O 513.755 -1.4579 -1.28746 0
M  V30 5287 C 514.038 -3.11675 1.80363 0
M  V30 5288 C 513.891 -3.01027 3.3422 0
M  V30 5289 C 515.21 -4.1117 1.5693 0
M  V30 5290 H 512.329 -0.624583 0.391236 0
M  V30 5291 H 514.971 -1.13649 1.52263 0
M  V30 5292 H 513.121 -3.61559 1.42153 0
M  V30 5293 H 514.793 -2.58637 3.81975 0
M  V30 5294 H 513.036 -2.3744 3.63049 0
M  V30 5295 H 513.707 -3.9988 3.80525 0
M  V30 5296 H 516.183 -3.7011 1.90151 0
M  V30 5297 H 515.059 -5.06928 2.10513 0
M  V30 5298 H 515.32 -4.392 0.505548 0
M  V30 5299 N 514.379 -1.04941 -1.1758 0
M  V30 5300 C 515.656 -0.671918 -1.83697 0
M  V30 5301 C 516.036 0.847929 -1.93322 0
M  V30 5302 O 515.384 1.75287 -1.46583 0
M  V30 5303 C 515.594 -1.35797 -3.21497 0
M  V30 5304 C 516.942 -1.4944 -3.97433 0
M  V30 5305 O 517.966 -1.31678 -3.30967 0
M  V30 5306 O 516.825 -1.78463 -5.1654 0
M  V30 5307 H 513.919 -0.236212 -0.792548 0
M  V30 5308 H 516.465 -1.14884 -1.24899 0
M  V30 5309 H 515.237 -2.39498 -3.09446 0
M  V30 5310 H 514.86 -0.870236 -3.8796 0
M  V30 5311 N 515.857 1.33968 -0.830081 0
M  V30 5312 C 517.082 2.02813 -0.433796 0
M  V30 5313 C 517.507 1.62076 0.954614 0
M  V30 5314 O 516.865 0.808955 1.62252 0
M  V30 5315 C 516.913 3.56348 -0.552115 0
M  V30 5316 O 516.017 4.10202 0.425191 0
M  V30 5317 H 515.358 0.639817 -0.177567 0
M  V30 5318 H 517.888 1.7106 -1.12248 0
M  V30 5319 H 517.898 4.05722 -0.430513 0
M  V30 5320 H 516.573 3.85344 -1.56471 0
M  V30 5321 H 515.15 3.71979 0.261878 0
M  V30 5322 N 517.335 0.585699 1.46312 0
M  V30 5323 C 518.56 0.0762461 2.0726 0
M  V30 5324 C 518.985 -1.22071 1.43109 0
M  V30 5325 O 518.343 -1.73804 0.515942 0
M  V30 5326 C 518.391 -0.0729404 3.60526 0
M  V30 5327 O 517.495 -1.1287 3.96654 0
M  V30 5328 H 516.836 0.0641558 0.660893 0
M  V30 5329 H 519.366 0.809492 1.87905 0
M  V30 5330 H 519.376 -0.278158 4.07051 0
M  V30 5331 H 518.051 0.874188 4.06609 0
M  V30 5332 H 516.628 -0.901703 3.61834 0
M  V30 5333 N 518.813 -1.54241 0.323641 0
M  V30 5334 C 519.761 -2.25813 -0.557804 0
M  V30 5335 C 520.755 -1.27225 -1.11849 0
M  V30 5336 O 521.961 -1.45001 -1.06652 0
M  V30 5337 H 518.336 -0.72532 -0.198532 0
M  V30 5338 H 520.307 -2.98322 0.0681112 0
M  V30 5339 C 519.056 -3.02913 -1.70701 0
M  V30 5340 H 518.379 -3.78593 -1.28482 0
M  V30 5341 H 519.819 -3.56238 -2.29935 0
M  V30 5342 C 518.278 -2.11217 -2.62467 0
M  V30 5343 O 518.808 -1.69508 -3.64184 0
M  V30 5344 N 517.014 -1.76704 -2.30703 0
M  V30 5345 H 516.561 -2.1082 -1.48029 0
M  V30 5346 H 516.519 -1.15631 -2.92364 0
M  V30 5347 N 520.291 -0.0518155 -1.57515 0
M  V30 5348 C 521.54 0.621286 -1.91893 0
M  V30 5349 C 521.853 1.71966 -0.932052 0
M  V30 5350 O 523.059 2.45096 -1.16791 0
M  V30 5351 C 521.515 1.15641 -3.40816 0
M  V30 5352 C 521.123 0.0901146 -4.47909 0
M  V30 5353 C 522.867 1.80472 -3.84227 0
M  V30 5354 C 520.774 0.638154 -5.87947 0
M  V30 5355 H 519.704 0.235835 -0.716169 0
M  V30 5356 H 522.355 -0.120809 -1.83102 0
M  V30 5357 H 520.737 1.95084 -3.44613 0
M  V30 5358 H 521.911 -0.683525 -4.55702 0
M  V30 5359 H 520.226 -0.460774 -4.13843 0
M  V30 5360 H 522.823 2.22471 -4.86221 0
M  V30 5361 H 523.166 2.65669 -3.20508 0
M  V30 5362 H 523.699 1.07683 -3.82948 0
M  V30 5363 H 520.438 -0.176202 -6.55263 0
M  V30 5364 H 519.958 1.37976 -5.83714 0
M  V30 5365 H 521.637 1.12085 -6.37217 0
M  V30 5366 N 521.769 1.56035 0.221574 0
M  V30 5367 C 523.046 1.69837 0.970301 0
M  V30 5368 C 523.426 0.599065 2.02421 0
M  V30 5369 O 522.774 -0.393929 2.25079 0
M  V30 5370 C 522.984 3.11148 1.58076 0
M  V30 5371 C 524.332 3.70555 2.07302 0
M  V30 5372 O 525.356 3.14109 1.6797 0
M  V30 5373 O 524.215 4.69562 2.79596 0
M  V30 5374 H 521.309 0.691727 0.453257 0
M  V30 5375 H 523.855 1.68353 0.213358 0
M  V30 5376 H 522.627 3.82617 0.819759 0
M  V30 5377 H 522.25 3.16749 2.40324 0
M  V30 5378 N 523.247 -0.488276 1.49845 0
M  V30 5379 C 524.194 -1.58836 1.67451 0
M  V30 5380 C 525.164 -1.57886 0.515857 0
M  V30 5381 O 526.349 -1.75679 0.744403 0
M  V30 5382 C 523.489 -2.96915 1.75885 0
M  V30 5383 C 522.602 -3.07784 3.03138 0
M  V30 5384 C 521.737 -4.36673 3.02473 0
M  V30 5385 C 520.776 -4.41222 4.24252 0
M  V30 5386 N 519.913 -5.61557 4.21424 0
M  V30 5387 H 524.753 -1.43131 2.61376 0
M  V30 5388 H 522.29 -0.696186 1.29583 0
M  V30 5389 H 524.248 -3.76965 1.78755 0
M  V30 5390 H 522.878 -3.11295 0.85414 0
M  V30 5391 H 521.93 -2.20717 3.09819 0
M  V30 5392 H 523.242 -3.07005 3.93128 0
M  V30 5393 H 522.396 -5.25055 3.03977 0
M  V30 5394 H 521.135 -4.40037 2.10283 0
M  V30 5395 H 520.14 -3.5124 4.22978 0
M  V30 5396 H 521.365 -4.39564 5.17649 0
M  V30 5397 H 519.311 -5.65738 3.32078 0
M  V30 5398 H 519.228 -5.62447 5.05163 0
M  V30 5399 H 520.496 -6.52111 4.2705 0
M  V30 5400 N 524.725 -1.39134 -0.740242 0
M  V30 5401 C 525.972 -1.36071 -1.49969 0
M  V30 5402 C 526.3 0.0450245 -1.94448 0
M  V30 5403 O 525.555 1.02482 -1.66721 0
M  V30 5404 C 525.854 -2.27457 -2.75678 0
M  V30 5405 C 525.52 -3.75185 -2.50094 0
M  V30 5406 C 524.182 -4.15439 -2.42825 0
M  V30 5407 C 526.534 -4.68643 -2.28086 0
M  V30 5408 C 523.862 -5.4722 -2.11584 0
M  V30 5409 C 526.214 -6.00695 -1.98363 0
M  V30 5410 C 524.878 -6.40018 -1.8956 0
M  V30 5411 H 524.148 -0.497921 -0.548777 0
M  V30 5412 H 526.795 -1.71599 -0.85007 0
M  V30 5413 H 525.1 -1.8503 -3.45356 0
M  V30 5414 H 526.797 -2.22384 -3.33686 0
M  V30 5415 H 523.387 -3.43279 -2.56627 0
M  V30 5416 H 527.571 -4.3838 -2.32672 0
M  V30 5417 H 522.827 -5.76615 -2.03287 0
M  V30 5418 H 527.001 -6.72644 -1.80341 0
M  V30 5419 H 524.628 -7.42051 -1.65117 0
M  V30 5420 N 526.204 0.969867 -1.24223 0
M  V30 5421 C 527.453 1.70687 -1.07466 0
M  V30 5422 C 527.766 1.91736 0.386861 0
M  V30 5423 O 528.972 2.62986 0.674581 0
M  V30 5424 C 527.428 3.07217 -1.87472 0
M  V30 5425 C 527.036 2.94018 -3.3802 0
M  V30 5426 C 528.78 3.84804 -1.79237 0
M  V30 5427 C 526.687 4.25844 -4.10379 0
M  V30 5428 H 525.617 0.640067 -0.398536 0
M  V30 5429 H 528.268 1.08092 -1.48285 0
M  V30 5430 H 526.65 3.70628 -1.39466 0
M  V30 5431 H 527.824 2.39632 -3.9359 0
M  V30 5432 H 526.139 2.29898 -3.47183 0
M  V30 5433 H 528.736 4.82417 -2.30603 0
M  V30 5434 H 529.079 4.09356 -0.757197 0
M  V30 5435 H 529.612 3.28115 -2.24912 0
M  V30 5436 H 526.351 4.06486 -5.14246 0
M  V30 5437 H 525.871 4.80054 -3.59594 0
M  V30 5438 H 527.55 4.94475 -4.17257 0
M  V30 5439 N 527.682 1.05563 1.17022 0
M  V30 5440 C 528.63 0.653887 2.2322 0
M  V30 5441 C 529.624 -0.326642 1.66221 0
M  V30 5442 O 530.83 -0.192301 1.7897 0
M  V30 5443 H 527.205 0.193297 0.726733 0
M  V30 5444 H 529.176 1.5596 2.54399 0
M  V30 5445 C 527.925 0.0485434 3.47666 0
M  V30 5446 H 527.248 0.79413 3.91834 0
M  V30 5447 H 528.688 -0.195133 4.23551 0
M  V30 5448 C 527.147 -1.20583 3.14581 0
M  V30 5449 O 527.677 -2.29475 3.29703 0
M  V30 5450 N 525.883 -1.10493 2.68774 0
M  V30 5451 H 525.43 -0.218795 2.56669 0
M  V30 5452 H 525.388 -1.94507 2.47011 0
M  V30 5453 N 529.16 -1.33526 0.837174 0
M  V30 5454 C 530.4 -1.99649 0.438115 0
M  V30 5455 C 530.764 -1.64879 -0.983816 0
M  V30 5456 O 531.965 -2.23956 -1.48651 0
M  V30 5457 C 530.236 -3.51431 0.650461 0
M  V30 5458 S 531.795 -4.37431 0.346371 0
M  V30 5459 H 528.613 -0.69162 0.164872 0
M  V30 5460 H 531.215 -1.62556 1.08609 0
M  V30 5461 H 529.919 -3.74225 1.68475 0
M  V30 5462 H 529.45 -3.93398 -0.0117309 0
M  V30 5463 H 531.465 -4.89132 -0.834504 0
M  V30 5464 N 530.638 -0.59345 -1.46 0
M  V30 5465 C 531.866 -0.0890934 -2.06708 0
M  V30 5466 C 532.281 1.2205 -1.44046 0
M  V30 5467 O 531.638 1.74029 -0.549551 0
M  V30 5468 C 531.689 0.0720263 -3.61428 0
M  V30 5469 O 531.41 -1.18574 -4.21748 0
M  V30 5470 C 532.911 0.609487 -4.3909 0
M  V30 5471 H 530.131 -0.0623628 -0.668096 0
M  V30 5472 H 532.675 -0.817171 -1.87464 0
M  V30 5473 H 530.83 0.750369 -3.80063 0
M  V30 5474 H 531.244 -1.0064 -5.14754 0
M  V30 5475 H 532.718 0.671363 -5.47902 0
M  V30 5476 H 533.195 1.62878 -4.07882 0
M  V30 5477 H 533.801 -0.03434 -4.25286 0
M  V30 5478 N 532.116 1.54067 -0.331816 0
M  V30 5479 C 533.063 2.24623 0.530372 0
M  V30 5480 C 534.033 1.24009 1.10503 0
M  V30 5481 O 535.218 1.52712 1.14384 0
M  V30 5482 C 532.358 3.01374 1.68129 0
M  V30 5483 C 531.471 4.16821 1.13507 0
M  V30 5484 C 530.606 4.81085 2.25234 0
M  V30 5485 C 529.645 5.88621 1.67903 0
M  V30 5486 N 528.782 6.46713 2.73326 0
M  V30 5487 H 533.622 2.97898 -0.0778607 0
M  V30 5488 H 531.159 1.47014 -0.0501965 0
M  V30 5489 H 533.117 3.44125 2.35868 0
M  V30 5490 H 531.747 2.30419 2.26069 0
M  V30 5491 H 530.799 3.78796 0.348979 0
M  V30 5492 H 532.111 4.94203 0.675633 0
M  V30 5493 H 531.265 5.26846 3.00862 0
M  V30 5494 H 530.004 4.03102 2.74518 0
M  V30 5495 H 529.009 5.42254 0.907773 0
M  V30 5496 H 530.234 6.68506 1.19487 0
M  V30 5497 H 528.18 5.71599 3.21886 0
M  V30 5498 H 528.097 7.19532 2.3197 0
M  V30 5499 H 529.365 6.97129 3.48758 0
M  V30 5500 N 533.594 0.0601682 1.57485 0
M  V30 5501 C 534.843 -0.611101 1.9222 0
M  V30 5502 C 535.156 -1.71469 0.941159 0
M  V30 5503 O 536.362 -2.44473 1.18089 0
M  V30 5504 C 534.818 -1.13832 3.41424 0
M  V30 5505 C 534.426 -0.0663596 4.47951 0
M  V30 5506 C 536.17 -1.78432 3.85178 0
M  V30 5507 C 534.077 -0.606965 5.88277 0
M  V30 5508 H 533.007 -0.232033 0.71741 0
M  V30 5509 H 535.658 0.130518 1.83035 0
M  V30 5510 H 534.04 -1.93254 3.45643 0
M  V30 5511 H 535.214 0.707682 4.55333 0
M  V30 5512 H 533.529 0.482715 4.13593 0
M  V30 5513 H 536.126 -2.1989 4.87394 0
M  V30 5514 H 536.469 -2.63966 3.21913 0
M  V30 5515 H 537.002 -1.05651 3.83514 0
M  V30 5516 H 533.741 0.21095 6.5516 0
M  V30 5517 H 533.261 -1.34879 5.84438 0
M  V30 5518 H 534.94 -1.08704 6.37803 0
M  V30 5519 N 535.072 -1.5615 -0.213296 0
M  V30 5520 C 536.02 -1.93953 -1.28394 0
M  V30 5521 C 537.014 -0.822592 -1.48087 0
M  V30 5522 O 538.22 -1.00748 -1.49164 0
M  V30 5523 H 534.595 -0.61648 -0.430646 0
M  V30 5524 H 536.566 -2.83275 -0.937977 0
M  V30 5525 C 535.315 -2.27969 -2.62537 0
M  V30 5526 H 534.638 -3.13432 -2.48194 0
M  V30 5527 H 536.078 -2.58297 -3.36242 0
M  V30 5528 C 534.537 -1.10775 -3.18167 0
M  V30 5529 O 535.067 -0.373201 -3.99963 0
M  V30 5530 N 533.273 -0.889377 -2.76656 0
M  V30 5531 H 532.82 -1.48843 -2.10246 0
M  V30 5532 H 532.778 -0.107 -3.14218 0
M  V30 5533 N 536.55 0.480323 -1.50102 0
M  V30 5534 C 537.798 1.23063 -1.60312 0
M  V30 5535 C 538.119 1.92659 -0.301226 0
M  V30 5536 O 537.389 1.83691 0.680753 0
M  V30 5537 H 535.969 0.457231 -0.590719 0
M  V30 5538 H 538.631 0.554893 -1.86834 0
M  V30 5539 H 537.727 1.9835 -2.40964 0
M  V30 5540 N 538.028 1.39524 0.732853 0
M  V30 5541 C 538.976 1.38563 1.86824 0
M  V30 5542 C 539.97 0.268467 1.67259 0
M  V30 5543 O 541.176 0.438613 1.74574 0
M  V30 5544 H 537.551 0.432737 0.615014 0
M  V30 5545 H 539.522 2.34328 1.84751 0
M  V30 5546 C 538.271 1.2481 3.24527 0
M  V30 5547 H 537.594 2.10044 3.40179 0
M  V30 5548 H 539.034 1.28194 4.04156 0
M  V30 5549 C 537.493 -0.0432825 3.36872 0
M  V30 5550 O 538.023 -1.01268 3.88726 0
M  V30 5551 N 536.229 -0.107055 2.90403 0
M  V30 5552 H 535.776 0.682512 2.48394 0
M  V30 5553 H 535.734 -0.970618 2.99042 0
M  V30 5554 N 539.506 -0.963266 1.24736 0
M  V30 5555 C 540.436 -2.07628 1.06832 0
M  V30 5556 C 541.417 -1.70088 -0.0200566 0
M  V30 5557 O 542.602 -1.93636 0.147854 0
M  V30 5558 C 539.732 -3.40636 0.677069 0
M  V30 5559 C 538.686 -3.9215 1.71471 0
M  V30 5560 C 538.012 -5.21553 1.1784 0
M  V30 5561 C 539.312 -4.19493 3.11164 0
M  V30 5562 H 541.006 -2.22864 1.9993 0
M  V30 5563 H 538.552 -1.07093 0.96266 0
M  V30 5564 H 540.505 -4.17941 0.538792 0
M  V30 5565 H 539.229 -3.25313 -0.289612 0
M  V30 5566 H 537.888 -3.17005 1.84128 0
M  V30 5567 H 537.536 -5.02593 0.202195 0
M  V30 5568 H 537.236 -5.56988 1.87185 0
M  V30 5569 H 538.76 -6.01463 1.05233 0
M  V30 5570 H 540.174 -4.87487 3.01711 0
M  V30 5571 H 538.571 -4.66165 3.77902 0
M  V30 5572 H 539.641 -3.26097 3.58871 0
M  V30 5573 N 540.985 -1.06182 -1.16461 0
M  V30 5574 C 542.234 -0.772927 -1.86303 0
M  V30 5575 C 542.547 0.703187 -1.82523 0
M  V30 5576 O 543.753 1.10641 -2.47933 0
M  V30 5577 C 542.209 -1.33249 -3.34324 0
M  V30 5578 C 541.817 -2.83876 -3.46581 0
M  V30 5579 C 543.561 -1.12108 -4.09429 0
M  V30 5580 C 541.468 -3.33082 -4.88682 0
M  V30 5581 H 540.398 -0.285452 -0.697878 0
M  V30 5582 H 543.049 -1.28039 -1.31447 0
M  V30 5583 H 541.431 -0.7528 -3.88779 0
M  V30 5584 H 542.605 -3.47786 -3.02293 0
M  V30 5585 H 540.92 -3.03671 -2.84909 0
M  V30 5586 H 543.517 -1.46361 -5.14279 0
M  V30 5587 H 543.86 -0.0593832 -4.16258 0
M  V30 5588 H 544.393 -1.6665 -3.6121 0
M  V30 5589 H 541.132 -4.38726 -4.87032 0
M  V30 5590 H 540.652 -2.73919 -5.33599 0
M  V30 5591 H 542.331 -3.28344 -5.57494 0
M  V30 5592 N 542.463 1.3308 -0.844243 0
M  V30 5593 C 543.71 1.97605 -0.44255 0
M  V30 5594 C 544.038 1.66856 0.999458 0
M  V30 5595 O 543.293 0.943586 1.7145 0
M  V30 5596 C 543.592 3.52045 -0.616354 0
M  V30 5597 C 543.258 4.02757 -2.02726 0
M  V30 5598 C 541.92 4.16316 -2.41317 0
M  V30 5599 C 544.272 4.29776 -2.9486 0
M  V30 5600 C 541.6 4.54232 -3.71335 0
M  V30 5601 C 543.952 4.69146 -4.24364 0
M  V30 5602 C 542.616 4.80911 -4.62904 0
M  V30 5603 H 541.886 0.723088 -0.161941 0
M  V30 5604 H 544.533 1.58663 -1.0723 0
M  V30 5605 H 542.838 3.91681 0.0966812 0
M  V30 5606 H 544.535 3.99981 -0.285756 0
M  V30 5607 H 541.125 3.9268 -1.71756 0
M  V30 5608 H 545.309 4.18818 -2.6628 0
M  V30 5609 H 540.565 4.61535 -4.00993 0
M  V30 5610 H 544.739 4.89008 -4.95827 0
M  V30 5611 H 542.366 5.10048 -5.63698 0
M  V30 5612 N 543.941 0.601185 1.45683 0
M  V30 5613 C 544.871 -0.108824 2.33246 0
M  V30 5614 C 545.852 -0.865223 1.46451 0
M  V30 5615 O 547.037 -0.83704 1.75235 0
M  V30 5616 C 544.167 -1.11101 3.2905 0
M  V30 5617 C 543.121 -0.468244 4.25431 0
M  V30 5618 C 542.447 -1.57822 5.10878 0
M  V30 5619 C 543.747 0.606469 5.18767 0
M  V30 5620 H 545.441 0.622306 2.92861 0
M  V30 5621 H 542.987 0.300714 1.40825 0
M  V30 5622 H 544.94 -1.61622 3.89174 0
M  V30 5623 H 543.664 -1.87265 2.67581 0
M  V30 5624 H 542.323 0.0160484 3.66596 0
M  V30 5625 H 541.971 -2.32998 4.45781 0
M  V30 5626 H 541.671 -1.15369 5.76163 0
M  V30 5627 H 543.195 -2.08583 5.73869 0
M  V30 5628 H 544.609 0.185589 5.73 0
M  V30 5629 H 543.006 0.952381 5.92494 0
M  V30 5630 H 544.076 1.48559 4.61582 0
M  V30 5631 N 545.419 -1.53889 0.339982 0
M  V30 5632 C 546.665 -2.01152 -0.258003 0
M  V30 5633 C 546.998 -1.22749 -1.50487 0
M  V30 5634 O 546.273 -0.314156 -1.91946 0
M  V30 5635 C 546.556 -3.55468 -0.575717 0
M  V30 5636 C 546.409 -4.44584 0.682996 0
M  V30 5637 C 547.728 -4.1768 -1.38677 0
M  V30 5638 H 544.847 -0.731198 -0.0922992 0
M  V30 5639 H 547.489 -1.84352 0.459814 0
M  V30 5640 H 545.639 -3.69914 -1.18725 0
M  V30 5641 H 547.311 -4.41981 1.32102 0
M  V30 5642 H 545.554 -4.13592 1.3086 0
M  V30 5643 H 546.225 -5.5043 0.416001 0
M  V30 5644 H 548.701 -4.0691 -0.869705 0
M  V30 5645 H 547.577 -5.25734 -1.57783 0
M  V30 5646 H 547.838 -3.72069 -2.38782 0
M  V30 5647 N 546.897 -0.0685191 -1.57451 0
M  V30 5648 C 548.125 0.610462 -1.97689 0
M  V30 5649 C 548.54 1.63346 -0.946758 0
M  V30 5650 O 547.897 1.82377 0.0669868 0
M  V30 5651 C 547.948 1.28196 -3.38006 0
M  V30 5652 O 547.669 0.299906 -4.37072 0
M  V30 5653 C 549.17 2.04907 -3.931 0
M  V30 5654 H 546.39 0.165689 -0.650222 0
M  V30 5655 H 548.934 -0.139953 -2.04021 0
M  V30 5656 H 547.089 1.98348 -3.32771 0
M  V30 5657 H 547.503 0.78126 -5.18649 0
M  V30 5658 H 548.977 2.47287 -4.93511 0
M  V30 5659 H 549.454 2.9043 -3.29465 0
M  V30 5660 H 550.06 1.39629 -4.01726 0
M  V30 5661 N 548.375 1.56261 0.205012 0
M  V30 5662 C 549.623 1.79684 0.925096 0
M  V30 5663 C 549.944 0.63989 1.84202 0
M  V30 5664 O 549.214 -0.342345 1.92885 0
M  V30 5665 H 547.794 0.662774 0.344587 0
M  V30 5666 H 550.456 1.93734 0.212899 0
M  V30 5667 H 549.552 2.72467 1.52211 0
M  V30 5668 N 549.853 -0.472356 1.50355 0
M  V30 5669 C 551.102 -1.2213 1.60522 0
M  V30 5670 C 551.415 -1.9312 0.310466 0
M  V30 5671 O 552.621 -2.69936 0.291029 0
M  V30 5672 C 551.077 -2.21909 2.83345 0
M  V30 5673 C 550.685 -1.56727 4.19691 0
M  V30 5674 C 552.429 -2.97453 3.02856 0
M  V30 5675 C 550.336 -2.54785 5.33703 0
M  V30 5676 H 549.266 -0.459543 0.597776 0
M  V30 5677 H 551.917 -0.491922 1.76783 0
M  V30 5678 H 550.299 -2.98133 2.60639 0
M  V30 5679 H 551.473 -0.863007 4.52646 0
M  V30 5680 H 549.788 -0.934685 4.05774 0
M  V30 5681 H 552.385 -3.70838 3.85205 0
M  V30 5682 H 552.728 -3.56764 2.14534 0
M  V30 5683 H 553.261 -2.28342 3.25737 0
M  V30 5684 H 550 -2.00214 6.24175 0
M  V30 5685 H 549.52 -3.23367 5.05167 0
M  V30 5686 H 551.199 -3.16639 5.64224 0
M  V30 5687 N 551.331 -1.39911 -0.725443 0
M  V30 5688 C 552.281 -1.35878 -1.83088 0
M  V30 5689 C 553.265 -0.237989 -1.5913 0
M  V30 5690 O 554.457 -0.476302 -1.70471 0
M  V30 5691 C 551.586 -1.21403 -3.21117 0
M  V30 5692 C 550.672 -2.38223 -3.50871 0
M  V30 5693 N 551.063 -3.63703 -3.51502 0
M  V30 5694 C 549.361 -2.31388 -3.81281 0
M  V30 5695 C 550.062 -4.4101 -3.79322 0
M  V30 5696 N 549.038 -3.7072 -3.97577 0
M  V30 5697 H 552.84 -2.3085 -1.81895 0
M  V30 5698 H 550.354 -1.33543 -0.924125 0
M  V30 5699 H 552.351 -1.16597 -4.00263 0
M  V30 5700 H 551.011 -0.273902 -3.23543 0
M  V30 5701 H 552.022 -3.96998 -3.32586 0
M  V30 5702 H 548.699 -1.45689 -3.91256 0
M  V30 5703 H 550.089 -5.49819 -3.86198 0
M  V30 5704 N 552.809 0.956637 -1.25245 0
M  V30 5705 C 554.057 1.69764 -1.09657 0
M  V30 5706 C 554.378 1.91583 0.363464 0
M  V30 5707 O 553.648 1.50149 1.25825 0
M  V30 5708 H 552.228 0.629097 -0.402798 0
M  V30 5709 H 554.89 1.15026 -1.57337 0
M  V30 5710 H 553.986 2.67769 -1.60331 0
M  V30 5711 N 554.287 1.06798 1.15896 0
M  V30 5712 C 555.564 0.701057 1.82605 0
M  V30 5713 C 555.944 -0.817066 1.94646 0
M  V30 5714 O 555.292 -1.72933 1.49353 0
M  V30 5715 C 555.502 1.40895 3.19296 0
M  V30 5716 C 556.85 1.55744 3.95005 0
M  V30 5717 O 557.874 1.36927 3.28831 0
M  V30 5718 O 556.733 1.86658 5.13635 0
M  V30 5719 H 553.827 0.248791 0.78869 0
M  V30 5720 H 556.373 1.16857 1.23055 0
M  V30 5721 H 555.145 2.4439 3.05596 0
M  V30 5722 H 554.768 0.931847 3.86526 0
M  V30 5723 N 555.766 -1.3263 0.851289 0
M  V30 5724 C 557.177 -1.79653 0.5081 0
M  V30 5725 C 557.528 -1.70327 -0.973815 0
M  V30 5726 O 556.653 -1.25986 -1.75944 0
M  V30 5727 C 557.248 -3.26196 0.915515 0
M  V30 5728 C 555.807 -3.71187 0.624277 0
M  V30 5729 C 554.954 -2.53804 1.11709 0
M  V30 5730 H 557.905 -1.19976 1.03882 0
M  V30 5731 H 557.926 -3.79801 0.230535 0
M  V30 5732 H 557.438 -3.32952 1.99411 0
M  V30 5733 H 555.539 -3.69948 -0.443737 0
M  V30 5734 H 555.652 -4.64132 1.18821 0
M  V30 5735 H 554.016 -2.48964 0.537484 0
M  V30 5736 H 554.799 -2.63315 2.20272 0
M  V30 5737 N 557.244 -0.608902 -1.45362 0
M  V30 5738 C 558.474 -0.110852 -2.06302 0
M  V30 5739 C 558.882 1.21062 -1.45398 0
M  V30 5740 O 558.225 1.74861 -0.562976 0
M  V30 5741 C 558.287 0.101793 -3.59356 0
M  V30 5742 C 557.951 -1.13808 -4.42602 0
M  V30 5743 C 558.948 -2.05653 -4.77496 0
M  V30 5744 C 556.633 -1.36727 -4.83333 0
M  V30 5745 C 558.627 -3.18745 -5.51978 0
M  V30 5746 C 556.314 -2.5012 -5.57569 0
M  V30 5747 C 557.312 -3.40957 -5.91809 0
M  V30 5748 O 557 -4.52376 -6.64538 0
M  V30 5749 H 556.732 -0.0666001 -0.672711 0
M  V30 5750 H 559.286 -0.836942 -1.87575 0
M  V30 5751 H 557.516 0.88279 -3.76489 0
M  V30 5752 H 559.205 0.551607 -4.02134 0
M  V30 5753 H 559.971 -1.89172 -4.46586 0
M  V30 5754 H 555.85 -0.669216 -4.56117 0
M  V30 5755 H 559.394 -3.8967 -5.78622 0
M  V30 5756 H 555.291 -2.66553 -5.87894 0
M  V30 5757 H 556.059 -4.51075 -6.82989 0
M  V30 5758 N 558.722 1.53707 -0.348139 0
M  V30 5759 C 559.67 2.26671 0.521808 0
M  V30 5760 C 560.664 1.28988 1.09811 0
M  V30 5761 O 561.87 1.4668 1.04332 0
M  V30 5762 H 558.245 0.728387 0.186968 0
M  V30 5763 H 560.216 2.98176 -0.115563 0
M  V30 5764 C 558.965 3.05591 1.6586 0
M  V30 5765 H 558.288 3.80589 1.22443 0
M  V30 5766 H 559.728 3.59851 2.24239 0
M  V30 5767 C 558.187 2.15366 2.59073 0
M  V30 5768 O 558.717 1.7528 3.61441 0
M  V30 5769 N 556.923 1.80352 2.27863 0
M  V30 5770 H 556.47 2.13149 1.44656 0
M  V30 5771 H 556.428 1.20268 2.90488 0
M  V30 5772 N 560.2 0.0768682 1.57412 0
M  V30 5773 C 561.163 -0.873949 2.11884 0
M  V30 5774 C 562.163 -1.22301 1.04398 0
M  V30 5775 O 563.353 -1.15545 1.30365 0
M  V30 5776 C 560.485 -2.17575 2.62438 0
M  V30 5777 H 561.678 -0.401278 2.97203 0
M  V30 5778 H 559.231 -0.171904 1.55352 0
M  V30 5779 H 559.966 -2.69368 1.80587 0
M  V30 5780 H 559.751 -1.93534 3.41009 0
M  V30 5781 H 561.241 -2.85631 3.04639 0
M  V30 5782 N 561.678 -1.56367 -0.196722 0
M  V30 5783 C 562.927 -1.79724 -0.915539 0
M  V30 5784 C 563.24 -0.649804 -1.84491 0
M  V30 5785 O 564.446 -0.767631 -2.60422 0
M  V30 5786 C 562.902 -3.18369 -1.67836 0
M  V30 5787 C 562.51 -4.4091 -0.793897 0
M  V30 5788 C 564.254 -3.51037 -2.38691 0
M  V30 5789 C 562.161 -5.70577 -1.55549 0
M  V30 5790 H 561.091 -0.67013 -0.345604 0
M  V30 5791 H 563.742 -1.82721 -0.168856 0
M  V30 5792 H 562.124 -3.09617 -2.46887 0
M  V30 5793 H 563.298 -4.60781 -0.042163 0
M  V30 5794 H 561.613 -4.15937 -0.19626 0
M  V30 5795 H 564.21 -4.4515 -2.96219 0
M  V30 5796 H 564.553 -2.74704 -3.12799 0
M  V30 5797 H 565.086 -3.61229 -1.66608 0
M  V30 5798 H 561.825 -6.49871 -0.857226 0
M  V30 5799 H 561.345 -5.54726 -2.2812 0
M  V30 5800 H 563.024 -6.11637 -2.10971 0
M  V30 5801 N 563.156 0.464375 -1.50603 0
M  V30 5802 C 564.066 1.58723 -1.72754 0
M  V30 5803 C 565.082 1.62925 -0.610844 0
M  V30 5804 O 566.258 1.8067 -0.889963 0
M  V30 5805 C 563.323 2.94897 -1.82309 0
M  V30 5806 C 562.384 3.0103 -3.06071 0
M  V30 5807 C 561.617 4.30708 -3.1516 0
M  V30 5808 O 561.84 5.2159 -2.30868 0
M  V30 5809 O 560.774 4.42571 -4.0794 0
M  V30 5810 H 564.6 1.42954 -2.67951 0
M  V30 5811 H 562.185 0.644579 -1.3478 0
M  V30 5812 H 564.067 3.75764 -1.90735 0
M  V30 5813 H 562.742 3.10851 -0.902967 0
M  V30 5814 H 561.649 2.19217 -3.03142 0
M  V30 5815 H 562.982 2.90014 -3.97684 0
M  V30 5816 N 564.634 1.40294 0.718013 0
M  V30 5817 C 565.597 1.4012 1.81381 0
M  V30 5818 C 566.597 0.295405 1.58063 0
M  V30 5819 O 567.787 0.554187 1.6515 0
M  V30 5820 C 564.919 1.19056 3.19435 0
M  V30 5821 H 566.112 2.37645 1.82933 0
M  V30 5822 H 563.665 1.26107 0.923405 0
M  V30 5823 H 564.4 0.222809 3.23534 0
M  V30 5824 H 564.185 1.99152 3.37758 0
M  V30 5825 H 565.675 1.21716 3.99468 0
M  V30 5826 N 566.112 -0.949982 1.2575 0
M  V30 5827 C 567.361 -1.68956 1.10168 0
M  V30 5828 C 567.674 -1.92327 -0.356309 0
M  V30 5829 O 568.88 -2.64026 -0.632657 0
M  V30 5830 C 567.336 -3.04196 1.92336 0
M  V30 5831 C 566.944 -2.88603 3.42655 0
M  V30 5832 C 568.688 -3.81904 1.85336 0
M  V30 5833 C 566.595 -4.19262 4.17101 0
M  V30 5834 H 565.525 -0.633645 0.408668 0
M  V30 5835 H 568.176 -1.05719 1.49986 0
M  V30 5836 H 566.558 -3.68363 1.45344 0
M  V30 5837 H 567.732 -2.3334 3.97353 0
M  V30 5838 H 566.047 -2.24345 3.50796 0
M  V30 5839 H 568.644 -4.78688 2.38248 0
M  V30 5840 H 568.987 -4.08099 0.822226 0
M  V30 5841 H 569.52 -3.24495 2.30104 0
M  V30 5842 H 566.259 -3.98254 5.20648 0
M  V30 5843 H 565.779 -4.74273 3.67186 0
M  V30 5844 H 567.458 -4.87775 4.25071 0
M  V30 5845 N 567.59 -1.07411 -1.15328 0
M  V30 5846 C 568.867 -0.710732 -1.82231 0
M  V30 5847 C 569.247 0.806732 -1.95077 0
M  V30 5848 O 568.595 1.72139 -1.50268 0
M  V30 5849 C 568.805 -1.42586 -3.18544 0
M  V30 5850 C 570.153 -1.57836 -3.94174 0
M  V30 5851 O 571.177 -1.38669 -3.281 0
M  V30 5852 O 570.036 -1.8938 -5.12638 0
M  V30 5853 H 567.13 -0.25297 -0.78736 0
M  V30 5854 H 569.676 -1.17508 -1.22434 0
M  V30 5855 H 568.448 -2.46008 -3.04296 0
M  V30 5856 H 568.071 -0.952332 -3.86026 0
M  V30 5857 N 569.068 1.32177 -0.85831 0
M  V30 5858 C 570.479 1.79381 -0.517621 0
M  V30 5859 C 570.83 1.70841 0.964769 0
M  V30 5860 O 569.955 1.26917 1.75274 0
M  V30 5861 C 570.55 3.25706 -0.932801 0
M  V30 5862 C 569.109 3.70851 -0.643953 0
M  V30 5863 C 568.256 2.53208 -1.13054 0
M  V30 5864 H 571.207 1.19424 -1.04516 0
M  V30 5865 H 571.228 3.79673 -0.250674 0
M  V30 5866 H 570.74 3.31889 -2.01174 0
M  V30 5867 H 568.841 3.70178 0.424112 0
M  V30 5868 H 568.954 4.63495 -1.21281 0
M  V30 5869 H 567.318 2.48676 -0.550679 0
M  V30 5870 H 568.101 2.62143 -2.21666 0
M  V30 5871 N 570.547 0.616602 1.45037 0
M  V30 5872 C 571.457 -0.0985401 2.34393 0
M  V30 5873 C 572.473 -0.850971 1.51771 0
M  V30 5874 O 573.649 -0.806521 1.84546 0
M  V30 5875 C 570.714 -1.07748 3.29532 0
M  V30 5876 C 569.775 -0.326022 4.2806 0
M  V30 5877 C 569.008 -1.25833 5.18654 0
M  V30 5878 O 569.231 -2.49652 5.12864 0
M  V30 5879 O 568.165 -0.750512 5.97203 0
M  V30 5880 H 571.991 0.636016 2.96966 0
M  V30 5881 H 569.576 0.376832 1.44569 0
M  V30 5882 H 571.458 -1.64107 3.88133 0
M  V30 5883 H 570.133 -1.79291 2.69512 0
M  V30 5884 H 569.04 0.280253 3.73049 0
M  V30 5885 H 570.373 0.349091 4.9096 0
M  V30 5886 N 572.025 -1.5352 0.356285 0
M  V30 5887 C 572.972 -2.25439 -0.494569 0
M  V30 5888 C 573.942 -1.25752 -1.08516 0
M  V30 5889 O 575.127 -1.54513 -1.1194 0
M  V30 5890 C 572.267 -3.04011 -1.63313 0
M  V30 5891 C 571.38 -4.18574 -1.06862 0
M  V30 5892 C 570.515 -4.84607 -2.17552 0
M  V30 5893 C 569.554 -5.91218 -1.58518 0
M  V30 5894 N 568.691 -6.50979 -2.63003 0
M  V30 5895 H 573.531 -2.97737 0.125244 0
M  V30 5896 H 571.068 -1.46916 0.0735789 0
M  V30 5897 H 573.026 -3.47834 -2.30363 0
M  V30 5898 H 571.656 -2.33986 -2.22374 0
M  V30 5899 H 570.708 -3.79303 -0.288672 0
M  V30 5900 H 572.02 -4.95215 -0.596924 0
M  V30 5901 H 571.174 -5.31566 -2.92442 0
M  V30 5902 H 569.913 -4.07418 -2.6807 0
M  V30 5903 H 568.918 -5.4363 -0.821391 0
M  V30 5904 H 570.143 -6.70322 -1.08836 0
M  V30 5905 H 568.089 -5.76648 -3.12751 0
M  V30 5906 H 568.006 -7.23131 -2.20493 0
M  V30 5907 H 569.274 -7.02589 -3.37623 0
M  V30 5908 N 573.503 -0.0852151 -1.57369 0
M  V30 5909 C 574.433 0.874556 -2.16503 0
M  V30 5910 C 575.414 1.30111 -1.09568 0
M  V30 5911 O 576.599 1.36977 -1.37662 0
M  V30 5912 C 573.729 2.13731 -2.73745 0
M  V30 5913 C 572.683 1.84971 -3.85966 0
M  V30 5914 C 572.009 3.17991 -4.29867 0
M  V30 5915 C 573.309 1.14442 -5.09608 0
M  V30 5916 H 575.003 0.381899 -2.96954 0
M  V30 5917 H 572.549 0.18225 -1.42842 0
M  V30 5918 H 574.502 2.81302 -3.13763 0
M  V30 5919 H 573.226 2.65263 -1.90534 0
M  V30 5920 H 571.885 1.19801 -3.46473 0
M  V30 5921 H 571.533 3.6739 -3.4356 0
M  V30 5922 H 571.233 2.99534 -5.05523 0
M  V30 5923 H 572.757 3.86737 -4.72511 0
M  V30 5924 H 574.171 1.72105 -5.46857 0
M  V30 5925 H 572.568 1.06197 -5.90629 0
M  V30 5926 H 573.638 0.12559 -4.84737 0
M  V30 5927 N 574.981 1.5647 0.188427 0
M  V30 5928 C 575.929 1.95971 1.25293 0
M  V30 5929 C 576.923 0.846047 1.4676 0
M  V30 5930 O 578.129 1.03109 1.47542 0
M  V30 5931 H 574.504 0.623253 0.420784 0
M  V30 5932 H 576.475 2.84731 0.892792 0
M  V30 5933 C 575.224 2.32116 2.58877 0
M  V30 5934 H 574.547 3.17341 2.43176 0
M  V30 5935 H 575.987 2.63613 3.3209 0
M  V30 5936 C 574.446 1.15823 3.16365 0
M  V30 5937 O 574.976 0.436785 3.99318 0
M  V30 5938 N 573.182 0.933278 2.75206 0
M  V30 5939 H 572.729 1.52169 2.07852 0
M  V30 5940 H 572.687 0.156976 3.14008 0
M  V30 5941 N 576.459 -0.456382 1.50847 0
M  V30 5942 C 577.705 -1.20914 1.62811 0
M  V30 5943 C 578.038 -1.91301 0.334304 0
M  V30 5944 O 577.313 -1.82775 -0.665098 0
M  V30 5945 C 577.596 -2.24122 2.81853 0
M  V30 5946 C 577.449 -1.57944 4.21158 0
M  V30 5947 C 578.768 -3.25295 2.96431 0
M  V30 5948 H 575.887 -0.438233 0.592554 0
M  V30 5949 H 578.529 -0.50091 1.83278 0
M  V30 5950 H 576.679 -2.84524 2.64534 0
M  V30 5951 H 578.351 -1.01025 4.50102 0
M  V30 5952 H 576.594 -0.882185 4.24735 0
M  V30 5953 H 577.265 -2.33014 5.00408 0
M  V30 5954 H 579.741 -2.7493 3.12335 0
M  V30 5955 H 578.617 -3.94822 3.81322 0
M  V30 5956 H 578.878 -3.90286 2.07676 0
M  V30 5957 N 577.937 -1.40673 -0.710563 0
M  V30 5958 C 579.184 -1.39222 -1.47049 0
M  V30 5959 C 579.512 0.0037691 -1.945 0
M  V30 5960 O 578.767 0.989224 -1.68857 0
M  V30 5961 C 579.066 -2.33253 -2.70791 0
M  V30 5962 C 578.732 -3.80406 -2.42079 0
M  V30 5963 C 577.394 -4.20496 -2.33959 0
M  V30 5964 C 579.746 -4.73375 -2.18094 0
M  V30 5965 C 577.074 -5.51584 -1.99929 0
M  V30 5966 C 579.426 -6.04768 -1.85576 0
M  V30 5967 C 578.09 -6.43895 -1.75941 0
M  V30 5968 H 577.36 -0.509449 -0.538092 0
M  V30 5969 H 580.007 -1.73363 -0.81348 0
M  V30 5970 H 578.312 -1.92314 -3.41354 0
M  V30 5971 H 580.009 -2.29412 -3.28894 0
M  V30 5972 H 576.599 -3.48645 -2.49288 0
M  V30 5973 H 580.783 -4.43217 -2.23321 0
M  V30 5974 H 576.039 -5.80797 -1.91011 0
M  V30 5975 H 580.213 -6.76318 -1.66033 0
M  V30 5976 H 577.84 -7.45387 -1.4934 0
M  V30 5977 N 579.415 0.9433 -1.26252 0
M  V30 5978 C 580.831 1.21644 -1.03319 0
M  V30 5979 C 581.031 2.0003 0.242983 0
M  V30 5980 O 580.087 2.33838 0.952688 0
M  V30 5981 C 581.4 1.97978 -2.2633 0
M  V30 5982 C 582.948 2.10978 -2.31209 0
M  V30 5983 C 583.423 2.90713 -3.53907 0
M  V30 5984 N 584.914 2.98287 -3.54371 0
M  V30 5985 C 585.649 3.60406 -4.45976 0
M  V30 5986 N 585.145 4.24043 -5.47868 0
M  V30 5987 N 586.938 3.57658 -4.33633 0
M  V30 5988 H 579.089 0.419221 -2.08222 0
M  V30 5989 H 581.352 0.247995 -0.914988 0
M  V30 5990 H 581.058 1.47788 -3.19142 0
M  V30 5991 H 580.932 2.9865 -2.30408 0
M  V30 5992 H 583.319 2.6036 -1.38913 0
M  V30 5993 H 583.4 1.09575 -2.31143 0
M  V30 5994 H 583.044 2.42018 -4.46531 0
M  V30 5995 H 582.974 3.92367 -3.5122 0
M  V30 5996 H 585.465 2.53044 -2.80673 0
M  V30 5997 H 585.778 4.69334 -6.13959 0
M  V30 5998 H 584.123 4.22637 -5.51728 0
M  V30 5999 H 587.314 3.07134 -3.53251 0
M  V30 6000 H 587.487 4.05782 -5.05218 0
M  V30 6001 N 580.893 1.08022 1.14757 0
M  V30 6002 C 582.121 0.828847 1.89572 0
M  V30 6003 C 582.536 -0.618621 1.78377 0
M  V30 6004 O 581.893 -1.42482 1.1404 0
M  V30 6005 C 581.944 1.23677 3.39685 0
M  V30 6006 O 581.665 2.62746 3.50566 0
M  V30 6007 C 583.166 1.01569 4.31507 0
M  V30 6008 H 580.386 0.299196 0.600602 0
M  V30 6009 H 582.93 1.43846 1.45357 0
M  V30 6010 H 581.085 0.671347 3.81539 0
M  V30 6011 H 581.499 2.79573 4.43778 0
M  V30 6012 H 582.973 1.35055 5.35223 0
M  V30 6013 H 583.45 -0.0475433 4.39174 0
M  V30 6014 H 584.056 1.56636 3.95405 0
M  V30 6015 N 582.371 -1.3172 0.865308 0
M  V30 6016 C 583.617 -1.97168 0.474633 0
M  V30 6017 C 583.95 -1.68263 -0.969604 0
M  V30 6018 O 583.225 -0.976588 -1.68205 0
M  V30 6019 C 583.508 -3.52689 0.726808 0
M  V30 6020 C 583.361 -3.91185 2.22024 0
M  V30 6021 C 584.68 -4.39689 0.190201 0
M  V30 6022 H 581.799 -0.716185 0.17392 0
M  V30 6023 H 584.441 -1.55925 1.08569 0
M  V30 6024 H 582.591 -3.8795 0.206705 0
M  V30 6025 H 584.263 -3.66049 2.80724 0
M  V30 6026 H 582.506 -3.3996 2.69462 0
M  V30 6027 H 583.177 -4.99604 2.34735 0
M  V30 6028 H 585.653 -4.11225 0.635103 0
M  V30 6029 H 584.529 -5.47469 0.396132 0
M  V30 6030 H 584.79 -4.32683 -0.907625 0
M  V30 6031 N 583.85 -0.624285 -1.44708 0
M  V30 6032 C 585.266 -0.289322 -1.56956 0
M  V30 6033 C 585.466 1.20773 -1.61295 0
M  V30 6034 O 584.522 1.9915 -1.55227 0
M  V30 6035 C 585.835 -0.975215 -2.84447 0
M  V30 6036 C 587.383 -0.952709 -2.98148 0
M  V30 6037 C 587.858 -1.61893 -4.28433 0
M  V30 6038 N 589.349 -1.5852 -4.35231 0
M  V30 6039 C 590.084 -2.06969 -5.34744 0
M  V30 6040 N 589.58 -2.63579 -6.40701 0
M  V30 6041 N 591.373 -1.97638 -5.26209 0
M  V30 6042 H 583.524 -1.59612 -1.40135 0
M  V30 6043 H 585.787 -0.669592 -0.671081 0
M  V30 6044 H 585.493 -2.02999 -2.87201 0
M  V30 6045 H 585.367 -0.508749 -3.73753 0
M  V30 6046 H 587.754 0.093568 -2.94952 0
M  V30 6047 H 587.835 -1.4576 -2.10209 0
M  V30 6048 H 587.479 -2.66463 -4.32389 0
M  V30 6049 H 587.409 -1.08893 -5.15218 0
M  V30 6050 H 589.899 -1.17183 -3.59272 0
M  V30 6051 H 590.213 -2.98298 -7.12908 0
M  V30 6052 H 588.558 -2.67626 -6.41406 0
M  V30 6053 H 591.749 -1.5314 -4.42341 0
M  V30 6054 H 591.922 -2.35708 -6.03611 0
M  V30 6055 N 585.328 1.53329 -0.364422 0
M  V30 6056 C 586.238 2.29414 0.490552 0
M  V30 6057 C 587.254 1.35335 1.09363 0
M  V30 6058 O 588.43 1.68391 1.10483 0
M  V30 6059 C 585.495 3.06772 1.61529 0
M  V30 6060 C 584.556 4.16516 1.03986 0
M  V30 6061 C 583.789 4.90176 2.111 0
M  V30 6062 O 584.012 4.63687 3.32191 0
M  V30 6063 O 582.946 5.76134 1.74222 0
M  V30 6064 H 586.772 3.03428 -0.12856 0
M  V30 6065 H 584.357 1.48843 -0.128837 0
M  V30 6066 H 586.239 3.55082 2.26924 0
M  V30 6067 H 584.914 2.35596 2.21983 0
M  V30 6068 H 583.821 3.7246 0.349856 0
M  V30 6069 H 585.154 4.89855 0.4799 0
M  V30 6070 N 586.806 0.0935595 1.57322 0
M  V30 6071 C 588.055 -0.570191 1.93473 0
M  V30 6072 C 588.368 -1.69434 0.977318 0
M  V30 6073 O 589.574 -2.41914 1.23248 0
M  V30 6074 C 588.03 -1.06564 3.43762 0
M  V30 6075 C 587.638 0.0286723 4.47991 0
M  V30 6076 C 589.382 -1.70221 3.88877 0
M  V30 6077 C 587.289 -0.482046 5.89432 0
M  V30 6078 H 586.219 -0.216764 0.72217 0
M  V30 6079 H 588.87 0.169313 1.82717 0
M  V30 6080 H 587.252 -1.85878 3.49664 0
M  V30 6081 H 588.426 0.804106 4.5373 0
M  V30 6082 H 586.741 0.570336 4.12476 0
M  V30 6083 H 589.338 -2.09502 4.91948 0
M  V30 6084 H 589.681 -2.57078 3.27439 0
M  V30 6085 H 590.214 -0.974919 3.85668 0
M  V30 6086 H 586.953 0.349871 6.54566 0
M  V30 6087 H 586.473 -1.22452 5.87167 0
M  V30 6088 H 588.152 -0.951508 6.39965 0
M  V30 6089 N 588.284 -1.56567 -0.180126 0
M  V30 6090 C 589.512 -1.85618 -0.913972 0
M  V30 6091 C 589.927 -0.677892 -1.7621 0
M  V30 6092 O 589.284 0.353171 -1.7905 0
M  V30 6093 C 589.335 -3.13619 -1.79793 0
M  V30 6094 O 589.056 -4.26906 -0.98402 0
M  V30 6095 C 590.557 -3.55954 -2.64219 0
M  V30 6096 H 587.777 -0.616043 -0.265954 0
M  V30 6097 H 590.321 -2.03681 -0.182872 0
M  V30 6098 H 588.476 -2.97409 -2.48247 0
M  V30 6099 H 588.89 -4.9989 -1.58776 0
M  V30 6100 H 590.364 -4.48444 -3.21873 0
M  V30 6101 H 590.841 -2.79653 -3.38661 0
M  V30 6102 H 591.447 -3.74746 -2.01111 0
M  V30 6103 N 589.762 0.448376 -1.51087 0
M  V30 6104 C 591.01 1.19635 -1.62886 0
M  V30 6105 C 591.331 1.91977 -0.342024 0
M  V30 6106 O 590.601 1.85094 0.641636 0
M  V30 6107 H 589.181 0.444598 -0.600285 0
M  V30 6108 H 591.843 0.515138 -1.87969 0
M  V30 6109 H 590.939 1.93194 -2.45117 0
M  V30 6110 N 591.24 1.41047 0.703093 0
M  V30 6111 C 592.487 1.4 1.46309 0
M  V30 6112 C 592.815 0.00654574 1.94499 0
M  V30 6113 O 592.07 -0.980255 1.6938 0
M  V30 6114 C 592.369 2.34686 2.6955 0
M  V30 6115 C 592.035 3.81684 2.40058 0
M  V30 6116 C 590.697 4.21731 2.31725 0
M  V30 6117 C 593.049 4.74525 2.15581 0
M  V30 6118 C 590.377 5.52637 1.97001 0
M  V30 6119 C 592.729 6.05744 1.82366 0
M  V30 6120 C 591.393 6.44819 1.72524 0
M  V30 6121 H 590.663 0.512295 0.535382 0
M  V30 6122 H 593.31 1.73792 0.804275 0
M  V30 6123 H 591.615 1.94122 3.40329 0
M  V30 6124 H 593.312 2.31152 3.27673 0
M  V30 6125 H 589.902 3.49963 2.47435 0
M  V30 6126 H 594.086 4.44395 2.20968 0
M  V30 6127 H 589.342 5.81802 1.87928 0
M  V30 6128 H 593.516 6.77189 1.62444 0
M  V30 6129 H 591.143 7.46168 1.45385 0
M  V30 6130 N 592.718 -0.936591 1.26751 0
M  V30 6131 C 593.648 -2.05315 1.11212 0
M  V30 6132 C 594.629 -1.70092 0.0160262 0
M  V30 6133 O 595.814 -1.93279 0.188894 0
M  V30 6134 C 592.944 -3.39123 0.749171 0
M  V30 6135 C 591.898 -3.88425 1.79751 0
M  V30 6136 C 591.224 -5.18936 1.28876 0
M  V30 6137 C 592.524 -4.12798 3.19992 0
M  V30 6138 H 594.218 -2.18573 2.04613 0
M  V30 6139 H 591.764 -1.05027 0.985159 0
M  V30 6140 H 593.717 -4.16704 0.627323 0
M  V30 6141 H 592.441 -3.25855 -0.220543 0
M  V30 6142 H 591.1 -3.13028 1.90811 0
M  V30 6143 H 590.748 -5.02051 0.308757 0
M  V30 6144 H 590.448 -5.52892 1.98958 0
M  V30 6145 H 591.972 -5.99096 1.17967 0
M  V30 6146 H 593.386 -4.80977 3.11983 0
M  V30 6147 H 591.783 -4.58044 3.87705 0
M  V30 6148 H 592.853 -3.18412 3.65707 0
M  V30 6149 N 594.196 -1.08629 -1.14182 0
M  V30 6150 C 595.144 -0.71284 -2.21408 0
M  V30 6151 C 596.138 0.282457 -1.67029 0
M  V30 6152 O 597.344 0.144783 -1.79417 0
M  V30 6153 H 593.719 -0.212497 -0.721352 0
M  V30 6154 H 595.69 -1.6265 -2.50175 0
M  V30 6155 C 594.439 -0.140704 -3.47415 0
M  V30 6156 H 593.762 -0.897739 -3.8959 0
M  V30 6157 H 595.202 0.0827677 -4.23919 0
M  V30 6158 C 593.661 1.122 -3.17668 0
M  V30 6159 O 594.191 2.20652 -3.35672 0
M  V30 6160 N 592.397 1.03328 -2.71609 0
M  V30 6161 H 591.944 0.150666 -2.57159 0
M  V30 6162 H 591.902 1.8789 -2.52081 0
M  V30 6163 N 595.674 1.31259 -0.872281 0
M  V30 6164 C 596.923 1.95893 -0.480493 0
M  V30 6165 C 597.236 1.697 0.972688 0
M  V30 6166 O 598.442 2.28214 1.47073 0
M  V30 6167 C 596.898 3.50705 -0.808342 0
M  V30 6168 C 596.506 3.85735 -2.27844 0
M  V30 6169 C 598.25 4.21719 -0.485136 0
M  V30 6170 C 596.157 5.33668 -2.54858 0
M  V30 6171 H 595.087 0.733182 -0.175955 0
M  V30 6172 H 597.738 1.49396 -1.0655 0
M  V30 6173 H 596.12 3.95706 -0.152558 0
M  V30 6174 H 597.294 3.51686 -2.97748 0
M  V30 6175 H 595.609 3.27792 -2.56791 0
M  V30 6176 H 598.206 5.30559 -0.664166 0
M  V30 6177 H 598.549 4.12316 0.574592 0
M  V30 6178 H 599.082 3.82359 -1.09756 0
M  V30 6179 H 595.821 5.48109 -3.59523 0
M  V30 6180 H 595.341 5.69061 -1.8955 0
M  V30 6181 H 597.02 6.00958 -2.39706 0
M  V30 6182 N 597.152 0.631951 1.44375 0
M  V30 6183 C 598.084 -0.110911 2.28931 0
M  V30 6184 C 599.097 -0.808086 1.41329 0
M  V30 6185 O 600.286 -0.669396 1.65473 0
M  V30 6186 C 597.386 -1.17928 3.1772 0
M  V30 6187 C 596.559 -0.564458 4.33743 0
M  V30 6188 C 595.618 -1.5269 5.0356 0
M  V30 6189 O 594.644 -1.04372 5.59549 0
M  V30 6190 N 595.846 -2.86123 5.05088 0
M  V30 6191 H 598.611 0.614758 2.93327 0
M  V30 6192 H 596.172 0.473171 1.54831 0
M  V30 6193 H 598.164 -1.82348 3.61291 0
M  V30 6194 H 596.734 -1.80717 2.55069 0
M  V30 6195 H 595.954 0.258373 3.93352 0
M  V30 6196 H 597.242 -0.134355 5.08623 0
M  V30 6197 H 596.64 -3.27959 4.60933 0
M  V30 6198 H 595.197 -3.45901 5.52445 0
M  V30 6199 N 598.631 -1.53133 0.372548 0
M  V30 6200 C 599.856 -2.0625 -0.218098 0
M  V30 6201 C 600.281 -1.24375 -1.41111 0
M  V30 6202 O 599.639 -0.264554 -1.79359 0
M  V30 6203 C 599.687 -3.55858 -0.582876 0
M  V30 6204 O 598.791 -3.76667 -1.67917 0
M  V30 6205 H 598.132 -0.663317 -0.030104 0
M  V30 6206 H 600.662 -1.97477 0.535169 0
M  V30 6207 H 600.672 -3.99007 -0.851925 0
M  V30 6208 H 599.347 -4.14892 0.289428 0
M  V30 6209 H 597.924 -3.45413 -1.40513 0
M  V30 6210 N 600.109 -0.101901 -1.5727 0
M  V30 6211 C 601.355 0.554864 -1.95686 0
M  V30 6212 C 601.71 1.65368 -0.983415 0
M  V30 6213 O 601.003 1.91597 -0.0105374 0
M  V30 6214 C 601.197 1.14898 -3.38427 0
M  V30 6215 C 601.026 0.109251 -4.49567 0
M  V30 6216 C 599.796 -0.316633 -5.04307 0
M  V30 6217 C 601.994 -0.665196 -5.0998 0
M  V30 6218 N 599.976 -1.34393 -5.99009 0
M  V30 6219 C 601.347 -1.54413 -6.00464 0
M  V30 6220 C 603.402 -0.717966 -4.92696 0
M  V30 6221 C 602.105 -2.47122 -6.75517 0
M  V30 6222 C 604.131 -1.63268 -5.68417 0
M  V30 6223 C 603.493 -2.49923 -6.58572 0
M  V30 6224 H 599.592 0.17317 -0.762585 0
M  V30 6225 H 602.176 -0.18605 -1.93809 0
M  V30 6226 H 600.347 1.85969 -3.40984 0
M  V30 6227 H 602.079 1.76867 -3.64006 0
M  V30 6228 H 598.834 0.0724419 -4.73545 0
M  V30 6229 H 599.258 -1.85598 -6.51062 0
M  V30 6230 H 603.9 -0.0621637 -4.22754 0
M  V30 6231 H 601.618 -3.13724 -7.44717 0
M  V30 6232 H 605.204 -1.67874 -5.57054 0
M  V30 6233 H 604.084 -3.19553 -7.16139 0
M  V30 6234 N 601.587 1.56661 0.17182 0
M  V30 6235 C 602.998 1.71652 0.734329 0
M  V30 6236 C 603.349 0.712335 1.82812 0
M  V30 6237 O 602.474 -0.126401 2.16031 0
M  V30 6238 C 603.069 3.11226 1.3388 0
M  V30 6239 C 601.628 3.27904 1.84813 0
M  V30 6240 C 600.775 2.67603 0.726917 0
M  V30 6241 H 603.726 1.5861 -0.0535665 0
M  V30 6242 H 603.747 3.09849 2.20849 0
M  V30 6243 H 603.259 3.8429 0.54249 0
M  V30 6244 H 601.36 2.59796 2.6709 0
M  V30 6245 H 601.473 4.35637 1.99392 0
M  V30 6246 H 599.837 2.274 1.14723 0
M  V30 6247 H 600.62 3.43252 -0.0575334 0
M  V30 6248 N 603.065 -0.440357 1.51323 0
M  V30 6249 C 604.476 -1.02032 1.56353 0
M  V30 6250 C 604.827 -1.92382 0.385197 0
M  V30 6251 O 603.952 -2.10583 -0.498373 0
M  V30 6252 C 604.547 -1.85723 2.83359 0
M  V30 6253 C 603.106 -2.38774 2.90971 0
M  V30 6254 C 602.253 -1.17908 2.50984 0
M  V30 6255 H 605.204 -0.221744 1.57143 0
M  V30 6256 H 605.225 -2.71141 2.66951 0
M  V30 6257 H 604.737 -1.19939 3.69102 0
M  V30 6258 H 602.838 -3.08021 2.09651 0
M  V30 6259 H 602.951 -2.71778 3.94555 0
M  V30 6260 H 601.315 -1.52347 2.04114 0
M  V30 6261 H 602.098 -0.537393 3.39068 0
M  V30 6262 N 604.543 -1.41418 -0.695603 0
M  V30 6263 C 605.491 -1.43467 -1.83084 0
M  V30 6264 C 606.485 -0.312719 -1.66489 0
M  V30 6265 O 607.691 -0.484744 -1.7335 0
M  V30 6266 H 604.066 -0.448891 -0.603325 0
M  V30 6267 H 606.037 -2.39144 -1.78473 0
M  V30 6268 C 604.786 -1.3337 -3.21104 0
M  V30 6269 H 604.109 -2.18989 -3.3449 0
M  V30 6270 H 605.549 -1.38865 -4.00615 0
M  V30 6271 C 604.008 -0.0460484 -3.36869 0
M  V30 6272 O 604.538 0.909258 -3.91274 0
M  V30 6273 N 602.744 0.0300222 -2.90584 0
M  V30 6274 H 602.291 -0.748129 -2.46497 0
M  V30 6275 H 602.249 0.890991 -3.01511 0
M  V30 6276 N 606.021 0.929856 -1.27246 0
M  V30 6277 C 606.954 2.03069 -1.04106 0
M  V30 6278 C 607.932 1.62556 0.0378417 0
M  V30 6279 O 609.116 1.88197 -0.106869 0
M  V30 6280 C 606.243 3.33718 -0.578778 0
M  V30 6281 C 605.289 3.93209 -1.65193 0
M  V30 6282 S 606.122 4.26068 -3.24386 0
M  V30 6283 C 607.278 5.598 -2.79954 0
M  V30 6284 H 607.511 2.22386 -1.97311 0
M  V30 6285 H 605.044 1.07269 -1.11053 0
M  V30 6286 H 607.002 4.09261 -0.31874 0
M  V30 6287 H 605.663 3.12328 0.333182 0
M  V30 6288 H 604.856 4.87482 -1.27973 0
M  V30 6289 H 604.458 3.24243 -1.86393 0
M  V30 6290 H 606.75 6.39004 -2.25123 0
M  V30 6291 H 607.693 6.01917 -3.72963 0
M  V30 6292 H 608.101 5.20219 -2.19164 0
M  V30 6293 N 607.499 1.09233 1.13605 0
M  V30 6294 C 608.727 0.848908 1.88683 0
M  V30 6295 C 609.142 -0.599667 1.79024 0
M  V30 6296 O 608.499 -1.41265 1.15544 0
M  V30 6297 C 608.55 1.27273 3.38355 0
M  V30 6298 O 608.271 2.66449 3.47759 0
M  V30 6299 C 609.772 1.0614 4.30406 0
M  V30 6300 H 606.992 0.305549 0.597395 0
M  V30 6301 H 609.536 1.4538 1.43823 0
M  V30 6302 H 607.691 0.711776 3.80805 0
M  V30 6303 H 608.105 2.84264 4.40788 0
M  V30 6304 H 609.579 1.40725 5.33761 0
M  V30 6305 H 610.056 -0.000960332 4.392 0
M  V30 6306 H 610.662 1.60821 3.93722 0
M  V30 6307 N 608.977 -1.30795 0.87923 0
M  V30 6308 C 610.254 -1.91145 0.415086 0
M  V30 6309 C 610.634 -1.7995 -1.10368 0
M  V30 6310 O 609.982 -1.21305 -1.93642 0
M  V30 6311 C 610.192 -3.37014 0.906778 0
M  V30 6312 C 611.54 -4.14101 0.938358 0
M  V30 6313 O 612.564 -3.45834 0.853053 0
M  V30 6314 O 611.423 -5.36054 1.06342 0
M  V30 6315 H 608.517 -0.81736 0.125905 0
M  V30 6316 H 611.063 -1.39401 0.967753 0
M  V30 6317 H 609.835 -3.3922 1.95053 0
M  V30 6318 H 609.458 -3.96204 0.332948 0
M  V30 6319 N 610.455 -0.639598 -1.44038 0
M  V30 6320 C 611.702 -0.14748 -2.01962 0
M  V30 6321 C 612.03 1.23372 -1.50365 0
M  V30 6322 O 611.285 1.8345 -0.681501 0
M  V30 6323 C 611.584 -0.0925348 -3.5728 0
M  V30 6324 C 611.25 -1.41365 -4.28167 0
M  V30 6325 C 609.912 -1.77545 -4.47248 0
M  V30 6326 C 612.264 -2.2853 -4.68427 0
M  V30 6327 C 609.592 -3.00583 -5.03852 0
M  V30 6328 C 611.944 -3.50846 -5.26393 0
M  V30 6329 C 610.608 -3.8724 -5.43692 0
M  V30 6330 H 609.878 -0.0539666 -0.739032 0
M  V30 6331 H 612.525 -0.827599 -1.72694 0
M  V30 6332 H 610.83 0.670987 -3.86012 0
M  V30 6333 H 612.527 0.304891 -3.99839 0
M  V30 6334 H 609.117 -1.1221 -4.13651 0
M  V30 6335 H 613.301 -2.0187 -4.5339 0
M  V30 6336 H 608.557 -3.28846 -5.15432 0
M  V30 6337 H 612.731 -4.18616 -5.56537 0
M  V30 6338 H 610.358 -4.8266 -5.87319 0
M  V30 6339 N 611.933 1.52934 -0.380664 0
M  V30 6340 C 613.158 2.06363 0.207157 0
M  V30 6341 C 613.583 1.25122 1.4045 0
M  V30 6342 O 612.941 0.274062 1.79217 0
M  V30 6343 C 612.989 3.56162 0.563996 0
M  V30 6344 O 612.093 3.77552 1.65917 0
M  V30 6345 H 611.434 0.663468 0.0265859 0
M  V30 6346 H 613.964 1.9719 -0.545635 0
M  V30 6347 H 613.974 3.99453 0.830752 0
M  V30 6348 H 612.649 4.14732 -0.311427 0
M  V30 6349 H 611.226 3.46154 1.3868 0
M  V30 6350 N 613.412 0.11024 1.57214 0
M  V30 6351 C 614.658 -0.550684 1.9518 0
M  V30 6352 C 614.991 -1.66885 0.993122 0
M  V30 6353 O 614.266 -1.94479 0.0287907 0
M  V30 6354 C 614.549 -1.09163 3.43155 0
M  V30 6355 C 614.402 0.0225198 4.49794 0
M  V30 6356 C 615.721 -1.98527 3.92778 0
M  V30 6357 H 612.84 -0.198706 0.709708 0
M  V30 6358 H 615.482 0.184024 1.89107 0
M  V30 6359 H 613.632 -1.71775 3.48462 0
M  V30 6360 H 615.304 0.657443 4.56591 0
M  V30 6361 H 613.547 0.686868 4.28328 0
M  V30 6362 H 614.218 -0.39706 5.5057 0
M  V30 6363 H 616.694 -1.458 3.8972 0
M  V30 6364 H 615.57 -2.33298 4.96853 0
M  V30 6365 H 615.831 -2.90846 3.32958 0
M  V30 6366 N 614.89 -1.56749 -0.16351 0
M  V30 6367 C 616.137 -1.82434 -0.878866 0
M  V30 6368 C 616.465 -0.688557 -1.81904 0
M  V30 6369 O 615.72 0.323644 -1.93005 0
M  V30 6370 C 616.019 -3.14342 -1.70071 0
M  V30 6371 C 615.685 -4.41647 -0.908775 0
M  V30 6372 C 614.347 -4.76224 -0.690236 0
M  V30 6373 C 616.699 -5.19998 -0.353815 0
M  V30 6374 C 614.027 -5.86624 0.0942374 0
M  V30 6375 C 616.379 -6.3122 0.41761 0
M  V30 6376 C 615.043 -6.64358 0.646879 0
M  V30 6377 H 614.313 -0.667574 -0.3216 0
M  V30 6378 H 616.96 -1.90963 -0.14337 0
M  V30 6379 H 615.265 -3.0119 -2.50583 0
M  V30 6380 H 616.962 -3.31426 -2.25738 0
M  V30 6381 H 613.552 -4.1453 -1.08916 0
M  V30 6382 H 617.736 -4.93673 -0.509975 0
M  V30 6383 H 612.992 -6.10751 0.281529 0
M  V30 6384 H 617.166 -6.91133 0.854849 0
M  V30 6385 H 614.793 -7.49742 1.25662 0
M  V30 6386 N 616.368 0.432326 -1.51554 0
M  V30 6387 C 617.593 1.20824 -1.68571 0
M  V30 6388 C 618.018 1.84126 -0.384596 0
M  V30 6389 O 617.376 1.69025 0.655751 0
M  V30 6390 C 617.424 2.26429 -2.80646 0
M  V30 6391 O 616.528 3.32032 -2.44598 0
M  V30 6392 H 615.869 0.353765 -0.561913 0
M  V30 6393 H 618.399 0.509916 -1.98144 0
M  V30 6394 H 618.409 2.71133 -3.04878 0
M  V30 6395 H 617.084 1.79733 -3.75058 0
M  V30 6396 H 615.661 2.92769 -2.30956 0
M  V30 6397 N 617.846 1.41785 0.688094 0
M  V30 6398 C 618.794 1.44436 1.82321 0
M  V30 6399 C 619.788 0.321544 1.6632 0
M  V30 6400 O 620.994 0.493931 1.73091 0
M  V30 6401 H 617.369 0.452084 0.600936 0
M  V30 6402 H 619.34 2.40087 1.77202 0
M  V30 6403 C 618.089 1.35071 3.20392 0
M  V30 6404 H 617.412 2.2076 3.33324 0
M  V30 6405 H 618.852 1.40988 3.99873 0
M  V30 6406 C 617.311 0.0639127 3.36839 0
M  V30 6407 O 617.841 -0.888495 3.91751 0
M  V30 6408 N 616.047 -0.0146114 2.90596 0
M  V30 6409 H 615.594 0.761191 2.46097 0
M  V30 6410 H 615.552 -0.874988 3.01979 0
M  V30 6411 N 619.324 -0.923095 1.27737 0
M  V30 6412 C 620.254 -2.04124 1.13383 0
M  V30 6413 C 621.235 -1.70066 0.0340658 0
M  V30 6414 O 622.42 -1.93068 0.209383 0
M  V30 6415 C 619.55 -3.3831 0.785097 0
M  V30 6416 C 618.504 -3.86496 1.8386 0
M  V30 6417 C 617.83 -5.1754 1.34373 0
M  V30 6418 C 619.13 -4.09381 3.24353 0
M  V30 6419 H 620.824 -2.1639 2.06919 0
M  V30 6420 H 618.37 -1.03976 0.996243 0
M  V30 6421 H 620.323 -4.16016 0.671485 0
M  V30 6422 H 619.047 -3.2607 -0.185969 0
M  V30 6423 H 617.706 -3.10987 1.9412 0
M  V30 6424 H 617.354 -5.01696 0.361989 0
M  V30 6425 H 617.054 -5.50751 2.04811 0
M  V30 6426 H 618.578 -5.97811 1.24315 0
M  V30 6427 H 619.992 -4.77641 3.17067 0
M  V30 6428 H 618.389 -4.53906 3.92542 0
M  V30 6429 H 619.459 -3.14515 3.69064 0
M  V30 6430 N 620.802 -1.09834 -1.13024 0
M  V30 6431 C 622.048 -0.83819 -1.84668 0
M  V30 6432 C 622.381 0.634645 -1.83537 0
M  V30 6433 O 621.656 1.46753 -1.27647 0
M  V30 6434 C 621.939 -1.37933 -3.32636 0
M  V30 6435 C 621.792 -2.91857 -3.42257 0
M  V30 6436 C 623.111 -1.01654 -4.28199 0
M  V30 6437 H 620.23 -0.30595 -0.670495 0
M  V30 6438 H 622.872 -1.36044 -1.32635 0
M  V30 6439 H 621.022 -0.935111 -3.77078 0
M  V30 6440 H 622.694 -3.44759 -3.06495 0
M  V30 6441 H 620.937 -3.28776 -2.83 0
M  V30 6442 H 621.608 -3.24799 -4.46329 0
M  V30 6443 H 624.084 -1.39973 -3.9185 0
M  V30 6444 H 622.96 -1.42217 -5.30156 0
M  V30 6445 H 623.221 0.0747794 -4.42037 0
M  V30 6446 N 622.28 1.30327 -0.886154 0
M  V30 6447 C 623.508 2.00254 -0.520176 0
M  V30 6448 C 623.923 1.66419 0.891637 0
M  V30 6449 O 623.28 0.901951 1.58654 0
M  V30 6450 C 623.331 3.54916 -0.686775 0
M  V30 6451 O 623.052 3.87547 -2.04301 0
M  V30 6452 C 624.553 4.42115 -0.323945 0
M  V30 6453 H 621.773 0.640204 -0.200947 0
M  V30 6454 H 624.317 1.66183 -1.19178 0
M  V30 6455 H 622.472 3.8735 -0.0625273 0
M  V30 6456 H 622.886 4.82247 -2.06249 0
M  V30 6457 H 624.36 5.49808 -0.491407 0
M  V30 6458 H 624.837 4.32953 0.73811 0
M  V30 6459 H 625.443 4.15129 -0.924565 0
M  V30 6460 N 623.758 0.647228 1.43697 0
M  V30 6461 C 625.007 0.155552 2.01099 0
M  V30 6462 C 625.32 -1.23569 1.51624 0
M  V30 6463 O 626.526 -1.82226 2.01261 0
M  V30 6464 C 624.982 0.227296 3.59182 0
M  V30 6465 C 624.59 1.62086 4.17651 0
M  V30 6466 C 626.334 -0.207085 4.23995 0
M  V30 6467 C 624.241 1.64685 5.68008 0
M  V30 6468 H 623.171 0.0543895 0.752036 0
M  V30 6469 H 625.822 0.808386 1.64734 0
M  V30 6470 H 624.204 -0.492937 3.9292 0
M  V30 6471 H 625.378 2.36597 3.95422 0
M  V30 6472 H 623.693 2.0007 3.65186 0
M  V30 6473 H 626.29 -0.207426 5.34298 0
M  V30 6474 H 626.633 -1.23742 3.97484 0
M  V30 6475 H 627.166 0.461193 3.95118 0
M  V30 6476 H 623.905 2.65608 5.99277 0
M  V30 6477 H 623.425 0.944914 5.9231 0
M  V30 6478 H 625.104 1.38792 6.31938 0
M  V30 6479 N 625.236 -1.5273 0.388769 0
M  V30 6480 C 626.484 -2.01174 -0.193208 0
M  V30 6481 C 626.805 -1.27705 -1.47365 0
M  V30 6482 O 626.075 -0.396966 -1.91836 0
M  V30 6483 H 624.655 -0.743287 -0.0743871 0
M  V30 6484 H 627.317 -1.87826 0.520336 0
M  V30 6485 H 626.413 -3.09477 -0.403803 0
M  V30 6486 N 626.714 -0.118576 -1.57153 0
M  V30 6487 C 627.962 0.538461 -1.94795 0
M  V30 6488 C 628.283 1.67243 -1.00274 0
M  V30 6489 O 627.553 1.95811 -0.0589692 0
M  V30 6490 H 626.133 0.201904 -0.719197 0
M  V30 6491 H 628.795 -0.187418 -1.93997 0
M  V30 6492 H 627.891 0.933315 -2.97818 0
M  V30 6493 N 628.193 1.56834 0.155195 0
M  V30 6494 C 629.609 1.51315 0.50755 0
M  V30 6495 C 629.809 0.825614 1.83809 0
M  V30 6496 O 628.865 0.39271 2.49427 0
M  V30 6497 C 630.178 2.96074 0.52542 0
M  V30 6498 C 631.726 3.06968 0.611505 0
M  V30 6499 C 632.201 4.53218 0.660115 0
M  V30 6500 N 633.692 4.5753 0.722564 0
M  V30 6501 C 634.427 5.68056 0.781023 0
M  V30 6502 N 633.923 6.88173 0.799327 0
M  V30 6503 N 635.716 5.56068 0.821278 0
M  V30 6504 H 627.867 1.9993 -0.717063 0
M  V30 6505 H 630.13 0.911507 -0.260496 0
M  V30 6506 H 629.836 3.49599 -0.383875 0
M  V30 6507 H 629.71 3.51587 1.36624 0
M  V30 6508 H 632.097 2.53468 1.51122 0
M  V30 6509 H 632.178 2.54513 -0.256306 0
M  V30 6510 H 631.822 5.07354 -0.23541 0
M  V30 6511 H 631.752 5.03447 1.5443 0
M  V30 6512 H 634.243 3.71054 0.716049 0
M  V30 6513 H 634.556 7.6816 0.845553 0
M  V30 6514 H 632.901 6.90751 0.767337 0
M  V30 6515 H 636.092 4.61142 0.804091 0
M  V30 6516 H 636.265 6.42223 0.863372 0
M  V30 6517 N 629.671 -0.424282 1.51781 0
M  V30 6518 C 630.917 -1.17434 1.6534 0
M  V30 6519 C 631.25 -1.90549 0.374806 0
M  V30 6520 O 630.525 -1.84145 -0.626179 0
M  V30 6521 C 630.808 -2.18093 2.86544 0
M  V30 6522 C 630.661 -1.48975 4.24413 0
M  V30 6523 C 631.98 -3.18934 3.03264 0
M  V30 6524 H 629.099 -0.425566 0.601716 0
M  V30 6525 H 631.741 -0.461921 1.84299 0
M  V30 6526 H 629.891 -2.78849 2.7051 0
M  V30 6527 H 631.563 -0.914551 4.52143 0
M  V30 6528 H 629.806 -0.791893 4.26511 0
M  V30 6529 H 630.477 -2.22347 5.05238 0
M  V30 6530 H 632.953 -2.68243 3.18096 0
M  V30 6531 H 631.829 -3.86645 3.89611 0
M  V30 6532 H 632.09 -3.85793 2.15908 0
M  V30 6533 N 631.149 -1.42148 -0.680565 0
M  V30 6534 C 632.079 -1.4796 -1.80638 0
M  V30 6535 C 633.06 -0.336728 -1.66734 0
M  V30 6536 O 634.245 -0.550247 -1.86242 0
M  V30 6537 C 631.375 -1.37569 -3.18892 0
M  V30 6538 C 630.329 -2.49823 -3.47524 0
M  V30 6539 C 629.655 -2.24491 -4.85291 0
M  V30 6540 C 630.955 -3.92144 -3.44994 0
M  V30 6541 H 632.649 -2.42184 -1.76032 0
M  V30 6542 H 630.195 -1.16566 -0.845481 0
M  V30 6543 H 632.148 -1.40243 -3.97379 0
M  V30 6544 H 630.872 -0.398357 -3.24162 0
M  V30 6545 H 629.531 -2.46455 -2.71395 0
M  V30 6546 H 629.179 -1.25066 -4.87204 0
M  V30 6547 H 628.879 -2.99722 -5.05411 0
M  V30 6548 H 630.403 -2.28906 -5.66069 0
M  V30 6549 H 631.817 -3.97145 -4.13459 0
M  V30 6550 H 630.214 -4.67179 -3.76648 0
M  V30 6551 H 631.284 -4.19225 -2.43676 0
M  V30 6552 N 632.627 0.916307 -1.28225 0
M  V30 6553 C 633.857 1.69654 -1.17902 0
M  V30 6554 C 634.265 1.87331 0.265268 0
M  V30 6555 O 633.608 1.39828 1.19137 0
M  V30 6556 C 633.67 3.11024 -1.80289 0
M  V30 6557 C 633.334 3.16643 -3.29525 0
M  V30 6558 C 634.331 2.98032 -4.25997 0
M  V30 6559 C 632.016 3.39238 -3.70436 0
M  V30 6560 C 634.01 3.01924 -5.61356 0
M  V30 6561 C 631.697 3.42762 -5.05922 0
M  V30 6562 C 632.695 3.24125 -6.01192 0
M  V30 6563 O 632.383 3.27406 -7.34208 0
M  V30 6564 H 632.115 0.537197 -0.41036 0
M  V30 6565 H 634.669 1.15547 -1.69817 0
M  V30 6566 H 632.899 3.66662 -1.22865 0
M  V30 6567 H 634.588 3.71063 -1.6452 0
M  V30 6568 H 635.354 2.80405 -3.95725 0
M  V30 6569 H 631.233 3.52791 -2.96749 0
M  V30 6570 H 634.777 2.87295 -6.35694 0
M  V30 6571 H 630.674 3.59916 -5.35846 0
M  V30 6572 H 631.442 3.43784 -7.42802 0
M  V30 6573 N 634.105 1.10431 1.1244 0
M  V30 6574 C 635.33 0.869089 1.88313 0
M  V30 6575 C 635.755 -0.574912 1.79099 0
M  V30 6576 O 635.113 -1.40496 1.14589 0
M  V30 6577 C 635.161 1.32208 3.3549 0
M  V30 6578 O 634.265 0.487092 4.09513 0
M  V30 6579 H 633.606 0.313894 0.585121 0
M  V30 6580 H 636.136 1.47111 1.42195 0
M  V30 6581 H 636.146 1.31201 3.86329 0
M  V30 6582 H 634.821 2.37364 3.41513 0
M  V30 6583 H 633.398 0.562372 3.68635 0
M  V30 6584 N 635.583 -1.29855 0.893053 0
M  V30 6585 C 636.831 -1.9544 0.514566 0
M  V30 6586 C 637.152 -1.70795 -0.940959 0
M  V30 6587 O 636.422 -1.03601 -1.66264 0
M  V30 6588 H 635.002 -0.723137 0.187302 0
M  V30 6589 H 637.664 -1.58234 1.13789 0
M  V30 6590 H 636.76 -3.04341 0.691581 0
M  V30 6591 N 637.061 -0.65484 -1.43351 0
M  V30 6592 C 637.991 0.0221809 -2.33489 0
M  V30 6593 C 638.972 0.810272 -1.49561 0
M  V30 6594 O 640.157 0.771426 -1.78221 0
M  V30 6595 C 637.287 0.988117 -3.32947 0
M  V30 6596 C 636.241 0.310026 -4.26876 0
M  V30 6597 C 635.567 1.38752 -5.16384 0
M  V30 6598 C 636.867 -0.798589 -5.16159 0
M  V30 6599 H 638.561 -0.730571 -2.9035 0
M  V30 6600 H 636.107 -0.352773 -1.39612 0
M  V30 6601 H 638.06 1.47067 -3.94904 0
M  V30 6602 H 636.784 1.77205 -2.74346 0
M  V30 6603 H 635.443 -0.152097 -3.66284 0
M  V30 6604 H 635.091 2.16293 -4.54121 0
M  V30 6605 H 634.791 0.939051 -5.80048 0
M  V30 6606 H 636.315 1.87141 -5.81215 0
M  V30 6607 H 637.729 -0.398126 -5.71916 0
M  V30 6608 H 636.126 -1.17163 -5.88552 0
M  V30 6609 H 637.196 -1.65588 -4.55751 0
M  V30 6610 N 638.539 1.52521 -0.396863 0
M  V30 6611 C 639.764 2.06571 0.185258 0
M  V30 6612 C 640.189 1.26605 1.39115 0
M  V30 6613 O 639.547 0.293055 1.78916 0
M  V30 6614 C 639.595 3.5674 0.526189 0
M  V30 6615 O 638.699 3.7929 1.61903 0
M  V30 6616 H 638.04 0.663712 0.0195474 0
M  V30 6617 H 640.57 1.966 -0.566519 0
M  V30 6618 H 640.58 4.00311 0.788338 0
M  V30 6619 H 639.255 4.14379 -0.355397 0
M  V30 6620 H 637.832 3.47605 1.35 0
M  V30 6621 N 640.017 0.126909 1.57088 0
M  V30 6622 C 640.947 -0.816847 2.18746 0
M  V30 6623 C 641.928 -1.27161 1.12979 0
M  V30 6624 O 643.113 -1.33279 1.41246 0
M  V30 6625 C 640.243 -2.06398 2.79315 0
M  V30 6626 C 639.197 -1.74673 3.90735 0
M  V30 6627 C 638.523 -3.06482 4.38147 0
M  V30 6628 C 639.823 -1.0089 5.12463 0
M  V30 6629 H 641.517 -0.303032 2.97863 0
M  V30 6630 H 639.063 -0.144314 1.43275 0
M  V30 6631 H 641.016 -2.72885 3.2111 0
M  V30 6632 H 639.74 -2.60118 1.975 0
M  V30 6633 H 638.399 -1.10572 3.49527 0
M  V30 6634 H 638.047 -3.58152 3.5318 0
M  V30 6635 H 637.747 -2.86025 5.13287 0
M  V30 6636 H 639.271 -3.74073 4.82599 0
M  V30 6637 H 640.685 -1.57546 5.51228 0
M  V30 6638 H 639.082 -0.905006 5.93237 0
M  V30 6639 H 640.152 0.00297335 4.849 0
M  V30 6640 N 641.495 -1.56914 -0.146875 0
M  V30 6641 C 642.425 -2.01308 -1.1831 0
M  V30 6642 C 643.406 -0.892664 -1.44795 0
M  V30 6643 O 644.591 -1.16048 -1.55713 0
M  V30 6644 C 641.721 -2.3938 -2.51624 0
M  V30 6645 C 640.675 -3.54608 -2.3966 0
M  V30 6646 C 640.001 -3.78493 -3.77686 0
M  V30 6647 C 641.301 -4.87269 -1.88058 0
M  V30 6648 H 642.995 -2.88123 -0.813964 0
M  V30 6649 H 640.541 -1.38615 -0.3901 0
M  V30 6650 H 642.494 -2.69037 -3.24341 0
M  V30 6651 H 641.218 -1.49502 -2.90373 0
M  V30 6652 H 639.877 -3.25116 -1.69396 0
M  V30 6653 H 639.525 -2.85866 -4.13871 0
M  V30 6654 H 639.225 -4.56039 -3.70543 0
M  V30 6655 H 640.749 -4.10576 -4.51951 0
M  V30 6656 H 642.163 -5.15644 -2.50568 0
M  V30 6657 H 640.56 -5.68622 -1.91805 0
M  V30 6658 H 641.63 -4.77634 -0.836277 0
M  V30 6659 N 642.974 0.416227 -1.52004 0
M  V30 6660 C 644.223 1.16088 -1.64944 0
M  V30 6661 C 644.536 1.91835 -0.381928 0
M  V30 6662 O 645.742 2.6867 -0.391013 0
M  V30 6663 C 644.198 2.1124 -2.91386 0
M  V30 6664 C 643.806 1.41042 -4.25219 0
M  V30 6665 C 645.55 2.86008 -3.13688 0
M  V30 6666 C 643.457 2.34801 -5.42791 0
M  V30 6667 H 642.387 0.437041 -0.61442 0
M  V30 6668 H 645.038 0.425971 -1.78487 0
M  V30 6669 H 643.42 2.88254 -2.71525 0
M  V30 6670 H 644.594 0.694416 -4.55538 0
M  V30 6671 H 642.909 0.78344 -4.08964 0
M  V30 6672 H 645.506 3.56286 -3.98703 0
M  V30 6673 H 645.849 3.48556 -2.27628 0
M  V30 6674 H 646.382 2.16095 -3.33988 0
M  V30 6675 H 643.121 1.7691 -6.31176 0
M  V30 6676 H 642.641 3.04395 -5.16821 0
M  V30 6677 H 644.32 2.9548 -5.75587 0
M  V30 6678 N 644.452 1.42507 0.673017 0
M  V30 6679 C 645.382 1.48916 1.79851 0
M  V30 6680 C 646.363 0.345566 1.66553 0
M  V30 6681 O 647.548 0.560116 1.85947 0
M  V30 6682 C 644.678 1.39258 3.18158 0
M  V30 6683 C 643.632 2.51662 3.46194 0
M  V30 6684 C 642.958 2.27062 4.84094 0
M  V30 6685 C 644.258 3.93968 3.42909 0
M  V30 6686 H 645.952 2.43114 1.74745 0
M  V30 6687 H 643.498 1.17013 0.839288 0
M  V30 6688 H 645.451 1.42349 3.96629 0
M  V30 6689 H 644.175 0.415542 3.23946 0
M  V30 6690 H 642.834 2.47891 2.70084 0
M  V30 6691 H 642.482 1.27648 4.86534 0
M  V30 6692 H 642.182 3.02398 5.03815 0
M  V30 6693 H 643.706 2.31905 5.64847 0
M  V30 6694 H 645.12 3.99332 4.11347 0
M  V30 6695 H 643.517 4.6917 3.74165 0
M  V30 6696 H 644.587 4.20512 2.41449 0
M  V30 6697 N 645.93 -0.909495 1.28709 0
M  V30 6698 C 646.877 -2.01245 1.13 0
M  V30 6699 C 647.847 -1.6608 0.0259684 0
M  V30 6700 O 649.032 -1.89835 0.191687 0
M  V30 6701 C 646.172 -3.35644 0.802315 0
M  V30 6702 C 645.285 -3.83653 1.98582 0
M  V30 6703 C 644.42 -5.06582 1.59837 0
M  V30 6704 C 643.459 -5.46934 2.74827 0
M  V30 6705 N 642.596 -6.61053 2.36546 0
M  V30 6706 H 647.436 -2.14013 2.0737 0
M  V30 6707 H 644.973 -1.0482 1.03205 0
M  V30 6708 H 646.931 -4.12963 0.593057 0
M  V30 6709 H 645.561 -3.22631 -0.104457 0
M  V30 6710 H 644.613 -3.02454 2.30708 0
M  V30 6711 H 645.925 -4.09515 2.84779 0
M  V30 6712 H 645.079 -5.91457 1.35143 0
M  V30 6713 H 643.818 -4.82537 0.707753 0
M  V30 6714 H 642.823 -4.60599 3.00215 0
M  V30 6715 H 644.048 -5.72965 3.64538 0
M  V30 6716 H 641.994 -6.3863 1.49959 0
M  V30 6717 H 641.911 -6.86662 3.16277 0
M  V30 6718 H 643.179 -7.49221 2.15146 0
M  V30 6719 N 647.408 -1.11026 -1.11852 0
M  V30 6720 C 648.34 -0.72249 -2.17515 0
M  V30 6721 C 649.353 0.243782 -1.60964 0
M  V30 6722 O 650.542 0.0273252 -1.78479 0
M  V30 6723 C 647.642 -0.0463979 -3.38868 0
M  V30 6724 C 646.815 -1.0384 -4.24895 0
M  V30 6725 C 645.874 -0.392659 -5.24733 0
M  V30 6726 O 644.9 -1.0453 -5.5952 0
M  V30 6727 N 646.102 0.846296 -5.74298 0
M  V30 6728 H 648.867 -1.63161 -2.51393 0
M  V30 6729 H 646.428 -0.999899 -1.27333 0
M  V30 6730 H 648.42 0.397215 -4.02746 0
M  V30 6731 H 646.99 0.765231 -3.03089 0
M  V30 6732 H 646.21 -1.6601 -3.57539 0
M  V30 6733 H 647.498 -1.70968 -4.79215 0
M  V30 6734 H 646.896 1.39578 -5.4821 0
M  V30 6735 H 645.453 1.23296 -6.40032 0
M  V30 6736 N 648.886 1.2938 -0.899927 0
M  V30 6737 C 649.818 2.26737 -0.335139 0
M  V30 6738 C 650.831 1.54316 0.518681 0
M  V30 6739 O 652.02 1.75313 0.335803 0
M  V30 6740 C 649.12 3.34558 0.540774 0
M  V30 6741 C 648.293 4.36455 -0.287372 0
M  V30 6742 C 647.352 5.2361 0.52141 0
M  V30 6743 O 646.378 5.69167 -0.0611735 0
M  V30 6744 N 647.58 5.50985 1.82745 0
M  V30 6745 H 650.345 2.75838 -1.17191 0
M  V30 6746 H 647.906 1.42716 -0.764438 0
M  V30 6747 H 649.898 3.89794 1.08825 0
M  V30 6748 H 648.468 2.85272 1.27823 0
M  V30 6749 H 647.688 3.80875 -1.01626 0
M  V30 6750 H 648.976 5.01573 -0.854518 0
M  V30 6751 H 648.374 5.15781 2.32349 0
M  V30 6752 H 646.931 6.09036 2.32204 0
M  V30 6753 N 650.364 0.662433 1.43002 0
M  V30 6754 C 651.612 0.179237 2.01304 0
M  V30 6755 C 651.933 -1.21428 1.52579 0
M  V30 6756 O 651.203 -1.81294 0.742252 0
M  V30 6757 H 649.783 0.0632725 0.744316 0
M  V30 6758 H 652.445 0.856169 1.75088 0
M  V30 6759 H 651.541 0.170957 3.11631 0
M  V30 6760 N 651.842 -1.52309 0.404946 0
M  V30 6761 C 653.091 -2.00952 -0.173529 0
M  V30 6762 C 653.404 -1.29512 -1.46581 0
M  V30 6763 O 654.61 -1.6895 -2.12528 0
M  V30 6764 C 653.066 -3.58097 -0.359801 0
M  V30 6765 C 652.674 -4.38449 0.920138 0
M  V30 6766 C 654.418 -4.14984 -0.893794 0
M  V30 6767 C 652.325 -5.87227 0.701285 0
M  V30 6768 H 651.255 -0.750871 -0.0686244 0
M  V30 6769 H 653.906 -1.75687 0.529749 0
M  V30 6770 H 652.288 -3.79675 -1.12531 0
M  V30 6771 H 653.462 -4.28633 1.69147 0
M  V30 6772 H 651.777 -3.92859 1.38024 0
M  V30 6773 H 654.374 -5.23813 -1.0735 0
M  V30 6774 H 654.717 -3.72072 -1.8673 0
M  V30 6775 H 655.25 -3.97358 -0.187453 0
M  V30 6776 H 651.989 -6.34491 1.64624 0
M  V30 6777 H 651.509 -5.99792 -0.0308288 0
M  V30 6778 H 653.188 -6.46096 0.341846 0
M  V30 6779 N 653.32 -0.135238 -1.57019 0
M  V30 6780 C 654.548 0.526066 -2.001 0
M  V30 6781 C 654.963 1.59184 -1.01519 0
M  V30 6782 O 654.32 1.82497 -0.0104258 0
M  V30 6783 C 654.371 1.13744 -3.43139 0
M  V30 6784 O 654.092 0.114259 -4.37951 0
M  V30 6785 C 655.593 1.8805 -4.01438 0
M  V30 6786 H 652.813 0.137962 -0.656664 0
M  V30 6787 H 655.357 -0.226359 -2.03243 0
M  V30 6788 H 653.512 1.84056 -3.40885 0
M  V30 6789 H 653.926 0.56058 -5.21496 0
M  V30 6790 H 655.4 2.26133 -5.03555 0
M  V30 6791 H 655.877 2.76194 -3.41487 0
M  V30 6792 H 656.483 1.22464 -4.07287 0
M  V30 6793 N 654.798 1.5699 0.138552 0
M  V30 6794 C 656.023 1.88344 0.86841 0
M  V30 6795 C 656.448 0.725159 1.7356 0
M  V30 6796 O 655.806 -0.324992 1.78363 0
M  V30 6797 C 655.854 3.18334 1.69398 0
M  V30 6798 O 654.958 3.02863 2.79907 0
M  V30 6799 H 654.299 0.618577 0.241367 0
M  V30 6800 H 656.829 2.04207 0.126826 0
M  V30 6801 H 656.839 3.50567 2.08726 0
M  V30 6802 H 655.514 4.02238 1.05725 0
M  V30 6803 H 654.091 2.82056 2.43924 0
M  V30 6804 N 656.276 -0.40816 1.52223 0
M  V30 6805 C 657.206 -1.5042 1.78595 0
M  V30 6806 C 658.187 -1.57723 0.636974 0
M  V30 6807 O 659.372 -1.72982 0.882664 0
M  V30 6808 C 656.502 -2.88232 1.93751 0
M  V30 6809 C 655.456 -2.95779 3.09352 0
M  V30 6810 C 654.782 -4.35855 3.09732 0
M  V30 6811 C 656.082 -2.67175 4.48793 0
M  V30 6812 H 657.776 -1.28601 2.70374 0
M  V30 6813 H 655.322 -0.617221 1.30101 0
M  V30 6814 H 657.275 -3.64895 2.10783 0
M  V30 6815 H 655.999 -3.11347 0.986443 0
M  V30 6816 H 654.658 -2.21561 2.92072 0
M  V30 6817 H 654.306 -4.55981 2.12346 0
M  V30 6818 H 654.006 -4.41829 3.87377 0
M  V30 6819 H 655.53 -5.14451 3.28895 0
M  V30 6820 H 656.944 -3.3356 4.66273 0
M  V30 6821 H 655.341 -2.84523 5.28362 0
M  V30 6822 H 656.411 -1.62609 4.56822 0
M  V30 6823 N 657.755 -1.42862 -0.66545 0
M  V30 6824 C 658.687 -1.43026 -1.79098 0
M  V30 6825 C 659.7 -0.32803 -1.59461 0
M  V30 6826 O 660.889 -0.591709 -1.68407 0
M  V30 6827 C 657.989 -1.21566 -3.16346 0
M  V30 6828 C 657.162 -2.44399 -3.62751 0
M  V30 6829 C 656.221 -2.18344 -4.78761 0
M  V30 6830 O 655.247 -2.91611 -4.88827 0
M  V30 6831 N 656.449 -1.1924 -5.68122 0
M  V30 6832 H 659.214 -2.40045 -1.79439 0
M  V30 6833 H 656.775 -1.37861 -0.848872 0
M  V30 6834 H 658.767 -1.02037 -3.91625 0
M  V30 6835 H 657.337 -0.330368 -3.10849 0
M  V30 6836 H 656.557 -2.79433 -2.78048 0
M  V30 6837 H 657.845 -3.26173 -3.90498 0
M  V30 6838 H 657.243 -0.586603 -5.6265 0
M  V30 6839 H 655.8 -1.05698 -6.43173 0
M  V30 6840 N 659.233 0.902656 -1.29189 0
M  V30 6841 C 660.48 1.65287 -1.16989 0
M  V30 6842 C 660.808 1.92485 0.279232 0
M  V30 6843 O 660.063 1.53143 1.21843 0
M  V30 6844 C 660.362 3.011 -1.92545 0
M  V30 6845 C 660.028 2.93521 -3.42281 0
M  V30 6846 C 658.69 2.91161 -3.83117 0
M  V30 6847 C 661.042 2.82947 -4.3771 0
M  V30 6848 C 658.37 2.76043 -5.17704 0
M  V30 6849 C 660.722 2.69368 -5.72384 0
M  V30 6850 C 659.386 2.65373 -6.12482 0
M  V30 6851 H 658.656 0.604828 -0.428094 0
M  V30 6852 H 661.303 1.05084 -1.60092 0
M  V30 6853 H 659.608 3.65153 -1.42024 0
M  V30 6854 H 661.305 3.58073 -1.80512 0
M  V30 6855 H 657.895 2.96158 -3.09819 0
M  V30 6856 H 662.079 2.83849 -4.07116 0
M  V30 6857 H 657.335 2.71352 -5.47885 0
M  V30 6858 H 661.509 2.60156 -6.45981 0
M  V30 6859 H 659.136 2.53415 -7.16718 0
M  V30 6860 N 660.711 1.11618 1.11262 0
M  V30 6861 C 661.643 0.734015 2.17129 0
M  V30 6862 C 662.656 -0.235243 1.61091 0
M  V30 6863 O 663.845 -0.0178597 1.78491 0
M  V30 6864 C 660.945 0.0643682 3.38839 0
M  V30 6865 C 660.118 1.06092 4.24339 0
M  V30 6866 C 659.177 0.420482 5.24517 0
M  V30 6867 O 658.203 1.07495 5.58957 0
M  V30 6868 N 659.405 -0.815828 5.74739 0
M  V30 6869 H 662.17 1.64492 2.50524 0
M  V30 6870 H 659.731 1.00664 1.26801 0
M  V30 6871 H 661.723 -0.375851 4.02951 0
M  V30 6872 H 660.293 -0.749147 3.03491 0
M  V30 6873 H 659.513 1.67903 3.56654 0
M  V30 6874 H 660.801 1.73507 4.78302 0
M  V30 6875 H 660.199 -1.36668 5.48943 0
M  V30 6876 H 658.756 -1.199 6.40677 0
M  V30 6877 N 662.189 -1.289 0.906776 0
M  V30 6878 C 663.414 -1.99939 0.551303 0
M  V30 6879 C 663.839 -1.67366 -0.858496 0
M  V30 6880 O 663.197 -0.902176 -1.57259 0
M  V30 6881 C 663.245 -3.52523 0.758937 0
M  V30 6882 O 662.349 -4.11983 -0.185308 0
M  V30 6883 H 661.69 -0.628376 0.214568 0
M  V30 6884 H 664.22 -1.64225 1.2203 0
M  V30 6885 H 664.23 -4.02522 0.666329 0
M  V30 6886 H 662.905 -3.75566 1.78671 0
M  V30 6887 H 661.482 -3.72873 -0.0445577 0
M  V30 6888 N 663.667 -0.670007 -1.42649 0
M  V30 6889 C 664.597 -0.00258501 -2.335 0
M  V30 6890 C 665.578 0.794364 -1.50412 0
M  V30 6891 O 666.763 0.75248 -1.79029 0
M  V30 6892 C 663.893 0.952748 -3.33976 0
M  V30 6893 C 662.847 0.264733 -4.2718 0
M  V30 6894 C 662.173 1.33267 -5.17826 0
M  V30 6895 C 663.473 -0.853289 -5.15283 0
M  V30 6896 H 665.167 -0.761326 -2.89559 0
M  V30 6897 H 662.713 -0.367561 -1.3923 0
M  V30 6898 H 664.666 1.4287 -3.96442 0
M  V30 6899 H 663.39 1.74285 -2.7621 0
M  V30 6900 H 662.049 -0.190938 -3.66102 0
M  V30 6901 H 661.697 2.11464 -4.5639 0
M  V30 6902 H 661.397 0.877476 -5.81011 0
M  V30 6903 H 662.921 1.80965 -5.83167 0
M  V30 6904 H 664.335 -0.458763 -5.71462 0
M  V30 6905 H 662.732 -1.23398 -5.87276 0
M  V30 6906 H 663.802 -1.70412 -4.53969 0
M  V30 6907 N 665.145 1.52092 -0.413018 0
M  V30 6908 C 666.092 2.27119 0.410558 0
M  V30 6909 C 667.062 1.29692 1.03774 0
M  V30 6910 O 668.247 1.58561 1.06128 0
M  V30 6911 C 665.387 3.09863 1.51918 0
M  V30 6912 C 664.5 4.22252 0.912528 0
M  V30 6913 C 663.635 4.92348 1.99417 0
M  V30 6914 C 662.674 5.96694 1.36466 0
M  V30 6915 N 661.811 6.60292 2.38661 0
M  V30 6916 H 666.651 2.97067 -0.235661 0
M  V30 6917 H 664.188 1.46542 -0.128055 0
M  V30 6918 H 666.146 3.56144 2.17295 0
M  V30 6919 H 664.776 2.42078 2.13537 0
M  V30 6920 H 663.828 3.80113 0.147697 0
M  V30 6921 H 665.14 4.9709 0.412717 0
M  V30 6922 H 664.294 5.42054 2.72512 0
M  V30 6923 H 663.033 4.17087 2.52764 0
M  V30 6924 H 662.038 5.46304 0.61906 0
M  V30 6925 H 663.263 6.73899 0.838827 0
M  V30 6926 H 661.209 5.87858 2.91134 0
M  V30 6927 H 661.126 7.30816 1.93503 0
M  V30 6928 H 662.394 7.14635 3.11314 0
M  V30 6929 N 666.623 0.143563 1.56945 0
M  V30 6930 C 667.533 -0.810562 2.20152 0
M  V30 6931 C 668.549 -1.27431 1.1848 0
M  V30 6932 O 669.725 -1.33221 1.51044 0
M  V30 6933 C 666.79 -2.03353 2.80799 0
M  V30 6934 C 665.851 -1.61936 3.97587 0
M  V30 6935 C 665.084 -2.78403 4.55332 0
M  V30 6936 O 665.307 -3.94521 4.11958 0
M  V30 6937 O 664.241 -2.54073 5.45647 0
M  V30 6938 H 668.067 -0.30253 3.02189 0
M  V30 6939 H 665.652 -0.0832925 1.49168 0
M  V30 6940 H 667.534 -2.74932 3.19359 0
M  V30 6941 H 666.209 -2.53116 2.01777 0
M  V30 6942 H 665.116 -0.873904 3.6375 0
M  V30 6943 H 666.449 -1.16892 4.78118 0
M  V30 6944 N 668.101 -1.57061 -0.130224 0
M  V30 6945 C 669.35 -1.83446 -0.838488 0
M  V30 6946 C 669.663 -0.727468 -1.81569 0
M  V30 6947 O 670.869 -0.877394 -2.56932 0
M  V30 6948 C 669.325 -3.25201 -1.54182 0
M  V30 6949 C 668.933 -4.4388 -0.606178 0
M  V30 6950 C 670.677 -3.60844 -2.23588 0
M  V30 6951 C 668.584 -5.76661 -1.31209 0
M  V30 6952 H 667.514 -0.684185 -0.316871 0
M  V30 6953 H 670.165 -1.83273 -0.0912059 0
M  V30 6954 H 668.547 -3.1981 -2.33533 0
M  V30 6955 H 669.721 -4.60545 0.153308 0
M  V30 6956 H 668.036 -4.16395 -0.0196705 0
M  V30 6957 H 670.633 -4.57313 -2.77072 0
M  V30 6958 H 670.976 -2.87724 -3.00867 0
M  V30 6959 H 671.509 -3.67971 -1.51137 0
M  V30 6960 H 668.248 -6.52922 -0.580823 0
M  V30 6961 H 667.768 -5.63902 -2.04387 0
M  V30 6962 H 669.447 -6.20035 -1.8484 0
M  V30 6963 N 669.579 0.400081 -1.52437 0
M  V30 6964 C 670.804 1.17221 -1.71096 0
M  V30 6965 C 671.229 1.83269 -0.423565 0
M  V30 6966 O 670.587 1.70378 0.619751 0
M  V30 6967 C 670.635 2.20425 -2.85386 0
M  V30 6968 O 669.739 3.26769 -2.51586 0
M  V30 6969 H 669.08 0.341766 -0.569291 0
M  V30 6970 H 671.61 0.467772 -1.99181 0
M  V30 6971 H 671.62 2.64605 -3.10561 0
M  V30 6972 H 670.295 1.71737 -3.78786 0
M  V30 6973 H 668.872 2.87804 -2.37114 0
M  V30 6974 N 671.057 1.43213 0.657864 0
M  V30 6975 C 672.02 1.47687 1.75275 0
M  V30 6976 C 673.02 0.362179 1.56668 0
M  V30 6977 O 674.21 0.623734 1.62651 0
M  V30 6978 C 671.342 1.32497 3.14098 0
M  V30 6979 H 672.535 2.4519 1.7269 0
M  V30 6980 H 670.088 1.2991 0.869087 0
M  V30 6981 H 670.823 0.359831 3.22298 0
M  V30 6982 H 670.608 2.13299 3.29008 0
M  V30 6983 H 672.098 1.38549 3.93946 0
M  V30 6984 N 672.536 -0.895792 1.29666 0
M  V30 6985 C 673.784 -1.64339 1.17631 0
M  V30 6986 C 674.105 -1.93099 -0.271643 0
M  V30 6987 O 673.375 -1.55981 -1.18518 0
M  V30 6988 H 671.955 -0.609162 0.432354 0
M  V30 6989 H 674.617 -1.07389 1.62646 0
M  V30 6990 H 673.713 -2.59815 1.72924 0
M  V30 6991 N 674.014 -1.12206 -1.10668 0
M  V30 6992 C 674.962 -0.782918 -2.19028 0
M  V30 6993 C 675.956 0.229175 -1.67843 0
M  V30 6994 O 677.162 0.0876295 -1.79787 0
M  V30 6995 H 673.537 -0.235339 -0.714227 0
M  V30 6996 H 675.508 -1.70527 -2.44874 0
M  V30 6997 C 674.257 -0.25116 -3.46792 0
M  V30 6998 H 673.58 -1.02123 -3.86537 0
M  V30 6999 H 675.02 -0.0521409 -4.23968 0
M  V30 7000 C 673.479 1.02037 -3.21076 0
M  V30 7001 O 674.009 2.09862 -3.42522 0
M  V30 7002 N 672.215 0.946348 -2.74759 0
M  V30 7003 H 671.762 0.068777 -2.57508 0
M  V30 7004 H 671.72 1.79775 -2.57931 0
M  V30 7005 N 675.492 1.28418 -0.913599 0
M  V30 7006 C 676.741 1.94265 -0.542572 0
M  V30 7007 C 677.054 1.72709 0.918207 0
M  V30 7008 O 678.26 2.32778 1.39738 0
M  V30 7009 C 676.716 3.47956 -0.919507 0
M  V30 7010 C 676.324 3.78291 -2.4 0
M  V30 7011 C 678.068 4.19962 -0.619057 0
M  V30 7012 C 675.975 5.2529 -2.71707 0
M  V30 7013 H 674.905 0.727213 -0.199192 0
M  V30 7014 H 677.556 1.45931 -1.11249 0
M  V30 7015 H 675.938 3.9502 -0.278372 0
M  V30 7016 H 677.112 3.42035 -3.08786 0
M  V30 7017 H 675.427 3.19456 -2.67089 0
M  V30 7018 H 678.024 5.28178 -0.832623 0
M  V30 7019 H 678.367 4.13935 0.443126 0
M  V30 7020 H 678.9 3.78674 -1.21865 0
M  V30 7021 H 675.639 5.36394 -3.76778 0
M  V30 7022 H 675.159 5.62743 -2.07559 0
M  V30 7023 H 676.838 5.93027 -2.58703 0
M  V30 7024 N 676.97 0.677563 1.42291 0
M  V30 7025 C 678.2 0.209155 2.05539 0
M  V30 7026 C 678.608 -1.13987 1.51009 0
M  V30 7027 O 677.951 -1.71976 0.645764 0
M  V30 7028 C 678.013 0.0697758 3.59432 0
M  V30 7029 C 677.677 1.34795 4.36668 0
M  V30 7030 C 678.674 2.28201 4.67141 0
M  V30 7031 C 676.359 1.59632 4.76259 0
M  V30 7032 C 678.353 3.44718 5.36142 0
M  V30 7033 C 676.04 2.76437 5.45 0
M  V30 7034 C 677.038 3.68805 5.74867 0
M  V30 7035 O 676.726 4.83567 6.42198 0
M  V30 7036 H 676.458 0.0986202 0.668768 0
M  V30 7037 H 679.012 0.925483 1.83368 0
M  V30 7038 H 677.242 -0.702157 3.80272 0
M  V30 7039 H 678.931 -0.359115 4.04308 0
M  V30 7040 H 679.697 2.10264 4.37052 0
M  V30 7041 H 675.576 0.886073 4.52404 0
M  V30 7042 H 679.12 4.16833 5.59371 0
M  V30 7043 H 675.017 2.94299 5.74507 0
M  V30 7044 H 675.785 4.83147 6.6069 0
M  V30 7045 N 678.448 -1.51871 0.421078 0
M  V30 7046 C 679.697 -2.01125 -0.152206 0
M  V30 7047 C 680.01 -1.3106 -1.45199 0
M  V30 7048 O 681.216 -1.71195 -2.10724 0
M  V30 7049 C 679.672 -3.58458 -0.3218 0
M  V30 7050 C 679.28 -4.37448 0.96659 0
M  V30 7051 C 681.024 -4.15908 -0.84973 0
M  V30 7052 C 678.931 -5.86451 0.763529 0
M  V30 7053 H 677.861 -0.751556 -0.0606565 0
M  V30 7054 H 680.512 -1.75115 0.548354 0
M  V30 7055 H 678.894 -3.80847 -1.08498 0
M  V30 7056 H 680.068 -4.26814 1.73684 0
M  V30 7057 H 678.383 -3.91373 1.42183 0
M  V30 7058 H 680.98 -5.24922 -1.01788 0
M  V30 7059 H 681.323 -3.74031 -1.82774 0
M  V30 7060 H 681.856 -3.97535 -0.145297 0
M  V30 7061 H 678.595 -6.3271 1.71344 0
M  V30 7062 H 678.115 -5.99791 0.0327889 0
M  V30 7063 H 679.794 -6.45697 0.410354 0
M  V30 7064 N 679.926 -0.151884 -1.56866 0
M  V30 7065 C 681.154 0.504813 -2.00647 0
M  V30 7066 C 681.569 1.58098 -1.03201 0
M  V30 7067 O 680.926 1.82476 -0.0297814 0
M  V30 7068 C 680.977 1.10099 -3.44326 0
M  V30 7069 O 680.698 0.0678021 -4.38048 0
M  V30 7070 C 682.199 1.83782 -4.03409 0
M  V30 7071 H 679.419 0.130989 -0.65809 0
M  V30 7072 H 681.963 -0.247903 -2.02992 0
M  V30 7073 H 680.118 1.8043 -3.42817 0
M  V30 7074 H 680.532 0.505237 -5.22061 0
M  V30 7075 H 682.006 2.2078 -5.05925 0
M  V30 7076 H 682.483 2.72557 -3.44397 0
M  V30 7077 H 683.089 1.18138 -4.08563 0
M  V30 7078 N 681.404 1.57128 0.121893 0
M  V30 7079 C 682.681 1.75664 0.860327 0
M  V30 7080 C 683.061 0.726585 1.98202 0
M  V30 7081 O 682.409 -0.24999 2.27128 0
M  V30 7082 C 682.619 3.20571 1.37968 0
M  V30 7083 C 683.967 3.82988 1.83317 0
M  V30 7084 O 684.991 3.24156 1.47654 0
M  V30 7085 O 683.85 4.86393 2.49168 0
M  V30 7086 H 680.944 0.719153 0.408348 0
M  V30 7087 H 683.49 1.6937 0.105859 0
M  V30 7088 H 682.262 3.87056 0.57477 0
M  V30 7089 H 681.885 3.31392 2.19694 0
M  V30 7090 N 682.882 -0.391992 1.52647 0
M  V30 7091 C 683.83 -1.4991 1.77848 0
M  V30 7092 C 684.824 -1.56587 0.646282 0
M  V30 7093 O 686.03 -1.59789 0.828698 0
M  V30 7094 H 682.405 -0.498883 0.56269 0
M  V30 7095 H 684.376 -1.25847 2.70564 0
M  V30 7096 C 683.125 -2.87081 1.96163 0
M  V30 7097 H 682.448 -2.82692 2.82711 0
M  V30 7098 H 683.888 -3.63792 2.17787 0
M  V30 7099 C 682.347 -3.28822 0.733348 0
M  V30 7100 O 682.877 -4.01598 -0.0906481 0
M  V30 7101 N 681.083 -2.85068 0.564317 0
M  V30 7102 H 680.63 -2.26012 1.23598 0
M  V30 7103 H 680.588 -3.13355 -0.256166 0
M  V30 7104 N 684.36 -1.4356 -0.65026 0
M  V30 7105 C 685.585 -1.48995 -1.44275 0
M  V30 7106 C 686.01 -0.109954 -1.87778 0
M  V30 7107 O 685.368 0.896926 -1.57559 0
M  V30 7108 C 685.416 -2.44341 -2.65198 0
M  V30 7109 O 684.52 -1.93172 -3.6436 0
M  V30 7110 H 683.861 -0.503852 -0.432469 0
M  V30 7111 H 686.391 -1.88504 -0.795446 0
M  V30 7112 H 686.401 -2.61743 -3.12977 0
M  V30 7113 H 685.076 -3.44588 -2.32877 0
M  V30 7114 H 683.653 -1.85445 -3.23519 0
M  V30 7115 N 685.838 0.888903 -1.30139 0
M  V30 7116 C 686.786 2.0156 -1.16088 0
M  V30 7117 C 687.78 1.69239 -0.0737413 0
M  V30 7118 O 688.986 1.78468 -0.234313 0
M  V30 7119 H 685.361 0.660825 -0.358907 0
M  V30 7120 H 687.332 2.10547 -2.11453 0
M  V30 7121 C 686.081 3.36758 -0.865426 0
M  V30 7122 H 685.404 3.62137 -1.69402 0
M  V30 7123 H 686.844 4.16246 -0.807192 0
M  V30 7124 C 685.303 3.34124 0.431577 0
M  V30 7125 O 685.833 3.7445 1.45431 0
M  V30 7126 N 684.039 2.87229 0.441321 0
M  V30 7127 H 683.586 2.54609 -0.391433 0
M  V30 7128 H 683.544 2.8585 1.30909 0
M  V30 7129 N 687.317 1.12792 1.10072 0
M  V30 7130 C 688.247 0.821688 2.18565 0
M  V30 7131 C 689.228 -0.21612 1.68721 0
M  V30 7132 O 690.413 -0.0764932 1.94049 0
M  V30 7133 C 687.543 0.279624 3.46172 0
M  V30 7134 C 686.497 1.25092 4.09312 0
M  V30 7135 C 685.823 0.568916 5.31665 0
M  V30 7136 C 687.123 2.60699 4.52585 0
M  V30 7137 H 688.817 1.72888 2.44438 0
M  V30 7138 H 686.363 0.832702 1.17482 0
M  V30 7139 H 688.316 0.053099 4.21367 0
M  V30 7140 H 687.04 -0.662929 3.19801 0
M  V30 7141 H 685.699 1.46332 3.36129 0
M  V30 7142 H 685.347 -0.378898 5.01571 0
M  V30 7143 H 685.047 1.21687 5.74862 0
M  V30 7144 H 686.571 0.351517 6.09587 0
M  V30 7145 H 687.985 2.43465 5.19035 0
M  V30 7146 H 686.382 3.21608 5.06644 0
M  V30 7147 H 687.452 3.1886 3.65317 0
M  V30 7148 N 688.795 -1.27931 0.920396 0
M  V30 7149 C 690.035 -1.96459 0.564198 0
M  V30 7150 C 690.399 -1.70802 -0.876967 0
M  V30 7151 O 691.6 -2.32956 -1.34107 0
M  V30 7152 C 689.871 -3.46583 0.872641 0
M  V30 7153 S 691.43 -4.34343 0.623859 0
M  V30 7154 H 688.248 -0.679735 0.208523 0
M  V30 7155 H 690.85 -1.55319 1.18727 0
M  V30 7156 H 689.554 -3.62753 1.91933 0
M  V30 7157 H 689.085 -3.92677 0.238479 0
M  V30 7158 H 691.1 -4.93449 -0.521744 0
M  V30 7159 N 690.273 -0.685099 -1.4193 0
M  V30 7160 C 691.503 -0.220052 -2.05425 0
M  V30 7161 C 691.911 1.13185 -1.51611 0
M  V30 7162 O 691.254 1.71631 -0.654875 0
M  V30 7163 C 691.316 -0.0888364 -3.5939 0
M  V30 7164 C 690.98 -1.37109 -4.35947 0
M  V30 7165 C 691.977 -2.30675 -4.65924 0
M  V30 7166 C 689.662 -1.62155 -4.75406 0
M  V30 7167 C 691.656 -3.47556 -5.34306 0
M  V30 7168 C 689.343 -2.79324 -5.43527 0
M  V30 7169 C 690.341 -3.71848 -5.72903 0
M  V30 7170 O 690.029 -4.86966 -6.39624 0
M  V30 7171 H 689.761 -0.102165 -0.668235 0
M  V30 7172 H 692.315 -0.935194 -1.82875 0
M  V30 7173 H 690.545 0.681981 -3.80639 0
M  V30 7174 H 692.234 0.337669 -4.04493 0
M  V30 7175 H 693 -2.12579 -4.3593 0
M  V30 7176 H 688.879 -0.910053 -4.51928 0
M  V30 7177 H 692.423 -4.19794 -5.57153 0
M  V30 7178 H 688.32 -2.97342 -5.72938 0
M  V30 7179 H 689.088 -4.86644 -6.58118 0
M  V30 7180 N 691.751 1.51645 -0.429126 0
M  V30 7181 C 692.981 2.06133 0.138793 0
M  V30 7182 C 693.389 1.29735 1.37716 0
M  V30 7183 O 692.732 0.347955 1.80375 0
M  V30 7184 C 692.794 3.55504 0.534493 0
M  V30 7185 C 692.458 4.53098 -0.595917 0
M  V30 7186 C 693.455 4.98815 -1.46558 0
M  V30 7187 C 691.14 4.96296 -0.774309 0
M  V30 7188 C 693.134 5.86394 -2.4984 0
M  V30 7189 C 690.821 5.83667 -1.81042 0
M  V30 7190 C 691.819 6.28613 -2.67086 0
M  V30 7191 O 691.507 7.14251 -3.68919 0
M  V30 7192 H 691.239 0.675833 0.0150263 0
M  V30 7193 H 693.793 1.96301 -0.604584 0
M  V30 7194 H 692.023 3.63092 1.33045 0
M  V30 7195 H 693.712 3.92545 1.03262 0
M  V30 7196 H 694.478 4.66143 -1.33925 0
M  V30 7197 H 690.357 4.60859 -0.114178 0
M  V30 7198 H 693.901 6.21398 -3.17034 0
M  V30 7199 H 689.798 6.15753 -1.93698 0
M  V30 7200 H 690.566 7.3241 -3.65402 0
M  V30 7201 N 693.229 0.160201 1.56784 0
M  V30 7202 C 694.179 -0.786461 2.14007 0
M  V30 7203 C 695.163 -1.20046 1.07134 0
M  V30 7204 O 696.355 -1.16468 1.33283 0
M  V30 7205 C 693.484 -2.02024 2.77563 0
M  V30 7206 C 692.57 -1.62874 3.91578 0
M  V30 7207 N 692.961 -0.946176 4.96871 0
M  V30 7208 C 691.259 -1.92054 4.02531 0
M  V30 7209 C 691.96 -0.755084 5.76778 0
M  V30 7210 N 690.936 -1.29307 5.27997 0
M  V30 7211 H 694.738 -0.255879 2.92784 0
M  V30 7212 H 692.252 -0.0408778 1.62349 0
M  V30 7213 H 694.249 -2.70855 3.16928 0
M  V30 7214 H 692.909 -2.55587 2.00263 0
M  V30 7215 H 693.92 -0.605455 5.14349 0
M  V30 7216 H 690.597 -2.47374 3.36322 0
M  V30 7217 H 691.987 -0.216138 6.71552 0
M  V30 7218 N 694.707 -1.5719 -0.113559 0
M  V30 7219 C 695.935 -1.89328 -0.834422 0
M  V30 7220 C 696.35 -0.752018 -1.73177 0
M  V30 7221 O 695.707 0.276912 -1.80387 0
M  V30 7222 C 695.758 -3.20962 -1.66329 0
M  V30 7223 O 695.479 -4.30695 -0.802069 0
M  V30 7224 C 696.98 -3.6684 -2.48884 0
M  V30 7225 H 694.2 -0.626769 -0.239587 0
M  V30 7226 H 696.744 -2.04273 -0.0963195 0
M  V30 7227 H 694.899 -3.0767 -2.35409 0
M  V30 7228 H 695.313 -5.06175 -1.37431 0
M  V30 7229 H 696.787 -4.61692 -3.02563 0
M  V30 7230 H 697.264 -2.93765 -3.26495 0
M  V30 7231 H 697.87 -3.82938 -1.85036 0
M  V30 7232 N 696.185 0.383891 -1.52853 0
M  V30 7233 C 697.434 1.12563 -1.67369 0
M  V30 7234 C 697.747 1.90982 -0.422533 0
M  V30 7235 O 698.953 2.6778 -0.447914 0
M  V30 7236 C 697.409 2.05011 -2.95801 0
M  V30 7237 C 697.017 1.31991 -4.28115 0
M  V30 7238 C 698.761 2.79289 -3.19684 0
M  V30 7239 C 696.668 2.23235 -5.4765 0
M  V30 7240 H 695.598 0.42391 -0.623552 0
M  V30 7241 H 698.249 0.388016 -1.79351 0
M  V30 7242 H 696.631 2.82429 -2.77578 0
M  V30 7243 H 697.805 0.597633 -4.56908 0
M  V30 7244 H 696.12 0.696517 -4.10533 0
M  V30 7245 H 698.717 3.47749 -4.06171 0
M  V30 7246 H 699.06 3.43649 -2.3497 0
M  V30 7247 H 699.593 2.08962 -3.38496 0
M  V30 7248 H 696.332 1.63482 -6.34786 0
M  V30 7249 H 695.852 2.93364 -5.23161 0
M  V30 7250 H 697.531 2.83205 -5.81725 0
M  V30 7251 N 697.663 1.43903 0.642637 0
M  V30 7252 C 698.611 1.50164 1.77634 0
M  V30 7253 C 699.605 0.374294 1.65213 0
M  V30 7254 O 700.811 0.548748 1.71431 0
M  V30 7255 H 697.186 0.470974 0.586249 0
M  V30 7256 H 699.157 2.45603 1.69474 0
M  V30 7257 C 697.906 1.45196 3.15933 0
M  V30 7258 H 697.229 2.31253 3.26132 0
M  V30 7259 H 698.669 1.53638 3.95185 0
M  V30 7260 C 697.128 0.171043 3.36466 0
M  V30 7261 O 697.658 -0.763413 3.94379 0
M  V30 7262 N 695.864 0.077847 2.90496 0
M  V30 7263 H 695.411 0.8391 2.43551 0
M  V30 7264 H 695.369 -0.778473 3.0461 0
M  V30 7265 N 699.141 -0.881989 1.30609 0
M  V30 7266 C 700.387 -1.63649 1.20791 0
M  V30 7267 C 700.742 -1.90966 -0.234437 0
M  V30 7268 O 700.035 -1.52163 -1.16434 0
M  V30 7269 C 700.229 -2.97999 1.97311 0
M  V30 7270 C 700.058 -2.83798 3.48839 0
M  V30 7271 C 698.828 -2.83622 4.18195 0
M  V30 7272 C 701.026 -2.59529 4.44015 0
M  V30 7273 N 699.008 -2.60344 5.55962 0
M  V30 7274 C 700.379 -2.45401 5.69366 0
M  V30 7275 C 702.434 -2.44777 4.33576 0
M  V30 7276 C 701.137 -2.18023 6.85462 0
M  V30 7277 C 703.163 -2.18785 5.49443 0
M  V30 7278 C 702.525 -2.05436 6.73777 0
M  V30 7279 H 698.624 -0.603687 0.497077 0
M  V30 7280 H 701.208 -1.03908 1.64655 0
M  V30 7281 H 699.379 -3.55767 1.55834 0
M  V30 7282 H 701.111 -3.6266 1.79611 0
M  V30 7283 H 697.866 -2.95562 3.70054 0
M  V30 7284 H 698.29 -2.51709 6.28468 0
M  V30 7285 H 702.932 -2.53831 3.38126 0
M  V30 7286 H 700.65 -2.07707 7.8095 0
M  V30 7287 H 704.236 -2.08188 5.43276 0
M  V30 7288 H 703.116 -1.85605 7.61919 0
M  V30 7289 N 700.619 -1.13374 -1.09472 0
M  V30 7290 C 701.847 -0.918351 -1.85402 0
M  V30 7291 C 702.262 0.53281 -1.81126 0
M  V30 7292 O 701.619 1.36879 -1.20708 0
M  V30 7293 C 701.67 -1.39743 -3.33398 0
M  V30 7294 O 701.391 -2.79172 -3.37631 0
M  V30 7295 C 702.892 -1.22042 -4.2617 0
M  V30 7296 H 700.112 -0.327511 -0.585643 0
M  V30 7297 H 702.656 -1.50617 -1.38328 0
M  V30 7298 H 700.811 -0.852619 -3.77901 0
M  V30 7299 H 701.225 -3.00428 -4.29934 0
M  V30 7300 H 702.699 -1.60438 -5.2817 0
M  V30 7301 H 703.176 -0.162047 -4.38901 0
M  V30 7302 H 703.782 -1.75323 -3.87482 0
M  V30 7303 N 702.098 1.27442 -0.927168 0
M  V30 7304 C 703.326 1.98498 -0.583622 0
M  V30 7305 C 703.741 1.69171 0.838241 0
M  V30 7306 O 703.098 0.951969 1.55704 0
M  V30 7307 C 703.149 3.52552 -0.799341 0
M  V30 7308 O 702.87 3.80851 -2.16527 0
M  V30 7309 C 704.371 4.4086 -0.464436 0
M  V30 7310 H 701.591 0.633487 -0.221213 0
M  V30 7311 H 704.135 1.62308 -1.24404 0
M  V30 7312 H 702.29 3.86955 -0.185728 0
M  V30 7313 H 702.704 4.75441 -2.21487 0
M  V30 7314 H 704.178 5.47967 -0.666075 0
M  V30 7315 H 704.655 4.35082 0.599995 0
M  V30 7316 H 705.261 4.11977 -1.05617 0
M  V30 7317 N 703.576 0.692616 1.41565 0
M  V30 7318 C 704.506 0.0397325 2.33466 0
M  V30 7319 C 705.487 -0.770334 1.51657 0
M  V30 7320 O 706.672 -0.723903 1.80203 0
M  V30 7321 C 703.802 -0.899495 3.3545 0
M  V30 7322 C 702.756 -0.196738 4.27548 0
M  V30 7323 C 702.082 -1.25012 5.19881 0
M  V30 7324 C 703.382 0.935158 5.1386 0
M  V30 7325 H 705.076 0.807296 2.88311 0
M  V30 7326 H 702.622 0.389665 1.38628 0
M  V30 7327 H 704.575 -1.36545 3.98665 0
M  V30 7328 H 703.299 -1.69869 2.78948 0
M  V30 7329 H 701.958 0.249158 3.65752 0
M  V30 7330 H 701.606 -2.04177 4.59696 0
M  V30 7331 H 701.306 -0.784931 5.82334 0
M  V30 7332 H 702.83 -1.71665 5.85972 0
M  V30 7333 H 704.244 0.549619 5.70659 0
M  V30 7334 H 702.641 1.32726 5.85238 0
M  V30 7335 H 703.711 1.77613 4.512 0
M  V30 7336 N 705.054 -1.51416 0.437162 0
M  V30 7337 C 706.301 -2.02086 -0.129364 0
M  V30 7338 C 706.629 -1.32133 -1.42728 0
M  V30 7339 O 705.884 -0.424916 -1.91031 0
M  V30 7340 C 706.183 -3.55203 -0.39564 0
M  V30 7341 C 705.849 -4.43447 0.81644 0
M  V30 7342 C 704.511 -4.67285 1.14884 0
M  V30 7343 C 706.863 -4.95219 1.62503 0
M  V30 7344 C 704.191 -5.40141 2.29052 0
M  V30 7345 C 706.543 -5.69327 2.7577 0
M  V30 7346 C 705.207 -5.91429 3.09464 0
M  V30 7347 H 704.477 -0.739486 -0.0473375 0
M  V30 7348 H 707.124 -1.82368 0.584321 0
M  V30 7349 H 705.429 -3.73252 -1.19121 0
M  V30 7350 H 707.126 -3.91944 -0.847399 0
M  V30 7351 H 703.716 -4.2509 0.547422 0
M  V30 7352 H 707.9 -4.76686 1.38144 0
M  V30 7353 H 703.156 -5.55468 2.55471 0
M  V30 7354 H 707.33 -6.08433 3.38795 0
M  V30 7355 H 704.957 -6.47662 3.98042 0
M  V30 7356 N 706.532 -0.168513 -1.56696 0
M  V30 7357 C 707.757 0.486688 -2.01609 0
M  V30 7358 C 708.182 1.56203 -1.04796 0
M  V30 7359 O 707.54 1.8128 -0.0270596 0
M  V30 7360 C 707.588 1.04451 -3.45141 0
M  V30 7361 O 706.692 2.15862 -3.51393 0
M  V30 7362 H 706.033 0.116831 -0.653641 0
M  V30 7363 H 708.563 -0.271579 -2.0279 0
M  V30 7364 H 708.573 1.36782 -3.84389 0
M  V30 7365 H 707.248 0.257155 -4.15104 0
M  V30 7366 H 705.825 1.84597 -3.24004 0
M  V30 7367 N 708.01 1.57248 0.105221 0
M  V30 7368 C 709.238 1.89768 0.82437 0
M  V30 7369 C 709.653 0.761192 1.72775 0
M  V30 7370 O 709.01 -0.267342 1.80531 0
M  V30 7371 C 709.061 3.2184 1.64625 0
M  V30 7372 O 708.782 4.31115 0.779217 0
M  V30 7373 C 710.283 3.68155 2.46935 0
M  V30 7374 H 707.503 0.628031 0.236259 0
M  V30 7375 H 710.047 2.04321 0.085485 0
M  V30 7376 H 708.202 3.08915 2.33775 0
M  V30 7377 H 708.616 5.06897 1.34745 0
M  V30 7378 H 710.09 4.6329 3.00111 0
M  V30 7379 H 710.567 2.95492 3.24932 0
M  V30 7380 H 711.173 3.83914 1.83002 0
M  V30 7381 N 709.488 -0.375779 1.53054 0
M  V30 7382 C 710.737 -1.11674 1.67964 0
M  V30 7383 C 711.05 -1.90755 0.432655 0
M  V30 7384 O 712.256 -2.67538 0.462109 0
M  V30 7385 C 710.712 -2.0344 2.96884 0
M  V30 7386 C 710.32 -1.29719 4.28809 0
M  V30 7387 C 712.064 -2.7759 3.2116 0
M  V30 7388 C 709.971 -2.20327 5.48826 0
M  V30 7389 H 708.901 -0.420597 0.625791 0
M  V30 7390 H 711.552 -0.378499 1.79554 0
M  V30 7391 H 709.934 -2.80953 2.79072 0
M  V30 7392 H 711.108 -0.573394 4.57219 0
M  V30 7393 H 709.423 -0.674735 4.10897 0
M  V30 7394 H 712.02 -3.4559 4.0801 0
M  V30 7395 H 712.363 -3.42399 2.36789 0
M  V30 7396 H 712.896 -2.07164 3.396 0
M  V30 7397 H 709.635 -1.60113 6.35645 0
M  V30 7398 H 709.155 -2.90585 5.2471 0
M  V30 7399 H 710.834 -2.80116 5.83219 0
M  V30 7400 N 710.966 -1.44241 -0.634997 0
M  V30 7401 C 711.914 -1.51103 -1.76835 0
M  V30 7402 C 712.908 -0.383051 -1.65012 0
M  V30 7403 O 714.114 -0.557832 -1.71138 0
M  V30 7404 H 710.489 -0.474076 -0.583743 0
M  V30 7405 H 712.46 -2.46499 -1.68169 0
M  V30 7406 C 711.209 -1.4687 -3.15158 0
M  V30 7407 H 710.532 -2.32979 -3.24901 0
M  V30 7408 H 711.972 -1.55731 -3.94365 0
M  V30 7409 C 710.431 -0.188884 -3.3637 0
M  V30 7410 O 710.961 0.742487 -3.94778 0
M  V30 7411 N 709.167 -0.0932516 -2.9045 0
M  V30 7412 H 708.714 -0.852004 -2.43102 0
M  V30 7413 H 708.672 0.762308 -3.05018 0
M  V30 7414 N 712.444 0.87505 -1.31075 0
M  V30 7415 C 713.376 1.98773 -1.14114 0
M  V30 7416 C 714.389 1.62595 -0.0816119 0
M  V30 7417 O 715.578 1.75449 -0.32861 0
M  V30 7418 C 712.678 3.31159 -0.720224 0
M  V30 7419 C 711.851 3.9571 -1.86366 0
M  V30 7420 C 710.91 5.06407 -1.42965 0
M  V30 7421 O 709.936 5.27501 -2.13848 0
M  V30 7422 N 711.138 5.79649 -0.314194 0
M  V30 7423 H 713.903 2.1387 -2.09951 0
M  V30 7424 H 711.464 1.04873 -1.23342 0
M  V30 7425 H 713.456 4.0259 -0.412687 0
M  V30 7426 H 712.026 3.12257 0.146396 0
M  V30 7427 H 711.246 3.17324 -2.33879 0
M  V30 7428 H 712.534 4.35576 -2.62966 0
M  V30 7429 H 711.932 5.65025 0.276228 0
M  V30 7430 H 710.489 6.51766 -0.0661641 0
M  V30 7431 N 713.922 1.13953 1.08869 0
M  V30 7432 C 715.338 0.878924 1.33218 0
M  V30 7433 C 715.538 -0.482478 1.95638 0
M  V30 7434 O 714.594 -1.22778 2.2064 0
M  V30 7435 C 715.907 2.00798 2.23832 0
M  V30 7436 C 717.455 2.04073 2.37325 0
M  V30 7437 C 717.93 3.16258 3.31278 0
M  V30 7438 N 719.421 3.15805 3.38853 0
M  V30 7439 C 720.156 3.99249 4.11567 0
M  V30 7440 N 719.652 4.92721 4.87029 0
M  V30 7441 N 721.445 3.87327 4.0735 0
M  V30 7442 H 713.596 2.01645 0.66731 0
M  V30 7443 H 715.859 0.878395 0.356547 0
M  V30 7444 H 715.565 2.98986 1.85203 0
M  V30 7445 H 715.439 1.92704 3.24261 0
M  V30 7446 H 717.826 1.06495 2.75214 0
M  V30 7447 H 717.907 2.16239 1.36654 0
M  V30 7448 H 717.551 4.14079 2.9411 0
M  V30 7449 H 717.481 3.0133 4.31866 0
M  V30 7450 H 719.972 2.48102 2.8505 0
M  V30 7451 H 720.285 5.52867 5.39961 0
M  V30 7452 H 718.63 4.96723 4.86098 0
M  V30 7453 H 721.821 3.13627 3.475 0
M  V30 7454 H 721.994 4.52585 4.63757 0
M  V30 7455 N 715.4 -1.26948 0.933913 0
M  V30 7456 C 716.649 -1.93378 0.573409 0
M  V30 7457 C 716.962 -1.74148 -0.890614 0
M  V30 7458 O 718.168 -2.34971 -1.36017 0
M  V30 7459 C 716.624 -3.46449 0.974747 0
M  V30 7460 C 716.232 -3.74425 2.45988 0
M  V30 7461 C 717.976 -4.18924 0.685791 0
M  V30 7462 C 715.883 -5.209 2.8003 0
M  V30 7463 H 714.813 -0.723952 0.210736 0
M  V30 7464 H 717.464 -1.44143 1.13557 0
M  V30 7465 H 715.846 -3.94528 0.341181 0
M  V30 7466 H 717.02 -3.37079 3.14188 0
M  V30 7467 H 715.335 -3.15167 2.72138 0
M  V30 7468 H 717.932 -5.26786 0.916546 0
M  V30 7469 H 718.275 -4.14587 -0.377217 0
M  V30 7470 H 718.808 -3.76687 1.27874 0
M  V30 7471 H 715.547 -5.30332 3.85264 0
M  V30 7472 H 715.067 -5.59369 2.16485 0
M  V30 7473 H 716.746 -5.88837 2.68105 0
M  V30 7474 N 716.879 -0.700114 -1.41195 0
M  V30 7475 C 718.125 -0.233351 -2.01453 0
M  V30 7476 C 718.458 1.16548 -1.55339 0
M  V30 7477 O 717.733 1.78756 -0.766575 0
M  V30 7478 C 718.016 -0.2961 -3.58881 0
M  V30 7479 C 717.869 -1.7322 -4.15108 0
M  V30 7480 C 719.188 0.341525 -4.38773 0
M  V30 7481 H 716.307 -0.0862667 -0.731934 0
M  V30 7482 H 718.949 -0.889693 -1.67882 0
M  V30 7483 H 717.099 0.262736 -3.87611 0
M  V30 7484 H 718.771 -2.34523 -3.97236 0
M  V30 7485 H 717.014 -2.2649 -3.69979 0
M  V30 7486 H 717.685 -1.7276 -5.24269 0
M  V30 7487 H 720.161 -0.134461 -4.15883 0
M  V30 7488 H 719.037 0.267098 -5.4825 0
M  V30 7489 H 719.298 1.42289 -4.18577 0
M  V30 7490 N 718.357 1.51182 -0.445186 0
M  V30 7491 C 719.606 2.01342 0.120189 0
M  V30 7492 C 719.919 1.33353 1.43095 0
M  V30 7493 O 721.125 1.74525 2.07974 0
M  V30 7494 C 719.581 3.58925 0.264732 0
M  V30 7495 C 719.189 4.35855 -1.03606 0
M  V30 7496 C 720.933 4.17208 0.783455 0
M  V30 7497 C 718.84 5.85162 -0.856731 0
M  V30 7498 H 717.77 0.752426 0.0486922 0
M  V30 7499 H 720.421 1.74221 -0.576143 0
M  V30 7500 H 718.803 3.82525 1.02425 0
M  V30 7501 H 719.977 4.23997 -1.80452 0
M  V30 7502 H 718.292 3.89062 -1.48391 0
M  V30 7503 H 720.889 5.26475 0.934239 0
M  V30 7504 H 721.232 3.76892 1.768 0
M  V30 7505 H 721.765 3.97715 0.0820346 0
M  V30 7506 H 718.504 6.29904 -1.81388 0
M  V30 7507 H 718.024 5.99663 -0.128206 0
M  V30 7508 H 719.703 6.44963 -0.513027 0
M  V30 7509 N 719.835 0.176821 1.56605 0
M  V30 7510 C 721.251 -0.179278 1.5859 0
M  V30 7511 C 721.451 -1.62433 1.19238 0
M  V30 7512 O 720.507 -2.35665 0.906552 0
M  V30 7513 C 721.82 0.106524 3.00511 0
M  V30 7514 C 723.368 0.0451731 3.12967 0
M  V30 7515 C 723.843 0.304038 4.5699 0
M  V30 7516 N 725.334 0.252008 4.62514 0
M  V30 7517 C 726.069 0.426404 5.71812 0
M  V30 7518 N 725.565 0.660155 6.89648 0
M  V30 7519 N 727.358 0.361926 5.60934 0
M  V30 7520 H 719.509 1.12001 1.8047 0
M  V30 7521 H 721.772 0.445679 0.836704 0
M  V30 7522 H 721.478 1.10778 3.33798 0
M  V30 7523 H 721.352 -0.599337 3.72408 0
M  V30 7524 H 723.739 -0.946662 2.79504 0
M  V30 7525 H 723.82 0.78383 2.43495 0
M  V30 7526 H 723.464 1.29311 4.91163 0
M  V30 7527 H 723.394 -0.455294 5.24628 0
M  V30 7528 H 725.885 0.0772102 3.77821 0
M  V30 7529 H 726.198 0.782529 7.68828 0
M  V30 7530 H 724.543 0.696835 6.91498 0
M  V30 7531 H 727.734 0.17986 4.67754 0
M  V30 7532 H 727.907 0.501263 6.46058 0
M  V30 7533 N 721.313 -1.57302 -0.09688 0
M  V30 7534 C 722.59 -1.7701 -0.832272 0
M  V30 7535 C 722.97 -0.758025 -1.97021 0
M  V30 7536 O 722.318 0.213824 -2.27497 0
M  V30 7537 C 722.528 -3.22725 -1.32851 0
M  V30 7538 C 723.876 -3.85856 -1.772 0
M  V30 7539 O 724.9 -3.26464 -1.42478 0
M  V30 7540 O 723.759 -4.90295 -2.41398 0
M  V30 7541 H 720.853 -0.725558 -0.396856 0
M  V30 7542 H 723.399 -1.69516 -0.0789005 0
M  V30 7543 H 722.171 -3.87921 -0.51312 0
M  V30 7544 H 721.794 -3.34845 -2.14394 0
M  V30 7545 N 722.791 0.367657 -1.53252 0
M  V30 7546 C 723.739 1.47061 -1.8021 0
M  V30 7547 C 724.733 1.55539 -0.671112 0
M  V30 7548 O 725.939 1.58451 -0.854014 0
M  V30 7549 H 722.314 0.489868 -0.570555 0
M  V30 7550 H 724.285 1.21527 -2.72532 0
M  V30 7551 C 723.034 2.83924 -2.00706 0
M  V30 7552 H 722.357 2.78158 -2.87172 0
M  V30 7553 H 723.797 3.60281 -2.23547 0
M  V30 7554 C 722.256 3.27613 -0.785568 0
M  V30 7555 O 722.786 4.01691 0.0267459 0
M  V30 7556 N 720.992 2.84134 -0.609597 0
M  V30 7557 H 720.539 2.24017 -1.27178 0
M  V30 7558 H 720.497 3.13723 0.206281 0
M  V30 7559 N 724.269 1.44576 0.627338 0
M  V30 7560 C 725.685 1.28546 0.945938 0
M  V30 7561 C 725.885 0.224003 2.00251 0
M  V30 7562 O 724.941 -0.388817 2.49488 0
M  V30 7563 C 726.254 2.65825 1.40561 0
M  V30 7564 C 727.802 2.73566 1.52088 0
M  V30 7565 C 728.277 4.11323 2.01438 0
M  V30 7566 N 729.768 4.13519 2.08702 0
M  V30 7567 C 730.503 5.16964 2.48065 0
M  V30 7568 N 729.999 6.30768 2.86538 0
M  V30 7569 N 731.792 5.04319 2.48232 0
M  V30 7570 H 723.943 2.1228 -0.0713567 0
M  V30 7571 H 726.206 0.947503 0.0307081 0
M  V30 7572 H 725.912 3.44591 0.703539 0
M  V30 7573 H 725.786 2.92969 2.37591 0
M  V30 7574 H 728.173 1.95116 2.21391 0
M  V30 7575 H 728.254 2.50159 0.534237 0
M  V30 7576 H 727.898 4.9025 1.32729 0
M  V30 7577 H 727.828 4.32109 3.0098 0
M  V30 7578 H 730.319 3.31385 1.81638 0
M  V30 7579 H 730.632 7.0551 3.15398 0
M  V30 7580 H 728.977 6.342 2.84281 0
M  V30 7581 H 732.168 4.14465 2.17569 0
M  V30 7582 H 732.341 5.85059 2.78585 0
M  V30 7583 N 725.747 -0.868086 1.31537 0
M  V30 7584 C 726.694 -1.97548 1.19346 0
M  V30 7585 C 727.664 -1.65913 0.0787922 0
M  V30 7586 O 728.849 -1.89129 0.251985 0
M  V30 7587 C 725.989 -3.32922 0.908692 0
M  V30 7588 C 725.102 -3.77141 2.10687 0
M  V30 7589 C 724.237 -5.01241 1.75873 0
M  V30 7590 C 723.276 -5.37914 2.92088 0
M  V30 7591 N 722.413 -6.53192 2.57457 0
M  V30 7592 H 727.253 -2.07307 2.14074 0
M  V30 7593 H 724.79 -1.01483 1.06487 0
M  V30 7594 H 726.748 -4.10867 0.724138 0
M  V30 7595 H 725.378 -3.228 -0.0017611 0
M  V30 7596 H 724.43 -2.94961 2.40213 0
M  V30 7597 H 725.742 -4.00248 2.97663 0
M  V30 7598 H 724.896 -5.86858 1.53891 0
M  V30 7599 H 723.635 -4.80041 0.86091 0
M  V30 7600 H 722.64 -4.50814 3.14717 0
M  V30 7601 H 723.865 -5.61077 3.82582 0
M  V30 7602 H 721.811 -6.33536 1.702 0
M  V30 7603 H 721.728 -6.76252 3.37963 0
M  V30 7604 H 722.996 -7.41997 2.38873 0
M  V30 7605 N 727.225 -1.14528 -1.08264 0
M  V30 7606 C 728.188 -0.83632 -2.13397 0
M  V30 7607 C 729.188 0.159715 -1.60005 0
M  V30 7608 O 730.378 -0.0688098 -1.74064 0
M  V30 7609 C 727.51 -0.246973 -3.40004 0
M  V30 7610 H 728.703 -1.76808 -2.42237 0
M  V30 7611 H 726.256 -0.951509 -1.24 0
M  V30 7612 H 726.991 0.693436 -3.168 0
M  V30 7613 H 726.776 -0.964412 -3.80055 0
M  V30 7614 H 728.266 -0.0480679 -4.17572 0
M  V30 7615 N 728.703 1.26451 -0.940633 0
M  V30 7616 C 729.613 2.30128 -0.455881 0
M  V30 7617 C 730.629 1.67536 0.469867 0
M  V30 7618 O 731.805 1.98344 0.349529 0
M  V30 7619 C 728.87 3.45634 0.271648 0
M  V30 7620 C 727.931 4.23709 -0.690594 0
M  V30 7621 C 727.164 5.337 0.00231047 0
M  V30 7622 O 727.387 5.57215 1.21935 0
M  V30 7623 O 726.321 5.98091 -0.676111 0
M  V30 7624 H 730.147 2.73655 -1.31707 0
M  V30 7625 H 727.732 1.3164 -0.706497 0
M  V30 7626 H 729.614 4.15853 0.681486 0
M  V30 7627 H 728.289 3.04138 1.10824 0
M  V30 7628 H 727.196 3.55974 -1.15037 0
M  V30 7629 H 728.529 4.68953 -1.49478 0
M  V30 7630 N 730.181 0.707592 1.40822 0
M  V30 7631 C 731.129 0.0386643 2.32568 0
M  V30 7632 C 732.123 -0.755653 1.51612 0
M  V30 7633 O 733.329 -0.659921 1.67467 0
M  V30 7634 H 729.704 -0.00629912 0.751974 0
M  V30 7635 H 731.675 0.8293 2.86645 0
M  V30 7636 C 730.424 -0.87496 3.36511 0
M  V30 7637 H 729.747 -0.273157 3.98866 0
M  V30 7638 H 731.187 -1.31111 4.03219 0
M  V30 7639 C 729.646 -1.99672 2.71353 0
M  V30 7640 O 730.176 -3.08676 2.57064 0
M  V30 7641 N 728.382 -1.77799 2.29861 0
M  V30 7642 H 727.929 -0.89147 2.41683 0
M  V30 7643 H 727.887 -2.53036 1.86601 0
M  V30 7644 N 731.66 -1.50943 0.453197 0
M  V30 7645 C 732.9 -2.0412 -0.106894 0
M  V30 7646 C 733.264 -1.32895 -1.38575 0
M  V30 7647 O 734.465 -1.76529 -2.02709 0
M  V30 7648 C 732.736 -3.561 -0.304565 0
M  V30 7649 S 734.295 -4.3096 -0.825784 0
M  V30 7650 H 731.113 -0.710581 -0.0243969 0
M  V30 7651 H 733.715 -1.85534 0.616239 0
M  V30 7652 H 732.419 -4.055 0.632277 0
M  V30 7653 H 731.95 -3.79009 -1.05433 0
M  V30 7654 H 733.965 -4.49503 -2.10147 0
M  V30 7655 N 733.138 -0.185124 -1.56509 0
M  V30 7656 C 734.366 0.462139 -2.01673 0
M  V30 7657 C 734.781 1.55873 -1.06532 0
M  V30 7658 O 734.138 1.82371 -0.0684805 0
M  V30 7659 C 734.189 1.0277 -3.46584 0
M  V30 7660 O 733.91 -0.0251296 -4.38093 0
M  V30 7661 C 735.411 1.75183 -4.07217 0
M  V30 7662 H 732.631 0.117001 -0.660721 0
M  V30 7663 H 735.175 -0.290905 -2.0242 0
M  V30 7664 H 733.33 1.73118 -3.46568 0
M  V30 7665 H 733.744 0.394387 -5.23015 0
M  V30 7666 H 735.218 2.09999 -5.10494 0
M  V30 7667 H 735.695 2.6519 -3.50101 0
M  V30 7668 H 736.301 1.09445 -4.10977 0
M  V30 7669 N 734.616 1.57351 0.0885366 0
M  V30 7670 C 735.579 2.01557 1.09121 0
M  V30 7671 C 736.579 0.910052 1.3257 0
M  V30 7672 O 737.769 1.17537 1.28572 0
M  V30 7673 C 734.901 2.38189 2.43883 0
M  V30 7674 H 736.094 2.91361 0.710562 0
M  V30 7675 H 733.647 1.52694 0.333779 0
M  V30 7676 H 734.382 1.5136 2.86811 0
M  V30 7677 H 734.167 3.18846 2.28209 0
M  V30 7678 H 735.657 2.73025 3.15986 0
M  V30 7679 N 736.094 -0.359525 1.53444 0
M  V30 7680 C 737.004 -1.46445 1.83278 0
M  V30 7681 C 738.02 -1.5833 0.721629 0
M  V30 7682 O 739.196 -1.7411 1.01231 0
M  V30 7683 C 736.261 -2.81638 2.02191 0
M  V30 7684 C 735.322 -2.7923 3.26082 0
M  V30 7685 C 734.555 -4.07974 3.44082 0
M  V30 7686 O 734.778 -5.04447 2.66251 0
M  V30 7687 O 733.712 -4.13417 4.37458 0
M  V30 7688 H 737.538 -1.24156 2.77162 0
M  V30 7689 H 735.123 -0.550201 1.389 0
M  V30 7690 H 737.005 -3.61732 2.16167 0
M  V30 7691 H 735.68 -3.03892 1.11496 0
M  V30 7692 H 734.587 -1.97813 3.17523 0
M  V30 7693 H 735.92 -2.6193 4.16718 0
M  V30 7694 N 737.572 -1.44907 -0.619662 0
M  V30 7695 C 738.82 -1.47999 -1.37625 0
M  V30 7696 C 739.141 -0.118295 -1.94641 0
M  V30 7697 O 738.411 0.85086 -1.76457 0
M  V30 7698 H 736.991 -0.544993 -0.510873 0
M  V30 7699 H 739.653 -1.80772 -0.728522 0
M  V30 7700 H 738.749 -2.21196 -2.20179 0
M  V30 7701 N 739.05 0.861098 -1.31996 0
M  V30 7702 C 739.983 1.97266 -1.14724 0
M  V30 7703 C 740.961 1.62528 -0.0483789 0
M  V30 7704 O 742.145 1.87366 -0.206478 0
M  V30 7705 C 739.272 3.30181 -0.754861 0
M  V30 7706 C 738.318 3.839 -1.85804 0
M  V30 7707 S 739.151 4.08274 -3.46515 0
M  V30 7708 C 740.307 5.44174 -3.09235 0
M  V30 7709 H 740.54 2.11614 -2.08822 0
M  V30 7710 H 738.073 1.01232 -1.16582 0
M  V30 7711 H 740.031 4.06996 -0.535232 0
M  V30 7712 H 738.692 3.13655 0.167155 0
M  V30 7713 H 737.885 4.80013 -1.53633 0
M  V30 7714 H 737.487 3.13907 -2.03318 0
M  V30 7715 H 739.779 6.26172 -2.58679 0
M  V30 7716 H 740.722 5.81301 -4.04345 0
M  V30 7717 H 741.13 5.0787 -2.46431 0
M  V30 7718 N 740.528 1.15101 1.07655 0
M  V30 7719 C 741.774 0.925343 1.80458 0
M  V30 7720 C 742.107 -0.546354 1.86356 0
M  V30 7721 O 741.382 -1.40496 1.34503 0
M  V30 7722 C 741.665 1.53646 3.25676 0
M  V30 7723 C 741.518 3.07854 3.27942 0
M  V30 7724 C 742.837 1.21968 4.22861 0
M  V30 7725 H 739.956 0.337592 0.655134 0
M  V30 7726 H 742.598 1.42217 1.25993 0
M  V30 7727 H 740.748 1.11395 3.72187 0
M  V30 7728 H 742.42 3.58989 2.89697 0
M  V30 7729 H 740.663 3.41904 2.66991 0
M  V30 7730 H 741.334 3.45725 4.30324 0
M  V30 7731 H 743.81 1.5851 3.84726 0
M  V30 7732 H 742.686 1.67349 5.22767 0
M  V30 7733 H 742.947 0.136207 4.4189 0
M  V30 7734 N 742.006 -1.2595 0.947325 0
M  V30 7735 C 743.246 -1.95218 0.605743 0
M  V30 7736 C 743.61 -1.72624 -0.84054 0
M  V30 7737 O 744.811 -2.35748 -1.29136 0
M  V30 7738 C 743.082 -3.44654 0.94596 0
M  V30 7739 S 744.641 -4.32922 0.715849 0
M  V30 7740 H 741.459 -0.675159 0.222894 0
M  V30 7741 H 744.061 -1.52766 1.21995 0
M  V30 7742 H 742.765 -3.586 1.99585 0
M  V30 7743 H 742.296 -3.92082 0.321718 0
M  V30 7744 H 744.311 -4.94445 -0.416959 0
M  V30 7745 N 743.484 -0.715051 -1.40445 0
M  V30 7746 C 744.432 -0.0509974 -2.32544 0
M  V30 7747 C 745.426 0.747602 -1.52011 0
M  V30 7748 O 746.632 0.651031 -1.67814 0
M  V30 7749 H 743.007 0.00231113 -0.751996 0
M  V30 7750 H 744.978 -0.84449 -2.86201 0
M  V30 7751 C 743.727 0.857101 -3.3697 0
M  V30 7752 H 743.05 0.252 -3.99005 0
M  V30 7753 H 744.49 1.28971 -4.03909 0
M  V30 7754 C 742.949 1.98231 -2.72408 0
M  V30 7755 O 743.479 3.07309 -2.58697 0
M  V30 7756 N 741.685 1.76577 -2.308 0
M  V30 7757 H 741.232 0.878641 -2.42152 0
M  V30 7758 H 741.19 2.52043 -1.87941 0
M  V30 7759 N 744.962 1.50701 -0.461195 0
M  V30 7760 C 745.912 2.25195 0.35653 0
M  V30 7761 C 746.896 1.2838 0.96992 0
M  V30 7762 O 748.088 1.53338 0.884108 0
M  V30 7763 C 745.217 3.11471 1.44364 0
M  V30 7764 C 744.303 4.15729 0.83847 0
M  V30 7765 N 744.694 5.05788 -0.0353198 0
M  V30 7766 C 742.992 4.32133 1.1035 0
M  V30 7767 C 743.693 5.80472 -0.37774 0
M  V30 7768 N 742.669 5.43049 0.24463 0
M  V30 7769 H 746.471 2.92188 -0.316746 0
M  V30 7770 H 743.985 1.60059 -0.274725 0
M  V30 7771 H 745.982 3.63436 2.04255 0
M  V30 7772 H 744.642 2.46025 2.11901 0
M  V30 7773 H 745.653 5.16326 -0.403465 0
M  V30 7774 H 742.33 3.77908 1.77458 0
M  V30 7775 H 743.72 6.62996 -1.09024 0
M  V30 7776 N 746.441 0.193421 1.56409 0
M  V30 7777 C 747.371 -0.723334 2.22014 0
M  V30 7778 C 748.352 -1.22254 1.1827 0
M  V30 7779 O 749.537 -1.27168 1.46771 0
M  V30 7780 C 746.667 -1.94366 2.87818 0
M  V30 7781 C 745.621 -1.57943 3.97791 0
M  V30 7782 C 744.947 -2.87623 4.50752 0
M  V30 7783 C 746.247 -0.790639 5.16281 0
M  V30 7784 H 747.941 -0.176426 2.9888 0
M  V30 7785 H 745.487 -0.0834166 1.43758 0
M  V30 7786 H 747.44 -2.5902 3.32396 0
M  V30 7787 H 746.164 -2.51507 2.08355 0
M  V30 7788 H 744.823 -0.956482 3.53903 0
M  V30 7789 H 744.471 -3.4285 3.68053 0
M  V30 7790 H 744.171 -2.63998 5.24956 0
M  V30 7791 H 745.695 -3.53268 4.9803 0
M  V30 7792 H 747.109 -1.34024 5.57414 0
M  V30 7793 H 745.506 -0.65258 5.96541 0
M  V30 7794 H 746.576 0.208633 4.84451 0
M  V30 7795 N 747.919 -1.57396 -0.0801906 0
M  V30 7796 C 749.159 -1.88668 -0.786367 0
M  V30 7797 C 749.523 -0.786216 -1.75165 0
M  V30 7798 O 750.724 -0.981769 -2.50229 0
M  V30 7799 C 748.995 -3.25176 -1.48308 0
M  V30 7800 S 750.554 -3.78177 -2.22549 0
M  V30 7801 H 747.372 -0.661094 -0.261679 0
M  V30 7802 H 749.974 -1.95453 -0.0428196 0
M  V30 7803 H 748.678 -4.03176 -0.766629 0
M  V30 7804 H 748.209 -3.21567 -2.26623 0
M  V30 7805 H 750.224 -3.52789 -3.48934 0
M  V30 7806 N 749.397 0.351382 -1.53633 0
M  V30 7807 C 750.622 1.11718 -1.74739 0
M  V30 7808 C 751.047 1.81829 -0.481657 0
M  V30 7809 O 750.405 1.72264 0.565233 0
M  V30 7810 C 750.453 2.11234 -2.92254 0
M  V30 7811 O 749.557 3.186 -2.61855 0
M  V30 7812 H 748.898 0.323482 -0.579875 0
M  V30 7813 H 751.428 0.404167 -2.00568 0
M  V30 7814 H 751.438 2.54591 -3.18822 0
M  V30 7815 H 750.113 1.59599 -3.84058 0
M  V30 7816 H 748.69 2.80115 -2.4615 0
M  V30 7817 N 750.875 1.45233 0.611969 0
M  V30 7818 C 752.1 1.52767 1.40274 0
M  V30 7819 C 752.525 0.159701 1.87421 0
M  V30 7820 O 751.883 -0.854837 1.59882 0
M  V30 7821 C 751.931 2.51286 2.58626 0
M  V30 7822 O 751.035 2.02764 3.59111 0
M  V30 7823 H 750.376 0.515141 0.418958 0
M  V30 7824 H 752.906 1.90547 0.745188 0
M  V30 7825 H 752.916 2.69949 3.05927 0
M  V30 7826 H 751.591 3.50641 2.23659 0
M  V30 7827 H 750.168 1.93957 3.18489 0
M  V30 7828 N 752.353 -0.854086 1.3245 0
M  V30 7829 C 753.63 -1.59188 1.1366 0
M  V30 7830 C 754.01 -2.08917 -0.302807 0
M  V30 7831 O 753.358 -1.8795 -1.29951 0
M  V30 7832 C 753.568 -2.73757 2.16467 0
M  V30 7833 C 754.916 -3.43323 2.49829 0
M  V30 7834 O 755.94 -2.83983 2.15017 0
M  V30 7835 O 754.799 -4.50409 3.09506 0
M  V30 7836 H 751.893 -0.701092 0.438633 0
M  V30 7837 H 754.439 -0.898165 1.43983 0
M  V30 7838 H 753.211 -2.3454 3.1322 0
M  V30 7839 H 752.834 -3.50804 1.87142 0
M  V30 7840 N 753.831 -1.1567 -1.07043 0
M  V30 7841 C 755.079 -0.931673 -1.79344 0
M  V30 7842 C 755.4 0.542421 -1.87304 0
M  V30 7843 O 754.67 1.39418 -1.37621 0
M  V30 7844 H 753.25 -0.34171 -0.664262 0
M  V30 7845 H 755.912 -1.45795 -1.29344 0
M  V30 7846 H 755.008 -1.34379 -2.81689 0
M  V30 7847 N 755.309 1.25446 -0.953992 0
M  V30 7848 C 756.549 1.94894 -0.616087 0
M  V30 7849 C 756.913 1.73067 0.831374 0
M  V30 7850 O 758.114 2.3643 1.27884 0
M  V30 7851 C 756.385 3.44147 -0.964225 0
M  V30 7852 S 757.944 4.32536 -0.738798 0
M  V30 7853 H 754.762 0.673967 -0.226472 0
M  V30 7854 H 757.364 1.52117 -1.22803 0
M  V30 7855 H 756.068 3.57537 -2.01484 0
M  V30 7856 H 755.599 3.91906 -0.342507 0
M  V30 7857 H 757.614 4.94659 0.390732 0
M  V30 7858 N 756.787 0.722489 1.40064 0
M  V30 7859 C 758.033 0.27422 2.01543 0
M  V30 7860 C 758.388 -1.12224 1.5628 0
M  V30 7861 O 757.681 -1.75179 0.776063 0
M  V30 7862 C 757.875 0.300682 3.56133 0
M  V30 7863 C 757.704 1.69818 4.16404 0
M  V30 7864 C 756.474 2.30747 4.49537 0
M  V30 7865 C 758.672 2.64962 4.40794 0
M  V30 7866 N 756.654 3.62781 4.9524 0
M  V30 7867 C 758.025 3.81712 4.88565 0
M  V30 7868 C 760.08 2.62885 4.22842 0
M  V30 7869 C 758.783 4.96703 5.20268 0
M  V30 7870 C 760.809 3.77009 4.55652 0
M  V30 7871 C 760.171 4.92492 5.03618 0
M  V30 7872 H 756.27 0.146328 0.768188 0
M  V30 7873 H 758.854 0.94577 1.70186 0
M  V30 7874 H 757.025 -0.340461 3.86905 0
M  V30 7875 H 758.757 -0.164951 4.04364 0
M  V30 7876 H 755.512 1.82783 4.36907 0
M  V30 7877 H 755.936 4.30533 5.22465 0
M  V30 7878 H 760.578 1.74803 3.84972 0
M  V30 7879 H 758.296 5.85425 5.57049 0
M  V30 7880 H 761.882 3.76685 4.43396 0
M  V30 7881 H 760.762 5.79336 5.28525 0
M  V30 7882 N 758.265 -1.50454 0.469181 0
M  V30 7883 C 759.513 -2.01916 -0.0862982 0
M  V30 7884 C 759.834 -1.35337 -1.40388 0
M  V30 7885 O 759.104 -0.498096 -1.89462 0
M  V30 7886 H 757.684 -0.746185 -0.0348825 0
M  V30 7887 H 760.346 -1.84804 0.619167 0
M  V30 7888 H 759.442 -3.11182 -0.239189 0
M  V30 7889 N 759.743 -0.201713 -1.56304 0
M  V30 7890 C 761.154 0.309711 -1.84113 0
M  V30 7891 C 761.505 1.60912 -1.12258 0
M  V30 7892 O 760.63 2.12937 -0.385587 0
M  V30 7893 C 761.225 0.568706 -3.33993 0
M  V30 7894 C 759.784 1.02448 -3.6219 0
M  V30 7895 C 758.931 0.0766842 -2.77194 0
M  V30 7896 H 761.882 -0.425356 -1.52893 0
M  V30 7897 H 761.903 1.41721 -3.53122 0
M  V30 7898 H 761.415 -0.37719 -3.86263 0
M  V30 7899 H 759.516 1.98443 -3.15359 0
M  V30 7900 H 759.629 0.912619 -4.70328 0
M  V30 7901 H 757.993 0.579809 -2.48013 0
M  V30 7902 H 758.776 -0.863774 -3.32256 0
M  V30 7903 N 761.222 1.57436 0.0718424 0
M  V30 7904 C 762.47 1.86878 0.769484 0
M  V30 7905 C 762.791 0.7937 1.78116 0
M  V30 7906 O 762.061 -0.177642 1.95093 0
M  V30 7907 H 760.641 0.689593 0.287177 0
M  V30 7908 H 763.303 1.94841 0.0479427 0
M  V30 7909 H 762.399 2.84387 1.28572 0
M  V30 7910 N 762.7 -0.34323 1.53817 0
M  V30 7911 C 764.111 -0.918823 1.62525 0
M  V30 7912 C 764.462 -1.89542 0.506765 0
M  V30 7913 O 763.587 -2.13326 -0.363441 0
M  V30 7914 C 764.182 -1.67326 2.94597 0
M  V30 7915 C 762.741 -2.19786 3.05567 0
M  V30 7916 C 761.888 -1.01708 2.57974 0
M  V30 7917 H 764.839 -0.121358 1.58235 0
M  V30 7918 H 764.86 -2.53615 2.83654 0
M  V30 7919 H 764.372 -0.962223 3.75983 0
M  V30 7920 H 762.473 -2.94065 2.28816 0
M  V30 7921 H 762.586 -2.46135 4.1104 0
M  V30 7922 H 760.95 -1.39058 2.13389 0
M  V30 7923 H 761.733 -0.320671 3.41799 0
M  V30 7924 N 764.178 -1.45556 -0.604258 0
M  V30 7925 C 765.455 -1.40221 -1.36373 0
M  V30 7926 C 765.835 -0.0745195 -2.10968 0
M  V30 7927 O 765.183 0.943594 -2.08107 0
M  V30 7928 C 765.393 -2.61807 -2.30777 0
M  V30 7929 C 766.741 -3.07037 -2.93281 0
M  V30 7930 O 767.765 -2.62203 -2.41097 0
M  V30 7931 O 766.624 -3.8485 -3.88011 0
M  V30 7932 H 763.718 -0.556602 -0.611656 0
M  V30 7933 H 766.264 -1.57689 -0.627069 0
M  V30 7934 H 765.036 -3.50017 -1.74939 0
M  V30 7935 H 764.659 -2.46688 -3.11818 0
M  V30 7936 N 765.656 0.84705 -1.32902 0
M  V30 7937 C 766.588 1.96308 -1.18304 0
M  V30 7938 C 767.601 1.62386 -0.116082 0
M  V30 7939 O 768.79 1.74713 -0.365751 0
M  V30 7940 C 765.89 3.29556 -0.790305 0
M  V30 7941 C 765.063 3.91668 -1.94717 0
M  V30 7942 C 764.122 5.0326 -1.53674 0
M  V30 7943 O 763.148 5.22847 -2.24989 0
M  V30 7944 N 764.35 5.78852 -0.437075 0
M  V30 7945 H 767.115 2.09369 -2.14441 0
M  V30 7946 H 764.676 1.02233 -1.25539 0
M  V30 7947 H 766.668 4.01624 -0.49799 0
M  V30 7948 H 765.238 3.12497 0.0801286 0
M  V30 7949 H 764.458 3.12292 -2.40557 0
M  V30 7950 H 765.746 4.299 -2.72146 0
M  V30 7951 H 765.144 5.65484 0.156316 0
M  V30 7952 H 763.701 6.51479 -0.204399 0
M  V30 7953 N 767.134 1.16236 1.06428 0
M  V30 7954 C 768.374 0.95369 1.80787 0
M  V30 7955 C 768.738 -0.509495 1.85117 0
M  V30 7956 O 769.939 -0.836822 2.55442 0
M  V30 7957 C 768.21 1.56235 3.21443 0
M  V30 7958 S 769.769 1.49812 4.12434 0
M  V30 7959 H 766.587 0.343004 0.622792 0
M  V30 7960 H 769.189 1.47957 1.27785 0
M  V30 7961 H 767.893 2.62 3.15886 0
M  V30 7962 H 767.424 1.03574 3.79521 0
M  V30 7963 H 769.439 0.49745 4.937 0
M  V30 7964 N 768.612 -1.24939 0.960631 0
M  V30 7965 C 769.542 -2.28 0.503815 0
M  V30 7966 C 770.523 -1.63959 -0.452928 0
M  V30 7967 O 771.708 -1.91009 -0.350585 0
M  V30 7968 C 768.838 -3.46643 -0.213535 0
M  V30 7969 C 767.792 -4.22903 0.658535 0
M  V30 7970 C 767.118 -5.34363 -0.189902 0
M  V30 7971 C 768.418 -4.84949 1.93963 0
M  V30 7972 H 770.112 -2.66462 1.36521 0
M  V30 7973 H 767.658 -1.28093 0.657897 0
M  V30 7974 H 769.611 -4.1787 -0.544286 0
M  V30 7975 H 768.335 -3.07187 -1.10923 0
M  V30 7976 H 766.994 -3.53467 0.972455 0
M  V30 7977 H 766.642 -4.91147 -1.08553 0
M  V30 7978 H 766.342 -5.86302 0.390331 0
M  V30 7979 H 767.866 -6.0842 -0.515484 0
M  V30 7980 H 769.28 -5.48288 1.67491 0
M  V30 7981 H 767.677 -5.47091 2.46601 0
M  V30 7982 H 768.747 -4.06799 2.639 0
M  V30 7983 N 770.09 -0.729906 -1.39679 0
M  V30 7984 C 771.315 -0.284345 -2.05442 0
M  V30 7985 C 771.74 1.07056 -1.54663 0
M  V30 7986 O 771.098 1.67732 -0.688157 0
M  V30 7987 C 771.146 -0.290089 -3.59431 0
M  V30 7988 O 770.25 0.723978 -4.05995 0
M  V30 7989 H 769.591 -0.130311 -0.651088 0
M  V30 7990 H 772.121 -0.994403 -1.78809 0
M  V30 7991 H 772.131 -0.132712 -4.07784 0
M  V30 7992 H 770.806 -1.27877 -3.95753 0
M  V30 7993 H 769.383 0.533154 -3.69069 0
M  V30 7994 N 771.568 1.50203 -0.477153 0
M  V30 7995 C 772.808 2.04265 0.0744065 0
M  V30 7996 C 773.172 1.35082 1.36443 0
M  V30 7997 O 774.373 1.79732 1.99875 0
M  V30 7998 C 772.644 3.56539 0.247874 0
M  V30 7999 S 774.203 4.32219 0.757117 0
M  V30 8000 H 771.021 0.71088 0.0130891 0
M  V30 8001 H 773.623 1.8453 -0.645678 0
M  V30 8002 H 772.327 4.04443 -0.696709 0
M  V30 8003 H 771.858 3.80638 0.993896 0
M  V30 8004 H 773.873 4.52789 2.0297 0
M  V30 8005 N 773.046 0.209999 1.56195 0
M  V30 8006 C 774.462 -0.145598 1.58934 0
M  V30 8007 C 774.662 -1.59868 1.22656 0
M  V30 8008 O 773.718 -2.33689 0.956336 0
M  V30 8009 C 775.031 0.170243 3.00218 0
M  V30 8010 C 776.579 0.111548 3.12801 0
M  V30 8011 C 777.054 0.400904 4.56242 0
M  V30 8012 N 778.545 0.350058 4.61875 0
M  V30 8013 C 779.28 0.547598 5.70779 0
M  V30 8014 N 778.776 0.806291 6.88092 0
M  V30 8015 N 780.569 0.480827 5.6004 0
M  V30 8016 H 772.72 1.15804 1.78054 0
M  V30 8017 H 774.983 0.463326 0.827063 0
M  V30 8018 H 774.689 1.17833 3.31373 0
M  V30 8019 H 774.563 -0.520208 3.73596 0
M  V30 8020 H 776.95 -0.887162 2.81449 0
M  V30 8021 H 777.031 0.835302 2.41777 0
M  V30 8022 H 776.675 1.397 4.8831 0
M  V30 8023 H 776.605 -0.34391 5.25476 0
M  V30 8024 H 779.096 0.157334 3.77572 0
M  V30 8025 H 779.409 0.945433 7.66995 0
M  V30 8026 H 777.754 0.843355 6.89864 0
M  V30 8027 H 780.945 0.279037 4.67268 0
M  V30 8028 H 781.118 0.638189 6.4485 0
M  V30 8029 N 774.524 -1.57472 -0.0634922 0
M  V30 8030 C 775.94 -1.54016 -0.418466 0
M  V30 8031 C 776.14 -0.931376 -1.78683 0
M  V30 8032 O 775.196 -0.537465 -2.46714 0
M  V30 8033 C 776.509 -2.98634 -0.351906 0
M  V30 8034 C 778.057 -3.10012 -0.431494 0
M  V30 8035 C 778.532 -4.56296 -0.394754 0
M  V30 8036 N 780.023 -4.60964 -0.454583 0
M  V30 8037 C 780.758 -5.71643 -0.448501 0
M  V30 8038 N 780.254 -6.91663 -0.396742 0
M  V30 8039 N 782.047 -5.5991 -0.495677 0
M  V30 8040 H 774.198 -1.95409 0.832408 0
M  V30 8041 H 776.461 -0.894769 0.313197 0
M  V30 8042 H 776.167 -3.46766 0.587048 0
M  V30 8043 H 776.041 -3.58955 -1.15893 0
M  V30 8044 H 778.428 -2.61848 -1.36087 0
M  V30 8045 H 778.509 -2.52585 0.404258 0
M  V30 8046 H 778.153 -5.05119 0.530811 0
M  V30 8047 H 778.083 -5.11594 -1.24815 0
M  V30 8048 H 780.574 -3.74598 -0.498496 0
M  V30 8049 H 780.887 -7.71783 -0.396256 0
M  V30 8050 H 779.232 -6.9405 -0.363304 0
M  V30 8051 H 782.423 -4.65046 -0.533864 0
M  V30 8052 H 782.596 -6.46164 -0.487469 0
M  V30 8053 N 776.003 0.335068 -1.53997 0
M  V30 8054 C 777.25 1.07435 -1.71651 0
M  V30 8055 C 777.578 1.88378 -0.48413 0
M  V30 8056 O 776.833 1.8827 0.534139 0
M  V30 8057 C 777.132 2.0364 -2.9371 0
M  V30 8058 C 776.798 1.38942 -4.28959 0
M  V30 8059 C 775.46 1.21027 -4.65732 0
M  V30 8060 C 777.812 0.924083 -5.12943 0
M  V30 8061 C 775.14 0.552097 -5.84097 0
M  V30 8062 C 777.492 0.27978 -6.31981 0
M  V30 8063 C 776.156 0.0883843 -6.67441 0
M  V30 8064 H 775.426 0.393133 -0.628114 0
M  V30 8065 H 778.073 0.352712 -1.88224 0
M  V30 8066 H 776.378 2.82215 -2.71775 0
M  V30 8067 H 778.075 2.6085 -3.04562 0
M  V30 8068 H 774.665 1.53885 -4.00022 0
M  V30 8069 H 778.849 1.05032 -4.85059 0
M  V30 8070 H 774.105 0.392502 -6.10139 0
M  V30 8071 H 778.279 -0.0888479 -6.96343 0
M  V30 8072 H 775.906 -0.423657 -7.59019 0
M  V30 8073 N 777.481 1.45874 0.596531 0
M  V30 8074 C 778.706 1.54247 1.38646 0
M  V30 8075 C 779.131 0.179571 1.87241 0
M  V30 8076 O 778.489 -0.837831 1.6078 0
M  V30 8077 C 778.537 2.54015 2.55946 0
M  V30 8078 O 777.641 2.06561 3.5694 0
M  V30 8079 H 776.982 0.519555 0.413471 0
M  V30 8080 H 779.512 1.91327 0.724936 0
M  V30 8081 H 779.522 2.73179 3.03047 0
M  V30 8082 H 778.197 3.52994 2.19928 0
M  V30 8083 H 776.774 1.97324 3.16414 0
M  V30 8084 N 778.959 -0.83999 1.33349 0
M  V30 8085 C 780.375 -1.13049 1.12659 0
M  V30 8086 C 780.575 -2.01328 -0.0832613 0
M  V30 8087 O 779.631 -2.40669 -0.763856 0
M  V30 8088 C 780.944 -1.79366 2.41347 0
M  V30 8089 C 782.492 -1.91937 2.47243 0
M  V30 8090 C 782.967 -2.6167 3.75889 0
M  V30 8091 N 784.458 -2.69184 3.76954 0
M  V30 8092 C 785.193 -3.23827 4.73206 0
M  V30 8093 N 784.689 -3.79166 5.79832 0
M  V30 8094 N 786.482 -3.22068 4.60683 0
M  V30 8095 H 778.633 -0.252432 2.10895 0
M  V30 8096 H 780.896 -0.174501 0.931801 0
M  V30 8097 H 780.602 -1.2196 3.29877 0
M  V30 8098 H 780.476 -2.79396 2.53412 0
M  V30 8099 H 782.863 -2.48498 1.59163 0
M  V30 8100 H 782.944 -0.908604 2.39119 0
M  V30 8101 H 782.588 -2.05769 4.64351 0
M  V30 8102 H 782.518 -3.63217 3.81289 0
M  V30 8103 H 785.009 -2.2994 2.99893 0
M  V30 8104 H 785.322 -4.19061 6.49313 0
M  V30 8105 H 783.667 -3.77457 5.83568 0
M  V30 8106 H 786.858 -2.78092 3.7654 0
M  V30 8107 H 787.031 -3.64351 5.35866 0
M  V30 8108 N 780.437 -1.16799 -1.0581 0
M  V30 8109 C 781.685 -0.950642 -1.78346 0
M  V30 8110 C 782.006 0.522524 -1.87869 0
M  V30 8111 O 781.276 1.3795 -1.39092 0
M  V30 8112 H 779.856 -0.348736 -0.6606 0
M  V30 8113 H 782.518 -1.47158 -1.27791 0
M  V30 8114 H 781.614 -1.37359 -2.80248 0
M  V30 8115 N 781.915 1.24427 -0.967243 0
M  V30 8116 C 783.331 1.44684 -0.6737 0
M  V30 8117 C 783.531 1.86429 0.764625 0
M  V30 8118 O 782.587 2.00211 1.53857 0
M  V30 8119 C 783.9 2.509 -1.6574 0
M  V30 8120 C 785.448 2.64728 -1.66998 0
M  V30 8121 C 785.923 3.7414 -2.64165 0
M  V30 8122 N 787.414 3.81567 -2.62604 0
M  V30 8123 C 788.149 4.6575 -3.34462 0
M  V30 8124 N 787.645 5.54124 -4.15835 0
M  V30 8125 N 789.438 4.59827 -3.23288 0
M  V30 8126 H 781.589 0.956276 -1.89655 0
M  V30 8127 H 783.852 0.48171 -0.816492 0
M  V30 8128 H 783.558 2.27113 -2.68538 0
M  V30 8129 H 783.432 3.4905 -1.42981 0
M  V30 8130 H 785.819 2.87872 -0.649121 0
M  V30 8131 H 785.9 1.66936 -1.93819 0
M  V30 8132 H 785.544 3.51745 -3.66384 0
M  V30 8133 H 785.474 4.71444 -2.34623 0
M  V30 8134 H 787.965 3.18403 -2.03539 0
M  V30 8135 H 788.278 6.15316 -4.67553 0
M  V30 8136 H 786.623 5.53791 -4.19929 0
M  V30 8137 H 789.814 3.898 -2.59179 0
M  V30 8138 H 789.987 5.25208 -3.79553 0
M  V30 8139 N 783.393 0.737304 1.3929 0
M  V30 8140 C 784.642 0.283129 1.99703 0
M  V30 8141 C 784.955 -1.13677 1.59176 0
M  V30 8142 O 786.161 -1.69058 2.12442 0
M  V30 8143 C 784.617 0.455262 3.57009 0
M  V30 8144 C 784.225 1.88319 4.06497 0
M  V30 8145 C 785.969 0.0629786 4.24453 0
M  V30 8146 C 783.876 2.00475 5.56385 0
M  V30 8147 H 782.806 0.102106 0.747054 0
M  V30 8148 H 785.457 0.911515 1.5926 0
M  V30 8149 H 783.839 -0.242057 3.9526 0
M  V30 8150 H 785.013 2.61265 3.79575 0
M  V30 8151 H 783.328 2.2289 3.51723 0
M  V30 8152 H 785.925 0.132787 5.34535 0
M  V30 8153 H 786.268 -0.982128 4.04549 0
M  V30 8154 H 786.801 0.71154 3.91385 0
M  V30 8155 H 783.54 3.03182 5.81172 0
M  V30 8156 H 783.06 1.31969 5.85102 0
M  V30 8157 H 784.739 1.787 6.21832 0
M  V30 8158 N 784.871 -1.49948 0.485112 0
M  V30 8159 C 786.111 -2.04301 -0.0635728 0
M  V30 8160 C 786.475 -1.35804 -1.35725 0
M  V30 8161 O 787.676 -1.80789 -1.98919 0
M  V30 8162 C 785.947 -3.56666 -0.228962 0
M  V30 8163 S 787.506 -4.32614 -0.734185 0
M  V30 8164 H 784.324 -0.710939 -0.00931895 0
M  V30 8165 H 786.926 -1.84185 0.655455 0
M  V30 8166 H 785.63 -4.04068 0.718148 0
M  V30 8167 H 785.161 -3.8116 -0.973696 0
M  V30 8168 H 787.176 -4.53859 -2.00565 0
M  V30 8169 N 786.349 -0.21828 -1.56081 0
M  V30 8170 C 787.598 0.414644 -1.97392 0
M  V30 8171 C 787.911 1.61132 -1.10887 0
M  V30 8172 O 789.117 2.31355 -1.42082 0
M  V30 8173 C 787.573 0.789099 -3.51143 0
M  V30 8174 C 787.181 -0.384578 -4.46346 0
M  V30 8175 C 788.925 1.38781 -4.01173 0
M  V30 8176 C 786.832 0.0121288 -5.91399 0
M  V30 8177 H 785.762 0.158691 -0.737111 0
M  V30 8178 H 788.413 -0.313974 -1.80794 0
M  V30 8179 H 786.795 1.57505 -3.6333 0
M  V30 8180 H 787.969 -1.16212 -4.45905 0
M  V30 8181 H 786.284 -0.896306 -4.06639 0
M  V30 8182 H 788.881 1.69746 -5.07041 0
M  V30 8183 H 789.224 2.30245 -3.46833 0
M  V30 8184 H 789.757 0.665364 -3.92196 0
M  V30 8185 H 786.496 -0.868917 -6.49715 0
M  V30 8186 H 786.016 0.754053 -5.95041 0
M  V30 8187 H 787.695 0.439949 -6.45502 0
M  V30 8188 N 787.827 1.57504 0.0551401 0
M  V30 8189 C 788.737 2.08198 1.08124 0
M  V30 8190 C 789.753 1.01496 1.41331 0
M  V30 8191 O 790.929 1.33073 1.51174 0
M  V30 8192 C 787.994 2.52968 2.37083 0
M  V30 8193 C 787.055 3.7404 2.10696 0
M  V30 8194 C 786.288 4.16665 3.33505 0
M  V30 8195 O 786.511 3.59019 4.4324 0
M  V30 8196 O 785.445 5.09324 3.20737 0
M  V30 8197 H 789.271 2.95977 0.680518 0
M  V30 8198 H 786.856 1.46933 0.270401 0
M  V30 8199 H 788.738 2.82211 3.12946 0
M  V30 8200 H 787.413 1.6831 2.76502 0
M  V30 8201 H 786.32 3.49855 1.32484 0
M  V30 8202 H 787.653 4.59601 1.76148 0
M  V30 8203 N 789.305 -0.326896 1.54172 0
M  V30 8204 C 790.53 -1.08924 1.76494 0
M  V30 8205 C 790.955 -1.81039 0.510523 0
M  V30 8206 O 790.313 -1.73141 -0.537756 0
M  V30 8207 C 790.361 -2.06558 2.95578 0
M  V30 8208 O 789.465 -3.14394 2.6689 0
M  V30 8209 H 788.806 -0.314216 0.584948 0
M  V30 8210 H 791.336 -0.372207 2.01186 0
M  V30 8211 H 791.346 -2.49487 3.22832 0
M  V30 8212 H 790.021 -1.53469 3.86549 0
M  V30 8213 H 788.598 -2.76164 2.50576 0
M  V30 8214 N 790.784 -1.46188 -0.588786 0
M  V30 8215 C 792.024 -1.52738 -1.35833 0
M  V30 8216 C 792.388 -0.172403 -1.91224 0
M  V30 8217 O 793.589 -0.112633 -2.68564 0
M  V30 8218 C 791.86 -2.59085 -2.4619 0
M  V30 8219 S 793.419 -2.84997 -3.3365 0
M  V30 8220 H 790.237 -0.539713 -0.462851 0
M  V30 8221 H 792.839 -1.83386 -0.677489 0
M  V30 8222 H 791.543 -3.56177 -2.03878 0
M  V30 8223 H 791.074 -2.3015 -3.19053 0
M  V30 8224 H 793.089 -2.19804 -4.4486 0
M  V30 8225 N 792.262 0.832906 -1.33792 0
M  V30 8226 C 793.21 1.96455 -1.24532 0
M  V30 8227 C 794.204 1.68774 -0.145455 0
M  V30 8228 O 795.41 1.77314 -0.309797 0
M  V30 8229 H 791.785 0.645008 -0.386611 0
M  V30 8230 H 793.756 2.01389 -2.20193 0
M  V30 8231 C 792.505 3.32784 -1.00748 0
M  V30 8232 H 791.828 3.54626 -1.84609 0
M  V30 8233 H 793.268 4.12447 -0.98301 0
M  V30 8234 C 791.727 3.35654 0.289475 0
M  V30 8235 O 792.257 3.80281 1.29419 0
M  V30 8236 N 790.463 2.88843 0.3191 0
M  V30 8237 H 790.01 2.52719 -0.499069 0
M  V30 8238 H 789.968 2.91145 1.18667 0
M  V30 8239 N 793.74 1.17359 1.05189 0
M  V30 8240 C 794.67 0.91365 2.14883 0
M  V30 8241 C 795.651 -0.144365 1.69486 0
M  V30 8242 O 796.836 0.00587861 1.94199 0
M  V30 8243 C 793.966 0.426196 3.44675 0
M  V30 8244 C 792.92 1.4234 4.03638 0
M  V30 8245 C 792.246 0.793902 5.28773 0
M  V30 8246 C 793.546 2.7966 4.41121 0
M  V30 8247 H 795.24 1.831 2.36885 0
M  V30 8248 H 792.786 0.881781 1.13845 0
M  V30 8249 H 794.739 0.231767 4.20762 0
M  V30 8250 H 793.463 -0.526693 3.22325 0
M  V30 8251 H 792.122 1.60457 3.2962 0
M  V30 8252 H 791.77 -0.165824 5.02727 0
M  V30 8253 H 791.47 1.45959 5.69183 0
M  V30 8254 H 792.994 0.609747 6.07548 0
M  V30 8255 H 794.408 2.6526 5.08242 0
M  V30 8256 H 792.805 3.42807 4.92548 0
M  V30 8257 H 793.875 3.34068 3.51464 0
M  V30 8258 N 795.218 -1.23913 0.973828 0
M  V30 8259 C 796.448 -1.95911 0.655938 0
M  V30 8260 C 796.856 -1.72375 -0.779967 0
M  V30 8261 O 796.199 -1.00807 -1.5357 0
M  V30 8262 C 796.261 -3.49103 0.858324 0
M  V30 8263 C 795.925 -3.96347 2.27504 0
M  V30 8264 C 796.922 -4.05537 3.25324 0
M  V30 8265 C 794.607 -4.29509 2.60437 0
M  V30 8266 C 796.601 -4.47233 4.5416 0
M  V30 8267 C 794.288 -4.70887 3.89498 0
M  V30 8268 C 795.286 -4.79714 4.86172 0
M  V30 8269 O 794.974 -5.20166 6.1293 0
M  V30 8270 H 794.706 -0.630721 0.243244 0
M  V30 8271 H 797.26 -1.58534 1.30599 0
M  V30 8272 H 795.49 -3.86405 0.151097 0
M  V30 8273 H 797.179 -4.02311 0.538592 0
M  V30 8274 H 797.945 -3.80128 3.0121 0
M  V30 8275 H 793.824 -4.21853 1.85906 0
M  V30 8276 H 797.368 -4.54038 5.29618 0
M  V30 8277 H 793.265 -4.95744 4.1341 0
M  V30 8278 H 794.033 -5.38298 6.16586 0
M  V30 8279 N 796.696 -0.74468 -1.38897 0
M  V30 8280 C 797.973 -0.222773 -1.94327 0
M  V30 8281 C 798.353 1.27731 -1.68071 0
M  V30 8282 O 797.701 2.04754 -1.01429 0
M  V30 8283 C 797.911 -0.566836 -3.44366 0
M  V30 8284 C 799.259 -0.521531 -4.21385 0
M  V30 8285 O 800.283 -0.504599 -3.52608 0
M  V30 8286 O 799.142 -0.524595 -5.43976 0
M  V30 8287 H 796.236 -0.0439259 -0.825833 0
M  V30 8288 H 798.782 -0.824197 -1.48341 0
M  V30 8289 H 797.554 -1.60321 -3.56949 0
M  V30 8290 H 797.177 0.0630577 -3.9755 0
M  V30 8291 N 798.174 1.49689 -0.493057 0
M  V30 8292 C 799.422 2.02027 0.0541642 0
M  V30 8293 C 799.743 1.37554 1.38217 0
M  V30 8294 O 799.013 0.528174 1.88646 0
M  V30 8295 H 797.593 0.746646 0.0230069 0
M  V30 8296 H 800.255 1.83795 -0.648489 0
M  V30 8297 H 799.351 3.11523 0.189652 0
M  V30 8298 N 799.652 0.226554 1.55963 0
M  V30 8299 C 800.562 -0.692725 2.24139 0
M  V30 8300 C 801.578 -1.20971 1.25068 0
M  V30 8301 O 802.754 -1.25027 1.57893 0
M  V30 8302 C 799.819 -1.88183 2.91184 0
M  V30 8303 C 798.88 -1.40633 4.05612 0
M  V30 8304 C 798.113 -2.53875 4.6945 0
M  V30 8305 O 798.336 -3.72129 4.32292 0
M  V30 8306 O 797.27 -2.24792 5.58348 0
M  V30 8307 H 801.096 -0.141921 3.03368 0
M  V30 8308 H 798.681 -0.0041049 1.49399 0
M  V30 8309 H 800.563 -2.57617 3.33484 0
M  V30 8310 H 799.238 -2.42064 2.14911 0
M  V30 8311 H 798.145 -0.67986 3.67871 0
M  V30 8312 H 799.478 -0.913838 4.83642 0
M  V30 8313 N 801.13 -1.57531 -0.0467866 0
M  V30 8314 C 802.377 -1.88451 -0.74112 0
M  V30 8315 C 802.705 -0.821592 -1.76296 0
M  V30 8316 O 801.96 0.179585 -1.94874 0
M  V30 8317 C 802.259 -3.26091 -1.46285 0
M  V30 8318 C 801.925 -4.47171 -0.578669 0
M  V30 8319 C 800.587 -4.80032 -0.335083 0
M  V30 8320 C 802.939 -5.2119 0.0328809 0
M  V30 8321 C 800.267 -5.84309 0.529121 0
M  V30 8322 C 802.619 -6.26383 0.884684 0
M  V30 8323 C 801.283 -6.57729 1.1379 0
M  V30 8324 H 800.553 -0.68959 -0.271195 0
M  V30 8325 H 803.2 -1.915 -0.00132378 0
M  V30 8326 H 801.505 -3.18948 -2.27551 0
M  V30 8327 H 803.202 -3.47258 -2.00532 0
M  V30 8328 H 799.792 -4.21467 -0.778666 0
M  V30 8329 H 803.976 -4.96096 -0.142375 0
M  V30 8330 H 799.232 -6.06981 0.733794 0
M  V30 8331 H 803.406 -6.82888 1.36516 0
M  V30 8332 H 801.033 -7.38355 1.80929 0
M  V30 8333 N 802.608 0.318715 -1.54344 0
M  V30 8334 C 804.024 0.663345 -1.45162 0
M  V30 8335 C 804.224 1.9145 -0.62842 0
M  V30 8336 O 803.28 2.5217 -0.129126 0
M  V30 8337 C 804.593 0.832836 -2.88937 0
M  V30 8338 C 806.141 0.929866 -2.98869 0
M  V30 8339 C 806.616 1.13149 -4.43803 0
M  V30 8340 N 808.107 1.19811 -4.47437 0
M  V30 8341 C 808.842 1.37209 -5.56742 0
M  V30 8342 N 808.338 1.51619 -6.76006 0
M  V30 8343 N 810.131 1.39956 -5.44398 0
M  V30 8344 H 802.282 -0.50357 -2.06344 0
M  V30 8345 H 804.545 -0.163528 -0.933789 0
M  V30 8346 H 804.251 -0.0153519 -3.51697 0
M  V30 8347 H 804.125 1.72721 -3.35332 0
M  V30 8348 H 806.512 1.76855 -2.36233 0
M  V30 8349 H 806.593 0.0118561 -2.55797 0
M  V30 8350 H 806.237 0.297636 -5.07027 0
M  V30 8351 H 806.167 2.06345 -4.84489 0
M  V30 8352 H 808.658 1.101 -3.61506 0
M  V30 8353 H 808.971 1.64599 -7.55067 0
M  V30 8354 H 807.316 1.48708 -6.78904 0
M  V30 8355 H 810.507 1.28298 -4.50175 0
M  V30 8356 H 810.68 1.53172 -6.29637 0
M  V30 8357 N 804.086 1.46499 0.581025 0
M  V30 8358 C 804.996 1.59778 1.71779 0
M  V30 8359 C 806.012 0.481223 1.67213 0
M  V30 8360 O 807.188 0.74557 1.87091 0
M  V30 8361 C 804.253 1.58626 3.08283 0
M  V30 8362 C 803.314 2.81527 3.241 0
M  V30 8363 C 802.547 2.80421 4.54092 0
M  V30 8364 O 802.77 1.89262 5.38085 0
M  V30 8365 O 801.704 3.71984 4.73193 0
M  V30 8366 H 805.53 2.55918 1.63523 0
M  V30 8367 H 803.115 1.29311 0.748267 0
M  V30 8368 H 804.997 1.60686 3.89561 0
M  V30 8369 H 803.672 0.656467 3.16973 0
M  V30 8370 H 802.579 2.85021 2.42309 0
M  V30 8371 H 803.912 3.73721 3.20302 0
M  V30 8372 N 805.565 -0.825799 1.34232 0
M  V30 8373 C 806.812 -1.58185 1.26427 0
M  V30 8374 C 807.14 -1.93786 -0.166533 0
M  V30 8375 O 806.395 -1.59986 -1.12707 0
M  V30 8376 C 806.694 -2.89362 2.09772 0
M  V30 8377 C 806.36 -2.73066 3.58812 0
M  V30 8378 C 805.022 -2.68329 3.99441 0
M  V30 8379 C 807.374 -2.56946 4.53462 0
M  V30 8380 C 804.702 -2.4539 5.32917 0
M  V30 8381 C 807.054 -2.35538 5.87115 0
M  V30 8382 C 805.718 -2.29212 6.26912 0
M  V30 8383 H 804.988 -0.57884 0.462629 0
M  V30 8384 H 807.635 -0.955714 1.65947 0
M  V30 8385 H 805.94 -3.56251 1.63071 0
M  V30 8386 H 807.637 -3.4694 2.01081 0
M  V30 8387 H 804.227 -2.77591 3.26559 0
M  V30 8388 H 808.411 -2.59631 4.22972 0
M  V30 8389 H 803.667 -2.38947 5.62774 0
M  V30 8390 H 807.841 -2.22051 6.6005 0
M  V30 8391 H 805.468 -2.11197 7.30274 0
M  V30 8392 N 807.043 -1.17915 -1.04565 0
M  V30 8393 C 807.953 -0.916449 -2.15959 0
M  V30 8394 C 808.969 0.117655 -1.73602 0
M  V30 8395 O 810.145 -0.063089 -2.01301 0
M  V30 8396 C 807.21 -0.440262 -3.43893 0
M  V30 8397 C 806.271 -1.54172 -4.00661 0
M  V30 8398 C 805.504 -1.08816 -5.22489 0
M  V30 8399 O 805.727 0.0551547 -5.70373 0
M  V30 8400 O 804.661 -1.88383 -5.7166 0
M  V30 8401 H 808.487 -1.8484 -2.40972 0
M  V30 8402 H 806.072 -0.960552 -1.14428 0
M  V30 8403 H 807.954 -0.182537 -4.21004 0
M  V30 8404 H 806.629 0.46346 -3.20365 0
M  V30 8405 H 805.536 -1.85341 -3.24961 0
M  V30 8406 H 806.869 -2.42139 -4.2852 0
M  V30 8407 N 808.521 1.23394 -0.980386 0
M  V30 8408 C 809.469 2.26872 -0.513018 0
M  V30 8409 C 810.463 1.63853 0.429948 0
M  V30 8410 O 811.669 1.77417 0.303842 0
M  V30 8411 H 808.044 0.737398 -0.147473 0
M  V30 8412 H 810.015 2.63654 -1.39746 0
M  V30 8413 C 808.764 3.47289 0.168962 0
M  V30 8414 H 808.087 3.96033 -0.547546 0
M  V30 8415 H 809.527 4.21502 0.459616 0
M  V30 8416 C 807.986 3.06425 1.40019 0
M  V30 8417 O 808.516 3.14708 2.49643 0
M  V30 8418 N 806.722 2.61339 1.27084 0
M  V30 8419 H 806.269 2.54799 0.378872 0
M  V30 8420 H 806.227 2.34364 2.09573 0
M  V30 8421 N 809.999 0.752036 1.385 0
M  V30 8422 C 811.247 0.306895 1.99756 0
M  V30 8423 C 811.568 -1.11478 1.59992 0
M  V30 8424 O 810.838 -1.76206 0.856045 0
M  V30 8425 H 809.418 0.11048 0.738785 0
M  V30 8426 H 812.08 0.965785 1.69289 0
M  V30 8427 H 811.176 0.368797 3.09913 0
M  V30 8428 N 811.477 -1.49425 0.500989 0
M  V30 8429 C 812.702 -2.07356 -0.0425154 0
M  V30 8430 C 813.127 -1.35887 -1.30063 0
M  V30 8431 O 812.485 -0.41561 -1.76472 0
M  V30 8432 C 812.533 -3.59518 -0.279188 0
M  V30 8433 O 811.637 -3.89542 -1.3539 0
M  V30 8434 H 810.978 -0.663482 0.0262207 0
M  V30 8435 H 813.508 -1.92231 0.700607 0
M  V30 8436 H 813.518 -4.04791 -0.5107 0
M  V30 8437 H 812.193 -4.10946 0.640009 0
M  V30 8438 H 810.77 -3.56079 -1.10734 0
M  V30 8439 N 812.955 -0.234822 -1.55841 0
M  V30 8440 C 814.204 0.393685 -1.97821 0
M  V30 8441 C 814.517 1.59947 -1.1259 0
M  V30 8442 O 815.723 2.29835 -1.44528 0
M  V30 8443 C 814.179 0.751811 -3.5196 0
M  V30 8444 C 813.787 -0.431898 -4.45913 0
M  V30 8445 C 815.531 1.34518 -4.02623 0
M  V30 8446 C 813.438 -0.0505976 -5.91378 0
M  V30 8447 H 812.368 0.150864 -0.738753 0
M  V30 8448 H 815.019 -0.333132 -1.80451 0
M  V30 8449 H 813.401 1.53642 -3.6498 0
M  V30 8450 H 814.575 -1.20935 -4.44647 0
M  V30 8451 H 812.89 -0.939385 -4.05666 0
M  V30 8452 H 815.487 1.64359 -5.08813 0
M  V30 8453 H 815.83 2.26554 -3.49255 0
M  V30 8454 H 816.363 0.623729 -3.9288 0
M  V30 8455 H 813.102 -0.937779 -6.48757 0
M  V30 8456 H 812.622 0.690898 -5.95808 0
M  V30 8457 H 814.301 0.37146 -6.45933 0
M  V30 8458 N 814.433 1.57553 0.0384317 0
M  V30 8459 C 815.673 1.90687 0.736069 0
M  V30 8460 C 816.037 0.832381 1.73019 0
M  V30 8461 O 817.238 1.04777 2.47538 0
M  V30 8462 C 815.509 3.28994 1.39635 0
M  V30 8463 S 817.068 3.83944 2.12444 0
M  V30 8464 H 813.886 0.667799 0.244059 0
M  V30 8465 H 816.488 1.95498 -0.00901643 0
M  V30 8466 H 815.192 4.05067 0.659465 0
M  V30 8467 H 814.723 3.27463 2.18018 0
M  V30 8468 H 816.738 3.61916 3.39457 0
M  V30 8469 N 815.911 -0.310526 1.54511 0
M  V30 8470 C 817.157 -1.04846 1.73595 0
M  V30 8471 C 817.49 -1.87244 0.515118 0
M  V30 8472 O 816.765 -1.88282 -0.48786 0
M  V30 8473 C 817.048 -1.96237 3.01932 0
M  V30 8474 C 816.901 -1.17082 4.34295 0
M  V30 8475 C 818.22 -2.9556 3.26086 0
M  V30 8476 H 815.339 -0.37976 0.631626 0
M  V30 8477 H 817.981 -0.32394 1.87218 0
M  V30 8478 H 816.131 -2.58015 2.90449 0
M  V30 8479 H 817.803 -0.576643 4.57682 0
M  V30 8480 H 816.046 -0.473336 4.3121 0
M  V30 8481 H 816.717 -1.84257 5.20339 0
M  V30 8482 H 819.193 -2.43908 3.37117 0
M  V30 8483 H 818.069 -3.5668 4.17218 0
M  V30 8484 H 818.33 -3.68715 2.4393 0
M  V30 8485 N 817.389 -1.46805 -0.573248 0
M  V30 8486 C 818.299 -1.60687 -1.70929 0
M  V30 8487 C 819.315 -0.490084 -1.66956 0
M  V30 8488 O 820.491 -0.755482 -1.86693 0
M  V30 8489 C 817.556 -1.60259 -3.07438 0
M  V30 8490 C 816.617 -2.83242 -3.22603 0
M  V30 8491 C 815.85 -2.82825 -4.52599 0
M  V30 8492 O 816.073 -1.92113 -5.37074 0
M  V30 8493 O 815.007 -3.74489 -4.71213 0
M  V30 8494 H 818.833 -2.56782 -1.62163 0
M  V30 8495 H 816.418 -1.29706 -0.741399 0
M  V30 8496 H 818.3 -1.6275 -3.88704 0
M  V30 8497 H 816.975 -0.673268 -3.16621 0
M  V30 8498 H 815.882 -2.86302 -2.40794 0
M  V30 8499 H 817.215 -3.75415 -3.18315 0
M  V30 8500 N 818.867 0.818669 -1.34668 0
M  V30 8501 C 820.107 1.58862 -1.28617 0
M  V30 8502 C 820.471 1.91483 0.140845 0
M  V30 8503 O 821.672 2.66821 0.325583 0
M  V30 8504 C 819.943 2.85044 -2.15604 0
M  V30 8505 S 821.502 3.75553 -2.26948 0
M  V30 8506 H 818.32 0.544454 -0.457265 0
M  V30 8507 H 820.922 0.966679 -1.69928 0
M  V30 8508 H 819.626 2.59083 -3.18284 0
M  V30 8509 H 819.157 3.52231 -1.75205 0
M  V30 8510 H 821.172 4.74682 -1.44539 0
M  V30 8511 N 820.346 1.18468 1.03938 0
M  V30 8512 C 821.623 0.890435 1.74157 0
M  V30 8513 C 822.003 -0.606409 2.02203 0
M  V30 8514 O 821.351 -1.5615 1.66822 0
M  V30 8515 C 821.561 1.73906 3.02585 0
M  V30 8516 C 822.909 1.96686 3.76297 0
M  V30 8517 O 823.933 1.70969 3.12487 0
M  V30 8518 O 822.792 2.39986 4.90988 0
M  V30 8519 H 819.886 0.330889 0.757919 0
M  V30 8520 H 822.432 1.29228 1.09992 0
M  V30 8521 H 821.204 2.75369 2.78006 0
M  V30 8522 H 820.827 1.33581 3.74489 0
M  V30 8523 N 821.824 -1.22873 0.986916 0
M  V30 8524 C 823.235 -1.73264 0.695438 0
M  V30 8525 C 823.586 -1.79679 -0.788023 0
M  V30 8526 O 822.711 -1.43905 -1.61618 0
M  V30 8527 C 823.306 -3.14671 1.2557 0
M  V30 8528 C 821.865 -3.62492 1.01373 0
M  V30 8529 C 821.012 -2.40551 1.37951 0
M  V30 8530 H 823.963 -1.08304 1.15999 0
M  V30 8531 H 823.984 -3.75226 0.631322 0
M  V30 8532 H 823.496 -3.0997 2.33539 0
M  V30 8533 H 821.597 -3.72567 -0.0495917 0
M  V30 8534 H 821.71 -4.48944 1.67289 0
M  V30 8535 H 820.074 -2.41875 0.798033 0
M  V30 8536 H 820.857 -2.38516 2.46911 0
M  V30 8537 N 823.302 -0.75937 -1.38099 0
M  V30 8538 C 824.234 -0.0956547 -2.29 0
M  V30 8539 C 825.247 0.677561 -1.4803 0
M  V30 8540 O 826.436 0.517696 -1.70828 0
M  V30 8541 C 823.536 0.88844 -3.27047 0
M  V30 8542 C 822.709 0.171652 -4.37063 0
M  V30 8543 C 821.768 1.06733 -5.15262 0
M  V30 8544 O 820.794 0.535698 -5.66674 0
M  V30 8545 N 821.996 2.39486 -5.28797 0
M  V30 8546 H 824.761 -0.876354 -2.86601 0
M  V30 8547 H 822.322 -0.61065 -1.49942 0
M  V30 8548 H 824.314 1.49079 -3.76241 0
M  V30 8549 H 822.884 1.57018 -2.70304 0
M  V30 8550 H 822.104 -0.611473 -3.89429 0
M  V30 8551 H 823.392 -0.324121 -5.07767 0
M  V30 8552 H 822.79 2.85127 -4.88589 0
M  V30 8553 H 821.347 2.94758 -5.81344 0
M  V30 8554 N 824.78 1.49157 -0.508906 0
M  V30 8555 C 826.02 2.04376 0.0310623 0
M  V30 8556 C 826.384 1.37946 1.33547 0
M  V30 8557 O 827.585 1.83931 1.96017 0
M  V30 8558 C 825.856 3.56985 0.172191 0
M  V30 8559 S 827.415 4.33728 0.665267 0
M  V30 8560 H 824.233 0.710997 -0.00199266 0
M  V30 8561 H 826.835 1.83119 -0.684674 0
M  V30 8562 H 825.539 4.02874 -0.78234 0
M  V30 8563 H 825.07 3.82661 0.912933 0
M  V30 8564 H 827.085 4.56992 1.9332 0
M  V30 8565 N 826.258 0.243083 1.55714 0
M  V30 8566 C 827.168 -0.668913 2.24862 0
M  V30 8567 C 828.184 -1.19638 1.26344 0
M  V30 8568 O 829.36 -1.23345 1.5921 0
M  V30 8569 C 826.425 -1.85084 2.93163 0
M  V30 8570 C 825.486 -1.36323 4.07081 0
M  V30 8571 C 824.719 -2.48882 4.72116 0
M  V30 8572 O 824.942 -3.67523 4.36214 0
M  V30 8573 O 823.876 -2.18857 5.60701 0
M  V30 8574 H 827.702 -0.109737 3.03502 0
M  V30 8575 H 825.287 0.0117411 1.49395 0
M  V30 8576 H 827.169 -2.54065 3.36197 0
M  V30 8577 H 825.844 -2.39771 2.17466 0
M  V30 8578 H 824.751 -0.640804 3.68571 0
M  V30 8579 H 826.084 -0.86249 4.84584 0
M  V30 8580 N 827.736 -1.57571 -0.0300757 0
M  V30 8581 C 828.683 -2.06492 -1.03101 0
M  V30 8582 C 829.653 -0.953862 -1.3598 0
M  V30 8583 O 830.838 -1.22436 -1.46335 0
M  V30 8584 C 827.978 -2.54826 -2.32718 0
M  V30 8585 C 827.091 -3.79718 -2.06006 0
M  V30 8586 C 826.226 -4.16668 -3.29487 0
M  V30 8587 C 825.265 -5.3448 -2.98324 0
M  V30 8588 N 824.402 -5.66867 -4.14254 0
M  V30 8589 H 829.242 -2.91755 -0.606877 0
M  V30 8590 H 826.779 -1.44252 -0.288038 0
M  V30 8591 H 828.737 -2.80916 -3.08451 0
M  V30 8592 H 827.367 -1.72481 -2.72856 0
M  V30 8593 H 826.419 -3.60718 -1.20774 0
M  V30 8594 H 827.731 -4.65569 -1.79017 0
M  V30 8595 H 826.885 -4.43881 -4.13588 0
M  V30 8596 H 825.624 -3.29466 -3.59588 0
M  V30 8597 H 824.629 -5.07021 -2.12625 0
M  V30 8598 H 825.854 -6.23334 -2.69502 0
M  V30 8599 H 823.8 -4.82625 -4.44308 0
M  V30 8600 H 823.717 -6.47226 -3.90685 0
M  V30 8601 H 824.985 -5.98656 -4.99231 0
M  V30 8602 N 829.214 0.302327 -1.54673 0
M  V30 8603 C 830.147 1.39738 -1.80412 0
M  V30 8604 C 831.125 1.48813 -0.655241 0
M  V30 8605 O 832.309 1.65895 -0.89505 0
M  V30 8606 C 829.436 2.7766 -1.93966 0
M  V30 8607 C 828.482 2.86014 -3.16383 0
M  V30 8608 S 829.315 2.48246 -4.74483 0
M  V30 8609 C 830.471 3.88198 -4.90971 0
M  V30 8610 H 830.704 1.17696 -2.73011 0
M  V30 8611 H 828.237 0.500364 -1.46068 0
M  V30 8612 H 830.195 3.571 -2.0246 0
M  V30 8613 H 828.856 2.96971 -1.02307 0
M  V30 8614 H 828.049 3.87174 -3.22664 0
M  V30 8615 H 827.651 2.14568 -3.06328 0
M  V30 8616 H 829.943 4.83181 -4.74913 0
M  V30 8617 H 830.886 3.86887 -5.93063 0
M  V30 8618 H 831.294 3.78139 -4.19131 0
M  V30 8619 N 830.692 1.47107 0.565454 0
M  V30 8620 C 831.602 1.61591 1.70075 0
M  V30 8621 C 832.618 0.498931 1.66693 0
M  V30 8622 O 833.794 0.765372 1.8629 0
M  V30 8623 C 830.859 1.61887 3.06583 0
M  V30 8624 C 829.92 2.84949 3.21096 0
M  V30 8625 C 829.153 2.85221 4.51093 0
M  V30 8626 O 829.376 1.94959 5.36048 0
M  V30 8627 O 828.31 3.76982 4.69221 0
M  V30 8628 H 832.136 2.57638 1.60799 0
M  V30 8629 H 829.721 1.30097 0.73451 0
M  V30 8630 H 831.603 1.64809 3.87835 0
M  V30 8631 H 830.278 0.69005 3.16259 0
M  V30 8632 H 829.185 2.87575 2.39273 0
M  V30 8633 H 830.518 3.77098 3.1632 0
M  V30 8634 N 832.17 -0.811516 1.35101 0
M  V30 8635 C 833.447 -1.55491 1.18667 0
M  V30 8636 C 833.827 -2.09775 -0.236189 0
M  V30 8637 O 833.175 -1.91989 -1.23905 0
M  V30 8638 C 833.385 -2.66732 2.25067 0
M  V30 8639 C 834.733 -3.35201 2.60625 0
M  V30 8640 O 835.757 -2.76998 2.23943 0
M  V30 8641 O 834.616 -4.40334 3.23679 0
M  V30 8642 H 831.71 -0.686783 0.460716 0
M  V30 8643 H 834.256 -0.851903 1.46768 0
M  V30 8644 H 833.028 -2.24457 3.20523 0
M  V30 8645 H 832.651 -3.44673 1.98208 0
M  V30 8646 N 833.648 -1.19017 -1.03309 0
M  V30 8647 C 834.896 -0.988258 -1.76289 0
M  V30 8648 C 835.217 0.482557 -1.88935 0
M  V30 8649 O 834.487 1.34969 -1.41987 0
M  V30 8650 H 833.067 -0.36267 -0.653054 0
M  V30 8651 H 835.729 -1.49836 -1.2464 0
M  V30 8652 H 834.825 -1.43273 -2.77271 0
M  V30 8653 N 835.127 1.22348 -0.993418 0
M  V30 8654 C 836.057 2.26584 -0.564088 0
M  V30 8655 C 837.038 1.65102 0.409298 0
M  V30 8656 O 838.223 1.91872 0.299819 0
M  V30 8657 C 835.353 3.47087 0.121554 0
M  V30 8658 C 834.307 4.21009 -0.770429 0
M  V30 8659 C 833.633 5.34678 0.0481586 0
M  V30 8660 C 834.933 4.79636 -2.06752 0
M  V30 8661 H 836.627 2.62749 -1.43538 0
M  V30 8662 H 834.173 1.26303 -0.691628 0
M  V30 8663 H 836.126 4.19166 0.433303 0
M  V30 8664 H 834.85 3.1002 1.0274 0
M  V30 8665 H 833.509 3.50764 -1.06583 0
M  V30 8666 H 833.157 4.93852 0.954933 0
M  V30 8667 H 832.857 5.85061 -0.545641 0
M  V30 8668 H 834.381 6.09573 0.353991 0
M  V30 8669 H 835.795 5.43654 -1.81969 0
M  V30 8670 H 834.192 5.4036 -2.61019 0
M  V30 8671 H 835.262 3.99659 -2.74592 0
M  V30 8672 N 836.605 0.766683 1.37694 0
M  V30 8673 C 837.535 0.163432 2.32927 0
M  V30 8674 C 838.516 -0.688861 1.55527 0
M  V30 8675 O 839.701 -0.627363 1.83787 0
M  V30 8676 C 836.831 -0.720416 3.39746 0
M  V30 8677 C 835.785 0.0301718 4.27989 0
M  V30 8678 C 835.111 -0.972788 5.25776 0
M  V30 8679 C 836.411 1.20623 5.0818 0
M  V30 8680 H 838.105 0.958988 2.83626 0
M  V30 8681 H 835.651 0.462601 1.36367 0
M  V30 8682 H 837.604 -1.15221 4.05342 0
M  V30 8683 H 836.328 -1.54844 2.8756 0
M  V30 8684 H 834.987 0.442685 3.63917 0
M  V30 8685 H 834.635 -1.79522 4.69873 0
M  V30 8686 H 834.335 -0.475145 5.85676 0
M  V30 8687 H 835.859 -1.40362 5.94248 0
M  V30 8688 H 837.273 0.851341 5.66944 0
M  V30 8689 H 835.67 1.63561 5.7738 0
M  V30 8690 H 836.74 2.01281 4.41151 0
M  V30 8691 N 838.083 -1.48885 0.516809 0
M  V30 8692 C 839.311 -2.06892 -0.0184017 0
M  V30 8693 C 839.726 -1.37511 -1.29368 0
M  V30 8694 O 839.083 -0.458409 -1.76649 0
M  V30 8695 C 839.134 -3.60566 -0.259673 0
M  V30 8696 O 838.855 -4.27338 0.965065 0
M  V30 8697 C 840.356 -4.35331 -0.836751 0
M  V30 8698 H 837.576 -0.670433 0.0275743 0
M  V30 8699 H 840.12 -1.91455 0.718689 0
M  V30 8700 H 838.275 -3.75653 -0.94678 0
M  V30 8701 H 838.689 -5.19287 0.737647 0
M  V30 8702 H 840.163 -5.43675 -0.955065 0
M  V30 8703 H 840.64 -3.9887 -1.83845 0
M  V30 8704 H 841.246 -4.2489 -0.186622 0
M  V30 8705 N 839.561 -0.251338 -1.55583 0
M  V30 8706 C 840.801 0.373651 -2.00956 0
M  V30 8707 C 841.165 1.54806 -1.13574 0
M  V30 8708 O 842.366 2.24108 -1.48422 0
M  V30 8709 C 840.637 0.768919 -3.49031 0
M  V30 8710 S 842.196 1.38381 -4.16409 0
M  V30 8711 H 839.014 0.117371 -0.701245 0
M  V30 8712 H 841.616 -0.367611 -1.92013 0
M  V30 8713 H 840.32 -0.0950492 -4.1029 0
M  V30 8714 H 839.851 1.54225 -3.61909 0
M  V30 8715 H 841.866 2.6728 -4.18062 0
M  V30 8716 N 841.039 1.57585 0.0217189 0
M  V30 8717 C 841.989 2.03506 1.02807 0
M  V30 8718 C 842.973 0.925716 1.31603 0
M  V30 8719 O 844.165 1.18958 1.31065 0
M  V30 8720 C 841.294 2.52407 2.32693 0
M  V30 8721 C 840.38 3.70176 2.06955 0
M  V30 8722 N 840.771 4.82641 1.513 0
M  V30 8723 C 839.069 3.77691 2.37204 0
M  V30 8724 C 839.77 5.64218 1.41536 0
M  V30 8725 N 838.746 5.09557 1.89348 0
M  V30 8726 H 842.548 2.87878 0.591899 0
M  V30 8727 H 840.062 1.60793 0.227875 0
M  V30 8728 H 842.059 2.83569 3.05605 0
M  V30 8729 H 840.719 1.69444 2.76982 0
M  V30 8730 H 841.73 5.03931 1.19472 0
M  V30 8731 H 838.407 3.05542 2.84517 0
M  V30 8732 H 839.797 6.64576 0.989333 0
M  V30 8733 N 842.517 -0.29412 1.54831 0
M  V30 8734 C 843.765 -1.02643 1.74094 0
M  V30 8735 C 844.086 -1.87563 0.533402 0
M  V30 8736 O 843.356 -1.9061 -0.452192 0
M  V30 8737 H 841.936 -0.381959 0.641963 0
M  V30 8738 H 844.598 -0.323444 1.92197 0
M  V30 8739 H 843.694 -1.67558 2.63307 0
M  V30 8740 N 843.995 -1.47404 -0.557645 0
M  V30 8741 C 845.406 -1.47872 -1.13977 0
M  V30 8742 C 845.757 -0.233176 -1.94809 0
M  V30 8743 O 844.882 0.661945 -2.06027 0
M  V30 8744 C 845.477 -2.67926 -2.07368 0
M  V30 8745 C 844.036 -2.71354 -2.60852 0
M  V30 8746 C 843.183 -2.40967 -1.37223 0
M  V30 8747 H 846.134 -1.54921 -0.344268 0
M  V30 8748 H 846.155 -2.44871 -2.91236 0
M  V30 8749 H 845.667 -3.58562 -1.48509 0
M  V30 8750 H 843.768 -1.84855 -3.23511 0
M  V30 8751 H 843.881 -3.72032 -3.01876 0
M  V30 8752 H 842.245 -1.91541 -1.67882 0
M  V30 8753 H 843.028 -3.33811 -0.801583 0
M  V30 8754 N 845.473 0.80434 -1.35529 0
M  V30 8755 C 846.721 1.55845 -1.28673 0
M  V30 8756 C 847.042 1.94511 0.137976 0
M  V30 8757 O 846.312 1.63775 1.07492 0
M  V30 8758 H 844.892 0.577931 -0.473291 0
M  V30 8759 H 847.554 0.959293 -1.69657 0
M  V30 8760 H 846.65 2.47285 -1.90411 0
M  V30 8761 N 846.951 1.19563 1.02676 0
M  V30 8762 C 848.362 1.00158 1.57561 0
M  V30 8763 C 848.713 -0.444922 1.91089 0
M  V30 8764 O 847.838 -1.32466 1.71119 0
M  V30 8765 C 848.433 1.81181 2.86284 0
M  V30 8766 C 846.992 1.66171 3.37734 0
M  V30 8767 C 846.139 1.7975 2.11152 0
M  V30 8768 H 849.09 1.33904 0.85179 0
M  V30 8769 H 849.111 1.30916 3.57269 0
M  V30 8770 H 848.623 2.86454 2.6185 0
M  V30 8771 H 846.724 0.634927 3.6715 0
M  V30 8772 H 846.837 2.46832 4.10622 0
M  V30 8773 H 845.201 1.22833 2.23123 0
M  V30 8774 H 845.984 2.86487 1.89157 0
M  V30 8775 N 848.429 -1.21819 0.999893 0
M  V30 8776 C 849.706 -1.86318 0.595384 0
M  V30 8777 C 850.086 -1.8965 -0.927143 0
M  V30 8778 O 849.434 -1.3921 -1.81199 0
M  V30 8779 C 849.644 -3.26837 1.22387 0
M  V30 8780 C 850.992 -4.03272 1.32878 0
M  V30 8781 O 852.016 -3.36129 1.1788 0
M  V30 8782 O 850.875 -5.23477 1.56952 0
M  V30 8783 H 847.969 -0.801638 0.203238 0
M  V30 8784 H 850.515 -1.29542 1.09622 0
M  V30 8785 H 849.287 -3.19084 2.26497 0
M  V30 8786 H 848.91 -3.91226 0.709069 0
M  V30 8787 N 849.908 -0.773975 -1.37286 0
M  V30 8788 C 850.856 -0.149581 -2.32119 0
M  V30 8789 C 851.85 0.682457 -1.55045 0
M  V30 8790 O 853.056 0.579269 -1.70424 0
M  V30 8791 H 849.431 -0.0295857 -0.751418 0
M  V30 8792 H 851.402 -0.965117 -2.82362 0
M  V30 8793 C 850.151 0.713409 -3.40302 0
M  V30 8794 H 849.474 0.0825416 -3.99715 0
M  V30 8795 H 850.914 1.11723 -4.09016 0
M  V30 8796 C 849.373 1.86498 -2.80571 0
M  V30 8797 O 849.903 2.9606 -2.71498 0
M  V30 8798 N 848.109 1.66629 -2.38082 0
M  V30 8799 H 847.656 0.775145 -2.45661 0
M  V30 8800 H 847.614 2.43845 -1.98461 0
M  V30 8801 N 851.386 1.48609 -0.524698 0
M  V30 8802 C 852.626 2.04398 0.00938367 0
M  V30 8803 C 852.99 1.39355 1.32077 0
M  V30 8804 O 854.191 1.86 1.94055 0
M  V30 8805 C 852.462 3.57148 0.134318 0
M  V30 8806 S 854.021 4.34409 0.619227 0
M  V30 8807 H 850.839 0.710936 -0.00953362 0
M  V30 8808 H 853.441 1.82382 -0.704058 0
M  V30 8809 H 852.145 4.02022 -0.825027 0
M  V30 8810 H 851.676 3.83607 0.872296 0
M  V30 8811 H 853.691 4.59017 1.88462 0
M  V30 8812 N 852.864 0.259585 1.55447 0
M  V30 8813 C 854.092 -0.365392 2.03648 0
M  V30 8814 C 854.507 -1.50613 1.13847 0
M  V30 8815 O 853.864 -1.81837 0.155414 0
M  V30 8816 C 853.915 -0.861172 3.51093 0
M  V30 8817 O 853.636 0.234121 4.37474 0
M  V30 8818 C 855.137 -1.55555 4.15111 0
M  V30 8819 H 852.357 -0.0853439 0.66555 0
M  V30 8820 H 854.901 0.387151 2.00802 0
M  V30 8821 H 853.056 -1.56385 3.54433 0
M  V30 8822 H 853.47 -0.1444 5.24301 0
M  V30 8823 H 854.944 -1.85403 5.19932 0
M  V30 8824 H 855.421 -2.48185 3.62355 0
M  V30 8825 H 856.027 -0.89712 4.15731 0
M  V30 8826 N 854.342 -1.57594 -0.0133615 0
M  V30 8827 C 855.289 -2.07574 -1.00905 0
M  V30 8828 C 856.259 -0.968231 -1.34961 0
M  V30 8829 O 857.444 -1.23981 -1.45028 0
M  V30 8830 C 854.584 -2.5728 -2.30002 0
M  V30 8831 C 853.697 -3.81881 -2.01967 0
M  V30 8832 C 852.832 -4.20139 -3.25049 0
M  V30 8833 C 851.871 -5.37614 -2.92639 0
M  V30 8834 N 851.008 -5.71229 -4.08218 0
M  V30 8835 H 855.848 -2.92382 -0.575899 0
M  V30 8836 H 853.385 -1.4455 -0.272722 0
M  V30 8837 H 855.343 -2.84171 -3.05454 0
M  V30 8838 H 853.973 -1.75365 -2.71011 0
M  V30 8839 H 853.025 -3.61979 -1.16942 0
M  V30 8840 H 854.337 -4.67441 -1.74069 0
M  V30 8841 H 853.491 -4.48242 -4.08857 0
M  V30 8842 H 852.23 -3.33262 -3.56073 0
M  V30 8843 H 851.235 -5.09248 -2.07235 0
M  V30 8844 H 852.46 -6.26157 -2.62876 0
M  V30 8845 H 850.406 -4.8731 -4.39164 0
M  V30 8846 H 850.323 -6.51333 -3.83799 0
M  V30 8847 H 851.591 -6.03917 -4.92854 0
M  V30 8848 N 855.82 0.285905 -1.54985 0
M  V30 8849 C 857.06 1.02699 -1.76726 0
M  V30 8850 C 857.424 1.83962 -0.549717 0
M  V30 8851 O 858.625 2.60943 -0.645142 0
M  V30 8852 C 856.896 1.89671 -3.02919 0
M  V30 8853 S 858.455 2.7022 -3.45726 0
M  V30 8854 H 855.273 0.346114 -0.621068 0
M  V30 8855 H 857.875 0.298764 -1.93204 0
M  V30 8856 H 856.579 1.28873 -3.89641 0
M  V30 8857 H 856.11 2.66836 -2.89071 0
M  V30 8858 H 858.125 3.92184 -3.03983 0
M  V30 8859 N 857.298 1.47698 0.54982 0
M  V30 8860 C 858.523 1.58579 1.33669 0
M  V30 8861 C 858.948 0.239049 1.86575 0
M  V30 8862 O 858.306 -0.786256 1.63364 0
M  V30 8863 C 858.354 2.62029 2.47736 0
M  V30 8864 O 857.458 2.17813 3.50188 0
M  V30 8865 H 856.799 0.532447 0.396732 0
M  V30 8866 H 859.329 1.93536 0.6637 0
M  V30 8867 H 859.339 2.82682 2.94202 0
M  V30 8868 H 858.014 3.59812 2.08586 0
M  V30 8869 H 856.591 2.07291 3.09976 0
M  V30 8870 N 858.776 -0.797141 1.35954 0
M  V30 8871 C 859.726 -1.89899 1.26184 0
M  V30 8872 C 860.71 -1.60152 0.155007 0
M  V30 8873 O 861.902 -1.72715 0.387108 0
M  V30 8874 C 859.031 -3.2699 1.04559 0
M  V30 8875 C 858.117 -3.62772 2.19675 0
M  V30 8876 N 858.508 -3.6992 3.44953 0
M  V30 8877 C 856.806 -3.92786 2.1127 0
M  V30 8878 C 857.507 -4.01718 4.20711 0
M  V30 8879 N 856.483 -4.16298 3.49567 0
M  V30 8880 H 860.285 -1.9364 2.2109 0
M  V30 8881 H 857.799 -0.992246 1.28562 0
M  V30 8882 H 859.796 -4.0578 0.956474 0
M  V30 8883 H 858.456 -3.24529 0.105467 0
M  V30 8884 H 859.467 -3.52759 3.79185 0
M  V30 8885 H 856.144 -3.98295 1.25168 0
M  V30 8886 H 857.534 -4.14237 5.29016 0
M  V30 8887 N 860.254 -1.20106 -1.0204 0
M  V30 8888 C 861.501 -1.00889 -1.75578 0
M  V30 8889 C 861.829 0.459415 -1.88996 0
M  V30 8890 O 861.084 1.35735 -1.40977 0
M  V30 8891 C 861.383 -1.63308 -3.17908 0
M  V30 8892 C 861.049 -3.13091 -3.24476 0
M  V30 8893 C 859.711 -3.53968 -3.25976 0
M  V30 8894 C 862.063 -4.09093 -3.22944 0
M  V30 8895 C 859.391 -4.89381 -3.2361 0
M  V30 8896 C 861.743 -5.44447 -3.22119 0
M  V30 8897 C 860.407 -5.84742 -3.2192 0
M  V30 8898 H 859.677 -0.36918 -0.642485 0
M  V30 8899 H 862.324 -1.49475 -1.19706 0
M  V30 8900 H 860.629 -1.06974 -3.76914 0
M  V30 8901 H 862.326 -1.45958 -3.73493 0
M  V30 8902 H 858.916 -2.80526 -3.24042 0
M  V30 8903 H 863.1 -3.78549 -3.20958 0
M  V30 8904 H 858.356 -5.1987 -3.21785 0
M  V30 8905 H 862.53 -6.18584 -3.19885 0
M  V30 8906 H 860.157 -6.89642 -3.19841 0
M  V30 8907 N 861.732 1.21287 -1.00634 0
M  V30 8908 C 862.679 2.23705 -0.567876 0
M  V30 8909 C 863.649 1.61043 0.406753 0
M  V30 8910 O 864.834 1.88289 0.308499 0
M  V30 8911 C 861.974 3.44961 0.097996 0
M  V30 8912 C 861.087 4.22091 -0.919972 0
M  V30 8913 C 860.222 5.30718 -0.226222 0
M  V30 8914 C 859.261 5.99581 -1.23165 0
M  V30 8915 N 858.398 6.99821 -0.565278 0
M  V30 8916 H 863.238 2.60571 -1.44592 0
M  V30 8917 H 860.775 1.28049 -0.724006 0
M  V30 8918 H 862.733 4.1418 0.501097 0
M  V30 8919 H 861.363 3.08818 0.939744 0
M  V30 8920 H 860.415 3.52038 -1.44131 0
M  V30 8921 H 861.727 4.69476 -1.68505 0
M  V30 8922 H 860.881 6.06253 0.232917 0
M  V30 8923 H 859.62 4.84343 0.571247 0
M  V30 8924 H 858.625 5.22816 -1.70128 0
M  V30 8925 H 859.85 6.48042 -2.03022 0
M  V30 8926 H 857.796 6.55656 0.212508 0
M  V30 8927 H 857.713 7.4528 -1.26858 0
M  V30 8928 H 858.981 7.79393 -0.129389 0
M  V30 8929 N 863.21 0.781244 1.36873 0
M  V30 8930 C 864.487 0.274217 1.93668 0
M  V30 8931 C 864.867 -1.2323 1.71399 0
M  V30 8932 O 864.215 -2.01993 1.06822 0
M  V30 8933 C 864.425 0.657939 3.42742 0
M  V30 8934 C 865.773 0.63307 4.19854 0
M  V30 8935 O 866.797 0.597909 3.51146 0
M  V30 8936 O 865.656 0.668636 5.42394 0
M  V30 8937 H 862.75 0.0658059 0.824378 0
M  V30 8938 H 865.296 0.863238 1.46104 0
M  V30 8939 H 864.068 1.69728 3.52573 0
M  V30 8940 H 863.691 0.0423678 3.97577 0
M  V30 8941 N 864.689 -1.48329 0.532571 0
M  V30 8942 C 865.937 -2.021 -0.000581206 0
M  V30 8943 C 866.258 -1.4117 -1.34522 0
M  V30 8944 O 865.528 -0.578005 -1.87179 0
M  V30 8945 H 864.108 -0.746993 -0.00320281 0
M  V30 8946 H 866.77 -1.82011 0.696991 0
M  V30 8947 H 865.866 -3.11917 -0.106991 0
M  V30 8948 N 866.167 -0.267825 -1.55308 0
M  V30 8949 C 867.578 0.231344 -1.85261 0
M  V30 8950 C 867.929 1.56006 -1.18982 0
M  V30 8951 O 867.054 2.1111 -0.475554 0
M  V30 8952 C 867.649 0.426537 -3.36104 0
M  V30 8953 C 866.208 0.869945 -3.66209 0
M  V30 8954 C 865.355 -0.0409522 -2.7727 0
M  V30 8955 H 868.306 -0.489821 -1.50952 0
M  V30 8956 H 868.327 1.26616 -3.58816 0
M  V30 8957 H 867.839 -0.540678 -3.84315 0
M  V30 8958 H 865.94 1.84889 -3.23492 0
M  V30 8959 H 866.053 0.712316 -4.73775 0
M  V30 8960 H 864.417 0.474097 -2.50249 0
M  V30 8961 H 865.2 -1.00392 -3.28293 0
M  V30 8962 N 867.645 1.57599 0.00500368 0
M  V30 8963 C 868.593 2.09223 1.01628 0
M  V30 8964 C 869.587 1.01113 1.35913 0
M  V30 8965 O 870.793 1.19583 1.34536 0
M  V30 8966 H 867.168 0.667999 0.345372 0
M  V30 8967 H 869.139 2.93188 0.555274 0
M  V30 8968 C 867.888 2.60674 2.30097 0
M  V30 8969 H 867.211 3.43491 2.04582 0
M  V30 8970 H 868.651 3.00479 2.99146 0
M  V30 8971 C 867.11 1.51862 3.00731 0
M  V30 8972 O 867.64 0.898651 3.91519 0
M  V30 8973 N 865.846 1.24729 2.62471 0
M  V30 8974 H 865.393 1.7533 1.88725 0
M  V30 8975 H 865.351 0.521437 3.10046 0
M  V30 8976 N 869.123 -0.277682 1.55134 0
M  V30 8977 C 870.363 -1.01761 1.77269 0
M  V30 8978 C 870.727 -1.83668 0.559465 0
M  V30 8979 O 871.928 -2.60597 0.658972 0
M  V30 8980 C 870.199 -1.88062 3.0392 0
M  V30 8981 S 871.758 -2.68383 3.47154 0
M  V30 8982 H 868.576 -0.342816 0.622895 0
M  V30 8983 H 871.178 -0.288514 1.93359 0
M  V30 8984 H 869.882 -1.26805 3.90319 0
M  V30 8985 H 869.413 -2.65299 2.90482 0
M  V30 8986 H 871.428 -3.90567 3.06059 0
M  V30 8987 N 870.601 -1.47988 -0.541979 0
M  V30 8988 C 871.847 -1.55623 -1.30036 0
M  V30 8989 C 872.18 -0.224254 -1.92901 0
M  V30 8990 O 871.455 0.768629 -1.78668 0
M  V30 8991 C 871.738 -2.68562 -2.39888 0
M  V30 8992 C 871.591 -4.11426 -1.81792 0
M  V30 8993 C 872.91 -2.77325 -3.41729 0
M  V30 8994 H 870.029 -0.566498 -0.471433 0
M  V30 8995 H 872.671 -1.8011 -0.604998 0
M  V30 8996 H 870.821 -2.47814 -2.992 0
M  V30 8997 H 872.493 -4.43581 -1.26624 0
M  V30 8998 H 870.736 -4.18989 -1.12386 0
M  V30 8999 H 871.407 -4.8625 -2.61276 0
M  V30 9000 H 873.883 -2.96085 -2.92357 0
M  V30 9001 H 872.759 -3.58097 -4.16002 0
M  V30 9002 H 873.02 -1.84995 -4.01534 0
M  V30 9003 N 872.079 0.78992 -1.36375 0
M  V30 9004 C 872.989 1.93386 -1.32812 0
M  V30 9005 C 874.005 1.72468 -0.230377 0
M  V30 9006 O 875.181 1.96014 -0.462657 0
M  V30 9007 C 872.246 3.2824 -1.11621 0
M  V30 9008 C 871.307 3.61939 -2.30865 0
M  V30 9009 C 870.54 4.90359 -2.10675 0
M  V30 9010 O 870.763 5.6005 -1.08168 0
M  V30 9011 O 869.697 5.22702 -2.9844 0
M  V30 9012 H 873.523 1.99342 -2.29121 0
M  V30 9013 H 871.108 0.9301 -1.16917 0
M  V30 9014 H 872.99 4.08939 -1.01719 0
M  V30 9015 H 871.665 3.23178 -0.183732 0
M  V30 9016 H 870.572 2.81549 -2.46335 0
M  V30 9017 H 871.905 3.71725 -3.22617 0
M  V30 9018 N 873.557 1.20646 1.01402 0
M  V30 9019 C 874.504 0.957618 2.09996 0
M  V30 9020 C 875.474 -0.113115 1.65714 0
M  V30 9021 O 876.659 0.032142 1.90773 0
M  V30 9022 C 873.799 0.5186 3.41181 0
M  V30 9023 C 872.912 1.65777 3.98926 0
M  V30 9024 C 872.047 1.16881 5.18182 0
M  V30 9025 C 871.086 2.2809 5.68015 0
M  V30 9026 N 870.223 1.80392 6.7853 0
M  V30 9027 H 875.063 1.88732 2.30617 0
M  V30 9028 H 872.6 0.940703 1.13089 0
M  V30 9029 H 874.558 0.245367 4.16478 0
M  V30 9030 H 873.188 -0.3741 3.20625 0
M  V30 9031 H 872.24 2.04586 3.207 0
M  V30 9032 H 873.552 2.49507 4.31912 0
M  V30 9033 H 872.706 0.851694 6.00692 0
M  V30 9034 H 871.445 0.301434 4.86768 0
M  V30 9035 H 870.45 2.60614 4.84108 0
M  V30 9036 H 871.675 3.15308 6.01463 0
M  V30 9037 H 869.621 0.959856 6.4894 0
M  V30 9038 H 869.538 2.57701 7.10722 0
M  V30 9039 H 870.806 1.51688 7.64598 0
M  V30 9040 N 875.035 -1.20752 1.01276 0
M  V30 9041 C 876.275 -1.91733 0.708372 0
M  V30 9042 C 876.639 -1.76836 -0.747855 0
M  V30 9043 O 877.84 -2.42262 -1.16458 0
M  V30 9044 C 876.111 -3.39155 1.12732 0
M  V30 9045 S 877.67 -4.28518 0.944325 0
M  V30 9046 H 874.488 -0.662394 0.25837 0
M  V30 9047 H 877.09 -1.46085 1.29921 0
M  V30 9048 H 875.794 -3.47516 2.18313 0
M  V30 9049 H 875.325 -3.89826 0.5291 0
M  V30 9050 H 877.34 -4.9596 -0.154278 0
M  V30 9051 N 876.513 -0.788492 -1.36457 0
M  V30 9052 C 877.924 -0.423742 -1.81828 0
M  V30 9053 C 878.275 1.05221 -1.65599 0
M  V30 9054 O 877.4 1.8163 -1.17641 0
M  V30 9055 C 877.995 -0.762354 -3.30112 0
M  V30 9056 C 876.554 -0.450445 -3.73695 0
M  V30 9057 C 875.701 -0.997482 -2.58738 0
M  V30 9058 H 878.652 -0.981718 -1.24692 0
M  V30 9059 H 878.673 -0.0531136 -3.80463 0
M  V30 9060 H 878.185 -1.83662 -3.41891 0
M  V30 9061 H 876.286 0.615829 -3.67476 0
M  V30 9062 H 876.399 -0.970408 -4.69169 0
M  V30 9063 H 874.763 -0.420761 -2.51201 0
M  V30 9064 H 875.546 -2.07749 -2.73304 0
M  V30 9065 N 877.991 1.48044 -0.54043 0
M  V30 9066 C 879.268 1.95523 0.0547302 0
M  V30 9067 C 879.648 1.48284 1.5025 0
M  V30 9068 O 878.996 0.714037 2.17057 0
M  V30 9069 C 879.206 3.48923 -0.0733393 0
M  V30 9070 C 880.554 4.24523 0.0806026 0
M  V30 9071 O 881.578 3.562 -5.58687e-05 0
M  V30 9072 O 880.437 5.45922 0.251216 0
M  V30 9073 H 877.531 0.823728 0.073493 0
M  V30 9074 H 880.077 1.5852 -0.605768 0
M  V30 9075 H 878.849 3.76059 -1.08144 0
M  V30 9076 H 878.472 3.92648 0.625536 0
M  V30 9077 N 879.47 0.276058 1.55163 0
M  V30 9078 C 880.718 -0.339782 1.99223 0
M  V30 9079 C 881.039 -1.56307 1.16589 0
M  V30 9080 O 880.309 -1.94225 0.25564 0
M  V30 9081 H 878.889 -0.128534 0.735859 0
M  V30 9082 H 881.551 0.381612 1.91128 0
M  V30 9083 H 880.647 -0.629 3.05696 0
M  V30 9084 N 880.948 -1.576 0.00335426 0
M  V30 9085 C 881.878 -2.11668 -0.985839 0
M  V30 9086 C 882.859 -1.02661 -1.35627 0
M  V30 9087 O 884.044 -1.30361 -1.43943 0
M  V30 9088 C 881.174 -2.62273 -2.27662 0
M  V30 9089 C 880.128 -3.75837 -2.0477 0
M  V30 9090 C 879.454 -4.12769 -3.39891 0
M  V30 9091 C 880.754 -5.02975 -1.40759 0
M  V30 9092 H 882.448 -2.9457 -0.535637 0
M  V30 9093 H 879.994 -1.41702 -0.256204 0
M  V30 9094 H 881.947 -2.98727 -2.97221 0
M  V30 9095 H 880.671 -1.76498 -2.74802 0
M  V30 9096 H 879.33 -3.39782 -1.37636 0
M  V30 9097 H 878.978 -3.24013 -3.8474 0
M  V30 9098 H 878.678 -4.89281 -3.25389 0
M  V30 9099 H 880.202 -4.51784 -4.1076 0
M  V30 9100 H 881.616 -5.37179 -2.00279 0
M  V30 9101 H 880.013 -5.84315 -1.36734 0
M  V30 9102 H 881.083 -4.83431 -0.377218 0
M  V30 9103 N 882.426 0.269451 -1.5528 0
M  V30 9104 C 883.358 1.35553 -1.84819 0
M  V30 9105 C 884.371 1.45369 -0.732914 0
M  V30 9106 O 885.56 1.47122 -1.0108 0
M  V30 9107 C 882.66 2.73645 -1.9993 0
M  V30 9108 C 881.833 2.86376 -3.30617 0
M  V30 9109 C 880.892 4.05165 -3.35749 0
M  V30 9110 O 879.918 3.95756 -4.09104 0
M  V30 9111 N 881.12 5.17297 -2.63408 0
M  V30 9112 H 883.885 1.10557 -2.78563 0
M  V30 9113 H 881.446 0.459566 -1.5524 0
M  V30 9114 H 883.438 3.51411 -2.00729 0
M  V30 9115 H 882.008 2.91448 -1.13035 0
M  V30 9116 H 881.228 1.95465 -3.42326 0
M  V30 9117 H 882.516 2.91815 -4.16799 0
M  V30 9118 H 881.914 5.2783 -2.03501 0
M  V30 9119 H 880.471 5.93281 -2.69927 0
M  V30 9120 N 883.904 1.48273 0.534124 0
M  V30 9121 C 885.152 1.55771 1.28762 0
M  V30 9122 C 885.473 0.231575 1.9362 0
M  V30 9123 O 884.743 -0.746533 1.81118 0
M  V30 9124 H 883.323 0.573851 0.47823 0
M  V30 9125 H 885.985 1.84712 0.621888 0
M  V30 9126 H 885.081 2.33657 2.06908 0
M  V30 9127 N 885.382 -0.782676 1.36792 0
M  V30 9128 C 886.345 -1.8772 1.31507 0
M  V30 9129 C 887.345 -1.59269 0.221349 0
M  V30 9130 O 888.535 -1.67555 0.476544 0
M  V30 9131 C 885.667 -3.24641 1.04025 0
M  V30 9132 H 886.86 -1.9382 2.28853 0
M  V30 9133 H 884.413 -0.981226 1.21662 0
M  V30 9134 H 885.148 -3.24221 0.0716439 0
M  V30 9135 H 884.933 -3.46681 1.8318 0
M  V30 9136 H 886.423 -4.04711 1.02949 0
M  V30 9137 N 886.86 -1.21182 -1.00761 0
M  V30 9138 C 887.808 -0.965728 -2.11604 0
M  V30 9139 C 888.802 0.0861028 -1.69181 0
M  V30 9140 O 890.008 -0.0650558 -1.79882 0
M  V30 9141 H 886.383 -0.295023 -0.691712 0
M  V30 9142 H 888.354 -1.90667 -2.2954 0
M  V30 9143 C 887.103 -0.544164 -3.43415 0
M  V30 9144 H 886.426 -1.34515 -3.76491 0
M  V30 9145 H 887.866 -0.411268 -4.22001 0
M  V30 9146 C 886.325 0.744583 -3.28569 0
M  V30 9147 O 886.855 1.80078 -3.59075 0
M  V30 9148 N 885.061 0.710083 -2.81791 0
M  V30 9149 H 884.608 -0.14971 -2.57165 0
M  V30 9150 H 884.566 1.57268 -2.72239 0
M  V30 9151 N 888.338 1.20213 -1.01915 0
M  V30 9152 C 889.563 1.94163 -0.729076 0
M  V30 9153 C 889.988 1.74416 0.704323 0
M  V30 9154 O 889.346 1.0401 1.48498 0
M  V30 9155 C 889.394 3.44258 -1.07324 0
M  V30 9156 O 888.498 4.11979 -0.186367 0
M  V30 9157 H 887.839 0.606506 -0.270272 0
M  V30 9158 H 890.369 1.52571 -1.3632 0
M  V30 9159 H 890.379 3.94888 -1.02603 0
M  V30 9160 H 889.054 3.57954 -2.11759 0
M  V30 9161 H 887.631 3.7176 -0.291334 0
M  V30 9162 N 889.816 0.795718 1.36037 0
M  V30 9163 C 891.063 0.371024 1.99072 0
M  V30 9164 C 891.391 -1.05896 1.63145 0
M  V30 9165 O 890.646 -1.7474 0.881163 0
M  V30 9166 C 890.945 0.489038 3.54038 0
M  V30 9167 C 890.611 1.88075 4.09803 0
M  V30 9168 C 889.273 2.26152 4.24745 0
M  V30 9169 C 891.625 2.79174 4.40126 0
M  V30 9170 C 888.953 3.54718 4.67324 0
M  V30 9171 C 891.305 4.07175 4.8414 0
M  V30 9172 C 889.969 4.45266 4.97287 0
M  V30 9173 H 889.239 0.135767 0.728456 0
M  V30 9174 H 891.886 1.0144 1.62426 0
M  V30 9175 H 890.191 -0.237823 3.91078 0
M  V30 9176 H 891.888 0.141374 4.00751 0
M  V30 9177 H 888.478 1.57488 3.98617 0
M  V30 9178 H 892.662 2.51009 4.28145 0
M  V30 9179 H 887.918 3.84093 4.75691 0
M  V30 9180 H 892.092 4.77875 5.06565 0
M  V30 9181 H 889.719 5.44943 5.30038 0
M  V30 9182 N 891.294 -1.47756 0.548274 0
M  V30 9183 C 892.543 -2.01691 0.0187961 0
M  V30 9184 C 892.856 -1.42894 -1.33569 0
M  V30 9185 O 894.062 -1.88438 -1.95457 0
M  V30 9186 C 892.518 -3.59896 -0.016847 0
M  V30 9187 C 892.126 -4.27683 1.33385 0
M  V30 9188 C 893.87 -4.21614 -0.494188 0
M  V30 9189 C 891.777 -5.7787 1.2578 0
M  V30 9190 H 890.707 -0.753993 0.00325648 0
M  V30 9191 H 893.358 -1.69838 0.694792 0
M  V30 9192 H 891.74 -3.88672 -0.758304 0
M  V30 9193 H 892.914 -4.10559 2.09232 0
M  V30 9194 H 891.229 -3.77915 1.7484 0
M  V30 9195 H 893.826 -5.3166 -0.569342 0
M  V30 9196 H 894.169 -3.88176 -1.50417 0
M  V30 9197 H 894.702 -3.97336 0.192138 0
M  V30 9198 H 891.441 -6.15912 2.2435 0
M  V30 9199 H 890.961 -5.97355 0.540997 0
M  V30 9200 H 892.64 -6.39897 0.956109 0
M  V30 9201 N 892.772 -0.284283 -1.55015 0
M  V30 9202 C 894.019 0.329864 -1.99795 0
M  V30 9203 C 894.347 1.55171 -1.1727 0
M  V30 9204 O 893.602 1.94312 -0.232667 0
M  V30 9205 C 893.901 0.747219 -3.49502 0
M  V30 9206 C 893.567 -0.37101 -4.49371 0
M  V30 9207 C 892.229 -0.678034 -4.76399 0
M  V30 9208 C 894.581 -1.12406 -5.08935 0
M  V30 9209 C 891.909 -1.74152 -5.60257 0
M  V30 9210 C 894.261 -2.17734 -5.93948 0
M  V30 9211 C 892.925 -2.49061 -6.19294 0
M  V30 9212 H 892.195 0.120706 -0.731103 0
M  V30 9213 H 894.842 -0.399904 -1.87278 0
M  V30 9214 H 893.147 1.55681 -3.59542 0
M  V30 9215 H 894.844 1.2333 -3.81563 0
M  V30 9216 H 891.434 -0.1216 -4.28427 0
M  V30 9217 H 895.618 -0.900119 -4.88069 0
M  V30 9218 H 890.874 -1.98915 -5.78137 0
M  V30 9219 H 895.048 -2.76553 -6.39133 0
M  V30 9220 H 892.675 -3.31602 -6.84064 0
M  V30 9221 N 894.251 1.57596 -0.0117121 0
M  V30 9222 C 895.198 2.09153 0.975897 0
M  V30 9223 C 896.168 0.989579 1.33404 0
M  V30 9224 O 897.353 1.26273 1.43038 0
M  V30 9225 C 894.493 2.60906 2.2588 0
M  V30 9226 C 893.606 3.85046 1.95866 0
M  V30 9227 C 892.741 4.25257 3.18323 0
M  V30 9228 C 891.78 5.42202 2.84049 0
M  V30 9229 N 890.917 5.77651 3.99079 0
M  V30 9230 H 895.757 2.93261 0.52931 0
M  V30 9231 H 893.294 1.44965 0.249691 0
M  V30 9232 H 895.252 2.88995 3.00895 0
M  V30 9233 H 893.882 1.79654 2.68187 0
M  V30 9234 H 892.934 3.63794 1.11168 0
M  V30 9235 H 894.246 4.70151 1.66611 0
M  V30 9236 H 893.4 4.5469 4.01674 0
M  V30 9237 H 892.139 3.38884 3.50726 0
M  V30 9238 H 891.144 5.1248 1.99107 0
M  V30 9239 H 892.369 6.3026 2.52881 0
M  V30 9240 H 890.315 4.94235 4.31356 0
M  V30 9241 H 890.232 6.57356 3.73388 0
M  V30 9242 H 891.5 6.11681 4.83183 0
M  V30 9243 N 895.729 -0.261212 1.5542 0
M  V30 9244 C 896.959 -1.00769 1.80358 0
M  V30 9245 C 897.367 -1.79991 0.583085 0
M  V30 9246 O 896.71 -1.77911 -0.457534 0
M  V30 9247 C 896.772 -2.00463 2.9842 0
M  V30 9248 C 896.436 -1.4007 4.35005 0
M  V30 9249 C 897.433 -0.810388 5.13545 0
M  V30 9250 C 895.118 -1.42436 4.81682 0
M  V30 9251 C 897.112 -0.251784 6.36903 0
M  V30 9252 C 894.799 -0.861897 6.04991 0
M  V30 9253 C 895.797 -0.276622 6.8244 0
M  V30 9254 O 895.485 0.277194 8.03422 0
M  V30 9255 H 895.217 -0.302839 0.604371 0
M  V30 9256 H 897.771 -0.293763 2.03288 0
M  V30 9257 H 896.001 -2.75648 2.71211 0
M  V30 9258 H 897.69 -2.61336 3.10577 0
M  V30 9259 H 898.456 -0.784719 4.7861 0
M  V30 9260 H 894.335 -1.8693 4.214 0
M  V30 9261 H 897.879 0.205678 6.97297 0
M  V30 9262 H 893.776 -0.884846 6.39407 0
M  V30 9263 H 894.544 0.167682 8.18328 0
M  V30 9264 N 897.207 -1.48554 -0.526253 0
M  V30 9265 C 898.17 -1.62868 -1.61266 0
M  V30 9266 C 899.17 -0.501762 -1.52771 0
M  V30 9267 O 900.36 -0.76764 -1.56374 0
M  V30 9268 C 897.492 -1.60238 -3.00893 0
M  V30 9269 H 898.685 -2.59742 -1.49913 0
M  V30 9270 H 896.238 -1.37207 -0.748595 0
M  V30 9271 H 896.973 -0.648545 -3.17749 0
M  V30 9272 H 896.758 -2.42054 -3.08468 0
M  V30 9273 H 898.248 -1.73455 -3.79872 0
M  V30 9274 N 898.685 0.775411 -1.37205 0
M  V30 9275 C 899.962 1.5229 -1.22748 0
M  V30 9276 C 900.342 2.10327 0.180487 0
M  V30 9277 O 899.69 1.95206 1.18772 0
M  V30 9278 C 899.9 2.60671 -2.3206 0
M  V30 9279 C 901.248 3.28173 -2.6942 0
M  V30 9280 O 902.272 2.70963 -2.31208 0
M  V30 9281 O 901.131 4.31598 -3.3524 0
M  V30 9282 H 898.225 0.674326 -0.478762 0
M  V30 9283 H 900.771 0.812691 -1.48975 0
M  V30 9284 H 899.543 2.1588 -3.26361 0
M  V30 9285 H 899.166 3.39296 -2.07277 0
M  V30 9286 N 900.163 1.21714 1.00117 0
M  V30 9287 C 901.574 1.03477 1.55401 0
M  V30 9288 C 901.925 -0.40429 1.91989 0
M  V30 9289 O 901.05 -1.28807 1.7389 0
M  V30 9290 C 901.645 1.87213 2.82377 0
M  V30 9291 C 900.204 1.73297 3.34133 0
M  V30 9292 C 899.351 1.84189 2.07291 0
M  V30 9293 H 902.302 1.3568 0.823195 0
M  V30 9294 H 902.323 1.38465 3.54412 0
M  V30 9295 H 901.835 2.91944 2.55715 0
M  V30 9296 H 899.936 0.712662 3.65721 0
M  V30 9297 H 900.049 2.55486 4.05294 0
M  V30 9298 H 898.413 1.27538 2.20468 0
M  V30 9299 H 899.196 2.90435 1.83037 0
M  V30 9300 N 901.641 -1.19671 1.02551 0
M  V30 9301 C 902.918 -1.85014 0.634771 0
M  V30 9302 C 903.298 -1.91574 -0.886706 0
M  V30 9303 O 902.646 -1.43022 -1.78205 0
M  V30 9304 C 902.856 -3.24167 1.29292 0
M  V30 9305 C 904.204 -4.00363 1.41402 0
M  V30 9306 O 905.228 -3.33553 1.24983 0
M  V30 9307 O 904.087 -5.2003 1.6802 0
M  V30 9308 H 901.181 -0.797147 0.220196 0
M  V30 9309 H 903.727 -1.27188 1.12345 0
M  V30 9310 H 902.499 -3.14208 2.33215 0
M  V30 9311 H 902.122 -3.89634 0.791895 0
M  V30 9312 N 903.119 -0.802921 -1.35613 0
M  V30 9313 C 904.535 -0.486214 -1.52014 0
M  V30 9314 C 904.735 0.993219 -1.75321 0
M  V30 9315 O 903.791 1.77835 -1.79251 0
M  V30 9316 C 905.104 -1.32839 -2.69767 0
M  V30 9317 C 906.652 -1.32346 -2.83643 0
M  V30 9318 C 907.127 -2.14967 -4.04417 0
M  V30 9319 N 908.618 -2.12484 -4.11588 0
M  V30 9320 C 909.353 -2.73173 -5.04147 0
M  V30 9321 N 908.849 -3.42774 -6.02061 0
M  V30 9322 N 910.642 -2.62834 -4.96865 0
M  V30 9323 H 902.793 -1.76109 -1.18741 0
M  V30 9324 H 905.056 -0.74936 -0.580658 0
M  V30 9325 H 904.762 -2.37813 -2.5911 0
M  V30 9326 H 904.636 -0.979058 -3.64272 0
M  V30 9327 H 907.023 -0.281586 -2.93753 0
M  V30 9328 H 907.104 -1.71264 -1.90006 0
M  V30 9329 H 906.748 -3.19193 -3.95068 0
M  V30 9330 H 906.678 -1.73411 -4.97228 0
M  V30 9331 H 909.169 -1.61839 -3.41492 0
M  V30 9332 H 909.482 -3.86378 -6.69277 0
M  V30 9333 H 907.827 -3.46878 -6.02246 0
M  V30 9334 H 911.018 -2.08049 -4.19325 0
M  V30 9335 H 911.191 -3.10421 -5.68808 0
M  V30 9336 N 904.597 1.47463 -0.556102 0
M  V30 9337 C 905.507 2.33785 0.195378 0
M  V30 9338 C 906.523 1.48123 0.913 0
M  V30 9339 O 907.699 1.81053 0.882141 0
M  V30 9340 C 904.764 3.24795 1.21282 0
M  V30 9341 C 903.825 4.26346 0.502747 0
M  V30 9342 C 903.058 5.13007 1.47172 0
M  V30 9343 O 903.281 5.02103 2.70646 0
M  V30 9344 O 902.215 5.93588 0.996814 0
M  V30 9345 H 906.041 2.99341 -0.512676 0
M  V30 9346 H 903.626 1.46004 -0.31673 0
M  V30 9347 H 905.508 3.81015 1.80016 0
M  V30 9348 H 904.183 2.61868 1.90282 0
M  V30 9349 H 903.09 3.73889 -0.125757 0
M  V30 9350 H 904.423 4.91984 -0.145779 0
M  V30 9351 N 906.075 0.2925 1.54862 0
M  V30 9352 C 907.315 -0.32024 2.01876 0
M  V30 9353 C 907.679 -1.5174 1.17639 0
M  V30 9354 O 908.88 -2.20094 1.54312 0
M  V30 9355 C 907.151 -0.67611 3.50947 0
M  V30 9356 S 908.71 -1.27292 4.19931 0
M  V30 9357 H 905.528 -0.0987374 0.704111 0
M  V30 9358 H 908.13 0.41839 1.90971 0
M  V30 9359 H 906.834 0.203797 4.09894 0
M  V30 9360 H 906.365 -1.44575 3.65871 0
M  V30 9361 H 908.38 -2.56102 4.25002 0
M  V30 9362 N 907.553 -1.57587 0.0200696 0
M  V30 9363 C 908.503 -2.0616 -0.973751 0
M  V30 9364 C 909.487 -0.960282 -1.29102 0
M  V30 9365 O 910.679 -1.22391 -1.27865 0
M  V30 9366 C 907.808 -2.58487 -2.25919 0
M  V30 9367 C 906.894 -3.75533 -1.97068 0
M  V30 9368 N 907.285 -4.86482 -1.38451 0
M  V30 9369 C 905.583 -3.83847 -2.27107 0
M  V30 9370 C 906.284 -5.67773 -1.26527 0
M  V30 9371 N 905.26 -5.14398 -1.75772 0
M  V30 9372 H 909.062 -2.89346 -0.515365 0
M  V30 9373 H 906.576 -1.61341 -0.185163 0
M  V30 9374 H 908.573 -2.91572 -2.97979 0
M  V30 9375 H 907.233 -1.76728 -2.72392 0
M  V30 9376 H 908.244 -5.06922 -1.06069 0
M  V30 9377 H 904.921 -3.12978 -2.76316 0
M  V30 9378 H 906.311 -6.66966 -0.812785 0
M  V30 9379 N 909.032 0.252966 -1.55557 0
M  V30 9380 C 910.443 0.822503 -1.67606 0
M  V30 9381 C 910.794 1.86265 -0.616411 0
M  V30 9382 O 909.919 2.15082 0.238447 0
M  V30 9383 C 910.514 1.49866 -3.03852 0
M  V30 9384 C 909.073 2.01597 -3.17861 0
M  V30 9385 C 908.22 0.864943 -2.63465 0
M  V30 9386 H 911.171 0.0288958 -1.58674 0
M  V30 9387 H 911.192 2.36646 -2.97958 0
M  V30 9388 H 910.704 0.741378 -3.80953 0
M  V30 9389 H 908.805 2.80224 -2.45571 0
M  V30 9390 H 908.918 2.21752 -4.24692 0
M  V30 9391 H 907.282 1.2638 -2.21134 0
M  V30 9392 H 908.065 0.120847 -3.43087 0
M  V30 9393 N 910.51 1.48831 0.518367 0
M  V30 9394 C 911.75 1.59045 1.28391 0
M  V30 9395 C 912.114 0.263443 1.90184 0
M  V30 9396 O 913.315 0.24064 2.67721 0
M  V30 9397 C 911.586 2.70536 2.33548 0
M  V30 9398 S 913.145 3.00591 3.19673 0
M  V30 9399 H 909.963 0.561182 0.436573 0
M  V30 9400 H 912.565 1.86409 0.589222 0
M  V30 9401 H 911.269 3.65499 1.86652 0
M  V30 9402 H 910.8 2.4511 3.07708 0
M  V30 9403 H 912.815 2.40779 4.33866 0
M  V30 9404 N 911.988 -0.768124 1.37614 0
M  V30 9405 C 912.938 -1.8718 1.30184 0
M  V30 9406 C 913.922 -1.59787 0.188943 0
M  V30 9407 O 915.114 -1.71855 0.423656 0
M  V30 9408 C 912.243 -3.24698 1.11471 0
M  V30 9409 C 911.329 -3.58031 2.27321 0
M  V30 9410 N 911.72 -3.6252 3.52722 0
M  V30 9411 C 910.018 -3.88216 2.19554 0
M  V30 9412 C 910.719 -3.92704 4.29137 0
M  V30 9413 N 909.695 -4.08789 3.58319 0
M  V30 9414 H 913.497 -1.88907 2.25147 0
M  V30 9415 H 911.011 -0.964753 1.30638 0
M  V30 9416 H 913.008 -4.0366 1.04233 0
M  V30 9417 H 911.668 -3.24232 0.174281 0
M  V30 9418 H 912.679 -3.44636 3.86583 0
M  V30 9419 H 909.356 -3.95551 1.33588 0
M  V30 9420 H 910.746 -4.02922 5.37683 0
M  V30 9421 N 913.466 -1.22244 -0.994698 0
M  V30 9422 C 914.877 -1.043 -1.5485 0
M  V30 9423 C 915.228 0.394102 -1.92201 0
M  V30 9424 O 914.353 1.27883 -1.74571 0
M  V30 9425 C 914.948 -1.88708 -2.8138 0
M  V30 9426 C 913.507 -1.75067 -3.3321 0
M  V30 9427 C 912.654 -1.85286 -2.06312 0
M  V30 9428 H 915.605 -1.36115 -0.815988 0
M  V30 9429 H 915.626 -1.40342 -3.53673 0
M  V30 9430 H 915.138 -2.93296 -2.54164 0
M  V30 9431 H 913.239 -0.732047 -3.65338 0
M  V30 9432 H 913.352 -2.57632 -4.03934 0
M  V30 9433 H 911.716 -1.28706 -2.19788 0
M  V30 9434 H 912.499 -2.91401 -1.81494 0
M  V30 9435 N 914.944 1.19125 -1.03184 0
M  V30 9436 C 915.892 2.24492 -0.608781 0
M  V30 9437 C 916.886 1.65529 0.360065 0
M  V30 9438 O 918.092 1.78546 0.22832 0
M  V30 9439 H 914.467 0.73048 -0.178616 0
M  V30 9440 H 916.438 2.5749 -1.50803 0
M  V30 9441 C 915.187 3.47693 0.0215126 0
M  V30 9442 H 914.51 3.93354 -0.715024 0
M  V30 9443 H 915.95 4.23072 0.280429 0
M  V30 9444 C 914.409 3.12088 1.26896 0
M  V30 9445 O 914.939 3.25013 2.36071 0
M  V30 9446 N 913.145 2.66494 1.15886 0
M  V30 9447 H 912.692 2.56176 0.270463 0
M  V30 9448 H 912.65 2.43042 1.99444 0
M  V30 9449 N 916.422 0.810101 1.35185 0
M  V30 9450 C 917.662 0.397802 2.00492 0
M  V30 9451 C 918.026 -1.01684 1.62863 0
M  V30 9452 O 919.227 -1.53133 2.20916 0
M  V30 9453 C 917.498 0.579524 3.5267 0
M  V30 9454 S 919.057 0.258169 4.3804 0
M  V30 9455 H 915.875 0.150904 0.694801 0
M  V30 9456 H 918.477 1.05312 1.64711 0
M  V30 9457 H 917.181 1.60901 3.77543 0
M  V30 9458 H 916.712 -0.0909886 3.93295 0
M  V30 9459 H 918.727 -0.932882 4.87352 0
M  V30 9460 N 917.9 -1.47166 0.563914 0
M  V30 9461 C 919.128 -2.06846 0.0474287 0
M  V30 9462 C 919.543 -1.41557 -1.24928 0
M  V30 9463 O 918.9 -0.514376 -1.75101 0
M  V30 9464 C 918.951 -3.6121 -0.144831 0
M  V30 9465 O 918.672 -4.24052 1.10053 0
M  V30 9466 C 920.173 -4.37773 -0.69783 0
M  V30 9467 H 917.393 -0.669217 0.0488896 0
M  V30 9468 H 919.937 -1.89072 0.779235 0
M  V30 9469 H 918.092 -3.78474 -0.82679 0
M  V30 9470 H 918.506 -5.16677 0.902481 0
M  V30 9471 H 919.98 -5.46438 -0.781616 0
M  V30 9472 H 920.457 -4.04517 -1.71063 0
M  V30 9473 H 921.063 -4.25269 -0.0513516 0
M  V30 9474 N 919.378 -0.300708 -1.54705 0
M  V30 9475 C 920.31 0.609179 -2.20956 0
M  V30 9476 C 921.323 1.09776 -1.20221 0
M  V30 9477 O 922.512 1.01527 -1.46815 0
M  V30 9478 C 919.612 1.84595 -2.84214 0
M  V30 9479 C 918.785 1.49991 -4.10879 0
M  V30 9480 C 917.844 2.5918 -4.57943 0
M  V30 9481 O 916.87 2.24285 -5.23149 0
M  V30 9482 N 918.072 3.89714 -4.30236 0
M  V30 9483 H 920.837 0.0420111 -2.99671 0
M  V30 9484 H 918.398 -0.122896 -1.61433 0
M  V30 9485 H 920.39 2.56988 -3.12633 0
M  V30 9486 H 918.96 2.32152 -2.09342 0
M  V30 9487 H 918.18 0.608637 -3.89473 0
M  V30 9488 H 919.468 1.24409 -4.93356 0
M  V30 9489 H 918.866 4.20874 -3.77997 0
M  V30 9490 H 917.423 4.58406 -4.63365 0
M  V30 9491 N 920.856 1.57574 -0.0284266 0
M  V30 9492 C 922.104 1.91393 0.649079 0
M  V30 9493 C 922.425 0.905368 1.72708 0
M  V30 9494 O 921.695 -0.0532107 1.95828 0
M  V30 9495 H 920.275 0.70646 0.24274 0
M  V30 9496 H 922.937 1.94752 -0.076066 0
M  V30 9497 H 922.033 2.91988 1.10226 0
M  V30 9498 N 922.334 -0.244713 1.55689 0
M  V30 9499 C 923.574 -0.979776 1.79387 0
M  V30 9500 C 923.938 -1.8244 0.598298 0
M  V30 9501 O 925.139 -2.59141 0.7141 0
M  V30 9502 C 923.41 -1.81573 3.07841 0
M  V30 9503 S 924.969 -2.60959 3.52769 0
M  V30 9504 H 921.787 -0.329526 0.630027 0
M  V30 9505 H 924.389 -0.247435 1.93928 0
M  V30 9506 H 923.093 -1.18497 3.92921 0
M  V30 9507 H 922.624 -2.59078 2.96044 0
M  V30 9508 H 924.639 -3.83987 3.14275 0
M  V30 9509 N 923.813 -1.49104 -0.510467 0
M  V30 9510 C 924.761 -1.65547 -1.63392 0
M  V30 9511 C 925.755 -0.521522 -1.61172 0
M  V30 9512 O 926.961 -0.700865 -1.65795 0
M  V30 9513 H 923.336 -0.521843 -0.541464 0
M  V30 9514 H 925.307 -2.59864 -1.46673 0
M  V30 9515 C 924.056 -1.73051 -3.01577 0
M  V30 9516 H 923.379 -2.59676 -3.03987 0
M  V30 9517 H 924.819 -1.88594 -3.79748 0
M  V30 9518 C 923.278 -0.47328 -3.33559 0
M  V30 9519 O 923.808 0.405239 -3.99651 0
M  V30 9520 N 922.014 -0.339074 -2.88615 0
M  V30 9521 H 921.561 -1.05497 -2.35007 0
M  V30 9522 H 921.519 0.501061 -3.10382 0
M  V30 9523 N 925.291 0.760815 -1.38019 0
M  V30 9524 C 926.539 1.51673 -1.33566 0
M  V30 9525 C 926.86 1.94852 0.076024 0
M  V30 9526 O 926.13 1.67112 1.02227 0
M  V30 9527 H 924.71 0.562581 -0.491438 0
M  V30 9528 H 927.372 0.904832 -1.72623 0
M  V30 9529 H 926.468 2.41102 -1.98182 0
M  V30 9530 N 926.769 1.22769 0.988202 0
M  V30 9531 C 928.18 1.0512 1.54294 0
M  V30 9532 C 928.531 -0.383904 1.92407 0
M  V30 9533 O 927.656 -1.26955 1.75246 0
M  V30 9534 C 928.251 1.90198 2.80375 0
M  V30 9535 C 926.81 1.76831 3.32276 0
M  V30 9536 C 925.957 1.86377 2.05326 0
M  V30 9537 H 928.908 1.36546 0.808758 0
M  V30 9538 H 928.929 1.42216 3.52923 0
M  V30 9539 H 928.441 2.9464 2.52605 0
M  V30 9540 H 926.542 0.751412 3.64945 0
M  V30 9541 H 926.655 2.59771 4.02562 0
M  V30 9542 H 925.019 1.2987 2.19103 0
M  V30 9543 H 925.802 2.9236 1.79946 0
M  V30 9544 N 928.247 -1.18576 1.03814 0
M  V30 9545 C 929.475 -1.92437 0.759966 0
M  V30 9546 C 929.89 -1.76031 -0.682526 0
M  V30 9547 O 929.247 -1.08829 -1.46501 0
M  V30 9548 C 929.298 -3.43923 1.11351 0
M  V30 9549 O 929.019 -3.5981 2.49937 0
M  V30 9550 C 930.52 -4.34888 0.859472 0
M  V30 9551 H 927.74 -0.610998 0.277349 0
M  V30 9552 H 930.284 -1.50448 1.38512 0
M  V30 9553 H 928.439 -3.83711 0.533362 0
M  V30 9554 H 928.853 -4.53569 2.63393 0
M  V30 9555 H 930.327 -5.39744 1.15672 0
M  V30 9556 H 930.804 -4.38717 -0.205839 0
M  V30 9557 H 931.41 -4.00795 1.42279 0
M  V30 9558 N 929.725 -0.817259 -1.34754 0
M  V30 9559 C 930.95 -0.414423 -2.03217 0
M  V30 9560 C 931.375 0.970037 -1.61158 0
M  V30 9561 O 930.733 1.63016 -0.793436 0
M  V30 9562 C 930.781 -0.518087 -3.56859 0
M  V30 9563 O 929.885 0.464314 -4.09778 0
M  V30 9564 H 929.226 -0.171454 -0.641482 0
M  V30 9565 H 931.756 -1.10611 -1.72123 0
M  V30 9566 H 931.766 -0.391779 -4.06115 0
M  V30 9567 H 930.441 -1.52786 -3.86819 0
M  V30 9568 H 929.018 0.297361 -3.71712 0
M  V30 9569 N 931.203 1.46865 -0.571711 0
M  V30 9570 C 932.153 2.27219 0.188503 0
M  V30 9571 C 933.137 1.35221 0.872019 0
M  V30 9572 O 934.329 1.59474 0.76793 0
M  V30 9573 C 931.458 3.21321 1.20862 0
M  V30 9574 C 930.544 4.20803 0.527783 0
M  V30 9575 N 930.935 5.04132 -0.410403 0
M  V30 9576 C 929.233 4.39128 0.779909 0
M  V30 9577 C 929.934 5.76071 -0.80728 0
M  V30 9578 N 928.91 5.43368 -0.158865 0
M  V30 9579 H 932.712 2.89034 -0.532611 0
M  V30 9580 H 930.226 1.57581 -0.392696 0
M  V30 9581 H 932.223 3.77586 1.76733 0
M  V30 9582 H 930.883 2.61065 1.93067 0
M  V30 9583 H 931.894 5.11911 -0.785351 0
M  V30 9584 H 928.571 3.90031 1.48937 0
M  V30 9585 H 929.961 6.53082 -1.57903 0
M  V30 9586 N 932.681 0.308908 1.54543 0
M  V30 9587 C 933.958 -0.351558 1.92415 0
M  V30 9588 C 934.338 -1.71061 1.23699 0
M  V30 9589 O 933.686 -2.25394 0.3755 0
M  V30 9590 C 933.896 -0.458357 3.45977 0
M  V30 9591 C 935.244 -0.725524 4.18355 0
M  V30 9592 O 936.268 -0.541859 3.52054 0
M  V30 9593 O 935.127 -1.07884 5.35745 0
M  V30 9594 H 932.221 -0.197957 0.802958 0
M  V30 9595 H 934.767 0.357548 1.65891 0
M  V30 9596 H 933.539 0.496723 3.88134 0
M  V30 9597 H 933.162 -1.21562 3.78561 0
M  V30 9598 N 934.159 -1.57557 0.0367827 0
M  V30 9599 C 935.399 -1.93981 -0.644252 0
M  V30 9600 C 935.763 -0.913982 -1.6885 0
M  V30 9601 O 936.964 -1.16468 -2.42257 0
M  V30 9602 C 935.235 -3.35281 -1.23779 0
M  V30 9603 S 936.794 -3.93643 -1.93883 0
M  V30 9604 H 933.612 -0.678683 -0.21192 0
M  V30 9605 H 936.214 -1.95232 0.102281 0
M  V30 9606 H 934.918 -4.07752 -0.465451 0
M  V30 9607 H 934.449 -3.37492 -2.02146 0
M  V30 9608 H 936.464 -3.777 -3.21803 0
M  V30 9609 N 935.637 0.236453 -1.55816 0
M  V30 9610 C 936.886 0.960981 -1.77336 0
M  V30 9611 C 937.199 1.86085 -0.602641 0
M  V30 9612 O 938.405 2.62291 -0.701106 0
M  V30 9613 C 936.861 1.75884 -3.13995 0
M  V30 9614 C 936.469 0.905849 -4.38746 0
M  V30 9615 C 938.213 2.47548 -3.44848 0
M  V30 9616 C 936.12 1.7002 -5.66434 0
M  V30 9617 H 935.05 0.362547 -0.661117 0
M  V30 9618 H 937.701 0.215303 -1.82233 0
M  V30 9619 H 936.083 2.54687 -3.03234 0
M  V30 9620 H 937.257 0.159415 -4.60524 0
M  V30 9621 H 935.572 0.30205 -4.15303 0
M  V30 9622 H 938.169 3.07452 -4.37467 0
M  V30 9623 H 938.512 3.19689 -2.66655 0
M  V30 9624 H 939.045 1.75747 -3.56872 0
M  V30 9625 H 935.784 1.02234 -6.47479 0
M  V30 9626 H 935.304 2.42164 -5.48741 0
M  V30 9627 H 936.983 2.26469 -6.0607 0
M  V30 9628 N 937.115 1.49373 0.502552 0
M  V30 9629 C 938.345 1.62252 1.27898 0
M  V30 9630 C 938.753 0.292555 1.86924 0
M  V30 9631 O 938.096 -0.731823 1.68493 0
M  V30 9632 C 938.158 2.63153 2.4493 0
M  V30 9633 C 937.822 4.07541 2.06784 0
M  V30 9634 C 938.819 4.94392 1.60849 0
M  V30 9635 C 936.504 4.53263 2.16466 0
M  V30 9636 C 938.498 6.25003 1.25098 0
M  V30 9637 C 936.185 5.83888 1.80327 0
M  V30 9638 C 937.183 6.69582 1.34718 0
M  V30 9639 O 936.871 7.97773 0.990661 0
M  V30 9640 H 936.603 0.54918 0.394179 0
M  V30 9641 H 939.157 1.96132 0.610031 0
M  V30 9642 H 937.387 2.2445 3.14895 0
M  V30 9643 H 939.076 2.65578 3.06957 0
M  V30 9644 H 939.842 4.60296 1.52816 0
M  V30 9645 H 935.721 3.86731 2.50919 0
M  V30 9646 H 939.265 6.91844 0.894269 0
M  V30 9647 H 935.162 6.17513 1.8801 0
M  V30 9648 H 935.93 8.1077 1.12227 0
M  V30 9649 N 938.594 -0.753485 1.38421 0
M  V30 9650 C 939.824 -1.54049 1.37669 0
M  V30 9651 C 940.232 -1.89167 -0.0353656 0
M  V30 9652 O 939.575 -1.53285 -1.01239 0
M  V30 9653 C 939.637 -2.86777 2.16793 0
M  V30 9654 C 939.301 -2.74196 3.65603 0
M  V30 9655 C 940.298 -2.43985 4.59094 0
M  V30 9656 C 937.983 -2.91645 4.0896 0
M  V30 9657 C 939.977 -2.31379 5.93921 0
M  V30 9658 C 937.664 -2.78658 5.43868 0
M  V30 9659 C 938.662 -2.48568 6.36163 0
M  V30 9660 O 938.35 -2.3564 7.68589 0
M  V30 9661 H 938.082 -0.483276 0.472673 0
M  V30 9662 H 940.636 -0.940267 1.82615 0
M  V30 9663 H 938.866 -3.48988 1.66565 0
M  V30 9664 H 940.555 -3.48289 2.08446 0
M  V30 9665 H 941.321 -2.30172 4.26902 0
M  V30 9666 H 937.2 -3.14063 3.37469 0
M  V30 9667 H 940.744 -2.07813 6.65927 0
M  V30 9668 H 936.641 -2.92044 5.75656 0
M  V30 9669 H 937.409 -2.50851 7.79112 0
M  V30 9670 N 940.072 -1.23292 -0.981677 0
M  V30 9671 C 941.483 -1.05936 -1.53735 0
M  V30 9672 C 941.834 0.373695 -1.92608 0
M  V30 9673 O 940.959 1.26024 -1.75917 0
M  V30 9674 C 941.554 -1.91682 -2.79363 0
M  V30 9675 C 940.113 -1.78591 -3.31334 0
M  V30 9676 C 939.26 -1.87463 -2.04335 0
M  V30 9677 H 942.211 -1.36973 -0.801505 0
M  V30 9678 H 942.232 -1.44085 -3.52164 0
M  V30 9679 H 941.744 -2.95975 -2.51039 0
M  V30 9680 H 939.845 -0.770755 -3.64541 0
M  V30 9681 H 939.958 -2.61902 -4.01179 0
M  V30 9682 H 938.322 -1.3103 -2.18411 0
M  V30 9683 H 939.105 -2.9331 -1.78394 0
M  V30 9684 N 941.55 1.18024 -1.04442 0
M  V30 9685 C 942.796 1.88631 -0.760907 0
M  V30 9686 C 943.151 1.79059 0.703957 0
M  V30 9687 O 942.444 1.18261 1.50748 0
M  V30 9688 C 942.638 3.37834 -1.16631 0
M  V30 9689 C 942.467 3.61929 -2.66904 0
M  V30 9690 C 941.237 3.7908 -3.34105 0
M  V30 9691 C 943.435 3.622 -3.65124 0
M  V30 9692 N 941.417 3.90949 -4.73321 0
M  V30 9693 C 942.788 3.79827 -4.90032 0
M  V30 9694 C 944.843 3.45308 -3.58701 0
M  V30 9695 C 943.546 3.82312 -6.09287 0
M  V30 9696 C 945.572 3.49078 -4.77387 0
M  V30 9697 C 944.934 3.67206 -6.01115 0
M  V30 9698 H 941.033 0.708704 -0.330549 0
M  V30 9699 H 943.617 1.41739 -1.33485 0
M  V30 9700 H 941.788 3.83413 -0.6204 0
M  V30 9701 H 943.52 3.96026 -0.83342 0
M  V30 9702 H 940.275 3.78619 -2.84508 0
M  V30 9703 H 940.699 4.00696 -5.45685 0
M  V30 9704 H 945.341 3.30236 -2.64015 0
M  V30 9705 H 943.059 3.96171 -7.04325 0
M  V30 9706 H 946.645 3.37277 -4.74063 0
M  V30 9707 H 945.525 3.70017 -6.91417 0
M  V30 9708 N 943.028 0.824394 1.34319 0
M  V30 9709 C 944.256 0.426194 2.02463 0
M  V30 9710 C 944.671 -0.968298 1.62078 0
M  V30 9711 O 944.028 -1.62689 0.82696 0
M  V30 9712 C 944.079 0.520465 3.57734 0
M  V30 9713 O 943.8 1.86 3.96656 0
M  V30 9714 C 945.301 0.117353 4.43145 0
M  V30 9715 H 942.521 0.170864 0.648881 0
M  V30 9716 H 945.065 1.11296 1.71562 0
M  V30 9717 H 943.22 -0.118233 3.8722 0
M  V30 9718 H 943.634 1.83528 4.91343 0
M  V30 9719 H 945.108 0.234395 5.51502 0
M  V30 9720 H 945.585 -0.939271 4.29039 0
M  V30 9721 H 946.191 0.729908 4.1899 0
M  V30 9722 N 944.506 -1.46559 0.579492 0
M  V30 9723 C 945.754 -2.02 0.0637157 0
M  V30 9724 C 946.075 -1.45378 -1.29962 0
M  V30 9725 O 945.345 -0.637262 -1.85245 0
M  V30 9726 H 943.925 -0.746717 0.0205638 0
M  V30 9727 H 946.587 -1.79702 0.754544 0
M  V30 9728 H 945.683 -3.12099 -0.00770254 0
M  V30 9729 N 945.984 -0.3171 -1.54377 0
M  V30 9730 C 946.934 0.567199 -2.20832 0
M  V30 9731 C 947.918 1.08661 -1.18666 0
M  V30 9732 O 949.11 1.0247 -1.44322 0
M  V30 9733 C 946.239 1.73079 -2.96477 0
M  V30 9734 C 945.325 1.22658 -4.05975 0
M  V30 9735 N 945.716 0.441565 -5.03869 0
M  V30 9736 C 944.014 1.50589 -4.19808 0
M  V30 9737 C 944.715 0.171063 -5.81448 0
M  V30 9738 N 943.691 0.755389 -5.38326 0
M  V30 9739 H 947.493 -0.0399349 -2.93873 0
M  V30 9740 H 945.007 -0.122639 -1.61936 0
M  V30 9741 H 947.004 2.37601 -3.42566 0
M  V30 9742 H 945.664 2.34146 -2.24957 0
M  V30 9743 H 946.675 0.0849921 -5.1783 0
M  V30 9744 H 943.352 2.12288 -3.595 0
M  V30 9745 H 944.742 -0.460484 -6.7032 0
M  V30 9746 N 947.462 1.57535 -0.0451378 0
M  V30 9747 C 948.687 1.97172 0.64326 0
M  V30 9748 C 949.112 0.922266 1.63939 0
M  V30 9749 O 948.47 -0.115155 1.80934 0
M  V30 9750 C 948.518 3.35889 1.3119 0
M  V30 9751 O 947.622 3.33387 2.42748 0
M  V30 9752 H 946.963 0.642469 0.167719 0
M  V30 9753 H 949.493 2.04295 -0.111747 0
M  V30 9754 H 949.503 3.72481 1.66499 0
M  V30 9755 H 948.178 4.1181 0.581823 0
M  V30 9756 H 946.755 3.08533 2.09432 0
M  V30 9757 N 948.94 -0.228186 1.55939 0
M  V30 9758 C 950.168 -0.970618 1.8272 0
M  V30 9759 C 950.583 -1.78212 0.623385 0
M  V30 9760 O 949.94 -1.77879 -0.408063 0
M  V30 9761 C 949.991 -1.89352 3.07942 0
M  V30 9762 O 949.712 -1.11483 4.23678 0
M  V30 9763 C 951.213 -2.75039 3.47661 0
M  V30 9764 H 948.433 -0.284772 0.607574 0
M  V30 9765 H 950.977 -0.245419 2.03022 0
M  V30 9766 H 949.132 -2.57275 2.89635 0
M  V30 9767 H 949.546 -1.74073 4.94772 0
M  V30 9768 H 951.02 -3.35511 4.38334 0
M  V30 9769 H 951.497 -3.471 2.69106 0
M  V30 9770 H 952.103 -2.1254 3.68384 0
M  V30 9771 N 950.418 -1.49637 -0.494624 0
M  V30 9772 C 951.348 -1.69692 -1.60396 0
M  V30 9773 C 952.329 -0.545648 -1.61111 0
M  V30 9774 O 953.514 -0.782202 -1.77751 0
M  V30 9775 C 950.644 -1.76934 -2.9885 0
M  V30 9776 C 949.598 -2.91915 -3.13001 0
M  V30 9777 C 948.924 -2.84276 -4.5287 0
M  V30 9778 C 950.224 -4.32764 -2.92426 0
M  V30 9779 H 951.918 -2.6257 -1.43866 0
M  V30 9780 H 949.464 -1.26355 -0.690679 0
M  V30 9781 H 951.417 -1.8955 -3.76362 0
M  V30 9782 H 950.141 -0.806609 -3.16483 0
M  V30 9783 H 948.8 -2.78911 -2.37916 0
M  V30 9784 H 948.448 -1.85897 -4.67388 0
M  V30 9785 H 948.148 -3.61452 -4.63278 0
M  V30 9786 H 949.672 -2.98909 -5.32434 0
M  V30 9787 H 951.086 -4.46415 -3.59703 0
M  V30 9788 H 949.483 -5.1121 -3.143 0
M  V30 9789 H 950.553 -4.46765 -1.88491 0
M  V30 9790 N 951.896 0.746133 -1.38819 0
M  V30 9791 C 953.307 1.32384 -1.31648 0
M  V30 9792 C 953.658 1.96185 0.0243086 0
M  V30 9793 O 952.783 1.95567 0.92641 0
M  V30 9794 C 953.378 2.40712 -2.38418 0
M  V30 9795 C 951.937 2.94185 -2.34803 0
M  V30 9796 C 951.084 1.67639 -2.20891 0
M  V30 9797 H 954.035 0.544457 -1.49068 0
M  V30 9798 H 954.056 3.20833 -2.04564 0
M  V30 9799 H 953.568 1.94247 -3.3599 0
M  V30 9800 H 951.669 3.44959 -1.40834 0
M  V30 9801 H 951.782 3.48057 -3.29231 0
M  V30 9802 H 950.146 1.9155 -1.67871 0
M  V30 9803 H 950.929 1.23242 -3.20416 0
M  V30 9804 N 953.375 1.23811 0.975125 0
M  V30 9805 C 954.307 0.981779 2.07108 0
M  V30 9806 C 955.32 -0.0461211 1.62735 0
M  V30 9807 O 956.509 0.190039 1.77486 0
M  V30 9808 C 953.609 0.458364 3.35786 0
M  V30 9809 C 952.782 1.54767 4.09104 0
M  V30 9810 C 951.841 1.0282 5.16057 0
M  V30 9811 O 950.867 1.71831 5.42644 0
M  V30 9812 N 952.069 -0.141243 5.80328 0
M  V30 9813 H 954.834 1.92537 2.29673 0
M  V30 9814 H 952.395 1.1474 1.14221 0
M  V30 9815 H 954.387 0.0957686 4.04587 0
M  V30 9816 H 952.957 -0.390768 3.10148 0
M  V30 9817 H 952.177 2.08279 3.34684 0
M  V30 9818 H 953.465 2.28006 4.54853 0
M  V30 9819 H 952.863 -0.718382 5.6112 0
M  V30 9820 H 951.42 -0.445052 6.50279 0
M  V30 9821 N 954.853 -1.17469 1.05066 0
M  V30 9822 C 955.803 -2.19388 0.620713 0
M  V30 9823 C 956.787 -1.5722 -0.34214 0
M  V30 9824 O 957.979 -1.76279 -0.159574 0
M  V30 9825 C 955.108 -3.433 -0.00438518 0
M  V30 9826 C 954.194 -4.12569 0.982218 0
M  V30 9827 N 954.585 -4.57683 2.15313 0
M  V30 9828 C 952.883 -4.38575 0.810416 0
M  V30 9829 C 953.584 -5.11124 2.77719 0
M  V30 9830 N 952.56 -5.0325 2.05525 0
M  V30 9831 H 956.362 -2.51971 1.51287 0
M  V30 9832 H 953.876 -1.33784 0.920625 0
M  V30 9833 H 955.873 -4.15591 -0.330161 0
M  V30 9834 H 954.533 -3.12209 -0.89195 0
M  V30 9835 H 955.544 -4.51812 2.53154 0
M  V30 9836 H 952.221 -4.17492 -0.0262078 0
M  V30 9837 H 953.611 -5.56161 3.77008 0
M  V30 9838 N 956.331 -0.831506 -1.3388 0
M  V30 9839 C 957.294 -0.264773 -2.27666 0
M  V30 9840 C 958.294 0.562273 -1.50649 0
M  V30 9841 O 959.484 0.377131 -1.70069 0
M  V30 9842 C 956.616 0.627814 -3.35069 0
M  V30 9843 H 957.809 -1.09225 -2.79303 0
M  V30 9844 H 955.362 -0.604021 -1.44157 0
M  V30 9845 H 956.097 1.47802 -2.88661 0
M  V30 9846 H 955.882 0.0361552 -3.92083 0
M  V30 9847 H 957.372 1.01786 -4.05005 0
M  V30 9848 N 957.809 1.4625 -0.587256 0
M  V30 9849 C 959.225 1.57641 -0.249284 0
M  V30 9850 C 959.425 1.58169 1.24839 0
M  V30 9851 O 958.481 1.50109 2.03036 0
M  V30 9852 C 959.794 2.86837 -0.902509 0
M  V30 9853 C 961.342 3.00476 -0.876524 0
M  V30 9854 C 961.817 4.32414 -1.50938 0
M  V30 9855 N 963.308 4.39124 -1.47392 0
M  V30 9856 C 964.043 5.39838 -1.93293 0
M  V30 9857 N 963.539 6.47202 -2.47188 0
M  V30 9858 N 965.332 5.31068 -1.84183 0
M  V30 9859 H 957.483 1.44151 -1.55994 0
M  V30 9860 H 959.746 0.687905 -0.652297 0
M  V30 9861 H 959.452 2.92274 -1.95624 0
M  V30 9862 H 959.326 3.74927 -0.413466 0
M  V30 9863 H 961.713 2.94618 0.168601 0
M  V30 9864 H 961.794 2.1385 -1.40363 0
M  V30 9865 H 961.438 4.3903 -2.55372 0
M  V30 9866 H 961.368 5.17823 -0.957455 0
M  V30 9867 H 963.859 3.62138 -1.08002 0
M  V30 9868 H 964.172 7.20269 -2.80058 0
M  V30 9869 H 962.517 6.48009 -2.51216 0
M  V30 9870 H 965.708 4.46095 -1.41833 0
M  V30 9871 H 965.881 6.09414 -2.2027 0
M  V30 9872 N 959.287 0.325282 1.54207 0
M  V30 9873 C 960.515 -0.27869 2.05014 0
M  V30 9874 C 960.93 -1.45649 1.20133 0
M  V30 9875 O 960.287 -1.81014 0.232398 0
M  V30 9876 C 960.338 -0.711486 3.54429 0
M  V30 9877 O 960.059 0.419458 4.36087 0
M  V30 9878 C 961.56 -1.37809 4.21336 0
M  V30 9879 H 958.78 -0.0570388 0.668571 0
M  V30 9880 H 961.324 0.47197 1.98979 0
M  V30 9881 H 959.479 -1.41212 3.60746 0
M  V30 9882 H 959.893 0.0781037 5.24442 0
M  V30 9883 H 961.367 -1.63184 5.27328 0
M  V30 9884 H 961.844 -2.32593 3.72555 0
M  V30 9885 H 962.45 -0.719987 4.19161 0
M  V30 9886 N 960.765 -1.57509 0.0534917 0
M  V30 9887 C 962.176 -1.80374 -0.481867 0
M  V30 9888 C 962.527 -0.965917 -1.70776 0
M  V30 9889 O 961.652 -0.183167 -2.15623 0
M  V30 9890 C 962.247 -3.27146 -0.880978 0
M  V30 9891 C 960.806 -3.50921 -1.3613 0
M  V30 9892 C 959.953 -2.75237 -0.337611 0
M  V30 9893 H 962.904 -1.56222 0.279353 0
M  V30 9894 H 962.925 -3.38193 -1.74373 0
M  V30 9895 H 962.437 -3.88098 0.011441 0
M  V30 9896 H 960.538 -2.95251 -2.27283 0
M  V30 9897 H 960.651 -4.59632 -1.35186 0
M  V30 9898 H 959.015 -2.41444 -0.810991 0
M  V30 9899 H 959.798 -3.38918 0.546763 0
M  V30 9900 N 962.243 0.219913 -1.56058 0
M  V30 9901 C 963.173 1.27572 -1.9557 0
M  V30 9902 C 964.154 1.48801 -0.824148 0
M  V30 9903 O 965.339 1.60957 -1.08658 0
M  V30 9904 C 962.469 2.62517 -2.27381 0
M  V30 9905 C 961.423 2.55941 -3.43042 0
M  V30 9906 C 960.749 3.94931 -3.60463 0
M  V30 9907 C 962.049 2.10584 -4.77966 0
M  V30 9908 H 963.743 0.947482 -2.84013 0
M  V30 9909 H 961.289 0.454337 -1.36645 0
M  V30 9910 H 963.242 3.36538 -2.53615 0
M  V30 9911 H 961.966 2.97031 -1.35794 0
M  V30 9912 H 960.625 1.84377 -3.1686 0
M  V30 9913 H 960.273 4.26756 -2.66249 0
M  V30 9914 H 959.973 3.91413 -4.38258 0
M  V30 9915 H 961.497 4.70611 -3.89046 0
M  V30 9916 H 962.911 2.74349 -5.03394 0
M  V30 9917 H 961.308 2.18122 -5.59055 0
M  V30 9918 H 962.378 1.05818 -4.73213 0
M  V30 9919 N 963.721 1.49897 0.486681 0
M  V30 9920 C 964.97 1.59349 1.23656 0
M  V30 9921 C 965.283 0.292024 1.93408 0
M  V30 9922 O 966.489 0.265258 2.70201 0
M  V30 9923 C 964.945 2.81215 2.24602 0
M  V30 9924 C 964.553 4.18177 1.60725 0
M  V30 9925 C 966.297 3.00004 3.00329 0
M  V30 9926 C 964.204 5.31247 2.59866 0
M  V30 9927 H 963.134 0.593363 0.465227 0
M  V30 9928 H 965.785 1.76306 0.508769 0
M  V30 9929 H 964.167 2.57783 3.00606 0
M  V30 9930 H 965.341 4.51802 0.90616 0
M  V30 9931 H 963.656 4.04864 0.973362 0
M  V30 9932 H 966.253 3.81649 3.74497 0
M  V30 9933 H 966.596 2.1112 3.58795 0
M  V30 9934 H 967.129 3.23544 2.3144 0
M  V30 9935 H 963.868 6.22236 2.06161 0
M  V30 9936 H 963.388 5.02059 3.28172 0
M  V30 9937 H 965.067 5.61177 3.22009 0
M  V30 9938 N 965.199 -0.738761 1.39212 0
M  V30 9939 C 966.162 -1.83441 1.37412 0
M  V30 9940 C 967.162 -1.58484 0.271908 0
M  V30 9941 O 968.352 -1.65954 0.529609 0
M  V30 9942 C 965.484 -3.21167 1.143 0
M  V30 9943 H 966.677 -1.86441 2.34904 0
M  V30 9944 H 964.23 -0.942023 1.24722 0
M  V30 9945 H 964.965 -3.23829 0.174756 0
M  V30 9946 H 964.75 -3.40678 1.94116 0
M  V30 9947 H 966.24 -4.01231 1.15773 0
M  V30 9948 N 966.677 -1.24326 -0.968545 0
M  V30 9949 C 967.64 -1.03591 -2.04454 0
M  V30 9950 C 968.64 0.0064809 -1.60799 0
M  V30 9951 O 969.83 -0.234404 -1.72616 0
M  V30 9952 C 966.962 -0.56992 -3.36102 0
M  V30 9953 H 968.155 -1.99092 -2.24282 0
M  V30 9954 H 965.708 -1.06537 -1.14366 0
M  V30 9955 H 966.443 0.388325 -3.21967 0
M  V30 9956 H 966.228 -1.32227 -3.69132 0
M  V30 9957 H 967.718 -0.445854 -4.15213 0
M  V30 9958 N 968.156 1.1691 -1.05688 0
M  V30 9959 C 969.404 1.86922 -0.768409 0
M  V30 9960 C 969.725 1.81735 0.706921 0
M  V30 9961 O 968.995 1.24671 1.51109 0
M  V30 9962 H 967.575 0.69203 -0.281253 0
M  V30 9963 H 970.237 1.41803 -1.33708 0
M  V30 9964 H 969.333 2.92528 -1.08783 0
M  V30 9965 N 969.634 0.838594 1.33437 0
M  V30 9966 C 970.88 0.434813 1.98084 0
M  V30 9967 C 971.213 -1.00331 1.66275 0
M  V30 9968 O 970.488 -1.70139 0.942501 0
M  V30 9969 C 970.771 0.655602 3.54082 0
M  V30 9970 C 970.624 2.14097 3.95578 0
M  V30 9971 C 971.943 0.101576 4.39983 0
M  V30 9972 H 969.062 0.159456 0.719544 0
M  V30 9973 H 971.704 1.05406 1.58081 0
M  V30 9974 H 969.854 0.128501 3.88287 0
M  V30 9975 H 971.526 2.73292 3.71631 0
M  V30 9976 H 969.769 2.62558 3.4532 0
M  V30 9977 H 970.44 2.24621 5.04231 0
M  V30 9978 H 972.916 0.552122 4.12421 0
M  V30 9979 H 971.792 0.28575 5.48156 0
M  V30 9980 H 972.053 -0.994616 4.30767 0
M  V30 9981 N 971.112 -1.45937 0.595003 0
M  V30 9982 C 972.361 -2.01529 0.0829531 0
M  V30 9983 C 972.674 -1.47071 -1.28955 0
M  V30 9984 O 973.88 -1.94561 -1.89363 0
M  V30 9985 C 972.336 -3.59767 0.0976597 0
M  V30 9986 C 971.944 -4.23223 1.46924 0
M  V30 9987 C 973.688 -4.22972 -0.359805 0
M  V30 9988 C 971.595 -5.73576 1.44101 0
M  V30 9989 H 970.525 -0.753508 0.0272425 0
M  V30 9990 H 973.176 -1.67541 0.748473 0
M  V30 9991 H 971.558 -3.90888 -0.634268 0
M  V30 9992 H 972.732 -4.03695 2.22187 0
M  V30 9993 H 971.047 -3.72161 1.86775 0
M  V30 9994 H 973.644 -5.33202 -0.39991 0
M  V30 9995 H 973.987 -3.92765 -1.37991 0
M  V30 9996 H 974.52 -3.96523 0.31845 0
M  V30 9997 H 971.259 -6.08462 2.43831 0
M  V30 9998 H 970.779 -5.95332 0.730767 0
M  V30 9999 H 972.458 -6.36531 1.1592 0
M  V30 10000 N 972.59 -0.333456 -1.54032 0
M  V30 10001 C 973.838 0.265608 -2.00347 0
M  V30 10002 C 974.159 1.51873 -1.2231 0
M  V30 10003 O 973.429 1.93142 -0.327549 0
M  V30 10004 H 972.009 0.101135 -0.740122 0
M  V30 10005 H 974.671 -0.452285 -1.8958 0
M  V30 10006 H 973.767 0.51511 -3.0782 0
M  V30 10007 N 974.068 1.57479 -0.061844 0
M  V30 10008 C 975.316 1.92727 0.608336 0
M  V30 10009 C 975.637 0.941799 1.70749 0
M  V30 10010 O 974.907 -0.0116608 1.95897 0
M  V30 10011 H 973.487 0.71145 0.2277 0
M  V30 10012 H 976.149 1.94546 -0.117359 0
M  V30 10013 H 975.245 2.9426 1.04007 0
M  V30 10014 N 975.546 -0.211634 1.56173 0
M  V30 10015 C 976.476 -1.26533 1.96244 0
M  V30 10016 C 977.457 -1.48362 0.832028 0
M  V30 10017 O 978.642 -1.60378 1.0951 0
M  V30 10018 C 975.772 -2.61307 2.2877 0
M  V30 10019 C 974.726 -2.54119 3.44395 0
M  V30 10020 C 974.052 -3.93014 3.62552 0
M  V30 10021 C 975.352 -2.08046 4.79076 0
M  V30 10022 H 977.046 -0.932407 2.84511 0
M  V30 10023 H 974.592 -0.447084 1.36884 0
M  V30 10024 H 976.545 -3.35188 2.55396 0
M  V30 10025 H 975.269 -2.96307 1.37367 0
M  V30 10026 H 973.928 -1.82694 3.17834 0
M  V30 10027 H 973.576 -4.25338 2.68508 0
M  V30 10028 H 973.276 -3.89083 4.40327 0
M  V30 10029 H 974.8 -4.68542 3.91537 0
M  V30 10030 H 976.214 -2.71676 5.04842 0
M  V30 10031 H 974.611 -2.15154 5.60204 0
M  V30 10032 H 975.681 -1.03306 4.73768 0
M  V30 10033 N 977.024 -1.50153 -0.478725 0
M  V30 10034 C 978.271 -1.6076 -1.23136 0
M  V30 10035 C 978.599 -0.30442 -1.92103 0
M  V30 10036 O 977.854 0.709213 -1.82397 0
M  V30 10037 C 978.153 -2.73208 -2.30417 0
M  V30 10038 C 977.819 -4.13953 -1.78755 0
M  V30 10039 C 976.481 -4.52251 -1.64386 0
M  V30 10040 C 978.833 -5.01949 -1.40344 0
M  V30 10041 C 976.161 -5.76292 -1.10018 0
M  V30 10042 C 978.513 -6.2653 -0.874206 0
M  V30 10043 C 977.177 -6.63637 -0.717085 0
M  V30 10044 H 976.447 -0.588264 -0.450585 0
M  V30 10045 H 979.094 -1.84061 -0.528551 0
M  V30 10046 H 977.399 -2.43965 -3.06575 0
M  V30 10047 H 979.096 -2.7862 -2.88395 0
M  V30 10048 H 975.686 -3.83736 -1.90904 0
M  V30 10049 H 979.87 -4.73 -1.50283 0
M  V30 10050 H 975.126 -6.03723 -0.965838 0
M  V30 10051 H 979.3 -6.94081 -0.567883 0
M  V30 10052 H 976.927 -7.59633 -0.293639 0
M  V30 10053 N 978.502 0.731368 -1.39602 0
M  V30 10054 C 979.751 1.48647 -1.36334 0
M  V30 10055 C 980.064 1.95565 0.0367383 0
M  V30 10056 O 981.27 2.7082 0.192017 0
M  V30 10057 C 979.726 2.68616 -2.39528 0
M  V30 10058 C 979.334 2.28632 -3.85268 0
M  V30 10059 C 981.078 3.46422 -2.45341 0
M  V30 10060 C 978.985 3.45345 -4.80095 0
M  V30 10061 H 977.915 0.558218 -0.506861 0
M  V30 10062 H 980.566 0.797467 -1.65266 0
M  V30 10063 H 978.948 3.39609 -2.03671 0
M  V30 10064 H 980.122 1.65162 -4.30184 0
M  V30 10065 H 978.437 1.63909 -3.82783 0
M  V30 10066 H 981.034 4.33241 -3.13379 0
M  V30 10067 H 981.377 3.8914 -1.47904 0
M  V30 10068 H 981.91 2.82461 -2.80108 0
M  V30 10069 H 978.649 3.07674 -5.78807 0
M  V30 10070 H 978.169 4.07784 -4.39855 0
M  V30 10071 H 979.848 4.1163 -4.99169 0
M  V30 10072 N 979.98 1.24838 0.961938 0
M  V30 10073 C 980.91 1.07053 2.07514 0
M  V30 10074 C 981.891 -0.0182465 1.7009 0
M  V30 10075 O 983.076 0.149915 1.9362 0
M  V30 10076 C 980.206 0.680693 3.40564 0
M  V30 10077 C 979.16 1.71889 3.91967 0
M  V30 10078 C 978.486 1.18395 5.21428 0
M  V30 10079 C 979.786 3.1161 4.19161 0
M  V30 10080 H 981.48 2.00167 2.22651 0
M  V30 10081 H 979.026 0.963799 1.0699 0
M  V30 10082 H 980.979 0.54324 4.17884 0
M  V30 10083 H 979.703 -0.28615 3.25344 0
M  V30 10084 H 978.362 1.84465 3.16809 0
M  V30 10085 H 978.01 0.207543 5.02572 0
M  V30 10086 H 977.71 1.87778 5.56788 0
M  V30 10087 H 979.234 1.05873 6.01351 0
M  V30 10088 H 980.648 3.0223 4.87165 0
M  V30 10089 H 979.045 3.78398 4.65763 0
M  V30 10090 H 980.115 3.59218 3.25715 0
M  V30 10091 N 981.458 -1.16348 1.06306 0
M  V30 10092 C 982.704 -1.87158 0.781007 0
M  V30 10093 C 983.037 -1.81499 -0.690784 0
M  V30 10094 O 982.312 -1.23074 -1.50609 0
M  V30 10095 C 982.595 -3.3672 1.27639 0
M  V30 10096 C 982.448 -3.51069 2.81194 0
M  V30 10097 C 983.767 -4.31122 0.884388 0
M  V30 10098 H 980.886 -0.679586 0.285187 0
M  V30 10099 H 983.528 -1.36756 1.31901 0
M  V30 10100 H 981.678 -3.79775 0.818715 0
M  V30 10101 H 983.35 -3.16952 3.35171 0
M  V30 10102 H 981.593 -2.92976 3.19918 0
M  V30 10103 H 982.264 -4.56105 3.10921 0
M  V30 10104 H 984.74 -3.95969 1.27858 0
M  V30 10105 H 983.616 -5.34279 1.25847 0
M  V30 10106 H 983.877 -4.41598 -0.210673 0
M  V30 10107 N 982.937 -0.845659 -1.3299 0
M  V30 10108 C 984.186 -0.440928 -1.96822 0
M  V30 10109 C 984.499 1.00668 -1.67706 0
M  V30 10110 O 985.705 1.51641 -2.25205 0
M  V30 10111 C 984.161 -0.73752 -3.52262 0
M  V30 10112 C 983.769 -2.20026 -3.90247 0
M  V30 10113 C 985.513 -0.400072 -4.22611 0
M  V30 10114 C 983.42 -2.44054 -5.38694 0
M  V30 10115 H 982.35 -0.161148 -0.736578 0
M  V30 10116 H 985.001 -1.03519 -1.51513 0
M  V30 10117 H 983.383 -0.0728025 -3.95933 0
M  V30 10118 H 984.557 -2.90602 -3.57613 0
M  V30 10119 H 982.872 -2.50135 -3.32899 0
M  V30 10120 H 985.469 -0.557136 -5.3179 0
M  V30 10121 H 985.812 0.657547 -4.11074 0
M  V30 10122 H 986.345 -1.0203 -3.84493 0
M  V30 10123 H 983.084 -3.48407 -5.55241 0
M  V30 10124 H 982.604 -1.78047 -5.72765 0
M  V30 10125 H 984.283 -2.27549 -6.05665 0
M  V30 10126 N 984.415 1.45619 -0.602734 0
M  V30 10127 C 985.661 2.02572 -0.0961759 0
M  V30 10128 C 985.994 1.47076 1.26815 0
M  V30 10129 O 985.269 0.643566 1.83544 0
M  V30 10130 C 985.552 3.60062 -0.0520032 0
M  V30 10131 C 985.405 4.25901 -1.44665 0
M  V30 10132 C 986.724 4.35446 0.638342 0
M  V30 10133 H 983.843 0.736099 -0.0364238 0
M  V30 10134 H 986.485 1.7353 -0.773776 0
M  V30 10135 H 984.635 3.84936 0.525032 0
M  V30 10136 H 986.307 4.12228 -2.0704 0
M  V30 10137 H 984.55 3.84489 -2.00874 0
M  V30 10138 H 985.221 5.34779 -1.36803 0
M  V30 10139 H 987.697 4.15837 0.147926 0
M  V30 10140 H 986.573 5.45176 0.63834 0
M  V30 10141 H 986.834 4.07962 1.70351 0
M  V30 10142 N 985.893 0.34162 1.53853 0
M  V30 10143 C 987.141 -0.254979 2.00485 0
M  V30 10144 C 987.462 -1.51222 1.23114 0
M  V30 10145 O 986.732 -1.92966 0.337787 0
M  V30 10146 H 985.312 -0.0972084 0.740648 0
M  V30 10147 H 987.974 0.462332 1.89337 0
M  V30 10148 H 987.07 -0.498778 3.08089 0
M  V30 10149 N 987.371 -1.57444 0.0701946 0
M  V30 10150 C 988.301 -2.15659 -0.895176 0
M  V30 10151 C 989.282 -1.08321 -1.31151 0
M  V30 10152 O 990.467 -1.36349 -1.38284 0
M  V30 10153 C 987.597 -2.71693 -2.16334 0
M  V30 10154 C 986.551 -3.84183 -1.88645 0
M  V30 10155 C 985.877 -4.26814 -3.22078 0
M  V30 10156 C 987.177 -5.08493 -1.19299 0
M  V30 10157 H 988.871 -2.96576 -0.410217 0
M  V30 10158 H 986.417 -1.42662 -0.195872 0
M  V30 10159 H 988.37 -3.11064 -2.84284 0
M  V30 10160 H 987.094 -1.87994 -2.67069 0
M  V30 10161 H 985.753 -3.45314 -1.23101 0
M  V30 10162 H 985.401 -3.40039 -3.70651 0
M  V30 10163 H 985.101 -5.02642 -3.04344 0
M  V30 10164 H 986.625 -4.68799 -3.91228 0
M  V30 10165 H 988.039 -5.4519 -1.77316 0
M  V30 10166 H 986.436 -5.89588 -1.11828 0
M  V30 10167 H 987.506 -4.84595 -0.171839 0
M  V30 10168 N 988.849 0.203349 -1.56283 0
M  V30 10169 C 990.077 0.941426 -1.84241 0
M  V30 10170 C 990.492 1.77197 -0.651658 0
M  V30 10171 O 989.849 1.78506 0.379713 0
M  V30 10172 C 989.9 1.84429 -3.10915 0
M  V30 10173 O 989.621 1.04729 -4.25398 0
M  V30 10174 C 991.122 2.69474 -3.51993 0
M  V30 10175 H 988.342 0.27507 -0.612027 0
M  V30 10176 H 990.886 0.213088 -2.03387 0
M  V30 10177 H 989.041 2.52635 -2.93691 0
M  V30 10178 H 989.455 1.66179 -4.97478 0
M  V30 10179 H 990.929 3.28495 -4.43616 0
M  V30 10180 H 991.406 3.42775 -2.74594 0
M  V30 10181 H 992.012 2.06652 -3.71719 0
M  V30 10182 N 990.327 1.50405 0.470755 0
M  V30 10183 C 991.574 1.61411 1.22281 0
M  V30 10184 C 991.902 0.314603 1.91939 0
M  V30 10185 O 991.157 -0.699531 1.82771 0
M  V30 10186 C 991.456 2.74426 2.28965 0
M  V30 10187 C 991.122 4.14896 1.76557 0
M  V30 10188 C 989.784 4.53116 1.61985 0
M  V30 10189 C 992.136 5.02686 1.3768 0
M  V30 10190 C 989.464 5.76868 1.0696 0
M  V30 10191 C 991.816 6.26985 0.840967 0
M  V30 10192 C 990.48 6.64008 0.68188 0
M  V30 10193 H 989.75 0.590645 0.447459 0
M  V30 10194 H 992.397 1.84339 0.518783 0
M  V30 10195 H 990.702 2.45588 3.05277 0
M  V30 10196 H 992.399 2.80146 2.86914 0
M  V30 10197 H 988.989 3.84743 1.88867 0
M  V30 10198 H 993.173 4.7379 1.47772 0
M  V30 10199 H 988.429 6.04227 0.933808 0
M  V30 10200 H 992.603 6.94372 0.531066 0
M  V30 10201 H 990.23 7.59778 0.25335 0
M  V30 10202 N 991.805 -0.723954 1.39988 0
M  V30 10203 C 992.768 -1.81973 1.3935 0
M  V30 10204 C 993.768 -1.58187 0.288702 0
M  V30 10205 O 994.958 -1.65383 0.547181 0
M  V30 10206 C 992.09 -3.19937 1.177 0
M  V30 10207 H 993.283 -1.83939 2.36868 0
M  V30 10208 H 990.836 -0.928742 1.25714 0
M  V30 10209 H 991.571 -3.23625 0.209093 0
M  V30 10210 H 991.356 -3.386 1.97719 0
M  V30 10211 H 992.846 -3.99981 1.20022 0
M  V30 10212 N 993.283 -1.25346 -0.955304 0
M  V30 10213 C 994.529 -1.10218 -1.70235 0
M  V30 10214 C 994.862 0.356124 -1.90907 0
M  V30 10215 O 994.137 1.26253 -1.47954 0
M  V30 10216 C 994.42 -1.85627 -3.08569 0
M  V30 10217 C 994.273 -3.39281 -2.95311 0
M  V30 10218 C 995.592 -1.63886 -4.08448 0
M  V30 10219 H 992.711 -0.401781 -0.617852 0
M  V30 10220 H 995.353 -1.5417 -1.11048 0
M  V30 10221 H 993.503 -1.48269 -3.59094 0
M  V30 10222 H 995.175 -3.8631 -2.52116 0
M  V30 10223 H 993.418 -3.67027 -2.31244 0
M  V30 10224 H 994.089 -3.87258 -3.93364 0
M  V30 10225 H 996.565 -1.96406 -3.6683 0
M  V30 10226 H 995.441 -2.19087 -5.03281 0
M  V30 10227 H 995.702 -0.580021 -4.38279 0
M  V30 10228 N 994.761 1.15782 -1.06922 0
M  V30 10229 C 995.991 1.90079 -0.809545 0
M  V30 10230 C 996.399 1.78028 0.640523 0
M  V30 10231 O 995.742 1.12692 1.45073 0
M  V30 10232 C 995.804 3.41179 -1.13302 0
M  V30 10233 C 995.468 3.77015 -2.5828 0
M  V30 10234 C 996.465 3.78403 -3.56521 0
M  V30 10235 C 994.15 4.07455 -2.93745 0
M  V30 10236 C 996.144 4.09729 -4.88264 0
M  V30 10237 C 993.831 4.38446 -4.25686 0
M  V30 10238 C 994.829 4.39564 -5.22755 0
M  V30 10239 O 994.517 4.69814 -6.52326 0
M  V30 10240 H 994.249 0.609397 -0.292595 0
M  V30 10241 H 996.803 1.47654 -1.42784 0
M  V30 10242 H 995.033 3.83982 -0.457676 0
M  V30 10243 H 996.722 3.96759 -0.856586 0
M  V30 10244 H 997.488 3.54991 -3.30464 0
M  V30 10245 H 993.367 4.05746 -2.1884 0
M  V30 10246 H 996.911 4.10516 -5.64023 0
M  V30 10247 H 992.808 4.61325 -4.51497 0
M  V30 10248 H 993.576 4.87598 -6.57412 0
M  V30 10249 N 996.239 0.8527 1.3254 0
M  V30 10250 C 997.485 0.455798 1.97612 0
M  V30 10251 C 997.818 -0.985616 1.6733 0
M  V30 10252 O 997.093 -1.69129 0.960493 0
M  V30 10253 C 997.376 0.69312 3.53366 0
M  V30 10254 C 997.229 2.18281 3.93285 0
M  V30 10255 C 998.548 0.148236 4.3985 0
M  V30 10256 H 995.667 0.167078 0.717812 0
M  V30 10257 H 998.309 1.07076 1.56954 0
M  V30 10258 H 996.459 0.169677 3.88129 0
M  V30 10259 H 998.131 2.77218 3.68711 0
M  V30 10260 H 996.374 2.66206 3.42515 0
M  V30 10261 H 997.045 2.29957 5.01821 0
M  V30 10262 H 999.521 0.595834 4.11812 0
M  V30 10263 H 998.397 0.343873 5.47822 0
M  V30 10264 H 998.658 -0.948872 4.31797 0
M  V30 10265 N 997.718 -1.45297 0.610449 0
M  V30 10266 C 999.134 -1.57225 0.274332 0
M  V30 10267 C 999.334 -1.60136 -1.22306 0
M  V30 10268 O 998.39 -1.5332 -2.00622 0
M  V30 10269 C 999.703 -2.85365 0.948028 0
M  V30 10270 C 1001.25 -2.99044 0.924216 0
M  V30 10271 C 1001.73 -4.29958 1.57798 0
M  V30 10272 N 1003.22 -4.36723 1.5436 0
M  V30 10273 C 1003.95 -5.36695 2.01857 0
M  V30 10274 N 1003.45 -6.43187 2.57453 0
M  V30 10275 N 1005.24 -5.28071 1.92608 0
M  V30 10276 H 997.392 -1.41651 1.58268 0
M  V30 10277 H 999.655 -0.67744 0.663158 0
M  V30 10278 H 999.361 -2.89125 2.00249 0
M  V30 10279 H 999.235 -3.74222 0.473062 0
M  V30 10280 H 1001.62 -2.94849 -0.121709 0
M  V30 10281 H 1001.7 -2.1159 1.43748 0
M  V30 10282 H 1001.35 -4.34912 2.62325 0
M  V30 10283 H 1001.28 -5.16234 1.03972 0
M  V30 10284 H 1003.77 -3.60374 1.13749 0
M  V30 10285 H 1004.08 -7.15722 2.91482 0
M  V30 10286 H 1002.43 -6.4393 2.61493 0
M  V30 10287 H 1005.62 -4.43783 1.48912 0
M  V30 10288 H 1005.79 -6.05832 2.29938 0
M  V30 10289 N 999.196 -0.349774 -1.5367 0
M  V30 10290 C 1000.61 0.00191293 -1.596 0
M  V30 10291 C 1000.81 1.48175 -1.36552 0
M  V30 10292 O 999.868 2.24129 -1.16285 0
M  V30 10293 C 1001.18 -0.439848 -2.97466 0
M  V30 10294 C 1002.73 -0.392721 -3.10526 0
M  V30 10295 C 1003.2 -0.810047 -4.5078 0
M  V30 10296 N 1004.69 -0.764478 -4.56848 0
M  V30 10297 C 1005.43 -1.05927 -5.63531 0
M  V30 10298 N 1004.93 -1.42253 -6.78038 0
M  V30 10299 N 1006.72 -0.983098 -5.53436 0
M  V30 10300 H 998.87 -1.31364 -1.66905 0
M  V30 10301 H 1001.13 -0.535908 -0.781989 0
M  V30 10302 H 1000.84 -1.47189 -3.19419 0
M  V30 10303 H 1000.71 0.181735 -3.76762 0
M  V30 10304 H 1003.1 0.630161 -2.88293 0
M  V30 10305 H 1003.18 -1.04959 -2.33275 0
M  V30 10306 H 1002.82 -1.83097 -4.73749 0
M  V30 10307 H 1002.75 -0.130591 -5.26438 0
M  V30 10308 H 1005.25 -0.496637 -3.74622 0
M  V30 10309 H 1005.56 -1.63215 -7.55368 0
M  V30 10310 H 1003.9 -1.46104 -6.79469 0
M  V30 10311 H 1007.09 -0.698601 -4.62858 0
M  V30 10312 H 1007.27 -1.21618 -6.36485 0
M  V30 10313 N 1000.67 1.57404 -0.0785433 0
M  V30 10314 C 1001.62 2.13104 0.88631 0
M  V30 10315 C 1002.59 1.04527 1.29086 0
M  V30 10316 O 1003.78 1.32226 1.37553 0
M  V30 10317 C 1000.92 2.70252 2.14611 0
M  V30 10318 C 1000.03 3.93007 1.79358 0
M  V30 10319 C 999.164 4.38376 3 0
M  V30 10320 C 998.203 5.53761 2.60796 0
M  V30 10321 N 997.34 5.94058 3.74219 0
M  V30 10322 H 1002.18 2.95243 0.404452 0
M  V30 10323 H 999.717 1.45894 0.187982 0
M  V30 10324 H 1001.67 3.01497 2.88367 0
M  V30 10325 H 1000.3 1.90868 2.60326 0
M  V30 10326 H 999.357 3.68181 0.956384 0
M  V30 10327 H 1000.67 4.76795 1.4652 0
M  V30 10328 H 999.823 4.71317 3.82027 0
M  V30 10329 H 998.562 3.53455 3.36037 0
M  V30 10330 H 997.567 5.20464 1.77192 0
M  V30 10331 H 998.792 6.40419 2.25922 0
M  V30 10332 H 996.738 5.12085 4.10005 0
M  V30 10333 H 996.655 6.72602 3.45171 0
M  V30 10334 H 997.923 6.31624 4.56805 0
M  V30 10335 N 1002.15 -0.195058 1.56388 0
M  V30 10336 C 1003.38 -0.935745 1.85091 0
M  V30 10337 C 1003.8 -1.76061 0.662118 0
M  V30 10338 O 1003.16 -1.77076 -0.389083 0
M  V30 10339 C 1003.21 -1.80764 3.1202 0
M  V30 10340 O 1002.31 -2.90643 2.92575 0
M  V30 10341 H 1001.65 -0.26351 0.609474 0
M  V30 10342 H 1004.18 -0.200362 2.03617 0
M  V30 10343 H 1004.19 -2.21229 3.42815 0
M  V30 10344 H 1002.87 -1.20157 3.98165 0
M  V30 10345 H 1001.44 -2.53934 2.73079 0
M  V30 10346 N 1003.63 -1.50653 -0.462772 0
M  V30 10347 C 1004.88 -1.61296 -1.21105 0
M  V30 10348 C 1005.19 -0.322757 -1.92919 0
M  V30 10349 O 1006.4 -0.308211 -2.69745 0
M  V30 10350 C 1004.85 -2.84752 -2.201 0
M  V30 10351 C 1004.46 -4.20681 -1.54051 0
M  V30 10352 C 1006.21 -3.04744 -2.95518 0
M  V30 10353 C 1004.11 -5.35314 -2.51381 0
M  V30 10354 H 1003.04 -0.60069 -0.455728 0
M  V30 10355 H 1005.69 -1.77093 -0.480656 0
M  V30 10356 H 1004.08 -2.62532 -2.96467 0
M  V30 10357 H 1005.25 -4.53187 -0.834168 0
M  V30 10358 H 1003.56 -4.06361 -0.908828 0
M  V30 10359 H 1006.16 -3.87559 -3.68378 0
M  V30 10360 H 1006.5 -2.16802 -3.55391 0
M  V30 10361 H 1007.04 -3.27185 -2.26263 0
M  V30 10362 H 1003.78 -6.25437 -1.96235 0
M  V30 10363 H 1003.3 -5.07216 -3.20144 0
M  V30 10364 H 1004.98 -5.66229 -3.1304 0
M  V30 10365 N 1005.11 0.71652 -1.4037 0
M  V30 10366 C 1006.06 1.8306 -1.40562 0
M  V30 10367 C 1007.03 1.64009 -0.262697 0
M  V30 10368 O 1008.21 1.85157 -0.460619 0
M  V30 10369 C 1005.35 3.2076 -1.27307 0
M  V30 10370 C 1004.46 3.51389 -2.51296 0
M  V30 10371 C 1003.6 4.78589 -2.30491 0
M  V30 10372 C 1002.64 5.02119 -3.50061 0
M  V30 10373 N 1001.77 6.20533 -3.28457 0
M  V30 10374 H 1006.61 1.82231 -2.35788 0
M  V30 10375 H 1004.15 0.890198 -1.17106 0
M  V30 10376 H 1006.11 4.00274 -1.17628 0
M  V30 10377 H 1004.74 3.2082 -0.357005 0
M  V30 10378 H 1003.79 2.66436 -2.71507 0
M  V30 10379 H 1005.1 3.64686 -3.40302 0
M  V30 10380 H 1004.26 5.66119 -2.1816 0
M  V30 10381 H 1003 4.67499 -1.38909 0
M  V30 10382 H 1002 4.13044 -3.6287 0
M  V30 10383 H 1003.23 5.15082 -4.42569 0
M  V30 10384 H 1001.17 6.10695 -2.39556 0
M  V30 10385 H 1001.09 6.34502 -4.11027 0
M  V30 10386 H 1002.36 7.10853 -3.19857 0
M  V30 10387 N 1006.59 1.25851 0.948643 0
M  V30 10388 C 1007.53 1.06759 2.04625 0
M  V30 10389 C 1008.5 -0.0251144 1.66081 0
M  V30 10390 O 1009.69 0.133221 1.90334 0
M  V30 10391 C 1006.83 0.698724 3.37952 0
M  V30 10392 C 1005.94 1.8669 3.89578 0
M  V30 10393 C 1005.08 1.44184 5.11258 0
M  V30 10394 C 1004.12 2.57878 5.55126 0
M  V30 10395 N 1003.25 2.16106 6.68014 0
M  V30 10396 H 1008.09 2.00691 2.20289 0
M  V30 10397 H 1005.63 0.999327 1.07944 0
M  V30 10398 H 1007.59 0.465788 4.14592 0
M  V30 10399 H 1006.22 -0.203618 3.22157 0
M  V30 10400 H 1005.27 2.21298 3.09405 0
M  V30 10401 H 1006.58 2.72051 4.18079 0
M  V30 10402 H 1005.74 1.16891 5.95333 0
M  V30 10403 H 1004.47 0.559035 4.84485 0
M  V30 10404 H 1003.48 2.85909 4.69612 0
M  V30 10405 H 1004.7 3.46747 5.83904 0
M  V30 10406 H 1002.65 1.3025 6.42939 0
M  V30 10407 H 1002.57 2.95012 6.96063 0
M  V30 10408 H 1003.84 1.92005 7.55483 0
M  V30 10409 N 1008.06 -1.15214 1.07534 0
M  V30 10410 C 1009.01 -2.20013 0.697337 0
M  V30 10411 C 1009.98 -1.6314 -0.312168 0
M  V30 10412 O 1011.17 -1.89768 -0.198196 0
M  V30 10413 C 1008.31 -3.44945 0.103293 0
M  V30 10414 C 1007.42 -4.16009 1.1645 0
M  V30 10415 C 1006.55 -5.28496 0.535261 0
M  V30 10416 C 1005.59 -5.9138 1.57912 0
M  V30 10417 N 1004.73 -6.95335 0.972332 0
M  V30 10418 H 1009.57 -2.51698 1.59538 0
M  V30 10419 H 1007.11 -1.2361 0.797431 0
M  V30 10420 H 1009.07 -4.16397 -0.258766 0
M  V30 10421 H 1007.7 -3.13772 -0.758096 0
M  V30 10422 H 1006.75 -3.43035 1.64411 0
M  V30 10423 H 1008.06 -4.58853 1.9559 0
M  V30 10424 H 1007.21 -6.06579 0.120942 0
M  V30 10425 H 1005.95 -4.8685 -0.287889 0
M  V30 10426 H 1004.96 -5.12008 2.0032 0
M  V30 10427 H 1006.18 -6.35103 2.40459 0
M  V30 10428 H 1004.13 -6.55779 0.170119 0
M  V30 10429 H 1004.05 -7.36616 1.70095 0
M  V30 10430 H 1005.31 -7.77312 0.583577 0
M  V30 10431 N 1009.54 -0.859717 -1.32086 0
M  V30 10432 C 1010.96 -0.55025 -1.49815 0
M  V30 10433 C 1011.16 0.917966 -1.79376 0
M  V30 10434 O 1010.21 1.70073 -1.86632 0
M  V30 10435 C 1011.53 -1.44161 -2.6389 0
M  V30 10436 C 1013.08 -1.44257 -2.77775 0
M  V30 10437 C 1013.55 -2.31926 -3.94936 0
M  V30 10438 N 1015.04 -2.2975 -4.02206 0
M  V30 10439 C 1015.78 -2.9431 -4.92107 0
M  V30 10440 N 1015.27 -3.68001 -5.86981 0
M  V30 10441 N 1017.07 -2.83671 -4.8527 0
M  V30 10442 H 1009.22 -1.80987 -1.11164 0
M  V30 10443 H 1011.48 -0.773313 -0.548353 0
M  V30 10444 H 1011.19 -2.48588 -2.4879 0
M  V30 10445 H 1011.06 -1.13268 -3.59792 0
M  V30 10446 H 1013.45 -0.405923 -2.92295 0
M  V30 10447 H 1013.53 -1.79169 -1.82571 0
M  V30 10448 H 1013.17 -3.35661 -3.81174 0
M  V30 10449 H 1013.1 -1.94344 -4.89426 0
M  V30 10450 H 1015.59 -1.76177 -3.3432 0
M  V30 10451 H 1015.91 -4.14417 -6.52287 0
M  V30 10452 H 1014.25 -3.72109 -5.86992 0
M  V30 10453 H 1017.44 -2.25647 -4.10123 0
M  V30 10454 H 1017.61 -3.34267 -5.5513 0
M  V30 10455 N 1011.02 1.44971 -0.618145 0
M  V30 10456 C 1011.98 2.29044 0.0846739 0
M  V30 10457 C 1012.98 1.40341 0.784921 0
M  V30 10458 O 1014.17 1.62351 0.631479 0
M  V30 10459 C 1011.31 3.21617 1.13027 0
M  V30 10460 H 1012.5 2.92668 -0.654612 0
M  V30 10461 H 1010.05 1.51668 -0.377672 0
M  V30 10462 H 1010.79 2.62815 1.89997 0
M  V30 10463 H 1010.57 3.86969 0.63224 0
M  V30 10464 H 1012.06 3.84805 1.62218 0
M  V30 10465 N 1012.5 0.357919 1.53482 0
M  V30 10466 C 1013.43 -0.484231 2.28424 0
M  V30 10467 C 1014.41 -1.09046 1.30548 0
M  V30 10468 O 1015.59 -1.10916 1.59409 0
M  V30 10469 C 1012.72 -1.62803 3.06778 0
M  V30 10470 C 1011.68 -1.14943 4.12277 0
M  V30 10471 C 1011 -2.38287 4.78669 0
M  V30 10472 C 1012.3 -0.239627 5.2175 0
M  V30 10473 H 1014 0.140979 2.99068 0
M  V30 10474 H 1011.54 0.069244 1.43833 0
M  V30 10475 H 1013.5 -2.22374 3.57949 0
M  V30 10476 H 1012.22 -2.28036 2.3381 0
M  V30 10477 H 1010.88 -0.576442 3.6204 0
M  V30 10478 H 1010.53 -3.01959 4.02281 0
M  V30 10479 H 1010.23 -2.06939 5.49955 0
M  V30 10480 H 1011.75 -2.98558 5.32631 0
M  V30 10481 H 1013.17 -0.742597 5.6847 0
M  V30 10482 H 1011.56 -0.0173747 6.00097 0
M  V30 10483 H 1012.63 0.720333 4.7952 0
M  V30 10484 N 1013.98 -1.5736 0.0868897 0
M  V30 10485 C 1015.39 -1.57304 -0.269762 0
M  V30 10486 C 1015.59 -1.09745 -1.68992 0
M  V30 10487 O 1014.65 -0.77017 -2.40468 0
M  V30 10488 C 1015.96 -3.00628 -0.0656646 0
M  V30 10489 C 1017.51 -3.12713 -0.134045 0
M  V30 10490 C 1017.98 -4.57981 0.0419569 0
M  V30 10491 N 1019.48 -4.63198 -0.0131501 0
M  V30 10492 C 1020.21 -5.73316 0.0983964 0
M  V30 10493 N 1019.71 -6.92296 0.264315 0
M  V30 10494 N 1021.5 -5.62086 0.0402517 0
M  V30 10495 H 1013.65 -1.86585 1.01487 0
M  V30 10496 H 1015.91 -0.860843 0.397055 0
M  V30 10497 H 1015.62 -3.39592 0.914891 0
M  V30 10498 H 1015.49 -3.68367 -0.811522 0
M  V30 10499 H 1017.88 -2.73627 -1.1051 0
M  V30 10500 H 1017.96 -2.47582 0.643167 0
M  V30 10501 H 1017.61 -4.9776 1.00984 0
M  V30 10502 H 1017.54 -5.21162 -0.754847 0
M  V30 10503 H 1020.03 -3.77644 -0.139183 0
M  V30 10504 H 1020.34 -7.72047 0.341165 0
M  V30 10505 H 1018.68 -6.94353 0.299876 0
M  V30 10506 H 1021.88 -4.68017 -0.0881801 0
M  V30 10507 H 1022.05 -6.47868 0.130635 0
M  V30 10508 N 1015.45 0.186762 -1.56489 0
M  V30 10509 C 1016.87 0.537933 -1.50261 0
M  V30 10510 C 1017.07 1.85435 -0.788414 0
M  V30 10511 O 1016.13 2.50168 -0.342377 0
M  V30 10512 C 1017.44 0.584965 -2.94955 0
M  V30 10513 C 1018.99 0.673228 -3.05674 0
M  V30 10514 C 1019.46 0.751294 -4.51796 0
M  V30 10515 N 1020.95 0.814599 -4.55981 0
M  V30 10516 C 1021.69 0.895313 -5.66367 0
M  V30 10517 N 1021.18 0.937814 -6.86423 0
M  V30 10518 N 1022.98 0.933145 -5.543 0
M  V30 10519 H 1015.13 -0.676636 -2.01334 0
M  V30 10520 H 1017.39 -0.242079 -0.916571 0
M  V30 10521 H 1017.1 -0.313361 -3.50301 0
M  V30 10522 H 1016.97 1.4368 -3.48763 0
M  V30 10523 H 1019.36 1.56198 -2.50372 0
M  V30 10524 H 1019.44 -0.204976 -2.54977 0
M  V30 10525 H 1019.08 -0.133143 -5.07725 0
M  V30 10526 H 1019.01 1.64542 -5.00233 0
M  V30 10527 H 1021.5 0.790662 -3.69536 0
M  V30 10528 H 1021.82 1.00015 -7.66301 0
M  V30 10529 H 1020.16 0.906351 -6.89065 0
M  V30 10530 H 1023.35 0.896836 -4.59428 0
M  V30 10531 H 1023.53 0.992588 -6.40353 0
M  V30 10532 N 1016.93 1.50896 0.454776 0
M  V30 10533 C 1018.18 1.62699 1.20562 0
M  V30 10534 C 1018.51 0.334943 1.91594 0
M  V30 10535 O 1017.76 -0.680106 1.83502 0
M  V30 10536 C 1018.06 2.76839 2.26042 0
M  V30 10537 C 1017.73 4.16745 1.72147 0
M  V30 10538 C 1016.39 4.54809 1.5717 0
M  V30 10539 C 1018.74 5.04118 1.32341 0
M  V30 10540 C 1016.07 5.7797 1.00835 0
M  V30 10541 C 1018.42 6.27842 0.774419 0
M  V30 10542 C 1017.09 6.64694 0.611415 0
M  V30 10543 H 1016.36 0.595358 0.441169 0
M  V30 10544 H 1019 1.84879 0.499202 0
M  V30 10545 H 1017.31 2.48812 3.02655 0
M  V30 10546 H 1019 2.83173 2.83926 0
M  V30 10547 H 1015.59 3.86725 1.84775 0
M  V30 10548 H 1019.78 4.75331 1.42739 0
M  V30 10549 H 1015.03 6.05183 0.869669 0
M  V30 10550 H 1019.21 6.94896 0.457389 0
M  V30 10551 H 1016.84 7.60004 0.172751 0
M  V30 10552 N 1018.41 -0.709066 1.40748 0
M  V30 10553 C 1019.34 -1.83583 1.4429 0
M  V30 10554 C 1020.32 -1.67378 0.303067 0
M  V30 10555 O 1021.51 -1.87312 0.512612 0
M  V30 10556 C 1018.64 -3.21599 1.31116 0
M  V30 10557 C 1017.59 -3.52486 2.4277 0
M  V30 10558 C 1016.92 -4.89716 2.14668 0
M  V30 10559 C 1018.22 -3.52824 3.85113 0
M  V30 10560 H 1019.91 -1.80876 2.38588 0
M  V30 10561 H 1017.46 -0.868795 1.14839 0
M  V30 10562 H 1019.41 -4.00123 1.32209 0
M  V30 10563 H 1018.13 -3.24898 0.332965 0
M  V30 10564 H 1016.79 -2.76305 2.40937 0
M  V30 10565 H 1016.44 -4.89625 1.15224 0
M  V30 10566 H 1016.14 -5.11347 2.89478 0
M  V30 10567 H 1017.66 -5.70566 2.17455 0
M  V30 10568 H 1019.08 -4.21377 3.88734 0
M  V30 10569 H 1017.48 -3.85984 4.59496 0
M  V30 10570 H 1018.55 -2.52073 4.14231 0
M  V30 10571 N 1019.89 -1.26353 -0.941956 0
M  V30 10572 C 1020.8 -1.09618 -2.07415 0
M  V30 10573 C 1021.82 -0.0298963 -1.73974 0
M  V30 10574 O 1022.99 -0.233466 -2.00042 0
M  V30 10575 C 1020.06 -0.73013 -3.38925 0
M  V30 10576 C 1019.12 -1.87574 -3.86153 0
M  V30 10577 C 1018.35 -1.52706 -5.11387 0
M  V30 10578 O 1018.57 -0.428438 -5.68789 0
M  V30 10579 O 1017.51 -2.36154 -5.53638 0
M  V30 10580 H 1021.33 -2.04598 -2.2444 0
M  V30 10581 H 1018.92 -1.05407 -1.05876 0
M  V30 10582 H 1020.8 -0.538684 -4.17943 0
M  V30 10583 H 1019.48 0.190282 -3.2314 0
M  V30 10584 H 1018.38 -2.12214 -3.08084 0
M  V30 10585 H 1019.72 -2.77585 -4.06457 0
M  V30 10586 N 1021.37 1.14642 -1.08144 0
M  V30 10587 C 1022.6 1.89484 -0.830864 0
M  V30 10588 C 1023.01 1.78443 0.616722 0
M  V30 10589 O 1022.37 1.14191 1.42361 0
M  V30 10590 C 1022.42 3.39554 -1.24039 0
M  V30 10591 O 1022.14 3.50286 -2.63119 0
M  V30 10592 C 1023.64 4.31399 -1.02029 0
M  V30 10593 H 1020.86 0.600283 -0.299835 0
M  V30 10594 H 1023.4 1.45204 -1.44001 0
M  V30 10595 H 1021.56 3.81467 -0.675407 0
M  V30 10596 H 1021.97 4.43481 -2.80045 0
M  V30 10597 H 1023.45 5.35079 -1.35625 0
M  V30 10598 H 1023.92 4.39179 0.0428697 0
M  V30 10599 H 1024.53 3.95238 -1.57057 0
M  V30 10600 N 1022.85 0.866709 1.31628 0
M  V30 10601 C 1023.76 0.323408 2.3236 0
M  V30 10602 C 1024.77 -0.564995 1.64572 0
M  V30 10603 O 1025.95 -0.462489 1.96018 0
M  V30 10604 C 1023.01 -0.469045 3.43513 0
M  V30 10605 C 1022.07 0.446928 4.26967 0
M  V30 10606 C 1021.31 -0.307799 5.32812 0
M  V30 10607 O 1021.53 -1.5363 5.49321 0
M  V30 10608 O 1020.46 0.332653 6.0098 0
M  V30 10609 H 1024.29 1.15827 2.80745 0
M  V30 10610 H 1021.87 0.629987 1.35468 0
M  V30 10611 H 1023.76 -0.918405 4.1127 0
M  V30 10612 H 1022.43 -1.28051 2.97296 0
M  V30 10613 H 1021.34 0.944719 3.61975 0
M  V30 10614 H 1022.67 1.2239 4.76741 0
M  V30 10615 N 1024.32 -1.44642 0.625825 0
M  V30 10616 C 1025.25 -2.33397 -0.0692188 0
M  V30 10617 C 1026.23 -1.47898 -0.840241 0
M  V30 10618 O 1027.42 -1.7663 -0.807176 0
M  V30 10619 C 1024.55 -3.30888 -1.055 0
M  V30 10620 C 1023.5 -4.26164 -0.395968 0
M  V30 10621 C 1022.83 -5.13483 -1.49128 0
M  V30 10622 C 1024.13 -5.17663 0.694433 0
M  V30 10623 H 1025.82 -2.91763 0.671925 0
M  V30 10624 H 1023.37 -1.40294 0.324573 0
M  V30 10625 H 1025.32 -3.91861 -1.54993 0
M  V30 10626 H 1024.05 -2.7072 -1.82696 0
M  V30 10627 H 1022.71 -3.66516 0.0782691 0
M  V30 10628 H 1022.35 -4.49672 -2.25399 0
M  V30 10629 H 1022.05 -5.78038 -1.05573 0
M  V30 10630 H 1023.58 -5.77327 -1.98813 0
M  V30 10631 H 1024.99 -5.72602 0.282818 0
M  V30 10632 H 1023.39 -5.90793 1.05281 0
M  V30 10633 H 1024.46 -4.58994 1.56372 0
M  V30 10634 N 1025.8 -0.366053 -1.5329 0
M  V30 10635 C 1027.05 0.223824 -2.01561 0
M  V30 10636 C 1027.38 1.48382 -1.25286 0
M  V30 10637 O 1026.66 1.91385 -0.34669 0
M  V30 10638 C 1026.94 0.5153 -3.56394 0
M  V30 10639 C 1026.79 -0.758357 -4.43361 0
M  V30 10640 C 1028.11 1.31568 -4.19974 0
M  V30 10641 H 1025.23 0.0798751 -0.732659 0
M  V30 10642 H 1027.87 -0.491038 -1.83545 0
M  V30 10643 H 1026.02 1.12429 -3.71876 0
M  V30 10644 H 1027.69 -1.39584 -4.39675 0
M  V30 10645 H 1025.94 -1.37862 -4.11311 0
M  V30 10646 H 1026.61 -0.509366 -5.49645 0
M  V30 10647 H 1029.08 0.800514 -4.08327 0
M  V30 10648 H 1027.96 1.48837 -5.28336 0
M  V30 10649 H 1028.22 2.32432 -3.76069 0
M  V30 10650 N 1027.28 1.57312 -0.0952337 0
M  V30 10651 C 1028.19 2.17556 0.877877 0
M  V30 10652 C 1029.21 1.14505 1.31014 0
M  V30 10653 O 1030.38 1.46876 1.37802 0
M  V30 10654 C 1027.45 2.74413 2.11892 0
M  V30 10655 C 1026.51 3.92419 1.74085 0
M  V30 10656 C 1025.74 4.46556 2.92273 0
M  V30 10657 O 1025.96 3.99631 4.07002 0
M  V30 10658 O 1024.9 5.37576 2.70732 0
M  V30 10659 H 1028.72 3.01116 0.395312 0
M  V30 10660 H 1026.31 1.48841 0.129123 0
M  V30 10661 H 1028.19 3.10754 2.84622 0
M  V30 10662 H 1026.87 1.93899 2.59201 0
M  V30 10663 H 1025.77 3.6089 0.985346 0
M  V30 10664 H 1027.11 4.74298 1.31539 0
M  V30 10665 N 1028.76 -0.17846 1.56586 0
M  V30 10666 C 1030.17 -0.741599 1.71339 0
M  V30 10667 C 1030.52 -1.83112 0.704579 0
M  V30 10668 O 1029.64 -2.15975 -0.135557 0
M  V30 10669 C 1030.24 -1.35198 3.10656 0
M  V30 10670 C 1028.8 -1.86202 3.27118 0
M  V30 10671 C 1027.95 -0.738255 2.67292 0
M  V30 10672 H 1030.9 0.0468424 1.58631 0
M  V30 10673 H 1030.92 -2.2216 3.0891 0
M  V30 10674 H 1030.43 -0.558776 3.84056 0
M  V30 10675 H 1028.53 -2.68188 2.58661 0
M  V30 10676 H 1028.64 -2.01237 4.34788 0
M  V30 10677 H 1027.01 -1.15686 2.26912 0
M  V30 10678 H 1027.79 0.0429821 3.43273 0
M  V30 10679 N 1030.24 -1.51135 -0.446768 0
M  V30 10680 C 1031.17 -1.74709 -1.54916 0
M  V30 10681 C 1032.15 -0.596628 -1.59293 0
M  V30 10682 O 1033.33 -0.838356 -1.75172 0
M  V30 10683 C 1030.46 -1.86353 -2.9307 0
M  V30 10684 C 1029.42 -3.01725 -3.03556 0
M  V30 10685 C 1028.74 -2.9854 -4.43597 0
M  V30 10686 C 1030.04 -4.41848 -2.7851 0
M  V30 10687 H 1031.74 -2.67014 -1.3544 0
M  V30 10688 H 1029.28 -1.28489 -0.650131 0
M  V30 10689 H 1031.23 -2.01428 -3.70141 0
M  V30 10690 H 1029.96 -0.906887 -3.13756 0
M  V30 10691 H 1028.62 -2.86339 -2.28922 0
M  V30 10692 H 1028.27 -2.00673 -4.61237 0
M  V30 10693 H 1027.97 -3.76008 -4.51544 0
M  V30 10694 H 1029.49 -3.15696 -5.22655 0
M  V30 10695 H 1030.9 -4.57633 -3.45319 0
M  V30 10696 H 1029.3 -5.2095 -2.97877 0
M  V30 10697 H 1030.37 -4.52536 -1.74182 0
M  V30 10698 N 1031.71 0.701592 -1.41122 0
M  V30 10699 C 1032.94 1.49049 -1.43499 0
M  V30 10700 C 1033.36 1.88761 -0.0385684 0
M  V30 10701 O 1032.71 1.56384 0.940755 0
M  V30 10702 C 1032.76 2.7569 -2.33832 0
M  V30 10703 O 1032.49 2.37653 -3.68039 0
M  V30 10704 C 1033.99 3.69479 -2.44949 0
M  V30 10705 H 1031.21 0.459519 -0.488961 0
M  V30 10706 H 1033.75 0.864318 -1.85337 0
M  V30 10707 H 1031.91 3.34559 -1.95318 0
M  V30 10708 H 1032.32 3.19241 -4.16156 0
M  V30 10709 H 1033.79 4.55139 -3.12334 0
M  V30 10710 H 1034.27 4.13553 -1.47887 0
M  V30 10711 H 1034.88 3.16517 -2.84072 0
M  V30 10712 N 1033.19 1.2685 0.935242 0
M  V30 10713 C 1034.6 1.11569 1.49697 0
M  V30 10714 C 1034.95 -0.301952 1.93863 0
M  V30 10715 O 1034.08 -1.19408 1.80473 0
M  V30 10716 C 1034.67 2.01918 2.72056 0
M  V30 10717 C 1033.23 1.90765 3.24477 0
M  V30 10718 C 1032.38 1.94918 1.97237 0
M  V30 10719 H 1035.33 1.39853 0.750116 0
M  V30 10720 H 1035.35 1.57056 3.46574 0
M  V30 10721 H 1034.86 3.05088 2.39881 0
M  V30 10722 H 1032.96 0.905521 3.61429 0
M  V30 10723 H 1033.08 2.76611 3.91182 0
M  V30 10724 H 1031.44 1.39046 2.13397 0
M  V30 10725 H 1032.22 2.99729 1.67385 0
M  V30 10726 N 1034.67 -1.14067 1.0875 0
M  V30 10727 C 1035.9 -1.89582 0.841038 0
M  V30 10728 C 1036.32 -1.78226 -0.601436 0
M  V30 10729 O 1035.68 -1.12491 -1.42181 0
M  V30 10730 C 1035.73 -3.37415 1.27213 0
M  V30 10731 O 1034.83 -4.10191 0.426246 0
M  V30 10732 H 1034.17 -0.589716 0.305173 0
M  V30 10733 H 1036.7 -1.44364 1.44984 0
M  V30 10734 H 1036.71 -3.88234 1.25451 0
M  V30 10735 H 1035.39 -3.44999 2.32268 0
M  V30 10736 H 1033.96 -3.69429 0.507585 0
M  V30 10737 N 1036.15 -0.873678 -1.31166 0
M  V30 10738 C 1037.4 -0.485497 -1.96182 0
M  V30 10739 C 1037.72 0.96621 -1.69379 0
M  V30 10740 O 1036.99 1.67783 -1.01121 0
M  V30 10741 H 1035.57 -0.176547 -0.725838 0
M  V30 10742 H 1038.23 -1.11428 -1.59906 0
M  V30 10743 H 1037.33 -0.646325 -3.05334 0
M  V30 10744 N 1037.63 1.44308 -0.633487 0
M  V30 10745 C 1038.85 2.06384 -0.146063 0
M  V30 10746 C 1039.27 1.47357 1.18031 0
M  V30 10747 O 1038.63 0.597334 1.72448 0
M  V30 10748 C 1038.68 3.61489 -0.0276722 0
M  V30 10749 O 1038.4 4.18318 -1.3016 0
M  V30 10750 C 1039.9 4.40604 0.488168 0
M  V30 10751 H 1037.12 0.666122 -0.0807632 0
M  V30 10752 H 1039.66 1.85139 -0.868557 0
M  V30 10753 H 1037.82 3.81988 0.645273 0
M  V30 10754 H 1038.23 5.11783 -1.14797 0
M  V30 10755 H 1039.71 5.49545 0.520013 0
M  V30 10756 H 1040.18 4.12218 1.51568 0
M  V30 10757 H 1040.79 4.2503 -0.151608 0
M  V30 10758 N 1039.1 0.374177 1.53094 0
M  V30 10759 C 1040.07 -0.455999 2.24618 0
M  V30 10760 C 1041.07 -1.00269 1.25709 0
M  V30 10761 O 1042.26 -0.887077 1.49922 0
M  V30 10762 C 1039.39 -1.63822 2.98957 0
M  V30 10763 H 1040.58 0.169986 2.99418 0
M  V30 10764 H 1038.14 0.126015 1.55791 0
M  V30 10765 H 1038.87 -2.30205 2.28421 0
M  V30 10766 H 1038.66 -1.25308 3.71538 0
M  V30 10767 H 1040.15 -2.22633 3.53305 0
M  V30 10768 N 1040.58 -1.57259 0.103575 0
M  V30 10769 C 1041.99 -1.81816 -0.424239 0
M  V30 10770 C 1042.34 -1.01976 -1.67617 0
M  V30 10771 O 1041.47 -0.251673 -2.14932 0
M  V30 10772 C 1042.06 -3.29783 -0.776453 0
M  V30 10773 C 1040.62 -3.55074 -1.24897 0
M  V30 10774 C 1039.77 -2.76172 -0.249875 0
M  V30 10775 H 1042.72 -1.55254 0.328913 0
M  V30 10776 H 1042.74 -3.43569 -1.63526 0
M  V30 10777 H 1042.25 -3.87865 0.134906 0
M  V30 10778 H 1040.36 -3.02332 -2.17775 0
M  V30 10779 H 1040.47 -4.637 -1.20495 0
M  V30 10780 H 1038.83 -2.43902 -0.733767 0
M  V30 10781 H 1039.62 -3.37007 0.65431 0
M  V30 10782 N 1042.06 0.170153 -1.56679 0
M  V30 10783 C 1043.01 1.22997 -1.9742 0
M  V30 10784 C 1044 1.45762 -0.863117 0
M  V30 10785 O 1045.21 1.46328 -1.04824 0
M  V30 10786 H 1041.58 0.413482 -0.628122 0
M  V30 10787 H 1043.55 0.859502 -2.85754 0
M  V30 10788 C 1042.3 2.5615 -2.35122 0
M  V30 10789 H 1041.63 2.39456 -3.20158 0
M  V30 10790 H 1043.07 3.28991 -2.67471 0
M  V30 10791 C 1041.53 3.14992 -1.19507 0
M  V30 10792 O 1042.06 3.98781 -0.483357 0
M  V30 10793 N 1040.26 2.74098 -0.965332 0
M  V30 10794 H 1039.81 2.06062 -1.54585 0
M  V30 10795 H 1039.77 3.13803 -0.193611 0
M  V30 10796 N 1043.54 1.5137 0.438746 0
M  V30 10797 C 1044.47 1.68774 1.55074 0
M  V30 10798 C 1045.48 0.568436 1.52554 0
M  V30 10799 O 1046.67 0.842707 1.57355 0
M  V30 10800 C 1043.77 1.68592 2.9399 0
M  V30 10801 C 1042.95 2.97084 3.2103 0
M  V30 10802 C 1042 2.89108 4.39663 0
M  V30 10803 O 1041.03 3.63052 4.38385 0
M  V30 10804 N 1042.23 2.04863 5.4315 0
M  V30 10805 H 1045 2.647 1.40549 0
M  V30 10806 H 1042.56 1.49238 0.627663 0
M  V30 10807 H 1044.55 1.60826 3.71372 0
M  V30 10808 H 1043.12 0.802657 3.02119 0
M  V30 10809 H 1042.34 3.18729 2.3196 0
M  V30 10810 H 1043.63 3.82143 3.35923 0
M  V30 10811 H 1043.03 1.4416 5.47023 0
M  V30 10812 H 1041.58 2.02977 6.1939 0
M  V30 10813 N 1045.02 -0.694098 1.41492 0
M  V30 10814 C 1045.98 -1.78976 1.43179 0
M  V30 10815 C 1046.98 -1.57539 0.322191 0
M  V30 10816 O 1048.17 -1.64185 0.582138 0
M  V30 10817 C 1045.3 -3.17368 1.2446 0
M  V30 10818 H 1046.49 -1.78874 2.40716 0
M  V30 10819 H 1044.05 -0.901867 1.27656 0
M  V30 10820 H 1044.78 -3.23109 0.277691 0
M  V30 10821 H 1044.57 -3.3433 2.04856 0
M  V30 10822 H 1046.06 -3.97345 1.28479 0
M  V30 10823 N 1046.49 -1.27344 -0.928501 0
M  V30 10824 C 1047.43 -1.05797 -2.03322 0
M  V30 10825 C 1048.44 -0.0143086 -1.62794 0
M  V30 10826 O 1049.63 -0.25578 -1.76658 0
M  V30 10827 C 1046.73 -0.582673 -3.33853 0
M  V30 10828 C 1045.9 -1.69844 -4.03078 0
M  V30 10829 C 1044.96 -1.21902 -5.11885 0
M  V30 10830 O 1043.99 -1.91853 -5.35893 0
M  V30 10831 N 1045.19 -0.0742392 -5.80453 0
M  V30 10832 H 1047.95 -2.00928 -2.22369 0
M  V30 10833 H 1045.51 -1.189 -1.09883 0
M  V30 10834 H 1047.51 -0.245862 -4.03952 0
M  V30 10835 H 1046.08 0.27539 -3.11385 0
M  V30 10836 H 1045.3 -2.20557 -3.26723 0
M  V30 10837 H 1046.58 -2.4473 -4.46077 0
M  V30 10838 H 1045.98 0.509631 -5.634 0
M  V30 10839 H 1044.54 0.203399 -6.51483 0
M  V30 10840 N 1047.97 1.13488 -1.09353 0
M  V30 10841 C 1048.9 2.20988 -0.75409 0
M  V30 10842 C 1049.88 1.67977 0.267901 0
M  V30 10843 O 1051.07 1.93722 0.136128 0
M  V30 10844 C 1048.2 3.46869 -0.173042 0
M  V30 10845 C 1047.15 4.12965 -1.12446 0
M  V30 10846 C 1046.48 5.33163 -0.405157 0
M  V30 10847 C 1047.78 4.60388 -2.46658 0
M  V30 10848 H 1049.47 2.49639 -1.6529 0
M  V30 10849 H 1047.02 1.19987 -0.796182 0
M  V30 10850 H 1048.97 4.21331 0.0764988 0
M  V30 10851 H 1047.7 3.17611 0.760956 0
M  V30 10852 H 1046.35 3.40469 -1.35927 0
M  V30 10853 H 1046 5.00169 0.532955 0
M  V30 10854 H 1045.7 5.78332 -1.03952 0
M  V30 10855 H 1047.23 6.1038 -0.163899 0
M  V30 10856 H 1048.64 5.26276 -2.27389 0
M  V30 10857 H 1047.04 5.16294 -3.05876 0
M  V30 10858 H 1048.11 3.74949 -3.07476 0
M  V30 10859 N 1049.45 0.880621 1.30701 0
M  V30 10860 C 1050.87 0.574015 1.4892 0
M  V30 10861 C 1051.07 -0.889312 1.80813 0
M  V30 10862 O 1050.12 -1.67082 1.89314 0
M  V30 10863 C 1051.44 1.48341 2.61563 0
M  V30 10864 C 1052.98 1.48658 2.75445 0
M  V30 10865 C 1053.46 2.3818 3.91196 0
M  V30 10866 N 1054.95 2.36119 3.985 0
M  V30 10867 C 1055.69 3.02101 4.87363 0
M  V30 10868 N 1055.18 3.77293 5.81052 0
M  V30 10869 N 1056.97 2.91356 4.80696 0
M  V30 10870 H 1049.13 1.82732 1.08271 0
M  V30 10871 H 1051.39 0.781939 0.535981 0
M  V30 10872 H 1051.09 2.52515 2.44804 0
M  V30 10873 H 1050.97 1.18977 3.57944 0
M  V30 10874 H 1053.36 0.452374 2.91612 0
M  V30 10875 H 1053.44 1.8205 1.79698 0
M  V30 10876 H 1053.08 3.41683 3.75786 0
M  V30 10877 H 1053.01 2.02106 4.86272 0
M  V30 10878 H 1055.5 1.81474 3.31475 0
M  V30 10879 H 1055.81 4.24742 6.45612 0
M  V30 10880 H 1054.16 3.81401 5.80998 0
M  V30 10881 H 1057.35 2.32143 4.06481 0
M  V30 10882 H 1057.52 3.43056 5.49742 0
M  V30 10883 N 1050.93 -1.4397 0.641131 0
M  V30 10884 C 1052.18 -2.01163 0.147026 0
M  V30 10885 C 1052.49 -1.51099 -1.24211 0
M  V30 10886 O 1053.7 -2.00487 -1.83078 0
M  V30 10887 C 1052.15 -3.59275 0.212068 0
M  V30 10888 C 1051.76 -4.18334 1.60314 0
M  V30 10889 C 1053.51 -4.23903 -0.225057 0
M  V30 10890 C 1051.41 -5.68701 1.62276 0
M  V30 10891 H 1050.34 -0.75226 0.051201 0
M  V30 10892 H 1052.99 -1.65075 0.801396 0
M  V30 10893 H 1051.38 -3.92708 -0.509589 0
M  V30 10894 H 1052.55 -3.96422 2.34918 0
M  V30 10895 H 1050.86 -3.66031 1.9852 0
M  V30 10896 H 1053.46 -5.34205 -0.230074 0
M  V30 10897 H 1053.8 -3.96956 -1.25426 0
M  V30 10898 H 1054.34 -3.95309 0.44444 0
M  V30 10899 H 1051.08 -6.00397 2.63066 0
M  V30 10900 H 1050.6 -5.92705 0.919797 0
M  V30 10901 H 1052.28 -6.32521 1.36112 0
M  V30 10902 N 1052.41 -0.382291 -1.52893 0
M  V30 10903 C 1053.34 0.447829 -2.29165 0
M  V30 10904 C 1054.32 1.06956 -1.32267 0
M  V30 10905 O 1055.5 1.08365 -1.61154 0
M  V30 10906 C 1052.63 1.57902 -3.09329 0
M  V30 10907 C 1051.59 1.08369 -4.14053 0
M  V30 10908 C 1050.91 2.30641 -4.82399 0
M  V30 10909 C 1052.21 0.156591 -5.22065 0
M  V30 10910 H 1053.91 -0.188541 -2.98806 0
M  V30 10911 H 1051.45 -0.0921179 -1.43705 0
M  V30 10912 H 1053.41 2.16652 -3.61442 0
M  V30 10913 H 1052.13 2.24287 -2.37409 0
M  V30 10914 H 1050.79 0.518772 -3.62911 0
M  V30 10915 H 1050.44 2.9552 -4.07034 0
M  V30 10916 H 1050.14 1.98163 -5.53177 0
M  V30 10917 H 1051.66 2.90047 -5.37313 0
M  V30 10918 H 1053.08 0.652065 -5.6958 0
M  V30 10919 H 1051.47 -0.0780978 -6.00049 0
M  V30 10920 H 1052.54 -0.796529 -4.78313 0
M  V30 10921 N 1053.89 1.57202 -0.111913 0
M  V30 10922 C 1054.83 2.14936 0.840908 0
M  V30 10923 C 1055.8 1.07242 1.2684 0
M  V30 10924 O 1056.99 1.35114 1.34718 0
M  V30 10925 C 1054.13 2.74743 2.0883 0
M  V30 10926 C 1053.24 3.96723 1.70982 0
M  V30 10927 C 1052.38 4.4464 2.90634 0
M  V30 10928 C 1051.41 5.59169 2.48992 0
M  V30 10929 N 1050.55 6.01862 3.61534 0
M  V30 10930 H 1055.39 2.96034 0.341735 0
M  V30 10931 H 1052.93 1.4626 0.156993 0
M  V30 10932 H 1054.89 3.07546 2.81907 0
M  V30 10933 H 1053.52 1.96346 2.56218 0
M  V30 10934 H 1052.57 3.70127 0.878072 0
M  V30 10935 H 1053.88 4.79795 1.36373 0
M  V30 10936 H 1053.03 4.79315 3.71944 0
M  V30 10937 H 1051.77 3.60503 3.28464 0
M  V30 10938 H 1050.78 5.24106 1.66113 0
M  V30 10939 H 1052 6.45067 2.12287 0
M  V30 10940 H 1049.95 5.20667 3.99051 0
M  V30 10941 H 1049.87 6.79772 3.30827 0
M  V30 10942 H 1051.13 6.41172 4.43305 0
M  V30 10943 N 1055.36 -0.161842 1.56767 0
M  V30 10944 C 1056.27 -1.21996 2.00385 0
M  V30 10945 C 1057.29 -1.4789 0.916768 0
M  V30 10946 O 1058.47 -1.59852 1.22513 0
M  V30 10947 C 1055.53 -2.53695 2.36305 0
M  V30 10948 C 1054.59 -2.3558 3.58888 0
M  V30 10949 C 1053.82 -3.60998 3.93085 0
M  V30 10950 O 1054.05 -4.6657 3.28129 0
M  V30 10951 O 1052.98 -3.54544 4.86397 0
M  V30 10952 H 1056.81 -0.879701 2.9068 0
M  V30 10953 H 1054.39 -0.369437 1.4476 0
M  V30 10954 H 1056.27 -3.31366 2.60335 0
M  V30 10955 H 1054.95 -2.87281 1.49169 0
M  V30 10956 H 1053.86 -1.55908 3.40064 0
M  V30 10957 H 1055.19 -2.06915 4.46595 0
M  V30 10958 N 1056.84 -1.516 -0.430713 0
M  V30 10959 C 1058.07 -1.68414 -1.20185 0
M  V30 10960 C 1058.48 -0.384297 -1.84847 0
M  V30 10961 O 1057.84 0.637808 -1.70992 0
M  V30 10962 C 1057.89 -2.80451 -2.28099 0
M  V30 10963 O 1057.61 -4.05399 -1.66081 0
M  V30 10964 C 1059.11 -3.0859 -3.18256 0
M  V30 10965 H 1056.33 -0.564982 -0.361989 0
M  V30 10966 H 1058.88 -1.9805 -0.50954 0
M  V30 10967 H 1057.03 -2.53395 -2.93036 0
M  V30 10968 H 1057.45 -4.67671 -2.37453 0
M  V30 10969 H 1058.92 -3.9055 -3.90096 0
M  V30 10970 H 1059.4 -2.21264 -3.79393 0
M  V30 10971 H 1060 -3.37331 -2.59014 0
M  V30 10972 N 1058.32 0.686584 -1.41858 0
M  V30 10973 C 1059.23 1.83002 -1.46791 0
M  V30 10974 C 1060.25 1.70284 -0.357675 0
M  V30 10975 O 1061.42 1.92042 -0.606781 0
M  V30 10976 C 1058.49 3.19056 -1.35661 0
M  V30 10977 C 1057.55 3.43817 -2.57077 0
M  V30 10978 C 1056.78 4.7338 -2.46469 0
M  V30 10979 O 1057 5.50483 -1.49413 0
M  V30 10980 O 1055.94 4.99124 -3.36391 0
M  V30 10981 H 1059.76 1.81797 -2.43277 0
M  V30 10982 H 1057.35 0.840812 -1.23494 0
M  V30 10983 H 1059.23 4.00267 -1.31773 0
M  V30 10984 H 1057.91 3.20925 -0.422951 0
M  V30 10985 H 1056.81 2.625 -2.66541 0
M  V30 10986 H 1058.15 3.4677 -3.49302 0
M  V30 10987 N 1059.8 1.27835 0.921735 0
M  V30 10988 C 1060.73 1.136 2.04003 0
M  V30 10989 C 1061.71 0.0358756 1.70062 0
M  V30 10990 O 1062.89 0.211438 1.93046 0
M  V30 10991 C 1060.02 0.788697 3.38226 0
M  V30 10992 C 1058.98 1.84272 3.863 0
M  V30 10993 C 1058.3 1.34923 5.17397 0
M  V30 10994 C 1059.6 3.24788 4.09035 0
M  V30 10995 H 1061.3 2.07149 2.1617 0
M  V30 10996 H 1058.84 0.997349 1.0387 0
M  V30 10997 H 1060.8 0.675911 4.15944 0
M  V30 10998 H 1059.52 -0.182499 3.2609 0
M  V30 10999 H 1058.18 1.94451 3.1078 0
M  V30 11000 H 1057.83 0.367328 5.01657 0
M  V30 11001 H 1057.53 2.05397 5.50532 0
M  V30 11002 H 1059.05 1.24951 5.97678 0
M  V30 11003 H 1060.47 3.17575 4.77304 0
M  V30 11004 H 1058.86 3.93025 4.53488 0
M  V30 11005 H 1059.93 3.69398 3.14122 0
M  V30 11006 N 1061.28 -1.12907 1.09954 0
M  V30 11007 C 1062.22 -2.18485 0.743848 0
M  V30 11008 C 1063.19 -1.63766 -0.277494 0
M  V30 11009 O 1064.38 -1.90146 -0.157899 0
M  V30 11010 C 1061.52 -3.44649 0.176437 0
M  V30 11011 C 1060.63 -4.13445 1.25248 0
M  V30 11012 C 1059.77 -5.27242 0.647242 0
M  V30 11013 C 1058.8 -5.87897 1.70421 0
M  V30 11014 N 1057.94 -6.93116 1.1196 0
M  V30 11015 H 1062.78 -2.48257 1.64841 0
M  V30 11016 H 1060.32 -1.21891 0.823471 0
M  V30 11017 H 1062.28 -4.16852 -0.170384 0
M  V30 11018 H 1060.91 -3.15309 -0.69137 0
M  V30 11019 H 1059.96 -3.39471 1.7165 0
M  V30 11020 H 1061.27 -4.54601 2.05279 0
M  V30 11021 H 1060.42 -6.06186 0.249579 0
M  V30 11022 H 1059.16 -4.87351 -0.184556 0
M  V30 11023 H 1058.17 -5.07643 2.11136 0
M  V30 11024 H 1059.39 -6.2986 2.53877 0
M  V30 11025 H 1057.34 -6.55271 0.309181 0
M  V30 11026 H 1057.26 -7.32843 1.85681 0
M  V30 11027 H 1058.52 -7.759 0.748326 0
M  V30 11028 N 1062.75 -0.88754 -1.30232 0
M  V30 11029 C 1064.17 -0.581904 -1.48614 0
M  V30 11030 C 1064.37 0.879711 -1.81282 0
M  V30 11031 O 1063.43 1.66076 -1.90198 0
M  V30 11032 C 1064.74 -1.49726 -2.60773 0
M  V30 11033 C 1066.29 -1.50117 -2.74653 0
M  V30 11034 C 1066.76 -2.40251 -3.89927 0
M  V30 11035 N 1068.25 -2.38229 -3.97242 0
M  V30 11036 C 1068.99 -3.04682 -4.85754 0
M  V30 11037 N 1068.48 -3.80369 -5.79043 0
M  V30 11038 N 1070.28 -2.93901 -4.79144 0
M  V30 11039 H 1062.43 -1.83304 -1.073 0
M  V30 11040 H 1064.69 -0.78477 -0.531826 0
M  V30 11041 H 1064.4 -2.5381 -2.43462 0
M  V30 11042 H 1064.27 -1.20874 -3.57308 0
M  V30 11043 H 1066.66 -0.467832 -2.91368 0
M  V30 11044 H 1066.74 -1.83001 -1.7873 0
M  V30 11045 H 1066.38 -3.43671 -3.73969 0
M  V30 11046 H 1066.31 -2.04682 -4.85194 0
M  V30 11047 H 1068.8 -1.83229 -3.30508 0
M  V30 11048 H 1069.12 -4.28159 -6.4335 0
M  V30 11049 H 1067.46 -3.84477 -5.78967 0
M  V30 11050 H 1070.65 -2.34296 -4.05245 0
M  V30 11051 H 1070.83 -3.45967 -5.47915 0
M  V30 11052 N 1064.23 1.43628 -0.648757 0
M  V30 11053 C 1065.48 2.02163 -0.160574 0
M  V30 11054 C 1065.81 1.51037 1.22072 0
M  V30 11055 O 1065.09 0.701633 1.81404 0
M  V30 11056 C 1065.37 3.59715 -0.166528 0
M  V30 11057 C 1065.22 4.21083 -1.58142 0
M  V30 11058 C 1066.54 4.37256 0.499485 0
M  V30 11059 H 1063.66 0.734568 -0.0598238 0
M  V30 11060 H 1066.3 1.70981 -0.828592 0
M  V30 11061 H 1064.45 3.86411 0.402302 0
M  V30 11062 H 1066.12 4.05433 -2.2005 0
M  V30 11063 H 1064.37 3.77904 -2.13005 0
M  V30 11064 H 1065.04 5.30156 -1.53748 0
M  V30 11065 H 1067.51 4.16097 0.0155561 0
M  V30 11066 H 1066.39 5.4693 0.464574 0
M  V30 11067 H 1066.65 4.13175 1.57286 0
M  V30 11068 N 1065.71 0.390394 1.52688 0
M  V30 11069 C 1066.66 -0.444229 2.26485 0
M  V30 11070 C 1067.63 -1.05688 1.28138 0
M  V30 11071 O 1068.81 -1.0847 1.56968 0
M  V30 11072 C 1065.95 -1.56501 3.07574 0
M  V30 11073 C 1065.07 -0.975111 4.20851 0
M  V30 11074 C 1064.2 -2.06704 4.89333 0
M  V30 11075 C 1063.24 -1.45309 5.94602 0
M  V30 11076 N 1062.38 -2.48437 6.56676 0
M  V30 11077 H 1067.22 0.191535 2.97384 0
M  V30 11078 H 1064.75 0.106287 1.46716 0
M  V30 11079 H 1066.71 -2.22558 3.52879 0
M  V30 11080 H 1065.34 -2.17107 2.38881 0
M  V30 11081 H 1064.39 -0.204109 3.79852 0
M  V30 11082 H 1065.71 -0.486465 4.96422 0
M  V30 11083 H 1064.86 -2.80528 5.37949 0
M  V30 11084 H 1063.6 -2.58928 4.13289 0
M  V30 11085 H 1062.6 -0.700091 5.45324 0
M  V30 11086 H 1063.83 -0.938775 6.7258 0
M  V30 11087 H 1061.77 -2.99829 5.83471 0
M  V30 11088 H 1061.69 -2.04331 7.27863 0
M  V30 11089 H 1062.96 -3.21888 7.09935 0
M  V30 11090 N 1067.19 -1.57141 0.120249 0
M  V30 11091 C 1068.43 -1.95527 -0.538245 0
M  V30 11092 C 1068.77 -1.00373 -1.6625 0
M  V30 11093 O 1068.04 -0.0411734 -1.94456 0
M  V30 11094 C 1068.33 -3.43843 -1.06976 0
M  V30 11095 C 1068.18 -4.49771 0.0511596 0
M  V30 11096 C 1069.5 -3.94035 -1.96022 0
M  V30 11097 H 1066.62 -0.710958 -0.194183 0
M  V30 11098 H 1069.26 -1.88986 0.196061 0
M  V30 11099 H 1067.41 -3.49548 -1.69553 0
M  V30 11100 H 1069.08 -4.56163 0.686503 0
M  V30 11101 H 1067.32 -4.27882 0.714127 0
M  V30 11102 H 1067.99 -5.50812 -0.361995 0
M  V30 11103 H 1070.47 -3.9064 -1.43315 0
M  V30 11104 H 1069.35 -4.98329 -2.3013 0
M  V30 11105 H 1069.61 -3.34803 -2.8872 0
M  V30 11106 N 1068.67 0.153526 -1.5685 0
M  V30 11107 C 1069.6 1.19162 -2.00805 0
M  V30 11108 C 1070.58 1.45172 -0.886518 0
M  V30 11109 O 1071.76 1.56203 -1.15387 0
M  V30 11110 C 1068.89 2.52637 -2.38311 0
M  V30 11111 C 1067.85 2.41161 -3.53589 0
M  V30 11112 C 1067.17 3.79287 -3.76889 0
M  V30 11113 C 1068.47 1.90122 -4.86468 0
M  V30 11114 H 1070.17 0.82617 -2.87776 0
M  V30 11115 H 1067.71 0.395972 -1.38449 0
M  V30 11116 H 1069.67 3.25478 -2.6766 0
M  V30 11117 H 1068.39 2.91005 -1.4827 0
M  V30 11118 H 1067.05 1.70772 -3.24395 0
M  V30 11119 H 1066.7 4.15079 -2.84109 0
M  V30 11120 H 1066.4 3.72472 -4.54465 0
M  V30 11121 H 1067.92 4.53687 -4.08657 0
M  V30 11122 H 1069.33 2.52752 -5.14577 0
M  V30 11123 H 1067.73 1.94214 -5.67804 0
M  V30 11124 H 1068.8 0.856517 -4.77275 0
M  V30 11125 N 1070.14 1.51827 0.422667 0
M  V30 11126 C 1071.39 1.64893 1.16853 0
M  V30 11127 C 1071.71 0.37456 1.91369 0
M  V30 11128 O 1070.98 -0.610128 1.86157 0
M  V30 11129 H 1069.56 0.607744 0.434345 0
M  V30 11130 H 1072.23 1.88816 0.483159 0
M  V30 11131 H 1071.32 2.48361 1.89006 0
M  V30 11132 N 1071.62 -0.679052 1.4222 0
M  V30 11133 C 1072.85 -1.47248 1.46058 0
M  V30 11134 C 1073.27 -1.87962 0.0720987 0
M  V30 11135 O 1072.63 -1.5572 -0.928488 0
M  V30 11136 C 1072.68 -2.70067 2.38948 0
M  V30 11137 O 1071.78 -3.68178 1.85791 0
M  V30 11138 H 1071.12 -0.442533 0.495036 0
M  V30 11139 H 1073.65 -0.833263 1.86863 0
M  V30 11140 H 1073.66 -3.18187 2.55385 0
M  V30 11141 H 1072.34 -2.39773 3.39826 0
M  V30 11142 H 1070.92 -3.2719 1.78889 0
M  V30 11143 N 1073.1 -1.28322 -0.914942 0
M  V30 11144 C 1074.35 -1.15179 -1.66067 0
M  V30 11145 C 1074.67 0.300279 -1.92674 0
M  V30 11146 O 1073.94 1.20821 -1.54205 0
M  V30 11147 H 1072.52 -0.423264 -0.615513 0
M  V30 11148 H 1075.18 -1.61034 -1.09791 0
M  V30 11149 H 1074.28 -1.69048 -2.62353 0
M  V30 11150 N 1074.58 1.12322 -1.10551 0
M  V30 11151 C 1075.54 2.16273 -0.758844 0
M  V30 11152 C 1076.54 1.59325 0.217294 0
M  V30 11153 O 1077.73 1.74199 -0.00601346 0
M  V30 11154 C 1074.86 3.40674 -0.124238 0
M  V30 11155 H 1076.06 2.48454 -1.6796 0
M  V30 11156 H 1073.61 1.2735 -0.906188 0
M  V30 11157 H 1074.34 3.14094 0.807194 0
M  V30 11158 H 1074.13 3.83284 -0.826772 0
M  V30 11159 H 1075.62 4.17474 0.102502 0
M  V30 11160 N 1076.06 0.894434 1.2976 0
M  V30 11161 C 1077.3 0.517669 1.95771 0
M  V30 11162 C 1077.63 -0.935028 1.70551 0
M  V30 11163 O 1076.89 -1.67722 1.00835 0
M  V30 11164 C 1077.19 0.750307 3.49435 0
M  V30 11165 C 1076.85 2.17955 3.94723 0
M  V30 11166 C 1075.51 2.57036 4.068 0
M  V30 11167 C 1077.87 3.11053 4.18205 0
M  V30 11168 C 1075.19 3.88406 4.39724 0
M  V30 11169 C 1077.55 4.41966 4.52602 0
M  V30 11170 C 1076.21 4.80927 4.62888 0
M  V30 11171 H 1075.48 0.189428 0.716378 0
M  V30 11172 H 1078.13 1.13209 1.54454 0
M  V30 11173 H 1076.43 0.0529242 3.91764 0
M  V30 11174 H 1078.13 0.438251 3.98598 0
M  V30 11175 H 1074.72 1.86622 3.85837 0
M  V30 11176 H 1078.9 2.82076 4.08347 0
M  V30 11177 H 1074.16 4.18321 4.4589 0
M  V30 11178 H 1078.33 5.14134 4.69722 0
M  V30 11179 H 1075.96 5.82759 4.88156 0
M  V30 11180 N 1077.53 -1.43282 0.656365 0
M  V30 11181 C 1078.78 -2.01378 0.170702 0
M  V30 11182 C 1079.1 -1.52063 -1.22073 0
M  V30 11183 O 1078.37 -0.73456 -1.81607 0
M  V30 11184 H 1076.95 -0.744577 0.0601168 0
M  V30 11185 H 1079.62 -1.75449 0.848739 0
M  V30 11186 H 1078.71 -3.11701 0.157745 0
M  V30 11187 N 1079.01 -0.398486 -1.52479 0
M  V30 11188 C 1080.24 0.180557 -2.06111 0
M  V30 11189 C 1080.66 1.39751 -1.26945 0
M  V30 11190 O 1080.01 1.79699 -0.318497 0
M  V30 11191 C 1080.06 0.541573 -3.5742 0
M  V30 11192 O 1079.79 -0.627043 -4.33589 0
M  V30 11193 C 1081.29 1.17549 -4.27431 0
M  V30 11194 H 1078.51 0.0250754 -0.670531 0
M  V30 11195 H 1081.05 -0.566368 -1.96501 0
M  V30 11196 H 1079.21 1.23839 -3.67073 0
M  V30 11197 H 1079.62 -0.328233 -5.23472 0
M  V30 11198 H 1081.09 1.37839 -5.34513 0
M  V30 11199 H 1081.57 2.14553 -3.83228 0
M  V30 11200 H 1082.18 0.51918 -4.22119 0
M  V30 11201 N 1080.49 1.57075 -0.12858 0
M  V30 11202 C 1081.74 1.9581 0.527868 0
M  V30 11203 C 1082.07 1.01253 1.65715 0
M  V30 11204 O 1081.35 0.0514853 1.94432 0
M  V30 11205 C 1081.63 3.44406 1.05151 0
M  V30 11206 C 1081.48 4.49737 -0.0750113 0
M  V30 11207 C 1082.8 3.95069 1.9393 0
M  V30 11208 H 1079.92 0.711978 0.19041 0
M  V30 11209 H 1082.56 1.88879 -0.206081 0
M  V30 11210 H 1080.71 3.50443 1.67697 0
M  V30 11211 H 1082.38 4.55793 -0.710685 0
M  V30 11212 H 1080.63 4.27497 -0.736809 0
M  V30 11213 H 1081.3 5.50996 0.332779 0
M  V30 11214 H 1083.77 3.91395 1.41241 0
M  V30 11215 H 1082.65 4.99542 2.27484 0
M  V30 11216 H 1082.91 3.36329 2.86941 0
M  V30 11217 N 1081.97 -0.145205 1.5693 0
M  V30 11218 C 1083.2 -0.871133 1.87336 0
M  V30 11219 C 1083.61 -1.7517 0.714992 0
M  V30 11220 O 1082.95 -1.80815 -0.324304 0
M  V30 11221 C 1083.01 -1.77775 3.12468 0
M  V30 11222 C 1082.68 -1.07416 4.44197 0
M  V30 11223 C 1083.67 -0.42722 5.18142 0
M  V30 11224 C 1081.36 -1.06313 4.9092 0
M  V30 11225 C 1083.35 0.221348 6.37016 0
M  V30 11226 C 1081.04 -0.410755 6.09718 0
M  V30 11227 C 1082.04 0.230357 6.82611 0
M  V30 11228 O 1081.73 0.872389 7.99152 0
M  V30 11229 H 1081.46 -0.257174 0.62517 0
M  V30 11230 H 1084.01 -0.142159 2.04907 0
M  V30 11231 H 1082.24 -2.54771 2.9091 0
M  V30 11232 H 1083.93 -2.37579 3.29107 0
M  V30 11233 H 1084.7 -0.427536 4.83112 0
M  V30 11234 H 1080.58 -1.55156 4.34105 0
M  V30 11235 H 1084.12 0.722349 6.9385 0
M  V30 11236 H 1080.02 -0.408112 6.44209 0
M  V30 11237 H 1080.78 0.774236 8.1483 0
M  V30 11238 N 1083.45 -1.52049 -0.414609 0
M  V30 11239 C 1084.39 -1.74998 -1.5048 0
M  V30 11240 C 1085.36 -0.592251 -1.55182 0
M  V30 11241 O 1086.55 -0.829203 -1.7184 0
M  V30 11242 C 1083.69 -1.90157 -2.87983 0
M  V30 11243 C 1082.8 -3.17789 -2.92633 0
M  V30 11244 C 1081.94 -3.23411 -4.21401 0
M  V30 11245 C 1080.98 -4.45267 -4.20004 0
M  V30 11246 N 1080.11 -4.48312 -5.40334 0
M  V30 11247 H 1084.95 -2.68046 -1.30212 0
M  V30 11248 H 1082.49 -1.32824 -0.632154 0
M  V30 11249 H 1084.45 -1.96929 -3.67797 0
M  V30 11250 H 1083.08 -1.00496 -3.06758 0
M  V30 11251 H 1082.13 -3.20216 -2.05343 0
M  V30 11252 H 1083.44 -4.07634 -2.87465 0
M  V30 11253 H 1082.6 -3.29224 -5.09604 0
M  V30 11254 H 1081.34 -2.31495 -4.29257 0
M  V30 11255 H 1080.34 -4.39606 -3.30192 0
M  V30 11256 H 1081.57 -5.38472 -4.13793 0
M  V30 11257 H 1079.51 -3.59277 -5.48868 0
M  V30 11258 H 1079.43 -5.31994 -5.37139 0
M  V30 11259 H 1080.7 -4.58347 -6.30506 0
M  V30 11260 N 1084.93 0.6715 -1.42579 0
M  V30 11261 C 1086.17 1.42871 -1.42941 0
M  V30 11262 C 1086.49 1.94941 -0.0480483 0
M  V30 11263 O 1085.76 1.73275 0.913921 0
M  V30 11264 H 1084.34 0.530189 -0.526221 0
M  V30 11265 H 1087.01 0.793219 -1.78028 0
M  V30 11266 H 1086.1 2.2801 -2.13114 0
M  V30 11267 N 1086.4 1.28806 0.908124 0
M  V30 11268 C 1087.65 1.15663 1.65242 0
M  V30 11269 C 1087.97 -0.292883 1.93395 0
M  V30 11270 O 1089.17 -0.545509 2.65963 0
M  V30 11271 C 1087.63 2.02233 2.97707 0
M  V30 11272 C 1087.24 3.51958 2.77181 0
M  V30 11273 C 1088.98 1.97792 3.75604 0
M  V30 11274 C 1086.89 4.3066 4.05322 0
M  V30 11275 H 1085.82 0.42928 0.619867 0
M  V30 11276 H 1088.47 1.5338 1.00731 0
M  V30 11277 H 1086.85 1.57377 3.63385 0
M  V30 11278 H 1088.02 4.0481 2.20149 0
M  V30 11279 H 1086.34 3.57983 2.12691 0
M  V30 11280 H 1088.94 2.53858 4.70596 0
M  V30 11281 H 1089.28 0.955956 4.05175 0
M  V30 11282 H 1089.81 2.40648 3.16755 0
M  V30 11283 H 1086.55 5.3346 3.8092 0
M  V30 11284 H 1086.07 3.8258 4.61944 0
M  V30 11285 H 1087.75 4.40878 4.73535 0
M  V30 11286 N 1087.88 -1.11734 1.11145 0
M  V30 11287 C 1089.13 -1.83874 0.86959 0
M  V30 11288 C 1089.48 -1.82859 -0.598363 0
M  V30 11289 O 1088.78 -1.26849 -1.43596 0
M  V30 11290 C 1088.97 -3.3046 1.36129 0
M  V30 11291 C 1088.8 -3.45752 2.87551 0
M  V30 11292 C 1087.57 -3.58956 3.55638 0
M  V30 11293 C 1089.77 -3.40296 3.85621 0
M  V30 11294 N 1087.75 -3.62688 4.95309 0
M  V30 11295 C 1089.12 -3.50611 5.11343 0
M  V30 11296 C 1091.17 -3.23808 3.78223 0
M  V30 11297 C 1089.88 -3.46138 6.3054 0
M  V30 11298 C 1091.9 -3.20651 4.96927 0
M  V30 11299 C 1091.27 -3.31534 6.21502 0
M  V30 11300 H 1087.36 -0.688226 0.371306 0
M  V30 11301 H 1089.95 -1.33715 1.41522 0
M  V30 11302 H 1088.12 -3.79144 0.842885 0
M  V30 11303 H 1089.85 -3.90493 1.0629 0
M  V30 11304 H 1086.61 -3.61387 3.06098 0
M  V30 11305 H 1087.03 -3.68199 5.68118 0
M  V30 11306 H 1091.67 -3.14282 2.8282 0
M  V30 11307 H 1089.39 -3.54433 7.26225 0
M  V30 11308 H 1092.98 -3.09064 4.9292 0
M  V30 11309 H 1091.86 -3.29076 7.11814 0
M  V30 11310 N 1089.36 -0.901303 -1.29284 0
M  V30 11311 C 1090.61 -0.528826 -1.95784 0
M  V30 11312 C 1090.94 0.922833 -1.70873 0
M  V30 11313 O 1090.21 1.65448 -1.0226 0
M  V30 11314 C 1090.5 -0.823793 -3.50551 0
M  V30 11315 C 1090.35 -2.32727 -3.84913 0
M  V30 11316 C 1091.67 -0.311382 -4.38997 0
M  V30 11317 H 1088.79 -0.193604 -0.711116 0
M  V30 11318 H 1091.43 -1.12828 -1.52872 0
M  V30 11319 H 1089.58 -0.313612 -3.87232 0
M  V30 11320 H 1091.25 -2.90712 -3.58168 0
M  V30 11321 H 1089.49 -2.78735 -3.32399 0
M  V30 11322 H 1090.17 -2.48423 -4.9294 0
M  V30 11323 H 1092.64 -0.748265 -4.09317 0
M  V30 11324 H 1091.52 -0.546957 -5.46168 0
M  V30 11325 H 1091.78 0.787959 -4.35021 0
M  V30 11326 N 1090.84 1.42931 -0.663954 0
M  V30 11327 C 1092.25 1.84877 -0.260283 0
M  V30 11328 C 1092.6 1.5558 1.19538 0
M  V30 11329 O 1091.72 1.01015 1.91377 0
M  V30 11330 C 1092.32 3.35585 -0.465618 0
M  V30 11331 C 1090.88 3.76221 -0.116169 0
M  V30 11332 C 1090.03 2.66587 -0.763317 0
M  V30 11333 H 1092.98 1.32932 -0.866882 0
M  V30 11334 H 1093 3.79427 0.285608 0
M  V30 11335 H 1092.51 3.56877 -1.52515 0
M  V30 11336 H 1090.61 3.60539 0.940342 0
M  V30 11337 H 1090.72 4.75943 -0.549123 0
M  V30 11338 H 1089.09 2.53948 -0.19559 0
M  V30 11339 H 1089.87 2.90704 -1.82609 0
M  V30 11340 N 1092.32 0.406567 1.52266 0
M  V30 11341 C 1093.23 -0.4271 2.30679 0
M  V30 11342 C 1094.24 -1.0559 1.383 0
M  V30 11343 O 1095.42 -1.05797 1.71374 0
M  V30 11344 C 1092.48 -1.53008 3.1111 0
M  V30 11345 C 1091.54 -0.924604 4.19225 0
M  V30 11346 C 1090.78 -1.97502 4.95811 0
M  V30 11347 O 1091 -3.19277 4.72671 0
M  V30 11348 O 1089.93 -1.58268 5.80719 0
M  V30 11349 H 1093.76 0.212187 3.02958 0
M  V30 11350 H 1091.34 0.169835 1.48432 0
M  V30 11351 H 1093.23 -2.17046 3.61205 0
M  V30 11352 H 1091.9 -2.15401 2.41628 0
M  V30 11353 H 1090.81 -0.247009 3.73284 0
M  V30 11354 H 1092.14 -0.34463 4.90992 0
M  V30 11355 N 1093.79 -1.57004 0.136909 0
M  V30 11356 C 1095.04 -1.9541 -0.51569 0
M  V30 11357 C 1095.36 -1.02219 -1.66061 0
M  V30 11358 O 1094.63 -0.0818172 -1.95729 0
M  V30 11359 H 1093.21 -0.721504 -0.193497 0
M  V30 11360 H 1095.88 -1.93765 0.210046 0
M  V30 11361 H 1094.97 -2.98887 -0.898494 0
M  V30 11362 N 1095.27 0.136881 -1.57004 0
M  V30 11363 C 1096.18 1.18793 -2.023 0
M  V30 11364 C 1097.2 1.46412 -0.94018 0
M  V30 11365 O 1098.37 1.57883 -1.2504 0
M  V30 11366 C 1095.44 2.49903 -2.40311 0
M  V30 11367 C 1094.5 2.29841 -3.6259 0
M  V30 11368 C 1093.73 3.54699 -3.98779 0
M  V30 11369 O 1093.96 4.61291 -3.3551 0
M  V30 11370 O 1092.89 3.46761 -4.91976 0
M  V30 11371 H 1096.72 0.833345 -2.92043 0
M  V30 11372 H 1094.3 0.346361 -1.4533 0
M  V30 11373 H 1096.18 3.27183 -2.65574 0
M  V30 11374 H 1094.86 2.84872 -1.5372 0
M  V30 11375 H 1093.77 1.50478 -3.42501 0
M  V30 11376 H 1095.1 1.99784 -4.4983 0
M  V30 11377 N 1096.75 1.52266 0.40654 0
M  V30 11378 C 1097.98 1.70304 1.17491 0
M  V30 11379 C 1098.39 0.413656 1.84213 0
M  V30 11380 O 1097.75 -0.610524 1.71985 0
M  V30 11381 C 1097.8 2.84045 2.23609 0
M  V30 11382 O 1097.52 4.0799 1.5961 0
M  V30 11383 C 1099.02 3.13614 3.13306 0
M  V30 11384 H 1096.24 0.570669 0.352955 0
M  V30 11385 H 1098.79 1.98836 0.477967 0
M  V30 11386 H 1096.94 2.58025 2.88967 0
M  V30 11387 H 1097.36 4.7139 2.29983 0
M  V30 11388 H 1098.83 3.96707 3.83833 0
M  V30 11389 H 1099.31 2.27272 3.75824 0
M  V30 11390 H 1099.91 3.41409 2.53614 0
M  V30 11391 N 1098.23 -0.663929 1.42933 0
M  V30 11392 C 1099.47 -1.42603 1.44195 0
M  V30 11393 C 1099.81 -1.94101 0.0620284 0
M  V30 11394 O 1099.08 -1.71609 -0.91546 0
M  V30 11395 C 1099.37 -2.61522 2.47544 0
M  V30 11396 C 1099.22 -2.15587 3.94769 0
M  V30 11397 C 1100.54 -3.6374 2.47753 0
M  V30 11398 H 1097.66 -0.517189 0.525056 0
M  V30 11399 H 1100.3 -0.75361 1.74415 0
M  V30 11400 H 1098.45 -3.1889 2.21904 0
M  V30 11401 H 1100.12 -1.63303 4.31428 0
M  V30 11402 H 1098.36 -1.47057 4.08114 0
M  V30 11403 H 1099.03 -3.01053 4.62678 0
M  V30 11404 H 1101.51 -3.16111 2.70579 0
M  V30 11405 H 1100.39 -4.44512 3.22025 0
M  V30 11406 H 1100.65 -4.15607 1.50742 0
M  V30 11407 N 1099.71 -1.29285 -0.901281 0
M  V30 11408 C 1100.65 -1.1428 -2.00521 0
M  V30 11409 C 1101.62 -0.0365428 -1.6606 0
M  V30 11410 O 1102.81 -0.203771 -1.89709 0
M  V30 11411 C 1099.95 -0.823671 -3.35126 0
M  V30 11412 C 1099.06 -2.01021 -3.8238 0
M  V30 11413 C 1098.2 -1.6306 -5.05554 0
M  V30 11414 C 1097.24 -2.78304 -5.45173 0
M  V30 11415 N 1096.37 -2.4075 -6.59533 0
M  V30 11416 H 1101.21 -2.08729 -2.12688 0
M  V30 11417 H 1098.75 -1.0387 -1.04161 0
M  V30 11418 H 1100.71 -0.61934 -4.12577 0
M  V30 11419 H 1099.34 0.0839113 -3.22691 0
M  V30 11420 H 1098.39 -2.32629 -3.00978 0
M  V30 11421 H 1099.7 -2.8738 -4.07694 0
M  V30 11422 H 1098.86 -1.38906 -5.90584 0
M  V30 11423 H 1097.59 -0.738464 -4.82077 0
M  V30 11424 H 1096.6 -3.03142 -4.58678 0
M  V30 11425 H 1097.82 -3.68179 -5.70632 0
M  V30 11426 H 1095.77 -1.54022 -6.37662 0
M  V30 11427 H 1095.69 -3.20643 -6.84634 0
M  V30 11428 H 1096.96 -2.19912 -7.47836 0
M  V30 11429 N 1101.18 1.11143 -1.11736 0
M  V30 11430 C 1102.43 1.82311 -0.862875 0
M  V30 11431 C 1102.75 1.85735 0.613326 0
M  V30 11432 O 1103.95 2.53034 0.984168 0
M  V30 11433 C 1102.41 3.27427 -1.49396 0
M  V30 11434 C 1102.02 3.32323 -3.00443 0
M  V30 11435 C 1103.76 4.03474 -1.31944 0
M  V30 11436 C 1101.67 4.71855 -3.56521 0
M  V30 11437 H 1100.6 0.683124 -0.31915 0
M  V30 11438 H 1103.25 1.25045 -1.34298 0
M  V30 11439 H 1101.63 3.84644 -0.941528 0
M  V30 11440 H 1102.8 2.84971 -3.62117 0
M  V30 11441 H 1101.12 2.69758 -3.17206 0
M  V30 11442 H 1103.72 5.06528 -1.71271 0
M  V30 11443 H 1104.06 4.15473 -0.262339 0
M  V30 11444 H 1104.59 3.52652 -1.84069 0
M  V30 11445 H 1101.33 4.65054 -4.61958 0
M  V30 11446 H 1100.85 5.19604 -2.99619 0
M  V30 11447 H 1102.53 5.40816 -3.55144 0
M  V30 11448 N 1102.66 0.908147 1.28804 0
M  V30 11449 C 1104.07 0.585727 1.77274 0
M  V30 11450 C 1104.42 -0.898842 1.744 0
M  V30 11451 O 1103.55 -1.70301 1.33516 0
M  V30 11452 C 1104.14 1.05647 3.21907 0
M  V30 11453 C 1102.7 0.785066 3.68122 0
M  V30 11454 C 1101.85 1.22638 2.48707 0
M  V30 11455 H 1104.8 1.09 1.15346 0
M  V30 11456 H 1104.82 0.395442 3.7844 0
M  V30 11457 H 1104.33 2.13698 3.23967 0
M  V30 11458 H 1102.44 -0.282477 3.71528 0
M  V30 11459 H 1102.55 1.38888 4.58527 0
M  V30 11460 H 1100.91 0.645217 2.46392 0
M  V30 11461 H 1101.7 2.31512 2.5349 0
M  V30 11462 N 1104.14 -1.42577 0.671525 0
M  V30 11463 C 1105.39 -2.01882 0.192716 0
M  V30 11464 C 1105.72 -1.52959 -1.19654 0
M  V30 11465 O 1104.99 -0.730404 -1.80265 0
M  V30 11466 C 1105.28 -3.59404 0.223734 0
M  V30 11467 C 1105.13 -4.18514 1.64821 0
M  V30 11468 C 1106.45 -4.37996 -0.429858 0
M  V30 11469 H 1103.57 -0.733523 0.0715026 0
M  V30 11470 H 1106.21 -1.69641 0.855689 0
M  V30 11471 H 1104.36 -3.87003 -0.340776 0
M  V30 11472 H 1106.03 -4.01881 2.26472 0
M  V30 11473 H 1104.28 -3.74467 2.1899 0
M  V30 11474 H 1104.95 -5.27643 1.62162 0
M  V30 11475 H 1107.42 -4.16069 0.0506433 0
M  V30 11476 H 1106.3 -5.476 -0.377503 0
M  V30 11477 H 1106.56 -4.15625 -1.50693 0
M  V30 11478 N 1105.62 -0.414636 -1.52048 0
M  V30 11479 C 1106.58 0.396285 -2.25748 0
M  V30 11480 C 1107.58 0.969003 -1.28324 0
M  V30 11481 O 1108.77 0.847016 -1.52221 0
M  V30 11482 C 1105.9 1.55838 -3.03195 0
M  V30 11483 H 1107.1 -0.249311 -2.98862 0
M  V30 11484 H 1104.65 -0.167276 -1.55402 0
M  V30 11485 H 1105.38 2.24068 -2.34444 0
M  V30 11486 H 1105.17 1.15414 -3.74729 0
M  V30 11487 H 1106.66 2.13187 -3.59084 0
M  V30 11488 N 1107.1 1.56929 -0.145233 0
M  V30 11489 C 1108.35 1.95243 0.506273 0
M  V30 11490 C 1108.66 1.0325 1.66129 0
M  V30 11491 O 1109.86 1.31135 2.37731 0
M  V30 11492 C 1108.32 3.47079 0.952042 0
M  V30 11493 C 1107.93 4.47654 -0.175947 0
M  V30 11494 C 1109.67 3.94263 1.57344 0
M  V30 11495 C 1107.58 5.90698 0.287993 0
M  V30 11496 H 1106.51 0.728906 0.192903 0
M  V30 11497 H 1109.16 1.82062 -0.229295 0
M  V30 11498 H 1107.54 3.55587 1.74282 0
M  V30 11499 H 1108.72 4.50841 -0.952848 0
M  V30 11500 H 1107.03 4.10377 -0.70564 0
M  V30 11501 H 1109.63 4.9857 1.93214 0
M  V30 11502 H 1109.97 3.35714 2.46174 0
M  V30 11503 H 1110.5 3.88665 0.847593 0
M  V30 11504 H 1107.24 6.53061 -0.564889 0
M  V30 11505 H 1106.76 5.90876 1.03081 0
M  V30 11506 H 1108.44 6.42747 0.740586 0
M  V30 11507 N 1108.58 -0.128553 1.57075 0
M  V30 11508 C 1109.52 -1.15812 1.9964 0
M  V30 11509 C 1110.49 -1.41679 0.86696 0
M  V30 11510 O 1111.68 -1.53705 1.13046 0
M  V30 11511 C 1108.82 -2.48198 2.39774 0
M  V30 11512 C 1107.93 -2.29348 3.66092 0
M  V30 11513 C 1107.07 -3.54898 3.95248 0
M  V30 11514 C 1106.1 -3.31164 5.14779 0
M  V30 11515 N 1105.24 -4.48891 5.39853 0
M  V30 11516 H 1110.08 -0.788136 2.87389 0
M  V30 11517 H 1107.62 -0.377682 1.42169 0
M  V30 11518 H 1109.58 -3.25414 2.61077 0
M  V30 11519 H 1108.21 -2.83108 1.5508 0
M  V30 11520 H 1107.26 -1.43095 3.5246 0
M  V30 11521 H 1108.57 -2.07781 4.53463 0
M  V30 11522 H 1107.72 -4.40536 4.17148 0
M  V30 11523 H 1106.46 -3.79487 3.06335 0
M  V30 11524 H 1105.47 -2.43915 4.92733 0
M  V30 11525 H 1106.69 -3.07954 6.05261 0
M  V30 11526 H 1104.64 -4.73619 4.53895 0
M  V30 11527 H 1104.56 -4.30394 6.21528 0
M  V30 11528 H 1105.82 -5.35691 5.66265 0
M  V30 11529 N 1110.05 -1.5248 -0.398459 0
M  V30 11530 C 1111.3 -1.66287 -1.14155 0
M  V30 11531 C 1111.62 -0.40429 -1.91376 0
M  V30 11532 O 1112.82 -0.422341 -2.68195 0
M  V30 11533 C 1111.28 -2.93831 -2.07825 0
M  V30 11534 C 1110.89 -4.26836 -1.3607 0
M  V30 11535 C 1112.63 -3.17004 -2.82327 0
M  V30 11536 C 1110.54 -5.45495 -2.28451 0
M  V30 11537 H 1109.47 -0.619478 -0.42984 0
M  V30 11538 H 1112.12 -1.78972 -0.405112 0
M  V30 11539 H 1110.5 -2.7487 -2.85065 0
M  V30 11540 H 1111.67 -4.56317 -0.641205 0
M  V30 11541 H 1109.99 -4.0985 -0.735659 0
M  V30 11542 H 1112.59 -4.02834 -3.51609 0
M  V30 11543 H 1112.93 -2.3168 -3.45876 0
M  V30 11544 H 1113.46 -3.36487 -2.12183 0
M  V30 11545 H 1110.2 -6.33198 -1.69532 0
M  V30 11546 H 1109.72 -5.20338 -2.98343 0
M  V30 11547 H 1111.4 -5.78996 -2.88743 0
M  V30 11548 N 1111.53 0.65634 -1.43283 0
M  V30 11549 C 1112.46 1.78101 -1.51004 0
M  V30 11550 C 1113.44 1.66138 -0.36498 0
M  V30 11551 O 1114.63 1.85281 -0.581778 0
M  V30 11552 C 1111.76 3.16511 -1.42961 0
M  V30 11553 C 1110.71 3.43233 -2.55685 0
M  V30 11554 C 1110.04 4.81411 -2.32696 0
M  V30 11555 C 1111.34 3.38288 -3.97943 0
M  V30 11556 H 1113.03 1.71896 -2.45137 0
M  V30 11557 H 1110.58 0.825575 -1.17984 0
M  V30 11558 H 1112.53 3.94941 -1.46968 0
M  V30 11559 H 1111.25 3.23439 -0.45332 0
M  V30 11560 H 1109.91 2.67173 -2.51026 0
M  V30 11561 H 1109.56 4.85011 -1.33317 0
M  V30 11562 H 1109.26 5.00251 -3.08257 0
M  V30 11563 H 1110.79 5.62102 -2.38481 0
M  V30 11564 H 1112.2 4.06659 -4.04106 0
M  V30 11565 H 1110.6 3.68664 -4.73505 0
M  V30 11566 H 1111.67 2.36525 -4.23301 0
M  V30 11567 N 1113.01 1.29761 0.894412 0
M  V30 11568 C 1113.96 1.15232 2.0205 0
M  V30 11569 C 1114.95 0.0665664 1.69269 0
M  V30 11570 O 1116.16 0.226746 1.78566 0
M  V30 11571 H 1112.53 0.356102 0.662341 0
M  V30 11572 H 1114.5 2.10559 2.11442 0
M  V30 11573 C 1113.25 0.851143 3.37121 0
M  V30 11574 H 1112.58 1.67865 3.62852 0
M  V30 11575 H 1114.02 0.78954 4.16584 0
M  V30 11576 C 1112.47 -0.445737 3.33938 0
M  V30 11577 O 1113 -1.47017 3.7383 0
M  V30 11578 N 1111.21 -0.453493 2.8704 0
M  V30 11579 H 1110.76 0.380636 2.54772 0
M  V30 11580 H 1110.72 -1.32119 2.85293 0
M  V30 11581 N 1114.49 -1.10549 1.12324 0
M  V30 11582 C 1115.4 -2.20428 0.803032 0
M  V30 11583 C 1116.41 -1.72756 -0.207674 0
M  V30 11584 O 1117.59 -2.01357 -0.0415623 0
M  V30 11585 C 1114.65 -3.45716 0.261032 0
M  V30 11586 C 1113.72 -4.08129 1.33152 0
M  V30 11587 C 1112.95 -5.27436 0.815288 0
M  V30 11588 O 1113.17 -5.69317 -0.351361 0
M  V30 11589 O 1112.11 -5.80674 1.58434 0
M  V30 11590 H 1115.93 -2.50249 1.72073 0
M  V30 11591 H 1113.52 -1.19263 0.899815 0
M  V30 11592 H 1115.4 -4.21384 -0.0364007 0
M  V30 11593 H 1114.07 -3.17525 -0.629249 0
M  V30 11594 H 1112.98 -3.3415 1.6821 0
M  V30 11595 H 1114.31 -4.4052 2.19552 0
M  V30 11596 N 1115.97 -0.914965 -1.28321 0
M  V30 11597 C 1117.19 -0.564654 -1.99046 0
M  V30 11598 C 1117.61 0.854345 -1.68364 0
M  V30 11599 O 1116.97 1.56605 -0.937068 0
M  V30 11600 C 1117.02 -0.765663 -3.53299 0
M  V30 11601 O 1116.74 -2.12883 -3.829 0
M  V30 11602 C 1118.24 -0.422347 -4.41283 0
M  V30 11603 H 1115.46 -0.215158 -0.635569 0
M  V30 11604 H 1118 -1.2285 -1.63487 0
M  V30 11605 H 1116.16 -0.148795 -3.87114 0
M  V30 11606 H 1116.57 -2.1694 -4.77533 0
M  V30 11607 H 1118.05 -0.613757 -5.48577 0
M  V30 11608 H 1118.52 0.641484 -4.3449 0
M  V30 11609 H 1119.13 -1.01681 -4.12966 0
M  V30 11610 N 1117.44 1.42219 -0.679077 0
M  V30 11611 C 1118.67 2.05815 -0.211649 0
M  V30 11612 C 1119.09 1.51037 1.13284 0
M  V30 11613 O 1118.44 0.651894 1.7046 0
M  V30 11614 C 1118.49 3.61218 -0.142663 0
M  V30 11615 O 1118.22 4.13965 -1.43402 0
M  V30 11616 C 1119.72 4.41934 0.347746 0
M  V30 11617 H 1116.94 0.663215 -0.101914 0
M  V30 11618 H 1119.48 1.82282 -0.927017 0
M  V30 11619 H 1117.64 3.83848 0.52342 0
M  V30 11620 H 1118.05 5.07872 -1.31021 0
M  V30 11621 H 1119.52 5.50921 0.344916 0
M  V30 11622 H 1120 4.16832 1.38377 0
M  V30 11623 H 1120.61 4.24332 -0.286751 0
M  V30 11624 N 1118.92 0.422693 1.51826 0
M  V30 11625 C 1120.17 -0.148348 2.01555 0
M  V30 11626 C 1120.49 -1.44483 1.30956 0
M  V30 11627 O 1119.76 -1.90904 0.439599 0
M  V30 11628 H 1118.34 -0.0578116 0.74476 0
M  V30 11629 H 1121 0.562046 1.8662 0
M  V30 11630 H 1120.1 -0.334766 3.10299 0
M  V30 11631 N 1120.4 -1.5685 0.153553 0
M  V30 11632 C 1121.81 -1.83074 -0.36618 0
M  V30 11633 C 1122.16 -1.07257 -1.64288 0
M  V30 11634 O 1121.29 -0.319925 -2.14022 0
M  V30 11635 C 1121.88 -3.32086 -0.671142 0
M  V30 11636 C 1120.44 -3.58868 -1.13537 0
M  V30 11637 C 1119.59 -2.76827 -0.161887 0
M  V30 11638 H 1122.54 -1.54129 0.378139 0
M  V30 11639 H 1122.56 -3.48598 -1.52512 0
M  V30 11640 H 1122.07 -3.8724 0.258234 0
M  V30 11641 H 1120.17 -3.09107 -2.08047 0
M  V30 11642 H 1120.29 -4.67299 -1.05682 0
M  V30 11643 H 1118.65 -2.46112 -0.6558 0
M  V30 11644 H 1119.43 -3.34755 0.761195 0
M  V30 11645 N 1121.88 0.120221 -1.57141 0
M  V30 11646 C 1122.82 1.14751 -2.00252 0
M  V30 11647 C 1123.79 1.41217 -0.874462 0
M  V30 11648 O 1124.98 1.53104 -1.13859 0
M  V30 11649 C 1122.12 2.46923 -2.41087 0
M  V30 11650 C 1121.23 2.27403 -3.67303 0
M  V30 11651 C 1120.37 3.52797 -3.97125 0
M  V30 11652 C 1119.41 3.28429 -5.16528 0
M  V30 11653 N 1118.54 4.46022 -5.42226 0
M  V30 11654 H 1123.38 0.772884 -2.87803 0
M  V30 11655 H 1120.92 0.370137 -1.42367 0
M  V30 11656 H 1122.88 3.24025 -2.62799 0
M  V30 11657 H 1121.51 2.82281 -1.5658 0
M  V30 11658 H 1120.56 1.41224 -3.53214 0
M  V30 11659 H 1121.87 2.05373 -4.54558 0
M  V30 11660 H 1121.03 4.38318 -4.19479 0
M  V30 11661 H 1119.77 3.77857 -3.08343 0
M  V30 11662 H 1118.77 2.41299 -4.94019 0
M  V30 11663 H 1120 3.0474 -6.06886 0
M  V30 11664 H 1117.94 4.71205 -4.56401 0
M  V30 11665 H 1117.86 4.27092 -6.23802 0
M  V30 11666 H 1119.13 5.3268 -5.69098 0
M  V30 11667 N 1123.36 1.52689 0.390367 0
M  V30 11668 C 1124.32 1.76726 1.45947 0
M  V30 11669 C 1125.32 0.637269 1.47633 0
M  V30 11670 O 1126.51 0.905312 1.48828 0
M  V30 11671 C 1123.64 1.86678 2.85244 0
M  V30 11672 H 1124.83 2.72185 1.25918 0
M  V30 11673 H 1122.39 1.4339 0.622023 0
M  V30 11674 H 1123.12 0.931991 3.10619 0
M  V30 11675 H 1122.91 2.68843 2.85422 0
M  V30 11676 H 1124.4 2.06952 3.62713 0
M  V30 11677 N 1124.83 -0.648732 1.43629 0
M  V30 11678 C 1125.78 -1.78269 1.49409 0
M  V30 11679 C 1126.78 -1.6537 0.367288 0
M  V30 11680 O 1127.98 -1.71663 0.541476 0
M  V30 11681 H 1124.36 -0.58824 0.468484 0
M  V30 11682 H 1126.33 -1.70514 2.44883 0
M  V30 11683 C 1125.08 -3.16545 1.43856 0
M  V30 11684 H 1124.4 -3.2711 2.29868 0
M  V30 11685 H 1125.84 -3.95833 1.51961 0
M  V30 11686 C 1124.3 -3.36535 0.156779 0
M  V30 11687 O 1124.83 -3.94052 -0.780124 0
M  V30 11688 N 1123.04 -2.90526 0.0655319 0
M  V30 11689 H 1122.58 -2.43904 0.828768 0
M  V30 11690 H 1122.54 -3.04277 -0.791379 0
M  V30 11691 N 1126.31 -1.30234 -0.887518 0
M  V30 11692 C 1127.56 -1.19086 -1.64153 0
M  V30 11693 C 1127.89 0.254428 -1.92526 0
M  V30 11694 O 1127.17 1.18233 -1.54438 0
M  V30 11695 C 1127.45 -2.01723 -2.98295 0
M  V30 11696 C 1127.3 -3.54458 -2.76911 0
M  V30 11697 C 1128.62 -1.85307 -3.99186 0
M  V30 11698 H 1125.74 -0.433967 -0.595686 0
M  V30 11699 H 1128.38 -1.59839 -1.0272 0
M  V30 11700 H 1126.53 -1.67096 -3.5073 0
M  V30 11701 H 1128.2 -3.99131 -2.31284 0
M  V30 11702 H 1126.45 -3.78768 -2.11464 0
M  V30 11703 H 1127.12 -4.07565 -3.72283 0
M  V30 11704 H 1129.59 -2.15575 -3.55903 0
M  V30 11705 H 1128.47 -2.45456 -4.90961 0
M  V30 11706 H 1128.73 -0.811528 -4.34588 0
M  V30 11707 N 1127.79 1.09952 -1.12909 0
M  V30 11708 C 1128.7 2.19999 -0.81471 0
M  V30 11709 C 1129.72 1.72864 0.19851 0
M  V30 11710 O 1130.89 2.01376 0.0308832 0
M  V30 11711 C 1127.96 3.45573 -0.279363 0
M  V30 11712 C 1127.02 4.07417 -1.35314 0
M  V30 11713 C 1126.25 5.26996 -0.843247 0
M  V30 11714 O 1126.47 5.69495 0.321164 0
M  V30 11715 O 1125.41 5.79826 -1.61511 0
M  V30 11716 H 1129.23 2.49333 -1.73398 0
M  V30 11717 H 1126.82 1.18784 -0.906128 0
M  V30 11718 H 1128.7 4.21398 0.0140531 0
M  V30 11719 H 1127.38 3.17854 0.612401 0
M  V30 11720 H 1126.28 3.33253 -1.6998 0
M  V30 11721 H 1127.62 4.39349 -2.21885 0
M  V30 11722 N 1129.27 0.921757 1.27833 0
M  V30 11723 C 1130.52 0.559078 1.94629 0
M  V30 11724 C 1130.84 -0.898641 1.72495 0
M  V30 11725 O 1130.1 -1.65546 1.0437 0
M  V30 11726 C 1130.4 0.824259 3.47765 0
M  V30 11727 C 1130.06 2.26278 3.90011 0
M  V30 11728 C 1128.73 2.65607 4.01256 0
M  V30 11729 C 1131.08 3.19853 4.11513 0
M  V30 11730 C 1128.41 3.97646 4.31387 0
M  V30 11731 C 1130.76 4.51467 4.43126 0
M  V30 11732 C 1129.42 4.90637 4.52583 0
M  V30 11733 H 1128.69 0.204581 0.712199 0
M  V30 11734 H 1131.34 1.1646 1.52018 0
M  V30 11735 H 1129.64 0.136011 3.91564 0
M  V30 11736 H 1131.34 0.522701 3.97579 0
M  V30 11737 H 1127.93 1.94765 3.81791 0
M  V30 11738 H 1132.11 2.90674 4.02271 0
M  V30 11739 H 1127.37 4.27685 4.36916 0
M  V30 11740 H 1131.54 5.23982 4.58711 0
M  V30 11741 H 1129.17 5.92982 4.75685 0
M  V30 11742 N 1130.75 -1.41857 0.686609 0
M  V30 11743 C 1131.68 -2.28174 -0.0347358 0
M  V30 11744 C 1132.66 -1.41732 -0.796928 0
M  V30 11745 O 1133.84 -1.71165 -0.789607 0
M  V30 11746 C 1130.97 -3.21801 -1.0565 0
M  V30 11747 C 1130.01 -4.24727 -0.388523 0
M  V30 11748 S 1130.85 -5.28508 0.862546 0
M  V30 11749 C 1132 -6.25701 -0.157849 0
M  V30 11750 H 1132.24 -2.89005 0.697381 0
M  V30 11751 H 1129.77 -1.46861 0.476562 0
M  V30 11752 H 1131.73 -3.76278 -1.64089 0
M  V30 11753 H 1130.39 -2.60082 -1.76114 0
M  V30 11754 H 1129.58 -4.90471 -1.15991 0
M  V30 11755 H 1129.18 -3.73799 0.122567 0
M  V30 11756 H 1131.48 -6.6987 -1.01393 0
M  V30 11757 H 1132.42 -7.06569 0.465437 0
M  V30 11758 H 1132.83 -5.62204 -0.508614 0
M  V30 11759 N 1132.22 -0.430739 -1.51599 0
M  V30 11760 C 1133.5 0.197543 -1.946 0
M  V30 11761 C 1133.88 1.6069 -1.36901 0
M  V30 11762 O 1133.23 2.21697 -0.553422 0
M  V30 11763 C 1133.44 0.181976 -3.48525 0
M  V30 11764 C 1134.79 0.390783 -4.22798 0
M  V30 11765 O 1135.81 0.260384 -3.55247 0
M  V30 11766 O 1134.67 0.649701 -5.42624 0
M  V30 11767 H 1131.76 0.133524 -0.81615 0
M  V30 11768 H 1134.31 -0.488243 -1.62525 0
M  V30 11769 H 1133.08 -0.803584 -3.8296 0
M  V30 11770 H 1132.71 0.910952 -3.87024 0
M  V30 11771 N 1133.7 1.56767 -0.161869 0
M  V30 11772 C 1134.61 2.21083 0.784814 0
M  V30 11773 C 1135.63 1.19959 1.26039 0
M  V30 11774 O 1136.8 1.52588 1.31449 0
M  V30 11775 C 1133.87 2.83153 2.00063 0
M  V30 11776 C 1132.93 3.9945 1.57285 0
M  V30 11777 C 1132.16 4.5855 2.7307 0
M  V30 11778 O 1132.39 4.16534 3.89686 0
M  V30 11779 O 1131.32 5.48575 2.47688 0
M  V30 11780 H 1135.15 3.02522 0.267243 0
M  V30 11781 H 1132.73 1.49255 0.0658783 0
M  V30 11782 H 1134.61 3.22546 2.71186 0
M  V30 11783 H 1133.29 2.04718 2.50744 0
M  V30 11784 H 1132.2 3.64745 0.831393 0
M  V30 11785 H 1133.53 4.7945 1.11304 0
M  V30 11786 N 1135.18 -0.111886 1.57202 0
M  V30 11787 C 1136.14 -1.12101 1.99915 0
M  V30 11788 C 1137.14 -1.33906 0.890272 0
M  V30 11789 O 1138.33 -1.30303 1.15615 0
M  V30 11790 C 1135.47 -2.47392 2.34543 0
M  V30 11791 H 1136.66 -0.753736 2.90274 0
M  V30 11792 H 1134.21 -0.35641 1.52182 0
M  V30 11793 H 1134.95 -2.89026 1.47086 0
M  V30 11794 H 1134.73 -2.32917 3.15423 0
M  V30 11795 H 1136.22 -3.20004 2.68304 0
M  V30 11796 N 1136.66 -1.52894 -0.382264 0
M  V30 11797 C 1137.59 -1.81122 -1.47367 0
M  V30 11798 C 1138.57 -0.663653 -1.56619 0
M  V30 11799 O 1139.75 -0.911898 -1.71459 0
M  V30 11800 C 1136.88 -1.98615 -2.84902 0
M  V30 11801 C 1135.84 -3.14328 -2.90485 0
M  V30 11802 C 1135.16 -3.17086 -4.30535 0
M  V30 11803 C 1136.46 -4.53263 -2.59519 0
M  V30 11804 H 1138.16 -2.72518 -1.23993 0
M  V30 11805 H 1135.7 -1.3113 -0.595049 0
M  V30 11806 H 1137.66 -2.16946 -3.61265 0
M  V30 11807 H 1136.38 -1.03915 -3.09628 0
M  V30 11808 H 1135.04 -2.95791 -2.16572 0
M  V30 11809 H 1134.69 -2.20055 -4.52311 0
M  V30 11810 H 1134.39 -3.94821 -4.3519 0
M  V30 11811 H 1135.91 -3.3758 -5.08795 0
M  V30 11812 H 1137.33 -4.71867 -3.25598 0
M  V30 11813 H 1135.72 -5.33115 -2.75514 0
M  V30 11814 H 1136.79 -4.59516 -1.54831 0
M  V30 11815 N 1138.14 0.641106 -1.43971 0
M  V30 11816 C 1139.39 1.39676 -1.45511 0
M  V30 11817 C 1139.7 1.95403 -0.0877084 0
M  V30 11818 O 1140.91 2.71493 0.0193965 0
M  V30 11819 C 1139.36 2.52839 -2.56126 0
M  V30 11820 C 1138.97 2.03668 -3.99028 0
M  V30 11821 C 1140.71 3.30118 -2.66875 0
M  V30 11822 C 1138.62 3.14114 -5.01085 0
M  V30 11823 H 1137.55 0.524854 -0.541336 0
M  V30 11824 H 1140.2 0.69075 -1.70003 0
M  V30 11825 H 1138.58 3.25968 -2.24857 0
M  V30 11826 H 1139.76 1.3747 -4.39817 0
M  V30 11827 H 1138.07 1.39233 -3.92432 0
M  V30 11828 H 1140.67 4.12434 -3.40297 0
M  V30 11829 H 1141.01 3.78946 -1.72353 0
M  V30 11830 H 1141.55 2.64075 -2.97505 0
M  V30 11831 H 1138.28 2.70241 -5.97202 0
M  V30 11832 H 1137.8 3.78985 -4.64898 0
M  V30 11833 H 1139.48 3.79051 -5.24337 0
M  V30 11834 N 1139.62 1.30703 0.880598 0
M  V30 11835 C 1140.55 1.11783 1.98947 0
M  V30 11836 C 1141.53 0.0242461 1.62582 0
M  V30 11837 O 1142.71 0.178641 1.87652 0
M  V30 11838 C 1139.84 0.705762 3.31265 0
M  V30 11839 C 1138.88 1.80084 3.86616 0
M  V30 11840 S 1139.72 3.40416 4.13373 0
M  V30 11841 C 1140.87 3.01122 5.48704 0
M  V30 11842 H 1141.11 2.05658 2.14691 0
M  V30 11843 H 1138.64 1.15067 1.02951 0
M  V30 11844 H 1140.6 0.474754 4.07745 0
M  V30 11845 H 1139.26 -0.213699 3.13372 0
M  V30 11846 H 1138.45 1.4649 4.82241 0
M  V30 11847 H 1138.05 1.98636 3.16891 0
M  V30 11848 H 1140.34 2.49355 6.29943 0
M  V30 11849 H 1141.29 3.95671 5.87239 0
M  V30 11850 H 1141.7 2.38865 5.11472 0
M  V30 11851 N 1141.09 -1.09351 1.1349 0
M  V30 11852 C 1142.06 -2.14185 0.815919 0
M  V30 11853 C 1143.06 -1.59845 -0.174976 0
M  V30 11854 O 1144.25 -1.74122 0.0521971 0
M  V30 11855 C 1141.38 -3.40224 0.214517 0
M  V30 11856 H 1142.57 -2.43913 1.74489 0
M  V30 11857 H 1140.12 -1.24902 0.939634 0
M  V30 11858 H 1140.86 -3.16123 -0.723634 0
M  V30 11859 H 1140.64 -3.80958 0.928102 0
M  V30 11860 H 1142.13 -4.17599 0.00821999 0
M  V30 11861 N 1142.57 -0.928524 -1.27343 0
M  V30 11862 C 1143.8 -0.58516 -1.98974 0
M  V30 11863 C 1144.22 0.829964 -1.68799 0
M  V30 11864 O 1143.58 1.55705 -0.928738 0
M  V30 11865 C 1143.63 -0.818662 -3.51184 0
M  V30 11866 O 1142.73 0.115355 -4.12239 0
M  V30 11867 H 1142.07 -0.225203 -0.624644 0
M  V30 11868 H 1144.6 -1.248 -1.6213 0
M  V30 11869 H 1144.61 -0.734554 -4.01333 0
M  V30 11870 H 1143.29 -1.8502 -3.72479 0
M  V30 11871 H 1141.86 -0.0187371 -3.72895 0
M  V30 11872 N 1144.05 1.41491 -0.694123 0
M  V30 11873 C 1144.98 2.28189 0.0226347 0
M  V30 11874 C 1145.96 1.42152 0.7894 0
M  V30 11875 O 1147.14 1.71581 0.780519 0
M  V30 11876 C 1144.27 3.22357 1.03942 0
M  V30 11877 C 1143.32 4.24927 0.365994 0
M  V30 11878 S 1144.15 5.28043 -0.890562 0
M  V30 11879 C 1145.31 6.25776 0.124665 0
M  V30 11880 H 1145.54 2.88631 -0.712698 0
M  V30 11881 H 1143.07 1.46607 -0.484344 0
M  V30 11882 H 1145.03 3.77143 1.62091 0
M  V30 11883 H 1143.69 2.61013 1.74732 0
M  V30 11884 H 1142.88 4.9108 1.13388 0
M  V30 11885 H 1142.49 3.73729 -0.142389 0
M  V30 11886 H 1144.78 6.70398 0.978393 0
M  V30 11887 H 1145.72 7.06312 -0.502901 0
M  V30 11888 H 1146.13 5.62466 0.478792 0
M  V30 11889 N 1145.53 0.438773 1.51369 0
M  V30 11890 C 1146.8 -0.18722 1.94702 0
M  V30 11891 C 1147.18 -1.59962 1.37752 0
M  V30 11892 O 1146.53 -2.214 0.565171 0
M  V30 11893 C 1146.74 -0.163491 3.48617 0
M  V30 11894 C 1148.09 -0.368355 4.22999 0
M  V30 11895 O 1149.11 -0.241541 3.5538 0
M  V30 11896 O 1147.97 -0.620916 5.42961 0
M  V30 11897 H 1145.07 -0.129194 0.816846 0
M  V30 11898 H 1147.61 0.496855 1.62263 0
M  V30 11899 H 1146.39 0.823882 3.82528 0
M  V30 11900 H 1146.01 -0.890414 3.87501 0
M  V30 11901 N 1147.01 -1.56678 0.170181 0
M  V30 11902 C 1147.96 -2.14503 -0.772818 0
M  V30 11903 C 1148.94 -1.07896 -1.19362 0
M  V30 11904 O 1150.13 -1.34021 -1.15617 0
M  V30 11905 C 1147.26 -2.78844 -2.00253 0
M  V30 11906 C 1146.35 -3.92607 -1.60377 0
M  V30 11907 N 1146.74 -4.97464 -0.914519 0
M  V30 11908 C 1145.04 -4.03746 -1.89487 0
M  V30 11909 C 1145.74 -5.77248 -0.718343 0
M  V30 11910 N 1144.71 -5.2881 -1.25942 0
M  V30 11911 H 1148.51 -2.92941 -0.237231 0
M  V30 11912 H 1146.03 -1.62371 -0.0305396 0
M  V30 11913 H 1148.03 -3.18646 -2.68831 0
M  V30 11914 H 1146.69 -2.01886 -2.54307 0
M  V30 11915 H 1147.7 -5.14724 -0.572692 0
M  V30 11916 H 1144.37 -3.3789 -2.45227 0
M  V30 11917 H 1145.76 -6.71676 -0.173373 0
M  V30 11918 N 1148.48 0.103547 -1.57259 0
M  V30 11919 C 1149.89 0.659006 -1.74683 0
M  V30 11920 C 1150.25 1.79542 -0.791142 0
M  V30 11921 O 1149.37 2.16376 0.0323585 0
M  V30 11922 C 1149.97 1.20222 -3.16752 0
M  V30 11923 C 1148.52 1.70382 -3.35629 0
M  V30 11924 C 1147.67 0.609886 -2.7051 0
M  V30 11925 H 1150.62 -0.122474 -1.58227 0
M  V30 11926 H 1150.64 2.07169 -3.19157 0
M  V30 11927 H 1150.16 0.374901 -3.86285 0
M  V30 11928 H 1148.26 2.55542 -2.71162 0
M  V30 11929 H 1148.37 1.80263 -4.43894 0
M  V30 11930 H 1146.73 1.04728 -2.32173 0
M  V30 11931 H 1147.52 -0.206713 -3.42677 0
M  V30 11932 N 1149.96 1.53094 0.37415 0
M  V30 11933 C 1150.91 1.75307 1.45779 0
M  V30 11934 C 1151.9 0.607409 1.48994 0
M  V30 11935 O 1153.09 0.865777 1.5438 0
M  V30 11936 C 1150.22 1.93871 2.83318 0
M  V30 11937 C 1149.3 3.14413 2.84614 0
M  V30 11938 N 1149.69 4.36486 2.55565 0
M  V30 11939 C 1147.99 3.14961 3.15778 0
M  V30 11940 C 1148.69 5.18178 2.64322 0
M  V30 11941 N 1147.67 4.54196 2.98675 0
M  V30 11942 H 1151.47 2.67305 1.22169 0
M  V30 11943 H 1148.98 1.51603 0.582254 0
M  V30 11944 H 1150.98 2.0791 3.61357 0
M  V30 11945 H 1149.64 1.03096 3.07898 0
M  V30 11946 H 1150.65 4.64366 2.29314 0
M  V30 11947 H 1147.33 2.34048 3.45728 0
M  V30 11948 H 1148.72 6.25529 2.45282 0
M  V30 11949 N 1151.44 -0.633461 1.44309 0
M  V30 11950 C 1152.37 -1.75676 1.53819 0
M  V30 11951 C 1153.35 -1.65537 0.391365 0
M  V30 11952 O 1154.54 -1.84332 0.611181 0
M  V30 11953 C 1151.67 -3.14197 1.47979 0
M  V30 11954 C 1150.62 -3.39122 2.61113 0
M  V30 11955 C 1149.95 -4.77648 2.40325 0
M  V30 11956 C 1151.25 -3.31914 4.03274 0
M  V30 11957 H 1152.94 -1.67974 2.47841 0
M  V30 11958 H 1150.49 -0.8067 1.19283 0
M  V30 11959 H 1152.44 -3.92553 1.53233 0
M  V30 11960 H 1151.16 -3.22677 0.504718 0
M  V30 11961 H 1149.82 -2.63145 2.55245 0
M  V30 11962 H 1149.47 -4.82829 1.41016 0
M  V30 11963 H 1149.17 -4.95284 3.16177 0
M  V30 11964 H 1150.69 -5.58237 2.47394 0
M  V30 11965 H 1152.11 -4.00178 4.10524 0
M  V30 11966 H 1150.5 -3.61085 4.7931 0
M  V30 11967 H 1151.57 -2.29761 4.2701 0
M  V30 11968 N 1152.92 -1.31168 -0.873655 0
M  V30 11969 C 1154.16 -1.20821 -1.62881 0
M  V30 11970 C 1154.5 0.233994 -1.92785 0
M  V30 11971 O 1153.77 1.16588 -1.55684 0
M  V30 11972 C 1154.06 -2.04875 -2.96139 0
M  V30 11973 C 1153.91 -3.57375 -2.73136 0
M  V30 11974 C 1155.23 -1.8953 -3.97198 0
M  V30 11975 H 1152.35 -0.44026 -0.59105 0
M  V30 11976 H 1154.99 -1.6092 -1.01019 0
M  V30 11977 H 1153.14 -1.70806 -3.48938 0
M  V30 11978 H 1154.81 -4.01561 -2.27038 0
M  V30 11979 H 1153.05 -3.8099 -2.07434 0
M  V30 11980 H 1153.72 -4.1149 -3.6794 0
M  V30 11981 H 1156.2 -2.19337 -3.53596 0
M  V30 11982 H 1155.08 -2.5065 -4.8833 0
M  V30 11983 H 1155.34 -0.857576 -4.33703 0
M  V30 11984 N 1154.4 1.08748 -1.14068 0
M  V30 11985 C 1155.81 1.33125 -0.880341 0
M  V30 11986 C 1156.01 1.9569 0.480396 0
M  V30 11987 O 1155.07 2.2077 1.22543 0
M  V30 11988 C 1156.38 2.23618 -2.01036 0
M  V30 11989 C 1157.93 2.37108 -2.04326 0
M  V30 11990 C 1158.4 3.30941 -3.1661 0
M  V30 11991 N 1159.9 3.38517 -3.16166 0
M  V30 11992 C 1160.63 4.11142 -3.99687 0
M  V30 11993 N 1160.13 4.86505 -4.93239 0
M  V30 11994 N 1161.92 4.06938 -3.87761 0
M  V30 11995 H 1154.07 0.665164 -2.01716 0
M  V30 11996 H 1156.33 0.355612 -0.878774 0
M  V30 11997 H 1156.04 1.84885 -2.99183 0
M  V30 11998 H 1155.91 3.24056 -1.93049 0
M  V30 11999 H 1158.3 2.75101 -1.06787 0
M  V30 12000 H 1158.38 1.36424 -2.16384 0
M  V30 12001 H 1158.03 2.93669 -4.14392 0
M  V30 12002 H 1157.96 4.31545 -3.01789 0
M  V30 12003 H 1160.45 2.84786 -2.48405 0
M  V30 12004 H 1160.76 5.39372 -5.53441 0
M  V30 12005 H 1159.1 4.8557 -4.9724 0
M  V30 12006 H 1162.3 3.47166 -3.13996 0
M  V30 12007 H 1162.47 4.63275 -4.53079 0
M  V30 12008 N 1155.87 0.935264 1.26849 0
M  V30 12009 C 1156.8 0.457776 2.28969 0
M  V30 12010 C 1157.79 -0.48587 1.63013 0
M  V30 12011 O 1158.97 -0.388998 1.90264 0
M  V30 12012 C 1156.1 -0.283332 3.46142 0
M  V30 12013 C 1155.05 0.573196 4.24144 0
M  V30 12014 C 1154.38 -0.297525 5.33872 0
M  V30 12015 C 1155.68 1.84153 4.88759 0
M  V30 12016 H 1157.37 1.31125 2.69159 0
M  V30 12017 H 1154.92 0.631956 1.29392 0
M  V30 12018 H 1156.87 -0.628366 4.16689 0
M  V30 12019 H 1155.6 -1.1709 3.04889 0
M  V30 12020 H 1154.26 0.901043 3.55354 0
M  V30 12021 H 1153.9 -1.18427 4.8886 0
M  V30 12022 H 1153.6 0.272126 5.8697 0
M  V30 12023 H 1155.13 -0.637961 6.07258 0
M  V30 12024 H 1156.54 1.5641 5.51551 0
M  V30 12025 H 1154.94 2.35528 5.51948 0
M  V30 12026 H 1156.01 2.5565 4.12033 0
M  V30 12027 N 1157.35 -1.41121 0.701616 0
M  V30 12028 C 1158.28 -2.33436 0.0545974 0
M  V30 12029 C 1159.26 -1.52144 -0.760662 0
M  V30 12030 O 1160.45 -1.80661 -0.712414 0
M  V30 12031 C 1157.58 -3.36015 -0.878117 0
M  V30 12032 C 1156.53 -4.27664 -0.169511 0
M  V30 12033 C 1155.86 -5.20666 -1.21699 0
M  V30 12034 C 1157.16 -5.13254 0.967859 0
M  V30 12035 H 1158.85 -2.87791 0.825637 0
M  V30 12036 H 1156.4 -1.38377 0.398484 0
M  V30 12037 H 1158.35 -3.99526 -1.34004 0
M  V30 12038 H 1157.08 -2.80024 -1.68089 0
M  V30 12039 H 1155.73 -3.65586 0.272441 0
M  V30 12040 H 1155.38 -4.60987 -2.01246 0
M  V30 12041 H 1155.08 -5.82822 -0.747836 0
M  V30 12042 H 1156.61 -5.87053 -1.6793 0
M  V30 12043 H 1158.02 -5.70298 0.585944 0
M  V30 12044 H 1156.42 -5.84381 1.3645 0
M  V30 12045 H 1157.49 -4.5006 1.80483 0
M  V30 12046 N 1158.83 -0.446794 -1.51134 0
M  V30 12047 C 1160.08 0.116263 -2.01765 0
M  V30 12048 C 1160.4 1.42382 -1.33238 0
M  V30 12049 O 1159.67 1.9018 -0.469915 0
M  V30 12050 H 1158.25 0.0459558 -0.745585 0
M  V30 12051 H 1160.91 -0.591664 -1.85702 0
M  V30 12052 H 1160.01 0.285358 -3.10793 0
M  V30 12053 N 1160.31 1.56586 -0.178487 0
M  V30 12054 C 1161.55 1.9739 0.465306 0
M  V30 12055 C 1161.89 1.06474 1.6241 0
M  V30 12056 O 1161.16 0.113316 1.9417 0
M  V30 12057 C 1161.45 3.47577 0.941408 0
M  V30 12058 C 1161.3 4.49271 -0.218054 0
M  V30 12059 C 1162.62 4.01038 1.81263 0
M  V30 12060 H 1159.74 0.717676 0.167663 0
M  V30 12061 H 1162.38 1.88128 -0.266067 0
M  V30 12062 H 1160.53 3.556 1.56463 0
M  V30 12063 H 1162.2 4.53301 -0.855332 0
M  V30 12064 H 1160.44 4.24936 -0.872441 0
M  V30 12065 H 1161.11 5.51776 0.157315 0
M  V30 12066 H 1163.59 3.9569 1.28718 0
M  V30 12067 H 1162.47 5.06526 2.11476 0
M  V30 12068 H 1162.73 3.45288 2.76096 0
M  V30 12069 N 1161.79 -0.095206 1.57312 0
M  V30 12070 C 1163.03 -0.804335 1.87909 0
M  V30 12071 C 1163.39 -1.75907 0.769465 0
M  V30 12072 O 1164.59 -2.51155 0.957846 0
M  V30 12073 C 1162.86 -1.51405 3.23746 0
M  V30 12074 S 1164.42 -2.26147 3.76036 0
M  V30 12075 H 1161.24 -0.267976 0.658567 0
M  V30 12076 H 1163.84 -0.0614682 1.95403 0
M  V30 12077 H 1162.55 -0.805066 4.02426 0
M  V30 12078 H 1162.08 -2.29681 3.1939 0
M  V30 12079 H 1164.09 -3.52284 3.49443 0
M  V30 12080 N 1163.26 -1.53291 -0.366026 0
M  V30 12081 C 1164.19 -1.82675 -1.45437 0
M  V30 12082 C 1165.18 -0.680227 -1.55907 0
M  V30 12083 O 1166.36 -0.930032 -1.70482 0
M  V30 12084 C 1163.49 -2.01626 -2.8278 0
M  V30 12085 C 1162.44 -3.17391 -2.87135 0
M  V30 12086 C 1161.77 -3.21634 -4.27148 0
M  V30 12087 C 1163.07 -4.5599 -2.54697 0
M  V30 12088 H 1164.76 -2.73818 -1.21096 0
M  V30 12089 H 1162.31 -1.31754 -0.581108 0
M  V30 12090 H 1164.26 -2.20765 -3.58944 0
M  V30 12091 H 1162.99 -1.07193 -3.08508 0
M  V30 12092 H 1161.65 -2.98071 -2.13422 0
M  V30 12093 H 1161.29 -2.2484 -4.49951 0
M  V30 12094 H 1160.99 -3.99414 -4.30978 0
M  V30 12095 H 1162.52 -3.42957 -5.05186 0
M  V30 12096 H 1163.93 -4.75294 -3.20575 0
M  V30 12097 H 1162.33 -5.36008 -2.69844 0
M  V30 12098 H 1163.4 -4.61133 -1.49949 0
M  V30 12099 N 1164.74 0.6258 -1.44643 0
M  V30 12100 C 1165.97 1.41726 -1.51422 0
M  V30 12101 C 1166.39 1.87565 -0.14181 0
M  V30 12102 O 1165.75 1.59059 0.870054 0
M  V30 12103 C 1165.8 2.61012 -2.48807 0
M  V30 12104 O 1164.9 3.61029 -1.99328 0
M  V30 12105 H 1164.24 0.423855 -0.511119 0
M  V30 12106 H 1166.77 0.763336 -1.89827 0
M  V30 12107 H 1166.78 3.08489 -2.67018 0
M  V30 12108 H 1165.46 2.26995 -3.48491 0
M  V30 12109 H 1164.04 3.20325 -1.90909 0
M  V30 12110 N 1166.22 1.31629 0.866686 0
M  V30 12111 C 1167.63 1.19347 1.43573 0
M  V30 12112 C 1167.98 -0.198765 1.95191 0
M  V30 12113 O 1167.11 -1.09674 1.86549 0
M  V30 12114 C 1167.7 2.16055 2.6097 0
M  V30 12115 C 1166.26 2.07697 3.13909 0
M  V30 12116 C 1165.41 2.05099 1.86627 0
M  V30 12117 H 1168.36 1.43633 0.674929 0
M  V30 12118 H 1168.38 1.75207 3.37761 0
M  V30 12119 H 1167.89 3.17375 2.23371 0
M  V30 12120 H 1165.99 1.09583 3.56121 0
M  V30 12121 H 1166.11 2.96958 3.75969 0
M  V30 12122 H 1164.47 1.50162 2.05727 0
M  V30 12123 H 1165.25 3.0818 1.51261 0
M  V30 12124 N 1167.7 -1.08142 1.14644 0
M  V30 12125 C 1168.93 -1.84318 0.939926 0
M  V30 12126 C 1169.34 -1.81735 -0.511636 0
M  V30 12127 O 1168.7 -1.22297 -1.35461 0
M  V30 12128 C 1168.75 -3.31744 1.43625 0
M  V30 12129 O 1168.47 -3.3435 2.83094 0
M  V30 12130 C 1169.97 -4.24717 1.27007 0
M  V30 12131 H 1167.19 -0.581781 0.334323 0
M  V30 12132 H 1169.74 -1.36561 1.52221 0
M  V30 12133 H 1167.89 -3.7688 0.896664 0
M  V30 12134 H 1168.31 -4.26399 3.05425 0
M  V30 12135 H 1169.78 -5.26262 1.66591 0
M  V30 12136 H 1170.26 -4.38682 0.213257 0
M  V30 12137 H 1170.86 -3.85409 1.79833 0
M  V30 12138 N 1169.18 -0.941978 -1.26351 0
M  V30 12139 C 1170.43 -0.585711 -1.93009 0
M  V30 12140 C 1170.74 0.879507 -1.74711 0
M  V30 12141 O 1171.95 1.34518 -2.35833 0
M  V30 12142 C 1170.4 -0.996787 -3.45821 0
M  V30 12143 C 1170.01 -2.48367 -3.72851 0
M  V30 12144 C 1171.75 -0.712452 -4.18479 0
M  V30 12145 C 1169.66 -2.83341 -5.19107 0
M  V30 12146 H 1168.59 -0.215342 -0.722595 0
M  V30 12147 H 1171.24 -1.14472 -1.43417 0
M  V30 12148 H 1169.62 -0.366295 -3.94302 0
M  V30 12149 H 1170.8 -3.16328 -3.35072 0
M  V30 12150 H 1169.11 -2.74139 -3.13427 0
M  V30 12151 H 1171.71 -0.95007 -5.26192 0
M  V30 12152 H 1172.05 0.350811 -4.14819 0
M  V30 12153 H 1172.59 -1.3027 -3.75865 0
M  V30 12154 H 1169.32 -3.88633 -5.27868 0
M  V30 12155 H 1168.84 -2.20043 -5.5798 0
M  V30 12156 H 1170.52 -2.71849 -5.87118 0
M  V30 12157 N 1170.66 1.40747 -0.709091 0
M  V30 12158 C 1171.59 2.29196 -0.0130359 0
M  V30 12159 C 1172.6 1.45491 0.730487 0
M  V30 12160 O 1173.79 1.6885 0.578944 0
M  V30 12161 C 1170.89 3.23632 1.00577 0
M  V30 12162 C 1170.06 4.3616 0.329105 0
M  V30 12163 C 1169.12 5.11079 1.25239 0
M  V30 12164 O 1168.15 5.64374 0.739641 0
M  V30 12165 N 1169.35 5.1982 2.58394 0
M  V30 12166 H 1172.11 2.89574 -0.772462 0
M  V30 12167 H 1169.68 1.52046 -0.556197 0
M  V30 12168 H 1171.67 3.70622 1.62546 0
M  V30 12169 H 1170.24 2.64467 1.66661 0
M  V30 12170 H 1169.46 3.9138 -0.470683 0
M  V30 12171 H 1170.75 5.08605 -0.140856 0
M  V30 12172 H 1170.14 4.77992 3.02556 0
M  V30 12173 H 1168.7 5.7034 3.15524 0
M  V30 12174 N 1172.13 0.454803 1.50895 0
M  V30 12175 C 1173.06 -0.337982 2.31041 0
M  V30 12176 C 1174.04 -1.00523 1.37219 0
M  V30 12177 O 1175.23 -1.00553 1.66141 0
M  V30 12178 C 1172.36 -1.42964 3.1651 0
M  V30 12179 C 1171.31 -0.884907 4.18752 0
M  V30 12180 C 1170.64 -2.07363 4.92854 0
M  V30 12181 C 1171.94 0.0926716 5.22218 0
M  V30 12182 H 1173.63 0.33089 2.97566 0
M  V30 12183 H 1171.18 0.160577 1.43102 0
M  V30 12184 H 1173.13 -1.9916 3.71367 0
M  V30 12185 H 1171.86 -2.12705 2.47839 0
M  V30 12186 H 1170.52 -0.345031 3.64973 0
M  V30 12187 H 1170.16 -2.75764 4.2067 0
M  V30 12188 H 1169.86 -1.71545 5.62002 0
M  V30 12189 H 1171.39 -2.6408 5.5054 0
M  V30 12190 H 1172.8 -0.379568 5.72042 0
M  V30 12191 H 1171.2 0.3643 5.98993 0
M  V30 12192 H 1172.27 1.02383 4.73968 0
M  V30 12193 N 1173.61 -1.56489 0.186789 0
M  V30 12194 C 1174.86 -1.97634 -0.454831 0
M  V30 12195 C 1175.19 -1.07334 -1.61843 0
M  V30 12196 O 1174.47 -0.123612 -1.94107 0
M  V30 12197 C 1174.75 -3.48071 -0.922962 0
M  V30 12198 C 1174.6 -4.49149 0.241877 0
M  V30 12199 C 1175.92 -4.01994 -1.79134 0
M  V30 12200 H 1173.04 -0.718555 -0.163854 0
M  V30 12201 H 1175.68 -1.87984 0.27604 0
M  V30 12202 H 1173.83 -3.56425 -1.54575 0
M  V30 12203 H 1175.5 -4.52841 0.87936 0
M  V30 12204 H 1173.75 -4.24468 0.894964 0
M  V30 12205 H 1174.42 -5.51851 -0.128051 0
M  V30 12206 H 1176.89 -3.96367 -1.26618 0
M  V30 12207 H 1175.77 -5.07641 -2.08787 0
M  V30 12208 H 1176.03 -3.46747 -2.74261 0
M  V30 12209 N 1175.09 0.086862 -1.5736 0
M  V30 12210 C 1176.32 0.802167 -1.90717 0
M  V30 12211 C 1176.73 1.71875 -0.781304 0
M  V30 12212 O 1176.09 1.80831 0.246255 0
M  V30 12213 C 1176.14 1.60858 -3.23739 0
M  V30 12214 O 1175.86 0.728851 -4.31995 0
M  V30 12215 C 1177.36 2.42621 -3.71012 0
M  V30 12216 H 1174.58 0.228914 -0.630745 0
M  V30 12217 H 1177.13 0.061634 -2.04407 0
M  V30 12218 H 1175.28 2.30153 -3.11622 0
M  V30 12219 H 1175.7 1.2882 -5.08435 0
M  V30 12220 H 1177.17 2.94683 -4.66761 0
M  V30 12221 H 1177.65 3.21462 -2.99264 0
M  V30 12222 H 1178.25 1.78509 -3.86024 0
M  V30 12223 N 1176.57 1.53483 0.357892 0
M  V30 12224 C 1177.5 1.76757 1.4591 0
M  V30 12225 C 1178.51 0.648502 1.49326 0
M  V30 12226 O 1179.7 0.924932 1.52667 0
M  V30 12227 C 1176.8 1.83938 2.8464 0
M  V30 12228 C 1175.97 3.13683 3.04831 0
M  V30 12229 C 1175.03 3.12007 4.23719 0
M  V30 12230 O 1174.06 3.8578 4.18524 0
M  V30 12231 N 1175.26 2.33366 5.31527 0
M  V30 12232 H 1178.03 2.71778 1.2632 0
M  V30 12233 H 1175.59 1.52355 0.547673 0
M  V30 12234 H 1177.58 1.80285 3.62325 0
M  V30 12235 H 1176.15 0.961675 2.9744 0
M  V30 12236 H 1175.37 3.30576 2.14739 0
M  V30 12237 H 1176.66 3.99412 3.15194 0
M  V30 12238 H 1176.06 1.72954 5.38613 0
M  V30 12239 H 1174.61 2.35524 6.07759 0
M  V30 12240 N 1178.05 -0.61812 1.44973 0
M  V30 12241 C 1178.98 -1.74035 1.55673 0
M  V30 12242 C 1179.96 -1.65112 0.4089 0
M  V30 12243 O 1181.14 -1.83673 0.630698 0
M  V30 12244 C 1178.27 -3.1261 1.51303 0
M  V30 12245 C 1177.23 -3.36334 2.64696 0
M  V30 12246 C 1176.55 -4.75072 2.45378 0
M  V30 12247 C 1177.85 -3.27618 4.06772 0
M  V30 12248 H 1179.55 -1.65336 2.49608 0
M  V30 12249 H 1177.09 -0.794003 1.20132 0
M  V30 12250 H 1179.04 -3.90906 1.57388 0
M  V30 12251 H 1177.77 -3.22123 0.538914 0
M  V30 12252 H 1176.43 -2.60423 2.58022 0
M  V30 12253 H 1176.08 -4.81306 1.46129 0
M  V30 12254 H 1175.78 -4.91903 3.21412 0
M  V30 12255 H 1177.3 -5.55582 2.53301 0
M  V30 12256 H 1178.71 -3.95802 4.14746 0
M  V30 12257 H 1177.11 -3.55981 4.83113 0
M  V30 12258 H 1178.18 -2.25219 4.29423 0
M  V30 12259 N 1179.52 -1.32087 -0.859693 0
M  V30 12260 C 1180.46 -1.14934 -1.97143 0
M  V30 12261 C 1181.43 -0.0501084 -1.62523 0
M  V30 12262 O 1182.62 -0.208472 -1.87344 0
M  V30 12263 C 1179.75 -0.758374 -3.30101 0
M  V30 12264 C 1178.79 -1.86212 -3.83702 0
M  V30 12265 S 1179.62 -3.46949 -4.07905 0
M  V30 12266 C 1180.78 -3.09813 -5.43844 0
M  V30 12267 H 1181.01 -2.09047 -2.11392 0
M  V30 12268 H 1178.55 -1.1669 -1.01108 0
M  V30 12269 H 1180.5 -0.539563 -4.06939 0
M  V30 12270 H 1179.17 0.163817 -3.13673 0
M  V30 12271 H 1178.36 -1.54144 -4.7985 0
M  V30 12272 H 1177.96 -2.03652 -3.13691 0
M  V30 12273 H 1180.25 -2.59345 -6.25897 0
M  V30 12274 H 1181.2 -4.04963 -5.8087 0
M  V30 12275 H 1181.6 -2.46971 -5.07607 0
M  V30 12276 N 1181 1.07532 -1.15215 0
M  V30 12277 C 1182.41 1.61567 -0.935568 0
M  V30 12278 C 1182.76 1.89085 0.523557 0
M  V30 12279 O 1181.89 1.65495 1.39429 0
M  V30 12280 C 1182.48 2.93531 -1.69189 0
M  V30 12281 C 1181.04 3.44316 -1.52063 0
M  V30 12282 C 1180.19 2.18404 -1.70866 0
M  V30 12283 H 1183.14 0.906431 -1.30267 0
M  V30 12284 H 1183.16 3.62377 -1.16031 0
M  V30 12285 H 1182.67 2.73471 -2.75381 0
M  V30 12286 H 1180.77 3.69462 -0.482567 0
M  V30 12287 H 1180.89 4.20478 -2.29642 0
M  V30 12288 H 1179.25 2.28012 -1.13502 0
M  V30 12289 H 1180.03 2.00841 -2.7842 0
M  V30 12290 N 1182.48 0.948665 1.2585 0
M  V30 12291 C 1183.43 0.434929 2.23813 0
M  V30 12292 C 1184.41 -0.472518 1.53805 0
M  V30 12293 O 1185.61 -0.306542 1.74325 0
M  V30 12294 C 1182.74 -0.291678 3.42059 0
M  V30 12295 C 1181.82 0.633493 4.19342 0
M  V30 12296 N 1182.21 1.76254 4.74097 0
M  V30 12297 C 1180.51 0.440528 4.43819 0
M  V30 12298 C 1181.21 2.33968 5.32573 0
M  V30 12299 N 1180.19 1.62687 5.18685 0
M  V30 12300 H 1183.99 1.29668 2.63749 0
M  V30 12301 H 1181.5 0.805431 1.4102 0
M  V30 12302 H 1183.5 -0.676811 4.1137 0
M  V30 12303 H 1182.16 -1.15011 3.03649 0
M  V30 12304 H 1183.17 2.14453 4.71413 0
M  V30 12305 H 1179.85 -0.375515 4.15808 0
M  V30 12306 H 1181.24 3.2914 5.85761 0
M  V30 12307 N 1183.96 -1.40369 0.716545 0
M  V30 12308 C 1185.21 -2.00473 0.255959 0
M  V30 12309 C 1185.53 -1.57104 -1.15514 0
M  V30 12310 O 1184.8 -0.810925 -1.78328 0
M  V30 12311 H 1183.38 -0.741357 0.0916427 0
M  V30 12312 H 1186.04 -1.71692 0.922389 0
M  V30 12313 H 1185.14 -3.10752 0.289806 0
M  V30 12314 N 1185.44 -0.462799 -1.50652 0
M  V30 12315 C 1186.68 0.0938945 -2.04184 0
M  V30 12316 C 1187.04 1.37726 -1.33774 0
M  V30 12317 O 1188.24 2.01581 -1.77817 0
M  V30 12318 C 1186.51 0.281884 -3.56287 0
M  V30 12319 S 1188.07 0.798326 -4.31477 0
M  V30 12320 H 1184.89 0.0198719 -0.710722 0
M  V30 12321 H 1187.49 -0.62804 -1.85138 0
M  V30 12322 H 1186.2 -0.658084 -4.05089 0
M  V30 12323 H 1185.73 1.03017 -3.79672 0
M  V30 12324 H 1187.74 2.07281 -4.50832 0
M  V30 12325 N 1186.91 1.56388 -0.195085 0
M  V30 12326 C 1187.84 2.22091 0.720971 0
M  V30 12327 C 1188.83 1.184 1.22128 0
M  V30 12328 O 1190.01 1.46907 1.27012 0
M  V30 12329 C 1187.14 2.88025 1.94059 0
M  V30 12330 C 1186.09 3.97959 1.5752 0
M  V30 12331 C 1185.42 4.51058 2.87143 0
M  V30 12332 C 1186.72 5.16365 0.785145 0
M  V30 12333 H 1188.41 2.98898 0.173245 0
M  V30 12334 H 1185.96 1.43767 0.0818868 0
M  V30 12335 H 1187.91 3.32671 2.58666 0
M  V30 12336 H 1186.64 2.08623 2.51285 0
M  V30 12337 H 1185.3 3.54004 0.952715 0
M  V30 12338 H 1184.94 3.68418 3.42458 0
M  V30 12339 H 1184.64 5.25237 2.63439 0
M  V30 12340 H 1186.17 4.98406 3.52738 0
M  V30 12341 H 1187.58 5.57556 1.33431 0
M  V30 12342 H 1185.98 5.9661 0.646231 0
M  V30 12343 H 1187.05 4.84428 -0.213789 0
M  V30 12344 N 1188.39 -0.0785156 1.57404 0
M  V30 12345 C 1189.32 -1.09446 2.06262 0
M  V30 12346 C 1190.3 -1.40777 0.954772 0
M  V30 12347 O 1191.49 -1.5052 1.22708 0
M  V30 12348 C 1188.62 -2.40979 2.50093 0
M  V30 12349 C 1187.57 -2.24017 3.64692 0
M  V30 12350 C 1186.9 -3.60873 3.94556 0
M  V30 12351 C 1188.2 -1.66696 4.94985 0
M  V30 12352 H 1189.89 -0.687928 2.9139 0
M  V30 12353 H 1187.44 -0.329466 1.4018 0
M  V30 12354 H 1189.39 -3.12337 2.82884 0
M  V30 12355 H 1188.12 -2.83599 1.61985 0
M  V30 12356 H 1186.77 -1.55101 3.32174 0
M  V30 12357 H 1186.42 -4.01051 3.0359 0
M  V30 12358 H 1186.12 -3.50365 4.71718 0
M  V30 12359 H 1187.65 -4.33673 4.29837 0
M  V30 12360 H 1189.06 -2.27913 5.2605 0
M  V30 12361 H 1187.46 -1.66902 5.76423 0
M  V30 12362 H 1188.53 -0.627827 4.80818 0
M  V30 12363 N 1189.87 -1.5367 -0.349747 0
M  V30 12364 C 1190.78 -1.84207 -1.45275 0
M  V30 12365 C 1191.8 -0.731695 -1.57868 0
M  V30 12366 O 1192.97 -1.02337 -1.73462 0
M  V30 12367 C 1190.04 -2.0398 -2.80345 0
M  V30 12368 C 1189.1 -3.27853 -2.77148 0
M  V30 12369 C 1188.33 -3.46673 -4.05775 0
M  V30 12370 O 1188.55 -2.69457 -5.02741 0
M  V30 12371 O 1187.49 -4.40082 -4.10623 0
M  V30 12372 H 1191.31 -2.77947 -1.22389 0
M  V30 12373 H 1188.9 -1.39247 -0.541345 0
M  V30 12374 H 1190.78 -2.18466 -3.60348 0
M  V30 12375 H 1189.46 -1.13429 -3.03176 0
M  V30 12376 H 1188.36 -3.18776 -1.95787 0
M  V30 12377 H 1189.7 -4.18377 -2.59271 0
M  V30 12378 N 1191.35 0.610423 -1.45298 0
M  V30 12379 C 1192.58 1.39419 -1.52466 0
M  V30 12380 C 1192.99 1.88563 -0.1551 0
M  V30 12381 O 1192.33 1.62692 0.853061 0
M  V30 12382 C 1192.39 2.63515 -2.44541 0
M  V30 12383 C 1192.06 2.36028 -3.91331 0
M  V30 12384 C 1193.05 1.96567 -4.81308 0
M  V30 12385 C 1190.74 2.49028 -4.36223 0
M  V30 12386 C 1192.73 1.70461 -6.14184 0
M  V30 12387 C 1190.42 2.22536 -5.6914 0
M  V30 12388 C 1191.42 1.83314 -6.5794 0
M  V30 12389 O 1191.1 1.57131 -7.88394 0
M  V30 12390 H 1190.84 0.433278 -0.518889 0
M  V30 12391 H 1193.39 0.751803 -1.91147 0
M  V30 12392 H 1191.62 3.30463 -2.00826 0
M  V30 12393 H 1193.31 3.25554 -2.42424 0
M  V30 12394 H 1194.08 1.86062 -4.4789 0
M  V30 12395 H 1189.95 2.78524 -3.67349 0
M  V30 12396 H 1193.5 1.39773 -6.83454 0
M  V30 12397 H 1189.4 2.32657 -6.02114 0
M  V30 12398 H 1190.16 1.71207 -8.00394 0
M  V30 12399 N 1192.83 1.32541 0.852676 0
M  V30 12400 C 1194.07 1.23397 1.60938 0
M  V30 12401 C 1194.41 -0.203294 1.93133 0
M  V30 12402 O 1193.68 -1.14097 1.57519 0
M  V30 12403 C 1193.96 2.0956 2.92842 0
M  V30 12404 C 1193.82 3.61675 2.67416 0
M  V30 12405 C 1195.14 1.95825 3.94133 0
M  V30 12406 H 1192.25 0.449608 0.583971 0
M  V30 12407 H 1194.9 1.62507 0.98446 0
M  V30 12408 H 1193.05 1.76336 3.46176 0
M  V30 12409 H 1194.72 4.05122 2.20621 0
M  V30 12410 H 1192.96 3.84242 2.01347 0
M  V30 12411 H 1193.63 4.17292 3.61347 0
M  V30 12412 H 1196.11 2.24935 3.50062 0
M  V30 12413 H 1194.98 2.58387 4.8428 0
M  V30 12414 H 1195.25 0.926466 4.32284 0
M  V30 12415 N 1194.3 -1.0692 1.15784 0
M  V30 12416 C 1195.25 -2.12473 0.826994 0
M  V30 12417 C 1196.24 -1.59766 -0.19073 0
M  V30 12418 O 1197.43 -1.76998 0.00917115 0
M  V30 12419 C 1194.56 -3.41779 0.322847 0
M  V30 12420 C 1193.65 -4.01329 1.37098 0
M  V30 12421 N 1194.04 -4.35077 2.57957 0
M  V30 12422 C 1192.33 -4.28854 1.22475 0
M  V30 12423 C 1193.04 -4.82326 3.25171 0
M  V30 12424 N 1192.01 -4.81369 2.52556 0
M  V30 12425 H 1195.81 -2.36404 1.74614 0
M  V30 12426 H 1193.33 -1.244 1.04395 0
M  V30 12427 H 1195.32 -4.16845 0.0674576 0
M  V30 12428 H 1193.98 -3.19289 -0.590311 0
M  V30 12429 H 1195 -4.25626 2.95065 0
M  V30 12430 H 1191.67 -4.15841 0.371839 0
M  V30 12431 H 1193.06 -5.17695 4.28301 0
M  V30 12432 N 1195.78 -0.955326 -1.25345 0
M  V30 12433 C 1196.69 -0.482707 -2.2958 0
M  V30 12434 C 1197.71 0.450283 -1.68073 0
M  V30 12435 O 1198.88 0.326358 -1.98738 0
M  V30 12436 C 1195.95 0.231293 -3.45928 0
M  V30 12437 C 1195.01 -0.739995 -4.22874 0
M  V30 12438 C 1194.24 -0.0599748 -5.33666 0
M  V30 12439 O 1194.47 1.15423 -5.586 0
M  V30 12440 O 1193.4 -0.745865 -5.97261 0
M  V30 12441 H 1197.23 -1.34892 -2.72099 0
M  V30 12442 H 1194.81 -0.721812 -1.30806 0
M  V30 12443 H 1196.69 0.632908 -4.1662 0
M  V30 12444 H 1195.37 1.07267 -3.0541 0
M  V30 12445 H 1194.28 -1.19183 -3.54607 0
M  V30 12446 H 1195.61 -1.54941 -4.67177 0
M  V30 12447 N 1197.26 1.39987 -0.723979 0
M  V30 12448 C 1198.21 2.27938 -0.0531058 0
M  V30 12449 C 1199.2 1.43693 0.723965 0
M  V30 12450 O 1200.39 1.66707 0.594785 0
M  V30 12451 C 1197.52 3.32311 0.861659 0
M  V30 12452 C 1196.6 4.24026 0.079327 0
M  V30 12453 N 1196.99 4.96954 -0.941805 0
M  V30 12454 C 1195.29 4.44917 0.310637 0
M  V30 12455 C 1195.99 5.64287 -1.41261 0
M  V30 12456 N 1194.97 5.38632 -0.733217 0
M  V30 12457 H 1198.77 2.81771 -0.835608 0
M  V30 12458 H 1196.28 1.52538 -0.557315 0
M  V30 12459 H 1198.28 3.94174 1.35766 0
M  V30 12460 H 1196.94 2.80038 1.64344 0
M  V30 12461 H 1197.95 5.0072 -1.32288 0
M  V30 12462 H 1194.63 4.03606 1.06809 0
M  V30 12463 H 1196.02 6.32695 -2.26155 0
M  V30 12464 N 1198.74 0.470782 1.50404 0
M  V30 12465 C 1199.69 -0.32355 2.28521 0
M  V30 12466 C 1200.66 -0.987472 1.3356 0
M  V30 12467 O 1201.84 -0.999969 1.62497 0
M  V30 12468 C 1198.98 -1.39977 3.15437 0
M  V30 12469 C 1198.09 -0.750656 4.25428 0
M  V30 12470 C 1197.23 -1.80474 4.99602 0
M  V30 12471 C 1196.27 -1.13586 6.01469 0
M  V30 12472 N 1195.41 -2.13279 6.68922 0
M  V30 12473 H 1200.25 0.348902 2.9595 0
M  V30 12474 H 1197.78 0.183908 1.45946 0
M  V30 12475 H 1199.74 -2.0354 3.6418 0
M  V30 12476 H 1198.37 -2.04139 2.50054 0
M  V30 12477 H 1197.42 -0.00247092 3.804 0
M  V30 12478 H 1198.73 -0.222638 4.98303 0
M  V30 12479 H 1197.89 -2.51619 5.52062 0
M  V30 12480 H 1196.63 -2.36657 4.26433 0
M  V30 12481 H 1195.63 -0.410042 5.48269 0
M  V30 12482 H 1196.86 -0.580935 6.76611 0
M  V30 12483 H 1194.8 -2.68479 5.98544 0
M  V30 12484 H 1194.72 -1.65461 7.37671 0
M  V30 12485 H 1195.99 -2.83804 7.26 0
M  V30 12486 N 1200.22 -1.56282 0.203376 0
M  V30 12487 C 1201.49 -1.89587 -0.481256 0
M  V30 12488 C 1201.87 -1.11812 -1.79057 0
M  V30 12489 O 1201.22 -0.221759 -2.27421 0
M  V30 12490 C 1201.43 -3.42071 -0.691965 0
M  V30 12491 C 1202.78 -4.12471 -1.00761 0
M  V30 12492 O 1203.8 -3.47568 -0.779396 0
M  V30 12493 O 1202.66 -5.27194 -1.43974 0
M  V30 12494 H 1199.76 -0.787682 -0.251963 0
M  V30 12495 H 1202.3 -1.67934 0.244207 0
M  V30 12496 H 1201.08 -3.9061 0.232322 0
M  V30 12497 H 1200.7 -3.69444 -1.46958 0
M  V30 12498 N 1201.7 0.070167 -1.57444 0
M  V30 12499 C 1202.64 1.10193 -2.04842 0
M  V30 12500 C 1203.64 1.39978 -0.954069 0
M  V30 12501 O 1204.84 1.39366 -1.13917 0
M  V30 12502 H 1201.22 0.372699 -0.653146 0
M  V30 12503 H 1203.19 0.676033 -2.90641 0
M  V30 12504 C 1201.94 2.40679 -2.50936 0
M  V30 12505 H 1201.26 2.1861 -3.34738 0
M  V30 12506 H 1202.7 3.11315 -2.87852 0
M  V30 12507 C 1201.16 3.06754 -1.39297 0
M  V30 12508 O 1201.69 3.949 -0.735989 0
M  V30 12509 N 1199.9 2.67404 -1.13769 0
M  V30 12510 H 1199.44 1.95813 -1.67376 0
M  V30 12511 H 1199.4 3.11937 -0.392787 0
M  V30 12512 N 1203.17 1.53854 0.341593 0
M  V30 12513 C 1204.42 1.7041 1.07905 0
M  V30 12514 C 1204.74 0.475039 1.89744 0
M  V30 12515 O 1205.94 0.521589 2.66443 0
M  V30 12516 C 1204.4 3.01342 1.96776 0
M  V30 12517 C 1204.01 4.31592 1.20135 0
M  V30 12518 C 1205.75 3.27264 2.70367 0
M  V30 12519 C 1203.66 5.53598 2.08047 0
M  V30 12520 H 1202.59 0.635005 0.406553 0
M  V30 12521 H 1205.24 1.80353 0.338409 0
M  V30 12522 H 1203.62 2.85261 2.74667 0
M  V30 12523 H 1204.79 4.58382 0.471404 0
M  V30 12524 H 1203.11 4.12298 0.583039 0
M  V30 12525 H 1205.71 4.15607 3.36415 0
M  V30 12526 H 1206.05 2.44357 3.37039 0
M  V30 12527 H 1206.58 3.4413 1.99548 0
M  V30 12528 H 1203.32 6.39053 1.45914 0
M  V30 12529 H 1202.84 5.31052 2.78825 0
M  V30 12530 H 1204.52 5.89314 2.67055 0
M  V30 12531 N 1204.65 -0.602709 1.4562 0
M  V30 12532 C 1205.9 -1.35889 1.49595 0
M  V30 12533 C 1206.22 -1.9449 0.141002 0
M  V30 12534 O 1205.49 -1.77438 -0.830209 0
M  V30 12535 H 1204.07 -0.504478 0.550918 0
M  V30 12536 H 1206.73 -0.707376 1.8161 0
M  V30 12537 H 1205.83 -2.17583 2.2375 0
M  V30 12538 N 1206.13 -1.32992 -0.845635 0
M  V30 12539 C 1207.35 -1.27231 -1.6379 0
M  V30 12540 C 1207.78 0.155141 -1.87459 0
M  V30 12541 O 1207.14 1.10953 -1.43384 0
M  V30 12542 C 1207.19 -2.04629 -2.96916 0
M  V30 12543 O 1206.29 -1.40027 -3.879 0
M  V30 12544 H 1205.63 -0.438045 -0.499011 0
M  V30 12545 H 1208.16 -1.75448 -1.05257 0
M  V30 12546 H 1208.17 -2.15141 -3.46667 0
M  V30 12547 H 1206.85 -3.08425 -2.79011 0
M  V30 12548 H 1205.42 -1.38118 -3.46378 0
M  V30 12549 N 1207.61 1.06304 -1.1635 0
M  V30 12550 C 1208.54 2.13732 -0.827721 0
M  V30 12551 C 1209.55 1.61962 0.164983 0
M  V30 12552 O 1210.74 1.784 -0.0597591 0
M  V30 12553 C 1207.84 3.38239 -0.211623 0
M  V30 12554 C 1207.01 4.19325 -1.2444 0
M  V30 12555 C 1206.07 5.22193 -0.648127 0
M  V30 12556 O 1205.1 5.53755 -1.31695 0
M  V30 12557 N 1206.3 5.77742 0.565179 0
M  V30 12558 H 1209.07 2.43136 -1.75228 0
M  V30 12559 H 1206.63 1.22304 -1.06081 0
M  V30 12560 H 1208.62 4.04204 0.200306 0
M  V30 12561 H 1207.19 3.06461 0.616491 0
M  V30 12562 H 1206.41 3.49017 -1.83251 0
M  V30 12563 H 1207.7 4.70306 -1.94138 0
M  V30 12564 H 1207.1 5.54366 1.12673 0
M  V30 12565 H 1205.65 6.45284 0.919321 0
M  V30 12566 N 1209.09 0.96196 1.24836 0
M  V30 12567 C 1210.02 0.506241 2.27946 0
M  V30 12568 C 1211 -0.451183 1.64007 0
M  V30 12569 O 1212.18 -0.348552 1.91046 0
M  V30 12570 C 1209.31 -0.209846 3.46665 0
M  V30 12571 C 1208.27 0.663035 4.22833 0
M  V30 12572 C 1207.59 -0.184216 5.34383 0
M  V30 12573 C 1208.89 1.94479 4.84742 0
M  V30 12574 H 1210.59 1.36805 2.66317 0
M  V30 12575 H 1208.13 0.65926 1.28023 0
M  V30 12576 H 1210.08 -0.539838 4.17928 0
M  V30 12577 H 1208.81 -1.10596 3.07305 0
M  V30 12578 H 1207.47 0.976216 3.53363 0
M  V30 12579 H 1207.12 -1.08031 4.91262 0
M  V30 12580 H 1206.82 0.39657 5.8626 0
M  V30 12581 H 1208.34 -0.509009 6.08475 0
M  V30 12582 H 1209.75 1.68074 5.48109 0
M  V30 12583 H 1208.15 2.47183 5.46828 0
M  V30 12584 H 1209.22 2.64332 4.06517 0
M  V30 12585 N 1210.56 -1.39601 0.731392 0
M  V30 12586 C 1211.49 -2.33268 0.1041 0
M  V30 12587 C 1212.47 -1.53724 -0.728219 0
M  V30 12588 O 1213.66 -1.82131 -0.673933 0
M  V30 12589 C 1210.79 -3.37802 -0.806646 0
M  V30 12590 C 1209.74 -4.27928 -0.0787588 0
M  V30 12591 C 1209.07 -5.23131 -1.10628 0
M  V30 12592 C 1210.37 -5.11086 1.07651 0
M  V30 12593 H 1212.06 -2.85975 0.886496 0
M  V30 12594 H 1209.61 -1.375 0.427746 0
M  V30 12595 H 1211.56 -4.02278 -1.25499 0
M  V30 12596 H 1210.29 -2.83527 -1.62112 0
M  V30 12597 H 1208.95 -3.64926 0.349926 0
M  V30 12598 H 1208.59 -4.65152 -1.91422 0
M  V30 12599 H 1208.29 -5.84277 -0.624043 0
M  V30 12600 H 1209.82 -5.90483 -1.5544 0
M  V30 12601 H 1211.23 -5.68927 0.706781 0
M  V30 12602 H 1209.63 -5.81356 1.48814 0
M  V30 12603 H 1210.7 -4.46131 1.89988 0
M  V30 12604 N 1212.04 -0.478751 -1.50152 0
M  V30 12605 C 1212.97 0.301182 -2.31549 0
M  V30 12606 C 1213.95 0.983276 -1.38801 0
M  V30 12607 O 1215.14 0.978973 -1.67719 0
M  V30 12608 C 1212.27 1.3791 -3.18745 0
M  V30 12609 C 1211.22 0.818175 -4.20107 0
M  V30 12610 C 1210.55 1.99496 -4.9609 0
M  V30 12611 C 1211.85 -0.17574 -5.22004 0
M  V30 12612 H 1213.54 -0.378188 -2.97002 0
M  V30 12613 H 1211.09 -0.183323 -1.42828 0
M  V30 12614 H 1213.04 1.93227 -3.74488 0
M  V30 12615 H 1211.77 2.08735 -2.51192 0
M  V30 12616 H 1210.42 0.286924 -3.65475 0
M  V30 12617 H 1210.07 2.69036 -4.25004 0
M  V30 12618 H 1209.77 1.62582 -5.6466 0
M  V30 12619 H 1211.3 2.55288 -5.54671 0
M  V30 12620 H 1212.71 0.288513 -5.72574 0
M  V30 12621 H 1211.11 -0.459549 -5.98338 0
M  V30 12622 H 1212.18 -1.09911 -4.72279 0
M  V30 12623 N 1213.52 1.56172 -0.211661 0
M  V30 12624 C 1214.47 2.21206 0.719063 0
M  V30 12625 C 1215.46 1.18835 1.20725 0
M  V30 12626 O 1216.67 1.36939 1.16823 0
M  V30 12627 H 1213.04 0.709129 0.250279 0
M  V30 12628 H 1215.01 2.98038 0.147022 0
M  V30 12629 C 1213.76 2.89826 1.92084 0
M  V30 12630 H 1213.09 3.68351 1.55428 0
M  V30 12631 H 1214.53 3.38744 2.55006 0
M  V30 12632 C 1212.99 1.91756 2.77004 0
M  V30 12633 O 1213.52 1.42826 3.75451 0
M  V30 12634 N 1211.72 1.59622 2.42836 0
M  V30 12635 H 1211.27 1.99606 1.62835 0
M  V30 12636 H 1211.23 0.942641 2.99936 0
M  V30 12637 N 1215 -0.0618163 1.57479 0
M  V30 12638 C 1216.24 -0.754894 1.88873 0
M  V30 12639 C 1216.6 -1.74679 0.806539 0
M  V30 12640 O 1215.89 -1.90672 -0.188301 0
M  V30 12641 C 1216.09 -1.4939 3.2468 0
M  V30 12642 C 1215.92 -0.575088 4.46008 0
M  V30 12643 C 1214.69 -0.208295 5.04871 0
M  V30 12644 C 1216.88 0.132502 5.14129 0
M  V30 12645 N 1214.87 0.715201 6.0972 0
M  V30 12646 C 1216.24 0.912821 6.13243 0
M  V30 12647 C 1218.29 0.20292 4.97486 0
M  V30 12648 C 1216.99 1.75703 6.97511 0
M  V30 12649 C 1219.02 1.03414 5.82288 0
M  V30 12650 C 1218.38 1.80248 6.80948 0
M  V30 12651 H 1214.48 -0.251354 0.740503 0
M  V30 12652 H 1217.07 -0.0160307 1.94693 0
M  V30 12653 H 1215.24 -2.20343 3.1985 0
M  V30 12654 H 1216.97 -2.13678 3.43691 0
M  V30 12655 H 1213.72 -0.563353 4.70237 0
M  V30 12656 H 1214.15 1.17049 6.66805 0
M  V30 12657 H 1218.79 -0.376779 4.21118 0
M  V30 12658 H 1216.51 2.34766 7.73247 0
M  V30 12659 H 1220.09 1.09173 5.71465 0
M  V30 12660 H 1218.97 2.43529 7.45428 0
M  V30 12661 N 1216.48 -1.54033 -0.333429 0
M  V30 12662 C 1217.72 -1.73485 -1.08085 0
M  V30 12663 C 1218.08 -0.492888 -1.85566 0
M  V30 12664 O 1219.28 -0.564596 -2.62804 0
M  V30 12665 C 1217.55 -2.96943 -1.98896 0
M  V30 12666 S 1219.11 -3.37253 -2.80724 0
M  V30 12667 H 1215.93 -0.610131 -0.365049 0
M  V30 12668 H 1218.53 -1.92194 -0.358034 0
M  V30 12669 H 1217.24 -3.85494 -1.40794 0
M  V30 12670 H 1216.77 -2.80729 -2.75599 0
M  V30 12671 H 1218.78 -2.9178 -4.01347 0
M  V30 12672 N 1217.95 0.594978 -1.45938 0
M  V30 12673 C 1219.2 1.35561 -1.50834 0
M  V30 12674 C 1219.53 1.93584 -0.154566 0
M  V30 12675 O 1218.81 1.75781 0.832541 0
M  V30 12676 C 1219.09 2.49414 -2.5974 0
M  V30 12677 C 1218.94 1.96506 -4.04605 0
M  V30 12678 C 1220.26 3.51505 -2.64825 0
M  V30 12679 H 1217.38 0.491549 -0.549134 0
M  V30 12680 H 1220.02 0.669536 -1.77812 0
M  V30 12681 H 1218.17 3.07939 -2.36866 0
M  V30 12682 H 1219.85 1.42533 -4.38728 0
M  V30 12683 H 1218.09 1.27418 -4.14665 0
M  V30 12684 H 1218.76 2.78636 -4.76515 0
M  V30 12685 H 1221.24 3.02841 -2.85353 0
M  V30 12686 H 1220.11 4.28641 -3.42867 0
M  V30 12687 H 1220.37 4.07942 -1.70399 0
M  V30 12688 N 1219.43 1.33438 0.838571 0
M  V30 12689 C 1220.36 1.19552 1.9555 0
M  V30 12690 C 1221.38 0.12642 1.62308 0
M  V30 12691 O 1222.57 0.376868 1.74476 0
M  V30 12692 C 1219.67 0.811273 3.29046 0
M  V30 12693 C 1218.84 1.97207 3.9042 0
M  V30 12694 C 1217.9 1.56875 5.02271 0
M  V30 12695 O 1216.92 2.28314 5.21403 0
M  V30 12696 N 1218.13 0.473924 5.78562 0
M  V30 12697 H 1220.89 2.15769 2.07999 0
M  V30 12698 H 1218.45 1.26187 1.01432 0
M  V30 12699 H 1220.44 0.523553 4.01299 0
M  V30 12700 H 1219.01 -0.0602291 3.12542 0
M  V30 12701 H 1218.23 2.4254 3.10754 0
M  V30 12702 H 1219.52 2.74878 4.28158 0
M  V30 12703 H 1218.92 -0.120306 5.65572 0
M  V30 12704 H 1217.48 0.245877 6.51336 0
M  V30 12705 N 1220.91 -1.05686 1.16912 0
M  V30 12706 C 1222.16 -1.77987 0.948875 0
M  V30 12707 C 1222.47 -1.8845 -0.524011 0
M  V30 12708 O 1223.68 -2.57442 -0.862322 0
M  V30 12709 C 1222.13 -3.19927 1.64848 0
M  V30 12710 C 1221.74 -3.1761 3.15956 0
M  V30 12711 C 1223.49 -3.96719 1.51044 0
M  V30 12712 C 1221.39 -4.54307 3.78628 0
M  V30 12713 H 1220.32 -0.667119 0.35138 0
M  V30 12714 H 1222.97 -1.18496 1.40111 0
M  V30 12715 H 1221.36 -3.79714 1.12397 0
M  V30 12716 H 1222.53 -2.67369 3.75301 0
M  V30 12717 H 1220.85 -2.54317 3.29715 0
M  V30 12718 H 1223.44 -4.97779 1.95243 0
M  V30 12719 H 1223.79 -4.13748 0.460268 0
M  V30 12720 H 1224.32 -3.43468 2.00685 0
M  V30 12721 H 1221.06 -4.42484 4.8362 0
M  V30 12722 H 1220.58 -5.04717 3.24069 0
M  V30 12723 H 1222.26 -5.23255 3.80543 0
M  V30 12724 N 1222.39 -0.968567 -1.24324 0
M  V30 12725 C 1223.35 -0.504307 -2.23583 0
M  V30 12726 C 1224.35 0.399626 -1.55755 0
M  V30 12727 O 1225.54 0.194966 -1.73106 0
M  V30 12728 C 1222.67 0.26956 -3.39833 0
M  V30 12729 H 1223.87 -1.3818 -2.6617 0
M  V30 12730 H 1221.42 -0.753241 -1.36952 0
M  V30 12731 H 1222.15 1.16411 -3.02686 0
M  V30 12732 H 1221.94 -0.379133 -3.90263 0
M  V30 12733 H 1223.43 0.583376 -4.13505 0
M  V30 12734 N 1223.87 1.39211 -0.738786 0
M  V30 12735 C 1224.81 2.30578 -0.10129 0
M  V30 12736 C 1225.78 1.49412 0.725616 0
M  V30 12737 O 1226.97 1.78087 0.684799 0
M  V30 12738 C 1224.11 3.35767 0.797161 0
M  V30 12739 C 1223.22 4.31979 -0.0427701 0
M  V30 12740 C 1222.36 5.24236 0.857306 0
M  V30 12741 C 1221.4 6.12099 0.0128501 0
M  V30 12742 N 1220.53 6.96701 0.869067 0
M  V30 12743 H 1225.37 2.84522 -0.88606 0
M  V30 12744 H 1222.91 1.40093 -0.448602 0
M  V30 12745 H 1224.87 3.95347 1.33255 0
M  V30 12746 H 1223.5 2.83268 1.54787 0
M  V30 12747 H 1222.55 3.73986 -0.695622 0
M  V30 12748 H 1223.86 4.93927 -0.69555 0
M  V30 12749 H 1223.02 5.88861 1.4604 0
M  V30 12750 H 1221.75 4.62619 1.54386 0
M  V30 12751 H 1220.76 5.46483 -0.603018 0
M  V30 12752 H 1221.98 6.75781 -0.67054 0
M  V30 12753 H 1219.93 6.37647 1.54084 0
M  V30 12754 H 1219.85 7.55507 0.272852 0
M  V30 12755 H 1221.12 7.65751 1.4576 0
M  V30 12756 N 1225.34 0.486708 1.49896 0
M  V30 12757 C 1226.59 -0.0627279 2.02003 0
M  V30 12758 C 1226.91 -1.38799 1.36967 0
M  V30 12759 O 1226.18 -1.88868 0.520173 0
M  V30 12760 H 1224.76 -0.0261718 0.746541 0
M  V30 12761 H 1227.43 0.640692 1.84068 0
M  V30 12762 H 1226.52 -0.202856 3.1144 0
M  V30 12763 N 1226.82 -1.56058 0.219941 0
M  V30 12764 C 1227.76 -2.16182 -0.730796 0
M  V30 12765 C 1228.73 -1.10574 -1.19215 0
M  V30 12766 O 1229.92 -1.38821 -1.27518 0
M  V30 12767 C 1227.05 -2.7408 -1.98992 0
M  V30 12768 C 1226.09 -3.92502 -1.66867 0
M  V30 12769 S 1226.92 -5.29568 -0.794875 0
M  V30 12770 C 1228.08 -5.90903 -2.0636 0
M  V30 12771 H 1228.31 -2.96487 -0.219762 0
M  V30 12772 H 1225.85 -1.54399 0.00465254 0
M  V30 12773 H 1227.8 -3.08078 -2.7129 0
M  V30 12774 H 1226.47 -1.93771 -2.47207 0
M  V30 12775 H 1225.66 -4.31509 -2.60414 0
M  V30 12776 H 1225.26 -3.59642 -1.02633 0
M  V30 12777 H 1227.55 -6.06778 -3.01374 0
M  V30 12778 H 1228.5 -6.86957 -1.71745 0
M  V30 12779 H 1228.9 -5.19722 -2.2034 0
M  V30 12780 N 1228.3 0.053464 -1.57509 0
M  V30 12781 C 1229.23 1.09391 -2.00272 0
M  V30 12782 C 1230.21 1.36553 -0.882727 0
M  V30 12783 O 1231.4 1.4962 -1.14657 0
M  V30 12784 C 1228.52 2.43424 -2.35505 0
M  V30 12785 C 1227.57 2.32278 -3.577 0
M  V30 12786 S 1228.4 1.69939 -5.0782 0
M  V30 12787 C 1229.56 3.05512 -5.46272 0
M  V30 12788 H 1229.79 0.729569 -2.88209 0
M  V30 12789 H 1227.32 0.262633 -1.5215 0
M  V30 12790 H 1229.28 3.20515 -2.56477 0
M  V30 12791 H 1227.94 2.77013 -1.48064 0
M  V30 12792 H 1227.14 3.31165 -3.79928 0
M  V30 12793 H 1226.74 1.63327 -3.36453 0
M  V30 12794 H 1229.03 4.0184 -5.45464 0
M  V30 12795 H 1229.97 2.88043 -6.46867 0
M  V30 12796 H 1230.38 3.06962 -4.73745 0
M  V30 12797 N 1229.78 1.54207 0.325255 0
M  V30 12798 C 1231.01 1.76037 1.08141 0
M  V30 12799 C 1231.42 0.50816 1.82248 0
M  V30 12800 O 1230.76 -0.530709 1.75867 0
M  V30 12801 C 1230.82 2.89876 2.12632 0
M  V30 12802 C 1230.49 4.28841 1.57937 0
M  V30 12803 C 1231.48 5.09755 1.02205 0
M  V30 12804 C 1229.17 4.7538 1.62232 0
M  V30 12805 C 1231.16 6.35317 0.514929 0
M  V30 12806 C 1228.85 6.0091 1.11132 0
M  V30 12807 C 1229.85 6.80712 0.558575 0
M  V30 12808 O 1229.54 8.03881 0.05526 0
M  V30 12809 H 1229.27 0.591332 0.327571 0
M  V30 12810 H 1231.82 2.019 0.377572 0
M  V30 12811 H 1230.05 2.59581 2.86627 0
M  V30 12812 H 1231.74 2.99505 2.73955 0
M  V30 12813 H 1232.51 4.74955 0.981954 0
M  V30 12814 H 1228.39 4.1331 2.04195 0
M  V30 12815 H 1231.93 6.97551 0.0828314 0
M  V30 12816 H 1227.83 6.35201 1.14848 0
M  V30 12817 H 1228.59 8.18322 0.170842 0
M  V30 12818 N 1231.26 -0.58723 1.46251 0
M  V30 12819 C 1232.19 -1.70694 1.5933 0
M  V30 12820 C 1233.17 -1.64208 0.443831 0
M  V30 12821 O 1234.35 -1.82294 0.669516 0
M  V30 12822 C 1231.48 -3.0933 1.579 0
M  V30 12823 C 1230.44 -3.30643 2.7177 0
M  V30 12824 C 1229.76 -4.69761 2.554 0
M  V30 12825 C 1231.06 -3.18916 4.1363 0
M  V30 12826 H 1232.76 -1.60004 2.53059 0
M  V30 12827 H 1230.3 -0.768343 1.21789 0
M  V30 12828 H 1232.26 -3.87479 1.65644 0
M  V30 12829 H 1230.98 -3.20907 0.60712 0
M  V30 12830 H 1229.64 -2.54892 2.63488 0
M  V30 12831 H 1229.29 -4.78098 1.56306 0
M  V30 12832 H 1228.99 -4.84974 3.31774 0
M  V30 12833 H 1230.51 -5.50084 2.65028 0
M  V30 12834 H 1231.93 -3.86915 4.23048 0
M  V30 12835 H 1230.32 -3.45653 4.90555 0
M  V30 12836 H 1231.39 -2.1606 4.34104 0
M  V30 12837 N 1232.74 -1.33881 -0.831482 0
M  V30 12838 C 1233.65 -1.26802 -1.97379 0
M  V30 12839 C 1234.66 -0.177233 -1.73095 0
M  V30 12840 O 1235.84 -0.402163 -1.97344 0
M  V30 12841 C 1232.9 -1.01474 -3.31517 0
M  V30 12842 C 1231.96 -2.19626 -3.68867 0
M  V30 12843 C 1231.2 -1.95497 -4.96605 0
M  V30 12844 O 1231.42 -0.908948 -5.63111 0
M  V30 12845 O 1230.35 -2.82226 -5.31632 0
M  V30 12846 H 1234.18 -2.22883 -2.06293 0
M  V30 12847 H 1231.76 -1.14001 -0.965613 0
M  V30 12848 H 1233.65 -0.890954 -4.11874 0
M  V30 12849 H 1232.32 -0.0842656 -3.2359 0
M  V30 12850 H 1231.23 -2.37561 -2.88991 0
M  V30 12851 H 1232.56 -3.11034 -3.81469 0
M  V30 12852 N 1234.21 1.05064 -1.1747 0
M  V30 12853 C 1235.12 2.16346 -0.907286 0
M  V30 12854 C 1236.14 1.7355 0.125013 0
M  V30 12855 O 1237.32 2.01326 -0.0545551 0
M  V30 12856 C 1234.38 3.44077 -0.425681 0
M  V30 12857 C 1233.44 4.01311 -1.52473 0
M  V30 12858 C 1232.67 5.22946 -1.06601 0
M  V30 12859 O 1232.9 5.70345 0.0793329 0
M  V30 12860 O 1231.83 5.72454 -1.85958 0
M  V30 12861 H 1235.66 2.41754 -1.83817 0
M  V30 12862 H 1233.24 1.14834 -0.955693 0
M  V30 12863 H 1235.12 4.21078 -0.164689 0
M  V30 12864 H 1233.8 3.20166 0.477037 0
M  V30 12865 H 1232.71 3.25744 -1.83961 0
M  V30 12866 H 1234.04 4.29543 -2.4032 0
M  V30 12867 N 1235.69 0.975146 1.23809 0
M  V30 12868 C 1237.11 0.682899 1.44252 0
M  V30 12869 C 1237.31 -0.752739 1.86912 0
M  V30 12870 O 1236.36 -1.52579 2.01186 0
M  V30 12871 C 1237.68 1.67335 2.49839 0
M  V30 12872 C 1239.22 1.6868 2.63659 0
M  V30 12873 C 1239.7 2.66542 3.72451 0
M  V30 12874 N 1241.19 2.65028 3.79887 0
M  V30 12875 C 1241.93 3.37421 4.63611 0
M  V30 12876 N 1241.42 4.19355 5.51465 0
M  V30 12877 N 1243.21 3.2621 4.57759 0
M  V30 12878 H 1235.37 1.9026 0.94418 0
M  V30 12879 H 1237.63 0.819543 0.476502 0
M  V30 12880 H 1237.33 2.69978 2.25399 0
M  V30 12881 H 1237.21 1.45201 3.48133 0
M  V30 12882 H 1239.6 0.667438 2.87453 0
M  V30 12883 H 1239.68 1.94878 1.65699 0
M  V30 12884 H 1239.32 3.68617 3.49405 0
M  V30 12885 H 1239.25 2.3762 4.69941 0
M  V30 12886 H 1241.74 2.05562 3.171 0
M  V30 12887 H 1242.05 4.71461 6.12327 0
M  V30 12888 H 1240.4 4.23447 5.51106 0
M  V30 12889 H 1243.59 2.61656 3.88142 0
M  V30 12890 H 1243.76 3.82889 5.22781 0
M  V30 12891 N 1237.17 -1.38817 0.746158 0
M  V30 12892 C 1238.59 -1.53894 0.42294 0
M  V30 12893 C 1238.79 -1.71064 -1.06486 0
M  V30 12894 O 1237.84 -1.71744 -1.85095 0
M  V30 12895 C 1239.15 -2.75029 1.2157 0
M  V30 12896 C 1240.7 -2.88873 1.20504 0
M  V30 12897 C 1241.18 -4.1296 1.9806 0
M  V30 12898 N 1242.67 -4.20022 1.95283 0
M  V30 12899 C 1243.4 -5.15011 2.52093 0
M  V30 12900 N 1242.9 -6.1572 3.17586 0
M  V30 12901 N 1244.69 -5.07308 2.42064 0
M  V30 12902 H 1236.84 -1.25921 1.71049 0
M  V30 12903 H 1239.11 -0.611148 0.724708 0
M  V30 12904 H 1238.81 -2.68722 2.26895 0
M  V30 12905 H 1238.69 -3.68009 0.827593 0
M  V30 12906 H 1241.07 -2.94667 0.159877 0
M  V30 12907 H 1241.15 -1.96925 1.63261 0
M  V30 12908 H 1240.8 -4.07929 3.02583 0
M  V30 12909 H 1240.73 -5.03974 1.52702 0
M  V30 12910 H 1243.22 -3.47892 1.4758 0
M  V30 12911 H 1243.53 -6.84682 3.58373 0
M  V30 12912 H 1241.88 -6.16075 3.21678 0
M  V30 12913 H 1245.07 -4.27569 1.90532 0
M  V30 12914 H 1245.24 -5.81158 2.86635 0
M  V30 12915 N 1238.65 -0.49465 -1.49636 0
M  V30 12916 C 1239.58 0.276606 -2.31856 0
M  V30 12917 C 1240.56 0.968499 -1.39836 0
M  V30 12918 O 1241.74 0.96113 -1.68748 0
M  V30 12919 C 1238.87 1.34522 -3.20189 0
M  V30 12920 C 1237.83 0.773571 -4.20951 0
M  V30 12921 C 1237.15 1.94223 -4.98178 0
M  V30 12922 C 1238.45 -0.231096 -5.21788 0
M  V30 12923 H 1240.15 -0.409668 -2.96584 0
M  V30 12924 H 1237.69 -0.198461 -1.42626 0
M  V30 12925 H 1239.65 1.89244 -3.76517 0
M  V30 12926 H 1238.37 2.06059 -2.53392 0
M  V30 12927 H 1237.03 0.248144 -3.65759 0
M  V30 12928 H 1236.68 2.64514 -4.27834 0
M  V30 12929 H 1236.38 1.56584 -5.66353 0
M  V30 12930 H 1237.9 2.49391 -5.57348 0
M  V30 12931 H 1239.32 0.227768 -5.72847 0
M  V30 12932 H 1237.71 -0.522984 -5.97817 0
M  V30 12933 H 1238.78 -1.14914 -4.71087 0
M  V30 12934 N 1240.13 1.55939 -0.228214 0
M  V30 12935 C 1241.37 1.9877 0.402272 0
M  V30 12936 C 1241.7 1.11587 1.5894 0
M  V30 12937 O 1240.98 0.175032 1.93711 0
M  V30 12938 C 1241.26 3.50396 0.830353 0
M  V30 12939 C 1241.12 4.4835 -0.360876 0
M  V30 12940 C 1242.43 4.06602 1.68413 0
M  V30 12941 H 1239.55 0.722646 0.144746 0
M  V30 12942 H 1242.2 1.87186 -0.325784 0
M  V30 12943 H 1240.35 3.60398 1.4507 0
M  V30 12944 H 1242.02 4.5035 -0.999113 0
M  V30 12945 H 1240.26 4.21946 -1.00719 0
M  V30 12946 H 1240.93 5.51997 -0.0183074 0
M  V30 12947 H 1243.41 3.99585 1.16064 0
M  V30 12948 H 1242.28 5.12998 1.95254 0
M  V30 12949 H 1242.54 3.53897 2.64971 0
M  V30 12950 N 1241.6 -0.0451101 1.57535 0
M  V30 12951 C 1242.55 -1.05817 2.01958 0
M  V30 12952 C 1243.54 -1.32963 0.906077 0
M  V30 12953 O 1244.73 -1.32816 1.16999 0
M  V30 12954 C 1241.86 -2.36414 2.48924 0
M  V30 12955 C 1240.95 -2.12428 3.67063 0
M  V30 12956 N 1241.34 -1.58448 4.80341 0
M  V30 12957 C 1239.63 -2.42785 3.74128 0
M  V30 12958 C 1240.34 -1.49896 5.62055 0
M  V30 12959 N 1239.31 -1.96892 5.0669 0
M  V30 12960 H 1243.11 -0.634569 2.86968 0
M  V30 12961 H 1240.63 -0.251719 1.60437 0
M  V30 12962 H 1242.62 -3.09781 2.79001 0
M  V30 12963 H 1241.28 -2.79467 1.65313 0
M  V30 12964 H 1242.3 -1.26939 5.02102 0
M  V30 12965 H 1238.97 -2.89022 3.01285 0
M  V30 12966 H 1240.36 -1.08788 6.63035 0
M  V30 12967 N 1243.08 -1.54377 -0.317073 0
M  V30 12968 C 1244.5 -1.45232 -0.6618 0
M  V30 12969 C 1244.7 -0.630457 -1.91383 0
M  V30 12970 O 1243.75 -0.13181 -2.52156 0
M  V30 12971 C 1245.07 -2.89025 -0.829761 0
M  V30 12972 C 1246.62 -2.98967 -0.926685 0
M  V30 12973 C 1247.09 -4.43923 -1.12677 0
M  V30 12974 N 1248.58 -4.47564 -1.19335 0
M  V30 12975 C 1249.32 -5.56887 -1.36617 0
M  V30 12976 N 1248.81 -6.76167 -1.50899 0
M  V30 12977 N 1250.61 -5.44546 -1.39377 0
M  V30 12978 H 1242.76 -2.0629 0.505766 0
M  V30 12979 H 1245.02 -0.933615 0.164522 0
M  V30 12980 H 1244.73 -3.51695 0.0190945 0
M  V30 12981 H 1244.6 -3.35515 -1.72364 0
M  V30 12982 H 1246.99 -2.36421 -1.76604 0
M  V30 12983 H 1247.07 -2.55798 -0.00913402 0
M  V30 12984 H 1246.71 -5.07059 -0.29224 0
M  V30 12985 H 1246.64 -4.84708 -2.05829 0
M  V30 12986 H 1249.13 -3.61623 -1.09715 0
M  V30 12987 H 1249.45 -7.55242 -1.63796 0
M  V30 12988 H 1247.79 -6.79062 -1.47985 0
M  V30 12989 H 1250.98 -4.50311 -1.27819 0
M  V30 12990 H 1251.15 -6.29799 -1.52502 0
M  V30 12991 N 1244.56 0.579466 -1.4656 0
M  V30 12992 C 1245.84 1.33973 -1.42515 0
M  V30 12993 C 1246.22 2.10812 -0.110317 0
M  V30 12994 O 1245.57 2.09679 0.908135 0
M  V30 12995 C 1245.78 2.26301 -2.65686 0
M  V30 12996 C 1247.12 2.88027 -3.1197 0
M  V30 12997 O 1248.15 2.36612 -2.66257 0
M  V30 12998 O 1247.01 3.81423 -3.9138 0
M  V30 12999 H 1244.1 0.602121 -0.566903 0
M  V30 13000 H 1246.65 0.600214 -1.58731 0
M  V30 13001 H 1245.42 1.68973 -3.52936 0
M  V30 13002 H 1245.04 3.07586 -2.51945 0
M  V30 13003 N 1246.04 1.3432 0.824371 0
M  V30 13004 C 1246.97 1.2842 1.95014 0
M  V30 13005 C 1247.95 0.161925 1.69328 0
M  V30 13006 O 1249.13 0.354052 1.90945 0
M  V30 13007 C 1246.26 1.03741 3.31444 0
M  V30 13008 C 1245.22 2.12419 3.71567 0
M  V30 13009 C 1244.54 1.72931 5.05963 0
M  V30 13010 C 1245.84 3.54235 3.83817 0
M  V30 13011 H 1247.54 2.22614 2.00209 0
M  V30 13012 H 1245.08 1.07165 0.961856 0
M  V30 13013 H 1247.04 0.982586 4.09784 0
M  V30 13014 H 1245.76 0.0598892 3.26545 0
M  V30 13015 H 1244.42 2.16968 2.955 0
M  V30 13016 H 1244.07 0.738433 4.9755 0
M  V30 13017 H 1243.77 2.45668 5.3378 0
M  V30 13018 H 1245.29 1.68941 5.86763 0
M  V30 13019 H 1246.71 3.52106 4.52432 0
M  V30 13020 H 1245.1 4.25581 4.23085 0
M  V30 13021 H 1246.17 3.91682 2.85856 0
M  V30 13022 N 1247.52 -1.0444 1.18026 0
M  V30 13023 C 1248.48 -2.10532 0.906028 0
M  V30 13024 C 1249.48 -1.60443 -0.107022 0
M  V30 13025 O 1250.67 -1.73744 0.126001 0
M  V30 13026 C 1247.8 -3.39008 0.358625 0
M  V30 13027 H 1248.99 -2.36293 1.84677 0
M  V30 13028 H 1246.55 -1.20805 0.991763 0
M  V30 13029 H 1247.28 -3.18908 -0.588904 0
M  V30 13030 H 1247.07 -3.76678 1.08884 0
M  V30 13031 H 1248.56 -4.17189 0.185331 0
M  V30 13032 N 1248.99 -0.981699 -1.2329 0
M  V30 13033 C 1249.96 -0.527992 -2.23036 0
M  V30 13034 C 1250.96 0.383083 -1.5617 0
M  V30 13035 O 1252.15 0.176595 -1.73303 0
M  V30 13036 C 1249.28 0.233501 -3.40099 0
M  V30 13037 H 1250.47 -1.40995 -2.64689 0
M  V30 13038 H 1248.03 -0.767724 -1.36146 0
M  V30 13039 H 1248.76 1.13194 -3.03904 0
M  V30 13040 H 1248.55 -0.420505 -3.89839 0
M  V30 13041 H 1250.04 0.539485 -4.14101 0
M  V30 13042 N 1250.47 1.3842 -0.753509 0
M  V30 13043 C 1251.89 1.53668 -0.431095 0
M  V30 13044 C 1252.09 1.71626 1.05578 0
M  V30 13045 O 1251.14 1.72723 1.84182 0
M  V30 13046 C 1252.46 2.74381 -1.23027 0
M  V30 13047 C 1254.01 2.8823 -1.22034 0
M  V30 13048 C 1254.48 4.11904 -2.00248 0
M  V30 13049 N 1255.97 4.18981 -1.97508 0
M  V30 13050 C 1256.71 5.13667 -2.5482 0
M  V30 13051 N 1256.2 6.14027 -3.20846 0
M  V30 13052 N 1258 5.06017 -2.44751 0
M  V30 13053 H 1250.15 1.25012 -1.71714 0
M  V30 13054 H 1252.41 0.607296 -0.727939 0
M  V30 13055 H 1252.12 2.67515 -2.28317 0
M  V30 13056 H 1251.99 3.67565 -0.847098 0
M  V30 13057 H 1254.38 2.94578 -0.175502 0
M  V30 13058 H 1254.46 1.96057 -1.64303 0
M  V30 13059 H 1254.1 4.06318 -3.04742 0
M  V30 13060 H 1254.03 5.03157 -1.55373 0
M  V30 13061 H 1256.52 3.47104 -1.49423 0
M  V30 13062 H 1256.84 6.82771 -3.61999 0
M  V30 13063 H 1255.18 6.1436 -3.24941 0
M  V30 13064 H 1258.37 4.26552 -1.92797 0
M  V30 13065 H 1258.54 5.7963 -2.89713 0
M  V30 13066 N 1251.95 0.502579 1.49372 0
M  V30 13067 C 1252.9 -0.288693 2.30801 0
M  V30 13068 C 1253.89 -0.961303 1.39482 0
M  V30 13069 O 1255.1 -0.888812 1.56525 0
M  V30 13070 H 1251.47 -0.111958 0.743619 0
M  V30 13071 H 1253.44 0.418062 2.95457 0
M  V30 13072 C 1252.19 -1.33938 3.20867 0
M  V30 13073 H 1251.52 -0.831219 3.91064 0
M  V30 13074 H 1252.96 -1.86498 3.80781 0
M  V30 13075 C 1251.42 -2.35839 2.40586 0
M  V30 13076 O 1251.95 -3.41752 2.11113 0
M  V30 13077 N 1250.15 -2.0835 2.0258 0
M  V30 13078 H 1249.7 -1.2224 2.26749 0
M  V30 13079 H 1249.66 -2.76758 1.49173 0
M  V30 13080 N 1253.43 -1.55816 0.23648 0
M  V30 13081 C 1254.67 -1.98981 -0.391725 0
M  V30 13082 C 1255.01 -1.12428 -1.58346 0
M  V30 13083 O 1254.28 -0.185303 -1.93615 0
M  V30 13084 C 1254.57 -3.50831 -0.811759 0
M  V30 13085 C 1254.42 -4.48152 0.384648 0
M  V30 13086 C 1255.74 -4.07489 -1.66254 0
M  V30 13087 H 1252.86 -0.723404 -0.140911 0
M  V30 13088 H 1255.5 -1.87011 0.335706 0
M  V30 13089 H 1253.65 -3.61162 -1.43157 0
M  V30 13090 H 1255.32 -4.49814 1.02298 0
M  V30 13091 H 1253.56 -4.21406 1.02955 0
M  V30 13092 H 1254.23 -5.51979 0.0475809 0
M  V30 13093 H 1256.71 -4.00195 -1.13944 0
M  V30 13094 H 1255.59 -5.14026 -1.92531 0
M  V30 13095 H 1255.85 -3.55297 -2.6309 0
M  V30 13096 N 1254.91 0.036755 -1.57557 0
M  V30 13097 C 1255.84 1.03939 -2.09091 0
M  V30 13098 C 1256.82 1.38196 -0.991761 0
M  V30 13099 O 1258 1.47214 -1.26656 0
M  V30 13100 C 1255.13 2.34263 -2.56394 0
M  V30 13101 C 1254.09 2.14269 -3.70504 0
M  V30 13102 C 1253.41 3.50286 -4.03985 0
M  V30 13103 C 1254.71 1.53514 -4.9923 0
M  V30 13104 H 1256.41 0.610429 -2.93111 0
M  V30 13105 H 1253.95 0.292183 -1.41005 0
M  V30 13106 H 1255.91 3.04727 -2.91066 0
M  V30 13107 H 1254.63 2.79205 -1.69447 0
M  V30 13108 H 1253.29 1.46239 -3.36169 0
M  V30 13109 H 1252.94 3.92861 -3.14116 0
M  V30 13110 H 1252.64 3.37735 -4.80842 0
M  V30 13111 H 1254.16 4.22124 -4.41184 0
M  V30 13112 H 1255.57 2.13885 -5.31908 0
M  V30 13113 H 1253.97 1.51561 -5.80646 0
M  V30 13114 H 1255.04 0.500126 -4.82314 0
M  V30 13115 N 1256.39 1.54543 0.308881 0
M  V30 13116 C 1257.63 1.73706 1.04661 0
M  V30 13117 C 1257.96 0.517111 1.87189 0
M  V30 13118 O 1257.24 -0.485856 1.88334 0
M  V30 13119 C 1257.52 3.02141 1.95916 0
M  V30 13120 C 1257.38 4.34419 1.1662 0
M  V30 13121 C 1258.69 3.26401 2.95213 0
M  V30 13122 H 1255.81 0.63203 0.379087 0
M  V30 13123 H 1258.46 1.87253 0.321947 0
M  V30 13124 H 1256.61 2.90723 2.57706 0
M  V30 13125 H 1258.28 4.57743 0.571772 0
M  V30 13126 H 1256.52 4.3126 0.468747 0
M  V30 13127 H 1257.19 5.20535 1.83704 0
M  V30 13128 H 1259.67 3.37377 2.43549 0
M  V30 13129 H 1258.54 4.17597 3.56235 0
M  V30 13130 H 1258.8 2.44322 3.68455 0
M  V30 13131 N 1257.86 -0.571685 1.46866 0
M  V30 13132 C 1258.81 -1.67992 1.58263 0
M  V30 13133 C 1259.78 -1.60535 0.426345 0
M  V30 13134 O 1260.97 -1.79584 0.644534 0
M  V30 13135 C 1258.11 -3.06327 1.58927 0
M  V30 13136 C 1257.22 -3.24328 2.85369 0
M  V30 13137 C 1256.35 -4.52976 2.77464 0
M  V30 13138 C 1255.39 -4.64359 3.98795 0
M  V30 13139 N 1254.53 -5.84345 3.89211 0
M  V30 13140 H 1259.37 -1.57589 2.52922 0
M  V30 13141 H 1256.91 -0.767883 1.25467 0
M  V30 13142 H 1258.86 -3.86411 1.57296 0
M  V30 13143 H 1257.49 -3.15601 0.677912 0
M  V30 13144 H 1256.55 -2.37774 2.96931 0
M  V30 13145 H 1257.86 -3.28605 3.7526 0
M  V30 13146 H 1257.01 -5.41303 2.74001 0
M  V30 13147 H 1255.75 -4.51155 1.85231 0
M  V30 13148 H 1254.76 -3.74448 4.02578 0
M  V30 13149 H 1255.98 -4.6795 4.92137 0
M  V30 13150 H 1253.93 -5.835 2.99772 0
M  V30 13151 H 1253.84 -5.89938 4.72768 0
M  V30 13152 H 1255.11 -6.75072 3.89741 0
M  V30 13153 N 1259.34 -1.34755 -0.817236 0
M  V30 13154 C 1260.57 -1.30676 -1.61054 0
M  V30 13155 C 1260.99 0.115343 -1.87746 0
M  V30 13156 O 1260.35 1.07887 -1.45705 0
M  V30 13157 C 1260.4 -2.10881 -2.92509 0
M  V30 13158 O 1259.5 -1.48223 -3.84842 0
M  V30 13159 H 1258.84 -0.448531 -0.489608 0
M  V30 13160 H 1261.37 -1.77642 -1.01512 0
M  V30 13161 H 1261.38 -2.22446 -3.42026 0
M  V30 13162 H 1260.06 -3.14274 -2.72406 0
M  V30 13163 H 1258.63 -1.45434 -3.4337 0
M  V30 13164 N 1260.82 1.03812 -1.18578 0
M  V30 13165 C 1262.23 1.58509 -0.986496 0
M  V30 13166 C 1262.58 1.90655 0.463136 0
M  V30 13167 O 1261.71 1.69847 1.34093 0
M  V30 13168 C 1262.3 2.88 -1.78441 0
M  V30 13169 C 1260.86 3.39304 -1.6294 0
M  V30 13170 C 1260.01 2.12857 -1.77727 0
M  V30 13171 H 1262.96 0.864528 -1.33085 0
M  V30 13172 H 1262.98 3.58502 -1.27501 0
M  V30 13173 H 1262.49 2.64572 -2.83942 0
M  V30 13174 H 1260.59 3.6774 -0.599864 0
M  V30 13175 H 1260.71 4.12959 -2.42902 0
M  V30 13176 H 1259.07 2.24285 -1.20699 0
M  V30 13177 H 1259.85 1.91882 -2.84669 0
M  V30 13178 N 1262.3 0.988223 1.22768 0
M  V30 13179 C 1263.25 0.527454 2.26541 0
M  V30 13180 C 1264.24 -0.419506 1.64123 0
M  V30 13181 O 1265.45 -0.292539 1.77607 0
M  V30 13182 H 1261.82 0.152165 0.736444 0
M  V30 13183 H 1263.79 1.41422 2.62759 0
M  V30 13184 C 1262.54 -0.146845 3.4739 0
M  V30 13185 H 1261.86 0.572752 3.95676 0
M  V30 13186 H 1263.3 -0.432768 4.21786 0
M  V30 13187 C 1261.76 -1.38065 3.0731 0
M  V30 13188 O 1262.29 -2.47634 3.16291 0
M  V30 13189 N 1260.5 -1.25418 2.62143 0
M  V30 13190 H 1260.05 -0.362641 2.55035 0
M  V30 13191 H 1260 -2.08077 2.35694 0
M  V30 13192 N 1263.78 -1.38018 0.760839 0
M  V30 13193 C 1264.73 -2.27717 0.113521 0
M  V30 13194 C 1265.71 -1.45562 -0.685613 0
M  V30 13195 O 1266.9 -1.68226 -0.550377 0
M  V30 13196 C 1264.03 -3.34478 -0.77325 0
M  V30 13197 C 1263.12 -4.24087 0.0331238 0
M  V30 13198 N 1263.51 -4.94283 1.07323 0
M  V30 13199 C 1261.81 -4.45584 -0.192565 0
M  V30 13200 C 1262.51 -5.60344 1.56172 0
M  V30 13201 N 1261.48 -5.36499 0.875768 0
M  V30 13202 H 1265.28 -2.79456 0.910021 0
M  V30 13203 H 1262.8 -1.51006 0.597561 0
M  V30 13204 H 1264.8 -3.97635 -1.25268 0
M  V30 13205 H 1263.46 -2.84296 -1.56862 0
M  V30 13206 H 1264.47 -4.97036 1.45517 0
M  V30 13207 H 1261.14 -4.06296 -0.960704 0
M  V30 13208 H 1262.53 -6.26477 2.42851 0
M  V30 13209 N 1265.25 -0.510493 -1.49103 0
M  V30 13210 C 1266.5 0.030689 -2.02777 0
M  V30 13211 C 1266.83 1.35765 -1.38858 0
M  V30 13212 O 1266.11 1.87209 -0.527528 0
M  V30 13213 C 1266.39 0.173261 -3.59683 0
M  V30 13214 C 1266.24 -1.17749 -4.34114 0
M  V30 13215 C 1267.56 0.909395 -4.30602 0
M  V30 13216 H 1264.68 0.0096789 -0.736936 0
M  V30 13217 H 1267.32 -0.663746 -1.78029 0
M  V30 13218 H 1265.47 0.764721 -3.80899 0
M  V30 13219 H 1267.15 -1.80856 -4.24369 0
M  V30 13220 H 1265.39 -1.76438 -3.96298 0
M  V30 13221 H 1266.06 -1.03094 -5.42287 0
M  V30 13222 H 1268.54 0.407677 -4.14098 0
M  V30 13223 H 1267.41 0.978012 -5.40117 0
M  V30 13224 H 1267.67 1.9553 -3.96511 0
M  V30 13225 N 1266.73 1.55688 -0.24474 0
M  V30 13226 C 1267.68 2.21289 0.655723 0
M  V30 13227 C 1268.65 1.17606 1.17295 0
M  V30 13228 O 1269.83 1.46045 1.22782 0
M  V30 13229 C 1266.97 2.91453 1.84794 0
M  V30 13230 C 1266.09 4.09787 1.36744 0
M  V30 13231 C 1265.22 4.67672 2.51905 0
M  V30 13232 C 1264.26 5.78259 2.00706 0
M  V30 13233 N 1263.4 6.30336 3.09225 0
M  V30 13234 H 1268.24 2.97865 0.0896156 0
M  V30 13235 H 1265.77 1.47064 0.0324725 0
M  V30 13236 H 1267.73 3.30331 2.54828 0
M  V30 13237 H 1266.36 2.17355 2.38656 0
M  V30 13238 H 1265.41 3.76237 0.561228 0
M  V30 13239 H 1266.73 4.89627 0.952199 0
M  V30 13240 H 1265.88 5.09113 3.29984 0
M  V30 13241 H 1264.62 3.87044 2.9673 0
M  V30 13242 H 1263.62 5.36298 1.21097 0
M  V30 13243 H 1264.85 6.60737 1.56853 0
M  V30 13244 H 1262.8 5.52614 3.53489 0
M  V30 13245 H 1262.71 7.05364 2.72025 0
M  V30 13246 H 1263.98 6.76435 3.8737 0
M  V30 13247 N 1268.21 -0.0283989 1.57574 0
M  V30 13248 C 1269.46 -0.718121 1.88483 0
M  V30 13249 C 1269.77 -1.76485 0.843345 0
M  V30 13250 O 1270.98 -2.50721 1.04169 0
M  V30 13251 C 1269.43 -1.32832 3.3449 0
M  V30 13252 C 1269.04 -0.317905 4.46871 0
M  V30 13253 C 1270.79 -1.99788 3.74546 0
M  V30 13254 C 1268.69 -0.936489 5.83938 0
M  V30 13255 H 1267.62 -0.271969 0.703242 0
M  V30 13256 H 1270.27 0.0274862 1.83479 0
M  V30 13257 H 1268.66 -2.12366 3.34241 0
M  V30 13258 H 1269.83 0.450767 4.5859 0
M  V30 13259 H 1268.14 0.249605 4.15651 0
M  V30 13260 H 1270.74 -2.46923 4.74271 0
M  V30 13261 H 1271.08 -2.81633 3.06575 0
M  V30 13262 H 1271.62 -1.27029 3.76973 0
M  V30 13263 H 1268.36 -0.15744 6.55311 0
M  V30 13264 H 1267.88 -1.67499 5.75938 0
M  V30 13265 H 1269.56 -1.44363 6.30689 0
M  V30 13266 N 1269.69 -1.54705 -0.300681 0
M  V30 13267 C 1270.92 -1.77993 -1.0548 0
M  V30 13268 C 1271.33 -0.539574 -1.80926 0
M  V30 13269 O 1270.69 0.490597 -1.75782 0
M  V30 13270 C 1270.74 -2.98774 -2.0351 0
M  V30 13271 O 1270.46 -4.18016 -1.31126 0
M  V30 13272 C 1271.96 -3.34452 -2.90958 0
M  V30 13273 H 1269.18 -0.593628 -0.312805 0
M  V30 13274 H 1271.72 -2.01656 -0.339858 0
M  V30 13275 H 1269.88 -2.77318 -2.70506 0
M  V30 13276 H 1270.29 -4.86113 -1.96963 0
M  V30 13277 H 1271.77 -4.22206 -3.55593 0
M  V30 13278 H 1272.24 -2.52622 -3.59275 0
M  V30 13279 H 1272.85 -3.58069 -2.29493 0
M  V30 13280 N 1271.17 0.563888 -1.47167 0
M  V30 13281 C 1272.44 1.32454 -1.43928 0
M  V30 13282 C 1272.82 2.10683 -0.13267 0
M  V30 13283 O 1272.17 2.1063 0.885845 0
M  V30 13284 C 1272.38 2.2347 -2.68071 0
M  V30 13285 C 1273.73 2.84702 -3.15008 0
M  V30 13286 O 1274.75 2.33775 -2.68752 0
M  V30 13287 O 1273.61 3.77251 -3.95404 0
M  V30 13288 H 1270.71 0.596074 -0.573258 0
M  V30 13289 H 1273.25 0.583345 -1.59359 0
M  V30 13290 H 1272.02 1.6522 -3.54708 0
M  V30 13291 H 1271.65 3.04897 -2.55193 0
M  V30 13292 N 1272.64 1.35187 0.810078 0
M  V30 13293 C 1273.89 1.28264 1.56699 0
M  V30 13294 C 1274.22 -0.143906 1.93967 0
M  V30 13295 O 1273.47 -1.10832 1.61291 0
M  V30 13296 C 1273.77 2.13135 2.86894 0
M  V30 13297 C 1273.44 3.61974 2.6886 0
M  V30 13298 C 1272.1 4.02545 2.63649 0
M  V30 13299 C 1274.45 4.5643 2.51636 0
M  V30 13300 C 1271.78 5.35745 2.39154 0
M  V30 13301 C 1274.13 5.89824 2.2867 0
M  V30 13302 C 1272.8 6.29544 2.2188 0
M  V30 13303 H 1272.07 0.469353 0.573401 0
M  V30 13304 H 1274.71 1.67051 0.936282 0
M  V30 13305 H 1273.02 1.67218 3.54324 0
M  V30 13306 H 1274.72 2.05117 3.44569 0
M  V30 13307 H 1271.31 3.29777 2.73761 0
M  V30 13308 H 1275.49 4.25974 2.54677 0
M  V30 13309 H 1270.75 5.65524 2.32363 0
M  V30 13310 H 1274.92 6.62597 2.14333 0
M  V30 13311 H 1272.55 7.32689 2.0266 0
M  V30 13312 N 1274.12 -1.03182 1.19127 0
M  V30 13313 C 1275.37 -1.76184 0.990134 0
M  V30 13314 C 1275.69 -1.88986 -0.480546 0
M  V30 13315 O 1274.96 -1.4213 -1.34817 0
M  V30 13316 H 1273.54 -0.652668 0.363364 0
M  V30 13317 H 1276.2 -1.24481 1.49968 0
M  V30 13318 H 1275.3 -2.77119 1.43568 0
M  V30 13319 N 1275.6 -0.99472 -1.22242 0
M  V30 13320 C 1276.53 -0.566499 -2.26524 0
M  V30 13321 C 1277.51 0.407541 -1.65146 0
M  V30 13322 O 1278.7 0.297777 -1.91903 0
M  V30 13323 C 1275.83 0.11786 -3.471 0
M  V30 13324 C 1274.78 -0.774908 -4.20927 0
M  V30 13325 C 1274.11 0.0424687 -5.34683 0
M  V30 13326 C 1275.41 -2.07263 -4.79416 0
M  V30 13327 H 1277.1 -1.43818 -2.62596 0
M  V30 13328 H 1274.65 -0.692971 -1.2623 0
M  V30 13329 H 1276.6 0.428842 -4.19212 0
M  V30 13330 H 1275.32 1.0241 -3.10129 0
M  V30 13331 H 1273.98 -1.06956 -3.50651 0
M  V30 13332 H 1273.63 0.949677 -4.93954 0
M  V30 13333 H 1273.33 -0.551867 -5.85003 0
M  V30 13334 H 1274.85 0.347504 -6.0961 0
M  V30 13335 H 1276.27 -1.82548 -5.4346 0
M  V30 13336 H 1274.67 -2.61594 -5.40082 0
M  V30 13337 H 1275.74 -2.75017 -3.99366 0
M  V30 13338 N 1277.08 1.37613 -0.768148 0
M  V30 13339 C 1278.04 2.28653 -0.158283 0
M  V30 13340 C 1279.04 1.47862 0.631936 0
M  V30 13341 O 1280.23 1.68124 0.456055 0
M  V30 13342 C 1277.36 3.31776 0.783435 0
M  V30 13343 H 1278.56 2.84094 -0.960772 0
M  V30 13344 H 1276.11 1.46818 -0.536116 0
M  V30 13345 H 1276.84 2.81452 1.61106 0
M  V30 13346 H 1276.63 3.91488 0.219016 0
M  V30 13347 H 1278.12 3.99816 1.20568 0
M  V30 13348 N 1278.56 0.518393 1.4883 0
M  V30 13349 C 1279.97 0.175476 1.58632 0
M  V30 13350 C 1280.17 -1.32081 1.52174 0
M  V30 13351 O 1279.23 -2.09817 1.40474 0
M  V30 13352 C 1280.54 0.767722 2.90734 0
M  V30 13353 C 1282.09 0.735402 3.04238 0
M  V30 13354 C 1282.56 1.30602 4.38984 0
M  V30 13355 N 1284.06 1.26748 4.45521 0
M  V30 13356 C 1284.79 1.679 5.48267 0
M  V30 13357 N 1284.29 2.16728 6.58028 0
M  V30 13358 N 1286.08 1.59209 5.39082 0
M  V30 13359 H 1278.23 1.491 1.51271 0
M  V30 13360 H 1280.49 0.619497 0.717584 0
M  V30 13361 H 1280.2 1.81777 3.01081 0
M  V30 13362 H 1280.07 0.238119 3.76448 0
M  V30 13363 H 1282.46 -0.305852 2.93511 0
M  V30 13364 H 1282.54 1.30235 2.20165 0
M  V30 13365 H 1282.19 2.34614 4.50465 0
M  V30 13366 H 1282.12 0.714858 5.21725 0
M  V30 13367 H 1284.61 0.90991 3.66782 0
M  V30 13368 H 1284.92 2.46154 7.32549 0
M  V30 13369 H 1283.26 2.20714 6.59022 0
M  V30 13370 H 1286.46 1.20869 4.52226 0
M  V30 13371 H 1286.63 1.91602 6.19025 0
M  V30 13372 N 1280.03 -1.55556 0.252993 0
M  V30 13373 C 1280.96 -2.24613 -0.638047 0
M  V30 13374 C 1281.95 -1.22852 -1.1765 0
M  V30 13375 O 1283.13 -1.51519 -1.21472 0
M  V30 13376 C 1280.26 -2.95029 -1.83236 0
M  V30 13377 C 1279.21 -4.03531 -1.42641 0
M  V30 13378 C 1278.54 -4.61404 -2.70204 0
M  V30 13379 C 1279.84 -5.18923 -0.592958 0
M  V30 13380 H 1281.53 -2.99335 -0.0621918 0
M  V30 13381 H 1279.08 -1.43972 -0.0284722 0
M  V30 13382 H 1281.03 -3.42042 -2.46141 0
M  V30 13383 H 1279.76 -2.17805 -2.43369 0
M  V30 13384 H 1278.42 -3.57296 -0.820672 0
M  V30 13385 H 1278.06 -3.80874 -3.28548 0
M  V30 13386 H 1277.76 -5.34652 -2.43764 0
M  V30 13387 H 1279.29 -5.11154 -3.33997 0
M  V30 13388 H 1280.7 -5.62124 -1.12646 0
M  V30 13389 H 1279.1 -5.98598 -0.424358 0
M  V30 13390 H 1280.17 -4.83301 0.393434 0
M  V30 13391 N 1281.51 0.0200419 -1.57587 0
M  V30 13392 C 1282.44 1.01715 -2.10181 0
M  V30 13393 C 1283.42 1.37136 -1.00636 0
M  V30 13394 O 1284.61 1.45862 -1.2821 0
M  V30 13395 C 1281.74 2.31531 -2.58865 0
M  V30 13396 C 1280.69 2.10327 -3.72755 0
M  V30 13397 C 1280.02 3.45981 -4.07678 0
M  V30 13398 C 1281.32 1.4821 -5.0083 0
M  V30 13399 H 1283.01 0.579307 -2.93742 0
M  V30 13400 H 1280.56 0.277211 -1.41307 0
M  V30 13401 H 1282.51 3.01623 -2.94281 0
M  V30 13402 H 1281.24 2.77392 -1.72399 0
M  V30 13403 H 1279.89 1.42665 -3.37701 0
M  V30 13404 H 1279.54 3.89508 -3.18265 0
M  V30 13405 H 1279.24 3.32616 -4.84397 0
M  V30 13406 H 1280.77 4.17421 -4.45637 0
M  V30 13407 H 1282.18 2.08232 -5.34146 0
M  V30 13408 H 1280.58 1.45393 -5.82221 0
M  V30 13409 H 1281.65 0.448942 -4.82817 0
M  V30 13410 N 1282.99 1.54862 0.292472 0
M  V30 13411 C 1283.9 1.89472 1.38339 0
M  V30 13412 C 1284.92 0.789783 1.55043 0
M  V30 13413 O 1286.09 1.08705 1.69544 0
M  V30 13414 C 1283.16 2.14244 2.72581 0
M  V30 13415 C 1282.22 3.37913 2.64789 0
M  V30 13416 C 1281.45 3.61494 3.92629 0
M  V30 13417 O 1281.67 2.87931 4.92394 0
M  V30 13418 O 1280.61 4.55019 3.94007 0
M  V30 13419 H 1284.43 2.82298 1.11989 0
M  V30 13420 H 1282.02 1.41161 0.489291 0
M  V30 13421 H 1283.9 2.31689 3.51991 0
M  V30 13422 H 1282.58 1.24603 2.98757 0
M  V30 13423 H 1281.48 3.25823 1.83821 0
M  V30 13424 H 1282.82 4.27711 2.43565 0
M  V30 13425 N 1284.47 -0.556076 1.47464 0
M  V30 13426 C 1285.72 -1.31061 1.53842 0
M  V30 13427 C 1286.04 -1.93943 0.202806 0
M  V30 13428 O 1285.31 -1.7999 -0.773338 0
M  V30 13429 H 1283.89 -0.486696 0.566689 0
M  V30 13430 H 1286.55 -0.64924 1.83769 0
M  V30 13431 H 1285.65 -2.10354 2.30559 0
M  V30 13432 N 1285.95 -1.35615 -0.802897 0
M  V30 13433 C 1287.22 -1.19655 -1.54732 0
M  V30 13434 C 1287.6 0.222827 -2.09921 0
M  V30 13435 O 1286.95 1.2268 -1.92774 0
M  V30 13436 C 1287.16 -2.26761 -2.65293 0
M  V30 13437 C 1288.51 -2.62754 -3.33535 0
M  V30 13438 O 1289.53 -2.25702 -2.75567 0
M  V30 13439 O 1288.39 -3.26476 -4.38264 0
M  V30 13440 H 1285.49 -0.465079 -0.683835 0
M  V30 13441 H 1288.03 -1.47307 -0.84254 0
M  V30 13442 H 1286.81 -3.21946 -2.22411 0
M  V30 13443 H 1286.43 -2.00399 -3.43404 0
M  V30 13444 N 1287.43 1.02549 -1.19673 0
M  V30 13445 C 1288.34 2.14373 -0.952972 0
M  V30 13446 C 1289.35 1.73776 0.0881727 0
M  V30 13447 O 1290.53 2.01165 -0.0972471 0
M  V30 13448 C 1287.59 3.43096 -0.498569 0
M  V30 13449 C 1286.65 3.97987 -1.60951 0
M  V30 13450 C 1285.89 5.20567 -1.17669 0
M  V30 13451 O 1286.11 5.70385 -0.0416636 0
M  V30 13452 O 1285.04 5.6838 -1.98059 0
M  V30 13453 H 1288.87 2.378 -1.88904 0
M  V30 13454 H 1286.45 1.12781 -0.979836 0
M  V30 13455 H 1288.34 4.20634 -0.253968 0
M  V30 13456 H 1287.01 3.21105 0.409018 0
M  V30 13457 H 1285.92 3.21768 -1.90829 0
M  V30 13458 H 1287.25 4.24349 -2.49377 0
M  V30 13459 N 1288.9 1.00119 1.21713 0
M  V30 13460 C 1289.85 0.558388 2.23943 0
M  V30 13461 C 1290.82 -0.413576 1.60869 0
M  V30 13462 O 1292.01 -0.316478 1.88157 0
M  V30 13463 C 1289.15 -0.112618 3.44916 0
M  V30 13464 C 1288.26 0.902071 4.22477 0
M  V30 13465 C 1287.39 0.203722 5.30809 0
M  V30 13466 C 1286.43 1.20622 6.00097 0
M  V30 13467 N 1285.57 0.535607 7.00054 0
M  V30 13468 H 1290.41 1.43486 2.61182 0
M  V30 13469 H 1287.95 0.718572 1.28355 0
M  V30 13470 H 1289.9 -0.51865 4.13964 0
M  V30 13471 H 1288.53 -0.952827 3.08417 0
M  V30 13472 H 1287.59 1.42637 3.52645 0
M  V30 13473 H 1288.9 1.66513 4.70186 0
M  V30 13474 H 1288.05 -0.258614 6.06149 0
M  V30 13475 H 1286.79 -0.591773 4.84096 0
M  V30 13476 H 1285.8 1.6791 5.23532 0
M  V30 13477 H 1287.02 2.00273 6.48897 0
M  V30 13478 H 1284.97 -0.2403 6.5556 0
M  V30 13479 H 1284.88 1.23698 7.45812 0
M  V30 13480 H 1286.15 0.0963489 7.7944 0
M  V30 13481 N 1290.38 -1.37203 0.775435 0
M  V30 13482 C 1291.29 -2.34019 0.165062 0
M  V30 13483 C 1292.31 -1.6036 -0.675316 0
M  V30 13484 O 1293.48 -1.9243 -0.594375 0
M  V30 13485 C 1290.55 -3.3954 -0.700957 0
M  V30 13486 C 1289.61 -4.29015 0.156304 0
M  V30 13487 C 1288.84 -5.29497 -0.668476 0
M  V30 13488 O 1289.07 -5.37636 -1.90535 0
M  V30 13489 O 1288 -6.01852 -0.0757351 0
M  V30 13490 H 1291.83 -2.87955 0.965184 0
M  V30 13491 H 1289.41 -1.39429 0.536654 0
M  V30 13492 H 1291.29 -4.04094 -1.19524 0
M  V30 13493 H 1289.97 -2.87926 -1.4792 0
M  V30 13494 H 1288.87 -3.67549 0.69703 0
M  V30 13495 H 1290.21 -4.83944 0.897725 0
M  V30 13496 N 1291.86 -0.526279 -1.48553 0
M  V30 13497 C 1293.09 0.00522012 -2.06599 0
M  V30 13498 C 1293.5 1.29039 -1.38368 0
M  V30 13499 O 1292.84 1.77747 -0.463854 0
M  V30 13500 C 1292.9 0.303512 -3.58216 0
M  V30 13501 C 1292.57 -0.887635 -4.48297 0
M  V30 13502 C 1293.56 -1.78504 -4.88295 0
M  V30 13503 C 1291.25 -1.09359 -4.90251 0
M  V30 13504 C 1293.24 -2.87233 -5.69013 0
M  V30 13505 C 1290.93 -2.18402 -5.7074 0
M  V30 13506 C 1291.93 -3.07172 -6.10028 0
M  V30 13507 O 1291.62 -4.14329 -6.88902 0
M  V30 13508 H 1291.35 -0.0287033 -0.67539 0
M  V30 13509 H 1293.9 -0.730244 -1.91981 0
M  V30 13510 H 1292.13 1.0929 -3.70935 0
M  V30 13511 H 1293.82 0.776647 -3.98401 0
M  V30 13512 H 1294.59 -1.63785 -4.56508 0
M  V30 13513 H 1290.47 -0.411922 -4.59156 0
M  V30 13514 H 1294.01 -3.56549 -5.99599 0
M  V30 13515 H 1289.91 -2.33106 -6.0194 0
M  V30 13516 H 1290.67 -4.11993 -7.07251 0
M  V30 13517 N 1293.34 1.5542 -0.261239 0
M  V30 13518 C 1294.29 2.23382 0.648324 0
M  V30 13519 C 1295.28 1.22615 1.16884 0
M  V30 13520 O 1296.49 1.40587 1.12407 0
M  V30 13521 H 1292.86 0.716733 0.227592 0
M  V30 13522 H 1294.83 2.98354 0.0521289 0
M  V30 13523 C 1293.58 2.9579 1.82766 0
M  V30 13524 H 1292.9 3.73109 1.4363 0
M  V30 13525 H 1294.34 3.46686 2.441 0
M  V30 13526 C 1292.8 2.00472 2.70763 0
M  V30 13527 O 1293.33 1.54698 3.70717 0
M  V30 13528 N 1291.54 1.67267 2.37635 0
M  V30 13529 H 1291.09 2.04685 1.56402 0
M  V30 13530 H 1291.04 1.03759 2.96785 0
M  V30 13531 N 1294.82 -0.0116844 1.57596 0
M  V30 13532 C 1295.78 -0.991601 2.0664 0
M  V30 13533 C 1296.78 -1.27973 0.973629 0
M  V30 13534 O 1297.97 -1.22686 1.23668 0
M  V30 13535 C 1295.1 -2.31975 2.49801 0
M  V30 13536 H 1296.29 -0.567607 2.9448 0
M  V30 13537 H 1293.85 -0.258906 1.54141 0
M  V30 13538 H 1294.58 -2.79087 1.65169 0
M  V30 13539 H 1294.37 -2.12386 3.29598 0
M  V30 13540 H 1295.86 -3.02294 2.88112 0
M  V30 13541 N 1296.29 -1.55015 -0.284256 0
M  V30 13542 C 1297.57 -1.6579 -1.03794 0
M  V30 13543 C 1297.95 -0.517029 -2.04671 0
M  V30 13544 O 1297.3 0.484287 -2.23309 0
M  V30 13545 C 1297.51 -3.04527 -1.70483 0
M  V30 13546 C 1298.86 -3.61903 -2.22062 0
M  V30 13547 O 1299.88 -3.07087 -1.80488 0
M  V30 13548 O 1298.74 -4.57917 -2.98286 0
M  V30 13549 H 1295.83 -0.672906 -0.480757 0
M  V30 13550 H 1298.38 -1.67357 -0.281009 0
M  V30 13551 H 1297.15 -3.79004 -0.973238 0
M  V30 13552 H 1296.77 -3.0681 -2.5289 0
M  V30 13553 N 1297.77 0.548248 -1.47757 0
M  V30 13554 C 1299.02 1.30243 -1.54535 0
M  V30 13555 C 1299.34 1.93832 -0.213089 0
M  V30 13556 O 1298.61 1.80397 0.763782 0
M  V30 13557 H 1297.19 0.483684 -0.569262 0
M  V30 13558 H 1299.85 0.639485 -1.8411 0
M  V30 13559 H 1298.95 2.09128 -2.31672 0
M  V30 13560 N 1299.25 1.36039 0.795694 0
M  V30 13561 C 1300.5 1.29663 1.55023 0
M  V30 13562 C 1300.82 -0.125588 1.94595 0
M  V30 13563 O 1300.09 -1.06447 1.64456 0
M  V30 13564 H 1298.67 0.476962 0.574906 0
M  V30 13565 H 1301.33 1.70265 0.948471 0
M  V30 13566 H 1300.43 1.91982 2.46068 0
M  V30 13567 N 1300.73 -1.01913 1.20215 0
M  V30 13568 C 1301.68 -2.104 0.948708 0
M  V30 13569 C 1302.65 -1.65665 -0.120139 0
M  V30 13570 O 1303.83 -1.90785 0.0240547 0
M  V30 13571 C 1300.97 -3.41398 0.504132 0
M  V30 13572 C 1300.08 -3.99625 1.64085 0
M  V30 13573 C 1299.22 -5.18673 1.14683 0
M  V30 13574 C 1298.26 -5.68977 2.2568 0
M  V30 13575 N 1297.39 -6.79289 1.77514 0
M  V30 13576 H 1302.23 -2.31415 1.87753 0
M  V30 13577 H 1299.77 -1.13487 0.935901 0
M  V30 13578 H 1301.73 -4.16578 0.22771 0
M  V30 13579 H 1300.36 -3.20463 -0.387689 0
M  V30 13580 H 1299.41 -3.21565 2.03225 0
M  V30 13581 H 1300.72 -4.32965 2.47674 0
M  V30 13582 H 1299.88 -6.01048 0.826223 0
M  V30 13583 H 1298.62 -4.86891 0.280797 0
M  V30 13584 H 1297.62 -4.85208 2.5856 0
M  V30 13585 H 1298.85 -6.02794 3.12755 0
M  V30 13586 H 1296.79 -6.49341 0.932338 0
M  V30 13587 H 1296.71 -7.11808 2.54686 0
M  V30 13588 H 1297.98 -7.65235 1.48446 0
M  V30 13589 N 1302.21 -1.00763 -1.2118 0
M  V30 13590 C 1303.14 -0.515053 -2.22312 0
M  V30 13591 C 1304.12 0.432665 -1.56738 0
M  V30 13592 O 1305.3 0.35477 -1.85131 0
M  V30 13593 C 1302.43 0.251544 -3.37765 0
M  V30 13594 C 1301.47 -0.64437 -4.21604 0
M  V30 13595 S 1302.31 -2.10832 -4.9225 0
M  V30 13596 C 1303.46 -1.35163 -6.11132 0
M  V30 13597 H 1303.7 -1.37198 -2.6375 0
M  V30 13598 H 1301.23 -0.815783 -1.31089 0
M  V30 13599 H 1303.19 0.687761 -4.04698 0
M  V30 13600 H 1301.85 1.08393 -2.94805 0
M  V30 13601 H 1301.04 -0.0537452 -5.03971 0
M  V30 13602 H 1300.64 -1.01798 -3.5988 0
M  V30 13603 H 1302.94 -0.6269 -6.74593 0
M  V30 13604 H 1303.88 -2.15111 -6.74635 0
M  V30 13605 H 1304.29 -0.858444 -5.57935 0
M  V30 13606 N 1303.68 1.3679 -0.7827 0
M  V30 13607 C 1305.1 1.82006 -0.41603 0
M  V30 13608 C 1305.45 1.65151 1.05922 0
M  V30 13609 O 1304.57 1.1687 1.82127 0
M  V30 13610 C 1305.17 3.30432 -0.748353 0
M  V30 13611 C 1303.73 3.73883 -0.4346 0
M  V30 13612 C 1302.87 2.59159 -0.986505 0
M  V30 13613 H 1305.82 1.25107 -0.976423 0
M  V30 13614 H 1305.84 3.80482 -0.036985 0
M  V30 13615 H 1305.36 3.42667 -1.82212 0
M  V30 13616 H 1303.46 3.67211 0.631401 0
M  V30 13617 H 1303.57 4.69577 -0.950511 0
M  V30 13618 H 1301.93 2.51377 -0.410108 0
M  V30 13619 H 1302.72 2.74182 -2.06589 0
M  V30 13620 N 1305.16 0.53415 1.48272 0
M  V30 13621 C 1306.41 -0.000450626 2.017 0
M  V30 13622 C 1306.72 -1.34926 1.41613 0
M  V30 13623 O 1307.93 -1.97246 1.86564 0
M  V30 13624 C 1306.39 -0.0511883 3.59864 0
M  V30 13625 C 1305.99 1.29298 4.28936 0
M  V30 13626 C 1307.74 -0.534397 4.21123 0
M  V30 13627 C 1305.65 1.2026 5.79044 0
M  V30 13628 H 1304.58 -0.00393844 0.75399 0
M  V30 13629 H 1307.23 0.678554 1.70493 0
M  V30 13630 H 1305.61 -0.795358 3.8793 0
M  V30 13631 H 1306.78 2.05305 4.12537 0
M  V30 13632 H 1305.1 1.71226 3.79566 0
M  V30 13633 H 1307.69 -0.620048 5.31093 0
M  V30 13634 H 1308.04 -1.54114 3.86723 0
M  V30 13635 H 1308.57 0.154215 3.97501 0
M  V30 13636 H 1305.31 2.18463 6.18025 0
M  V30 13637 H 1304.83 0.483971 5.97844 0
M  V30 13638 H 1306.51 0.895005 6.4078 0
M  V30 13639 N 1306.64 -1.55279 0.269478 0
M  V30 13640 C 1307.59 -2.22304 -0.620435 0
M  V30 13641 C 1308.56 -1.19457 -1.15409 0
M  V30 13642 O 1309.74 -1.4798 -1.20443 0
M  V30 13643 C 1306.88 -2.94356 -1.80134 0
M  V30 13644 C 1306 -4.1191 -1.30207 0
M  V30 13645 C 1305.13 -4.71621 -2.44433 0
M  V30 13646 C 1304.17 -5.81379 -1.91481 0
M  V30 13647 N 1303.31 -6.35176 -2.99158 0
M  V30 13648 H 1308.15 -2.9797 -0.0422165 0
M  V30 13649 H 1305.68 -1.47097 -0.00907173 0
M  V30 13650 H 1307.64 -3.34343 -2.4954 0
M  V30 13651 H 1306.27 -2.21124 -2.35168 0
M  V30 13652 H 1305.32 -3.77082 -0.501301 0
M  V30 13653 H 1306.64 -4.9108 -0.874183 0
M  V30 13654 H 1305.79 -5.14298 -3.21842 0
M  V30 13655 H 1304.53 -3.91715 -2.90535 0
M  V30 13656 H 1303.53 -5.38157 -1.12549 0
M  V30 13657 H 1304.76 -6.63149 -1.46322 0
M  V30 13658 H 1302.7 -5.58167 -3.44652 0
M  V30 13659 H 1302.62 -7.09602 -2.60769 0
M  V30 13660 H 1303.89 -6.82512 -3.7656 0
M  V30 13661 N 1308.12 0.00332656 -1.576 0
M  V30 13662 C 1309.36 0.684275 -1.91544 0
M  V30 13663 C 1309.72 1.71565 -0.870814 0
M  V30 13664 O 1309.01 1.9124 0.117405 0
M  V30 13665 C 1309.21 1.37237 -3.30001 0
M  V30 13666 C 1309.04 0.409158 -4.47835 0
M  V30 13667 C 1307.81 0.0207716 -5.05296 0
M  V30 13668 C 1310 -0.323226 -5.13283 0
M  V30 13669 N 1307.99 -0.941002 -6.06645 0
M  V30 13670 C 1309.36 -1.13979 -6.09433 0
M  V30 13671 C 1311.41 -0.387419 -4.9639 0
M  V30 13672 C 1310.11 -2.0147 -6.90509 0
M  V30 13673 C 1312.14 -1.24954 -5.78049 0
M  V30 13674 C 1311.5 -2.05396 -6.73789 0
M  V30 13675 H 1307.6 0.223698 -0.749322 0
M  V30 13676 H 1310.19 -0.0562395 -1.94619 0
M  V30 13677 H 1308.36 2.0832 -3.27807 0
M  V30 13678 H 1310.09 2.00775 -3.51385 0
M  V30 13679 H 1306.84 0.38844 -4.72004 0
M  V30 13680 H 1307.27 -1.41716 -6.62001 0
M  V30 13681 H 1311.91 0.220225 -4.22226 0
M  V30 13682 H 1309.63 -2.63303 -7.64001 0
M  V30 13683 H 1313.21 -1.30308 -5.6702 0
M  V30 13684 H 1312.09 -2.71028 -7.35876 0
M  V30 13685 N 1309.6 1.55164 0.276031 0
M  V30 13686 C 1310.53 1.82758 1.36656 0
M  V30 13687 C 1311.51 0.680405 1.4768 0
M  V30 13688 O 1312.69 0.923078 1.64352 0
M  V30 13689 C 1309.82 1.98651 2.74328 0
M  V30 13690 C 1308.86 3.21192 2.80603 0
M  V30 13691 S 1309.7 4.78628 2.40156 0
M  V30 13692 C 1310.85 4.9749 3.79809 0
M  V30 13693 H 1311.09 2.74969 1.13045 0
M  V30 13694 H 1308.62 1.46896 0.4755 0
M  V30 13695 H 1310.58 2.08492 3.53612 0
M  V30 13696 H 1309.24 1.07333 2.95192 0
M  V30 13697 H 1308.43 3.29189 3.81642 0
M  V30 13698 H 1308.03 3.09926 2.09337 0
M  V30 13699 H 1310.33 4.83045 4.75051 0
M  V30 13700 H 1311.27 5.99544 3.76765 0
M  V30 13701 H 1311.68 4.25489 3.70971 0
M  V30 13702 N 1311.07 -0.540404 1.48045 0
M  V30 13703 C 1312.04 -1.62813 1.61322 0
M  V30 13704 C 1313.04 -1.53243 0.487161 0
M  V30 13705 O 1314.23 -1.571 0.752684 0
M  V30 13706 C 1311.36 -3.02408 1.5736 0
M  V30 13707 H 1312.55 -1.52385 2.583 0
M  V30 13708 H 1310.11 -0.761654 1.36486 0
M  V30 13709 H 1310.84 -3.18353 0.618195 0
M  V30 13710 H 1310.63 -3.10763 2.39099 0
M  V30 13711 H 1312.12 -3.8151 1.69822 0
M  V30 13712 N 1312.55 -1.36459 -0.788468 0
M  V30 13713 C 1313.48 -1.33545 -1.91541 0
M  V30 13714 C 1314.46 -0.206762 -1.68839 0
M  V30 13715 O 1315.65 -0.404553 -1.89939 0
M  V30 13716 C 1312.78 -1.12492 -3.28577 0
M  V30 13717 C 1311.73 -2.22196 -3.65805 0
M  V30 13718 C 1311.06 -1.86285 -5.01201 0
M  V30 13719 C 1312.36 -3.64286 -3.7429 0
M  V30 13720 H 1314.05 -2.27844 -1.94236 0
M  V30 13721 H 1311.6 -1.09677 -0.933105 0
M  V30 13722 H 1313.55 -1.09089 -4.07035 0
M  V30 13723 H 1312.28 -0.146446 -3.26272 0
M  V30 13724 H 1310.93 -2.24727 -2.89644 0
M  V30 13725 H 1310.58 -0.87009 -4.95417 0
M  V30 13726 H 1310.28 -2.59734 -5.27079 0
M  V30 13727 H 1311.81 -1.84439 -5.82078 0
M  V30 13728 H 1313.22 -3.63977 -4.42937 0
M  V30 13729 H 1311.62 -4.36648 -4.11653 0
M  V30 13730 H 1312.69 -3.99123 -2.75371 0
M  V30 13731 N 1314.03 1.01274 -1.20754 0
M  V30 13732 C 1314.94 2.1335 -0.975656 0
M  V30 13733 C 1315.96 1.7386 0.0697364 0
M  V30 13734 O 1317.13 2.01051 -0.118578 0
M  V30 13735 C 1314.2 3.42548 -0.534931 0
M  V30 13736 C 1313.26 3.96257 -1.65163 0
M  V30 13737 C 1312.49 5.19289 -1.23184 0
M  V30 13738 O 1312.71 5.70309 -0.102158 0
M  V30 13739 O 1311.65 5.66248 -2.04076 0
M  V30 13740 H 1315.47 2.35783 -1.91415 0
M  V30 13741 H 1313.06 1.11736 -0.991743 0
M  V30 13742 H 1314.94 4.20341 -0.298568 0
M  V30 13743 H 1313.62 3.21521 0.374937 0
M  V30 13744 H 1312.52 3.19726 -1.94232 0
M  V30 13745 H 1313.86 4.2168 -2.53864 0
M  V30 13746 N 1315.51 1.01404 1.20644 0
M  V30 13747 C 1316.75 0.710412 1.91657 0
M  V30 13748 C 1317.11 -0.745972 1.76916 0
M  V30 13749 O 1318.31 -1.162 2.42386 0
M  V30 13750 C 1316.59 1.13093 3.39035 0
M  V30 13751 S 1318.14 0.948885 4.28418 0
M  V30 13752 H 1314.96 0.259074 0.662119 0
M  V30 13753 H 1317.56 1.30077 1.45946 0
M  V30 13754 H 1316.27 2.18682 3.47284 0
M  V30 13755 H 1315.8 0.533248 3.89769 0
M  V30 13756 H 1317.81 -0.149 4.95976 0
M  V30 13757 N 1316.99 -1.36373 0.789944 0
M  V30 13758 C 1318.24 -1.98476 0.359165 0
M  V30 13759 C 1318.55 -1.634 -1.07517 0
M  V30 13760 O 1319.76 -2.18742 -1.60824 0
M  V30 13761 C 1318.21 -3.55011 0.591228 0
M  V30 13762 C 1317.82 -3.99011 2.03701 0
M  V30 13763 C 1319.56 -4.23903 0.224979 0
M  V30 13764 C 1317.47 -5.48325 2.2157 0
M  V30 13765 H 1316.4 -0.742612 0.130552 0
M  V30 13766 H 1319.05 -1.55664 0.971652 0
M  V30 13767 H 1317.43 -3.95895 -0.0909788 0
M  V30 13768 H 1318.61 -3.69324 2.75566 0
M  V30 13769 H 1316.92 -3.42957 2.36155 0
M  V30 13770 H 1319.52 -5.33638 0.336764 0
M  V30 13771 H 1319.86 -4.08004 -0.826964 0
M  V30 13772 H 1320.4 -3.88383 0.860443 0
M  V30 13773 H 1317.13 -5.69173 3.25149 0
M  V30 13774 H 1316.65 -5.79637 1.54211 0
M  V30 13775 H 1318.33 -6.14556 2.0231 0
M  V30 13776 N 1318.47 -0.542005 -1.47987 0
M  V30 13777 C 1319.42 0.234244 -2.26794 0
M  V30 13778 C 1320.4 0.899085 -1.33436 0
M  V30 13779 O 1321.59 0.799904 -1.57894 0
M  V30 13780 C 1318.72 1.27312 -3.18821 0
M  V30 13781 C 1317.81 0.612457 -4.19654 0
M  V30 13782 N 1318.2 -0.30875 -5.04857 0
M  V30 13783 C 1316.5 0.868224 -4.37468 0
M  V30 13784 C 1317.2 -0.691052 -5.77581 0
M  V30 13785 N 1316.17 -0.0493574 -5.43578 0
M  V30 13786 H 1319.97 -0.47427 -2.90048 0
M  V30 13787 H 1317.49 -0.360868 -1.5834 0
M  V30 13788 H 1319.49 1.84305 -3.73948 0
M  V30 13789 H 1318.15 1.98288 -2.57122 0
M  V30 13790 H 1319.16 -0.682054 -5.13389 0
M  V30 13791 H 1315.83 1.56765 -3.86951 0
M  V30 13792 H 1317.22 -1.44713 -6.56131 0
M  V30 13793 N 1319.94 1.55134 -0.277709 0
M  V30 13794 C 1321.17 2.03765 0.341106 0
M  V30 13795 C 1321.58 1.15543 1.49822 0
M  V30 13796 O 1320.92 0.168642 1.82924 0
M  V30 13797 C 1320.99 3.48513 0.881974 0
M  V30 13798 C 1320.65 4.56764 -0.146837 0
M  V30 13799 C 1321.65 5.10823 -0.967252 0
M  V30 13800 C 1319.33 5.01509 -0.281824 0
M  V30 13801 C 1321.33 6.08147 -1.90882 0
M  V30 13802 C 1319.01 5.98658 -1.22686 0
M  V30 13803 C 1320.01 6.51859 -2.03886 0
M  V30 13804 O 1319.7 7.47108 -2.96791 0
M  V30 13805 H 1319.43 0.671068 0.0815052 0
M  V30 13806 H 1321.99 2.013 -0.408341 0
M  V30 13807 H 1320.22 3.48226 1.68154 0
M  V30 13808 H 1321.9 3.80469 1.41416 0
M  V30 13809 H 1322.67 4.77065 -0.873714 0
M  V30 13810 H 1318.55 4.59743 0.340203 0
M  V30 13811 H 1322.09 6.49597 -2.54301 0
M  V30 13812 H 1317.99 6.31834 -1.32121 0
M  V30 13813 H 1318.76 7.64832 -2.91502 0
M  V30 13814 N 1321.42 0.00503138 1.57599 0
M  V30 13815 C 1322.84 -0.351109 1.5569 0
M  V30 13816 C 1323.04 -1.74465 1.00818 0
M  V30 13817 O 1322.09 -2.44144 0.64422 0
M  V30 13818 C 1323.41 -0.221738 2.99881 0
M  V30 13819 C 1324.95 -0.296303 3.11594 0
M  V30 13820 C 1325.43 -0.195998 4.5758 0
M  V30 13821 N 1326.92 -0.253741 4.62504 0
M  V30 13822 C 1327.66 -0.199546 5.73053 0
M  V30 13823 N 1327.15 -0.0956553 6.92734 0
M  V30 13824 N 1328.94 -0.251779 5.61536 0
M  V30 13825 H 1321.1 0.916578 1.91605 0
M  V30 13826 H 1323.36 0.351802 0.880306 0
M  V30 13827 H 1323.06 0.737255 3.43886 0
M  V30 13828 H 1322.94 -1.00178 3.63654 0
M  V30 13829 H 1325.33 -1.24574 2.67517 0
M  V30 13830 H 1325.41 0.513692 2.50589 0
M  V30 13831 H 1325.05 0.749918 5.02333 0
M  V30 13832 H 1324.98 -1.02455 5.16537 0
M  V30 13833 H 1327.47 -0.335163 3.76411 0
M  V30 13834 H 1327.78 -0.0603357 7.72776 0
M  V30 13835 H 1326.13 -0.0612113 6.94973 0
M  V30 13836 H 1329.32 -0.331173 4.66927 0
M  V30 13837 H 1329.49 -0.206078 6.47672 0
M  V30 13838 N 1322.9 -1.55308 -0.267798 0
M  V30 13839 C 1323.85 -1.88544 -1.33115 0
M  V30 13840 C 1324.82 -0.737465 -1.48831 0
M  V30 13841 O 1326 -0.989215 -1.63154 0
M  V30 13842 C 1323.14 -2.1674 -2.68547 0
M  V30 13843 C 1322.25 -3.44234 -2.61011 0
M  V30 13844 C 1321.39 -3.62104 -3.88657 0
M  V30 13845 C 1320.43 -4.83272 -3.75652 0
M  V30 13846 N 1319.57 -4.97772 -4.95144 0
M  V30 13847 H 1324.41 -2.79237 -1.04071 0
M  V30 13848 H 1321.94 -1.38245 -0.502677 0
M  V30 13849 H 1323.9 -2.31088 -3.47353 0
M  V30 13850 H 1322.53 -1.29276 -2.95783 0
M  V30 13851 H 1321.58 -3.3833 -1.73887 0
M  V30 13852 H 1322.89 -4.33177 -2.47303 0
M  V30 13853 H 1322.05 -3.76298 -4.75904 0
M  V30 13854 H 1320.79 -2.71356 -4.05238 0
M  V30 13855 H 1319.79 -4.69076 -2.86788 0
M  V30 13856 H 1321.02 -5.75461 -3.60585 0
M  V30 13857 H 1318.96 -4.09956 -5.12125 0
M  V30 13858 H 1318.88 -5.80769 -4.83987 0
M  V30 13859 H 1320.15 -5.16357 -5.83949 0
M  V30 13860 N 1324.38 0.532545 -1.4833 0
M  V30 13861 C 1325.62 1.28851 -1.56217 0
M  V30 13862 C 1325.95 1.93076 -0.234967 0
M  V30 13863 O 1325.21 1.79722 0.774508 0
M  V30 13864 C 1325.51 2.40117 -2.64724 0
M  V30 13865 C 1325.17 1.93562 -4.0724 0
M  V30 13866 C 1323.83 1.80583 -4.46031 0
M  V30 13867 C 1326.19 1.58349 -4.96563 0
M  V30 13868 C 1323.51 1.30722 -5.71952 0
M  V30 13869 C 1325.87 1.09951 -6.22972 0
M  V30 13870 C 1324.53 0.955866 -6.60621 0
M  V30 13871 H 1323.8 0.4715 -0.571637 0
M  V30 13872 H 1326.45 0.594564 -1.82036 0
M  V30 13873 H 1324.75 3.15171 -2.32754 0
M  V30 13874 H 1326.45 2.98252 -2.68042 0
M  V30 13875 H 1323.04 2.04614 -3.76605 0
M  V30 13876 H 1327.22 1.67237 -4.67274 0
M  V30 13877 H 1322.48 1.18286 -5.99849 0
M  V30 13878 H 1326.65 0.817736 -6.91582 0
M  V30 13879 H 1324.28 0.567302 -7.5808 0
M  V30 13880 N 1325.86 1.36875 0.78122 0
M  V30 13881 C 1327.08 1.34732 1.57019 0
M  V30 13882 C 1327.5 -0.0695423 1.88672 0
M  V30 13883 O 1326.86 -1.02873 1.50743 0
M  V30 13884 C 1326.91 2.17668 2.88623 0
M  V30 13885 O 1326.63 3.53832 2.5833 0
M  V30 13886 C 1328.13 2.23398 3.82895 0
M  V30 13887 H 1325.35 0.461857 0.486754 0
M  V30 13888 H 1327.89 1.80086 0.968989 0
M  V30 13889 H 1326.05 1.75848 3.4519 0
M  V30 13890 H 1326.46 3.972 3.42538 0
M  V30 13891 H 1327.94 2.85769 4.72271 0
M  V30 13892 H 1328.41 1.23972 4.2134 0
M  V30 13893 H 1329.02 2.65489 3.32258 0
M  V30 13894 N 1327.33 -1.00632 1.21289 0
M  V30 13895 C 1328.28 -2.07791 0.938459 0
M  V30 13896 C 1329.27 -1.60552 -0.105773 0
M  V30 13897 O 1330.46 -1.767 0.102981 0
M  V30 13898 C 1327.59 -3.39587 0.503563 0
M  V30 13899 C 1326.67 -3.93497 1.58179 0
M  V30 13900 N 1327.07 -4.20792 2.80656 0
M  V30 13901 C 1325.36 -4.21759 1.45035 0
M  V30 13902 C 1326.06 -4.64411 3.50281 0
M  V30 13903 N 1325.04 -4.67305 2.77717 0
M  V30 13904 H 1328.84 -2.26816 1.869 0
M  V30 13905 H 1326.36 -1.18692 1.10842 0
M  V30 13906 H 1328.35 -4.15902 0.288323 0
M  V30 13907 H 1327.01 -3.21969 -0.420233 0
M  V30 13908 H 1328.02 -4.09386 3.17212 0
M  V30 13909 H 1324.7 -4.13285 0.591745 0
M  V30 13910 H 1326.09 -4.94263 4.55141 0
M  V30 13911 N 1328.81 -1.02043 -1.20104 0
M  V30 13912 C 1329.74 -0.552093 -2.22451 0
M  V30 13913 C 1330.76 0.367547 -1.58597 0
M  V30 13914 O 1331.95 0.165285 -1.77733 0
M  V30 13915 C 1329.05 0.215833 -3.38212 0
M  V30 13916 C 1328.22 -0.70666 -4.31654 0
M  V30 13917 C 1327.28 0.0143628 -5.26198 0
M  V30 13918 O 1326.3 -0.609413 -5.65928 0
M  V30 13919 N 1327.51 1.28794 -5.66032 0
M  V30 13920 H 1330.27 -1.43229 -2.6326 0
M  V30 13921 H 1327.83 -0.89842 -1.34685 0
M  V30 13922 H 1329.82 0.707523 -3.98467 0
M  V30 13923 H 1328.39 0.997358 -2.96263 0
M  V30 13924 H 1327.61 -1.37859 -3.69308 0
M  V30 13925 H 1328.9 -1.33392 -4.91003 0
M  V30 13926 H 1328.3 1.8156 -5.35773 0
M  V30 13927 H 1326.86 1.72429 -6.28579 0
M  V30 13928 N 1330.29 1.35952 -0.797165 0
M  V30 13929 C 1331.52 2.0381 -0.38421 0
M  V30 13930 C 1331.94 1.597 0.993854 0
M  V30 13931 O 1331.3 0.769148 1.64176 0
M  V30 13932 C 1331.35 3.57589 -0.465054 0
M  V30 13933 O 1330.45 4.09043 0.525095 0
M  V30 13934 H 1329.79 0.643957 -0.161912 0
M  V30 13935 H 1332.32 1.73746 -1.08043 0
M  V30 13936 H 1332.33 4.06651 -0.331448 0
M  V30 13937 H 1331.01 3.89045 -1.47027 0
M  V30 13938 H 1329.58 3.7123 0.352509 0
M  V30 13939 N 1331.77 0.549846 1.47697 0
M  V30 13940 C 1333.05 -0.0422793 1.95554 0
M  V30 13941 C 1333.43 -1.49303 1.49238 0
M  V30 13942 O 1332.77 -2.16598 0.727844 0
M  V30 13943 C 1332.98 0.0955552 3.48869 0
M  V30 13944 C 1334.33 -0.0535698 4.24566 0
M  V30 13945 O 1335.36 0.0227365 3.56193 0
M  V30 13946 O 1334.21 -0.21645 5.46071 0
M  V30 13947 H 1331.31 -0.0682465 0.824179 0
M  V30 13948 H 1333.85 0.615849 1.58131 0
M  V30 13949 H 1332.63 1.10536 3.75363 0
M  V30 13950 H 1332.25 -0.600522 3.93039 0
M  V30 13951 N 1333.25 -1.54984 0.285932 0
M  V30 13952 C 1334.49 -2.00126 -0.328223 0
M  V30 13953 C 1334.83 -1.17409 -1.54689 0
M  V30 13954 O 1334.1 -0.246806 -1.92928 0
M  V30 13955 C 1334.38 -3.53236 -0.699733 0
M  V30 13956 C 1334.24 -4.46702 0.527029 0
M  V30 13957 C 1335.56 -4.12572 -1.53206 0
M  V30 13958 H 1332.67 -0.727521 -0.117825 0
M  V30 13959 H 1335.32 -1.85848 0.395032 0
M  V30 13960 H 1333.47 -3.65534 -1.31594 0
M  V30 13961 H 1335.14 -4.46332 1.16557 0
M  V30 13962 H 1333.38 -4.17917 1.1631 0
M  V30 13963 H 1334.05 -5.51549 0.223165 0
M  V30 13964 H 1336.53 -4.03618 -1.01154 0
M  V30 13965 H 1335.4 -5.19891 -1.7608 0
M  V30 13966 H 1335.67 -3.63487 -2.51654 0
M  V30 13967 N 1334.72 -0.0133892 -1.57594 0
M  V30 13968 C 1335.97 0.66392 -1.92259 0
M  V30 13969 C 1336.33 1.70632 -0.888962 0
M  V30 13970 O 1335.62 1.91354 0.0971147 0
M  V30 13971 C 1335.81 1.33729 -3.31438 0
M  V30 13972 C 1335.64 0.361637 -4.48244 0
M  V30 13973 C 1334.41 -0.0328229 -5.05289 0
M  V30 13974 C 1336.61 -0.377649 -5.12912 0
M  V30 13975 N 1334.59 -1.00529 -6.05613 0
M  V30 13976 C 1335.96 -1.20437 -6.0819 0
M  V30 13977 C 1338.02 -0.440046 -4.95952 0
M  V30 13978 C 1336.72 -2.08782 -6.88333 0
M  V30 13979 C 1338.75 -1.31078 -5.76691 0
M  V30 13980 C 1338.11 -2.12531 -6.71573 0
M  V30 13981 H 1334.21 0.215737 -0.751652 0
M  V30 13982 H 1336.79 -0.0768783 -1.94548 0
M  V30 13983 H 1334.96 2.04831 -3.29998 0
M  V30 13984 H 1336.69 1.97037 -3.53495 0
M  V30 13985 H 1333.45 0.338356 -4.7239 0
M  V30 13986 H 1333.87 -1.4873 -6.60461 0
M  V30 13987 H 1338.52 0.175429 -4.22436 0
M  V30 13988 H 1336.23 -2.71391 -7.61165 0
M  V30 13989 H 1339.82 -1.36314 -5.65606 0
M  V30 13990 H 1338.7 -2.78817 -7.3296 0
M  V30 13991 N 1336.2 1.55448 0.259558 0
M  V30 13992 C 1337.43 1.81063 1.01148 0
M  V30 13993 C 1337.85 0.58875 1.78649 0
M  V30 13994 O 1337.21 -0.461971 1.75315 0
M  V30 13995 C 1337.26 3.04279 1.93512 0
M  V30 13996 O 1336.36 2.80307 3.02493 0
M  V30 13997 H 1335.7 0.598056 0.288487 0
M  V30 13998 H 1338.23 2.02614 0.284387 0
M  V30 13999 H 1338.24 3.33373 2.35215 0
M  V30 14000 H 1336.92 3.92856 1.36518 0
M  V30 14001 H 1335.5 2.62345 2.65008 0
M  V30 14002 N 1337.68 -0.524672 1.4861 0
M  V30 14003 C 1338.91 -1.30292 1.60335 0
M  V30 14004 C 1339.32 -1.87338 0.264774 0
M  V30 14005 O 1338.66 -1.67388 -0.756756 0
M  V30 14006 C 1338.72 -2.48809 2.59488 0
M  V30 14007 C 1338.39 -2.12811 4.04426 0
M  V30 14008 C 1339.38 -1.68171 4.9195 0
M  V30 14009 C 1337.07 -2.23171 4.5 0
M  V30 14010 C 1339.06 -1.34363 6.23077 0
M  V30 14011 C 1336.75 -1.88975 5.81147 0
M  V30 14012 C 1337.75 -1.44643 6.67508 0
M  V30 14013 O 1337.44 -1.10898 7.96214 0
M  V30 14014 H 1337.17 -0.402288 0.543268 0
M  V30 14015 H 1339.72 -0.63908 1.95205 0
M  V30 14016 H 1337.95 -3.18192 2.19751 0
M  V30 14017 H 1339.64 -3.10866 2.60992 0
M  V30 14018 H 1340.41 -1.59632 4.57977 0
M  V30 14019 H 1336.29 -2.56632 3.82963 0
M  V30 14020 H 1339.83 -0.996875 6.90441 0
M  V30 14021 H 1335.73 -1.97156 6.14654 0
M  V30 14022 H 1336.5 -1.2425 8.09014 0
M  V30 14023 N 1339.16 -1.37287 -0.77395 0
M  V30 14024 C 1340.41 -1.32112 -1.5294 0
M  V30 14025 C 1340.73 0.0946137 -1.9477 0
M  V30 14026 O 1340 1.03817 -1.66129 0
M  V30 14027 H 1338.58 -0.486047 -0.567245 0
M  V30 14028 H 1341.24 -1.71752 -0.921263 0
M  V30 14029 H 1340.34 -1.95873 -2.42982 0
M  V30 14030 N 1340.64 0.999871 -1.21821 0
M  V30 14031 C 1341.88 1.74098 -1.04009 0
M  V30 14032 C 1342.22 1.89499 0.424716 0
M  V30 14033 O 1341.49 1.43306 1.31505 0
M  V30 14034 C 1341.77 3.1506 -1.74382 0
M  V30 14035 C 1341.63 3.0735 -3.28414 0
M  V30 14036 C 1342.95 4.1409 -1.49055 0
M  V30 14037 H 1340.06 0.631935 -0.379245 0
M  V30 14038 H 1342.71 1.16534 -1.50066 0
M  V30 14039 H 1340.86 3.64206 -1.35227 0
M  V30 14040 H 1342.53 2.65879 -3.76969 0
M  V30 14041 H 1340.77 2.44325 -3.58452 0
M  V30 14042 H 1341.44 4.07069 -3.72825 0
M  V30 14043 H 1343.92 3.73672 -1.83054 0
M  V30 14044 H 1342.79 5.10853 -2.008 0
M  V30 14045 H 1343.06 4.40085 -0.421641 0
M  V30 14046 N 1342.11 1.02678 1.19562 0
M  V30 14047 C 1343.34 0.741569 1.93154 0
M  V30 14048 C 1343.76 -0.699292 1.75372 0
M  V30 14049 O 1343.11 -1.47533 1.07426 0
M  V30 14050 C 1343.17 1.08064 3.4497 0
M  V30 14051 O 1342.89 2.46492 3.62179 0
M  V30 14052 C 1344.39 0.817935 4.35689 0
M  V30 14053 H 1341.61 0.271506 0.613617 0
M  V30 14054 H 1344.15 1.3707 1.51763 0
M  V30 14055 H 1342.31 0.496723 3.84202 0
M  V30 14056 H 1342.72 2.59053 4.56061 0
M  V30 14057 H 1344.19 1.10517 5.40823 0
M  V30 14058 H 1344.67 -0.247693 4.38501 0
M  V30 14059 H 1345.28 1.38449 4.02134 0
M  V30 14060 N 1343.59 -1.35528 0.804364 0
M  V30 14061 C 1344.84 -1.98084 0.380196 0
M  V30 14062 C 1345.15 -1.64531 -1.05778 0
M  V30 14063 O 1346.36 -2.20435 -1.58495 0
M  V30 14064 C 1344.82 -3.54364 0.628848 0
M  V30 14065 C 1344.42 -3.96828 2.07921 0
M  V30 14066 C 1346.17 -4.23641 0.269927 0
M  V30 14067 C 1344.08 -5.45944 2.27374 0
M  V30 14068 H 1343.01 -0.741185 0.138422 0
M  V30 14069 H 1345.66 -1.54624 0.988107 0
M  V30 14070 H 1344.04 -3.9597 -0.0489837 0
M  V30 14071 H 1345.21 -3.6638 2.79467 0
M  V30 14072 H 1343.53 -3.40433 2.39779 0
M  V30 14073 H 1346.12 -5.33251 0.393344 0
M  V30 14074 H 1346.47 -4.08858 -0.783644 0
M  V30 14075 H 1347 -3.87448 0.901588 0
M  V30 14076 H 1343.74 -5.65693 3.31168 0
M  V30 14077 H 1343.26 -5.77969 1.6035 0
M  V30 14078 H 1344.94 -6.12376 2.08817 0
M  V30 14079 N 1345.07 -0.557671 -1.47404 0
M  V30 14080 C 1346.32 -0.0420731 -2.03356 0
M  V30 14081 C 1346.67 1.29351 -1.42429 0
M  V30 14082 O 1345.97 1.82901 -0.570759 0
M  V30 14083 C 1346.16 0.108324 -3.57236 0
M  V30 14084 C 1345.99 -1.21113 -4.33084 0
M  V30 14085 C 1344.76 -1.77856 -4.72964 0
M  V30 14086 C 1346.96 -2.12846 -4.68189 0
M  V30 14087 N 1344.94 -3.03801 -5.33458 0
M  V30 14088 C 1346.31 -3.23371 -5.2899 0
M  V30 14089 C 1348.36 -2.12835 -4.50118 0
M  V30 14090 C 1347.07 -4.33985 -5.73629 0
M  V30 14091 C 1349.09 -3.2246 -4.95755 0
M  V30 14092 C 1348.46 -4.31705 -5.56606 0
M  V30 14093 H 1344.55 -0.0575706 -0.779878 0
M  V30 14094 H 1347.14 -0.745062 -1.7988 0
M  V30 14095 H 1345.31 0.780437 -3.80478 0
M  V30 14096 H 1347.04 0.62603 -3.99829 0
M  V30 14097 H 1343.8 -1.31649 -4.54934 0
M  V30 14098 H 1344.22 -3.67998 -5.68249 0
M  V30 14099 H 1348.86 -1.29658 -4.02429 0
M  V30 14100 H 1346.58 -5.17921 -6.20309 0
M  V30 14101 H 1350.17 -3.23539 -4.83543 0
M  V30 14102 H 1349.05 -5.15133 -5.91276 0
M  V30 14103 N 1346.55 1.54831 -0.294147 0
M  V30 14104 C 1347.46 2.26939 0.594621 0
M  V30 14105 C 1348.48 1.30209 1.15419 0
M  V30 14106 O 1349.65 1.6318 1.18044 0
M  V30 14107 C 1346.72 2.9909 1.75345 0
M  V30 14108 C 1345.78 4.11342 1.22865 0
M  V30 14109 C 1345.01 4.80043 2.33225 0
M  V30 14110 O 1345.23 4.48062 3.52983 0
M  V30 14111 O 1344.17 5.67593 2.00304 0
M  V30 14112 H 1347.99 3.03698 0.00989235 0
M  V30 14113 H 1345.58 1.49276 -0.0608528 0
M  V30 14114 H 1347.46 3.44369 2.42875 0
M  V30 14115 H 1346.14 2.25232 2.32492 0
M  V30 14116 H 1345.04 3.70478 0.519279 0
M  V30 14117 H 1346.38 4.87158 0.702703 0
M  V30 14118 N 1348.03 0.0217466 1.57585 0
M  V30 14119 C 1348.96 -0.961069 2.12804 0
M  V30 14120 C 1349.94 -1.3442 1.04237 0
M  V30 14121 O 1351.12 -1.42412 1.32032 0
M  V30 14122 C 1348.25 -2.24586 2.64912 0
M  V30 14123 C 1347.21 -2.0037 3.78201 0
M  V30 14124 C 1346.53 -3.35051 4.16708 0
M  V30 14125 C 1347.83 -1.34879 5.04584 0
M  V30 14126 H 1349.53 -0.501222 2.95175 0
M  V30 14127 H 1347.07 -0.239649 1.41992 0
M  V30 14128 H 1349.03 -2.93715 3.02175 0
M  V30 14129 H 1347.75 -2.72723 1.79693 0
M  V30 14130 H 1346.41 -1.33662 3.41365 0
M  V30 14131 H 1346.06 -3.80932 3.28481 0
M  V30 14132 H 1345.76 -3.19656 4.93045 0
M  V30 14133 H 1347.28 -4.05459 4.56547 0
M  V30 14134 H 1348.7 -1.93997 5.3948 0
M  V30 14135 H 1347.09 -1.29906 5.85871 0
M  V30 14136 H 1348.16 -0.320774 4.83838 0
M  V30 14137 N 1349.51 -1.55583 -0.251311 0
M  V30 14138 C 1350.44 -1.84909 -1.33731 0
M  V30 14139 C 1351.42 -0.703814 -1.46578 0
M  V30 14140 O 1352.6 -0.949108 -1.62862 0
M  V30 14141 C 1349.73 -2.0299 -2.71133 0
M  V30 14142 C 1348.77 -3.25615 -2.75458 0
M  V30 14143 S 1349.61 -4.82388 -2.32512 0
M  V30 14144 C 1350.76 -5.03469 -3.71846 0
M  V30 14145 H 1351 -2.76733 -1.08656 0
M  V30 14146 H 1348.53 -1.47634 -0.45207 0
M  V30 14147 H 1350.49 -2.14091 -3.5025 0
M  V30 14148 H 1349.15 -1.12016 -2.93447 0
M  V30 14149 H 1348.34 -3.35219 -3.76356 0
M  V30 14150 H 1347.94 -3.13217 -2.0438 0
M  V30 14151 H 1350.23 -4.90542 -4.67306 0
M  V30 14152 H 1351.18 -6.05463 -3.67179 0
M  V30 14153 H 1351.59 -4.31337 -3.64155 0
M  V30 14154 N 1350.98 0.516783 -1.48886 0
M  V30 14155 C 1352.21 1.29628 -1.61258 0
M  V30 14156 C 1352.63 1.86744 -0.27786 0
M  V30 14157 O 1351.98 1.67061 0.734639 0
M  V30 14158 C 1352.03 2.43779 -2.66935 0
M  V30 14159 O 1351.76 1.89014 -3.95228 0
M  V30 14160 C 1353.26 3.35398 -2.89867 0
M  V30 14161 H 1350.48 0.393736 -0.543335 0
M  V30 14162 H 1353.02 0.622069 -1.94809 0
M  V30 14163 H 1351.18 3.0706 -2.36206 0
M  V30 14164 H 1351.59 2.63833 -4.53312 0
M  V30 14165 H 1353.06 4.11812 -3.6758 0
M  V30 14166 H 1353.54 3.91436 -1.99185 0
M  V30 14167 H 1354.15 2.77898 -3.21952 0
M  V30 14168 N 1352.46 1.37696 0.766659 0
M  V30 14169 C 1353.71 1.33185 1.52539 0
M  V30 14170 C 1354.04 -0.0821239 1.94327 0
M  V30 14171 O 1353.29 -1.05645 1.64735 0
M  V30 14172 C 1353.59 2.22154 2.79968 0
M  V30 14173 C 1353.26 3.70344 2.57208 0
M  V30 14174 C 1351.92 4.10729 2.50709 0
M  V30 14175 C 1354.27 4.64205 2.36988 0
M  V30 14176 C 1351.6 5.43082 2.21988 0
M  V30 14177 C 1353.95 5.96801 2.0979 0
M  V30 14178 C 1352.61 6.36284 2.01739 0
M  V30 14179 H 1351.88 0.487357 0.558179 0
M  V30 14180 H 1354.53 1.69945 0.882662 0
M  V30 14181 H 1352.84 1.78406 3.48825 0
M  V30 14182 H 1354.53 2.15975 3.37869 0
M  V30 14183 H 1351.12 3.38319 2.63131 0
M  V30 14184 H 1355.31 4.3386 2.40996 0
M  V30 14185 H 1350.56 5.7263 2.14254 0
M  V30 14186 H 1354.74 6.6908 1.93145 0
M  V30 14187 H 1352.36 7.38765 1.79248 0
M  V30 14188 N 1353.94 -0.993397 1.22349 0
M  V30 14189 C 1355.19 -1.72945 1.04568 0
M  V30 14190 C 1355.51 -1.90419 -0.420178 0
M  V30 14191 O 1354.78 -1.46348 -1.30227 0
M  V30 14192 H 1353.36 -0.640777 0.383945 0
M  V30 14193 H 1356.02 -1.19647 1.53853 0
M  V30 14194 H 1355.12 -2.72411 1.52311 0
M  V30 14195 N 1355.42 -1.03311 -1.19015 0
M  V30 14196 C 1356.67 -0.730593 -1.88432 0
M  V30 14197 C 1356.99 0.743392 -1.80274 0
M  V30 14198 O 1356.26 1.5359 -1.21601 0
M  V30 14199 H 1354.84 -0.267253 -0.697556 0
M  V30 14200 H 1357.5 -1.30824 -1.44468 0
M  V30 14201 H 1356.59 -1.02867 -2.9466 0
M  V30 14202 N 1356.9 1.35099 -0.81154 0
M  V30 14203 C 1357.84 2.29717 -0.223372 0
M  V30 14204 C 1358.81 1.53049 0.645396 0
M  V30 14205 O 1360 1.81467 0.589436 0
M  V30 14206 C 1357.14 3.3952 0.618057 0
M  V30 14207 C 1356.25 4.31145 -0.271693 0
M  V30 14208 C 1355.39 5.28044 0.578214 0
M  V30 14209 C 1354.42 6.11306 -0.311628 0
M  V30 14210 N 1353.56 7.00328 0.498539 0
M  V30 14211 H 1358.4 2.79426 -1.03563 0
M  V30 14212 H 1355.94 1.37518 -0.522231 0
M  V30 14213 H 1357.9 4.01854 1.12111 0
M  V30 14214 H 1356.53 2.91075 1.39554 0
M  V30 14215 H 1355.58 3.69773 -0.892885 0
M  V30 14216 H 1356.89 4.89545 -0.956392 0
M  V30 14217 H 1356.04 5.95774 1.1462 0
M  V30 14218 H 1354.78 4.70152 1.29646 0
M  V30 14219 H 1353.79 5.42518 -0.891849 0
M  V30 14220 H 1355.01 6.71277 -1.02781 0
M  V30 14221 H 1352.96 6.44919 1.20067 0
M  V30 14222 H 1352.88 7.55892 -0.12801 0
M  V30 14223 H 1354.14 7.72401 1.04965 0
M  V30 14224 N 1358.37 0.56548 1.47106 0
M  V30 14225 C 1359.78 0.134289 1.86216 0
M  V30 14226 C 1360.14 -1.29815 1.47114 0
M  V30 14227 O 1359.26 -1.97787 0.878017 0
M  V30 14228 C 1359.86 0.236931 3.37971 0
M  V30 14229 C 1358.41 -0.139275 3.76142 0
M  V30 14230 C 1357.56 0.580743 2.71151 0
M  V30 14231 H 1360.51 0.774723 1.38505 0
M  V30 14232 H 1360.53 -0.542301 3.76616 0
M  V30 14233 H 1360.05 1.27958 3.66399 0
M  V30 14234 H 1358.15 -1.18272 3.53331 0
M  V30 14235 H 1358.26 0.225045 4.78571 0
M  V30 14236 H 1356.62 0.0228963 2.5469 0
M  V30 14237 H 1357.41 1.62471 3.0242 0
M  V30 14238 N 1359.85 -1.54672 0.302354 0
M  V30 14239 C 1361.08 -2.04282 -0.308645 0
M  V30 14240 C 1361.49 -1.17912 -1.47965 0
M  V30 14241 O 1360.83 -0.197723 -1.82633 0
M  V30 14242 C 1360.9 -3.49872 -0.826417 0
M  V30 14243 C 1360.56 -4.56473 0.219486 0
M  V30 14244 C 1361.56 -5.0922 1.0484 0
M  V30 14245 C 1359.24 -5.00997 0.361574 0
M  V30 14246 C 1361.24 -6.05033 2.00533 0
M  V30 14247 C 1358.92 -5.9663 1.32195 0
M  V30 14248 C 1359.92 -6.48532 2.1423 0
M  V30 14249 O 1359.61 -7.42292 3.08639 0
M  V30 14250 H 1359.34 -0.67228 -0.0708187 0
M  V30 14251 H 1361.89 -2.00625 0.440314 0
M  V30 14252 H 1360.12 -3.50857 -1.62593 0
M  V30 14253 H 1361.81 -3.8267 -1.35345 0
M  V30 14254 H 1362.58 -4.75615 0.949501 0
M  V30 14255 H 1358.46 -4.60226 -0.267018 0
M  V30 14256 H 1362 -6.45469 2.64604 0
M  V30 14257 H 1357.9 -6.29652 1.42156 0
M  V30 14258 H 1358.67 -7.60098 3.03633 0
M  V30 14259 N 1361.33 -0.0301034 -1.57571 0
M  V30 14260 C 1362.61 0.68703 -1.83137 0
M  V30 14261 C 1362.99 1.90277 -0.914216 0
M  V30 14262 O 1362.34 2.2848 0.0299358 0
M  V30 14263 C 1362.55 1.06431 -3.32375 0
M  V30 14264 C 1363.89 1.45554 -3.98873 0
M  V30 14265 O 1364.92 1.15727 -3.36877 0
M  V30 14266 O 1363.78 2.01133 -5.08142 0
M  V30 14267 H 1360.87 0.337141 -0.755159 0
M  V30 14268 H 1363.42 -0.0578604 -1.69601 0
M  V30 14269 H 1362.19 0.199077 -3.90793 0
M  V30 14270 H 1361.81 1.86734 -3.51022 0
M  V30 14271 N 1362.81 1.55714 0.243056 0
M  V30 14272 C 1364.06 1.77375 0.968638 0
M  V30 14273 C 1364.38 0.594781 1.85708 0
M  V30 14274 O 1363.65 -0.38928 1.91993 0
M  V30 14275 H 1362.23 0.654174 0.360646 0
M  V30 14276 H 1364.89 1.93157 0.260079 0
M  V30 14277 H 1363.99 2.68674 1.5881 0
M  V30 14278 N 1364.29 -0.50888 1.49158 0
M  V30 14279 C 1365.54 -1.26008 1.57496 0
M  V30 14280 C 1365.85 -1.9382 0.263281 0
M  V30 14281 O 1367.05 -2.70565 0.225117 0
M  V30 14282 C 1365.51 -2.28752 2.7785 0
M  V30 14283 C 1365.12 -1.66915 4.15744 0
M  V30 14284 C 1366.86 -3.0475 2.95513 0
M  V30 14285 C 1364.77 -2.67724 5.27331 0
M  V30 14286 H 1363.7 -0.473984 0.586392 0
M  V30 14287 H 1366.35 -0.534886 1.75531 0
M  V30 14288 H 1364.73 -3.044 2.53292 0
M  V30 14289 H 1365.91 -0.973131 4.50407 0
M  V30 14290 H 1364.22 -1.03336 4.03374 0
M  V30 14291 H 1366.82 -3.80121 3.76048 0
M  V30 14292 H 1367.16 -3.6189 2.05771 0
M  V30 14293 H 1367.69 -2.36217 3.20072 0
M  V30 14294 H 1364.43 -2.15375 6.19107 0
M  V30 14295 H 1363.95 -3.35589 4.97132 0
M  V30 14296 H 1365.63 -3.30304 5.56335 0
M  V30 14297 N 1365.76 -1.381 -0.759346 0
M  V30 14298 C 1367.18 -1.30379 -1.33635 0
M  V30 14299 C 1367.53 0.0430279 -1.96153 0
M  V30 14300 O 1366.65 0.945029 -1.94675 0
M  V30 14301 C 1367.25 -2.3611 -2.42976 0
M  V30 14302 C 1365.81 -2.31985 -2.96412 0
M  V30 14303 C 1364.95 -2.19281 -1.69739 0
M  V30 14304 H 1367.9 -1.48542 -0.558656 0
M  V30 14305 H 1367.92 -2.01493 -3.22771 0
M  V30 14306 H 1367.44 -3.34122 -1.97445 0
M  V30 14307 H 1365.54 -1.37536 -3.46287 0
M  V30 14308 H 1365.65 -3.25895 -3.51183 0
M  V30 14309 H 1364.01 -1.66035 -1.93144 0
M  V30 14310 H 1364.8 -3.19225 -1.26293 0
M  V30 14311 N 1367.24 0.986894 -1.22875 0
M  V30 14312 C 1368.47 1.76266 -1.08342 0
M  V30 14313 C 1368.89 1.85226 0.365602 0
M  V30 14314 O 1368.24 1.32675 1.25314 0
M  V30 14315 C 1368.29 3.19282 -1.69533 0
M  V30 14316 O 1368.01 3.10796 -3.08768 0
M  V30 14317 C 1369.52 4.13281 -1.60355 0
M  V30 14318 H 1366.74 0.553374 -0.379497 0
M  V30 14319 H 1369.28 1.24033 -1.62592 0
M  V30 14320 H 1367.43 3.68563 -1.19332 0
M  V30 14321 H 1367.85 4.0078 -3.38343 0
M  V30 14322 H 1369.32 5.11359 -2.07884 0
M  V30 14323 H 1369.8 4.356 -0.561182 0
M  V30 14324 H 1370.41 3.699 -2.09891 0
M  V30 14325 N 1368.72 1.0394 1.18466 0
M  V30 14326 C 1370.14 0.758404 1.40429 0
M  V30 14327 C 1370.34 -0.652603 1.90639 0
M  V30 14328 O 1369.39 -1.417 2.08991 0
M  V30 14329 C 1370.71 1.80343 2.40618 0
M  V30 14330 C 1372.25 1.82419 2.54347 0
M  V30 14331 C 1372.73 2.8591 3.57798 0
M  V30 14332 N 1374.22 2.84793 3.65304 0
M  V30 14333 C 1374.95 3.61521 4.45073 0
M  V30 14334 N 1374.45 4.47997 5.28461 0
M  V30 14335 N 1376.24 3.50016 4.39824 0
M  V30 14336 H 1368.39 1.94998 0.842 0
M  V30 14337 H 1370.66 0.843649 0.43239 0
M  V30 14338 H 1370.36 2.81547 2.10771 0
M  V30 14339 H 1370.24 1.63451 3.39947 0
M  V30 14340 H 1372.62 0.818872 2.83511 0
M  V30 14341 H 1372.71 2.03388 1.55136 0
M  V30 14342 H 1372.35 3.8662 3.29375 0
M  V30 14343 H 1372.28 2.62196 4.56684 0
M  V30 14344 H 1374.77 2.22082 3.05758 0
M  V30 14345 H 1375.08 5.03257 5.86475 0
M  V30 14346 H 1373.43 4.52065 5.27885 0
M  V30 14347 H 1376.62 2.81862 3.73726 0
M  V30 14348 H 1376.79 4.10063 5.0175 0
M  V30 14349 N 1370.2 -1.34667 0.818693 0
M  V30 14350 C 1371.11 -2.33375 0.239429 0
M  V30 14351 C 1372.12 -1.62428 -0.623957 0
M  V30 14352 O 1373.3 -1.94223 -0.532854 0
M  V30 14353 C 1370.37 -3.41598 -0.59258 0
M  V30 14354 C 1369.43 -4.28301 0.292712 0
M  V30 14355 C 1368.66 -5.31356 -0.499682 0
M  V30 14356 O 1368.88 -5.43426 -1.73334 0
M  V30 14357 O 1367.82 -6.01789 0.115778 0
M  V30 14358 H 1371.64 -2.84738 1.05631 0
M  V30 14359 H 1369.23 -1.37651 0.58074 0
M  V30 14360 H 1371.11 -4.07692 -1.06607 0
M  V30 14361 H 1369.78 -2.92486 -1.38685 0
M  V30 14362 H 1368.69 -3.65145 0.81361 0
M  V30 14363 H 1370.02 -4.80843 1.05123 0
M  V30 14364 N 1371.68 -0.573274 -1.46804 0
M  V30 14365 C 1372.93 -0.0530267 -2.0163 0
M  V30 14366 C 1373.24 1.31124 -1.45141 0
M  V30 14367 O 1374.44 1.92231 -1.91728 0
M  V30 14368 C 1372.9 -0.0442411 -3.59873 0
M  V30 14369 C 1372.51 -1.40625 -4.25357 0
M  V30 14370 C 1374.25 0.422556 -4.22392 0
M  V30 14371 C 1372.16 -1.3557 -5.75652 0
M  V30 14372 H 1371.09 -0.0160537 -0.753829 0
M  V30 14373 H 1373.74 -0.723518 -1.68634 0
M  V30 14374 H 1372.12 0.692225 -3.89903 0
M  V30 14375 H 1373.3 -2.1617 -4.06949 0
M  V30 14376 H 1371.61 -1.81229 -3.74893 0
M  V30 14377 H 1374.21 0.479021 -5.3255 0
M  V30 14378 H 1374.55 1.43806 -3.90673 0
M  V30 14379 H 1375.08 -0.259551 -3.96952 0
M  V30 14380 H 1371.82 -2.34772 -6.12015 0
M  V30 14381 H 1371.34 -0.642309 -5.96351 0
M  V30 14382 H 1373.02 -1.06458 -6.38182 0
M  V30 14383 N 1373.15 1.5451 -0.310553 0
M  V30 14384 C 1374.57 1.85829 0.180166 0
M  V30 14385 C 1374.92 1.23239 1.52665 0
M  V30 14386 O 1374.04 0.53359 2.09718 0
M  V30 14387 C 1374.64 3.37153 0.333687 0
M  V30 14388 C 1373.2 3.68469 0.768625 0
M  V30 14389 C 1372.34 2.77051 -0.117399 0
M  V30 14390 H 1375.29 1.49544 -0.531262 0
M  V30 14391 H 1375.31 3.62171 1.16673 0
M  V30 14392 H 1374.83 3.82678 -0.646455 0
M  V30 14393 H 1372.93 3.28467 1.75898 0
M  V30 14394 H 1373.04 4.75559 0.581392 0
M  V30 14395 H 1371.4 2.51461 0.404905 0
M  V30 14396 H 1372.19 3.254 -1.09407 0
M  V30 14397 N 1374.63 0.0384594 1.57553 0
M  V30 14398 C 1375.91 -0.677308 1.83499 0
M  V30 14399 C 1376.29 -1.89789 0.924294 0
M  V30 14400 O 1375.64 -2.28493 -0.0178185 0
M  V30 14401 C 1375.85 -1.04667 3.32935 0
M  V30 14402 C 1377.2 -1.43436 3.99639 0
M  V30 14403 O 1378.22 -1.13938 3.37486 0
M  V30 14404 O 1377.08 -1.98435 5.09201 0
M  V30 14405 H 1374.17 -0.333131 0.756936 0
M  V30 14406 H 1376.72 0.066854 1.69568 0
M  V30 14407 H 1375.49 -0.178349 3.90893 0
M  V30 14408 H 1375.11 -1.8487 3.52007 0
M  V30 14409 N 1376.11 -1.55841 -0.234795 0
M  V30 14410 C 1377.04 -1.94344 -1.29432 0
M  V30 14411 C 1378.02 -0.809912 -1.49581 0
M  V30 14412 O 1379.21 -1.07117 -1.61986 0
M  V30 14413 C 1376.34 -2.24866 -2.64675 0
M  V30 14414 C 1375.29 -3.40584 -2.59203 0
M  V30 14415 C 1374.62 -3.56678 -3.98353 0
M  V30 14416 C 1375.92 -4.75935 -2.15135 0
M  V30 14417 H 1377.61 -2.83096 -0.97454 0
M  V30 14418 H 1375.16 -1.36205 -0.467355 0
M  V30 14419 H 1377.11 -2.50392 -3.38942 0
M  V30 14420 H 1375.83 -1.32953 -2.98314 0
M  V30 14421 H 1374.49 -3.15087 -1.87393 0
M  V30 14422 H 1374.14 -2.62164 -4.29277 0
M  V30 14423 H 1373.84 -4.34503 -3.95577 0
M  V30 14424 H 1375.37 -3.84538 -4.74302 0
M  V30 14425 H 1376.78 -5.00753 -2.7914 0
M  V30 14426 H 1375.18 -5.56949 -2.23446 0
M  V30 14427 H 1376.25 -4.72182 -1.10328 0
M  V30 14428 N 1377.59 0.500963 -1.49426 0
M  V30 14429 C 1378.52 1.61114 -1.69011 0
M  V30 14430 C 1379.5 1.61341 -0.538813 0
M  V30 14431 O 1380.69 1.78081 -0.77466 0
M  V30 14432 C 1377.82 2.99598 -1.75666 0
M  V30 14433 C 1376.77 3.14236 -2.90585 0
M  V30 14434 C 1376.1 4.54071 -2.82354 0
M  V30 14435 C 1377.4 2.94258 -4.3152 0
M  V30 14436 H 1379.09 1.44978 -2.61957 0
M  V30 14437 H 1376.64 0.69603 -1.26061 0
M  V30 14438 H 1378.59 3.77163 -1.87953 0
M  V30 14439 H 1377.31 3.16822 -0.793186 0
M  V30 14440 H 1375.97 2.39096 -2.779 0
M  V30 14441 H 1375.62 4.68172 -1.83914 0
M  V30 14442 H 1375.32 4.64806 -3.59485 0
M  V30 14443 H 1376.84 5.33696 -2.96649 0
M  V30 14444 H 1378.26 3.61592 -4.44886 0
M  V30 14445 H 1376.65 3.16464 -5.09873 0
M  V30 14446 H 1377.72 1.90383 -4.45962 0
M  V30 14447 N 1379.07 1.38501 0.752011 0
M  V30 14448 C 1379.98 1.38094 1.8965 0
M  V30 14449 C 1380.99 0.277851 1.71767 0
M  V30 14450 O 1382.17 0.516536 1.94663 0
M  V30 14451 C 1379.23 1.2063 3.25037 0
M  V30 14452 C 1378.3 2.40758 3.55435 0
M  V30 14453 C 1377.53 2.24118 4.84362 0
M  V30 14454 O 1377.75 1.23571 5.56854 0
M  V30 14455 O 1376.69 3.12741 5.14273 0
M  V30 14456 H 1380.51 2.34532 1.92947 0
M  V30 14457 H 1378.1 1.19437 0.897504 0
M  V30 14458 H 1379.98 1.12957 4.05979 0
M  V30 14459 H 1378.65 0.272785 3.22549 0
M  V30 14460 H 1377.56 2.54006 2.74648 0
M  V30 14461 H 1378.89 3.32745 3.62686 0
M  V30 14462 N 1380.55 -0.980364 1.23396 0
M  V30 14463 C 1381.49 -2.07275 1.01516 0
M  V30 14464 C 1382.46 -1.65963 -0.0673729 0
M  V30 14465 O 1383.65 -1.90612 0.0847392 0
M  V30 14466 C 1380.79 -3.39621 0.61249 0
M  V30 14467 C 1379.9 -3.94203 1.76715 0
M  V30 14468 C 1379.04 -5.14761 1.31126 0
M  V30 14469 C 1378.07 -5.61509 2.43667 0
M  V30 14470 N 1377.21 -6.73297 1.99035 0
M  V30 14471 H 1382.05 -2.25325 1.9502 0
M  V30 14472 H 1379.59 -1.10452 0.971532 0
M  V30 14473 H 1381.55 -4.15643 0.360126 0
M  V30 14474 H 1380.18 -3.21535 -0.285539 0
M  V30 14475 H 1379.23 -3.14937 2.13352 0
M  V30 14476 H 1380.54 -4.24867 2.61323 0
M  V30 14477 H 1379.69 -5.98115 1.01702 0
M  V30 14478 H 1378.43 -4.85751 0.435555 0
M  V30 14479 H 1377.44 -4.76737 2.73865 0
M  V30 14480 H 1378.66 -5.92539 3.31774 0
M  V30 14481 H 1376.61 -6.46046 1.13845 0
M  V30 14482 H 1376.53 -7.03345 2.77203 0
M  V30 14483 H 1377.79 -7.60125 1.72716 0
M  V30 14484 N 1382.02 -1.04567 -1.17913 0
M  V30 14485 C 1383.27 -0.750538 -1.87647 0
M  V30 14486 C 1383.59 0.72423 -1.81052 0
M  V30 14487 O 1382.86 1.52292 -1.23223 0
M  V30 14488 H 1381.44 -0.274636 -0.694683 0
M  V30 14489 H 1384.1 -1.32349 -1.43072 0
M  V30 14490 H 1383.2 -1.05987 -2.93553 0
M  V30 14491 N 1383.5 1.34231 -0.825823 0
M  V30 14492 C 1384.41 2.33245 -0.251803 0
M  V30 14493 C 1385.43 1.62756 0.615334 0
M  V30 14494 O 1386.6 1.94503 0.522547 0
M  V30 14495 C 1383.67 3.41908 0.574456 0
M  V30 14496 C 1382.73 4.2814 -0.315422 0
M  V30 14497 C 1381.96 5.31613 0.471496 0
M  V30 14498 O 1382.19 5.44337 1.70449 0
M  V30 14499 O 1381.12 6.01719 -0.147691 0
M  V30 14500 H 1384.95 2.84174 -1.07139 0
M  V30 14501 H 1382.53 1.37341 -0.588032 0
M  V30 14502 H 1384.41 4.08252 1.04444 0
M  V30 14503 H 1383.09 2.93217 1.37132 0
M  V30 14504 H 1381.99 3.64709 -0.832963 0
M  V30 14505 H 1383.33 4.80279 -1.07672 0
M  V30 14506 N 1384.98 0.581051 1.46498 0
M  V30 14507 C 1386.4 0.242599 1.57745 0
M  V30 14508 C 1386.6 -1.25508 1.57639 0
M  V30 14509 O 1385.65 -2.0367 1.49247 0
M  V30 14510 C 1386.96 0.890342 2.87217 0
M  V30 14511 C 1388.51 0.863778 3.00845 0
M  V30 14512 C 1388.99 1.49103 4.3305 0
M  V30 14513 N 1390.48 1.4553 4.39745 0
M  V30 14514 C 1391.21 1.91003 5.40653 0
M  V30 14515 N 1390.71 2.44442 6.48244 0
M  V30 14516 N 1392.5 1.8193 5.31844 0
M  V30 14517 H 1384.65 1.55382 1.44811 0
M  V30 14518 H 1386.92 0.649375 0.690664 0
M  V30 14519 H 1386.62 1.94383 2.93101 0
M  V30 14520 H 1386.5 0.397569 3.75099 0
M  V30 14521 H 1388.88 -0.181089 2.94544 0
M  V30 14522 H 1388.96 1.39455 2.14443 0
M  V30 14523 H 1388.61 2.53509 4.40109 0
M  V30 14524 H 1388.54 0.935496 5.18224 0
M  V30 14525 H 1391.03 1.06466 3.62593 0
M  V30 14526 H 1391.34 2.77002 7.2145 0
M  V30 14527 H 1389.69 2.48467 6.49068 0
M  V30 14528 H 1392.88 1.3994 4.46693 0
M  V30 14529 H 1393.05 2.17685 6.10342 0
M  V30 14530 N 1386.46 -1.54343 0.318742 0
M  V30 14531 C 1387.39 -2.27118 -0.542206 0
M  V30 14532 C 1388.37 -1.27731 -1.12334 0
M  V30 14533 O 1389.55 -1.56535 -1.14937 0
M  V30 14534 C 1386.68 -3.02535 -1.70558 0
M  V30 14535 C 1385.64 -4.09218 -1.25398 0
M  V30 14536 C 1384.96 -4.72449 -2.50391 0
M  V30 14537 C 1386.26 -5.20971 -0.372332 0
M  V30 14538 H 1387.96 -2.9933 0.0648226 0
M  V30 14539 H 1385.5 -1.43963 0.0326168 0
M  V30 14540 H 1387.46 -3.52174 -2.31412 0
M  V30 14541 H 1386.18 -2.27931 -2.33912 0
M  V30 14542 H 1384.84 -3.60455 -0.668392 0
M  V30 14543 H 1384.49 -3.94466 -3.12099 0
M  V30 14544 H 1384.19 -5.4451 -2.20868 0
M  V30 14545 H 1385.71 -5.2486 -3.12016 0
M  V30 14546 H 1387.13 -5.66396 -0.887029 0
M  V30 14547 H 1385.52 -5.99859 -0.17009 0
M  V30 14548 H 1386.59 -4.81198 0.598064 0
M  V30 14549 N 1387.94 -0.0468143 -1.5753 0
M  V30 14550 C 1389.35 0.489509 -1.80169 0
M  V30 14551 C 1389.7 1.71184 -0.958669 0
M  V30 14552 O 1388.82 2.15699 -0.174025 0
M  V30 14553 C 1389.42 0.894838 -3.26769 0
M  V30 14554 C 1387.98 1.37617 -3.50341 0
M  V30 14555 C 1387.12 0.349275 -2.75092 0
M  V30 14556 H 1390.07 -0.272728 -1.56339 0
M  V30 14557 H 1390.1 1.75805 -3.3745 0
M  V30 14558 H 1389.61 0.00501096 -3.881 0
M  V30 14559 H 1387.71 2.28533 -2.94285 0
M  V30 14560 H 1387.82 1.37133 -4.59055 0
M  V30 14561 H 1386.19 0.821219 -2.41098 0
M  V30 14562 H 1386.97 -0.532391 -3.39147 0
M  V30 14563 N 1389.41 1.55964 0.226527 0
M  V30 14564 C 1390.35 1.88487 1.30405 0
M  V30 14565 C 1391.36 0.772723 1.43293 0
M  V30 14566 O 1392.55 1.05099 1.44279 0
M  V30 14567 C 1389.65 2.074 2.68027 0
M  V30 14568 C 1388.82 3.38389 2.77149 0
M  V30 14569 C 1387.88 3.46795 3.95752 0
M  V30 14570 O 1386.91 4.19862 3.84323 0
M  V30 14571 N 1388.11 2.77573 5.09836 0
M  V30 14572 H 1390.87 2.81506 1.02833 0
M  V30 14573 H 1388.43 1.56449 0.416581 0
M  V30 14574 H 1390.43 2.10344 3.45742 0
M  V30 14575 H 1389 1.2103 2.8822 0
M  V30 14576 H 1388.22 3.47586 1.8595 0
M  V30 14577 H 1389.5 4.24688 2.8021 0
M  V30 14578 H 1388.9 2.17979 5.22017 0
M  V30 14579 H 1387.46 2.86185 5.85612 0
M  V30 14580 N 1390.89 -0.493031 1.4969 0
M  V30 14581 C 1392.3 -1.0744 1.52688 0
M  V30 14582 C 1392.65 -1.93612 0.317652 0
M  V30 14583 O 1391.78 -2.0871 -0.571745 0
M  V30 14584 C 1392.37 -1.95523 2.76688 0
M  V30 14585 C 1390.93 -2.48808 2.82438 0
M  V30 14586 C 1390.08 -1.26617 2.46705 0
M  V30 14587 H 1393.03 -0.276589 1.56271 0
M  V30 14588 H 1393.05 -2.80315 2.57301 0
M  V30 14589 H 1392.56 -1.32779 3.6468 0
M  V30 14590 H 1390.67 -3.15168 1.98746 0
M  V30 14591 H 1390.78 -2.85416 3.84805 0
M  V30 14592 H 1389.14 -1.59396 1.98658 0
M  V30 14593 H 1389.93 -0.655695 3.3698 0
M  V30 14594 N 1392.37 -1.38898 -0.744656 0
M  V30 14595 C 1393.78 -1.31789 -1.32244 0
M  V30 14596 C 1394.13 0.0222208 -1.96187 0
M  V30 14597 O 1393.26 0.924328 -1.95666 0
M  V30 14598 C 1393.85 -2.38674 -2.40458 0
M  V30 14599 C 1392.41 -2.35116 -2.93935 0
M  V30 14600 C 1391.56 -2.21069 -1.67403 0
M  V30 14601 H 1394.51 -1.49126 -0.54287 0
M  V30 14602 H 1394.53 -2.04905 -3.20615 0
M  V30 14603 H 1394.04 -3.36197 -1.9389 0
M  V30 14604 H 1392.14 -1.41201 -3.44809 0
M  V30 14605 H 1392.26 -3.29602 -3.47706 0
M  V30 14606 H 1390.62 -1.68074 -1.91372 0
M  V30 14607 H 1391.4 -3.20547 -1.229 0
M  V30 14608 N 1393.85 0.973806 -1.23914 0
M  V30 14609 C 1395.1 1.71027 -1.06923 0
M  V30 14610 C 1395.41 1.91612 0.392947 0
M  V30 14611 O 1396.62 2.62771 0.682927 0
M  V30 14612 C 1395.07 3.07811 -1.86496 0
M  V30 14613 C 1394.68 2.9509 -3.37085 0
M  V30 14614 C 1396.42 3.85371 -1.78015 0
M  V30 14615 C 1394.33 4.27145 -4.09024 0
M  V30 14616 H 1393.26 0.641329 -0.396501 0
M  V30 14617 H 1395.91 1.08562 -1.47941 0
M  V30 14618 H 1394.29 3.71069 -1.38288 0
M  V30 14619 H 1395.47 2.4088 -3.92827 0
M  V30 14620 H 1393.78 2.30999 -3.46451 0
M  V30 14621 H 1396.38 4.83147 -2.2907 0
M  V30 14622 H 1396.72 4.09594 -0.744196 0
M  V30 14623 H 1397.26 3.28827 -2.23869 0
M  V30 14624 H 1394 4.08117 -5.12953 0
M  V30 14625 H 1393.52 4.81194 -3.58068 0
M  V30 14626 H 1395.19 4.95798 -4.15685 0
M  V30 14627 N 1395.33 1.05191 1.17357 0
M  V30 14628 C 1396.57 0.771027 1.893 0
M  V30 14629 C 1396.93 -0.68931 1.792 0
M  V30 14630 O 1398.13 -1.0843 2.4596 0
M  V30 14631 C 1396.4 1.23822 3.35265 0
M  V30 14632 S 1397.96 1.0847 4.25182 0
M  V30 14633 H 1394.78 0.280008 0.653542 0
M  V30 14634 H 1397.38 1.34654 1.41734 0
M  V30 14635 H 1396.09 2.2962 3.40151 0
M  V30 14636 H 1395.62 0.656981 3.87875 0
M  V30 14637 H 1397.63 0.00886614 4.96199 0
M  V30 14638 N 1396.8 -1.33791 0.83293 0
M  V30 14639 C 1398.03 -2.02187 0.439077 0
M  V30 14640 C 1398.45 -1.62692 -0.957958 0
M  V30 14641 O 1397.8 -0.837302 -1.62159 0
M  V30 14642 C 1397.86 -3.57395 0.543232 0
M  V30 14643 O 1397.58 -3.95463 1.88522 0
M  V30 14644 C 1399.08 -4.43061 0.145567 0
M  V30 14645 H 1396.3 -0.64778 0.174992 0
M  V30 14646 H 1398.84 -1.7085 1.12386 0
M  V30 14647 H 1397 -3.87287 -0.0935746 0
M  V30 14648 H 1397.41 -4.90164 1.86653 0
M  V30 14649 H 1398.88 -5.51342 0.269507 0
M  V30 14650 H 1399.36 -4.29628 -0.911934 0
M  V30 14651 H 1399.97 -4.18517 0.756572 0
M  V30 14652 N 1398.28 -0.588812 -1.46187 0
M  V30 14653 C 1399.53 -0.0744093 -2.01563 0
M  V30 14654 C 1399.84 1.29578 -1.46523 0
M  V30 14655 O 1401.05 1.90186 -1.93756 0
M  V30 14656 C 1399.51 -0.082408 -3.59806 0
M  V30 14657 C 1399.11 -1.45129 -4.23842 0
M  V30 14658 C 1400.86 0.377732 -4.22816 0
M  V30 14659 C 1398.77 -1.41668 -5.74181 0
M  V30 14660 H 1397.7 -0.0240481 -0.753616 0
M  V30 14661 H 1400.35 -0.741364 -1.67857 0
M  V30 14662 H 1398.73 0.650832 -3.90615 0
M  V30 14663 H 1399.9 -2.20474 -4.04633 0
M  V30 14664 H 1398.22 -1.85196 -3.7295 0
M  V30 14665 H 1400.81 0.42251 -5.33028 0
M  V30 14666 H 1401.16 1.39655 -3.92176 0
M  V30 14667 H 1401.69 -0.301638 -3.96655 0
M  V30 14668 H 1398.43 -2.4125 -6.09491 0
M  V30 14669 H 1397.95 -0.705524 -5.95636 0
M  V30 14670 H 1399.63 -1.13221 -6.37016 0
M  V30 14671 N 1399.76 1.54172 -0.326923 0
M  V30 14672 C 1401.04 1.92812 0.329078 0
M  V30 14673 C 1401.42 1.25687 1.69605 0
M  V30 14674 O 1400.77 0.401779 2.2494 0
M  V30 14675 C 1400.98 3.46488 0.417949 0
M  V30 14676 C 1402.32 4.19174 0.67665 0
M  V30 14677 O 1403.35 3.52663 0.500735 0
M  V30 14678 O 1402.21 5.36968 1.01625 0
M  V30 14679 H 1399.3 0.805214 0.188573 0
M  V30 14680 H 1401.85 1.65462 -0.376884 0
M  V30 14681 H 1400.62 3.87528 -0.541986 0
M  V30 14682 H 1400.24 3.79954 1.17136 0
M  V30 14683 N 1401.24 0.0551678 1.57503 0
M  V30 14684 C 1402.48 -0.618636 1.93134 0
M  V30 14685 C 1402.82 -1.70258 0.934125 0
M  V30 14686 O 1402.09 -1.9446 -0.0392699 0
M  V30 14687 C 1402.38 -1.21103 3.39126 0
M  V30 14688 C 1402.23 -0.134865 4.49598 0
M  V30 14689 C 1403.55 -2.12148 3.85592 0
M  V30 14690 H 1400.67 -0.223416 0.702321 0
M  V30 14691 H 1403.31 0.117748 1.89635 0
M  V30 14692 H 1401.46 -1.83862 3.42238 0
M  V30 14693 H 1403.13 0.497292 4.58612 0
M  V30 14694 H 1401.37 0.536587 4.30469 0
M  V30 14695 H 1402.04 -0.589447 5.48844 0
M  V30 14696 H 1404.52 -1.59346 3.8438 0
M  V30 14697 H 1403.4 -2.50539 4.88387 0
M  V30 14698 H 1403.66 -3.02318 3.22578 0
M  V30 14699 N 1402.72 -1.56081 -0.218252 0
M  V30 14700 C 1403.95 -1.83069 -0.957574 0
M  V30 14701 C 1404.35 -0.6325 -1.78315 0
M  V30 14702 O 1403.7 0.408298 -1.79105 0
M  V30 14703 C 1403.76 -3.03835 -1.92157 0
M  V30 14704 C 1403.42 -4.38702 -1.2802 0
M  V30 14705 C 1404.42 -5.15585 -0.66846 0
M  V30 14706 C 1402.11 -4.85427 -1.29098 0
M  V30 14707 C 1404.1 -6.37355 -0.0760499 0
M  V30 14708 C 1401.79 -6.07138 -0.69473 0
M  V30 14709 C 1402.78 -6.82943 -0.0883201 0
M  V30 14710 O 1402.47 -8.02352 0.498648 0
M  V30 14711 H 1402.2 -0.612493 -0.286057 0
M  V30 14712 H 1404.76 -2.04021 -0.23759 0
M  V30 14713 H 1402.99 -2.78709 -2.68064 0
M  V30 14714 H 1404.68 -3.17666 -2.52672 0
M  V30 14715 H 1405.44 -4.80592 -0.652434 0
M  V30 14716 H 1401.32 -4.26395 -1.75238 0
M  V30 14717 H 1404.87 -6.96464 0.397893 0
M  V30 14718 H 1400.76 -6.41604 -0.70818 0
M  V30 14719 H 1401.53 -8.17555 0.393289 0
M  V30 14720 N 1404.2 0.485086 -1.49949 0
M  V30 14721 C 1405.13 1.60306 -1.62411 0
M  V30 14722 C 1406.11 1.5558 -0.47262 0
M  V30 14723 O 1407.29 1.75406 -0.690285 0
M  V30 14724 C 1404.42 2.98859 -1.59377 0
M  V30 14725 C 1403.46 3.2179 -2.79917 0
M  V30 14726 S 1404.3 3.03194 -4.41399 0
M  V30 14727 C 1405.45 4.44114 -4.41037 0
M  V30 14728 H 1405.69 1.49493 -2.56981 0
M  V30 14729 H 1403.22 0.671413 -1.39037 0
M  V30 14730 H 1405.18 3.78744 -1.58313 0
M  V30 14731 H 1403.84 3.07073 -0.660673 0
M  V30 14732 H 1403.03 4.22975 -2.74059 0
M  V30 14733 H 1402.63 2.49653 -2.78477 0
M  V30 14734 H 1404.92 5.36496 -4.13737 0
M  V30 14735 H 1405.87 4.55019 -5.42553 0
M  V30 14736 H 1406.28 4.25538 -3.70914 0
M  V30 14737 N 1405.67 1.39291 0.737279 0
M  V30 14738 C 1406.92 1.36592 1.49901 0
M  V30 14739 C 1407.25 -0.0388812 1.94161 0
M  V30 14740 O 1406.53 -1.00337 1.66622 0
M  V30 14741 C 1406.81 2.33625 2.74028 0
M  V30 14742 C 1406.66 3.83037 2.35802 0
M  V30 14743 C 1407.98 2.28524 3.76118 0
M  V30 14744 H 1405.1 0.497482 0.543765 0
M  V30 14745 H 1407.74 1.70265 0.843193 0
M  V30 14746 H 1405.89 2.0504 3.29986 0
M  V30 14747 H 1407.57 4.22363 1.85493 0
M  V30 14748 H 1405.81 3.99924 1.68058 0
M  V30 14749 H 1406.48 4.46415 3.24681 0
M  V30 14750 H 1408.96 2.53794 3.29739 0
M  V30 14751 H 1407.83 2.98501 4.60639 0
M  V30 14752 H 1408.09 1.28949 4.22876 0
M  V30 14753 N 1407.15 -0.967221 1.24429 0
M  V30 14754 C 1408.08 -2.06071 0.980314 0
M  V30 14755 C 1409.06 -1.62372 -0.0860829 0
M  V30 14756 O 1410.25 -1.88431 0.0509524 0
M  V30 14757 C 1407.37 -3.35289 0.479452 0
M  V30 14758 C 1406.42 -3.9794 1.53447 0
M  V30 14759 S 1407.25 -4.3551 3.11595 0
M  V30 14760 C 1408.41 -5.67865 2.63212 0
M  V30 14761 H 1408.64 -2.28145 1.90623 0
M  V30 14762 H 1406.17 -1.10519 1.07819 0
M  V30 14763 H 1408.13 -4.10027 0.197103 0
M  V30 14764 H 1406.79 -3.11201 -0.425755 0
M  V30 14765 H 1405.99 -4.91067 1.13445 0
M  V30 14766 H 1405.59 -3.29634 1.76685 0
M  V30 14767 H 1407.88 -6.45405 2.06054 0
M  V30 14768 H 1408.82 -6.12724 3.5493 0
M  V30 14769 H 1409.23 -5.26496 2.03623 0
M  V30 14770 N 1408.63 -1.05812 -1.16797 0
M  V30 14771 C 1409.88 -0.773066 -1.87487 0
M  V30 14772 C 1410.21 0.698471 -1.81204 0
M  V30 14773 O 1409.48 1.51129 -1.22434 0
M  V30 14774 C 1409.77 -1.2621 -3.37258 0
M  V30 14775 C 1409.62 -2.79704 -3.52258 0
M  V30 14776 C 1410.94 -0.866104 -4.31494 0
M  V30 14777 H 1408.06 -0.282304 -0.680789 0
M  V30 14778 H 1410.7 -1.3132 -1.37314 0
M  V30 14779 H 1408.85 -0.802608 -3.80119 0
M  V30 14780 H 1410.52 -3.33824 -3.1837 0
M  V30 14781 H 1408.76 -3.18673 -2.94329 0
M  V30 14782 H 1409.44 -3.08985 -4.57419 0
M  V30 14783 H 1411.91 -1.26178 -3.96508 0
M  V30 14784 H 1410.79 -1.23581 -5.34807 0
M  V30 14785 H 1411.05 0.229391 -4.41504 0
M  V30 14786 N 1410.11 1.33347 -0.840014 0
M  V30 14787 C 1411.05 2.29191 -0.272048 0
M  V30 14788 C 1412.02 1.54383 0.612787 0
M  V30 14789 O 1413.21 1.82676 0.550812 0
M  V30 14790 C 1410.35 3.40755 0.545901 0
M  V30 14791 C 1409.46 4.30471 -0.363084 0
M  V30 14792 C 1408.6 5.29151 0.466078 0
M  V30 14793 C 1407.64 6.10508 -0.441225 0
M  V30 14794 N 1406.77 7.01228 0.349877 0
M  V30 14795 H 1411.61 2.77166 -1.09467 0
M  V30 14796 H 1409.15 1.36379 -0.551284 0
M  V30 14797 H 1411.11 4.04142 1.03562 0
M  V30 14798 H 1409.74 2.9397 1.33348 0
M  V30 14799 H 1408.79 3.67795 -0.971119 0
M  V30 14800 H 1410.1 4.87406 -1.06002 0
M  V30 14801 H 1409.26 5.98072 1.01957 0
M  V30 14802 H 1408 4.72796 1.19644 0
M  V30 14803 H 1407 5.40504 -1.00672 0
M  V30 14804 H 1408.23 6.68946 -1.16997 0
M  V30 14805 H 1406.17 6.4732 1.0636 0
M  V30 14806 H 1406.09 7.5545 -0.288317 0
M  V30 14807 H 1407.36 7.74453 0.885573 0
M  V30 14808 N 1411.59 0.596556 1.45873 0
M  V30 14809 C 1412.83 0.090321 2.042 0
M  V30 14810 C 1413.19 -1.25123 1.45631 0
M  V30 14811 O 1414.39 -1.84752 1.95243 0
M  V30 14812 C 1412.66 0.0400377 3.57378 0
M  V30 14813 S 1414.22 -0.40661 4.36912 0
M  V30 14814 H 1411.04 0.0441976 0.709625 0
M  V30 14815 H 1413.64 0.792175 1.78731 0
M  V30 14816 H 1412.34 1.02013 3.97519 0
M  V30 14817 H 1411.88 -0.684156 3.87405 0
M  V30 14818 H 1413.89 -1.65849 4.67663 0
M  V30 14819 N 1413.06 -1.53996 0.335095 0
M  V30 14820 C 1414.31 -2.01769 -0.257101 0
M  V30 14821 C 1414.66 -1.21883 -1.4887 0
M  V30 14822 O 1413.96 -0.295897 -1.89301 0
M  V30 14823 C 1414.15 -3.51769 -0.631907 0
M  V30 14824 C 1413.98 -4.46177 0.561818 0
M  V30 14825 C 1412.75 -4.9396 1.06451 0
M  V30 14826 C 1414.95 -4.94376 1.41763 0
M  V30 14827 N 1412.93 -5.72298 2.22144 0
M  V30 14828 C 1414.3 -5.70753 2.42158 0
M  V30 14829 C 1416.36 -4.76499 1.44406 0
M  V30 14830 C 1415.06 -6.31156 3.45014 0
M  V30 14831 C 1417.09 -5.37745 2.46139 0
M  V30 14832 C 1416.45 -6.13983 3.4526 0
M  V30 14833 H 1412.55 -0.779875 -0.0576132 0
M  V30 14834 H 1415.13 -1.88873 0.472746 0
M  V30 14835 H 1413.3 -3.64887 -1.33087 0
M  V30 14836 H 1415.03 -3.86295 -1.20656 0
M  V30 14837 H 1411.79 -4.69338 0.633942 0
M  V30 14838 H 1412.21 -6.16141 2.80534 0
M  V30 14839 H 1416.85 -4.17109 0.691369 0
M  V30 14840 H 1414.57 -6.89659 4.21184 0
M  V30 14841 H 1418.16 -5.25823 2.49 0
M  V30 14842 H 1417.04 -6.60532 4.2269 0
M  V30 14843 N 1414.54 -0.0635198 -1.57472 0
M  V30 14844 C 1415.47 0.942339 -2.07835 0
M  V30 14845 C 1416.45 1.29629 -0.981587 0
M  V30 14846 O 1417.64 1.40702 -1.25439 0
M  V30 14847 C 1414.76 2.25284 -2.52913 0
M  V30 14848 C 1413.81 2.05105 -3.73944 0
M  V30 14849 S 1414.64 1.31802 -5.19026 0
M  V30 14850 C 1415.8 2.64149 -5.67429 0
M  V30 14851 H 1416.03 0.513772 -2.92827 0
M  V30 14852 H 1413.56 0.149049 -1.53679 0
M  V30 14853 H 1415.52 3.00607 -2.79546 0
M  V30 14854 H 1414.18 2.65266 -1.68204 0
M  V30 14855 H 1413.38 3.02071 -4.03447 0
M  V30 14856 H 1412.98 1.3792 -3.47641 0
M  V30 14857 H 1415.27 3.60272 -5.73769 0
M  V30 14858 H 1416.21 2.39267 -6.66451 0
M  V30 14859 H 1416.62 2.70975 -4.9521 0
M  V30 14860 N 1416.02 1.56195 0.209972 0
M  V30 14861 C 1417.27 1.78941 0.930744 0
M  V30 14862 C 1417.58 0.634139 1.85035 0
M  V30 14863 O 1418.79 0.745524 2.61064 0
M  V30 14864 C 1417.24 3.16935 1.70529 0
M  V30 14865 C 1416.85 4.40221 0.83125 0
M  V30 14866 C 1418.6 3.49 2.41659 0
M  V30 14867 C 1416.5 5.69238 1.60381 0
M  V30 14868 H 1415.43 0.667176 0.351273 0
M  V30 14869 H 1418.08 1.82572 0.184341 0
M  V30 14870 H 1416.47 3.07513 2.49503 0
M  V30 14871 H 1417.64 4.60728 0.081227 0
M  V30 14872 H 1415.95 4.15756 0.231517 0
M  V30 14873 H 1418.55 4.42623 2.99982 0
M  V30 14874 H 1418.89 2.72042 3.15117 0
M  V30 14875 H 1419.43 3.59804 1.69665 0
M  V30 14876 H 1416.17 6.49121 0.912292 0
M  V30 14877 H 1415.69 5.52772 2.32815 0
M  V30 14878 H 1417.37 6.09827 2.16149 0
M  V30 14879 N 1417.5 -0.477127 1.50204 0
M  V30 14880 C 1418.77 -1.23837 1.51406 0
M  V30 14881 C 1419.15 -2.09551 0.255278 0
M  V30 14882 O 1418.5 -2.15437 -0.761535 0
M  V30 14883 C 1418.71 -2.0746 2.80644 0
M  V30 14884 C 1420.06 -2.65852 3.31071 0
M  V30 14885 O 1421.08 -2.17708 2.81925 0
M  V30 14886 O 1419.94 -3.53556 4.16726 0
M  V30 14887 H 1417.04 -0.561638 0.607036 0
M  V30 14888 H 1419.58 -0.489442 1.62489 0
M  V30 14889 H 1418.36 -1.44258 3.63738 0
M  V30 14890 H 1417.98 -2.895 2.72536 0
M  V30 14891 N 1418.98 -1.3968 -0.729882 0
M  V30 14892 C 1419.94 -1.38577 -1.82562 0
M  V30 14893 C 1420.94 -0.281994 -1.58308 0
M  V30 14894 O 1422.13 -0.540165 -1.65614 0
M  V30 14895 C 1419.26 -1.16343 -3.20433 0
M  V30 14896 H 1420.45 -2.36086 -1.84942 0
M  V30 14897 H 1418.01 -1.25319 -0.934063 0
M  V30 14898 H 1418.74 -0.195372 -3.23711 0
M  V30 14899 H 1418.53 -1.96282 -3.39435 0
M  V30 14900 H 1420.02 -1.18325 -4.00486 0
M  V30 14901 N 1420.45 0.960609 -1.2494 0
M  V30 14902 C 1421.73 1.68035 -1.00118 0
M  V30 14903 C 1422.11 2.057 0.474399 0
M  V30 14904 O 1421.46 1.76569 1.45036 0
M  V30 14905 C 1421.67 2.90708 -1.93106 0
M  V30 14906 C 1423.02 3.62792 -2.20606 0
M  V30 14907 O 1424.04 3.00778 -1.90816 0
M  V30 14908 O 1422.9 4.74443 -2.71231 0
M  V30 14909 H 1419.99 0.734939 -0.379202 0
M  V30 14910 H 1422.54 1.01407 -1.36069 0
M  V30 14911 H 1421.31 2.59619 -2.92769 0
M  V30 14912 H 1420.94 3.65068 -1.57515 0
M  V30 14913 N 1421.93 1.0643 1.16234 0
M  V30 14914 C 1423.16 0.802671 1.91238 0
M  V30 14915 C 1423.58 -0.637222 1.76978 0
M  V30 14916 O 1422.94 -1.44419 1.09603 0
M  V30 14917 C 1422.99 1.20389 3.3991 0
M  V30 14918 O 1422.09 0.343516 4.10967 0
M  V30 14919 H 1421.43 0.29323 0.595745 0
M  V30 14920 H 1423.96 1.42046 1.47255 0
M  V30 14921 H 1423.97 1.17604 3.90683 0
M  V30 14922 H 1422.65 2.2527 3.49608 0
M  V30 14923 H 1421.23 0.433051 3.70377 0
M  V30 14924 N 1423.41 -1.329 0.847073 0
M  V30 14925 C 1424.83 -1.50333 0.53593 0
M  V30 14926 C 1425.03 -1.78492 -0.93504 0
M  V30 14927 O 1424.08 -1.85001 -1.71846 0
M  V30 14928 C 1425.4 -2.65254 1.41636 0
M  V30 14929 C 1426.94 -2.79139 1.416 0
M  V30 14930 C 1427.42 -3.97131 2.28147 0
M  V30 14931 N 1428.91 -4.0438 2.25901 0
M  V30 14932 C 1429.64 -4.94893 2.89601 0
M  V30 14933 N 1429.14 -5.90466 3.62383 0
M  V30 14934 N 1430.93 -4.87955 2.79028 0
M  V30 14935 H 1423.08 -1.12886 1.79918 0
M  V30 14936 H 1425.35 -0.555707 0.768045 0
M  V30 14937 H 1425.05 -2.51151 2.46203 0
M  V30 14938 H 1424.93 -3.60856 1.09829 0
M  V30 14939 H 1427.31 -2.92669 0.378013 0
M  V30 14940 H 1427.4 -1.84273 1.77418 0
M  V30 14941 H 1427.04 -3.8436 3.32009 0
M  V30 14942 H 1426.97 -4.91258 1.89665 0
M  V30 14943 H 1429.46 -3.35986 1.72979 0
M  V30 14944 H 1429.77 -6.56212 4.08174 0
M  V30 14945 H 1428.12 -5.90516 3.66491 0
M  V30 14946 H 1431.31 -4.12258 2.21723 0
M  V30 14947 H 1431.48 -5.58295 3.28954 0
M  V30 14948 N 1424.89 -0.604284 -1.45555 0
M  V30 14949 C 1426.3 -0.183613 -1.85795 0
M  V30 14950 C 1426.65 1.25869 -1.50504 0
M  V30 14951 O 1425.78 1.9539 -0.930148 0
M  V30 14952 C 1426.37 -0.326455 -3.37224 0
M  V30 14953 C 1424.93 0.0394987 -3.76379 0
M  V30 14954 C 1424.08 -0.65243 -2.69516 0
M  V30 14955 H 1427.03 -0.811173 -1.36403 0
M  V30 14956 H 1427.05 0.442258 -3.77921 0
M  V30 14957 H 1426.56 -1.37627 -3.62878 0
M  V30 14958 H 1424.66 1.08862 -3.56342 0
M  V30 14959 H 1424.77 -0.35185 -4.77806 0
M  V30 14960 H 1423.14 -0.0904148 -2.54539 0
M  V30 14961 H 1423.92 -1.70432 -2.98007 0
M  V30 14962 N 1426.37 1.53816 -0.343257 0
M  V30 14963 C 1427.31 2.25011 0.513664 0
M  V30 14964 C 1428.28 1.24827 1.09578 0
M  V30 14965 O 1429.47 1.53558 1.13245 0
M  V30 14966 C 1426.61 3.02616 1.65885 0
M  V30 14967 C 1425.72 4.17653 1.10406 0
M  V30 14968 C 1424.86 4.82746 2.21653 0
M  V30 14969 C 1423.9 5.89853 1.63524 0
M  V30 14970 N 1423.03 6.48726 2.68512 0
M  V30 14971 H 1427.87 2.97832 -0.099997 0
M  V30 14972 H 1425.41 1.46973 -0.0611206 0
M  V30 14973 H 1427.37 3.45868 2.33304 0
M  V30 14974 H 1426 2.32092 2.2435 0
M  V30 14975 H 1425.05 3.79045 0.320819 0
M  V30 14976 H 1426.36 4.94691 0.638887 0
M  V30 14977 H 1425.52 5.29068 2.96938 0
M  V30 14978 H 1424.25 4.05131 2.71515 0
M  V30 14979 H 1423.26 5.42914 0.86745 0
M  V30 14980 H 1424.48 6.69375 1.14515 0
M  V30 14981 H 1422.43 5.73975 3.17629 0
M  V30 14982 H 1422.35 7.21236 2.26616 0
M  V30 14983 H 1423.62 6.99701 3.43567 0
M  V30 14984 N 1427.84 0.0718701 1.57436 0
M  V30 14985 C 1429.09 -0.597231 1.93493 0
M  V30 14986 C 1429.42 -1.69614 0.951906 0
M  V30 14987 O 1428.67 -1.95673 -0.0324554 0
M  V30 14988 C 1428.97 -1.21336 3.36173 0
M  V30 14989 C 1428.64 -0.240582 4.50258 0
M  V30 14990 C 1427.3 0.0270368 4.81192 0
M  V30 14991 C 1429.65 0.424924 5.19465 0
M  V30 14992 C 1426.98 0.967249 5.78672 0
M  V30 14993 C 1429.33 1.35346 6.17952 0
M  V30 14994 C 1428 1.62954 6.47304 0
M  V30 14995 H 1427.27 -0.218542 0.70804 0
M  V30 14996 H 1429.91 0.142762 1.90967 0
M  V30 14997 H 1428.22 -2.02909 3.35164 0
M  V30 14998 H 1429.92 -1.73836 3.61361 0
M  V30 14999 H 1426.51 -0.459352 4.26131 0
M  V30 15000 H 1430.69 0.231285 4.95761 0
M  V30 15001 H 1425.95 1.1884 5.99739 0
M  V30 15002 H 1430.12 1.87509 6.70681 0
M  V30 15003 H 1427.75 2.3597 7.2265 0
M  V30 15004 N 1429.32 -1.56304 -0.201686 0
M  V30 15005 C 1430.27 -1.94021 -1.24999 0
M  V30 15006 C 1431.24 -0.799926 -1.45569 0
M  V30 15007 O 1432.42 -1.05752 -1.58811 0
M  V30 15008 C 1429.56 -2.27935 -2.59113 0
M  V30 15009 C 1428.68 -3.54995 -2.46176 0
M  V30 15010 C 1427.81 -3.78262 -3.72949 0
M  V30 15011 C 1426.85 -4.9877 -3.54817 0
M  V30 15012 N 1425.99 -5.18325 -4.73586 0
M  V30 15013 H 1430.83 -2.834 -0.92134 0
M  V30 15014 H 1428.37 -1.40252 -0.44359 0
M  V30 15015 H 1430.32 -2.45613 -3.37239 0
M  V30 15016 H 1428.95 -1.41705 -2.90034 0
M  V30 15017 H 1428.01 -3.45401 -1.59381 0
M  V30 15018 H 1429.32 -4.43277 -2.28708 0
M  V30 15019 H 1428.47 -3.96144 -4.59516 0
M  V30 15020 H 1427.21 -2.88299 -3.93364 0
M  V30 15021 H 1426.22 -4.80818 -2.66635 0
M  V30 15022 H 1427.44 -5.90237 -3.35854 0
M  V30 15023 H 1425.39 -4.31308 -4.94277 0
M  V30 15024 H 1425.3 -6.00774 -4.58919 0
M  V30 15025 H 1426.57 -5.40659 -5.61523 0
M  V30 15026 N 1430.8 0.469154 -1.50455 0
M  V30 15027 C 1431.71 1.59271 -1.7225 0
M  V30 15028 C 1432.73 1.63119 -0.605668 0
M  V30 15029 O 1433.9 1.80952 -0.884222 0
M  V30 15030 C 1430.97 2.95475 -1.81372 0
M  V30 15031 C 1430.03 3.02 -3.05114 0
M  V30 15032 C 1429.26 4.31707 -3.13791 0
M  V30 15033 O 1429.48 5.2232 -2.29211 0
M  V30 15034 O 1428.42 4.43864 -4.06532 0
M  V30 15035 H 1432.24 1.43804 -2.67496 0
M  V30 15036 H 1429.83 0.648855 -1.34574 0
M  V30 15037 H 1431.71 3.76367 -1.89541 0
M  V30 15038 H 1430.39 3.11136 -0.893094 0
M  V30 15039 H 1429.29 2.20178 -3.02444 0
M  V30 15040 H 1430.63 2.91275 -3.96761 0
M  V30 15041 N 1432.28 1.40065 0.722464 0
M  V30 15042 C 1433.21 1.42532 1.84951 0
M  V30 15043 C 1434.19 0.287082 1.6766 0
M  V30 15044 O 1435.37 0.494715 1.87793 0
M  V30 15045 C 1432.5 1.28041 3.22836 0
M  V30 15046 C 1431.46 2.39396 3.54787 0
M  V30 15047 C 1430.78 2.09986 4.91742 0
M  V30 15048 C 1432.08 3.81729 3.56483 0
M  V30 15049 H 1433.78 2.36851 1.83144 0
M  V30 15050 H 1431.32 1.14005 0.879714 0
M  V30 15051 H 1433.28 1.28385 4.01367 0
M  V30 15052 H 1432 0.301947 3.25201 0
M  V30 15053 H 1430.66 2.3829 2.78592 0
M  V30 15054 H 1430.31 1.10547 4.90702 0
M  V30 15055 H 1430.01 2.84586 5.14086 0
M  V30 15056 H 1431.53 2.12 5.72615 0
M  V30 15057 H 1432.95 3.84696 4.25067 0
M  V30 15058 H 1431.34 4.55791 3.90351 0
M  V30 15059 H 1432.41 4.11807 2.56014 0
M  V30 15060 N 1433.76 -0.95397 1.25448 0
M  V30 15061 C 1434.72 -2.03231 1.0597 0
M  V30 15062 C 1435.72 -1.60795 0.0122855 0
M  V30 15063 O 1436.91 -1.7233 0.254533 0
M  V30 15064 C 1434.04 -3.35414 0.609105 0
M  V30 15065 H 1435.24 -2.21943 2.01696 0
M  V30 15066 H 1432.79 -1.13115 1.07864 0
M  V30 15067 H 1433.52 -3.22398 -0.350723 0
M  V30 15068 H 1433.31 -3.67564 1.36526 0
M  V30 15069 H 1434.8 -4.14664 0.49428 0
M  V30 15070 N 1435.24 -1.07045 -1.15668 0
M  V30 15071 C 1436.2 -0.69198 -2.18505 0
M  V30 15072 C 1437.2 0.266185 -1.58582 0
M  V30 15073 O 1438.39 0.0475566 -1.74135 0
M  V30 15074 C 1435.52 -0.0194196 -3.40894 0
M  V30 15075 H 1436.71 -1.60241 -2.53501 0
M  V30 15076 H 1434.27 -0.866598 -1.30076 0
M  V30 15077 H 1435 0.903398 -3.11463 0
M  V30 15078 H 1434.79 -0.708519 -3.85645 0
M  V30 15079 H 1436.28 0.230829 -4.16962 0
M  V30 15080 N 1436.71 1.32449 -0.85411 0
M  V30 15081 C 1437.62 2.32658 -0.301221 0
M  V30 15082 C 1438.64 1.64025 0.580673 0
M  V30 15083 O 1439.82 1.95568 0.481172 0
M  V30 15084 C 1436.88 3.43049 0.501803 0
M  V30 15085 C 1435.94 4.27374 -0.406166 0
M  V30 15086 C 1435.17 5.32494 0.358627 0
M  V30 15087 O 1435.4 5.4783 1.58865 0
M  V30 15088 O 1434.33 6.0127 -0.275291 0
M  V30 15089 H 1438.16 2.81838 -1.13143 0
M  V30 15090 H 1435.74 1.36063 -0.617032 0
M  V30 15091 H 1437.62 4.10375 0.957608 0
M  V30 15092 H 1436.3 2.9606 1.30882 0
M  V30 15093 H 1435.21 3.6286 -0.910136 0
M  V30 15094 H 1436.54 4.77887 -1.17835 0
M  V30 15095 N 1438.19 0.611994 1.45232 0
M  V30 15096 C 1439.44 0.108911 2.02207 0
M  V30 15097 C 1439.77 -1.26219 1.47983 0
M  V30 15098 O 1439.02 -1.84718 0.646368 0
M  V30 15099 C 1439.32 0.0243361 3.57392 0
M  V30 15100 C 1438.99 1.33168 4.30787 0
M  V30 15101 C 1437.65 1.68978 4.50555 0
M  V30 15102 C 1440 2.19549 4.72703 0
M  V30 15103 C 1437.33 2.90913 5.09496 0
M  V30 15104 C 1439.68 3.40737 5.32993 0
M  V30 15105 C 1438.34 3.76794 5.50983 0
M  V30 15106 H 1437.61 0.0398534 0.739927 0
M  V30 15107 H 1440.26 0.794492 1.74241 0
M  V30 15108 H 1438.57 -0.74453 3.84661 0
M  V30 15109 H 1440.26 -0.381139 3.99185 0
M  V30 15110 H 1436.85 1.04296 4.15717 0
M  V30 15111 H 1441.04 1.93181 4.57159 0
M  V30 15112 H 1436.29 3.1895 5.21614 0
M  V30 15113 H 1440.47 4.07919 5.64425 0
M  V30 15114 H 1438.09 4.71364 5.96423 0
M  V30 15115 N 1439.67 -1.53632 0.351409 0
M  V30 15116 C 1440.89 -2.0593 -0.246501 0
M  V30 15117 C 1441.32 -1.22419 -1.42812 0
M  V30 15118 O 1440.68 -0.239811 -1.79707 0
M  V30 15119 C 1440.73 -3.55021 -0.631862 0
M  V30 15120 O 1439.83 -3.74317 -1.73092 0
M  V30 15121 H 1439.17 -0.662839 -0.0392424 0
M  V30 15122 H 1441.7 -1.98196 0.507904 0
M  V30 15123 H 1441.71 -3.97795 -0.906831 0
M  V30 15124 H 1440.39 -4.15251 0.232224 0
M  V30 15125 H 1438.96 -3.43444 -1.4526 0
M  V30 15126 N 1441.15 -0.0802183 -1.57396 0
M  V30 15127 C 1442.56 0.276428 -1.57188 0
M  V30 15128 C 1442.76 1.69456 -1.09027 0
M  V30 15129 O 1441.82 2.40792 -0.75997 0
M  V30 15130 C 1443.13 0.0784079 -3.00598 0
M  V30 15131 C 1444.68 0.1473 -3.12653 0
M  V30 15132 C 1445.16 -0.0225423 -4.57994 0
M  V30 15133 N 1446.65 0.0327854 -4.63188 0
M  V30 15134 C 1447.38 -0.0740922 -5.73352 0
M  V30 15135 N 1446.88 -0.234966 -6.92401 0
M  V30 15136 N 1448.67 -0.0164241 -5.62098 0
M  V30 15137 H 1440.82 -1.00695 -1.87014 0
M  V30 15138 H 1443.08 -0.393402 -0.862519 0
M  V30 15139 H 1442.79 -0.900488 -3.39977 0
M  V30 15140 H 1442.66 0.82713 -3.6802 0
M  V30 15141 H 1445.05 1.11669 -2.73156 0
M  V30 15142 H 1445.13 -0.632666 -2.47853 0
M  V30 15143 H 1444.78 -0.988733 -4.98183 0
M  V30 15144 H 1444.71 0.776933 -5.20837 0
M  V30 15145 H 1447.2 0.15519 -3.77581 0
M  V30 15146 H 1447.51 -0.308435 -7.72184 0
M  V30 15147 H 1445.86 -0.270439 -6.94474 0
M  V30 15148 H 1449.05 0.108019 -4.67975 0
M  V30 15149 H 1449.22 -0.10317 -6.47918 0
M  V30 15150 N 1442.63 1.56409 0.193394 0
M  V30 15151 C 1443.56 1.89745 1.26776 0
M  V30 15152 C 1444.54 0.75773 1.43865 0
M  V30 15153 O 1445.72 1.0089 1.59228 0
M  V30 15154 C 1442.85 2.12913 2.63412 0
M  V30 15155 C 1441.89 3.35614 2.63183 0
M  V30 15156 S 1442.73 4.90686 2.14448 0
M  V30 15157 C 1443.88 5.16923 3.52904 0
M  V30 15158 H 1444.12 2.80575 0.983105 0
M  V30 15159 H 1441.65 1.4921 0.396965 0
M  V30 15160 H 1443.61 2.26943 3.42063 0
M  V30 15161 H 1442.27 1.2283 2.89088 0
M  V30 15162 H 1441.46 3.48957 3.63655 0
M  V30 15163 H 1441.06 3.20586 1.92615 0
M  V30 15164 H 1443.35 5.07548 4.48778 0
M  V30 15165 H 1444.3 6.18673 3.44455 0
M  V30 15166 H 1444.71 4.44555 3.47895 0
M  V30 15167 N 1444.1 -0.461169 1.50702 0
M  V30 15168 C 1445.07 -1.54032 1.69725 0
M  V30 15169 C 1446.07 -1.50445 0.567707 0
M  V30 15170 O 1447.26 -1.52889 0.834901 0
M  V30 15171 C 1444.39 -2.93642 1.73168 0
M  V30 15172 H 1445.58 -1.38478 2.66015 0
M  V30 15173 H 1443.13 -0.688235 1.40332 0
M  V30 15174 H 1443.87 -3.14629 0.786078 0
M  V30 15175 H 1443.65 -2.97652 2.55236 0
M  V30 15176 H 1445.14 -3.71972 1.89807 0
M  V30 15177 N 1445.58 -1.40446 -0.715026 0
M  V30 15178 C 1447 -1.22488 -1.02317 0
M  V30 15179 C 1447.2 -0.100481 -2.01249 0
M  V30 15180 O 1446.25 0.541447 -2.46626 0
M  V30 15181 C 1447.57 -2.56682 -1.56636 0
M  V30 15182 C 1449.11 -2.63699 -1.68617 0
M  V30 15183 C 1449.59 -3.98163 -2.26342 0
M  V30 15184 N 1451.08 -3.99907 -2.33727 0
M  V30 15185 C 1451.82 -5.00737 -2.79375 0
M  V30 15186 N 1451.31 -6.11961 -3.24771 0
M  V30 15187 N 1453.1 -4.88106 -2.78764 0
M  V30 15188 H 1445.26 -2.12317 -0.0592712 0
M  V30 15189 H 1447.52 -0.943823 -0.088895 0
M  V30 15190 H 1447.22 -3.39615 -0.914036 0
M  V30 15191 H 1447.1 -2.77809 -2.55151 0
M  V30 15192 H 1449.49 -1.81138 -2.32966 0
M  V30 15193 H 1449.57 -2.46402 -0.687004 0
M  V30 15194 H 1449.21 -4.81164 -1.62614 0
M  V30 15195 H 1449.14 -4.1279 -3.26974 0
M  V30 15196 H 1451.63 -3.19592 -2.01666 0
M  V30 15197 H 1451.94 -6.84787 -3.58171 0
M  V30 15198 H 1450.29 -6.15525 -3.22729 0
M  V30 15199 H 1453.48 -4.00307 -2.42635 0
M  V30 15200 H 1453.65 -5.66828 -3.14023 0
M  V30 15201 N 1447.06 0.947303 -1.25952 0
M  V30 15202 C 1448.34 1.66964 -1.01894 0
M  V30 15203 C 1448.72 2.06192 0.452555 0
M  V30 15204 O 1448.06 1.78098 1.43156 0
M  V30 15205 C 1448.27 2.88643 -1.96179 0
M  V30 15206 C 1449.62 3.60432 -2.24441 0
M  V30 15207 O 1450.65 2.98737 -1.93996 0
M  V30 15208 O 1449.51 4.7154 -2.76247 0
M  V30 15209 H 1446.6 0.730875 -0.386976 0
M  V30 15210 H 1449.15 0.999577 -1.37137 0
M  V30 15211 H 1447.92 2.565 -2.95506 0
M  V30 15212 H 1447.54 3.63377 -1.61379 0
M  V30 15213 N 1448.54 1.07657 1.15099 0
M  V30 15214 C 1449.95 0.823828 1.67541 0
M  V30 15215 C 1450.3 -0.650601 1.85099 0
M  V30 15216 O 1449.43 -1.50333 1.55657 0
M  V30 15217 C 1450.02 1.4889 3.04331 0
M  V30 15218 C 1448.58 1.28359 3.53837 0
M  V30 15219 C 1447.73 1.55659 2.2949 0
M  V30 15220 H 1450.68 1.23819 0.992699 0
M  V30 15221 H 1450.7 0.911848 3.69412 0
M  V30 15222 H 1450.21 2.56199 2.9152 0
M  V30 15223 H 1448.31 0.230864 3.71884 0
M  V30 15224 H 1448.42 2.00593 4.35085 0
M  V30 15225 H 1446.79 0.977755 2.35185 0
M  V30 15226 H 1447.57 2.64157 2.19263 0
M  V30 15227 N 1450.02 -1.31994 0.861122 0
M  V30 15228 C 1450.95 -2.27632 0.267681 0
M  V30 15229 C 1451.96 -1.52709 -0.564265 0
M  V30 15230 O 1453.15 -1.74239 -0.3877 0
M  V30 15231 C 1450.25 -3.32805 -0.639856 0
M  V30 15232 C 1449.42 -4.37116 0.157676 0
M  V30 15233 C 1448.48 -5.21832 -0.676624 0
M  V30 15234 O 1447.51 -5.69098 -0.107822 0
M  V30 15235 N 1448.71 -5.45317 -1.99022 0
M  V30 15236 H 1451.48 -2.79195 1.0895 0
M  V30 15237 H 1449.04 -1.44923 0.721733 0
M  V30 15238 H 1451.03 -3.86391 -1.20348 0
M  V30 15239 H 1449.6 -2.81351 -1.36236 0
M  V30 15240 H 1448.82 -3.83724 0.902741 0
M  V30 15241 H 1450.11 -5.03889 0.70524 0
M  V30 15242 H 1449.5 -5.08656 -2.47558 0
M  V30 15243 H 1448.06 -6.01874 -2.50182 0
M  V30 15244 N 1451.49 -0.619688 -1.44906 0
M  V30 15245 C 1452.91 -0.284338 -1.57047 0
M  V30 15246 C 1453.11 1.21284 -1.60911 0
M  V30 15247 O 1452.17 1.99642 -1.54594 0
M  V30 15248 C 1453.48 -0.966179 -2.84755 0
M  V30 15249 C 1455.03 -0.943239 -2.98449 0
M  V30 15250 C 1455.5 -1.60532 -4.28945 0
M  V30 15251 N 1456.99 -1.57138 -4.35732 0
M  V30 15252 C 1457.73 -2.05271 -5.35399 0
M  V30 15253 N 1457.22 -2.61543 -6.41535 0
M  V30 15254 N 1459.02 -1.95967 -5.26833 0
M  V30 15255 H 1451.17 -1.59167 -1.40641 0
M  V30 15256 H 1453.43 -0.667458 -0.673204 0
M  V30 15257 H 1453.14 -2.02086 -2.87844 0
M  V30 15258 H 1453.01 -0.49688 -3.73913 0
M  V30 15259 H 1455.4 0.102932 -2.9492 0
M  V30 15260 H 1455.48 -1.45092 -2.1067 0
M  V30 15261 H 1455.12 -2.65088 -4.33233 0
M  V30 15262 H 1455.05 -1.07256 -5.15561 0
M  V30 15263 H 1457.54 -1.16042 -3.59643 0
M  V30 15264 H 1457.86 -2.96033 -7.13852 0
M  V30 15265 H 1456.2 -2.65588 -6.42252 0
M  V30 15266 H 1459.39 -1.51734 -4.42825 0
M  V30 15267 H 1459.57 -2.33791 -6.04356 0
M  V30 15268 N 1452.97 1.53444 -0.359552 0
M  V30 15269 C 1454.2 2.05286 0.232615 0
M  V30 15270 C 1454.61 1.23322 1.43486 0
M  V30 15271 O 1453.95 0.265369 1.81773 0
M  V30 15272 C 1454.02 3.52698 0.695995 0
M  V30 15273 C 1453.68 4.55344 -0.388751 0
M  V30 15274 C 1454.68 5.04978 -1.23667 0
M  V30 15275 C 1452.36 4.9931 -0.547267 0
M  V30 15276 C 1454.36 5.97174 -2.2285 0
M  V30 15277 C 1452.04 5.91313 -1.54247 0
M  V30 15278 C 1453.04 6.40135 -2.38153 0
M  V30 15279 O 1452.73 7.30325 -3.35976 0
M  V30 15280 H 1452.46 0.674445 0.0458187 0
M  V30 15281 H 1455.01 1.98853 -0.514472 0
M  V30 15282 H 1453.24 3.5665 1.49459 0
M  V30 15283 H 1454.93 3.8743 1.21049 0
M  V30 15284 H 1455.7 4.71763 -1.12537 0
M  V30 15285 H 1451.58 4.609 0.0960246 0
M  V30 15286 H 1455.12 6.35204 -2.88378 0
M  V30 15287 H 1451.02 6.23942 -1.65427 0
M  V30 15288 H 1451.79 7.48305 -3.31635 0
M  V30 15289 N 1454.45 0.0885642 1.57351 0
M  V30 15290 C 1455.38 -0.869946 2.16689 0
M  V30 15291 C 1456.36 -1.29878 1.09844 0
M  V30 15292 O 1457.55 -1.36684 1.37954 0
M  V30 15293 C 1454.68 -2.13148 2.74199 0
M  V30 15294 C 1453.63 -1.84149 3.86359 0
M  V30 15295 C 1452.96 -3.17075 4.30543 0
M  V30 15296 C 1454.26 -1.13357 5.09851 0
M  V30 15297 H 1455.95 -0.375578 2.97035 0
M  V30 15298 H 1453.5 -0.17921 1.42881 0
M  V30 15299 H 1455.45 -2.80634 3.14361 0
M  V30 15300 H 1454.17 -2.64856 1.91098 0
M  V30 15301 H 1452.83 -1.19063 3.46727 0
M  V30 15302 H 1452.48 -3.66658 3.44342 0
M  V30 15303 H 1452.18 -2.98457 5.06159 0
M  V30 15304 H 1453.7 -3.85731 4.73333 0
M  V30 15305 H 1455.12 -1.70941 5.47222 0
M  V30 15306 H 1453.52 -1.0494 5.90853 0
M  V30 15307 H 1454.59 -0.115273 4.84763 0
M  V30 15308 N 1455.93 -1.56509 -0.185096 0
M  V30 15309 C 1457.17 -1.81474 -0.905263 0
M  V30 15310 C 1457.51 -0.664225 -1.82488 0
M  V30 15311 O 1456.78 0.33466 -1.91599 0
M  V30 15312 C 1457.07 -3.16754 -1.71287 0
M  V30 15313 C 1456.92 -4.42312 -0.817302 0
M  V30 15314 C 1458.24 -3.48828 -2.68342 0
M  V30 15315 H 1455.36 -0.660155 -0.327664 0
M  V30 15316 H 1458 -1.89219 -0.172129 0
M  V30 15317 H 1456.15 -3.10282 -2.33789 0
M  V30 15318 H 1457.82 -4.60839 -0.206218 0
M  V30 15319 H 1456.06 -4.33621 -0.124564 0
M  V30 15320 H 1456.73 -5.33487 -1.41758 0
M  V30 15321 H 1459.21 -3.55663 -2.15969 0
M  V30 15322 H 1458.09 -4.44585 -3.21924 0
M  V30 15323 H 1458.35 -2.72829 -3.47875 0
M  V30 15324 N 1457.41 0.45317 -1.50944 0
M  V30 15325 C 1458.66 1.20076 -1.62064 0
M  V30 15326 C 1458.97 1.92709 -0.335034 0
M  V30 15327 O 1460.17 2.69543 -0.32538 0
M  V30 15328 C 1458.63 2.18283 -2.86148 0
M  V30 15329 C 1458.24 1.5137 -4.21653 0
M  V30 15330 C 1459.98 2.93572 -3.0662 0
M  V30 15331 C 1457.89 2.47968 -5.36904 0
M  V30 15332 H 1456.82 0.451894 -0.603579 0
M  V30 15333 H 1459.47 0.46937 -1.77396 0
M  V30 15334 H 1457.85 2.94789 -2.64415 0
M  V30 15335 H 1459.03 0.805295 -4.53709 0
M  V30 15336 H 1457.34 0.882935 -4.06931 0
M  V30 15337 H 1459.94 3.65903 -3.89897 0
M  V30 15338 H 1460.28 3.54003 -2.1906 0
M  V30 15339 H 1460.81 2.24175 -3.28619 0
M  V30 15340 H 1457.55 1.92249 -6.26674 0
M  V30 15341 H 1457.07 3.16907 -5.09244 0
M  V30 15342 H 1458.75 3.09428 -5.6821 0
M  V30 15343 N 1458.88 1.40823 0.707568 0
M  V30 15344 C 1459.82 1.37646 1.83265 0
M  V30 15345 C 1460.83 0.280547 1.60365 0
M  V30 15346 O 1462.02 0.541453 1.7009 0
M  V30 15347 C 1459.12 1.12121 3.19816 0
M  V30 15348 C 1458.29 2.33522 3.69846 0
M  V30 15349 C 1457.35 2.04035 4.85032 0
M  V30 15350 O 1456.38 2.76971 4.97268 0
M  V30 15351 N 1457.58 1.02322 5.71411 0
M  V30 15352 H 1460.34 2.34612 1.86486 0
M  V30 15353 H 1457.9 1.35281 0.889424 0
M  V30 15354 H 1459.9 0.903663 3.94482 0
M  V30 15355 H 1458.47 0.237941 3.11693 0
M  V30 15356 H 1457.69 2.71055 2.86221 0
M  V30 15357 H 1458.97 3.14436 4.00009 0
M  V30 15358 H 1458.37 0.419311 5.64144 0
M  V30 15359 H 1456.93 0.865571 6.46027 0
M  V30 15360 N 1460.36 -0.94061 1.26453 0
M  V30 15361 C 1461.61 -1.68354 1.11809 0
M  V30 15362 C 1461.93 -1.9203 -0.339037 0
M  V30 15363 O 1461.2 -1.51739 -1.23903 0
M  V30 15364 H 1459.78 -0.623916 0.410777 0
M  V30 15365 H 1462.44 -1.13014 1.58789 0
M  V30 15366 H 1461.54 -2.65706 1.63728 0
M  V30 15367 N 1461.84 -1.08266 -1.14527 0
M  V30 15368 C 1463.12 -0.724254 -1.81697 0
M  V30 15369 C 1463.5 0.792212 -1.95671 0
M  V30 15370 O 1462.85 1.71017 -1.51543 0
M  V30 15371 C 1463.06 -1.44949 -3.17475 0
M  V30 15372 C 1464.4 -1.60761 -3.9299 0
M  V30 15373 O 1465.43 -1.41103 -3.2706 0
M  V30 15374 O 1464.29 -1.93184 -5.11216 0
M  V30 15375 H 1461.38 -0.258814 -0.785458 0
M  V30 15376 H 1463.93 -1.18414 -1.21557 0
M  V30 15377 H 1462.7 -2.48262 -3.02459 0
M  V30 15378 H 1462.32 -0.980993 -3.85308 0
M  V30 15379 N 1463.32 1.31536 -0.86811 0
M  V30 15380 C 1464.6 1.9149 -0.398866 0
M  V30 15381 C 1464.98 1.79008 1.1189 0
M  V30 15382 O 1464.32 1.19659 1.94664 0
M  V30 15383 C 1464.53 3.37771 -0.878173 0
M  V30 15384 C 1465.88 4.14882 -0.903216 0
M  V30 15385 O 1466.91 3.46545 -0.823703 0
M  V30 15386 O 1465.77 5.36936 -1.01794 0
M  V30 15387 H 1462.86 0.818398 -0.118971 0
M  V30 15388 H 1465.41 1.40216 -0.955899 0
M  V30 15389 H 1464.18 3.40861 -1.9217 0
M  V30 15390 H 1463.8 3.96472 -0.299346 0
M  V30 15391 N 1464.8 0.627364 1.44575 0
M  V30 15392 C 1466.21 0.292662 1.56894 0
M  V30 15393 C 1466.41 -1.20429 1.61552 0
M  V30 15394 O 1465.47 -1.98819 1.55651 0
M  V30 15395 C 1466.78 0.981267 2.84239 0
M  V30 15396 C 1468.33 0.959053 2.97945 0
M  V30 15397 C 1468.81 1.62805 4.28087 0
M  V30 15398 N 1470.3 1.59446 4.34892 0
M  V30 15399 C 1471.03 2.08107 5.34302 0
M  V30 15400 N 1470.53 2.64942 6.40139 0
M  V30 15401 N 1472.32 1.98758 5.25787 0
M  V30 15402 H 1464.47 1.5991 1.39795 0
M  V30 15403 H 1466.73 0.671019 0.669655 0
M  V30 15404 H 1466.44 2.0361 2.86768 0
M  V30 15405 H 1466.31 0.516703 3.73644 0
M  V30 15406 H 1468.7 -0.0872902 2.94971 0
M  V30 15407 H 1468.78 1.46207 2.09898 0
M  V30 15408 H 1468.43 2.67382 4.31821 0
M  V30 15409 H 1468.36 1.09989 5.14985 0
M  V30 15410 H 1470.85 1.17947 3.59022 0
M  V30 15411 H 1471.16 2.99814 7.12272 0
M  V30 15412 H 1469.51 2.68991 6.40835 0
M  V30 15413 H 1472.7 1.54081 4.42014 0
M  V30 15414 H 1472.87 2.36992 6.03107 0
M  V30 15415 N 1466.28 -1.53251 0.367684 0
M  V30 15416 C 1467.21 -2.22163 -0.521418 0
M  V30 15417 C 1468.19 -1.21433 -1.08133 0
M  V30 15418 O 1469.37 -1.50343 -1.13706 0
M  V30 15419 C 1466.5 -2.91799 -1.71962 0
M  V30 15420 C 1465.54 -4.0662 -1.28696 0
M  V30 15421 S 1466.38 -5.34733 -0.286505 0
M  V30 15422 C 1467.53 -6.07882 -1.49099 0
M  V30 15423 H 1467.77 -2.97231 0.0638317 0
M  V30 15424 H 1465.3 -1.53652 0.151795 0
M  V30 15425 H 1467.26 -3.32533 -2.40691 0
M  V30 15426 H 1465.92 -2.16451 -2.27613 0
M  V30 15427 H 1465.11 -4.54366 -2.181 0
M  V30 15428 H 1464.71 -3.67787 -0.67887 0
M  V30 15429 H 1467 -6.32741 -2.42167 0
M  V30 15430 H 1467.95 -7.00199 -1.05487 0
M  V30 15431 H 1468.36 -5.38357 -1.698 0
M  V30 15432 N 1467.75 -0.0969077 -1.57302 0
M  V30 15433 C 1468.7 0.861379 -2.14124 0
M  V30 15434 C 1469.67 1.27858 -1.06026 0
M  V30 15435 O 1470.86 1.36001 -1.33822 0
M  V30 15436 C 1468 2.11443 -2.72738 0
M  V30 15437 C 1467.11 1.7476 -3.95074 0
M  V30 15438 C 1466.24 2.94864 -4.41847 0
M  V30 15439 C 1465.28 2.54316 -5.56767 0
M  V30 15440 N 1464.42 3.67261 -5.98384 0
M  V30 15441 H 1469.26 0.369968 -2.95694 0
M  V30 15442 H 1466.8 0.170943 -1.46103 0
M  V30 15443 H 1468.75 2.84829 -3.04842 0
M  V30 15444 H 1467.38 2.5808 -1.93893 0
M  V30 15445 H 1466.44 0.91335 -3.69272 0
M  V30 15446 H 1467.75 1.40946 -4.78472 0
M  V30 15447 H 1466.9 3.76501 -4.75744 0
M  V30 15448 H 1465.64 3.31889 -3.57352 0
M  V30 15449 H 1464.65 1.71106 -5.22497 0
M  V30 15450 H 1465.87 2.18432 -6.43012 0
M  V30 15451 H 1463.82 4.04001 -5.16836 0
M  V30 15452 H 1463.73 3.37298 -6.76584 0
M  V30 15453 H 1465 4.49403 -6.36912 0
M  V30 15454 N 1469.23 1.56605 0.176793 0
M  V30 15455 C 1470.16 1.99014 1.2213 0
M  V30 15456 C 1471.14 0.86487 1.46472 0
M  V30 15457 O 1472.33 1.13055 1.57899 0
M  V30 15458 C 1469.46 2.34534 2.56146 0
M  V30 15459 C 1468.41 3.4997 2.46384 0
M  V30 15460 C 1467.74 3.71217 3.8484 0
M  V30 15461 C 1469.04 4.83592 1.97323 0
M  V30 15462 H 1470.73 2.86517 0.8688 0
M  V30 15463 H 1468.28 1.37846 0.416481 0
M  V30 15464 H 1470.23 2.62799 3.29416 0
M  V30 15465 H 1468.95 1.43933 2.93174 0
M  V30 15466 H 1467.61 3.21824 1.75569 0
M  V30 15467 H 1467.26 2.77916 4.19251 0
M  V30 15468 H 1466.96 4.48885 3.79178 0
M  V30 15469 H 1468.49 4.01877 4.59704 0
M  V30 15470 H 1469.9 5.10768 2.60363 0
M  V30 15471 H 1468.3 5.64858 2.02622 0
M  V30 15472 H 1469.37 4.75951 0.927275 0
M  V30 15473 N 1470.71 -0.445159 1.51182 0
M  V30 15474 C 1472.12 -1.02528 1.56028 0
M  V30 15475 C 1472.47 -1.92503 0.379087 0
M  V30 15476 O 1471.6 -2.10424 -0.505056 0
M  V30 15477 C 1472.19 -1.86621 2.82768 0
M  V30 15478 C 1470.75 -2.39697 2.90211 0
M  V30 15479 C 1469.9 -1.18705 2.50608 0
M  V30 15480 H 1472.85 -0.226732 1.57072 0
M  V30 15481 H 1472.87 -2.71987 2.66089 0
M  V30 15482 H 1472.38 -1.2111 3.68719 0
M  V30 15483 H 1470.48 -3.08686 2.08672 0
M  V30 15484 H 1470.6 -2.73029 3.9369 0
M  V30 15485 H 1468.96 -1.52995 2.03629 0
M  V30 15486 H 1469.74 -0.548156 3.38895 0
M  V30 15487 N 1472.19 -1.41197 -0.700089 0
M  V30 15488 C 1473.41 -1.43856 -1.494 0
M  V30 15489 C 1473.84 -0.0441877 -1.88048 0
M  V30 15490 O 1473.2 0.951503 -1.54325 0
M  V30 15491 C 1473.24 -2.34913 -2.73584 0
M  V30 15492 O 1472.35 -1.80305 -3.70896 0
M  V30 15493 H 1471.69 -0.488412 -0.449833 0
M  V30 15494 H 1474.22 -1.85606 -0.860911 0
M  V30 15495 H 1474.23 -2.50633 -3.21943 0
M  V30 15496 H 1472.9 -3.36229 -2.44791 0
M  V30 15497 H 1471.48 -1.74012 -3.29809 0
M  V30 15498 N 1473.67 0.933891 -1.2695 0
M  V30 15499 C 1475.08 1.49578 -1.11728 0
M  V30 15500 C 1475.43 1.93895 0.299889 0
M  V30 15501 O 1474.55 1.806 1.19216 0
M  V30 15502 C 1475.15 2.71841 -2.02208 0
M  V30 15503 C 1473.71 3.24274 -1.9111 0
M  V30 15504 C 1472.85 1.97029 -1.95128 0
M  V30 15505 H 1475.8 0.748628 -1.39933 0
M  V30 15506 H 1475.83 3.46407 -1.57425 0
M  V30 15507 H 1475.34 2.39556 -3.05343 0
M  V30 15508 H 1473.44 3.61333 -0.909367 0
M  V30 15509 H 1473.55 3.90887 -2.77027 0
M  V30 15510 H 1471.92 2.13249 -1.39273 0
M  V30 15511 H 1472.7 1.67066 -2.99907 0
M  V30 15512 N 1475.14 1.08871 1.13951 0
M  V30 15513 C 1476.09 0.71755 2.21255 0
M  V30 15514 C 1477.09 -0.278901 1.67088 0
M  V30 15515 O 1478.29 -0.140964 1.79447 0
M  V30 15516 H 1474.67 0.214032 0.720898 0
M  V30 15517 H 1476.64 1.63182 2.49828 0
M  V30 15518 C 1475.39 0.148098 3.47384 0
M  V30 15519 H 1474.71 0.906028 3.89398 0
M  V30 15520 H 1476.15 -0.0737451 4.23936 0
M  V30 15521 C 1474.61 -1.11524 3.17906 0
M  V30 15522 O 1475.14 -2.19937 3.3614 0
M  V30 15523 N 1473.34 -1.0275 2.71829 0
M  V30 15524 H 1472.89 -0.145193 2.5719 0
M  V30 15525 H 1472.85 -1.87353 2.5248 0
M  V30 15526 N 1476.62 -1.31073 0.875073 0
M  V30 15527 C 1477.9 -1.91276 0.409015 0
M  V30 15528 C 1478.28 -1.79599 -1.10939 0
M  V30 15529 O 1477.63 -1.2069 -1.94026 0
M  V30 15530 C 1477.84 -3.373 0.896074 0
M  V30 15531 C 1479.18 -4.14397 0.925205 0
M  V30 15532 O 1480.21 -3.46104 0.842069 0
M  V30 15533 O 1479.07 -5.36389 1.0464 0
M  V30 15534 H 1476.16 -0.817755 0.12331 0
M  V30 15535 H 1478.71 -1.39708 0.963322 0
M  V30 15536 H 1477.48 -3.39837 1.93975 0
M  V30 15537 H 1477.1 -3.96307 0.320367 0
M  V30 15538 N 1478.1 -0.635022 -1.4424 0
M  V30 15539 C 1479.33 -0.146549 -2.06882 0
M  V30 15540 C 1479.75 1.17143 -1.4717 0
M  V30 15541 O 1479.11 1.71952 -0.574636 0
M  V30 15542 C 1479.16 -0.0494694 -3.60566 0
M  V30 15543 O 1478.26 0.993423 -4.00256 0
M  V30 15544 H 1477.6 -0.0865505 -0.658335 0
M  V30 15545 H 1480.13 -0.872803 -1.85049 0
M  V30 15546 H 1480.14 0.139839 -4.0776 0
M  V30 15547 H 1478.82 -1.01169 -4.03407 0
M  V30 15548 H 1477.39 0.778372 -3.64686 0
M  V30 15549 N 1479.58 1.53054 -0.375806 0
M  V30 15550 C 1480.53 2.2605 0.46582 0
M  V30 15551 C 1481.5 1.27123 1.06906 0
M  V30 15552 O 1482.68 1.55926 1.09963 0
M  V30 15553 C 1479.82 3.06066 1.59429 0
M  V30 15554 C 1478.93 4.19901 1.01523 0
M  V30 15555 C 1478.07 4.87339 2.11363 0
M  V30 15556 C 1477.11 5.93189 1.50976 0
M  V30 15557 N 1476.24 6.54276 2.54692 0
M  V30 15558 H 1481.08 2.97553 -0.163149 0
M  V30 15559 H 1478.62 1.4681 -0.092282 0
M  V30 15560 H 1480.58 3.50739 2.25915 0
M  V30 15561 H 1479.21 2.36799 2.19377 0
M  V30 15562 H 1478.26 3.7964 0.240346 0
M  V30 15563 H 1479.57 4.95935 0.533812 0
M  V30 15564 H 1478.73 5.35247 2.85649 0
M  V30 15565 H 1477.47 4.10799 2.6286 0
M  V30 15566 H 1476.47 5.44632 0.752095 0
M  V30 15567 H 1477.7 6.71654 1.00291 0
M  V30 15568 H 1475.64 5.80584 3.05383 0
M  V30 15569 H 1475.56 7.2588 2.11267 0
M  V30 15570 H 1476.83 7.06831 3.28648 0
M  V30 15571 N 1481.06 0.105248 1.57248 0
M  V30 15572 C 1482.3 -0.556054 1.94716 0
M  V30 15573 C 1482.63 -1.67557 0.987669 0
M  V30 15574 O 1481.89 -1.95698 0.00905706 0
M  V30 15575 C 1482.19 -1.14178 3.38671 0
M  V30 15576 C 1481.85 -0.145022 4.50667 0
M  V30 15577 C 1480.51 0.129099 4.81027 0
M  V30 15578 C 1482.87 0.535015 5.18447 0
M  V30 15579 C 1480.19 1.08978 5.7649 0
M  V30 15580 C 1482.55 1.48423 6.14942 0
M  V30 15581 C 1481.21 1.76648 6.43702 0
M  V30 15582 H 1480.48 -0.203475 0.712516 0
M  V30 15583 H 1483.13 0.183237 1.90621 0
M  V30 15584 H 1481.43 -1.95754 3.39393 0
M  V30 15585 H 1483.13 -1.66132 3.64967 0
M  V30 15586 H 1479.72 -0.36886 4.2701 0
M  V30 15587 H 1483.9 0.336391 4.95159 0
M  V30 15588 H 1479.16 1.31535 5.97083 0
M  V30 15589 H 1483.33 2.01693 6.66553 0
M  V30 15590 H 1480.96 2.51245 7.17482 0
M  V30 15591 N 1482.53 -1.56697 -0.168486 0
M  V30 15592 C 1483.78 -1.82154 -0.884654 0
M  V30 15593 C 1484.11 -0.682778 -1.82122 0
M  V30 15594 O 1483.36 0.32977 -1.92902 0
M  V30 15595 C 1483.66 -3.138 -1.71068 0
M  V30 15596 C 1483.33 -4.41356 -0.922793 0
M  V30 15597 C 1481.99 -4.76002 -0.705352 0
M  V30 15598 C 1484.34 -5.19883 -0.370323 0
M  V30 15599 C 1481.67 -5.86651 0.0756121 0
M  V30 15600 C 1484.02 -6.31349 0.397568 0
M  V30 15601 C 1482.69 -6.6456 0.625782 0
M  V30 15602 H 1481.96 -0.666549 -0.323718 0
M  V30 15603 H 1484.6 -1.90916 -0.149432 0
M  V30 15604 H 1482.91 -3.00393 -2.51538 0
M  V30 15605 H 1484.61 -3.30708 -2.2679 0
M  V30 15606 H 1481.2 -4.14182 -1.10231 0
M  V30 15607 H 1485.38 -4.93509 -0.525646 0
M  V30 15608 H 1480.64 -6.10838 0.262137 0
M  V30 15609 H 1484.81 -6.91401 0.832902 0
M  V30 15610 H 1482.44 -7.50137 1.23281 0
M  V30 15611 N 1484.01 0.437135 -1.51416 0
M  V30 15612 C 1484.94 1.54894 -1.68939 0
M  V30 15613 C 1485.96 1.52493 -0.570059 0
M  V30 15614 O 1487.15 1.57266 -0.844381 0
M  V30 15615 C 1484.25 2.9381 -1.68904 0
M  V30 15616 C 1483.42 3.20714 -2.97425 0
M  V30 15617 C 1482.48 4.39355 -2.89575 0
M  V30 15618 O 1481.5 4.37999 -3.63519 0
M  V30 15619 N 1482.71 5.42931 -2.05441 0
M  V30 15620 H 1485.47 1.40267 -2.64849 0
M  V30 15621 H 1483.03 0.626075 -1.49305 0
M  V30 15622 H 1485.02 3.71201 -1.61221 0
M  V30 15623 H 1483.59 3.02034 -0.805871 0
M  V30 15624 H 1482.81 2.31621 -3.18975 0
M  V30 15625 H 1484.1 3.35516 -3.825 0
M  V30 15626 H 1483.5 5.4687 -1.44742 0
M  V30 15627 H 1482.06 6.19173 -2.03636 0
M  V30 15628 N 1485.49 1.41566 0.692592 0
M  V30 15629 C 1486.44 1.43857 1.82779 0
M  V30 15630 C 1487.43 0.316262 1.66422 0
M  V30 15631 O 1488.64 0.488433 1.73246 0
M  V30 15632 H 1485.01 0.450174 0.602368 0
M  V30 15633 H 1486.98 2.39524 1.77964 0
M  V30 15634 C 1485.73 1.34054 3.20819 0
M  V30 15635 H 1485.06 2.19701 3.34023 0
M  V30 15636 H 1486.5 1.39717 4.00319 0
M  V30 15637 C 1484.96 0.053218 3.36858 0
M  V30 15638 O 1485.49 -0.900928 3.91467 0
M  V30 15639 N 1483.69 -0.0238376 2.9059 0
M  V30 15640 H 1483.24 0.753374 2.46337 0
M  V30 15641 H 1483.2 -0.884571 3.017 0
M  V30 15642 N 1486.97 -0.927146 1.27443 0
M  V30 15643 C 1487.9 -2.04483 1.12735 0
M  V30 15644 C 1488.88 -1.70076 0.0286662 0
M  V30 15645 O 1490.06 -1.93133 0.203252 0
M  V30 15646 C 1487.19 -3.38557 0.774352 0
M  V30 15647 C 1486.15 -3.87078 1.82632 0
M  V30 15648 C 1485.47 -5.17964 1.32729 0
M  V30 15649 C 1486.77 -4.10409 3.23051 0
M  V30 15650 H 1488.47 -2.17046 2.06231 0
M  V30 15651 H 1486.01 -1.04292 0.992937 0
M  V30 15652 H 1487.97 -4.16227 0.658273 0
M  V30 15653 H 1486.69 -3.26009 -0.196321 0
M  V30 15654 H 1485.35 -3.11602 1.93132 0
M  V30 15655 H 1485 -5.01808 0.346059 0
M  V30 15656 H 1484.7 -5.51398 2.03061 0
M  V30 15657 H 1486.22 -5.98203 1.22416 0
M  V30 15658 H 1487.64 -4.78646 3.15549 0
M  V30 15659 H 1486.03 -4.5515 3.91099 0
M  V30 15660 H 1487.1 -3.15685 3.68064 0
M  V30 15661 N 1488.45 -1.09474 -1.13372 0
M  V30 15662 C 1489.38 -0.756441 -2.20908 0
M  V30 15663 C 1490.36 0.266113 -1.68006 0
M  V30 15664 O 1491.54 0.134067 -1.93737 0
M  V30 15665 C 1488.67 -0.176733 -3.4685 0
M  V30 15666 C 1487.63 -1.12886 -4.12845 0
M  V30 15667 C 1486.95 -0.410831 -5.33119 0
M  V30 15668 C 1488.25 -2.47148 -4.60125 0
M  V30 15669 H 1489.95 -1.65555 -2.49463 0
M  V30 15670 H 1487.49 -0.797458 -1.19902 0
M  V30 15671 H 1489.45 0.0720151 -4.21338 0
M  V30 15672 H 1488.17 0.757576 -3.17692 0
M  V30 15673 H 1486.83 -1.36289 -3.40325 0
M  V30 15674 H 1486.48 0.527632 -5.00225 0
M  V30 15675 H 1486.18 -1.04567 -5.78221 0
M  V30 15676 H 1487.7 -0.170394 -6.10362 0
M  V30 15677 H 1489.11 -2.27949 -5.26034 0
M  V30 15678 H 1487.51 -3.06425 -5.15969 0
M  V30 15679 H 1488.58 -3.07874 -3.74622 0
M  V30 15680 N 1489.92 1.30607 -0.882012 0
M  V30 15681 C 1491.2 1.91056 -0.419153 0
M  V30 15682 C 1491.58 1.80185 1.09985 0
M  V30 15683 O 1490.93 1.21717 1.93384 0
M  V30 15684 C 1491.14 3.3682 -0.913949 0
M  V30 15685 C 1492.49 4.13901 -0.947169 0
M  V30 15686 O 1493.51 3.45652 -0.860412 0
M  V30 15687 O 1492.37 5.35826 -1.07483 0
M  V30 15688 H 1489.46 0.81709 -0.127645 0
M  V30 15689 H 1492.01 1.39195 -0.970717 0
M  V30 15690 H 1490.78 3.38804 -1.95774 0
M  V30 15691 H 1490.41 3.96132 -0.34138 0
M  V30 15692 N 1491.4 0.642663 1.43901 0
M  V30 15693 C 1492.31 -0.0562462 2.34533 0
M  V30 15694 C 1493.33 -0.823457 1.53281 0
M  V30 15695 O 1494.5 -0.773103 1.85971 0
M  V30 15696 C 1491.57 -1.01787 3.31422 0
M  V30 15697 C 1490.63 -0.248759 4.28579 0
M  V30 15698 C 1489.86 -1.16458 5.20839 0
M  V30 15699 O 1490.09 -2.40361 5.17284 0
M  V30 15700 O 1489.02 -0.642671 5.98459 0
M  V30 15701 H 1492.85 0.689476 2.9577 0
M  V30 15702 H 1490.43 0.402847 1.43866 0
M  V30 15703 H 1492.31 -1.5708 3.91029 0
M  V30 15704 H 1490.99 -1.744 2.72702 0
M  V30 15705 H 1489.9 0.347495 3.72483 0
M  V30 15706 H 1491.23 0.437589 4.90251 0
M  V30 15707 N 1492.88 -1.52852 0.383918 0
M  V30 15708 C 1493.79 -2.3002 -0.461298 0
M  V30 15709 C 1494.81 -1.36717 -1.07631 0
M  V30 15710 O 1495.98 -1.69784 -1.08329 0
M  V30 15711 C 1493.05 -3.08804 -1.57609 0
M  V30 15712 C 1492.11 -4.17806 -0.986737 0
M  V30 15713 C 1491.34 -4.92825 -2.04841 0
M  V30 15714 O 1491.57 -4.67879 -3.26259 0
M  V30 15715 O 1490.5 -5.78306 -1.66871 0
M  V30 15716 H 1494.33 -3.03239 0.167189 0
M  V30 15717 H 1491.91 -1.48667 0.147781 0
M  V30 15718 H 1493.79 -3.57943 -2.22384 0
M  V30 15719 H 1492.47 -2.38404 -2.18964 0
M  V30 15720 H 1491.37 -3.72876 -0.302396 0
M  V30 15721 H 1492.71 -4.90426 -0.417481 0
M  V30 15722 N 1494.36 -0.113586 -1.5719 0
M  V30 15723 C 1495.64 0.588987 -1.86522 0
M  V30 15724 C 1496.02 1.85163 -1.01379 0
M  V30 15725 O 1495.36 2.28318 -0.0912188 0
M  V30 15726 C 1495.57 0.886633 -3.3755 0
M  V30 15727 C 1496.92 1.24206 -4.06027 0
M  V30 15728 O 1497.95 0.977068 -3.42537 0
M  V30 15729 O 1496.81 1.73914 -5.18089 0
M  V30 15730 H 1493.9 0.296637 -0.771968 0
M  V30 15731 H 1496.45 -0.147681 -1.69056 0
M  V30 15732 H 1495.22 -0.00835421 -3.91299 0
M  V30 15733 H 1494.84 1.67865 -3.60426 0
M  V30 15734 N 1495.84 1.56784 0.160173 0
M  V30 15735 C 1496.77 2.00298 1.20012 0
M  V30 15736 C 1497.75 0.880356 1.45546 0
M  V30 15737 O 1498.93 1.14724 1.56691 0
M  V30 15738 C 1496.06 2.37238 2.53645 0
M  V30 15739 C 1495.02 3.52563 2.42658 0
M  V30 15740 C 1494.34 3.75278 3.80881 0
M  V30 15741 C 1495.64 4.85657 1.92183 0
M  V30 15742 H 1497.34 2.87423 0.838362 0
M  V30 15743 H 1494.88 1.3828 0.401838 0
M  V30 15744 H 1496.84 2.66278 3.2661 0
M  V30 15745 H 1495.56 1.47035 2.9163 0
M  V30 15746 H 1494.22 3.23669 1.72146 0
M  V30 15747 H 1493.87 2.82347 4.1628 0
M  V30 15748 H 1493.57 4.52882 3.74396 0
M  V30 15749 H 1495.09 4.0673 4.55415 0
M  V30 15750 H 1496.51 5.13501 2.54931 0
M  V30 15751 H 1494.9 5.66975 1.96619 0
M  V30 15752 H 1495.97 4.76908 0.876742 0
M  V30 15753 N 1497.32 -0.429099 1.51646 0
M  V30 15754 C 1498.23 -1.54648 1.76412 0
M  V30 15755 C 1499.24 -1.61455 0.648703 0
M  V30 15756 O 1500.42 -1.78544 0.931888 0
M  V30 15757 C 1497.48 -2.90562 1.89142 0
M  V30 15758 C 1496.54 -2.93804 3.13014 0
M  V30 15759 C 1495.78 -4.23235 3.25127 0
M  V30 15760 O 1496 -5.1606 2.42979 0
M  V30 15761 O 1494.93 -4.32929 4.18158 0
M  V30 15762 H 1498.76 -1.36661 2.71215 0
M  V30 15763 H 1496.34 -0.612946 1.36247 0
M  V30 15764 H 1498.23 -3.7121 1.99453 0
M  V30 15765 H 1496.9 -3.08659 0.975272 0
M  V30 15766 H 1495.81 -2.12082 3.08175 0
M  V30 15767 H 1497.14 -2.80654 4.04344 0
M  V30 15768 N 1498.79 -1.41931 -0.685074 0
M  V30 15769 C 1500.07 -1.32338 -1.44035 0
M  V30 15770 C 1500.45 0.0441161 -2.11054 0
M  V30 15771 O 1499.8 1.05901 -2.02478 0
M  V30 15772 C 1500.01 -2.48429 -2.45121 0
M  V30 15773 C 1501.36 -2.90076 -3.10067 0
M  V30 15774 O 1502.38 -2.48245 -2.55447 0
M  V30 15775 O 1501.24 -3.62445 -4.09019 0
M  V30 15776 H 1498.33 -0.521361 -0.641959 0
M  V30 15777 H 1500.88 -1.53918 -0.714666 0
M  V30 15778 H 1499.65 -3.39637 -1.94326 0
M  V30 15779 H 1499.27 -2.28781 -3.25184 0
M  V30 15780 N 1500.27 0.920374 -1.27933 0
M  V30 15781 C 1501.2 2.0229 -1.05612 0
M  V30 15782 C 1502.18 1.6258 0.0257603 0
M  V30 15783 O 1503.37 1.88112 -0.120852 0
M  V30 15784 C 1500.49 3.33279 -0.603563 0
M  V30 15785 C 1499.54 3.91971 -1.6811 0
M  V30 15786 S 1500.37 4.23645 -3.27544 0
M  V30 15787 C 1501.53 5.57704 -2.84107 0
M  V30 15788 H 1501.76 2.20913 -1.98959 0
M  V30 15789 H 1499.29 1.06441 -1.11847 0
M  V30 15790 H 1501.25 4.09012 -0.349146 0
M  V30 15791 H 1499.91 3.12567 0.309962 0
M  V30 15792 H 1499.11 4.86518 -1.31592 0
M  V30 15793 H 1498.71 3.22849 -1.88797 0
M  V30 15794 H 1501 6.37313 -2.29866 0
M  V30 15795 H 1501.94 5.99129 -3.77426 0
M  V30 15796 H 1502.35 5.18576 -2.23024 0
M  V30 15797 N 1501.75 1.10074 1.1279 0
M  V30 15798 C 1502.68 0.690084 2.17516 0
M  V30 15799 C 1503.66 -0.306745 1.5968 0
M  V30 15800 O 1504.84 -0.206533 1.87365 0
M  V30 15801 C 1501.97 0.0176562 3.38695 0
M  V30 15802 C 1501.02 0.97736 4.1515 0
M  V30 15803 S 1501.85 2.49282 4.7394 0
M  V30 15804 C 1503.01 1.83299 5.98458 0
M  V30 15805 H 1503.24 1.57723 2.52013 0
M  V30 15806 H 1500.77 0.917373 1.24192 0
M  V30 15807 H 1502.73 -0.363992 4.08883 0
M  V30 15808 H 1501.39 -0.846237 3.02486 0
M  V30 15809 H 1500.58 0.454057 5.01951 0
M  V30 15810 H 1500.19 1.30073 3.50652 0
M  V30 15811 H 1502.48 1.16098 6.67478 0
M  V30 15812 H 1503.42 2.68041 6.55408 0
M  V30 15813 H 1503.83 1.29909 5.49349 0
M  V30 15814 N 1503.23 -1.30138 0.888926 0
M  V30 15815 C 1504.5 -1.90831 0.42928 0
M  V30 15816 C 1504.88 -1.80765 -1.09028 0
M  V30 15817 O 1504.23 -1.22741 -1.92735 0
M  V30 15818 C 1504.44 -3.36331 0.931798 0
M  V30 15819 C 1505.79 -4.13393 0.969106 0
M  V30 15820 O 1506.81 -3.45191 0.878731 0
M  V30 15821 O 1505.67 -5.35249 1.10323 0
M  V30 15822 H 1502.77 -0.816401 0.131976 0
M  V30 15823 H 1505.31 -1.38678 0.978086 0
M  V30 15824 H 1504.09 -3.37761 1.97568 0
M  V30 15825 H 1503.71 -3.95945 0.362383 0
M  V30 15826 N 1504.71 -0.650285 -1.43559 0
M  V30 15827 C 1505.67 0.0336325 -2.29175 0
M  V30 15828 C 1506.67 0.753465 -1.42055 0
M  V30 15829 O 1507.86 0.595158 -1.63718 0
M  V30 15830 C 1504.99 1.05835 -3.24055 0
M  V30 15831 H 1506.18 -0.719643 -2.91138 0
M  V30 15832 H 1503.74 -0.411363 -1.5079 0
M  V30 15833 H 1504.47 1.84096 -2.66982 0
M  V30 15834 H 1504.26 0.545884 -3.88281 0
M  V30 15835 H 1505.75 1.53606 -3.88323 0
M  V30 15836 N 1506.18 1.52647 -0.392018 0
M  V30 15837 C 1507.09 2.30261 0.449093 0
M  V30 15838 C 1508.11 1.37286 1.06905 0
M  V30 15839 O 1509.29 1.70357 1.07427 0
M  V30 15840 C 1506.35 3.09636 1.55969 0
M  V30 15841 C 1505.41 4.18324 0.964566 0
M  V30 15842 C 1504.64 4.93904 2.02224 0
M  V30 15843 O 1504.87 4.69603 3.23773 0
M  V30 15844 O 1503.8 5.79183 1.63802 0
M  V30 15845 H 1507.63 3.03147 -0.183269 0
M  V30 15846 H 1505.21 1.48587 -0.155664 0
M  V30 15847 H 1507.09 3.59118 2.20482 0
M  V30 15848 H 1505.77 2.39561 2.17697 0
M  V30 15849 H 1504.68 3.73031 0.282618 0
M  V30 15850 H 1506.01 4.90641 0.391466 0
M  V30 15851 N 1507.66 0.121921 1.57128 0
M  V30 15852 C 1508.57 -0.840825 2.19014 0
M  V30 15853 C 1509.59 -1.29051 1.16712 0
M  V30 15854 O 1510.76 -1.35289 1.49194 0
M  V30 15855 C 1507.83 -2.07204 2.7797 0
M  V30 15856 C 1506.89 -1.67399 3.95318 0
M  V30 15857 C 1506.12 -2.84652 4.51452 0
M  V30 15858 O 1506.35 -4.00161 4.06482 0
M  V30 15859 O 1505.28 -2.61568 5.42094 0
M  V30 15860 H 1509.11 -0.344146 3.01744 0
M  V30 15861 H 1506.69 -0.103841 1.49039 0
M  V30 15862 H 1508.57 -2.79307 3.1554 0
M  V30 15863 H 1507.25 -2.55872 1.9827 0
M  V30 15864 H 1506.16 -0.92395 3.62511 0
M  V30 15865 H 1507.49 -1.2347 4.76462 0
M  V30 15866 N 1509.14 -1.56867 -0.151857 0
M  V30 15867 C 1510.37 -1.86965 -0.879066 0
M  V30 15868 C 1510.78 -0.70756 -1.75471 0
M  V30 15869 O 1510.12 0.331966 -1.80676 0
M  V30 15870 C 1510.18 -3.11712 -1.79098 0
M  V30 15871 C 1509.85 -4.43737 -1.09298 0
M  V30 15872 C 1510.84 -5.17956 -0.449181 0
M  V30 15873 C 1508.53 -4.90465 -1.08394 0
M  V30 15874 C 1510.52 -6.37104 0.194342 0
M  V30 15875 C 1508.21 -6.09538 -0.436597 0
M  V30 15876 C 1509.21 -6.82703 0.201419 0
M  V30 15877 O 1508.9 -7.99515 0.838504 0
M  V30 15878 H 1508.63 -0.624074 -0.259822 0
M  V30 15879 H 1511.18 -2.04845 -0.150844 0
M  V30 15880 H 1509.41 -2.89828 -2.56002 0
M  V30 15881 H 1511.1 -3.28097 -2.38972 0
M  V30 15882 H 1511.87 -4.82926 -0.448012 0
M  V30 15883 H 1507.75 -4.33444 -1.56995 0
M  V30 15884 H 1511.29 -6.9415 0.69293 0
M  V30 15885 H 1507.19 -6.4403 -0.435417 0
M  V30 15886 H 1507.96 -8.15151 0.739688 0
M  V30 15887 N 1510.62 0.421051 -1.51871 0
M  V30 15888 C 1511.55 1.51928 -1.77313 0
M  V30 15889 C 1512.53 1.58258 -0.623579 0
M  V30 15890 O 1513.71 1.73724 -0.867967 0
M  V30 15891 C 1510.84 2.89865 -1.913 0
M  V30 15892 C 1509.8 2.98391 -3.06834 0
M  V30 15893 C 1509.12 4.38466 -3.06026 0
M  V30 15894 C 1510.42 2.7097 -4.46511 0
M  V30 15895 H 1512.12 1.30889 -2.69274 0
M  V30 15896 H 1509.66 0.628229 -1.29573 0
M  V30 15897 H 1511.62 3.66669 -2.07682 0
M  V30 15898 H 1510.34 3.12172 -0.960011 0
M  V30 15899 H 1509 2.24029 -2.90184 0
M  V30 15900 H 1508.65 4.57764 -2.08472 0
M  V30 15901 H 1508.35 4.45097 -3.83618 0
M  V30 15902 H 1509.87 5.17221 -3.24522 0
M  V30 15903 H 1511.29 3.37501 -4.63428 0
M  V30 15904 H 1509.68 2.88992 -5.25931 0
M  V30 15905 H 1510.75 1.66476 -4.55427 0
M  V30 15906 N 1512.1 1.42293 0.677538 0
M  V30 15907 C 1513.34 1.42827 1.43973 0
M  V30 15908 C 1513.68 0.0435041 1.94151 0
M  V30 15909 O 1512.95 -0.931794 1.70727 0
M  V30 15910 C 1513.23 2.45037 2.63873 0
M  V30 15911 C 1513.09 3.92694 2.19344 0
M  V30 15912 C 1514.41 2.4427 3.66087 0
M  V30 15913 H 1511.52 0.520097 0.522176 0
M  V30 15914 H 1514.17 1.73688 0.770219 0
M  V30 15915 H 1512.32 2.18851 3.20993 0
M  V30 15916 H 1513.99 4.2985 1.67412 0
M  V30 15917 H 1512.23 4.06692 1.50944 0
M  V30 15918 H 1512.9 4.59784 3.05455 0
M  V30 15919 H 1515.38 2.67551 3.18678 0
M  V30 15920 H 1514.25 3.17769 4.47564 0
M  V30 15921 H 1514.52 1.46769 4.17027 0
M  V30 15922 N 1513.57 -0.913576 1.28419 0
M  V30 15923 C 1514.99 -1.47782 1.14094 0
M  V30 15924 C 1515.34 -1.94347 -0.269004 0
M  V30 15925 O 1514.46 -1.82474 -1.16328 0
M  V30 15926 C 1515.06 -2.6859 2.06507 0
M  V30 15927 C 1513.62 -3.21193 1.96245 0
M  V30 15928 C 1512.76 -1.939 1.98238 0
M  V30 15929 H 1515.71 -0.726271 1.41106 0
M  V30 15930 H 1515.73 -3.43858 1.62916 0
M  V30 15931 H 1515.25 -2.34668 3.09116 0
M  V30 15932 H 1513.35 -3.5984 0.966737 0
M  V30 15933 H 1513.46 -3.8643 2.83211 0
M  V30 15934 H 1511.82 -2.11006 1.42648 0
M  V30 15935 H 1512.61 -1.62273 3.02527 0
M  V30 15936 N 1515.05 -1.1067 -1.12204 0
M  V30 15937 C 1515.98 -0.715581 -2.17743 0
M  V30 15938 C 1517 0.248892 -1.60886 0
M  V30 15939 O 1518.19 0.0329917 -1.7847 0
M  V30 15940 C 1515.29 -0.0356388 -3.38881 0
M  V30 15941 C 1514.46 -1.0249 -4.25223 0
M  V30 15942 C 1513.52 -0.375998 -5.24855 0
M  V30 15943 O 1512.54 -1.02753 -5.59849 0
M  V30 15944 N 1513.75 0.864525 -5.74026 0
M  V30 15945 H 1516.51 -1.62362 -2.5191 0
M  V30 15946 H 1514.07 -0.995851 -1.2765 0
M  V30 15947 H 1516.06 0.41 -4.02618 0
M  V30 15948 H 1514.63 0.77485 -3.02845 0
M  V30 15949 H 1513.85 -1.64874 -3.58065 0
M  V30 15950 H 1515.14 -1.69446 -4.79756 0
M  V30 15951 H 1514.54 1.41317 -5.47764 0
M  V30 15952 H 1513.1 1.25327 -6.39638 0
M  V30 15953 N 1516.53 1.29665 -0.895815 0
M  V30 15954 C 1517.49 2.26103 -0.3755 0
M  V30 15955 C 1518.49 1.53212 0.488126 0
M  V30 15956 O 1519.68 1.71706 0.293733 0
M  V30 15957 C 1516.82 3.37732 0.46364 0
M  V30 15958 H 1518.01 2.73643 -1.22718 0
M  V30 15959 H 1515.56 1.4104 -0.673613 0
M  V30 15960 H 1516.3 2.95526 1.33546 0
M  V30 15961 H 1516.08 3.91793 -0.155123 0
M  V30 15962 H 1517.57 4.09488 0.819112 0
M  V30 15963 N 1518.01 0.657889 1.43212 0
M  V30 15964 C 1519.26 0.173187 2.01758 0
M  V30 15965 C 1519.58 -1.21447 1.51924 0
M  V30 15966 O 1518.84 -1.82568 0.704807 0
M  V30 15967 C 1519.14 0.138025 3.57133 0
M  V30 15968 C 1518.8 1.46806 4.26332 0
M  V30 15969 C 1517.47 1.83227 4.44951 0
M  V30 15970 C 1519.82 2.34476 4.65478 0
M  V30 15971 C 1517.15 3.06975 4.99983 0
M  V30 15972 C 1519.5 3.57521 5.21883 0
M  V30 15973 C 1518.16 3.94132 5.38717 0
M  V30 15974 H 1517.43 0.0633735 0.738285 0
M  V30 15975 H 1520.08 0.849524 1.71626 0
M  V30 15976 H 1518.38 -0.621776 3.86835 0
M  V30 15977 H 1520.08 -0.253948 4.00195 0
M  V30 15978 H 1516.67 1.17469 4.12188 0
M  V30 15979 H 1520.85 2.07628 4.50782 0
M  V30 15980 H 1516.11 3.35383 5.11202 0
M  V30 15981 H 1520.28 4.25669 5.51161 0
M  V30 15982 H 1517.91 4.901 5.81125 0
M  V30 15983 N 1519.49 -1.52437 0.400108 0
M  V30 15984 C 1520.43 -2.28312 -0.444572 0
M  V30 15985 C 1521.43 -1.32641 -1.0537 0
M  V30 15986 O 1522.63 -1.50136 -0.99293 0
M  V30 15987 H 1519.01 -0.734313 -0.162137 0
M  V30 15988 H 1520.98 -2.97612 0.216702 0
M  V30 15989 C 1519.73 -3.11044 -1.55393 0
M  V30 15990 H 1519.05 -3.84525 -1.09455 0
M  V30 15991 H 1520.49 -3.67255 -2.11896 0
M  V30 15992 C 1518.95 -2.24035 -2.51614 0
M  V30 15993 O 1519.48 -1.87447 -3.55284 0
M  V30 15994 N 1517.69 -1.87982 -2.2161 0
M  V30 15995 H 1517.23 -2.17936 -1.37338 0
M  V30 15996 H 1517.19 -1.30058 -2.86238 0
M  V30 15997 N 1520.96 -0.130252 -1.57061 0
M  V30 15998 C 1522.21 0.52488 -1.94751 0
M  V30 15999 C 1522.53 1.67107 -1.0166 0
M  V30 16000 O 1523.73 2.38971 -1.28861 0
M  V30 16001 C 1522.19 0.985118 -3.46155 0
M  V30 16002 C 1521.8 -0.133222 -4.47802 0
M  V30 16003 C 1523.54 1.61099 -3.92743 0
M  V30 16004 C 1521.45 0.344346 -5.90397 0
M  V30 16005 H 1520.38 0.19985 -0.727032 0
M  V30 16006 H 1523.03 -0.211912 -1.82272 0
M  V30 16007 H 1521.41 1.77667 -3.53907 0
M  V30 16008 H 1522.58 -0.909784 -4.5173 0
M  V30 16009 H 1520.9 -0.666449 -4.11032 0
M  V30 16010 H 1523.5 1.97963 -4.96704 0
M  V30 16011 H 1523.84 2.49366 -3.3335 0
M  V30 16012 H 1524.37 0.884641 -3.87839 0
M  V30 16013 H 1521.11 -0.502547 -6.53571 0
M  V30 16014 H 1520.63 1.08714 -5.89865 0
M  V30 16015 H 1522.31 0.801885 -6.42012 0
M  V30 16016 N 1522.44 1.56945 0.143535 0
M  V30 16017 C 1523.85 1.72949 0.703249 0
M  V30 16018 C 1524.21 0.745193 1.81497 0
M  V30 16019 O 1523.33 -0.0874144 2.16223 0
M  V30 16020 C 1523.93 3.1359 1.28244 0
M  V30 16021 C 1522.48 3.31184 1.78869 0
M  V30 16022 C 1521.63 2.6887 0.678531 0
M  V30 16023 H 1524.58 1.58487 -0.0821664 0
M  V30 16024 H 1524.6 3.13782 2.15224 0
M  V30 16025 H 1524.12 3.85206 0.473087 0
M  V30 16026 H 1522.22 2.64571 2.6236 0
M  V30 16027 H 1522.33 4.39163 1.91502 0
M  V30 16028 H 1520.69 2.29432 1.10603 0
M  V30 16029 H 1521.48 3.43092 -0.119437 0
M  V30 16030 N 1523.92 -0.412991 1.52093 0
M  V30 16031 C 1525.33 -0.991955 1.58168 0
M  V30 16032 C 1525.68 -1.91655 0.419834 0
M  V30 16033 O 1524.81 -2.11448 -0.460308 0
M  V30 16034 C 1525.4 -1.80581 2.86663 0
M  V30 16035 C 1523.96 -2.33487 2.9523 0
M  V30 16036 C 1523.11 -1.13362 2.5307 0
M  V30 16037 H 1526.06 -0.193364 1.57518 0
M  V30 16038 H 1526.08 -2.66282 2.71798 0
M  V30 16039 H 1525.59 -1.13262 3.71205 0
M  V30 16040 H 1523.69 -3.0419 2.15173 0
M  V30 16041 H 1523.81 -2.64617 3.99393 0
M  V30 16042 H 1522.17 -1.48641 2.06828 0
M  V30 16043 H 1522.95 -0.476148 3.39982 0
M  V30 16044 N 1525.4 -1.4265 -0.669982 0
M  V30 16045 C 1526.81 -1.38614 -1.25072 0
M  V30 16046 C 1527.16 -0.0818051 -1.96029 0
M  V30 16047 O 1526.29 0.81931 -2.0029 0
M  V30 16048 C 1526.88 -2.51085 -2.27469 0
M  V30 16049 C 1525.44 -2.50366 -2.81059 0
M  V30 16050 C 1524.59 -2.29632 -1.5545 0
M  V30 16051 H 1527.54 -1.51794 -0.463058 0
M  V30 16052 H 1527.56 -2.21612 -3.09303 0
M  V30 16053 H 1527.07 -3.46002 -1.75796 0
M  V30 16054 H 1525.17 -1.5928 -3.36839 0
M  V30 16055 H 1525.29 -3.47569 -3.29746 0
M  V30 16056 H 1523.65 -1.77982 -1.82193 0
M  V30 16057 H 1524.43 -3.26611 -1.05736 0
M  V30 16058 N 1526.88 0.906753 -1.28902 0
M  V30 16059 C 1528.13 1.65119 -1.15839 0
M  V30 16060 C 1528.44 1.93426 0.290825 0
M  V30 16061 O 1529.65 2.66021 0.542678 0
M  V30 16062 C 1528.1 2.97492 -2.0255 0
M  V30 16063 C 1527.71 2.76807 -3.52253 0
M  V30 16064 C 1529.45 3.75393 -1.98192 0
M  V30 16065 C 1527.36 4.04863 -4.31091 0
M  V30 16066 H 1526.29 0.619409 -0.429939 0
M  V30 16067 H 1528.94 1.00567 -1.53488 0
M  V30 16068 H 1527.32 3.63217 -1.57763 0
M  V30 16069 H 1528.5 2.19719 -4.05044 0
M  V30 16070 H 1526.81 2.1231 -3.58209 0
M  V30 16071 H 1529.41 4.70325 -2.54358 0
M  V30 16072 H 1529.75 4.05074 -0.960267 0
M  V30 16073 H 1530.29 3.16498 -2.40985 0
M  V30 16074 H 1527.02 3.80353 -5.33865 0
M  V30 16075 H 1526.54 4.61537 -3.83072 0
M  V30 16076 H 1528.22 4.73066 -4.41381 0
M  V30 16077 N 1528.36 1.11264 1.11616 0
M  V30 16078 C 1529.59 0.881522 1.8685 0
M  V30 16079 C 1529.99 -0.572088 1.80344 0
M  V30 16080 O 1529.34 -1.40665 1.18148 0
M  V30 16081 C 1529.4 1.26245 3.36604 0
M  V30 16082 C 1529.06 2.72485 3.6688 0
M  V30 16083 C 1530.06 3.70708 3.64516 0
M  V30 16084 C 1527.74 3.09086 3.95943 0
M  V30 16085 C 1529.74 5.0355 3.90789 0
M  V30 16086 C 1527.43 4.42114 4.21875 0
M  V30 16087 C 1528.42 5.39155 4.19286 0
M  V30 16088 O 1528.11 6.69787 4.44568 0
M  V30 16089 H 1527.84 0.315647 0.597782 0
M  V30 16090 H 1530.4 1.48317 1.42095 0
M  V30 16091 H 1528.63 0.603938 3.81955 0
M  V30 16092 H 1530.32 1.00744 3.93199 0
M  V30 16093 H 1531.08 3.43776 3.42115 0
M  V30 16094 H 1526.96 2.34171 3.97095 0
M  V30 16095 H 1530.51 5.79285 3.88684 0
M  V30 16096 H 1526.4 4.6878 4.43751 0
M  V30 16097 H 1527.17 6.75548 4.62144 0
M  V30 16098 N 1529.83 -1.29188 0.902679 0
M  V30 16099 C 1531.06 -1.99576 0.545635 0
M  V30 16100 C 1531.48 -1.67541 -0.870372 0
M  V30 16101 O 1530.83 -0.922082 -1.57493 0
M  V30 16102 C 1530.88 -3.54013 0.731916 0
M  V30 16103 O 1530.61 -3.84914 2.09219 0
M  V30 16104 C 1532.11 -4.41666 0.38022 0
M  V30 16105 H 1529.33 -0.637593 0.209083 0
M  V30 16106 H 1531.87 -1.64652 1.21284 0
M  V30 16107 H 1530.03 -3.87239 0.111849 0
M  V30 16108 H 1530.44 -4.79581 2.12373 0
M  V30 16109 H 1531.91 -5.49138 0.561382 0
M  V30 16110 H 1532.39 -4.33858 -0.682915 0
M  V30 16111 H 1533 -4.13918 0.977354 0
M  V30 16112 N 1531.31 -0.665475 -1.42861 0
M  V30 16113 C 1532.54 -0.190399 -2.06524 0
M  V30 16114 C 1532.96 1.13995 -1.49622 0
M  V30 16115 O 1532.32 1.70695 -0.610981 0
M  V30 16116 C 1532.37 -0.12594 -3.6038 0
M  V30 16117 O 1531.47 0.908299 -4.02273 0
M  V30 16118 H 1530.81 -0.100495 -0.656351 0
M  V30 16119 H 1533.34 -0.911858 -1.83156 0
M  V30 16120 H 1533.35 0.0533153 -4.07965 0
M  V30 16121 H 1532.03 -1.09703 -4.01171 0
M  V30 16122 H 1530.6 0.700841 -3.66255 0
M  V30 16123 N 1532.79 1.52222 -0.408187 0
M  V30 16124 C 1534.21 1.59491 -0.0590201 0
M  V30 16125 C 1534.41 1.42109 1.42854 0
M  V30 16126 O 1533.46 1.24757 2.19527 0
M  V30 16127 C 1534.77 2.9557 -0.553093 0
M  V30 16128 C 1536.32 3.08801 -0.510986 0
M  V30 16129 C 1536.8 4.47358 -0.981554 0
M  V30 16130 N 1538.29 4.53596 -0.938335 0
M  V30 16131 C 1539.02 5.59076 -1.27364 0
M  V30 16132 N 1538.52 6.72113 -1.68035 0
M  V30 16133 N 1540.31 5.49279 -1.19367 0
M  V30 16134 H 1532.46 1.61768 -1.37641 0
M  V30 16135 H 1534.73 0.760959 -0.565372 0
M  V30 16136 H 1534.43 3.13566 -1.59276 0
M  V30 16137 H 1534.31 3.77181 0.0377629 0
M  V30 16138 H 1536.69 2.90489 0.519637 0
M  V30 16139 H 1536.77 2.29098 -1.13788 0
M  V30 16140 H 1536.42 4.66413 -2.0105 0
M  V30 16141 H 1536.35 5.25556 -0.331478 0
M  V30 16142 H 1538.84 3.72453 -0.639297 0
M  V30 16143 H 1539.15 7.48586 -1.91934 0
M  V30 16144 H 1537.5 6.73396 -1.71938 0
M  V30 16145 H 1540.69 4.59853 -0.8748 0
M  V30 16146 H 1540.86 6.31378 -1.45829 0
M  V30 16147 N 1534.27 0.138579 1.5699 0
M  V30 16148 C 1535.23 -0.79013 2.1515 0
M  V30 16149 C 1536.23 -1.1811 1.09117 0
M  V30 16150 O 1537.42 -1.1034 1.34798 0
M  V30 16151 C 1534.55 -2.07109 2.70774 0
M  V30 16152 H 1535.75 -0.284343 2.98549 0
M  V30 16153 H 1533.3 -0.11081 1.55907 0
M  V30 16154 H 1534.03 -2.62074 1.91018 0
M  V30 16155 H 1533.82 -1.80004 3.4834 0
M  V30 16156 H 1535.31 -2.73456 3.15613 0
M  V30 16157 N 1535.75 -1.57019 -0.13521 0
M  V30 16158 C 1537.16 -1.51949 -0.48824 0
M  V30 16159 C 1537.36 -0.848955 -1.82743 0
M  V30 16160 O 1536.42 -0.424441 -2.48907 0
M  V30 16161 C 1537.73 -2.96719 -0.487673 0
M  V30 16162 C 1539.28 -3.07722 -0.572365 0
M  V30 16163 C 1539.75 -4.54022 -0.602347 0
M  V30 16164 N 1541.24 -4.58413 -0.664242 0
M  V30 16165 C 1541.98 -5.69005 -0.70862 0
M  V30 16166 N 1541.48 -6.89135 -0.711626 0
M  V30 16167 N 1543.27 -5.57069 -0.750399 0
M  V30 16168 H 1535.42 -1.99001 0.742465 0
M  V30 16169 H 1537.68 -0.908116 0.272083 0
M  V30 16170 H 1537.39 -3.49082 0.428363 0
M  V30 16171 H 1537.26 -3.53299 -1.32136 0
M  V30 16172 H 1539.65 -2.55372 -1.47882 0
M  V30 16173 H 1539.73 -2.54166 0.288696 0
M  V30 16174 H 1539.37 -5.07013 0.3 0
M  V30 16175 H 1539.3 -5.05373 -1.48006 0
M  V30 16176 H 1541.8 -3.71936 -0.668739 0
M  V30 16177 H 1542.11 -7.69175 -0.747663 0
M  V30 16178 H 1540.45 -6.91672 -0.679311 0
M  V30 16179 H 1543.64 -4.62129 -0.745301 0
M  V30 16180 H 1543.82 -6.4327 -0.781518 0
M  V30 16181 N 1537.22 0.404919 -1.52309 0
M  V30 16182 C 1538.47 1.14859 -1.65802 0
M  V30 16183 C 1538.79 1.91546 -0.396174 0
M  V30 16184 O 1539.99 2.68372 -0.410969 0
M  V30 16185 C 1538.45 2.09068 -2.92948 0
M  V30 16186 C 1538.06 1.37878 -4.26255 0
M  V30 16187 C 1539.8 2.83669 -3.15804 0
M  V30 16188 C 1537.71 2.30761 -5.44521 0
M  V30 16189 H 1536.64 0.432463 -0.61765 0
M  V30 16190 H 1539.29 0.412695 -1.78799 0
M  V30 16191 H 1537.67 2.86228 -2.7366 0
M  V30 16192 H 1538.84 0.660543 -4.56041 0
M  V30 16193 H 1537.16 0.753026 -4.09534 0
M  V30 16194 H 1539.76 3.53313 -4.0134 0
M  V30 16195 H 1540.1 3.46855 -2.30212 0
M  V30 16196 H 1540.63 2.13607 -3.35584 0
M  V30 16197 H 1537.37 1.72214 -6.32473 0
M  V30 16198 H 1536.89 3.00546 -5.19069 0
M  V30 16199 H 1538.57 2.91195 -5.77767 0
M  V30 16200 N 1538.7 1.43003 0.662408 0
M  V30 16201 C 1539.98 1.34613 1.41911 0
M  V30 16202 C 1540.36 -0.0105336 2.11097 0
M  V30 16203 O 1539.71 -1.02667 2.04137 0
M  V30 16204 C 1539.92 2.52297 2.41137 0
M  V30 16205 C 1541.27 2.94972 3.05412 0
M  V30 16206 O 1542.29 2.52277 2.51465 0
M  V30 16207 O 1541.15 3.68906 4.03201 0
M  V30 16208 H 1538.24 0.531508 0.633583 0
M  V30 16209 H 1540.79 1.55035 0.690088 0
M  V30 16210 H 1539.56 3.42685 1.88898 0
M  V30 16211 H 1539.18 2.33926 3.21503 0
M  V30 16212 N 1540.18 -0.899904 1.29381 0
M  V30 16213 C 1541.41 -1.68911 1.20349 0
M  V30 16214 C 1541.83 -1.86657 -0.232523 0
M  V30 16215 O 1541.19 -1.38674 -1.16787 0
M  V30 16216 C 1541.24 -3.05124 1.92177 0
M  V30 16217 O 1540.34 -3.93358 1.23867 0
M  V30 16218 H 1539.68 -0.516698 0.417036 0
M  V30 16219 H 1542.21 -1.12422 1.70946 0
M  V30 16220 H 1542.22 -3.55267 2.00623 0
M  V30 16221 H 1540.9 -2.91525 2.96624 0
M  V30 16222 H 1539.47 -3.51793 1.23677 0
M  V30 16223 N 1541.66 -1.11854 -1.11024 0
M  V30 16224 C 1542.61 -0.77596 -2.19275 0
M  V30 16225 C 1543.6 0.234503 -1.67769 0
M  V30 16226 O 1544.81 0.0933372 -1.79758 0
M  V30 16227 H 1541.18 -0.23307 -0.71497 0
M  V30 16228 H 1543.15 -1.69749 -2.45414 0
M  V30 16229 C 1541.9 -0.240148 -3.4687 0
M  V30 16230 H 1541.22 -1.00895 -3.86859 0
M  V30 16231 H 1542.66 -0.0386799 -4.23982 0
M  V30 16232 C 1541.12 1.03056 -3.20751 0
M  V30 16233 O 1541.65 2.10948 -3.41854 0
M  V30 16234 N 1539.86 0.955066 -2.74457 0
M  V30 16235 H 1539.41 0.0769523 -2.57485 0
M  V30 16236 H 1539.36 1.80593 -2.57359 0
M  V30 16237 N 1543.14 1.28707 -0.909517 0
M  V30 16238 C 1544.55 1.47605 -0.607045 0
M  V30 16239 C 1544.75 1.8275 0.848815 0
M  V30 16240 O 1543.81 1.92989 1.62823 0
M  V30 16241 C 1545.12 2.58194 -1.54131 0
M  V30 16242 C 1546.67 2.72065 -1.54757 0
M  V30 16243 C 1547.14 3.85793 -2.46835 0
M  V30 16244 N 1548.64 3.93141 -2.44937 0
M  V30 16245 C 1549.37 4.80512 -3.12883 0
M  V30 16246 N 1548.87 5.72504 -3.90142 0
M  V30 16247 N 1550.66 4.74086 -3.01991 0
M  V30 16248 H 1542.81 1.04174 -1.85099 0
M  V30 16249 H 1545.07 0.51843 -0.793684 0
M  V30 16250 H 1544.78 2.39119 -2.57905 0
M  V30 16251 H 1544.65 3.55205 -1.26921 0
M  V30 16252 H 1547.04 2.90532 -0.517219 0
M  V30 16253 H 1547.12 1.75598 -1.86008 0
M  V30 16254 H 1546.77 3.68082 -3.49969 0
M  V30 16255 H 1546.7 4.8165 -2.12888 0
M  V30 16256 H 1549.19 3.2735 -1.88813 0
M  V30 16257 H 1549.5 6.3599 -4.39017 0
M  V30 16258 H 1547.84 5.72358 -3.94248 0
M  V30 16259 H 1551.04 4.01209 -2.4114 0
M  V30 16260 H 1551.21 5.41964 -3.55217 0
M  V30 16261 N 1544.61 0.673042 1.42506 0
M  V30 16262 C 1545.84 0.201349 2.0642 0
M  V30 16263 C 1546.26 -1.132 1.50224 0
M  V30 16264 O 1545.62 -1.70368 0.620024 0
M  V30 16265 C 1545.67 0.14505 3.60308 0
M  V30 16266 O 1544.77 -0.886953 4.02749 0
M  V30 16267 H 1544.12 0.103975 0.655809 0
M  V30 16268 H 1546.65 0.921559 1.8267 0
M  V30 16269 H 1546.66 -0.0316792 4.07988 0
M  V30 16270 H 1545.33 1.11829 4.00583 0
M  V30 16271 H 1543.91 -0.681408 3.66621 0
M  V30 16272 N 1546.09 -1.52004 0.416254 0
M  V30 16273 C 1547 -2.30947 -0.412403 0
M  V30 16274 C 1548.02 -1.38969 -1.04707 0
M  V30 16275 O 1549.19 -1.72044 -1.04703 0
M  V30 16276 C 1546.26 -3.12078 -1.51024 0
M  V30 16277 C 1545.32 -4.19805 -0.897892 0
M  V30 16278 C 1544.55 -4.97059 -1.94341 0
M  V30 16279 O 1544.78 -4.74695 -3.16261 0
M  V30 16280 O 1543.71 -5.81715 -1.54567 0
M  V30 16281 H 1547.54 -3.02817 0.231473 0
M  V30 16282 H 1545.12 -1.4832 0.179283 0
M  V30 16283 H 1547 -3.6258 -2.14741 0
M  V30 16284 H 1545.68 -2.42995 -2.13858 0
M  V30 16285 H 1544.59 -3.73433 -0.223236 0
M  V30 16286 H 1545.92 -4.91201 -0.31336 0
M  V30 16287 N 1547.57 -0.146903 -1.56914 0
M  V30 16288 C 1548.82 0.504195 -1.95297 0
M  V30 16289 C 1549.13 1.66019 -1.03426 0
M  V30 16290 O 1550.34 2.37591 -1.31388 0
M  V30 16291 C 1548.79 0.948348 -3.47181 0
M  V30 16292 C 1548.4 -0.18071 -4.47635 0
M  V30 16293 C 1550.15 1.56924 -3.9443 0
M  V30 16294 C 1548.05 0.281707 -5.90729 0
M  V30 16295 H 1546.98 0.192127 -0.729111 0
M  V30 16296 H 1549.63 -0.231232 -1.82037 0
M  V30 16297 H 1548.02 1.73903 -3.55772 0
M  V30 16298 H 1549.19 -0.957645 -4.50739 0
M  V30 16299 H 1547.51 -0.710007 -4.10302 0
M  V30 16300 H 1550.1 1.92684 -4.98776 0
M  V30 16301 H 1550.45 2.45816 -3.35976 0
M  V30 16302 H 1550.98 0.843456 -3.88755 0
M  V30 16303 H 1547.72 -0.571839 -6.53001 0
M  V30 16304 H 1547.24 1.02452 -5.90985 0
M  V30 16305 H 1548.92 0.733746 -6.42826 0
M  V30 16306 N 1549.05 1.57088 0.126881 0
M  V30 16307 C 1550.3 1.84071 0.834397 0
M  V30 16308 C 1550.62 0.730896 1.80784 0
M  V30 16309 O 1549.89 -0.245791 1.94352 0
M  V30 16310 H 1548.47 0.679123 0.311128 0
M  V30 16311 H 1551.13 1.94554 0.116083 0
M  V30 16312 H 1550.23 2.79714 1.38443 0
M  V30 16313 N 1550.53 -0.396836 1.52522 0
M  V30 16314 C 1551.48 -1.48365 1.73123 0
M  V30 16315 C 1552.46 -1.4988 0.585224 0
M  V30 16316 O 1553.65 -1.55649 0.842763 0
M  V30 16317 C 1550.78 -2.86165 1.89644 0
M  V30 16318 C 1549.87 -2.8925 3.10153 0
M  V30 16319 N 1550.26 -2.62017 4.32644 0
M  V30 16320 C 1548.56 -3.20419 3.10238 0
M  V30 16321 C 1549.26 -2.71985 5.14197 0
M  V30 16322 N 1548.23 -3.05385 4.49712 0
M  V30 16323 H 1552.04 -1.26124 2.65462 0
M  V30 16324 H 1549.55 -0.604696 1.50722 0
M  V30 16325 H 1551.55 -3.64404 2.02522 0
M  V30 16326 H 1550.21 -3.09395 0.985134 0
M  V30 16327 H 1551.22 -2.36183 4.6091 0
M  V30 16328 H 1547.89 -3.49164 2.2889 0
M  V30 16329 H 1549.28 -2.54541 6.21819 0
M  V30 16330 N 1552.01 -1.43353 -0.654814 0
M  V30 16331 C 1553.23 -1.48536 -1.44748 0
M  V30 16332 C 1553.66 -0.103991 -1.87812 0
M  V30 16333 O 1553.01 0.901924 -1.57274 0
M  V30 16334 C 1553.06 -2.43498 -2.65972 0
M  V30 16335 O 1552.17 -1.92014 -3.64972 0
M  V30 16336 H 1551.51 -0.502476 -0.434067 0
M  V30 16337 H 1554.04 -1.88251 -0.801427 0
M  V30 16338 H 1554.05 -2.60748 -3.13806 0
M  V30 16339 H 1552.72 -3.43847 -2.3397 0
M  V30 16340 H 1551.3 -1.84417 -3.24106 0
M  V30 16341 N 1553.48 0.89303 -1.29857 0
M  V30 16342 C 1554.89 1.45948 -1.16431 0
M  V30 16343 C 1555.25 1.94751 0.238051 0
M  V30 16344 O 1554.37 1.84302 1.1341 0
M  V30 16345 C 1554.97 2.6527 -2.10754 0
M  V30 16346 C 1553.52 3.1803 -2.0133 0
M  V30 16347 C 1552.67 1.90721 -2.01297 0
M  V30 16348 H 1555.62 0.70373 -1.42244 0
M  V30 16349 H 1555.64 3.41223 -1.68366 0
M  V30 16350 H 1555.16 2.2972 -3.1281 0
M  V30 16351 H 1553.26 3.58257 -1.02386 0
M  V30 16352 H 1553.37 3.81876 -2.89323 0
M  V30 16353 H 1551.73 2.0871 -1.45987 0
M  V30 16354 H 1552.52 1.5744 -3.0507 0
M  V30 16355 N 1554.96 1.12442 1.10429 0
M  V30 16356 C 1556.37 0.894147 1.63896 0
M  V30 16357 C 1556.72 -0.571509 1.87692 0
M  V30 16358 O 1555.85 -1.43595 1.61893 0
M  V30 16359 C 1556.44 1.61664 2.97742 0
M  V30 16360 C 1555 1.43251 3.48075 0
M  V30 16361 C 1554.15 1.65252 2.22682 0
M  V30 16362 H 1557.1 1.27918 0.939289 0
M  V30 16363 H 1557.12 1.06771 3.65213 0
M  V30 16364 H 1556.63 2.68333 2.80391 0
M  V30 16365 H 1554.73 0.388385 3.7057 0
M  V30 16366 H 1554.85 2.18866 4.26186 0
M  V30 16367 H 1553.21 1.07663 2.30827 0
M  V30 16368 H 1553.99 2.73219 2.07862 0
M  V30 16369 N 1556.44 -1.28223 0.91633 0
M  V30 16370 C 1557.85 -1.76898 0.597003 0
M  V30 16371 C 1558.2 -1.74969 -0.887719 0
M  V30 16372 O 1557.33 -1.34598 -1.69447 0
M  V30 16373 C 1557.92 -3.21228 1.07694 0
M  V30 16374 C 1556.48 -3.67614 0.80849 0
M  V30 16375 C 1555.63 -2.47921 1.24219 0
M  V30 16376 H 1558.58 -1.1465 1.09732 0
M  V30 16377 H 1558.6 -3.7818 0.419531 0
M  V30 16378 H 1558.11 -3.226 2.15757 0
M  V30 16379 H 1556.21 -3.717 -0.258814 0
M  V30 16380 H 1556.33 -4.57633 1.41804 0
M  V30 16381 H 1554.69 -2.45976 0.660892 0
M  V30 16382 H 1555.47 -2.5201 2.33122 0
M  V30 16383 N 1557.92 -0.68059 -1.42147 0
M  V30 16384 C 1558.88 -0.0149865 -2.29195 0
M  V30 16385 C 1559.88 0.723163 -1.43621 0
M  V30 16386 O 1561.07 0.560297 -1.64943 0
M  V30 16387 C 1558.2 0.989375 -3.26227 0
M  V30 16388 H 1559.4 -0.781236 -2.89546 0
M  V30 16389 H 1556.95 -0.443256 -1.49883 0
M  V30 16390 H 1557.68 1.78391 -2.70827 0
M  V30 16391 H 1557.47 0.463401 -3.89352 0
M  V30 16392 H 1558.96 1.45334 -3.91494 0
M  V30 16393 N 1559.4 1.51781 -0.424309 0
M  V30 16394 C 1560.63 2.06088 0.145337 0
M  V30 16395 C 1561.03 1.29297 1.38127 0
M  V30 16396 O 1560.38 0.342227 1.80484 0
M  V30 16397 C 1560.44 3.55333 0.545777 0
M  V30 16398 C 1560.1 4.53285 -0.581528 0
M  V30 16399 C 1561.1 4.99278 -1.44973 0
M  V30 16400 C 1558.78 4.96539 -0.758549 0
M  V30 16401 C 1560.78 5.87185 -2.47977 0
M  V30 16402 C 1558.47 5.84239 -1.79188 0
M  V30 16403 C 1559.46 6.29458 -2.65089 0
M  V30 16404 O 1559.15 7.15418 -3.6665 0
M  V30 16405 H 1558.88 0.675782 0.0171719 0
M  V30 16406 H 1561.44 1.96492 -0.598349 0
M  V30 16407 H 1559.67 3.62668 1.34197 0
M  V30 16408 H 1561.36 3.92215 1.04508 0
M  V30 16409 H 1562.12 4.66566 -1.32445 0
M  V30 16410 H 1558 4.60893 -0.0995452 0
M  V30 16411 H 1561.55 6.22401 -3.15059 0
M  V30 16412 H 1557.44 6.16365 -1.91742 0
M  V30 16413 H 1558.21 7.33566 -3.63074 0
M  V30 16414 N 1560.87 0.155222 1.56834 0
M  V30 16415 C 1562.1 -0.500542 2.00754 0
M  V30 16416 C 1562.52 -1.57878 1.03538 0
M  V30 16417 O 1561.87 -1.82469 0.0336651 0
M  V30 16418 C 1561.92 -1.09366 3.4456 0
M  V30 16419 O 1561.65 -0.0584788 4.38061 0
M  V30 16420 C 1563.15 -1.82923 4.038 0
M  V30 16421 H 1560.37 -0.129589 0.658368 0
M  V30 16422 H 1562.91 0.252223 2.02939 0
M  V30 16423 H 1561.07 -1.797 3.43201 0
M  V30 16424 H 1561.48 -0.494125 5.22167 0
M  V30 16425 H 1562.95 -2.19703 5.06394 0
M  V30 16426 H 1563.43 -2.71823 3.44976 0
M  V30 16427 H 1564.04 -1.17268 4.08813 0
M  V30 16428 N 1562.35 -1.57153 -0.118549 0
M  V30 16429 C 1563.76 -1.74046 -0.675645 0
M  V30 16430 C 1564.11 -0.773974 -1.80289 0
M  V30 16431 O 1563.24 0.0530041 -2.16335 0
M  V30 16432 C 1563.83 -3.15591 -1.23239 0
M  V30 16433 C 1562.39 -3.33988 -1.73577 0
M  V30 16434 C 1561.54 -2.69916 -0.63567 0
M  V30 16435 H 1564.49 -1.58336 0.10737 0
M  V30 16436 H 1564.51 -3.17166 -2.10205 0
M  V30 16437 H 1564.02 -3.8591 -0.411744 0
M  V30 16438 H 1562.12 -2.68712 -2.58118 0
M  V30 16439 H 1562.24 -4.42154 -1.84491 0
M  V30 16440 H 1560.6 -2.31163 -1.06939 0
M  V30 16441 H 1561.38 -3.42859 0.174005 0
M  V30 16442 N 1563.83 0.388742 -1.5273 0
M  V30 16443 C 1564.76 1.49653 -1.72277 0
M  V30 16444 C 1565.74 1.52259 -0.570606 0
M  V30 16445 O 1566.92 1.70661 -0.80044 0
M  V30 16446 C 1564.05 2.88118 -1.78061 0
M  V30 16447 C 1563.1 3.03336 -2.99815 0
M  V30 16448 S 1563.93 2.74509 -4.59788 0
M  V30 16449 C 1565.09 4.15167 -4.68388 0
M  V30 16450 H 1565.32 1.32847 -2.65968 0
M  V30 16451 H 1562.85 0.581632 -1.43026 0
M  V30 16452 H 1564.81 3.6791 -1.82079 0
M  V30 16453 H 1563.47 3.0225 -0.854623 0
M  V30 16454 H 1562.66 4.04689 -3.00404 0
M  V30 16455 H 1562.27 2.31438 -2.9379 0
M  V30 16456 H 1564.56 5.09098 -4.47018 0
M  V30 16457 H 1565.5 4.19593 -5.70392 0
M  V30 16458 H 1565.91 4.01088 -3.97226 0
M  V30 16459 N 1565.31 1.43698 0.647203 0
M  V30 16460 C 1566.53 1.49301 1.43958 0
M  V30 16461 C 1566.96 0.11395 1.87755 0
M  V30 16462 O 1566.32 -0.893571 1.5775 0
M  V30 16463 C 1566.36 2.44905 2.64677 0
M  V30 16464 O 1565.47 1.93947 3.63948 0
M  V30 16465 H 1564.81 0.504771 0.431396 0
M  V30 16466 H 1567.34 1.88673 0.791432 0
M  V30 16467 H 1567.35 2.62409 3.12419 0
M  V30 16468 H 1566.02 3.45083 2.32143 0
M  V30 16469 H 1564.6 1.86133 3.23124 0
M  V30 16470 N 1566.79 -0.886131 1.30328 0
M  V30 16471 C 1568.03 -1.6346 1.18849 0
M  V30 16472 C 1568.36 -1.93295 -0.257285 0
M  V30 16473 O 1567.63 -1.56858 -1.17356 0
M  V30 16474 H 1566.21 -0.605932 0.43687 0
M  V30 16475 H 1568.87 -1.06177 1.63439 0
M  V30 16476 H 1567.96 -2.58522 1.7485 0
M  V30 16477 N 1568.26 -1.13026 -1.09832 0
M  V30 16478 C 1569.21 -0.799174 -2.1844 0
M  V30 16479 C 1570.21 0.216695 -1.68008 0
M  V30 16480 O 1571.41 0.0742662 -1.79847 0
M  V30 16481 H 1567.79 -0.24064 -0.712458 0
M  V30 16482 H 1569.76 -1.72342 -2.436 0
M  V30 16483 C 1568.51 -0.276925 -3.46595 0
M  V30 16484 H 1567.83 -1.04993 -3.85768 0
M  V30 16485 H 1569.27 -0.0836468 -4.23917 0
M  V30 16486 C 1567.73 0.996479 -3.21826 0
M  V30 16487 O 1568.26 2.0731 -3.44072 0
M  V30 16488 N 1566.47 0.925903 -2.75455 0
M  V30 16489 H 1566.01 0.0496383 -2.57552 0
M  V30 16490 H 1565.97 1.77853 -2.5926 0
M  V30 16491 N 1569.74 1.27735 -0.923117 0
M  V30 16492 C 1570.67 2.26095 -0.375982 0
M  V30 16493 C 1571.69 1.55227 0.490763 0
M  V30 16494 O 1572.88 1.7589 0.304127 0
M  V30 16495 C 1569.98 3.35479 0.480342 0
M  V30 16496 C 1569.15 4.35866 -0.36605 0
M  V30 16497 C 1568.21 5.24466 0.42688 0
M  V30 16498 O 1567.23 5.68964 -0.163825 0
M  V30 16499 N 1568.44 5.54192 1.72777 0
M  V30 16500 H 1571.2 2.73679 -1.22147 0
M  V30 16501 H 1568.76 1.41314 -0.790056 0
M  V30 16502 H 1570.75 3.91693 1.01776 0
M  V30 16503 H 1569.32 2.87531 1.22657 0
M  V30 16504 H 1568.54 3.7898 -1.08479 0
M  V30 16505 H 1569.83 4.9995 -0.944849 0
M  V30 16506 H 1569.23 5.19888 2.23008 0
M  V30 16507 H 1567.79 6.13125 2.21181 0
M  V30 16508 N 1571.22 0.688118 1.41784 0
M  V30 16509 C 1572.47 0.215944 2.01345 0
M  V30 16510 C 1572.8 -1.18197 1.54466 0
M  V30 16511 O 1572.05 -1.81032 0.743374 0
M  V30 16512 C 1572.35 0.213747 3.5676 0
M  V30 16513 C 1572.02 1.55816 4.23122 0
M  V30 16514 C 1570.68 1.92623 4.40964 0
M  V30 16515 C 1573.03 2.44297 4.604 0
M  V30 16516 C 1570.36 3.17511 4.93359 0
M  V30 16517 C 1572.71 3.68511 5.14182 0
M  V30 16518 C 1571.37 4.0547 5.30236 0
M  V30 16519 H 1570.64 0.0790193 0.736775 0
M  V30 16520 H 1573.29 0.885737 1.69785 0
M  V30 16521 H 1571.6 -0.539583 3.88067 0
M  V30 16522 H 1573.29 -0.169004 4.00644 0
M  V30 16523 H 1569.88 1.26186 4.09604 0
M  V30 16524 H 1574.07 2.17143 4.46277 0
M  V30 16525 H 1569.32 3.46151 5.03973 0
M  V30 16526 H 1573.5 4.37264 5.42008 0
M  V30 16527 H 1571.12 5.02316 5.70598 0
M  V30 16528 N 1572.7 -1.51554 0.432352 0
M  V30 16529 C 1573.94 -2.02344 -0.13598 0
M  V30 16530 C 1574.28 -1.31619 -1.42794 0
M  V30 16531 O 1573.55 -0.42957 -1.89697 0
M  V30 16532 C 1573.84 -3.58297 -0.359865 0
M  V30 16533 C 1573.69 -4.39645 0.950399 0
M  V30 16534 C 1575.01 -4.25297 -1.13184 0
M  V30 16535 H 1572.13 -0.735439 -0.0479461 0
M  V30 16536 H 1574.77 -1.81237 0.570373 0
M  V30 16537 H 1572.92 -3.76413 -0.961547 0
M  V30 16538 H 1574.59 -4.3319 1.58568 0
M  V30 16539 H 1572.83 -4.04928 1.55614 0
M  V30 16540 H 1573.5 -5.46911 0.747852 0
M  V30 16541 H 1575.98 -4.11421 -0.622231 0
M  V30 16542 H 1574.86 -5.34307 -1.25726 0
M  V30 16543 H 1575.12 -3.85818 -2.15862 0
M  V30 16544 N 1574.18 -0.163538 -1.56749 0
M  V30 16545 C 1575.41 0.489178 -2.00725 0
M  V30 16546 C 1575.81 1.57869 -1.04279 0
M  V30 16547 O 1575.16 1.83668 -0.0344434 0
M  V30 16548 C 1575.22 1.13443 -3.41132 0
M  V30 16549 C 1574.88 0.187525 -4.56615 0
M  V30 16550 C 1575.88 -0.591169 -5.16528 0
M  V30 16551 C 1573.57 0.0856149 -5.02227 0
M  V30 16552 C 1575.56 -1.45905 -6.20476 0
M  V30 16553 C 1573.25 -0.785859 -6.06026 0
M  V30 16554 C 1574.24 -1.55678 -6.65021 0
M  V30 16555 O 1573.93 -2.41371 -7.66809 0
M  V30 16556 H 1573.66 0.130353 -0.663313 0
M  V30 16557 H 1576.22 -0.260065 -2.03747 0
M  V30 16558 H 1574.45 1.93165 -3.34999 0
M  V30 16559 H 1576.14 1.68856 -3.69111 0
M  V30 16560 H 1576.9 -0.522563 -4.82177 0
M  V30 16561 H 1572.78 0.675439 -4.56025 0
M  V30 16562 H 1576.33 -2.06125 -6.66452 0
M  V30 16563 H 1572.22 -0.855696 -6.39803 0
M  V30 16564 H 1572.99 -2.34801 -7.84099 0
M  V30 16565 N 1575.65 1.57214 0.110213 0
M  V30 16566 C 1577.07 1.52706 0.464004 0
M  V30 16567 C 1577.27 0.87792 1.81369 0
M  V30 16568 O 1576.33 0.463987 2.482 0
M  V30 16569 C 1577.64 2.97457 0.440406 0
M  V30 16570 C 1579.19 3.08594 0.523336 0
M  V30 16571 C 1579.66 4.54923 0.53004 0
M  V30 16572 N 1581.15 4.59411 0.591228 0
M  V30 16573 C 1581.89 5.7006 0.618007 0
M  V30 16574 N 1581.38 6.9018 0.601901 0
M  V30 16575 N 1583.18 5.58192 0.661679 0
M  V30 16576 H 1575.33 1.97794 -0.77403 0
M  V30 16577 H 1577.59 0.903673 -0.286496 0
M  V30 16578 H 1577.3 3.48356 -0.483845 0
M  V30 16579 H 1577.17 3.55356 1.26498 0
M  V30 16580 H 1579.56 2.57692 1.43801 0
M  V30 16581 H 1579.64 2.53674 -0.329095 0
M  V30 16582 H 1579.28 5.06472 -0.380623 0
M  V30 16583 H 1579.21 5.07663 1.39948 0
M  V30 16584 H 1581.7 3.72953 0.609483 0
M  V30 16585 H 1582.02 7.70267 0.6252 0
M  V30 16586 H 1580.36 6.92665 0.569186 0
M  V30 16587 H 1583.55 4.63256 0.671686 0
M  V30 16588 H 1583.73 6.44432 0.67908 0
M  V30 16589 N 1577.13 -0.380637 1.52934 0
M  V30 16590 C 1578.41 -1.13958 1.58975 0
M  V30 16591 C 1578.79 -2.07503 0.388028 0
M  V30 16592 O 1578.14 -2.19844 -0.622984 0
M  V30 16593 C 1578.35 -1.89192 2.9327 0
M  V30 16594 C 1579.7 -2.44259 3.47308 0
M  V30 16595 O 1580.72 -1.99338 2.95199 0
M  V30 16596 O 1579.58 -3.26338 4.38367 0
M  V30 16597 H 1576.67 -0.521896 0.641525 0
M  V30 16598 H 1579.22 -0.385114 1.65272 0
M  V30 16599 H 1577.99 -1.20834 3.72176 0
M  V30 16600 H 1577.61 -2.71581 2.90395 0
M  V30 16601 N 1578.61 -1.44039 -0.639573 0
M  V30 16602 C 1579.86 -1.46088 -1.39652 0
M  V30 16603 C 1580.18 -0.0914602 -1.94785 0
M  V30 16604 O 1579.45 0.875097 -1.75268 0
M  V30 16605 H 1578.03 -0.537901 -0.518335 0
M  V30 16606 H 1580.69 -1.79751 -0.753365 0
M  V30 16607 H 1579.79 -2.1814 -2.23207 0
M  V30 16608 N 1580.09 0.879207 -1.30796 0
M  V30 16609 C 1581.34 1.62828 -1.19715 0
M  V30 16610 C 1581.66 1.93429 0.247031 0
M  V30 16611 O 1580.93 1.57478 1.16522 0
M  V30 16612 H 1579.51 0.603607 -0.440077 0
M  V30 16613 H 1582.17 1.05309 -1.64 0
M  V30 16614 H 1581.27 2.57591 -1.76219 0
M  V30 16615 N 1581.57 1.13606 1.09231 0
M  V30 16616 C 1582.81 0.899054 1.81448 0
M  V30 16617 C 1583.14 -0.574726 1.85815 0
M  V30 16618 O 1582.4 -1.44144 1.32366 0
M  V30 16619 C 1582.7 1.43456 3.27345 0
M  V30 16620 C 1582.36 2.92553 3.43109 0
M  V30 16621 C 1581.02 3.3326 3.47118 0
M  V30 16622 C 1583.38 3.88467 3.47481 0
M  V30 16623 C 1580.7 4.68562 3.53081 0
M  V30 16624 C 1583.06 5.23616 3.54978 0
M  V30 16625 C 1581.72 5.63847 3.57257 0
M  V30 16626 H 1580.99 0.328987 0.663964 0
M  V30 16627 H 1583.64 1.41834 1.28668 0
M  V30 16628 H 1581.94 0.83602 3.82777 0
M  V30 16629 H 1583.64 1.22723 3.81759 0
M  V30 16630 H 1580.23 2.60076 3.40674 0
M  V30 16631 H 1584.41 3.58103 3.43622 0
M  V30 16632 H 1579.67 4.99106 3.53134 0
M  V30 16633 H 1583.84 5.9775 3.57306 0
M  V30 16634 H 1581.47 6.68676 3.6163 0
M  V30 16635 N 1583.05 -1.27244 0.929878 0
M  V30 16636 C 1584.01 -2.25028 0.435315 0
M  V30 16637 C 1585.01 -1.54453 -0.447332 0
M  V30 16638 O 1586.2 -1.72424 -0.248105 0
M  V30 16639 C 1583.33 -3.38843 -0.373933 0
M  V30 16640 H 1584.52 -2.70293 1.2993 0
M  V30 16641 H 1582.08 -1.39204 0.710771 0
M  V30 16642 H 1582.81 -2.98963 -1.25664 0
M  V30 16643 H 1582.6 -3.91244 0.258946 0
M  V30 16644 H 1584.09 -4.11516 -0.710255 0
M  V30 16645 N 1584.52 -0.695628 -1.41417 0
M  V30 16646 C 1585.49 -0.0392949 -2.29166 0
M  V30 16647 C 1586.49 0.70789 -1.4438 0
M  V30 16648 O 1587.68 0.542771 -1.65528 0
M  V30 16649 C 1584.81 0.954719 -3.27258 0
M  V30 16650 H 1586 -0.811902 -2.88701 0
M  V30 16651 H 1583.55 -0.459128 -1.49405 0
M  V30 16652 H 1584.29 1.75509 -2.72703 0
M  V30 16653 H 1584.07 0.422079 -3.89822 0
M  V30 16654 H 1585.56 1.41174 -3.93014 0
M  V30 16655 N 1586 1.51322 -0.440383 0
M  V30 16656 C 1586.91 2.31574 0.37561 0
M  V30 16657 C 1587.93 1.40617 1.02483 0
M  V30 16658 O 1589.1 1.73688 1.01953 0
M  V30 16659 C 1586.17 3.14441 1.4604 0
M  V30 16660 C 1585.23 4.21181 0.830991 0
M  V30 16661 C 1584.46 5.00087 1.86409 0
M  V30 16662 O 1584.69 4.79666 3.08669 0
M  V30 16663 O 1583.62 5.84101 1.45293 0
M  V30 16664 H 1587.45 3.0241 -0.27962 0
M  V30 16665 H 1585.03 1.48016 -0.202857 0
M  V30 16666 H 1586.91 3.6595 2.08946 0
M  V30 16667 H 1585.59 2.46366 2.09965 0
M  V30 16668 H 1584.49 3.73741 0.163798 0
M  V30 16669 H 1585.83 4.91638 0.235174 0
M  V30 16670 N 1587.48 0.171848 1.5666 0
M  V30 16671 C 1588.41 -0.789671 2.15167 0
M  V30 16672 C 1589.42 -1.19335 1.10739 0
M  V30 16673 O 1590.61 -1.13311 1.37924 0
M  V30 16674 C 1587.71 -2.07448 2.6799 0
M  V30 16675 C 1586.89 -1.83429 3.9708 0
M  V30 16676 C 1585.95 -2.96134 4.34961 0
M  V30 16677 O 1584.97 -2.66746 5.02827 0
M  V30 16678 N 1586.17 -4.23932 3.96563 0
M  V30 16679 H 1588.94 -0.289484 2.98299 0
M  V30 16680 H 1586.5 -0.0109154 1.61896 0
M  V30 16681 H 1588.49 -2.81941 2.90329 0
M  V30 16682 H 1587.06 -2.48656 1.89444 0
M  V30 16683 H 1586.28 -0.928376 3.83112 0
M  V30 16684 H 1587.57 -1.64749 4.81389 0
M  V30 16685 H 1586.97 -4.50668 3.41928 0
M  V30 16686 H 1585.52 -4.95126 4.23903 0
M  V30 16687 N 1588.96 -1.5727 -0.101874 0
M  V30 16688 C 1590.21 -1.85375 -0.805007 0
M  V30 16689 C 1590.53 -0.759564 -1.79599 0
M  V30 16690 O 1589.8 0.21484 -1.94718 0
M  V30 16691 H 1588.38 -0.683987 -0.300284 0
M  V30 16692 H 1591.04 -1.94714 -0.0851166 0
M  V30 16693 H 1590.13 -2.81881 -1.33976 0
M  V30 16694 N 1590.44 0.372521 -1.53134 0
M  V30 16695 C 1591.68 1.11754 -1.6923 0
M  V30 16696 C 1592.01 1.89167 -0.439265 0
M  V30 16697 O 1591.29 1.86164 0.563317 0
M  V30 16698 C 1591.57 2.08242 -2.93781 0
M  V30 16699 C 1591.43 1.34484 -4.29225 0
M  V30 16700 C 1592.74 3.08457 -3.13914 0
M  V30 16701 H 1589.86 0.404898 -0.615814 0
M  V30 16702 H 1592.51 0.399101 -1.85761 0
M  V30 16703 H 1590.66 2.69507 -2.79818 0
M  V30 16704 H 1592.33 0.76056 -4.54987 0
M  V30 16705 H 1590.57 0.646673 -4.28953 0
M  V30 16706 H 1591.24 2.05071 -5.12494 0
M  V30 16707 H 1593.72 2.57292 -3.27017 0
M  V30 16708 H 1592.59 3.73198 -4.0251 0
M  V30 16709 H 1592.85 3.78243 -2.28878 0
M  V30 16710 N 1591.91 1.44376 0.631925 0
M  V30 16711 C 1593.14 1.5082 1.42366 0
M  V30 16712 C 1593.56 0.133858 1.87623 0
M  V30 16713 O 1592.92 -0.876789 1.58689 0
M  V30 16714 C 1592.97 2.47698 2.62065 0
M  V30 16715 O 1592.07 1.97796 3.61871 0
M  V30 16716 H 1591.41 0.509318 0.426018 0
M  V30 16717 H 1593.94 1.89502 0.771376 0
M  V30 16718 H 1593.95 2.65708 3.09618 0
M  V30 16719 H 1592.63 3.47526 2.2847 0
M  V30 16720 H 1591.21 1.89549 3.21131 0
M  V30 16721 N 1593.39 -0.872258 1.31261 0
M  V30 16722 C 1594.64 -1.62752 1.20994 0
M  V30 16723 C 1594.97 -1.9281 -0.231942 0
M  V30 16724 O 1594.25 -1.55808 -1.16423 0
M  V30 16725 C 1594.53 -2.95921 2.0519 0
M  V30 16726 C 1594.38 -2.72756 3.57665 0
M  V30 16727 C 1595.7 -3.96996 1.89953 0
M  V30 16728 H 1592.82 -0.590581 0.440889 0
M  V30 16729 H 1595.46 -1.00848 1.61027 0
M  V30 16730 H 1593.61 -3.48756 1.71177 0
M  V30 16731 H 1595.28 -2.26611 4.01803 0
M  V30 16732 H 1593.53 -2.07029 3.81211 0
M  V30 16733 H 1594.2 -3.67502 4.11882 0
M  V30 16734 H 1596.67 -3.53363 2.19713 0
M  V30 16735 H 1595.55 -4.88063 2.51169 0
M  V30 16736 H 1595.81 -4.33611 0.862191 0
M  V30 16737 N 1594.87 -1.14184 -1.08627 0
M  V30 16738 C 1596.28 -0.920108 -1.62453 0
M  V30 16739 C 1596.63 0.541577 -1.88577 0
M  V30 16740 O 1595.76 1.41002 -1.64157 0
M  V30 16741 C 1596.35 -1.6638 -2.95132 0
M  V30 16742 C 1594.91 -1.48771 -3.45752 0
M  V30 16743 C 1594.06 -1.68774 -2.20024 0
M  V30 16744 H 1597.01 -1.29396 -0.91882 0
M  V30 16745 H 1597.03 -1.12568 -3.63468 0
M  V30 16746 H 1596.54 -2.72759 -2.76087 0
M  V30 16747 H 1594.64 -0.44729 -3.69905 0
M  V30 16748 H 1594.76 -2.25619 -4.2265 0
M  V30 16749 H 1593.12 -1.11321 -2.29084 0
M  V30 16750 H 1593.9 -2.76491 -2.03489 0
M  V30 16751 N 1596.35 1.26749 -0.936613 0
M  V30 16752 C 1597.58 1.97772 -0.597489 0
M  V30 16753 C 1597.99 1.69984 0.830796 0
M  V30 16754 O 1597.33 0.962037 1.56495 0
M  V30 16755 C 1597.39 3.51497 -0.754307 0
M  V30 16756 C 1597.06 4.02926 -2.15637 0
M  V30 16757 C 1598.05 4.15016 -3.13141 0
M  V30 16758 C 1595.74 4.37051 -2.47572 0
M  V30 16759 C 1597.73 4.60518 -4.40683 0
M  V30 16760 C 1595.42 4.82242 -3.75347 0
M  V30 16761 C 1596.42 4.93936 -4.71716 0
M  V30 16762 O 1596.1 5.38133 -5.97217 0
M  V30 16763 H 1595.84 0.637664 -0.224412 0
M  V30 16764 H 1598.39 1.62341 -1.25836 0
M  V30 16765 H 1596.62 3.86683 -0.0363189 0
M  V30 16766 H 1598.31 4.03732 -0.418921 0
M  V30 16767 H 1599.08 3.88903 -2.89792 0
M  V30 16768 H 1594.95 4.27186 -1.733 0
M  V30 16769 H 1598.5 4.69561 -5.15906 0
M  V30 16770 H 1594.4 5.07799 -3.98511 0
M  V30 16771 H 1595.16 5.56365 -6.00334 0
M  V30 16772 N 1597.83 0.703118 1.41046 0
M  V30 16773 C 1599.24 0.375417 1.55122 0
M  V30 16774 C 1599.44 -1.11696 1.67709 0
M  V30 16775 O 1598.5 -1.90289 1.65971 0
M  V30 16776 C 1599.81 1.13056 2.78638 0
M  V30 16777 C 1601.36 1.11564 2.92442 0
M  V30 16778 C 1601.83 1.85268 4.18855 0
M  V30 16779 N 1603.33 1.82275 4.25829 0
M  V30 16780 C 1604.06 2.36137 5.2252 0
M  V30 16781 N 1603.56 2.98502 6.25195 0
M  V30 16782 N 1605.35 2.26349 5.14512 0
M  V30 16783 H 1597.5 1.67096 1.31121 0
M  V30 16784 H 1599.76 0.705573 0.633144 0
M  V30 16785 H 1599.47 2.18524 2.75572 0
M  V30 16786 H 1599.34 0.714037 3.7038 0
M  V30 16787 H 1601.73 0.0691901 2.95019 0
M  V30 16788 H 1601.81 1.57128 2.01853 0
M  V30 16789 H 1601.46 2.89896 4.1704 0
M  V30 16790 H 1601.39 1.37133 5.08431 0
M  V30 16791 H 1603.88 1.36812 3.52265 0
M  V30 16792 H 1604.19 3.37149 6.95378 0
M  V30 16793 H 1602.53 3.02582 6.25675 0
M  V30 16794 H 1605.73 1.77294 4.33226 0
M  V30 16795 H 1605.9 2.68629 5.89697 0
M  V30 16796 N 1599.3 -1.51086 0.448402 0
M  V30 16797 C 1600.27 -2.26575 -0.3459 0
M  V30 16798 C 1601.27 -1.3045 -0.940178 0
M  V30 16799 O 1602.46 -1.5407 -0.812898 0
M  V30 16800 C 1599.59 -3.06591 -1.49045 0
M  V30 16801 H 1600.78 -2.98232 0.315822 0
M  V30 16802 H 1598.34 -1.54991 0.201851 0
M  V30 16803 H 1599.07 -2.39377 -2.1879 0
M  V30 16804 H 1598.86 -3.77207 -1.07038 0
M  V30 16805 H 1600.35 -3.63743 -2.05135 0
M  V30 16806 N 1600.78 -0.180154 -1.56567 0
M  V30 16807 C 1602.19 0.335054 -1.83669 0
M  V30 16808 C 1602.54 1.62443 -1.1003 0
M  V30 16809 O 1601.67 2.13448 -0.356205 0
M  V30 16810 C 1602.26 0.61468 -3.33177 0
M  V30 16811 C 1600.82 1.0743 -3.60743 0
M  V30 16812 C 1599.97 0.114877 -2.77062 0
M  V30 16813 H 1602.92 -0.404245 -1.53465 0
M  V30 16814 H 1602.94 1.46574 -3.51136 0
M  V30 16815 H 1602.45 -0.323923 -3.86746 0
M  V30 16816 H 1600.56 2.0277 -3.12594 0
M  V30 16817 H 1600.67 0.977349 -4.69025 0
M  V30 16818 H 1599.03 0.613933 -2.4719 0
M  V30 16819 H 1599.82 -0.817904 -3.33414 0
M  V30 16820 N 1602.26 1.57322 0.0935319 0
M  V30 16821 C 1603.49 1.90375 0.810245 0
M  V30 16822 C 1603.9 0.774011 1.72205 0
M  V30 16823 O 1603.26 -0.253918 1.80725 0
M  V30 16824 C 1603.31 3.23054 1.62228 0
M  V30 16825 O 1603.03 4.31682 0.747157 0
M  V30 16826 C 1604.53 3.6998 2.44192 0
M  V30 16827 H 1601.75 0.629769 0.231586 0
M  V30 16828 H 1604.3 2.04379 0.0702984 0
M  V30 16829 H 1602.45 3.10643 2.31472 0
M  V30 16830 H 1602.87 5.07884 1.30974 0
M  V30 16831 H 1604.34 4.65507 2.96659 0
M  V30 16832 H 1604.82 2.97899 3.22727 0
M  V30 16833 H 1605.42 3.85264 1.80144 0
M  V30 16834 N 1603.74 -0.364395 1.53329 0
M  V30 16835 C 1604.96 -1.13196 1.73786 0
M  V30 16836 C 1605.39 -1.82231 0.466224 0
M  V30 16837 O 1604.75 -1.71778 -0.579817 0
M  V30 16838 C 1604.79 -2.13704 2.90453 0
M  V30 16839 O 1603.9 -3.20808 2.59144 0
M  V30 16840 H 1603.24 -0.328387 0.577112 0
M  V30 16841 H 1605.77 -0.421157 2.00218 0
M  V30 16842 H 1605.78 -2.57285 3.16652 0
M  V30 16843 H 1604.45 -1.6285 3.82691 0
M  V30 16844 H 1603.03 -2.82192 2.43767 0
M  V30 16845 N 1605.22 -1.44709 -0.62426 0
M  V30 16846 C 1606.44 -1.51348 -1.41072 0
M  V30 16847 C 1606.86 -0.140576 -1.88276 0
M  V30 16848 O 1606.22 0.854821 -1.61242 0
M  V30 16849 C 1606.27 -2.48396 -2.62643 0
M  V30 16850 O 1605.99 -3.8035 -2.17406 0
M  V30 16851 C 1607.49 -2.64568 -3.55694 0
M  V30 16852 H 1604.71 -0.513092 -0.432409 0
M  V30 16853 H 1607.25 -1.89739 -0.762841 0
M  V30 16854 H 1605.41 -2.13122 -3.23508 0
M  V30 16855 H 1605.82 -4.32809 -2.96272 0
M  V30 16856 H 1607.3 -3.36486 -4.37585 0
M  V30 16857 H 1607.77 -1.70031 -4.04952 0
M  V30 16858 H 1608.38 -3.00771 -3.00694 0
M  V30 16859 N 1606.69 0.865285 -1.31722 0
M  V30 16860 C 1607.94 1.6135 -1.21033 0
M  V30 16861 C 1608.26 1.94253 0.229141 0
M  V30 16862 O 1609.46 2.67613 0.457771 0
M  V30 16863 C 1607.92 2.90898 -2.11912 0
M  V30 16864 C 1607.53 2.6546 -3.60881 0
M  V30 16865 C 1609.27 3.68898 -2.10035 0
M  V30 16866 C 1607.18 3.90943 -4.43754 0
M  V30 16867 H 1606.11 0.605418 -0.449428 0
M  V30 16868 H 1608.76 0.956335 -1.56609 0
M  V30 16869 H 1607.14 3.58014 -1.69239 0
M  V30 16870 H 1608.31 2.06721 -4.11829 0
M  V30 16871 H 1606.63 2.00806 -3.64782 0
M  V30 16872 H 1609.23 4.61995 -2.69193 0
M  V30 16873 H 1609.57 4.01813 -1.08865 0
M  V30 16874 H 1610.1 3.08671 -2.50932 0
M  V30 16875 H 1606.84 3.63176 -5.45696 0
M  V30 16876 H 1606.36 4.49116 -3.97561 0
M  V30 16877 H 1608.04 4.58784 -4.56208 0
M  V30 16878 N 1608.17 1.14759 1.0802 0
M  V30 16879 C 1609.58 0.928711 1.61963 0
M  V30 16880 C 1609.93 -0.531568 1.88862 0
M  V30 16881 O 1609.06 -1.40129 1.64902 0
M  V30 16882 C 1609.65 1.67943 2.94246 0
M  V30 16883 C 1608.21 1.50602 3.44958 0
M  V30 16884 C 1607.36 1.69938 2.19126 0
M  V30 16885 H 1610.31 1.29882 0.911945 0
M  V30 16886 H 1610.33 1.14493 3.62866 0
M  V30 16887 H 1609.84 2.7422 2.74636 0
M  V30 16888 H 1607.95 0.466901 3.69663 0
M  V30 16889 H 1608.06 2.27857 4.21447 0
M  V30 16890 H 1606.42 1.12534 2.28491 0
M  V30 16891 H 1607.21 2.77566 2.0202 0
M  V30 16892 N 1609.65 -1.26251 0.943322 0
M  V30 16893 C 1610.56 -2.3003 0.460778 0
M  V30 16894 C 1611.58 -1.67635 -0.4663 0
M  V30 16895 O 1612.75 -1.98418 -0.345307 0
M  V30 16896 C 1609.82 -3.45691 -0.264291 0
M  V30 16897 C 1608.88 -4.23561 0.69961 0
M  V30 16898 C 1608.11 -5.33699 0.00904846 0
M  V30 16899 O 1608.33 -5.57473 -1.20748 0
M  V30 16900 O 1607.27 -5.97945 0.688839 0
M  V30 16901 H 1611.09 -2.73374 1.32289 0
M  V30 16902 H 1608.68 -1.31489 0.709297 0
M  V30 16903 H 1610.56 -4.15997 -0.672634 0
M  V30 16904 H 1609.24 -3.04373 -1.10176 0
M  V30 16905 H 1608.14 -3.55728 1.15794 0
M  V30 16906 H 1609.48 -4.68634 1.50476 0
M  V30 16907 N 1611.13 -0.710588 -1.40671 0
M  V30 16908 C 1612.09 -0.0635988 -2.29112 0
M  V30 16909 C 1613.09 0.692537 -1.45123 0
M  V30 16910 O 1614.28 0.525184 -1.66095 0
M  V30 16911 C 1611.41 0.919955 -3.28252 0
M  V30 16912 H 1612.61 -0.842477 -2.87823 0
M  V30 16913 H 1610.16 -0.474948 -1.48909 0
M  V30 16914 H 1610.9 1.72607 -2.7455 0
M  V30 16915 H 1610.68 0.38071 -3.90247 0
M  V30 16916 H 1612.17 1.36997 -3.94489 0
M  V30 16917 N 1612.61 1.50847 -0.456408 0
M  V30 16918 C 1614.02 1.867 0.00222532 0
M  V30 16919 C 1614.37 1.37229 1.40224 0
M  V30 16920 O 1613.49 0.731052 2.03678 0
M  V30 16921 C 1614.09 3.38798 0.0108142 0
M  V30 16922 C 1612.65 3.74117 0.413924 0
M  V30 16923 C 1611.8 2.74671 -0.380933 0
M  V30 16924 H 1614.75 1.43799 -0.671379 0
M  V30 16925 H 1614.77 3.71642 0.816217 0
M  V30 16926 H 1614.28 3.74774 -1.00826 0
M  V30 16927 H 1612.38 3.43737 1.43789 0
M  V30 16928 H 1612.49 4.78936 0.125471 0
M  V30 16929 H 1610.86 2.54175 0.163385 0
M  V30 16930 H 1611.64 3.1349 -1.39924 0
M  V30 16931 N 1614.09 0.188454 1.56469 0
M  V30 16932 C 1615.33 -0.452728 1.97682 0
M  V30 16933 C 1615.66 -1.61729 1.07506 0
M  V30 16934 O 1614.94 -1.94094 0.125677 0
M  V30 16935 C 1615.22 -0.919257 3.48169 0
M  V30 16936 C 1615.08 0.246656 4.49123 0
M  V30 16937 C 1616.39 -1.78706 4.02184 0
M  V30 16938 H 1613.51 -0.16309 0.718729 0
M  V30 16939 H 1616.16 0.27804 1.87955 0
M  V30 16940 H 1614.31 -1.54195 3.5659 0
M  V30 16941 H 1615.98 0.884178 4.52747 0
M  V30 16942 H 1614.22 0.89948 4.24372 0
M  V30 16943 H 1614.89 -0.122179 5.51865 0
M  V30 16944 H 1617.37 -1.26196 3.96502 0
M  V30 16945 H 1616.24 -2.08247 5.07863 0
M  V30 16946 H 1616.5 -2.73891 3.47039 0
M  V30 16947 N 1615.56 -1.5737 -0.0851874 0
M  V30 16948 C 1616.53 -2.01789 -1.08692 0
M  V30 16949 C 1617.53 -0.912872 -1.32376 0
M  V30 16950 O 1618.72 -1.1781 -1.28322 0
M  V30 16951 C 1615.85 -2.38708 -2.43375 0
M  V30 16952 H 1617.04 -2.91511 -0.704359 0
M  V30 16953 H 1614.59 -1.52765 -0.330528 0
M  V30 16954 H 1615.33 -1.5197 -2.86488 0
M  V30 16955 H 1615.11 -3.19331 -2.2753 0
M  V30 16956 H 1616.6 -2.73697 -3.15404 0
M  V30 16957 N 1617.04 0.356258 -1.53521 0
M  V30 16958 C 1617.97 1.45722 -1.76912 0
M  V30 16959 C 1618.99 1.49257 -0.650091 0
M  V30 16960 O 1620.18 1.52569 -0.926557 0
M  V30 16961 C 1617.28 2.84444 -1.84241 0
M  V30 16962 C 1616.45 3.04497 -3.14007 0
M  V30 16963 C 1615.51 4.23387 -3.12458 0
M  V30 16964 O 1614.53 4.18113 -3.86225 0
M  V30 16965 N 1615.74 5.31278 -2.33931 0
M  V30 16966 H 1618.5 1.26031 -2.71912 0
M  V30 16967 H 1616.06 0.546052 -1.52414 0
M  V30 16968 H 1618.05 3.62133 -1.80671 0
M  V30 16969 H 1616.62 2.97338 -0.96484 0
M  V30 16970 H 1615.84 2.14387 -3.30805 0
M  V30 16971 H 1617.13 3.14769 -3.99747 0
M  V30 16972 H 1616.53 5.38428 -1.73527 0
M  V30 16973 H 1615.09 6.07508 -2.36171 0
M  V30 16974 N 1618.52 1.45038 0.616577 0
M  V30 16975 C 1619.77 1.48292 1.3731 0
M  V30 16976 C 1620.09 0.122437 1.94615 0
M  V30 16977 O 1619.36 -0.847103 1.76638 0
M  V30 16978 H 1617.94 0.546079 0.509712 0
M  V30 16979 H 1620.6 1.80927 0.724673 0
M  V30 16980 H 1619.7 2.21664 2.19708 0
M  V30 16981 N 1620 -0.858287 1.32179 0
M  V30 16982 C 1620.96 -1.94811 1.20753 0
M  V30 16983 C 1621.96 -1.60261 0.131526 0
M  V30 16984 O 1623.15 -1.69968 0.381662 0
M  V30 16985 C 1620.28 -3.29972 0.856229 0
M  V30 16986 H 1621.48 -2.06371 2.17603 0
M  V30 16987 H 1619.03 -1.04802 1.15958 0
M  V30 16988 H 1619.76 -3.24111 -0.11061 0
M  V30 16989 H 1619.55 -3.56424 1.63414 0
M  V30 16990 H 1621.04 -4.09856 0.800507 0
M  V30 16991 N 1621.48 -1.1533 -1.07409 0
M  V30 16992 C 1622.7 -0.951643 -1.83715 0
M  V30 16993 C 1623.12 0.500054 -1.82057 0
M  V30 16994 O 1622.48 1.3468 -1.23157 0
M  V30 16995 C 1622.53 -1.45734 -3.30823 0
M  V30 16996 O 1622.25 -2.85217 -3.3254 0
M  V30 16997 C 1623.75 -1.29709 -4.23899 0
M  V30 16998 H 1620.97 -0.338021 -0.57964 0
M  V30 16999 H 1623.51 -1.53088 -1.35589 0
M  V30 17000 H 1621.67 -0.920643 -3.76302 0
M  V30 17001 H 1622.08 -3.08134 -4.24445 0
M  V30 17002 H 1623.56 -1.69938 -5.2519 0
M  V30 17003 H 1624.03 -0.241185 -4.38537 0
M  V30 17004 H 1624.64 -1.82283 -3.84256 0
M  V30 17005 N 1622.95 1.25748 -0.950004 0
M  V30 17006 C 1623.92 2.24307 -0.47106 0
M  V30 17007 C 1624.92 1.55145 0.422704 0
M  V30 17008 O 1626.11 1.72797 0.220642 0
M  V30 17009 C 1623.24 3.39395 0.319979 0
M  V30 17010 H 1624.43 2.68192 -1.34214 0
M  V30 17011 H 1621.98 1.38056 -0.732827 0
M  V30 17012 H 1622.72 3.00925 1.20892 0
M  V30 17013 H 1622.5 3.90783 -0.321157 0
M  V30 17014 H 1623.99 4.12594 0.644697 0
M  V30 17015 N 1624.43 0.718038 1.40292 0
M  V30 17016 C 1625.34 0.0681535 2.34501 0
M  V30 17017 C 1626.36 -0.741048 1.57431 0
M  V30 17018 O 1627.53 -0.673437 1.89807 0
M  V30 17019 C 1624.6 -0.840758 3.36351 0
M  V30 17020 C 1623.66 -0.0212287 4.29295 0
M  V30 17021 C 1622.89 -0.886852 5.2628 0
M  V30 17022 O 1623.12 -2.12603 5.29298 0
M  V30 17023 O 1622.05 -0.324537 6.01024 0
M  V30 17024 H 1625.88 0.845288 2.91699 0
M  V30 17025 H 1623.46 0.478541 1.41529 0
M  V30 17026 H 1625.34 -1.36131 3.98806 0
M  V30 17027 H 1624.02 -1.597 2.81563 0
M  V30 17028 H 1622.92 0.544451 3.70117 0
M  V30 17029 H 1624.26 0.696846 4.87242 0
M  V30 17030 N 1625.91 -1.50602 0.464402 0
M  V30 17031 C 1627.16 -2.01478 -0.0945398 0
M  V30 17032 C 1627.47 -1.35165 -1.41386 0
M  V30 17033 O 1628.68 -1.7716 -2.05735 0
M  V30 17034 C 1627.13 -3.59233 -0.219003 0
M  V30 17035 C 1626.74 -4.345 1.09148 0
M  V30 17036 C 1628.49 -4.18172 -0.730262 0
M  V30 17037 C 1626.39 -5.84023 0.931179 0
M  V30 17038 H 1625.32 -0.752985 -0.0391065 0
M  V30 17039 H 1627.97 -1.73473 0.598283 0
M  V30 17040 H 1626.36 -3.83798 -0.975455 0
M  V30 17041 H 1627.53 -4.21665 1.85837 0
M  V30 17042 H 1625.85 -3.8714 1.53334 0
M  V30 17043 H 1628.44 -5.27622 -0.867119 0
M  V30 17044 H 1628.79 -3.79113 -1.71986 0
M  V30 17045 H 1629.32 -3.97788 -0.0313808 0
M  V30 17046 H 1626.06 -6.27543 1.89395 0
M  V30 17047 H 1625.58 -5.99451 0.20456 0
M  V30 17048 H 1627.26 -6.44257 0.595118 0
M  V30 17049 N 1627.39 -0.19675 -1.56367 0
M  V30 17050 C 1628.64 0.441584 -1.97627 0
M  V30 17051 C 1628.96 1.61514 -1.08368 0
M  V30 17052 O 1628.22 1.95312 -0.123139 0
M  V30 17053 C 1628.52 0.942382 -3.44752 0
M  V30 17054 C 1628.18 -0.117977 -4.50746 0
M  V30 17055 C 1626.85 -0.409332 -4.79456 0
M  V30 17056 C 1629.2 -0.836374 -5.14446 0
M  V30 17057 C 1626.53 -1.42403 -5.69156 0
M  V30 17058 C 1628.88 -1.84024 -6.05242 0
M  V30 17059 C 1627.54 -2.13877 -6.32308 0
M  V30 17060 H 1626.81 0.161587 -0.723167 0
M  V30 17061 H 1629.46 -0.294063 -1.89229 0
M  V30 17062 H 1627.76 1.75633 -3.50229 0
M  V30 17063 H 1629.46 1.44571 -3.74032 0
M  V30 17064 H 1626.05 0.119274 -4.28434 0
M  V30 17065 H 1630.23 -0.62451 -4.92355 0
M  V30 17066 H 1625.49 -1.66122 -5.88399 0
M  V30 17067 H 1629.66 -2.40212 -6.5366 0
M  V30 17068 H 1627.29 -2.92649 -7.01613 0
M  V30 17069 N 1628.87 1.57413 0.0768405 0
M  V30 17070 C 1630.14 1.78056 0.809663 0
M  V30 17071 C 1630.52 0.783053 1.9604 0
M  V30 17072 O 1629.87 -0.184836 2.27751 0
M  V30 17073 C 1630.08 3.24391 1.2873 0
M  V30 17074 C 1631.43 3.88082 1.72272 0
M  V30 17075 O 1632.45 3.28251 1.38309 0
M  V30 17076 O 1631.31 4.93329 2.35135 0
M  V30 17077 H 1628.41 0.730553 0.387584 0
M  V30 17078 H 1630.95 1.69603 0.057307 0
M  V30 17079 H 1629.72 3.88543 0.463678 0
M  V30 17080 H 1629.35 3.37548 2.10112 0
M  V30 17081 N 1630.34 -0.348112 1.53707 0
M  V30 17082 C 1631.62 -1.1056 1.61356 0
M  V30 17083 C 1632 -2.06633 0.431955 0
M  V30 17084 O 1631.35 -2.21115 -0.576211 0
M  V30 17085 C 1631.56 -1.82929 2.97217 0
M  V30 17086 C 1632.91 -2.36837 3.52411 0
M  V30 17087 O 1633.93 -1.93032 2.99361 0
M  V30 17088 O 1632.79 -3.16966 4.45191 0
M  V30 17089 H 1629.88 -0.50817 0.652451 0
M  V30 17090 H 1632.43 -0.349971 1.66052 0
M  V30 17091 H 1631.2 -1.12912 3.74655 0
M  V30 17092 H 1630.83 -2.65361 2.9609 0
M  V30 17093 N 1631.82 -1.45363 -0.608876 0
M  V30 17094 C 1633.05 -1.53066 -1.39949 0
M  V30 17095 C 1633.47 -0.16369 -1.87386 0
M  V30 17096 O 1632.83 0.851432 -1.60064 0
M  V30 17097 C 1632.88 -2.51836 -2.58091 0
M  V30 17098 O 1631.98 -2.03528 -3.58678 0
M  V30 17099 H 1631.32 -0.516031 -0.417861 0
M  V30 17100 H 1633.85 -1.90705 -0.74113 0
M  V30 17101 H 1633.86 -2.706 -3.05352 0
M  V30 17102 H 1632.54 -3.51117 -2.22912 0
M  V30 17103 H 1631.12 -1.94634 -3.18075 0
M  V30 17104 N 1633.3 0.851265 -1.32632 0
M  V30 17105 C 1634.54 1.61951 -1.24705 0
M  V30 17106 C 1634.9 1.91082 0.187497 0
M  V30 17107 O 1636.11 2.65948 0.390552 0
M  V30 17108 C 1634.38 2.90216 -2.08589 0
M  V30 17109 S 1635.94 3.80976 -2.17722 0
M  V30 17110 H 1632.75 0.555443 -0.443852 0
M  V30 17111 H 1635.36 1.00783 -1.6752 0
M  V30 17112 H 1634.06 2.66767 -3.11871 0
M  V30 17113 H 1633.59 3.56399 -1.66564 0
M  V30 17114 H 1635.61 4.78065 -1.32921 0
M  V30 17115 N 1634.78 1.15898 1.06796 0
M  V30 17116 C 1636.02 0.947946 1.81089 0
M  V30 17117 C 1636.38 -0.51537 1.84954 0
M  V30 17118 O 1637.58 -0.844928 2.55175 0
M  V30 17119 C 1635.85 1.55214 3.21937 0
M  V30 17120 S 1637.41 1.48502 4.12907 0
M  V30 17121 H 1634.23 0.341025 0.623877 0
M  V30 17122 H 1636.83 1.4755 1.28254 0
M  V30 17123 H 1635.54 2.60996 3.16716 0
M  V30 17124 H 1635.07 1.02369 3.79848 0
M  V30 17125 H 1637.08 0.481773 4.93856 0
M  V30 17126 N 1636.26 -1.25243 0.956659 0
M  V30 17127 C 1637.2 -2.2781 0.46963 0
M  V30 17128 C 1638.2 -1.63003 -0.461138 0
M  V30 17129 O 1639.4 -1.76805 -0.337644 0
M  V30 17130 H 1635.78 -0.740078 0.133374 0
M  V30 17131 H 1637.75 -2.66273 1.34689 0
M  V30 17132 C 1636.5 -3.46904 -0.235206 0
M  V30 17133 H 1635.82 -3.97006 0.471869 0
M  V30 17134 H 1637.26 -4.20548 -0.539969 0
M  V30 17135 C 1635.72 -3.03697 -1.45841 0
M  V30 17136 O 1636.25 -3.09887 -2.55603 0
M  V30 17137 N 1634.46 -2.58866 -1.32049 0
M  V30 17138 H 1634 -2.54029 -0.427428 0
M  V30 17139 H 1633.96 -2.30322 -2.14008 0
M  V30 17140 N 1637.73 -0.725468 -1.3991 0
M  V30 17141 C 1638.98 -0.268719 -2.00306 0
M  V30 17142 C 1639.3 1.14511 -1.57836 0
M  V30 17143 O 1638.57 1.77808 -0.822263 0
M  V30 17144 H 1637.15 -0.0963614 -0.740759 0
M  V30 17145 H 1639.82 -0.933303 -1.71101 0
M  V30 17146 H 1638.91 -0.309587 -3.10561 0
M  V30 17147 N 1639.21 1.50354 -0.472382 0
M  V30 17148 C 1640.44 2.06746 0.0798134 0
M  V30 17149 C 1640.86 1.3361 1.33393 0
M  V30 17150 O 1640.21 0.405765 1.77932 0
M  V30 17151 C 1640.26 3.59636 0.3666 0
M  V30 17152 O 1639.98 4.30015 -0.837776 0
M  V30 17153 C 1641.49 4.32655 0.965618 0
M  V30 17154 H 1638.71 0.670956 -0.00765904 0
M  V30 17155 H 1641.25 1.93504 -0.661535 0
M  V30 17156 H 1639.4 3.72676 1.05788 0
M  V30 17157 H 1639.82 5.21248 -0.583161 0
M  V30 17158 H 1641.29 5.406 1.11604 0
M  V30 17159 H 1641.77 3.93237 1.95606 0
M  V30 17160 H 1642.38 4.24149 0.312676 0
M  V30 17161 N 1640.69 0.205039 1.56261 0
M  V30 17162 C 1641.62 -0.706815 2.22545 0
M  V30 17163 C 1642.6 -1.21372 1.19176 0
M  V30 17164 O 1643.79 -1.26074 1.47712 0
M  V30 17165 C 1640.92 -1.92221 2.89255 0
M  V30 17166 C 1639.87 -1.54982 3.98954 0
M  V30 17167 C 1639.2 -2.84265 4.52877 0
M  V30 17168 C 1640.5 -0.75225 5.16854 0
M  V30 17169 H 1642.19 -0.15421 2.99003 0
M  V30 17170 H 1639.74 -0.0727309 1.43816 0
M  V30 17171 H 1641.69 -2.56542 3.34311 0
M  V30 17172 H 1640.41 -2.49952 2.10218 0
M  V30 17173 H 1639.07 -0.930155 3.54604 0
M  V30 17174 H 1638.72 -3.40105 3.70591 0
M  V30 17175 H 1638.42 -2.60089 5.26904 0
M  V30 17176 H 1639.95 -3.49557 5.00642 0
M  V30 17177 H 1641.36 -1.29878 5.58395 0
M  V30 17178 H 1639.76 -0.60823 5.9701 0
M  V30 17179 H 1640.83 0.24463 4.84283 0
M  V30 17180 N 1642.17 -1.57451 -0.0684915 0
M  V30 17181 C 1643.59 -1.53883 -0.423354 0
M  V30 17182 C 1643.79 -0.925698 -1.78978 0
M  V30 17183 O 1642.84 -0.529629 -2.46883 0
M  V30 17184 C 1644.15 -2.98521 -0.361386 0
M  V30 17185 C 1645.7 -3.09873 -0.441334 0
M  V30 17186 C 1646.18 -4.56168 -0.409239 0
M  V30 17187 N 1647.67 -4.60817 -0.469216 0
M  V30 17188 C 1648.4 -5.71498 -0.466648 0
M  V30 17189 N 1647.9 -6.91534 -0.4187 0
M  V30 17190 N 1649.69 -5.5975 -0.513452 0
M  V30 17191 H 1641.84 -1.95672 0.8262 0
M  V30 17192 H 1644.11 -0.895759 0.310354 0
M  V30 17193 H 1643.81 -3.46951 0.576035 0
M  V30 17194 H 1643.69 -3.58585 -1.17032 0
M  V30 17195 H 1646.07 -2.61414 -1.36918 0
M  V30 17196 H 1646.15 -2.52712 0.396237 0
M  V30 17197 H 1645.8 -5.05285 0.514772 0
M  V30 17198 H 1645.73 -5.11195 -1.26439 0
M  V30 17199 H 1648.22 -3.74438 -0.510387 0
M  V30 17200 H 1648.53 -7.71654 -0.420757 0
M  V30 17201 H 1646.88 -6.93931 -0.385338 0
M  V30 17202 H 1650.07 -4.64874 -0.548626 0
M  V30 17203 H 1650.24 -6.46006 -0.507982 0
M  V30 17204 N 1643.65 0.339955 -1.5389 0
M  V30 17205 C 1644.59 1.41765 -1.8213 0
M  V30 17206 C 1645.56 1.52109 -0.667235 0
M  V30 17207 O 1646.75 1.67591 -0.91203 0
M  V30 17208 C 1643.89 2.78366 -2.03977 0
M  V30 17209 C 1643 2.76785 -3.31684 0
M  V30 17210 C 1642.14 4.05125 -3.4358 0
M  V30 17211 C 1641.18 3.97787 -4.65223 0
M  V30 17212 N 1640.31 5.17825 -4.74133 0
M  V30 17213 H 1645.15 1.16984 -2.74078 0
M  V30 17214 H 1642.69 0.566618 -1.35749 0
M  V30 17215 H 1644.65 3.57755 -2.14633 0
M  V30 17216 H 1643.28 3.01491 -1.15338 0
M  V30 17217 H 1642.33 1.89481 -3.2985 0
M  V30 17218 H 1643.64 2.67241 -4.2117 0
M  V30 17219 H 1642.8 4.9294 -3.53688 0
M  V30 17220 H 1641.54 4.17455 -2.52157 0
M  V30 17221 H 1640.54 3.08357 -4.55188 0
M  V30 17222 H 1641.77 3.87037 -5.58014 0
M  V30 17223 H 1639.71 5.30691 -3.8562 0
M  V30 17224 H 1639.63 5.10552 -5.5756 0
M  V30 17225 H 1640.9 6.074 -4.88554 0
M  V30 17226 N 1645.13 1.45684 0.601159 0
M  V30 17227 C 1646.54 1.44423 1.18317 0
M  V30 17228 C 1646.89 0.17524 1.95416 0
M  V30 17229 O 1646.01 -0.722816 2.03971 0
M  V30 17230 C 1646.61 2.61651 2.1523 0
M  V30 17231 C 1645.17 2.6349 2.68793 0
M  V30 17232 C 1644.31 2.36787 1.44317 0
M  V30 17233 H 1647.26 1.53831 0.390108 0
M  V30 17234 H 1647.29 2.36117 2.98377 0
M  V30 17235 H 1646.8 3.53995 1.59088 0
M  V30 17236 H 1644.9 1.7517 3.28856 0
M  V30 17237 H 1645.01 3.62906 3.12787 0
M  V30 17238 H 1643.38 1.86472 1.73494 0
M  V30 17239 H 1644.16 3.31284 0.900327 0
M  V30 17240 N 1646.6 -0.84422 1.33082 0
M  V30 17241 C 1647.85 -1.60149 1.24419 0
M  V30 17242 C 1648.18 -1.93259 -0.190992 0
M  V30 17243 O 1647.46 -1.58242 -1.13092 0
M  V30 17244 C 1647.74 -2.91502 2.11421 0
M  V30 17245 C 1647.59 -2.65108 3.6337 0
M  V30 17246 C 1648.91 -3.92878 1.98331 0
M  V30 17247 H 1646.03 -0.581096 0.453317 0
M  V30 17248 H 1648.67 -0.974093 1.6313 0
M  V30 17249 H 1646.82 -3.45046 1.78537 0
M  V30 17250 H 1648.5 -2.18037 4.06519 0
M  V30 17251 H 1646.74 -1.98896 3.85516 0
M  V30 17252 H 1647.41 -3.58682 4.19584 0
M  V30 17253 H 1649.89 -3.48623 2.27159 0
M  V30 17254 H 1648.76 -4.82625 2.61466 0
M  V30 17255 H 1649.02 -4.31685 0.953972 0
M  V30 17256 N 1648.08 -1.16463 -1.0618 0
M  V30 17257 C 1649.04 -0.874674 -2.11854 0
M  V30 17258 C 1650.04 0.130829 -1.60267 0
M  V30 17259 O 1651.23 -0.100195 -1.73912 0
M  V30 17260 C 1648.37 -0.30826 -3.39503 0
M  V30 17261 H 1649.56 -1.81149 -2.39009 0
M  V30 17262 H 1647.11 -0.973721 -1.22264 0
M  V30 17263 H 1647.85 0.636181 -3.17999 0
M  V30 17264 H 1647.63 -1.03281 -3.78253 0
M  V30 17265 H 1649.12 -0.123378 -4.17418 0
M  V30 17266 N 1649.56 1.24734 -0.963288 0
M  V30 17267 C 1650.97 1.7456 -0.662246 0
M  V30 17268 C 1651.32 1.78143 0.822169 0
M  V30 17269 O 1650.45 1.40794 1.64335 0
M  V30 17270 C 1651.04 3.1701 -1.19542 0
M  V30 17271 C 1649.6 3.64361 -0.944371 0
M  V30 17272 C 1648.75 2.4314 -1.33335 0
M  V30 17273 H 1651.7 1.10498 -1.13911 0
M  V30 17274 H 1651.72 3.76362 -0.559601 0
M  V30 17275 H 1651.23 3.1437 -2.27581 0
M  V30 17276 H 1649.33 3.72405 0.120682 0
M  V30 17277 H 1649.45 4.52055 -1.58692 0
M  V30 17278 H 1647.81 2.43354 -0.751729 0
M  V30 17279 H 1648.59 2.43185 -2.42314 0
M  V30 17280 N 1651.04 0.732878 1.39523 0
M  V30 17281 C 1651.99 0.0676184 2.279 0
M  V30 17282 C 1652.97 -0.7148 1.44151 0
M  V30 17283 O 1654.16 -0.584158 1.67083 0
M  V30 17284 C 1651.29 -0.840482 3.32853 0
M  V30 17285 C 1650.38 -0.052326 4.24068 0
M  V30 17286 N 1650.77 0.973429 4.96345 0
M  V30 17287 C 1649.07 -0.282301 4.45106 0
M  V30 17288 C 1649.77 1.44851 5.63376 0
M  V30 17289 N 1648.74 0.767499 5.38155 0
M  V30 17290 H 1652.55 0.853533 2.81233 0
M  V30 17291 H 1650.06 0.567016 1.5218 0
M  V30 17292 H 1652.06 -1.33254 3.95031 0
M  V30 17293 H 1650.72 -1.62558 2.81078 0
M  V30 17294 H 1651.73 1.35474 4.99867 0
M  V30 17295 H 1648.41 -1.04237 4.04278 0
M  V30 17296 H 1649.8 2.30179 6.31242 0
M  V30 17297 N 1652.52 -1.50101 0.480349 0
M  V30 17298 C 1653.76 -2.02674 -0.0715373 0
M  V30 17299 C 1654.09 -1.36095 -1.38535 0
M  V30 17300 O 1653.37 -0.489703 -1.88234 0
M  V30 17301 C 1653.65 -3.59261 -0.245693 0
M  V30 17302 C 1653.51 -4.36399 1.08979 0
M  V30 17303 C 1654.82 -4.28682 -0.995966 0
M  V30 17304 H 1651.94 -0.736592 -0.0245244 0
M  V30 17305 H 1654.59 -1.7933 0.627743 0
M  V30 17306 H 1652.74 -3.79281 -0.841308 0
M  V30 17307 H 1654.41 -4.27926 1.72269 0
M  V30 17308 H 1652.65 -3.99773 1.68417 0
M  V30 17309 H 1653.32 -5.44254 0.921468 0
M  V30 17310 H 1655.8 -4.13193 -0.491025 0
M  V30 17311 H 1654.67 -5.38037 -1.08663 0
M  V30 17312 H 1654.93 -3.92491 -2.03479 0
M  V30 17313 N 1653.99 -0.213323 -1.5615 0
M  V30 17314 C 1654.93 0.732346 -2.17185 0
M  V30 17315 C 1655.94 1.16357 -1.13864 0
M  V30 17316 O 1657.13 1.09614 -1.40879 0
M  V30 17317 C 1654.23 2.0027 -2.73395 0
M  V30 17318 C 1653.4 1.72836 -4.01804 0
M  V30 17319 C 1652.46 2.84497 -4.4266 0
M  V30 17320 O 1651.49 2.5332 -5.09723 0
M  V30 17321 N 1652.69 4.13268 -4.07663 0
M  V30 17322 H 1655.45 0.210294 -2.98961 0
M  V30 17323 H 1653.01 -0.0320124 -1.61868 0
M  V30 17324 H 1655.01 2.74145 -2.97702 0
M  V30 17325 H 1653.58 2.43546 -1.9597 0
M  V30 17326 H 1652.8 0.826474 -3.85439 0
M  V30 17327 H 1654.08 1.51928 -4.85588 0
M  V30 17328 H 1653.48 4.41444 -3.53756 0
M  V30 17329 H 1652.04 4.83713 -4.36881 0
M  V30 17330 N 1655.47 1.57485 0.0601405 0
M  V30 17331 C 1656.38 2.07853 1.08785 0
M  V30 17332 C 1657.4 1.01047 1.41653 0
M  V30 17333 O 1658.57 1.32592 1.51596 0
M  V30 17334 C 1655.64 2.52214 2.37885 0
M  V30 17335 C 1654.7 3.73369 2.11882 0
M  V30 17336 C 1653.93 4.15604 3.34827 0
M  V30 17337 O 1654.16 3.5761 4.44377 0
M  V30 17338 O 1653.09 5.08303 3.22353 0
M  V30 17339 H 1656.92 2.9576 0.689912 0
M  V30 17340 H 1654.5 1.46846 0.275065 0
M  V30 17341 H 1656.38 2.81216 3.1384 0
M  V30 17342 H 1655.06 1.67432 2.77035 0
M  V30 17343 H 1653.97 3.49433 1.33594 0
M  V30 17344 H 1655.3 4.59039 1.77606 0
M  V30 17345 N 1656.95 -0.331789 1.54068 0
M  V30 17346 C 1658.23 -1.08843 1.6252 0
M  V30 17347 C 1658.61 -2.06164 0.453847 0
M  V30 17348 O 1657.96 -2.21714 -0.552727 0
M  V30 17349 C 1658.17 -1.79767 2.9914 0
M  V30 17350 C 1659.51 -2.33086 3.54903 0
M  V30 17351 O 1660.54 -1.89846 3.01392 0
M  V30 17352 O 1659.4 -3.12226 4.48528 0
M  V30 17353 H 1656.49 -0.501222 0.657804 0
M  V30 17354 H 1659.04 -0.332339 1.66414 0
M  V30 17355 H 1657.81 -1.08932 3.75832 0
M  V30 17356 H 1657.43 -2.62205 2.98888 0
M  V30 17357 N 1658.43 -1.46001 -0.593424 0
M  V30 17358 C 1659.65 -1.54541 -1.38318 0
M  V30 17359 C 1660.08 -0.183555 -1.87202 0
M  V30 17360 O 1659.44 0.834407 -1.60958 0
M  V30 17361 C 1659.48 -2.54559 -2.55405 0
M  V30 17362 O 1658.59 -2.07321 -3.56499 0
M  V30 17363 H 1657.93 -0.520434 -0.412364 0
M  V30 17364 H 1660.46 -1.9148 -0.720862 0
M  V30 17365 H 1660.47 -2.73823 -3.02465 0
M  V30 17366 H 1659.14 -3.53461 -2.19176 0
M  V30 17367 H 1657.72 -1.97997 -3.15993 0
M  V30 17368 N 1659.91 0.83715 -1.33527 0
M  V30 17369 C 1661.13 1.62976 -1.28271 0
M  V30 17370 C 1661.56 1.87554 0.143201 0
M  V30 17371 O 1660.91 1.44088 1.10038 0
M  V30 17372 C 1660.96 2.95607 -2.06516 0
M  V30 17373 O 1660.07 3.87 -1.42494 0
M  V30 17374 H 1659.41 0.496212 -0.441214 0
M  V30 17375 H 1661.94 1.04137 -1.76115 0
M  V30 17376 H 1661.95 3.4529 -2.17344 0
M  V30 17377 H 1660.62 2.77041 -3.10195 0
M  V30 17378 H 1659.2 3.45492 -1.40321 0
M  V30 17379 N 1661.38 1.17024 1.05561 0
M  V30 17380 C 1662.61 0.98075 1.82178 0
M  V30 17381 C 1663.03 -0.471027 1.8283 0
M  V30 17382 O 1662.38 -1.32703 1.25284 0
M  V30 17383 C 1662.44 1.50979 3.28463 0
M  V30 17384 O 1662.16 2.90471 3.27961 0
M  V30 17385 C 1663.66 1.36436 4.21782 0
M  V30 17386 H 1660.88 0.3472 0.574189 0
M  V30 17387 H 1663.42 1.55226 1.33136 0
M  V30 17388 H 1661.58 0.980393 3.74789 0
M  V30 17389 H 1661.99 3.14847 4.19489 0
M  V30 17390 H 1663.46 1.78272 5.2242 0
M  V30 17391 H 1663.94 0.310922 4.38098 0
M  V30 17392 H 1664.55 1.88374 3.81308 0
M  V30 17393 N 1662.86 -1.24221 0.969889 0
M  V30 17394 C 1663.79 -2.24544 0.459636 0
M  V30 17395 C 1664.81 -1.56941 -0.432813 0
M  V30 17396 O 1666 -1.76898 -0.238637 0
M  V30 17397 C 1663.1 -3.3703 -0.3555 0
M  V30 17398 C 1662.27 -4.34207 0.527566 0
M  V30 17399 C 1661.33 -5.25689 -0.231934 0
M  V30 17400 O 1660.35 -5.67964 0.37488 0
M  V30 17401 N 1661.56 -5.60222 -1.5209 0
M  V30 17402 H 1664.32 -2.68957 1.3222 0
M  V30 17403 H 1661.88 -1.38285 0.84196 0
M  V30 17404 H 1663.87 -3.95201 -0.871685 0
M  V30 17405 H 1662.44 -2.91885 -1.11901 0
M  V30 17406 H 1661.66 -3.74693 1.2247 0
M  V30 17407 H 1662.95 -4.96099 1.12975 0
M  V30 17408 H 1662.35 -5.27807 -2.03559 0
M  V30 17409 H 1660.91 -6.20911 -1.98273 0
M  V30 17410 N 1664.34 -0.740267 -1.39132 0
M  V30 17411 C 1665.76 -0.416412 -1.54072 0
M  V30 17412 C 1665.96 1.07211 -1.70611 0
M  V30 17413 O 1665.01 1.85822 -1.70958 0
M  V30 17414 C 1666.33 -1.20403 -2.75542 0
M  V30 17415 C 1667.87 -1.19278 -2.89382 0
M  V30 17416 C 1668.35 -1.96308 -4.13796 0
M  V30 17417 N 1669.84 -1.93501 -4.20846 0
M  V30 17418 C 1670.57 -2.49907 -5.16075 0
M  V30 17419 N 1670.07 -3.14973 -6.17061 0
M  V30 17420 N 1671.86 -2.39911 -5.0833 0
M  V30 17421 H 1664.01 -1.70513 -1.26645 0
M  V30 17422 H 1666.28 -0.722111 -0.614214 0
M  V30 17423 H 1665.98 -2.25754 -2.69681 0
M  V30 17424 H 1665.86 -0.811986 -3.68357 0
M  V30 17425 H 1668.24 -0.147385 -2.94732 0
M  V30 17426 H 1668.33 -1.62424 -1.97616 0
M  V30 17427 H 1667.97 -3.00851 -4.09208 0
M  V30 17428 H 1667.9 -1.50565 -5.04617 0
M  V30 17429 H 1670.39 -1.46104 -3.48514 0
M  V30 17430 H 1670.7 -3.55467 -6.86195 0
M  V30 17431 H 1669.05 -3.19064 -6.17433 0
M  V30 17432 H 1672.24 -1.88718 -4.28373 0
M  V30 17433 H 1672.41 -2.84169 -5.82368 0
M  V30 17434 N 1665.82 1.49844 -0.488302 0
M  V30 17435 C 1667.05 2.06519 0.0577968 0
M  V30 17436 C 1667.46 1.35039 1.32519 0
M  V30 17437 O 1666.8 0.418468 1.7887 0
M  V30 17438 C 1666.86 3.57328 0.394577 0
M  V30 17439 C 1666.53 4.50411 -0.773259 0
M  V30 17440 C 1667.52 4.9268 -1.66019 0
M  V30 17441 C 1665.21 4.92875 -0.968465 0
M  V30 17442 C 1667.2 5.76139 -2.72659 0
M  V30 17443 C 1664.89 5.76113 -2.03806 0
M  V30 17444 C 1665.89 6.17648 -2.91548 0
M  V30 17445 O 1665.57 6.99224 -3.96663 0
M  V30 17446 H 1665.31 0.675902 -0.0115057 0
M  V30 17447 H 1667.86 1.93777 -0.681149 0
M  V30 17448 H 1666.09 3.68033 1.18695 0
M  V30 17449 H 1667.78 3.96295 0.877786 0
M  V30 17450 H 1668.55 4.60528 -1.52114 0
M  V30 17451 H 1664.42 4.60056 -0.294936 0
M  V30 17452 H 1667.97 6.08478 -3.41174 0
M  V30 17453 H 1663.87 6.07678 -2.17711 0
M  V30 17454 H 1664.63 7.17507 -3.93861 0
M  V30 17455 N 1667.3 0.221601 1.56034 0
M  V30 17456 C 1668.52 -0.417979 2.03145 0
M  V30 17457 C 1668.95 -1.52556 1.10038 0
M  V30 17458 O 1668.3 -1.81084 0.0885729 0
M  V30 17459 C 1668.35 -0.926762 3.48487 0
M  V30 17460 O 1667.46 -2.03811 3.58518 0
M  V30 17461 H 1666.8 -0.0945778 0.65723 0
M  V30 17462 H 1669.33 0.340252 2.01751 0
M  V30 17463 H 1669.34 -1.23656 3.8881 0
M  V30 17464 H 1668.01 -0.116115 4.15738 0
M  V30 17465 H 1666.59 -1.73494 3.30082 0
M  V30 17466 N 1668.77 -1.57515 -0.0517878 0
M  V30 17467 C 1669.74 -2.04049 -1.04387 0
M  V30 17468 C 1670.74 -0.940745 -1.30409 0
M  V30 17469 O 1671.93 -1.20505 -1.25794 0
M  V30 17470 C 1669.06 -2.43816 -2.38257 0
M  V30 17471 H 1670.25 -2.9294 -0.642367 0
M  V30 17472 H 1667.81 -1.53432 -0.29805 0
M  V30 17473 H 1668.54 -1.58013 -2.832 0
M  V30 17474 H 1668.33 -3.24086 -2.20705 0
M  V30 17475 H 1669.82 -2.80325 -3.09528 0
M  V30 17476 N 1670.25 0.323614 -1.54242 0
M  V30 17477 C 1671.53 1.07979 -1.63095 0
M  V30 17478 C 1671.91 2.0592 -0.464774 0
M  V30 17479 O 1671.26 2.22004 0.540961 0
M  V30 17480 C 1671.47 1.78178 -3.0009 0
M  V30 17481 C 1672.82 2.31201 -3.56134 0
M  V30 17482 O 1673.84 1.88245 -3.02394 0
M  V30 17483 O 1672.7 3.09843 -4.50177 0
M  V30 17484 H 1669.79 0.497726 -0.660453 0
M  V30 17485 H 1672.34 0.323509 -1.66588 0
M  V30 17486 H 1671.11 1.06938 -3.76404 0
M  V30 17487 H 1670.73 2.60616 -3.00275 0
M  V30 17488 N 1671.73 1.46313 0.585673 0
M  V30 17489 C 1673.14 1.4567 1.16778 0
M  V30 17490 C 1673.49 0.195957 1.95219 0
M  V30 17491 O 1672.62 -0.701142 2.04727 0
M  V30 17492 C 1673.21 2.6392 2.12443 0
M  V30 17493 C 1671.77 2.66327 2.65983 0
M  V30 17494 C 1670.92 2.38304 1.41797 0
M  V30 17495 H 1673.87 1.54236 0.37377 0
M  V30 17496 H 1673.89 2.39268 2.95856 0
M  V30 17497 H 1673.4 3.55663 1.55324 0
M  V30 17498 H 1671.5 1.78648 3.2698 0
M  V30 17499 H 1671.62 3.66203 3.08921 0
M  V30 17500 H 1669.98 1.88302 1.71507 0
M  V30 17501 H 1670.76 3.3222 0.86514 0
M  V30 17502 N 1673.21 -0.830057 1.33969 0
M  V30 17503 C 1674.44 -1.61774 1.28984 0
M  V30 17504 C 1674.85 -1.88299 -0.137515 0
M  V30 17505 O 1674.21 -1.46936 -1.0824 0
M  V30 17506 C 1674.26 -2.96282 2.07121 0
M  V30 17507 O 1673.98 -2.70918 3.44289 0
M  V30 17508 C 1675.48 -3.90699 2.09449 0
M  V30 17509 H 1672.7 -0.503088 0.444008 0
M  V30 17510 H 1675.25 -1.03328 1.76475 0
M  V30 17511 H 1673.4 -3.51305 1.63289 0
M  V30 17512 H 1673.82 -3.56635 3.84593 0
M  V30 17513 H 1675.29 -4.82266 2.68558 0
M  V30 17514 H 1675.77 -4.25536 1.08702 0
M  V30 17515 H 1676.37 -3.41614 2.53338 0
M  V30 17516 N 1674.69 -1.17582 -1.04939 0
M  V30 17517 C 1675.93 -0.967208 -1.7825 0
M  V30 17518 C 1676.27 0.502711 -1.87581 0
M  V30 17519 O 1675.54 1.37318 -1.37746 0
M  V30 17520 C 1675.82 -1.61205 -3.22001 0
M  V30 17521 C 1675.68 -3.15424 -3.20667 0
M  V30 17522 C 1677 -1.31804 -4.199 0
M  V30 17523 H 1674.12 -0.35279 -0.647077 0
M  V30 17524 H 1676.76 -1.45119 -1.2264 0
M  V30 17525 H 1674.91 -1.20052 -3.69486 0
M  V30 17526 H 1676.58 -3.65653 -2.8124 0
M  V30 17527 H 1674.82 -3.48042 -2.58938 0
M  V30 17528 H 1675.49 -3.55674 -4.22138 0
M  V30 17529 H 1677.97 -1.67446 -3.80921 0
M  V30 17530 H 1676.85 -1.79505 -5.18719 0
M  V30 17531 H 1677.11 -0.239304 -4.41452 0
M  V30 17532 N 1676.17 1.23705 -0.976463 0
M  V30 17533 C 1677.41 1.92015 -0.643168 0
M  V30 17534 C 1677.74 1.76239 0.822796 0
M  V30 17535 O 1677 1.11469 1.60851 0
M  V30 17536 C 1677.29 3.43853 -0.974676 0
M  V30 17537 C 1676.96 3.79805 -2.43021 0
M  V30 17538 C 1675.62 3.89329 -2.82801 0
M  V30 17539 C 1677.97 3.97218 -3.37442 0
M  V30 17540 C 1675.3 4.13691 -4.16025 0
M  V30 17541 C 1677.65 4.23079 -4.70305 0
M  V30 17542 C 1676.32 4.30824 -5.0985 0
M  V30 17543 H 1675.59 0.702631 -0.235352 0
M  V30 17544 H 1678.24 1.46811 -1.22959 0
M  V30 17545 H 1676.54 3.90602 -0.306121 0
M  V30 17546 H 1678.24 3.9493 -0.695061 0
M  V30 17547 H 1674.83 3.72963 -2.11179 0
M  V30 17548 H 1679.01 3.89254 -3.07889 0
M  V30 17549 H 1674.27 4.17909 -4.46276 0
M  V30 17550 H 1678.44 4.35496 -5.4343 0
M  V30 17551 H 1676.07 4.49454 -6.13103 0
M  V30 17552 N 1677.64 0.747635 1.38738 0
M  V30 17553 C 1678.61 0.124321 2.28863 0
M  V30 17554 C 1679.61 -0.653816 1.46908 0
M  V30 17555 O 1680.8 -0.480963 1.67429 0
M  V30 17556 C 1677.93 -0.832601 3.30576 0
M  V30 17557 H 1679.12 0.918492 2.85489 0
M  V30 17558 H 1676.67 0.514262 1.47598 0
M  V30 17559 H 1677.41 -1.65267 2.79029 0
M  V30 17560 H 1677.19 -0.277109 3.9112 0
M  V30 17561 H 1678.68 -1.2649 3.97982 0
M  V30 17562 N 1679.12 -1.49583 0.496242 0
M  V30 17563 C 1680.53 -1.8664 0.0472756 0
M  V30 17564 C 1680.88 -1.40898 -1.36536 0
M  V30 17565 O 1680.01 -0.784796 -2.01668 0
M  V30 17566 C 1680.6 -3.38708 0.079016 0
M  V30 17567 C 1679.16 -3.75083 -0.314587 0
M  V30 17568 C 1678.31 -2.73565 0.453624 0
M  V30 17569 H 1681.26 -1.41969 0.709269 0
M  V30 17570 H 1681.28 -3.73676 -0.717396 0
M  V30 17571 H 1680.79 -3.71969 1.10727 0
M  V30 17572 H 1678.89 -3.47429 -1.34625 0
M  V30 17573 H 1679.01 -4.791 0.00155427 0
M  V30 17574 H 1677.37 -2.54519 -0.095937 0
M  V30 17575 H 1678.15 -3.0967 1.48186 0
M  V30 17576 N 1680.6 -0.229873 -1.55915 0
M  V30 17577 C 1681.51 0.687953 -2.24286 0
M  V30 17578 C 1682.53 1.20705 -1.25325 0
M  V30 17579 O 1683.7 1.2469 -1.58159 0
M  V30 17580 C 1680.77 1.87563 -2.91584 0
M  V30 17581 C 1679.83 1.39769 -4.0591 0
M  V30 17582 C 1679.06 2.52876 -4.69989 0
M  V30 17583 O 1679.28 3.71208 -4.33083 0
M  V30 17584 O 1678.22 2.23603 -5.58825 0
M  V30 17585 H 1682.04 0.135464 -3.03398 0
M  V30 17586 H 1679.63 0.000925172 -1.494 0
M  V30 17587 H 1681.51 2.56907 -3.34031 0
M  V30 17588 H 1680.19 2.41606 -2.15426 0
M  V30 17589 H 1679.09 0.672029 -3.68014 0
M  V30 17590 H 1680.43 0.903543 -4.83836 0
M  V30 17591 N 1682.08 1.5754 0.0434337 0
M  V30 17592 C 1683.49 1.54537 0.398819 0
M  V30 17593 C 1683.69 0.954055 1.77483 0
M  V30 17594 O 1682.75 0.568839 2.46009 0
M  V30 17595 C 1684.06 2.99058 0.313848 0
M  V30 17596 C 1685.61 3.10536 0.39198 0
M  V30 17597 C 1686.09 4.56761 0.336614 0
M  V30 17598 N 1687.58 4.61505 0.395844 0
M  V30 17599 C 1688.31 5.72168 0.375669 0
M  V30 17600 N 1687.81 6.92112 0.30863 0
M  V30 17601 N 1689.6 5.60496 0.424335 0
M  V30 17602 H 1681.75 1.94333 -0.857225 0
M  V30 17603 H 1684.01 0.890708 -0.324566 0
M  V30 17604 H 1683.72 3.4599 -0.631159 0
M  V30 17605 H 1683.59 3.60402 1.11313 0
M  V30 17606 H 1685.98 2.6356 1.32742 0
M  V30 17607 H 1686.06 2.5205 -0.436391 0
M  V30 17608 H 1685.71 5.04402 -0.595093 0
M  V30 17609 H 1685.64 5.13142 1.1829 0
M  V30 17610 H 1688.13 3.75202 0.450753 0
M  V30 17611 H 1688.44 7.72225 0.29794 0
M  V30 17612 H 1686.79 6.94456 0.274891 0
M  V30 17613 H 1689.98 4.65688 0.474599 0
M  V30 17614 H 1690.15 6.46732 0.405143 0
M  V30 17615 N 1683.56 -0.31543 1.54411 0
M  V30 17616 C 1684.78 -1.0761 1.77299 0
M  V30 17617 C 1685.21 -1.80655 0.523963 0
M  V30 17618 O 1684.56 -1.73536 -0.524874 0
M  V30 17619 C 1684.61 -2.04355 2.97105 0
M  V30 17620 O 1683.72 -3.12401 2.69219 0
M  V30 17621 H 1683.06 -0.30986 0.587267 0
M  V30 17622 H 1685.59 -0.357246 2.01457 0
M  V30 17623 H 1685.6 -2.47081 3.24677 0
M  V30 17624 H 1684.27 -1.50592 3.87679 0
M  V30 17625 H 1682.85 -2.74294 2.52621 0
M  V30 17626 N 1685.03 -1.46622 -0.577906 0
M  V30 17627 C 1686.45 -1.46287 -1.16004 0
M  V30 17628 C 1686.8 -0.206307 -1.95112 0
M  V30 17629 O 1685.92 0.690275 -2.05096 0
M  V30 17630 C 1686.52 -2.65042 -2.1104 0
M  V30 17631 C 1685.08 -2.67733 -2.64567 0
M  V30 17632 C 1684.22 -2.39053 -1.40531 0
M  V30 17633 H 1687.17 -1.54432 -0.365585 0
M  V30 17634 H 1687.19 -2.40834 -2.94583 0
M  V30 17635 H 1686.71 -3.56481 -1.53436 0
M  V30 17636 H 1684.81 -1.80379 -3.26028 0
M  V30 17637 H 1684.92 -3.67836 -3.06974 0
M  V30 17638 H 1683.28 -1.89209 -1.70506 0
M  V30 17639 H 1684.07 -3.32674 -0.847509 0
M  V30 17640 N 1686.51 0.822941 -1.34408 0
M  V30 17641 C 1687.93 1.11606 -1.14089 0
M  V30 17642 C 1688.13 2.01418 0.0576164 0
M  V30 17643 O 1687.18 2.41622 0.733146 0
M  V30 17644 C 1688.5 1.76279 -2.43611 0
M  V30 17645 C 1690.05 1.88773 -2.49667 0
M  V30 17646 C 1690.52 2.56862 -3.79191 0
M  V30 17647 N 1692.01 2.64362 -3.80351 0
M  V30 17648 C 1692.75 3.17775 -4.77291 0
M  V30 17649 N 1692.24 3.71751 -5.84613 0
M  V30 17650 N 1694.04 3.16175 -4.64747 0
M  V30 17651 H 1686.19 0.225555 -2.11199 0
M  V30 17652 H 1688.45 0.162621 -0.933948 0
M  V30 17653 H 1688.16 1.17749 -3.31403 0
M  V30 17654 H 1688.03 2.76147 -2.56949 0
M  V30 17655 H 1690.42 2.46451 -1.62314 0
M  V30 17656 H 1690.5 0.878079 -2.40257 0
M  V30 17657 H 1690.14 1.99839 -4.66933 0
M  V30 17658 H 1690.07 3.58332 -3.85883 0
M  V30 17659 H 1692.56 2.26102 -3.02797 0
M  V30 17660 H 1692.88 4.10759 -6.54597 0
M  V30 17661 H 1691.22 3.69995 -5.88327 0
M  V30 17662 H 1694.41 2.73274 -3.80051 0
M  V30 17663 H 1694.58 3.57498 -5.40462 0
M  V30 17664 N 1687.99 1.18137 1.04314 0
M  V30 17665 C 1689.24 0.973277 1.77121 0
M  V30 17666 C 1689.56 -0.498558 1.88519 0
M  V30 17667 O 1688.83 -1.36168 1.40837 0
M  V30 17668 H 1687.41 0.35712 0.656105 0
M  V30 17669 H 1690.07 1.48774 1.25906 0
M  V30 17670 H 1689.17 1.40917 2.78476 0
M  V30 17671 N 1689.47 -1.23186 0.98301 0
M  V30 17672 C 1690.38 -2.28448 0.533727 0
M  V30 17673 C 1691.39 -1.69034 -0.412732 0
M  V30 17674 O 1692.57 -1.99416 -0.282007 0
M  V30 17675 C 1689.64 -3.46357 -0.154179 0
M  V30 17676 C 1688.7 -4.21121 0.834009 0
M  V30 17677 C 1687.93 -5.334 0.178836 0
M  V30 17678 O 1688.15 -5.61032 -1.02952 0
M  V30 17679 O 1687.09 -5.95451 0.878722 0
M  V30 17680 H 1690.91 -2.69027 1.40919 0
M  V30 17681 H 1688.5 -1.29166 0.75077 0
M  V30 17682 H 1690.38 -4.17926 -0.539947 0
M  V30 17683 H 1689.05 -3.07724 -1.00437 0
M  V30 17684 H 1687.96 -3.51864 1.27053 0
M  V30 17685 H 1689.29 -4.6361 1.65309 0
M  V30 17686 N 1690.95 -0.754982 -1.38339 0
M  V30 17687 C 1691.88 -0.143678 -2.33058 0
M  V30 17688 C 1692.86 0.702022 -1.54938 0
M  V30 17689 O 1694.04 0.642922 -1.83249 0
M  V30 17690 C 1691.17 0.749194 -3.39123 0
M  V30 17691 C 1690.13 0.00611459 -4.28 0
M  V30 17692 C 1689.45 1.01733 -5.24933 0
M  V30 17693 C 1690.75 -1.1631 -5.09185 0
M  V30 17694 H 1692.45 -0.934907 -2.84429 0
M  V30 17695 H 1689.99 -0.451023 -1.36754 0
M  V30 17696 H 1691.95 1.18653 -4.04351 0
M  V30 17697 H 1690.67 1.57276 -2.86237 0
M  V30 17698 H 1689.33 -0.411816 -3.6428 0
M  V30 17699 H 1688.98 1.83499 -4.68334 0
M  V30 17700 H 1688.68 0.524783 -5.85252 0
M  V30 17701 H 1690.2 1.45395 -5.93037 0
M  V30 17702 H 1691.61 -0.803244 -5.67645 0
M  V30 17703 H 1690.01 -1.5866 -5.78746 0
M  V30 17704 H 1691.08 -1.97533 -4.42842 0
M  V30 17705 N 1692.42 1.49318 -0.504168 0
M  V30 17706 C 1693.7 1.95332 0.102393 0
M  V30 17707 C 1694.08 1.44576 1.53821 0
M  V30 17708 O 1693.43 0.660894 2.18734 0
M  V30 17709 C 1693.64 3.48998 0.0117694 0
M  V30 17710 C 1694.99 4.24201 0.184101 0
M  V30 17711 O 1696.01 3.56094 0.0868056 0
M  V30 17712 O 1694.87 5.45147 0.384267 0
M  V30 17713 H 1691.96 0.821691 0.0935582 0
M  V30 17714 H 1694.51 1.5995 -0.566932 0
M  V30 17715 H 1693.28 3.78585 -0.989413 0
M  V30 17716 H 1692.91 3.91006 0.7211 0
M  V30 17717 N 1693.9 0.238138 1.5579 0
M  V30 17718 C 1694.81 -0.676049 2.24648 0
M  V30 17719 C 1695.83 -1.20038 1.25964 0
M  V30 17720 O 1697 -1.2385 1.58818 0
M  V30 17721 C 1694.07 -1.86014 2.92574 0
M  V30 17722 C 1693.13 -1.37615 4.06646 0
M  V30 17723 C 1692.36 -2.5038 4.71323 0
M  V30 17724 O 1692.59 -3.68906 4.35045 0
M  V30 17725 O 1691.52 -2.20636 5.60003 0
M  V30 17726 H 1695.35 -0.119372 3.03465 0
M  V30 17727 H 1692.93 0.00699789 1.49398 0
M  V30 17728 H 1694.81 -2.55132 3.35389 0
M  V30 17729 H 1693.49 -2.4046 2.16704 0
M  V30 17730 H 1692.4 -0.652503 3.68366 0
M  V30 17731 H 1693.73 -0.877871 4.84308 0
M  V30 17732 N 1695.38 -1.57561 -0.0350783 0
M  V30 17733 C 1696.29 -2.09558 -1.05464 0
M  V30 17734 C 1697.31 -1.03288 -1.40027 0
M  V30 17735 O 1698.48 -1.34987 -1.49467 0
M  V30 17736 C 1695.55 -2.55966 -2.33842 0
M  V30 17737 C 1694.61 -3.76693 -2.05915 0
M  V30 17738 C 1693.84 -4.20878 -3.28172 0
M  V30 17739 O 1694.06 -3.64634 -4.38632 0
M  V30 17740 O 1693 -5.13367 -3.14225 0
M  V30 17741 H 1696.82 -2.9682 -0.642771 0
M  V30 17742 H 1694.41 -1.47265 -0.251668 0
M  V30 17743 H 1696.29 -2.86173 -3.09327 0
M  V30 17744 H 1694.97 -1.71818 -2.74336 0
M  V30 17745 H 1693.87 -3.51514 -1.28018 0
M  V30 17746 H 1695.21 -4.61807 -1.70281 0
M  V30 17747 N 1696.86 0.307236 -1.54576 0
M  V30 17748 C 1698.11 1.04115 -1.73218 0
M  V30 17749 C 1698.43 1.88008 -0.517482 0
M  V30 17750 O 1697.7 1.90219 0.468336 0
M  V30 17751 H 1696.28 0.387388 -0.638701 0
M  V30 17752 H 1698.94 0.339727 -1.91916 0
M  V30 17753 H 1698.04 1.69784 -2.61877 0
M  V30 17754 N 1698.34 1.46926 0.570122 0
M  V30 17755 C 1699.57 1.56253 1.35161 0
M  V30 17756 C 1699.97 0.207041 1.88064 0
M  V30 17757 O 1699.32 -0.807871 1.64982 0
M  V30 17758 C 1699.38 2.51715 2.56671 0
M  V30 17759 C 1699.04 3.97691 2.25147 0
M  V30 17760 C 1700.04 4.86546 1.83219 0
M  V30 17761 C 1697.73 4.42924 2.36904 0
M  V30 17762 C 1699.72 6.18651 1.53459 0
M  V30 17763 C 1697.41 5.75061 2.06757 0
M  V30 17764 C 1698.4 6.62745 1.65101 0
M  V30 17765 O 1698.09 7.92427 1.3533 0
M  V30 17766 H 1697.82 0.53064 0.418804 0
M  V30 17767 H 1700.38 1.93147 0.698804 0
M  V30 17768 H 1698.61 2.09862 3.24799 0
M  V30 17769 H 1700.3 2.5131 3.18745 0
M  V30 17770 H 1701.06 4.52851 1.7364 0
M  V30 17771 H 1696.94 3.7489 2.68287 0
M  V30 17772 H 1700.49 6.87049 1.20872 0
M  V30 17773 H 1696.38 6.08301 2.15964 0
M  V30 17774 H 1697.15 8.04811 1.49069 0
M  V30 17775 N 1699.82 -0.815801 1.34842 0
M  V30 17776 C 1700.75 -1.93258 1.21353 0
M  V30 17777 C 1701.73 -1.6227 0.103515 0
M  V30 17778 O 1702.91 -1.86557 0.269954 0
M  V30 17779 C 1700.04 -3.27429 0.866494 0
M  V30 17780 C 1699.08 -3.77372 1.98727 0
M  V30 17781 S 1699.92 -3.96277 3.60173 0
M  V30 17782 C 1701.07 -5.33364 3.27526 0
M  V30 17783 H 1701.31 -2.04405 2.15884 0
M  V30 17784 H 1698.84 -0.972165 1.19951 0
M  V30 17785 H 1700.8 -4.04945 0.673064 0
M  V30 17786 H 1699.46 -3.14042 -0.0605998 0
M  V30 17787 H 1698.65 -4.74522 1.69837 0
M  V30 17788 H 1698.25 -3.06825 2.13855 0
M  V30 17789 H 1700.54 -6.17031 2.79783 0
M  V30 17790 H 1701.49 -5.67242 4.23842 0
M  V30 17791 H 1701.9 -4.99213 2.63527 0
M  V30 17792 N 1701.29 -1.18689 -1.03686 0
M  V30 17793 C 1702.52 -1.00961 -1.80595 0
M  V30 17794 C 1702.94 0.44188 -1.83556 0
M  V30 17795 O 1702.29 1.30693 -1.27379 0
M  V30 17796 C 1702.34 -1.56185 -3.26019 0
M  V30 17797 O 1702.07 -2.95652 -3.23298 0
M  V30 17798 C 1703.57 -1.43129 -4.19558 0
M  V30 17799 H 1700.79 -0.356291 -0.568593 0
M  V30 17800 H 1703.33 -1.57324 -1.3065 0
M  V30 17801 H 1701.49 -1.03989 -3.73182 0
M  V30 17802 H 1701.9 -3.21481 -4.14427 0
M  V30 17803 H 1703.37 -1.86561 -5.19518 0
M  V30 17804 H 1703.85 -0.380581 -4.37548 0
M  V30 17805 H 1704.46 -1.94416 -3.78262 0
M  V30 17806 N 1702.77 1.22662 -0.989529 0
M  V30 17807 C 1704.18 1.73116 -0.699124 0
M  V30 17808 C 1704.53 1.79847 0.784197 0
M  V30 17809 O 1703.66 1.44248 1.61311 0
M  V30 17810 C 1704.25 3.14403 -1.2624 0
M  V30 17811 C 1702.81 3.62275 -1.02144 0
M  V30 17812 C 1701.96 2.40257 -1.38463 0
M  V30 17813 H 1704.91 1.08057 -1.1623 0
M  V30 17814 H 1704.93 3.75091 -0.639307 0
M  V30 17815 H 1704.44 3.09472 -2.34198 0
M  V30 17816 H 1702.54 3.72577 0.0416622 0
M  V30 17817 H 1702.66 4.48587 -1.68245 0
M  V30 17818 H 1701.02 2.41705 -0.803179 0
M  V30 17819 H 1701.8 2.3799 -2.47418 0
M  V30 17820 N 1704.25 0.762308 1.37937 0
M  V30 17821 C 1705.18 0.0886896 2.28028 0
M  V30 17822 C 1706.16 -0.719127 1.45833 0
M  V30 17823 O 1707.34 -0.695902 1.75184 0
M  V30 17824 C 1704.47 -0.880957 3.27043 0
M  V30 17825 C 1703.52 -0.158303 4.26206 0
M  V30 17826 S 1704.35 1.14705 5.23071 0
M  V30 17827 C 1705.51 0.180701 6.25639 0
M  V30 17828 H 1705.74 0.852627 2.84811 0
M  V30 17829 H 1703.27 0.555273 1.4407 0
M  V30 17830 H 1705.23 -1.43504 3.846 0
M  V30 17831 H 1703.89 -1.61793 2.69224 0
M  V30 17832 H 1703.08 -0.893012 4.96025 0
M  V30 17833 H 1702.69 0.324503 3.7259 0
M  V30 17834 H 1704.98 -0.650247 6.74372 0
M  V30 17835 H 1705.92 0.846801 7.03018 0
M  V30 17836 H 1706.33 -0.203883 5.64132 0
M  V30 17837 N 1705.73 -1.49049 0.51208 0
M  V30 17838 C 1707.14 -1.58705 0.16875 0
M  V30 17839 C 1707.34 -1.51612 -1.32725 0
M  V30 17840 O 1706.4 -1.39583 -2.10411 0
M  V30 17841 C 1707.71 -2.91057 0.755391 0
M  V30 17842 C 1709.26 -3.04547 0.722499 0
M  V30 17843 C 1709.74 -4.39534 1.2874 0
M  V30 17844 N 1711.23 -4.46055 1.24858 0
M  V30 17845 C 1711.96 -5.48974 1.65575 0
M  V30 17846 N 1711.46 -6.58941 2.13937 0
M  V30 17847 N 1713.25 -5.39752 1.56922 0
M  V30 17848 H 1705.4 -1.51902 1.48457 0
M  V30 17849 H 1707.66 -0.720204 0.61645 0
M  V30 17850 H 1707.37 -3.01849 1.80499 0
M  V30 17851 H 1707.24 -3.76545 0.222159 0
M  V30 17852 H 1709.63 -2.93378 -0.318291 0
M  V30 17853 H 1709.71 -2.20715 1.293 0
M  V30 17854 H 1709.36 -4.51455 2.32703 0
M  V30 17855 H 1709.29 -5.22024 0.692735 0
M  V30 17856 H 1711.78 -3.67164 0.894354 0
M  V30 17857 H 1712.09 -7.33586 2.43046 0
M  V30 17858 H 1710.44 -6.59952 2.17918 0
M  V30 17859 H 1713.63 -4.52734 1.18951 0
M  V30 17860 H 1713.8 -6.19832 1.88977 0
M  V30 17861 N 1707.21 -0.246397 -1.55662 0
M  V30 17862 C 1708.48 0.42879 -1.90842 0
M  V30 17863 C 1708.86 1.75905 -1.16707 0
M  V30 17864 O 1708.21 2.26723 -0.284391 0
M  V30 17865 C 1708.42 0.597368 -3.4385 0
M  V30 17866 C 1709.77 0.893477 -4.15093 0
M  V30 17867 O 1710.79 0.683251 -3.49586 0
M  V30 17868 O 1709.65 1.2938 -5.30964 0
M  V30 17869 H 1706.75 0.230145 -0.794331 0
M  V30 17870 H 1709.29 -0.290426 -1.67196 0
M  V30 17871 H 1708.06 -0.339952 -3.8982 0
M  V30 17872 H 1707.69 1.36714 -3.73356 0
M  V30 17873 N 1708.68 1.57577 0.026722 0
M  V30 17874 C 1709.63 2.06711 1.02661 0
M  V30 17875 C 1710.6 0.956754 1.35777 0
M  V30 17876 O 1711.79 1.22747 1.46074 0
M  V30 17877 C 1708.93 2.55321 2.32175 0
M  V30 17878 C 1708.04 3.80155 2.05197 0
M  V30 17879 C 1707.17 4.17368 3.28599 0
M  V30 17880 C 1706.21 5.35114 2.97186 0
M  V30 17881 N 1705.35 5.67747 4.13046 0
M  V30 17882 H 1710.19 2.91884 0.600666 0
M  V30 17883 H 1707.73 1.44313 0.284968 0
M  V30 17884 H 1709.68 2.81572 3.07853 0
M  V30 17885 H 1708.31 1.73061 2.72488 0
M  V30 17886 H 1707.37 3.60975 1.20006 0
M  V30 17887 H 1708.68 4.65949 1.78026 0
M  V30 17888 H 1707.83 4.4476 4.12642 0
M  V30 17889 H 1706.57 3.30231 3.58886 0
M  V30 17890 H 1705.58 5.07473 2.11545 0
M  V30 17891 H 1706.8 6.23906 2.68175 0
M  V30 17892 H 1704.75 4.83569 4.4328 0
M  V30 17893 H 1704.66 6.48056 3.89307 0
M  V30 17894 H 1705.93 5.99717 4.97956 0
M  V30 17895 N 1710.16 -0.299034 1.54737 0
M  V30 17896 C 1711.57 -0.871897 1.6509 0
M  V30 17897 C 1711.92 -1.88013 0.560843 0
M  V30 17898 O 1711.05 -2.1428 -0.302194 0
M  V30 17899 C 1711.64 -1.5882 2.99269 0
M  V30 17900 C 1710.2 -2.10944 3.11736 0
M  V30 17901 C 1709.35 -0.942776 2.60782 0
M  V30 17902 H 1712.3 -0.0759883 1.58518 0
M  V30 17903 H 1712.32 -2.45387 2.90802 0
M  V30 17904 H 1711.83 -0.854144 3.78584 0
M  V30 17905 H 1709.93 -2.87391 2.37144 0
M  V30 17906 H 1710.05 -2.34262 4.17921 0
M  V30 17907 H 1708.41 -1.3289 2.17284 0
M  V30 17908 H 1709.19 -0.222646 3.42577 0
M  V30 17909 N 1711.64 -1.47227 -0.562322 0
M  V30 17910 C 1712.59 -1.59329 -1.66981 0
M  V30 17911 C 1713.56 -0.436558 -1.6026 0
M  V30 17912 O 1714.74 -0.655956 -1.7917 0
M  V30 17913 C 1711.88 -1.60874 -3.05309 0
M  V30 17914 C 1710.99 -2.87428 -3.22505 0
M  V30 17915 C 1710.13 -2.80342 -4.512 0
M  V30 17916 C 1709.17 -4.01744 -4.6181 0
M  V30 17917 N 1708.31 -3.92924 -5.81855 0
M  V30 17918 H 1713.15 -2.53921 -1.55975 0
M  V30 17919 H 1710.68 -1.25953 -0.759879 0
M  V30 17920 H 1712.64 -1.59753 -3.85402 0
M  V30 17921 H 1711.27 -0.697994 -3.15163 0
M  V30 17922 H 1710.32 -2.98439 -2.35878 0
M  V30 17923 H 1711.63 -3.77345 -3.26209 0
M  V30 17924 H 1710.79 -2.77442 -5.39547 0
M  V30 17925 H 1709.53 -1.881 -4.49966 0
M  V30 17926 H 1708.53 -4.04954 -3.71877 0
M  V30 17927 H 1709.76 -4.95107 -4.64807 0
M  V30 17928 H 1707.7 -3.03481 -5.8158 0
M  V30 17929 H 1707.62 -4.76514 -5.86916 0
M  V30 17930 H 1708.89 -3.94031 -6.72577 0
M  V30 17931 N 1713.12 0.808639 -1.35273 0
M  V30 17932 C 1714.05 1.92839 -1.23878 0
M  V30 17933 C 1715.06 1.61987 -0.162543 0
M  V30 17934 O 1716.25 1.73593 -0.41564 0
M  V30 17935 C 1713.35 3.27158 -0.884369 0
M  V30 17936 C 1712.52 3.85931 -2.05855 0
M  V30 17937 C 1711.58 4.98652 -1.68025 0
M  V30 17938 O 1710.61 5.16188 -2.39871 0
M  V30 17939 N 1711.81 5.77363 -0.602684 0
M  V30 17940 H 1714.58 2.03141 -2.20349 0
M  V30 17941 H 1712.14 0.985956 -1.28415 0
M  V30 17942 H 1714.13 4.00033 -0.612814 0
M  V30 17943 H 1712.7 3.12599 -0.00940584 0
M  V30 17944 H 1711.92 3.05274 -2.49402 0
M  V30 17945 H 1713.21 4.21929 -2.84347 0
M  V30 17946 H 1712.61 5.657 -0.00570741 0
M  V30 17947 H 1711.16 6.50627 -0.390903 0
M  V30 17948 N 1714.6 1.19237 1.03055 0
M  V30 17949 C 1715.51 0.943876 2.14775 0
M  V30 17950 C 1716.52 -0.0955384 1.73738 0
M  V30 17951 O 1717.7 0.0887187 2.01204 0
M  V30 17952 C 1714.76 0.48402 3.43305 0
M  V30 17953 C 1713.82 1.59262 3.98665 0
M  V30 17954 C 1713.06 1.15461 5.21061 0
M  V30 17955 O 1713.28 0.0174841 5.70397 0
M  V30 17956 O 1712.21 1.95648 5.69215 0
M  V30 17957 H 1716.04 1.87894 2.38599 0
M  V30 17958 H 1713.63 0.975046 1.13195 0
M  V30 17959 H 1715.51 0.236135 4.20738 0
M  V30 17960 H 1714.18 -0.422626 3.20929 0
M  V30 17961 H 1713.09 1.89464 3.22574 0
M  V30 17962 H 1714.42 2.47576 4.25402 0
M  V30 17963 N 1716.07 -1.22136 0.99602 0
M  V30 17964 C 1717.3 -1.94696 0.691168 0
M  V30 17965 C 1717.71 -1.73754 -0.748749 0
M  V30 17966 O 1717.06 -1.03561 -1.51726 0
M  V30 17967 C 1717.12 -3.47498 0.921152 0
M  V30 17968 C 1716.78 -3.92179 2.34616 0
M  V30 17969 C 1717.78 -3.99603 3.32585 0
M  V30 17970 C 1715.46 -4.24741 2.68142 0
M  V30 17971 C 1717.46 -4.38968 4.62153 0
M  V30 17972 C 1715.14 -4.63785 3.97928 0
M  V30 17973 C 1716.14 -4.70867 4.94745 0
M  V30 17974 O 1715.83 -5.09026 6.22212 0
M  V30 17975 H 1715.56 -0.626231 0.25458 0
M  V30 17976 H 1718.12 -1.56152 1.33438 0
M  V30 17977 H 1716.35 -3.86069 0.220769 0
M  V30 17978 H 1718.04 -4.01274 0.61107 0
M  V30 17979 H 1718.8 -3.74634 3.08017 0
M  V30 17980 H 1714.68 -4.18431 1.93485 0
M  V30 17981 H 1718.22 -4.44411 5.37721 0
M  V30 17982 H 1714.12 -4.88207 4.22285 0
M  V30 17983 H 1714.89 -5.27089 6.26195 0
M  V30 17984 N 1717.55 -0.769612 -1.37531 0
M  V30 17985 C 1718.48 -0.168389 -2.32892 0
M  V30 17986 C 1719.46 0.685549 -1.55673 0
M  V30 17987 O 1720.65 0.62345 -1.8392 0
M  V30 17988 C 1717.78 0.713183 -3.39898 0
M  V30 17989 C 1716.73 -0.0392808 -4.27982 0
M  V30 17990 C 1716.06 0.961596 -5.25982 0
M  V30 17991 C 1717.36 -1.21704 -5.07923 0
M  V30 17992 H 1719.05 -0.965022 -2.83421 0
M  V30 17993 H 1716.6 -0.465502 -1.36268 0
M  V30 17994 H 1718.55 1.14358 -4.05586 0
M  V30 17995 H 1717.28 1.54231 -2.87889 0
M  V30 17996 H 1715.93 -0.450429 -3.63822 0
M  V30 17997 H 1715.58 1.78522 -4.70254 0
M  V30 17998 H 1715.28 0.462679 -5.85776 0
M  V30 17999 H 1716.81 1.39097 -5.94545 0
M  V30 18000 H 1718.22 -0.863405 -5.66761 0
M  V30 18001 H 1716.62 -1.6479 -5.77031 0
M  V30 18002 H 1717.69 -2.02219 -4.40722 0
M  V30 18003 N 1719.03 1.48775 -0.519977 0
M  V30 18004 C 1719.98 2.31123 0.261738 0
M  V30 18005 C 1720.97 1.40595 0.94496 0
M  V30 18006 O 1722.18 1.57552 0.870484 0
M  V30 18007 H 1718.55 0.744875 0.103272 0
M  V30 18008 H 1720.52 2.94949 -0.452514 0
M  V30 18009 C 1719.27 3.22409 1.30184 0
M  V30 18010 H 1718.6 3.92007 0.785524 0
M  V30 18011 H 1720.04 3.82932 1.82042 0
M  V30 18012 C 1718.5 2.43321 2.33016 0
M  V30 18013 O 1719.03 2.15087 3.39265 0
M  V30 18014 N 1717.23 2.04998 2.05971 0
M  V30 18015 H 1716.78 2.2816 1.19586 0
M  V30 18016 H 1716.74 1.52393 2.74998 0
M  V30 18017 N 1720.51 0.254649 1.55529 0
M  V30 18018 C 1721.92 -0.247042 1.85058 0
M  V30 18019 C 1722.27 -1.57009 1.17655 0
M  V30 18020 O 1721.4 -2.11506 0.457638 0
M  V30 18021 C 1721.99 -0.455017 3.35731 0
M  V30 18022 C 1720.55 -0.900961 3.65458 0
M  V30 18023 C 1719.7 0.0174436 2.77295 0
M  V30 18024 H 1722.65 0.477005 1.51362 0
M  V30 18025 H 1722.67 -1.29654 3.57729 0
M  V30 18026 H 1722.18 0.508076 3.8476 0
M  V30 18027 H 1720.28 -1.87625 3.21913 0
M  V30 18028 H 1720.39 -0.752458 4.73154 0
M  V30 18029 H 1718.76 -0.495296 2.49838 0
M  V30 18030 H 1719.54 0.976049 3.29132 0
M  V30 18031 N 1721.99 -1.57589 -0.0183649 0
M  V30 18032 C 1723.23 -1.90038 -0.708056 0
M  V30 18033 C 1723.57 -0.853686 -1.7443 0
M  V30 18034 O 1722.84 0.12994 -1.94065 0
M  V30 18035 C 1723.12 -3.33107 -1.3679 0
M  V30 18036 C 1722.98 -4.48479 -0.344448 0
M  V30 18037 C 1724.3 -3.75276 -2.29904 0
M  V30 18038 H 1721.41 -0.691134 -0.255934 0
M  V30 18039 H 1724.06 -1.89978 0.0291579 0
M  V30 18040 H 1722.21 -3.33289 -1.99626 0
M  V30 18041 H 1723.88 -4.60432 0.282816 0
M  V30 18042 H 1722.12 -4.32503 0.335196 0
M  V30 18043 H 1722.79 -5.45497 -0.844832 0
M  V30 18044 H 1725.27 -3.76529 -1.77103 0
M  V30 18045 H 1724.14 -4.76168 -2.73049 0
M  V30 18046 H 1724.41 -3.08124 -3.17036 0
M  V30 18047 N 1723.46 0.290824 -1.54893 0
M  V30 18048 C 1724.37 1.38137 -1.89619 0
M  V30 18049 C 1725.39 1.54959 -0.791432 0
M  V30 18050 O 1726.57 1.69428 -1.08885 0
M  V30 18051 C 1723.63 2.72353 -2.14534 0
M  V30 18052 C 1722.69 2.64429 -3.38195 0
M  V30 18053 C 1721.93 3.92244 -3.61912 0
M  V30 18054 O 1722.15 4.92088 -2.88454 0
M  V30 18055 O 1721.08 3.93523 -4.55438 0
M  V30 18056 H 1724.91 1.11688 -2.82417 0
M  V30 18057 H 1722.49 0.487789 -1.41213 0
M  V30 18058 H 1724.38 3.51745 -2.32064 0
M  V30 18059 H 1723.05 2.98624 -1.24921 0
M  V30 18060 H 1721.96 1.83474 -3.26018 0
M  V30 18061 H 1723.29 2.43109 -4.2797 0
M  V30 18062 N 1724.94 1.47523 0.554506 0
M  V30 18063 C 1725.85 1.62851 1.68869 0
M  V30 18064 C 1726.87 0.511305 1.66318 0
M  V30 18065 O 1728.04 0.779195 1.85716 0
M  V30 18066 C 1725.11 1.64161 3.05372 0
M  V30 18067 C 1724.17 2.87327 3.1897 0
M  V30 18068 C 1723.4 2.88566 4.48961 0
M  V30 18069 O 1723.63 1.98937 5.34584 0
M  V30 18070 O 1722.56 3.80459 4.66406 0
M  V30 18071 H 1726.39 2.58826 1.5888 0
M  V30 18072 H 1723.97 1.3064 0.724822 0
M  V30 18073 H 1725.85 1.67686 3.866 0
M  V30 18074 H 1724.53 0.713534 3.15738 0
M  V30 18075 H 1723.44 2.89345 2.37129 0
M  V30 18076 H 1724.77 3.79438 3.13509 0
M  V30 18077 N 1726.42 -0.801453 1.357 0
M  V30 18078 C 1727.37 -1.93495 1.29083 0
M  V30 18079 C 1728.36 -1.68389 0.184806 0
M  V30 18080 O 1729.57 -1.76543 0.351097 0
M  V30 18081 H 1725.94 -0.635809 0.40156 0
M  V30 18082 H 1727.91 -1.96195 2.24833 0
M  V30 18083 C 1726.66 -3.30342 1.08487 0
M  V30 18084 H 1725.99 -3.50221 1.92835 0
M  V30 18085 H 1727.43 -4.10041 1.079 0
M  V30 18086 C 1725.89 -3.36238 -0.211057 0
M  V30 18087 O 1726.42 -3.83198 -1.20508 0
M  V30 18088 N 1724.62 -2.89509 -0.251599 0
M  V30 18089 H 1724.17 -2.51486 0.557916 0
M  V30 18090 H 1724.13 -2.93836 -1.11839 0
M  V30 18091 N 1727.9 -1.19782 -1.02421 0
M  V30 18092 C 1729.31 -1.00493 -1.57347 0
M  V30 18093 C 1729.66 0.440854 -1.91183 0
M  V30 18094 O 1728.79 1.32102 -1.714 0
M  V30 18095 C 1729.38 -1.8179 -2.85898 0
M  V30 18096 C 1727.94 -1.66889 -3.3738 0
M  V30 18097 C 1727.09 -1.80199 -2.10769 0
M  V30 18098 H 1730.04 -1.34085 -0.848938 0
M  V30 18099 H 1730.06 -1.31676 -3.5699 0
M  V30 18100 H 1729.57 -2.87011 -2.6124 0
M  V30 18101 H 1727.67 -0.64274 -3.67014 0
M  V30 18102 H 1727.78 -2.47705 -4.10096 0
M  V30 18103 H 1726.15 -1.23308 -2.22862 0
M  V30 18104 H 1726.93 -2.86889 -1.88546 0
M  V30 18105 N 1729.38 1.21606 -1.00248 0
M  V30 18106 C 1730.62 1.90607 -0.683752 0
M  V30 18107 C 1730.95 1.77945 0.785228 0
M  V30 18108 O 1730.21 1.14856 1.58451 0
M  V30 18109 C 1730.51 3.41708 -1.04739 0
M  V30 18110 C 1730.17 3.74565 -2.51022 0
M  V30 18111 C 1728.83 3.83243 -2.90995 0
M  V30 18112 C 1731.19 3.89971 -3.45792 0
M  V30 18113 C 1728.51 4.04773 -4.24707 0
M  V30 18114 C 1730.87 4.13008 -4.79174 0
M  V30 18115 C 1729.53 4.19912 -5.18874 0
M  V30 18116 H 1728.8 0.697481 -0.250203 0
M  V30 18117 H 1731.45 1.4417 -1.26045 0
M  V30 18118 H 1729.75 3.89865 -0.388905 0
M  V30 18119 H 1731.45 3.93367 -0.778675 0
M  V30 18120 H 1728.04 3.68399 -2.19043 0
M  V30 18121 H 1732.22 3.82635 -3.16076 0
M  V30 18122 H 1727.48 4.08349 -4.5504 0
M  V30 18123 H 1731.65 4.23871 -5.52545 0
M  V30 18124 H 1729.28 4.36348 -6.22499 0
M  V30 18125 N 1730.86 0.776895 1.37121 0
M  V30 18126 C 1732.1 0.344063 1.9986 0
M  V30 18127 C 1732.43 -1.07806 1.61529 0
M  V30 18128 O 1731.71 -1.74258 0.863963 0
M  V30 18129 C 1731.99 0.493512 3.56702 0
M  V30 18130 C 1731.85 1.95842 4.04927 0
M  V30 18131 C 1733.16 -0.099097 4.39988 0
M  V30 18132 H 1730.28 0.126489 0.726064 0
M  V30 18133 H 1732.93 0.980899 1.62722 0
M  V30 18134 H 1731.08 -0.0486344 3.8847 0
M  V30 18135 H 1732.75 2.56067 3.83702 0
M  V30 18136 H 1730.99 2.46544 3.56929 0
M  V30 18137 H 1731.66 2.01402 5.13947 0
M  V30 18138 H 1734.14 0.363545 4.14509 0
M  V30 18139 H 1733.01 0.0355748 5.48888 0
M  V30 18140 H 1733.27 -1.18995 4.25785 0
M  V30 18141 N 1732.33 -1.48497 0.527859 0
M  V30 18142 C 1733.56 -2.07399 -0.00510725 0
M  V30 18143 C 1733.98 -1.38211 -1.2759 0
M  V30 18144 O 1733.34 -0.447373 -1.75694 0
M  V30 18145 C 1733.39 -3.59963 -0.214295 0
M  V30 18146 O 1732.49 -3.91921 -1.28342 0
M  V30 18147 H 1731.83 -0.662901 0.0381838 0
M  V30 18148 H 1734.36 -1.90936 0.735166 0
M  V30 18149 H 1734.37 -4.05646 -0.437604 0
M  V30 18150 H 1733.05 -4.09725 0.714028 0
M  V30 18151 H 1731.63 -3.58019 -1.04293 0
M  V30 18152 N 1733.81 -0.262893 -1.55392 0
M  V30 18153 C 1735.23 0.09157 -1.59337 0
M  V30 18154 C 1735.43 1.55612 -1.28012 0
M  V30 18155 O 1734.48 2.30308 -1.0351 0
M  V30 18156 C 1735.8 -0.272043 -2.99467 0
M  V30 18157 C 1737.34 -0.217653 -3.12242 0
M  V30 18158 C 1737.82 -0.555528 -4.54618 0
M  V30 18159 N 1739.31 -0.506623 -4.60421 0
M  V30 18160 C 1740.05 -0.741013 -5.68592 0
M  V30 18161 N 1739.54 -1.03937 -6.84959 0
M  V30 18162 N 1741.33 -0.670636 -5.58085 0
M  V30 18163 H 1733.49 -1.2178 -1.74021 0
M  V30 18164 H 1735.75 -0.491131 -0.81086 0
M  V30 18165 H 1735.45 -1.29012 -3.27183 0
M  V30 18166 H 1735.33 0.393105 -3.75146 0
M  V30 18167 H 1737.72 0.791123 -2.84298 0
M  V30 18168 H 1737.8 -0.916884 -2.38803 0
M  V30 18169 H 1737.44 -1.56193 -4.83287 0
M  V30 18170 H 1737.37 0.165358 -5.2634 0
M  V30 18171 H 1739.86 -0.285397 -3.76821 0
M  V30 18172 H 1740.17 -1.20522 -7.63344 0
M  V30 18173 H 1738.52 -1.07702 -6.86604 0
M  V30 18174 H 1741.71 -0.437473 -4.66051 0
M  V30 18175 H 1741.88 -0.856692 -6.42312 0
M  V30 18176 N 1735.29 1.57597 0.0100073 0
M  V30 18177 C 1736.71 1.55348 0.365949 0
M  V30 18178 C 1736.91 0.991487 1.75419 0
M  V30 18179 O 1735.96 0.620894 2.44747 0
M  V30 18180 C 1737.27 2.99656 0.250343 0
M  V30 18181 C 1738.82 3.11297 0.326023 0
M  V30 18182 C 1739.3 4.57373 0.239653 0
M  V30 18183 N 1740.79 4.62241 0.297863 0
M  V30 18184 C 1741.52 5.72836 0.254219 0
M  V30 18185 N 1741.02 6.92611 0.161753 0
M  V30 18186 N 1742.81 5.6127 0.30535 0
M  V30 18187 H 1734.96 1.92471 -0.898253 0
M  V30 18188 H 1737.23 0.883623 -0.343386 0
M  V30 18189 H 1736.93 3.44574 -0.704407 0
M  V30 18190 H 1736.81 3.62682 1.03643 0
M  V30 18191 H 1739.19 2.66316 1.27121 0
M  V30 18192 H 1739.27 2.51068 -0.489756 0
M  V30 18193 H 1738.92 5.03026 -0.70195 0
M  V30 18194 H 1738.85 5.15536 1.07379 0
M  V30 18195 H 1741.34 3.76074 0.371065 0
M  V30 18196 H 1741.65 7.72684 0.134073 0
M  V30 18197 H 1740 6.94883 0.127524 0
M  V30 18198 H 1743.19 4.6659 0.375713 0
M  V30 18199 H 1743.36 6.47446 0.267871 0
M  V30 18200 N 1736.77 -0.282606 1.55045 0
M  V30 18201 C 1737.71 -1.34908 1.87266 0
M  V30 18202 C 1738.68 -1.49528 0.72323 0
M  V30 18203 O 1739.87 -1.6409 0.973602 0
M  V30 18204 C 1737.01 -2.70603 2.14168 0
M  V30 18205 C 1736.12 -2.64284 3.41728 0
M  V30 18206 C 1735.26 -3.92094 3.58379 0
M  V30 18207 C 1734.3 -3.80246 4.79666 0
M  V30 18208 N 1733.43 -4.99871 4.93025 0
M  V30 18209 H 1738.27 -1.06731 2.78231 0
M  V30 18210 H 1735.81 -0.515845 1.37759 0
M  V30 18211 H 1737.77 -3.49542 2.27763 0
M  V30 18212 H 1736.4 -2.97003 1.26448 0
M  V30 18213 H 1735.45 -1.77108 3.36656 0
M  V30 18214 H 1736.76 -2.51425 4.30798 0
M  V30 18215 H 1735.92 -4.79473 3.7174 0
M  V30 18216 H 1734.66 -4.07808 2.67476 0
M  V30 18217 H 1733.66 -2.91251 4.66319 0
M  V30 18218 H 1734.89 -3.6606 5.71994 0
M  V30 18219 H 1732.83 -5.16014 4.0505 0
M  V30 18220 H 1732.75 -4.89507 5.76124 0
M  V30 18221 H 1734.02 -5.88849 5.10761 0
M  V30 18222 N 1738.25 -1.47815 -0.546675 0
M  V30 18223 C 1739.19 -1.61513 -1.67381 0
M  V30 18224 C 1740.19 -0.482064 -1.62396 0
M  V30 18225 O 1741.39 -0.660227 -1.67454 0
M  V30 18226 H 1737.77 -0.508484 -0.554029 0
M  V30 18227 H 1739.74 -2.5621 -1.52967 0
M  V30 18228 C 1738.49 -1.65645 -3.05707 0
M  V30 18229 H 1737.81 -2.52186 -3.10229 0
M  V30 18230 H 1739.25 -1.79277 -3.84234 0
M  V30 18231 C 1737.71 -0.391799 -3.34614 0
M  V30 18232 O 1738.24 0.502576 -3.98544 0
M  V30 18233 N 1736.45 -0.268593 -2.89356 0
M  V30 18234 H 1735.99 -0.997347 -2.37509 0
M  V30 18235 H 1735.95 0.5766 -3.09067 0
M  V30 18236 N 1739.72 0.794246 -1.36123 0
M  V30 18237 C 1740.97 1.54885 -1.29827 0
M  V30 18238 C 1741.29 1.94608 0.123517 0
M  V30 18239 O 1740.56 1.6457 1.06272 0
M  V30 18240 H 1739.14 0.574398 -0.477573 0
M  V30 18241 H 1741.8 0.946658 -1.70365 0
M  V30 18242 H 1740.9 2.45863 -1.92244 0
M  V30 18243 N 1741.2 1.20323 1.01785 0
M  V30 18244 C 1742.48 0.921703 1.72522 0
M  V30 18245 C 1742.86 -0.569838 2.03264 0
M  V30 18246 O 1742.21 -1.53115 1.69611 0
M  V30 18247 C 1742.42 1.79335 2.99399 0
M  V30 18248 C 1743.76 2.03442 3.72688 0
M  V30 18249 O 1744.79 1.76578 3.09352 0
M  V30 18250 O 1743.65 2.48803 4.86579 0
M  V30 18251 H 1740.74 0.344505 0.751828 0
M  V30 18252 H 1743.29 1.31191 1.07644 0
M  V30 18253 H 1742.06 2.80339 2.72994 0
M  V30 18254 H 1741.68 1.40314 3.72018 0
M  V30 18255 N 1742.68 -1.21073 1.00892 0
M  V30 18256 C 1743.61 -2.25847 0.592897 0
M  V30 18257 C 1744.59 -1.6561 -0.38824 0
M  V30 18258 O 1745.78 -1.92238 -0.275361 0
M  V30 18259 C 1742.91 -3.47214 -0.0773439 0
M  V30 18260 C 1741.86 -4.19994 0.82398 0
M  V30 18261 C 1741.19 -5.34696 0.0199341 0
M  V30 18262 C 1742.49 -4.76964 2.12844 0
M  V30 18263 H 1744.18 -2.609 1.46873 0
M  V30 18264 H 1741.73 -1.25412 0.707656 0
M  V30 18265 H 1743.68 -4.19684 -0.379889 0
M  V30 18266 H 1742.4 -3.11303 -0.987833 0
M  V30 18267 H 1741.06 -3.49379 1.11041 0
M  V30 18268 H 1740.71 -4.95028 -0.891966 0
M  V30 18269 H 1740.41 -5.84319 0.620102 0
M  V30 18270 H 1741.93 -6.09974 -0.276336 0
M  V30 18271 H 1743.35 -5.41293 1.88878 0
M  V30 18272 H 1741.74 -5.36992 2.67879 0
M  V30 18273 H 1742.81 -3.96129 2.79659 0
M  V30 18274 N 1744.16 -0.784156 -1.36707 0
M  V30 18275 C 1745.09 -0.136944 -2.28791 0
M  V30 18276 C 1746.1 0.65075 -1.49228 0
M  V30 18277 O 1747.29 0.486799 -1.71734 0
M  V30 18278 C 1744.39 0.829306 -3.28597 0
M  V30 18279 C 1743.57 0.09279 -4.37302 0
M  V30 18280 C 1742.62 0.974213 -5.17103 0
M  V30 18281 O 1741.65 0.433399 -5.67548 0
M  V30 18282 N 1742.85 2.29909 -5.33031 0
M  V30 18283 H 1745.62 -0.927906 -2.84974 0
M  V30 18284 H 1743.18 -0.637596 -1.48816 0
M  V30 18285 H 1745.17 1.42268 -3.78869 0
M  V30 18286 H 1743.74 1.52117 -2.73092 0
M  V30 18287 H 1742.96 -0.681615 -3.88262 0
M  V30 18288 H 1744.25 -0.415655 -5.07099 0
M  V30 18289 H 1743.65 2.76268 -4.93652 0
M  V30 18290 H 1742.2 2.84224 -5.86566 0
M  V30 18291 N 1745.64 1.48215 -0.535727 0
M  V30 18292 C 1746.6 2.28206 0.213212 0
M  V30 18293 C 1747.6 1.3571 0.862522 0
M  V30 18294 O 1748.79 1.58547 0.721688 0
M  V30 18295 C 1745.92 3.1476 1.30917 0
M  V30 18296 H 1747.11 2.95884 -0.489163 0
M  V30 18297 H 1744.67 1.53551 -0.291872 0
M  V30 18298 H 1745.4 2.51726 2.04462 0
M  V30 18299 H 1745.19 3.82806 0.848633 0
M  V30 18300 H 1746.68 3.75085 1.83579 0
M  V30 18301 N 1747.11 0.27113 1.5525 0
M  V30 18302 C 1748.04 -0.61179 2.25343 0
M  V30 18303 C 1749.03 -1.16208 1.24216 0
M  V30 18304 O 1750.21 -1.19696 1.52927 0
M  V30 18305 C 1747.34 -1.7978 2.97147 0
M  V30 18306 C 1746.29 -1.37922 4.05169 0
M  V30 18307 C 1745.62 -2.64801 4.64526 0
M  V30 18308 C 1746.92 -0.532357 5.1958 0
M  V30 18309 H 1748.61 -0.0272538 2.99388 0
M  V30 18310 H 1746.16 -0.0116681 1.43995 0
M  V30 18311 H 1748.11 -2.42132 3.44891 0
M  V30 18312 H 1746.84 -2.40811 2.20631 0
M  V30 18313 H 1745.5 -0.778918 3.5823 0
M  V30 18314 H 1745.14 -3.24081 3.84682 0
M  V30 18315 H 1744.84 -2.37507 5.37461 0
M  V30 18316 H 1746.37 -3.28009 5.15017 0
M  V30 18317 H 1747.78 -1.06078 5.63401 0
M  V30 18318 H 1746.18 -0.35447 5.99052 0
M  V30 18319 H 1747.25 0.44981 4.82809 0
M  V30 18320 N 1748.59 -1.576 -0.00164943 0
M  V30 18321 C 1749.87 -1.81716 -0.723788 0
M  V30 18322 C 1750.25 -0.875694 -1.9208 0
M  V30 18323 O 1749.6 0.0759629 -2.28374 0
M  V30 18324 C 1749.81 -3.30164 -1.13106 0
M  V30 18325 C 1751.16 -3.95859 -1.5356 0
M  V30 18326 O 1752.18 -3.34477 -1.2249 0
M  V30 18327 O 1751.04 -5.03986 -2.1133 0
M  V30 18328 H 1748.13 -0.748213 -0.352287 0
M  V30 18329 H 1750.68 -1.69683 0.0236782 0
M  V30 18330 H 1749.45 -3.90313 -0.277771 0
M  V30 18331 H 1749.07 -3.47188 -1.93768 0
M  V30 18332 N 1750.07 0.274379 -1.55193 0
M  V30 18333 C 1751.02 1.35903 -1.88767 0
M  V30 18334 C 1752.01 1.512 -0.763874 0
M  V30 18335 O 1753.22 1.53 -0.948201 0
M  V30 18336 H 1749.59 0.454495 -0.599114 0
M  V30 18337 H 1751.56 1.04837 -2.79378 0
M  V30 18338 C 1750.31 2.71277 -2.17496 0
M  V30 18339 H 1749.64 2.60297 -3.03456 0
M  V30 18340 H 1751.08 3.46115 -2.44909 0
M  V30 18341 C 1749.54 3.22268 -0.982101 0
M  V30 18342 O 1750.07 4.01119 -0.216035 0
M  V30 18343 N 1748.27 2.79931 -0.780179 0
M  V30 18344 H 1747.82 2.15923 -1.40482 0
M  V30 18345 H 1747.78 3.14396 0.0163297 0
M  V30 18346 N 1751.55 1.48103 0.538828 0
M  V30 18347 C 1752.96 1.49312 1.12085 0
M  V30 18348 C 1753.31 0.257965 1.94497 0
M  V30 18349 O 1752.44 -0.635654 2.06854 0
M  V30 18350 C 1753.03 2.70545 2.03939 0
M  V30 18351 C 1751.59 2.74654 2.57376 0
M  V30 18352 C 1750.74 2.42695 1.34144 0
M  V30 18353 H 1753.69 1.55347 0.324512 0
M  V30 18354 H 1753.71 2.4856 2.88094 0
M  V30 18355 H 1753.22 3.60424 1.4393 0
M  V30 18356 H 1751.32 1.8896 3.21131 0
M  V30 18357 H 1751.43 3.75846 2.97114 0
M  V30 18358 H 1749.8 1.93663 1.65429 0
M  V30 18359 H 1750.58 3.34804 0.759009 0
M  V30 18360 N 1753.03 -0.787016 1.36542 0
M  V30 18361 C 1753.94 -1.93103 1.33223 0
M  V30 18362 C 1754.95 -1.72419 0.234047 0
M  V30 18363 O 1756.13 -1.95915 0.466828 0
M  V30 18364 C 1753.19 -3.28002 1.12319 0
M  V30 18365 C 1752.25 -3.61447 2.31635 0
M  V30 18366 C 1751.49 -4.89909 2.11719 0
M  V30 18367 O 1751.71 -5.59818 1.0936 0
M  V30 18368 O 1750.64 -5.22065 2.99552 0
M  V30 18369 H 1754.47 -1.98853 2.29545 0
M  V30 18370 H 1752.06 -0.92761 1.17114 0
M  V30 18371 H 1753.94 -4.08722 1.02589 0
M  V30 18372 H 1752.61 -3.23138 0.19061 0
M  V30 18373 H 1751.52 -2.81024 2.46934 0
M  V30 18374 H 1752.85 -3.71037 3.23407 0
M  V30 18375 N 1754.5 -1.20861 -1.01145 0
M  V30 18376 C 1755.73 -1.04617 -1.78154 0
M  V30 18377 C 1756.14 0.407396 -1.84762 0
M  V30 18378 O 1755.49 1.29457 -1.30333 0
M  V30 18379 C 1755.55 -1.56038 -3.23871 0
M  V30 18380 C 1755.21 -3.0441 -3.40857 0
M  V30 18381 C 1756.21 -4.02021 -3.29659 0
M  V30 18382 C 1753.89 -3.43479 -3.66507 0
M  V30 18383 C 1755.89 -5.36689 -3.43866 0
M  V30 18384 C 1753.57 -4.78301 -3.80356 0
M  V30 18385 C 1754.57 -5.74715 -3.69041 0
M  V30 18386 O 1754.26 -7.07093 -3.82459 0
M  V30 18387 H 1753.99 -0.368185 -0.566935 0
M  V30 18388 H 1756.55 -1.60508 -1.28165 0
M  V30 18389 H 1754.78 -0.945373 -3.74966 0
M  V30 18390 H 1756.47 -1.35735 -3.82532 0
M  V30 18391 H 1757.23 -3.73182 -3.09775 0
M  V30 18392 H 1753.11 -2.68972 -3.74399 0
M  V30 18393 H 1756.65 -6.11927 -3.3495 0
M  V30 18394 H 1752.55 -5.06829 -3.99743 0
M  V30 18395 H 1753.32 -7.14413 -3.99445 0
M  V30 18396 N 1755.98 1.20536 -1.01532 0
M  V30 18397 C 1756.93 2.21134 -0.555309 0
M  V30 18398 C 1757.92 1.56135 0.388663 0
M  V30 18399 O 1759.11 1.75728 0.211835 0
M  V30 18400 C 1756.24 3.43135 0.106298 0
M  V30 18401 C 1755.32 4.15303 -0.859306 0
M  V30 18402 N 1755.71 4.63873 -2.01631 0
M  V30 18403 C 1754.01 4.40788 -0.679859 0
M  V30 18404 C 1754.71 5.19143 -2.62422 0
M  V30 18405 N 1753.69 5.0913 -1.90494 0
M  V30 18406 H 1757.49 2.56351 -1.4374 0
M  V30 18407 H 1755.01 1.36458 -0.880503 0
M  V30 18408 H 1757 4.14427 0.453392 0
M  V30 18409 H 1755.66 3.09423 0.984242 0
M  V30 18410 H 1756.67 4.59128 -2.39629 0
M  V30 18411 H 1753.35 4.1723 0.150137 0
M  V30 18412 H 1754.74 5.67108 -3.60331 0
M  V30 18413 N 1757.46 0.791395 1.36289 0
M  V30 18414 C 1758.41 0.179128 2.31909 0
M  V30 18415 C 1759.4 -0.662657 1.55901 0
M  V30 18416 O 1760.61 -0.55752 1.71148 0
M  V30 18417 H 1756.98 0.0391522 0.75098 0
M  V30 18418 H 1758.95 1.001 2.8111 0
M  V30 18419 C 1757.7 -0.670016 3.41183 0
M  V30 18420 H 1757.03 -0.0316331 3.99787 0
M  V30 18421 H 1758.47 -1.06506 4.10405 0
M  V30 18422 C 1756.93 -1.8291 2.82923 0
M  V30 18423 O 1757.46 -2.92579 2.75247 0
M  V30 18424 N 1755.66 -1.63584 2.40185 0
M  V30 18425 H 1755.21 -0.743799 2.46628 0
M  V30 18426 H 1755.17 -2.41298 2.01551 0
M  V30 18427 N 1758.94 -1.47929 0.54358 0
M  V30 18428 C 1759.9 -2.28316 -0.201107 0
M  V30 18429 C 1760.9 -1.36165 -0.855313 0
M  V30 18430 O 1762.09 -1.58928 -0.71327 0
M  V30 18431 C 1759.22 -3.1545 -1.29245 0
M  V30 18432 H 1760.42 -2.9562 0.504848 0
M  V30 18433 H 1757.97 -1.53394 0.300011 0
M  V30 18434 H 1758.71 -2.52807 -2.03124 0
M  V30 18435 H 1758.49 -3.83251 -0.82832 0
M  V30 18436 H 1759.98 -3.76053 -1.81587 0
M  V30 18437 N 1760.42 -0.27936 -1.55104 0
M  V30 18438 C 1761.64 0.342295 -2.04556 0
M  V30 18439 C 1762.07 1.48367 -1.15624 0
M  V30 18440 O 1761.43 1.8063 -0.15572 0
M  V30 18441 C 1761.47 0.796785 -3.51687 0
M  V30 18442 O 1760.58 1.90364 -3.65835 0
M  V30 18443 H 1759.92 0.07012 -0.660287 0
M  V30 18444 H 1762.45 -0.414896 -2.00349 0
M  V30 18445 H 1762.46 1.09141 -3.93131 0
M  V30 18446 H 1761.13 -0.0382637 -4.15882 0
M  V30 18447 H 1759.71 1.61123 -3.36294 0
M  V30 18448 N 1761.9 1.57599 -0.0067085 0
M  V30 18449 C 1762.84 2.09973 1.00071 0
M  V30 18450 C 1763.84 1.02121 1.35158 0
M  V30 18451 O 1765.04 1.20579 1.33644 0
M  V30 18452 H 1761.42 0.670547 0.340398 0
M  V30 18453 H 1763.39 2.93593 0.533471 0
M  V30 18454 C 1762.14 2.62376 2.28153 0
M  V30 18455 H 1761.46 3.45002 2.02024 0
M  V30 18456 H 1762.9 3.02694 2.96905 0
M  V30 18457 C 1761.36 1.54093 2.99595 0
M  V30 18458 O 1761.89 0.927722 3.9084 0
M  V30 18459 N 1760.1 1.26676 2.61537 0
M  V30 18460 H 1759.64 1.76728 1.87417 0
M  V30 18461 H 1759.6 0.544464 3.0965 0
M  V30 18462 N 1763.37 -0.266145 1.55336 0
M  V30 18463 C 1764.62 -0.994862 1.75917 0
M  V30 18464 C 1764.94 -1.8657 0.567147 0
M  V30 18465 O 1764.21 -1.91394 -0.417738 0
M  V30 18466 H 1762.79 -0.370318 0.648748 0
M  V30 18467 H 1765.45 -0.288724 1.9275 0
M  V30 18468 H 1764.55 -1.62781 2.66287 0
M  V30 18469 N 1764.85 -1.48386 -0.530967 0
M  V30 18470 C 1766.26 -1.49904 -1.11291 0
M  V30 18471 C 1766.61 -0.268276 -1.94357 0
M  V30 18472 O 1765.74 0.624676 -2.07188 0
M  V30 18473 C 1766.33 -2.71622 -2.02501 0
M  V30 18474 C 1764.89 -2.76015 -2.55916 0
M  V30 18475 C 1764.04 -2.43403 -1.32855 0
M  V30 18476 H 1766.99 -1.55517 -0.316269 0
M  V30 18477 H 1767.01 -2.50084 -2.86772 0
M  V30 18478 H 1766.52 -3.61182 -1.42017 0
M  V30 18479 H 1764.62 -1.9066 -3.20124 0
M  V30 18480 H 1764.74 -3.77416 -2.95116 0
M  V30 18481 H 1763.1 -1.94537 -1.644 0
M  V30 18482 H 1763.88 -3.35202 -0.741242 0
M  V30 18483 N 1766.33 0.779763 -1.36958 0
M  V30 18484 C 1767.74 1.35555 -1.28381 0
M  V30 18485 C 1768.09 1.96067 0.0721422 0
M  V30 18486 O 1767.22 1.9325 0.973824 0
M  V30 18487 C 1767.81 2.46454 -2.32477 0
M  V30 18488 C 1766.37 2.99823 -2.27559 0
M  V30 18489 C 1765.52 1.72975 -2.16737 0
M  V30 18490 H 1768.47 0.580646 -1.47696 0
M  V30 18491 H 1768.49 3.25726 -1.96679 0
M  V30 18492 H 1768 2.02383 -3.31154 0
M  V30 18493 H 1766.1 3.4829 -1.3238 0
M  V30 18494 H 1766.22 3.55982 -3.20646 0
M  V30 18495 H 1764.58 1.95587 -1.6315 0
M  V30 18496 H 1765.36 1.31018 -3.17315 0
M  V30 18497 N 1767.81 1.21396 1.00503 0
M  V30 18498 C 1768.75 0.973198 2.09279 0
M  V30 18499 C 1769.72 -0.100797 1.65794 0
M  V30 18500 O 1770.91 0.0463185 1.90744 0
M  V30 18501 C 1768.05 0.543941 3.40786 0
M  V30 18502 C 1767.16 1.68737 3.97683 0
M  V30 18503 C 1766.3 1.20728 5.17299 0
M  V30 18504 C 1765.34 2.32305 5.66305 0
M  V30 18505 N 1764.47 1.8543 6.77171 0
M  V30 18506 H 1769.31 1.90441 2.29208 0
M  V30 18507 H 1766.85 0.949082 1.12387 0
M  V30 18508 H 1768.81 0.276311 4.16284 0
M  V30 18509 H 1767.44 -0.350263 3.20894 0
M  V30 18510 H 1766.49 2.06964 3.19171 0
M  V30 18511 H 1767.8 2.5271 4.30045 0
M  V30 18512 H 1766.96 0.896312 6.00043 0
M  V30 18513 H 1765.7 0.3376 4.8653 0
M  V30 18514 H 1764.7 2.64205 4.82158 0
M  V30 18515 H 1765.93 3.19769 5.99103 0
M  V30 18516 H 1763.87 1.00806 6.48208 0
M  V30 18517 H 1763.79 2.62976 7.08788 0
M  V30 18518 H 1765.06 1.57366 7.6345 0
M  V30 18519 N 1769.29 -1.19996 1.0217 0
M  V30 18520 C 1770.25 -2.21179 0.601036 0
M  V30 18521 C 1771.25 -1.57345 -0.331531 0
M  V30 18522 O 1772.44 -1.73789 -0.119521 0
M  V30 18523 C 1769.57 -3.40683 -0.121557 0
M  V30 18524 H 1770.76 -2.5991 1.49622 0
M  V30 18525 H 1768.32 -1.33548 0.812071 0
M  V30 18526 H 1769.05 -3.07461 -1.03142 0
M  V30 18527 H 1768.84 -3.88245 0.548448 0
M  V30 18528 H 1770.33 -4.1565 -0.403046 0
M  V30 18529 N 1770.76 -0.798611 -1.35867 0
M  V30 18530 C 1771.67 -0.204758 -2.33705 0
M  V30 18531 C 1772.69 0.648001 -1.61484 0
M  V30 18532 O 1773.87 0.561628 -1.93411 0
M  V30 18533 C 1770.93 0.643225 -3.40681 0
M  V30 18534 C 1769.99 -0.229099 -4.28688 0
M  V30 18535 C 1769.22 0.578508 -5.30555 0
M  V30 18536 O 1769.45 1.81382 -5.40793 0
M  V30 18537 O 1768.38 -0.0264291 -6.01894 0
M  V30 18538 H 1772.21 -1.01392 -2.86275 0
M  V30 18539 H 1769.79 -0.560242 -1.38498 0
M  V30 18540 H 1771.67 1.12648 -4.06065 0
M  V30 18541 H 1770.35 1.43012 -2.90395 0
M  V30 18542 H 1769.26 -0.759314 -3.66313 0
M  V30 18543 H 1770.59 -0.979736 -4.82351 0
M  V30 18544 N 1772.24 1.47639 -0.551417 0
M  V30 18545 C 1773.52 1.95559 0.0401983 0
M  V30 18546 C 1773.9 1.49396 1.49144 0
M  V30 18547 O 1773.25 0.730148 2.1652 0
M  V30 18548 C 1773.46 3.48859 -0.0992677 0
M  V30 18549 C 1774.8 4.24572 0.0490517 0
M  V30 18550 O 1775.83 3.5619 -0.026527 0
M  V30 18551 O 1774.69 5.46094 0.210638 0
M  V30 18552 H 1771.78 0.824251 0.0673694 0
M  V30 18553 H 1774.33 1.58065 -0.617532 0
M  V30 18554 H 1773.1 3.75245 -1.10936 0
M  V30 18555 H 1772.72 3.93102 0.596339 0
M  V30 18556 N 1773.72 0.287581 1.54954 0
M  V30 18557 C 1774.63 -0.604236 2.26685 0
M  V30 18558 C 1775.65 -1.1597 1.29719 0
M  V30 18559 O 1776.82 -1.18735 1.62678 0
M  V30 18560 C 1773.89 -1.76612 2.98344 0
M  V30 18561 C 1772.95 -1.24608 4.10818 0
M  V30 18562 C 1772.18 -2.35258 4.7905 0
M  V30 18563 O 1772.4 -3.54879 4.46561 0
M  V30 18564 O 1771.34 -2.02709 5.66739 0
M  V30 18565 H 1775.16 -0.0227663 3.03691 0
M  V30 18566 H 1772.75 0.0545243 1.493 0
M  V30 18567 H 1774.63 -2.44332 3.43336 0
M  V30 18568 H 1773.31 -2.33444 2.24244 0
M  V30 18569 H 1772.21 -0.53498 3.70255 0
M  V30 18570 H 1773.55 -0.723348 4.86856 0
M  V30 18571 N 1775.2 -1.57593 0.0150662 0
M  V30 18572 C 1776.43 -1.95221 -0.676193 0
M  V30 18573 C 1776.84 -0.889349 -1.66995 0
M  V30 18574 O 1776.18 0.138825 -1.83175 0
M  V30 18575 C 1776.24 -3.28921 -1.45092 0
M  V30 18576 C 1775.91 -4.52815 -0.61707 0
M  V30 18577 C 1776.9 -5.19801 0.101686 0
M  V30 18578 C 1774.59 -4.99184 -0.558606 0
M  V30 18579 C 1776.58 -6.31466 0.86773 0
M  V30 18580 C 1774.27 -6.10735 0.211154 0
M  V30 18581 C 1775.27 -6.76734 0.923041 0
M  V30 18582 O 1774.95 -7.86145 1.68021 0
M  V30 18583 H 1774.69 -0.648074 -0.192293 0
M  V30 18584 H 1777.24 -2.05291 0.0668663 0
M  V30 18585 H 1775.47 -3.15301 -2.2388 0
M  V30 18586 H 1777.16 -3.51552 -2.02894 0
M  V30 18587 H 1777.93 -4.84955 0.0657637 0
M  V30 18588 H 1773.8 -4.47629 -1.10226 0
M  V30 18589 H 1777.35 -6.82913 1.42391 0
M  V30 18590 H 1773.25 -6.4502 0.248843 0
M  V30 18591 H 1774.01 -8.02739 1.5985 0
M  V30 18592 N 1776.68 0.257904 -1.55475 0
M  V30 18593 C 1777.92 0.988933 -1.77054 0
M  V30 18594 C 1778.26 1.85387 -0.578375 0
M  V30 18595 O 1777.53 1.8983 0.423673 0
M  V30 18596 C 1777.81 1.85876 -3.08419 0
M  V30 18597 C 1777.67 1.02274 -4.38018 0
M  V30 18598 C 1778.99 2.84322 -3.3593 0
M  V30 18599 H 1776.1 0.358103 -0.644152 0
M  V30 18600 H 1778.75 0.260209 -1.8821 0
M  V30 18601 H 1776.9 2.48008 -2.99039 0
M  V30 18602 H 1778.57 0.420967 -4.59375 0
M  V30 18603 H 1776.81 0.326705 -4.32568 0
M  V30 18604 H 1777.48 1.6649 -5.26294 0
M  V30 18605 H 1779.96 2.32325 -3.45202 0
M  V30 18606 H 1778.83 3.42313 -4.29084 0
M  V30 18607 H 1779.1 3.60223 -2.56304 0
M  V30 18608 N 1778.15 1.48666 0.52309 0
M  V30 18609 C 1779.1 1.64155 1.6479 0
M  V30 18610 C 1780.1 0.507838 1.61609 0
M  V30 18611 O 1781.3 0.686784 1.66383 0
M  V30 18612 H 1777.68 0.517234 0.545869 0
M  V30 18613 H 1779.65 2.58611 1.48871 0
M  V30 18614 C 1778.4 1.70488 3.03033 0
M  V30 18615 H 1777.72 2.5709 3.06178 0
M  V30 18616 H 1779.16 1.85367 3.81333 0
M  V30 18617 C 1777.62 0.444984 3.33948 0
M  V30 18618 O 1778.15 -0.439107 3.99293 0
M  V30 18619 N 1776.36 0.314593 2.88892 0
M  V30 18620 H 1775.9 1.03501 2.35893 0
M  V30 18621 H 1775.86 -0.527357 3.09946 0
M  V30 18622 N 1779.63 -0.772489 1.37369 0
M  V30 18623 C 1780.54 -1.91679 1.35263 0
M  V30 18624 C 1781.56 -1.72161 0.252321 0
M  V30 18625 O 1782.73 -1.95409 0.487581 0
M  V30 18626 C 1779.8 -3.26792 1.15792 0
M  V30 18627 C 1778.86 -3.5897 2.35455 0
M  V30 18628 C 1778.09 -4.87636 2.16903 0
M  V30 18629 O 1778.32 -5.58627 1.15291 0
M  V30 18630 O 1777.25 -5.18859 3.05072 0
M  V30 18631 H 1781.08 -1.96408 2.31641 0
M  V30 18632 H 1778.66 -0.915136 1.18092 0
M  V30 18633 H 1780.54 -4.07611 1.06918 0
M  V30 18634 H 1779.22 -3.22918 0.224872 0
M  V30 18635 H 1778.13 -2.78389 2.49901 0
M  V30 18636 H 1779.46 -3.67586 3.27325 0
M  V30 18637 N 1781.11 -1.21927 -0.998575 0
M  V30 18638 C 1782.52 -1.03808 -1.5518 0
M  V30 18639 C 1782.87 0.400202 -1.92075 0
M  V30 18640 O 1782 1.28436 -1.74164 0
M  V30 18641 C 1782.59 -1.87814 -2.81978 0
M  V30 18642 C 1781.15 -1.74008 -3.33764 0
M  V30 18643 C 1780.3 -1.8463 -2.06899 0
M  V30 18644 H 1783.25 -1.35855 -0.820305 0
M  V30 18645 H 1783.27 -1.39219 -3.54116 0
M  V30 18646 H 1782.78 -2.92487 -2.55094 0
M  V30 18647 H 1780.88 -0.720445 -3.65569 0
M  V30 18648 H 1781 -2.56348 -4.0475 0
M  V30 18649 H 1779.36 -1.28007 -2.20196 0
M  V30 18650 H 1780.14 -2.90824 -1.82419 0
M  V30 18651 N 1782.59 1.19452 -1.02805 0
M  V30 18652 C 1783.52 2.24875 -0.628752 0
M  V30 18653 C 1784.5 1.66207 0.361844 0
M  V30 18654 O 1785.68 1.92652 0.244743 0
M  V30 18655 C 1782.81 3.47293 0.0220954 0
M  V30 18656 C 1781.77 4.1863 -0.890693 0
M  V30 18657 C 1781.09 5.34597 -0.104997 0
M  V30 18658 C 1782.39 4.73518 -2.20405 0
M  V30 18659 H 1784.09 2.5853 -1.51005 0
M  V30 18660 H 1781.63 1.24271 -0.727518 0
M  V30 18661 H 1783.59 4.20235 0.313073 0
M  V30 18662 H 1782.31 3.12835 0.938182 0
M  V30 18663 H 1780.97 3.47568 -1.16585 0
M  V30 18664 H 1780.62 4.96385 0.813098 0
M  V30 18665 H 1780.32 5.83258 -0.712983 0
M  V30 18666 H 1781.84 6.10337 0.179259 0
M  V30 18667 H 1783.26 5.3822 -1.97465 0
M  V30 18668 H 1781.65 5.32663 -2.76388 0
M  V30 18669 H 1782.72 3.9163 -2.85926 0
M  V30 18670 N 1784.07 0.805805 1.35442 0
M  V30 18671 C 1785.3 0.397675 2.02737 0
M  V30 18672 C 1785.7 -0.99586 1.6087 0
M  V30 18673 O 1785.05 -1.65293 0.801496 0
M  V30 18674 C 1785.11 0.400706 3.5726 0
M  V30 18675 C 1784.77 1.74462 4.22388 0
M  V30 18676 C 1785.77 2.70278 4.44123 0
M  V30 18677 C 1783.46 2.02841 4.59522 0
M  V30 18678 C 1785.45 3.92658 5.02094 0
M  V30 18679 C 1783.14 3.25485 5.17207 0
M  V30 18680 C 1784.13 4.20211 5.38435 0
M  V30 18681 O 1783.82 5.4069 5.94903 0
M  V30 18682 H 1783.55 0.159829 0.656834 0
M  V30 18683 H 1786.11 1.09052 1.7406 0
M  V30 18684 H 1784.34 -0.348738 3.85124 0
M  V30 18685 H 1786.03 0.0149949 4.05897 0
M  V30 18686 H 1786.79 2.49645 4.15815 0
M  V30 18687 H 1782.67 1.29921 4.42314 0
M  V30 18688 H 1786.22 4.66607 5.18578 0
M  V30 18689 H 1782.11 3.45989 5.44942 0
M  V30 18690 H 1782.88 5.41976 6.13355 0
M  V30 18691 N 1785.54 -1.47344 0.559239 0
M  V30 18692 C 1786.47 -2.32839 -0.175542 0
M  V30 18693 C 1787.46 -1.43914 -0.906787 0
M  V30 18694 O 1788.64 -1.72767 -0.886855 0
M  V30 18695 C 1785.77 -3.25735 -1.20474 0
M  V30 18696 C 1784.72 -4.23916 -0.589825 0
M  V30 18697 C 1784.05 -5.06151 -1.7238 0
M  V30 18698 C 1785.35 -5.2029 0.457733 0
M  V30 18699 H 1787.04 -2.94522 0.538225 0
M  V30 18700 H 1784.59 -1.41628 0.260282 0
M  V30 18701 H 1786.54 -3.84388 -1.72695 0
M  V30 18702 H 1785.27 -2.62111 -1.94847 0
M  V30 18703 H 1783.93 -3.66492 -0.0888897 0
M  V30 18704 H 1783.57 -4.38929 -2.45663 0
M  V30 18705 H 1783.27 -5.72625 -1.31813 0
M  V30 18706 H 1784.8 -5.67663 -2.24923 0
M  V30 18707 H 1786.21 -5.73296 0.0215019 0
M  V30 18708 H 1784.61 -5.94978 0.7824 0
M  V30 18709 H 1785.68 -4.65645 1.35286 0
M  V30 18710 N 1787.02 -0.295795 -1.54799 0
M  V30 18711 C 1787.97 0.598403 -2.24771 0
M  V30 18712 C 1788.96 1.14123 -1.25189 0
M  V30 18713 O 1790.17 1.09248 -1.43056 0
M  V30 18714 H 1786.55 0.21157 -0.721625 0
M  V30 18715 H 1788.52 -0.0143437 -2.98397 0
M  V30 18716 C 1787.27 1.76132 -2.99788 0
M  V30 18717 H 1786.59 1.35284 -3.76216 0
M  V30 18718 H 1788.03 2.36317 -3.52037 0
M  V30 18719 C 1786.49 2.6623 -2.06453 0
M  V30 18720 O 1787.02 3.67179 -1.62918 0
M  V30 18721 N 1785.22 2.3385 -1.72518 0
M  V30 18722 H 1784.77 1.51804 -2.08119 0
M  V30 18723 H 1784.73 2.944 -1.10344 0
M  V30 18724 N 1788.5 1.57583 -0.0234236 0
M  V30 18725 C 1789.73 1.95861 0.666797 0
M  V30 18726 C 1790.14 0.899616 1.65989 0
M  V30 18727 O 1789.5 -0.119162 1.82111 0
M  V30 18728 C 1789.55 3.34198 1.37818 0
M  V30 18729 O 1789.27 4.36035 0.424887 0
M  V30 18730 C 1790.77 3.87074 2.16075 0
M  V30 18731 H 1787.99 0.645213 0.184233 0
M  V30 18732 H 1790.54 2.04338 -0.0814987 0
M  V30 18733 H 1788.69 3.26958 2.07792 0
M  V30 18734 H 1789.11 5.162 0.929394 0
M  V30 18735 H 1790.58 4.8623 2.61312 0
M  V30 18736 H 1791.06 3.21017 2.99741 0
M  V30 18737 H 1791.66 3.97565 1.5107 0
M  V30 18738 N 1789.98 -0.249655 1.5561 0
M  V30 18739 C 1791.23 -0.97808 1.77313 0
M  V30 18740 C 1791.55 -1.85423 0.587253 0
M  V30 18741 O 1790.81 -1.90928 -0.429527 0
M  V30 18742 C 1791.11 -1.87138 3.0449 0
M  V30 18743 C 1790.77 -1.15081 4.35967 0
M  V30 18744 C 1789.44 -0.95166 4.71696 0
M  V30 18745 C 1791.79 -0.639877 5.17257 0
M  V30 18746 C 1789.12 -0.229227 5.86252 0
M  V30 18747 C 1791.47 0.0690756 6.32562 0
M  V30 18748 C 1790.13 0.279731 6.66914 0
M  V30 18749 H 1789.4 -0.357905 0.648834 0
M  V30 18750 H 1792.05 -0.248402 1.89882 0
M  V30 18751 H 1790.35 -2.66802 2.86921 0
M  V30 18752 H 1792.05 -2.43662 3.18481 0
M  V30 18753 H 1788.64 -1.31597 4.07897 0
M  V30 18754 H 1792.83 -0.78129 4.90112 0
M  V30 18755 H 1788.08 -0.0555172 6.11375 0
M  V30 18756 H 1792.26 0.472628 6.94794 0
M  V30 18757 H 1789.88 0.841482 7.55528 0
M  V30 18758 N 1791.46 -1.48941 -0.515198 0
M  V30 18759 C 1792.42 -1.64062 -1.60051 0
M  V30 18760 C 1793.42 -0.513101 -1.52394 0
M  V30 18761 O 1794.61 -0.77924 -1.558 0
M  V30 18762 C 1791.74 -1.6247 -2.99694 0
M  V30 18763 H 1792.94 -2.60849 -1.47978 0
M  V30 18764 H 1790.49 -1.37759 -0.738378 0
M  V30 18765 H 1791.22 -0.672141 -3.17258 0
M  V30 18766 H 1791.01 -2.4434 -3.0666 0
M  V30 18767 H 1792.5 -1.76273 -3.78573 0
M  V30 18768 N 1792.94 0.765193 -1.37777 0
M  V30 18769 C 1793.88 1.90005 -1.34168 0
M  V30 18770 C 1794.88 1.6784 -0.229387 0
M  V30 18771 O 1796.08 1.7555 -0.39778 0
M  V30 18772 H 1792.46 0.624939 -0.418276 0
M  V30 18773 H 1794.43 1.90165 -2.29956 0
M  V30 18774 C 1793.18 3.27349 -1.17208 0
M  V30 18775 H 1792.5 3.44985 -2.02053 0
M  V30 18776 H 1793.94 4.07036 -1.18734 0
M  V30 18777 C 1792.4 3.3668 0.121835 0
M  V30 18778 O 1792.93 3.86258 1.10306 0
M  V30 18779 N 1791.14 2.90074 0.174753 0
M  V30 18780 H 1790.68 2.49918 -0.624397 0
M  V30 18781 H 1790.64 2.96697 1.0401 0
M  V30 18782 N 1794.41 1.22455 0.992094 0
M  V30 18783 C 1795.64 1.07594 1.76723 0
M  V30 18784 C 1796.06 -0.37345 1.8507 0
M  V30 18785 O 1795.41 -1.25876 1.32142 0
M  V30 18786 C 1795.46 1.68178 3.19998 0
M  V30 18787 O 1795.19 3.07447 3.12102 0
M  V30 18788 C 1796.69 1.58602 4.13957 0
M  V30 18789 H 1793.91 0.377148 0.554978 0
M  V30 18790 H 1796.45 1.62065 1.24721 0
M  V30 18791 H 1794.61 1.17768 3.69066 0
M  V30 18792 H 1795.02 3.36641 4.0221 0
M  V30 18793 H 1796.49 2.05714 5.12236 0
M  V30 18794 H 1796.97 0.542712 4.35834 0
M  V30 18795 H 1797.58 2.08321 3.70786 0
M  V30 18796 N 1795.89 -1.18905 1.03437 0
M  V30 18797 C 1796.82 -2.24539 0.640669 0
M  V30 18798 C 1797.8 -1.66396 -0.353024 0
M  V30 18799 O 1798.99 -1.92779 -0.234522 0
M  V30 18800 C 1796.12 -3.473 -0.00367731 0
M  V30 18801 C 1795.07 -4.18151 0.912881 0
M  V30 18802 C 1794.4 -5.34534 0.133347 0
M  V30 18803 C 1795.7 -4.72342 2.22913 0
M  V30 18804 H 1797.39 -2.57726 1.52374 0
M  V30 18805 H 1794.94 -1.23883 0.734098 0
M  V30 18806 H 1796.89 -4.20396 -0.290783 0
M  V30 18807 H 1795.61 -3.13328 -0.921578 0
M  V30 18808 H 1794.27 -3.46945 1.18427 0
M  V30 18809 H 1793.92 -4.96809 -0.786762 0
M  V30 18810 H 1793.62 -5.82872 0.743905 0
M  V30 18811 H 1795.15 -6.10423 -0.146889 0
M  V30 18812 H 1796.56 -5.37165 2.00317 0
M  V30 18813 H 1794.96 -5.31189 2.79209 0
M  V30 18814 H 1796.03 -3.90108 2.87999 0
M  V30 18815 N 1797.37 -0.812977 -1.35013 0
M  V30 18816 C 1798.62 -0.395562 -1.98191 0
M  V30 18817 C 1798.94 1.04242 -1.64799 0
M  V30 18818 O 1798.21 1.72219 -0.933678 0
M  V30 18819 H 1796.79 -0.143276 -0.733131 0
M  V30 18820 H 1799.45 -1.04023 -1.64819 0
M  V30 18821 H 1798.55 -0.506466 -3.07963 0
M  V30 18822 N 1798.85 1.47045 -0.567045 0
M  V30 18823 C 1799.79 2.30135 0.175115 0
M  V30 18824 C 1800.76 1.39665 0.899049 0
M  V30 18825 O 1801.95 1.68623 0.892809 0
M  V30 18826 C 1799.09 3.23827 1.19289 0
M  V30 18827 C 1798.2 4.29392 0.474011 0
M  V30 18828 C 1797.34 5.10226 1.47793 0
M  V30 18829 C 1796.38 6.07554 0.744584 0
M  V30 18830 N 1795.51 6.81313 1.69581 0
M  V30 18831 H 1800.35 2.93075 -0.539529 0
M  V30 18832 H 1797.89 1.44451 -0.277889 0
M  V30 18833 H 1799.85 3.76579 1.79567 0
M  V30 18834 H 1798.48 2.6273 1.87544 0
M  V30 18835 H 1797.53 3.7962 -0.243494 0
M  V30 18836 H 1798.84 4.987 -0.100022 0
M  V30 18837 H 1798 5.67176 2.15397 0
M  V30 18838 H 1796.74 4.40842 2.08589 0
M  V30 18839 H 1795.74 5.49773 0.0546832 0
M  V30 18840 H 1796.97 6.78951 0.142235 0
M  V30 18841 H 1794.91 6.14651 2.29216 0
M  V30 18842 H 1794.83 7.46826 1.17418 0
M  V30 18843 H 1796.1 7.42831 2.36268 0
M  V30 18844 N 1800.33 0.304 1.5464 0
M  V30 18845 C 1801.29 -0.557917 2.22306 0
M  V30 18846 C 1802.29 -1.05895 1.21008 0
M  V30 18847 O 1803.48 -0.954497 1.45722 0
M  V30 18848 C 1800.61 -1.77279 2.91178 0
M  V30 18849 H 1801.8 0.0333187 2.99881 0
M  V30 18850 H 1799.36 0.0548659 1.56204 0
M  V30 18851 H 1800.09 -2.40378 2.17689 0
M  V30 18852 H 1799.88 -1.42115 3.65439 0
M  V30 18853 H 1801.37 -2.38507 3.42789 0
M  V30 18854 N 1801.8 -1.57568 0.0317802 0
M  V30 18855 C 1802.71 -2.13842 -0.964811 0
M  V30 18856 C 1803.73 -1.09134 -1.3552 0
M  V30 18857 O 1804.91 -1.41205 -1.43608 0
M  V30 18858 C 1801.97 -2.65654 -2.22775 0
M  V30 18859 C 1801.03 -3.85087 -1.89753 0
M  V30 18860 C 1800.26 -4.34419 -3.10026 0
M  V30 18861 O 1800.49 -3.8291 -4.22772 0
M  V30 18862 O 1799.42 -5.26233 -2.92169 0
M  V30 18863 H 1803.25 -2.99279 -0.516302 0
M  V30 18864 H 1800.83 -1.482 -0.188982 0
M  V30 18865 H 1802.71 -2.99035 -2.96911 0
M  V30 18866 H 1801.39 -1.83299 -2.66802 0
M  V30 18867 H 1800.3 -3.56628 -1.12994 0
M  V30 18868 H 1801.63 -4.68613 -1.50541 0
M  V30 18869 N 1803.28 0.241399 -1.5574 0
M  V30 18870 C 1804.51 0.984645 -1.81627 0
M  V30 18871 C 1804.92 1.79234 -0.605959 0
M  V30 18872 O 1804.26 1.78479 0.434841 0
M  V30 18873 C 1804.33 1.96647 -3.00949 0
M  V30 18874 C 1803.99 1.34519 -4.36754 0
M  V30 18875 C 1804.99 0.744925 -5.14536 0
M  V30 18876 C 1802.67 1.3629 -4.83457 0
M  V30 18877 C 1804.67 0.170657 -6.37171 0
M  V30 18878 C 1802.35 0.784784 -6.0604 0
M  V30 18879 C 1803.35 0.189694 -6.82737 0
M  V30 18880 O 1803.04 -0.379483 -8.03004 0
M  V30 18881 H 1802.77 0.295118 -0.608179 0
M  V30 18882 H 1805.32 0.267851 -2.03646 0
M  V30 18883 H 1803.55 2.72172 -2.74699 0
M  V30 18884 H 1805.24 2.5736 -3.1388 0
M  V30 18885 H 1806.01 0.723706 -4.7957 0
M  V30 18886 H 1801.89 1.81548 -4.23747 0
M  V30 18887 H 1805.43 -0.294459 -6.96978 0
M  V30 18888 H 1801.33 0.803348 -6.40482 0
M  V30 18889 H 1802.1 -0.271879 -8.18048 0
M  V30 18890 N 1804.76 1.49212 0.507292 0
M  V30 18891 C 1805.69 1.68326 1.61829 0
M  V30 18892 C 1806.67 0.531969 1.61568 0
M  V30 18893 O 1807.86 0.767104 1.78407 0
M  V30 18894 C 1804.99 1.74394 3.0034 0
M  V30 18895 C 1803.94 2.89251 3.15465 0
M  V30 18896 C 1803.27 2.80426 4.55264 0
M  V30 18897 C 1804.57 4.30269 2.96085 0
M  V30 18898 H 1806.26 2.6134 1.46087 0
M  V30 18899 H 1803.81 1.25765 0.701367 0
M  V30 18900 H 1805.76 1.86353 3.77956 0
M  V30 18901 H 1804.48 0.779748 3.17155 0
M  V30 18902 H 1803.14 2.76884 2.40272 0
M  V30 18903 H 1802.79 1.81928 4.68947 0
M  V30 18904 H 1802.49 3.57511 4.66326 0
M  V30 18905 H 1804.01 2.94384 5.34949 0
M  V30 18906 H 1805.43 4.4335 3.63475 0
M  V30 18907 H 1803.83 5.08527 3.18623 0
M  V30 18908 H 1804.9 4.45151 1.92272 0
M  V30 18909 N 1806.24 -0.757876 1.38181 0
M  V30 18910 C 1807.19 -1.87152 1.35065 0
M  V30 18911 C 1808.16 -1.64717 0.213892 0
M  V30 18912 O 1809.34 -1.86442 0.405448 0
M  V30 18913 C 1806.48 -3.24398 1.17728 0
M  V30 18914 C 1805.59 -3.58694 2.40754 0
M  V30 18915 C 1804.73 -4.85221 2.16181 0
M  V30 18916 C 1803.77 -5.1229 3.35001 0
M  V30 18917 N 1802.9 -6.3001 3.0989 0
M  V30 18918 H 1807.74 -1.89151 2.30274 0
M  V30 18919 H 1805.28 -0.924571 1.14412 0
M  V30 18920 H 1807.24 -4.0359 1.05694 0
M  V30 18921 H 1805.87 -3.21738 0.261606 0
M  V30 18922 H 1804.92 -2.74379 2.63477 0
M  V30 18923 H 1806.23 -3.74628 3.29325 0
M  V30 18924 H 1805.39 -5.72346 2.01258 0
M  V30 18925 H 1804.13 -4.71417 1.24969 0
M  V30 18926 H 1803.13 -4.23635 3.50448 0
M  V30 18927 H 1804.36 -5.27993 4.27083 0
M  V30 18928 H 1802.3 -6.17538 2.21321 0
M  V30 18929 H 1802.22 -6.46425 3.92009 0
M  V30 18930 H 1803.49 -7.20035 2.98613 0
M  V30 18931 N 1807.72 -1.22979 -0.985586 0
M  V30 18932 C 1808.66 -1.00374 -2.09828 0
M  V30 18933 C 1809.66 0.0555734 -1.69309 0
M  V30 18934 O 1810.86 -0.0974909 -1.79736 0
M  V30 18935 H 1807.24 -0.307451 -0.686278 0
M  V30 18936 H 1809.21 -1.94776 -2.26064 0
M  V30 18937 C 1807.96 -0.606018 -3.42378 0
M  V30 18938 H 1807.28 -1.41284 -3.74004 0
M  V30 18939 H 1808.72 -0.487318 -4.2119 0
M  V30 18940 C 1807.18 0.685197 -3.29859 0
M  V30 18941 O 1807.71 1.73572 -3.62265 0
M  V30 18942 N 1805.92 0.65914 -2.83026 0
M  V30 18943 H 1805.46 -0.196071 -2.56853 0
M  V30 18944 H 1805.42 1.52332 -2.75031 0
M  V30 18945 N 1809.19 1.18355 -1.04066 0
M  V30 18946 C 1810.14 2.24033 -0.625447 0
M  V30 18947 C 1811.14 1.65792 0.347754 0
M  V30 18948 O 1812.34 1.78711 0.215045 0
M  V30 18949 H 1808.72 0.729132 -0.184039 0
M  V30 18950 H 1810.69 2.56362 -1.52712 0
M  V30 18951 C 1809.44 3.477 -0.00432692 0
M  V30 18952 H 1808.76 3.92812 -0.744237 0
M  V30 18953 H 1810.2 4.23268 0.24898 0
M  V30 18954 C 1808.66 3.13022 1.24574 0
M  V30 18955 O 1809.19 3.26759 2.33649 0
M  V30 18956 N 1807.4 2.67347 1.13902 0
M  V30 18957 H 1806.94 2.5637 0.251417 0
M  V30 18958 H 1806.9 2.44517 1.97633 0
M  V30 18959 N 1810.67 0.820125 1.3458 0
M  V30 18960 C 1811.92 0.403287 1.97627 0
M  V30 18961 C 1812.23 -1.0385 1.65754 0
M  V30 18962 O 1813.44 -1.55911 2.2227 0
M  V30 18963 C 1811.9 0.670161 3.53606 0
M  V30 18964 C 1811.5 2.12538 3.94375 0
M  V30 18965 C 1813.25 0.31935 4.23297 0
M  V30 18966 C 1811.16 2.3373 5.43254 0
M  V30 18967 H 1810.09 0.147062 0.739519 0
M  V30 18968 H 1812.74 1.00609 1.53461 0
M  V30 18969 H 1811.12 -0.00276896 3.96 0
M  V30 18970 H 1812.29 2.83724 3.63094 0
M  V30 18971 H 1810.61 2.43736 3.37612 0
M  V30 18972 H 1813.2 0.45555 5.32756 0
M  V30 18973 H 1813.55 -0.735875 4.09745 0
M  V30 18974 H 1814.08 0.946743 3.8637 0
M  V30 18975 H 1810.82 3.37747 5.61789 0
M  V30 18976 H 1810.34 1.67084 5.76058 0
M  V30 18977 H 1812.02 2.1595 6.09897 0
M  V30 18978 N 1812.15 -1.46743 0.574835 0
M  V30 18979 C 1813.08 -2.33012 -0.150836 0
M  V30 18980 C 1814.06 -1.44868 -0.891472 0
M  V30 18981 O 1815.25 -1.73698 -0.868481 0
M  V30 18982 C 1812.38 -3.26995 -1.17012 0
M  V30 18983 C 1811.33 -4.24518 -0.544829 0
M  V30 18984 C 1810.66 -5.07951 -1.67002 0
M  V30 18985 C 1811.96 -5.19776 0.512891 0
M  V30 18986 H 1813.65 -2.93935 0.569433 0
M  V30 18987 H 1811.2 -1.41344 0.275289 0
M  V30 18988 H 1813.15 -3.86198 -1.68609 0
M  V30 18989 H 1811.87 -2.64163 -1.92056 0
M  V30 18990 H 1810.53 -3.66566 -0.0500133 0
M  V30 18991 H 1810.18 -4.4151 -2.40993 0
M  V30 18992 H 1809.88 -5.73991 -1.25732 0
M  V30 18993 H 1811.4 -5.70017 -2.1889 0
M  V30 18994 H 1812.82 -5.73241 0.0823064 0
M  V30 18995 H 1811.22 -5.94114 0.845462 0
M  V30 18996 H 1812.29 -4.64184 1.40217 0
M  V30 18997 N 1813.63 -0.312197 -1.54477 0
M  V30 18998 C 1814.85 0.298829 -2.05236 0
M  V30 18999 C 1815.28 1.45881 -1.18745 0
M  V30 19000 O 1814.64 1.80259 -0.193999 0
M  V30 19001 C 1814.68 0.722008 -3.53298 0
M  V30 19002 O 1813.79 1.82562 -3.6979 0
M  V30 19003 H 1813.13 0.0560985 -0.661626 0
M  V30 19004 H 1815.66 -0.4573 -1.99424 0
M  V30 19005 H 1815.67 1.00777 -3.95358 0
M  V30 19006 H 1814.34 -0.12647 -4.15708 0
M  V30 19007 H 1812.92 1.53954 -3.39636 0
M  V30 19008 N 1815.11 1.57549 -0.040136 0
M  V30 19009 C 1816.04 2.06413 0.973089 0
M  V30 19010 C 1817.02 0.962235 1.31072 0
M  V30 19011 O 1818.2 1.23337 1.42549 0
M  V30 19012 C 1815.33 2.49541 2.29013 0
M  V30 19013 C 1814.37 3.70858 2.10634 0
M  V30 19014 S 1815.21 5.17013 1.39493 0
M  V30 19015 C 1816.36 5.63445 2.72544 0
M  V30 19016 H 1816.6 2.92032 0.557186 0
M  V30 19017 H 1814.13 1.53441 0.171846 0
M  V30 19018 H 1816.09 2.75052 3.04723 0
M  V30 19019 H 1814.75 1.64247 2.67734 0
M  V30 19020 H 1813.94 3.98918 3.08027 0
M  V30 19021 H 1813.54 3.45555 1.43065 0
M  V30 19022 H 1815.84 5.68357 3.68749 0
M  V30 19023 H 1816.78 6.62826 2.49134 0
M  V30 19024 H 1817.19 4.91133 2.78296 0
M  V30 19025 N 1816.58 -0.233136 1.55866 0
M  V30 19026 C 1818 -0.801092 1.6864 0
M  V30 19027 C 1818.35 -1.85465 0.640081 0
M  V30 19028 O 1817.47 -2.15368 -0.211038 0
M  V30 19029 C 1818.07 -1.45984 3.05735 0
M  V30 19030 C 1816.63 -1.97533 3.20403 0
M  V30 19031 C 1815.77 -0.831321 2.64546 0
M  V30 19032 H 1818.72 -0.00868708 1.58698 0
M  V30 19033 H 1818.74 -2.32832 3.00948 0
M  V30 19034 H 1818.26 -0.692805 3.81866 0
M  V30 19035 H 1816.36 -2.77074 2.4912 0
M  V30 19036 H 1816.47 -2.16326 4.27481 0
M  V30 19037 H 1814.83 -1.23554 2.22725 0
M  V30 19038 H 1815.62 -0.0771465 3.43213 0
M  V30 19039 N 1818.06 -1.49479 -0.499372 0
M  V30 19040 C 1818.97 -1.69006 -1.62709 0
M  V30 19041 C 1819.99 -0.572681 -1.64306 0
M  V30 19042 O 1821.17 -0.847586 -1.82696 0
M  V30 19043 C 1818.23 -1.75382 -2.99069 0
M  V30 19044 C 1817.29 -2.98968 -3.08086 0
M  V30 19045 C 1816.52 -3.0503 -4.37941 0
M  V30 19046 O 1816.75 -2.18641 -5.26832 0
M  V30 19047 O 1815.68 -3.97507 -4.51964 0
M  V30 19048 H 1819.51 -2.64544 -1.49164 0
M  V30 19049 H 1817.09 -1.3324 -0.675836 0
M  V30 19050 H 1818.97 -1.81919 -3.8011 0
M  V30 19051 H 1817.65 -0.830226 -3.12872 0
M  V30 19052 H 1816.56 -2.97947 -2.26227 0
M  V30 19053 H 1817.89 -3.90812 -2.9921 0
M  V30 19054 N 1819.54 0.750537 -1.38581 0
M  V30 19055 C 1820.49 1.86434 -1.36056 0
M  V30 19056 C 1821.46 1.64601 -0.222625 0
M  V30 19057 O 1822.64 1.86225 -0.41533 0
M  V30 19058 C 1819.78 3.23769 -1.19447 0
M  V30 19059 C 1818.9 3.57412 -2.42653 0
M  V30 19060 C 1818.03 4.84067 -2.18751 0
M  V30 19061 C 1817.07 5.10506 -3.37713 0
M  V30 19062 N 1816.21 6.28358 -3.13227 0
M  V30 19063 H 1821.05 1.87927 -2.31274 0
M  V30 19064 H 1818.58 0.91849 -1.14901 0
M  V30 19065 H 1820.54 4.03024 -1.07832 0
M  V30 19066 H 1819.17 3.21595 -0.278665 0
M  V30 19067 H 1818.22 2.72978 -2.64929 0
M  V30 19068 H 1819.54 3.72876 -3.31307 0
M  V30 19069 H 1818.69 5.71271 -2.0429 0
M  V30 19070 H 1817.43 4.70748 -1.27467 0
M  V30 19071 H 1816.43 4.2177 -3.5269 0
M  V30 19072 H 1817.66 5.25721 -4.29877 0
M  V30 19073 H 1815.61 6.16355 -2.24593 0
M  V30 19074 H 1815.52 6.44337 -3.95432 0
M  V30 19075 H 1816.79 7.18441 -3.02428 0
M  V30 19076 N 1821.02 1.235 0.979051 0
M  V30 19077 C 1821.98 1.01854 2.05325 0
M  V30 19078 C 1822.98 -0.0201133 1.60787 0
M  V30 19079 O 1824.17 0.219761 1.72808 0
M  V30 19080 C 1821.3 0.541404 3.36573 0
M  V30 19081 H 1822.5 1.97183 2.25962 0
M  V30 19082 H 1820.05 1.05563 1.15265 0
M  V30 19083 H 1820.79 -0.415607 3.21626 0
M  V30 19084 H 1820.57 1.29092 3.7024 0
M  V30 19085 H 1822.06 0.410635 4.15576 0
M  V30 19086 N 1822.5 -1.17802 1.04693 0
M  V30 19087 C 1823.44 -2.21648 0.643478 0
M  V30 19088 C 1824.41 -1.6233 -0.351858 0
M  V30 19089 O 1825.6 -1.89228 -0.244414 0
M  V30 19090 C 1822.74 -3.45095 0.019145 0
M  V30 19091 C 1821.85 -4.18725 1.06271 0
M  V30 19092 C 1820.99 -5.29644 0.406224 0
M  V30 19093 C 1820.03 -5.95055 1.43444 0
M  V30 19094 N 1819.16 -6.97499 0.802482 0
M  V30 19095 H 1824 -2.55513 1.53352 0
M  V30 19096 H 1821.54 -1.25518 0.767051 0
M  V30 19097 H 1823.5 -4.15642 -0.36023 0
M  V30 19098 H 1822.13 -3.1183 -0.834386 0
M  V30 19099 H 1821.18 -3.46943 1.55996 0
M  V30 19100 H 1822.49 -4.63486 1.84342 0
M  V30 19101 H 1821.65 -6.06694 -0.027012 0
M  V30 19102 H 1820.39 -4.86003 -0.406525 0
M  V30 19103 H 1819.39 -5.1674 1.87775 0
M  V30 19104 H 1820.62 -6.40778 2.249 0
M  V30 19105 H 1818.56 -6.55999 0.010153 0
M  V30 19106 H 1818.48 -7.40545 1.52081 0
M  V30 19107 H 1819.75 -7.78504 0.393852 0
M  V30 19108 N 1823.98 -0.827251 -1.34143 0
M  V30 19109 C 1824.92 -0.250166 -2.2944 0
M  V30 19110 C 1825.89 0.62749 -1.53791 0
M  V30 19111 O 1827.08 0.568218 -1.82143 0
M  V30 19112 C 1824.22 0.578392 -3.40219 0
M  V30 19113 C 1823.33 -0.321991 -4.30798 0
M  V30 19114 C 1822.47 0.51655 -5.28683 0
M  V30 19115 C 1821.5 -0.382949 -6.10901 0
M  V30 19116 N 1820.64 0.416774 -7.00862 0
M  V30 19117 H 1825.48 -1.06817 -2.78198 0
M  V30 19118 H 1823.02 -0.538245 -1.36899 0
M  V30 19119 H 1824.98 1.07414 -4.03135 0
M  V30 19120 H 1823.61 1.36147 -2.92684 0
M  V30 19121 H 1822.66 -0.935979 -3.68705 0
M  V30 19122 H 1823.97 -1.01346 -4.88396 0
M  V30 19123 H 1823.12 1.0766 -5.97071 0
M  V30 19124 H 1821.86 1.2415 -4.71633 0
M  V30 19125 H 1820.87 -0.955103 -5.41441 0
M  V30 19126 H 1822.09 -1.10609 -6.70032 0
M  V30 19127 H 1820.04 1.12532 -6.46276 0
M  V30 19128 H 1819.96 -0.216217 -7.55691 0
M  V30 19129 H 1821.22 0.959432 -7.73573 0
M  V30 19130 N 1825.45 1.46436 -0.582609 0
M  V30 19131 C 1826.42 2.28769 0.140502 0
M  V30 19132 C 1827.42 1.38385 0.818911 0
M  V30 19133 O 1828.61 1.60763 0.670882 0
M  V30 19134 C 1825.74 3.18765 1.20836 0
M  V30 19135 H 1826.93 2.94178 -0.583049 0
M  V30 19136 H 1824.48 1.52544 -0.340575 0
M  V30 19137 H 1825.22 2.58103 1.9635 0
M  V30 19138 H 1825 3.85312 0.726417 0
M  V30 19139 H 1826.49 3.80735 1.71553 0
M  V30 19140 N 1826.93 0.320385 1.54309 0
M  V30 19141 C 1828.18 -0.283143 2.00511 0
M  V30 19142 C 1828.51 -1.52391 1.2086 0
M  V30 19143 O 1827.76 -1.93716 0.277955 0
M  V30 19144 C 1828.06 -0.665444 3.5115 0
M  V30 19145 C 1827.73 0.475789 4.48383 0
M  V30 19146 C 1826.39 0.789037 4.74687 0
M  V30 19147 C 1828.74 1.24253 5.06172 0
M  V30 19148 C 1826.07 1.87181 5.5604 0
M  V30 19149 C 1828.42 2.31537 5.88705 0
M  V30 19150 C 1827.08 2.63447 6.13312 0
M  V30 19151 H 1826.35 -0.103609 0.733721 0
M  V30 19152 H 1829 0.443504 1.86294 0
M  V30 19153 H 1827.31 -1.47247 3.63078 0
M  V30 19154 H 1829 -1.14391 3.84338 0
M  V30 19155 H 1825.59 0.221559 4.28027 0
M  V30 19156 H 1829.78 1.01379 4.85835 0
M  V30 19157 H 1825.03 2.12354 5.73337 0
M  V30 19158 H 1829.21 2.91395 6.32504 0
M  V30 19159 H 1826.83 3.47477 6.76139 0
M  V30 19160 N 1828.41 -1.57525 0.0484906 0
M  V30 19161 C 1829.69 -1.83927 -0.66561 0
M  V30 19162 C 1830.07 -0.93636 -1.89197 0
M  V30 19163 O 1829.41 0.00326905 -2.285 0
M  V30 19164 C 1829.62 -3.33595 -1.02545 0
M  V30 19165 C 1830.97 -4.00544 -1.40889 0
M  V30 19166 O 1832 -3.38204 -1.11787 0
M  V30 19167 O 1830.86 -5.10454 -1.95189 0
M  V30 19168 H 1827.95 -0.759042 -0.328305 0
M  V30 19169 H 1830.5 -1.69522 0.0776497 0
M  V30 19170 H 1829.27 -3.90999 -0.153456 0
M  V30 19171 H 1828.89 -3.53177 -1.82625 0
M  V30 19172 N 1829.89 0.224867 -1.55988 0
M  V30 19173 C 1830.84 1.29829 -1.92995 0
M  V30 19174 C 1831.83 1.48693 -0.81159 0
M  V30 19175 O 1833.04 1.49906 -0.996397 0
M  V30 19176 H 1829.41 0.435205 -0.61327 0
M  V30 19177 H 1831.38 0.958953 -2.82571 0
M  V30 19178 C 1830.13 2.6422 -2.26016 0
M  V30 19179 H 1829.45 2.50511 -3.11584 0
M  V30 19180 H 1830.89 3.38148 -2.55797 0
M  V30 19181 C 1829.35 3.1898 -1.08413 0
M  V30 19182 O 1829.88 4.00228 -0.343538 0
M  V30 19183 N 1828.09 2.77308 -0.868842 0
M  V30 19184 H 1827.64 2.11344 -1.4728 0
M  V30 19185 H 1827.59 3.14289 -0.0837012 0
M  V30 19186 N 1831.37 1.49742 0.491438 0
M  V30 19187 C 1832.78 1.52802 1.07278 0
M  V30 19188 C 1833.13 0.319712 1.93578 0
M  V30 19189 O 1832.25 -0.569524 2.08771 0
M  V30 19190 C 1832.85 2.76896 1.95228 0
M  V30 19191 C 1831.41 2.82703 2.48508 0
M  V30 19192 C 1830.55 2.4684 1.26355 0
M  V30 19193 H 1833.5 1.56301 0.274925 0
M  V30 19194 H 1833.53 2.57599 2.80041 0
M  V30 19195 H 1833.04 3.64821 1.32391 0
M  V30 19196 H 1831.14 1.99081 3.14956 0
M  V30 19197 H 1831.25 3.85108 2.85006 0
M  V30 19198 H 1829.62 1.98828 1.59184 0
M  V30 19199 H 1830.4 3.3705 0.652109 0
M  V30 19200 N 1832.84 -0.743177 1.38977 0
M  V30 19201 C 1834.12 -1.49384 1.26269 0
M  V30 19202 C 1834.5 -2.10691 -0.131349 0
M  V30 19203 O 1833.85 -1.97925 -1.14183 0
M  V30 19204 C 1834.06 -2.55184 2.3808 0
M  V30 19205 C 1835.41 -3.21796 2.77006 0
M  V30 19206 O 1836.43 -2.65493 2.37469 0
M  V30 19207 O 1835.29 -4.23656 3.45222 0
M  V30 19208 H 1832.38 -0.662968 0.49437 0
M  V30 19209 H 1834.93 -0.7777 1.50831 0
M  V30 19210 H 1833.7 -2.08204 3.31311 0
M  V30 19211 H 1833.33 -3.34366 2.15139 0
M  V30 19212 N 1834.32 -1.24018 -0.972487 0
M  V30 19213 C 1835.55 -1.10232 -1.74736 0
M  V30 19214 C 1835.96 0.348409 -1.85964 0
M  V30 19215 O 1835.3 1.25245 -1.34386 0
M  V30 19216 C 1835.37 -1.66263 -3.18743 0
M  V30 19217 C 1835.03 -3.151 -3.31 0
M  V30 19218 C 1836.03 -4.12305 -3.16703 0
M  V30 19219 C 1833.71 -3.54965 -3.55394 0
M  V30 19220 C 1835.71 -5.47357 -3.26617 0
M  V30 19221 C 1833.39 -4.9016 -3.64947 0
M  V30 19222 C 1834.39 -5.86165 -3.5057 0
M  V30 19223 O 1834.08 -7.18903 -3.5977 0
M  V30 19224 H 1833.81 -0.386036 -0.554935 0
M  V30 19225 H 1836.36 -1.64505 -1.22993 0
M  V30 19226 H 1834.59 -1.06419 -3.71769 0
M  V30 19227 H 1836.28 -1.47837 -3.7802 0
M  V30 19228 H 1837.05 -3.82848 -2.97745 0
M  V30 19229 H 1832.93 -2.80747 -3.65653 0
M  V30 19230 H 1836.47 -6.22273 -3.15312 0
M  V30 19231 H 1832.37 -5.1929 -3.83416 0
M  V30 19232 H 1833.14 -7.26759 -3.76515 0
M  V30 19233 N 1835.8 1.17245 -1.05316 0
M  V30 19234 C 1837.05 1.88061 -0.774904 0
M  V30 19235 C 1837.4 1.79577 0.690631 0
M  V30 19236 O 1836.69 1.19378 1.49865 0
M  V30 19237 C 1836.89 3.36958 -1.19138 0
M  V30 19238 C 1836.72 3.59935 -2.69586 0
M  V30 19239 C 1835.49 3.76587 -3.36913 0
M  V30 19240 C 1837.69 3.59476 -3.67806 0
M  V30 19241 N 1835.67 3.8742 -4.76213 0
M  V30 19242 C 1837.04 3.76175 -4.92841 0
M  V30 19243 C 1839.09 3.42633 -3.61257 0
M  V30 19244 C 1837.8 3.77773 -6.12111 0
M  V30 19245 C 1839.82 3.45521 -4.79968 0
M  V30 19246 C 1839.18 3.62728 -6.03827 0
M  V30 19247 H 1835.28 0.706228 -0.335807 0
M  V30 19248 H 1837.87 1.40743 -1.34535 0
M  V30 19249 H 1836.04 3.82941 -0.648876 0
M  V30 19250 H 1837.77 3.95395 -0.862828 0
M  V30 19251 H 1834.53 3.76494 -2.87314 0
M  V30 19252 H 1834.95 3.9663 -5.48647 0
M  V30 19253 H 1839.59 3.28265 -2.66462 0
M  V30 19254 H 1837.31 3.90926 -7.0725 0
M  V30 19255 H 1840.9 3.33745 -4.76556 0
M  V30 19256 H 1839.78 3.64869 -6.94147 0
M  V30 19257 N 1837.28 0.834353 1.33702 0
M  V30 19258 C 1838.23 0.252818 2.31222 0
M  V30 19259 C 1839.22 -0.612723 1.57931 0
M  V30 19260 O 1840.43 -0.502788 1.72835 0
M  V30 19261 H 1836.8 0.0630243 0.749354 0
M  V30 19262 H 1838.77 1.08992 2.77783 0
M  V30 19263 C 1837.52 -0.561132 3.43142 0
M  V30 19264 H 1836.84 0.0955723 3.99686 0
M  V30 19265 H 1838.28 -0.933951 4.13586 0
M  V30 19266 C 1836.74 -1.73817 2.88599 0
M  V30 19267 O 1837.27 -2.83674 2.84415 0
M  V30 19268 N 1835.48 -1.5586 2.45267 0
M  V30 19269 H 1835.03 -0.664959 2.4887 0
M  V30 19270 H 1834.98 -2.34764 2.09125 0
M  V30 19271 N 1838.76 -1.46125 0.590367 0
M  V30 19272 C 1839.71 -2.27441 -0.159552 0
M  V30 19273 C 1840.69 -1.3632 -0.854728 0
M  V30 19274 O 1841.88 -1.60439 -0.74756 0
M  V30 19275 C 1839.01 -3.22834 -1.16761 0
M  V30 19276 C 1838.1 -4.21441 -0.474153 0
M  V30 19277 N 1838.49 -5.03569 0.474569 0
M  V30 19278 C 1836.79 -4.40086 -0.723925 0
M  V30 19279 C 1837.49 -5.74996 0.880574 0
M  V30 19280 N 1836.46 -5.43121 0.228047 0
M  V30 19281 H 1840.27 -2.88332 0.569375 0
M  V30 19282 H 1837.78 -1.57068 0.412732 0
M  V30 19283 H 1839.78 -3.79806 -1.7191 0
M  V30 19284 H 1838.44 -2.63503 -1.89727 0
M  V30 19285 H 1839.45 -5.10869 0.850477 0
M  V30 19286 H 1836.12 -3.91896 -1.43958 0
M  V30 19287 H 1837.51 -6.51018 1.66207 0
M  V30 19288 N 1840.23 -0.328564 -1.54137 0
M  V30 19289 C 1841.46 0.277044 -2.05541 0
M  V30 19290 C 1841.88 1.44613 -1.20285 0
M  V30 19291 O 1841.24 1.80043 -0.213107 0
M  V30 19292 C 1841.29 0.684495 -3.54044 0
M  V30 19293 O 1840.39 1.78629 -3.71706 0
M  V30 19294 H 1839.74 0.049078 -0.662184 0
M  V30 19295 H 1842.27 -0.478426 -1.98928 0
M  V30 19296 H 1842.28 0.965784 -3.96405 0
M  V30 19297 H 1840.95 -0.170554 -4.1555 0
M  V30 19298 H 1839.53 1.50343 -3.4125 0
M  V30 19299 N 1841.71 1.57497 -0.0568439 0
M  V30 19300 C 1842.64 2.14892 0.913427 0
M  V30 19301 C 1843.62 1.07205 1.32065 0
M  V30 19302 O 1844.81 1.35172 1.39435 0
M  V30 19303 C 1841.94 2.69849 2.18629 0
M  V30 19304 C 1840.89 3.8257 1.91896 0
M  V30 19305 C 1840.22 4.24068 3.25685 0
M  V30 19306 C 1841.52 5.07463 1.23606 0
M  V30 19307 H 1843.21 2.96218 0.435347 0
M  V30 19308 H 1840.76 1.4249 0.20796 0
M  V30 19309 H 1842.71 3.08643 2.86911 0
M  V30 19310 H 1841.44 1.85723 2.68653 0
M  V30 19311 H 1840.09 3.44258 1.26024 0
M  V30 19312 H 1839.74 3.36884 3.73521 0
M  V30 19313 H 1839.44 5.00043 3.08594 0
M  V30 19314 H 1840.97 4.65466 3.95189 0
M  V30 19315 H 1842.38 5.43667 1.81931 0
M  V30 19316 H 1840.78 5.88619 1.16823 0
M  V30 19317 H 1841.85 4.84432 0.212918 0
M  V30 19318 N 1843.19 -0.216591 1.56105 0
M  V30 19319 C 1844.6 -0.783161 1.6948 0
M  V30 19320 C 1844.95 -1.84776 0.659716 0
M  V30 19321 O 1844.08 -2.1558 -0.188184 0
M  V30 19322 C 1844.67 -1.42733 3.07267 0
M  V30 19323 C 1843.23 -1.94123 3.2248 0
M  V30 19324 C 1842.38 -0.803216 2.65412 0
M  V30 19325 H 1845.33 0.00814542 1.58698 0
M  V30 19326 H 1845.35 -2.29627 3.034 0
M  V30 19327 H 1844.86 -0.652264 3.8258 0
M  V30 19328 H 1842.96 -2.74416 2.52045 0
M  V30 19329 H 1843.08 -2.1178 4.29751 0
M  V30 19330 H 1841.44 -1.21185 2.24023 0
M  V30 19331 H 1842.22 -0.0407398 3.43276 0
M  V30 19332 N 1844.67 -1.5 -0.48349 0
M  V30 19333 C 1846.08 -1.53369 -1.06466 0
M  V30 19334 C 1846.43 -0.329973 -1.93405 0
M  V30 19335 O 1845.56 0.558444 -2.0907 0
M  V30 19336 C 1846.15 -2.77927 -1.93757 0
M  V30 19337 C 1844.71 -2.84017 -2.47005 0
M  V30 19338 C 1843.86 -2.47506 -1.25044 0
M  V30 19339 H 1846.81 -1.56444 -0.266633 0
M  V30 19340 H 1846.83 -2.59081 -2.78671 0
M  V30 19341 H 1846.34 -3.65518 -1.30454 0
M  V30 19342 H 1844.44 -2.00748 -3.13896 0
M  V30 19343 H 1844.55 -3.86614 -2.8296 0
M  V30 19344 H 1842.92 -1.99669 -1.58127 0
M  V30 19345 H 1843.7 -3.37391 -0.634225 0
M  V30 19346 N 1846.15 0.735796 -1.39369 0
M  V30 19347 C 1847.56 1.04124 -1.20956 0
M  V30 19348 C 1847.76 2.01376 -0.0705944 0
M  V30 19349 O 1846.82 2.45795 0.577999 0
M  V30 19350 C 1848.13 1.60429 -2.54329 0
M  V30 19351 C 1849.68 1.72513 -2.61167 0
M  V30 19352 C 1850.15 2.32227 -3.94759 0
M  V30 19353 N 1851.65 2.39638 -3.96394 0
M  V30 19354 C 1852.38 2.86777 -4.96534 0
M  V30 19355 N 1851.88 3.3382 -6.07072 0
M  V30 19356 N 1853.67 2.85979 -4.83913 0
M  V30 19357 H 1845.82 0.0907834 -2.12206 0
M  V30 19358 H 1848.08 0.102896 -0.942399 0
M  V30 19359 H 1847.79 0.964351 -3.38221 0
M  V30 19360 H 1847.66 2.59247 -2.73991 0
M  V30 19361 H 1850.05 2.35629 -1.77659 0
M  V30 19362 H 1850.13 0.723507 -2.45355 0
M  V30 19363 H 1849.78 1.69739 -4.78697 0
M  V30 19364 H 1849.71 3.33066 -4.07891 0
M  V30 19365 H 1852.2 2.06388 -3.16563 0
M  V30 19366 H 1852.51 3.68297 -6.79395 0
M  V30 19367 H 1850.85 3.3183 -6.10666 0
M  V30 19368 H 1854.05 2.48551 -3.96661 0
M  V30 19369 H 1854.22 3.22403 -5.62104 0
M  V30 19370 N 1847.63 1.24532 0.965897 0
M  V30 19371 C 1848.85 1.11412 1.74934 0
M  V30 19372 C 1849.28 -0.329168 1.85197 0
M  V30 19373 O 1848.63 -1.23833 1.3242 0
M  V30 19374 C 1848.68 1.76068 3.14694 0
M  V30 19375 O 1847.79 1.03267 3.99261 0
M  V30 19376 H 1847.13 0.389633 0.537663 0
M  V30 19377 H 1849.66 1.64875 1.2115 0
M  V30 19378 H 1849.67 1.81897 3.65209 0
M  V30 19379 H 1848.34 2.8108 3.0654 0
M  V30 19380 H 1846.92 1.05236 3.57743 0
M  V30 19381 N 1849.1 -1.16685 1.05936 0
M  V30 19382 C 1850.33 -1.91035 0.794553 0
M  V30 19383 C 1850.75 -1.77234 -0.650663 0
M  V30 19384 O 1850.1 -1.11454 -1.44514 0
M  V30 19385 C 1850.15 -3.41859 1.17536 0
M  V30 19386 O 1849.88 -3.55243 2.56386 0
M  V30 19387 C 1851.38 -4.33267 0.937774 0
M  V30 19388 H 1848.6 -0.605896 0.288325 0
M  V30 19389 H 1851.14 -1.47925 1.41203 0
M  V30 19390 H 1849.3 -3.82686 0.602486 0
M  V30 19391 H 1849.71 -4.48744 2.71531 0
M  V30 19392 H 1851.18 -5.3757 1.25389 0
M  V30 19393 H 1851.66 -4.39017 -0.126673 0
M  V30 19394 H 1852.27 -3.98163 1.49486 0
M  V30 19395 N 1850.58 -0.841432 -1.33258 0
M  V30 19396 C 1851.51 -0.291603 -2.31672 0
M  V30 19397 C 1852.49 0.602066 -1.59089 0
M  V30 19398 O 1853.68 0.525081 -1.86967 0
M  V30 19399 C 1850.81 0.532008 -3.43201 0
M  V30 19400 C 1849.76 -0.26609 -4.27172 0
M  V30 19401 C 1849.09 0.681432 -5.3034 0
M  V30 19402 C 1850.39 -1.48457 -5.00757 0
M  V30 19403 H 1852.08 -1.1139 -2.77908 0
M  V30 19404 H 1849.63 -0.53708 -1.33609 0
M  V30 19405 H 1851.58 0.926977 -4.11078 0
M  V30 19406 H 1850.3 1.38754 -2.9566 0
M  V30 19407 H 1848.96 -0.64265 -3.60923 0
M  V30 19408 H 1848.61 1.53344 -4.79056 0
M  V30 19409 H 1848.31 0.151522 -5.87405 0
M  V30 19410 H 1849.84 1.07386 -6.01083 0
M  V30 19411 H 1851.25 -1.16262 -5.61388 0
M  V30 19412 H 1849.65 -1.95145 -5.67484 0
M  V30 19413 H 1850.72 -2.25296 -4.29383 0
M  V30 19414 N 1852.06 1.4581 -0.598108 0
M  V30 19415 C 1852.99 2.28611 0.164271 0
M  V30 19416 C 1854 1.39406 0.840827 0
M  V30 19417 O 1855.19 1.63867 0.707805 0
M  V30 19418 C 1852.29 3.14883 1.25306 0
M  V30 19419 C 1851.47 4.32308 0.66546 0
M  V30 19420 C 1850.53 4.99862 1.64392 0
M  V30 19421 O 1849.55 5.56963 1.17393 0
M  V30 19422 N 1850.75 4.98278 2.97825 0
M  V30 19423 H 1853.52 2.94681 -0.546181 0
M  V30 19424 H 1851.08 1.55893 -0.436933 0
M  V30 19425 H 1853.07 3.5694 1.90724 0
M  V30 19426 H 1851.64 2.50785 1.86616 0
M  V30 19427 H 1850.86 3.93848 -0.166567 0
M  V30 19428 H 1852.15 5.08171 0.252938 0
M  V30 19429 H 1851.55 4.53159 3.38619 0
M  V30 19430 H 1850.1 5.44228 3.58691 0
M  V30 19431 N 1853.54 0.336733 1.53961 0
M  V30 19432 C 1854.49 -0.539031 2.21537 0
M  V30 19433 C 1855.47 -1.07141 1.2004 0
M  V30 19434 O 1856.66 -1.00624 1.45615 0
M  V30 19435 C 1853.79 -1.69289 2.98657 0
M  V30 19436 C 1852.88 -1.17478 4.07504 0
M  V30 19437 N 1853.27 -0.377364 5.0439 0
M  V30 19438 C 1851.57 -1.4523 4.21692 0
M  V30 19439 C 1852.27 -0.0970043 5.81619 0
M  V30 19440 N 1851.24 -0.686775 5.39244 0
M  V30 19441 H 1855.05 0.077355 2.93798 0
M  V30 19442 H 1852.56 0.14325 1.61767 0
M  V30 19443 H 1854.56 -2.33219 3.45564 0
M  V30 19444 H 1853.22 -2.31263 2.2792 0
M  V30 19445 H 1854.23 -0.019042 5.17896 0
M  V30 19446 H 1850.91 -2.07693 3.62174 0
M  V30 19447 H 1852.3 0.545809 6.69679 0
M  V30 19448 N 1855.02 -1.57465 0.0651956 0
M  V30 19449 C 1856.43 -1.80728 -0.468449 0
M  V30 19450 C 1856.78 -0.978581 -1.70054 0
M  V30 19451 O 1855.9 -0.199186 -2.15481 0
M  V30 19452 C 1856.5 -3.27791 -0.856641 0
M  V30 19453 C 1855.06 -3.51923 -1.33519 0
M  V30 19454 C 1854.2 -2.7548 -0.317147 0
M  V30 19455 H 1857.15 -1.5601 0.290955 0
M  V30 19456 H 1857.18 -3.39479 -1.71855 0
M  V30 19457 H 1856.69 -3.88079 0.0402823 0
M  V30 19458 H 1854.79 -2.96932 -2.25083 0
M  V30 19459 H 1854.9 -4.60624 -1.31767 0
M  V30 19460 H 1853.27 -2.4204 -0.793026 0
M  V30 19461 H 1854.05 -3.38502 0.571935 0
M  V30 19462 N 1856.49 0.20831 -1.56217 0
M  V30 19463 C 1857.77 0.955838 -1.70655 0
M  V30 19464 C 1858.15 2.01905 -0.61624 0
M  V30 19465 O 1857.5 2.25405 0.374793 0
M  V30 19466 C 1857.71 1.55427 -3.1248 0
M  V30 19467 C 1859.06 2.04147 -3.72303 0
M  V30 19468 O 1860.08 1.65295 -3.15525 0
M  V30 19469 O 1858.94 2.75597 -4.7192 0
M  V30 19470 H 1856.03 0.447364 -0.695553 0
M  V30 19471 H 1858.58 0.199047 -1.68529 0
M  V30 19472 H 1857.35 0.787224 -3.83299 0
M  V30 19473 H 1856.97 2.37625 -3.18779 0
M  V30 19474 N 1857.97 1.50255 0.475528 0
M  V30 19475 C 1859.2 1.64532 1.24951 0
M  V30 19476 C 1859.61 0.326223 1.86366 0
M  V30 19477 O 1858.95 -0.701313 1.69786 0
M  V30 19478 C 1859.01 2.67528 2.40143 0
M  V30 19479 C 1858.68 4.11204 1.99399 0
M  V30 19480 C 1859.68 4.97213 1.51906 0
M  V30 19481 C 1857.36 4.57094 2.08256 0
M  V30 19482 C 1859.35 6.27158 1.13805 0
M  V30 19483 C 1857.04 5.87046 1.69766 0
M  V30 19484 C 1858.04 6.71903 1.22618 0
M  V30 19485 O 1857.73 7.9943 0.846604 0
M  V30 19486 H 1857.46 0.556201 0.384209 0
M  V30 19487 H 1860.01 1.972 0.574555 0
M  V30 19488 H 1858.24 2.30094 3.10795 0
M  V30 19489 H 1859.93 2.71072 3.02117 0
M  V30 19490 H 1860.7 4.62977 1.44489 0
M  V30 19491 H 1856.58 3.91194 2.43903 0
M  V30 19492 H 1860.12 6.93345 0.769334 0
M  V30 19493 H 1856.02 6.20804 1.76841 0
M  V30 19494 H 1856.79 8.12662 0.975845 0
M  V30 19495 N 1859.45 -0.728395 1.39758 0
M  V30 19496 C 1860.38 -1.85554 1.41747 0
M  V30 19497 C 1861.36 -1.6778 0.279972 0
M  V30 19498 O 1862.55 -1.88001 0.48675 0
M  V30 19499 C 1859.68 -3.23375 1.26671 0
M  V30 19500 C 1858.63 -3.55799 2.37889 0
M  V30 19501 C 1857.96 -4.92628 2.07899 0
M  V30 19502 C 1859.26 -3.58098 3.80215 0
M  V30 19503 H 1860.95 -1.84146 2.36073 0
M  V30 19504 H 1858.5 -0.884539 1.13631 0
M  V30 19505 H 1860.45 -4.01907 1.26682 0
M  V30 19506 H 1859.17 -3.25326 0.288159 0
M  V30 19507 H 1857.83 -2.796 2.37107 0
M  V30 19508 H 1857.48 -4.91166 1.08466 0
M  V30 19509 H 1857.18 -5.15288 2.82404 0
M  V30 19510 H 1858.7 -5.73509 2.09571 0
M  V30 19511 H 1860.12 -4.26694 3.82891 0
M  V30 19512 H 1858.51 -3.9228 4.54133 0
M  V30 19513 H 1859.58 -2.57758 4.10718 0
M  V30 19514 N 1860.93 -1.25042 -0.959279 0
M  V30 19515 C 1861.86 -1.00807 -2.05841 0
M  V30 19516 C 1862.87 0.0253938 -1.6278 0
M  V30 19517 O 1864.06 -0.212625 -1.77229 0
M  V30 19518 C 1861.16 -0.501088 -3.35175 0
M  V30 19519 C 1860.33 -1.59964 -4.071 0
M  V30 19520 C 1859.39 -1.09383 -5.14705 0
M  V30 19521 O 1858.42 -1.78728 -5.40412 0
M  V30 19522 N 1859.62 0.0673296 -5.80461 0
M  V30 19523 H 1862.39 -1.95446 -2.27203 0
M  V30 19524 H 1859.95 -1.16185 -1.1275 0
M  V30 19525 H 1861.94 -0.147283 -4.04432 0
M  V30 19526 H 1860.51 0.351241 -3.1062 0
M  V30 19527 H 1859.73 -2.12524 -3.32005 0
M  V30 19528 H 1861.02 -2.3378 -4.51912 0
M  V30 19529 H 1860.42 0.646867 -5.61989 0
M  V30 19530 H 1858.97 0.362206 -6.50793 0
M  V30 19531 N 1862.41 1.16121 -1.06553 0
M  V30 19532 C 1863.32 2.24229 -0.689833 0
M  V30 19533 C 1864.33 1.71476 0.295308 0
M  V30 19534 O 1865.51 2.00885 0.143964 0
M  V30 19535 C 1862.57 3.46596 -0.0847857 0
M  V30 19536 C 1861.63 4.14375 -1.12213 0
M  V30 19537 C 1860.87 5.30901 -0.54586 0
M  V30 19538 O 1861.09 5.66792 0.640588 0
M  V30 19539 O 1860.02 5.87983 -1.28683 0
M  V30 19540 H 1863.85 2.5868 -1.59117 0
M  V30 19541 H 1861.44 1.23687 -0.837966 0
M  V30 19542 H 1863.32 4.20653 0.250764 0
M  V30 19543 H 1861.99 3.13912 0.789998 0
M  V30 19544 H 1860.9 3.42276 -1.5099 0
M  V30 19545 H 1862.23 4.5112 -1.96853 0
M  V30 19546 N 1863.88 0.848487 1.3281 0
M  V30 19547 C 1865.11 0.461973 2.01369 0
M  V30 19548 C 1865.52 -0.944176 1.63957 0
M  V30 19549 O 1864.87 -1.62659 0.853677 0
M  V30 19550 C 1864.93 0.514163 3.55804 0
M  V30 19551 C 1864.59 1.87812 4.16624 0
M  V30 19552 C 1865.59 2.84271 4.353 0
M  V30 19553 C 1863.27 2.17358 4.52836 0
M  V30 19554 C 1865.27 4.08433 4.89348 0
M  V30 19555 C 1862.95 3.41774 5.0659 0
M  V30 19556 C 1863.95 4.37128 5.24793 0
M  V30 19557 O 1863.64 5.59342 5.774 0
M  V30 19558 H 1863.37 0.180645 0.651416 0
M  V30 19559 H 1865.93 1.14535 1.70502 0
M  V30 19560 H 1864.16 -0.226037 3.86039 0
M  V30 19561 H 1865.85 0.14412 4.05644 0
M  V30 19562 H 1866.61 2.62747 4.07663 0
M  V30 19563 H 1862.49 1.43927 4.37957 0
M  V30 19564 H 1866.03 4.82869 5.03471 0
M  V30 19565 H 1861.93 3.63151 5.33659 0
M  V30 19566 H 1862.7 5.61215 5.95802 0
M  V30 19567 N 1865.36 -1.4549 0.605832 0
M  V30 19568 C 1866.59 -2.07135 0.104838 0
M  V30 19569 C 1867.01 -1.4478 -1.20085 0
M  V30 19570 O 1866.37 -0.539875 -1.73075 0
M  V30 19571 C 1866.42 -3.60593 -0.0231858 0
M  V30 19572 O 1865.52 -3.98173 -1.07386 0
M  V30 19573 H 1864.86 -0.659945 0.0732691 0
M  V30 19574 H 1867.39 -1.8677 0.835343 0
M  V30 19575 H 1867.4 -4.07396 -0.221964 0
M  V30 19576 H 1866.08 -4.05364 0.930211 0
M  V30 19577 H 1864.66 -3.63044 -0.851689 0
M  V30 19578 N 1866.84 -0.344893 -1.5378 0
M  V30 19579 C 1868.07 0.252559 -2.05353 0
M  V30 19580 C 1868.48 1.44107 -1.21978 0
M  V30 19581 O 1867.84 1.80704 -0.25543 0
M  V30 19582 C 1867.89 0.666294 -3.55307 0
M  V30 19583 O 1867.61 -0.474957 -4.35518 0
M  V30 19584 C 1869.11 1.32432 -4.23056 0
M  V30 19585 H 1866.33 0.0485202 -0.669243 0
M  V30 19586 H 1868.88 -0.497271 -1.98362 0
M  V30 19587 H 1867.03 1.36606 -3.62515 0
M  V30 19588 H 1867.45 -0.144883 -5.243 0
M  V30 19589 H 1868.92 1.56456 -5.29363 0
M  V30 19590 H 1869.4 2.27829 -3.75487 0
M  V30 19591 H 1870 0.66655 -4.20044 0
M  V30 19592 N 1868.32 1.57428 -0.0735454 0
M  V30 19593 C 1869.27 2.12821 0.893071 0
M  V30 19594 C 1870.24 1.04117 1.29418 0
M  V30 19595 O 1871.42 1.31789 1.37972 0
M  V30 19596 C 1868.56 2.69569 2.15468 0
M  V30 19597 C 1867.67 3.92436 1.80605 0
M  V30 19598 C 1866.81 4.37421 3.01391 0
M  V30 19599 C 1865.85 5.52931 2.62553 0
M  V30 19600 N 1864.98 5.92866 3.76104 0
M  V30 19601 H 1869.82 2.95113 0.413823 0
M  V30 19602 H 1867.36 1.45834 0.192613 0
M  V30 19603 H 1869.32 3.0058 2.89323 0
M  V30 19604 H 1867.95 1.9004 2.6093 0
M  V30 19605 H 1867 3.67876 0.968068 0
M  V30 19606 H 1868.31 4.76327 1.48033 0
M  V30 19607 H 1867.47 4.70102 3.83522 0
M  V30 19608 H 1866.21 3.52386 3.37158 0
M  V30 19609 H 1865.21 5.19899 1.78844 0
M  V30 19610 H 1866.44 6.39698 2.27954 0
M  V30 19611 H 1864.38 5.10781 4.11629 0
M  V30 19612 H 1864.3 6.71502 3.47305 0
M  V30 19613 H 1865.57 6.30171 4.58808 0
M  V30 19614 N 1869.8 -0.200022 1.56326 0
M  V30 19615 C 1871.03 -0.936144 1.84174 0
M  V30 19616 C 1871.43 -1.77564 0.653267 0
M  V30 19617 O 1870.78 -1.79569 -0.387368 0
M  V30 19618 C 1870.84 -1.88598 3.06057 0
M  V30 19619 C 1870.5 -1.22892 4.40167 0
M  V30 19620 C 1871.5 -0.608243 5.1633 0
M  V30 19621 C 1869.19 -1.23424 4.869 0
M  V30 19622 C 1871.18 -0.00166268 6.374 0
M  V30 19623 C 1868.87 -0.623827 6.07908 0
M  V30 19624 C 1869.86 -0.00861163 6.82999 0
M  V30 19625 O 1869.55 0.592252 8.01715 0
M  V30 19626 H 1869.28 -0.278889 0.615789 0
M  V30 19627 H 1871.84 -0.213764 2.04285 0
M  V30 19628 H 1870.07 -2.64793 2.81818 0
M  V30 19629 H 1871.76 -2.48948 3.20593 0
M  V30 19630 H 1872.52 -0.596302 4.8132 0
M  V30 19631 H 1868.4 -1.7025 4.28411 0
M  V30 19632 H 1871.95 0.479147 6.95953 0
M  V30 19633 H 1867.84 -0.633254 6.42386 0
M  V30 19634 H 1868.61 0.488674 8.1704 0
M  V30 19635 N 1871.27 -1.50505 -0.467553 0
M  V30 19636 C 1872.52 -1.61671 -1.21938 0
M  V30 19637 C 1872.85 -0.318688 -1.91871 0
M  V30 19638 O 1872.1 0.695639 -1.82919 0
M  V30 19639 C 1872.4 -2.74913 -2.28381 0
M  V30 19640 C 1872.07 -4.1527 -1.75674 0
M  V30 19641 C 1870.73 -4.5346 -1.6102 0
M  V30 19642 C 1873.08 -5.02978 -1.3661 0
M  V30 19643 C 1870.41 -5.77094 -1.05732 0
M  V30 19644 C 1872.76 -6.27163 -0.827621 0
M  V30 19645 C 1871.43 -6.64152 -0.667746 0
M  V30 19646 H 1870.7 -0.591596 -0.446201 0
M  V30 19647 H 1873.34 -1.84449 -0.514858 0
M  V30 19648 H 1871.65 -2.46237 -3.04754 0
M  V30 19649 H 1873.35 -2.80756 -2.86317 0
M  V30 19650 H 1869.94 -3.85144 -1.88047 0
M  V30 19651 H 1874.12 -4.74103 -1.46764 0
M  V30 19652 H 1869.38 -6.04424 -0.920946 0
M  V30 19653 H 1873.55 -6.94484 -0.516286 0
M  V30 19654 H 1871.18 -7.5983 -0.237178 0
M  V30 19655 N 1872.75 0.720973 -1.40142 0
M  V30 19656 C 1873.98 1.50793 -1.41226 0
M  V30 19657 C 1874.39 1.89198 -0.00879422 0
M  V30 19658 O 1873.73 1.55606 0.976337 0
M  V30 19659 C 1873.8 2.81639 -2.23427 0
M  V30 19660 C 1873.46 2.65588 -3.71903 0
M  V30 19661 C 1874.46 2.33204 -4.64663 0
M  V30 19662 C 1872.14 2.82021 -4.15655 0
M  V30 19663 C 1874.14 2.17454 -5.9916 0
M  V30 19664 C 1871.82 2.65889 -5.50224 0
M  V30 19665 C 1872.82 2.33653 -6.41791 0
M  V30 19666 O 1872.51 2.17637 -7.73879 0
M  V30 19667 H 1872.24 0.472113 -0.483824 0
M  V30 19668 H 1874.79 0.89739 -1.84759 0
M  V30 19669 H 1873.02 3.45006 -1.74665 0
M  V30 19670 H 1874.71 3.43329 -2.16518 0
M  V30 19671 H 1875.48 2.20146 -4.32158 0
M  V30 19672 H 1871.36 3.06101 -3.44707 0
M  V30 19673 H 1874.9 1.92215 -6.70596 0
M  V30 19674 H 1870.8 2.78529 -5.82316 0
M  V30 19675 H 1871.57 2.32599 -7.84755 0
M  V30 19676 N 1874.23 1.25549 0.952634 0
M  V30 19677 C 1875.18 1.06108 2.04963 0
M  V30 19678 C 1876.15 -0.0303872 1.66072 0
M  V30 19679 O 1877.33 0.127178 1.90376 0
M  V30 19680 C 1874.47 0.68799 3.38173 0
M  V30 19681 C 1873.59 1.85452 3.90168 0
M  V30 19682 C 1872.72 1.4256 5.11713 0
M  V30 19683 C 1871.76 2.56115 5.55942 0
M  V30 19684 N 1870.9 2.13984 6.68697 0
M  V30 19685 H 1875.74 1.99991 2.20925 0
M  V30 19686 H 1873.27 0.995895 1.08261 0
M  V30 19687 H 1875.23 0.452622 4.14737 0
M  V30 19688 H 1873.86 -0.213845 3.22091 0
M  V30 19689 H 1872.91 2.20314 3.10106 0
M  V30 19690 H 1874.23 2.70722 4.1894 0
M  V30 19691 H 1873.38 1.15 5.95701 0
M  V30 19692 H 1872.12 0.54365 4.8466 0
M  V30 19693 H 1871.12 2.84417 4.70518 0
M  V30 19694 H 1872.35 3.44891 5.85002 0
M  V30 19695 H 1870.29 1.28208 6.4335 0
M  V30 19696 H 1870.21 2.92801 6.96996 0
M  V30 19697 H 1871.48 1.89605 7.56089 0
M  V30 19698 N 1875.71 -1.15554 1.07168 0
M  V30 19699 C 1876.64 -2.19841 0.648285 0
M  V30 19700 C 1877.65 -1.60045 -0.298247 0
M  V30 19701 O 1878.84 -1.78284 -0.0878565 0
M  V30 19702 C 1875.94 -3.38831 -0.068586 0
M  V30 19703 C 1875.12 -4.28173 0.89366 0
M  V30 19704 C 1874.17 -5.25763 0.214424 0
M  V30 19705 O 1873.2 -5.62744 0.854883 0
M  V30 19706 N 1874.4 -5.71096 -1.04063 0
M  V30 19707 H 1877.17 -2.56784 1.54539 0
M  V30 19708 H 1874.73 -1.30652 0.956127 0
M  V30 19709 H 1876.72 -4.01167 -0.533614 0
M  V30 19710 H 1875.29 -3.00319 -0.86761 0
M  V30 19711 H 1874.51 -3.62965 1.53785 0
M  V30 19712 H 1875.8 -4.84739 1.54613 0
M  V30 19713 H 1875.2 -5.4316 -1.58095 0
M  V30 19714 H 1873.75 -6.35481 -1.44937 0
M  V30 19715 N 1877.19 -0.855519 -1.32358 0
M  V30 19716 C 1878.14 -0.289571 -2.3079 0
M  V30 19717 C 1879.13 0.58752 -1.58885 0
M  V30 19718 O 1880.34 0.475228 -1.73613 0
M  V30 19719 H 1876.71 -0.0749379 -0.748257 0
M  V30 19720 H 1878.68 -1.13398 -2.76014 0
M  V30 19721 C 1877.43 0.50647 -3.43992 0
M  V30 19722 H 1876.75 -0.159147 -3.99483 0
M  V30 19723 H 1878.19 0.868035 -4.15019 0
M  V30 19724 C 1876.65 1.69203 -2.91328 0
M  V30 19725 O 1877.18 2.79113 -2.88892 0
M  V30 19726 N 1875.39 1.51938 -2.47716 0
M  V30 19727 H 1874.94 0.625282 -2.49896 0
M  V30 19728 H 1874.89 2.31407 -2.12834 0
M  V30 19729 N 1878.67 1.45167 -0.61354 0
M  V30 19730 C 1879.91 2.01796 -0.110844 0
M  V30 19731 C 1880.23 1.48372 1.26534 0
M  V30 19732 O 1879.5 0.680323 1.83707 0
M  V30 19733 H 1878.08 0.746034 -0.0379861 0
M  V30 19734 H 1880.75 1.77892 -0.796279 0
M  V30 19735 H 1879.84 3.12032 -0.0651413 0
M  V30 19736 N 1880.14 0.353044 1.53595 0
M  V30 19737 C 1881.56 0.0014839 1.596 0
M  V30 19738 C 1881.76 -1.47884 1.36867 0
M  V30 19739 O 1880.82 -2.23881 1.16762 0
M  V30 19740 C 1882.13 0.446178 2.97371 0
M  V30 19741 C 1883.68 0.399329 3.10442 0
M  V30 19742 C 1884.15 0.819639 4.50606 0
M  V30 19743 N 1885.64 0.7742 4.56684 0
M  V30 19744 C 1886.38 1.07126 5.63304 0
M  V30 19745 N 1885.87 1.43696 6.77734 0
M  V30 19746 N 1887.67 0.994874 5.53226 0
M  V30 19747 H 1879.82 1.31719 1.66625 0
M  V30 19748 H 1882.08 0.537571 0.780847 0
M  V30 19749 H 1881.79 1.47869 3.19105 0
M  V30 19750 H 1881.66 -0.173715 3.768 0
M  V30 19751 H 1884.05 -0.624023 2.88427 0
M  V30 19752 H 1884.13 1.05455 2.33051 0
M  V30 19753 H 1883.77 1.84105 4.73358 0
M  V30 19754 H 1883.7 0.141795 5.26409 0
M  V30 19755 H 1886.19 0.504609 3.74516 0
M  V30 19756 H 1886.51 1.64822 7.55019 0
M  V30 19757 H 1884.85 1.4755 6.79157 0
M  V30 19758 H 1888.04 0.70845 4.62708 0
M  V30 19759 H 1888.22 1.22972 6.36225 0
M  V30 19760 N 1881.62 -1.57387 0.0818932 0
M  V30 19761 C 1882.87 -1.93045 -0.584519 0
M  V30 19762 C 1883.18 -0.96473 -1.70154 0
M  V30 19763 O 1884.39 -1.21451 -2.42821 0
M  V30 19764 C 1882.85 -3.42962 -1.0911 0
M  V30 19765 C 1882.45 -4.48 -0.00454233 0
M  V30 19766 C 1884.2 -3.87604 -1.731 0
M  V30 19767 C 1882.1 -5.89059 -0.525733 0
M  V30 19768 H 1881.03 -0.720543 -0.222112 0
M  V30 19769 H 1883.69 -1.82838 0.155762 0
M  V30 19770 H 1882.07 -3.48277 -1.88466 0
M  V30 19771 H 1883.24 -4.54314 0.770444 0
M  V30 19772 H 1881.56 -4.12887 0.539739 0
M  V30 19773 H 1884.15 -4.90382 -2.13143 0
M  V30 19774 H 1884.5 -3.25524 -2.59499 0
M  V30 19775 H 1885.03 -3.84935 -1.00349 0
M  V30 19776 H 1881.77 -6.54807 0.301333 0
M  V30 19777 H 1881.29 -5.86243 -1.26802 0
M  V30 19778 H 1882.97 -6.39242 -0.998928 0
M  V30 19779 N 1883.1 0.191729 -1.56429 0
M  V30 19780 C 1884.52 0.542701 -1.5009 0
M  V30 19781 C 1884.72 1.85685 -0.782522 0
M  V30 19782 O 1883.77 2.50275 -0.334432 0
M  V30 19783 C 1885.08 0.594326 -2.94768 0
M  V30 19784 C 1886.63 0.682929 -3.05459 0
M  V30 19785 C 1887.11 0.765634 -4.51555 0
M  V30 19786 N 1888.6 0.829072 -4.5572 0
M  V30 19787 C 1889.33 0.91329 -5.6608 0
M  V30 19788 N 1888.83 0.959603 -6.86122 0
M  V30 19789 N 1890.62 0.950739 -5.54001 0
M  V30 19790 H 1882.77 -0.670241 -2.01548 0
M  V30 19791 H 1885.04 -0.239168 -0.917335 0
M  V30 19792 H 1884.74 -0.302238 -3.50399 0
M  V30 19793 H 1884.62 1.44787 -3.48305 0
M  V30 19794 H 1887 1.56992 -2.49875 0
M  V30 19795 H 1887.08 -0.19688 -2.55041 0
M  V30 19796 H 1886.73 -0.117022 -5.07765 0
M  V30 19797 H 1886.66 1.66129 -4.99709 0
M  V30 19798 H 1889.15 0.802391 -3.69283 0
M  V30 19799 H 1889.46 1.02447 -7.65979 0
M  V30 19800 H 1887.81 0.928223 -6.88774 0
M  V30 19801 H 1891 0.911418 -4.59141 0
M  V30 19802 H 1891.17 1.01291 -6.40034 0
M  V30 19803 N 1884.58 1.50751 0.459565 0
M  V30 19804 C 1885.99 1.55043 1.04012 0
M  V30 19805 C 1886.34 0.360701 1.92856 0
M  V30 19806 O 1885.46 -0.525112 2.09932 0
M  V30 19807 C 1886.06 2.80975 1.89311 0
M  V30 19808 C 1884.62 2.87911 2.42455 0
M  V30 19809 C 1883.77 2.49464 1.2109 0
M  V30 19810 H 1886.72 1.56849 0.24171 0
M  V30 19811 H 1886.74 2.63482 2.74514 0
M  V30 19812 H 1886.25 3.67547 1.24623 0
M  V30 19813 H 1884.35 2.05717 3.10663 0
M  V30 19814 H 1884.46 3.91067 2.76773 0
M  V30 19815 H 1882.83 2.0216 1.54931 0
M  V30 19816 H 1883.61 3.38357 0.580469 0
M  V30 19817 N 1886.06 -0.713531 1.40522 0
M  V30 19818 C 1887.3 -1.46899 1.38216 0
M  V30 19819 C 1887.62 -1.95596 -0.011831 0
M  V30 19820 O 1888.82 -2.71043 -0.157513 0
M  V30 19821 C 1887.28 -2.65544 2.42929 0
M  V30 19822 C 1886.89 -2.23707 3.88148 0
M  V30 19823 C 1888.63 -3.4327 2.49732 0
M  V30 19824 C 1886.54 -3.39203 4.84453 0
M  V30 19825 H 1885.47 -0.551718 0.513929 0
M  V30 19826 H 1888.12 -0.776357 1.66268 0
M  V30 19827 H 1886.5 -3.36987 2.0798 0
M  V30 19828 H 1887.68 -1.5967 4.32252 0
M  V30 19829 H 1885.99 -1.59021 3.84839 0
M  V30 19830 H 1888.59 -4.29215 3.18871 0
M  V30 19831 H 1888.93 -3.87225 1.52848 0
M  V30 19832 H 1889.46 -2.78871 2.83683 0
M  V30 19833 H 1886.2 -3.00278 5.82678 0
M  V30 19834 H 1885.72 -4.02149 4.45012 0
M  V30 19835 H 1887.4 -4.0524 5.04371 0
M  V30 19836 N 1887.53 -1.26053 -0.945962 0
M  V30 19837 C 1888.78 -1.1148 -1.69411 0
M  V30 19838 C 1889.11 0.341927 -1.91166 0
M  V30 19839 O 1888.39 1.2515 -1.48888 0
M  V30 19840 C 1888.67 -1.87915 -3.07181 0
M  V30 19841 C 1888.52 -3.41466 -2.92781 0
M  V30 19842 C 1889.84 -1.66917 -4.07218 0
M  V30 19843 H 1886.96 -0.406361 -0.614849 0
M  V30 19844 H 1889.6 -1.54991 -1.099 0
M  V30 19845 H 1887.75 -1.50934 -3.57982 0
M  V30 19846 H 1889.43 -3.88172 -2.49238 0
M  V30 19847 H 1887.67 -3.68735 -2.2851 0
M  V30 19848 H 1888.34 -3.90171 -3.90475 0
M  V30 19849 H 1890.82 -1.99127 -3.6536 0
M  V30 19850 H 1889.69 -2.22821 -5.01639 0
M  V30 19851 H 1889.95 -0.612576 -4.37835 0
M  V30 19852 N 1889.01 1.14984 -1.07779 0
M  V30 19853 C 1889.97 2.1806 -0.705879 0
M  V30 19854 C 1890.97 1.58748 0.256082 0
M  V30 19855 O 1892.16 1.74162 0.0364678 0
M  V30 19856 C 1889.3 3.40875 -0.0411253 0
M  V30 19857 H 1890.49 2.52476 -1.61852 0
M  V30 19858 H 1888.04 1.29522 -0.874863 0
M  V30 19859 H 1888.78 3.12032 0.883548 0
M  V30 19860 H 1888.56 3.85186 -0.73306 0
M  V30 19861 H 1890.05 4.171 0.204275 0
M  V30 19862 N 1890.49 0.862526 1.31902 0
M  V30 19863 C 1891.4 0.316029 2.32462 0
M  V30 19864 C 1892.42 -0.570217 1.64391 0
M  V30 19865 O 1893.59 -0.46871 1.9587 0
M  V30 19866 C 1890.66 -0.479949 3.43362 0
M  V30 19867 C 1889.72 0.43337 4.27107 0
M  V30 19868 C 1888.95 -0.324714 5.32711 0
M  V30 19869 O 1889.17 -1.55373 5.48831 0
M  V30 19870 O 1888.11 0.313571 6.01083 0
M  V30 19871 H 1891.93 1.14935 2.81111 0
M  V30 19872 H 1889.52 0.625683 1.35667 0
M  V30 19873 H 1891.4 -0.931458 4.10977 0
M  V30 19874 H 1890.08 -1.28994 2.96888 0
M  V30 19875 H 1888.98 0.933222 3.62273 0
M  V30 19876 H 1890.32 1.20876 4.77127 0
M  V30 19877 N 1891.97 -1.4484 0.62123 0
M  V30 19878 C 1892.92 -2.32377 -0.1019 0
M  V30 19879 C 1893.91 -1.4677 -0.845862 0
M  V30 19880 O 1895.12 -1.63174 -0.759882 0
M  V30 19881 H 1891.49 -0.75022 -0.0517143 0
M  V30 19882 H 1893.46 -2.91131 0.654623 0
M  V30 19883 C 1892.21 -3.30611 -1.07665 0
M  V30 19884 H 1891.53 -3.96487 -0.513612 0
M  V30 19885 H 1892.97 -3.94563 -1.5523 0
M  V30 19886 C 1891.43 -2.58795 -2.157 0
M  V30 19887 O 1891.96 -2.37947 -3.23642 0
M  V30 19888 N 1890.17 -2.187 -1.9136 0
M  V30 19889 H 1889.72 -2.35856 -1.03584 0
M  V30 19890 H 1889.67 -1.70975 -2.63847 0
M  V30 19891 N 1893.45 -0.361184 -1.53405 0
M  V30 19892 C 1894.86 0.118972 -1.86321 0
M  V30 19893 C 1895.21 1.48531 -1.28191 0
M  V30 19894 O 1894.33 2.07851 -0.602253 0
M  V30 19895 C 1894.93 0.222658 -3.38068 0
M  V30 19896 C 1893.49 0.647065 -3.70796 0
M  V30 19897 C 1892.63 -0.208424 -2.76516 0
M  V30 19898 H 1895.59 -0.580142 -1.47716 0
M  V30 19899 H 1895.61 1.04702 -3.65811 0
M  V30 19900 H 1895.12 -0.771922 -3.80346 0
M  V30 19901 H 1893.22 1.65003 -3.34073 0
M  V30 19902 H 1893.33 0.424724 -4.77214 0
M  V30 19903 H 1891.7 0.322011 -2.52656 0
M  V30 19904 H 1892.48 -1.20046 -3.21627 0
M  V30 19905 N 1894.92 1.57341 -0.0902386 0
M  V30 19906 C 1895.83 2.17276 0.88478 0
M  V30 19907 C 1896.85 1.14089 1.31376 0
M  V30 19908 O 1898.03 1.46438 1.38268 0
M  V30 19909 C 1895.09 2.73739 2.12762 0
M  V30 19910 C 1894.15 3.91865 1.7533 0
M  V30 19911 C 1893.39 4.45626 2.93689 0
M  V30 19912 O 1893.61 3.98337 4.08269 0
M  V30 19913 O 1892.54 5.36714 2.72437 0
M  V30 19914 H 1896.37 3.00989 0.40487 0
M  V30 19915 H 1893.95 1.48799 0.133848 0
M  V30 19916 H 1895.84 3.09849 2.85608 0
M  V30 19917 H 1894.51 1.93075 2.59815 0
M  V30 19918 H 1893.42 3.60576 0.996799 0
M  V30 19919 H 1894.75 4.73878 1.33045 0
M  V30 19920 N 1896.4 -0.183431 1.56529 0
M  V30 19921 C 1897.63 -0.916557 1.85156 0
M  V30 19922 C 1898.04 -1.76861 0.672063 0
M  V30 19923 O 1897.38 -1.7997 -0.3683 0
M  V30 19924 C 1897.45 -1.85342 3.0804 0
M  V30 19925 C 1897.11 -1.18216 4.41445 0
M  V30 19926 C 1898.11 -0.553445 5.16946 0
M  V30 19927 C 1895.79 -1.18253 4.88182 0
M  V30 19928 C 1897.79 0.0659422 6.37366 0
M  V30 19929 C 1895.47 -0.559316 6.08535 0
M  V30 19930 C 1896.47 0.0638301 6.8297 0
M  V30 19931 O 1896.16 0.677251 8.01042 0
M  V30 19932 H 1895.89 -0.272343 0.618713 0
M  V30 19933 H 1898.44 -0.192085 2.045 0
M  V30 19934 H 1896.67 -2.61789 2.84611 0
M  V30 19935 H 1898.36 -2.45533 3.23215 0
M  V30 19936 H 1899.13 -0.545219 4.81926 0
M  V30 19937 H 1895.01 -1.65696 4.30193 0
M  V30 19938 H 1898.55 0.552935 6.95405 0
M  V30 19939 H 1894.45 -0.565084 6.43022 0
M  V30 19940 H 1895.22 0.575305 8.16476 0
M  V30 19941 N 1897.88 -1.50992 -0.451564 0
M  V30 19942 C 1898.81 -1.74216 -1.5547 0
M  V30 19943 C 1899.79 -0.591568 -1.59482 0
M  V30 19944 O 1900.98 -0.83279 -1.75437 0
M  V30 19945 C 1898.11 -1.85421 -2.9366 0
M  V30 19946 C 1897.06 -3.0076 -3.04512 0
M  V30 19947 C 1896.39 -2.9713 -4.44542 0
M  V30 19948 C 1897.69 -4.40961 -2.79911 0
M  V30 19949 H 1899.38 -2.66582 -1.36287 0
M  V30 19950 H 1896.93 -1.28281 -0.654207 0
M  V30 19951 H 1898.88 -2.00252 -3.70779 0
M  V30 19952 H 1897.6 -0.896921 -3.14043 0
M  V30 19953 H 1896.26 -2.85611 -2.2983 0
M  V30 19954 H 1895.91 -1.99207 -4.61872 0
M  V30 19955 H 1895.61 -3.74572 -4.52736 0
M  V30 19956 H 1897.13 -3.14035 -5.23655 0
M  V30 19957 H 1898.55 -4.56534 -3.4677 0
M  V30 19958 H 1896.95 -5.20002 -2.9953 0
M  V30 19959 H 1898.02 -4.51981 -1.75618 0
M  V30 19960 N 1899.36 0.706069 -1.40899 0
M  V30 19961 C 1900.58 1.50008 -1.43221 0
M  V30 19962 C 1901.01 1.88065 -0.0362158 0
M  V30 19963 O 1900.37 1.5392 0.958036 0
M  V30 19964 C 1900.41 2.74578 -2.33751 0
M  V30 19965 O 1899.52 3.71657 -1.78731 0
M  V30 19966 H 1898.86 0.451899 -0.486501 0
M  V30 19967 H 1901.39 0.868772 -1.85239 0
M  V30 19968 H 1901.4 3.23002 -2.49266 0
M  V30 19969 H 1900.07 2.46214 -3.35189 0
M  V30 19970 H 1898.65 3.30544 -1.72612 0
M  V30 19971 N 1900.84 1.26553 0.939264 0
M  V30 19972 C 1901.75 1.10059 2.07181 0
M  V30 19973 C 1902.76 0.033599 1.73968 0
M  V30 19974 O 1903.94 0.237723 1.99992 0
M  V30 19975 C 1901 0.737342 3.38769 0
M  V30 19976 C 1900.06 1.88395 3.85753 0
M  V30 19977 C 1899.3 1.53794 5.11061 0
M  V30 19978 O 1899.52 0.440543 5.68696 0
M  V30 19979 O 1898.45 2.37332 5.53134 0
M  V30 19980 H 1902.28 2.05075 2.24004 0
M  V30 19981 H 1899.87 1.05633 1.05651 0
M  V30 19982 H 1901.75 0.547578 4.17827 0
M  V30 19983 H 1900.42 -0.183404 3.2318 0
M  V30 19984 H 1899.33 2.1287 3.07632 0
M  V30 19985 H 1900.66 2.78449 4.05865 0
M  V30 19986 N 1902.31 -1.14411 1.08387 0
M  V30 19987 C 1903.56 -1.85444 0.813433 0
M  V30 19988 C 1903.89 -1.82932 -0.66078 0
M  V30 19989 O 1903.14 -1.25498 -1.50162 0
M  V30 19990 C 1903.44 -3.33681 1.2803 0
M  V30 19991 C 1903.11 -3.56382 2.76229 0
M  V30 19992 C 1901.77 -3.62286 3.16705 0
M  V30 19993 C 1904.12 -3.65224 3.71835 0
M  V30 19994 C 1901.45 -3.74554 4.51582 0
M  V30 19995 C 1903.8 -3.79017 5.06487 0
M  V30 19996 C 1902.47 -3.8317 5.46568 0
M  V30 19997 H 1901.74 -0.678588 0.297656 0
M  V30 19998 H 1904.38 -1.35144 1.35677 0
M  V30 19999 H 1902.69 -3.8626 0.656551 0
M  V30 20000 H 1904.39 -3.87068 1.04781 0
M  V30 20001 H 1900.98 -3.52435 2.43901 0
M  V30 20002 H 1905.16 -3.59952 3.41684 0
M  V30 20003 H 1900.42 -3.76032 4.82089 0
M  V30 20004 H 1904.59 -3.84801 5.80432 0
M  V30 20005 H 1902.22 -3.92429 6.51079 0
M  V30 20006 N 1903.79 -0.869509 -1.31443 0
M  V30 20007 C 1905.02 -0.493849 -2.01435 0
M  V30 20008 C 1905.44 0.906049 -1.6484 0
M  V30 20009 O 1904.8 1.59777 -0.856794 0
M  V30 20010 C 1904.85 -0.657723 -3.54551 0
M  V30 20011 O 1903.95 0.303155 -4.11284 0
M  V30 20012 H 1903.29 -0.196494 -0.63426 0
M  V30 20013 H 1905.82 -1.1728 -1.6765 0
M  V30 20014 H 1905.83 -0.550841 -4.04264 0
M  V30 20015 H 1904.51 -1.67848 -3.80526 0
M  V30 20016 H 1903.09 0.151268 -3.72593 0
M  V30 20017 N 1905.27 1.44508 -0.628902 0
M  V30 20018 C 1906.2 2.33412 0.0642512 0
M  V30 20019 C 1907.18 1.48077 0.837091 0
M  V30 20020 O 1908.37 1.76802 0.803415 0
M  V30 20021 C 1905.5 3.31112 1.04795 0
M  V30 20022 C 1904.45 4.26248 0.386897 0
M  V30 20023 C 1903.78 5.13799 1.48035 0
M  V30 20024 C 1905.08 5.17514 -0.705449 0
M  V30 20025 H 1906.77 2.91619 -0.678133 0
M  V30 20026 H 1904.32 1.40225 -0.327558 0
M  V30 20027 H 1906.27 3.9219 1.54159 0
M  V30 20028 H 1904.99 2.71109 1.8212 0
M  V30 20029 H 1903.65 3.66499 -0.0860697 0
M  V30 20030 H 1903.3 4.5015 2.24441 0
M  V30 20031 H 1903 5.78262 1.04342 0
M  V30 20032 H 1904.52 5.77748 1.97583 0
M  V30 20033 H 1905.94 5.7254 -0.295004 0
M  V30 20034 H 1904.34 5.90567 -1.06538 0
M  V30 20035 H 1905.41 4.5866 -1.57349 0
M  V30 20036 N 1906.75 0.369315 1.53212 0
M  V30 20037 C 1907.7 -0.475399 2.25851 0
M  V30 20038 C 1908.67 -1.07444 1.26669 0
M  V30 20039 O 1909.85 -1.10623 1.55458 0
M  V30 20040 C 1906.99 -1.60725 3.05388 0
M  V30 20041 C 1906.1 -1.03302 4.19467 0
M  V30 20042 C 1905.24 -2.13427 4.86438 0
M  V30 20043 C 1904.28 -1.53489 5.92543 0
M  V30 20044 N 1903.42 -2.57463 6.5319 0
M  V30 20045 H 1908.26 0.150534 2.9762 0
M  V30 20046 H 1905.79 0.0860577 1.46848 0
M  V30 20047 H 1907.75 -2.274 3.49779 0
M  V30 20048 H 1906.38 -2.20378 2.35867 0
M  V30 20049 H 1905.43 -0.256437 3.79535 0
M  V30 20050 H 1906.74 -0.55483 4.95705 0
M  V30 20051 H 1905.9 -2.87915 5.34032 0
M  V30 20052 H 1904.64 -2.64599 4.09681 0
M  V30 20053 H 1903.64 -0.775176 5.44308 0
M  V30 20054 H 1904.87 -1.03137 6.71222 0
M  V30 20055 H 1902.81 -3.07841 5.79284 0
M  V30 20056 H 1902.73 -2.14342 7.24978 0
M  V30 20057 H 1904 -3.31642 7.05432 0
M  V30 20058 N 1908.23 -1.57291 0.0985816 0
M  V30 20059 C 1909.64 -1.81681 -0.430009 0
M  V30 20060 C 1909.99 -1.01443 -1.6794 0
M  V30 20061 O 1909.11 -0.244848 -2.1501 0
M  V30 20062 C 1909.71 -3.29535 -0.786919 0
M  V30 20063 C 1908.27 -3.54676 -1.26024 0
M  V30 20064 C 1907.42 -2.76091 -0.258642 0
M  V30 20065 H 1910.37 -1.55358 0.323982 0
M  V30 20066 H 1910.39 -3.43048 -1.64616 0
M  V30 20067 H 1909.9 -3.87906 0.122591 0
M  V30 20068 H 1908 -3.01639 -2.18734 0
M  V30 20069 H 1908.11 -4.63315 -1.21967 0
M  V30 20070 H 1906.48 -2.43667 -0.741507 0
M  V30 20071 H 1907.26 -3.37213 0.643607 0
M  V30 20072 N 1909.71 0.175127 -1.56624 0
M  V30 20073 C 1910.95 0.890605 -1.81418 0
M  V30 20074 C 1911.27 1.82946 -0.674958 0
M  V30 20075 O 1910.54 1.93504 0.305439 0
M  V30 20076 H 1909.12 0.331864 -0.669235 0
M  V30 20077 H 1911.79 0.175855 -1.94105 0
M  V30 20078 H 1910.88 1.46979 -2.75325 0
M  V30 20079 N 1911.18 1.5123 0.44355 0
M  V30 20080 C 1912.41 1.67389 1.21609 0
M  V30 20081 C 1912.83 0.368612 1.85167 0
M  V30 20082 O 1912.18 -0.652282 1.70445 0
M  V30 20083 C 1912.23 2.78507 2.30469 0
M  V30 20084 O 1911.96 4.03977 1.69512 0
M  V30 20085 C 1913.46 3.05881 3.20861 0
M  V30 20086 H 1910.68 0.561893 0.366766 0
M  V30 20087 H 1913.22 1.97611 0.526312 0
M  V30 20088 H 1911.38 2.50901 2.95173 0
M  V30 20089 H 1911.79 4.65641 2.41409 0
M  V30 20090 H 1913.26 3.87229 3.93393 0
M  V30 20091 H 1913.74 2.1804 3.81255 0
M  V30 20092 H 1914.35 3.35123 2.61864 0
M  V30 20093 N 1912.66 -0.698586 1.41271 0
M  V30 20094 C 1913.91 -1.46077 1.40674 0
M  V30 20095 C 1914.24 -1.94194 0.0146774 0
M  V30 20096 O 1913.52 -1.69325 -0.957036 0
M  V30 20097 C 1913.8 -2.67481 2.41093 0
M  V30 20098 C 1913.65 -2.25149 3.89394 0
M  V30 20099 C 1914.97 -3.69673 2.38809 0
M  V30 20100 H 1912.09 -0.529839 0.512288 0
M  V30 20101 H 1914.73 -0.795918 1.72526 0
M  V30 20102 H 1912.88 -3.24206 2.14062 0
M  V30 20103 H 1914.55 -1.73775 4.27317 0
M  V30 20104 H 1912.8 -1.56965 4.04406 0
M  V30 20105 H 1913.47 -3.12247 4.55199 0
M  V30 20106 H 1915.94 -3.22615 2.6279 0
M  V30 20107 H 1914.82 -4.52232 3.1109 0
M  V30 20108 H 1915.08 -4.1916 1.40562 0
M  V30 20109 N 1914.14 -1.27049 -0.93254 0
M  V30 20110 C 1915.07 -1.11867 -2.04959 0
M  V30 20111 C 1916.05 -0.0214563 -1.70086 0
M  V30 20112 O 1917.24 -0.195063 -1.93218 0
M  V30 20113 C 1914.37 -0.759993 -3.38883 0
M  V30 20114 C 1913.32 -1.8099 -3.87849 0
M  V30 20115 C 1912.65 -1.30532 -5.18522 0
M  V30 20116 C 1913.95 -3.21309 -4.11774 0
M  V30 20117 H 1915.64 -2.05309 -2.17918 0
M  V30 20118 H 1913.19 -0.988507 -1.04712 0
M  V30 20119 H 1915.14 -0.640623 -4.16502 0
M  V30 20120 H 1913.86 0.210139 -3.25923 0
M  V30 20121 H 1912.52 -1.91809 -3.12418 0
M  V30 20122 H 1912.17 -0.324784 -5.0195 0
M  V30 20123 H 1911.87 -2.00722 -5.52254 0
M  V30 20124 H 1913.39 -1.19879 -5.98716 0
M  V30 20125 H 1914.81 -3.13517 -4.79979 0
M  V30 20126 H 1913.2 -3.89166 -4.56804 0
M  V30 20127 H 1914.27 -3.66722 -3.17243 0
M  V30 20128 N 1915.62 1.13835 -1.08993 0
M  V30 20129 C 1917.03 1.66568 -0.843325 0
M  V30 20130 C 1917.38 1.85846 0.628955 0
M  V30 20131 O 1916.5 1.57401 1.48506 0
M  V30 20132 C 1917.1 3.02573 -1.52431 0
M  V30 20133 C 1915.66 3.52315 -1.3248 0
M  V30 20134 C 1914.81 2.27658 -1.58326 0
M  V30 20135 H 1917.76 0.978181 -1.24969 0
M  V30 20136 H 1917.78 3.68323 -0.954898 0
M  V30 20137 H 1917.29 2.8851 -2.59584 0
M  V30 20138 H 1915.39 3.71589 -0.274248 0
M  V30 20139 H 1915.5 4.32715 -2.05657 0
M  V30 20140 H 1913.87 2.34028 -1.00514 0
M  V30 20141 H 1914.65 2.16165 -2.66698 0
M  V30 20142 N 1917.1 0.876467 1.3098 0
M  V30 20143 C 1918.51 0.542323 1.7865 0
M  V30 20144 C 1918.86 -0.941103 1.72156 0
M  V30 20145 O 1917.98 -1.73506 1.29324 0
M  V30 20146 C 1918.58 0.977656 3.24388 0
M  V30 20147 C 1917.14 0.695064 3.69927 0
M  V30 20148 C 1916.28 1.16537 2.51624 0
M  V30 20149 H 1919.23 1.06154 1.1797 0
M  V30 20150 H 1919.26 0.30304 3.79291 0
M  V30 20151 H 1918.77 2.05735 3.29082 0
M  V30 20152 H 1916.87 -0.372992 3.70728 0
M  V30 20153 H 1916.98 1.27665 4.61778 0
M  V30 20154 H 1915.35 0.584941 2.47892 0
M  V30 20155 H 1916.13 2.25262 2.5906 0
M  V30 20156 N 1918.57 -1.44173 0.636557 0
M  V30 20157 C 1919.98 -1.8534 0.224954 0
M  V30 20158 C 1920.34 -1.53271 -1.22485 0
M  V30 20159 O 1919.46 -0.973441 -1.93269 0
M  V30 20160 C 1920.06 -3.36413 0.401492 0
M  V30 20161 C 1918.61 -3.76374 0.0443511 0
M  V30 20162 C 1917.76 -2.67995 0.712303 0
M  V30 20163 H 1920.71 -1.34562 0.841356 0
M  V30 20164 H 1920.73 -3.78812 -0.357965 0
M  V30 20165 H 1920.25 -3.59722 1.45677 0
M  V30 20166 H 1918.35 -3.58679 -1.00897 0
M  V30 20167 H 1918.46 -4.76904 0.458196 0
M  V30 20168 H 1916.82 -2.54275 0.147092 0
M  V30 20169 H 1917.61 -2.94136 1.77028 0
M  V30 20170 N 1920.05 -0.377435 -1.53014 0
M  V30 20171 C 1921.46 0.0992038 -1.86436 0
M  V30 20172 C 1921.81 1.47163 -1.2976 0
M  V30 20173 O 1920.94 2.072 -0.624264 0
M  V30 20174 C 1921.53 0.186789 -3.38285 0
M  V30 20175 C 1920.09 0.6077 -3.71462 0
M  V30 20176 C 1919.24 -0.237741 -2.76279 0
M  V30 20177 H 1922.19 -0.595776 -1.47092 0
M  V30 20178 H 1922.21 1.00817 -3.66901 0
M  V30 20179 H 1921.72 -0.812219 -3.79506 0
M  V30 20180 H 1919.82 1.61451 -3.35804 0
M  V30 20181 H 1919.94 0.374085 -4.77637 0
M  V30 20182 H 1918.3 0.295196 -2.52984 0
M  V30 20183 H 1919.08 -1.23451 -3.20335 0
M  V30 20184 N 1921.53 1.57237 -0.106922 0
M  V30 20185 C 1922.76 1.98831 0.561223 0
M  V30 20186 C 1923.17 0.985199 1.61525 0
M  V30 20187 O 1922.51 -0.0317928 1.83672 0
M  V30 20188 C 1922.57 3.3682 1.25668 0
M  V30 20189 C 1922.24 4.55642 0.352017 0
M  V30 20190 C 1923.23 5.18323 -0.404571 0
M  V30 20191 C 1920.92 5.01592 0.266617 0
M  V30 20192 C 1922.91 6.25333 -1.23442 0
M  V30 20193 C 1920.6 6.08465 -0.566871 0
M  V30 20194 C 1921.6 6.70201 -1.31603 0
M  V30 20195 O 1921.29 7.75012 -2.1357 0
M  V30 20196 H 1921.02 0.658182 0.154181 0
M  V30 20197 H 1923.57 2.04552 -0.186443 0
M  V30 20198 H 1921.8 3.27817 2.05116 0
M  V30 20199 H 1923.49 3.62783 1.82053 0
M  V30 20200 H 1924.26 4.83747 -0.348395 0
M  V30 20201 H 1920.14 4.53294 0.839401 0
M  V30 20202 H 1923.68 6.7345 -1.81964 0
M  V30 20203 H 1919.58 6.42472 -0.624485 0
M  V30 20204 H 1920.35 7.92054 -2.0638 0
M  V30 20205 N 1923.01 -0.166818 1.56715 0
M  V30 20206 C 1924.42 -0.518754 1.50934 0
M  V30 20207 C 1924.62 -1.84416 0.811964 0
M  V30 20208 O 1923.68 -2.49712 0.374207 0
M  V30 20209 C 1924.99 -0.547356 2.95676 0
M  V30 20210 C 1926.54 -0.634247 3.06507 0
M  V30 20211 C 1927.02 -0.693699 4.52716 0
M  V30 20212 N 1928.51 -0.756466 4.56981 0
M  V30 20213 C 1929.24 -0.823116 5.67461 0
M  V30 20214 N 1928.74 -0.850325 6.87562 0
M  V30 20215 N 1930.53 -0.862482 5.55444 0
M  V30 20216 H 1922.68 0.70222 2.00456 0
M  V30 20217 H 1924.95 0.253731 0.913414 0
M  V30 20218 H 1924.65 0.357945 3.49874 0
M  V30 20219 H 1924.53 -1.39227 3.50565 0
M  V30 20220 H 1926.91 -1.52997 2.52341 0
M  V30 20221 H 1926.99 0.23743 2.54696 0
M  V30 20222 H 1926.64 0.197788 5.07515 0
M  V30 20223 H 1926.57 -1.58158 5.02288 0
M  V30 20224 H 1929.06 -0.74354 3.70513 0
M  V30 20225 H 1929.37 -0.902481 7.67512 0
M  V30 20226 H 1927.72 -0.818528 6.90163 0
M  V30 20227 H 1930.91 -0.838257 4.60533 0
M  V30 20228 H 1931.08 -0.910962 6.41565 0
M  V30 20229 N 1924.49 -1.51463 -0.435524 0
M  V30 20230 C 1925.44 -1.69292 -1.52723 0
M  V30 20231 C 1926.42 -0.54689 -1.51321 0
M  V30 20232 O 1927.61 -0.802879 -1.57743 0
M  V30 20233 C 1924.74 -1.82299 -2.90898 0
M  V30 20234 C 1923.83 -3.02692 -2.9705 0
M  V30 20235 N 1924.22 -4.25836 -2.72942 0
M  V30 20236 C 1922.52 -3.01983 -3.2821 0
M  V30 20237 C 1923.22 -5.07109 -2.84983 0
M  V30 20238 N 1922.19 -4.41794 -3.16731 0
M  V30 20239 H 1926 -2.62166 -1.32839 0
M  V30 20240 H 1923.51 -1.49135 -0.642858 0
M  V30 20241 H 1925.51 -1.93183 -3.6944 0
M  V30 20242 H 1924.17 -0.906076 -3.11802 0
M  V30 20243 H 1925.18 -4.5475 -2.47836 0
M  V30 20244 H 1921.85 -2.1993 -3.54876 0
M  V30 20245 H 1923.24 -6.1514 -2.70283 0
M  V30 20246 N 1925.96 0.691085 -1.4164 0
M  V30 20247 C 1927.38 1.00223 -1.24207 0
M  V30 20248 C 1927.58 2.0105 -0.134625 0
M  V30 20249 O 1926.64 2.4751 0.499509 0
M  V30 20250 C 1927.95 1.52256 -2.59304 0
M  V30 20251 C 1929.5 1.64117 -2.66523 0
M  V30 20252 C 1929.97 2.19551 -4.01947 0
M  V30 20253 N 1931.46 2.26906 -4.03817 0
M  V30 20254 C 1932.2 2.70835 -5.05407 0
M  V30 20255 N 1931.69 3.14337 -6.17385 0
M  V30 20256 N 1933.49 2.70439 -4.92767 0
M  V30 20257 H 1925.64 0.0232257 -2.12387 0
M  V30 20258 H 1927.9 0.0728626 -0.945196 0
M  V30 20259 H 1927.61 0.856261 -3.41117 0
M  V30 20260 H 1927.48 2.50399 -2.821 0
M  V30 20261 H 1929.87 2.29858 -1.85066 0
M  V30 20262 H 1929.95 0.645083 -2.47532 0
M  V30 20263 H 1929.59 1.54424 -4.83855 0
M  V30 20264 H 1929.52 3.1992 -4.18281 0
M  V30 20265 H 1932.01 1.96212 -3.22969 0
M  V30 20266 H 1932.33 3.46496 -6.90768 0
M  V30 20267 H 1930.67 3.12235 -6.20914 0
M  V30 20268 H 1933.86 2.35806 -4.04368 0
M  V30 20269 H 1934.04 3.04357 -5.72076 0
M  V30 20270 N 1927.44 1.27542 0.925789 0
M  V30 20271 C 1928.39 1.10271 2.048 0
M  V30 20272 C 1929.38 0.0252694 1.69381 0
M  V30 20273 O 1930.59 0.183134 1.79066 0
M  V30 20274 H 1926.97 0.339845 0.670828 0
M  V30 20275 H 1928.94 2.0534 2.16513 0
M  V30 20276 C 1927.69 0.768681 3.39097 0
M  V30 20277 H 1927.01 1.58967 3.66837 0
M  V30 20278 H 1928.45 0.687719 4.18386 0
M  V30 20279 C 1926.91 -0.527037 3.32752 0
M  V30 20280 O 1927.44 -1.5609 3.70134 0
M  V30 20281 N 1925.64 -0.523354 2.85848 0
M  V30 20282 H 1925.19 0.318395 2.55625 0
M  V30 20283 H 1925.15 -1.39037 2.81986 0
M  V30 20284 N 1928.92 -1.13255 1.09595 0
M  V30 20285 C 1930.15 -1.88411 0.854927 0
M  V30 20286 C 1930.56 -1.79214 -0.593949 0
M  V30 20287 O 1929.92 -1.15995 -1.40895 0
M  V30 20288 C 1929.97 -3.37946 1.28353 0
M  V30 20289 O 1929.69 -3.46907 2.67558 0
M  V30 20290 C 1931.19 -4.30065 1.07514 0
M  V30 20291 H 1928.41 -0.596416 0.307455 0
M  V30 20292 H 1930.96 -1.43358 1.45838 0
M  V30 20293 H 1929.11 -3.80576 0.72393 0
M  V30 20294 H 1929.53 -4.39878 2.8567 0
M  V30 20295 H 1931 -5.33309 1.42428 0
M  V30 20296 H 1931.48 -4.39198 0.0130611 0
M  V30 20297 H 1932.08 -3.93206 1.62077 0
M  V30 20298 N 1930.4 -0.883401 -1.30514 0
M  V30 20299 C 1931.64 -0.501795 -1.96494 0
M  V30 20300 C 1931.98 0.946294 -1.69585 0
M  V30 20301 O 1931.25 1.66842 -0.999705 0
M  V30 20302 C 1931.54 -0.775405 -3.51653 0
M  V30 20303 C 1931.39 -2.27401 -3.88084 0
M  V30 20304 C 1932.71 -0.250854 -4.39384 0
M  V30 20305 H 1929.83 -0.183786 -0.713717 0
M  V30 20306 H 1932.47 -1.1071 -1.54412 0
M  V30 20307 H 1930.62 -0.260217 -3.87628 0
M  V30 20308 H 1932.29 -2.85748 -3.62141 0
M  V30 20309 H 1930.53 -2.74128 -3.36209 0
M  V30 20310 H 1931.2 -2.41606 -4.96317 0
M  V30 20311 H 1933.68 -0.691785 -4.10309 0
M  V30 20312 H 1932.56 -0.471637 -5.4687 0
M  V30 20313 H 1932.82 0.847835 -4.33894 0
M  V30 20314 N 1931.88 1.43833 -0.644194 0
M  V30 20315 C 1933.12 2.02213 -0.154155 0
M  V30 20316 C 1933.46 1.50648 1.22551 0
M  V30 20317 O 1932.73 0.69587 1.81626 0
M  V30 20318 C 1933.01 3.59766 -0.155107 0
M  V30 20319 C 1932.87 4.21583 -1.56804 0
M  V30 20320 C 1934.19 4.37096 0.513365 0
M  V30 20321 H 1931.3 0.734754 -0.0574913 0
M  V30 20322 H 1933.95 1.71243 -0.823159 0
M  V30 20323 H 1932.1 3.86282 0.414568 0
M  V30 20324 H 1933.77 4.0613 -2.18761 0
M  V30 20325 H 1932.01 3.78578 -2.11804 0
M  V30 20326 H 1932.68 5.30642 -1.52064 0
M  V30 20327 H 1935.16 4.1609 0.0287668 0
M  V30 20328 H 1934.03 5.4678 0.481936 0
M  V30 20329 H 1934.3 4.12673 1.58597 0
M  V30 20330 O 1933.39 0.527732 1.52634 0
M  V30 20331 H 1934.08 0.0172058 1.93692 0
M  V30 END ATOM
M  V30 BEGIN BOND
M  V30 END BOND
M  V30 END CTAB
M  END
$$$$
