drugbank_target|P9WFF7 Decaprenyl diphosphate synthase (DB02552; DB04714)
 OpenBabel12092120473D

  0  0  0     0  0            999 V3000
M  V30 BEGIN CTAB
M  V30 COUNTS 4729 4791 0 0 0
M  V30 BEGIN ATOM
M  V30 1 H -0.908 1.98254 -0.117106 0
M  V30 2 N 0 1.576 0 0
M  V30 3 C 0.933 2.03868 1.02534 0
M  V30 4 C 1.911 0.928543 1.3348 0
M  V30 5 O 3.095 1.19667 1.45644 0
M  V30 6 C 0.222 2.43627 2.35294 0
M  V30 7 C -0.732 3.65373 2.2001 0
M  V30 8 S 0.101 5.13292 1.52614 0
M  V30 9 C 1.257 5.56322 2.86805 0
M  V30 10 H 1.49 2.90518 0.631377 0
M  V30 11 H -0.977 1.52953 0.210867 0
M  V30 12 H 0.981 2.67203 3.11629 0
M  V30 13 H -0.358 1.57376 2.7183 0
M  V30 14 H -1.165 3.90944 3.18086 0
M  V30 15 H -1.563 3.418 1.51819 0
M  V30 16 H 0.729 5.58782 3.83104 0
M  V30 17 H 1.672 6.56266 2.65933 0
M  V30 18 H 2.08 4.83886 2.90714 0
M  V30 19 N 1.4781 -0.272755 1.55222 0
M  V30 20 C 2.4411 -1.32041 1.87344 0
M  V30 21 C 3.4411 -1.42342 0.74803 0
M  V30 22 O 4.6311 -1.41488 1.0162 0
M  V30 23 C 1.7631 -2.70173 2.07893 0
M  V30 24 H 2.9561 -1.04789 2.80997 0
M  V30 25 H 0.5091 -0.51083 1.47717 0
M  V30 26 H 1.2441 -3.02605 1.16622 0
M  V30 27 H 1.0291 -2.64082 2.89833 0
M  V30 28 H 2.5191 -3.45869 2.34017 0
M  V30 29 N 2.9562 -1.48159 -0.537278 0
M  V30 30 C 4.3722 -1.34118 -0.865129 0
M  V30 31 C 4.5722 -0.346678 -1.98495 0
M  V30 32 O 3.6282 0.234715 -2.51407 0
M  V30 33 C 4.9412 -2.73963 -1.23954 0
M  V30 34 C 6.4892 -2.82397 -1.34984 0
M  V30 35 C 6.9642 -4.22928 -1.75772 0
M  V30 36 N 8.4552 -4.25566 -1.82887 0
M  V30 37 C 9.1902 -5.31235 -2.15817 0
M  V30 38 N 8.6862 -6.47189 -2.47222 0
M  V30 39 N 10.4792 -5.18624 -2.16761 0
M  V30 40 H 2.6302 -2.1144 0.201715 0
M  V30 41 H 4.8932 -0.947598 0.0275949 0
M  V30 42 H 4.5992 -3.48264 -0.490381 0
M  V30 43 H 4.4732 -3.0702 -2.19132 0
M  V30 44 H 6.8602 -2.08356 -2.08978 0
M  V30 45 H 6.9412 -2.5297 -0.379448 0
M  V30 46 H 6.5852 -4.97482 -1.02341 0
M  V30 47 H 6.5152 -4.49794 -2.73848 0
M  V30 48 H 9.0062 -3.41924 -1.60924 0
M  V30 49 H 9.3192 -7.23564 -2.71433 0
M  V30 50 H 7.6642 -6.50476 -2.44757 0
M  V30 51 H 10.8552 -4.27056 -1.91679 0
M  V30 52 H 11.0282 -6.01078 -2.42093 0
M  V30 53 N 4.4343 0.785586 -1.36625 0
M  V30 54 C 5.7113 1.53198 -1.21613 0
M  V30 55 C 6.0913 2.10187 0.196113 0
M  V30 56 O 5.4393 1.94318 1.20219 0
M  V30 57 C 5.6493 2.62388 -2.30116 0
M  V30 58 C 6.9973 3.30167 -2.66974 0
M  V30 59 O 8.0213 2.72674 -2.29188 0
M  V30 60 O 6.8803 4.34077 -3.32023 0
M  V30 61 H 3.9743 0.677865 -0.473738 0
M  V30 62 H 6.5203 0.823739 -1.48367 0
M  V30 63 H 5.2923 2.18299 -3.24748 0
M  V30 64 H 4.9153 3.40827 -2.0475 0
M  V30 65 N 5.9124 1.20967 1.01018 0
M  V30 66 C 6.8754 0.965918 2.07853 0
M  V30 67 C 7.8754 -0.0610545 1.60684 0
M  V30 68 O 9.0654 0.175681 1.73312 0
M  V30 69 C 6.1974 0.455513 3.37843 0
M  V30 70 H 7.3904 1.91365 2.3091 0
M  V30 71 H 4.9434 1.02594 1.17916 0
M  V30 72 H 5.6784 -0.497381 3.20463 0
M  V30 73 H 5.4634 1.19622 3.73407 0
M  V30 74 H 6.9534 0.304667 4.16487 0
M  V30 75 N 7.3905 -1.2043 1.01659 0
M  V30 76 C 8.8065 -1.41852 0.731442 0
M  V30 77 C 9.0065 -1.89358 -0.688898 0
M  V30 78 O 8.0625 -2.06247 -1.45666 0
M  V30 79 C 9.3755 -2.44019 1.75714 0
M  V30 80 C 10.9235 -2.57785 1.77527 0
M  V30 81 C 11.3985 -3.63194 2.79023 0
M  V30 82 N 12.8895 -3.70678 2.77763 0
M  V30 83 C 13.6245 -4.51897 3.52954 0
M  V30 84 N 13.1205 -5.36921 4.37821 0
M  V30 85 N 14.9135 -4.4643 3.41551 0
M  V30 86 H 7.0645 -0.879093 1.93354 0
M  V30 87 H 9.3275 -0.448425 0.835236 0
M  V30 88 H 9.0335 -2.1611 2.77469 0
M  V30 89 H 8.9075 -3.43007 1.56927 0
M  V30 90 H 11.2945 -2.85023 0.764569 0
M  V30 91 H 11.3755 -1.58992 2.00387 0
M  V30 92 H 11.0195 -3.36699 3.80258 0
M  V30 93 H 10.9495 -4.61609 2.53425 0
M  V30 94 H 13.4405 -3.09944 2.16201 0
M  V30 95 H 13.7535 -5.95981 4.91962 0
M  V30 96 H 12.0985 -5.36424 4.41899 0
M  V30 97 H 15.2895 -3.79042 2.74672 0
M  V30 98 H 15.4625 -5.09491 4.00404 0
M  V30 99 N 8.8686 -0.792821 -1.36206 0
M  V30 100 C 9.8156 -0.191653 -2.30003 0
M  V30 101 C 10.7856 0.666453 -1.52143 0
M  V30 102 O 11.9706 0.61442 -1.80636 0
M  V30 103 C 9.1106 0.664848 -3.38635 0
M  V30 104 C 8.2236 -0.212175 -4.31479 0
M  V30 105 C 7.3586 0.651022 -5.27196 0
M  V30 106 C 6.3976 -0.227247 -6.11678 0
M  V30 107 N 5.5346 0.595127 -6.99573 0
M  V30 108 H 10.3746 -0.996978 -2.80828 0
M  V30 109 H 7.9116 -0.503206 -1.38225 0
M  V30 110 H 9.8696 1.17645 -4.00269 0
M  V30 111 H 8.4996 1.43557 -2.89122 0
M  V30 112 H 7.5516 -0.841777 -3.70969 0
M  V30 113 H 8.8636 -0.888751 -4.90818 0
M  V30 114 H 8.0176 1.2283 -5.94136 0
M  V30 115 H 6.7566 1.36121 -4.68319 0
M  V30 116 H 5.7616 -0.816904 -5.43697 0
M  V30 117 H 6.9866 -0.93509 -6.72631 0
M  V30 118 H 4.9326 1.28955 -6.432 0
M  V30 119 H 4.8496 -0.0236952 -7.55996 0
M  V30 120 H 6.1176 1.15613 -7.70879 0
M  V30 121 N 10.3467 1.47872 -0.545128 0
M  V30 122 C 11.7627 1.5829 -0.204032 0
M  V30 123 C 11.9627 1.54529 1.29317 0
M  V30 124 O 11.0187 1.44232 2.07252 0
M  V30 125 C 12.3317 2.89304 -0.819987 0
M  V30 126 C 13.8797 3.02864 -0.790105 0
M  V30 127 C 14.3547 4.3656 -1.38491 0
M  V30 128 N 15.8457 4.43165 -1.34755 0
M  V30 129 C 16.5807 5.45153 -1.77753 0
M  V30 130 N 16.0767 6.54016 -2.2855 0
M  V30 131 N 17.8697 5.36125 -1.68897 0
M  V30 132 H 10.0207 1.4856 -1.51802 0
M  V30 133 H 12.2837 0.706305 -0.632327 0
M  V30 134 H 11.9897 2.97757 -1.87173 0
M  V30 135 H 11.8637 3.75957 -0.305915 0
M  V30 136 H 14.2507 2.94014 0.252913 0
M  V30 137 H 14.3317 2.17782 -1.34181 0
M  V30 138 H 13.9757 4.46164 -2.42693 0
M  V30 139 H 13.9057 5.20353 -0.808754 0
M  V30 140 H 16.3967 3.65083 -0.975855 0
M  V30 141 H 16.7097 7.27994 -2.59314 0
M  V30 142 H 15.0547 6.54938 -2.32553 0
M  V30 143 H 18.2457 4.49975 -1.28998 0
M  V30 144 H 18.4187 6.15472 -2.02726 0
M  V30 145 N 11.8248 0.280983 1.55075 0
M  V30 146 C 13.0528 -0.337293 2.04132 0
M  V30 147 C 13.4678 -1.4903 1.15912 0
M  V30 148 O 12.8248 -1.81606 0.180459 0
M  V30 149 C 12.8758 -0.812706 3.52246 0
M  V30 150 O 12.5968 0.294387 4.3711 0
M  V30 151 C 14.0978 -1.4982 4.17216 0
M  V30 152 H 11.3178 -0.0761638 0.666663 0
M  V30 153 H 13.8618 0.414787 2.00249 0
M  V30 154 H 12.0168 -1.51486 3.56554 0
M  V30 155 H 12.4308 -0.0721325 5.2445 0
M  V30 156 H 13.9048 -1.7822 5.22438 0
M  V30 157 H 14.3818 -2.43168 3.65741 0
M  V30 158 H 14.9878 -0.839742 4.16927 0
M  V30 159 N 13.3029 -1.57598 0.00835791 0
M  V30 160 C 14.5279 -1.95617 -0.689103 0
M  V30 161 C 14.9529 -0.883753 -1.66046 0
M  V30 162 O 14.3109 0.157352 -1.80616 0
M  V30 163 C 14.3589 -3.32736 -1.38994 0
M  V30 164 O 13.4629 -3.27631 -2.50463 0
M  V30 165 H 12.8039 -0.638379 -0.182668 0
M  V30 166 H 15.3339 -2.045 0.064036 0
M  V30 167 H 15.3439 -3.68494 -1.75147 0
M  V30 168 H 14.0189 -4.1034 -0.677778 0
M  V30 169 H 12.5959 -3.03561 -2.16576 0
M  V30 170 N 14.781 0.264519 -1.55364 0
M  V30 171 C 16.006 1.01726 -1.80739 0
M  V30 172 C 16.431 1.78836 -0.583044 0
M  V30 173 O 15.789 1.75167 0.467566 0
M  V30 174 C 15.837 1.94482 -3.03659 0
M  V30 175 O 14.941 3.03386 -2.7934 0
M  V30 176 H 14.282 0.290395 -0.597132 0
M  V30 177 H 16.812 0.290854 -2.02522 0
M  V30 178 H 16.822 2.36278 -3.32621 0
M  V30 179 H 15.497 1.37772 -3.92418 0
M  V30 180 H 14.074 2.65844 -2.61498 0
M  V30 181 N 16.2591 1.48442 0.529413 0
M  V30 182 C 17.2071 1.63452 1.65487 0
M  V30 183 C 18.2011 0.500955 1.61823 0
M  V30 184 O 19.4071 0.679695 1.66674 0
M  V30 185 H 15.7821 0.514905 0.548066 0
M  V30 186 H 17.7531 2.57975 1.49971 0
M  V30 187 C 16.5021 1.69196 3.03756 0
M  V30 188 H 15.8251 2.55784 3.07269 0
M  V30 189 H 17.2651 1.83743 3.82119 0
M  V30 190 C 15.7241 0.430765 3.34135 0
M  V30 191 O 16.2541 -0.4561 3.99102 0
M  V30 192 N 14.4601 0.302293 2.89023 0
M  V30 193 H 14.0071 1.02496 2.36331 0
M  V30 194 H 13.9651 -0.540546 3.09718 0
M  V30 195 N 17.7372 -0.778329 1.37039 0
M  V30 196 C 18.9842 -1.53665 1.31884 0
M  V30 197 C 19.3122 -1.9425 -0.0986303 0
M  V30 198 O 18.5672 -1.63832 -1.07041 0
M  V30 199 C 18.8662 -2.81845 2.19768 0
M  V30 200 C 18.5322 -2.60345 3.68146 0
M  V30 201 C 17.1942 -2.5419 4.08584 0
M  V30 202 C 19.5462 -2.40923 4.62175 0
M  V30 203 C 16.8742 -2.26594 5.41177 0
M  V30 204 C 19.2262 -2.14852 5.94997 0
M  V30 205 C 17.8902 -2.07137 6.34547 0
M  V30 206 H 17.1602 -0.562299 0.482598 0
M  V30 207 H 19.8072 -0.897069 1.69189 0
M  V30 208 H 18.1122 -3.50328 1.75436 0
M  V30 209 H 19.8092 -3.39692 2.13097 0
M  V30 210 H 16.3992 -2.65996 3.36072 0
M  V30 211 H 20.5832 -2.44673 4.31797 0
M  V30 212 H 15.8392 -2.19111 5.70789 0
M  V30 213 H 20.0132 -1.98822 6.67415 0
M  V30 214 H 17.6402 -1.85518 7.37216 0
M  V30 215 N 19.2153 -1.21501 -1.00376 0
M  V30 216 C 20.6263 -1.03146 -1.55621 0
M  V30 217 C 20.9773 0.408375 -1.91903 0
M  V30 218 O 20.1023 1.29177 -1.73616 0
M  V30 219 C 20.6973 -1.86612 -2.82775 0
M  V30 220 C 19.2563 -1.72586 -3.34501 0
M  V30 221 C 18.4033 -1.83747 -2.07683 0
M  V30 222 H 21.3543 -1.35505 -0.826081 0
M  V30 223 H 21.3753 -1.3771 -3.54706 0
M  V30 224 H 20.8873 -2.91399 -2.56336 0
M  V30 225 H 18.9883 -0.704877 -3.65872 0
M  V30 226 H 19.1013 -2.54623 -4.05837 0
M  V30 227 H 17.4653 -1.27069 -2.20739 0
M  V30 228 H 18.2483 -2.90044 -1.83655 0
M  V30 229 N 20.6934 1.19889 -1.02296 0
M  V30 230 C 21.6254 2.22334 -0.556787 0
M  V30 231 C 22.6384 1.58674 0.364199 0
M  V30 232 O 23.8274 1.77768 0.161533 0
M  V30 233 C 20.9274 3.38257 0.208694 0
M  V30 234 C 20.1004 4.31504 -0.71577 0
M  V30 235 C 19.1594 5.262 0.00325597 0
M  V30 236 O 18.1854 5.65798 -0.621357 0
M  V30 237 N 19.3874 5.66303 1.27599 0
M  V30 238 H 22.1524 2.62957 -1.43784 0
M  V30 239 H 19.7134 1.34495 -0.901261 0
M  V30 240 H 21.7054 3.98616 0.699111 0
M  V30 241 H 20.2754 2.96472 0.991102 0
M  V30 242 H 19.4954 3.69016 -1.38638 0
M  V30 243 H 20.7834 4.9072 -1.34428 0
M  V30 244 H 20.1814 5.36155 1.80429 0
M  V30 245 H 18.7384 6.28942 1.71102 0
M  V30 246 N 22.1715 0.800033 1.35784 0
M  V30 247 C 23.1015 0.220184 2.3246 0
M  V30 248 C 24.0825 -0.65073 1.57161 0
M  V30 249 O 25.2675 -0.582359 1.85263 0
M  V30 250 C 22.3975 -0.637353 3.41402 0
M  V30 251 C 21.3515 0.134531 4.27789 0
M  V30 252 C 20.6775 -0.844285 5.27992 0
M  V30 253 C 21.9775 1.32979 5.05088 0
M  V30 254 H 23.6715 1.02787 2.81203 0
M  V30 255 H 21.2175 0.495717 1.35199 0
M  V30 256 H 23.1705 -1.05302 4.08031 0
M  V30 257 H 21.8945 -1.47785 2.91251 0
M  V30 258 H 20.5535 0.531296 3.6273 0
M  V30 259 H 20.2015 -1.68011 4.74111 0
M  V30 260 H 19.9015 -0.332184 5.8666 0
M  V30 261 H 21.4255 -1.2583 5.97494 0
M  V30 262 H 22.8395 0.98934 5.64699 0
M  V30 263 H 21.2365 1.77593 5.7322 0
M  V30 264 H 22.3065 2.11978 4.36111 0
M  V30 265 N 23.6496 -1.47581 0.552962 0
M  V30 266 C 25.0606 -1.86324 0.118463 0
M  V30 267 C 25.4116 -1.46006 -1.3106 0
M  V30 268 O 24.5366 -0.861182 -1.98526 0
M  V30 269 C 25.1316 -3.3816 0.20821 0
M  V30 270 C 23.6906 -3.7601 -0.171226 0
M  V30 271 C 22.8376 -2.71634 0.557686 0
M  V30 272 H 25.7886 -1.39159 0.762928 0
M  V30 273 H 25.8096 -3.76141 -0.574278 0
M  V30 274 H 25.3216 -3.67473 1.24841 0
M  V30 275 H 23.4226 -3.52313 -1.21269 0
M  V30 276 H 23.5356 -4.78745 0.184379 0
M  V30 277 H 21.8996 -2.547 0.00125792 0
M  V30 278 H 22.6826 -3.0379 1.59896 0
M  V30 279 N 25.1277 -0.289203 -1.54924 0
M  V30 280 C 26.5387 0.205791 -1.85562 0
M  V30 281 C 26.8897 1.54351 -1.2112 0
M  V30 282 O 26.0147 2.10435 -0.504601 0
M  V30 283 C 26.6097 0.380177 -3.3666 0
M  V30 284 C 25.1687 0.819395 -3.67373 0
M  V30 285 C 24.3157 -0.079159 -2.77187 0
M  V30 286 H 27.2667 -0.510577 -1.50262 0
M  V30 287 H 27.2877 1.21659 -3.60526 0
M  V30 288 H 26.7997 -0.593589 -3.83534 0
M  V30 289 H 24.9007 1.80413 -3.26009 0
M  V30 290 H 25.0137 0.646957 -4.74712 0
M  V30 291 H 23.3777 0.439565 -2.50878 0
M  V30 292 H 24.1607 -1.04906 -3.26878 0
M  V30 293 N 26.6058 1.57591 -0.0167156 0
M  V30 294 C 27.5688 2.08393 0.954204 0
M  V30 295 C 28.5688 0.996531 1.26198 0
M  V30 296 O 29.7588 1.25858 1.20438 0
M  V30 297 C 26.8908 2.5394 2.27436 0
M  V30 298 H 28.0838 2.95455 0.514451 0
M  V30 299 H 25.6368 1.54582 0.231089 0
M  V30 300 H 26.3718 1.70171 2.76066 0
M  V30 301 H 26.1568 3.33371 2.06412 0
M  V30 302 H 27.6468 2.93512 2.97053 0
M  V30 303 N 28.0839 -0.256276 1.55502 0
M  V30 304 C 29.4949 -0.826068 1.67431 0
M  V30 305 C 29.8459 -1.86396 0.612446 0
M  V30 306 O 28.9709 -2.15031 -0.243025 0
M  V30 307 C 29.5659 -1.50512 3.03532 0
M  V30 308 C 28.1249 -2.02273 3.17431 0
M  V30 309 C 27.2719 -0.870548 2.63281 0
M  V30 310 H 30.2229 -0.0322728 1.58667 0
M  V30 311 H 30.2439 -2.37279 2.97454 0
M  V30 312 H 29.7559 -0.749484 3.80794 0
M  V30 313 H 27.8569 -2.80746 2.44974 0
M  V30 314 H 27.9699 -2.22655 4.24219 0
M  V30 315 H 26.3339 -1.26851 2.20864 0
M  V30 316 H 27.1169 -0.128149 3.43061 0
M  V30 317 N 29.562 -1.4872 -0.521534 0
M  V30 318 C 30.839 -1.4766 -1.2828 0
M  V30 319 C 31.219 -0.19292 -2.10217 0
M  V30 320 O 30.567 0.825193 -2.13079 0
M  V30 321 C 30.777 -2.74358 -2.15705 0
M  V30 322 C 32.125 -3.23028 -2.75569 0
M  V30 323 O 33.149 -2.75333 -2.25987 0
M  V30 324 O 32.008 -4.0604 -3.65778 0
M  V30 325 H 29.102 -0.590085 -0.579421 0
M  V30 326 H 31.648 -1.60963 -0.537492 0
M  V30 327 H 30.42 -3.59292 -1.54999 0
M  V30 328 H 30.043 -2.63816 -2.97467 0
M  V30 329 N 31.0401 0.771051 -1.3745 0
M  V30 330 C 32.3171 1.519 -1.23231 0
M  V30 331 C 32.6971 2.10383 0.173809 0
M  V30 332 O 32.0451 1.95583 1.18151 0
M  V30 333 C 32.2551 2.59933 -2.32886 0
M  V30 334 C 33.6031 3.27316 -2.70461 0
M  V30 335 O 34.6271 2.70228 -2.32068 0
M  V30 336 O 33.4861 4.30531 -3.36608 0
M  V30 337 H 30.5801 0.672803 -0.480901 0
M  V30 338 H 33.1261 0.807957 -1.49232 0
M  V30 339 H 31.8981 2.14842 -3.27045 0
M  V30 340 H 31.5211 3.38637 -2.08353 0
M  V30 341 N 32.5182 1.22032 0.997298 0
M  V30 342 C 33.7482 1.06686 1.76923 0
M  V30 343 C 34.1562 -0.385838 1.85224 0
M  V30 344 O 33.4992 -1.27929 1.31833 0
M  V30 345 C 33.5612 1.59802 3.22031 0
M  V30 346 C 33.2252 3.08362 3.37286 0
M  V30 347 C 34.2222 4.05835 3.24952 0
M  V30 348 C 31.9072 3.47727 3.6248 0
M  V30 349 C 33.9012 5.4066 3.37588 0
M  V30 350 C 31.5882 4.82701 3.74757 0
M  V30 351 C 32.5862 5.78977 3.62319 0
M  V30 352 O 32.2742 7.11502 3.74193 0
M  V30 353 H 32.0062 0.374767 0.562606 0
M  V30 354 H 34.5602 1.61991 1.26286 0
M  V30 355 H 32.7902 0.989003 3.73839 0
M  V30 356 H 34.4792 1.40184 3.80924 0
M  V30 357 H 35.2452 3.76766 3.05405 0
M  V30 358 H 31.1242 2.73317 3.7124 0
M  V30 359 H 34.6682 6.15788 3.27796 0
M  V30 360 H 30.5652 5.11453 3.9381 0
M  V30 361 H 31.3332 7.19019 3.91093 0
M  V30 362 N 33.9963 -1.19345 1.0293 0
M  V30 363 C 35.4073 -1.70725 0.755633 0
M  V30 364 C 35.7583 -1.82326 -0.724676 0
M  V30 365 O 34.8833 -1.49471 -1.56484 0
M  V30 366 C 35.4783 -3.10084 1.36503 0
M  V30 367 C 34.0373 -3.58723 1.13994 0
M  V30 368 C 33.1843 -2.35577 1.46283 0
M  V30 369 H 36.1353 -1.0418 1.19718 0
M  V30 370 H 36.1563 -3.72787 0.762217 0
M  V30 371 H 35.6683 -3.01609 2.44241 0
M  V30 372 H 33.7693 -3.72512 0.0807901 0
M  V30 373 H 33.8823 -4.42816 1.82894 0
M  V30 374 H 32.2463 -2.38935 0.88217 0
M  V30 375 H 33.0293 -2.29731 2.55105 0
M  V30 376 N 35.4744 -0.807222 -1.35358 0
M  V30 377 C 36.7024 -0.400377 -2.02989 0
M  V30 378 C 37.1174 0.988859 -1.60832 0
M  V30 379 O 36.4744 1.63729 -0.806175 0
M  V30 380 C 36.5254 -0.474867 -3.58368 0
M  V30 381 O 36.2464 -1.80933 -3.98992 0
M  V30 382 C 37.7474 -0.0609112 -4.43258 0
M  V30 383 H 34.9674 -0.162587 -0.651004 0
M  V30 384 H 37.5114 -1.09102 -1.72965 0
M  V30 385 H 35.6664 0.167534 -3.87038 0
M  V30 386 H 36.0804 -1.77256 -4.9364 0
M  V30 387 H 37.5544 -0.164145 -5.51756 0
M  V30 388 H 38.0314 0.993831 -4.27808 0
M  V30 389 H 38.6374 -0.676492 -4.19885 0
M  V30 390 N 36.9525 1.47285 -0.560781 0
M  V30 391 C 38.1995 2.02464 -0.038062 0
M  V30 392 C 38.5275 1.43474 1.31322 0
M  V30 393 O 37.7825 0.581311 1.86867 0
M  V30 394 C 38.0815 3.57258 0.100784 0
M  V30 395 C 37.7475 4.35184 -1.18007 0
M  V30 396 C 36.4095 4.56194 -1.53103 0
M  V30 397 C 38.7615 4.80098 -2.02867 0
M  V30 398 C 36.0895 5.19367 -2.729 0
M  V30 399 C 38.4415 5.44593 -3.21871 0
M  V30 400 C 37.1055 5.63835 -3.57276 0
M  V30 401 H 36.3755 0.740869 -0.0139279 0
M  V30 402 H 39.0225 1.76916 -0.733012 0
M  V30 403 H 37.3275 3.81819 0.878724 0
M  V30 404 H 39.0245 3.97606 0.520639 0
M  V30 405 H 35.6145 4.19113 -0.8968 0
M  V30 406 H 39.7985 4.63642 -1.7706 0
M  V30 407 H 35.0545 5.32459 -3.00496 0
M  V30 408 H 39.2285 5.78358 -3.87911 0
M  V30 409 H 36.8555 6.12557 -4.50197 0
M  V30 410 N 38.4306 0.297415 1.54768 0
M  V30 411 C 39.8416 -0.195947 1.85669 0
M  V30 412 C 40.1926 -1.53707 1.21937 0
M  V30 413 O 39.3176 -2.10164 0.515754 0
M  V30 414 C 39.9126 -0.362318 3.36857 0
M  V30 415 C 38.4716 -0.799901 3.67802 0
M  V30 416 C 37.6186 0.0938578 2.77141 0
M  V30 417 H 40.5696 0.518538 1.4999 0
M  V30 418 H 40.5906 -1.19745 3.61167 0
M  V30 419 H 40.1026 0.613921 3.83214 0
M  V30 420 H 38.2036 -1.78682 3.26961 0
M  V30 421 H 38.3166 -0.621773 4.75048 0
M  V30 422 H 36.6806 -0.426254 2.51108 0
M  V30 423 H 37.4636 1.06639 3.26318 0
M  V30 424 N 39.9087 -1.5758 0.0250728 0
M  V30 425 C 41.1857 -1.82917 -0.692873 0
M  V30 426 C 41.5657 -0.908137 -1.90568 0
M  V30 427 O 40.9137 0.0372298 -2.2847 0
M  V30 428 C 41.1237 -3.32034 -1.07492 0
M  V30 429 C 42.4717 -3.98406 -1.46826 0
M  V30 430 O 43.4957 -3.36505 -1.16801 0
M  V30 431 O 42.3547 -5.07497 -2.02754 0
M  V30 432 H 39.4487 -0.754079 -0.33955 0
M  V30 433 H 41.9947 -1.69619 0.0524456 0
M  V30 434 H 40.7667 -3.90728 -0.211552 0
M  V30 435 H 40.3897 -3.50424 -1.87854 0
M  V30 436 N 41.3868 0.248026 -1.55636 0
M  V30 437 C 42.6148 0.993808 -1.81469 0
M  V30 438 C 43.0298 1.78991 -0.60064 0
M  V30 439 O 42.3868 1.77345 0.430682 0
M  V30 440 C 42.4378 1.93258 -3.05506 0
M  V30 441 O 42.1588 1.16869 -4.22224 0
M  V30 442 C 43.6598 2.79444 -3.4413 0
M  V30 443 H 40.8798 0.292486 -0.603898 0
M  V30 444 H 43.4238 0.271253 -2.02693 0
M  V30 445 H 41.5788 2.60943 -2.86335 0
M  V30 446 H 41.9928 1.80359 -4.92515 0
M  V30 447 H 43.4668 3.41066 -4.34026 0
M  V30 448 H 43.9438 3.50499 -2.64665 0
M  V30 449 H 44.5498 2.17214 -3.65648 0
M  V30 450 N 42.8649 1.48995 0.513639 0
M  V30 451 C 44.0899 1.61792 1.29762 0
M  V30 452 C 44.5149 0.284475 1.85936 0
M  V30 453 O 43.8729 -0.746185 1.65232 0
M  V30 454 C 43.9209 2.67993 2.41272 0
M  V30 455 O 43.0249 2.26287 3.44772 0
M  V30 456 H 42.3659 0.541963 0.38363 0
M  V30 457 H 44.8959 1.95097 0.616307 0
M  V30 458 H 44.9059 2.89772 2.87221 0
M  V30 459 H 43.5809 3.64791 1.9975 0
M  V30 460 H 42.1579 2.14788 3.04829 0
M  V30 461 N 44.343 -0.763751 1.37857 0
M  V30 462 C 45.571 -1.55293 1.36718 0
M  V30 463 C 45.986 -1.88745 -0.0455434 0
M  V30 464 O 45.343 -1.52039 -1.00947 0
M  V30 465 C 45.394 -2.85831 2.2132 0
M  V30 466 O 45.115 -2.5381 3.57089 0
M  V30 467 C 46.616 -3.80023 2.28249 0
M  V30 468 H 43.836 -0.480841 0.468009 0
M  V30 469 H 46.38 -0.946009 1.81303 0
M  V30 470 H 44.535 -3.42926 1.80223 0
M  V30 471 H 44.949 -3.37459 4.01524 0
M  V30 472 H 46.423 -4.68599 2.91752 0
M  V30 473 H 46.9 -4.1973 1.2932 0
M  V30 474 H 47.506 -3.28855 2.69693 0
M  V30 475 N 45.8211 -1.22559 -0.990812 0
M  V30 476 C 47.0671 -1.06303 -1.73411 0
M  V30 477 C 47.4221 0.397442 -1.8825 0
M  V30 478 O 46.7151 1.29062 -1.41611 0
M  V30 479 C 46.9091 -1.71011 -3.13831 0
M  V30 480 C 46.7381 -3.232 -3.12685 0
M  V30 481 C 45.5081 -3.92314 -3.18461 0
M  V30 482 C 47.7061 -4.20107 -2.96673 0
M  V30 483 N 45.6881 -5.31571 -3.07091 0
M  V30 484 C 47.0591 -5.46208 -2.93354 0
M  V30 485 C 49.1141 -4.10973 -2.8108 0
M  V30 486 C 47.8171 -6.64225 -2.76039 0
M  V30 487 C 49.8431 -5.28642 -2.65126 0
M  V30 488 C 49.2051 -6.53663 -2.62496 0
M  V30 489 H 45.3041 -0.443441 -0.644115 0
M  V30 490 H 47.8881 -1.55131 -1.17654 0
M  V30 491 H 46.0591 -1.2473 -3.67827 0
M  V30 492 H 47.7911 -1.47828 -3.76735 0
M  V30 493 H 44.5461 -3.43326 -3.26227 0
M  V30 494 H 44.9701 -6.0455 -3.0471 0
M  V30 495 H 49.6121 -3.15098 -2.8191 0
M  V30 496 H 47.3301 -7.60246 -2.73954 0
M  V30 497 H 50.9161 -5.23407 -2.54039 0
M  V30 498 H 49.7961 -7.43182 -2.50302 0
M  V30 499 N 47.2992 1.18797 -1.03562 0
M  V30 500 C 48.7102 1.70322 -0.764676 0
M  V30 501 C 49.0612 1.82708 0.714996 0
M  V30 502 O 48.1862 1.50299 1.55689 0
M  V30 503 C 48.7812 3.09356 -1.38145 0
M  V30 504 C 47.3402 3.58114 -1.15895 0
M  V30 505 C 46.4872 2.34798 -1.4753 0
M  V30 506 H 49.4382 1.03543 -1.20268 0
M  V30 507 H 49.4592 3.72378 -0.781977 0
M  V30 508 H 48.9712 3.00309 -2.45837 0
M  V30 509 H 47.0722 3.72464 -0.100544 0
M  V30 510 H 47.1852 4.4184 -1.8524 0
M  V30 511 H 45.5492 2.38464 -0.894829 0
M  V30 512 H 46.3322 2.28375 -2.56319 0
M  V30 513 N 48.7773 0.814389 1.34928 0
M  V30 514 C 50.0233 0.399013 1.98836 0
M  V30 515 C 50.3563 -1.03314 1.64438 0
M  V30 516 O 49.6313 -1.71811 0.911659 0
M  V30 517 C 49.9143 0.591629 3.55207 0
M  V30 518 C 49.7673 2.06928 3.99376 0
M  V30 519 C 51.0863 0.022199 4.40094 0
M  V30 520 H 48.2053 0.146451 0.722303 0
M  V30 521 H 50.8473 1.02537 1.59957 0
M  V30 522 H 48.9973 0.0584441 3.88456 0
M  V30 523 H 50.6693 2.66544 3.76499 0
M  V30 524 H 48.9123 2.56287 3.49999 0
M  V30 525 H 49.5833 2.1549 5.08201 0
M  V30 526 H 52.0593 0.477643 4.13349 0
M  V30 527 H 50.9353 0.186832 5.48582 0
M  V30 528 H 51.1963 -1.07215 4.28902 0
M  V30 529 N 50.2554 -1.46986 0.568584 0
M  V30 530 C 51.5014 -2.02741 0.0488709 0
M  V30 531 C 51.8344 -1.44077 -1.30214 0
M  V30 532 O 51.1094 -0.600552 -1.84996 0
M  V30 533 C 51.3924 -3.60086 -0.032047 0
M  V30 534 C 51.2454 -4.29162 1.34686 0
M  V30 535 C 52.5644 -4.33838 -0.739798 0
M  V30 536 H 49.6834 -0.736749 0.0192338 0
M  V30 537 H 52.3254 -1.75289 0.733065 0
M  V30 538 H 50.4754 -3.83606 -0.61473 0
M  V30 539 H 52.1474 -4.16948 1.97362 0
M  V30 540 H 50.3904 -3.89073 1.91846 0
M  V30 541 H 51.0614 -5.37826 1.24285 0
M  V30 542 H 53.5374 -4.15378 -0.244939 0
M  V30 543 H 52.4134 -5.43537 -0.765406 0
M  V30 544 H 52.6744 -4.03875 -1.79827 0
M  V30 545 N 51.7335 -0.305618 -1.54608 0
M  V30 546 C 52.9805 0.302298 -2.00231 0
M  V30 547 C 53.3085 1.5354 -1.19398 0
M  V30 548 O 52.5635 1.93973 -0.259423 0
M  V30 549 C 52.8625 0.698983 -3.50498 0
M  V30 550 C 52.5285 -0.432903 -4.48817 0
M  V30 551 C 51.1905 -0.743622 -4.75419 0
M  V30 552 C 53.5425 -1.19409 -5.07337 0
M  V30 553 C 50.8705 -1.81857 -5.57804 0
M  V30 554 C 53.2225 -2.25899 -5.90891 0
M  V30 555 C 51.8865 -2.57572 -6.15803 0
M  V30 556 H 51.1565 0.110619 -0.732697 0
M  V30 557 H 53.8035 -0.425674 -1.86709 0
M  V30 558 H 52.1085 1.50711 -3.61654 0
M  V30 559 H 53.8055 1.1806 -3.83227 0
M  V30 560 H 50.3955 -0.18063 -4.28219 0
M  V30 561 H 54.5795 -0.967295 -4.86782 0
M  V30 562 H 49.8355 -2.06864 -5.75341 0
M  V30 563 H 54.0095 -2.85335 -6.35261 0
M  V30 564 H 51.6365 -3.40998 -6.7943 0
M  V30 565 N 53.2116 1.57565 -0.0334293 0
M  V30 566 C 54.6226 1.79746 0.504798 0
M  V30 567 C 54.9736 0.944091 1.71992 0
M  V30 568 O 54.0986 0.155694 2.15839 0
M  V30 569 C 54.6936 3.25997 0.922567 0
M  V30 570 C 53.2526 3.49159 1.40588 0
M  V30 571 C 52.3996 2.74785 0.372633 0
M  V30 572 H 55.3506 1.56565 -0.259436 0
M  V30 573 H 55.3716 3.35945 1.78666 0
M  V30 574 H 54.8836 3.88081 0.0379825 0
M  V30 575 H 52.9846 2.92332 2.31025 0
M  V30 576 H 53.0976 4.57873 1.41028 0
M  V30 577 H 51.4616 2.40391 0.841672 0
M  V30 578 H 52.2446 3.39587 -0.503559 0
M  V30 579 N 54.6897 -0.239769 1.55765 0
M  V30 580 C 55.5997 -1.31831 1.94056 0
M  V30 581 C 56.6157 -1.52275 0.841925 0
M  V30 582 O 57.7917 -1.65759 1.14394 0
M  V30 583 C 54.8567 -2.65156 2.23368 0
M  V30 584 C 53.9177 -2.53173 3.46701 0
M  V30 585 C 53.1507 -3.8014 3.74606 0
M  V30 586 O 53.3737 -4.82343 3.04469 0
M  V30 587 O 52.3077 -3.78344 4.68123 0
M  V30 588 H 56.1337 -1.02347 2.85935 0
M  V30 589 H 53.7187 -0.441123 1.42739 0
M  V30 590 H 55.6007 -3.43929 2.43497 0
M  V30 591 H 54.2757 -2.94358 1.34666 0
M  V30 592 H 53.1827 -1.72662 3.31871 0
M  V30 593 H 54.5157 -2.28915 4.35728 0
M  V30 594 N 56.1678 -1.49265 -0.50573 0
M  V30 595 C 57.0978 -1.68495 -1.61653 0
M  V30 596 C 58.0788 -0.53366 -1.61512 0
M  V30 597 O 59.2638 -0.76897 -1.78327 0
M  V30 598 C 56.3938 -1.74709 -3.00157 0
M  V30 599 C 55.3478 -2.89581 -3.15162 0
M  V30 600 C 54.6738 -2.80903 -4.5497 0
M  V30 601 C 55.9738 -4.30578 -2.95634 0
M  V30 602 H 57.6678 -2.61493 -1.45814 0
M  V30 603 H 55.2138 -1.25838 -0.70005 0
M  V30 604 H 57.1668 -1.86748 -3.77761 0
M  V30 605 H 55.8908 -0.783067 -3.17074 0
M  V30 606 H 54.5498 -2.77136 -2.39982 0
M  V30 607 H 54.1978 -1.82419 -4.68756 0
M  V30 608 H 53.8978 -3.57999 -4.65951 0
M  V30 609 H 55.4218 -2.94944 -5.34641 0
M  V30 610 H 56.8358 -4.4373 -3.63011 0
M  V30 611 H 55.2328 -5.0886 -3.18091 0
M  V30 612 H 56.3028 -4.45352 -1.91806 0
M  V30 613 N 57.6459 0.756429 -1.3826 0
M  V30 614 C 59.0569 1.33359 -1.30661 0
M  V30 615 C 59.4079 1.96161 0.0388875 0
M  V30 616 O 58.5329 1.94874 0.940918 0
M  V30 617 C 59.1279 2.42477 -2.36622 0
M  V30 618 C 57.6869 2.95922 -2.3261 0
M  V30 619 C 56.8339 1.69275 -2.19639 0
M  V30 620 H 59.7849 0.55552 -1.4866 0
M  V30 621 H 59.8059 3.22345 -2.02174 0
M  V30 622 H 59.3179 1.96739 -3.34538 0
M  V30 623 H 57.4189 3.45996 -1.38267 0
M  V30 624 H 57.5319 3.50494 -3.26636 0
M  V30 625 H 55.8959 1.92793 -1.66442 0
M  V30 626 H 56.6789 1.25619 -3.19491 0
M  V30 627 N 59.124 1.23083 0.984299 0
M  V30 628 C 60.087 1.00979 2.05757 0
M  V30 629 C 61.087 -0.0269573 1.60777 0
M  V30 630 O 62.277 0.212403 1.729 0
M  V30 631 C 59.409 0.527072 3.36801 0
M  V30 632 H 60.602 1.9622 2.26799 0
M  V30 633 H 58.155 1.05072 1.15714 0
M  V30 634 H 58.89 -0.429294 3.21446 0
M  V30 635 H 58.675 1.27515 3.70786 0
M  V30 636 H 60.165 0.392942 4.15747 0
M  V30 637 N 60.6021 -1.18246 1.0419 0
M  V30 638 C 61.5651 -2.20128 0.638452 0
M  V30 639 C 62.5651 -1.57885 -0.304805 0
M  V30 640 O 63.7551 -1.73967 -0.0900369 0
M  V30 641 C 60.8871 -3.4084 -0.0637751 0
M  V30 642 H 62.0801 -2.57336 1.54007 0
M  V30 643 H 59.6331 -1.32152 0.834598 0
M  V30 644 H 60.3681 -3.09166 -0.979136 0
M  V30 645 H 60.1531 -3.8726 0.614198 0
M  V30 646 H 61.6431 -4.16274 -0.332512 0
M  V30 647 N 62.0802 -0.821533 -1.34494 0
M  V30 648 C 63.4912 -0.467956 -1.8074 0
M  V30 649 C 63.8422 1.01151 -1.68116 0
M  V30 650 O 62.9672 1.78707 -1.22036 0
M  V30 651 C 63.5622 -0.842627 -3.28154 0
M  V30 652 C 62.1212 -0.541439 -3.72485 0
M  V30 653 C 61.2682 -1.06028 -2.56229 0
M  V30 654 H 64.2192 -1.01183 -1.22261 0
M  V30 655 H 64.2402 -0.145876 -3.8022 0
M  V30 656 H 63.7522 -1.91945 -3.37311 0
M  V30 657 H 61.8532 0.526034 -3.68868 0
M  V30 658 H 61.9662 -1.08453 -4.66663 0
M  V30 659 H 60.3302 -0.481892 -2.501 0
M  V30 660 H 61.1132 -2.14352 -2.68157 0
M  V30 661 N 63.5583 1.46682 -0.576371 0
M  V30 662 C 64.7883 2.06498 -0.0648694 0
M  V30 663 C 65.1963 1.42665 1.24271 0
M  V30 664 O 64.5393 0.523886 1.76071 0
M  V30 665 C 64.6013 3.5904 0.181816 0
M  V30 666 C 64.2653 4.45028 -1.0392 0
M  V30 667 C 65.2623 4.81959 -1.94966 0
M  V30 668 C 62.9473 4.86259 -1.25927 0
M  V30 669 C 64.9413 5.58942 -3.06371 0
M  V30 670 C 62.6283 5.63002 -2.37638 0
M  V30 671 C 63.6263 5.99257 -3.2769 0
M  V30 672 O 63.3143 6.7445 -4.37461 0
M  V30 673 H 63.0463 0.674028 -0.0515987 0
M  V30 674 H 65.6003 1.89393 -0.794951 0
M  V30 675 H 63.8303 3.74429 0.966436 0
M  V30 676 H 65.5193 4.00806 0.641047 0
M  V30 677 H 66.2853 4.50689 -1.79177 0
M  V30 678 H 62.1643 4.57494 -0.567448 0
M  V30 679 H 65.7083 5.87158 -3.76684 0
M  V30 680 H 61.6053 5.93686 -2.53392 0
M  V30 681 H 62.3733 6.92867 -4.35749 0
M  V30 682 N 65.0364 0.313813 1.54444 0
M  V30 683 C 66.2844 -0.291099 1.99993 0
M  V30 684 C 66.6054 -1.53418 1.20366 0
M  V30 685 O 65.8754 -1.93544 0.302927 0
M  V30 686 H 64.4554 -0.110552 0.738774 0
M  V30 687 H 67.1174 0.428106 1.9014 0
M  V30 688 H 66.2134 -0.554268 3.07139 0
M  V30 689 N 66.5145 -1.57545 0.0417849 0
M  V30 690 C 67.7625 -1.91937 -0.632829 0
M  V30 691 C 68.0835 -0.919978 -1.71934 0
M  V30 692 O 67.3535 0.0366064 -1.95866 0
M  V30 693 H 65.9335 -0.708493 -0.236742 0
M  V30 694 H 68.5955 -1.9468 0.0925745 0
M  V30 695 H 67.6915 -2.92912 -1.07746 0
M  V30 696 N 67.9926 0.231505 -1.5589 0
M  V30 697 C 69.4036 0.799327 -1.68724 0
M  V30 698 C 69.7546 1.85398 -0.642022 0
M  V30 699 O 68.8796 2.1539 0.208784 0
M  V30 700 C 69.4746 1.45664 -3.05888 0
M  V30 701 C 68.0336 1.97197 -3.20609 0
M  V30 702 C 67.1806 0.828552 -2.64632 0
M  V30 703 H 70.1316 0.00702616 -1.58698 0
M  V30 704 H 70.1526 2.32517 -3.01191 0
M  V30 705 H 69.6646 0.688808 -3.81939 0
M  V30 706 H 67.7656 2.76813 -2.4941 0
M  V30 707 H 67.8786 2.15878 -4.27707 0
M  V30 708 H 66.2426 1.23321 -2.22854 0
M  V30 709 H 67.0256 0.0735544 -3.43221 0
M  V30 710 N 69.4707 1.49531 0.497807 0
M  V30 711 C 70.7107 1.60799 1.26187 0
M  V30 712 C 71.0747 0.289627 1.89803 0
M  V30 713 O 72.2757 0.277512 2.67364 0
M  V30 714 C 70.5467 2.73729 2.29798 0
M  V30 715 S 72.1057 3.04968 3.155 0
M  V30 716 H 68.9237 0.567145 0.428798 0
M  V30 717 H 71.5257 1.87204 0.563477 0
M  V30 718 H 70.2297 3.68036 1.81597 0
M  V30 719 H 69.7607 2.49328 3.04301 0
M  V30 720 H 71.7757 2.46735 4.30507 0
M  V30 721 N 70.9488 -0.749086 1.3866 0
M  V30 722 C 72.3648 -1.05276 1.19955 0
M  V30 723 C 72.5648 -2.01435 0.05134 0
M  V30 724 O 71.6208 -2.45232 -0.60147 0
M  V30 725 C 72.9338 -1.62853 2.52783 0
M  V30 726 C 74.4818 -1.75002 2.59506 0
M  V30 727 C 74.9568 -2.35991 3.92521 0
M  V30 728 N 76.4478 -2.43416 3.94085 0
M  V30 729 C 77.1828 -2.91511 4.9377 0
M  V30 730 N 76.6788 -3.39608 6.03853 0
M  V30 731 N 78.4718 -2.90592 4.81157 0
M  V30 732 H 70.6228 -0.111066 2.12109 0
M  V30 733 H 72.8858 -0.111901 0.941373 0
M  V30 734 H 72.5918 -0.99664 3.37283 0
M  V30 735 H 72.4658 -2.61854 2.715 0
M  V30 736 H 74.8528 -2.37317 1.75398 0
M  V30 737 H 74.9338 -0.74693 2.44652 0
M  V30 738 H 74.5778 -1.74308 4.77053 0
M  V30 739 H 74.5078 -3.3695 4.04688 0
M  V30 740 H 76.9988 -2.09405 3.14576 0
M  V30 741 H 77.3118 -3.74775 6.75843 0
M  V30 742 H 75.6568 -3.37653 6.07466 0
M  V30 743 H 78.8478 -2.52332 3.94267 0
M  V30 744 H 79.0208 -3.27762 5.58996 0
M  V30 745 N 72.4269 -1.23603 -0.977757 0
M  V30 746 C 73.8379 -1.06424 -1.53398 0
M  V30 747 C 74.1889 0.367578 -1.92726 0
M  V30 748 O 73.3139 1.25465 -1.76316 0
M  V30 749 C 73.9089 -1.92568 -2.78753 0
M  V30 750 C 72.4679 -1.79642 -3.30765 0
M  V30 751 C 71.6149 -1.88111 -2.03739 0
M  V30 752 H 74.5659 -1.37227 -0.797152 0
M  V30 753 H 74.5869 -1.45203 -3.51705 0
M  V30 754 H 74.0989 -2.96771 -2.50098 0
M  V30 755 H 72.1999 -0.782325 -3.64294 0
M  V30 756 H 72.3129 -2.63174 -4.00345 0
M  V30 757 H 70.6769 -1.31723 -2.17994 0
M  V30 758 H 71.4599 -2.93875 -1.77461 0
M  V30 759 N 73.905 1.17692 -1.04816 0
M  V30 760 C 75.316 1.69501 -0.782698 0
M  V30 761 C 75.667 1.83456 0.695577 0
M  V30 762 O 74.792 1.51942 1.54086 0
M  V30 763 C 75.387 3.07874 -1.41419 0
M  V30 764 C 73.946 3.56864 -1.19686 0
M  V30 765 C 73.093 2.3322 -1.50012 0
M  V30 766 H 76.044 1.02262 -1.2136 0
M  V30 767 H 76.065 3.71528 -0.821428 0
M  V30 768 H 75.577 2.97685 -2.49009 0
M  V30 769 H 73.678 3.72337 -0.140043 0
M  V30 770 H 73.791 4.39851 -1.89916 0
M  V30 771 H 72.155 2.37501 -0.920071 0
M  V30 772 H 72.938 2.25644 -2.58727 0
M  V30 773 N 75.3831 0.828654 1.34056 0
M  V30 774 C 76.3151 0.212052 2.28217 0
M  V30 775 C 77.3281 -0.601362 1.51286 0
M  V30 776 O 78.5171 -0.430104 1.73241 0
M  V30 777 C 75.6171 -0.72088 3.31144 0
M  V30 778 C 74.7901 0.0509587 4.3737 0
M  V30 779 C 73.8491 -0.803766 5.20025 0
M  V30 780 O 72.8751 -0.246667 5.68665 0
M  V30 781 N 74.0771 -2.1227 5.40298 0
M  V30 782 H 76.8421 1.02105 2.81771 0
M  V30 783 H 74.4031 0.686153 1.46641 0
M  V30 784 H 76.3951 -1.29742 3.8334 0
M  V30 785 H 74.9651 -1.43061 2.77943 0
M  V30 786 H 74.1851 0.808831 3.85813 0
M  V30 787 H 75.4731 0.582065 5.0546 0
M  V30 788 H 74.8711 -2.59898 5.02464 0
M  V30 789 H 73.4281 -2.64796 5.95589 0
M  V30 790 N 76.8612 -1.46375 0.584142 0
M  V30 791 C 77.8112 -2.27371 -0.169232 0
M  V30 792 C 78.7952 -1.35955 -0.860523 0
M  V30 793 O 79.9872 -1.60119 -0.754382 0
M  V30 794 C 77.1162 -3.22334 -1.18134 0
M  V30 795 C 76.2022 -4.21235 -0.492088 0
M  V30 796 N 76.5932 -5.03766 0.453129 0
M  V30 797 C 74.8912 -4.39773 -0.742652 0
M  V30 798 C 75.5922 -5.75366 0.85609 0
M  V30 799 N 74.5682 -5.43214 0.204926 0
M  V30 800 H 78.3702 -2.88572 0.557097 0
M  V30 801 H 75.8842 -1.57242 0.406042 0
M  V30 802 H 77.8812 -3.79071 -1.73525 0
M  V30 803 H 76.5412 -2.62693 -1.90847 0
M  V30 804 H 77.5522 -5.11227 0.828723 0
M  V30 805 H 74.2292 -3.91279 -1.45625 0
M  V30 806 H 75.6192 -6.5172 1.63434 0
M  V30 807 N 78.3393 -0.321999 -1.54275 0
M  V30 808 C 79.5673 0.283052 -2.04955 0
M  V30 809 C 79.9823 1.45904 -1.19823 0
M  V30 810 O 79.3393 1.81063 -0.228545 0
M  V30 811 C 79.3903 0.719028 -3.54277 0
M  V30 812 O 79.1113 -0.410175 -4.36176 0
M  V30 813 C 80.6123 1.38705 -4.21041 0
M  V30 814 H 77.8323 0.0584616 -0.668448 0
M  V30 815 H 80.3763 -0.467734 -1.99079 0
M  V30 816 H 78.5313 1.41979 -3.60445 0
M  V30 817 H 78.9453 -0.0669416 -5.24457 0
M  V30 818 H 80.4193 1.64306 -5.2698 0
M  V30 819 H 80.8963 2.33385 -3.72059 0
M  V30 820 H 81.5023 0.728906 -4.19007 0
M  V30 821 N 79.8174 1.5752 -0.0501392 0
M  V30 822 C 81.0424 1.97376 0.636997 0
M  V30 823 C 81.4674 0.927466 1.63645 0
M  V30 824 O 80.8254 -0.10941 1.8097 0
M  V30 825 C 80.8734 3.36304 1.30123 0
M  V30 826 O 79.9774 3.34156 2.41689 0
M  V30 827 H 79.3184 0.642998 0.165679 0
M  V30 828 H 81.8484 2.04258 -0.118233 0
M  V30 829 H 81.8584 3.73008 1.65315 0
M  V30 830 H 80.5334 4.11993 0.568746 0
M  V30 831 H 79.1104 3.09196 2.08451 0
M  V30 832 N 81.2955 -0.223234 1.56011 0
M  V30 833 C 82.2425 -1.27664 1.92277 0
M  V30 834 C 83.2125 -1.46659 0.779763 0
M  V30 835 O 84.3975 -1.60256 1.03551 0
M  V30 836 C 81.5375 -2.62234 2.24338 0
M  V30 837 C 80.6505 -2.51051 3.51564 0
M  V30 838 C 79.7855 -3.78133 3.7308 0
M  V30 839 C 78.8245 -3.61665 4.93827 0
M  V30 840 N 77.9615 -4.80693 5.11741 0
M  V30 841 H 82.8015 -0.960358 2.82101 0
M  V30 842 H 80.3385 -0.462901 1.39627 0
M  V30 843 H 82.2965 -3.40596 2.40936 0
M  V30 844 H 80.9265 -2.91961 1.3769 0
M  V30 845 H 79.9785 -1.64132 3.43169 0
M  V30 846 H 81.2905 -2.34803 4.40079 0
M  V30 847 H 80.4445 -4.64938 3.89766 0
M  V30 848 H 79.1835 -3.97304 2.82844 0
M  V30 849 H 78.1885 -2.73244 4.77093 0
M  V30 850 H 79.4135 -3.43966 5.85546 0
M  V30 851 H 77.3595 -5.00181 4.24446 0
M  V30 852 H 77.2765 -4.67165 5.94384 0
M  V30 853 H 78.5445 -5.6893 5.3286 0
M  V30 854 N 82.7736 -1.49793 -0.48987 0
M  V30 855 C 83.7366 -1.66752 -1.57246 0
M  V30 856 C 84.7366 -0.538867 -1.51502 0
M  V30 857 O 85.9266 -0.805545 -1.54456 0
M  V30 858 C 83.0586 -1.67528 -2.96896 0
M  V30 859 H 84.2516 -2.63321 -1.43534 0
M  V30 860 H 81.8046 -1.38992 -0.714914 0
M  V30 861 H 82.5396 -0.725837 -3.16073 0
M  V30 862 H 82.3246 -2.49504 -3.02473 0
M  V30 863 H 83.8146 -1.82667 -3.7553 0
M  V30 864 N 84.2517 0.741722 -1.39055 0
M  V30 865 C 85.2147 1.83733 -1.37021 0
M  V30 866 C 86.2147 1.58542 -0.268534 0
M  V30 867 O 87.4047 1.66067 -0.526076 0
M  V30 868 C 84.5367 3.2141 -1.13617 0
M  V30 869 H 85.7297 1.86941 -2.34506 0
M  V30 870 H 83.2827 0.944676 -1.24521 0
M  V30 871 H 84.0177 3.23865 -0.167863 0
M  V30 872 H 83.8027 3.4109 -1.93391 0
M  V30 873 H 85.2927 4.01477 -1.14918 0
M  V30 874 N 85.7298 1.2412 0.971189 0
M  V30 875 C 86.6928 1.03156 2.04674 0
M  V30 876 C 87.6928 -0.00990322 1.60797 0
M  V30 877 O 88.8828 0.230729 1.72665 0
M  V30 878 C 86.0148 0.562765 3.36223 0
M  V30 879 H 87.2078 1.98614 2.24705 0
M  V30 880 H 84.7608 1.06293 1.14593 0
M  V30 881 H 85.4958 -0.395176 3.21883 0
M  V30 882 H 85.2808 1.31441 3.69413 0
M  V30 883 H 86.7708 0.437015 4.15307 0
M  V30 884 N 87.2079 -1.17134 1.05439 0
M  V30 885 C 88.6189 -1.69084 0.791676 0
M  V30 886 C 88.9699 -1.83822 -0.685839 0
M  V30 887 O 88.0949 -1.52757 -1.53278 0
M  V30 888 C 88.6899 -3.07119 1.4305 0
M  V30 889 C 87.2489 -3.56225 1.21577 0
M  V30 890 C 86.3959 -2.32421 1.51247 0
M  V30 891 H 89.3469 -1.01617 1.219 0
M  V30 892 H 89.3679 -3.71087 0.84112 0
M  V30 893 H 88.8799 -2.9636 2.50584 0
M  V30 894 H 86.9809 -3.72257 0.159787 0
M  V30 895 H 87.0939 -4.38837 1.92246 0
M  V30 896 H 85.4579 -2.3701 0.932653 0
M  V30 897 H 86.2409 -2.24268 2.5992 0
M  V30 898 N 88.686 -0.835752 -1.33615 0
M  V30 899 C 90.102 -0.523139 -1.50783 0
M  V30 900 C 90.302 0.950171 -1.77691 0
M  V30 901 O 89.358 1.73411 -1.83534 0
M  V30 902 C 90.671 -1.39378 -2.66448 0
M  V30 903 C 92.219 -1.39223 -2.80332 0
M  V30 904 C 92.694 -2.24765 -3.99055 0
M  V30 905 N 94.185 -2.22458 -4.06284 0
M  V30 906 C 94.92 -2.85386 -4.97336 0
M  V30 907 N 94.416 -3.57354 -5.93523 0
M  V30 908 N 96.209 -2.74872 -4.90308 0
M  V30 909 H 88.36 -1.78952 -1.14411 0
M  V30 910 H 90.623 -0.763297 -0.562212 0
M  V30 911 H 90.329 -2.44061 -2.53234 0
M  V30 912 H 90.203 -1.0676 -3.61776 0
M  V30 913 H 92.59 -0.353136 -2.92979 0
M  V30 914 H 92.671 -1.75846 -1.85773 0
M  V30 915 H 92.315 -3.28732 -3.87167 0
M  V30 916 H 92.245 -1.85485 -4.92852 0
M  V30 917 H 94.736 -1.70119 -3.37443 0
M  V30 918 H 95.049 -4.02584 -6.59656 0
M  V30 919 H 93.394 -3.61461 -5.93608 0
M  V30 920 H 96.585 -2.18213 -4.14126 0
M  V30 921 H 96.758 -3.24199 -5.61069 0
M  V30 922 N 90.1641 1.46063 -0.591896 0
M  V30 923 C 91.4131 2.01547 -0.0786637 0
M  V30 924 C 91.7261 1.46796 1.29268 0
M  V30 925 O 92.9321 1.94157 1.89777 0
M  V30 926 C 91.3881 3.59787 -0.0900024 0
M  V30 927 C 90.9961 4.23534 -1.46023 0
M  V30 928 C 92.7401 4.22895 0.368806 0
M  V30 929 C 90.6471 5.73881 -1.4288 0
M  V30 930 H 89.5771 0.753564 -0.0256388 0
M  V30 931 H 92.2281 1.677 -0.744905 0
M  V30 932 H 90.6101 3.90752 0.642586 0
M  V30 933 H 91.7841 4.04167 -2.21328 0
M  V30 934 H 90.0991 3.72558 -1.85982 0
M  V30 935 H 92.6961 5.33116 0.411258 0
M  V30 936 H 93.0391 3.9247 1.38827 0
M  V30 937 H 93.5721 3.9659 -0.31001 0
M  V30 938 H 90.3111 6.0898 -2.42536 0
M  V30 939 H 89.8311 5.95486 -0.718095 0
M  V30 940 H 91.5101 6.36776 -1.14565 0
M  V30 941 N 91.6422 0.330177 1.54103 0
M  V30 942 C 93.0532 -0.15652 1.86043 0
M  V30 943 C 93.4042 -1.51086 1.2517 0
M  V30 944 O 92.5292 -2.09023 0.560217 0
M  V30 945 C 93.1242 -0.290784 3.3755 0
M  V30 946 C 91.6832 -0.721705 3.69416 0
M  V30 947 C 90.8302 0.152622 2.7688 0
M  V30 948 H 93.7812 0.550237 1.48856 0
M  V30 949 H 93.8022 -1.12058 3.63625 0
M  V30 950 H 93.3142 0.695068 3.81825 0
M  V30 951 H 91.4152 -1.71706 3.30678 0
M  V30 952 H 91.5282 -0.520869 4.7626 0
M  V30 953 H 89.8922 -0.372894 2.51956 0
M  V30 954 H 90.6752 1.13536 3.23982 0
M  V30 955 N 93.1203 -1.57491 0.0584922 0
M  V30 956 C 94.0833 -2.1085 -0.898617 0
M  V30 957 C 95.0833 -1.02964 -1.23511 0
M  V30 958 O 96.2733 -1.29007 -1.17059 0
M  V30 959 C 93.4053 -2.59881 -2.20623 0
M  V30 960 H 94.5983 -2.96715 -0.435936 0
M  V30 961 H 92.1513 -1.55141 -0.190023 0
M  V30 962 H 92.8863 -1.77431 -2.71457 0
M  V30 963 H 92.6713 -3.38727 -1.97501 0
M  V30 964 H 94.1613 -3.01285 -2.89166 0
M  V30 965 N 94.5984 0.214957 -1.56127 0
M  V30 966 C 95.8754 0.963093 -1.70247 0
M  V30 967 C 96.2554 2.02166 -0.60764 0
M  V30 968 O 95.6034 2.25244 0.384385 0
M  V30 969 C 95.8134 1.56756 -3.11815 0
M  V30 970 C 97.1614 2.0573 -3.7143 0
M  V30 971 O 98.1854 1.66637 -3.14818 0
M  V30 972 O 97.0444 2.77603 -4.70743 0
M  V30 973 H 94.1384 0.450321 -0.693643 0
M  V30 974 H 96.6844 0.206219 -1.68442 0
M  V30 975 H 95.4564 0.803533 -3.82961 0
M  V30 976 H 95.0794 2.3898 -3.17765 0
M  V30 977 N 96.0765 1.50051 0.48192 0
M  V30 978 C 97.4925 1.37237 0.814756 0
M  V30 979 C 97.6925 0.420109 1.97072 0
M  V30 980 O 96.7485 -0.141246 2.52105 0
M  V30 981 C 98.0615 2.78375 1.13701 0
M  V30 982 C 99.6095 2.87213 1.2441 0
M  V30 983 C 100.084 4.29161 1.59954 0
M  V30 984 N 101.575 4.32061 1.66967 0
M  V30 985 C 102.31 5.38879 1.95952 0
M  V30 986 N 101.806 6.55918 2.23031 0
M  V30 987 N 103.599 5.26312 1.97363 0
M  V30 988 H 95.7505 2.10546 -0.28005 0
M  V30 989 H 98.0135 0.945921 -0.0627454 0
M  V30 990 H 97.7195 3.49845 0.360787 0
M  V30 991 H 97.5935 3.14941 2.07586 0
M  V30 992 H 99.9805 2.15969 2.01101 0
M  V30 993 H 100.061 2.54204 0.285299 0
M  V30 994 H 99.7055 5.00938 0.838067 0
M  V30 995 H 99.6355 4.59648 2.56966 0
M  V30 996 H 102.126 3.47661 1.48123 0
M  V30 997 H 102.439 7.33139 2.44391 0
M  V30 998 H 100.784 6.59112 2.20447 0
M  V30 999 H 103.975 4.33876 1.75697 0
M  V30 1000 H 104.148 6.09649 2.19618 0
M  V30 1001 N 97.5546 -0.734337 1.39446 0
M  V30 1002 C 98.4846 -1.86155 1.40955 0
M  V30 1003 C 99.4656 -1.67898 0.272827 0
M  V30 1004 O 100.651 -1.88207 0.478743 0
M  V30 1005 C 97.7806 -3.23912 1.25294 0
M  V30 1006 C 96.7346 -3.56808 2.36373 0
M  V30 1007 C 96.0606 -4.93508 2.058 0
M  V30 1008 C 97.3606 -3.59713 3.78687 0
M  V30 1009 H 99.0546 -1.8515 2.35287 0
M  V30 1010 H 96.6006 -0.889367 1.13253 0
M  V30 1011 H 98.5536 -4.02443 1.2497 0
M  V30 1012 H 97.2776 -3.25446 0.274308 0
M  V30 1013 H 95.9366 -2.80606 2.35914 0
M  V30 1014 H 95.5846 -4.91623 1.06374 0
M  V30 1015 H 95.2846 -5.16486 2.80208 0
M  V30 1016 H 96.8086 -5.74396 2.07128 0
M  V30 1017 H 98.2226 -4.2832 3.81071 0
M  V30 1018 H 96.6196 -3.94209 4.52459 0
M  V30 1019 H 97.6896 -2.59504 4.09617 0
M  V30 1020 N 99.0327 -1.24633 -0.964593 0
M  V30 1021 C 100.444 -1.08045 -1.5226 0
M  V30 1022 C 100.795 0.347116 -1.93105 0
M  V30 1023 O 99.9197 1.23588 -1.77637 0
M  V30 1024 C 100.515 -1.95514 -2.76695 0
M  V30 1025 C 99.0737 -1.8314 -3.28841 0
M  V30 1026 C 98.2207 -1.90262 -2.01732 0
M  V30 1027 H 101.172 -1.38064 -0.782553 0
M  V30 1028 H 101.193 -1.48925 -3.50145 0
M  V30 1029 H 100.705 -2.99407 -2.46936 0
M  V30 1030 H 98.8057 -0.82092 -3.63444 0
M  V30 1031 H 98.9187 -2.67406 -3.97531 0
M  V30 1032 H 97.2827 -1.34027 -2.16584 0
M  V30 1033 H 98.0657 -2.9574 -1.74334 0
M  V30 1034 N 100.511 1.16574 -1.06058 0
M  V30 1035 C 101.459 2.22941 -0.663343 0
M  V30 1036 C 102.453 1.66358 0.319593 0
M  V30 1037 O 103.659 1.7905 0.184713 0
M  V30 1038 H 100.034 0.725907 -0.196376 0
M  V30 1039 H 102.005 2.53736 -1.57037 0
M  V30 1040 C 100.754 3.47642 -0.0632808 0
M  V30 1041 H 100.077 3.91493 -0.810733 0
M  V30 1042 H 101.517 4.2363 0.177177 0
M  V30 1043 C 99.9758 3.1509 1.19248 0
M  V30 1044 O 100.506 3.30673 2.28075 0
M  V30 1045 N 98.7118 2.6924 1.09353 0
M  V30 1046 H 98.2588 2.5676 0.207912 0
M  V30 1047 H 98.2168 2.47833 1.93458 0
M  V30 1048 N 101.989 0.842826 1.3317 0
M  V30 1049 C 102.939 0.250877 2.26616 0
M  V30 1050 C 103.923 -0.596427 1.49437 0
M  V30 1051 O 105.115 -0.447747 1.71243 0
M  V30 1052 C 102.244 -0.569779 3.38539 0
M  V30 1053 C 101.33 0.289254 4.23112 0
M  V30 1054 N 101.721 1.36987 4.86897 0
M  V30 1055 C 100.019 0.0769631 4.45934 0
M  V30 1056 C 100.72 1.89737 5.49886 0
M  V30 1057 N 99.6959 1.19827 5.30229 0
M  V30 1058 H 103.498 1.07718 2.73448 0
M  V30 1059 H 101.012 0.687693 1.47121 0
M  V30 1060 H 103.009 -1.01018 4.04476 0
M  V30 1061 H 101.669 -1.39401 2.93253 0
M  V30 1062 H 102.68 1.75277 4.87338 0
M  V30 1063 H 99.3569 -0.713507 4.11358 0
M  V30 1064 H 100.747 2.80253 6.10662 0
M  V30 1065 N 103.467 -1.45747 0.599634 0
M  V30 1066 C 104.713 -2.02592 0.0918643 0
M  V30 1067 C 105.046 -1.46806 -1.27128 0
M  V30 1068 O 104.321 -0.639658 -1.83681 0
M  V30 1069 C 104.604 -3.60073 0.0443398 0
M  V30 1070 C 104.457 -4.26208 1.43759 0
M  V30 1071 C 105.776 -4.35309 -0.647608 0
M  V30 1072 H 102.895 -0.736175 0.034857 0
M  V30 1073 H 105.537 -1.73694 0.770081 0
M  V30 1074 H 103.687 -3.84823 -0.533224 0
M  V30 1075 H 105.359 -4.12668 2.06162 0
M  V30 1076 H 103.602 -3.84916 2.00056 0
M  V30 1077 H 104.273 -5.35069 1.35665 0
M  V30 1078 H 106.749 -4.15805 -0.156776 0
M  V30 1079 H 105.625 -5.45038 -0.649942 0
M  V30 1080 H 105.886 -4.07598 -1.71219 0
M  V30 1081 N 104.945 -0.338344 -1.53925 0
M  V30 1082 C 105.908 0.508299 -2.23493 0
M  V30 1083 C 106.908 1.03175 -1.23335 0
M  V30 1084 O 108.098 0.921826 -1.47811 0
M  V30 1085 C 105.23 1.70754 -2.95052 0
M  V30 1086 H 106.423 -0.100058 -2.99733 0
M  V30 1087 H 103.976 -0.0896198 -1.56043 0
M  V30 1088 H 104.711 2.35474 -2.22986 0
M  V30 1089 H 104.496 1.33946 -3.68512 0
M  V30 1090 H 105.986 2.30818 -3.48013 0
M  V30 1091 N 106.423 1.57458 -0.0668435 0
M  V30 1092 C 107.672 1.92477 0.602947 0
M  V30 1093 C 107.985 0.948419 1.71068 0
M  V30 1094 O 109.191 1.19124 2.43971 0
M  V30 1095 C 107.647 3.41903 1.12383 0
M  V30 1096 C 107.255 4.47975 0.04737 0
M  V30 1097 C 108.999 3.85931 1.76797 0
M  V30 1098 C 106.906 5.88529 0.582022 0
M  V30 1099 H 105.836 0.718387 0.22899 0
M  V30 1100 H 108.487 1.82978 -0.138276 0
M  V30 1101 H 106.869 3.46459 1.91787 0
M  V30 1102 H 108.043 4.55029 -0.726978 0
M  V30 1103 H 106.358 4.13384 -0.500243 0
M  V30 1104 H 108.955 4.88322 2.17821 0
M  V30 1105 H 109.298 3.23029 2.62599 0
M  V30 1106 H 109.831 3.83958 1.04024 0
M  V30 1107 H 106.57 6.55065 -0.238721 0
M  V30 1108 H 106.09 5.85004 1.324 0
M  V30 1109 H 107.769 6.38258 1.05999 0
M  V30 1110 N 107.901 -0.206675 1.56239 0
M  V30 1111 C 109.147 -0.930218 1.80208 0
M  V30 1112 C 109.48 -1.83387 0.638981 0
M  V30 1113 O 108.755 -1.91119 -0.361066 0
M  V30 1114 C 109.038 -1.75641 3.1436 0
M  V30 1115 C 108.891 -0.878257 4.41142 0
M  V30 1116 C 110.21 -2.73129 3.45092 0
M  V30 1117 H 107.329 -0.336742 0.655571 0
M  V30 1118 H 109.971 -0.198222 1.88963 0
M  V30 1119 H 108.121 -2.38048 3.07027 0
M  V30 1120 H 109.793 -0.269787 4.6051 0
M  V30 1121 H 108.036 -0.184385 4.33408 0
M  V30 1122 H 108.707 -1.49106 5.3148 0
M  V30 1123 H 111.183 -2.20856 3.52649 0
M  V30 1124 H 110.059 -3.28028 4.40101 0
M  V30 1125 H 110.32 -3.51606 2.68003 0
M  V30 1126 N 109.379 -1.50304 -0.473955 0
M  V30 1127 C 110.312 -1.63595 -1.59097 0
M  V30 1128 C 111.29 -0.484142 -1.55225 0
M  V30 1129 O 112.474 -0.703271 -1.7489 0
M  V30 1130 C 109.601 -1.61589 -2.97669 0
M  V30 1131 C 108.647 -2.82295 -3.19705 0
M  V30 1132 S 109.48 -4.43635 -2.99913 0
M  V30 1133 C 110.636 -4.44317 -4.40832 0
M  V30 1134 H 110.869 -2.58082 -1.47583 0
M  V30 1135 H 108.402 -1.39531 -0.661087 0
M  V30 1136 H 110.36 -1.61116 -3.7756 0
M  V30 1137 H 109.021 -0.683421 -3.06575 0
M  V30 1138 H 108.214 -2.77188 -4.20931 0
M  V30 1139 H 107.816 -2.8032 -2.47582 0
M  V30 1140 H 110.108 -4.17703 -5.33414 0
M  V30 1141 H 111.051 -5.45911 -4.50984 0
M  V30 1142 H 111.459 -3.74059 -4.22777 0
M  V30 1143 N 110.857 0.726932 -1.39834 0
M  V30 1144 C 112.134 1.47902 -1.28001 0
M  V30 1145 C 112.514 2.1083 0.106789 0
M  V30 1146 O 111.862 1.99242 1.11869 0
M  V30 1147 C 112.072 2.52392 -2.41038 0
M  V30 1148 C 113.42 3.18546 -2.80737 0
M  V30 1149 O 114.444 2.62708 -2.40547 0
M  V30 1150 O 113.303 4.19604 -3.50135 0
M  V30 1151 H 110.397 0.657163 -0.502062 0
M  V30 1152 H 112.943 0.760071 -1.51727 0
M  V30 1153 H 111.715 2.04329 -3.33715 0
M  V30 1154 H 111.338 3.31837 -2.19021 0
M  V30 1155 N 112.336 1.25143 0.95797 0
M  V30 1156 C 113.584 1.09476 1.69881 0
M  V30 1157 C 113.905 -0.365502 1.91544 0
M  V30 1158 O 113.175 -1.25985 1.50015 0
M  V30 1159 H 111.755 0.402128 0.629525 0
M  V30 1160 H 114.417 1.57214 1.15194 0
M  V30 1161 H 113.513 1.60046 2.6794 0
M  V30 1162 N 113.814 -1.1601 1.06675 0
M  V30 1163 C 114.762 -2.22586 0.675157 0
M  V30 1164 C 115.756 -1.66525 -0.310766 0
M  V30 1165 O 116.962 -1.79145 -0.175215 0
M  V30 1166 H 113.337 -0.724855 0.200223 0
M  V30 1167 H 115.308 -2.52899 1.58381 0
M  V30 1168 C 114.057 -3.47604 0.0817162 0
M  V30 1169 H 113.38 -3.91058 0.831484 0
M  V30 1170 H 114.82 -4.23718 -0.154708 0
M  V30 1171 C 113.279 -3.15718 -1.17576 0
M  V30 1172 O 113.809 -3.31878 -2.26318 0
M  V30 1173 N 112.015 -2.69816 -1.07923 0
M  V30 1174 H 111.562 -2.56866 -0.194293 0
M  V30 1175 H 111.52 -2.48855 -1.92141 0
M  V30 1176 N 115.292 -0.849877 -1.32721 0
M  V30 1177 C 116.54 -0.450032 -1.97026 0
M  V30 1178 C 116.861 0.996604 -1.67609 0
M  V30 1179 O 116.131 1.6958 -0.980786 0
M  V30 1180 H 114.711 -0.163426 -0.728904 0
M  V30 1181 H 117.373 -1.08526 -1.6189 0
M  V30 1182 H 116.469 -0.591146 -3.0645 0
M  V30 1183 N 116.77 1.45427 -0.607355 0
M  V30 1184 C 118.186 1.57283 -0.270985 0
M  V30 1185 C 118.386 1.59875 1.22647 0
M  V30 1186 O 117.442 1.52893 2.00948 0
M  V30 1187 C 118.755 2.85566 -0.941952 0
M  V30 1188 C 120.303 2.9924 -0.917849 0
M  V30 1189 C 120.778 4.30293 -1.56882 0
M  V30 1190 N 122.269 4.37051 -1.5343 0
M  V30 1191 C 123.004 5.37123 -2.00715 0
M  V30 1192 N 122.5 6.43734 -2.56084 0
M  V30 1193 N 124.293 5.28479 -1.91484 0
M  V30 1194 H 116.444 1.41988 -1.57966 0
M  V30 1195 H 118.707 0.67885 -0.661715 0
M  V30 1196 H 118.413 2.8955 -1.99633 0
M  V30 1197 H 118.287 3.74322 -0.465096 0
M  V30 1198 H 120.674 2.94822 0.127984 0
M  V30 1199 H 120.755 2.11895 -1.43297 0
M  V30 1200 H 120.399 4.35469 -2.61398 0
M  V30 1201 H 120.329 5.16454 -1.02873 0
M  V30 1202 H 122.82 3.60615 -1.12982 0
M  V30 1203 H 123.133 7.16341 -2.89958 0
M  V30 1204 H 121.478 6.44485 -2.60122 0
M  V30 1205 H 124.669 4.44098 -1.47967 0
M  V30 1206 H 124.842 6.0632 -2.28648 0
M  V30 1207 N 118.248 0.346503 1.53744 0
M  V30 1208 C 119.494 -0.242135 2.01954 0
M  V30 1209 C 119.849 -1.47962 1.22984 0
M  V30 1210 O 119.142 -1.89077 0.309924 0
M  V30 1211 C 119.336 -0.605809 3.52228 0
M  V30 1212 C 119.165 0.594882 4.45748 0
M  V30 1213 C 117.935 1.1011 4.93157 0
M  V30 1214 C 120.133 1.45425 4.93311 0
M  V30 1215 N 118.115 2.26381 5.70636 0
M  V30 1216 C 119.486 2.46383 5.68942 0
M  V30 1217 C 121.541 1.47935 4.75415 0
M  V30 1218 C 120.244 3.49684 6.28581 0
M  V30 1219 C 122.27 2.50119 5.35905 0
M  V30 1220 C 121.632 3.49803 6.11406 0
M  V30 1221 H 117.731 -0.0518296 0.780281 0
M  V30 1222 H 120.315 0.486736 1.88518 0
M  V30 1223 H 118.486 -1.30378 3.65864 0
M  V30 1224 H 120.218 -1.17789 3.87179 0
M  V30 1225 H 116.973 0.668721 4.68855 0
M  V30 1226 H 117.397 2.85094 6.14044 0
M  V30 1227 H 122.039 0.722274 4.16585 0
M  V30 1228 H 119.757 4.26285 6.86518 0
M  V30 1229 H 123.343 2.52892 5.23963 0
M  V30 1230 H 122.223 4.27576 6.5738 0
M  V30 1231 N 119.726 -1.57421 0.075193 0
M  V30 1232 C 120.689 -2.11791 -0.876203 0
M  V30 1233 C 121.689 -1.04268 -1.22412 0
M  V30 1234 O 122.879 -1.30242 -1.15684 0
M  V30 1235 C 120.011 -2.62207 -2.17854 0
M  V30 1236 H 121.204 -2.9716 -0.40444 0
M  V30 1237 H 118.757 -1.55333 -0.173557 0
M  V30 1238 H 119.492 -1.803 -2.6956 0
M  V30 1239 H 119.277 -3.40802 -1.93897 0
M  V30 1240 H 120.767 -3.04335 -2.85955 0
M  V30 1241 N 121.204 0.198386 -1.56346 0
M  V30 1242 C 122.432 0.935572 -1.84539 0
M  V30 1243 C 122.847 1.76989 -0.657281 0
M  V30 1244 O 122.204 1.78626 0.374043 0
M  V30 1245 C 122.255 1.8344 -3.11499 0
M  V30 1246 O 121.976 1.03377 -4.25728 0
M  V30 1247 C 123.477 2.68355 -3.52846 0
M  V30 1248 H 120.697 0.273126 -0.612897 0
M  V30 1249 H 123.241 0.20663 -2.03453 0
M  V30 1250 H 121.396 2.51701 -2.94492 0
M  V30 1251 H 121.81 1.64599 -4.98003 0
M  V30 1252 H 123.284 3.27085 -4.44657 0
M  V30 1253 H 123.761 3.41901 -2.75681 0
M  V30 1254 H 124.367 2.05471 -3.72373 0
M  V30 1255 N 122.682 1.50554 0.465978 0
M  V30 1256 C 123.614 1.65949 1.58093 0
M  V30 1257 C 124.627 0.540827 1.53554 0
M  V30 1258 O 125.816 0.814187 1.5885 0
M  V30 1259 C 122.916 1.63261 2.96983 0
M  V30 1260 C 122.089 2.91245 3.26336 0
M  V30 1261 C 121.148 2.8113 4.44806 0
M  V30 1262 O 120.174 3.55086 4.44862 0
M  V30 1263 N 121.376 1.95032 5.46756 0
M  V30 1264 H 124.141 2.62122 1.45301 0
M  V30 1265 H 121.702 1.48082 0.65448 0
M  V30 1266 H 123.694 1.54101 3.74212 0
M  V30 1267 H 122.264 0.748032 3.03518 0
M  V30 1268 H 121.484 3.14493 2.37672 0
M  V30 1269 H 122.772 3.76022 3.42761 0
M  V30 1270 H 122.17 1.3427 5.49534 0
M  V30 1271 H 120.727 1.91772 6.2295 0
M  V30 1272 N 124.16 -0.719506 1.40217 0
M  V30 1273 C 125.576 -1.02707 1.22161 0
M  V30 1274 C 125.776 -2.0128 0.0940557 0
M  V30 1275 O 124.832 -2.46452 -0.549318 0
M  V30 1276 C 126.145 -1.57454 2.56181 0
M  V30 1277 C 127.693 -1.69458 2.63159 0
M  V30 1278 C 128.168 -2.27611 3.97438 0
M  V30 1279 N 129.659 -2.35002 3.99159 0
M  V30 1280 C 130.394 -2.80972 4.99842 0
M  V30 1281 N 129.89 -3.26723 6.10921 0
M  V30 1282 N 131.683 -2.80321 4.87213 0
M  V30 1283 H 123.834 -0.0660492 2.12297 0
M  V30 1284 H 126.097 -0.0919077 0.943534 0
M  V30 1285 H 125.803 -0.924873 3.39321 0
M  V30 1286 H 125.677 -2.56036 2.76993 0
M  V30 1287 H 128.064 -2.33543 1.80393 0
M  V30 1288 H 128.145 -0.694867 2.46181 0
M  V30 1289 H 127.789 -1.6415 4.80643 0
M  V30 1290 H 127.719 -3.2829 4.11744 0
M  V30 1291 H 130.21 -2.02685 3.18947 0
M  V30 1292 H 130.523 -3.60355 6.8364 0
M  V30 1293 H 128.868 -3.24692 6.14492 0
M  V30 1294 H 132.059 -2.43912 3.9953 0
M  V30 1295 H 132.232 -3.15831 5.65822 0
M  V30 1296 N 125.638 -1.25649 -0.95132 0
M  V30 1297 C 126.886 -1.10375 -1.69298 0
M  V30 1298 C 127.207 0.355339 -1.91735 0
M  V30 1299 O 126.477 1.25188 -1.50681 0
M  V30 1300 H 125.057 -0.405461 -0.627384 0
M  V30 1301 H 127.719 -1.57823 -1.14358 0
M  V30 1302 H 126.815 -1.61465 -2.67087 0
M  V30 1303 N 127.117 1.15442 -1.07289 0
M  V30 1304 C 128.047 2.22312 -0.714107 0
M  V30 1305 C 129.028 1.67467 0.298155 0
M  V30 1306 O 130.213 1.93445 0.171048 0
M  V30 1307 C 127.343 3.47124 -0.110448 0
M  V30 1308 C 126.297 4.14926 -1.04979 0
M  V30 1309 C 125.623 5.33807 -0.308924 0
M  V30 1310 C 126.923 4.64762 -2.38314 0
M  V30 1311 H 128.617 2.5258 -1.6076 0
M  V30 1312 H 126.163 1.21404 -0.77441 0
M  V30 1313 H 128.116 4.21124 0.152482 0
M  V30 1314 H 126.84 3.16187 0.81812 0
M  V30 1315 H 125.499 3.42866 -1.29764 0
M  V30 1316 H 125.147 4.99126 0.623084 0
M  V30 1317 H 124.847 5.80113 -0.935036 0
M  V30 1318 H 126.371 6.10576 -0.0537771 0
M  V30 1319 H 127.785 5.30292 -2.1786 0
M  V30 1320 H 126.182 5.21728 -2.96514 0
M  V30 1321 H 127.252 3.80434 -3.00663 0
M  V30 1322 N 128.595 0.856903 1.32268 0
M  V30 1323 C 129.558 0.308171 2.27119 0
M  V30 1324 C 130.558 -0.533421 1.51695 0
M  V30 1325 O 131.748 -0.344607 1.70757 0
M  V30 1326 C 128.88 -0.563757 3.36206 0
M  V30 1327 H 130.073 1.14535 2.77167 0
M  V30 1328 H 127.626 0.631421 1.42978 0
M  V30 1329 H 128.361 -1.42266 2.91429 0
M  V30 1330 H 128.146 0.0386749 3.92081 0
M  V30 1331 H 129.636 -0.940386 4.06874 0
M  V30 1332 N 130.073 -1.45103 0.615059 0
M  V30 1333 C 131.489 -1.57137 0.279322 0
M  V30 1334 C 131.689 -1.60523 -1.21797 0
M  V30 1335 O 130.745 -1.53956 -2.00134 0
M  V30 1336 C 132.058 -2.85062 0.957083 0
M  V30 1337 C 133.606 -2.98749 0.933706 0
M  V30 1338 C 134.081 -4.29455 1.59162 0
M  V30 1339 N 135.572 -4.36231 1.55746 0
M  V30 1340 C 136.307 -5.36051 2.0356 0
M  V30 1341 N 135.803 -6.42367 2.59494 0
M  V30 1342 N 137.596 -5.27456 1.94284 0
M  V30 1343 H 129.747 -1.41148 1.58717 0
M  V30 1344 H 132.01 -0.675331 0.665306 0
M  V30 1345 H 131.716 -2.88488 2.01166 0
M  V30 1346 H 131.59 -3.7407 0.48494 0
M  V30 1347 H 133.977 -2.94886 -0.112347 0
M  V30 1348 H 134.058 -2.11132 1.44419 0
M  V30 1349 H 133.702 -4.34077 2.63704 0
M  V30 1350 H 133.632 -5.15901 1.0561 0
M  V30 1351 H 136.123 -3.60011 1.14893 0
M  V30 1352 H 136.436 -7.14793 2.93752 0
M  V30 1353 H 134.781 -6.43097 2.63537 0
M  V30 1354 H 137.972 -4.43308 1.5032 0
M  V30 1355 H 138.145 -6.05099 2.3186 0
M  V30 1356 N 131.551 -0.354651 -1.53558 0
M  V30 1357 C 132.779 0.239515 -2.05509 0
M  V30 1358 C 133.194 1.4333 -1.2289 0
M  V30 1359 O 132.551 1.80538 -0.266899 0
M  V30 1360 C 132.602 0.643719 -3.55723 0
M  V30 1361 O 132.323 -0.502602 -4.35207 0
M  V30 1362 C 133.824 1.29743 -4.23889 0
M  V30 1363 H 131.044 0.0442697 -0.669538 0
M  V30 1364 H 133.588 -0.509856 -1.98042 0
M  V30 1365 H 131.743 1.34302 -3.63376 0
M  V30 1366 H 132.157 -0.178172 -5.24197 0
M  V30 1367 H 133.631 1.53091 -5.30346 0
M  V30 1368 H 134.108 2.25441 -3.76926 0
M  V30 1369 H 134.714 0.639865 -4.20459 0
M  V30 1370 N 133.029 1.57378 -0.0835403 0
M  V30 1371 C 133.939 2.16897 0.894021 0
M  V30 1372 C 134.955 1.13528 1.31861 0
M  V30 1373 O 136.131 1.45848 1.3889 0
M  V30 1374 C 133.196 2.72831 2.13925 0
M  V30 1375 C 132.257 3.91115 1.76997 0
M  V30 1376 C 131.49 4.44371 2.95584 0
M  V30 1377 O 131.713 3.96596 4.09961 0
M  V30 1378 O 130.647 5.35549 2.74719 0
M  V30 1379 H 134.473 3.00814 0.417679 0
M  V30 1380 H 132.058 1.48741 0.140181 0
M  V30 1381 H 133.94 3.0863 2.86924 0
M  V30 1382 H 132.615 1.91967 2.60635 0
M  V30 1383 H 131.522 3.60148 1.01214 0
M  V30 1384 H 132.855 4.73307 1.3506 0
M  V30 1385 N 134.507 -0.190092 1.56449 0
M  V30 1386 C 135.755 -0.907908 1.80559 0
M  V30 1387 C 136.076 -1.83583 0.657438 0
M  V30 1388 O 135.346 -1.93203 -0.323924 0
M  V30 1389 H 133.926 -0.338247 0.666032 0
M  V30 1390 H 136.588 -0.194403 1.93928 0
M  V30 1391 H 135.684 -1.49604 2.73907 0
M  V30 1392 N 135.985 -1.50799 -0.457987 0
M  V30 1393 C 136.935 -1.67003 -1.55222 0
M  V30 1394 C 137.919 -0.52434 -1.52117 0
M  V30 1395 O 139.111 -0.779345 -1.58919 0
M  V30 1396 C 136.24 -1.77956 -2.93576 0
M  V30 1397 C 135.326 -2.98243 -3.01516 0
M  V30 1398 N 135.717 -4.21732 -2.79241 0
M  V30 1399 C 134.015 -2.97072 -3.32662 0
M  V30 1400 C 134.716 -5.02817 -2.92489 0
M  V30 1401 N 133.692 -4.37038 -3.23262 0
M  V30 1402 H 137.494 -2.60163 -1.36721 0
M  V30 1403 H 135.008 -1.48163 -0.664952 0
M  V30 1404 H 137.005 -1.87671 -3.72271 0
M  V30 1405 H 135.665 -0.859634 -3.13114 0
M  V30 1406 H 136.676 -4.51016 -2.54567 0
M  V30 1407 H 133.353 -2.14631 -3.58106 0
M  V30 1408 H 134.743 -6.11054 -2.79396 0
M  V30 1409 N 137.463 0.71206 -1.40597 0
M  V30 1410 C 138.41 1.82613 -1.41142 0
M  V30 1411 C 139.38 1.63925 -0.267903 0
M  V30 1412 O 140.565 1.85009 -0.466495 0
M  V30 1413 C 137.705 3.20354 -1.28324 0
M  V30 1414 C 136.818 3.50589 -2.52411 0
M  V30 1415 C 135.953 4.77855 -2.32009 0
M  V30 1416 C 134.992 5.01005 -3.51654 0
M  V30 1417 N 134.129 6.19487 -3.30425 0
M  V30 1418 H 138.969 1.81482 -2.36365 0
M  V30 1419 H 136.506 0.886475 -1.17388 0
M  V30 1420 H 138.464 3.99899 -1.18899 0
M  V30 1421 H 137.094 3.20705 -0.367189 0
M  V30 1422 H 136.146 2.65573 -2.72351 0
M  V30 1423 H 137.458 3.63604 -3.41458 0
M  V30 1424 H 136.612 5.65424 -2.19956 0
M  V30 1425 H 135.351 4.67056 -1.40392 0
M  V30 1426 H 134.356 4.1189 -3.64179 0
M  V30 1427 H 135.581 5.13674 -4.44202 0
M  V30 1428 H 133.527 6.09932 -2.41494 0
M  V30 1429 H 133.444 6.33194 -4.13039 0
M  V30 1430 H 134.712 7.09834 -3.22113 0
M  V30 1431 N 138.941 1.26152 0.944643 0
M  V30 1432 C 139.874 1.01729 2.04271 0
M  V30 1433 C 140.852 -0.0568101 1.62501 0
M  V30 1434 O 142.036 0.0848987 1.88309 0
M  V30 1435 C 139.163 0.539792 3.34371 0
M  V30 1436 C 138.209 1.60593 3.9511 0
M  V30 1437 S 139.042 3.19392 4.29825 0
M  V30 1438 C 140.198 2.73402 5.63029 0
M  V30 1439 H 140.431 1.94703 2.24673 0
M  V30 1440 H 137.964 1.09793 1.08558 0
M  V30 1441 H 139.922 0.270956 4.09605 0
M  V30 1442 H 138.583 -0.369609 3.11918 0
M  V30 1443 H 137.776 1.22275 4.88943 0
M  V30 1444 H 137.378 1.82596 3.26397 0
M  V30 1445 H 139.67 2.1765 6.41588 0
M  V30 1446 H 140.613 3.65913 6.06229 0
M  V30 1447 H 141.021 2.13077 5.22741 0
M  V30 1448 N 140.419 -1.14872 1.07899 0
M  V30 1449 C 141.667 -1.85422 0.803941 0
M  V30 1450 C 141.988 -1.83051 -0.67211 0
M  V30 1451 O 141.258 -1.27532 -1.48703 0
M  V30 1452 H 139.838 -0.686537 0.294408 0
M  V30 1453 H 142.5 -1.39226 1.3639 0
M  V30 1454 H 141.596 -2.90399 1.14346 0
M  V30 1455 N 141.898 -0.863906 -1.31812 0
M  V30 1456 C 142.808 -0.318461 -2.32428 0
M  V30 1457 C 143.824 0.568496 -1.64451 0
M  V30 1458 O 145 0.46666 -1.95919 0
M  V30 1459 C 142.065 0.476355 -3.43412 0
M  V30 1460 C 141.126 -0.43784 -4.27061 0
M  V30 1461 C 140.359 0.319138 -5.32745 0
M  V30 1462 O 140.582 1.54799 -5.48993 0
M  V30 1463 O 139.516 -0.319861 -6.01049 0
M  V30 1464 H 143.342 -1.15229 -2.80991 0
M  V30 1465 H 140.927 -0.627103 -1.35602 0
M  V30 1466 H 142.809 0.927156 -4.11074 0
M  V30 1467 H 141.484 1.28683 -2.97022 0
M  V30 1468 H 140.391 -0.937013 -3.62175 0
M  V30 1469 H 141.724 -1.21375 -4.77 0
M  V30 1470 N 143.376 1.44774 -0.622745 0
M  V30 1471 C 144.339 2.29069 0.0774015 0
M  V30 1472 C 145.339 1.4059 0.780461 0
M  V30 1473 O 146.529 1.62551 0.626322 0
M  V30 1474 C 143.661 3.21974 1.12006 0
M  V30 1475 H 144.854 2.92459 -0.663901 0
M  V30 1476 H 142.407 1.51548 -0.382486 0
M  V30 1477 H 143.142 2.63417 1.89162 0
M  V30 1478 H 142.927 3.87168 0.619951 0
M  V30 1479 H 144.417 3.85318 1.60995 0
M  V30 1480 N 144.854 0.36279 1.53368 0
M  V30 1481 C 146.1 -0.228113 2.01513 0
M  V30 1482 C 146.433 -1.48648 1.2497 0
M  V30 1483 O 145.708 -1.91459 0.342616 0
M  V30 1484 C 145.991 -0.522884 3.56284 0
M  V30 1485 C 145.844 0.74892 4.43521 0
M  V30 1486 C 147.163 -1.32461 4.19693 0
M  V30 1487 H 144.282 -0.0814343 0.732487 0
M  V30 1488 H 146.924 0.48713 1.83649 0
M  V30 1489 H 145.074 -1.1322 3.71636 0
M  V30 1490 H 146.746 1.38648 4.39971 0
M  V30 1491 H 144.989 1.36986 4.11603 0
M  V30 1492 H 145.66 0.497667 5.49752 0
M  V30 1493 H 148.136 -0.809203 4.08156 0
M  V30 1494 H 147.012 -1.49961 5.28018 0
M  V30 1495 H 147.273 -2.33232 3.75573 0
M  V30 1496 N 146.332 -1.57332 0.0918853 0
M  V30 1497 C 147.578 -1.94524 -0.573425 0
M  V30 1498 C 147.911 -0.973578 -1.68033 0
M  V30 1499 O 147.186 -0.00609226 -1.94499 0
M  V30 1500 C 147.469 -3.41858 -1.13161 0
M  V30 1501 C 147.322 -4.4979 -0.0299747 0
M  V30 1502 C 148.641 -3.90435 -2.03098 0
M  V30 1503 H 145.76 -0.70734 -0.206975 0
M  V30 1504 H 148.402 -1.89309 0.161942 0
M  V30 1505 H 146.552 -3.46433 -1.7583 0
M  V30 1506 H 148.224 -4.57327 0.604112 0
M  V30 1507 H 146.467 -4.291 0.636833 0
M  V30 1508 H 147.138 -5.50069 -0.461287 0
M  V30 1509 H 149.614 -3.87992 -1.50338 0
M  V30 1510 H 148.49 -4.94097 -2.39081 0
M  V30 1511 H 148.751 -3.29541 -2.94712 0
M  V30 1512 N 147.81 0.181792 -1.56548 0
M  V30 1513 C 149.059 0.898348 -1.8059 0
M  V30 1514 C 149.372 1.83862 -0.667379 0
M  V30 1515 O 150.578 2.59678 -0.792446 0
M  V30 1516 C 149.034 1.64791 -3.19956 0
M  V30 1517 C 148.642 0.751789 -4.41647 0
M  V30 1518 C 150.386 2.35331 -3.53298 0
M  V30 1519 C 148.293 1.50098 -5.72035 0
M  V30 1520 H 147.223 0.339194 -0.673397 0
M  V30 1521 H 149.874 0.151413 -1.82874 0
M  V30 1522 H 148.256 2.43921 -3.11959 0
M  V30 1523 H 149.43 -0.0018076 -4.608 0
M  V30 1524 H 147.745 0.156562 -4.16106 0
M  V30 1525 H 150.342 2.91958 -4.47956 0
M  V30 1526 H 150.685 3.10164 -2.77676 0
M  V30 1527 H 151.218 1.63154 -3.62803 0
M  V30 1528 H 147.957 0.795175 -6.50659 0
M  V30 1529 H 147.477 2.22817 -5.56878 0
M  V30 1530 H 149.156 2.05125 -6.13622 0
M  V30 1531 N 149.288 1.51039 0.449983 0
M  V30 1532 C 150.565 1.53612 1.21089 0
M  V30 1533 C 150.945 0.292997 2.09057 0
M  V30 1534 O 150.293 -0.72259 2.16774 0
M  V30 1535 C 150.503 2.84337 2.0237 0
M  V30 1536 C 151.851 3.35807 2.59843 0
M  V30 1537 O 152.875 2.85802 2.12593 0
M  V30 1538 O 151.734 4.23029 3.45989 0
M  V30 1539 H 148.828 0.617057 0.550608 0
M  V30 1540 H 151.374 1.63344 0.460082 0
M  V30 1541 H 150.146 3.66278 1.37681 0
M  V30 1542 H 149.769 2.77708 2.84542 0
M  V30 1543 N 150.766 -0.704594 1.40972 0
M  V30 1544 C 152.015 -1.46018 1.39146 0
M  V30 1545 C 152.328 -1.956 0.000589254 0
M  V30 1546 O 153.534 -2.71137 -0.1403 0
M  V30 1547 C 151.99 -2.63996 2.4461 0
M  V30 1548 C 151.598 -2.21238 3.89561 0
M  V30 1549 C 153.342 -3.41677 2.51907 0
M  V30 1550 C 151.249 -3.3612 4.86598 0
M  V30 1551 H 150.179 -0.548444 0.517422 0
M  V30 1552 H 152.83 -0.765784 1.66757 0
M  V30 1553 H 151.212 -3.3566 2.10115 0
M  V30 1554 H 152.386 -1.56923 4.33257 0
M  V30 1555 H 150.701 -1.56574 3.85841 0
M  V30 1556 H 153.298 -4.27182 3.2159 0
M  V30 1557 H 153.641 -3.86247 1.55303 0
M  V30 1558 H 154.174 -2.77064 2.85448 0
M  V30 1559 H 150.913 -2.96572 5.84573 0
M  V30 1560 H 150.433 -3.99315 4.47557 0
M  V30 1561 H 152.112 -4.02029 5.06934 0
M  V30 1562 N 152.244 -1.26651 -0.937939 0
M  V30 1563 C 153.207 -1.08546 -2.01867 0
M  V30 1564 C 154.207 -0.0327327 -1.60767 0
M  V30 1565 O 155.397 -0.276427 -1.71993 0
M  V30 1566 C 152.529 -0.651711 -3.34613 0
M  V30 1567 H 153.722 -2.04502 -2.1936 0
M  V30 1568 H 151.275 -1.09294 -1.11734 0
M  V30 1569 H 152.01 0.309696 -3.22818 0
M  V30 1570 H 151.795 -1.41189 -3.65798 0
M  V30 1571 H 153.285 -0.546973 -4.14002 0
M  V30 1572 N 153.722 1.14298 -1.08507 0
M  V30 1573 C 154.962 1.87016 -0.824894 0
M  V30 1574 C 155.326 1.81099 0.637735 0
M  V30 1575 O 156.527 2.48963 1.01345 0
M  V30 1576 C 154.798 3.31584 -1.33368 0
M  V30 1577 S 156.357 4.21903 -1.20596 0
M  V30 1578 H 153.175 0.645259 -0.2986 0
M  V30 1579 H 155.777 1.37822 -1.38656 0
M  V30 1580 H 154.481 3.33439 -2.39262 0
M  V30 1581 H 154.012 3.85836 -0.767734 0
M  V30 1582 H 156.027 4.95971 -0.150891 0
M  V30 1583 N 155.201 0.870884 1.31352 0
M  V30 1584 C 156.449 0.48132 1.96285 0
M  V30 1585 C 156.77 -0.969813 1.69173 0
M  V30 1586 O 156.04 -1.67998 1.00764 0
M  V30 1587 H 154.62 0.175002 0.726212 0
M  V30 1588 H 157.282 1.11087 1.60143 0
M  V30 1589 H 156.378 0.639825 3.05471 0
M  V30 1590 N 156.679 -1.44442 0.630414 0
M  V30 1591 C 157.642 -2.29107 -0.0652523 0
M  V30 1592 C 158.642 -1.41002 -0.772995 0
M  V30 1593 O 159.832 -1.62881 -0.617692 0
M  V30 1594 C 156.964 -3.22564 -1.10296 0
M  V30 1595 H 158.157 -2.92103 0.679401 0
M  V30 1596 H 155.71 -1.51343 0.390517 0
M  V30 1597 H 156.445 -2.64416 -1.87762 0
M  V30 1598 H 156.23 -3.87491 -0.59941 0
M  V30 1599 H 157.72 -3.86167 -1.5895 0
M  V30 1600 N 158.157 -0.370918 -1.53173 0
M  V30 1601 C 159.406 0.218249 -2.00516 0
M  V30 1602 C 159.719 1.49429 -1.26215 0
M  V30 1603 O 160.925 2.16239 -1.64174 0
M  V30 1604 C 159.381 0.43948 -3.57207 0
M  V30 1605 C 158.989 -0.822244 -4.4039 0
M  V30 1606 C 160.733 0.986012 -4.1289 0
M  V30 1607 C 158.64 -0.570304 -5.88644 0
M  V30 1608 H 157.57 0.0853333 -0.749156 0
M  V30 1609 H 160.221 -0.490483 -1.76823 0
M  V30 1610 H 158.603 1.20961 -3.77074 0
M  V30 1611 H 159.777 -1.59557 -4.32294 0
M  V30 1612 H 158.092 -1.29238 -3.95836 0
M  V30 1613 H 160.689 1.18991 -5.21292 0
M  V30 1614 H 161.032 1.94972 -3.6782 0
M  V30 1615 H 161.565 0.27592 -3.96842 0
M  V30 1616 H 158.304 -1.50449 -6.38001 0
M  V30 1617 H 157.824 0.164427 -5.99575 0
M  V30 1618 H 159.503 -0.19784 -6.46697 0
M  V30 1619 N 159.635 1.57281 -0.100228 0
M  V30 1620 C 160.545 2.17833 0.870965 0
M  V30 1621 C 161.561 1.14921 1.30649 0
M  V30 1622 O 162.737 1.47313 1.37335 0
M  V30 1623 C 159.802 2.75085 2.1102 0
M  V30 1624 C 158.863 3.9297 1.72838 0
M  V30 1625 C 158.096 4.47482 2.90854 0
M  V30 1626 O 158.319 4.00922 4.05731 0
M  V30 1627 O 157.253 5.38433 2.69023 0
M  V30 1628 H 161.079 3.0124 0.38575 0
M  V30 1629 H 158.664 1.48881 0.124397 0
M  V30 1630 H 160.546 3.11656 2.83634 0
M  V30 1631 H 159.221 1.94721 2.58584 0
M  V30 1632 H 158.128 3.61201 0.973883 0
M  V30 1633 H 159.461 4.74713 1.30033 0
M  V30 1634 N 161.113 -0.173488 1.56642 0
M  V30 1635 C 162.043 -1.2171 1.99271 0
M  V30 1636 C 163.024 -1.46289 0.867959 0
M  V30 1637 O 164.209 -1.5766 1.13388 0
M  V30 1638 C 161.339 -2.55651 2.35074 0
M  V30 1639 C 160.293 -2.45645 3.50489 0
M  V30 1640 C 159.619 -3.84056 3.72028 0
M  V30 1641 C 160.919 -1.96302 4.84007 0
M  V30 1642 H 162.613 -0.86275 2.867 0
M  V30 1643 H 160.159 -0.413571 1.37933 0
M  V30 1644 H 162.112 -3.2886 2.63494 0
M  V30 1645 H 160.836 -2.92869 1.44552 0
M  V30 1646 H 159.495 -1.7489 3.22194 0
M  V30 1647 H 159.143 -4.18664 2.788 0
M  V30 1648 H 158.843 -3.7823 4.49684 0
M  V30 1649 H 160.367 -4.58854 4.02846 0
M  V30 1650 H 161.781 -2.59284 5.11317 0
M  V30 1651 H 160.178 -2.01429 5.65284 0
M  V30 1652 H 161.248 -0.917226 4.76146 0
M  V30 1653 N 162.591 -1.51276 -0.441967 0
M  V30 1654 C 163.839 -1.63392 -1.18943 0
M  V30 1655 C 164.16 -0.350159 -1.9183 0
M  V30 1656 O 163.43 0.633784 -1.85364 0
M  V30 1657 H 162.01 -0.602164 -0.442049 0
M  V30 1658 H 164.672 -1.88186 -0.507165 0
M  V30 1659 H 163.768 -2.45934 -1.92154 0
M  V30 1660 N 164.069 0.697108 -1.41344 0
M  V30 1661 C 165.318 1.45279 -1.39918 0
M  V30 1662 C 165.631 1.95597 -0.0109624 0
M  V30 1663 O 166.837 2.71208 0.125919 0
M  V30 1664 C 165.293 2.62695 -2.46007 0
M  V30 1665 C 164.901 2.19169 -3.90729 0
M  V30 1666 C 166.645 3.40336 -2.53715 0
M  V30 1667 C 164.552 3.33535 -4.88373 0
M  V30 1668 H 163.482 0.545692 -0.520323 0
M  V30 1669 H 166.133 0.756929 -1.67161 0
M  V30 1670 H 164.515 3.34541 -2.11892 0
M  V30 1671 H 165.689 1.54623 -4.34083 0
M  V30 1672 H 164.004 1.54525 -3.86666 0
M  V30 1673 H 166.601 4.2547 -3.2385 0
M  V30 1674 H 166.944 3.85418 -1.5735 0
M  V30 1675 H 167.477 2.75546 -2.86913 0
M  V30 1676 H 164.216 2.93468 -5.86137 0
M  V30 1677 H 163.736 3.96936 -4.49668 0
M  V30 1678 H 165.415 3.99335 -5.09059 0
M  V30 1679 N 165.547 1.27147 0.931209 0
M  V30 1680 C 166.494 1.09568 2.03134 0
M  V30 1681 C 167.464 -0.00222433 1.661 0
M  V30 1682 O 168.649 0.159439 1.90133 0
M  V30 1683 C 165.789 0.745231 3.36957 0
M  V30 1684 C 164.902 1.92041 3.86968 0
M  V30 1685 C 164.037 1.51216 5.09222 0
M  V30 1686 C 163.076 2.65504 5.5152 0
M  V30 1687 N 162.213 2.25291 6.64972 0
M  V30 1688 H 167.053 2.03708 2.17502 0
M  V30 1689 H 164.59 1.01411 1.06556 0
M  V30 1690 H 166.548 0.522878 4.1391 0
M  V30 1691 H 165.178 -0.159202 3.22407 0
M  V30 1692 H 164.23 2.25541 3.06326 0
M  V30 1693 H 165.542 2.77787 4.1429 0
M  V30 1694 H 164.696 1.25084 5.93666 0
M  V30 1695 H 163.435 0.625749 4.83669 0
M  V30 1696 H 162.44 2.92354 4.65628 0
M  V30 1697 H 163.665 3.54761 5.7907 0
M  V30 1698 H 161.611 1.39098 6.41083 0
M  V30 1699 H 161.528 3.04577 6.91931 0
M  V30 1700 H 162.796 2.02398 7.52765 0
M  V30 1701 N 167.025 -1.13721 1.09112 0
M  V30 1702 C 168.271 -1.85413 0.836283 0
M  V30 1703 C 168.626 -1.8175 -0.631249 0
M  V30 1704 O 167.919 -1.24238 -1.45861 0
M  V30 1705 C 168.113 -3.32861 1.30146 0
M  V30 1706 C 167.942 -3.50882 2.81268 0
M  V30 1707 C 166.712 -3.65312 3.49106 0
M  V30 1708 C 168.91 -3.47196 3.7942 0
M  V30 1709 N 166.892 -3.71563 4.88686 0
M  V30 1710 C 168.263 -3.59777 5.04936 0
M  V30 1711 C 170.318 -3.30577 3.72321 0
M  V30 1712 C 169.021 -3.57455 6.24194 0
M  V30 1713 C 171.047 -3.29562 4.91063 0
M  V30 1714 C 170.409 -3.42691 6.15421 0
M  V30 1715 H 166.508 -0.694812 0.358832 0
M  V30 1716 H 169.092 -1.36246 1.39087 0
M  V30 1717 H 167.263 -3.80602 0.774361 0
M  V30 1718 H 168.995 -3.92346 0.99229 0
M  V30 1719 H 165.75 -3.6685 2.9953 0
M  V30 1720 H 166.174 -3.78387 5.61384 0
M  V30 1721 H 170.816 -3.19332 2.77105 0
M  V30 1722 H 168.534 -3.67475 7.19714 0
M  V30 1723 H 172.12 -3.17905 4.87266 0
M  V30 1724 H 171 -3.41862 7.05762 0
M  V30 1725 N 168.503 -0.877838 -1.30888 0
M  V30 1726 C 169.433 -0.35534 -2.3078 0
M  V30 1727 C 170.414 0.557994 -1.60687 0
M  V30 1728 O 171.599 0.473355 -1.88343 0
M  V30 1729 C 168.729 0.437221 -3.44537 0
M  V30 1730 C 167.683 -0.383715 -4.26276 0
M  V30 1731 C 167.009 0.535014 -5.32017 0
M  V30 1732 C 168.309 -1.62201 -4.96476 0
M  V30 1733 H 170.003 -1.19007 -2.74732 0
M  V30 1734 H 167.549 -0.573698 -1.32078 0
M  V30 1735 H 169.502 0.813334 -4.13477 0
M  V30 1736 H 168.226 1.30553 -2.99372 0
M  V30 1737 H 166.885 -0.741874 -3.59015 0
M  V30 1738 H 166.533 1.40083 -4.831 0
M  V30 1739 H 166.233 -0.0104211 -5.87599 0
M  V30 1740 H 167.757 0.907799 -6.03814 0
M  V30 1741 H 169.171 -1.31689 -5.5797 0
M  V30 1742 H 167.568 -2.10711 -5.61891 0
M  V30 1743 H 168.638 -2.37044 -4.23011 0
M  V30 1744 N 169.982 1.44106 -0.638065 0
M  V30 1745 C 171.207 2.0685 -0.150916 0
M  V30 1746 C 171.632 1.47417 1.16833 0
M  V30 1747 O 170.99 0.578264 1.71831 0
M  V30 1748 C 171.038 3.60555 -0.05708 0
M  V30 1749 O 170.142 4.00465 0.984972 0
M  V30 1750 H 169.483 0.658151 -0.0879399 0
M  V30 1751 H 172.013 1.84865 -0.876707 0
M  V30 1752 H 172.023 4.07789 0.131232 0
M  V30 1753 H 170.698 4.03193 -1.02021 0
M  V30 1754 H 169.275 3.64849 0.770672 0
M  V30 1755 N 171.46 0.379036 1.52974 0
M  V30 1756 C 172.39 -0.452706 2.29069 0
M  V30 1757 C 173.371 -1.07237 1.32039 0
M  V30 1758 O 174.556 -1.08708 1.60923 0
M  V30 1759 C 171.686 -1.5856 3.08992 0
M  V30 1760 C 170.64 -1.0925 4.13822 0
M  V30 1761 C 169.966 -2.31668 4.81907 0
M  V30 1762 C 171.266 -0.167702 5.22031 0
M  V30 1763 H 172.96 0.182181 2.98845 0
M  V30 1764 H 170.506 0.0890592 1.43724 0
M  V30 1765 H 172.459 -2.1742 3.6098 0
M  V30 1766 H 171.183 -2.24792 2.36931 0
M  V30 1767 H 169.842 -0.526494 3.628 0
M  V30 1768 H 169.49 -2.96386 4.06404 0
M  V30 1769 H 169.19 -1.9934 5.52754 0
M  V30 1770 H 170.714 -2.91189 5.36695 0
M  V30 1771 H 172.128 -0.664186 5.6944 0
M  V30 1772 H 170.525 0.0653265 6.00064 0
M  V30 1773 H 171.595 0.786347 4.78482 0
M  V30 1774 N 172.938 -1.57226 0.108567 0
M  V30 1775 C 174.168 -1.9889 -0.559142 0
M  V30 1776 C 174.576 -0.986889 -1.61422 0
M  V30 1777 O 173.919 0.0298705 -1.83676 0
M  V30 1778 C 173.981 -3.36952 -1.25315 0
M  V30 1779 C 173.645 -4.55679 -0.347248 0
M  V30 1780 C 174.642 -5.18281 0.409996 0
M  V30 1781 C 172.327 -5.0162 -0.261367 0
M  V30 1782 C 174.321 -6.25203 1.24096 0
M  V30 1783 C 172.008 -6.08405 0.573238 0
M  V30 1784 C 173.006 -6.70063 1.32304 0
M  V30 1785 O 172.694 -7.74788 2.14381 0
M  V30 1786 H 172.426 -0.658343 -0.153492 0
M  V30 1787 H 174.98 -2.04532 0.188584 0
M  V30 1788 H 173.21 -3.28032 -2.04773 0
M  V30 1789 H 174.899 -3.62974 -1.81673 0
M  V30 1790 H 175.665 -4.8371 0.353457 0
M  V30 1791 H 171.544 -4.53381 -0.834656 0
M  V30 1792 H 175.088 -6.73259 1.82669 0
M  V30 1793 H 170.985 -6.42406 0.631208 0
M  V30 1794 H 171.753 -7.91837 2.07209 0
M  V30 1795 N 174.416 0.165178 -1.56732 0
M  V30 1796 C 175.379 1.18822 -1.95995 0
M  V30 1797 C 176.379 1.3685 -0.84431 0
M  V30 1798 O 177.569 1.34152 -1.11126 0
M  V30 1799 C 174.701 2.5521 -2.26011 0
M  V30 1800 H 175.894 0.851825 -2.87548 0
M  V30 1801 H 173.447 0.407857 -1.50885 0
M  V30 1802 H 174.182 2.93852 -1.37191 0
M  V30 1803 H 173.967 2.43489 -3.07336 0
M  V30 1804 H 175.457 3.28927 -2.57288 0
M  V30 1805 N 175.894 1.51508 0.433938 0
M  V30 1806 C 177.141 1.64345 1.18309 0
M  V30 1807 C 177.469 0.361315 1.91115 0
M  V30 1808 O 176.724 -0.654753 1.84422 0
M  V30 1809 C 177.023 2.79928 2.22205 0
M  V30 1810 C 176.689 4.19078 1.66387 0
M  V30 1811 C 175.351 4.56932 1.50887 0
M  V30 1812 C 177.703 5.05894 1.25381 0
M  V30 1813 C 175.031 5.79305 0.928608 0
M  V30 1814 C 177.383 6.2885 0.687823 0
M  V30 1815 C 176.047 6.65473 0.519755 0
M  V30 1816 H 175.317 0.601381 0.432923 0
M  V30 1817 H 177.964 1.85549 0.473676 0
M  V30 1818 H 176.269 2.52959 2.99197 0
M  V30 1819 H 177.966 2.87059 2.79997 0
M  V30 1820 H 174.556 3.89234 1.79428 0
M  V30 1821 H 178.74 4.77253 1.36175 0
M  V30 1822 H 173.996 6.06324 0.786186 0
M  V30 1823 H 178.17 6.95461 0.361581 0
M  V30 1824 H 175.797 7.6017 0.0679979 0
M  V30 1825 N 177.372 -0.689602 1.41712 0
M  V30 1826 C 178.597 -1.48329 1.44959 0
M  V30 1827 C 179.022 -1.8801 0.0581283 0
M  V30 1828 O 178.38 -1.55026 -0.940035 0
M  V30 1829 C 178.428 -2.71835 2.36935 0
M  V30 1830 O 177.532 -3.69549 1.8305 0
M  V30 1831 H 176.873 -0.446199 0.491734 0
M  V30 1832 H 179.403 -0.847127 1.86239 0
M  V30 1833 H 179.413 -3.20076 2.53013 0
M  V30 1834 H 178.088 -2.42291 3.38035 0
M  V30 1835 H 176.665 -3.2851 1.76452 0
M  V30 1836 N 178.85 -1.27639 -0.924453 0
M  V30 1837 C 180.078 -1.16989 -1.70649 0
M  V30 1838 C 180.493 0.272869 -1.86818 0
M  V30 1839 O 179.85 1.18549 -1.38753 0
M  V30 1840 C 179.901 -1.85229 -3.10439 0
M  V30 1841 O 179.622 -3.23868 -2.95028 0
M  V30 1842 C 181.123 -1.80746 -4.04779 0
M  V30 1843 H 178.343 -0.406595 -0.53378 0
M  V30 1844 H 180.887 -1.68569 -1.15778 0
M  V30 1845 H 179.042 -1.37545 -3.6216 0
M  V30 1846 H 179.456 -3.57889 -3.83426 0
M  V30 1847 H 180.93 -2.33101 -5.00368 0
M  V30 1848 H 181.407 -0.777499 -4.32263 0
M  V30 1849 H 182.013 -2.28059 -3.58984 0
M  V30 1850 N 180.328 1.1314 -1.09713 0
M  V30 1851 C 181.238 2.22242 -0.751367 0
M  V30 1852 C 182.254 1.72224 0.247938 0
M  V30 1853 O 183.43 2.01205 0.0885463 0
M  V30 1854 C 180.495 3.46231 -0.180274 0
M  V30 1855 C 179.556 4.11125 -1.2359 0
M  V30 1856 C 178.789 5.29195 -0.691966 0
M  V30 1857 O 179.012 5.68342 0.48414 0
M  V30 1858 O 177.946 5.84214 -1.44838 0
M  V30 1859 H 181.772 2.54197 -1.66186 0
M  V30 1860 H 179.357 1.21331 -0.871735 0
M  V30 1861 H 181.239 4.21185 0.134739 0
M  V30 1862 H 179.914 3.1597 0.703185 0
M  V30 1863 H 178.821 3.37985 -1.60366 0
M  V30 1864 H 180.154 4.45524 -2.09211 0
M  V30 1865 N 181.806 0.884767 1.30421 0
M  V30 1866 C 182.754 0.340869 2.30089 0
M  V30 1867 C 183.748 -0.55201 1.60154 0
M  V30 1868 O 184.954 -0.436467 1.74628 0
M  V30 1869 H 181.329 0.0915739 0.746404 0
M  V30 1870 H 183.3 1.19513 2.73421 0
M  V30 1871 C 182.049 -0.429779 3.45034 0
M  V30 1872 H 181.372 0.248024 3.9903 0
M  V30 1873 H 182.812 -0.775445 4.16849 0
M  V30 1874 C 181.271 -1.62677 2.95022 0
M  V30 1875 O 181.801 -2.72614 2.95033 0
M  V30 1876 N 180.007 -1.46387 2.51036 0
M  V30 1877 H 179.554 -0.569506 2.51226 0
M  V30 1878 H 179.512 -2.26612 2.17932 0
M  V30 1879 N 183.284 -1.43765 0.645699 0
M  V30 1880 C 184.53 -2.02731 0.164844 0
M  V30 1881 C 184.885 -1.49983 -1.2051 0
M  V30 1882 O 184.178 -0.680208 -1.79119 0
M  V30 1883 C 184.372 -3.57238 0.107679 0
M  V30 1884 C 184.201 -4.24977 1.47054 0
M  V30 1885 C 182.971 -4.61356 2.06103 0
M  V30 1886 C 185.169 -4.54476 2.40741 0
M  V30 1887 N 183.151 -5.14132 3.35473 0
M  V30 1888 C 184.522 -5.08489 3.54737 0
M  V30 1889 C 186.577 -4.36438 2.39637 0
M  V30 1890 C 185.28 -5.46364 4.67845 0
M  V30 1891 C 187.306 -4.7537 3.5182 0
M  V30 1892 C 186.668 -5.2951 4.64541 0
M  V30 1893 H 182.767 -0.774976 0.104578 0
M  V30 1894 H 185.351 -1.75051 0.852367 0
M  V30 1895 H 183.522 -3.84498 -0.549165 0
M  V30 1896 H 185.254 -4.0288 -0.383351 0
M  V30 1897 H 182.009 -4.46151 1.58892 0
M  V30 1898 H 182.433 -5.4498 4.01654 0
M  V30 1899 H 187.075 -3.93861 1.53731 0
M  V30 1900 H 184.793 -5.87888 5.54448 0
M  V30 1901 H 188.379 -4.63115 3.52159 0
M  V30 1902 H 187.259 -5.59077 5.49911 0
M  V30 1903 N 184.763 -0.387143 -1.52771 0
M  V30 1904 C 185.71 0.449048 -2.26389 0
M  V30 1905 C 186.68 1.05961 -1.27912 0
M  V30 1906 O 187.865 1.08804 -1.56737 0
M  V30 1907 C 185.005 1.57155 -3.0724 0
M  V30 1908 C 184.118 0.984066 -4.20643 0
M  V30 1909 C 183.253 2.07745 -4.88892 0
M  V30 1910 C 182.292 1.46574 -5.94292 0
M  V30 1911 N 181.429 2.49834 -6.56146 0
M  V30 1912 H 186.269 -0.185205 -2.97424 0
M  V30 1913 H 183.806 -0.103164 -1.46738 0
M  V30 1914 H 185.764 2.23309 -3.52405 0
M  V30 1915 H 184.394 2.17615 -2.38419 0
M  V30 1916 H 183.446 0.212193 -3.79808 0
M  V30 1917 H 184.758 0.497029 -4.96318 0
M  V30 1918 H 183.912 2.81673 -5.3735 0
M  V30 1919 H 182.651 2.59807 -4.12737 0
M  V30 1920 H 181.656 0.711696 -5.45174 0
M  V30 1921 H 182.881 0.953088 -6.72379 0
M  V30 1922 H 180.827 3.0107 -5.82832 0
M  V30 1923 H 180.744 2.05879 -7.27427 0
M  V30 1924 H 182.012 3.23399 -7.09249 0
M  V30 1925 N 186.241 1.57166 -0.116904 0
M  V30 1926 C 187.657 1.5779 0.239693 0
M  V30 1927 C 187.857 1.1295 1.66867 0
M  V30 1928 O 186.913 0.81592 2.38954 0
M  V30 1929 C 188.226 3.00699 0.00828202 0
M  V30 1930 C 189.774 3.12912 0.0743438 0
M  V30 1931 C 190.249 4.57817 -0.129348 0
M  V30 1932 N 191.74 4.63139 -0.075247 0
M  V30 1933 C 192.475 5.73023 -0.207788 0
M  V30 1934 N 191.971 6.91665 -0.396382 0
M  V30 1935 N 193.764 5.61906 -0.14751 0
M  V30 1936 H 185.915 1.84615 -1.05029 0
M  V30 1937 H 188.178 0.85311 -0.41341 0
M  V30 1938 H 187.884 3.37784 -0.979531 0
M  V30 1939 H 187.758 3.69848 0.741077 0
M  V30 1940 H 190.145 2.75686 1.05268 0
M  V30 1941 H 190.226 2.4631 -0.690297 0
M  V30 1942 H 189.87 4.95742 -1.10465 0
M  V30 1943 H 189.8 5.22507 0.655253 0
M  V30 1944 H 192.291 3.7784 0.0670898 0
M  V30 1945 H 192.604 7.71255 -0.488437 0
M  V30 1946 H 190.949 6.93654 -0.432329 0
M  V30 1947 H 194.14 4.681 -0.00115036 0
M  V30 1948 H 194.313 6.47501 -0.254247 0
M  V30 1949 N 187.719 -0.156864 1.56817 0
M  V30 1950 C 188.944 -0.890331 1.87318 0
M  V30 1951 C 189.369 -1.74394 0.704855 0
M  V30 1952 O 188.727 -1.77972 -0.345786 0
M  V30 1953 C 188.775 -1.73102 3.16336 0
M  V30 1954 O 187.879 -2.83422 2.99576 0
M  V30 1955 H 187.22 -0.24857 0.615718 0
M  V30 1956 H 189.75 -0.150649 2.04045 0
M  V30 1957 H 189.76 -2.12803 3.48107 0
M  V30 1958 H 188.435 -1.10412 4.00976 0
M  V30 1959 H 187.012 -2.47199 2.7919 0
M  V30 1960 N 189.197 -1.51736 -0.425897 0
M  V30 1961 C 190.608 -1.5732 -1.00536 0
M  V30 1962 C 190.959 -0.403537 -1.92005 0
M  V30 1963 O 190.084 0.478256 -2.11049 0
M  V30 1964 C 190.679 -2.85119 -1.8301 0
M  V30 1965 C 189.238 -2.93236 -2.35987 0
M  V30 1966 C 188.385 -2.52098 -1.15508 0
M  V30 1967 H 191.336 -1.57348 -0.206739 0
M  V30 1968 H 191.357 -2.69526 -2.68581 0
M  V30 1969 H 190.869 -3.7023 -1.16411 0
M  V30 1970 H 188.97 -2.12581 -3.06007 0
M  V30 1971 H 189.083 -3.9713 -2.68001 0
M  V30 1972 H 187.447 -2.05558 -1.50393 0
M  V30 1973 H 188.23 -3.39565 -0.505014 0
M  V30 1974 N 190.675 0.682077 -1.42076 0
M  V30 1975 C 191.585 1.82535 -1.47371 0
M  V30 1976 C 192.601 1.7017 -0.363079 0
M  V30 1977 O 193.777 1.91848 -0.612875 0
M  V30 1978 C 190.842 3.18624 -1.36674 0
M  V30 1979 C 189.903 3.42999 -2.58167 0
M  V30 1980 C 189.136 4.72595 -2.4797 0
M  V30 1981 O 189.359 5.50006 -1.5116 0
M  V30 1982 O 188.293 4.98054 -3.37974 0
M  V30 1983 H 192.119 1.81023 -2.43853 0
M  V30 1984 H 189.704 0.836887 -1.2376 0
M  V30 1985 H 191.586 3.99847 -1.33043 0
M  V30 1986 H 190.261 3.20789 -0.433138 0
M  V30 1987 H 189.168 2.61653 -2.67373 0
M  V30 1988 H 190.501 3.45659 -3.50401 0
M  V30 1989 N 192.153 1.28127 0.917671 0
M  V30 1990 C 193.063 1.13556 2.05286 0
M  V30 1991 C 194.079 0.0630914 1.73886 0
M  V30 1992 O 195.255 0.271598 1.9956 0
M  V30 1993 C 192.32 0.794676 3.3747 0
M  V30 1994 C 191.381 1.94909 3.82504 0
M  V30 1995 C 190.614 1.62437 5.0838 0
M  V30 1996 O 190.837 0.536905 5.67867 0
M  V30 1997 O 189.771 2.46677 5.4903 0
M  V30 1998 H 193.597 2.08844 2.20495 0
M  V30 1999 H 191.182 1.07409 1.03845 0
M  V30 2000 H 193.064 0.618344 4.16839 0
M  V30 2001 H 191.739 -0.128581 3.23445 0
M  V30 2002 H 190.646 2.18055 3.03978 0
M  V30 2003 H 191.979 2.85291 4.01086 0
M  V30 2004 N 193.631 -1.12557 1.10312 0
M  V30 2005 C 194.877 -1.84311 0.846011 0
M  V30 2006 C 195.21 -1.83805 -0.626859 0
M  V30 2007 O 194.485 -1.28268 -1.46211 0
M  V30 2008 C 194.768 -3.32048 1.39341 0
M  V30 2009 C 194.621 -3.41016 2.93305 0
M  V30 2010 C 195.94 -4.27764 1.03468 0
M  V30 2011 H 193.059 -0.669192 0.30879 0
M  V30 2012 H 195.701 -1.32057 1.36605 0
M  V30 2013 H 193.851 -3.76678 0.951087 0
M  V30 2014 H 195.523 -3.05031 3.46055 0
M  V30 2015 H 193.766 -2.81603 3.29973 0
M  V30 2016 H 194.437 -4.44948 3.26689 0
M  V30 2017 H 196.913 -3.91253 1.41633 0
M  V30 2018 H 195.789 -5.29549 1.44463 0
M  V30 2019 H 196.05 -4.42064 -0.0560404 0
M  V30 2020 N 195.109 -0.891671 -1.2995 0
M  V30 2021 C 196.525 -0.58662 -1.48428 0
M  V30 2022 C 196.725 0.873951 -1.81561 0
M  V30 2023 O 195.781 1.65471 -1.90724 0
M  V30 2024 C 197.094 -1.50553 -2.60296 0
M  V30 2025 C 198.642 -1.50988 -2.74175 0
M  V30 2026 C 199.117 -2.41488 -3.89163 0
M  V30 2027 N 200.608 -2.39489 -3.96483 0
M  V30 2028 C 201.343 -3.06223 -4.84784 0
M  V30 2029 N 200.839 -3.82206 -5.77833 0
M  V30 2030 N 202.632 -2.95421 -4.78208 0
M  V30 2031 H 194.783 -1.83644 -1.06718 0
M  V30 2032 H 197.046 -0.786455 -0.529332 0
M  V30 2033 H 196.752 -2.54581 -2.42654 0
M  V30 2034 H 196.626 -1.22008 -3.56923 0
M  V30 2035 H 199.013 -0.47708 -2.91218 0
M  V30 2036 H 199.094 -1.83567 -1.78148 0
M  V30 2037 H 198.738 -3.44857 -3.72876 0
M  V30 2038 H 198.668 -2.06222 -4.84541 0
M  V30 2039 H 201.159 -1.84278 -3.29924 0
M  V30 2040 H 201.472 -4.302 -6.41988 0
M  V30 2041 H 199.817 -3.86313 -5.77743 0
M  V30 2042 H 203.008 -2.35581 -4.04499 0
M  V30 2043 H 203.181 -3.47704 -5.46814 0
M  V30 2044 N 196.587 1.43421 -0.653314 0
M  V30 2045 C 197.834 2.01812 -0.166745 0
M  V30 2046 C 198.162 1.51535 1.21931 0
M  V30 2047 O 197.417 0.698975 1.82792 0
M  V30 2048 C 197.716 3.57176 -0.126623 0
M  V30 2049 C 197.382 4.26798 -1.45444 0
M  V30 2050 C 196.044 4.45534 -1.81805 0
M  V30 2051 C 198.396 4.66225 -2.32989 0
M  V30 2052 C 195.724 5.00961 -3.05377 0
M  V30 2053 C 198.076 5.23021 -3.55853 0
M  V30 2054 C 196.74 5.39973 -3.9241 0
M  V30 2055 H 196.01 0.738484 -0.0610162 0
M  V30 2056 H 198.657 1.71896 -0.84404 0
M  V30 2057 H 196.962 3.86634 0.634123 0
M  V30 2058 H 198.659 4.00112 0.266723 0
M  V30 2059 H 195.249 4.12561 -1.16153 0
M  V30 2060 H 199.433 4.51443 -2.06187 0
M  V30 2061 H 194.689 5.12271 -3.3375 0
M  V30 2062 H 198.863 5.52518 -4.23907 0
M  V30 2063 H 196.49 5.82687 -4.88242 0
M  V30 2064 N 198.065 0.39524 1.52563 0
M  V30 2065 C 198.995 -0.428384 2.29537 0
M  V30 2066 C 199.976 -1.05831 1.33169 0
M  V30 2067 O 201.161 -1.06995 1.62067 0
M  V30 2068 C 198.291 -1.55274 3.10656 0
M  V30 2069 C 197.245 -1.04855 4.14957 0
M  V30 2070 C 196.571 -2.26543 4.84337 0
M  V30 2071 C 197.871 -0.112324 5.22179 0
M  V30 2072 H 199.565 0.213867 2.98635 0
M  V30 2073 H 197.111 0.104298 1.43622 0
M  V30 2074 H 199.064 -2.1358 3.63265 0
M  V30 2075 H 197.788 -2.22266 2.39302 0
M  V30 2076 H 196.447 -0.487985 3.63338 0
M  V30 2077 H 196.095 -2.92059 4.09525 0
M  V30 2078 H 195.795 -1.93466 5.54837 0
M  V30 2079 H 197.319 -2.85481 5.39753 0
M  V30 2080 H 198.733 -0.603752 5.70112 0
M  V30 2081 H 197.13 0.128968 5.99961 0
M  V30 2082 H 198.2 0.837052 4.77621 0
M  V30 2083 N 199.544 -1.57102 0.125237 0
M  V30 2084 C 200.477 -2.11371 -0.860094 0
M  V30 2085 C 201.455 -1.03168 -1.25679 0
M  V30 2086 O 202.639 -1.30862 -1.35674 0
M  V30 2087 C 199.766 -2.61555 -2.1519 0
M  V30 2088 C 198.812 -3.81701 -1.9028 0
M  V30 2089 S 199.645 -5.23797 -1.11343 0
M  V30 2090 C 200.801 -5.77353 -2.41689 0
M  V30 2091 H 201.034 -2.94617 -0.39852 0
M  V30 2092 H 198.567 -1.54145 -0.0886555 0
M  V30 2093 H 200.525 -2.91122 -2.89411 0
M  V30 2094 H 199.186 -1.78479 -2.58465 0
M  V30 2095 H 198.379 -4.14985 -2.86014 0
M  V30 2096 H 197.981 -3.52783 -1.24178 0
M  V30 2097 H 200.273 -5.87458 -3.37489 0
M  V30 2098 H 201.216 -6.75323 -2.12942 0
M  V30 2099 H 201.624 -5.05457 -2.51342 0
M  V30 2100 N 201.022 0.148545 -1.56898 0
M  V30 2101 C 202.27 0.859717 -1.82902 0
M  V30 2102 C 202.591 1.81775 -0.70588 0
M  V30 2103 O 201.861 1.93994 0.272586 0
M  V30 2104 H 200.441 0.320469 -0.674766 0
M  V30 2105 H 203.103 0.142918 -1.94375 0
M  V30 2106 H 202.199 1.4229 -2.77777 0
M  V30 2107 N 202.5 1.5196 0.417844 0
M  V30 2108 C 203.747 1.65591 1.16559 0
M  V30 2109 C 204.075 0.381565 1.90721 0
M  V30 2110 O 203.33 -0.635156 1.85106 0
M  V30 2111 C 203.629 2.82269 2.19223 0
M  V30 2112 C 203.295 4.20819 1.61933 0
M  V30 2113 C 201.957 4.58506 1.46033 0
M  V30 2114 C 204.309 5.07196 1.20008 0
M  V30 2115 C 201.637 5.80257 0.867113 0
M  V30 2116 C 203.989 6.29544 0.621086 0
M  V30 2117 C 202.653 6.65987 0.449144 0
M  V30 2118 H 201.923 0.605939 0.42652 0
M  V30 2119 H 204.57 1.86041 0.45397 0
M  V30 2120 H 202.875 2.56118 2.96498 0
M  V30 2121 H 204.572 2.90012 2.76936 0
M  V30 2122 H 201.162 3.91116 1.7529 0
M  V30 2123 H 205.346 4.7867 1.31105 0
M  V30 2124 H 200.602 6.07124 0.721833 0
M  V30 2125 H 204.776 6.95805 0.287798 0
M  V30 2126 H 202.403 7.60199 -0.012632 0
M  V30 2127 N 203.978 -0.674533 1.42435 0
M  V30 2128 C 204.926 -1.80934 1.46169 0
M  V30 2129 C 205.92 -1.66006 0.3374 0
M  V30 2130 O 207.126 -1.72611 0.510425 0
M  V30 2131 H 203.501 -0.596594 0.457798 0
M  V30 2132 H 205.472 -1.74903 2.41767 0
M  V30 2133 C 204.221 -3.19088 1.38123 0
M  V30 2134 H 203.544 -3.31203 2.23931 0
M  V30 2135 H 204.984 -3.9851 1.44797 0
M  V30 2136 C 203.443 -3.36763 0.0960517 0
M  V30 2137 O 203.973 -3.92581 -0.851073 0
M  V30 2138 N 202.179 -2.90597 0.0131186 0
M  V30 2139 H 201.726 -2.45359 0.784639 0
M  V30 2140 H 201.684 -3.028 -0.846133 0
M  V30 2141 N 205.456 -1.28612 -0.910864 0
M  V30 2142 C 206.872 -1.06381 -1.18976 0
M  V30 2143 C 207.072 0.191998 -2.00583 0
M  V30 2144 O 206.128 0.892869 -2.36187 0
M  V30 2145 C 207.441 -2.31295 -1.92154 0
M  V30 2146 C 208.989 -2.36503 -2.05025 0
M  V30 2147 C 209.464 -3.61191 -2.81612 0
M  V30 2148 N 210.955 -3.61847 -2.89172 0
M  V30 2149 C 211.69 -4.55004 -3.4894 0
M  V30 2150 N 211.186 -5.58482 -4.09963 0
M  V30 2151 N 212.979 -4.42594 -3.46506 0
M  V30 2152 H 205.13 -2.09221 -0.366094 0
M  V30 2153 H 207.393 -0.921003 -0.224629 0
M  V30 2154 H 207.099 -3.228 -1.39618 0
M  V30 2155 H 206.973 -2.37934 -2.9269 0
M  V30 2156 H 209.36 -1.45494 -2.5674 0
M  V30 2157 H 209.441 -2.33857 -1.03657 0
M  V30 2158 H 209.085 -4.52545 -2.30576 0
M  V30 2159 H 209.015 -3.61092 -3.83302 0
M  V30 2160 H 211.506 -2.87022 -2.45819 0
M  V30 2161 H 211.819 -6.25704 -4.53557 0
M  V30 2162 H 210.164 -5.62305 -4.08459 0
M  V30 2163 H 213.355 -3.60953 -2.98045 0
M  V30 2164 H 213.528 -5.15381 -3.92793 0
M  V30 2165 N 206.934 1.1197 -1.10907 0
M  V30 2166 C 208.211 1.79959 -0.766432 0
M  V30 2167 C 208.591 1.97466 0.746363 0
M  V30 2168 O 207.939 1.55491 1.67436 0
M  V30 2169 C 208.149 3.14009 -1.52314 0
M  V30 2170 C 209.497 3.89134 -1.69883 0
M  V30 2171 O 210.521 3.2368 -1.48692 0
M  V30 2172 O 209.38 5.06572 -2.05054 0
M  V30 2173 H 206.474 0.779208 -0.277062 0
M  V30 2174 H 209.02 1.18762 -1.21217 0
M  V30 2175 H 207.792 2.96587 -2.55249 0
M  V30 2176 H 207.415 3.82915 -1.07059 0
M  V30 2177 N 208.412 0.89855 1.29475 0
M  V30 2178 C 209.658 0.524658 1.95896 0
M  V30 2179 C 209.991 -0.926468 1.70676 0
M  V30 2180 O 209.266 -1.65665 1.01908 0
M  V30 2181 C 209.549 0.81633 3.50725 0
M  V30 2182 C 209.402 2.31907 3.85408 0
M  V30 2183 C 210.721 0.302038 4.39062 0
M  V30 2184 H 207.84 0.19209 0.711527 0
M  V30 2185 H 210.482 1.12502 1.53112 0
M  V30 2186 H 208.632 0.305369 3.87298 0
M  V30 2187 H 210.304 2.89949 3.58786 0
M  V30 2188 H 208.547 2.78027 3.32992 0
M  V30 2189 H 209.218 2.47373 4.93468 0
M  V30 2190 H 211.694 0.739551 4.09475 0
M  V30 2191 H 210.57 0.535331 5.46283 0
M  V30 2192 H 210.831 -0.797216 4.34853 0
M  V30 2193 N 209.89 -1.43072 0.660911 0
M  V30 2194 C 211.136 -2.0202 0.177708 0
M  V30 2195 C 211.469 -1.52066 -1.20787 0
M  V30 2196 O 210.744 -0.716987 -1.80802 0
M  V30 2197 C 211.027 -3.59561 0.197019 0
M  V30 2198 C 210.88 -4.19727 1.61706 0
M  V30 2199 C 212.199 -4.37664 -0.462396 0
M  V30 2200 H 209.318 -0.734034 0.0660494 0
M  V30 2201 H 211.96 -1.70272 0.843058 0
M  V30 2202 H 210.11 -3.86739 -0.369527 0
M  V30 2203 H 211.782 -4.03553 2.23479 0
M  V30 2204 H 210.025 -3.76084 2.16201 0
M  V30 2205 H 210.696 -5.28834 1.58237 0
M  V30 2206 H 213.172 -4.16095 0.0197215 0
M  V30 2207 H 212.048 -5.47305 -0.418188 0
M  V30 2208 H 212.309 -4.14493 -1.53778 0
M  V30 2209 N 211.368 -0.403325 -1.52352 0
M  V30 2210 C 212.784 -0.0539281 -1.59509 0
M  V30 2211 C 212.984 1.43307 -1.41652 0
M  V30 2212 O 212.04 2.19924 -1.24056 0
M  V30 2213 C 213.353 -0.543654 -2.95745 0
M  V30 2214 C 214.901 -0.501125 -3.08962 0
M  V30 2215 C 215.376 -0.967267 -4.47669 0
M  V30 2216 N 216.867 -0.923849 -4.53893 0
M  V30 2217 C 217.602 -1.25578 -5.5948 0
M  V30 2218 N 217.098 -1.65889 -6.72646 0
M  V30 2219 N 218.891 -1.17613 -5.49658 0
M  V30 2220 H 211.042 -1.37123 -1.62206 0
M  V30 2221 H 213.305 -0.56294 -0.76276 0
M  V30 2222 H 213.011 -1.58275 -3.14073 0
M  V30 2223 H 212.885 0.0498042 -3.77167 0
M  V30 2224 H 215.272 0.528909 -2.90321 0
M  V30 2225 H 215.353 -1.13056 -2.2946 0
M  V30 2226 H 214.997 -1.9956 -4.67053 0
M  V30 2227 H 214.927 -0.314698 -5.25659 0
M  V30 2228 H 217.418 -0.627403 -3.72655 0
M  V30 2229 H 217.731 -1.89543 -7.49195 0
M  V30 2230 H 216.076 -1.69787 -6.73942 0
M  V30 2231 H 219.267 -0.860115 -4.6013 0
M  V30 2232 H 219.44 -1.43812 -6.3184 0
M  V30 2233 N 212.846 1.57033 -0.133567 0
M  V30 2234 C 214.262 1.58035 0.222944 0
M  V30 2235 C 214.462 1.14713 1.6566 0
M  V30 2236 O 213.518 0.841218 2.38075 0
M  V30 2237 C 214.831 3.00691 -0.0236116 0
M  V30 2238 C 216.379 3.12973 0.0411512 0
M  V30 2239 C 216.854 4.57654 -0.177899 0
M  V30 2240 N 218.345 4.63033 -0.124365 0
M  V30 2241 C 219.08 5.72771 -0.268553 0
M  V30 2242 N 218.576 6.91206 -0.46972 0
M  V30 2243 N 220.369 5.61718 -0.2071 0
M  V30 2244 H 212.52 1.8349 -1.06981 0
M  V30 2245 H 214.783 0.848677 -0.422436 0
M  V30 2246 H 214.489 3.36726 -1.0153 0
M  V30 2247 H 214.363 3.70614 0.701808 0
M  V30 2248 H 216.75 2.76787 1.02338 0
M  V30 2249 H 216.831 2.45564 -0.716383 0
M  V30 2250 H 216.475 4.94542 -1.15717 0
M  V30 2251 H 216.405 5.23173 0.599797 0
M  V30 2252 H 218.896 3.7789 0.027011 0
M  V30 2253 H 219.209 7.70693 -0.570212 0
M  V30 2254 H 217.554 6.93156 -0.505876 0
M  V30 2255 H 220.745 4.68072 -0.0507986 0
M  V30 2256 H 220.918 6.47195 -0.322909 0
M  V30 2257 N 214.325 -0.140222 1.56975 0
M  V30 2258 C 215.741 -0.493088 1.51792 0
M  V30 2259 C 215.941 -1.83013 0.843116 0
M  V30 2260 O 214.997 -2.49041 0.416493 0
M  V30 2261 C 216.31 -0.497144 2.96562 0
M  V30 2262 C 217.858 -0.582186 3.07538 0
M  V30 2263 C 218.333 -0.616838 4.53827 0
M  V30 2264 N 219.824 -0.678873 4.58198 0
M  V30 2265 C 220.559 -0.726782 5.68775 0
M  V30 2266 N 220.055 -0.733623 6.88905 0
M  V30 2267 N 221.848 -0.768179 5.56826 0
M  V30 2268 H 213.999 0.736108 1.99237 0
M  V30 2269 H 216.262 0.269182 0.90898 0
M  V30 2270 H 215.968 0.417217 3.49217 0
M  V30 2271 H 215.842 -1.33263 3.52875 0
M  V30 2272 H 218.229 -1.48697 2.54899 0
M  V30 2273 H 218.31 0.280581 2.54257 0
M  V30 2274 H 217.954 0.283812 5.07106 0
M  V30 2275 H 217.884 -1.49619 5.04898 0
M  V30 2276 H 220.375 -0.68061 3.7172 0
M  V30 2277 H 220.688 -0.772215 7.68932 0
M  V30 2278 H 219.033 -0.701389 6.91452 0
M  V30 2279 H 222.224 -0.760051 4.61888 0
M  V30 2280 H 222.397 -0.80205 6.43017 0
M  V30 2281 N 215.803 -1.52179 -0.40978 0
M  V30 2282 C 217.219 -1.40968 -0.74835 0
M  V30 2283 C 217.419 -0.513657 -1.94843 0
M  V30 2284 O 216.475 0.0208026 -2.52491 0
M  V30 2285 C 217.788 -2.83483 -1.0029 0
M  V30 2286 C 219.336 -2.92821 -1.10565 0
M  V30 2287 C 219.811 -4.36303 -1.39296 0
M  V30 2288 N 221.302 -4.39535 -1.46162 0
M  V30 2289 C 222.037 -5.47614 -1.70018 0
M  V30 2290 N 221.533 -6.65812 -1.91483 0
M  V30 2291 N 223.326 -5.35129 -1.72027 0
M  V30 2292 H 215.477 -2.0897 0.380186 0
M  V30 2293 H 217.74 -0.94185 0.107805 0
M  V30 2294 H 217.446 -3.51168 -0.193461 0
M  V30 2295 H 217.32 -3.24487 -1.92323 0
M  V30 2296 H 219.707 -2.25318 -1.90568 0
M  V30 2297 H 219.788 -2.55276 -0.16369 0
M  V30 2298 H 219.432 -5.04366 -0.598109 0
M  V30 2299 H 219.362 -4.71385 -2.34743 0
M  V30 2300 H 221.853 -3.54332 -1.31367 0
M  V30 2301 H 222.166 -7.43964 -2.09134 0
M  V30 2302 H 220.511 -6.68879 -1.88749 0
M  V30 2303 H 223.702 -4.41764 -1.54796 0
M  V30 2304 H 223.875 -6.19433 -1.9028 0
M  V30 2305 N 217.281 0.66697 -1.42791 0
M  V30 2306 C 218.558 1.4234 -1.34159 0
M  V30 2307 C 218.938 2.11093 0.0172729 0
M  V30 2308 O 218.286 2.03808 1.03318 0
M  V30 2309 C 218.496 2.41942 -2.51526 0
M  V30 2310 C 219.844 3.06353 -2.93995 0
M  V30 2311 O 220.868 2.52269 -2.51473 0
M  V30 2312 O 219.727 4.04376 -3.67617 0
M  V30 2313 H 216.821 0.635277 -0.529483 0
M  V30 2314 H 219.367 0.695034 -1.54814 0
M  V30 2315 H 218.139 1.89991 -3.42081 0
M  V30 2316 H 217.762 3.22249 -2.32898 0
M  V30 2317 N 218.759 1.29093 0.90403 0
M  V30 2318 C 219.987 1.19689 1.68766 0
M  V30 2319 C 220.402 -0.243113 1.87228 0
M  V30 2320 O 219.759 -1.16326 1.40621 0
M  V30 2321 C 219.81 1.90144 3.07453 0
M  V30 2322 O 219.531 3.2852 2.89838 0
M  V30 2323 C 221.032 1.87162 4.01852 0
M  V30 2324 H 218.252 0.415035 0.527244 0
M  V30 2325 H 220.796 1.7039 1.13082 0
M  V30 2326 H 218.951 1.43289 3.59926 0
M  V30 2327 H 219.365 3.63944 3.77684 0
M  V30 2328 H 220.839 2.41032 4.96596 0
M  V30 2329 H 221.316 0.84617 4.30972 0
M  V30 2330 H 221.922 2.33741 3.5531 0
M  V30 2331 N 220.237 -1.11381 1.11499 0
M  V30 2332 C 221.167 -2.19509 0.796125 0
M  V30 2333 C 222.148 -1.68458 -0.235796 0
M  V30 2334 O 223.333 -1.93947 -0.0991344 0
M  V30 2335 C 220.463 -3.46475 0.239205 0
M  V30 2336 C 219.417 -4.10744 1.20307 0
M  V30 2337 C 218.743 -5.32293 0.50683 0
M  V30 2338 C 220.043 -4.55597 2.55399 0
M  V30 2339 H 221.737 -2.46439 1.70024 0
M  V30 2340 H 219.283 -1.18446 0.818935 0
M  V30 2341 H 221.236 -4.214 0.00392006 0
M  V30 2342 H 219.96 -3.19006 -0.700206 0
M  V30 2343 H 218.619 -3.37813 1.42399 0
M  V30 2344 H 218.267 -5.01095 -0.437408 0
M  V30 2345 H 217.967 -5.76243 1.1497 0
M  V30 2346 H 219.491 -6.09956 0.280351 0
M  V30 2347 H 220.905 -5.21841 2.37391 0
M  V30 2348 H 219.302 -5.10363 3.15673 0
M  V30 2349 H 220.372 -3.69013 3.14575 0
M  V30 2350 N 221.715 -0.905404 -1.28997 0
M  V30 2351 C 222.662 -0.385892 -2.27551 0
M  V30 2352 C 223.632 0.535113 -1.57244 0
M  V30 2353 O 224.817 0.459119 -1.85194 0
M  V30 2354 C 221.957 0.375461 -3.43051 0
M  V30 2355 C 221.07 -0.577092 -4.28128 0
M  V30 2356 C 220.205 0.201879 -5.30816 0
M  V30 2357 C 219.244 -0.744829 -6.07551 0
M  V30 2358 N 218.381 9.42587e-05 -7.021 0
M  V30 2359 H 223.221 -1.23139 -2.71368 0
M  V30 2360 H 220.758 -0.618542 -1.33463 0
M  V30 2361 H 222.716 0.832992 -4.088 0
M  V30 2362 H 221.346 1.18537 -3.00248 0
M  V30 2363 H 220.398 -1.15315 -3.62501 0
M  V30 2364 H 221.71 -1.30152 -4.8152 0
M  V30 2365 H 220.864 0.720351 -6.02408 0
M  V30 2366 H 219.603 0.959413 -4.7817 0
M  V30 2367 H 218.608 -1.27475 -5.34818 0
M  V30 2368 H 219.833 -1.50178 -6.62286 0
M  V30 2369 H 217.779 0.739791 -6.51815 0
M  V30 2370 H 217.696 -0.664321 -7.53076 0
M  V30 2371 H 218.964 0.498644 -7.77903 0
M  V30 2372 N 223.193 1.4272 -0.668489 0
M  V30 2373 C 224.14 2.30796 0.0137489 0
M  V30 2374 C 225.11 1.4561 0.799177 0
M  V30 2375 O 226.295 1.74453 0.772702 0
M  V30 2376 C 223.435 3.31377 0.963507 0
M  V30 2377 C 222.548 4.31655 0.172569 0
M  V30 2378 C 221.683 5.19312 1.1175 0
M  V30 2379 C 220.722 6.11274 0.317886 0
M  V30 2380 N 219.859 6.91504 1.2152 0
M  V30 2381 H 224.699 2.88585 -0.743161 0
M  V30 2382 H 222.236 1.42154 -0.378226 0
M  V30 2383 H 224.194 3.88214 1.52792 0
M  V30 2384 H 222.824 2.75202 1.68712 0
M  V30 2385 H 221.876 3.76988 -0.508374 0
M  V30 2386 H 223.188 4.96779 -0.448527 0
M  V30 2387 H 222.342 5.80851 1.75206 0
M  V30 2388 H 221.081 4.5435 1.77249 0
M  V30 2389 H 220.086 5.48809 -0.329918 0
M  V30 2390 H 221.311 6.78283 -0.332917 0
M  V30 2391 H 219.257 6.29176 1.85671 0
M  V30 2392 H 219.174 7.53209 0.649036 0
M  V30 2393 H 220.442 7.57535 1.83742 0
M  V30 2394 N 224.671 0.411399 1.52136 0
M  V30 2395 C 225.601 -0.404015 2.29978 0
M  V30 2396 C 226.582 -1.04412 1.34284 0
M  V30 2397 O 227.767 -1.0527 1.63192 0
M  V30 2398 C 224.897 -1.5197 3.12286 0
M  V30 2399 C 223.851 -1.00448 4.16046 0
M  V30 2400 C 223.177 -2.21393 4.86712 0
M  V30 2401 C 224.477 -0.0569336 5.22269 0
M  V30 2402 H 226.171 0.245529 2.98392 0
M  V30 2403 H 223.717 0.119525 1.43503 0
M  V30 2404 H 225.67 -2.09715 3.6551 0
M  V30 2405 H 224.394 -2.19716 2.41646 0
M  V30 2406 H 223.053 -0.449421 3.63835 0
M  V30 2407 H 222.701 -2.87699 4.12599 0
M  V30 2408 H 222.401 -1.87571 5.56858 0
M  V30 2409 H 223.925 -2.7974 5.4275 0
M  V30 2410 H 225.339 -0.54325 5.7072 0
M  V30 2411 H 223.736 0.192594 5.99791 0
M  V30 2412 H 224.806 0.887663 4.76706 0
M  V30 2413 N 226.149 -1.5696 0.141893 0
M  V30 2414 C 227.397 -1.95573 -0.509484 0
M  V30 2415 C 227.718 -1.02746 -1.65736 0
M  V30 2416 O 226.988 -0.0880311 -1.95702 0
M  V30 2417 H 225.568 -0.722115 -0.191205 0
M  V30 2418 H 228.23 -1.93697 0.216196 0
M  V30 2419 H 227.326 -2.99171 -0.889 0
M  V30 2420 N 227.627 0.131896 -1.57047 0
M  V30 2421 C 228.873 0.843179 -1.84441 0
M  V30 2422 C 229.206 1.80129 -0.725749 0
M  V30 2423 O 228.481 1.92624 0.269469 0
M  V30 2424 C 228.764 1.60442 -3.22382 0
M  V30 2425 C 228.617 0.666782 -4.4483 0
M  V30 2426 C 229.936 2.56354 -3.5773 0
M  V30 2427 H 227.055 0.305081 -0.670891 0
M  V30 2428 H 229.697 0.107839 -1.89694 0
M  V30 2429 H 227.847 2.23128 -3.18035 0
M  V30 2430 H 229.519 0.0497646 -4.61273 0
M  V30 2431 H 227.762 -0.022609 -4.33794 0
M  V30 2432 H 228.433 1.23579 -5.37989 0
M  V30 2433 H 230.909 2.0378 -3.62785 0
M  V30 2434 H 229.785 3.06657 -4.5525 0
M  V30 2435 H 230.046 3.38419 -2.84473 0
M  V30 2436 N 229.106 1.52395 0.401703 0
M  V30 2437 C 230.522 1.41363 0.740864 0
M  V30 2438 C 230.722 0.523982 1.94568 0
M  V30 2439 O 229.778 -0.00741204 2.52499 0
M  V30 2440 C 231.091 2.84011 0.987847 0
M  V30 2441 C 232.639 2.93404 1.09011 0
M  V30 2442 C 233.114 4.37036 1.3698 0
M  V30 2443 N 234.605 4.40304 1.43829 0
M  V30 2444 C 235.34 5.48508 1.67112 0
M  V30 2445 N 234.836 6.66819 1.87949 0
M  V30 2446 N 236.629 5.36034 1.69187 0
M  V30 2447 H 228.78 2.08765 -0.391262 0
M  V30 2448 H 231.043 0.941265 -0.112798 0
M  V30 2449 H 230.749 3.51265 0.174835 0
M  V30 2450 H 230.623 3.25502 1.906 0
M  V30 2451 H 233.01 2.26325 1.8937 0
M  V30 2452 H 233.091 2.55359 0.15015 0
M  V30 2453 H 232.735 5.04676 0.571353 0
M  V30 2454 H 232.665 4.72623 2.3224 0
M  V30 2455 H 235.156 3.55024 1.29486 0
M  V30 2456 H 235.469 7.45063 2.05185 0
M  V30 2457 H 233.814 6.6987 1.85199 0
M  V30 2458 H 237.005 4.42579 1.52451 0
M  V30 2459 H 237.178 6.20434 1.86993 0
M  V30 2460 N 230.584 -0.659388 1.43143 0
M  V30 2461 C 231.833 -1.41518 1.43721 0
M  V30 2462 C 232.146 -1.95499 0.0628176 0
M  V30 2463 O 233.352 -2.71446 -0.0539683 0
M  V30 2464 C 231.808 -2.5608 2.52885 0
M  V30 2465 C 231.416 -2.08733 3.96402 0
M  V30 2466 C 233.16 -3.3349 2.62649 0
M  V30 2467 C 231.067 -3.20469 4.97045 0
M  V30 2468 H 229.997 -0.531705 0.534608 0
M  V30 2469 H 232.648 -0.712343 1.69109 0
M  V30 2470 H 231.03 -3.28805 2.20688 0
M  V30 2471 H 232.204 -1.43059 4.3803 0
M  V30 2472 H 230.519 -1.44219 3.90627 0
M  V30 2473 H 233.116 -4.16734 3.35017 0
M  V30 2474 H 233.459 -3.8111 1.67513 0
M  V30 2475 H 233.992 -2.67842 2.94118 0
M  V30 2476 H 230.731 -2.77824 5.93712 0
M  V30 2477 H 230.251 -3.84874 4.60034 0
M  V30 2478 H 231.93 -3.85698 5.19467 0
M  V30 2479 N 232.062 -1.29571 -0.897171 0
M  V30 2480 C 233.478 -1.07637 -1.17841 0
M  V30 2481 C 233.678 0.170713 -2.00776 0
M  V30 2482 O 232.734 0.867768 -2.3712 0
M  V30 2483 C 234.047 -2.3332 -1.8969 0
M  V30 2484 C 235.595 -2.38664 -2.02505 0
M  V30 2485 C 236.07 -3.64157 -2.77765 0
M  V30 2486 N 237.561 -3.64894 -2.85318 0
M  V30 2487 C 238.296 -4.58679 -3.44094 0
M  V30 2488 N 237.792 -5.62799 -4.04017 0
M  V30 2489 N 239.585 -4.46245 -3.41793 0
M  V30 2490 H 231.736 -2.09598 -0.343883 0
M  V30 2491 H 233.999 -0.923333 -0.214848 0
M  V30 2492 H 233.705 -3.24262 -1.36187 0
M  V30 2493 H 233.579 -2.41025 -2.9015 0
M  V30 2494 H 235.966 -1.48208 -2.55183 0
M  V30 2495 H 236.047 -2.34943 -1.01171 0
M  V30 2496 H 235.691 -4.54965 -2.25763 0
M  V30 2497 H 235.621 -3.65137 -3.7945 0
M  V30 2498 H 238.112 -2.89613 -2.42761 0
M  V30 2499 H 238.425 -6.3048 -4.46895 0
M  V30 2500 H 236.77 -5.66605 -4.02472 0
M  V30 2501 H 239.961 -3.64094 -2.94199 0
M  V30 2502 H 240.134 -5.19518 -3.87304 0
M  V30 2503 N 233.54 1.10788 -1.12088 0
M  V30 2504 C 234.786 1.8313 -0.885148 0
M  V30 2505 C 235.141 1.8336 0.582839 0
M  V30 2506 O 234.434 1.28062 1.42516 0
M  V30 2507 C 234.628 3.29294 -1.38926 0
M  V30 2508 C 234.457 3.43302 -2.90472 0
M  V30 2509 C 233.227 3.55928 -3.58669 0
M  V30 2510 C 235.425 3.37014 -3.88492 0
M  V30 2511 N 233.407 3.58475 -4.98366 0
M  V30 2512 C 234.778 3.46263 -5.14298 0
M  V30 2513 C 236.833 3.20589 -3.80955 0
M  V30 2514 C 235.536 3.4078 -6.33452 0
M  V30 2515 C 237.562 3.16427 -4.99628 0
M  V30 2516 C 236.924 3.26253 -6.2429 0
M  V30 2517 H 233.023 0.685054 -0.377128 0
M  V30 2518 H 235.607 1.3251 -1.4265 0
M  V30 2519 H 233.778 3.78416 -0.874999 0
M  V30 2520 H 235.51 3.89578 -1.09596 0
M  V30 2521 H 232.265 3.58779 -3.09151 0
M  V30 2522 H 232.689 3.6337 -5.71219 0
M  V30 2523 H 237.331 3.11873 -2.85474 0
M  V30 2524 H 235.049 3.48263 -7.29204 0
M  V30 2525 H 238.635 3.04874 -4.95523 0
M  V30 2526 H 237.515 3.2303 -7.14578 0
M  V30 2527 N 235.018 0.912232 1.28515 0
M  V30 2528 C 236.264 0.545405 1.95328 0
M  V30 2529 C 236.597 -0.908313 1.71649 0
M  V30 2530 O 235.872 -1.64575 1.03659 0
M  V30 2531 C 236.155 0.853483 3.4984 0
M  V30 2532 C 236.008 2.35982 3.82926 0
M  V30 2533 C 237.327 0.348589 4.38717 0
M  V30 2534 H 234.446 0.199626 0.709449 0
M  V30 2535 H 237.088 1.1412 1.5191 0
M  V30 2536 H 235.238 0.34643 3.86952 0
M  V30 2537 H 236.91 2.93738 3.55691 0
M  V30 2538 H 235.153 2.81543 3.30024 0
M  V30 2539 H 235.824 2.52593 4.90816 0
M  V30 2540 H 238.3 0.78294 4.08668 0
M  V30 2541 H 237.176 0.593242 5.45685 0
M  V30 2542 H 237.437 -0.751049 4.35674 0
M  V30 2543 N 236.496 -1.42363 0.676048 0
M  V30 2544 C 237.744 -2.01123 0.198437 0
M  V30 2545 C 238.065 -1.53731 -1.19966 0
M  V30 2546 O 237.335 -0.759518 -1.80577 0
M  V30 2547 H 235.915 -0.743678 0.0703721 0
M  V30 2548 H 238.577 -1.74263 0.872837 0
M  V30 2549 H 237.673 -3.11454 0.200686 0
M  V30 2550 N 237.974 -0.419461 -1.51915 0
M  V30 2551 C 239.199 0.154572 -2.06823 0
M  V30 2552 C 239.624 1.3722 -1.28656 0
M  V30 2553 O 238.982 1.78461 -0.319583 0
M  V30 2554 C 239.03 0.473172 -3.57482 0
M  V30 2555 O 238.134 1.56255 -3.81652 0
M  V30 2556 H 237.475 0.0096924 -0.663929 0
M  V30 2557 H 240.005 -0.595642 -1.95738 0
M  V30 2558 H 240.015 0.728825 -4.01438 0
M  V30 2559 H 238.69 -0.416873 -4.13805 0
M  V30 2560 H 237.267 1.29825 -3.49571 0
M  V30 2561 N 239.452 1.56882 -0.150215 0
M  V30 2562 C 240.868 1.58263 0.20617 0
M  V30 2563 C 241.068 1.16464 1.64434 0
M  V30 2564 O 240.124 0.866422 2.3717 0
M  V30 2565 C 241.437 3.00649 -0.0555025 0
M  V30 2566 C 242.985 3.12999 0.00795388 0
M  V30 2567 C 243.46 4.5744 -0.226429 0
M  V30 2568 N 244.951 4.62875 -0.173469 0
M  V30 2569 C 245.686 5.72454 -0.329288 0
M  V30 2570 N 245.182 6.90669 -0.543005 0
M  V30 2571 N 246.975 5.61467 -0.266666 0
M  V30 2572 H 239.126 1.82345 -1.08922 0
M  V30 2573 H 241.389 0.844149 -0.431413 0
M  V30 2574 H 241.095 3.3563 -1.05096 0
M  V30 2575 H 240.969 3.71337 0.66246 0
M  V30 2576 H 243.356 2.77857 0.993966 0
M  V30 2577 H 243.437 2.4479 -0.742388 0
M  V30 2578 H 243.081 4.93287 -1.20956 0
M  V30 2579 H 243.011 5.2378 0.544274 0
M  V30 2580 H 245.502 3.77898 -0.0130709 0
M  V30 2581 H 245.815 7.70045 -0.651922 0
M  V30 2582 H 244.16 6.92581 -0.579366 0
M  V30 2583 H 247.351 4.67992 -0.100441 0
M  V30 2584 H 247.524 6.46816 -0.391535 0
M  V30 2585 N 240.93 -0.123565 1.57115 0
M  V30 2586 C 242.341 -0.681198 1.73829 0
M  V30 2587 C 242.692 -1.80535 0.768214 0
M  V30 2588 O 241.817 -2.16317 -0.0599103 0
M  V30 2589 C 242.412 -1.24246 3.15196 0
M  V30 2590 C 240.971 -1.74643 3.33432 0
M  V30 2591 C 240.118 -0.644284 2.69711 0
M  V30 2592 H 243.069 0.102315 1.5837 0
M  V30 2593 H 243.09 -2.11216 3.16493 0
M  V30 2594 H 242.602 -0.424062 3.85776 0
M  V30 2595 H 240.703 -2.58974 2.67886 0
M  V30 2596 H 240.816 -1.85902 4.41562 0
M  V30 2597 H 239.18 -1.07676 2.3082 0
M  V30 2598 H 239.963 0.163058 3.42913 0
M  V30 2599 N 242.408 -1.52605 -0.393616 0
M  V30 2600 C 243.824 -1.41753 -0.733357 0
M  V30 2601 C 244.024 -0.534293 -1.94287 0
M  V30 2602 O 243.08 -0.0059787 -2.52499 0
M  V30 2603 C 244.393 -2.84531 -0.972772 0
M  V30 2604 C 245.941 -2.93978 -1.07453 0
M  V30 2605 C 246.416 -4.37756 -1.3466 0
M  V30 2606 N 247.907 -4.4106 -1.41492 0
M  V30 2607 C 248.642 -5.49387 -1.642 0
M  V30 2608 N 248.138 -6.67806 -1.8441 0
M  V30 2609 N 249.931 -5.36923 -1.66342 0
M  V30 2610 H 242.082 -2.08555 0.402328 0
M  V30 2611 H 244.345 -0.940654 0.117789 0
M  V30 2612 H 244.051 -3.51353 -0.156204 0
M  V30 2613 H 243.925 -3.26508 -1.88871 0
M  V30 2614 H 246.312 -2.27326 -1.88167 0
M  V30 2615 H 246.393 -2.55435 -0.136605 0
M  V30 2616 H 246.037 -5.04972 -0.544581 0
M  V30 2617 H 245.967 -4.73848 -2.2973 0
M  V30 2618 H 248.458 -3.55705 -1.27601 0
M  V30 2619 H 248.771 -7.46141 -2.01231 0
M  V30 2620 H 247.116 -6.70843 -1.81644 0
M  V30 2621 H 250.307 -4.43381 -1.50102 0
M  V30 2622 H 250.48 -6.21416 -1.837 0
M  V30 2623 N 243.887 0.651787 -1.4349 0
M  V30 2624 C 244.817 1.77621 -1.51569 0
M  V30 2625 C 245.798 1.66022 -0.370253 0
M  V30 2626 O 246.983 1.85095 -0.587658 0
M  V30 2627 C 244.113 3.16056 -1.43966 0
M  V30 2628 C 243.067 3.4242 -2.56774 0
M  V30 2629 C 242.393 4.8067 -2.34223 0
M  V30 2630 C 243.693 3.37023 -3.99015 0
M  V30 2631 H 245.387 1.71117 -2.45681 0
M  V30 2632 H 242.933 0.821825 -1.18246 0
M  V30 2633 H 244.886 3.94472 -1.48221 0
M  V30 2634 H 243.61 3.23293 -0.463586 0
M  V30 2635 H 242.269 2.66375 -2.51873 0
M  V30 2636 H 241.917 4.84585 -1.34856 0
M  V30 2637 H 241.617 4.9927 -3.09844 0
M  V30 2638 H 243.141 5.61342 -2.40265 0
M  V30 2639 H 244.555 4.05374 -4.05395 0
M  V30 2640 H 242.952 3.67159 -4.74673 0
M  V30 2641 H 244.022 2.3518 -4.2405 0
M  V30 2642 N 245.365 1.30045 0.890287 0
M  V30 2643 C 246.611 1.19747 1.64415 0
M  V30 2644 C 246.966 -0.246591 1.90813 0
M  V30 2645 O 246.259 -1.174 1.51419 0
M  V30 2646 C 246.453 1.95409 2.99249 0
M  V30 2647 C 246.282 3.47025 2.86013 0
M  V30 2648 C 245.052 4.1638 2.86279 0
M  V30 2649 C 247.25 4.42353 2.62351 0
M  V30 2650 N 245.232 5.54293 2.63879 0
M  V30 2651 C 246.603 5.67792 2.49022 0
M  V30 2652 C 248.658 4.32009 2.47533 0
M  V30 2653 C 247.361 6.8406 2.22383 0
M  V30 2654 C 249.387 5.48038 2.22279 0
M  V30 2655 C 248.749 6.72455 2.09722 0
M  V30 2656 H 244.848 0.493223 0.60684 0
M  V30 2657 H 247.432 1.6399 1.04954 0
M  V30 2658 H 245.603 1.53565 3.56752 0
M  V30 2659 H 247.335 1.77298 3.63796 0
M  V30 2660 H 244.09 3.68164 2.97913 0
M  V30 2661 H 244.514 6.26852 2.55706 0
M  V30 2662 H 249.156 3.36503 2.55979 0
M  V30 2663 H 246.874 7.79612 2.12675 0
M  V30 2664 H 250.46 5.41939 2.11643 0
M  V30 2665 H 249.34 7.60722 1.90453 0
M  V30 2666 N 246.843 -1.10192 1.12674 0
M  V30 2667 C 248.259 -1.34235 0.863317 0
M  V30 2668 C 248.459 -1.95062 -0.505277 0
M  V30 2669 O 247.515 -2.19192 -1.25345 0
M  V30 2670 C 248.828 -2.2616 1.98172 0
M  V30 2671 C 250.376 -2.3969 2.0129 0
M  V30 2672 C 250.851 -3.34946 3.1237 0
M  V30 2673 N 252.342 -3.42515 3.11829 0
M  V30 2674 C 253.077 -4.16199 3.94419 0
M  V30 2675 N 252.573 -4.92747 4.87004 0
M  V30 2676 N 254.366 -4.11843 3.82547 0
M  V30 2677 H 246.517 -0.690798 2.00853 0
M  V30 2678 H 248.78 -0.366774 0.874174 0
M  V30 2679 H 248.486 -1.8868 2.96804 0
M  V30 2680 H 248.36 -3.26488 1.88906 0
M  V30 2681 H 250.747 -2.76438 1.03276 0
M  V30 2682 H 250.828 -1.39169 2.14629 0
M  V30 2683 H 250.472 -2.98923 4.10619 0
M  V30 2684 H 250.402 -4.35353 2.96269 0
M  V30 2685 H 252.893 -2.87926 2.44759 0
M  V30 2686 H 253.206 -5.46376 5.46528 0
M  V30 2687 H 251.551 -4.91862 4.91016 0
M  V30 2688 H 254.742 -3.51136 3.0955 0
M  V30 2689 H 254.915 -4.69007 4.47142 0
M  V30 2690 N 248.321 -0.919034 -1.28029 0
M  V30 2691 C 249.546 -0.570357 -1.99403 0
M  V30 2692 C 249.971 0.842486 -1.68178 0
M  V30 2693 O 249.329 1.56391 -0.917141 0
M  V30 2694 C 249.377 -0.792541 -3.51783 0
M  V30 2695 O 248.481 0.145988 -4.12142 0
M  V30 2696 H 247.822 -0.220555 -0.6263 0
M  V30 2697 H 250.352 -1.23592 -1.63053 0
M  V30 2698 H 250.362 -0.704708 -4.01868 0
M  V30 2699 H 249.037 -1.82247 -3.73844 0
M  V30 2700 H 247.614 0.00897528 -3.72899 0
M  V30 2701 N 249.799 1.42003 -0.683588 0
M  V30 2702 C 251.045 2.01712 -0.209825 0
M  V30 2703 C 251.378 1.53968 1.18353 0
M  V30 2704 O 250.653 0.745661 1.79639 0
M  V30 2705 C 250.936 3.59202 -0.254197 0
M  V30 2706 C 250.789 4.17102 -1.68363 0
M  V30 2707 C 252.108 4.38344 0.392709 0
M  V30 2708 H 249.227 0.732891 -0.0777189 0
M  V30 2709 H 251.869 1.68909 -0.87004 0
M  V30 2710 H 250.019 3.87278 0.307954 0
M  V30 2711 H 251.691 3.99946 -2.29871 0
M  V30 2712 H 249.934 3.72597 -2.22157 0
M  V30 2713 H 250.605 5.26249 -1.6663 0
M  V30 2714 H 253.081 4.16011 -0.0859162 0
M  V30 2715 H 251.957 5.47901 0.331063 0
M  V30 2716 H 252.218 4.16887 1.47164 0
M  V30 2717 N 251.277 0.427512 1.51691 0
M  V30 2718 C 252.526 -0.143679 2.01188 0
M  V30 2719 C 252.839 -1.44642 1.31674 0
M  V30 2720 O 254.045 -2.09997 1.72086 0
M  V30 2721 C 252.501 -0.306602 3.58592 0
M  V30 2722 C 252.109 0.985125 4.37035 0
M  V30 2723 C 253.853 -0.832091 4.16265 0
M  V30 2724 C 251.76 0.788382 5.86122 0
M  V30 2725 H 250.69 -0.0574701 0.751807 0
M  V30 2726 H 253.341 0.555772 1.74881 0
M  V30 2727 H 251.723 -1.06882 3.81303 0
M  V30 2728 H 252.897 1.75492 4.26074 0
M  V30 2729 H 251.212 1.4384 3.90767 0
M  V30 2730 H 253.809 -0.995617 5.25349 0
M  V30 2731 H 254.152 -1.81186 3.74803 0
M  V30 2732 H 254.685 -0.128444 3.97593 0
M  V30 2733 H 251.424 1.74025 6.31978 0
M  V30 2734 H 250.944 0.0582143 5.99772 0
M  V30 2735 H 252.623 0.437722 6.45518 0
M  V30 2736 N 252.755 -1.56801 0.158532 0
M  V30 2737 C 253.703 -2.18638 -0.793729 0
M  V30 2738 C 254.697 -1.14669 -1.24689 0
M  V30 2739 O 255.903 -1.32895 -1.21403 0
M  V30 2740 H 252.278 -0.700226 -0.274204 0
M  V30 2741 H 254.249 -2.97367 -0.248095 0
M  V30 2742 C 252.998 -2.83139 -2.0181 0
M  V30 2743 H 252.321 -3.62863 -1.67841 0
M  V30 2744 H 253.761 -3.29894 -2.66357 0
M  V30 2745 C 252.22 -1.82244 -2.83353 0
M  V30 2746 O 252.75 -1.3 -3.80083 0
M  V30 2747 N 250.956 -1.51288 -2.48114 0
M  V30 2748 H 250.503 -1.93964 -1.69516 0
M  V30 2749 H 250.461 -0.840296 -3.02963 0
M  V30 2750 N 254.233 0.115231 -1.57178 0
M  V30 2751 C 255.143 1.15994 -2.03918 0
M  V30 2752 C 256.159 1.45103 -0.960268 0
M  V30 2753 O 257.335 1.56144 -1.27204 0
M  V30 2754 C 254.4 2.46568 -2.43732 0
M  V30 2755 C 253.461 2.24822 -3.65723 0
M  V30 2756 C 252.694 3.4917 -4.03629 0
M  V30 2757 O 252.917 4.56623 -3.41835 0
M  V30 2758 O 251.851 3.39949 -4.96708 0
M  V30 2759 H 255.677 0.793019 -2.93164 0
M  V30 2760 H 253.262 0.3263 -1.45793 0
M  V30 2761 H 255.144 3.23492 -2.70057 0
M  V30 2762 H 253.819 2.82726 -1.57631 0
M  V30 2763 H 252.726 1.45744 -3.44542 0
M  V30 2764 H 254.059 1.93566 -4.52541 0
M  V30 2765 N 255.711 1.52812 0.385517 0
M  V30 2766 C 256.641 1.80808 1.47752 0
M  V30 2767 C 257.622 0.660318 1.5676 0
M  V30 2768 O 258.807 0.908246 1.71652 0
M  V30 2769 C 255.937 1.98008 2.85324 0
M  V30 2770 C 254.891 3.13709 2.91154 0
M  V30 2771 C 254.217 3.16169 4.31209 0
M  V30 2772 C 255.517 4.52709 2.60483 0
M  V30 2773 H 257.211 2.72253 1.24573 0
M  V30 2774 H 254.757 1.31003 0.597839 0
M  V30 2775 H 256.71 2.16176 3.61726 0
M  V30 2776 H 255.434 1.03255 3.09848 0
M  V30 2777 H 254.093 2.95329 2.17201 0
M  V30 2778 H 253.741 2.19092 4.52778 0
M  V30 2779 H 253.441 3.93894 4.36029 0
M  V30 2780 H 254.965 3.36496 5.09512 0
M  V30 2781 H 256.379 4.71173 3.26602 0
M  V30 2782 H 254.776 5.32528 2.76648 0
M  V30 2783 H 255.846 4.59186 1.55809 0
M  V30 2784 N 257.189 -0.644168 1.43834 0
M  V30 2785 C 258.152 -1.73857 1.49353 0
M  V30 2786 C 259.152 -1.56315 0.377112 0
M  V30 2787 O 260.342 -1.62048 0.639226 0
M  V30 2788 C 257.474 -3.12819 1.35488 0
M  V30 2789 H 258.667 -1.70342 2.46827 0
M  V30 2790 H 256.22 -0.856652 1.30733 0
M  V30 2791 H 256.955 -3.2194 0.390569 0
M  V30 2792 H 256.74 -3.26958 2.16428 0
M  V30 2793 H 258.23 -3.92606 1.42302 0
M  V30 2794 N 258.668 -1.30515 -0.883378 0
M  V30 2795 C 259.914 -1.19607 -1.63774 0
M  V30 2796 C 260.247 0.248314 -1.92606 0
M  V30 2797 O 259.522 1.17742 -1.54813 0
M  V30 2798 C 259.805 -2.02669 -2.97653 0
M  V30 2799 C 259.658 -3.55335 -2.75784 0
M  V30 2800 C 260.977 -1.86573 -3.98596 0
M  V30 2801 H 258.096 -0.435856 -0.594305 0
M  V30 2802 H 260.738 -1.60165 -1.02212 0
M  V30 2803 H 258.888 -1.68208 -3.50197 0
M  V30 2804 H 260.56 -3.99863 -2.30016 0
M  V30 2805 H 258.803 -3.79438 -2.1026 0
M  V30 2806 H 259.474 -4.08745 -3.70988 0
M  V30 2807 H 261.95 -2.16703 -3.55217 0
M  V30 2808 H 260.826 -2.47014 -4.90179 0
M  V30 2809 H 261.087 -0.825321 -4.34328 0
M  V30 2810 N 260.146 1.09593 -1.13257 0
M  V30 2811 C 261.109 2.14359 -0.811358 0
M  V30 2812 C 262.109 1.59808 0.178377 0
M  V30 2813 O 263.299 1.74132 -0.0484911 0
M  V30 2814 C 260.431 3.40269 -0.207276 0
M  V30 2815 H 261.624 2.44284 -1.73969 0
M  V30 2816 H 259.177 1.25102 -0.936973 0
M  V30 2817 H 259.912 3.15969 0.73036 0
M  V30 2818 H 259.697 3.81154 -0.919992 0
M  V30 2819 H 261.187 4.176 0.000667944 0
M  V30 2820 N 261.624 0.925811 1.2754 0
M  V30 2821 C 262.534 0.428993 2.30644 0
M  V30 2822 C 263.55 -0.489387 1.66976 0
M  V30 2823 O 264.726 -0.372653 1.97922 0
M  V30 2824 C 261.791 -0.311967 3.45294 0
M  V30 2825 C 260.852 0.641098 4.24486 0
M  V30 2826 C 260.085 -0.0645955 5.33661 0
M  V30 2827 O 260.308 -1.28429 5.55754 0
M  V30 2828 O 259.242 0.606265 5.98839 0
M  V30 2829 H 263.068 1.28504 2.75173 0
M  V30 2830 H 260.653 0.691086 1.32455 0
M  V30 2831 H 262.535 -0.729972 4.15029 0
M  V30 2832 H 261.21 -1.14365 3.02824 0
M  V30 2833 H 260.117 1.10874 3.57292 0
M  V30 2834 H 261.45 1.43995 4.70666 0
M  V30 2835 N 263.102 -1.41638 0.69111 0
M  V30 2836 C 264.012 -2.34588 0.0233487 0
M  V30 2837 C 265.028 -1.55987 -0.770984 0
M  V30 2838 O 266.204 -1.88486 -0.709569 0
M  V30 2839 C 263.269 -3.34684 -0.904851 0
M  V30 2840 C 262.33 -4.29176 -0.103225 0
M  V30 2841 C 261.563 -5.2449 -0.987216 0
M  V30 2842 O 261.786 -5.2514 -2.22674 0
M  V30 2843 O 260.72 -6.00295 -0.439281 0
M  V30 2844 H 264.546 -2.93261 0.789416 0
M  V30 2845 H 262.131 -1.42417 0.45142 0
M  V30 2846 H 264.013 -3.96133 -1.43724 0
M  V30 2847 H 262.688 -2.78461 -1.65049 0
M  V30 2848 H 261.595 -3.71089 0.473655 0
M  V30 2849 H 262.928 -4.88484 0.60365 0
M  V30 2850 N 264.58 -0.43555 -1.51462 0
M  V30 2851 C 265.513 0.421989 -2.24264 0
M  V30 2852 C 266.491 1.02619 -1.26127 0
M  V30 2853 O 267.675 1.069 -1.55257 0
M  V30 2854 C 264.802 1.588 -2.99166 0
M  V30 2855 C 263.848 1.10465 -4.11946 0
M  V30 2856 S 264.681 0.048146 -5.35478 0
M  V30 2857 C 265.837 1.21887 -6.13917 0
M  V30 2858 H 266.07 -0.196102 -2.96653 0
M  V30 2859 H 263.603 -0.220054 -1.52824 0
M  V30 2860 H 265.561 2.25647 -3.42919 0
M  V30 2861 H 264.222 2.1775 -2.26371 0
M  V30 2862 H 263.415 1.97654 -4.63626 0
M  V30 2863 H 263.017 0.51445 -3.70445 0
M  V30 2864 H 265.309 2.13756 -6.42895 0
M  V30 2865 H 266.252 0.742076 -7.04201 0
M  V30 2866 H 266.66 1.45663 -5.45383 0
M  V30 2867 N 266.058 1.56714 -0.166846 0
M  V30 2868 C 267.286 2.0112 0.485644 0
M  V30 2869 C 267.701 1.04705 1.57106 0
M  V30 2870 O 267.058 0.0471923 1.82439 0
M  V30 2871 C 267.109 3.45361 1.06808 0
M  V30 2872 O 266.83 4.38092 0.0259995 0
M  V30 2873 C 268.331 4.05145 1.79924 0
M  V30 2874 H 265.551 0.65931 0.124704 0
M  V30 2875 H 268.095 2.02746 -0.267262 0
M  V30 2876 H 266.25 3.44524 1.7715 0
M  V30 2877 H 266.664 5.22519 0.455398 0
M  V30 2878 H 268.138 5.08009 2.15942 0
M  V30 2879 H 268.615 3.46982 2.69258 0
M  V30 2880 H 269.221 4.09672 1.14234 0
M  V30 2881 N 267.536 -0.106894 1.57237 0
M  V30 2882 C 268.483 -1.13049 2.01217 0
M  V30 2883 C 269.453 -1.40471 0.886403 0
M  V30 2884 O 270.638 -1.52133 1.15153 0
M  V30 2885 C 267.778 -2.4487 2.43172 0
M  V30 2886 C 266.891 -2.24281 3.69218 0
M  V30 2887 C 266.026 -3.49417 4.00101 0
M  V30 2888 C 265.065 -3.24038 5.19294 0
M  V30 2889 N 264.202 -4.41409 5.45988 0
M  V30 2890 H 269.042 -0.748456 2.88448 0
M  V30 2891 H 266.579 -0.358054 1.42676 0
M  V30 2892 H 268.537 -3.21786 2.65537 0
M  V30 2893 H 267.167 -2.80944 1.58967 0
M  V30 2894 H 266.219 -1.38224 3.54398 0
M  V30 2895 H 267.531 -2.01512 4.56283 0
M  V30 2896 H 266.685 -4.34746 4.2318 0
M  V30 2897 H 265.424 -3.75229 3.11535 0
M  V30 2898 H 264.429 -2.37102 4.96047 0
M  V30 2899 H 265.654 -2.99584 6.09447 0
M  V30 2900 H 263.6 -4.67319 4.60379 0
M  V30 2901 H 263.517 -4.21788 6.274 0
M  V30 2902 H 264.785 -5.27836 5.73593 0
M  V30 2903 N 269.014 -1.53014 -0.377408 0
M  V30 2904 C 270.239 -1.72818 -1.14668 0
M  V30 2905 C 270.664 -0.450725 -1.8262 0
M  V30 2906 O 270.022 0.59439 -1.7128 0
M  V30 2907 C 270.07 -2.88627 -2.16164 0
M  V30 2908 O 269.174 -2.56409 -3.22998 0
M  V30 2909 H 268.515 -0.574301 -0.333278 0
M  V30 2910 H 271.045 -1.99853 -0.438152 0
M  V30 2911 H 271.055 -3.14455 -2.59966 0
M  V30 2912 H 269.73 -3.81294 -1.66095 0
M  V30 2913 H 268.307 -2.4136 -2.84253 0
M  V30 2914 N 270.492 0.636531 -1.44174 0
M  V30 2915 C 271.44 1.76995 -1.50915 0
M  V30 2916 C 272.434 1.65053 -0.381295 0
M  V30 2917 O 273.64 1.71197 -0.55601 0
M  V30 2918 H 270.015 0.584247 -0.473455 0
M  V30 2919 H 271.986 1.68432 -2.4632 0
M  V30 2920 C 270.735 3.15314 -1.46534 0
M  V30 2921 H 270.058 3.25149 -2.32633 0
M  V30 2922 H 271.498 3.9453 -1.55312 0
M  V30 2923 C 269.957 3.3639 -0.185305 0
M  V30 2924 O 270.487 3.94699 0.746688 0
M  V30 2925 N 268.693 2.9046 -0.0901606 0
M  V30 2926 H 268.24 2.43193 -0.849416 0
M  V30 2927 H 268.198 3.04937 0.765553 0
M  V30 2928 N 271.97 1.30982 0.876444 0
M  V30 2929 C 273.247 1.10942 1.61094 0
M  V30 2930 C 273.627 -0.338223 2.08373 0
M  V30 2931 O 272.975 -1.33122 1.85717 0
M  V30 2932 C 273.185 2.11789 2.77392 0
M  V30 2933 C 274.533 2.43965 3.47514 0
M  V30 2934 O 275.557 2.10166 2.87591 0
M  V30 2935 O 274.416 3.01817 4.55597 0
M  V30 2936 H 271.51 0.42667 0.708436 0
M  V30 2937 H 274.056 1.42438 0.922474 0
M  V30 2938 H 272.828 3.09194 2.39823 0
M  V30 2939 H 272.451 1.81161 3.5393 0
M  V30 2940 N 273.449 -1.08991 1.13837 0
M  V30 2941 C 274.695 -1.81526 0.90422 0
M  V30 2942 C 275.028 -1.85706 -0.568066 0
M  V30 2943 O 274.303 -1.32855 -1.42056 0
M  V30 2944 C 274.586 -3.27447 1.49835 0
M  V30 2945 C 274.439 -3.31512 3.04006 0
M  V30 2946 C 275.758 -4.24256 1.17025 0
M  V30 2947 H 272.877 -0.659029 0.329923 0
M  V30 2948 H 275.519 -1.27644 1.40737 0
M  V30 2949 H 273.669 -3.73462 1.07044 0
M  V30 2950 H 275.341 -2.93867 3.55584 0
M  V30 2951 H 273.584 -2.70963 3.38765 0
M  V30 2952 H 274.255 -4.34329 3.40679 0
M  V30 2953 H 276.731 -3.86549 1.54009 0
M  V30 2954 H 275.607 -5.24684 1.61237 0
M  V30 2955 H 275.868 -4.42019 0.0846274 0
M  V30 2956 N 274.927 -0.932562 -1.27047 0
M  V30 2957 C 276.176 -0.571351 -1.93439 0
M  V30 2958 C 276.489 0.892467 -1.74053 0
M  V30 2959 O 277.695 1.36267 -2.34826 0
M  V30 2960 C 276.151 -0.97106 -3.46552 0
M  V30 2961 C 275.759 -2.4559 -3.74686 0
M  V30 2962 C 277.503 -0.681333 -4.18997 0
M  V30 2963 C 275.41 -2.79475 -5.21198 0
M  V30 2964 H 274.34 -0.209966 -0.724176 0
M  V30 2965 H 276.991 -1.13403 -1.44263 0
M  V30 2966 H 275.373 -0.336983 -3.94564 0
M  V30 2967 H 276.547 -3.13829 -3.37414 0
M  V30 2968 H 274.862 -2.71802 -3.15456 0
M  V30 2969 H 277.459 -0.910939 -5.26883 0
M  V30 2970 H 277.802 0.381628 -4.14547 0
M  V30 2971 H 278.335 -1.27473 -3.76823 0
M  V30 2972 H 275.074 -3.847 -5.30741 0
M  V30 2973 H 274.594 -2.1589 -5.596 0
M  V30 2974 H 276.273 -2.67478 -5.89122 0
M  V30 2975 N 276.405 1.4127 -0.698611 0
M  V30 2976 C 277.633 2.05503 -0.239992 0
M  V30 2977 C 278.048 1.52584 1.11191 0
M  V30 2978 O 277.405 0.675323 1.69545 0
M  V30 2979 C 277.456 3.60987 -0.192429 0
M  V30 2980 O 277.177 4.1195 -1.49094 0
M  V30 2981 C 278.678 4.42371 0.28681 0
M  V30 2982 H 275.898 0.661748 -0.111045 0
M  V30 2983 H 278.442 1.80987 -0.95205 0
M  V30 2984 H 276.597 3.84533 0.470472 0
M  V30 2985 H 277.011 5.06018 -1.38007 0
M  V30 2986 H 278.485 5.51344 0.26896 0
M  V30 2987 H 278.962 4.18699 1.32619 0
M  V30 2988 H 279.568 4.23897 -0.345201 0
M  V30 2989 N 277.883 0.443576 1.51229 0
M  V30 2990 C 279.132 -0.122332 2.01329 0
M  V30 2991 C 279.445 -1.43237 1.33201 0
M  V30 2992 O 280.651 -2.0816 1.74304 0
M  V30 2993 C 279.107 -0.268551 3.58897 0
M  V30 2994 C 278.715 1.03142 4.35965 0
M  V30 2995 C 280.459 -0.787894 4.17124 0
M  V30 2996 C 278.366 0.850504 5.85252 0
M  V30 2997 H 277.296 -0.0494929 0.752374 0
M  V30 2998 H 279.947 0.574289 1.74282 0
M  V30 2999 H 278.329 -1.02832 3.82415 0
M  V30 3000 H 279.503 1.80001 4.24189 0
M  V30 3001 H 277.818 1.47977 3.89219 0
M  V30 3002 H 280.415 -0.939841 5.26375 0
M  V30 3003 H 280.758 -1.77201 3.76703 0
M  V30 3004 H 281.291 -0.0862669 3.97706 0
M  V30 3005 H 278.03 1.80718 6.30096 0
M  V30 3006 H 277.55 0.121825 5.99676 0
M  V30 3007 H 279.229 0.506163 6.45017 0
M  V30 3008 N 279.361 -1.56624 0.175154 0
M  V30 3009 C 280.309 -2.19468 -0.770495 0
M  V30 3010 C 281.303 -1.15985 -1.23466 0
M  V30 3011 O 282.509 -1.34176 -1.19987 0
M  V30 3012 H 278.884 -0.703095 -0.266761 0
M  V30 3013 H 280.855 -2.97613 -0.216542 0
M  V30 3014 C 279.604 -2.85264 -1.98796 0
M  V30 3015 H 278.927 -3.64623 -1.63983 0
M  V30 3016 H 280.367 -3.327 -2.62843 0
M  V30 3017 C 278.826 -1.85239 -2.81404 0
M  V30 3018 O 279.356 -1.34024 -3.78682 0
M  V30 3019 N 277.562 -1.53911 -2.46495 0
M  V30 3020 H 277.109 -1.95751 -1.67449 0
M  V30 3021 H 277.067 -0.872382 -3.02054 0
M  V30 3022 N 280.839 0.0985539 -1.57292 0
M  V30 3023 C 282.069 0.815135 -1.8984 0
M  V30 3024 C 282.477 1.7297 -0.766679 0
M  V30 3025 O 281.82 1.81698 0.270483 0
M  V30 3026 C 281.882 1.6842 -3.17608 0
M  V30 3027 C 281.546 0.94182 -4.4719 0
M  V30 3028 C 282.543 0.273212 -5.19182 0
M  V30 3029 C 280.228 0.916927 -4.9386 0
M  V30 3030 C 282.222 -0.410361 -6.36078 0
M  V30 3031 C 279.909 0.229567 -6.10669 0
M  V30 3032 C 280.907 -0.432902 -6.81627 0
M  V30 3033 O 280.595 -1.10925 -7.9621 0
M  V30 3034 H 280.327 0.238501 -0.632529 0
M  V30 3035 H 282.881 0.0812659 -2.05239 0
M  V30 3036 H 281.111 2.46022 -2.98345 0
M  V30 3037 H 282.8 2.27704 -3.36015 0
M  V30 3038 H 283.566 0.283927 -4.84168 0
M  V30 3039 H 279.445 1.42201 -4.3852 0
M  V30 3040 H 282.989 -0.928013 -6.914 0
M  V30 3041 H 278.886 0.216686 -6.45136 0
M  V30 3042 H 279.654 -1.01579 -8.12172 0
M  V30 3043 N 282.317 1.53212 0.369288 0
M  V30 3044 C 283.557 1.70915 1.12105 0
M  V30 3045 C 283.921 0.449444 1.86665 0
M  V30 3046 O 285.122 0.503105 2.6405 0
M  V30 3047 C 283.393 2.9222 2.05772 0
M  V30 3048 S 284.952 3.30609 2.88519 0
M  V30 3049 H 281.77 0.601445 0.379189 0
M  V30 3050 H 284.372 1.91306 0.402794 0
M  V30 3051 H 283.076 3.82103 1.49752 0
M  V30 3052 H 282.607 2.7422 2.82076 0
M  V30 3053 H 284.622 2.82333 4.08047 0
M  V30 3054 N 283.795 -0.628877 1.44509 0
M  V30 3055 C 285.041 -1.39045 1.47629 0
M  V30 3056 C 285.374 -1.93892 0.109343 0
M  V30 3057 O 284.649 -1.7379 -0.87334 0
M  V30 3058 C 284.932 -2.55408 2.53848 0
M  V30 3059 C 284.785 -2.05896 3.99909 0
M  V30 3060 C 286.104 -3.5759 2.56549 0
M  V30 3061 H 283.223 -0.504232 0.537512 0
M  V30 3062 H 285.865 -0.710854 1.76201 0
M  V30 3063 H 284.015 -3.13384 2.29615 0
M  V30 3064 H 285.687 -1.52734 4.35282 0
M  V30 3065 H 283.93 -1.37061 4.11578 0
M  V30 3066 H 284.601 -2.89681 4.69882 0
M  V30 3067 H 287.077 -3.09419 2.78207 0
M  V30 3068 H 285.953 -4.36527 3.32769 0
M  V30 3069 H 286.214 -4.11808 1.60832 0
M  V30 3070 N 285.273 -1.31445 -0.869486 0
M  V30 3071 C 286.221 -1.19067 -1.99814 0
M  V30 3072 C 287.215 -0.0988569 -1.69111 0
M  V30 3073 O 288.421 -0.260781 -1.78101 0
M  V30 3074 H 284.796 -0.368677 -0.655425 0
M  V30 3075 H 286.767 -2.14555 -2.07385 0
M  V30 3076 C 285.516 -0.915323 -3.35436 0
M  V30 3077 H 284.839 -1.74759 -3.59582 0
M  V30 3078 H 286.279 -0.868895 -4.15001 0
M  V30 3079 C 284.738 0.381928 -3.34728 0
M  V30 3080 O 285.268 1.39857 -3.76567 0
M  V30 3081 N 283.474 0.398633 -2.87853 0
M  V30 3082 H 283.021 -0.429186 -2.54 0
M  V30 3083 H 282.979 1.26651 -2.87762 0
M  V30 3084 N 286.751 1.08385 -1.14413 0
M  V30 3085 C 287.981 1.8425 -0.934644 0
M  V30 3086 C 288.389 1.81907 0.520234 0
M  V30 3087 O 287.732 1.22126 1.37226 0
M  V30 3088 C 287.794 3.32853 -1.35828 0
M  V30 3089 C 287.458 3.5893 -2.82875 0
M  V30 3090 C 288.455 3.53756 -3.80989 0
M  V30 3091 C 286.14 3.86934 -3.20293 0
M  V30 3092 C 288.134 3.76216 -5.14529 0
M  V30 3093 C 285.821 4.09047 -4.54008 0
M  V30 3094 C 286.819 4.03682 -5.50936 0
M  V30 3095 O 286.507 4.25214 -6.82238 0
M  V30 3096 H 286.239 0.588502 -0.332628 0
M  V30 3097 H 288.793 1.37792 -1.52324 0
M  V30 3098 H 287.023 3.8007 -0.713019 0
M  V30 3099 H 288.712 3.90154 -1.11957 0
M  V30 3100 H 289.478 3.32135 -3.53428 0
M  V30 3101 H 285.357 3.9023 -2.45442 0
M  V30 3102 H 288.901 3.71943 -5.90173 0
M  V30 3103 H 284.798 4.30151 -4.8129 0
M  V30 3104 H 285.566 4.42619 -6.88499 0
M  V30 3105 N 288.23 0.939286 1.26551 0
M  V30 3106 C 289.478 0.58469 1.93457 0
M  V30 3107 C 289.799 -0.878774 1.74076 0
M  V30 3108 O 289.069 -1.62421 1.09528 0
M  V30 3109 H 287.649 0.21325 0.715914 0
M  V30 3110 H 290.311 1.1942 1.54029 0
M  V30 3111 H 289.407 0.800849 3.0165 0
M  V30 3112 N 289.708 -1.40897 0.706093 0
M  V30 3113 C 290.956 -2.00657 0.241054 0
M  V30 3114 C 291.277 -1.56241 -1.16678 0
M  V30 3115 O 290.547 -0.79765 -1.78926 0
M  V30 3116 H 289.127 -0.742018 0.0861308 0
M  V30 3117 H 291.789 -1.72372 0.909604 0
M  V30 3118 H 290.885 -3.10958 0.266705 0
M  V30 3119 N 291.186 -0.45159 -1.50991 0
M  V30 3120 C 292.602 -0.104647 -1.59257 0
M  V30 3121 C 292.802 1.38728 -1.4614 0
M  V30 3122 O 291.858 2.15866 -1.30989 0
M  V30 3123 C 293.171 -0.637468 -2.93865 0
M  V30 3124 C 294.719 -0.599166 -3.07212 0
M  V30 3125 C 295.194 -1.1092 -4.44366 0
M  V30 3126 N 296.685 -1.06778 -4.50725 0
M  V30 3127 C 297.42 -1.43314 -5.55201 0
M  V30 3128 N 296.916 -1.87204 -6.67028 0
M  V30 3129 N 298.709 -1.3504 -5.45638 0
M  V30 3130 H 290.86 -1.42214 -1.57762 0
M  V30 3131 H 293.123 -0.586921 -0.744465 0
M  V30 3132 H 292.829 -1.68187 -3.08879 0
M  V30 3133 H 292.703 -0.0702139 -3.77135 0
M  V30 3134 H 295.09 0.436277 -2.91857 0
M  V30 3135 H 295.171 -1.20299 -2.25747 0
M  V30 3136 H 294.815 -2.14318 -4.60467 0
M  V30 3137 H 294.745 -0.481773 -5.24392 0
M  V30 3138 H 297.236 -0.745643 -3.70471 0
M  V30 3139 H 297.549 -2.13282 -7.42786 0
M  V30 3140 H 295.894 -1.91142 -6.68199 0
M  V30 3141 H 299.085 -1.00607 -4.57161 0
M  V30 3142 H 299.258 -1.63841 -6.26945 0
M  V30 3143 N 292.664 1.56529 -0.183458 0
M  V30 3144 C 293.892 2.01623 0.464285 0
M  V30 3145 C 294.307 1.06366 1.55986 0
M  V30 3146 O 293.664 0.0665398 1.82379 0
M  V30 3147 C 293.715 3.46475 1.03139 0
M  V30 3148 O 293.436 4.38095 -0.0204675 0
M  V30 3149 C 294.937 4.0703 1.75617 0
M  V30 3150 H 292.157 0.660596 0.117704 0
M  V30 3151 H 294.701 2.02451 -0.288751 0
M  V30 3152 H 292.856 3.46383 1.73486 0
M  V30 3153 H 293.27 5.22973 0.399952 0
M  V30 3154 H 294.744 5.10271 2.10542 0
M  V30 3155 H 295.221 3.49819 2.65563 0
M  V30 3156 H 295.827 4.1086 1.09882 0
M  V30 3157 N 294.142 -0.090211 1.57342 0
M  V30 3158 C 295.052 -1.12735 2.05738 0
M  V30 3159 C 296.068 -1.43557 0.983231 0
M  V30 3160 O 297.244 -1.54101 1.29672 0
M  V30 3161 C 294.309 -2.42659 2.47624 0
M  V30 3162 C 293.37 -2.18975 3.69254 0
M  V30 3163 C 292.603 -3.42704 4.09133 0
M  V30 3164 O 292.826 -4.51127 3.49057 0
M  V30 3165 O 291.76 -3.32003 5.02053 0
M  V30 3166 H 295.586 -0.746279 2.94388 0
M  V30 3167 H 293.171 -0.303064 1.46294 0
M  V30 3168 H 295.053 -3.19155 2.7517 0
M  V30 3169 H 293.728 -2.80182 1.62109 0
M  V30 3170 H 292.635 -1.40244 3.46818 0
M  V30 3171 H 293.968 -1.86342 4.55563 0
M  V30 3172 N 295.62 -1.53406 -0.361157 0
M  V30 3173 C 296.869 -1.69022 -1.10066 0
M  V30 3174 C 297.182 -0.450838 -1.90333 0
M  V30 3175 O 298.388 -0.487617 -2.67085 0
M  V30 3176 C 296.844 -2.98812 -2.00598 0
M  V30 3177 C 296.452 -4.30027 -1.25621 0
M  V30 3178 C 298.196 -3.23795 -2.74513 0
M  V30 3179 C 296.103 -5.50903 -2.1508 0
M  V30 3180 H 295.033 -0.629776 -0.414606 0
M  V30 3181 H 297.684 -1.79907 -0.361348 0
M  V30 3182 H 296.066 -2.8174 -2.78278 0
M  V30 3183 H 297.24 -4.57745 -0.529739 0
M  V30 3184 H 295.555 -4.11522 -0.635496 0
M  V30 3185 H 298.152 -4.11289 -3.41681 0
M  V30 3186 H 298.495 -2.40045 -3.40123 0
M  V30 3187 H 299.028 -3.41561 -2.03914 0
M  V30 3188 H 295.767 -6.37143 -1.54041 0
M  V30 3189 H 295.287 -5.27459 -2.85565 0
M  V30 3190 H 296.966 -5.85865 -2.74538 0
M  V30 3191 N 297.098 0.621204 -1.44841 0
M  V30 3192 C 298.326 1.40752 -1.51646 0
M  V30 3193 C 298.741 1.88246 -0.144549 0
M  V30 3194 O 298.098 1.61422 0.851416 0
M  V30 3195 C 298.149 2.62119 -2.4895 0
M  V30 3196 O 297.87 2.16602 -3.80808 0
M  V30 3197 C 299.371 3.55135 -2.65319 0
M  V30 3198 H 296.591 0.431325 -0.514004 0
M  V30 3199 H 299.135 0.758835 -1.899 0
M  V30 3200 H 297.29 3.23058 -2.13805 0
M  V30 3201 H 297.704 2.95358 -4.33433 0
M  V30 3202 H 299.178 4.36874 -3.37409 0
M  V30 3203 H 299.655 4.04592 -1.70886 0
M  V30 3204 H 300.261 3.00058 -3.01405 0
M  V30 3205 N 298.576 1.31904 0.862503 0
M  V30 3206 C 299.486 1.22161 2.00285 0
M  V30 3207 C 300.502 0.136785 1.73462 0
M  V30 3208 O 301.678 0.355994 1.98229 0
M  V30 3209 C 298.743 0.937093 3.33796 0
M  V30 3210 C 297.804 2.10957 3.73893 0
M  V30 3211 C 297.037 1.83853 5.01033 0
M  V30 3212 O 297.26 0.777274 5.65079 0
M  V30 3213 O 296.194 2.69741 5.38074 0
M  V30 3214 H 300.02 2.18008 2.11439 0
M  V30 3215 H 297.605 1.11716 0.991957 0
M  V30 3216 H 299.487 0.794583 4.13841 0
M  V30 3217 H 298.162 0.00871894 3.23699 0
M  V30 3218 H 297.069 2.30752 2.94456 0
M  V30 3219 H 298.402 3.02046 3.88625 0
M  V30 3220 N 300.054 -1.07777 1.14986 0
M  V30 3221 C 301.017 -2.13041 0.845358 0
M  V30 3222 C 302.017 -1.60071 -0.152931 0
M  V30 3223 O 303.207 -1.74033 0.0761879 0
M  V30 3224 C 300.339 -3.39896 0.261383 0
M  V30 3225 H 301.532 -2.41485 1.77834 0
M  V30 3226 H 299.085 -1.23595 0.956757 0
M  V30 3227 H 299.82 -3.17091 -0.68 0
M  V30 3228 H 299.605 -3.79642 0.980514 0
M  V30 3229 H 301.095 -4.17548 0.0657687 0
M  V30 3230 N 301.532 -0.945985 -1.26051 0
M  V30 3231 C 302.76 -0.613025 -1.9761 0
M  V30 3232 C 303.175 0.813035 -1.70397 0
M  V30 3233 O 302.532 1.54274 -0.974979 0
M  V30 3234 C 302.583 -0.85159 -3.51326 0
M  V30 3235 O 302.304 -2.22157 -3.77595 0
M  V30 3236 C 303.805 -0.529831 -4.40122 0
M  V30 3237 H 301.025 -0.230593 -0.630133 0
M  V30 3238 H 303.569 -1.268 -1.60443 0
M  V30 3239 H 301.724 -0.243151 -3.86636 0
M  V30 3240 H 302.138 -2.2852 -4.721 0
M  V30 3241 H 303.612 -0.747348 -5.46917 0
M  V30 3242 H 304.089 0.535341 -4.35925 0
M  V30 3243 H 304.695 -1.11721 -4.10364 0
M  V30 3244 N 303.011 1.40521 -0.713556 0
M  V30 3245 C 304.427 1.54839 -0.386907 0
M  V30 3246 C 304.627 1.68532 1.1045 0
M  V30 3247 O 303.683 1.67377 1.89053 0
M  V30 3248 C 304.996 2.77792 -1.15118 0
M  V30 3249 C 306.544 2.91607 -1.13729 0
M  V30 3250 C 307.019 4.1747 -1.88368 0
M  V30 3251 N 308.51 4.24466 -1.85427 0
M  V30 3252 C 309.245 5.20755 -2.40004 0
M  V30 3253 N 308.741 6.22965 -3.03129 0
M  V30 3254 N 310.534 5.1282 -2.30158 0
M  V30 3255 H 302.685 1.29879 -1.68063 0
M  V30 3256 H 304.948 0.627896 -0.710247 0
M  V30 3257 H 304.654 2.73944 -2.20561 0
M  V30 3258 H 304.528 3.6984 -0.741477 0
M  V30 3259 H 306.915 2.94959 -0.0910608 0
M  V30 3260 H 306.996 2.00682 -1.5862 0
M  V30 3261 H 306.64 4.1488 -2.9298 0
M  V30 3262 H 306.57 5.074 -1.40898 0
M  V30 3263 H 309.061 3.51241 -1.3942 0
M  V30 3264 H 309.374 6.92859 -3.42295 0
M  V30 3265 H 307.719 6.23415 -3.07212 0
M  V30 3266 H 310.91 4.31899 -1.80501 0
M  V30 3267 H 311.083 5.87689 -2.72993 0
M  V30 3268 N 304.489 0.459591 1.5075 0
M  V30 3269 C 305.399 -0.34613 2.32033 0
M  V30 3270 C 306.415 -1.00686 1.41909 0
M  V30 3271 O 307.591 -0.997361 1.7497 0
M  V30 3272 C 304.656 -1.42029 3.16273 0
M  V30 3273 C 303.717 -0.777362 4.22203 0
M  V30 3274 C 302.95 -1.80034 5.02418 0
M  V30 3275 O 303.173 -3.02544 4.83553 0
M  V30 3276 O 302.107 -1.37853 5.85901 0
M  V30 3277 H 305.933 0.318054 3.0203 0
M  V30 3278 H 303.518 0.221663 1.47746 0
M  V30 3279 H 305.4 -2.04275 3.68578 0
M  V30 3280 H 304.075 -2.06815 2.49016 0
M  V30 3281 H 302.982 -0.116256 3.73919 0
M  V30 3282 H 304.315 -0.172634 4.91897 0
M  V30 3283 N 305.967 -1.56429 0.191757 0
M  V30 3284 C 307.216 -1.9666 -0.448088 0
M  V30 3285 C 307.529 -1.08136 -1.62991 0
M  V30 3286 O 308.735 -1.38135 -2.33733 0
M  V30 3287 C 307.191 -3.49753 -0.848585 0
M  V30 3288 C 306.799 -4.46935 0.308764 0
M  V30 3289 C 308.543 -3.9876 -1.4557 0
M  V30 3290 C 306.45 -5.91293 -0.112506 0
M  V30 3291 H 305.38 -0.734312 -0.171179 0
M  V30 3292 H 308.031 -1.81301 0.283242 0
M  V30 3293 H 306.413 -3.60604 -1.63649 0
M  V30 3294 H 307.587 -4.47813 1.08627 0
M  V30 3295 H 305.902 -4.08102 0.827158 0
M  V30 3296 H 308.499 -5.04086 -1.78328 0
M  V30 3297 H 308.842 -3.42875 -2.36099 0
M  V30 3298 H 309.375 -3.9101 -0.731836 0
M  V30 3299 H 306.114 -6.51097 0.758514 0
M  V30 3300 H 305.634 -5.93676 -0.854941 0
M  V30 3301 H 307.313 -6.44663 -0.549448 0
M  V30 3302 N 307.445 0.0818655 -1.57387 0
M  V30 3303 C 308.408 1.08265 -2.02018 0
M  V30 3304 C 309.408 1.32183 -0.915664 0
M  V30 3305 O 310.598 1.28073 -1.18081 0
M  V30 3306 C 307.73 2.42871 -2.39221 0
M  V30 3307 H 308.923 0.698204 -2.91659 0
M  V30 3308 H 306.476 0.327303 -1.52835 0
M  V30 3309 H 307.211 2.86167 -1.52575 0
M  V30 3310 H 306.996 2.26855 -3.19811 0
M  V30 3311 H 308.486 3.14826 -2.74362 0
M  V30 3312 N 308.923 1.53595 0.353017 0
M  V30 3313 C 310.339 1.43648 0.695516 0
M  V30 3314 C 310.539 0.585617 1.92802 0
M  V30 3315 O 309.595 0.0729223 2.52395 0
M  V30 3316 C 310.908 2.8701 0.896991 0
M  V30 3317 C 312.456 2.96723 0.996209 0
M  V30 3318 C 312.931 4.41173 1.23007 0
M  V30 3319 N 314.422 4.44657 1.29749 0
M  V30 3320 C 315.157 5.53547 1.49577 0
M  V30 3321 N 314.653 6.72461 1.66639 0
M  V30 3322 N 316.446 5.41145 1.52048 0
M  V30 3323 H 308.597 2.07415 -0.457481 0
M  V30 3324 H 310.86 0.9372 -0.142687 0
M  V30 3325 H 310.566 3.51644 0.0629938 0
M  V30 3326 H 310.44 3.31401 1.80148 0
M  V30 3327 H 312.827 2.32235 1.82074 0
M  V30 3328 H 312.908 2.55707 0.0688331 0
M  V30 3329 H 312.552 5.06238 0.410505 0
M  V30 3330 H 312.482 4.79772 2.17086 0
M  V30 3331 H 314.973 3.58963 1.18126 0
M  V30 3332 H 315.286 7.51214 1.81378 0
M  V30 3333 H 313.631 6.75423 1.63794 0
M  V30 3334 H 316.822 4.47205 1.38294 0
M  V30 3335 H 316.995 6.26068 1.67159 0
M  V30 3336 N 310.401 -0.613514 1.45168 0
M  V30 3337 C 311.311 -1.75296 1.55912 0
M  V30 3338 C 312.327 -1.68244 0.443856 0
M  V30 3339 O 313.503 -1.88706 0.70371 0
M  V30 3340 C 310.568 -3.1174 1.5172 0
M  V30 3341 C 309.629 -3.30291 2.74238 0
M  V30 3342 C 308.862 -4.60226 2.70236 0
M  V30 3343 O 309.085 -5.42168 1.77229 0
M  V30 3344 O 308.019 -4.81361 3.61352 0
M  V30 3345 H 311.845 -1.69183 2.52212 0
M  V30 3346 H 309.43 -0.776886 1.27612 0
M  V30 3347 H 311.312 -3.93044 1.51968 0
M  V30 3348 H 309.987 -3.18357 0.585697 0
M  V30 3349 H 308.894 -2.48598 2.79553 0
M  V30 3350 H 310.227 -3.28547 3.66494 0
M  V30 3351 N 311.879 -1.3236 -0.855495 0
M  V30 3352 C 313.125 -1.23054 -1.612 0
M  V30 3353 C 313.458 0.207404 -1.93089 0
M  V30 3354 O 312.733 1.14432 -1.57275 0
M  V30 3355 C 313.016 -2.08937 -2.93287 0
M  V30 3356 C 312.869 -3.61105 -2.68185 0
M  V30 3357 C 314.188 -1.94986 -3.94549 0
M  V30 3358 H 311.307 -0.448364 -0.584926 0
M  V30 3359 H 313.949 -1.62297 -0.987917 0
M  V30 3360 H 312.099 -1.75599 -3.46551 0
M  V30 3361 H 313.771 -4.04652 -2.21483 0
M  V30 3362 H 312.014 -3.83813 -2.02164 0
M  V30 3363 H 312.685 -4.16522 -3.62234 0
M  V30 3364 H 315.161 -2.24189 -3.5054 0
M  V30 3365 H 314.037 -2.57356 -4.84829 0
M  V30 3366 H 314.298 -0.917263 -4.3248 0
M  V30 3367 N 313.357 1.07166 -1.15556 0
M  V30 3368 C 314.32 2.12589 -0.856644 0
M  V30 3369 C 315.32 1.6015 0.14444 0
M  V30 3370 O 316.51 1.7399 -0.0854163 0
M  V30 3371 C 313.642 3.39753 -0.279405 0
M  V30 3372 H 314.835 2.40539 -1.79112 0
M  V30 3373 H 312.388 1.23086 -0.963298 0
M  V30 3374 H 313.123 3.17447 0.663174 0
M  V30 3375 H 312.908 3.79117 -1.00063 0
M  V30 3376 H 314.398 4.17507 -0.0879113 0
M  V30 3377 N 314.835 0.952656 1.25548 0
M  V30 3378 C 315.798 0.475794 2.24207 0
M  V30 3379 C 316.798 -0.419428 1.55234 0
M  V30 3380 O 317.988 -0.216994 1.72843 0
M  V30 3381 C 315.12 -0.312814 3.39462 0
M  V30 3382 H 316.313 1.34779 2.67908 0
M  V30 3383 H 313.866 0.735739 1.37901 0
M  V30 3384 H 314.601 -1.20257 3.01179 0
M  V30 3385 H 314.386 0.329404 3.90714 0
M  V30 3386 H 315.876 -0.635986 4.12729 0
M  V30 3387 N 316.313 -1.40141 0.720998 0
M  V30 3388 C 317.561 -2.0039 0.262323 0
M  V30 3389 C 317.882 -1.57469 -1.15015 0
M  V30 3390 O 317.152 -0.816582 -1.78069 0
M  V30 3391 H 315.732 -0.741063 0.093996 0
M  V30 3392 H 318.394 -1.71398 0.927835 0
M  V30 3393 H 317.49 -3.10658 0.299671 0
M  V30 3394 N 317.792 -0.46758 -1.50504 0
M  V30 3395 C 319.208 -0.121533 -1.59137 0
M  V30 3396 C 319.408 1.3717 -1.47603 0
M  V30 3397 O 318.464 2.14464 -1.33272 0
M  V30 3398 C 319.777 -0.6686 -2.93173 0
M  V30 3399 C 321.325 -0.631716 -3.06559 0
M  V30 3400 C 321.8 -1.15627 -4.43164 0
M  V30 3401 N 323.291 -1.11553 -4.49567 0
M  V30 3402 C 324.026 -1.49195 -5.5365 0
M  V30 3403 N 323.522 -1.94269 -6.65005 0
M  V30 3404 N 325.315 -1.4082 -5.44175 0
M  V30 3405 H 317.466 -1.4388 -1.56245 0
M  V30 3406 H 319.729 -0.594784 -0.738198 0
M  V30 3407 H 319.435 -1.71453 -3.07078 0
M  V30 3408 H 319.309 -0.11021 -3.77039 0
M  V30 3409 H 321.696 0.405297 -2.92304 0
M  V30 3410 H 321.777 -1.22687 -2.24458 0
M  V30 3411 H 321.421 -2.1919 -4.58168 0
M  V30 3412 H 321.351 -0.537365 -5.23851 0
M  V30 3413 H 323.842 -0.784895 -3.69659 0
M  V30 3414 H 324.155 -2.21148 -7.40482 0
M  V30 3415 H 322.5 -1.98219 -6.66134 0
M  V30 3416 H 325.691 -1.0545 -4.56068 0
M  V30 3417 H 325.864 -1.70481 -6.25172 0
M  V30 3418 N 319.27 1.56325 -0.20005 0
M  V30 3419 C 320.2 2.22318 0.713916 0
M  V30 3420 C 321.181 1.18788 1.21752 0
M  V30 3421 O 322.366 1.47309 1.26545 0
M  V30 3422 C 319.496 2.88639 1.93144 0
M  V30 3423 C 318.45 3.98457 1.56255 0
M  V30 3424 C 317.776 4.51967 2.85709 0
M  V30 3425 C 319.076 5.16612 0.768747 0
M  V30 3426 H 320.77 2.98952 0.163755 0
M  V30 3427 H 318.316 1.43792 0.0773219 0
M  V30 3428 H 320.269 3.33491 2.57608 0
M  V30 3429 H 318.993 2.09419 2.50621 0
M  V30 3430 H 317.652 3.54305 0.941471 0
M  V30 3431 H 317.3 3.69503 3.41287 0
M  V30 3432 H 317 5.26071 2.6177 0
M  V30 3433 H 318.524 4.99523 3.51154 0
M  V30 3434 H 319.938 5.57977 1.3166 0
M  V30 3435 H 318.335 5.96812 0.627286 0
M  V30 3436 H 319.405 4.84358 -0.229168 0
M  V30 3437 N 320.748 -0.0735177 1.57428 0
M  V30 3438 C 321.696 -1.10628 2.04607 0
M  V30 3439 C 322.69 -1.40181 0.951088 0
M  V30 3440 O 323.896 -1.39608 1.1362 0
M  V30 3441 H 320.271 -0.374088 0.652351 0
M  V30 3442 H 322.242 -0.682218 2.90497 0
M  V30 3443 C 320.991 -2.41212 2.50423 0
M  V30 3444 H 320.314 -2.19322 3.34272 0
M  V30 3445 H 321.754 -3.11927 2.87189 0
M  V30 3446 C 320.213 -3.0705 1.38644 0
M  V30 3447 O 320.743 -3.95056 0.727582 0
M  V30 3448 N 318.949 -2.67645 1.132 0
M  V30 3449 H 318.496 -1.96169 1.66959 0
M  V30 3450 H 318.454 -3.1202 0.386147 0
M  V30 3451 N 322.226 -1.5378 -0.344866 0
M  V30 3452 C 323.637 -1.62428 -0.920552 0
M  V30 3453 C 323.988 -0.504747 -1.89596 0
M  V30 3454 O 323.113 0.365711 -2.13287 0
M  V30 3455 C 323.708 -2.94419 -1.67639 0
M  V30 3456 C 322.267 -3.05333 -2.20111 0
M  V30 3457 C 321.414 -2.57866 -1.01982 0
M  V30 3458 H 324.365 -1.58222 -0.123042 0
M  V30 3459 H 324.386 -2.83384 -2.53917 0
M  V30 3460 H 323.898 -3.7588 -0.966224 0
M  V30 3461 H 321.999 -2.28502 -2.94308 0
M  V30 3462 H 322.112 -4.10778 -2.46573 0
M  V30 3463 H 320.476 -2.13241 -1.39285 0
M  V30 3464 H 321.259 -3.41765 -0.324308 0
M  V30 3465 N 323.704 0.605807 -1.45491 0
M  V30 3466 C 324.614 1.74466 -1.56839 0
M  V30 3467 C 325.63 1.68006 -0.452772 0
M  V30 3468 O 326.806 1.8833 -0.713708 0
M  V30 3469 C 323.871 3.10931 -1.53371 0
M  V30 3470 C 322.932 3.28832 -2.75986 0
M  V30 3471 C 322.165 4.58787 -2.72673 0
M  V30 3472 O 322.388 5.4122 -1.80102 0
M  V30 3473 O 321.322 4.79438 -3.63899 0
M  V30 3474 H 325.148 1.67843 -2.53106 0
M  V30 3475 H 322.733 0.770108 -1.28022 0
M  V30 3476 H 324.615 3.92233 -1.54051 0
M  V30 3477 H 323.29 3.18042 -0.602572 0
M  V30 3478 H 322.197 2.47112 -2.80867 0
M  V30 3479 H 323.53 3.26599 -3.68231 0
M  V30 3480 N 325.182 1.32811 0.848464 0
M  V30 3481 C 326.598 1.11937 1.13764 0
M  V30 3482 C 326.798 -0.0960789 2.01271 0
M  V30 3483 O 325.854 -0.779165 2.40178 0
M  V30 3484 C 327.167 2.402 1.809 0
M  V30 3485 C 328.715 2.46016 1.93508 0
M  V30 3486 C 329.19 3.74215 2.64059 0
M  V30 3487 N 330.681 3.75232 2.71579 0
M  V30 3488 C 331.416 4.71134 3.26833 0
M  V30 3489 N 330.912 5.77406 3.8285 0
M  V30 3490 N 332.705 4.58623 3.24995 0
M  V30 3491 H 324.856 2.1073 0.265855 0
M  V30 3492 H 327.119 0.930671 0.180431 0
M  V30 3493 H 326.825 3.29093 1.24058 0
M  V30 3494 H 326.699 2.51628 2.81004 0
M  V30 3495 H 329.086 1.57577 2.49506 0
M  V30 3496 H 329.167 2.38536 0.923811 0
M  V30 3497 H 328.811 4.63031 2.08722 0
M  V30 3498 H 328.741 3.78968 3.65637 0
M  V30 3499 H 331.232 2.98423 2.31845 0
M  V30 3500 H 331.545 6.46632 4.23187 0
M  V30 3501 H 329.89 5.81152 3.81165 0
M  V30 3502 H 333.081 3.74762 2.80484 0
M  V30 3503 H 333.254 5.33535 3.67756 0
M  V30 3504 N 326.66 -1.06551 1.16123 0
M  V30 3505 C 327.909 -1.78687 0.935622 0
M  V30 3506 C 328.222 -1.88056 -0.538001 0
M  V30 3507 O 329.428 -2.56794 -0.88143 0
M  V30 3508 C 327.884 -3.21143 1.62466 0
M  V30 3509 C 327.492 -3.19949 3.13587 0
M  V30 3510 C 329.236 -3.9783 1.48092 0
M  V30 3511 C 327.143 -4.57108 3.75241 0
M  V30 3512 H 326.073 -0.669712 0.346412 0
M  V30 3513 H 328.724 -1.19534 1.39226 0
M  V30 3514 H 327.106 -3.80539 1.09572 0
M  V30 3515 H 328.28 -2.70151 3.73303 0
M  V30 3516 H 326.595 -2.5676 3.27816 0
M  V30 3517 H 329.192 -4.99217 1.91538 0
M  V30 3518 H 329.535 -4.14078 0.429507 0
M  V30 3519 H 330.068 -3.4495 1.98127 0
M  V30 3520 H 326.807 -4.46065 4.80319 0
M  V30 3521 H 326.327 -5.07111 3.20309 0
M  V30 3522 H 328.006 -5.26069 3.76644 0
M  V30 3523 N 328.138 -0.959301 -1.25041 0
M  V30 3524 C 329.366 -0.633949 -1.96948 0
M  V30 3525 C 329.781 0.794916 -1.7125 0
M  V30 3526 O 329.138 1.53231 -0.991287 0
M  V30 3527 C 329.189 -0.888805 -3.50403 0
M  V30 3528 O 328.91 -2.26149 -3.75218 0
M  V30 3529 C 330.411 -0.576482 -4.39536 0
M  V30 3530 H 327.631 -0.237263 -0.627652 0
M  V30 3531 H 330.175 -1.28495 -1.59089 0
M  V30 3532 H 328.33 -0.284145 -3.86357 0
M  V30 3533 H 328.744 -2.33514 -4.6965 0
M  V30 3534 H 330.218 -0.805314 -5.46094 0
M  V30 3535 H 330.695 0.489075 -4.36468 0
M  V30 3536 H 331.301 -1.16067 -4.09156 0
M  V30 3537 N 329.616 1.39756 -0.72842 0
M  V30 3538 C 330.526 2.34444 -0.0855374 0
M  V30 3539 C 331.542 1.57976 0.729356 0
M  V30 3540 O 332.718 1.90301 0.659346 0
M  V30 3541 C 329.783 3.36965 0.815798 0
M  V30 3542 C 328.844 4.29299 -0.0105996 0
M  V30 3543 C 328.077 5.26923 0.84781 0
M  V30 3544 O 328.3 5.30859 2.08673 0
M  V30 3545 O 327.234 6.01249 0.279969 0
M  V30 3546 H 331.06 2.91065 -0.866892 0
M  V30 3547 H 328.645 1.4117 -0.48902 0
M  V30 3548 H 330.527 3.99804 1.33171 0
M  V30 3549 H 329.202 2.82739 1.57608 0
M  V30 3550 H 328.109 3.69703 -0.571877 0
M  V30 3551 H 329.442 4.86712 -0.73295 0
M  V30 3552 N 331.094 0.475555 1.50254 0
M  V30 3553 C 332.319 -0.0777042 2.07254 0
M  V30 3554 C 332.744 -1.3235 1.3366 0
M  V30 3555 O 332.102 -1.77152 0.385597 0
M  V30 3556 C 332.15 -0.340169 3.58992 0
M  V30 3557 O 331.254 -1.41982 3.87188 0
M  V30 3558 H 330.595 0.0149556 0.663832 0
M  V30 3559 H 333.125 0.667878 1.93392 0
M  V30 3560 H 333.135 -0.579332 4.03866 0
M  V30 3561 H 331.81 0.570167 4.11973 0
M  V30 3562 H 330.387 -1.16762 3.54148 0
M  V30 3563 N 332.573 -1.56217 0.208337 0
M  V30 3564 C 333.801 -2.02337 -0.43215 0
M  V30 3565 C 334.216 -1.08834 -1.54275 0
M  V30 3566 O 333.573 -0.0955462 -1.8225 0
M  V30 3567 C 333.624 -3.48072 -0.976138 0
M  V30 3568 O 333.345 -4.38007 0.0901621 0
M  V30 3569 C 334.846 -4.09773 -1.69119 0
M  V30 3570 H 332.066 -0.662385 -0.10718 0
M  V30 3571 H 334.61 -2.01966 0.320923 0
M  V30 3572 H 332.765 -3.49099 -1.67954 0
M  V30 3573 H 333.179 -5.23543 -0.316701 0
M  V30 3574 H 334.653 -5.13556 -2.02397 0
M  V30 3575 H 335.13 -3.53999 -2.59964 0
M  V30 3576 H 335.736 -4.12556 -1.03332 0
M  V30 3577 N 334.051 0.0651679 -1.57465 0
M  V30 3578 C 335.3 0.761916 -1.86756 0
M  V30 3579 C 335.613 1.78406 -0.801925 0
M  V30 3580 O 336.819 2.53084 -0.982885 0
M  V30 3581 C 335.275 1.40603 -3.31299 0
M  V30 3582 C 334.883 0.422115 -4.46007 0
M  V30 3583 C 336.627 2.08476 -3.69781 0
M  V30 3584 C 334.534 1.07252 -5.81593 0
M  V30 3585 H 333.464 0.288308 -0.696702 0
M  V30 3586 H 336.115 0.015344 -1.83494 0
M  V30 3587 H 334.497 2.20109 -3.29193 0
M  V30 3588 H 335.671 -0.343613 -4.59517 0
M  V30 3589 H 333.986 -0.152527 -4.16121 0
M  V30 3590 H 336.583 2.57925 -4.68379 0
M  V30 3591 H 336.926 2.88712 -2.99919 0
M  V30 3592 H 337.459 1.35792 -3.73905 0
M  V30 3593 H 334.198 0.310342 -6.54765 0
M  V30 3594 H 333.718 1.80895 -5.71872 0
M  V30 3595 H 335.397 1.59043 -6.27148 0
M  V30 3596 N 335.529 1.53961 0.336706 0
M  V30 3597 C 336.492 1.81724 1.39675 0
M  V30 3598 C 337.492 0.688532 1.45313 0
M  V30 3599 O 338.682 0.956829 1.45569 0
M  V30 3600 C 335.814 1.96543 2.78538 0
M  V30 3601 H 337.007 2.76424 1.16318 0
M  V30 3602 H 334.56 1.45478 0.571474 0
M  V30 3603 H 335.295 1.0401 3.07168 0
M  V30 3604 H 335.08 2.78665 2.75841 0
M  V30 3605 H 336.57 2.19516 3.5525 0
M  V30 3606 N 337.007 -0.598083 1.45811 0
M  V30 3607 C 338.423 -0.919847 1.30426 0
M  V30 3608 C 338.623 -1.99759 0.264303 0
M  V30 3609 O 337.679 -2.50221 -0.338472 0
M  V30 3610 C 338.992 -1.35176 2.68603 0
M  V30 3611 C 340.54 -1.46546 2.76574 0
M  V30 3612 C 341.015 -1.9311 4.15298 0
M  V30 3613 N 342.506 -2.00328 4.1764 0
M  V30 3614 C 343.241 -2.37599 5.21856 0
M  V30 3615 N 342.737 -2.73771 6.36413 0
M  V30 3616 N 344.53 -2.38021 5.09218 0
M  V30 3617 H 336.681 0.114111 2.12093 0
M  V30 3618 H 338.944 -0.0116121 0.947929 0
M  V30 3619 H 338.65 -0.633969 3.45939 0
M  V30 3620 H 338.524 -2.3164 2.97696 0
M  V30 3621 H 340.911 -2.17415 1.99537 0
M  V30 3622 H 340.992 -0.483727 2.51185 0
M  V30 3623 H 340.636 -1.22824 4.92825 0
M  V30 3624 H 340.566 -2.92213 4.38086 0
M  V30 3625 H 343.057 -1.74925 3.34977 0
M  V30 3626 H 343.37 -3.0112 7.11721 0
M  V30 3627 H 341.715 -2.71445 6.39799 0
M  V30 3628 H 344.906 -2.09174 4.18765 0
M  V30 3629 H 345.079 -2.66741 5.90554 0
M  V30 3630 N 338.485 -1.33259 -0.841409 0
M  V30 3631 C 339.435 -1.19872 -1.93945 0
M  V30 3632 C 340.419 -0.102269 -1.60575 0
M  V30 3633 O 341.611 -0.330114 -1.73894 0
M  V30 3634 C 338.74 -0.937517 -3.30251 0
M  V30 3635 C 337.826 -2.07629 -3.69799 0
M  V30 3636 N 338.217 -3.32604 -3.81062 0
M  V30 3637 C 336.515 -1.98242 -3.9952 0
M  V30 3638 C 337.216 -4.07275 -4.15333 0
M  V30 3639 N 336.192 -3.35691 -4.27566 0
M  V30 3640 H 339.994 -2.14604 -2.00805 0
M  V30 3641 H 337.508 -1.2523 -1.03398 0
M  V30 3642 H 339.505 -0.822545 -4.08705 0
M  V30 3643 H 338.165 0.00128798 -3.247 0
M  V30 3644 H 339.176 -3.67382 -3.65035 0
M  V30 3645 H 335.853 -1.12005 -4.02195 0
M  V30 3646 H 337.243 -5.1511 -4.31406 0
M  V30 3647 N 339.963 1.05934 -1.16686 0
M  V30 3648 C 340.893 2.1546 -0.899949 0
M  V30 3649 C 341.874 1.69391 0.155154 0
M  V30 3650 O 343.059 1.94199 0.00648693 0
M  V30 3651 C 340.189 3.44939 -0.404241 0
M  V30 3652 C 339.143 4.04536 -1.39767 0
M  V30 3653 C 338.469 5.29268 -0.760216 0
M  V30 3654 C 339.769 4.42893 -2.76845 0
M  V30 3655 H 341.463 2.38046 -1.81588 0
M  V30 3656 H 339.009 1.14404 -0.874514 0
M  V30 3657 H 340.962 4.20901 -0.204971 0
M  V30 3658 H 339.686 3.21983 0.547206 0
M  V30 3659 H 338.345 3.30635 -1.58355 0
M  V30 3660 H 337.993 5.02611 0.197831 0
M  V30 3661 H 337.693 5.70101 -1.42332 0
M  V30 3662 H 339.217 6.07924 -0.57105 0
M  V30 3663 H 340.631 5.09921 -2.62019 0
M  V30 3664 H 339.028 4.94721 -3.39663 0
M  V30 3665 H 340.098 3.53584 -3.31823 0
M  V30 3666 N 341.441 0.965919 1.2453 0
M  V30 3667 C 342.373 0.452465 2.2469 0
M  V30 3668 C 343.386 -0.437821 1.56802 0
M  V30 3669 O 344.575 -0.244283 1.76821 0
M  V30 3670 C 341.675 -0.366258 3.36915 0
M  V30 3671 C 340.848 0.513701 4.34373 0
M  V30 3672 C 339.907 -0.248716 5.25612 0
M  V30 3673 O 338.933 0.356745 5.68081 0
M  V30 3674 N 340.135 -1.53877 5.59734 0
M  V30 3675 H 342.9 1.31361 2.69378 0
M  V30 3676 H 340.461 0.837541 1.38553 0
M  V30 3677 H 342.453 -0.884297 3.94921 0
M  V30 3678 H 341.023 -1.12832 2.91526 0
M  V30 3679 H 340.243 1.21273 3.75082 0
M  V30 3680 H 341.531 1.11391 4.96457 0
M  V30 3681 H 340.929 -2.05243 5.27154 0
M  V30 3682 H 339.486 -2.00254 6.20275 0
M  V30 3683 N 342.919 -1.39368 0.735821 0
M  V30 3684 C 344.335 -1.54204 0.411492 0
M  V30 3685 C 344.535 -1.70268 -1.07755 0
M  V30 3686 O 343.591 -1.70364 -1.86366 0
M  V30 3687 C 344.904 -2.75925 1.19523 0
M  V30 3688 C 346.452 -2.89761 1.18354 0
M  V30 3689 C 346.927 -4.14421 1.94986 0
M  V30 3690 N 348.418 -4.21462 1.92156 0
M  V30 3691 C 349.153 -5.16871 2.48258 0
M  V30 3692 N 348.649 -6.18063 3.13001 0
M  V30 3693 N 350.442 -5.09093 2.38287 0
M  V30 3694 H 342.593 -1.27189 1.70108 0
M  V30 3695 H 344.856 -0.616517 0.720147 0
M  V30 3696 H 344.562 -2.70401 2.24892 0
M  V30 3697 H 344.436 -3.68614 0.800222 0
M  V30 3698 H 346.823 -2.94777 0.137975 0
M  V30 3699 H 346.904 -1.98133 1.61793 0
M  V30 3700 H 346.548 -4.10166 2.99543 0
M  V30 3701 H 346.478 -5.05095 1.48953 0
M  V30 3702 H 348.969 -3.48979 1.44991 0
M  V30 3703 H 349.282 -6.87326 3.53275 0
M  V30 3704 H 347.627 -6.18448 3.17091 0
M  V30 3705 H 350.818 -4.28973 1.8735 0
M  V30 3706 H 350.991 -5.83272 2.82308 0
M  V30 3707 N 344.397 -0.483516 -1.5 0
M  V30 3708 C 345.808 -0.0314176 -1.86674 0
M  V30 3709 C 346.159 1.37728 -1.39733 0
M  V30 3710 O 345.284 2.02327 -0.767635 0
M  V30 3711 C 345.879 -0.0502376 -3.38763 0
M  V30 3712 C 344.438 0.346442 -3.74802 0
M  V30 3713 C 343.585 -0.430366 -2.7394 0
M  V30 3714 H 346.536 -0.697182 -1.42566 0
M  V30 3715 H 346.557 0.749116 -3.73053 0
M  V30 3716 H 346.069 -1.07563 -3.72897 0
M  V30 3717 H 344.17 1.37572 -3.46273 0
M  V30 3718 H 344.283 0.0391486 -4.79084 0
M  V30 3719 H 342.647 0.117557 -2.54429 0
M  V30 3720 H 343.43 -1.4555 -3.10918 0
M  V30 3721 N 345.875 1.56104 -0.216619 0
M  V30 3722 C 347.152 1.89988 0.465165 0
M  V30 3723 C 347.532 1.13326 1.78102 0
M  V30 3724 O 346.88 0.241033 2.27225 0
M  V30 3725 C 347.09 3.42646 0.662939 0
M  V30 3726 C 348.438 4.13311 0.972602 0
M  V30 3727 O 349.462 3.48217 0.749901 0
M  V30 3728 O 348.321 5.28396 1.39499 0
M  V30 3729 H 345.415 0.78979 0.245276 0
M  V30 3730 H 347.961 1.67721 -0.258436 0
M  V30 3731 H 346.733 3.90399 -0.26543 0
M  V30 3732 H 346.356 3.70677 1.43821 0
M  V30 3733 N 347.353 -0.0568162 1.57498 0
M  V30 3734 C 348.602 -0.752001 1.87157 0
M  V30 3735 C 348.915 -1.77978 0.811375 0
M  V30 3736 O 350.121 -2.52559 0.996293 0
M  V30 3737 C 348.577 -1.38844 3.3204 0
M  V30 3738 C 348.185 -0.398456 4.46225 0
M  V30 3739 C 349.929 -2.06512 3.70882 0
M  V30 3740 C 347.836 -1.04166 5.82154 0
M  V30 3741 H 346.766 -0.28461 0.698222 0
M  V30 3742 H 349.417 -0.00561272 1.83499 0
M  V30 3743 H 347.799 -2.1836 3.30356 0
M  V30 3744 H 348.973 0.367977 4.59328 0
M  V30 3745 H 347.288 0.174592 4.16034 0
M  V30 3746 H 349.885 -2.55437 4.6974 0
M  V30 3747 H 350.228 -2.87117 3.01445 0
M  V30 3748 H 350.761 -1.33808 3.7462 0
M  V30 3749 H 347.5 -0.275614 6.5492 0
M  V30 3750 H 347.02 -1.7786 5.72823 0
M  V30 3751 H 348.699 -1.55715 6.27982 0
M  V30 3752 N 348.832 -1.54138 -0.328536 0
M  V30 3753 C 350.243 -1.63395 -0.903272 0
M  V30 3754 C 350.594 -0.524828 -1.8905 0
M  V30 3755 O 349.719 0.343068 -2.13663 0
M  V30 3756 C 350.314 -2.9618 -1.64507 0
M  V30 3757 C 348.873 -3.0765 -2.1686 0
M  V30 3758 C 348.02 -2.58933 -0.992416 0
M  V30 3759 H 350.971 -1.58344 -0.106253 0
M  V30 3760 H 350.992 -2.86061 -2.50897 0
M  V30 3761 H 350.504 -3.76884 -0.926302 0
M  V30 3762 H 348.605 -2.31611 -2.91868 0
M  V30 3763 H 348.718 -4.1337 -2.42202 0
M  V30 3764 H 347.082 -2.14706 -1.37016 0
M  V30 3765 H 347.865 -3.42089 -0.288041 0
M  V30 3766 N 350.31 0.590341 -1.46126 0
M  V30 3767 C 351.587 1.35029 -1.41515 0
M  V30 3768 C 351.967 2.10888 -0.0946472 0
M  V30 3769 O 351.315 2.08998 0.923693 0
M  V30 3770 C 351.525 2.28269 -2.63997 0
M  V30 3771 C 352.873 2.90338 -3.09821 0
M  V30 3772 O 353.897 2.38585 -2.64492 0
M  V30 3773 O 352.756 3.84321 -3.88535 0
M  V30 3774 H 349.85 0.606317 -0.562413 0
M  V30 3775 H 352.396 0.611994 -1.58281 0
M  V30 3776 H 351.168 1.71591 -3.51671 0
M  V30 3777 H 350.791 3.0945 -2.49652 0
M  V30 3778 N 351.788 1.33704 0.83433 0
M  V30 3779 C 353.034 1.25603 1.59222 0
M  V30 3780 C 353.367 -0.176659 1.93395 0
M  V30 3781 O 352.642 -1.11915 1.59076 0
M  V30 3782 C 352.925 2.13576 2.89926 0
M  V30 3783 C 352.778 3.65326 2.62406 0
M  V30 3784 C 354.097 2.01238 3.91397 0
M  V30 3785 H 351.216 0.457613 0.577719 0
M  V30 3786 H 353.858 1.63848 0.961972 0
M  V30 3787 H 352.008 1.8109 3.43713 0
M  V30 3788 H 353.68 4.08124 2.15017 0
M  V30 3789 H 351.923 3.8698 1.96033 0
M  V30 3790 H 352.594 4.22232 3.55562 0
M  V30 3791 H 355.07 2.29738 3.46929 0
M  V30 3792 H 353.946 2.65036 4.80673 0
M  V30 3793 H 354.207 0.985951 4.30966 0
M  V30 3794 N 353.266 -1.05314 1.17247 0
M  V30 3795 C 354.543 -1.75184 0.87005 0
M  V30 3796 C 354.923 -2.01481 -0.629965 0
M  V30 3797 O 354.271 -1.64988 -1.58086 0
M  V30 3798 C 354.481 -3.04594 1.70363 0
M  V30 3799 C 355.829 -3.78567 1.92281 0
M  V30 3800 O 356.853 -3.14461 1.67311 0
M  V30 3801 O 355.712 -4.93755 2.3424 0
M  V30 3802 H 352.806 -0.761729 0.322021 0
M  V30 3803 H 355.352 -1.11493 1.27935 0
M  V30 3804 H 354.124 -2.81201 2.72106 0
M  V30 3805 H 353.747 -3.76022 1.29202 0
M  V30 3806 N 354.744 -0.972509 -1.24016 0
M  V30 3807 C 355.674 -0.525548 -2.27509 0
M  V30 3808 C 356.655 0.437262 -1.64384 0
M  V30 3809 O 357.84 0.332343 -1.91335 0
M  V30 3810 C 354.97 0.180448 -3.46831 0
M  V30 3811 C 353.924 -0.698859 -4.22256 0
M  V30 3812 C 353.25 0.138903 -5.3452 0
M  V30 3813 C 354.55 -1.98582 -4.83076 0
M  V30 3814 H 356.244 -1.39058 -2.65148 0
M  V30 3815 H 353.79 -0.67009 -1.27459 0
M  V30 3816 H 355.743 0.504387 -4.18371 0
M  V30 3817 H 354.467 1.07987 -3.08231 0
M  V30 3818 H 353.126 -1.00614 -3.52523 0
M  V30 3819 H 352.774 1.03862 -4.9216 0
M  V30 3820 H 352.474 -0.446259 -5.85903 0
M  V30 3821 H 353.998 0.457404 -6.08884 0
M  V30 3822 H 355.412 -1.72715 -5.46665 0
M  V30 3823 H 353.809 -2.5181 -5.44713 0
M  V30 3824 H 354.879 -2.67769 -4.04262 0
M  V30 3825 N 356.222 1.38976 -0.743202 0
M  V30 3826 C 357.469 2.00343 -0.294752 0
M  V30 3827 C 357.797 1.58983 1.12047 0
M  V30 3828 O 357.052 0.813809 1.77977 0
M  V30 3829 C 357.351 3.55647 -0.353517 0
M  V30 3830 C 357.017 4.16685 -1.72292 0
M  V30 3831 C 355.679 4.3307 -2.09771 0
M  V30 3832 C 358.031 4.50464 -2.62168 0
M  V30 3833 C 355.359 4.80526 -3.36618 0
M  V30 3834 C 357.711 4.99332 -3.88395 0
M  V30 3835 C 356.375 5.13924 -4.25956 0
M  V30 3836 H 355.645 0.733108 -0.107857 0
M  V30 3837 H 358.292 1.6618 -0.951651 0
M  V30 3838 H 356.597 3.89884 0.386954 0
M  V30 3839 H 358.294 4.00998 0.0117269 0
M  V30 3840 H 354.884 4.04339 -1.42155 0
M  V30 3841 H 359.068 4.37416 -2.3448 0
M  V30 3842 H 354.324 4.90008 -3.65653 0
M  V30 3843 H 358.498 5.2444 -4.58187 0
M  V30 3844 H 356.125 5.50457 -5.2431 0
M  V30 3845 N 357.7 0.491464 1.49741 0
M  V30 3846 C 358.63 -0.28154 2.31796 0
M  V30 3847 C 359.611 -0.971473 1.3963 0
M  V30 3848 O 360.796 -0.964719 1.68543 0
M  V30 3849 C 357.926 -1.35203 3.19902 0
M  V30 3850 C 356.88 -0.782529 4.20786 0
M  V30 3851 C 356.206 -1.95283 4.97764 0
M  V30 3852 C 357.506 0.21999 5.21837 0
M  V30 3853 H 359.2 0.403355 2.96671 0
M  V30 3854 H 356.746 0.195425 1.42668 0
M  V30 3855 H 358.699 -1.90045 3.76113 0
M  V30 3856 H 357.423 -2.06598 2.52953 0
M  V30 3857 H 356.082 -0.255928 3.65706 0
M  V30 3858 H 355.73 -2.65423 4.2727 0
M  V30 3859 H 355.43 -1.57789 5.66018 0
M  V30 3860 H 356.954 -2.50577 5.56816 0
M  V30 3861 H 358.368 -0.23996 5.72798 0
M  V30 3862 H 356.765 0.51026 5.97927 0
M  V30 3863 H 357.835 1.13911 4.7133 0
M  V30 3864 N 359.178 -1.55987 0.224894 0
M  V30 3865 C 360.594 -1.59066 -0.130426 0
M  V30 3866 C 360.794 -1.24176 -1.5869 0
M  V30 3867 O 359.85 -0.978592 -2.32766 0
M  V30 3868 C 361.163 -3.00042 0.198883 0
M  V30 3869 C 362.711 -3.1268 0.141391 0
M  V30 3870 C 363.186 -4.55839 0.444422 0
M  V30 3871 N 364.677 -4.6152 0.394115 0
M  V30 3872 C 365.412 -5.70231 0.602038 0
M  V30 3873 N 364.908 -6.87291 0.871914 0
M  V30 3874 N 366.701 -5.59555 0.534245 0
M  V30 3875 H 358.852 -1.76941 1.17497 0
M  V30 3876 H 361.115 -0.822604 0.471197 0
M  V30 3877 H 360.821 -3.30234 1.2099 0
M  V30 3878 H 360.695 -3.74075 -0.484535 0
M  V30 3879 H 363.082 -2.82283 -0.860265 0
M  V30 3880 H 363.163 -2.40969 0.858335 0
M  V30 3881 H 362.807 -4.86954 1.44353 0
M  V30 3882 H 362.737 -5.2578 -0.293752 0
M  V30 3883 H 365.228 -3.77405 0.193356 0
M  V30 3884 H 365.541 -7.66058 1.01858 0
M  V30 3885 H 363.886 -6.89028 0.909145 0
M  V30 3886 H 367.077 -4.6698 0.323612 0
M  V30 3887 H 367.25 -6.44211 0.699693 0
M  V30 3888 N 360.656 0.0484629 -1.57525 0
M  V30 3889 C 361.884 0.755421 -1.92616 0
M  V30 3890 C 362.299 1.69919 -0.822984 0
M  V30 3891 O 361.656 1.81378 0.202085 0
M  V30 3892 C 361.707 1.52915 -3.27566 0
M  V30 3893 O 361.428 0.62329 -4.33644 0
M  V30 3894 C 362.929 2.33502 -3.76818 0
M  V30 3895 H 360.149 0.213465 -0.63614 0
M  V30 3896 H 362.693 0.0117698 -2.04497 0
M  V30 3897 H 360.848 2.22486 -3.17142 0
M  V30 3898 H 361.262 1.16383 -5.11425 0
M  V30 3899 H 362.736 2.83214 -4.73808 0
M  V30 3900 H 363.213 3.14068 -3.07014 0
M  V30 3901 H 363.819 1.69043 -3.90262 0
M  V30 3902 N 362.134 1.5431 0.320358 0
M  V30 3903 C 363.359 1.76954 1.08175 0
M  V30 3904 C 363.784 0.518193 1.80821 0
M  V30 3905 O 363.142 -0.530411 1.73368 0
M  V30 3906 C 363.19 2.96451 2.05303 0
M  V30 3907 O 362.294 2.68221 3.13259 0
M  V30 3908 H 361.635 0.586275 0.311733 0
M  V30 3909 H 364.165 2.01342 0.363676 0
M  V30 3910 H 364.175 3.23887 2.48116 0
M  V30 3911 H 362.85 3.87196 1.51829 0
M  V30 3912 H 361.427 2.51744 2.75099 0
M  V30 3913 N 363.613 -0.582584 1.46437 0
M  V30 3914 C 364.861 -1.33814 1.51453 0
M  V30 3915 C 365.182 -1.94277 0.167792 0
M  V30 3916 O 364.452 -1.78566 -0.805677 0
M  V30 3917 H 363.032 -0.496838 0.557818 0
M  V30 3918 H 365.694 -0.682281 1.82568 0
M  V30 3919 H 364.79 -2.14479 2.26728 0
M  V30 3920 N 365.091 -1.34144 -0.827227 0
M  V30 3921 C 366.001 -1.27428 -1.96975 0
M  V30 3922 C 367.017 -0.182728 -1.73038 0
M  V30 3923 O 368.193 -0.408426 -1.97215 0
M  V30 3924 C 365.258 -1.02526 -3.31194 0
M  V30 3925 C 364.319 -2.20796 -3.68168 0
M  V30 3926 C 363.552 -1.97073 -4.95982 0
M  V30 3927 O 363.775 -0.926822 -5.6282 0
M  V30 3928 O 362.709 -2.83912 -5.30733 0
M  V30 3929 H 366.535 -2.23537 -2.05584 0
M  V30 3930 H 364.12 -1.14307 -0.961989 0
M  V30 3931 H 366.002 -0.904026 -4.11589 0
M  V30 3932 H 364.677 -0.0945389 -3.23562 0
M  V30 3933 H 363.584 -2.38477 -2.88235 0
M  V30 3934 H 364.917 -3.12243 -3.8048 0
M  V30 3935 N 366.569 1.04691 -1.17803 0
M  V30 3936 C 367.501 2.12571 -0.857097 0
M  V30 3937 C 368.514 1.62174 0.142647 0
M  V30 3938 O 369.703 1.78301 -0.0843387 0
M  V30 3939 C 366.803 3.37915 -0.258216 0
M  V30 3940 C 365.976 4.1757 -1.30207 0
M  V30 3941 C 365.035 5.2125 -0.720029 0
M  V30 3942 O 364.061 5.51888 -1.39314 0
M  V30 3943 N 365.263 5.78466 0.485507 0
M  V30 3944 H 368.028 2.40698 -1.78562 0
M  V30 3945 H 365.589 1.20831 -1.07757 0
M  V30 3946 H 367.581 4.04442 0.144584 0
M  V30 3947 H 366.151 3.07281 0.574199 0
M  V30 3948 H 365.371 3.46458 -1.88043 0
M  V30 3949 H 366.659 4.67586 -2.00601 0
M  V30 3950 H 366.057 5.55866 1.05022 0
M  V30 3951 H 364.614 6.4649 0.830307 0
M  V30 3952 N 368.047 0.979072 1.23499 0
M  V30 3953 C 369.463 0.687475 1.44034 0
M  V30 3954 C 369.663 -0.746801 1.8715 0
M  V30 3955 O 368.719 -1.51939 2.0167 0
M  V30 3956 C 370.032 1.68127 2.49307 0
M  V30 3957 C 371.58 1.69516 2.63122 0
M  V30 3958 C 372.055 2.67723 3.71603 0
M  V30 3959 N 373.546 2.66233 3.79044 0
M  V30 3960 C 374.281 3.38891 4.62537 0
M  V30 3961 N 373.777 4.21103 5.50131 0
M  V30 3962 N 375.57 3.27661 4.56721 0
M  V30 3963 H 367.721 1.90559 0.938135 0
M  V30 3964 H 369.984 0.821051 0.473897 0
M  V30 3965 H 369.69 2.70693 2.2454 0
M  V30 3966 H 369.564 1.46306 3.4767 0
M  V30 3967 H 371.951 0.676561 2.8724 0
M  V30 3968 H 372.032 1.95404 1.65079 0
M  V30 3969 H 371.676 3.69724 3.48233 0
M  V30 3970 H 371.606 2.39111 4.69184 0
M  V30 3971 H 374.097 2.06568 3.16446 0
M  V30 3972 H 374.41 4.73403 6.10827 0
M  V30 3973 H 372.755 4.25195 5.49759 0
M  V30 3974 H 375.946 2.62887 3.87309 0
M  V30 3975 H 376.119 3.84547 5.21562 0
M  V30 3976 N 369.525 -1.3858 0.750561 0
M  V30 3977 C 370.75 -2.04997 0.314812 0
M  V30 3978 C 371.175 -1.56235 -1.04749 0
M  V30 3979 O 370.533 -0.712981 -1.66692 0
M  V30 3980 C 370.581 -3.58961 0.343415 0
M  V30 3981 O 369.685 -4.07025 -0.663628 0
M  V30 3982 H 369.026 -0.649081 0.139962 0
M  V30 3983 H 371.556 -1.77313 1.02084 0
M  V30 3984 H 371.566 -4.07542 0.193233 0
M  V30 3985 H 370.241 -3.93811 1.33738 0
M  V30 3986 H 368.818 -3.6982 -0.478307 0
M  V30 3987 N 371.003 -0.499398 -1.49478 0
M  V30 3988 C 372.228 0.044722 -2.07352 0
M  V30 3989 C 372.653 1.30207 -1.35749 0
M  V30 3990 O 372.011 1.76516 -0.413732 0
M  V30 3991 C 372.059 0.283013 -3.59488 0
M  V30 3992 O 371.163 1.35804 -3.89398 0
M  V30 3993 H 370.504 -0.0255147 -0.66351 0
M  V30 3994 H 373.034 -0.698561 -1.92305 0
M  V30 3995 H 373.044 0.515007 -4.04737 0
M  V30 3996 H 371.719 -0.635636 -4.11014 0
M  V30 3997 H 370.296 1.11113 -3.55961 0
M  V30 3998 N 372.481 1.55866 -0.233164 0
M  V30 3999 C 373.429 2.22176 0.68851 0
M  V30 4000 C 374.423 1.20487 1.19076 0
M  V30 4001 O 375.629 1.38536 1.14925 0
M  V30 4002 H 372.004 0.712511 0.240483 0
M  V30 4003 H 373.975 2.98212 0.105935 0
M  V30 4004 C 372.724 2.92446 1.88071 0
M  V30 4005 H 372.047 3.70458 1.50337 0
M  V30 4006 H 373.487 3.42226 2.50314 0
M  V30 4007 C 371.946 1.95555 2.74335 0
M  V30 4008 O 372.476 1.47986 3.73447 0
M  V30 4009 N 370.682 1.62953 2.40613 0
M  V30 4010 H 370.229 2.01831 1.60069 0
M  V30 4011 H 370.187 0.983886 2.98609 0
M  V30 4012 N 373.959 -0.0401083 1.57549 0
M  V30 4013 C 375.206 -0.733125 1.88763 0
M  V30 4014 C 375.534 -1.75946 0.829058 0
M  V30 4015 O 374.789 -1.94949 -0.171323 0
M  V30 4016 C 375.088 -1.44902 3.26708 0
M  V30 4017 C 374.754 -0.559707 4.47413 0
M  V30 4018 C 373.416 -0.314731 4.8017 0
M  V30 4019 C 375.768 0.0549743 5.21171 0
M  V30 4020 C 373.096 0.553886 5.8408 0
M  V30 4021 C 375.448 0.911229 6.26003 0
M  V30 4022 C 374.112 1.16577 6.57241 0
M  V30 4023 H 373.382 -0.268269 0.690733 0
M  V30 4024 H 376.029 0.00679408 1.91499 0
M  V30 4025 H 374.334 -2.26197 3.1991 0
M  V30 4026 H 376.031 -1.99058 3.48105 0
M  V30 4027 H 372.621 -0.760793 4.21794 0
M  V30 4028 H 376.805 -0.121344 4.96152 0
M  V30 4029 H 372.061 0.759518 6.06664 0
M  V30 4030 H 376.235 1.3941 6.82303 0
M  V30 4031 H 373.862 1.84058 7.37582 0
M  V30 4032 N 375.437 -1.54477 -0.31217 0
M  V30 4033 C 376.37 -1.79519 -1.40884 0
M  V30 4034 C 377.348 -0.645753 -1.49227 0
M  V30 4035 O 378.532 -0.884468 -1.66461 0
M  V30 4036 C 375.659 -1.92194 -2.78889 0
M  V30 4037 C 374.705 -3.14555 -2.88023 0
M  V30 4038 S 375.538 -4.72893 -2.51262 0
M  V30 4039 C 376.694 -4.8849 -3.91317 0
M  V30 4040 H 376.927 -2.72256 -1.19432 0
M  V30 4041 H 374.46 -1.45746 -0.509654 0
M  V30 4042 H 376.418 -2.00182 -3.58382 0
M  V30 4043 H 375.079 -1.00414 -2.97617 0
M  V30 4044 H 374.272 -3.20193 -3.89221 0
M  V30 4045 H 373.874 -3.04955 -2.16514 0
M  V30 4046 H 376.166 -4.71826 -4.86196 0
M  V30 4047 H 377.109 -5.90588 -3.90656 0
M  V30 4048 H 377.517 -4.16715 -3.80801 0
M  V30 4049 N 376.915 0.57481 -1.46744 0
M  V30 4050 C 377.845 1.69337 -1.60771 0
M  V30 4051 C 378.826 1.63825 -0.457736 0
M  V30 4052 O 380.011 1.8172 -0.684947 0
M  V30 4053 C 377.141 3.0798 -1.60517 0
M  V30 4054 C 376.095 3.28327 -2.74564 0
M  V30 4055 C 375.421 4.67578 -2.59373 0
M  V30 4056 C 376.721 3.15398 -4.16319 0
M  V30 4057 H 378.415 1.57853 -2.54407 0
M  V30 4058 H 375.961 0.75799 -1.22436 0
M  V30 4059 H 377.914 3.86061 -1.68923 0
M  V30 4060 H 376.638 3.20381 -0.634305 0
M  V30 4061 H 375.297 2.52649 -2.65639 0
M  V30 4062 H 374.945 4.76755 -1.60353 0
M  V30 4063 H 374.645 4.82144 -3.35873 0
M  V30 4064 H 376.169 5.47817 -2.69682 0
M  V30 4065 H 377.583 3.83315 -4.26313 0
M  V30 4066 H 375.98 3.41482 -4.93468 0
M  V30 4067 H 377.05 2.12372 -4.3592 0
M  V30 4068 N 378.394 1.34581 0.820102 0
M  V30 4069 C 379.64 1.28294 1.57836 0
M  V30 4070 C 379.995 -0.145099 1.91852 0
M  V30 4071 O 379.288 -1.09209 1.57429 0
M  V30 4072 C 379.482 2.10997 2.8847 0
M  V30 4073 C 379.311 3.61698 2.67216 0
M  V30 4074 C 378.081 4.3097 2.63805 0
M  V30 4075 C 380.279 4.55638 2.38534 0
M  V30 4076 N 378.261 5.67502 2.34126 0
M  V30 4077 C 379.632 5.80194 2.18574 0
M  V30 4078 C 381.687 4.44523 2.24285 0
M  V30 4079 C 380.39 6.94886 1.8581 0
M  V30 4080 C 382.416 5.5905 1.92916 0
M  V30 4081 C 381.778 6.82627 1.73782 0
M  V30 4082 H 377.877 0.524697 0.579842 0
M  V30 4083 H 380.461 1.69323 0.961139 0
M  V30 4084 H 378.632 1.7226 3.48111 0
M  V30 4085 H 380.364 1.96333 3.53886 0
M  V30 4086 H 377.119 3.83438 2.77978 0
M  V30 4087 H 377.543 6.39525 2.22118 0
M  V30 4088 H 382.185 3.49599 2.37782 0
M  V30 4089 H 379.903 7.89789 1.7105 0
M  V30 4090 H 383.489 5.52396 1.82619 0
M  V30 4091 H 382.369 7.69748 1.49861 0
M  V30 4092 N 379.872 -1.04064 1.18357 0
M  V30 4093 C 380.804 -2.12114 0.868358 0
M  V30 4094 C 381.817 -1.62247 -0.134045 0
M  V30 4095 O 383.006 -1.78253 0.0937933 0
M  V30 4096 C 380.106 -3.37773 0.276132 0
M  V30 4097 C 379.279 -4.16874 1.3242 0
M  V30 4098 C 378.338 -5.20861 0.747662 0
M  V30 4099 O 377.364 -5.51141 1.42239 0
M  V30 4100 N 378.566 -5.78715 -0.454823 0
M  V30 4101 H 381.331 -2.39748 1.79836 0
M  V30 4102 H 378.892 -1.20258 1.08396 0
M  V30 4103 H 380.884 -4.04513 -0.123133 0
M  V30 4104 H 379.454 -3.07581 -0.557895 0
M  V30 4105 H 378.674 -3.45456 1.89878 0
M  V30 4106 H 379.962 -4.66516 2.03078 0
M  V30 4107 H 379.36 -5.56415 -1.02073 0
M  V30 4108 H 377.917 -6.46921 -0.79601 0
M  V30 4109 N 381.35 -0.985608 -1.22978 0
M  V30 4110 C 382.313 -0.535071 -2.22867 0
M  V30 4111 C 383.313 0.378123 -1.56291 0
M  V30 4112 O 384.503 0.171092 -1.73358 0
M  V30 4113 C 381.635 0.222702 -3.40172 0
M  V30 4114 H 382.828 -1.41835 -2.6424 0
M  V30 4115 H 380.381 -0.772042 -1.35901 0
M  V30 4116 H 381.116 1.12229 -3.04262 0
M  V30 4117 H 380.901 -0.43288 -3.89703 0
M  V30 4118 H 382.391 0.526335 -4.1427 0
M  V30 4119 N 382.828 1.3818 -0.7579 0
M  V30 4120 C 383.791 2.28764 -0.141286 0
M  V30 4121 C 384.791 1.47388 0.642907 0
M  V30 4122 O 385.981 1.67781 0.468536 0
M  V30 4123 C 383.113 3.31184 0.808069 0
M  V30 4124 H 384.306 2.848 -0.939633 0
M  V30 4125 H 381.859 1.47212 -0.525191 0
M  V30 4126 H 382.594 2.80247 1.63193 0
M  V30 4127 H 382.379 3.91314 0.248104 0
M  V30 4128 H 383.869 3.98909 1.23536 0
M  V30 4129 N 384.306 0.507319 1.49211 0
M  V30 4130 C 385.536 -0.0315292 2.06576 0
M  V30 4131 C 385.944 -1.30791 1.36713 0
M  V30 4132 O 385.287 -1.78324 0.441181 0
M  V30 4133 C 385.349 -0.349104 3.57801 0
M  V30 4134 C 385.013 0.830475 4.49391 0
M  V30 4135 C 386.01 1.72271 4.90529 0
M  V30 4136 C 383.695 1.03107 4.91604 0
M  V30 4137 C 385.689 2.79964 5.72625 0
M  V30 4138 C 383.376 2.11116 5.73475 0
M  V30 4139 C 384.374 2.99379 6.1389 0
M  V30 4140 O 384.062 4.05523 6.94123 0
M  V30 4141 H 383.794 0.0201002 0.675701 0
M  V30 4142 H 386.348 0.705737 1.92895 0
M  V30 4143 H 384.578 -1.14005 3.69513 0
M  V30 4144 H 386.267 -0.827319 3.97379 0
M  V30 4145 H 387.033 1.57958 4.58557 0
M  V30 4146 H 382.912 0.353417 4.59643 0
M  V30 4147 H 386.456 3.48884 6.04091 0
M  V30 4148 H 382.353 2.25421 6.0486 0
M  V30 4149 H 383.121 4.02953 7.1244 0
M  V30 4150 N 385.784 -1.5574 0.241426 0
M  V30 4151 C 386.747 -2.19877 -0.647063 0
M  V30 4152 C 387.747 -1.16642 -1.10686 0
M  V30 4153 O 388.937 -1.41757 -1.01245 0
M  V30 4154 C 386.069 -2.83797 -1.88871 0
M  V30 4155 H 387.262 -2.99772 -0.087574 0
M  V30 4156 H 384.815 -1.56298 -0.00813574 0
M  V30 4157 H 385.55 -2.07824 -2.48957 0
M  V30 4158 H 385.335 -3.59414 -1.56728 0
M  V30 4159 H 386.825 -3.32898 -2.52129 0
M  V30 4160 N 387.262 0.0317525 -1.57568 0
M  V30 4161 C 388.172 1.05021 -2.0978 0
M  V30 4162 C 389.188 1.39809 -1.03583 0
M  V30 4163 O 390.364 1.49182 -1.35302 0
M  V30 4164 C 387.429 2.33301 -2.56459 0
M  V30 4165 C 386.49 2.0512 -3.77127 0
M  V30 4166 C 385.723 3.27283 -4.2157 0
M  V30 4167 O 385.946 4.37861 -3.65559 0
M  V30 4168 O 384.88 3.13141 -5.14029 0
M  V30 4169 H 388.706 0.636505 -2.96955 0
M  V30 4170 H 386.291 0.248559 -1.47318 0
M  V30 4171 H 388.173 3.08722 -2.86825 0
M  V30 4172 H 386.848 2.73973 -1.72397 0
M  V30 4173 H 385.755 1.27276 -3.51784 0
M  V30 4174 H 387.088 1.69305 -4.62165 0
M  V30 4175 N 388.74 1.54641 0.303973 0
M  V30 4176 C 389.97 1.77511 1.05705 0
M  V30 4177 C 390.378 0.533228 1.81531 0
M  V30 4178 O 389.721 -0.506423 1.76582 0
M  V30 4179 C 389.783 2.92779 2.08617 0
M  V30 4180 C 389.447 4.30977 1.52013 0
M  V30 4181 C 390.444 5.11115 0.9517 0
M  V30 4182 C 388.129 4.77571 1.55665 0
M  V30 4183 C 390.123 6.35966 0.427327 0
M  V30 4184 C 387.81 6.02384 1.02841 0
M  V30 4185 C 388.808 6.81417 0.464713 0
M  V30 4186 O 388.496 8.03881 -0.0555283 0
M  V30 4187 H 388.228 0.59579 0.319391 0
M  V30 4188 H 390.782 2.02401 0.349712 0
M  V30 4189 H 389.012 2.63506 2.83022 0
M  V30 4190 H 390.701 3.03252 2.69802 0
M  V30 4191 H 391.467 4.76264 0.916407 0
M  V30 4192 H 387.346 4.16085 1.9848 0
M  V30 4193 H 390.89 6.97599 -0.0133062 0
M  V30 4194 H 386.787 6.36723 1.06084 0
M  V30 4195 H 387.555 8.18479 0.0580522 0
M  V30 4196 N 390.218 -0.567019 1.47046 0
M  V30 4197 C 391.467 -1.32091 1.5243 0
M  V30 4198 C 391.78 -1.94704 0.187021 0
M  V30 4199 O 392.986 -2.7124 0.118771 0
M  V30 4200 C 391.442 -2.39479 2.68659 0
M  V30 4201 C 391.05 -1.831 4.08874 0
M  V30 4202 C 392.794 -3.16111 2.83327 0
M  V30 4203 C 390.701 -2.8821 5.16419 0
M  V30 4204 H 389.631 -0.496629 0.56734 0
M  V30 4205 H 392.282 -0.603354 1.73297 0
M  V30 4206 H 390.664 -3.14105 2.41152 0
M  V30 4207 H 391.838 -1.14913 4.46242 0
M  V30 4208 H 390.153 -1.19085 3.99008 0
M  V30 4209 H 392.75 -3.94585 3.60842 0
M  V30 4210 H 393.093 -3.69686 1.91411 0
M  V30 4211 H 393.626 -2.48595 3.10556 0
M  V30 4212 H 390.365 -2.39504 6.10179 0
M  V30 4213 H 389.885 -3.54839 4.8358 0
M  V30 4214 H 391.564 -3.51881 5.42945 0
M  V30 4215 N 391.696 -1.35014 -0.812953 0
M  V30 4216 C 392.943 -1.27931 -1.56971 0
M  V30 4217 C 393.271 0.148034 -1.93936 0
M  V30 4218 O 392.526 1.11175 -1.61054 0
M  V30 4219 C 392.825 -2.12524 -2.87347 0
M  V30 4220 C 392.491 -3.61401 -2.6963 0
M  V30 4221 C 391.153 -4.01983 -2.64506 0
M  V30 4222 C 393.505 -4.55894 -2.52607 0
M  V30 4223 C 390.833 -5.35235 -2.40293 0
M  V30 4224 C 393.185 -5.89336 -2.29925 0
M  V30 4225 C 391.849 -6.2907 -2.23219 0
M  V30 4226 H 391.119 -0.468131 -0.574399 0
M  V30 4227 H 393.766 -1.66851 -0.939836 0
M  V30 4228 H 392.071 -1.66463 -3.54679 0
M  V30 4229 H 393.768 -2.04383 -3.45005 0
M  V30 4230 H 390.358 -3.29193 -2.74463 0
M  V30 4231 H 394.542 -4.25431 -2.55583 0
M  V30 4232 H 389.798 -5.65028 -2.33566 0
M  V30 4233 H 393.972 -6.62139 -2.15743 0
M  V30 4234 H 391.599 -7.32256 -2.04219 0
M  V30 4235 N 393.175 1.03435 -1.18907 0
M  V30 4236 C 394.107 2.1165 -0.879595 0
M  V30 4237 C 395.12 1.62316 0.125439 0
M  V30 4238 O 396.309 1.78201 -0.103245 0
M  V30 4239 C 393.409 3.37622 -0.294042 0
M  V30 4240 C 392.582 4.16166 -1.34629 0
M  V30 4241 C 391.641 5.20457 -0.775274 0
M  V30 4242 O 390.667 5.50379 -1.4516 0
M  V30 4243 N 391.869 5.78949 0.424126 0
M  V30 4244 H 394.634 2.38791 -1.81105 0
M  V30 4245 H 392.195 1.19681 -1.09032 0
M  V30 4246 H 394.187 4.04572 0.101679 0
M  V30 4247 H 392.757 3.07873 0.541575 0
M  V30 4248 H 391.977 3.44444 -1.91707 0
M  V30 4249 H 393.265 4.65432 -2.05549 0
M  V30 4250 H 392.663 5.56948 0.991209 0
M  V30 4251 H 391.22 6.47334 0.761691 0
M  V30 4252 N 394.653 0.992116 1.22453 0
M  V30 4253 C 395.93 0.583508 1.86694 0
M  V30 4254 C 396.31 -0.9392 1.89056 0
M  V30 4255 O 395.658 -1.82081 1.38053 0
M  V30 4256 C 395.868 1.20304 3.2761 0
M  V30 4257 C 397.216 1.30308 4.0411 0
M  V30 4258 O 398.24 1.15737 3.36873 0
M  V30 4259 O 397.099 1.53615 5.24466 0
M  V30 4260 H 394.193 0.198129 0.802916 0
M  V30 4261 H 396.739 1.08794 1.30238 0
M  V30 4262 H 395.511 2.24461 3.2052 0
M  V30 4263 H 395.134 0.684144 3.9167 0
M  V30 4264 N 396.131 -1.37776 0.765217 0
M  V30 4265 C 397.078 -2.30342 0.145274 0
M  V30 4266 C 398.048 -1.5077 -0.696971 0
M  V30 4267 O 399.233 -1.79362 -0.650689 0
M  V30 4268 C 396.373 -3.37227 -0.732939 0
M  V30 4269 C 395.486 -4.31819 0.125199 0
M  V30 4270 C 394.621 -5.25777 -0.757107 0
M  V30 4271 C 393.66 -6.12012 0.103963 0
M  V30 4272 N 392.797 -6.98232 -0.735953 0
M  V30 4273 H 397.637 -2.8278 0.940195 0
M  V30 4274 H 395.174 -1.39211 0.475255 0
M  V30 4275 H 397.132 -3.97818 -1.25686 0
M  V30 4276 H 395.762 -2.86171 -1.49353 0
M  V30 4277 H 394.814 -3.7259 0.766865 0
M  V30 4278 H 396.126 -4.92509 0.789683 0
M  V30 4279 H 395.28 -5.91541 -1.34776 0
M  V30 4280 H 394.019 -4.65481 -1.45529 0
M  V30 4281 H 393.024 -5.45233 0.707197 0
M  V30 4282 H 394.249 -6.74379 0.799381 0
M  V30 4283 H 392.195 -6.40472 -1.41887 0
M  V30 4284 H 392.112 -7.55891 -0.128624 0
M  V30 4285 H 393.38 -7.68393 -1.31121 0
M  V30 4286 N 397.609 -0.515225 -1.4894 0
M  V30 4287 C 398.539 0.244628 -2.32215 0
M  V30 4288 C 399.52 0.949136 -1.41157 0
M  V30 4289 O 400.705 0.937783 -1.70057 0
M  V30 4290 C 397.835 1.30096 -3.22013 0
M  V30 4291 C 396.789 0.715486 -4.21977 0
M  V30 4292 C 396.115 1.87339 -5.00808 0
M  V30 4293 C 397.415 -0.302982 -5.2142 0
M  V30 4294 H 399.109 -0.450501 -2.95991 0
M  V30 4295 H 396.655 -0.218098 -1.42339 0
M  V30 4296 H 398.608 1.84037 -3.79089 0
M  V30 4297 H 397.332 2.02547 -2.56207 0
M  V30 4298 H 395.991 0.197715 -3.66066 0
M  V30 4299 H 395.639 2.58592 -4.31438 0
M  V30 4300 H 395.339 1.48764 -5.68457 0
M  V30 4301 H 396.863 2.41686 -5.60732 0
M  V30 4302 H 398.277 0.148802 -5.73107 0
M  V30 4303 H 396.674 -0.60532 -5.97039 0
M  V30 4304 H 397.744 -1.21395 -4.69459 0
M  V30 4305 N 399.087 1.5561 -0.249682 0
M  V30 4306 C 400.333 2.00044 0.367952 0
M  V30 4307 C 400.688 1.1349 1.55363 0
M  V30 4308 O 399.981 0.191079 1.90645 0
M  V30 4309 C 400.175 3.4775 0.824887 0
M  V30 4310 C 400.004 4.48596 -0.314973 0
M  V30 4311 C 398.774 4.99077 -0.790555 0
M  V30 4312 C 400.972 5.0144 -1.14291 0
M  V30 4313 N 398.954 5.83675 -1.90254 0
M  V30 4314 C 400.325 5.83236 -2.10322 0
M  V30 4315 C 402.38 4.83736 -1.17916 0
M  V30 4316 C 401.083 6.49217 -3.09692 0
M  V30 4317 C 403.109 5.50497 -2.16117 0
M  V30 4318 C 402.471 6.32084 -3.10884 0
M  V30 4319 H 398.57 0.775512 0.100522 0
M  V30 4320 H 401.154 1.91193 -0.367896 0
M  V30 4321 H 399.325 3.56994 1.53002 0
M  V30 4322 H 401.057 3.79056 1.4177 0
M  V30 4323 H 397.812 4.72119 -0.374218 0
M  V30 4324 H 398.236 6.30671 -2.46137 0
M  V30 4325 H 402.878 4.20286 -0.460352 0
M  V30 4326 H 400.596 7.11832 -3.8252 0
M  V30 4327 H 404.182 5.38752 -2.19631 0
M  V30 4328 H 403.062 6.82832 -3.8563 0
M  V30 4329 N 400.565 -0.0233959 1.57583 0
M  V30 4330 C 401.976 -0.56927 1.77809 0
M  V30 4331 C 402.327 -1.75284 0.881472 0
M  V30 4332 O 401.452 -2.1626 0.0777805 0
M  V30 4333 C 402.047 -1.03949 3.22459 0
M  V30 4334 C 400.606 -1.53084 3.43864 0
M  V30 4335 C 399.753 -0.471454 2.73263 0
M  V30 4336 H 402.704 0.202825 1.57399 0
M  V30 4337 H 402.725 -1.90661 3.29285 0
M  V30 4338 H 402.237 -0.177865 3.87692 0
M  V30 4339 H 400.338 -2.41414 2.83814 0
M  V30 4340 H 400.451 -1.57443 4.52491 0
M  V30 4341 H 398.815 -0.927788 2.37201 0
M  V30 4342 H 399.598 0.380808 3.41181 0
M  V30 4343 N 402.043 -1.548 -0.295768 0
M  V30 4344 C 403.32 -1.65014 -1.05023 0
M  V30 4345 C 403.7 -0.501805 -2.05049 0
M  V30 4346 O 403.048 0.500869 -2.22943 0
M  V30 4347 C 403.258 -3.03252 -1.72741 0
M  V30 4348 C 404.606 -3.60242 -2.24746 0
M  V30 4349 O 405.63 -3.05737 -1.82765 0
M  V30 4350 O 404.489 -4.55687 -3.01681 0
M  V30 4351 H 401.583 -0.669314 -0.485744 0
M  V30 4352 H 404.129 -1.67144 -0.293438 0
M  V30 4353 H 402.901 -3.7827 -1.00138 0
M  V30 4354 H 402.524 -3.04922 -2.55163 0
M  V30 4355 N 403.521 0.559213 -1.47345 0
M  V30 4356 C 404.751 1.33999 -1.57251 0
M  V30 4357 C 405.159 1.87905 -0.220978 0
M  V30 4358 O 404.502 1.65577 0.795617 0
M  V30 4359 C 404.564 2.54798 -2.53611 0
M  V30 4360 C 404.228 2.22192 -3.99349 0
M  V30 4361 C 405.225 1.79607 -4.87891 0
M  V30 4362 C 402.91 2.33613 -4.44669 0
M  V30 4363 C 404.904 1.48868 -6.19772 0
M  V30 4364 C 402.591 2.02487 -5.76578 0
M  V30 4365 C 403.589 1.60183 -6.63951 0
M  V30 4366 O 403.277 1.29451 -7.93409 0
M  V30 4367 H 403.009 0.414858 -0.533731 0
M  V30 4368 H 405.563 0.684465 -1.9366 0
M  V30 4369 H 403.793 3.23235 -2.12265 0
M  V30 4370 H 405.482 3.16873 -2.53666 0
M  V30 4371 H 406.248 1.70278 -4.54126 0
M  V30 4372 H 402.127 2.65501 -3.76869 0
M  V30 4373 H 405.671 1.15775 -6.87926 0
M  V30 4374 H 401.568 2.11448 -6.09885 0
M  V30 4375 H 402.336 1.43098 -8.05894 0
M  V30 4376 N 404.999 1.35443 0.805782 0
M  V30 4377 C 406.276 1.19325 1.54987 0
M  V30 4378 C 406.656 -0.227294 2.09873 0
M  V30 4379 O 406.004 -1.2309 1.92512 0
M  V30 4380 C 406.214 2.26196 2.65775 0
M  V30 4381 C 407.562 2.62043 3.34094 0
M  V30 4382 O 408.586 2.25115 2.76046 0
M  V30 4383 O 407.445 3.25542 4.38958 0
M  V30 4384 H 404.539 0.463623 0.684823 0
M  V30 4385 H 407.085 1.47127 0.845674 0
M  V30 4386 H 405.857 3.21471 2.23096 0
M  V30 4387 H 405.48 1.99667 3.43829 0
M  V30 4388 N 406.477 -1.02803 1.19454 0
M  V30 4389 C 407.893 -1.28473 0.946937 0
M  V30 4390 C 408.093 -1.97881 -0.380202 0
M  V30 4391 O 407.149 -2.26719 -1.11151 0
M  V30 4392 C 408.462 -2.13099 2.12154 0
M  V30 4393 C 410.01 -2.26404 2.16126 0
M  V30 4394 C 410.485 -3.14402 3.33039 0
M  V30 4395 N 411.976 -3.21991 3.32981 0
M  V30 4396 C 412.711 -3.90272 4.20089 0
M  V30 4397 N 412.207 -4.60777 5.17355 0
M  V30 4398 N 414 -3.8668 4.07964 0
M  V30 4399 H 406.151 -0.561665 2.04839 0
M  V30 4400 H 408.414 -0.310438 0.89573 0
M  V30 4401 H 408.12 -1.69422 3.08203 0
M  V30 4402 H 407.994 -3.13813 2.09287 0
M  V30 4403 H 410.381 -2.69311 1.20647 0
M  V30 4404 H 410.462 -1.25237 2.23045 0
M  V30 4405 H 410.106 -2.72204 4.28798 0
M  V30 4406 H 410.036 -4.1563 3.23356 0
M  V30 4407 H 412.527 -2.71778 2.62574 0
M  V30 4408 H 412.84 -5.10513 5.80169 0
M  V30 4409 H 411.185 -4.5964 5.21302 0
M  V30 4410 H 414.376 -3.30739 3.31254 0
M  V30 4411 H 414.549 -4.39621 4.76064 0
M  V30 4412 N 407.956 -0.998596 -1.21925 0
M  V30 4413 C 409.372 -0.710303 -1.42923 0
M  V30 4414 C 409.572 0.716933 -1.88314 0
M  V30 4415 O 408.628 1.48712 -2.04062 0
M  V30 4416 C 409.941 -1.72072 -2.466 0
M  V30 4417 C 411.489 -1.73681 -2.60392 0
M  V30 4418 C 411.964 -2.73601 -3.67296 0
M  V30 4419 N 413.455 -2.7223 -3.7476 0
M  V30 4420 C 414.19 -3.46206 -4.57087 0
M  V30 4421 N 413.686 -4.29802 -5.43362 0
M  V30 4422 N 415.479 -3.34886 -4.51451 0
M  V30 4423 H 407.63 -1.92028 -0.9077 0
M  V30 4424 H 409.893 -0.828487 -0.460775 0
M  V30 4425 H 409.599 -2.74231 -2.20206 0
M  V30 4426 H 409.473 -1.51818 -3.45299 0
M  V30 4427 H 411.86 -0.722173 -2.86127 0
M  V30 4428 H 411.941 -1.98005 -1.61949 0
M  V30 4429 H 411.585 -3.75217 -3.42307 0
M  V30 4430 H 411.515 -2.46545 -4.65321 0
M  V30 4431 H 414.006 -2.11576 -3.1312 0
M  V30 4432 H 414.319 -4.83061 -6.03218 0
M  V30 4433 H 412.664 -4.33887 -5.42925 0
M  V30 4434 H 415.855 -2.69015 -3.83078 0
M  V30 4435 H 416.028 -3.92796 -5.15379 0
M  V30 4436 N 409.434 1.37368 -0.772513 0
M  V30 4437 C 410.711 1.93839 -0.26188 0
M  V30 4438 C 411.091 1.7061 1.24319 0
M  V30 4439 O 410.439 1.05534 2.02669 0
M  V30 4440 C 410.649 3.43154 -0.636102 0
M  V30 4441 C 411.997 4.20249 -0.606324 0
M  V30 4442 O 413.021 3.5152 -0.575538 0
M  V30 4443 O 411.88 5.42809 -0.634086 0
M  V30 4444 H 408.974 0.82478 -0.0605555 0
M  V30 4445 H 411.52 1.4665 -0.853917 0
M  V30 4446 H 410.292 3.53647 -1.6748 0
M  V30 4447 H 409.915 3.97596 -0.0170516 0
M  V30 4448 N 410.912 0.523116 1.48665 0
M  V30 4449 C 411.842 -0.23231 2.32342 0
M  V30 4450 C 412.823 -0.941637 1.41659 0
M  V30 4451 O 414.008 -0.928751 1.70552 0
M  V30 4452 C 411.138 -1.28387 3.22698 0
M  V30 4453 C 410.092 -0.693098 4.22351 0
M  V30 4454 C 409.418 -1.8468 5.01794 0
M  V30 4455 C 410.718 0.33063 5.21252 0
M  V30 4456 H 412.412 0.466192 2.95748 0
M  V30 4457 H 409.958 0.225643 1.42221 0
M  V30 4458 H 411.911 -1.82024 3.80059 0
M  V30 4459 H 410.635 -2.01186 2.57278 0
M  V30 4460 H 409.294 -0.178299 3.66166 0
M  V30 4461 H 408.942 -2.56301 4.32804 0
M  V30 4462 H 408.642 -1.45747 5.69238 0
M  V30 4463 H 410.166 -2.38709 5.62006 0
M  V30 4464 H 411.58 -0.118407 5.73178 0
M  V30 4465 H 409.977 0.636974 5.9671 0
M  V30 4466 H 411.047 1.23883 4.68808 0
M  V30 4467 N 412.39 -1.55475 0.257931 0
M  V30 4468 C 413.636 -2.00237 -0.357338 0
M  V30 4469 C 413.991 -1.14313 -1.54759 0
M  V30 4470 O 413.284 -0.201187 -1.90541 0
M  V30 4471 C 413.478 -3.48183 -0.806433 0
M  V30 4472 C 413.307 -4.48422 0.338758 0
M  V30 4473 C 412.077 -4.98651 0.817011 0
M  V30 4474 C 414.275 -5.00827 1.16949 0
M  V30 4475 N 412.257 -5.82658 1.93346 0
M  V30 4476 C 413.628 -5.82113 2.13413 0
M  V30 4477 C 415.683 -4.83104 1.2048 0
M  V30 4478 C 414.386 -6.47566 3.13131 0
M  V30 4479 C 416.412 -5.49343 2.19034 0
M  V30 4480 C 415.774 -6.30427 3.14232 0
M  V30 4481 H 411.873 -0.776034 -0.0964083 0
M  V30 4482 H 414.457 -1.90995 0.37803 0
M  V30 4483 H 412.628 -3.57801 -1.51107 0
M  V30 4484 H 414.36 -3.79802 -1.39758 0
M  V30 4485 H 411.115 -4.71914 0.39925 0
M  V30 4486 H 411.539 -6.29356 2.49478 0
M  V30 4487 H 416.181 -4.20036 0.482634 0
M  V30 4488 H 413.899 -7.09793 3.8629 0
M  V30 4489 H 417.485 -5.37579 2.22485 0
M  V30 4490 H 416.365 -6.80777 3.89246 0
M  V30 4491 N 413.868 0.0150385 -1.57593 0
M  V30 4492 C 414.831 0.995996 -2.06428 0
M  V30 4493 C 415.831 1.2818 -0.970903 0
M  V30 4494 O 417.021 1.22949 -1.23406 0
M  V30 4495 C 414.153 2.32506 -2.49307 0
M  V30 4496 H 415.346 0.573873 -2.94358 0
M  V30 4497 H 412.899 0.262186 -1.54085 0
M  V30 4498 H 413.634 2.79438 -1.64575 0
M  V30 4499 H 413.419 2.13087 -3.29145 0
M  V30 4500 H 414.909 3.02906 -2.87468 0
M  V30 4501 N 415.346 1.54954 0.287554 0
M  V30 4502 C 416.309 1.86076 1.33823 0
M  V30 4503 C 417.309 0.734414 1.43049 0
M  V30 4504 O 418.499 1.00266 1.42452 0
M  V30 4505 C 415.631 2.05305 2.72144 0
M  V30 4506 H 416.824 2.79984 1.07465 0
M  V30 4507 H 414.377 1.47223 0.524902 0
M  V30 4508 H 415.112 1.1373 3.03704 0
M  V30 4509 H 414.897 2.873 2.66836 0
M  V30 4510 H 416.387 2.30706 3.48087 0
M  V30 4511 N 416.824 -0.551391 1.4764 0
M  V30 4512 C 418.064 -1.31901 1.56145 0
M  V30 4513 C 418.428 -1.90724 0.221013 0
M  V30 4514 O 419.629 -2.6819 0.180945 0
M  V30 4515 C 417.9 -2.39517 2.65267 0
M  V30 4516 S 419.459 -3.26289 2.93395 0
M  V30 4517 H 416.277 -0.448965 0.551318 0
M  V30 4518 H 418.879 -0.630599 1.85051 0
M  V30 4519 H 417.583 -1.94747 3.6125 0
M  V30 4520 H 417.114 -3.13092 2.38195 0
M  V30 4521 H 419.129 -4.39122 2.31055 0
M  V30 4522 N 418.302 -1.35869 -0.798587 0
M  V30 4523 C 419.212 -1.31578 -1.94228 0
M  V30 4524 C 420.228 -0.21939 -1.72611 0
M  V30 4525 O 421.404 -0.450167 -1.96305 0
M  V30 4526 C 418.469 -1.09528 -3.28944 0
M  V30 4527 C 417.53 -2.28556 -3.63402 0
M  V30 4528 C 416.763 -2.07549 -4.9169 0
M  V30 4529 O 416.986 -1.046 -5.60727 0
M  V30 4530 O 415.92 -2.95106 -5.24591 0
M  V30 4531 H 419.746 -2.27847 -2.00796 0
M  V30 4532 H 417.331 -1.16322 -0.937526 0
M  V30 4533 H 419.213 -0.991127 -4.09579 0
M  V30 4534 H 417.888 -0.16315 -3.23289 0
M  V30 4535 H 416.795 -2.44538 -2.83112 0
M  V30 4536 H 418.128 -3.20244 -3.73771 0
M  V30 4537 N 419.78 1.02168 -1.19998 0
M  V30 4538 C 420.69 2.14069 -0.959774 0
M  V30 4539 C 421.706 1.73804 0.082655 0
M  V30 4540 O 422.882 2.01133 -0.103633 0
M  V30 4541 C 419.947 3.42936 -0.509459 0
M  V30 4542 C 419.008 3.97474 -1.62213 0
M  V30 4543 C 418.241 5.2019 -1.19321 0
M  V30 4544 O 418.464 5.70369 -0.0597726 0
M  V30 4545 O 417.398 5.67749 -1.99863 0
M  V30 4546 H 421.224 2.37199 -1.89658 0
M  V30 4547 H 418.809 1.12469 -0.983411 0
M  V30 4548 H 420.691 4.20551 -0.267322 0
M  V30 4549 H 419.366 3.21234 0.398821 0
M  V30 4550 H 418.273 3.21161 -1.9185 0
M  V30 4551 H 419.606 4.23555 -2.50723 0
M  V30 4552 N 421.258 1.00505 1.21394 0
M  V30 4553 C 422.488 0.705584 1.94178 0
M  V30 4554 C 422.896 -0.735846 1.74304 0
M  V30 4555 O 422.239 -1.50954 1.04683 0
M  V30 4556 C 422.301 0.94689 3.46806 0
M  V30 4557 C 421.965 2.37517 3.90429 0
M  V30 4558 C 422.962 3.35539 3.97127 0
M  V30 4559 C 420.647 2.71284 4.22742 0
M  V30 4560 C 422.641 4.65395 4.3553 0
M  V30 4561 C 420.328 4.01356 4.60822 0
M  V30 4562 C 421.326 4.98223 4.67186 0
M  V30 4563 O 421.014 6.25969 5.04399 0
M  V30 4564 H 420.746 0.259216 0.624326 0
M  V30 4565 H 423.3 1.34592 1.55159 0
M  V30 4566 H 421.53 0.249386 3.85895 0
M  V30 4567 H 423.219 0.640804 4.0081 0
M  V30 4568 H 423.985 3.10786 3.7234 0
M  V30 4569 H 419.864 1.96581 4.16985 0
M  V30 4570 H 423.408 5.41002 4.40412 0
M  V30 4571 H 419.305 4.25893 4.85063 0
M  V30 4572 H 420.073 6.30085 5.22431 0
M  V30 4573 N 422.737 -1.36956 0.779787 0
M  V30 4574 C 423.7 -2.2851 0.177662 0
M  V30 4575 C 424.7 -1.48393 -0.619377 0
M  V30 4576 O 425.89 -1.68505 -0.441785 0
M  V30 4577 C 423.022 -3.32428 -0.755279 0
M  V30 4578 H 424.215 -2.83269 0.984823 0
M  V30 4579 H 421.768 -1.46358 0.548544 0
M  V30 4580 H 422.503 -2.82808 -1.58714 0
M  V30 4581 H 422.288 -3.91659 -0.185817 0
M  V30 4582 H 423.778 -4.00824 -1.17174 0
M  V30 4583 N 424.215 -0.530993 -1.48385 0
M  V30 4584 C 425.44 0.000729535 -2.074 0
M  V30 4585 C 425.865 1.27298 -1.3848 0
M  V30 4586 O 425.223 1.75599 -0.451081 0
M  V30 4587 C 425.271 0.206697 -3.60007 0
M  V30 4588 O 424.375 1.27514 -3.92191 0
M  V30 4589 H 423.716 -0.039583 -0.662819 0
M  V30 4590 H 426.246 -0.739194 -1.9078 0
M  V30 4591 H 426.256 0.42904 -4.05738 0
M  V30 4592 H 424.931 -0.722675 -4.09573 0
M  V30 4593 H 423.508 1.03537 -3.58238 0
M  V30 4594 N 425.693 1.55336 -0.266172 0
M  V30 4595 C 427.109 1.59356 0.0882065 0
M  V30 4596 C 427.309 1.2834 1.55342 0
M  V30 4597 O 426.365 1.03996 2.30089 0
M  V30 4598 C 427.678 2.99409 -0.278364 0
M  V30 4599 C 429.226 3.12196 -0.224243 0
M  V30 4600 C 429.701 4.545 -0.565123 0
M  V30 4601 N 431.192 4.60313 -0.51634 0
M  V30 4602 C 431.927 5.68434 -0.753013 0
M  V30 4603 N 431.423 6.84738 -1.05383 0
M  V30 4604 N 433.216 5.57942 -0.682414 0
M  V30 4605 H 425.367 1.73764 -1.22147 0
M  V30 4606 H 427.63 0.809822 -0.492841 0
M  V30 4607 H 427.336 3.2691 -1.29703 0
M  V30 4608 H 427.21 3.75228 0.385186 0
M  V30 4609 H 429.597 2.84464 0.78512 0
M  V30 4610 H 429.678 2.38609 -0.921922 0
M  V30 4611 H 429.322 4.82956 -1.57213 0
M  V30 4612 H 429.252 5.26374 0.154248 0
M  V30 4613 H 431.743 3.7676 -0.29335 0
M  V30 4614 H 432.056 7.63088 -1.22133 0
M  V30 4615 H 430.401 6.86375 -1.09151 0
M  V30 4616 H 433.592 4.65958 -0.44731 0
M  V30 4617 H 433.765 6.4213 -0.870248 0
M  V30 4618 N 427.171 -0.0066808 1.57599 0
M  V30 4619 C 428.399 -0.704087 1.94551 0
M  V30 4620 C 428.814 -1.67677 0.867746 0
M  V30 4621 O 428.171 -1.8185 -0.153925 0
M  V30 4622 C 428.222 -1.44177 3.31505 0
M  V30 4623 O 427.943 -0.508097 4.35144 0
M  V30 4624 C 429.444 -2.23429 3.82876 0
M  V30 4625 H 426.664 -0.196523 0.641576 0
M  V30 4626 H 429.208 0.042453 2.04456 0
M  V30 4627 H 427.363 -2.13999 3.22929 0
M  V30 4628 H 427.777 -1.02782 5.14331 0
M  V30 4629 H 429.251 -2.70552 4.8115 0
M  V30 4630 H 429.728 -3.05818 3.15233 0
M  V30 4631 H 430.334 -1.58636 3.94607 0
M  V30 4632 N 428.649 -1.55105 -0.279332 0
M  V30 4633 C 430.065 -1.46803 -0.626187 0
M  V30 4634 C 430.265 -0.676939 -1.89789 0
M  V30 4635 O 429.321 -0.19326 -2.51759 0
M  V30 4636 C 430.634 -2.90962 -0.759034 0
M  V30 4637 C 432.182 -3.01138 -0.853504 0
M  V30 4638 C 432.657 -4.46539 -1.01818 0
M  V30 4639 N 434.148 -4.50341 -1.08386 0
M  V30 4640 C 434.883 -5.60053 -1.22996 0
M  V30 4641 N 434.379 -6.79645 -1.34366 0
M  V30 4642 N 436.172 -5.47783 -1.26056 0
M  V30 4643 H 428.323 -2.04996 0.555921 0
M  V30 4644 H 430.586 -0.929325 0.187239 0
M  V30 4645 H 430.292 -3.51544 0.104852 0
M  V30 4646 H 430.166 -3.39619 -1.64131 0
M  V30 4647 H 432.553 -2.40658 -1.70786 0
M  V30 4648 H 432.634 -2.55745 0.0532466 0
M  V30 4649 H 432.278 -5.0762 -0.168504 0
M  V30 4650 H 432.208 -4.89583 -1.93948 0
M  V30 4651 H 434.699 -3.64191 -1.00864 0
M  V30 4652 H 435.012 -7.59012 -1.4533 0
M  V30 4653 H 433.357 -6.82469 -1.31382 0
M  V30 4654 H 436.548 -4.53294 -1.168 0
M  V30 4655 H 436.721 -6.33331 -1.37098 0
M  V30 4656 N 430.127 0.543554 -1.4793 0
M  V30 4657 C 431.543 0.870806 -1.3375 0
M  V30 4658 C 431.743 1.9864 -0.338261 0
M  V30 4659 O 430.799 2.51305 0.245371 0
M  V30 4660 C 432.112 1.25114 -2.73435 0
M  V30 4661 C 433.66 1.3618 -2.81823 0
M  V30 4662 C 434.135 1.77563 -4.22179 0
M  V30 4663 N 435.626 1.8469 -4.24787 0
M  V30 4664 C 436.361 2.18067 -5.30315 0
M  V30 4665 N 435.857 2.49963 -6.46135 0
M  V30 4666 N 437.65 2.18958 -5.17701 0
M  V30 4667 H 429.801 -0.19275 -2.11524 0
M  V30 4668 H 432.064 -0.0235777 -0.947707 0
M  V30 4669 H 431.77 0.50514 -3.48053 0
M  V30 4670 H 431.644 2.20431 -3.06088 0
M  V30 4671 H 434.031 2.09859 -2.07468 0
M  V30 4672 H 434.112 0.390169 -2.52807 0
M  V30 4673 H 433.756 1.04449 -4.97044 0
M  V30 4674 H 433.686 2.75753 -4.48629 0
M  V30 4675 H 436.177 1.62372 -3.41239 0
M  V30 4676 H 436.49 2.74497 -7.22406 0
M  V30 4677 H 434.835 2.47513 -6.49432 0
M  V30 4678 H 438.026 1.93488 -4.2624 0
M  V30 4679 H 438.199 2.44639 -6.00047 0
M  V30 4680 N 431.605 1.3629 0.791371 0
M  V30 4681 C 432.852 1.30412 1.54916 0
M  V30 4682 C 433.18 -0.117162 1.94147 0
M  V30 4683 O 432.435 -1.08599 1.62803 0
M  V30 4684 C 432.734 2.17068 2.8393 0
M  V30 4685 C 432.4 3.65645 2.63846 0
M  V30 4686 C 431.062 4.0614 2.58077 0
M  V30 4687 C 433.414 4.59855 2.45322 0
M  V30 4688 C 430.742 5.3899 2.31748 0
M  V30 4689 C 433.094 5.9292 2.2052 0
M  V30 4690 C 431.758 6.32542 2.13183 0
M  V30 4691 H 431.028 0.47721 0.566879 0
M  V30 4692 H 433.675 1.68325 0.913172 0
M  V30 4693 H 431.98 1.72085 3.51986 0
M  V30 4694 H 433.677 2.09846 3.4171 0
M  V30 4695 H 430.267 3.33518 2.69191 0
M  V30 4696 H 434.451 4.29443 2.48782 0
M  V30 4697 H 429.707 5.68672 2.24548 0
M  V30 4698 H 433.881 6.65487 2.05182 0
M  V30 4699 H 431.508 7.35412 1.92544 0
M  V30 4700 N 433.083 -1.0153 1.20538 0
M  V30 4701 C 434.331 -1.74803 1.01432 0
M  V30 4702 C 434.652 -1.8963 -0.454456 0
M  V30 4703 O 433.922 -1.43975 -1.32846 0
M  V30 4704 H 432.502 -0.647598 0.372324 0
M  V30 4705 H 435.164 -1.22402 1.5167 0
M  V30 4706 H 434.26 -2.75114 1.47373 0
M  V30 4707 N 434.561 -1.01147 -1.20859 0
M  V30 4708 C 435.786 -0.716698 -1.94623 0
M  V30 4709 C 436.211 0.715415 -1.73964 0
M  V30 4710 O 435.569 1.49157 -1.03062 0
M  V30 4711 C 435.617 -1.0513 -3.44935 0
M  V30 4712 O 434.721 -0.160131 -4.12089 0
M  V30 4713 H 434.062 -0.266404 -0.608214 0
M  V30 4714 H 436.592 -1.35346 -1.53436 0
M  V30 4715 H 436.602 -1.00086 -3.95533 0
M  V30 4716 H 435.277 -2.09475 -3.59295 0
M  V30 4717 H 433.854 -0.267657 -3.71938 0
M  V30 4718 N 436.039 1.36541 -0.78704 0
M  V30 4719 C 437.002 2.28413 -0.189778 0
M  V30 4720 C 438.002 1.48719 0.611499 0
M  V30 4721 O 439.192 1.68737 0.432842 0
M  V30 4722 C 436.324 3.32824 0.737638 0
M  V30 4723 H 437.517 2.82743 -0.999831 0
M  V30 4724 H 435.07 1.46065 -0.556298 0
M  V30 4725 H 435.805 2.83646 1.57212 0
M  V30 4726 H 435.59 3.91752 0.165044 0
M  V30 4727 H 437.08 4.0144 1.15047 0
M  V30 4728 O 437.556 0.680126 1.4648 0
M  V30 4729 H 438.247 0.213972 1.92515 0
M  V30 END ATOM
M  V30 BEGIN BOND
M  V30 END BOND
M  V30 END CTAB
M  END
$$$$
