drugbank_target|Q9UGM1 Neuronal acetylcholine receptor subunit alpha-9 (DB00184; DB00898; DB05069; DB05137; DB05740; DB08837)
 OpenBabel12092120093D

  0  0  0     0  0            999 V3000
M  V30 BEGIN CTAB
M  V30 COUNTS 7691 7785 0 0 0
M  V30 BEGIN ATOM
M  V30 1 H -0.908 1.98254 -0.117106 0
M  V30 2 N 0 1.576 0 0
M  V30 3 C 0.933 2.03868 1.02534 0
M  V30 4 C 1.911 0.928543 1.3348 0
M  V30 5 O 3.095 1.19667 1.45644 0
M  V30 6 C 0.222 2.43627 2.35294 0
M  V30 7 C -0.732 3.65373 2.2001 0
M  V30 8 S 0.101 5.13292 1.52614 0
M  V30 9 C 1.257 5.56322 2.86805 0
M  V30 10 H 1.49 2.90518 0.631377 0
M  V30 11 H -0.977 1.52953 0.210867 0
M  V30 12 H 0.981 2.67203 3.11629 0
M  V30 13 H -0.358 1.57376 2.7183 0
M  V30 14 H -1.165 3.90944 3.18086 0
M  V30 15 H -1.563 3.418 1.51819 0
M  V30 16 H 0.729 5.58782 3.83104 0
M  V30 17 H 1.672 6.56266 2.65933 0
M  V30 18 H 2.08 4.83886 2.90714 0
M  V30 19 N 1.4781 -0.272755 1.55222 0
M  V30 20 C 2.4261 -1.35705 1.88909 0
M  V30 21 C 3.4201 -1.5112 0.765456 0
M  V30 22 O 4.6261 -1.52901 0.949802 0
M  V30 23 H 1.0011 -0.453868 0.59959 0
M  V30 24 H 2.9721 -1.04544 2.79487 0
M  V30 25 C 1.7211 -2.71049 2.17779 0
M  V30 26 H 1.0441 -2.59979 3.03728 0
M  V30 27 H 2.4841 -3.45858 2.45272 0
M  V30 28 C 0.9431 -3.22165 0.985473 0
M  V30 29 O 1.4731 -4.01096 0.220233 0
M  V30 30 N -0.3209 -2.7985 0.783108 0
M  V30 31 H -0.7739 -2.15775 1.40708 0
M  V30 32 H -0.8159 -3.14397 -0.0130392 0
M  V30 33 N 2.9562 -1.48159 -0.537278 0
M  V30 34 C 4.2022 -1.57015 -1.29297 0
M  V30 35 C 4.5572 -0.237791 -1.90925 0
M  V30 36 O 3.8502 0.758621 -1.75942 0
M  V30 37 C 4.0442 -2.63956 -2.40961 0
M  V30 38 C 3.8732 -4.07461 -1.90278 0
M  V30 39 C 2.6432 -4.74685 -1.73213 0
M  V30 40 C 4.8412 -4.93858 -1.43556 0
M  V30 41 N 2.8232 -6.02633 -1.17078 0
M  V30 42 C 4.1942 -6.11993 -0.993204 0
M  V30 43 C 6.2492 -4.80141 -1.31792 0
M  V30 44 C 4.9522 -7.17923 -0.444872 0
M  V30 45 C 6.9782 -5.86186 -0.783585 0
M  V30 46 C 6.3402 -7.03524 -0.351261 0
M  V30 47 H 2.4392 -0.629154 -0.464423 0
M  V30 48 H 5.0232 -1.85006 -0.606705 0
M  V30 49 H 3.1942 -2.378 -3.07093 0
M  V30 50 H 4.9262 -2.62539 -3.07986 0
M  V30 51 H 1.6812 -4.30902 -1.9652 0
M  V30 52 H 2.1052 -6.7085 -0.910421 0
M  V30 53 H 6.7472 -3.89772 -1.63823 0
M  V30 54 H 4.4652 -8.08022 -0.11222 0
M  V30 55 H 8.0512 -5.77624 -0.695835 0
M  V30 56 H 6.9312 -7.8418 0.055777 0
M  V30 57 N 4.4343 0.785586 -1.36625 0
M  V30 58 C 5.6593 1.57963 -1.34397 0
M  V30 59 C 6.0843 1.87964 0.071526 0
M  V30 60 O 5.4423 1.48182 1.0446 0
M  V30 61 C 5.4903 2.87511 -2.17646 0
M  V30 62 O 4.5943 3.81281 -1.57158 0
M  V30 63 H 3.9353 0.479014 -0.459828 0
M  V30 64 H 6.4653 0.973411 -1.79961 0
M  V30 65 H 6.4753 3.36745 -2.30362 0
M  V30 66 H 5.1503 2.65002 -3.20541 0
M  V30 67 H 3.7273 3.39885 -1.53403 0
M  V30 68 N 5.9124 1.20967 1.01018 0
M  V30 69 C 6.8624 0.93182 2.08089 0
M  V30 70 C 7.8464 -0.110898 1.60517 0
M  V30 71 O 9.0384 0.0973392 1.76732 0
M  V30 72 C 6.1674 0.492719 3.39746 0
M  V30 73 C 5.2534 1.56922 3.94 0
M  V30 74 N 5.6444 2.79312 4.21686 0
M  V30 75 C 3.9424 1.43688 4.2222 0
M  V30 76 C 4.6434 3.48797 4.65527 0
M  V30 77 N 3.6194 2.76224 4.68189 0
M  V30 78 H 7.4214 1.86175 2.27412 0
M  V30 79 H 4.9354 1.10463 1.19045 0
M  V30 80 H 6.9324 0.275044 4.15992 0
M  V30 81 H 5.5924 -0.430509 3.21833 0
M  V30 82 H 6.6034 3.15903 4.10397 0
M  V30 83 H 3.2804 0.578548 4.13472 0
M  V30 84 H 4.6704 4.53561 4.95714 0
M  V30 85 N 7.3905 -1.2043 1.01659 0
M  V30 86 C 8.6155 -1.94318 0.724942 0
M  V30 87 C 9.0405 -1.74266 -0.708034 0
M  V30 88 O 8.3985 -1.03694 -1.48719 0
M  V30 89 C 8.4465 -3.44486 1.06591 0
M  V30 90 O 7.5505 -4.12017 0.177599 0
M  V30 91 H 6.8915 -0.60708 0.26898 0
M  V30 92 H 9.4215 -1.52861 1.35995 0
M  V30 93 H 9.4315 -3.95106 1.01762 0
M  V30 94 H 8.1065 -3.58404 2.10997 0
M  V30 95 H 6.6835 -3.71821 0.283421 0
M  V30 96 N 8.8686 -0.792821 -1.36206 0
M  V30 97 C 10.1086 -0.372238 -2.00982 0
M  V30 98 C 10.4726 1.03749 -1.61555 0
M  V30 99 O 11.6736 1.55934 -2.18948 0
M  V30 100 C 9.9446 -0.534566 -3.5338 0
M  V30 101 S 11.5036 -0.202365 -4.38333 0
M  V30 102 H 8.3216 -0.142044 -0.696667 0
M  V30 103 H 10.9236 -1.03206 -1.66039 0
M  V30 104 H 9.6276 -1.5608 -3.79562 0
M  V30 105 H 9.1586 0.141065 -3.93147 0
M  V30 106 H 11.1736 0.994869 -4.86124 0
M  V30 107 N 10.3467 1.47872 -0.545128 0
M  V30 108 C 11.5957 2.01695 -0.0145033 0
M  V30 109 C 11.9087 1.42609 1.33873 0
M  V30 110 O 13.1147 1.88021 1.95858 0
M  V30 111 C 11.5707 3.59892 0.0245068 0
M  V30 112 C 11.1787 4.27966 -1.32475 0
M  V30 113 C 12.9227 4.21507 0.50316 0
M  V30 114 C 10.8297 5.78136 -1.2455 0
M  V30 115 H 9.7597 0.753998 -0.00165172 0
M  V30 116 H 12.4107 1.69985 -0.691175 0
M  V30 117 H 10.7927 3.88509 0.766575 0
M  V30 118 H 11.9667 4.11003 -2.08357 0
M  V30 119 H 10.2817 3.78286 -1.74036 0
M  V30 120 H 12.8787 5.31538 0.580656 0
M  V30 121 H 13.2217 3.87855 1.51243 0
M  V30 122 H 13.7547 3.97376 -0.183681 0
M  V30 123 H 10.4937 6.16388 -2.23039 0
M  V30 124 H 10.0137 5.97469 -0.528282 0
M  V30 125 H 11.6927 6.40099 -0.942488 0
M  V30 126 N 11.8248 0.280983 1.55075 0
M  V30 127 C 13.0498 -0.340154 2.04592 0
M  V30 128 C 13.4748 -1.48246 1.15779 0
M  V30 129 O 12.8328 -1.80614 0.15761 0
M  V30 130 C 12.8808 -0.793104 3.5177 0
M  V30 131 O 11.9848 -1.89981 3.66034 0
M  V30 132 H 11.3258 -0.0694289 0.66036 0
M  V30 133 H 13.8558 0.416993 2.00306 0
M  V30 134 H 13.8658 -1.08729 3.93245 0
M  V30 135 H 12.5408 0.0426163 4.15878 0
M  V30 136 H 11.1178 -1.60771 3.36463 0
M  V30 137 N 13.3029 -1.57598 0.00835791 0
M  V30 138 C 14.5499 -1.90928 -0.674732 0
M  V30 139 C 14.8779 -0.88277 -1.73313 0
M  V30 140 O 14.1329 0.111294 -1.95383 0
M  V30 141 C 14.4319 -3.3101 -1.34787 0
M  V30 142 C 14.0979 -4.48922 -0.421861 0
M  V30 143 C 12.7599 -4.8091 -0.166927 0
M  V30 144 C 15.1119 -5.20755 0.215211 0
M  V30 145 C 12.4399 -5.821 0.733232 0
M  V30 146 C 14.7919 -6.22905 1.1033 0
M  V30 147 C 13.4559 -6.53346 1.36733 0
M  V30 148 H 12.7259 -0.698656 -0.246902 0
M  V30 149 H 15.3729 -1.91387 0.0656779 0
M  V30 150 H 13.6779 -3.26714 -2.16253 0
M  V30 151 H 15.3749 -3.54061 -1.8826 0
M  V30 152 H 11.9649 -4.23934 -0.630729 0
M  V30 153 H 16.1489 -4.9629 0.0312829 0
M  V30 154 H 11.4049 -6.04042 0.945712 0
M  V30 155 H 15.5789 -6.77694 1.60325 0
M  V30 156 H 13.2059 -7.31573 2.06652 0
M  V30 157 N 14.781 0.264519 -1.55364 0
M  V30 158 C 16.021 1.00254 -1.78125 0
M  V30 159 C 16.385 1.83187 -0.575017 0
M  V30 160 O 17.586 2.60029 -0.681042 0
M  V30 161 C 15.857 1.85478 -3.05504 0
M  V30 162 S 17.416 2.6543 -3.49417 0
M  V30 163 H 14.234 0.337522 -0.625779 0
M  V30 164 H 16.836 0.272111 -1.93597 0
M  V30 165 H 15.54 1.23491 -3.9138 0
M  V30 166 H 15.071 2.62827 -2.92721 0
M  V30 167 H 17.086 3.87958 -3.09359 0
M  V30 168 N 16.2591 1.48442 0.529413 0
M  V30 169 C 17.5051 1.57699 1.28463 0
M  V30 170 C 17.8601 0.247913 1.90796 0
M  V30 171 O 17.1531 -0.749279 1.76342 0
M  V30 172 C 17.3471 2.6523 2.39558 0
M  V30 173 C 17.1761 4.08464 1.88114 0
M  V30 174 C 15.9461 4.75596 1.70693 0
M  V30 175 C 18.1441 4.94613 1.40935 0
M  V30 176 N 16.1261 6.03245 1.13881 0
M  V30 177 C 17.4971 6.12511 0.960734 0
M  V30 178 C 19.5521 4.80833 1.29243 0
M  V30 179 C 18.2551 7.18149 0.406792 0
M  V30 180 C 20.2811 5.86593 0.752487 0
M  V30 181 C 19.6431 7.037 0.313946 0
M  V30 182 H 15.7421 0.631608 0.46108 0
M  V30 183 H 18.3261 1.85325 0.596886 0
M  V30 184 H 16.4971 2.39425 3.05827 0
M  V30 185 H 18.2291 2.64169 3.06589 0
M  V30 186 H 14.9841 4.31938 1.94232 0
M  V30 187 H 15.4081 6.71324 0.874831 0
M  V30 188 H 20.0501 3.90635 1.61754 0
M  V30 189 H 17.7681 8.0807 0.0693671 0
M  V30 190 H 21.3541 5.77985 0.665192 0
M  V30 191 H 20.2341 7.8414 -0.0973632 0
M  V30 192 N 17.7372 -0.778329 1.37039 0
M  V30 193 C 18.9862 -1.53189 1.3121 0
M  V30 194 C 19.2992 -1.95328 -0.103095 0
M  V30 195 O 20.5052 -2.70012 -0.283826 0
M  V30 196 C 18.9612 -2.76591 2.30272 0
M  V30 197 C 18.5692 -2.41577 3.77286 0
M  V30 198 C 20.3132 -3.5455 2.33441 0
M  V30 199 C 18.2202 -3.61441 4.68096 0
M  V30 200 H 17.1502 -0.5751 0.487622 0
M  V30 201 H 19.8012 -0.853101 1.62464 0
M  V30 202 H 18.1832 -3.46326 1.92027 0
M  V30 203 H 19.3572 -1.79668 4.2433 0
M  V30 204 H 17.6722 -1.76806 3.76999 0
M  V30 205 H 20.2692 -4.43628 2.98493 0
M  V30 206 H 20.6122 -3.93936 1.34611 0
M  V30 207 H 21.1452 -2.91805 2.7036 0
M  V30 208 H 17.8842 -3.27142 5.6803 0
M  V30 209 H 17.4042 -4.22478 4.25761 0
M  V30 210 H 19.0832 -4.28335 4.8491 0
M  V30 211 N 19.2153 -1.21501 -1.00376 0
M  V30 212 C 20.4453 -1.05746 -1.77486 0
M  V30 213 C 20.8533 0.395655 -1.85017 0
M  V30 214 O 20.1963 1.28626 -1.31152 0
M  V30 215 C 20.2583 -1.58092 -3.22873 0
M  V30 216 C 19.9223 -3.06568 -3.38917 0
M  V30 217 C 20.9193 -4.04106 -3.271 0
M  V30 218 C 18.6043 -3.45799 -3.64319 0
M  V30 219 C 20.5983 -5.38862 -3.40451 0
M  V30 220 C 18.2853 -4.80707 -3.77311 0
M  V30 221 C 19.2833 -5.77047 -3.65384 0
M  V30 222 O 18.9713 -7.09507 -3.77961 0
M  V30 223 H 18.7033 -0.371778 -0.564586 0
M  V30 224 H 21.2573 -1.61319 -1.27143 0
M  V30 225 H 19.4873 -0.969163 -3.74358 0
M  V30 226 H 21.1763 -1.38162 -3.81662 0
M  V30 227 H 21.9423 -3.75141 -3.07399 0
M  V30 228 H 17.8213 -2.71344 -3.72684 0
M  V30 229 H 21.3653 -6.14041 -3.31058 0
M  V30 230 H 17.2623 -5.09357 -3.96517 0
M  V30 231 H 18.0303 -7.16935 -3.94901 0
M  V30 232 N 20.6934 1.19889 -1.02296 0
M  V30 233 C 21.9404 1.8942 -0.715972 0
M  V30 234 C 22.2684 1.79251 0.754944 0
M  V30 235 O 21.5234 1.17526 1.56481 0
M  V30 236 C 21.8224 3.39883 -1.10518 0
M  V30 237 C 21.4884 3.70254 -2.57337 0
M  V30 238 C 20.1504 3.78254 -2.97452 0
M  V30 239 C 22.5024 3.84052 -3.52354 0
M  V30 240 C 19.8304 3.97514 -4.31509 0
M  V30 241 C 22.1824 4.04824 -4.86108 0
M  V30 242 C 20.8464 4.11054 -5.25919 0
M  V30 243 H 20.1164 0.693138 -0.261993 0
M  V30 244 H 22.7634 1.42012 -1.28472 0
M  V30 245 H 21.0684 3.8915 -0.454953 0
M  V30 246 H 22.7654 3.9199 -0.845261 0
M  V30 247 H 19.3554 3.64632 -2.25258 0
M  V30 248 H 23.5394 3.77221 -3.22518 0
M  V30 249 H 18.7954 4.00574 -4.61898 0
M  V30 250 H 22.9694 4.14442 -5.59653 0
M  V30 251 H 20.5964 4.2573 -6.29808 0
M  V30 252 N 22.1715 0.800033 1.35784 0
M  V30 253 C 23.1345 0.211565 2.28221 0
M  V30 254 C 24.1345 -0.59728 1.49296 0
M  V30 255 O 25.3245 -0.416721 1.69142 0
M  V30 256 C 22.4565 -0.705846 3.33513 0
M  V30 257 H 23.6495 1.02677 2.81776 0
M  V30 258 H 21.2025 0.570211 1.45528 0
M  V30 259 H 21.9375 -1.54498 2.85133 0
M  V30 260 H 21.7225 -0.127655 3.91892 0
M  V30 261 H 23.2125 -1.11211 4.02519 0
M  V30 262 N 23.6496 -1.47581 0.552962 0
M  V30 263 C 24.6126 -2.28439 -0.186605 0
M  V30 264 C 25.6126 -1.36706 -0.84665 0
M  V30 265 O 26.8026 -1.59378 -0.703164 0
M  V30 266 C 23.9346 -3.16264 -1.2724 0
M  V30 267 H 25.1276 -2.95294 0.523609 0
M  V30 268 H 22.6806 -1.532 0.309745 0
M  V30 269 H 23.4156 -2.54091 -2.01514 0
M  V30 270 H 23.2006 -3.83769 -0.803968 0
M  V30 271 H 24.6906 -3.77198 -1.79196 0
M  V30 272 N 25.1277 -0.289203 -1.54924 0
M  V30 273 C 26.3527 0.329299 -2.04769 0
M  V30 274 C 26.7777 1.4763 -1.16564 0
M  V30 275 O 26.1357 1.80527 -0.167186 0
M  V30 276 C 26.1837 0.774438 -3.52186 0
M  V30 277 O 25.2877 1.88038 -3.67036 0
M  V30 278 H 24.6287 0.0659259 -0.660719 0
M  V30 279 H 27.1587 -0.42761 -2.00082 0
M  V30 280 H 27.1687 1.06642 -3.93816 0
M  V30 281 H 25.8437 -0.0646707 -4.1585 0
M  V30 282 H 24.4207 1.58985 -3.3731 0
M  V30 283 N 26.6058 1.57591 -0.0167156 0
M  V30 284 C 28.0218 1.55946 0.339557 0
M  V30 285 C 28.2218 1.02109 1.73713 0
M  V30 286 O 27.2778 0.662303 2.43659 0
M  V30 287 C 28.5908 3.00037 0.199499 0
M  V30 288 C 30.1388 3.11805 0.273193 0
M  V30 289 C 30.6138 4.57713 0.162068 0
M  V30 290 N 32.1048 4.6268 0.219444 0
M  V30 291 C 32.8398 5.73185 0.157054 0
M  V30 292 N 32.3358 6.92786 0.0442936 0
M  V30 293 N 34.1288 5.61707 0.21014 0
M  V30 294 H 26.2798 1.90921 -0.930758 0
M  V30 295 H 28.5428 0.877674 -0.358319 0
M  V30 296 H 28.2488 3.4333 -0.76273 0
M  V30 297 H 28.1228 3.64387 0.974786 0
M  V30 298 H 30.5098 2.68433 1.22587 0
M  V30 299 H 30.5908 2.50201 -0.532256 0
M  V30 300 H 30.2348 5.01763 -0.78714 0
M  V30 301 H 30.1648 5.17283 0.986222 0
M  V30 302 H 32.6558 3.76649 0.307246 0
M  V30 303 H 32.9688 7.728 0.00304069 0
M  V30 304 H 31.3138 6.94999 0.00968457 0
M  V30 305 H 34.5048 4.6716 0.296546 0
M  V30 306 H 34.6778 6.47807 0.158054 0
M  V30 307 N 28.0839 -0.256276 1.55502 0
M  V30 308 C 29.0139 -1.32102 1.92539 0
M  V30 309 C 29.9949 -1.50684 0.789194 0
M  V30 310 O 31.1799 -1.63449 1.04872 0
M  V30 311 C 28.3099 -2.67752 2.21192 0
M  V30 312 C 27.2639 -2.63878 3.36975 0
M  V30 313 C 26.5899 -4.03236 3.51147 0
M  V30 314 C 27.8899 -2.21682 4.72921 0
M  V30 315 H 29.5839 -1.01351 2.81724 0
M  V30 316 H 27.1299 -0.486105 1.35547 0
M  V30 317 H 29.0829 -3.42365 2.45691 0
M  V30 318 H 27.8069 -3.0012 1.28824 0
M  V30 319 H 26.4659 -1.91722 3.12471 0
M  V30 320 H 26.1139 -4.32854 2.56216 0
M  V30 321 H 25.8139 -4.01535 4.29003 0
M  V30 322 H 27.3379 -4.79563 3.77957 0
M  V30 323 H 28.7519 -2.86023 4.96854 0
M  V30 324 H 27.1489 -2.3111 5.53812 0
M  V30 325 H 28.2189 -1.16833 4.70615 0
M  V30 326 N 29.562 -1.4872 -0.521534 0
M  V30 327 C 30.978 -1.35028 -0.850855 0
M  V30 328 C 31.178 -0.367712 -1.98116 0
M  V30 329 O 30.234 0.208037 -2.51642 0
M  V30 330 C 31.547 -2.75263 -1.21041 0
M  V30 331 C 33.095 -2.83813 -1.31981 0
M  V30 332 C 33.57 -4.24769 -1.71276 0
M  V30 333 N 35.061 -4.27482 -1.78363 0
M  V30 334 C 35.796 -5.33494 -2.1017 0
M  V30 335 N 35.292 -6.49775 -2.40343 0
M  V30 336 N 37.085 -5.20894 -2.11248 0
M  V30 337 H 29.236 -2.11214 0.22413 0
M  V30 338 H 31.499 -0.947252 0.0376439 0
M  V30 339 H 31.205 -3.48765 -0.453415 0
M  V30 340 H 31.079 -3.09327 -2.15863 0
M  V30 341 H 33.466 -2.10561 -2.06756 0
M  V30 342 H 33.547 -2.53358 -0.352596 0
M  V30 343 H 33.191 -4.9854 -0.970588 0
M  V30 344 H 33.121 -4.52673 -2.69062 0
M  V30 345 H 35.612 -3.43611 -1.57288 0
M  V30 346 H 35.925 -7.26402 -2.63743 0
M  V30 347 H 34.27 -6.53035 -2.37844 0
M  V30 348 H 37.461 -4.29065 -1.87139 0
M  V30 349 H 37.634 -6.03612 -2.35704 0
M  V30 350 N 31.0401 0.771051 -1.3745 0
M  V30 351 C 32.0031 1.86598 -1.33093 0
M  V30 352 C 33.0031 1.59076 -0.234845 0
M  V30 353 O 34.1931 1.67145 -0.490732 0
M  V30 354 C 31.3251 3.23747 -1.06773 0
M  V30 355 H 32.5181 1.91873 -2.30488 0
M  V30 356 H 30.0711 0.970876 -1.2249 0
M  V30 357 H 30.8061 3.24148 -0.099129 0
M  V30 358 H 30.5911 3.45115 -1.86112 0
M  V30 359 H 32.0811 4.03824 -1.06377 0
M  V30 360 N 32.5182 1.22032 0.997298 0
M  V30 361 C 33.4812 0.987909 2.06816 0
M  V30 362 C 34.4812 -0.0440084 1.6074 0
M  V30 363 O 35.6712 0.194053 1.73116 0
M  V30 364 C 32.8032 0.49132 3.37341 0
M  V30 365 H 33.9962 1.93803 2.28868 0
M  V30 366 H 31.5492 1.03838 1.16822 0
M  V30 367 H 32.2842 -0.463364 3.20973 0
M  V30 368 H 32.0692 1.23575 3.72118 0
M  V30 369 H 33.5592 0.348824 4.16141 0
M  V30 370 N 33.9963 -1.19345 1.0293 0
M  V30 371 C 34.9063 -2.26245 0.620515 0
M  V30 372 C 35.9223 -1.70486 -0.347928 0
M  V30 373 O 37.0983 -2.00347 -0.205704 0
M  V30 374 C 34.1633 -3.46693 -0.0218957 0
M  V30 375 C 33.2243 -4.17632 0.994102 0
M  V30 376 C 32.4573 -5.32329 0.382253 0
M  V30 377 O 32.6803 -5.64552 -0.814676 0
M  V30 378 O 31.6143 -5.91664 1.10531 0
M  V30 379 H 35.4403 -2.63453 1.51083 0
M  V30 380 H 33.0253 -1.26207 0.799513 0
M  V30 381 H 34.9073 -4.19683 -0.380072 0
M  V30 382 H 33.5823 -3.11333 -0.886209 0
M  V30 383 H 32.4893 -3.4676 1.40387 0
M  V30 384 H 33.8223 -4.56964 1.8288 0
M  V30 385 N 35.4744 -0.807222 -1.35358 0
M  V30 386 C 36.7024 -0.400377 -2.02989 0
M  V30 387 C 37.1174 0.988859 -1.60832 0
M  V30 388 O 36.4744 1.63729 -0.806175 0
M  V30 389 C 36.5254 -0.474867 -3.58368 0
M  V30 390 O 36.2464 -1.80933 -3.98992 0
M  V30 391 C 37.7474 -0.0609112 -4.43258 0
M  V30 392 H 34.9674 -0.162587 -0.651004 0
M  V30 393 H 37.5114 -1.09102 -1.72965 0
M  V30 394 H 35.6664 0.167534 -3.87038 0
M  V30 395 H 36.0804 -1.77256 -4.9364 0
M  V30 396 H 37.5544 -0.164145 -5.51756 0
M  V30 397 H 38.0314 0.993831 -4.27808 0
M  V30 398 H 38.6374 -0.676492 -4.19885 0
M  V30 399 N 36.9525 1.47285 -0.560781 0
M  V30 400 C 37.9155 2.28535 0.174488 0
M  V30 401 C 38.9155 1.37153 0.839388 0
M  V30 402 O 40.1055 1.59748 0.694702 0
M  V30 403 C 37.2375 3.16934 1.25561 0
M  V30 404 H 38.4305 2.95012 -0.539262 0
M  V30 405 H 35.9835 1.53034 -0.317865 0
M  V30 406 H 36.7185 2.55157 2.00164 0
M  V30 407 H 36.5035 3.8419 0.783604 0
M  V30 408 H 37.9935 3.78143 1.77193 0
M  V30 409 N 38.4306 0.297415 1.54768 0
M  V30 410 C 39.7076 -0.365847 1.92148 0
M  V30 411 C 40.0876 -1.71975 1.22424 0
M  V30 412 O 39.4356 -2.25666 0.358739 0
M  V30 413 C 39.6456 -0.484056 3.45627 0
M  V30 414 C 40.9936 -0.756594 4.17805 0
M  V30 415 O 42.0176 -0.568007 3.51642 0
M  V30 416 O 40.8766 -1.11863 5.34929 0
M  V30 417 H 37.9706 -0.203919 0.801465 0
M  V30 418 H 40.5166 0.34521 1.66152 0
M  V30 419 H 39.2886 0.467865 3.88493 0
M  V30 420 H 38.9116 -1.24372 3.77647 0
M  V30 421 N 39.9087 -1.5758 0.0250728 0
M  V30 422 C 41.1567 -1.91255 -0.653151 0
M  V30 423 C 41.4777 -0.901691 -1.729 0
M  V30 424 O 40.7477 0.0573785 -1.95816 0
M  V30 425 H 39.3277 -0.705942 -0.244243 0
M  V30 426 H 41.9897 -1.94767 0.0719209 0
M  V30 427 H 41.0857 -2.91752 -1.10847 0
M  V30 428 N 41.3868 0.248026 -1.55636 0
M  V30 429 C 42.3338 1.30707 -1.90222 0
M  V30 430 C 43.3038 1.47881 -0.756332 0
M  V30 431 O 44.4888 1.61883 -1.00988 0
M  V30 432 C 41.6288 2.65769 -2.20138 0
M  V30 433 C 40.7418 2.56612 -3.47526 0
M  V30 434 C 39.8768 3.8402 -3.67017 0
M  V30 435 C 38.9158 3.69476 -4.8801 0
M  V30 436 N 38.0528 4.88774 -5.04029 0
M  V30 437 H 42.8928 1.00512 -2.80538 0
M  V30 438 H 40.4298 0.485055 -1.38873 0
M  V30 439 H 42.3878 3.44386 -2.35487 0
M  V30 440 H 41.0178 2.94115 -1.33027 0
M  V30 441 H 40.0698 1.69571 -3.40514 0
M  V30 442 H 41.3818 2.41774 -4.36287 0
M  V30 443 H 40.5358 4.7108 -3.8232 0
M  V30 444 H 39.2748 4.01754 -2.76487 0
M  V30 445 H 38.2798 2.80799 -4.72686 0
M  V30 446 H 39.5048 3.53238 -5.8 0
M  V30 447 H 37.4508 5.0687 -4.16435 0
M  V30 448 H 37.3678 4.76562 -5.86877 0
M  V30 449 H 38.6358 5.77335 -5.23741 0
M  V30 450 N 42.8649 1.48995 0.513639 0
M  V30 451 C 44.0949 1.61297 1.291 0
M  V30 452 C 44.5029 0.278656 1.87137 0
M  V30 453 O 43.8459 -0.744325 1.67945 0
M  V30 454 C 43.9079 2.61326 2.46879 0
M  V30 455 C 43.5719 4.05993 2.09807 0
M  V30 456 C 44.5689 4.93183 1.64519 0
M  V30 457 C 42.2539 4.51642 2.19829 0
M  V30 458 C 44.2479 6.24056 1.2974 0
M  V30 459 C 41.9349 5.82532 1.84662 0
M  V30 460 C 42.9329 6.68562 1.3969 0
M  V30 461 O 42.6209 7.97014 1.04992 0
M  V30 462 H 42.3529 0.546236 0.39825 0
M  V30 463 H 44.9069 1.95673 0.62459 0
M  V30 464 H 43.1369 2.22104 3.16554 0
M  V30 465 H 44.8259 2.6329 3.08923 0
M  V30 466 H 45.5919 4.59147 1.56233 0
M  V30 467 H 41.4709 3.84855 2.53786 0
M  V30 468 H 45.0149 6.91161 0.945659 0
M  V30 469 H 40.9119 6.16099 1.92594 0
M  V30 470 H 41.6799 8.09913 1.18249 0
M  V30 471 N 44.343 -0.763751 1.37857 0
M  V30 472 C 45.306 -1.85889 1.34081 0
M  V30 473 C 46.306 -1.58949 0.243277 0
M  V30 474 O 47.496 -1.66882 0.499589 0
M  V30 475 C 44.628 -3.23176 1.08489 0
M  V30 476 H 45.821 -1.90648 2.31502 0
M  V30 477 H 43.374 -0.964367 1.23003 0
M  V30 478 H 44.109 -3.24091 0.116318 0
M  V30 479 H 43.894 -3.44124 1.8794 0
M  V30 480 H 45.384 -4.03254 1.08517 0
M  V30 481 N 45.8211 -1.22559 -0.990812 0
M  V30 482 C 46.7531 -0.955325 -2.08342 0
M  V30 483 C 47.7661 0.0668408 -1.62663 0
M  V30 484 O 48.9551 -0.167421 -1.77713 0
M  V30 485 C 46.0551 -0.415566 -3.36342 0
M  V30 486 C 45.2281 -1.49544 -4.11042 0
M  V30 487 C 44.2871 -0.962399 -5.17324 0
M  V30 488 O 43.3131 -1.64907 -5.44788 0
M  V30 489 N 44.5151 0.215134 -5.80101 0
M  V30 490 H 47.2801 -1.89596 -2.32106 0
M  V30 491 H 44.8411 -1.13276 -1.15673 0
M  V30 492 H 46.8331 -0.0442386 -4.04676 0
M  V30 493 H 45.4031 0.430232 -3.09625 0
M  V30 494 H 44.6231 -2.04 -3.37309 0
M  V30 495 H 45.9111 -2.22195 -4.57719 0
M  V30 496 H 45.3091 0.789779 -5.6016 0
M  V30 497 H 43.8661 0.527826 -6.49659 0
M  V30 498 N 47.2992 1.18797 -1.03562 0
M  V30 499 C 48.2462 2.22253 -0.622259 0
M  V30 500 C 49.2162 1.61987 0.36736 0
M  V30 501 O 50.4012 1.88986 0.262492 0
M  V30 502 C 47.5412 3.45097 0.0138462 0
M  V30 503 C 46.6542 4.19722 -1.02263 0
M  V30 504 C 45.7892 5.30009 -0.355573 0
M  V30 505 C 44.8282 5.96399 -1.37749 0
M  V30 506 N 43.9652 6.98234 -0.735766 0
M  V30 507 H 48.8052 2.56968 -1.50903 0
M  V30 508 H 46.3422 1.26245 -0.755017 0
M  V30 509 H 48.3002 4.15279 0.399948 0
M  V30 510 H 46.9302 3.11018 0.864158 0
M  V30 511 H 45.9822 3.48418 -1.52673 0
M  V30 512 H 47.2942 4.65227 -1.79903 0
M  V30 513 H 46.4482 6.0664 0.0850095 0
M  V30 514 H 45.1872 4.85592 0.452967 0
M  V30 515 H 44.1922 5.18512 -1.82826 0
M  V30 516 H 45.4172 6.42899 -2.18764 0
M  V30 517 H 43.3632 6.55979 0.0525597 0
M  V30 518 H 43.2802 7.41965 -1.44995 0
M  V30 519 H 44.5482 7.78845 -0.31941 0
M  V30 520 N 48.7773 0.814389 1.34928 0
M  V30 521 C 49.7073 0.244827 2.32213 0
M  V30 522 C 50.6883 -0.634024 1.57842 0
M  V30 523 O 51.8733 -0.562676 1.8587 0
M  V30 524 C 49.0033 -0.601106 3.42058 0
M  V30 525 C 47.9573 0.179896 4.27622 0
M  V30 526 C 47.2833 -0.788237 5.28858 0
M  V30 527 C 48.5833 1.38329 5.03649 0
M  V30 528 H 50.2773 1.05763 2.80097 0
M  V30 529 H 47.8233 0.510029 1.34665 0
M  V30 530 H 49.7763 -1.00968 4.09125 0
M  V30 531 H 48.5003 -1.44688 2.92802 0
M  V30 532 H 47.1593 0.569739 3.62146 0
M  V30 533 H 46.8073 -1.62973 4.75866 0
M  V30 534 H 46.5073 -0.269942 5.8698 0
M  V30 535 H 48.0313 -1.19485 5.98795 0
M  V30 536 H 49.4453 1.04918 5.63618 0
M  V30 537 H 47.8423 1.83662 5.71304 0
M  V30 538 H 48.9123 2.16592 4.33839 0
M  V30 539 N 50.2554 -1.46986 0.568584 0
M  V30 540 C 51.5024 -2.02441 0.0487986 0
M  V30 541 C 51.8304 -1.44169 -1.30559 0
M  V30 542 O 51.0854 -0.591213 -1.86556 0
M  V30 543 C 51.3844 -3.57306 -0.081836 0
M  V30 544 C 51.0504 -4.34552 1.20313 0
M  V30 545 C 49.7124 -4.55376 1.5552 0
M  V30 546 C 52.0644 -4.79016 2.05411 0
M  V30 547 C 49.3924 -5.17913 2.7565 0
M  V30 548 C 51.7444 -5.42879 3.24754 0
M  V30 549 C 50.4084 -5.61933 3.60261 0
M  V30 550 H 49.6784 -0.740785 0.0178567 0
M  V30 551 H 52.3254 -1.76525 0.742384 0
M  V30 552 H 50.6304 -3.8228 -0.858463 0
M  V30 553 H 52.3274 -3.97876 -0.499546 0
M  V30 554 H 48.9174 -4.18631 0.919014 0
M  V30 555 H 53.1014 -4.62696 1.79516 0
M  V30 556 H 48.3574 -5.30858 3.03315 0
M  V30 557 H 52.5314 -5.76293 3.90973 0
M  V30 558 H 50.1584 -6.10161 4.53439 0
M  V30 559 N 51.7335 -0.305618 -1.54608 0
M  V30 560 C 52.6815 0.584119 -2.25146 0
M  V30 561 C 53.6755 1.13326 -1.25911 0
M  V30 562 O 54.8815 1.08337 -1.43747 0
M  V30 563 H 51.2565 0.206983 -0.722954 0
M  V30 564 H 53.2275 -0.033291 -2.98381 0
M  V30 565 C 51.9765 1.74225 -3.009 0
M  V30 566 H 51.2995 1.32892 -3.77067 0
M  V30 567 H 52.7395 2.34077 -3.53531 0
M  V30 568 C 51.1985 2.64914 -2.0814 0
M  V30 569 O 51.7285 3.66137 -1.65246 0
M  V30 570 N 49.9345 2.3275 -1.74 0
M  V30 571 H 49.4815 1.50479 -2.09078 0
M  V30 572 H 49.4395 2.93694 -1.12211 0
M  V30 573 N 53.2116 1.57565 -0.0334293 0
M  V30 574 C 54.4886 1.83282 0.683163 0
M  V30 575 C 54.8686 0.91823 1.90084 0
M  V30 576 O 54.2166 -0.025113 2.28486 0
M  V30 577 C 54.4266 3.32599 1.0573 0
M  V30 578 C 55.7746 3.99179 1.44711 0
M  V30 579 O 56.7986 3.3712 1.15015 0
M  V30 580 O 55.6576 5.08565 2.0006 0
M  V30 581 H 52.7516 0.755869 0.335546 0
M  V30 582 H 55.2976 1.69589 -0.0614402 0
M  V30 583 H 54.0696 3.90834 0.190828 0
M  V30 584 H 53.6926 3.51415 1.85993 0
M  V30 585 N 54.6897 -0.239769 1.55765 0
M  V30 586 C 55.6197 -1.30052 1.9393 0
M  V30 587 C 56.6007 -1.49839 0.805132 0
M  V30 588 O 57.7857 -1.62328 1.06599 0
M  V30 589 C 54.9157 -2.65391 2.2402 0
M  V30 590 C 53.8697 -2.60289 3.39755 0
M  V30 591 C 53.1957 -3.99489 3.55405 0
M  V30 592 C 54.4957 -2.16654 4.75246 0
M  V30 593 H 56.1897 -0.983573 2.82783 0
M  V30 594 H 53.7357 -0.471701 1.36055 0
M  V30 595 H 55.6887 -3.3974 2.49308 0
M  V30 596 H 54.4127 -2.98736 1.32 0
M  V30 597 H 53.0717 -1.88398 3.14487 0
M  V30 598 H 52.7197 -4.30112 2.60793 0
M  V30 599 H 52.4197 -3.96962 4.33238 0
M  V30 600 H 53.9437 -4.75528 3.83022 0
M  V30 601 H 55.3577 -2.80737 4.99859 0
M  V30 602 H 53.7547 -2.25223 5.56232 0
M  V30 603 H 54.8247 -1.11835 4.71827 0
M  V30 604 N 56.1678 -1.49265 -0.50573 0
M  V30 605 C 57.4148 -1.58513 -1.26015 0
M  V30 606 C 57.7428 -0.26972 -1.92621 0
M  V30 607 O 56.9978 0.741997 -1.81088 0
M  V30 608 C 57.2968 -2.69008 -2.35308 0
M  V30 609 C 56.9628 -4.10662 -1.86192 0
M  V30 610 C 55.6248 -4.49212 -1.72516 0
M  V30 611 C 57.9768 -4.99336 -1.49375 0
M  V30 612 C 55.3048 -5.74214 -1.20394 0
M  V30 613 C 57.6568 -6.24852 -0.987072 0
M  V30 614 C 56.3208 -6.62236 -0.836669 0
M  V30 615 H 55.5908 -0.580041 -0.461122 0
M  V30 616 H 58.2378 -1.83078 -0.561665 0
M  V30 617 H 56.5428 -2.38396 -3.10926 0
M  V30 618 H 58.2398 -2.73373 -2.93374 0
M  V30 619 H 54.8298 -3.8023 -1.97795 0
M  V30 620 H 59.0138 -4.70212 -1.5879 0
M  V30 621 H 54.2698 -6.01883 -1.07458 0
M  V30 622 H 58.4438 -6.92944 -0.692983 0
M  V30 623 H 56.0708 -7.58979 -0.430607 0
M  V30 624 N 57.6459 0.756429 -1.3826 0
M  V30 625 C 58.5559 1.9009 -1.37488 0
M  V30 626 C 59.5719 1.71855 -0.272366 0
M  V30 627 O 60.7479 1.94827 -0.510318 0
M  V30 628 C 57.8129 3.25421 -1.19592 0
M  V30 629 C 56.8739 3.56202 -2.39622 0
M  V30 630 C 56.1069 4.85075 -2.2257 0
M  V30 631 O 56.3299 5.57246 -1.21793 0
M  V30 632 O 55.2639 5.15269 -3.11098 0
M  V30 633 H 59.0899 1.93695 -2.33914 0
M  V30 634 H 56.6749 0.901313 -1.1915 0
M  V30 635 H 58.5569 4.06337 -1.11661 0
M  V30 636 H 57.2319 3.22634 -0.262486 0
M  V30 637 H 56.1389 2.75458 -2.53128 0
M  V30 638 H 57.4719 3.63747 -3.31586 0
M  V30 639 N 59.124 1.23083 0.984299 0
M  V30 640 C 60.401 0.9689 1.69917 0
M  V30 641 C 60.781 -0.513604 2.04757 0
M  V30 642 O 60.129 -1.48383 1.73767 0
M  V30 643 C 60.339 1.87518 2.94343 0
M  V30 644 C 61.687 2.13636 3.6694 0
M  V30 645 O 62.711 1.85036 3.04368 0
M  V30 646 O 61.57 2.62119 4.79537 0
M  V30 647 H 58.664 0.365095 0.742048 0
M  V30 648 H 61.21 1.34107 1.03987 0
M  V30 649 H 59.982 2.87756 2.65164 0
M  V30 650 H 59.605 1.50514 3.6801 0
M  V30 651 N 60.6021 -1.18246 1.0419 0
M  V30 652 C 61.8321 -1.91916 0.764961 0
M  V30 653 C 62.2401 -1.76485 -0.681898 0
M  V30 654 O 61.5831 -1.09275 -1.47664 0
M  V30 655 C 61.6451 -3.4373 1.05309 0
M  V30 656 C 61.3091 -3.8294 2.4941 0
M  V30 657 C 62.3061 -3.86621 3.47592 0
M  V30 658 C 59.9911 -4.142 2.84155 0
M  V30 659 C 61.9851 -4.21013 4.78568 0
M  V30 660 C 59.6721 -4.48262 4.15337 0
M  V30 661 C 60.6701 -4.51645 5.12353 0
M  V30 662 O 60.3581 -4.84911 6.41183 0
M  V30 663 H 60.0901 -0.61606 0.278292 0
M  V30 664 H 62.6441 -1.50947 1.39299 0
M  V30 665 H 60.8741 -3.84946 0.367933 0
M  V30 666 H 62.5631 -3.9865 0.763752 0
M  V30 667 H 63.3291 -3.62607 3.22089 0
M  V30 668 H 59.2081 -4.10743 2.09311 0
M  V30 669 H 62.7521 -4.23568 5.54289 0
M  V30 670 H 58.6491 -4.71737 4.40607 0
M  V30 671 H 59.4171 -5.02809 6.45852 0
M  V30 672 N 62.0802 -0.821533 -1.34494 0
M  V30 673 C 63.3052 -0.420873 -2.03085 0
M  V30 674 C 63.7302 0.964915 -1.61465 0
M  V30 675 O 63.0882 1.62763 -0.798607 0
M  V30 676 C 63.1362 -0.529414 -3.56693 0
M  V30 677 O 62.2402 0.451302 -4.09923 0
M  V30 678 H 61.5812 -0.173489 -0.640935 0
M  V30 679 H 64.1112 -1.11157 -1.71771 0
M  V30 680 H 64.1212 -0.404671 -4.05988 0
M  V30 681 H 62.7962 -1.54014 -3.86332 0
M  V30 682 H 61.3732 0.285558 -3.71805 0
M  V30 683 N 63.5583 1.46682 -0.576371 0
M  V30 684 C 64.5063 2.31953 0.17335 0
M  V30 685 C 65.5003 1.44098 0.89062 0
M  V30 686 O 66.7063 1.60759 0.809728 0
M  V30 687 H 63.0813 0.748273 0.0747727 0
M  V30 688 H 65.0523 2.93007 -0.564738 0
M  V30 689 C 63.8013 3.27142 1.17786 0
M  V30 690 H 63.1243 3.94719 0.635361 0
M  V30 691 H 64.5643 3.896 1.67296 0
M  V30 692 C 63.0233 2.52036 2.23561 0
M  V30 693 O 63.5533 2.27877 3.3081 0
M  V30 694 N 61.7593 2.12709 1.97998 0
M  V30 695 H 61.3063 2.32557 1.10792 0
M  V30 696 H 61.2643 1.62776 2.68982 0
M  V30 697 N 65.0364 0.313813 1.54444 0
M  V30 698 C 65.9994 -0.54379 2.22656 0
M  V30 699 C 66.9994 -1.05124 1.21678 0
M  V30 700 O 68.1894 -0.945225 1.46325 0
M  V30 701 C 65.3214 -1.75427 2.92298 0
M  V30 702 H 66.5144 0.0523599 2.99854 0
M  V30 703 H 64.0674 0.0647834 1.56166 0
M  V30 704 H 64.8024 -2.38991 2.19211 0
M  V30 705 H 64.5874 -1.39791 3.66334 0
M  V30 706 H 66.0774 -2.36325 3.44297 0
M  V30 707 N 66.5145 -1.57545 0.0417849 0
M  V30 708 C 67.4445 -2.14009 -0.933929 0
M  V30 709 C 68.4255 -1.05938 -1.33083 0
M  V30 710 O 69.6105 -1.33833 -1.40721 0
M  V30 711 C 66.7405 -2.67747 -2.21199 0
M  V30 712 C 65.6945 -3.80718 -1.95544 0
M  V30 713 C 65.0205 -4.20935 -3.29724 0
M  V30 714 C 66.3205 -5.06258 -1.28452 0
M  V30 715 H 68.0145 -2.95788 -0.463645 0
M  V30 716 H 65.5605 -1.42285 -0.221573 0
M  V30 717 H 67.5135 -3.05886 -2.89848 0
M  V30 718 H 66.2375 -1.83147 -2.70416 0
M  V30 719 H 64.8965 -3.43037 -1.2931 0
M  V30 720 H 64.5445 -3.33298 -3.76724 0
M  V30 721 H 64.2445 -4.9707 -3.13361 0
M  V30 722 H 65.7685 -4.61666 -3.9962 0
M  V30 723 H 67.1825 -5.41903 -1.8712 0
M  V30 724 H 65.5795 -5.87475 -1.22445 0
M  V30 725 H 66.6495 -4.84207 -0.259219 0
M  V30 726 N 67.9926 0.231505 -1.5589 0
M  V30 727 C 69.4086 0.580748 -1.48659 0
M  V30 728 C 69.6086 1.87617 -0.73498 0
M  V30 729 O 68.6646 2.51046 -0.270586 0
M  V30 730 C 69.9776 0.669202 -2.93159 0
M  V30 731 C 71.5256 0.760499 -3.03621 0
M  V30 732 C 72.0006 0.880383 -4.49459 0
M  V30 733 N 73.4916 0.944861 -4.53461 0
M  V30 734 C 74.2266 1.05716 -5.63571 0
M  V30 735 N 73.7226 1.13403 -6.83456 0
M  V30 736 N 75.5156 1.09152 -5.514 0
M  V30 737 H 67.6666 -0.618695 -2.03189 0
M  V30 738 H 69.9296 -0.215728 -0.923128 0
M  V30 739 H 69.6356 -0.212904 -3.51055 0
M  V30 740 H 69.5096 1.5361 -3.44505 0
M  V30 741 H 71.8966 1.63305 -2.45796 0
M  V30 742 H 71.9776 -0.131864 -2.5546 0
M  V30 743 H 71.6216 0.0123284 -5.07899 0
M  V30 744 H 71.5516 1.78802 -4.95316 0
M  V30 745 H 74.0426 0.896176 -3.6712 0
M  V30 746 H 74.3556 1.21921 -7.63122 0
M  V30 747 H 72.7006 1.10333 -6.86186 0
M  V30 748 H 75.8916 1.02805 -4.56671 0
M  V30 749 H 76.0646 1.17558 -6.37247 0
M  V30 750 N 69.4707 1.49531 0.497807 0
M  V30 751 C 70.8817 1.52344 1.07927 0
M  V30 752 C 71.2327 0.311469 1.93712 0
M  V30 753 O 70.3577 -0.578405 2.08527 0
M  V30 754 C 70.9527 2.76062 1.96405 0
M  V30 755 C 69.5117 2.81643 2.49709 0
M  V30 756 C 68.6587 2.46299 1.27404 0
M  V30 757 H 71.6097 1.56182 0.281576 0
M  V30 758 H 71.6307 2.56405 2.81135 0
M  V30 759 H 71.1427 3.64254 1.33943 0
M  V30 760 H 69.2437 1.97739 3.15801 0
M  V30 761 H 69.3567 3.83891 2.86643 0
M  V30 762 H 67.7207 1.98148 1.60029 0
M  V30 763 H 68.5037 3.36769 0.66645 0
M  V30 764 N 70.9488 -0.749086 1.3866 0
M  V30 765 C 72.1948 -1.51056 1.35314 0
M  V30 766 C 72.5278 -1.94121 -0.0553751 0
M  V30 767 O 71.8028 -1.65763 -1.01749 0
M  V30 768 C 72.0858 -2.76003 2.31288 0
M  V30 769 C 71.9388 -2.39047 3.8102 0
M  V30 770 C 73.2578 -3.78046 2.2532 0
M  V30 771 H 70.3768 -0.547972 0.492844 0
M  V30 772 H 73.0188 -0.857628 1.69543 0
M  V30 773 H 71.1688 -3.31716 2.02229 0
M  V30 774 H 72.8408 -1.89074 4.20771 0
M  V30 775 H 71.0838 -1.71449 3.98482 0
M  V30 776 H 71.7548 -3.28462 4.4364 0
M  V30 777 H 74.2308 -3.31884 2.50983 0
M  V30 778 H 73.1068 -4.63159 2.94576 0
M  V30 779 H 73.3678 -4.23957 1.25352 0
M  V30 780 N 72.4269 -1.23603 -0.977757 0
M  V30 781 C 73.3369 -1.03632 -2.1047 0
M  V30 782 C 74.3529 0.0199435 -1.73989 0
M  V30 783 O 75.5289 -0.176076 -2.00629 0
M  V30 784 C 72.5939 -0.63276 -3.40877 0
M  V30 785 C 71.6549 -1.76437 -3.91367 0
M  V30 786 C 70.8879 -1.37997 -5.15551 0
M  V30 787 O 71.1109 -0.265357 -5.69782 0
M  V30 788 O 70.0449 -2.20201 -5.60174 0
M  V30 789 H 73.8709 -1.98086 -2.30208 0
M  V30 790 H 71.4559 -1.02332 -1.08851 0
M  V30 791 H 73.3379 -0.418761 -4.19314 0
M  V30 792 H 72.0129 0.282754 -3.22463 0
M  V30 793 H 70.9199 -2.03304 -3.14036 0
M  V30 794 H 72.2529 -2.6583 -4.14241 0
M  V30 795 N 73.905 1.17692 -1.04816 0
M  V30 796 C 75.182 1.83768 -0.669963 0
M  V30 797 C 75.562 1.93232 0.849986 0
M  V30 798 O 74.91 1.46397 1.75443 0
M  V30 799 C 75.12 3.21641 -1.35455 0
M  V30 800 C 76.468 3.97592 -1.49017 0
M  V30 801 O 77.492 3.31107 -1.31326 0
M  V30 802 O 76.351 5.16729 -1.77914 0
M  V30 803 H 73.445 0.792799 -0.235368 0
M  V30 804 H 75.991 1.25021 -1.14751 0
M  V30 805 H 74.763 3.097 -2.39168 0
M  V30 806 H 74.386 3.88052 -0.866107 0
M  V30 807 N 75.3831 0.828654 1.34056 0
M  V30 808 C 76.6111 0.43262 2.02326 0
M  V30 809 C 77.0261 -0.963147 1.62385 0
M  V30 810 O 76.3831 -1.62425 0.832121 0
M  V30 811 C 76.4341 0.53182 3.57567 0
M  V30 812 O 76.1551 1.87258 3.96063 0
M  V30 813 C 77.6561 0.131422 4.43105 0
M  V30 814 H 74.8761 0.172923 0.648335 0
M  V30 815 H 77.4201 1.1184 1.71208 0
M  V30 816 H 75.5751 -0.105938 3.87255 0
M  V30 817 H 75.9891 1.85087 4.90758 0
M  V30 818 H 77.4631 0.251904 5.51425 0
M  V30 819 H 77.9401 -0.925645 4.29335 0
M  V30 820 H 78.5461 0.743207 4.18756 0
M  V30 821 N 76.8612 -1.46375 0.584142 0
M  V30 822 C 78.1382 -1.956 0.0033388 0
M  V30 823 C 78.5182 -1.52679 -1.45782 0
M  V30 824 O 77.8662 -0.77816 -2.14842 0
M  V30 825 C 78.0762 -3.48551 0.176891 0
M  V30 826 C 79.4242 -4.24576 0.0454609 0
M  V30 827 O 80.4482 -3.56043 0.105801 0
M  V30 828 O 79.3072 -5.46427 -0.0890376 0
M  V30 829 H 76.4012 -0.825547 -0.0490066 0
M  V30 830 H 78.9472 -1.56652 0.65256 0
M  V30 831 H 77.7192 -3.72683 1.1926 0
M  V30 832 H 77.3422 -3.94332 -0.508695 0
M  V30 833 N 78.3393 -0.321999 -1.54275 0
M  V30 834 C 79.2863 0.544664 -2.24281 0
M  V30 835 C 80.2563 1.1129 -1.23303 0
M  V30 836 O 81.4413 1.15354 -1.51981 0
M  V30 837 C 78.5813 1.70045 -3.00298 0
M  V30 838 C 77.6943 1.16159 -4.1609 0
M  V30 839 C 76.8293 2.28293 -4.79641 0
M  V30 840 C 75.8683 1.71648 -5.8754 0
M  V30 841 N 75.0053 2.77438 -6.44959 0
M  V30 842 H 79.8453 -0.0588907 -2.97942 0
M  V30 843 H 77.3823 -0.0408345 -1.47043 0
M  V30 844 H 79.3403 2.38054 -3.42616 0
M  V30 845 H 77.9703 2.27531 -2.28975 0
M  V30 846 H 77.0223 0.373092 -3.78566 0
M  V30 847 H 78.3343 0.707087 -4.93763 0
M  V30 848 H 77.4883 3.0421 -5.2492 0
M  V30 849 H 76.2273 2.77079 -4.01346 0
M  V30 850 H 75.2323 0.942282 -5.41665 0
M  V30 851 H 76.4573 1.23741 -6.67731 0
M  V30 852 H 74.4033 3.25519 -5.69538 0
M  V30 853 H 74.3203 2.36547 -7.1804 0
M  V30 854 H 75.5883 3.53189 -6.94894 0
M  V30 855 N 79.8174 1.5752 -0.0501392 0
M  V30 856 C 81.0634 1.92936 0.624798 0
M  V30 857 C 81.3964 0.928685 1.70555 0
M  V30 858 O 80.6714 -0.0454779 1.94447 0
M  V30 859 C 80.9544 3.38737 1.22185 0
M  V30 860 C 80.8074 4.49552 0.149218 0
M  V30 861 C 82.1264 3.84913 2.13378 0
M  V30 862 H 79.2454 0.701604 0.225657 0
M  V30 863 H 81.8874 1.89671 -0.111693 0
M  V30 864 H 80.0374 3.4165 1.84953 0
M  V30 865 H 81.7094 4.58768 -0.482648 0
M  V30 866 H 79.9524 4.30638 -0.522841 0
M  V30 867 H 80.6234 5.48653 0.606966 0
M  V30 868 H 83.0994 3.8387 1.60572 0
M  V30 869 H 81.9754 4.87584 2.52097 0
M  V30 870 H 82.2364 3.21611 3.03346 0
M  V30 871 N 81.2955 -0.223234 1.56011 0
M  V30 872 C 82.2255 -1.27988 1.95298 0
M  V30 873 C 83.2065 -1.48976 0.820979 0
M  V30 874 O 84.3915 -1.61188 1.08315 0
M  V30 875 C 81.5215 -2.63 2.26822 0
M  V30 876 C 80.4755 -2.56671 3.42497 0
M  V30 877 C 79.8015 -3.95697 3.59622 0
M  V30 878 C 81.1015 -2.11601 4.77517 0
M  V30 879 H 82.7955 -0.953525 2.8381 0
M  V30 880 H 80.3415 -0.457244 1.36548 0
M  V30 881 H 82.2945 -3.37077 2.52898 0
M  V30 882 H 81.0185 -2.9732 1.35161 0
M  V30 883 H 79.6775 -1.85051 3.16467 0
M  V30 884 H 79.3255 -4.27322 2.6534 0
M  V30 885 H 79.0255 -3.92345 4.37424 0
M  V30 886 H 80.5495 -4.71438 3.88044 0
M  V30 887 H 81.9635 -2.7542 5.02809 0
M  V30 888 H 80.3605 -2.19311 5.5859 0
M  V30 889 H 81.4305 -1.06824 4.72987 0
M  V30 890 N 82.7736 -1.49793 -0.48987 0
M  V30 891 C 83.7216 -1.67783 -1.61095 0
M  V30 892 C 84.7156 -0.543683 -1.60438 0
M  V30 893 O 85.9216 -0.723647 -1.64813 0
M  V30 894 H 82.2966 -0.529255 -0.534222 0
M  V30 895 H 84.2676 -2.61861 -1.43078 0
M  V30 896 C 83.0166 -1.77191 -2.99164 0
M  V30 897 H 82.3396 -2.63841 -3.0038 0
M  V30 898 H 83.7796 -1.93809 -3.77113 0
M  V30 899 C 82.2386 -0.519203 -3.32875 0
M  V30 900 O 82.7686 0.350124 -4.00171 0
M  V30 901 N 80.9746 -0.378816 -2.8812 0
M  V30 902 H 80.5216 -1.08725 -2.33531 0
M  V30 903 H 80.4796 0.458239 -3.11043 0
M  V30 904 N 84.2517 0.741722 -1.39055 0
M  V30 905 C 85.4977 1.50336 -1.36113 0
M  V30 906 C 85.8307 1.94148 0.0450796 0
M  V30 907 O 85.1057 1.66301 1.00868 0
M  V30 908 C 85.3887 2.74773 -2.32749 0
M  V30 909 C 85.2417 2.37023 -3.82283 0
M  V30 910 C 86.5607 3.76846 -2.27322 0
M  V30 911 H 83.6797 0.545351 -0.495743 0
M  V30 912 H 86.3217 0.848624 -1.69995 0
M  V30 913 H 84.4717 3.30639 -2.03986 0
M  V30 914 H 86.1437 1.8684 -4.21768 0
M  V30 915 H 84.3867 1.69334 -3.99385 0
M  V30 916 H 85.0577 3.26104 -4.45376 0
M  V30 917 H 87.5337 3.30548 -2.5274 0
M  V30 918 H 86.4097 4.6159 -2.97028 0
M  V30 919 H 86.6707 4.23286 -1.27599 0
M  V30 920 N 85.7298 1.2412 0.971189 0
M  V30 921 C 86.9578 1.10575 1.74874 0
M  V30 922 C 87.3728 -0.342017 1.85676 0
M  V30 923 O 86.7298 -1.23617 1.34258 0
M  V30 924 C 86.7808 1.73579 3.171 0
M  V30 925 O 86.5018 3.12695 3.06844 0
M  V30 926 C 88.0028 1.65598 4.11208 0
M  V30 927 H 85.2228 0.386504 0.548503 0
M  V30 928 H 87.7668 1.64156 1.21955 0
M  V30 929 H 85.9218 1.24009 3.67016 0
M  V30 930 H 86.3358 3.43412 3.96445 0
M  V30 931 H 87.8098 2.1437 5.08674 0
M  V30 932 H 88.2868 0.616532 4.34851 0
M  V30 933 H 88.8928 2.14578 3.67201 0
M  V30 934 N 87.2079 -1.17134 1.05439 0
M  V30 935 C 88.1379 -2.2342 0.678649 0
M  V30 936 C 89.1189 -1.66971 -0.32476 0
M  V30 937 O 90.3039 -1.93149 -0.201802 0
M  V30 938 C 87.4339 -3.47256 0.0552099 0
M  V30 939 C 86.3879 -4.16543 0.98365 0
M  V30 940 C 85.7139 -5.34231 0.223961 0
M  V30 941 C 87.0139 -4.68495 2.3089 0
M  V30 942 H 88.7079 -2.55105 1.56722 0
M  V30 943 H 86.2539 -1.2262 0.754998 0
M  V30 944 H 88.2069 -4.20828 -0.21946 0
M  V30 945 H 86.9309 -3.14846 -0.868319 0
M  V30 946 H 85.5899 -3.44887 1.24293 0
M  V30 947 H 85.2379 -4.98071 -0.702412 0
M  V30 948 H 84.9379 -5.81527 0.842627 0
M  V30 949 H 86.4619 -6.10585 -0.0433671 0
M  V30 950 H 87.8759 -5.33691 2.09396 0
M  V30 951 H 86.2729 -5.26379 2.88176 0
M  V30 952 H 87.3429 -3.85169 2.94572 0
M  V30 953 N 88.686 -0.835752 -1.33615 0
M  V30 954 C 89.618 -0.224151 -2.28101 0
M  V30 955 C 90.631 0.593331 -1.51603 0
M  V30 956 O 91.82 0.420911 -1.73466 0
M  V30 957 C 88.92 0.703309 -3.31522 0
M  V30 958 C 88.093 -0.0741528 -4.37337 0
M  V30 959 C 87.152 0.776176 -5.20444 0
M  V30 960 O 86.178 0.216506 -5.68788 0
M  V30 961 N 87.38 2.09401 -5.41416 0
M  V30 962 H 90.145 -1.03598 -2.81225 0
M  V30 963 H 87.706 -0.69392 -1.46275 0
M  V30 964 H 89.698 1.27707 -3.84022 0
M  V30 965 H 88.268 1.41585 -2.78698 0
M  V30 966 H 87.488 -0.82928 -3.85378 0
M  V30 967 H 88.776 -0.608863 -5.05144 0
M  V30 968 H 88.174 2.57229 -5.03835 0
M  V30 969 H 86.731 2.61633 -5.96985 0
M  V30 970 N 90.1641 1.46063 -0.591896 0
M  V30 971 C 91.4131 2.01547 -0.0786637 0
M  V30 972 C 91.7261 1.46796 1.29268 0
M  V30 973 O 92.9321 1.94157 1.89777 0
M  V30 974 C 91.3881 3.59787 -0.0900024 0
M  V30 975 C 90.9961 4.23534 -1.46023 0
M  V30 976 C 92.7401 4.22895 0.368806 0
M  V30 977 C 90.6471 5.73881 -1.4288 0
M  V30 978 H 89.5771 0.753564 -0.0256388 0
M  V30 979 H 92.2281 1.677 -0.744905 0
M  V30 980 H 90.6101 3.90752 0.642586 0
M  V30 981 H 91.7841 4.04167 -2.21328 0
M  V30 982 H 90.0991 3.72558 -1.85982 0
M  V30 983 H 92.6961 5.33116 0.411258 0
M  V30 984 H 93.0391 3.9247 1.38827 0
M  V30 985 H 93.5721 3.9659 -0.31001 0
M  V30 986 H 90.3111 6.0898 -2.42536 0
M  V30 987 H 89.8311 5.95486 -0.718095 0
M  V30 988 H 91.5101 6.36776 -1.14565 0
M  V30 989 N 91.6422 0.330177 1.54103 0
M  V30 990 C 92.8702 -0.272179 2.05102 0
M  V30 991 C 93.2852 -1.45267 1.20595 0
M  V30 992 O 92.6422 -1.8094 0.238144 0
M  V30 993 C 92.6932 -0.70023 3.54653 0
M  V30 994 O 92.4142 0.433301 4.35952 0
M  V30 995 C 93.9152 -1.3647 4.21771 0
M  V30 996 H 91.1352 -0.0549159 0.668749 0
M  V30 997 H 93.6792 0.478285 1.98828 0
M  V30 998 H 91.8342 -1.40066 3.61193 0
M  V30 999 H 92.2482 0.0947539 5.24414 0
M  V30 1000 H 93.7222 -1.61509 5.27843 0
M  V30 1001 H 94.1992 -2.31409 3.73292 0
M  V30 1002 H 94.8052 -0.706675 4.19388 0
M  V30 1003 N 93.1203 -1.57491 0.0584922 0
M  V30 1004 C 94.0503 -2.14988 -0.911178 0
M  V30 1005 C 95.0313 -1.07343 -1.31952 0
M  V30 1006 O 96.2163 -1.35318 -1.39294 0
M  V30 1007 C 93.3463 -2.70078 -2.18347 0
M  V30 1008 C 92.3003 -3.82771 -1.91495 0
M  V30 1009 C 91.6263 -4.24408 -3.25241 0
M  V30 1010 C 92.9263 -5.07592 -1.23075 0
M  V30 1011 H 94.6203 -2.96263 -0.432246 0
M  V30 1012 H 92.1663 -1.42512 -0.206469 0
M  V30 1013 H 94.1193 -3.08943 -2.86587 0
M  V30 1014 H 92.8433 -1.86005 -2.68458 0
M  V30 1015 H 91.5023 -3.44389 -1.25664 0
M  V30 1016 H 91.1503 -3.37275 -3.73168 0
M  V30 1017 H 90.8503 -5.00366 -3.08071 0
M  V30 1018 H 92.3743 -4.65879 -3.94701 0
M  V30 1019 H 93.7883 -5.43857 -1.81362 0
M  V30 1020 H 92.1853 -5.88741 -1.16207 0
M  V30 1021 H 93.2553 -4.84454 -0.207847 0
M  V30 1022 N 94.5984 0.214957 -1.56127 0
M  V30 1023 C 95.8234 0.95924 -1.83884 0
M  V30 1024 C 96.2484 1.7689 -0.639644 0
M  V30 1025 O 95.6064 1.76566 0.411601 0
M  V30 1026 C 95.6544 1.84723 -3.09693 0
M  V30 1027 O 94.7584 2.94346 -2.8885 0
M  V30 1028 H 94.0994 0.27125 -0.606069 0
M  V30 1029 H 96.6294 0.226276 -2.03345 0
M  V30 1030 H 96.6394 2.25576 -3.39969 0
M  V30 1031 H 95.3144 1.25218 -3.96602 0
M  V30 1032 H 93.8914 2.57391 -2.69823 0
M  V30 1033 N 96.0765 1.50051 0.48192 0
M  V30 1034 C 97.0085 1.64263 1.59844 0
M  V30 1035 C 98.0215 0.52451 1.54119 0
M  V30 1036 O 99.2105 0.797293 1.59704 0
M  V30 1037 C 96.3105 1.60102 2.98698 0
M  V30 1038 C 95.4835 2.87767 3.29407 0
M  V30 1039 C 94.5425 2.76397 4.47762 0
M  V30 1040 O 93.5685 3.50348 4.48603 0
M  V30 1041 N 94.7705 1.89222 5.48794 0
M  V30 1042 H 97.5355 2.60566 1.48073 0
M  V30 1043 H 95.0965 1.47379 0.670149 0
M  V30 1044 H 97.0885 1.50123 3.75826 0
M  V30 1045 H 95.6585 0.715798 3.04294 0
M  V30 1046 H 94.8785 3.11954 2.40994 0
M  V30 1047 H 96.1665 3.72365 3.4673 0
M  V30 1048 H 95.5645 1.28434 5.50928 0
M  V30 1049 H 94.1215 1.85154 6.24949 0
M  V30 1050 N 97.5546 -0.734337 1.39446 0
M  V30 1051 C 98.8036 -1.48937 1.36017 0
M  V30 1052 C 99.1166 -1.95557 -0.0409005 0
M  V30 1053 O 100.323 -2.70779 -0.19778 0
M  V30 1054 C 98.7786 -2.69125 2.38955 0
M  V30 1055 C 98.3866 -2.29452 3.8478 0
M  V30 1056 C 100.131 -3.46944 2.44603 0
M  V30 1057 C 98.0376 -3.46366 4.79358 0
M  V30 1058 H 96.9676 -0.559296 0.505672 0
M  V30 1059 H 99.6186 -0.800983 1.65095 0
M  V30 1060 H 98.0006 -3.40041 2.02948 0
M  V30 1061 H 99.1746 -1.66077 4.29831 0
M  V30 1062 H 97.4896 -1.64723 3.82433 0
M  V30 1063 H 100.087 -4.33907 3.12456 0
M  V30 1064 H 100.43 -3.89454 1.47076 0
M  V30 1065 H 100.963 -2.83056 2.79507 0
M  V30 1066 H 97.7016 -3.08905 5.78151 0
M  V30 1067 H 97.2216 -4.08719 4.38986 0
M  V30 1068 H 98.9006 -4.12691 4.98292 0
M  V30 1069 N 99.0327 -1.24633 -0.964593 0
M  V30 1070 C 99.9797 -1.04144 -2.05968 0
M  V30 1071 C 100.95 0.046262 -1.66036 0
M  V30 1072 O 102.135 -0.108972 -1.90489 0
M  V30 1073 C 99.2747 -0.65563 -3.38815 0
M  V30 1074 C 98.3877 -1.81714 -3.91923 0
M  V30 1075 C 97.5227 -1.37662 -5.13052 0
M  V30 1076 C 96.5617 -2.50788 -5.58365 0
M  V30 1077 N 95.6987 -2.07582 -6.70712 0
M  V30 1078 H 100.539 -1.9787 -2.22827 0
M  V30 1079 H 98.0757 -0.9855 -1.09208 0
M  V30 1080 H 100.034 -0.412954 -4.15151 0
M  V30 1081 H 98.6637 0.244627 -3.21872 0
M  V30 1082 H 97.7157 -2.1734 -3.12198 0
M  V30 1083 H 99.0277 -2.66705 -4.21509 0
M  V30 1084 H 98.1817 -1.093 -5.96773 0
M  V30 1085 H 96.9207 -0.497293 -4.85158 0
M  V30 1086 H 95.9257 -2.79906 -4.73215 0
M  V30 1087 H 97.1507 -3.39283 -5.88272 0
M  V30 1088 H 95.0967 -1.22051 -6.44546 0
M  V30 1089 H 95.0137 -2.86125 -6.99763 0
M  V30 1090 H 96.2817 -1.82369 -7.57867 0
M  V30 1091 N 100.511 1.16574 -1.06058 0
M  V30 1092 C 101.788 1.83048 -0.689416 0
M  V30 1093 C 102.168 1.94122 0.829443 0
M  V30 1094 O 101.516 1.48249 1.7388 0
M  V30 1095 C 101.726 3.20186 -1.38859 0
M  V30 1096 C 103.074 3.95989 -1.53226 0
M  V30 1097 O 104.098 3.29696 -1.3483 0
M  V30 1098 O 102.957 5.14813 -1.83384 0
M  V30 1099 H 100.051 0.790258 -0.243764 0
M  V30 1100 H 102.597 1.23797 -1.16071 0
M  V30 1101 H 101.369 3.07146 -2.4244 0
M  V30 1102 H 100.992 3.87112 -0.907216 0
M  V30 1103 N 101.989 0.842826 1.3317 0
M  V30 1104 C 102.922 0.223862 2.27099 0
M  V30 1105 C 103.9 -0.631311 1.49844 0
M  V30 1106 O 105.084 -0.590708 1.79005 0
M  V30 1107 C 102.211 -0.685313 3.31694 0
M  V30 1108 C 101.257 0.094919 4.26394 0
M  V30 1109 S 102.09 1.45546 5.15341 0
M  V30 1110 C 103.246 0.551685 6.23464 0
M  V30 1111 H 103.479 1.02015 2.79249 0
M  V30 1112 H 101.012 0.639797 1.4052 0
M  V30 1113 H 102.97 -1.20426 3.92438 0
M  V30 1114 H 101.631 -1.4553 2.78352 0
M  V30 1115 H 100.824 -0.597059 5.00451 0
M  V30 1116 H 100.426 0.545054 3.70007 0
M  V30 1117 H 102.718 -0.248877 6.77043 0
M  V30 1118 H 103.661 1.26253 6.96754 0
M  V30 1119 H 104.069 0.131275 5.64347 0
M  V30 1120 N 103.467 -1.45747 0.599634 0
M  V30 1121 C 104.744 -1.95585 0.0240846 0
M  V30 1122 C 105.124 -1.54217 -1.44154 0
M  V30 1123 O 104.472 -0.800903 -2.14004 0
M  V30 1124 C 104.682 -3.48344 0.21385 0
M  V30 1125 C 106.03 -4.24504 0.0904902 0
M  V30 1126 O 107.054 -3.55911 0.143558 0
M  V30 1127 O 105.913 -5.46491 -0.0310766 0
M  V30 1128 H 103.007 -0.82602 -0.0402478 0
M  V30 1129 H 105.553 -1.55951 0.669139 0
M  V30 1130 H 104.325 -3.71397 1.23206 0
M  V30 1131 H 103.948 -3.9485 -0.466842 0
M  V30 1132 N 104.945 -0.338344 -1.53925 0
M  V30 1133 C 105.855 0.529421 -2.28548 0
M  V30 1134 C 106.871 1.11645 -1.3346 0
M  V30 1135 O 108.047 1.13325 -1.66492 0
M  V30 1136 C 105.112 1.66713 -3.03987 0
M  V30 1137 C 104.173 1.11041 -4.14691 0
M  V30 1138 C 103.406 2.19389 -4.86522 0
M  V30 1139 O 103.629 3.40013 -4.57982 0
M  V30 1140 O 102.563 1.83976 -5.73094 0
M  V30 1141 H 106.389 -0.0770399 -3.03602 0
M  V30 1142 H 103.974 -0.103555 -1.49041 0
M  V30 1143 H 105.856 2.32918 -3.5118 0
M  V30 1144 H 104.531 2.25949 -2.31794 0
M  V30 1145 H 103.438 0.413024 -3.71813 0
M  V30 1146 H 104.771 0.562975 -4.8897 0
M  V30 1147 N 106.423 1.57458 -0.0668435 0
M  V30 1148 C 107.839 1.56947 0.289772 0
M  V30 1149 C 108.039 1.07584 1.70376 0
M  V30 1150 O 107.095 0.739486 2.41429 0
M  V30 1151 C 108.408 3.0052 0.103943 0
M  V30 1152 C 109.956 3.12517 0.173857 0
M  V30 1153 C 110.431 4.57997 0.0163682 0
M  V30 1154 N 111.922 4.63144 0.0721352 0
M  V30 1155 C 112.657 5.73394 -0.0253794 0
M  V30 1156 N 112.153 6.92576 -0.176133 0
M  V30 1157 N 113.946 5.62091 0.0313305 0
M  V30 1158 H 106.097 1.87863 -0.991027 0
M  V30 1159 H 108.36 0.86583 -0.38606 0
M  V30 1160 H 108.066 3.40729 -0.871572 0
M  V30 1161 H 107.94 3.67304 0.858366 0
M  V30 1162 H 110.327 2.72197 1.13985 0
M  V30 1163 H 110.408 2.48381 -0.611586 0
M  V30 1164 H 110.052 4.99005 -0.946374 0
M  V30 1165 H 109.982 5.20158 0.821153 0
M  V30 1166 H 112.473 3.77436 0.187263 0
M  V30 1167 H 112.786 7.72418 -0.242821 0
M  V30 1168 H 111.131 6.94678 -0.211429 0
M  V30 1169 H 114.322 4.67867 0.147773 0
M  V30 1170 H 114.495 6.47982 -0.048121 0
M  V30 1171 N 107.901 -0.206675 1.56239 0
M  V30 1172 C 108.849 -1.27571 1.94495 0
M  V30 1173 C 109.843 -1.47737 0.828862 0
M  V30 1174 O 111.049 -1.48735 1.0138 0
M  V30 1175 H 107.424 -0.428029 0.6183 0
M  V30 1176 H 109.395 -0.925961 2.8367 0
M  V30 1177 C 108.144 -2.61568 2.29079 0
M  V30 1178 H 107.467 -2.46863 3.14482 0
M  V30 1179 H 108.907 -3.35144 2.5972 0
M  V30 1180 C 107.366 -3.17695 1.12123 0
M  V30 1181 O 107.896 -3.99801 0.390153 0
M  V30 1182 N 106.102 -2.76276 0.901097 0
M  V30 1183 H 105.649 -2.09613 1.49733 0
M  V30 1184 H 105.607 -3.1417 0.120319 0
M  V30 1185 N 109.379 -1.50304 -0.473955 0
M  V30 1186 C 110.311 -1.65109 -1.58971 0
M  V30 1187 C 111.324 -0.532676 -1.53839 0
M  V30 1188 O 112.513 -0.805751 -1.59279 0
M  V30 1189 C 109.613 -1.61684 -2.97845 0
M  V30 1190 C 108.786 -2.8951 -3.27876 0
M  V30 1191 C 107.845 -2.78768 -4.4629 0
M  V30 1192 O 106.871 -3.52722 -4.46739 0
M  V30 1193 N 108.073 -1.9213 -5.47783 0
M  V30 1194 H 110.838 -2.61347 -1.46689 0
M  V30 1195 H 108.399 -1.47732 -0.662324 0
M  V30 1196 H 110.391 -1.52114 -3.75024 0
M  V30 1197 H 108.961 -0.731925 -3.03911 0
M  V30 1198 H 108.181 -3.13228 -2.39336 0
M  V30 1199 H 109.469 -3.74199 -3.4475 0
M  V30 1200 H 108.867 -1.31353 -5.50239 0
M  V30 1201 H 107.424 -1.88466 -6.23958 0
M  V30 1202 N 110.857 0.726932 -1.39834 0
M  V30 1203 C 112.106 1.48214 -1.36805 0
M  V30 1204 C 112.419 1.95576 0.0305291 0
M  V30 1205 O 113.625 2.7088 0.183417 0
M  V30 1206 C 112.081 2.67854 -2.40379 0
M  V30 1207 C 111.689 2.27408 -3.85992 0
M  V30 1208 C 113.433 3.45641 -2.46439 0
M  V30 1209 C 111.34 3.43819 -4.81189 0
M  V30 1210 H 110.27 0.556606 -0.508631 0
M  V30 1211 H 112.921 0.792216 -1.65518 0
M  V30 1212 H 111.303 3.3896 -2.04749 0
M  V30 1213 H 112.477 1.63795 -4.30706 0
M  V30 1214 H 110.792 1.62692 -3.83302 0
M  V30 1215 H 113.389 4.32244 -3.14753 0
M  V30 1216 H 113.732 3.88669 -1.49139 0
M  V30 1217 H 114.265 2.8157 -2.81004 0
M  V30 1218 H 111.004 3.05834 -5.79781 0
M  V30 1219 H 110.524 4.06385 -4.41148 0
M  V30 1220 H 112.203 4.10043 -5.00474 0
M  V30 1221 N 112.336 1.25143 0.95797 0
M  V30 1222 C 113.266 1.07711 2.07173 0
M  V30 1223 C 114.247 -0.0128462 1.70095 0
M  V30 1224 O 115.432 0.156061 1.93572 0
M  V30 1225 C 112.562 0.691503 3.40346 0
M  V30 1226 C 111.516 1.73132 3.9142 0
M  V30 1227 C 110.842 1.20049 5.21049 0
M  V30 1228 C 112.142 3.1294 4.1817 0
M  V30 1229 H 113.836 2.00873 2.22014 0
M  V30 1230 H 111.382 0.967191 1.06684 0
M  V30 1231 H 113.335 0.556505 4.17709 0
M  V30 1232 H 112.059 -0.275819 3.25433 0
M  V30 1233 H 110.718 1.8547 3.16222 0
M  V30 1234 H 110.366 0.223499 5.02503 0
M  V30 1235 H 110.066 1.89545 5.56189 0
M  V30 1236 H 111.59 1.07782 6.01012 0
M  V30 1237 H 113.004 3.03775 4.86203 0
M  V30 1238 H 111.401 3.79875 4.64559 0
M  V30 1239 H 112.471 3.6025 3.24573 0
M  V30 1240 N 113.814 -1.1601 1.06675 0
M  V30 1241 C 115.042 -1.90527 0.806667 0
M  V30 1242 C 115.457 -1.77643 -0.639396 0
M  V30 1243 O 114.814 -1.12369 -1.43803 0
M  V30 1244 C 114.865 -3.41106 1.19705 0
M  V30 1245 O 114.586 -3.53608 2.58636 0
M  V30 1246 C 116.087 -4.32663 0.965266 0
M  V30 1247 H 113.307 -0.604053 0.292166 0
M  V30 1248 H 115.851 -1.47026 1.4214 0
M  V30 1249 H 114.006 -3.82296 0.626774 0
M  V30 1250 H 114.42 -4.47011 2.74375 0
M  V30 1251 H 115.894 -5.36763 1.288 0
M  V30 1252 H 116.371 -4.39089 -0.0987936 0
M  V30 1253 H 116.977 -3.97206 1.52011 0
M  V30 1254 N 115.292 -0.849877 -1.32721 0
M  V30 1255 C 116.255 -0.296122 -2.27279 0
M  V30 1256 C 117.255 0.541458 -1.5141 0
M  V30 1257 O 118.445 0.353658 -1.70572 0
M  V30 1258 C 115.577 0.581579 -3.35902 0
M  V30 1259 H 116.77 -1.13064 -2.77771 0
M  V30 1260 H 114.323 -0.62383 -1.43311 0
M  V30 1261 H 115.058 1.43809 -2.9067 0
M  V30 1262 H 114.843 -0.0178814 -3.92096 0
M  V30 1263 H 116.333 0.961951 -4.0637 0
M  V30 1264 N 116.77 1.45427 -0.607355 0
M  V30 1265 C 118 2.06314 -0.108656 0
M  V30 1266 C 118.408 1.45269 1.21217 0
M  V30 1267 O 117.751 0.561115 1.74921 0
M  V30 1268 C 117.813 3.59345 0.105618 0
M  V30 1269 C 117.477 4.42723 -1.13337 0
M  V30 1270 C 118.474 4.77715 -2.05145 0
M  V30 1271 C 116.159 4.83478 -1.36213 0
M  V30 1272 C 118.153 5.52317 -3.18158 0
M  V30 1273 C 115.84 5.57835 -2.49527 0
M  V30 1274 C 116.838 5.92171 -3.40327 0
M  V30 1275 O 116.526 6.65019 -4.51669 0
M  V30 1276 H 116.258 0.672782 -0.0658842 0
M  V30 1277 H 118.812 1.87664 -0.834945 0
M  V30 1278 H 117.042 3.76394 0.886796 0
M  V30 1279 H 118.731 4.02076 0.555886 0
M  V30 1280 H 119.497 4.46787 -1.88697 0
M  V30 1281 H 115.376 4.56188 -0.664362 0
M  V30 1282 H 118.92 5.79036 -3.89054 0
M  V30 1283 H 114.817 5.88177 -2.65928 0
M  V30 1284 H 115.585 6.83469 -4.50348 0
M  V30 1285 N 118.248 0.346503 1.53744 0
M  V30 1286 C 119.178 -0.501193 2.28058 0
M  V30 1287 C 120.159 -1.10014 1.29734 0
M  V30 1288 O 121.344 -1.12097 1.58581 0
M  V30 1289 C 118.474 -1.65078 3.05559 0
M  V30 1290 C 117.428 -1.18003 4.11411 0
M  V30 1291 C 116.754 -2.41837 4.76884 0
M  V30 1292 C 118.054 -0.278394 5.21558 0
M  V30 1293 H 119.748 0.11875 2.99164 0
M  V30 1294 H 117.294 0.0585531 1.43881 0
M  V30 1295 H 119.247 -2.25028 3.56287 0
M  V30 1296 H 117.971 -2.29767 2.32109 0
M  V30 1297 H 116.63 -0.603331 3.61601 0
M  V30 1298 H 116.278 -3.0494 4.00026 0
M  V30 1299 H 115.978 -2.1102 5.48402 0
M  V30 1300 H 117.502 -3.02508 5.30397 0
M  V30 1301 H 118.916 -0.784823 5.67903 0
M  V30 1302 H 117.313 -0.0619707 6.00068 0
M  V30 1303 H 118.383 0.684677 4.80042 0
M  V30 1304 N 119.726 -1.57421 0.075193 0
M  V30 1305 C 120.972 -1.94716 -0.587998 0
M  V30 1306 C 121.327 -0.955205 -1.67014 0
M  V30 1307 O 120.62 0.0219842 -1.91587 0
M  V30 1308 C 120.814 -3.36428 -1.20626 0
M  V30 1309 C 120.643 -4.49317 -0.185541 0
M  V30 1310 C 119.413 -5.04772 0.23099 0
M  V30 1311 C 121.611 -5.11036 0.57854 0
M  V30 1312 N 119.593 -6.01204 1.24206 0
M  V30 1313 C 120.964 -6.02998 1.44199 0
M  V30 1314 C 123.019 -4.93844 0.634237 0
M  V30 1315 C 121.722 -6.79614 2.3562 0
M  V30 1316 C 123.748 -5.71106 1.53597 0
M  V30 1317 C 123.11 -6.6272 2.38709 0
M  V30 1318 H 119.209 -0.759536 -0.186089 0
M  V30 1319 H 121.793 -1.94097 0.153128 0
M  V30 1320 H 119.964 -3.37778 -1.9173 0
M  V30 1321 H 121.696 -3.60951 -1.8302 0
M  V30 1322 H 118.451 -4.73353 -0.152807 0
M  V30 1323 H 118.875 -6.54119 1.74521 0
M  V30 1324 H 123.517 -4.22799 -0.00960004 0
M  V30 1325 H 121.235 -7.49934 3.01038 0
M  V30 1326 H 124.821 -5.59824 1.58394 0
M  V30 1327 H 123.701 -7.2146 3.07352 0
M  V30 1328 N 121.204 0.198386 -1.56346 0
M  V30 1329 C 122.453 0.917451 -1.79627 0
M  V30 1330 C 122.766 1.8456 -0.64784 0
M  V30 1331 O 123.972 2.60504 -0.764859 0
M  V30 1332 C 122.428 1.68175 -3.18191 0
M  V30 1333 C 122.036 0.798589 -4.40825 0
M  V30 1334 C 123.78 2.39065 -3.50782 0
M  V30 1335 C 121.687 1.56157 -5.70411 0
M  V30 1336 H 120.617 0.346317 -0.669762 0
M  V30 1337 H 123.268 0.170801 -1.82703 0
M  V30 1338 H 121.65 2.47216 -3.09354 0
M  V30 1339 H 122.824 0.0470665 -4.60776 0
M  V30 1340 H 121.139 0.200686 -4.15916 0
M  V30 1341 H 123.736 2.96692 -4.44835 0
M  V30 1342 H 124.079 3.13091 -2.74371 0
M  V30 1343 H 124.612 1.66993 -3.61052 0
M  V30 1344 H 121.351 0.864142 -6.49779 0
M  V30 1345 H 120.871 2.2871 -5.54483 0
M  V30 1346 H 122.55 2.11622 -6.11412 0
M  V30 1347 N 122.682 1.50554 0.465978 0
M  V30 1348 C 124.098 1.38093 0.800154 0
M  V30 1349 C 124.298 0.440988 1.96615 0
M  V30 1350 O 123.354 -0.114499 2.5224 0
M  V30 1351 C 124.667 2.79565 1.10742 0
M  V30 1352 C 126.215 2.88516 1.21357 0
M  V30 1353 C 126.69 4.30833 1.55393 0
M  V30 1354 N 128.181 4.33807 1.62375 0
M  V30 1355 C 128.916 5.40927 1.90225 0
M  V30 1356 N 128.412 6.58247 2.16062 0
M  V30 1357 N 130.205 5.28376 1.9177 0
M  V30 1358 H 122.356 2.10237 -0.302366 0
M  V30 1359 H 124.619 0.945203 -0.0727746 0
M  V30 1360 H 124.325 3.50208 0.323661 0
M  V30 1361 H 124.199 3.17125 2.04234 0
M  V30 1362 H 126.586 2.1809 1.98799 0
M  V30 1363 H 126.667 2.54492 0.258321 0
M  V30 1364 H 126.311 5.01799 0.784889 0
M  V30 1365 H 126.241 4.62347 2.52076 0
M  V30 1366 H 128.732 3.49212 1.44427 0
M  V30 1367 H 129.045 7.3569 2.36601 0
M  V30 1368 H 127.39 6.61413 2.13444 0
M  V30 1369 H 130.581 4.35715 1.71085 0
M  V30 1370 H 130.754 6.11944 2.13139 0
M  V30 1371 N 124.16 -0.719506 1.40217 0
M  V30 1372 C 125.092 -1.84428 1.36084 0
M  V30 1373 C 126.105 -1.60597 0.266913 0
M  V30 1374 O 127.294 -1.70544 0.526983 0
M  V30 1375 C 124.394 -3.20757 1.094 0
M  V30 1376 C 123.567 -3.71817 2.30372 0
M  V30 1377 C 122.626 -4.86748 1.99907 0
M  V30 1378 O 121.652 -4.99603 2.72737 0
M  V30 1379 N 122.854 -5.7226 0.974635 0
M  V30 1380 H 125.619 -1.88473 2.33019 0
M  V30 1381 H 123.18 -0.900885 1.3452 0
M  V30 1382 H 125.172 -3.95235 0.870116 0
M  V30 1383 H 123.742 -3.11884 0.211452 0
M  V30 1384 H 122.962 -2.88514 2.68614 0
M  V30 1385 H 124.25 -4.02666 3.11026 0
M  V30 1386 H 123.648 -5.6448 0.371368 0
M  V30 1387 H 122.205 -6.46739 0.810656 0
M  V30 1388 N 125.638 -1.25649 -0.95132 0
M  V30 1389 C 126.887 -1.09988 -1.69073 0
M  V30 1390 C 127.2 0.358355 -1.92289 0
M  V30 1391 O 128.406 0.635466 -2.63958 0
M  V30 1392 C 126.862 -1.92012 -3.044 0
M  V30 1393 C 126.47 -3.42347 -2.88968 0
M  V30 1394 C 128.214 -1.8493 -3.82101 0
M  V30 1395 C 126.121 -4.16655 -4.19705 0
M  V30 1396 H 125.051 -0.407993 -0.63408 0
M  V30 1397 H 127.702 -1.49873 -1.05879 0
M  V30 1398 H 126.084 -1.44952 -3.68517 0
M  V30 1399 H 127.258 -3.97104 -2.33762 0
M  V30 1400 H 125.573 -3.50557 -2.24719 0
M  V30 1401 H 128.17 -2.37739 -4.78941 0
M  V30 1402 H 128.513 -0.817883 -4.08187 0
M  V30 1403 H 129.046 -2.29758 -3.2474 0
M  V30 1404 H 125.785 -5.20224 -3.98807 0
M  V30 1405 H 125.305 -3.66681 -4.74663 0
M  V30 1406 H 126.984 -4.24551 -4.88227 0
M  V30 1407 N 127.117 1.15442 -1.07289 0
M  V30 1408 C 128.363 1.8672 -0.806679 0
M  V30 1409 C 128.718 1.80723 0.660084 0
M  V30 1410 O 128.011 1.21902 1.47819 0
M  V30 1411 C 128.205 3.3489 -1.24834 0
M  V30 1412 C 128.034 3.55313 -2.7565 0
M  V30 1413 C 126.804 3.7082 -3.4325 0
M  V30 1414 C 129.002 3.53188 -3.73848 0
M  V30 1415 N 126.984 3.7929 -4.82713 0
M  V30 1416 C 128.355 3.67765 -4.99149 0
M  V30 1417 C 130.41 3.36459 -3.67015 0
M  V30 1418 C 129.113 3.6734 -6.18428 0
M  V30 1419 C 131.139 3.37333 -4.85758 0
M  V30 1420 C 130.501 3.52438 -6.09891 0
M  V30 1421 H 126.6 0.700433 -0.347733 0
M  V30 1422 H 129.184 1.38441 -1.36902 0
M  V30 1423 H 127.355 3.81786 -0.713713 0
M  V30 1424 H 129.087 3.93875 -0.929745 0
M  V30 1425 H 125.842 3.71568 -2.93656 0
M  V30 1426 H 126.266 3.8727 -5.55294 0
M  V30 1427 H 130.908 3.237 -2.71989 0
M  V30 1428 H 128.626 3.78878 -7.13777 0
M  V30 1429 H 132.212 3.25617 -4.82146 0
M  V30 1430 H 131.092 3.53047 -7.00234 0
M  V30 1431 N 128.595 0.856903 1.32268 0
M  V30 1432 C 129.545 0.274899 2.26337 0
M  V30 1433 C 130.529 -0.580543 1.50062 0
M  V30 1434 O 131.721 -0.429559 1.71708 0
M  V30 1435 C 128.85 -0.533841 3.39124 0
M  V30 1436 C 127.936 0.334114 4.22782 0
M  V30 1437 N 128.327 1.42143 4.85416 0
M  V30 1438 C 126.625 0.124256 4.45827 0
M  V30 1439 C 127.326 1.95559 5.47843 0
M  V30 1440 N 126.302 1.25444 5.28928 0
M  V30 1441 H 130.104 1.10612 2.72291 0
M  V30 1442 H 127.618 0.703258 1.46383 0
M  V30 1443 H 129.615 -0.96722 4.05525 0
M  V30 1444 H 128.275 -1.36283 2.94715 0
M  V30 1445 H 129.286 1.80436 4.85451 0
M  V30 1446 H 125.963 -0.669837 4.12092 0
M  V30 1447 H 127.353 2.86714 6.07655 0
M  V30 1448 N 130.073 -1.45103 0.615059 0
M  V30 1449 C 131.35 -1.95549 0.0448276 0
M  V30 1450 C 131.73 -1.55737 -1.4251 0
M  V30 1451 O 131.078 -0.823556 -2.13143 0
M  V30 1452 C 131.288 -3.48098 0.250785 0
M  V30 1453 C 132.636 -4.24384 0.135509 0
M  V30 1454 O 133.66 -3.55738 0.181299 0
M  V30 1455 O 132.519 -5.46493 0.0268878 0
M  V30 1456 H 129.613 -0.8264 -0.0314845 0
M  V30 1457 H 132.159 -1.55232 0.685642 0
M  V30 1458 H 130.931 -3.7007 1.27139 0
M  V30 1459 H 130.554 -3.95323 -0.424937 0
M  V30 1460 N 131.551 -0.354651 -1.53558 0
M  V30 1461 C 132.514 0.484566 -2.24019 0
M  V30 1462 C 133.514 1.01861 -1.24422 0
M  V30 1463 O 134.704 0.906097 -1.4878 0
M  V30 1464 C 131.836 1.67615 -2.96847 0
M  V30 1465 H 133.029 -0.131843 -2.9961 0
M  V30 1466 H 130.582 -0.106165 -1.55939 0
M  V30 1467 H 131.317 2.33095 -2.25471 0
M  V30 1468 H 131.102 1.30029 -3.69912 0
M  V30 1469 H 132.592 2.27114 -3.50441 0
M  V30 1470 N 133.029 1.57378 -0.0835403 0
M  V30 1471 C 134.259 1.97975 0.590713 0
M  V30 1472 C 134.667 0.961083 1.62972 0
M  V30 1473 O 134.01 -0.0590879 1.83605 0
M  V30 1474 C 134.072 3.34915 1.3066 0
M  V30 1475 C 133.736 4.55069 0.419698 0
M  V30 1476 C 134.733 5.18868 -0.32749 0
M  V30 1477 C 132.418 5.0114 0.341137 0
M  V30 1478 C 134.412 6.27098 -1.14134 0
M  V30 1479 C 132.099 6.0924 -0.476374 0
M  V30 1480 C 133.097 6.72083 -1.21627 0
M  V30 1481 O 132.785 7.781 -2.02028 0
M  V30 1482 H 132.517 0.655818 0.163947 0
M  V30 1483 H 135.071 2.04807 -0.156021 0
M  V30 1484 H 133.301 3.24733 2.09966 0
M  V30 1485 H 134.99 3.60037 1.87424 0
M  V30 1486 H 135.756 4.84211 -0.276459 0
M  V30 1487 H 131.635 4.51996 0.90668 0
M  V30 1488 H 135.179 6.7608 -1.71935 0
M  V30 1489 H 131.076 6.43329 -0.528927 0
M  V30 1490 H 131.844 7.95034 -1.94586 0
M  V30 1491 N 134.507 -0.190092 1.56449 0
M  V30 1492 C 135.437 -1.23816 1.97969 0
M  V30 1493 C 136.418 -1.47201 0.852395 0
M  V30 1494 O 137.603 -1.58854 1.1171 0
M  V30 1495 C 134.733 -2.5813 2.3235 0
M  V30 1496 C 133.687 -2.49348 3.47864 0
M  V30 1497 C 133.013 -3.8798 3.67934 0
M  V30 1498 C 134.313 -2.01424 4.81898 0
M  V30 1499 H 136.007 -0.89311 2.85769 0
M  V30 1500 H 133.553 -0.428177 1.37487 0
M  V30 1501 H 135.506 -3.31637 2.59991 0
M  V30 1502 H 134.23 -2.94386 1.41438 0
M  V30 1503 H 132.889 -1.78297 3.20321 0
M  V30 1504 H 132.537 -4.21597 2.74344 0
M  V30 1505 H 132.237 -3.82978 4.45648 0
M  V30 1506 H 133.761 -4.63101 3.97957 0
M  V30 1507 H 135.175 -2.64693 5.08538 0
M  V30 1508 H 133.572 -2.07413 5.63116 0
M  V30 1509 H 134.642 -0.967677 4.75146 0
M  V30 1510 N 135.985 -1.50799 -0.457987 0
M  V30 1511 C 137.213 -1.66218 -1.23203 0
M  V30 1512 C 137.628 -0.350894 -1.85511 0
M  V30 1513 O 136.985 0.668546 -1.69814 0
M  V30 1514 C 137.036 -2.76291 -2.33121 0
M  V30 1515 O 136.757 -4.02338 -1.73366 0
M  V30 1516 C 138.258 -3.028 -3.2377 0
M  V30 1517 H 135.478 -0.558361 -0.372121 0
M  V30 1518 H 138.022 -1.97099 -0.545179 0
M  V30 1519 H 136.177 -2.48068 -2.97558 0
M  V30 1520 H 136.591 -4.63312 -2.4585 0
M  V30 1521 H 138.065 -3.8345 -3.97077 0
M  V30 1522 H 138.542 -2.14385 -3.83322 0
M  V30 1523 H 139.148 -3.32604 -2.65056 0
M  V30 1524 N 137.463 0.71206 -1.40597 0
M  V30 1525 C 138.709 1.47292 -1.40274 0
M  V30 1526 C 139.064 1.92399 -0.00576812 0
M  V30 1527 O 138.357 1.65507 0.965297 0
M  V30 1528 C 138.551 2.71039 -2.32965 0
M  V30 1529 C 138.38 2.38035 -3.81536 0
M  V30 1530 C 137.15 2.29203 -4.50327 0
M  V30 1531 C 139.348 2.02076 -4.72938 0
M  V30 1532 N 137.33 1.88911 -5.84111 0
M  V30 1533 C 138.701 1.72412 -5.95545 0
M  V30 1534 C 140.756 1.88742 -4.60739 0
M  V30 1535 C 139.459 1.30756 -7.07316 0
M  V30 1536 C 141.485 1.4849 -5.72455 0
M  V30 1537 C 140.847 1.19726 -6.94151 0
M  V30 1538 H 136.946 0.536919 -0.568544 0
M  V30 1539 H 139.53 0.825424 -1.76337 0
M  V30 1540 H 137.701 3.33533 -1.99023 0
M  V30 1541 H 139.433 3.37404 -2.23474 0
M  V30 1542 H 136.188 2.47059 -4.04053 0
M  V30 1543 H 136.612 1.71293 -6.54972 0
M  V30 1544 H 141.254 2.0964 -3.67166 0
M  V30 1545 H 138.972 1.08601 -8.00769 0
M  V30 1546 H 142.558 1.38747 -5.65014 0
M  V30 1547 H 141.438 0.890482 -7.79128 0
M  V30 1548 N 138.941 1.26152 0.944643 0
M  V30 1549 C 140.218 1.02247 1.66748 0
M  V30 1550 C 140.598 -0.448202 2.06287 0
M  V30 1551 O 139.946 -1.42779 1.78399 0
M  V30 1552 C 140.156 1.96788 2.88228 0
M  V30 1553 C 141.504 2.25201 3.59958 0
M  V30 1554 O 142.528 1.94626 2.98327 0
M  V30 1555 O 141.387 2.77242 4.70956 0
M  V30 1556 H 138.481 0.388517 0.730057 0
M  V30 1557 H 141.027 1.37348 0.99668 0
M  V30 1558 H 139.799 2.96047 2.55875 0
M  V30 1559 H 139.422 1.62145 3.63035 0
M  V30 1560 N 140.419 -1.14872 1.07899 0
M  V30 1561 C 141.835 -1.37776 0.805606 0
M  V30 1562 C 142.035 -1.92743 -0.587555 0
M  V30 1563 O 141.091 -2.13678 -1.34528 0
M  V30 1564 C 142.404 -2.34361 1.88402 0
M  V30 1565 C 143.952 -2.48012 1.90942 0
M  V30 1566 C 144.427 -3.47893 2.97883 0
M  V30 1567 N 145.918 -3.55433 2.97021 0
M  V30 1568 C 146.653 -4.32553 3.76412 0
M  V30 1569 N 146.149 -5.12959 4.65666 0
M  V30 1570 N 147.942 -4.27697 3.64735 0
M  V30 1571 H 140.093 -0.775365 1.97742 0
M  V30 1572 H 142.356 -0.403521 0.857831 0
M  V30 1573 H 142.062 -2.01098 2.88535 0
M  V30 1574 H 141.936 -3.34206 1.74889 0
M  V30 1575 H 144.323 -2.8057 0.914579 0
M  V30 1576 H 144.404 -1.48147 2.08534 0
M  V30 1577 H 144.048 -3.16069 3.97571 0
M  V30 1578 H 143.978 -4.47527 2.77538 0
M  V30 1579 H 146.469 -2.98048 2.32326 0
M  V30 1580 H 146.782 -5.69065 5.22862 0
M  V30 1581 H 145.127 -5.12245 4.69712 0
M  V30 1582 H 148.318 -3.63949 2.94378 0
M  V30 1583 H 148.491 -4.8755 4.26848 0
M  V30 1584 N 141.898 -0.863906 -1.31812 0
M  V30 1585 C 143.175 -0.39275 -1.91616 0
M  V30 1586 C 143.555 1.12461 -1.7865 0
M  V30 1587 O 142.903 1.95045 -1.19037 0
M  V30 1588 C 143.113 -0.867385 -3.38049 0
M  V30 1589 C 144.461 -0.889966 -4.15168 0
M  V30 1590 O 145.485 -0.812635 -3.46806 0
M  V30 1591 O 144.344 -1.00079 -5.37258 0
M  V30 1592 H 141.438 -0.116358 -0.818773 0
M  V30 1593 H 143.984 -0.951418 -1.40521 0
M  V30 1594 H 142.756 -1.91081 -3.41473 0
M  V30 1595 H 142.379 -0.286687 -3.96565 0
M  V30 1596 N 143.376 1.44774 -0.622745 0
M  V30 1597 C 144.308 2.28856 0.125485 0
M  V30 1598 C 145.321 1.40811 0.817069 0
M  V30 1599 O 146.51 1.65044 0.679918 0
M  V30 1600 C 143.61 3.16963 1.19949 0
M  V30 1601 C 142.783 4.33374 0.592064 0
M  V30 1602 C 141.842 5.02577 1.55893 0
M  V30 1603 O 140.868 5.58873 1.07933 0
M  V30 1604 N 142.07 5.03256 2.89334 0
M  V30 1605 H 144.835 2.93713 -0.596068 0
M  V30 1606 H 142.396 1.55129 -0.463303 0
M  V30 1607 H 144.388 3.60123 1.84644 0
M  V30 1608 H 142.958 2.53913 1.82337 0
M  V30 1609 H 142.178 3.93509 -0.233322 0
M  V30 1610 H 143.466 5.08527 0.166738 0
M  V30 1611 H 142.864 4.58836 3.30887 0
M  V30 1612 H 141.421 5.50232 3.49412 0
M  V30 1613 N 144.854 0.36279 1.53368 0
M  V30 1614 C 146.084 -0.228281 2.05335 0
M  V30 1615 C 146.492 -1.43226 1.23625 0
M  V30 1616 O 145.835 -1.81717 0.269206 0
M  V30 1617 C 145.897 -0.688549 3.52845 0
M  V30 1618 C 145.561 0.398362 4.5526 0
M  V30 1619 C 146.558 1.24732 5.04716 0
M  V30 1620 C 144.243 0.557805 4.99193 0
M  V30 1621 C 146.237 2.2411 5.96702 0
M  V30 1622 C 143.924 1.55495 5.90986 0
M  V30 1623 C 144.922 2.39503 6.39631 0
M  V30 1624 O 144.61 3.37517 7.29615 0
M  V30 1625 H 144.342 -0.044395 0.674541 0
M  V30 1626 H 146.896 0.518668 1.98744 0
M  V30 1627 H 145.126 -1.48706 3.56964 0
M  V30 1628 H 146.815 -1.20231 3.87685 0
M  V30 1629 H 147.581 1.13532 4.71525 0
M  V30 1630 H 143.46 -0.0862959 4.60919 0
M  V30 1631 H 147.004 2.89718 6.34594 0
M  V30 1632 H 142.901 1.66744 6.23592 0
M  V30 1633 H 143.669 3.33213 7.47604 0
M  V30 1634 N 146.332 -1.57332 0.0918853 0
M  V30 1635 C 147.609 -1.85691 -0.614668 0
M  V30 1636 C 147.989 -0.988146 -1.86545 0
M  V30 1637 O 147.337 -0.0597055 -2.28422 0
M  V30 1638 C 147.547 -3.36294 -0.933126 0
M  V30 1639 C 148.895 -4.04275 -1.29796 0
M  V30 1640 O 149.919 -3.41157 -1.02424 0
M  V30 1641 O 148.778 -5.1564 -1.81047 0
M  V30 1642 H 145.872 -0.767802 -0.307261 0
M  V30 1643 H 148.418 -1.69244 0.12434 0
M  V30 1644 H 147.19 -3.91273 -0.0456404 0
M  V30 1645 H 146.813 -3.58076 -1.72822 0
M  V30 1646 N 147.81 0.181792 -1.56548 0
M  V30 1647 C 149.058 0.89832 -1.81038 0
M  V30 1648 C 149.379 1.83232 -0.667164 0
M  V30 1649 O 148.649 1.93372 0.313673 0
M  V30 1650 H 147.229 0.33471 -0.667816 0
M  V30 1651 H 149.891 0.184116 -1.94028 0
M  V30 1652 H 148.987 1.4815 -2.74696 0
M  V30 1653 N 149.288 1.51039 0.449983 0
M  V30 1654 C 150.218 1.74379 1.55288 0
M  V30 1655 C 151.199 0.593236 1.5942 0
M  V30 1656 O 152.384 0.834625 1.7535 0
M  V30 1657 C 149.514 1.85728 2.93466 0
M  V30 1658 C 148.468 3.01078 3.04197 0
M  V30 1659 C 147.794 2.97595 4.44231 0
M  V30 1660 C 149.094 4.41254 2.7945 0
M  V30 1661 H 150.788 2.66725 1.36008 0
M  V30 1662 H 148.334 1.2835 0.652864 0
M  V30 1663 H 150.287 2.0064 3.70569 0
M  V30 1664 H 149.011 0.900207 3.13949 0
M  V30 1665 H 147.67 2.85851 2.29531 0
M  V30 1666 H 147.318 1.99691 4.61663 0
M  V30 1667 H 147.018 3.75046 4.52343 0
M  V30 1668 H 148.542 3.14583 5.23326 0
M  V30 1669 H 149.956 4.56897 3.46292 0
M  V30 1670 H 148.353 5.20315 2.98985 0
M  V30 1671 H 149.423 4.52164 1.75144 0
M  V30 1672 N 150.766 -0.704594 1.40972 0
M  V30 1673 C 152.043 -1.45847 1.30338 0
M  V30 1674 C 152.423 -2.10973 -0.0732344 0
M  V30 1675 O 151.771 -2.00997 -1.08685 0
M  V30 1676 C 151.981 -2.48525 2.45023 0
M  V30 1677 C 153.329 -3.1404 2.8577 0
M  V30 1678 O 154.353 -2.58848 2.44696 0
M  V30 1679 O 153.212 -4.13981 3.56766 0
M  V30 1680 H 150.306 -0.649092 0.512454 0
M  V30 1681 H 152.852 -0.735836 1.52917 0
M  V30 1682 H 151.624 -1.98994 3.36923 0
M  V30 1683 H 151.247 -3.2831 2.24272 0
M  V30 1684 N 152.244 -1.26651 -0.937939 0
M  V30 1685 C 153.469 -1.15279 -1.72411 0
M  V30 1686 C 153.894 0.287866 -1.85884 0
M  V30 1687 O 153.252 1.20855 -1.35143 0
M  V30 1688 C 153.3 -1.83028 -3.10698 0
M  V30 1689 O 152.404 -1.12128 -3.96864 0
M  V30 1690 H 151.745 -0.401504 -0.528858 0
M  V30 1691 H 154.275 -1.67531 -1.1745 0
M  V30 1692 H 154.285 -1.89981 -3.6107 0
M  V30 1693 H 152.96 -2.87833 -3.00208 0
M  V30 1694 H 151.537 -1.13173 -3.55312 0
M  V30 1695 N 153.722 1.14298 -1.08507 0
M  V30 1696 C 154.971 1.84708 -0.810305 0
M  V30 1697 C 155.284 1.83903 0.666271 0
M  V30 1698 O 156.49 2.50112 1.05624 0
M  V30 1699 C 154.946 3.31572 -1.39957 0
M  V30 1700 C 154.554 3.40791 -2.90801 0
M  V30 1701 C 156.298 4.07087 -1.20334 0
M  V30 1702 C 154.205 4.81872 -3.4286 0
M  V30 1703 H 153.135 0.691985 -0.299454 0
M  V30 1704 H 155.786 1.28841 -1.30661 0
M  V30 1705 H 154.168 3.87183 -0.830976 0
M  V30 1706 H 155.342 2.95225 -3.53806 0
M  V30 1707 H 153.657 2.78732 -3.0935 0
M  V30 1708 H 156.254 5.11225 -1.56693 0
M  V30 1709 H 156.597 4.16054 -0.143237 0
M  V30 1710 H 157.13 3.57779 -1.73893 0
M  V30 1711 H 153.869 4.78094 -4.48449 0
M  V30 1712 H 153.389 5.27972 -2.84615 0
M  V30 1713 H 155.068 5.50765 -3.39509 0
M  V30 1714 N 155.201 0.870884 1.31352 0
M  V30 1715 C 156.617 0.562932 1.49343 0
M  V30 1716 C 156.817 -0.902725 1.80148 0
M  V30 1717 O 155.873 -1.68484 1.88067 0
M  V30 1718 C 157.186 1.46393 2.62659 0
M  V30 1719 C 158.734 1.46607 2.76542 0
M  V30 1720 C 159.209 2.35266 3.92955 0
M  V30 1721 N 160.7 2.33151 4.00243 0
M  V30 1722 C 161.435 2.98471 4.89594 0
M  V30 1723 N 160.931 3.72964 5.8384 0
M  V30 1724 N 162.724 2.87775 4.82848 0
M  V30 1725 H 154.875 1.81923 1.09626 0
M  V30 1726 H 157.138 0.777934 0.541777 0
M  V30 1727 H 156.844 2.50689 2.46674 0
M  V30 1728 H 156.718 1.16314 3.58819 0
M  V30 1729 H 159.105 0.43069 2.9194 0
M  V30 1730 H 159.186 1.8071 1.81046 0
M  V30 1731 H 158.83 3.38881 3.78315 0
M  V30 1732 H 158.76 1.98487 4.87761 0
M  V30 1733 H 161.251 1.79006 3.32814 0
M  V30 1734 H 161.564 4.19932 6.4875 0
M  V30 1735 H 159.909 3.77073 5.83816 0
M  V30 1736 H 163.1 2.29116 4.08195 0
M  V30 1737 H 163.273 3.38961 5.52277 0
M  V30 1738 N 156.679 -1.44442 0.630414 0
M  V30 1739 C 157.928 -2.01267 0.132073 0
M  V30 1740 C 158.241 -1.50172 -1.25331 0
M  V30 1741 O 159.447 -1.9912 -1.84562 0
M  V30 1742 C 157.903 -3.59422 0.185362 0
M  V30 1743 C 157.511 -4.19514 1.57201 0
M  V30 1744 C 159.255 -4.23724 -0.256553 0
M  V30 1745 C 157.162 -5.69891 1.58045 0
M  V30 1746 H 156.092 -0.752619 0.0456092 0
M  V30 1747 H 158.743 -1.65666 0.789106 0
M  V30 1748 H 157.125 -3.92318 -0.538759 0
M  V30 1749 H 158.299 -3.98156 2.31966 0
M  V30 1750 H 156.614 -3.67496 1.95795 0
M  V30 1751 H 159.211 -5.34019 -0.269767 0
M  V30 1752 H 159.554 -3.96013 -1.28372 0
M  V30 1753 H 160.087 -3.95629 0.41505 0
M  V30 1754 H 156.826 -6.02336 2.58597 0
M  V30 1755 H 156.346 -5.93373 0.875725 0
M  V30 1756 H 158.025 -6.33515 1.31408 0
M  V30 1757 N 158.157 -0.370918 -1.53173 0
M  V30 1758 C 159.568 0.107139 -1.86392 0
M  V30 1759 C 159.919 1.47714 -1.29132 0
M  V30 1760 O 159.044 2.07464 -0.615439 0
M  V30 1761 C 159.639 0.201187 -3.38202 0
M  V30 1762 C 158.198 0.623507 -3.712 0
M  V30 1763 C 157.345 -0.225978 -2.76378 0
M  V30 1764 H 160.296 -0.58951 -1.47345 0
M  V30 1765 H 160.317 1.02377 -3.66468 0
M  V30 1766 H 159.829 -0.796058 -3.79848 0
M  V30 1767 H 157.93 1.62879 -3.35114 0
M  V30 1768 H 158.043 0.394414 -4.77474 0
M  V30 1769 H 156.407 0.305962 -2.52856 0
M  V30 1770 H 157.19 -1.22086 -3.20858 0
M  V30 1771 N 159.635 1.57281 -0.100228 0
M  V30 1772 C 160.86 1.99302 0.573881 0
M  V30 1773 C 161.285 0.979059 1.60611 0
M  V30 1774 O 160.643 -0.0517803 1.81226 0
M  V30 1775 C 160.691 3.40274 1.19358 0
M  V30 1776 O 159.795 3.41676 2.30935 0
M  V30 1777 H 159.136 0.647944 0.145138 0
M  V30 1778 H 161.666 2.03779 -0.183156 0
M  V30 1779 H 161.676 3.78078 1.53365 0
M  V30 1780 H 160.351 4.13594 0.437385 0
M  V30 1781 H 158.928 3.15672 1.98509 0
M  V30 1782 N 161.113 -0.173488 1.56642 0
M  V30 1783 C 162.39 -0.917617 1.7274 0
M  V30 1784 C 162.77 -2.00484 0.661027 0
M  V30 1785 O 162.118 -2.26184 -0.32453 0
M  V30 1786 C 162.328 -1.48433 3.15862 0
M  V30 1787 C 163.676 -1.95809 3.76754 0
M  V30 1788 O 164.7 -1.58231 3.19126 0
M  V30 1789 O 163.559 -2.65024 4.77938 0
M  V30 1790 H 160.653 -0.431772 0.705338 0
M  V30 1791 H 163.199 -0.161487 1.6893 0
M  V30 1792 H 161.971 -0.701715 3.84957 0
M  V30 1793 H 161.594 -2.30471 3.23989 0
M  V30 1794 N 162.591 -1.51276 -0.441967 0
M  V30 1795 C 163.521 -1.752 -1.54361 0
M  V30 1796 C 164.502 -0.601682 -1.59103 0
M  V30 1797 O 165.687 -0.843913 -1.74905 0
M  V30 1798 C 162.817 -1.87282 -2.92477 0
M  V30 1799 C 161.771 -3.02687 -3.02596 0
M  V30 1800 C 161.097 -2.99947 -4.42647 0
M  V30 1801 C 162.397 -4.4273 -2.77106 0
M  V30 1802 H 164.091 -2.67442 -1.34592 0
M  V30 1803 H 161.637 -1.28694 -0.646048 0
M  V30 1804 H 163.59 -2.02602 -3.695 0
M  V30 1805 H 162.314 -0.916844 -3.13467 0
M  V30 1806 H 160.973 -2.87065 -2.28012 0
M  V30 1807 H 160.621 -2.02136 -4.60597 0
M  V30 1808 H 160.321 -3.77439 -4.50348 0
M  V30 1809 H 161.845 -3.17354 -5.2165 0
M  V30 1810 H 163.259 -4.58727 -3.43864 0
M  V30 1811 H 161.656 -5.21893 -2.96222 0
M  V30 1812 H 162.726 -4.53087 -1.72744 0
M  V30 1813 N 164.069 0.697108 -1.41344 0
M  V30 1814 C 165.315 1.4593 -1.40827 0
M  V30 1815 C 165.648 1.94193 -0.0167098 0
M  V30 1816 O 164.923 1.69425 0.955263 0
M  V30 1817 C 165.206 2.67229 -2.41373 0
M  V30 1818 C 165.059 2.24741 -3.8963 0
M  V30 1819 C 166.378 3.69423 -2.39196 0
M  V30 1820 H 163.497 0.529303 -0.512842 0
M  V30 1821 H 166.139 0.794112 -1.72609 0
M  V30 1822 H 164.289 3.23982 -2.14401 0
M  V30 1823 H 165.961 1.73327 -4.27499 0
M  V30 1824 H 164.204 1.56542 -4.0457 0
M  V30 1825 H 164.875 3.1177 -4.55525 0
M  V30 1826 H 167.351 3.2234 -2.63128 0
M  V30 1827 H 166.227 4.51907 -3.11563 0
M  V30 1828 H 166.488 4.19012 -1.41001 0
M  V30 1829 N 165.547 1.27147 0.931209 0
M  V30 1830 C 166.793 1.14455 1.68141 0
M  V30 1831 C 167.148 -0.307172 1.89932 0
M  V30 1832 O 166.441 -1.22158 1.47607 0
M  V30 1833 C 166.635 1.8579 3.05314 0
M  V30 1834 C 166.464 3.3775 2.96909 0
M  V30 1835 C 165.234 4.07062 2.99381 0
M  V30 1836 C 167.432 4.33783 2.76291 0
M  V30 1837 N 165.414 5.45618 2.8138 0
M  V30 1838 C 166.785 5.59582 2.6696 0
M  V30 1839 C 168.84 4.23915 2.61152 0
M  V30 1840 C 167.543 6.76639 2.44033 0
M  V30 1841 C 169.569 5.40689 2.39602 0
M  V30 1842 C 168.931 6.65443 2.3101 0
M  V30 1843 H 165.03 0.473667 0.622225 0
M  V30 1844 H 167.614 1.60568 1.10118 0
M  V30 1845 H 165.785 1.42138 3.61457 0
M  V30 1846 H 167.517 1.65634 3.69253 0
M  V30 1847 H 164.272 3.585 3.09475 0
M  V30 1848 H 164.696 6.184 2.75519 0
M  V30 1849 H 169.338 3.28189 2.66555 0
M  V30 1850 H 167.056 7.72451 2.3737 0
M  V30 1851 H 170.642 5.34932 2.28778 0
M  V30 1852 H 169.522 7.54277 2.14558 0
M  V30 1853 N 167.025 -1.13721 1.09112 0
M  V30 1854 C 168.441 -1.36914 0.820174 0
M  V30 1855 C 168.641 -1.93356 -0.567079 0
M  V30 1856 O 167.697 -2.15093 -1.32255 0
M  V30 1857 C 169.01 -2.3235 1.90877 0
M  V30 1858 C 170.558 -2.45973 1.93562 0
M  V30 1859 C 171.033 -3.44714 3.01556 0
M  V30 1860 N 172.524 -3.52263 3.00775 0
M  V30 1861 C 173.259 -4.28536 3.80978 0
M  V30 1862 N 172.755 -5.07991 4.71081 0
M  V30 1863 N 174.548 -4.23804 3.69251 0
M  V30 1864 H 166.699 -0.754348 1.98553 0
M  V30 1865 H 168.962 -0.3944 0.862063 0
M  V30 1866 H 168.668 -1.98027 2.90651 0
M  V30 1867 H 168.542 -3.32332 1.78424 0
M  V30 1868 H 170.929 -2.79584 0.944286 0
M  V30 1869 H 171.01 -1.45926 2.10093 0
M  V30 1870 H 170.654 -3.11835 4.00901 0
M  V30 1871 H 170.584 -4.44558 2.82269 0
M  V30 1872 H 173.075 -2.95567 2.35475 0
M  V30 1873 H 173.388 -5.63487 5.28869 0
M  V30 1874 H 171.733 -5.07235 4.75119 0
M  V30 1875 H 174.924 -3.60806 2.98222 0
M  V30 1876 H 175.097 -4.82995 4.31995 0
M  V30 1877 N 168.503 -0.877838 -1.30888 0
M  V30 1878 C 169.914 -0.544193 -1.78593 0
M  V30 1879 C 170.265 0.939301 -1.72254 0
M  V30 1880 O 169.39 1.7337 -1.29505 0
M  V30 1881 C 169.985 -0.98105 -3.24285 0
M  V30 1882 C 168.544 -0.698935 -3.69854 0
M  V30 1883 C 167.691 -1.168 -2.51502 0
M  V30 1884 H 170.642 -1.06278 -1.17859 0
M  V30 1885 H 170.663 -0.307009 -3.79259 0
M  V30 1886 H 170.175 -2.06079 -3.28866 0
M  V30 1887 H 168.276 0.369112 -3.70767 0
M  V30 1888 H 168.389 -1.28148 -4.61644 0
M  V30 1889 H 166.753 -0.587535 -2.47831 0
M  V30 1890 H 167.536 -2.25533 -2.58824 0
M  V30 1891 N 169.982 1.44106 -0.638065 0
M  V30 1892 C 171.259 1.95453 -0.0759321 0
M  V30 1893 C 171.639 1.57984 1.40015 0
M  V30 1894 O 170.987 0.857361 2.11806 0
M  V30 1895 C 171.197 3.47655 -0.306132 0
M  V30 1896 C 172.545 4.24114 -0.203008 0
M  V30 1897 O 173.569 3.55405 -0.237871 0
M  V30 1898 O 172.428 5.46381 -0.113827 0
M  V30 1899 H 169.522 0.826797 0.0183332 0
M  V30 1900 H 172.068 1.54122 -0.710251 0
M  V30 1901 H 170.84 3.68 -1.3301 0
M  V30 1902 H 170.463 3.95949 0.361991 0
M  V30 1903 N 171.46 0.379036 1.52974 0
M  V30 1904 C 172.709 -0.207612 2.00629 0
M  V30 1905 C 173.022 -1.48758 1.27006 0
M  V30 1906 O 174.228 -2.15365 1.65318 0
M  V30 1907 C 172.684 -0.42053 3.57435 0
M  V30 1908 C 172.292 0.845587 4.39948 0
M  V30 1909 C 174.036 -0.964102 4.13407 0
M  V30 1910 C 171.943 0.601513 5.88333 0
M  V30 1911 H 170.873 -0.0813591 0.749598 0
M  V30 1912 H 173.524 0.499853 1.76561 0
M  V30 1913 H 171.906 -1.18959 3.7771 0
M  V30 1914 H 173.08 1.61848 4.31442 0
M  V30 1915 H 171.395 1.31336 3.95145 0
M  V30 1916 H 173.992 -1.16225 5.21916 0
M  V30 1917 H 174.335 -1.93019 3.68849 0
M  V30 1918 H 174.868 -0.25487 3.96983 0
M  V30 1919 H 171.607 1.53831 6.37194 0
M  V30 1920 H 171.127 -0.132628 5.99653 0
M  V30 1921 H 172.806 0.232134 6.46583 0
M  V30 1922 N 172.938 -1.57226 0.108567 0
M  V30 1923 C 174.184 -1.95121 -0.552761 0
M  V30 1924 C 174.517 -0.991345 -1.66991 0
M  V30 1925 O 173.792 -0.0267211 -1.94482 0
M  V30 1926 C 174.075 -3.43039 -1.09528 0
M  V30 1927 C 173.928 -4.49797 0.0177332 0
M  V30 1928 C 175.247 -3.92567 -1.98945 0
M  V30 1929 H 172.366 -0.709496 -0.199461 0
M  V30 1930 H 175.008 -1.89126 0.182011 0
M  V30 1931 H 173.158 -3.48279 -1.72146 0
M  V30 1932 H 174.83 -4.56661 0.652584 0
M  V30 1933 H 173.073 -4.284 0.682309 0
M  V30 1934 H 173.744 -5.50528 -0.402919 0
M  V30 1935 H 176.22 -3.89565 -1.46214 0
M  V30 1936 H 175.096 -4.96605 -2.33827 0
M  V30 1937 H 175.357 -3.32648 -2.91201 0
M  V30 1938 N 174.416 0.165178 -1.56732 0
M  V30 1939 C 175.346 1.20651 -1.99914 0
M  V30 1940 C 176.327 1.45827 -0.875705 0
M  V30 1941 O 177.512 1.57057 -1.14223 0
M  V30 1942 C 174.642 2.54401 -2.36427 0
M  V30 1943 C 173.596 2.43782 -3.51787 0
M  V30 1944 C 172.922 3.82078 -3.7406 0
M  V30 1945 C 174.222 1.93732 -4.85041 0
M  V30 1946 H 175.916 0.847534 -2.87154 0
M  V30 1947 H 173.462 0.40625 -1.38151 0
M  V30 1948 H 175.415 3.27458 -2.65234 0
M  V30 1949 H 174.139 2.92098 -1.46103 0
M  V30 1950 H 172.798 1.73178 -3.23117 0
M  V30 1951 H 172.446 4.17179 -2.81017 0
M  V30 1952 H 172.146 3.7584 -4.51684 0
M  V30 1953 H 173.67 4.56712 -4.05274 0
M  V30 1954 H 175.084 2.56569 -5.12684 0
M  V30 1955 H 173.481 1.98428 -5.66345 0
M  V30 1956 H 174.551 0.891962 -4.76626 0
M  V30 1957 N 175.894 1.51508 0.433938 0
M  V30 1958 C 177.124 1.67914 1.20369 0
M  V30 1959 C 177.532 0.377461 1.85397 0
M  V30 1960 O 176.875 -0.654255 1.71654 0
M  V30 1961 C 176.937 2.74045 2.32679 0
M  V30 1962 C 176.601 4.16543 1.87991 0
M  V30 1963 C 177.598 5.01211 1.38145 0
M  V30 1964 C 175.283 4.6266 1.95579 0
M  V30 1965 C 177.277 6.30056 0.964774 0
M  V30 1966 C 174.964 5.91501 1.53523 0
M  V30 1967 C 175.962 6.75027 1.04055 0
M  V30 1968 O 175.65 8.01459 0.625964 0
M  V30 1969 H 175.382 0.566578 0.368735 0
M  V30 1970 H 177.936 1.98709 0.51999 0
M  V30 1971 H 176.166 2.38572 3.04336 0
M  V30 1972 H 177.855 2.79295 2.94532 0
M  V30 1973 H 178.621 4.66783 1.31675 0
M  V30 1974 H 174.5 3.97767 2.33029 0
M  V30 1975 H 178.044 6.95202 0.57796 0
M  V30 1976 H 173.941 6.25442 1.59665 0
M  V30 1977 H 174.709 8.15043 0.751509 0
M  V30 1978 N 177.372 -0.689602 1.41712 0
M  V30 1979 C 178.32 -1.82475 1.44242 0
M  V30 1980 C 179.314 -1.66354 0.319774 0
M  V30 1981 O 180.52 -1.73143 0.492089 0
M  V30 1982 H 176.895 -0.601416 0.451445 0
M  V30 1983 H 178.866 -1.77458 2.39899 0
M  V30 1984 C 177.615 -3.20535 1.3473 0
M  V30 1985 H 176.938 -3.33559 2.20405 0
M  V30 1986 H 178.378 -4.00023 1.40562 0
M  V30 1987 C 176.837 -3.36846 0.0603281 0
M  V30 1988 O 177.367 -3.91656 -0.892663 0
M  V30 1989 N 175.573 -2.90595 -0.0177039 0
M  V30 1990 H 175.12 -2.46178 0.758572 0
M  V30 1991 H 175.078 -3.01886 -0.878201 0
M  V30 1992 N 178.85 -1.27639 -0.924453 0
M  V30 1993 C 179.797 -1.10644 -2.0255 0
M  V30 1994 C 180.767 -0.00658438 -1.66099 0
M  V30 1995 O 181.952 -0.16952 -1.90045 0
M  V30 1996 C 179.092 -0.76309 -3.36557 0
M  V30 1997 C 178.205 -1.94091 -3.85944 0
M  V30 1998 C 177.34 -1.53914 -5.08413 0
M  V30 1999 C 176.379 -2.68425 -5.50104 0
M  V30 2000 N 175.516 -2.28815 -6.63768 0
M  V30 2001 H 180.356 -2.04858 -2.16419 0
M  V30 2002 H 177.893 -1.01974 -1.06017 0
M  V30 2003 H 179.851 -0.544822 -4.13627 0
M  V30 2004 H 178.481 0.142102 -3.22487 0
M  V30 2005 H 177.533 -2.27162 -3.05125 0
M  V30 2006 H 178.845 -2.7998 -4.12811 0
M  V30 2007 H 177.999 -1.28231 -5.92994 0
M  V30 2008 H 176.738 -0.651391 -4.8333 0
M  V30 2009 H 175.743 -2.94819 -4.64071 0
M  V30 2010 H 176.968 -3.57826 -5.7718 0
M  V30 2011 H 174.914 -1.42495 -6.40337 0
M  V30 2012 H 174.831 -3.08242 -6.90306 0
M  V30 2013 H 176.099 -2.06387 -7.51681 0
M  V30 2014 N 180.328 1.1314 -1.09713 0
M  V30 2015 C 181.291 2.16831 -0.742751 0
M  V30 2016 C 182.291 1.59159 0.229129 0
M  V30 2017 O 183.481 1.74199 0.00693237 0
M  V30 2018 C 180.613 3.40756 -0.0989168 0
M  V30 2019 H 181.806 2.49695 -1.66109 0
M  V30 2020 H 179.359 1.2802 -0.896699 0
M  V30 2021 H 180.094 3.13485 0.830514 0
M  V30 2022 H 179.879 3.83888 -0.798265 0
M  V30 2023 H 181.369 4.17386 0.133524 0
M  V30 2024 N 181.806 0.884767 1.30421 0
M  V30 2025 C 183.083 0.423185 1.90967 0
M  V30 2026 C 183.463 -1.09605 1.80416 0
M  V30 2027 O 182.811 -1.93126 1.22125 0
M  V30 2028 C 183.021 0.921056 3.36627 0
M  V30 2029 C 184.369 0.955903 4.137 0
M  V30 2030 O 185.393 0.867706 3.4547 0
M  V30 2031 O 184.252 1.08614 5.35598 0
M  V30 2032 H 181.346 0.129369 0.816819 0
M  V30 2033 H 183.892 0.973653 1.3899 0
M  V30 2034 H 182.664 1.96489 3.3839 0
M  V30 2035 H 182.287 0.349741 3.96059 0
M  V30 2036 N 183.284 -1.43765 0.645699 0
M  V30 2037 C 184.561 -1.9541 0.0862963 0
M  V30 2038 C 184.941 -1.58725 -1.39175 0
M  V30 2039 O 184.289 -0.868581 -2.11348 0
M  V30 2040 C 184.499 -3.47488 0.324565 0
M  V30 2041 C 185.847 -4.24001 0.225497 0
M  V30 2042 O 186.871 -3.55274 0.256715 0
M  V30 2043 O 185.73 -5.46313 0.142801 0
M  V30 2044 H 182.824 -0.826882 -0.0139483 0
M  V30 2045 H 185.37 -1.53743 0.718415 0
M  V30 2046 H 184.142 -3.67289 1.3496 0
M  V30 2047 H 183.765 -3.96135 -0.340987 0
M  V30 2048 N 184.763 -0.387143 -1.52771 0
M  V30 2049 C 185.673 0.456442 -2.30117 0
M  V30 2050 C 186.689 1.07342 -1.36944 0
M  V30 2051 O 187.865 1.07971 -1.70013 0
M  V30 2052 C 184.93 1.56957 -3.09136 0
M  V30 2053 C 183.991 0.977916 -4.18014 0
M  V30 2054 C 183.224 2.038 -4.93256 0
M  V30 2055 O 183.447 3.25271 -4.68567 0
M  V30 2056 O 182.381 1.6565 -5.78657 0
M  V30 2057 H 186.207 -0.17359 -3.03203 0
M  V30 2058 H 183.792 -0.150919 -1.48636 0
M  V30 2059 H 185.674 2.21628 -3.58412 0
M  V30 2060 H 184.349 2.18461 -2.38865 0
M  V30 2061 H 183.256 0.294525 -3.72939 0
M  V30 2062 H 184.589 0.407128 -4.90513 0
M  V30 2063 N 186.241 1.57166 -0.116904 0
M  V30 2064 C 187.466 1.999 0.55271 0
M  V30 2065 C 187.891 0.996039 1.59564 0
M  V30 2066 O 187.249 -0.032556 1.81271 0
M  V30 2067 C 187.297 3.4152 1.15742 0
M  V30 2068 O 186.401 3.44106 2.27299 0
M  V30 2069 H 185.742 0.649447 0.138258 0
M  V30 2070 H 188.272 2.03573 -0.204759 0
M  V30 2071 H 188.282 3.79684 1.49346 0
M  V30 2072 H 186.957 4.14034 0.393493 0
M  V30 2073 H 185.534 3.17759 1.9515 0
M  V30 2074 N 187.719 -0.156864 1.56817 0
M  V30 2075 C 188.944 -0.890331 1.87318 0
M  V30 2076 C 189.369 -1.74394 0.704855 0
M  V30 2077 O 188.727 -1.77972 -0.345786 0
M  V30 2078 C 188.775 -1.73102 3.16336 0
M  V30 2079 O 187.879 -2.83422 2.99576 0
M  V30 2080 H 187.22 -0.24857 0.615718 0
M  V30 2081 H 189.75 -0.150649 2.04045 0
M  V30 2082 H 189.76 -2.12803 3.48107 0
M  V30 2083 H 188.435 -1.10412 4.00976 0
M  V30 2084 H 187.012 -2.47199 2.7919 0
M  V30 2085 N 189.197 -1.51736 -0.425897 0
M  V30 2086 C 190.107 -1.76738 -1.54275 0
M  V30 2087 C 191.123 -0.65211 -1.61318 0
M  V30 2088 O 192.299 -0.935654 -1.78346 0
M  V30 2089 C 189.364 -1.89755 -2.90162 0
M  V30 2090 C 188.425 -3.13633 -2.93143 0
M  V30 2091 C 187.658 -3.2602 -4.22548 0
M  V30 2092 O 187.881 -2.44067 -5.15546 0
M  V30 2093 O 186.815 -4.19071 -4.32046 0
M  V30 2094 H 190.641 -2.71502 -1.36089 0
M  V30 2095 H 188.226 -1.36376 -0.610069 0
M  V30 2096 H 190.108 -2.00236 -3.70788 0
M  V30 2097 H 188.783 -0.981785 -3.08452 0
M  V30 2098 H 187.69 -3.08622 -2.11431 0
M  V30 2099 H 189.023 -4.04936 -2.798 0
M  V30 2100 N 190.675 0.682077 -1.42076 0
M  V30 2101 C 192.086 1.26246 -1.37546 0
M  V30 2102 C 192.437 1.96092 -0.0651481 0
M  V30 2103 O 191.562 1.99587 0.836297 0
M  V30 2104 C 192.157 2.29594 -2.49143 0
M  V30 2105 C 190.716 2.83175 -2.47969 0
M  V30 2106 C 189.863 1.57395 -2.28303 0
M  V30 2107 H 192.814 0.475937 -1.51395 0
M  V30 2108 H 192.835 3.11175 -2.18976 0
M  V30 2109 H 192.347 1.78729 -3.44496 0
M  V30 2110 H 190.448 3.3818 -1.56413 0
M  V30 2111 H 190.561 3.32687 -3.44755 0
M  V30 2112 H 188.925 1.83699 -1.76428 0
M  V30 2113 H 189.708 1.08507 -3.25701 0
M  V30 2114 N 192.153 1.28127 0.917671 0
M  V30 2115 C 193.399 1.15223 1.66888 0
M  V30 2116 C 193.732 -0.299293 1.9188 0
M  V30 2117 O 193.007 -1.21805 1.51637 0
M  V30 2118 C 193.29 1.94706 3.02922 0
M  V30 2119 C 193.143 3.47898 2.85109 0
M  V30 2120 C 194.462 1.75939 4.03402 0
M  V30 2121 H 191.581 0.419946 0.605652 0
M  V30 2122 H 194.223 1.57398 1.06423 0
M  V30 2123 H 192.373 1.58864 3.54534 0
M  V30 2124 H 194.045 3.93624 2.40537 0
M  V30 2125 H 192.288 3.7373 2.20246 0
M  V30 2126 H 192.959 3.98765 3.81694 0
M  V30 2127 H 195.435 2.07209 3.60837 0
M  V30 2128 H 194.311 2.33931 4.96556 0
M  V30 2129 H 194.572 0.709877 4.36364 0
M  V30 2130 N 193.631 -1.12557 1.10312 0
M  V30 2131 C 194.579 -2.20325 0.745629 0
M  V30 2132 C 195.573 -1.67429 -0.25763 0
M  V30 2133 O 196.779 -1.79612 -0.118132 0
M  V30 2134 H 193.154 -0.718118 0.223182 0
M  V30 2135 H 195.125 -2.47733 1.66346 0
M  V30 2136 C 193.874 -3.47168 0.192262 0
M  V30 2137 H 193.197 -3.88215 0.955475 0
M  V30 2138 H 194.637 -4.23995 -0.0198274 0
M  V30 2139 C 193.096 -3.19298 -1.07472 0
M  V30 2140 O 193.626 -3.3891 -2.15645 0
M  V30 2141 N 191.832 -2.73113 -0.992847 0
M  V30 2142 H 191.379 -2.57354 -0.112474 0
M  V30 2143 H 191.337 -2.54842 -1.84127 0
M  V30 2144 N 195.109 -0.891671 -1.2995 0
M  V30 2145 C 196.337 -0.52866 -2.00032 0
M  V30 2146 C 196.752 0.884574 -1.66795 0
M  V30 2147 O 196.109 1.5827 -0.908669 0
M  V30 2148 C 196.16 -0.701814 -3.54622 0
M  V30 2149 O 195.881 -2.05942 -3.86678 0
M  V30 2150 C 197.382 -0.342683 -4.41973 0
M  V30 2151 H 194.602 -0.203659 -0.639347 0
M  V30 2152 H 197.146 -1.19881 -1.65677 0
M  V30 2153 H 195.301 -0.0789468 -3.8732 0
M  V30 2154 H 195.715 -2.08291 -4.81368 0
M  V30 2155 H 197.189 -0.514709 -5.49595 0
M  V30 2156 H 197.666 0.71975 -4.33262 0
M  V30 2157 H 198.272 -0.942154 -4.14733 0
M  V30 2158 N 196.587 1.43421 -0.653314 0
M  V30 2159 C 197.535 2.32546 0.0501531 0
M  V30 2160 C 198.529 1.48617 0.812985 0
M  V30 2161 O 199.735 1.64825 0.723375 0
M  V30 2162 H 196.11 0.751185 0.0350032 0
M  V30 2163 H 198.081 2.89602 -0.719261 0
M  V30 2164 C 196.83 3.32925 1.00279 0
M  V30 2165 H 196.153 3.97532 0.425236 0
M  V30 2166 H 197.593 3.9792 1.46409 0
M  V30 2167 C 196.052 2.63532 2.09886 0
M  V30 2168 O 196.582 2.45092 3.18265 0
M  V30 2169 N 194.788 2.22905 1.86445 0
M  V30 2170 H 194.335 2.38103 0.98309 0
M  V30 2171 H 194.293 1.76805 2.59976 0
M  V30 2172 N 198.065 0.39524 1.52563 0
M  V30 2173 C 199.311 -0.185318 2.01952 0
M  V30 2174 C 199.644 -1.45964 1.28095 0
M  V30 2175 O 198.919 -1.90689 0.38315 0
M  V30 2176 C 199.202 -0.447193 3.57312 0
M  V30 2177 C 199.055 0.842828 4.41833 0
M  V30 2178 C 200.374 -1.23529 4.22408 0
M  V30 2179 H 197.493 -0.0658788 0.73405 0
M  V30 2180 H 200.135 0.525975 1.82575 0
M  V30 2181 H 198.285 -1.05312 3.73954 0
M  V30 2182 H 199.957 1.4795 4.36931 0
M  V30 2183 H 198.2 1.45686 4.08605 0
M  V30 2184 H 198.871 0.614165 5.48573 0
M  V30 2185 H 201.347 -0.722445 4.0978 0
M  V30 2186 H 200.223 -1.38727 5.3108 0
M  V30 2187 H 200.484 -2.25213 3.80436 0
M  V30 2188 N 199.544 -1.57102 0.125237 0
M  V30 2189 C 200.79 -1.95697 -0.532035 0
M  V30 2190 C 201.123 -1.009 -1.6593 0
M  V30 2191 O 200.398 -0.047347 -1.94442 0
M  V30 2192 C 200.681 -3.44181 -1.05884 0
M  V30 2193 C 200.534 -4.49752 0.0654392 0
M  V30 2194 C 201.853 -3.94655 -1.9477 0
M  V30 2195 H 198.972 -0.711571 -0.191925 0
M  V30 2196 H 201.614 -1.88923 0.20206 0
M  V30 2197 H 199.764 -3.50085 -1.68442 0
M  V30 2198 H 201.436 -4.55943 0.700982 0
M  V30 2199 H 199.679 -4.27653 0.727709 0
M  V30 2200 H 200.35 -5.50924 -0.344505 0
M  V30 2201 H 202.826 -3.91094 -1.42074 0
M  V30 2202 H 201.702 -4.99057 -2.28546 0
M  V30 2203 H 201.963 -3.35718 -2.87656 0
M  V30 2204 N 201.022 0.148545 -1.56898 0
M  V30 2205 C 201.952 1.18524 -2.01182 0
M  V30 2206 C 202.933 1.4489 -0.891123 0
M  V30 2207 O 204.118 1.55836 -1.15882 0
M  V30 2208 C 201.248 2.51879 -2.39112 0
M  V30 2209 C 200.202 2.40038 -3.54353 0
M  V30 2210 C 199.528 3.78089 -3.78091 0
M  V30 2211 C 200.828 1.88577 -4.87069 0
M  V30 2212 H 202.522 0.817029 -2.88036 0
M  V30 2213 H 200.068 0.391575 -1.38574 0
M  V30 2214 H 202.021 3.24627 -2.68692 0
M  V30 2215 H 200.745 2.90532 -1.49193 0
M  V30 2216 H 199.404 1.69742 -3.24936 0
M  V30 2217 H 199.052 4.14175 -2.85426 0
M  V30 2218 H 198.752 3.71028 -4.55645 0
M  V30 2219 H 200.276 4.52387 -4.10095 0
M  V30 2220 H 201.69 2.51117 -5.15377 0
M  V30 2221 H 200.087 1.9241 -5.68417 0
M  V30 2222 H 201.157 0.84136 -4.77545 0
M  V30 2223 N 202.5 1.5196 0.417844 0
M  V30 2224 C 203.916 1.40569 0.755816 0
M  V30 2225 C 204.116 0.503316 1.95113 0
M  V30 2226 O 203.172 -0.0341925 2.52477 0
M  V30 2227 C 204.485 2.82947 1.01791 0
M  V30 2228 C 206.033 2.92231 1.12116 0
M  V30 2229 C 206.508 4.35559 1.41608 0
M  V30 2230 N 207.999 4.38753 1.48491 0
M  V30 2231 C 208.734 5.46705 1.7292 0
M  V30 2232 N 208.23 6.64788 1.95011 0
M  V30 2233 N 210.023 5.34209 1.74863 0
M  V30 2234 H 202.174 2.09168 -0.369098 0
M  V30 2235 H 204.437 0.942409 -0.102809 0
M  V30 2236 H 204.143 3.5106 0.212081 0
M  V30 2237 H 204.017 3.23462 1.94042 0
M  V30 2238 H 206.404 2.24304 1.9176 0
M  V30 2239 H 206.485 2.55185 0.177225 0
M  V30 2240 H 206.129 5.04042 0.624848 0
M  V30 2241 H 206.059 4.70133 2.37239 0
M  V30 2242 H 208.55 3.5363 1.33244 0
M  V30 2243 H 208.863 7.42845 2.13076 0
M  V30 2244 H 207.208 6.67869 1.92293 0
M  V30 2245 H 210.399 4.40937 1.57137 0
M  V30 2246 H 210.572 6.18415 1.93563 0
M  V30 2247 N 203.978 -0.674533 1.42435 0
M  V30 2248 C 205.208 -1.46071 1.46105 0
M  V30 2249 C 205.616 -1.89067 0.0709605 0
M  V30 2250 O 204.959 -1.58731 -0.924677 0
M  V30 2251 C 205.021 -2.74145 2.32561 0
M  V30 2252 C 204.685 -2.53224 3.8043 0
M  V30 2253 C 205.682 -2.17809 4.72075 0
M  V30 2254 C 203.367 -2.6821 4.24698 0
M  V30 2255 C 205.361 -1.97648 6.05982 0
M  V30 2256 C 203.048 -2.47665 5.58664 0
M  V30 2257 C 204.046 -2.12437 6.49122 0
M  V30 2258 O 203.734 -1.9209 7.80613 0
M  V30 2259 H 203.466 -0.455959 0.499076 0
M  V30 2260 H 206.02 -0.836193 1.87609 0
M  V30 2261 H 204.25 -3.3908 1.85908 0
M  V30 2262 H 205.939 -3.36028 2.27683 0
M  V30 2263 H 206.705 -2.05826 4.39159 0
M  V30 2264 H 202.584 -2.94609 3.54579 0
M  V30 2265 H 206.128 -1.70075 6.7655 0
M  V30 2266 H 202.025 -2.59244 5.91154 0
M  V30 2267 H 202.793 -2.06686 7.91974 0
M  V30 2268 N 205.456 -1.28612 -0.910864 0
M  V30 2269 C 206.733 -1.06632 -1.63979 0
M  V30 2270 C 207.113 0.393351 -2.07403 0
M  V30 2271 O 206.461 1.37999 -1.82122 0
M  V30 2272 C 206.671 -2.0436 -2.8291 0
M  V30 2273 C 208.019 -2.34666 -3.5386 0
M  V30 2274 O 209.043 -2.02467 -2.93062 0
M  V30 2275 O 207.902 -2.89631 -4.63439 0
M  V30 2276 H 204.996 -0.407737 -0.7195 0
M  V30 2277 H 207.542 -1.39942 -0.959914 0
M  V30 2278 H 206.314 -3.02727 -2.47936 0
M  V30 2279 H 205.937 -1.71714 -3.58609 0
M  V30 2280 N 206.934 1.1197 -1.10907 0
M  V30 2281 C 208.182 1.83225 -0.852819 0
M  V30 2282 C 208.503 1.84769 0.623341 0
M  V30 2283 O 207.773 1.3143 1.45269 0
M  V30 2284 H 206.353 0.67849 -0.312507 0
M  V30 2285 H 209.015 1.3556 -1.40033 0
M  V30 2286 H 208.111 2.87265 -1.22005 0
M  V30 2287 N 208.412 0.89855 1.29475 0
M  V30 2288 C 209.342 0.39201 2.30186 0
M  V30 2289 C 210.323 -0.532359 1.61555 0
M  V30 2290 O 211.508 -0.443331 1.89072 0
M  V30 2291 C 208.638 -0.382353 3.45189 0
M  V30 2292 C 207.592 0.451483 4.25612 0
M  V30 2293 C 206.918 -0.450307 5.328 0
M  V30 2294 C 208.218 1.70079 4.93832 0
M  V30 2295 H 209.912 1.23362 2.72804 0
M  V30 2296 H 207.458 0.594638 1.31149 0
M  V30 2297 H 209.411 -0.747451 4.14718 0
M  V30 2298 H 208.135 -1.25774 3.01411 0
M  V30 2299 H 206.794 0.798897 3.57789 0
M  V30 2300 H 206.442 -1.32379 4.85268 0
M  V30 2301 H 206.142 0.103902 5.87508 0
M  V30 2302 H 207.666 -0.811623 6.05182 0
M  V30 2303 H 209.08 1.40549 5.55805 0
M  V30 2304 H 207.477 2.19623 5.58467 0
M  V30 2305 H 208.547 2.43744 4.19186 0
M  V30 2306 N 209.89 -1.43072 0.660911 0
M  V30 2307 C 211.139 -2.00942 0.174735 0
M  V30 2308 C 211.452 -1.52797 -1.22117 0
M  V30 2309 O 212.658 -2.02991 -1.80297 0
M  V30 2310 C 211.114 -3.58948 0.261559 0
M  V30 2311 C 210.722 -4.16085 1.66064 0
M  V30 2312 C 212.466 -4.24173 -0.166617 0
M  V30 2313 C 210.373 -5.6641 1.70098 0
M  V30 2314 H 209.303 -0.751483 0.0615631 0
M  V30 2315 H 211.954 -1.63955 0.824069 0
M  V30 2316 H 210.336 -3.93372 -0.455421 0
M  V30 2317 H 211.51 -3.93147 2.40359 0
M  V30 2318 H 209.825 -3.6326 2.03546 0
M  V30 2319 H 212.422 -5.34471 -0.156433 0
M  V30 2320 H 212.765 -3.98647 -1.19943 0
M  V30 2321 H 213.298 -3.94659 0.498875 0
M  V30 2322 H 210.037 -5.96715 2.71315 0
M  V30 2323 H 209.557 -5.91382 1.00139 0
M  V30 2324 H 211.236 -6.30585 1.44816 0
M  V30 2325 N 211.368 -0.403325 -1.52352 0
M  V30 2326 C 212.596 0.174012 -2.06167 0
M  V30 2327 C 213.011 1.39347 -1.27388 0
M  V30 2328 O 212.368 1.79597 -0.324201 0
M  V30 2329 C 212.419 0.530223 -3.5759 0
M  V30 2330 O 212.14 -0.640806 -4.33388 0
M  V30 2331 C 213.641 1.16192 -4.27802 0
M  V30 2332 H 210.861 0.0229464 -0.670608 0
M  V30 2333 H 213.405 -0.572604 -1.9632 0
M  V30 2334 H 211.56 1.22673 -3.67464 0
M  V30 2335 H 211.974 -0.344851 -5.23365 0
M  V30 2336 H 213.448 1.36141 -5.34948 0
M  V30 2337 H 213.925 2.13335 -3.83907 0
M  V30 2338 H 214.531 0.505775 -4.22282 0
M  V30 2339 N 212.846 1.57033 -0.133567 0
M  V30 2340 C 214.092 1.96764 0.515326 0
M  V30 2341 C 214.447 1.01653 1.63353 0
M  V30 2342 O 213.74 0.0491374 1.91537 0
M  V30 2343 C 213.934 3.40674 1.08057 0
M  V30 2344 C 213.763 4.49696 0.0186522 0
M  V30 2345 C 212.533 5.03567 -0.418174 0
M  V30 2346 C 214.731 5.08536 -0.767809 0
M  V30 2347 N 212.713 5.9618 -1.46434 0
M  V30 2348 C 214.084 5.97231 -1.6648 0
M  V30 2349 C 216.139 4.9115 -0.817087 0
M  V30 2350 C 214.842 6.70401 -2.60681 0
M  V30 2351 C 216.868 5.65012 -1.74687 0
M  V30 2352 C 216.23 6.53403 -2.63141 0
M  V30 2353 H 212.329 0.765919 0.157771 0
M  V30 2354 H 214.913 1.93395 -0.22506 0
M  V30 2355 H 213.084 3.44662 1.79061 0
M  V30 2356 H 214.816 3.67495 1.69497 0
M  V30 2357 H 211.571 4.73594 -0.0229803 0
M  V30 2358 H 211.995 6.47191 -1.98678 0
M  V30 2359 H 216.637 4.22543 -0.147326 0
M  V30 2360 H 214.355 7.38245 -3.28664 0
M  V30 2361 H 217.941 5.53559 -1.79063 0
M  V30 2362 H 216.821 7.09556 -3.33917 0
M  V30 2363 N 214.325 -0.140222 1.56975 0
M  V30 2364 C 215.602 -0.880769 1.74648 0
M  V30 2365 C 215.982 -1.99036 0.703404 0
M  V30 2366 O 215.33 -2.26821 -0.27648 0
M  V30 2367 C 215.54 -1.417 3.18939 0
M  V30 2368 C 216.888 -1.87774 3.80823 0
M  V30 2369 O 217.912 -1.51427 3.2241 0
M  V30 2370 O 216.771 -2.54827 4.83452 0
M  V30 2371 H 213.865 -0.416713 0.714338 0
M  V30 2372 H 216.411 -0.125618 1.69234 0
M  V30 2373 H 215.183 -0.619902 3.86359 0
M  V30 2374 H 214.806 -2.23546 3.28805 0
M  V30 2375 N 215.803 -1.52179 -0.40978 0
M  V30 2376 C 216.766 -1.74853 -1.48186 0
M  V30 2377 C 217.766 -0.618417 -1.48433 0
M  V30 2378 O 218.956 -0.886286 -1.49969 0
M  V30 2379 C 216.088 -1.8303 -2.87598 0
M  V30 2380 H 217.281 -2.70559 -1.29374 0
M  V30 2381 H 214.834 -1.42586 -0.640233 0
M  V30 2382 H 215.569 -0.89236 -3.11781 0
M  V30 2383 H 215.354 -2.65187 -2.88822 0
M  V30 2384 H 216.844 -2.02316 -3.65319 0
M  V30 2385 N 217.281 0.66697 -1.42791 0
M  V30 2386 C 218.692 1.2478 -1.38877 0
M  V30 2387 C 219.043 1.96012 -0.0859426 0
M  V30 2388 O 218.168 2.00463 0.815081 0
M  V30 2389 C 218.763 2.26938 -2.51564 0
M  V30 2390 C 217.322 2.80529 -2.50959 0
M  V30 2391 C 216.469 1.54965 -2.29959 0
M  V30 2392 H 219.42 0.459853 -1.51892 0
M  V30 2393 H 219.441 3.08834 -2.22265 0
M  V30 2394 H 218.953 1.75065 -3.46372 0
M  V30 2395 H 217.054 3.36502 -1.59991 0
M  V30 2396 H 217.167 3.29012 -3.48265 0
M  V30 2397 H 215.531 1.81817 -1.78366 0
M  V30 2398 H 216.314 1.05047 -3.26833 0
M  V30 2399 N 218.759 1.29093 0.90403 0
M  V30 2400 C 219.722 1.1386 1.98919 0
M  V30 2401 C 220.722 0.0753457 1.60623 0
M  V30 2402 O 221.912 0.321931 1.71199 0
M  V30 2403 C 219.044 0.740198 3.32767 0
M  V30 2404 H 220.237 2.10246 2.13861 0
M  V30 2405 H 217.79 1.12218 1.08797 0
M  V30 2406 H 218.525 -0.223997 3.23525 0
M  V30 2407 H 218.31 1.50838 3.61926 0
M  V30 2408 H 219.8 0.656546 4.12407 0
M  V30 2409 N 220.237 -1.11381 1.11499 0
M  V30 2410 C 221.486 -1.82494 0.858993 0
M  V30 2411 C 221.799 -1.85605 -0.617278 0
M  V30 2412 O 223.005 -2.52824 -0.989552 0
M  V30 2413 C 221.461 -3.27745 1.48699 0
M  V30 2414 C 221.069 -3.32961 2.99735 0
M  V30 2415 C 222.813 -4.03754 1.31085 0
M  V30 2416 C 220.72 -4.72612 3.55516 0
M  V30 2417 H 219.65 -0.683802 0.317696 0
M  V30 2418 H 222.301 -1.25331 1.34031 0
M  V30 2419 H 220.683 -3.84844 0.933339 0
M  V30 2420 H 221.857 -2.85741 3.61509 0
M  V30 2421 H 220.172 -2.70433 3.16631 0
M  V30 2422 H 222.769 -5.06891 1.70192 0
M  V30 2423 H 223.112 -4.15527 0.253496 0
M  V30 2424 H 223.645 -3.53043 1.83318 0
M  V30 2425 H 220.384 -4.66036 4.60967 0
M  V30 2426 H 219.904 -5.2024 2.98513 0
M  V30 2427 H 221.583 -5.4157 3.53992 0
M  V30 2428 N 221.715 -0.905404 -1.28997 0
M  V30 2429 C 222.943 -0.549846 -1.9946 0
M  V30 2430 C 223.358 0.866834 -1.67724 0
M  V30 2431 O 222.715 1.57298 -0.925404 0
M  V30 2432 C 222.766 -0.739387 -3.53858 0
M  V30 2433 O 222.487 -2.10031 -3.84472 0
M  V30 2434 C 223.988 -0.389541 -4.41585 0
M  V30 2435 H 221.208 -0.210429 -0.637151 0
M  V30 2436 H 223.752 -1.21632 -1.64396 0
M  V30 2437 H 221.907 -0.120023 -3.87214 0
M  V30 2438 H 222.321 -2.13385 -4.79132 0
M  V30 2439 H 223.795 -0.572972 -5.49018 0
M  V30 2440 H 224.272 0.673756 -4.34001 0
M  V30 2441 H 224.878 -0.986089 -4.1371 0
M  V30 2442 N 223.193 1.4272 -0.668489 0
M  V30 2443 C 224.14 2.30796 0.0137489 0
M  V30 2444 C 225.11 1.4561 0.799177 0
M  V30 2445 O 226.295 1.74453 0.772702 0
M  V30 2446 C 223.435 3.31377 0.963507 0
M  V30 2447 C 222.548 4.31655 0.172569 0
M  V30 2448 C 221.683 5.19312 1.1175 0
M  V30 2449 C 220.722 6.11274 0.317886 0
M  V30 2450 N 219.859 6.91504 1.2152 0
M  V30 2451 H 224.699 2.88585 -0.743161 0
M  V30 2452 H 222.236 1.42154 -0.378226 0
M  V30 2453 H 224.194 3.88214 1.52792 0
M  V30 2454 H 222.824 2.75202 1.68712 0
M  V30 2455 H 221.876 3.76988 -0.508374 0
M  V30 2456 H 223.188 4.96779 -0.448527 0
M  V30 2457 H 222.342 5.80851 1.75206 0
M  V30 2458 H 221.081 4.5435 1.77249 0
M  V30 2459 H 220.086 5.48809 -0.329918 0
M  V30 2460 H 221.311 6.78283 -0.332917 0
M  V30 2461 H 219.257 6.29176 1.85671 0
M  V30 2462 H 219.174 7.53209 0.649036 0
M  V30 2463 H 220.442 7.57535 1.83742 0
M  V30 2464 N 224.671 0.411399 1.52136 0
M  V30 2465 C 225.896 -0.165538 2.06738 0
M  V30 2466 C 226.321 -1.379 1.27926 0
M  V30 2467 O 225.679 -1.78628 0.310114 0
M  V30 2468 C 225.727 -0.492124 3.57226 0
M  V30 2469 O 224.831 -1.58276 3.80818 0
M  V30 2470 H 224.172 -0.0132132 0.663869 0
M  V30 2471 H 226.702 0.585253 1.96051 0
M  V30 2472 H 226.712 -0.750104 4.01045 0
M  V30 2473 H 225.387 0.394922 4.14021 0
M  V30 2474 H 223.964 -1.31677 3.48877 0
M  V30 2475 N 226.149 -1.5696 0.141893 0
M  V30 2476 C 227.374 -2.00754 -0.520838 0
M  V30 2477 C 227.799 -1.0213 -1.57959 0
M  V30 2478 O 227.157 0.00371324 -1.813 0
M  V30 2479 C 227.205 -3.43318 -1.10294 0
M  V30 2480 O 226.309 -3.47679 -2.21795 0
M  V30 2481 H 225.65 -0.651564 -0.127908 0
M  V30 2482 H 228.18 -2.03221 0.23712 0
M  V30 2483 H 228.19 -3.82012 -1.43287 0
M  V30 2484 H 226.865 -4.14608 -0.327574 0
M  V30 2485 H 225.442 -3.20824 -1.9007 0
M  V30 2486 N 227.627 0.131896 -1.57047 0
M  V30 2487 C 228.867 0.847972 -1.85981 0
M  V30 2488 C 229.231 1.77655 -0.7282 0
M  V30 2489 O 230.432 2.53322 -0.898968 0
M  V30 2490 C 228.703 1.58919 -3.20124 0
M  V30 2491 S 230.262 2.34862 -3.70655 0
M  V30 2492 H 227.08 0.283273 -0.652133 0
M  V30 2493 H 229.682 0.107057 -1.95207 0
M  V30 2494 H 228.386 0.898771 -4.00438 0
M  V30 2495 H 227.917 2.37073 -3.13942 0
M  V30 2496 H 229.932 3.60344 -3.41126 0
M  V30 2497 N 229.106 1.52395 0.401703 0
M  V30 2498 C 230.352 1.67065 1.14966 0
M  V30 2499 C 230.685 0.403052 1.89971 0
M  V30 2500 O 229.96 -0.598774 1.85054 0
M  V30 2501 C 230.243 2.8975 2.13815 0
M  V30 2502 C 230.096 4.26578 1.42658 0
M  V30 2503 C 231.415 3.07965 3.14397 0
M  V30 2504 H 228.534 0.607968 0.416587 0
M  V30 2505 H 231.176 1.84965 0.434511 0
M  V30 2506 H 229.326 2.74619 2.74803 0
M  V30 2507 H 230.998 4.53451 0.847329 0
M  V30 2508 H 229.241 4.27639 0.72849 0
M  V30 2509 H 229.912 5.08483 2.14823 0
M  V30 2510 H 232.388 3.22043 2.63491 0
M  V30 2511 H 231.264 3.95308 3.80819 0
M  V30 2512 H 231.525 2.21611 3.82545 0
M  V30 2513 N 230.584 -0.659388 1.43143 0
M  V30 2514 C 231.83 -1.42145 1.44647 0
M  V30 2515 C 232.163 -1.9408 0.0681907 0
M  V30 2516 O 231.438 -1.71899 -0.910007 0
M  V30 2517 C 231.721 -2.60735 2.48373 0
M  V30 2518 C 231.574 -2.14332 3.95451 0
M  V30 2519 C 232.893 -3.62951 2.48906 0
M  V30 2520 H 230.012 -0.51552 0.526696 0
M  V30 2521 H 232.654 -0.748069 1.74654 0
M  V30 2522 H 230.804 -3.18184 2.22916 0
M  V30 2523 H 232.476 -1.61932 4.31944 0
M  V30 2524 H 230.719 -1.4576 4.08578 0
M  V30 2525 H 231.39 -2.99583 4.63631 0
M  V30 2526 H 233.866 -3.1525 2.71582 0
M  V30 2527 H 232.742 -4.43487 3.23435 0
M  V30 2528 H 233.003 -4.15126 1.52061 0
M  V30 2529 N 232.062 -1.29571 -0.897171 0
M  V30 2530 C 233.339 -1.08365 -1.62839 0
M  V30 2531 C 233.719 0.371331 -2.07808 0
M  V30 2532 O 233.067 1.3606 -1.83576 0
M  V30 2533 C 233.277 -2.0735 -2.80726 0
M  V30 2534 C 234.625 -2.38406 -3.51351 0
M  V30 2535 O 235.649 -2.05564 -2.90898 0
M  V30 2536 O 234.508 -2.9453 -4.60341 0
M  V30 2537 H 231.602 -0.415345 -0.715134 0
M  V30 2538 H 234.148 -1.40952 -0.945018 0
M  V30 2539 H 232.92 -3.05339 -2.44711 0
M  V30 2540 H 232.543 -1.75507 -3.56767 0
M  V30 2541 N 233.54 1.10788 -1.12088 0
M  V30 2542 C 234.786 1.82942 -0.875226 0
M  V30 2543 C 235.119 1.84779 0.597538 0
M  V30 2544 O 234.394 1.30578 1.44152 0
M  V30 2545 C 234.677 3.29789 -1.44606 0
M  V30 2546 C 234.53 3.36307 -2.98693 0
M  V30 2547 C 235.849 4.26064 -1.10261 0
M  V30 2548 H 232.968 0.664195 -0.319397 0
M  V30 2549 H 235.61 1.29867 -1.38689 0
M  V30 2550 H 233.76 3.75118 -1.01089 0
M  V30 2551 H 235.432 2.99487 -3.50864 0
M  V30 2552 H 233.675 2.76318 -3.34411 0
M  V30 2553 H 234.346 4.39694 -3.33726 0
M  V30 2554 H 236.822 3.88951 -1.4784 0
M  V30 2555 H 235.698 5.27183 -1.52869 0
M  V30 2556 H 235.959 4.42098 -0.0142953 0
M  V30 2557 N 235.018 0.912232 1.28515 0
M  V30 2558 C 236.246 0.560416 1.99166 0
M  V30 2559 C 236.661 -0.857927 1.68182 0
M  V30 2560 O 236.018 -1.56805 0.933733 0
M  V30 2561 C 236.069 0.758142 3.53461 0
M  V30 2562 O 235.79 2.12067 3.83352 0
M  V30 2563 C 237.291 0.412954 4.41372 0
M  V30 2564 H 234.511 0.213805 0.636026 0
M  V30 2565 H 237.055 1.22502 1.63749 0
M  V30 2566 H 235.21 0.140556 3.87145 0
M  V30 2567 H 235.624 2.15923 4.77993 0
M  V30 2568 H 237.098 0.60208 5.48707 0
M  V30 2569 H 237.575 -0.65073 4.34353 0
M  V30 2570 H 238.181 1.00802 4.13182 0
M  V30 2571 N 236.496 -1.42363 0.676048 0
M  V30 2572 C 237.726 -2.05561 0.206967 0
M  V30 2573 C 238.134 -1.50887 -1.14148 0
M  V30 2574 O 237.477 -0.643933 -1.72044 0
M  V30 2575 C 237.539 -3.5944 0.0659508 0
M  V30 2576 C 237.203 -4.36812 1.34331 0
M  V30 2577 C 238.2 -4.67383 2.27704 0
M  V30 2578 C 235.885 -4.76429 1.59125 0
M  V30 2579 C 237.879 -5.36509 3.44147 0
M  V30 2580 C 235.566 -5.45294 2.75857 0
M  V30 2581 C 236.564 -5.75259 3.68193 0
M  V30 2582 O 236.252 -6.42712 4.82883 0
M  V30 2583 H 235.984 -0.668872 0.0979084 0
M  V30 2584 H 238.538 -1.83467 0.923531 0
M  V30 2585 H 236.768 -3.80197 -0.706204 0
M  V30 2586 H 238.457 -4.0427 -0.363418 0
M  V30 2587 H 239.223 -4.37275 2.09799 0
M  V30 2588 H 235.102 -4.52498 0.881258 0
M  V30 2589 H 238.646 -5.59814 4.16238 0
M  V30 2590 H 234.543 -5.7482 2.93688 0
M  V30 2591 H 235.311 -6.61204 4.82444 0
M  V30 2592 N 237.974 -0.419461 -1.51915 0
M  V30 2593 C 239.221 0.152939 -2.01922 0
M  V30 2594 C 239.549 1.4426 -1.30458 0
M  V30 2595 O 238.804 1.91514 -0.402593 0
M  V30 2596 C 239.103 0.437067 -3.54717 0
M  V30 2597 C 238.769 -0.764632 -4.44369 0
M  V30 2598 C 237.431 -1.09423 -4.68594 0
M  V30 2599 C 239.783 -1.56713 -4.97082 0
M  V30 2600 C 237.111 -2.22732 -5.42777 0
M  V30 2601 C 239.463 -2.69107 -5.72507 0
M  V30 2602 C 238.127 -3.02541 -5.95 0
M  V30 2603 H 237.397 0.0559644 -0.738884 0
M  V30 2604 H 240.044 -0.562998 -1.83037 0
M  V30 2605 H 238.349 1.23469 -3.71837 0
M  V30 2606 H 240.046 0.893083 -3.90928 0
M  V30 2607 H 236.636 -0.497775 -4.257 0
M  V30 2608 H 240.82 -1.32571 -4.78266 0
M  V30 2609 H 236.076 -2.48971 -5.58411 0
M  V30 2610 H 240.25 -3.31671 -6.12346 0
M  V30 2611 H 237.877 -3.90457 -6.52264 0
M  V30 2612 N 239.452 1.56882 -0.150215 0
M  V30 2613 C 240.863 1.82995 0.370076 0
M  V30 2614 C 241.214 1.06907 1.64515 0
M  V30 2615 O 240.339 0.315369 2.1409 0
M  V30 2616 C 240.934 3.31942 0.678208 0
M  V30 2617 C 239.493 3.58625 1.14301 0
M  V30 2618 C 238.64 2.76792 0.167778 0
M  V30 2619 H 241.591 1.54209 -0.374858 0
M  V30 2620 H 241.612 3.48272 1.53254 0
M  V30 2621 H 241.124 3.87294 -0.249991 0
M  V30 2622 H 239.225 3.08664 2.08704 0
M  V30 2623 H 239.338 4.67073 1.06676 0
M  V30 2624 H 237.702 2.45972 0.661037 0
M  V30 2625 H 238.485 3.34916 -0.754069 0
M  V30 2626 N 240.93 -0.123565 1.57115 0
M  V30 2627 C 242.177 -0.832153 1.84612 0
M  V30 2628 C 242.505 -1.80093 0.734627 0
M  V30 2629 O 241.76 -1.93766 -0.27442 0
M  V30 2630 C 242.059 -1.62016 3.18568 0
M  V30 2631 C 241.725 -0.796084 4.43817 0
M  V30 2632 C 240.387 -0.568816 4.77826 0
M  V30 2633 C 242.739 -0.221364 5.2073 0
M  V30 2634 C 240.067 0.243499 5.86194 0
M  V30 2635 C 242.419 0.578117 6.29953 0
M  V30 2636 C 241.083 0.815744 6.62497 0
M  V30 2637 H 240.353 -0.304507 0.675542 0
M  V30 2638 H 243 -0.0947248 1.91266 0
M  V30 2639 H 241.305 -2.42837 3.0747 0
M  V30 2640 H 243.002 -2.17231 3.37064 0
M  V30 2641 H 239.592 -0.983307 4.17168 0
M  V30 2642 H 243.776 -0.384173 4.94811 0
M  V30 2643 H 239.032 0.436871 6.09837 0
M  V30 2644 H 243.206 1.03046 6.88734 0
M  V30 2645 H 240.833 1.44701 7.46301 0
M  V30 2646 N 242.408 -1.52605 -0.393616 0
M  V30 2647 C 243.685 -1.58001 -1.15304 0
M  V30 2648 C 244.065 -0.370385 -2.07825 0
M  V30 2649 O 243.413 0.641638 -2.19306 0
M  V30 2650 C 243.623 -2.91652 -1.91677 0
M  V30 2651 C 244.971 -3.4522 -2.47201 0
M  V30 2652 O 245.995 -2.93495 -2.01839 0
M  V30 2653 O 244.854 -4.35579 -3.3005 0
M  V30 2654 H 241.948 -0.637068 -0.527327 0
M  V30 2655 H 244.494 -1.64939 -0.399141 0
M  V30 2656 H 243.266 -3.71136 -1.23992 0
M  V30 2657 H 242.889 -2.88077 -2.74039 0
M  V30 2658 N 243.887 0.651787 -1.4349 0
M  V30 2659 C 244.835 1.78586 -1.49029 0
M  V30 2660 C 245.829 1.65448 -0.363767 0
M  V30 2661 O 247.035 1.71777 -0.537821 0
M  V30 2662 H 243.41 0.589236 -0.467231 0
M  V30 2663 H 245.381 1.71035 -2.44519 0
M  V30 2664 C 244.13 3.16851 -1.43181 0
M  V30 2665 H 243.453 3.27598 -2.29171 0
M  V30 2666 H 244.893 3.96156 -1.51118 0
M  V30 2667 C 243.352 3.36568 -0.149616 0
M  V30 2668 O 243.882 3.93885 0.788509 0
M  V30 2669 N 242.088 2.90539 -0.0593484 0
M  V30 2670 H 241.635 2.4408 -0.823575 0
M  V30 2671 H 241.593 3.04108 0.797853 0
M  V30 2672 N 245.365 1.30045 0.890287 0
M  V30 2673 C 246.297 1.11786 2.00091 0
M  V30 2674 C 247.31 0.0626307 1.62679 0
M  V30 2675 O 248.499 0.308112 1.75821 0
M  V30 2676 C 245.599 0.681527 3.31977 0
M  V30 2677 C 244.772 1.81735 3.97858 0
M  V30 2678 C 243.831 1.37045 5.08041 0
M  V30 2679 O 242.857 2.07677 5.29961 0
M  V30 2680 N 244.059 0.246525 5.79976 0
M  V30 2681 H 246.824 2.07441 2.16306 0
M  V30 2682 H 244.385 1.2211 1.06305 0
M  V30 2683 H 246.377 0.365675 4.03045 0
M  V30 2684 H 244.947 -0.182828 3.12065 0
M  V30 2685 H 244.167 2.30159 3.20032 0
M  V30 2686 H 245.455 2.57865 4.38615 0
M  V30 2687 H 244.853 -0.34215 5.64664 0
M  V30 2688 H 243.41 -0.00990438 6.51799 0
M  V30 2689 N 246.843 -1.10192 1.12674 0
M  V30 2690 C 247.775 -2.16418 0.754701 0
M  V30 2691 C 248.788 -1.61309 -0.21986 0
M  V30 2692 O 249.977 -1.785 -0.000826841 0
M  V30 2693 C 247.077 -3.38762 0.096698 0
M  V30 2694 C 246.25 -4.23307 1.10136 0
M  V30 2695 C 245.309 -5.24092 0.470513 0
M  V30 2696 O 244.335 -5.57906 1.12824 0
M  V30 2697 N 245.537 -5.75491 -0.760948 0
M  V30 2698 H 248.302 -2.48943 1.66875 0
M  V30 2699 H 245.863 -1.25834 1.01869 0
M  V30 2700 H 247.855 -4.03291 -0.337384 0
M  V30 2701 H 246.425 -3.04192 -0.720153 0
M  V30 2702 H 245.645 -3.55036 1.71299 0
M  V30 2703 H 246.933 -4.76624 1.78064 0
M  V30 2704 H 246.331 -5.50222 -1.31424 0
M  V30 2705 H 244.888 -6.41792 -1.13781 0
M  V30 2706 N 248.321 -0.919034 -1.28029 0
M  V30 2707 C 249.561 -0.562107 -1.96519 0
M  V30 2708 C 249.925 0.878784 -1.70708 0
M  V30 2709 O 251.126 1.34355 -2.32813 0
M  V30 2710 C 249.397 -0.868953 -3.46676 0
M  V30 2711 S 250.956 -0.619237 -4.34409 0
M  V30 2712 H 247.774 -0.2078 -0.679956 0
M  V30 2713 H 250.376 -1.18562 -1.55446 0
M  V30 2714 H 249.08 -1.91547 -3.62957 0
M  V30 2715 H 248.611 -0.234301 -3.92702 0
M  V30 2716 H 250.626 0.526995 -4.93394 0
M  V30 2717 N 249.799 1.42003 -0.683588 0
M  V30 2718 C 250.747 2.326 0.000815408 0
M  V30 2719 C 251.741 1.50308 0.781278 0
M  V30 2720 O 252.947 1.66322 0.688251 0
M  V30 2721 H 249.322 0.751758 0.0190616 0
M  V30 2722 H 251.293 2.88011 -0.780528 0
M  V30 2723 C 250.042 3.34978 0.93195 0
M  V30 2724 H 249.365 3.98345 0.340817 0
M  V30 2725 H 250.805 4.00936 1.37936 0
M  V30 2726 C 249.264 2.67925 2.04249 0
M  V30 2727 O 249.794 2.51788 3.12995 0
M  V30 2728 N 248 2.2681 1.81675 0
M  V30 2729 H 247.547 2.40135 0.932363 0
M  V30 2730 H 247.505 1.8228 2.56167 0
M  V30 2731 N 251.277 0.427512 1.51691 0
M  V30 2732 C 252.207 -0.3796 2.30394 0
M  V30 2733 C 253.188 -1.02982 1.35384 0
M  V30 2734 O 254.373 -1.03534 1.643 0
M  V30 2735 C 251.503 -1.48649 3.1388 0
M  V30 2736 C 250.457 -0.960294 4.17088 0
M  V30 2737 C 249.783 -2.16219 4.89033 0
M  V30 2738 C 251.083 -0.00153679 5.223 0
M  V30 2739 H 252.777 0.277164 2.98114 0
M  V30 2740 H 250.323 0.134739 1.43368 0
M  V30 2741 H 252.276 -2.05826 3.67714 0
M  V30 2742 H 251 -2.1714 2.43962 0
M  V30 2743 H 249.659 -0.410806 3.64291 0
M  V30 2744 H 249.307 -2.83307 4.15628 0
M  V30 2745 H 249.007 -1.81654 5.58816 0
M  V30 2746 H 250.531 -2.73968 5.45687 0
M  V30 2747 H 251.945 -0.482687 5.71264 0
M  V30 2748 H 250.342 0.256199 5.99553 0
M  V30 2749 H 251.412 0.938174 4.75738 0
M  V30 2750 N 252.755 -1.56801 0.158532 0
M  V30 2751 C 253.983 -2.00859 -0.496303 0
M  V30 2752 C 254.398 -1.03871 -1.57659 0
M  V30 2753 O 253.755 -0.0375165 -1.82461 0
M  V30 2754 C 253.806 -3.4479 -1.08638 0
M  V30 2755 O 253.527 -4.38072 -0.0492322 0
M  V30 2756 C 255.028 -4.04185 -1.8207 0
M  V30 2757 H 252.248 -0.65864 -0.128199 0
M  V30 2758 H 254.792 -2.02885 0.256506 0
M  V30 2759 H 252.947 -3.43579 -1.78975 0
M  V30 2760 H 253.361 -5.2227 -0.483102 0
M  V30 2761 H 254.835 -5.06857 -2.18633 0
M  V30 2762 H 255.312 -3.45549 -2.71095 0
M  V30 2763 H 255.918 -4.0906 -1.16405 0
M  V30 2764 N 254.233 0.115231 -1.57178 0
M  V30 2765 C 255.48 0.822351 -1.8505 0
M  V30 2766 C 255.808 1.79701 -0.744168 0
M  V30 2767 O 255.063 1.93909 0.26414 0
M  V30 2768 C 255.362 1.60324 -3.19423 0
M  V30 2769 C 255.028 0.772536 -4.44233 0
M  V30 2770 C 253.69 0.543468 -4.78121 0
M  V30 2771 C 256.042 0.193746 -5.2084 0
M  V30 2772 C 253.37 -0.274583 -5.86057 0
M  V30 2773 C 255.722 -0.611517 -6.29637 0
M  V30 2774 C 254.386 -0.850867 -6.62055 0
M  V30 2775 H 253.656 0.30092 -0.677147 0
M  V30 2776 H 256.303 0.0845802 -1.91313 0
M  V30 2777 H 254.608 2.41203 -3.08753 0
M  V30 2778 H 256.305 2.1544 -3.38211 0
M  V30 2779 H 252.895 0.96117 -4.17683 0
M  V30 2780 H 257.079 0.357926 -4.95008 0
M  V30 2781 H 252.335 -0.469206 -6.09597 0
M  V30 2782 H 256.509 -1.06697 -6.88178 0
M  V30 2783 H 254.136 -1.48657 -7.45523 0
M  V30 2784 N 255.711 1.52812 0.385517 0
M  V30 2785 C 256.959 1.67694 1.12797 0
M  V30 2786 C 257.28 0.421115 1.90399 0
M  V30 2787 O 256.55 -0.564551 1.87589 0
M  V30 2788 H 255.13 0.618155 0.419396 0
M  V30 2789 H 257.792 1.89938 0.436972 0
M  V30 2790 H 256.888 2.52896 1.82894 0
M  V30 2791 N 257.189 -0.644168 1.43834 0
M  V30 2792 C 258.414 -1.43642 1.49605 0
M  V30 2793 C 258.839 -1.8773 0.117913 0
M  V30 2794 O 258.197 -1.57938 -0.890239 0
M  V30 2795 C 258.245 -2.6416 2.45463 0
M  V30 2796 O 257.349 -3.63538 1.94714 0
M  V30 2797 H 256.69 -0.430329 0.50568 0
M  V30 2798 H 259.22 -0.787448 1.8884 0
M  V30 2799 H 259.23 -3.11864 2.63068 0
M  V30 2800 H 257.905 -2.31414 3.45572 0
M  V30 2801 H 256.482 -3.2273 1.86814 0
M  V30 2802 N 258.668 -1.30515 -0.883378 0
M  V30 2803 C 259.914 -1.20617 -1.63778 0
M  V30 2804 C 260.269 0.236469 -1.90941 0
M  V30 2805 O 259.562 1.16596 -1.52039 0
M  V30 2806 C 259.756 -1.96994 -2.98209 0
M  V30 2807 C 259.585 -3.48537 -2.84169 0
M  V30 2808 C 258.355 -4.17893 -2.84067 0
M  V30 2809 C 260.553 -4.43738 -2.60001 0
M  V30 2810 N 258.535 -5.55685 -2.60936 0
M  V30 2811 C 259.906 -5.69105 -2.46007 0
M  V30 2812 C 261.961 -4.33316 -2.45239 0
M  V30 2813 C 260.664 -6.8523 -2.18752 0
M  V30 2814 C 262.69 -5.4921 -2.19369 0
M  V30 2815 C 262.052 -6.73558 -2.06153 0
M  V30 2816 H 258.151 -0.496434 -0.604216 0
M  V30 2817 H 260.735 -1.64544 -1.04083 0
M  V30 2818 H 258.906 -1.55455 -3.55933 0
M  V30 2819 H 260.638 -1.79225 -3.62851 0
M  V30 2820 H 257.393 -3.69739 -2.95956 0
M  V30 2821 H 257.817 -6.28199 -2.52378 0
M  V30 2822 H 262.459 -3.37856 -2.54191 0
M  V30 2823 H 260.177 -7.80729 -2.08537 0
M  V30 2824 H 263.763 -5.43054 -2.08766 0
M  V30 2825 H 262.643 -7.61721 -1.86416 0
M  V30 2826 N 260.146 1.09593 -1.13257 0
M  V30 2827 C 261.374 1.855 -0.916378 0
M  V30 2828 C 261.789 1.81069 0.534738 0
M  V30 2829 O 261.146 1.20562 1.37007 0
M  V30 2830 C 261.197 3.33546 -1.39388 0
M  V30 2831 O 260.918 3.37927 -2.78813 0
M  V30 2832 C 262.419 4.26299 -1.21588 0
M  V30 2833 H 259.639 0.585991 -0.326887 0
M  V30 2834 H 262.183 1.38488 -1.5047 0
M  V30 2835 H 260.338 3.77992 -0.848597 0
M  V30 2836 H 260.752 4.30254 -2.9997 0
M  V30 2837 H 262.226 5.28341 -1.59876 0
M  V30 2838 H 262.703 4.38918 -0.157376 0
M  V30 2839 H 263.309 3.87668 -1.7491 0
M  V30 2840 N 261.624 0.925811 1.2754 0
M  V30 2841 C 262.854 0.580666 1.98272 0
M  V30 2842 C 263.262 -0.845207 1.69272 0
M  V30 2843 O 262.605 -1.57306 0.948707 0
M  V30 2844 C 262.667 0.724418 3.52126 0
M  V30 2845 C 262.331 2.12206 4.04744 0
M  V30 2846 C 263.328 3.09604 4.17662 0
M  V30 2847 C 261.013 2.4385 4.39138 0
M  V30 2848 C 263.007 4.36755 4.64246 0
M  V30 2849 C 260.694 3.71237 4.85414 0
M  V30 2850 C 261.692 4.67503 4.97926 0
M  V30 2851 O 261.38 5.92624 5.43187 0
M  V30 2852 H 261.112 0.218987 0.639547 0
M  V30 2853 H 263.666 1.24452 1.63404 0
M  V30 2854 H 261.896 0.0034663 3.867 0
M  V30 2855 H 263.585 0.384607 4.04074 0
M  V30 2856 H 264.351 2.86478 3.91351 0
M  V30 2857 H 260.23 1.69665 4.28643 0
M  V30 2858 H 263.774 5.11898 4.73927 0
M  V30 2859 H 259.671 3.94182 5.11166 0
M  V30 2860 H 260.439 5.95585 5.61445 0
M  V30 2861 N 263.102 -1.41638 0.69111 0
M  V30 2862 C 264.05 -2.32597 0.0115199 0
M  V30 2863 C 265.044 -1.5072 -0.773296 0
M  V30 2864 O 266.25 -1.66685 -0.67942 0
M  V30 2865 H 262.625 -0.751849 -0.0150746 0
M  V30 2866 H 264.596 -2.87593 0.795791 0
M  V30 2867 C 263.345 -3.35467 -0.914172 0
M  V30 2868 H 262.668 -3.9852 -0.319687 0
M  V30 2869 H 264.108 -4.01662 -1.35808 0
M  V30 2870 C 262.567 -2.69004 -2.02826 0
M  V30 2871 O 263.097 -2.53444 -3.11655 0
M  V30 2872 N 261.303 -2.2777 -1.80469 0
M  V30 2873 H 260.85 -2.40626 -0.919615 0
M  V30 2874 H 260.808 -1.83635 -2.55197 0
M  V30 2875 N 264.58 -0.43555 -1.51462 0
M  V30 2876 C 265.828 0.131254 -2.01673 0
M  V30 2877 C 266.149 1.43368 -1.32177 0
M  V30 2878 O 265.419 1.90524 -0.455769 0
M  V30 2879 H 263.999 0.0514954 -0.745223 0
M  V30 2880 H 266.661 -0.577847 -1.86137 0
M  V30 2881 H 265.757 0.308446 -3.10572 0
M  V30 2882 N 266.058 1.56714 -0.166846 0
M  V30 2883 C 267.006 2.19056 0.782123 0
M  V30 2884 C 268 1.15328 1.24079 0
M  V30 2885 O 269.206 1.33537 1.20697 0
M  V30 2886 H 265.581 0.70167 0.270486 0
M  V30 2887 H 267.552 2.97494 0.232322 0
M  V30 2888 C 266.301 2.84206 2.00306 0
M  V30 2889 H 265.624 3.63748 1.65914 0
M  V30 2890 H 267.064 3.31302 2.64604 0
M  V30 2891 C 265.523 1.83744 2.82382 0
M  V30 2892 O 266.053 1.32014 3.79388 0
M  V30 2893 N 264.259 1.52601 2.47308 0
M  V30 2894 H 263.806 1.9486 1.68485 0
M  V30 2895 H 263.764 0.856351 3.02513 0
M  V30 2896 N 267.536 -0.106894 1.57237 0
M  V30 2897 C 268.468 -1.15646 1.97885 0
M  V30 2898 C 269.481 -1.36981 0.879779 0
M  V30 2899 O 270.67 -1.35841 1.15799 0
M  V30 2900 C 267.77 -2.51425 2.27241 0
M  V30 2901 C 266.943 -2.50529 3.58545 0
M  V30 2902 C 266.002 -3.68145 3.75973 0
M  V30 2903 O 265.028 -3.51176 4.47956 0
M  V30 2904 N 266.23 -4.87177 3.15656 0
M  V30 2905 H 268.995 -0.81059 2.8853 0
M  V30 2906 H 266.556 -0.296024 1.59171 0
M  V30 2907 H 268.548 -3.28689 2.36105 0
M  V30 2908 H 267.118 -2.78147 1.42663 0
M  V30 2909 H 266.338 -1.58894 3.60758 0
M  V30 2910 H 267.626 -2.46997 4.44826 0
M  V30 2911 H 267.024 -5.03868 2.57165 0
M  V30 2912 H 265.581 -5.62075 3.30023 0
M  V30 2913 N 269.014 -1.53014 -0.377408 0
M  V30 2914 C 270.26 -1.68872 -1.12294 0
M  V30 2915 C 270.593 -0.433224 -1.89306 0
M  V30 2916 O 269.868 0.569258 -1.85983 0
M  V30 2917 C 270.151 -2.93115 -2.09179 0
M  V30 2918 C 270.004 -4.28794 -1.35853 0
M  V30 2919 C 271.323 -3.12928 -3.09458 0
M  V30 2920 H 268.442 -0.614518 -0.406862 0
M  V30 2921 H 271.084 -1.85633 -0.40503 0
M  V30 2922 H 269.234 -2.78956 -2.70399 0
M  V30 2923 H 270.906 -4.54742 -0.775082 0
M  V30 2924 H 269.149 -4.28744 -0.660364 0
M  V30 2925 H 269.82 -5.11837 -2.06706 0
M  V30 2926 H 272.296 -3.26194 -2.58334 0
M  V30 2927 H 271.172 -4.01316 -3.74482 0
M  V30 2928 H 271.433 -2.27669 -3.78971 0
M  V30 2929 N 270.492 0.636531 -1.44174 0
M  V30 2930 C 271.769 1.39463 -1.37148 0
M  V30 2931 C 272.149 2.11082 -0.027507 0
M  V30 2932 O 271.497 2.05954 0.989716 0
M  V30 2933 C 271.707 2.36552 -2.56601 0
M  V30 2934 C 273.055 3.00048 -3.00427 0
M  V30 2935 O 274.079 2.46878 -2.56767 0
M  V30 2936 O 272.938 3.96488 -3.76111 0
M  V30 2937 H 270.032 0.623903 -0.542839 0
M  V30 2938 H 272.578 0.662039 -1.56253 0
M  V30 2939 H 271.35 1.82692 -3.46034 0
M  V30 2940 H 270.973 3.17236 -2.39681 0
M  V30 2941 N 271.97 1.30982 0.876444 0
M  V30 2942 C 273.219 1.19658 1.62373 0
M  V30 2943 C 273.532 -0.245636 1.94052 0
M  V30 2944 O 274.738 -0.48049 2.67214 0
M  V30 2945 C 273.194 2.09433 2.92687 0
M  V30 2946 C 272.802 3.58613 2.68516 0
M  V30 2947 C 274.546 2.06893 3.70669 0
M  V30 2948 C 272.453 4.40416 3.94699 0
M  V30 2949 H 271.383 0.444268 0.609214 0
M  V30 2950 H 274.034 1.55791 0.969605 0
M  V30 2951 H 272.416 1.66191 3.59439 0
M  V30 2952 H 273.59 4.10058 2.10212 0
M  V30 2953 H 271.905 3.63063 2.03898 0
M  V30 2954 H 274.502 2.65258 4.64265 0
M  V30 2955 H 274.845 1.05448 4.02724 0
M  V30 2956 H 275.378 2.48301 3.10792 0
M  V30 2957 H 272.117 5.42591 3.67798 0
M  V30 2958 H 271.637 3.93731 4.52477 0
M  V30 2959 H 273.316 4.52294 4.62644 0
M  V30 2960 N 273.449 -1.08991 1.13837 0
M  V30 2961 C 274.696 -1.81258 0.902882 0
M  V30 2962 C 275.024 -1.85936 -0.570803 0
M  V30 2963 O 274.279 -1.3267 -1.43865 0
M  V30 2964 C 274.578 -3.27042 1.44147 0
M  V30 2965 C 274.244 -3.4249 2.93276 0
M  V30 2966 C 272.906 -3.46414 3.33992 0
M  V30 2967 C 275.258 -3.4666 3.892 0
M  V30 2968 C 272.586 -3.52091 4.69307 0
M  V30 2969 C 274.938 -3.53872 5.24364 0
M  V30 2970 C 273.602 -3.56066 5.646 0
M  V30 2971 H 272.872 -0.663268 0.330388 0
M  V30 2972 H 275.519 -1.28368 1.42105 0
M  V30 2973 H 273.824 -3.82599 0.844097 0
M  V30 2974 H 275.521 -3.81499 1.23528 0
M  V30 2975 H 272.111 -3.40124 2.60794 0
M  V30 2976 H 276.295 -3.42865 3.58828 0
M  V30 2977 H 271.551 -3.52079 4.9985 0
M  V30 2978 H 275.725 -3.56043 5.98503 0
M  V30 2979 H 273.352 -3.60218 6.69438 0
M  V30 2980 N 274.927 -0.932562 -1.27047 0
M  V30 2981 C 275.875 -0.42603 -2.28665 0
M  V30 2982 C 276.869 0.49219 -1.62092 0
M  V30 2983 O 278.075 0.371355 -1.76128 0
M  V30 2984 H 274.45 -0.119213 -0.742491 0
M  V30 2985 H 276.421 -1.29579 -2.68797 0
M  V30 2986 C 275.17 0.301426 -3.46391 0
M  V30 2987 H 274.493 -0.39595 -3.97834 0
M  V30 2988 H 275.933 0.6202 -4.1944 0
M  V30 2989 C 274.392 1.51616 -3.00856 0
M  V30 2990 O 274.922 2.61476 -3.04948 0
M  V30 2991 N 273.128 1.36969 -2.56296 0
M  V30 2992 H 272.675 0.475873 -2.53166 0
M  V30 2993 H 272.633 2.18368 -2.26192 0
M  V30 2994 N 276.405 1.4127 -0.698611 0
M  V30 2995 C 277.368 2.29158 -0.044132 0
M  V30 2996 C 278.368 1.44529 0.704841 0
M  V30 2997 O 279.558 1.65643 0.539276 0
M  V30 2998 C 276.69 3.27459 0.947809 0
M  V30 2999 H 277.883 2.88529 -0.817994 0
M  V30 3000 H 275.436 1.49307 -0.46228 0
M  V30 3001 H 276.171 2.73073 1.74933 0
M  V30 3002 H 275.956 3.8991 0.41385 0
M  V30 3003 H 277.446 3.93311 1.40344 0
M  V30 3004 N 277.883 0.443576 1.51229 0
M  V30 3005 C 278.813 -0.355142 2.30783 0
M  V30 3006 C 279.794 -1.0154 1.36468 0
M  V30 3007 O 280.979 -1.01785 1.65389 0
M  V30 3008 C 278.109 -1.45312 3.15439 0
M  V30 3009 C 277.063 -0.916002 4.18083 0
M  V30 3010 C 276.389 -2.1102 4.91299 0
M  V30 3011 C 277.689 0.0538602 5.22272 0
M  V30 3012 H 279.383 0.308767 2.97804 0
M  V30 3013 H 276.929 0.149937 1.43217 0
M  V30 3014 H 278.882 -2.01914 3.69876 0
M  V30 3015 H 277.606 -2.14541 2.46252 0
M  V30 3016 H 276.265 -0.372145 3.64706 0
M  V30 3017 H 275.913 -2.78882 4.18609 0
M  V30 3018 H 275.613 -1.75717 5.60712 0
M  V30 3019 H 277.137 -2.68164 5.48562 0
M  V30 3020 H 278.551 -0.422069 5.71744 0
M  V30 3021 H 276.948 0.319776 5.99247 0
M  V30 3022 H 278.018 0.98858 4.74716 0
M  V30 3023 N 279.361 -1.56624 0.175154 0
M  V30 3024 C 280.638 -1.88688 -0.515373 0
M  V30 3025 C 281.018 -1.08564 -1.81044 0
M  V30 3026 O 280.366 -0.180703 -2.27784 0
M  V30 3027 C 280.576 -3.40768 -0.753552 0
M  V30 3028 C 281.924 -4.10587 -1.08184 0
M  V30 3029 O 282.948 -3.46106 -0.841961 0
M  V30 3030 O 281.807 -5.24512 -1.53459 0
M  V30 3031 H 278.901 -0.78301 -0.26613 0
M  V30 3032 H 281.447 -1.68347 0.213877 0
M  V30 3033 H 280.219 -3.90965 0.161829 0
M  V30 3034 H 279.842 -3.66733 -1.53598 0
M  V30 3035 N 280.839 0.0985539 -1.57292 0
M  V30 3036 C 282.064 0.820196 -1.90493 0
M  V30 3037 C 282.489 1.71658 -0.769094 0
M  V30 3038 O 281.847 1.79133 0.279495 0
M  V30 3039 C 281.895 1.61242 -3.22542 0
M  V30 3040 O 280.999 2.72108 -3.09888 0
M  V30 3041 H 280.34 0.225547 -0.62452 0
M  V30 3042 H 282.87 0.0748159 -2.04463 0
M  V30 3043 H 282.88 1.99737 -3.55766 0
M  V30 3044 H 281.555 0.954535 -4.04798 0
M  V30 3045 H 280.132 2.36667 -2.88172 0
M  V30 3046 N 282.317 1.53212 0.369288 0
M  V30 3047 C 283.565 1.68881 1.11012 0
M  V30 3048 C 283.886 0.441285 1.89941 0
M  V30 3049 O 283.156 -0.544623 1.88177 0
M  V30 3050 H 281.736 0.622569 0.412816 0
M  V30 3051 H 284.398 1.90391 0.416802 0
M  V30 3052 H 283.494 2.54822 1.80201 0
M  V30 3053 N 283.795 -0.628877 1.44509 0
M  V30 3054 C 285.072 -1.38733 1.37886 0
M  V30 3055 C 285.452 -2.11065 0.0387008 0
M  V30 3056 O 284.8 -2.06476 -0.97878 0
M  V30 3057 C 285.01 -2.35188 2.57852 0
M  V30 3058 C 286.358 -2.9845 3.02014 0
M  V30 3059 O 287.382 -2.45513 2.58073 0
M  V30 3060 O 286.241 -3.94487 3.78209 0
M  V30 3061 H 283.335 -0.621015 0.54614 0
M  V30 3062 H 285.881 -0.653744 1.56602 0
M  V30 3063 H 284.653 -1.80855 3.46998 0
M  V30 3064 H 284.276 -3.1596 2.4136 0
M  V30 3065 N 285.273 -1.31445 -0.869486 0
M  V30 3066 C 286.203 -1.21727 -1.99261 0
M  V30 3067 C 287.184 -0.104359 -1.6978 0
M  V30 3068 O 288.369 -0.289038 -1.92037 0
M  V30 3069 C 285.499 -0.924317 -3.34774 0
M  V30 3070 C 284.453 -1.99685 -3.78563 0
M  V30 3071 C 283.779 -1.55658 -5.11541 0
M  V30 3072 C 285.079 -3.41003 -3.95619 0
M  V30 3073 H 286.773 -2.1569 -2.07649 0
M  V30 3074 H 284.319 -1.03839 -0.997675 0
M  V30 3075 H 286.272 -0.842934 -4.12883 0
M  V30 3076 H 284.996 0.0509793 -3.2656 0
M  V30 3077 H 283.655 -2.06813 -3.02694 0
M  V30 3078 H 283.303 -0.569132 -4.9977 0
M  V30 3079 H 283.003 -2.27409 -5.41811 0
M  V30 3080 H 284.527 -1.48928 -5.92159 0
M  V30 3081 H 285.941 -3.36547 -4.64122 0
M  V30 3082 H 284.338 -4.10975 -4.37286 0
M  V30 3083 H 285.408 -3.81754 -2.98985 0
M  V30 3084 N 286.751 1.08385 -1.14413 0
M  V30 3085 C 287.976 1.85057 -0.936413 0
M  V30 3086 C 288.401 1.81055 0.509971 0
M  V30 3087 O 287.759 1.1958 1.36273 0
M  V30 3088 C 287.807 3.30505 -1.44217 0
M  V30 3089 O 286.911 4.07491 -0.634409 0
M  V30 3090 H 286.252 0.573425 -0.334784 0
M  V30 3091 H 288.782 1.36799 -1.52142 0
M  V30 3092 H 288.792 3.81348 -1.45043 0
M  V30 3093 H 287.467 3.32734 -2.49522 0
M  V30 3094 H 286.044 3.66368 -0.694902 0
M  V30 3095 N 288.23 0.939286 1.26551 0
M  V30 3096 C 289.507 0.5038 1.89001 0
M  V30 3097 C 289.887 -1.01854 1.84903 0
M  V30 3098 O 289.235 -1.87773 1.30206 0
M  V30 3099 C 289.445 1.063 3.32417 0
M  V30 3100 C 290.793 1.13051 4.09273 0
M  V30 3101 O 291.817 1.01345 3.41479 0
M  V30 3102 O 290.676 1.31233 5.30509 0
M  V30 3103 H 287.77 0.163897 0.810597 0
M  V30 3104 H 290.316 1.03173 1.34735 0
M  V30 3105 H 289.088 2.10665 3.29752 0
M  V30 3106 H 288.711 0.517408 3.94219 0
M  V30 3107 N 289.708 -1.40897 0.706093 0
M  V30 3108 C 290.955 -2.01054 0.241531 0
M  V30 3109 C 291.283 -1.55956 -1.16223 0
M  V30 3110 O 290.538 -0.766336 -1.80072 0
M  V30 3111 C 290.837 -3.5646 0.259099 0
M  V30 3112 C 290.503 -4.21106 1.61184 0
M  V30 3113 C 289.165 -4.38479 1.98216 0
M  V30 3114 C 291.517 -4.57256 2.50132 0
M  V30 3115 C 288.845 -4.89282 3.2376 0
M  V30 3116 C 291.197 -5.09454 3.7502 0
M  V30 3117 C 289.861 -5.25037 4.12181 0
M  V30 3118 H 289.131 -0.73571 0.0883825 0
M  V30 3119 H 291.778 -1.68645 0.907257 0
M  V30 3120 H 290.083 -3.88721 -0.490189 0
M  V30 3121 H 291.78 -4.00826 -0.11804 0
M  V30 3122 H 288.37 -4.07966 1.31384 0
M  V30 3123 H 292.554 -4.43479 2.228 0
M  V30 3124 H 287.81 -4.99531 3.52532 0
M  V30 3125 H 291.984 -5.36404 4.44121 0
M  V30 3126 H 289.611 -5.64164 5.09532 0
M  V30 3127 N 291.186 -0.45159 -1.50991 0
M  V30 3128 C 292.435 0.111653 -2.01391 0
M  V30 3129 C 292.748 1.42529 -1.33959 0
M  V30 3130 O 293.954 2.07232 -1.75405 0
M  V30 3131 C 292.41 0.249514 -3.59034 0
M  V30 3132 C 292.018 -1.05453 -4.35412 0
M  V30 3133 C 293.762 0.765762 -4.17536 0
M  V30 3134 C 291.669 -0.881529 -5.84793 0
M  V30 3135 H 290.599 0.0455022 -0.752626 0
M  V30 3136 H 293.25 -0.583524 -1.73975 0
M  V30 3137 H 291.632 1.00803 -3.82955 0
M  V30 3138 H 292.806 -1.82248 -4.23229 0
M  V30 3139 H 291.121 -1.50039 -3.88429 0
M  V30 3140 H 293.718 0.911913 -5.26866 0
M  V30 3141 H 294.061 1.75201 -3.77638 0
M  V30 3142 H 294.594 0.0651744 -3.97747 0
M  V30 3143 H 291.333 -1.84057 -6.29129 0
M  V30 3144 H 290.853 -0.153625 -5.99603 0
M  V30 3145 H 292.532 -0.540363 -6.4474 0
M  V30 3146 N 292.664 1.56529 -0.183458 0
M  V30 3147 C 293.574 2.22144 0.754272 0
M  V30 3148 C 294.59 1.21684 1.24374 0
M  V30 3149 O 295.766 1.54385 1.29333 0
M  V30 3150 C 292.831 2.85884 1.96141 0
M  V30 3151 C 291.892 4.01579 1.51765 0
M  V30 3152 C 291.125 4.6227 2.66725 0
M  V30 3153 O 291.348 4.21865 3.83909 0
M  V30 3154 O 290.282 5.51936 2.40104 0
M  V30 3155 H 294.108 3.02861 0.225527 0
M  V30 3156 H 291.693 1.49331 0.0453032 0
M  V30 3157 H 293.575 3.26253 2.66715 0
M  V30 3158 H 292.25 2.08154 2.47899 0
M  V30 3159 H 291.157 3.65856 0.781049 0
M  V30 3160 H 292.49 4.80938 1.04686 0
M  V30 3161 N 294.142 -0.090211 1.57342 0
M  V30 3162 C 295.419 -0.824761 1.77361 0
M  V30 3163 C 295.799 -1.96698 0.76637 0
M  V30 3164 O 295.147 -2.27586 -0.204179 0
M  V30 3165 C 295.357 -1.31481 3.23286 0
M  V30 3166 C 296.705 -1.75563 3.86604 0
M  V30 3167 O 297.729 -1.41093 3.27065 0
M  V30 3168 O 296.588 -2.39317 4.91314 0
M  V30 3169 H 293.682 -0.393776 0.727234 0
M  V30 3170 H 296.228 -0.0717138 1.69548 0
M  V30 3171 H 295 -0.496671 3.88135 0
M  V30 3172 H 294.623 -2.12973 3.35751 0
M  V30 3173 N 295.62 -1.53406 -0.361157 0
M  V30 3174 C 296.866 -1.70054 -1.10496 0
M  V30 3175 C 297.199 -0.453278 -1.88836 0
M  V30 3176 O 296.474 0.5495 -1.86576 0
M  V30 3177 C 296.757 -2.95317 -2.06058 0
M  V30 3178 C 296.61 -4.3021 -1.31298 0
M  V30 3179 C 297.929 -3.16193 -3.06121 0
M  V30 3180 H 295.048 -0.618799 -0.400321 0
M  V30 3181 H 297.69 -1.86052 -0.385318 0
M  V30 3182 H 295.84 -2.81809 -2.67425 0
M  V30 3183 H 297.512 -4.55538 -0.726807 0
M  V30 3184 H 295.755 -4.29421 -0.614853 0
M  V30 3185 H 296.426 -5.14 -2.01265 0
M  V30 3186 H 298.902 -3.28916 -2.5486 0
M  V30 3187 H 297.778 -4.05266 -3.70204 0
M  V30 3188 H 298.039 -2.31676 -3.76535 0
M  V30 3189 N 297.098 0.621204 -1.44841 0
M  V30 3190 C 298.008 1.7612 -1.5498 0
M  V30 3191 C 299.024 1.68477 -0.434927 0
M  V30 3192 O 300.2 1.89076 -0.693693 0
M  V30 3193 C 297.265 3.1254 -1.50065 0
M  V30 3194 C 296.326 3.31741 -2.72482 0
M  V30 3195 C 295.559 4.61653 -2.67792 0
M  V30 3196 O 295.782 5.431 -1.74352 0
M  V30 3197 O 294.716 4.83271 -3.58794 0
M  V30 3198 H 298.542 1.70518 -2.51311 0
M  V30 3199 H 296.127 0.783643 -1.27198 0
M  V30 3200 H 298.009 3.93844 -1.49882 0
M  V30 3201 H 296.684 3.18663 -0.568806 0
M  V30 3202 H 295.591 2.50077 -2.7823 0
M  V30 3203 H 296.924 3.30486 -3.64746 0
M  V30 3204 N 298.576 1.31904 0.862503 0
M  V30 3205 C 299.822 1.23207 1.61838 0
M  V30 3206 C 300.177 -0.206062 1.91293 0
M  V30 3207 O 299.47 -1.14162 1.53875 0
M  V30 3208 C 299.664 2.01713 2.95037 0
M  V30 3209 C 299.493 3.53014 2.78588 0
M  V30 3210 C 298.263 4.22359 2.77382 0
M  V30 3211 C 300.461 4.47819 2.52909 0
M  V30 3212 N 298.443 5.59766 2.52062 0
M  V30 3213 C 299.814 5.72947 2.36922 0
M  V30 3214 C 301.869 4.37162 2.38314 0
M  V30 3215 C 300.572 6.88623 2.07823 0
M  V30 3216 C 302.598 5.5263 2.10604 0
M  V30 3217 C 301.96 6.76752 1.95411 0
M  V30 3218 H 298.059 0.505984 0.596242 0
M  V30 3219 H 300.643 1.66179 1.01452 0
M  V30 3220 H 298.814 1.61098 3.53415 0
M  V30 3221 H 300.546 1.84975 3.59953 0
M  V30 3222 H 297.301 3.74401 2.90036 0
M  V30 3223 H 297.725 6.32135 2.42352 0
M  V30 3224 H 302.367 3.41857 2.48784 0
M  V30 3225 H 300.085 7.83948 1.9609 0
M  V30 3226 H 303.671 5.46307 2.00101 0
M  V30 3227 H 302.551 7.6459 1.74274 0
M  V30 3228 N 300.054 -1.07777 1.14986 0
M  V30 3229 C 300.964 -2.18404 0.856546 0
M  V30 3230 C 301.98 -1.73211 -0.165485 0
M  V30 3231 O 303.156 -2.01399 0.00755219 0
M  V30 3232 C 300.221 -3.44977 0.34526 0
M  V30 3233 C 299.282 -4.0476 1.43065 0
M  V30 3234 C 298.515 -5.25291 0.943663 0
M  V30 3235 O 298.738 -5.70004 -0.212426 0
M  V30 3236 O 297.672 -5.76638 1.72547 0
M  V30 3237 H 301.498 -2.45978 1.78125 0
M  V30 3238 H 299.083 -1.17033 0.928631 0
M  V30 3239 H 300.965 -4.21348 0.0663671 0
M  V30 3240 H 299.64 -3.18965 -0.551631 0
M  V30 3241 H 298.547 -3.29949 1.76309 0
M  V30 3242 H 299.88 -4.35035 2.30229 0
M  V30 3243 N 301.532 -0.945985 -1.26051 0
M  V30 3244 C 302.778 -0.597002 -1.93814 0
M  V30 3245 C 303.111 0.862484 -1.73997 0
M  V30 3246 O 302.386 1.61769 -1.07986 0
M  V30 3247 C 302.669 -0.945937 -3.47454 0
M  V30 3248 C 302.522 -2.46052 -3.76535 0
M  V30 3249 C 303.841 -0.464785 -4.37639 0
M  V30 3250 H 300.96 -0.218366 -0.703907 0
M  V30 3251 H 303.602 -1.18107 -1.48831 0
M  V30 3252 H 301.752 -0.448902 -3.85898 0
M  V30 3253 H 303.424 -3.03065 -3.47778 0
M  V30 3254 H 301.667 -2.90194 -3.22444 0
M  V30 3255 H 302.338 -2.65517 -4.83947 0
M  V30 3256 H 304.814 -0.891016 -4.06448 0
M  V30 3257 H 303.69 -0.737712 -5.4392 0
M  V30 3258 H 303.951 0.635274 -4.37512 0
M  V30 3259 N 303.011 1.40521 -0.713556 0
M  V30 3260 C 303.961 2.27971 -0.036165 0
M  V30 3261 C 304.945 1.43151 0.734623 0
M  V30 3262 O 306.137 1.66261 0.607158 0
M  V30 3263 C 303.266 3.31661 0.886331 0
M  V30 3264 C 302.352 4.23955 0.110836 0
M  V30 3265 N 302.743 4.97641 -0.904847 0
M  V30 3266 C 301.041 4.44674 0.343692 0
M  V30 3267 C 301.742 5.65322 -1.37064 0
M  V30 3268 N 300.718 5.39162 -0.693168 0
M  V30 3269 H 304.52 2.82384 -0.814645 0
M  V30 3270 H 302.034 1.52948 -0.545963 0
M  V30 3271 H 304.031 3.93154 1.38692 0
M  V30 3272 H 302.691 2.78808 1.66421 0
M  V30 3273 H 303.702 5.01689 -1.28563 0
M  V30 3274 H 300.379 4.02801 1.09805 0
M  V30 3275 H 301.769 6.34359 -2.21447 0
M  V30 3276 N 304.489 0.459591 1.5075 0
M  V30 3277 C 305.737 -0.0991532 2.01857 0
M  V30 3278 C 306.058 -1.41247 1.34441 0
M  V30 3279 O 305.328 -1.89775 0.486022 0
M  V30 3280 H 303.908 -0.039633 0.745948 0
M  V30 3281 H 306.57 0.607387 1.85194 0
M  V30 3282 H 305.666 -0.258998 3.11023 0
M  V30 3283 N 305.967 -1.56429 0.191757 0
M  V30 3284 C 306.9 -2.14829 -0.76967 0
M  V30 3285 C 307.878 -1.08405 -1.2119 0
M  V30 3286 O 309.062 -1.36498 -1.30002 0
M  V30 3287 C 306.189 -2.70446 -2.03903 0
M  V30 3288 C 305.235 -3.89428 -1.7392 0
M  V30 3289 S 306.068 -5.28048 -0.890265 0
M  V30 3290 C 307.224 -5.87085 -2.16984 0
M  V30 3291 H 307.457 -2.96042 -0.273204 0
M  V30 3292 H 304.99 -1.54383 -0.0231975 0
M  V30 3293 H 306.948 -3.03134 -2.76803 0
M  V30 3294 H 305.609 -1.89281 -2.50662 0
M  V30 3295 H 304.802 -4.26742 -2.68155 0
M  V30 3296 H 304.404 -3.57732 -1.09103 0
M  V30 3297 H 306.696 -6.01244 -3.12269 0
M  V30 3298 H 307.639 -6.83747 -1.84108 0
M  V30 3299 H 308.047 -5.15663 -2.29678 0
M  V30 3300 N 307.445 0.0818655 -1.57387 0
M  V30 3301 C 308.856 0.634871 -1.75574 0
M  V30 3302 C 309.207 1.78435 -0.815809 0
M  V30 3303 O 308.332 2.164 0.0025366 0
M  V30 3304 C 308.927 1.15845 -3.18379 0
M  V30 3305 C 307.486 1.65741 -3.37945 0
M  V30 3306 C 306.633 0.572549 -2.71325 0
M  V30 3307 H 309.584 -0.144268 -1.58043 0
M  V30 3308 H 309.605 2.02751 -3.21982 0
M  V30 3309 H 309.117 0.321631 -3.86765 0
M  V30 3310 H 307.218 2.51781 -2.74658 0
M  V30 3311 H 307.331 1.74129 -4.46336 0
M  V30 3312 H 305.695 1.01518 -2.33594 0
M  V30 3313 H 306.478 -0.253918 -3.4236 0
M  V30 3314 N 308.923 1.53595 0.353017 0
M  V30 3315 C 309.886 1.80232 1.41594 0
M  V30 3316 C 310.886 0.673081 1.46035 0
M  V30 3317 O 312.076 0.941335 1.46576 0
M  V30 3318 C 309.208 1.93578 2.80607 0
M  V30 3319 H 310.401 2.75174 1.19244 0
M  V30 3320 H 307.954 1.44864 0.586872 0
M  V30 3321 H 308.689 1.00746 3.08254 0
M  V30 3322 H 308.474 2.75724 2.78781 0
M  V30 3323 H 309.964 2.15735 3.57558 0
M  V30 3324 N 310.401 -0.613514 1.45168 0
M  V30 3325 C 311.647 -1.37471 1.49096 0
M  V30 3326 C 311.98 -1.93765 0.129901 0
M  V30 3327 O 311.255 -1.74707 -0.854858 0
M  V30 3328 C 311.538 -2.52701 2.56542 0
M  V30 3329 C 311.391 -2.01643 4.0207 0
M  V30 3330 C 312.71 -3.54849 2.60327 0
M  V30 3331 H 309.829 -0.498502 0.54283 0
M  V30 3332 H 312.471 -0.692125 1.76945 0
M  V30 3333 H 310.621 -3.10931 2.32926 0
M  V30 3334 H 312.293 -1.48108 4.36877 0
M  V30 3335 H 310.536 -1.32688 4.13009 0
M  V30 3336 H 311.207 -2.84681 4.72928 0
M  V30 3337 H 313.683 -3.0645 2.81474 0
M  V30 3338 H 312.559 -4.32973 3.37381 0
M  V30 3339 H 312.82 -4.10079 1.6519 0
M  V30 3340 N 311.879 -1.3236 -0.855495 0
M  V30 3341 C 312.826 -1.21225 -1.964 0
M  V30 3342 C 313.796 -0.0946204 -1.6583 0
M  V30 3343 O 314.981 -0.27002 -1.8888 0
M  V30 3344 C 312.121 -0.940419 -3.32039 0
M  V30 3345 C 311.234 -2.14276 -3.75113 0
M  V30 3346 C 310.369 -1.80648 -4.9954 0
M  V30 3347 C 309.408 -2.97208 -5.35102 0
M  V30 3348 N 308.545 -2.63678 -6.50706 0
M  V30 3349 H 313.385 -2.16042 -2.05255 0
M  V30 3350 H 310.922 -1.07451 -1.00463 0
M  V30 3351 H 312.88 -0.763311 -4.10158 0
M  V30 3352 H 311.51 -0.0290413 -3.22787 0
M  V30 3353 H 310.562 -2.43017 -2.92655 0
M  V30 3354 H 311.874 -3.01468 -3.97389 0
M  V30 3355 H 311.028 -1.59484 -5.85363 0
M  V30 3356 H 309.767 -0.906678 -4.79198 0
M  V30 3357 H 308.772 -3.19004 -4.47791 0
M  V30 3358 H 309.997 -3.87918 -5.57401 0
M  V30 3359 H 307.943 -1.76238 -6.31883 0
M  V30 3360 H 307.86 -3.444 -6.72997 0
M  V30 3361 H 309.128 -2.45942 -7.39684 0
M  V30 3362 N 313.357 1.07166 -1.15556 0
M  V30 3363 C 314.305 2.16517 -0.8499 0
M  V30 3364 C 315.299 1.68468 0.177454 0
M  V30 3365 O 316.505 1.79971 0.0323026 0
M  V30 3366 H 312.88 0.706652 -0.25719 0
M  V30 3367 H 314.851 2.39514 -1.77976 0
M  V30 3368 C 313.6 3.45855 -0.357682 0
M  V30 3369 H 312.923 3.83214 -1.13961 0
M  V30 3370 H 314.363 4.23607 -0.182489 0
M  V30 3371 C 312.822 3.24062 0.921152 0
M  V30 3372 O 313.352 3.48813 1.9923 0
M  V30 3373 N 311.558 2.77539 0.86141 0
M  V30 3374 H 311.105 2.57598 -0.0104408 0
M  V30 3375 H 311.063 2.63337 1.71758 0
M  V30 3376 N 314.835 0.952656 1.25548 0
M  V30 3377 C 316.081 0.607272 1.93494 0
M  V30 3378 C 316.414 -0.853245 1.74452 0
M  V30 3379 O 315.689 -1.61194 1.08843 0
M  V30 3380 C 315.972 0.96435 3.46947 0
M  V30 3381 C 315.825 2.48045 3.75225 0
M  V30 3382 C 317.144 0.487987 4.37386 0
M  V30 3383 H 314.263 0.222096 0.702739 0
M  V30 3384 H 316.905 1.18895 1.48203 0
M  V30 3385 H 315.055 0.469361 3.85654 0
M  V30 3386 H 316.727 3.04905 3.46166 0
M  V30 3387 H 314.97 2.919 3.209 0
M  V30 3388 H 315.641 2.6808 4.82532 0
M  V30 3389 H 318.117 0.912558 4.0597 0
M  V30 3390 H 316.993 0.766547 5.43521 0
M  V30 3391 H 317.254 -0.612063 4.37843 0
M  V30 3392 N 316.313 -1.40141 0.720998 0
M  V30 3393 C 317.562 -2.0002 0.259804 0
M  V30 3394 C 317.875 -1.57839 -1.15526 0
M  V30 3395 O 319.081 -2.10455 -1.71525 0
M  V30 3396 C 317.537 -3.57516 0.413566 0
M  V30 3397 C 317.145 -4.08667 1.83562 0
M  V30 3398 C 318.889 -4.24498 0.0134387 0
M  V30 3399 C 316.796 -5.58686 1.93968 0
M  V30 3400 H 315.726 -0.748195 0.0933806 0
M  V30 3401 H 318.377 -1.60313 0.892866 0
M  V30 3402 H 316.759 -3.9495 -0.288169 0
M  V30 3403 H 317.933 -3.82598 2.56817 0
M  V30 3404 H 316.248 -3.543 2.1877 0
M  V30 3405 H 318.845 -5.34654 0.0703954 0
M  V30 3406 H 319.188 -4.03375 -1.02927 0
M  V30 3407 H 319.721 -3.92188 0.665815 0
M  V30 3408 H 316.46 -5.8467 2.96379 0
M  V30 3409 H 315.98 -5.86602 1.25131 0
M  V30 3410 H 317.659 -6.23875 1.71431 0
M  V30 3411 N 317.792 -0.46758 -1.50504 0
M  V30 3412 C 319.017 0.0886943 -2.0721 0
M  V30 3413 C 319.442 1.33057 -1.32956 0
M  V30 3414 O 318.8 1.77354 -0.376197 0
M  V30 3415 C 318.848 0.359202 -3.58806 0
M  V30 3416 O 317.952 1.44034 -3.8643 0
M  V30 3417 H 317.293 -0.0114349 -0.663902 0
M  V30 3418 H 319.823 -0.657613 -1.93744 0
M  V30 3419 H 319.833 0.600742 -4.03553 0
M  V30 3420 H 318.508 -0.548311 -4.1227 0
M  V30 3421 H 317.085 1.18638 -3.53524 0
M  V30 3422 N 319.27 1.56325 -0.20005 0
M  V30 3423 C 320.5 2.01811 0.442232 0
M  V30 3424 C 320.908 1.07932 1.55394 0
M  V30 3425 O 320.251 0.0772685 1.83537 0
M  V30 3426 C 320.313 3.43685 1.05457 0
M  V30 3427 C 319.977 4.56928 0.0809833 0
M  V30 3428 C 320.974 5.15009 -0.711471 0
M  V30 3429 C 318.659 5.0229 -0.0315364 0
M  V30 3430 C 320.653 6.16904 -1.60336 0
M  V30 3431 C 318.34 6.04028 -0.926981 0
M  V30 3432 C 319.338 6.6121 -1.71146 0
M  V30 3433 O 319.026 7.60971 -2.59189 0
M  V30 3434 H 318.758 0.666173 0.114848 0
M  V30 3435 H 321.312 2.03085 -0.307511 0
M  V30 3436 H 319.542 3.39413 1.85299 0
M  V30 3437 H 321.231 3.72948 1.60201 0
M  V30 3438 H 321.997 4.80827 -0.634873 0
M  V30 3439 H 317.876 4.57476 0.568902 0
M  V30 3440 H 321.42 6.61464 -2.21611 0
M  V30 3441 H 317.317 6.37634 -1.00468 0
M  V30 3442 H 318.085 7.7841 -2.53023 0
M  V30 3443 N 320.748 -0.0735177 1.57428 0
M  V30 3444 C 321.996 -0.771472 1.86796 0
M  V30 3445 C 322.317 -1.78201 0.791804 0
M  V30 3446 O 321.587 -1.95074 -0.179718 0
M  V30 3447 H 320.167 -0.28791 0.689287 0
M  V30 3448 H 322.829 -0.0500161 1.94836 0
M  V30 3449 H 321.925 -1.28874 2.8425 0
M  V30 3450 N 322.226 -1.5378 -0.344866 0
M  V30 3451 C 323.466 -1.72677 -1.09371 0
M  V30 3452 C 323.83 -0.479084 -1.85927 0
M  V30 3453 O 325.031 -0.54505 -2.63216 0
M  V30 3454 C 323.302 -2.95457 -2.01097 0
M  V30 3455 S 324.861 -3.35158 -2.83222 0
M  V30 3456 H 321.679 -0.607402 -0.369573 0
M  V30 3457 H 324.281 -1.91922 -0.372307 0
M  V30 3458 H 322.985 -3.84437 -1.43655 0
M  V30 3459 H 322.516 -2.78673 -2.77678 0
M  V30 3460 H 324.531 -2.88789 -4.03504 0
M  V30 3461 N 323.704 0.605807 -1.45491 0
M  V30 3462 C 324.944 1.37606 -1.51142 0
M  V30 3463 C 325.308 1.91413 -0.150075 0
M  V30 3464 O 326.509 2.68677 -0.0812828 0
M  V30 3465 C 324.78 2.49197 -2.56195 0
M  V30 3466 S 326.339 3.36953 -2.81083 0
M  V30 3467 H 323.157 0.469118 -0.534275 0
M  V30 3468 H 325.759 0.698845 -1.82583 0
M  V30 3469 H 324.463 2.0802 -3.53773 0
M  V30 3470 H 323.994 3.21717 -2.26411 0
M  V30 3471 H 326.009 4.47395 -2.14598 0
M  V30 3472 N 325.182 1.32811 0.848464 0
M  V30 3473 C 326.407 1.26882 1.6406 0
M  V30 3474 C 326.832 -0.15913 1.87426 0
M  V30 3475 O 326.19 -1.11258 1.43148 0
M  V30 3476 C 326.238 2.03997 2.97351 0
M  V30 3477 O 325.342 1.39201 3.88197 0
M  V30 3478 H 324.683 0.436982 0.499943 0
M  V30 3479 H 327.213 1.75224 1.0563 0
M  V30 3480 H 327.223 2.14403 3.47124 0
M  V30 3481 H 325.898 3.0783 2.79666 0
M  V30 3482 H 324.475 1.37381 3.46671 0
M  V30 3483 N 326.66 -1.06551 1.16123 0
M  V30 3484 C 327.57 -2.17484 0.879662 0
M  V30 3485 C 328.586 -1.73377 -0.147104 0
M  V30 3486 O 329.762 -2.01379 0.0289128 0
M  V30 3487 C 326.827 -3.44591 0.381829 0
M  V30 3488 C 325.888 -4.0322 1.4735 0
M  V30 3489 C 325.121 -5.24261 0.999324 0
M  V30 3490 O 325.344 -5.70198 -0.151957 0
M  V30 3491 O 324.278 -5.74775 1.78653 0
M  V30 3492 H 328.104 -2.44075 1.80724 0
M  V30 3493 H 325.689 -1.16042 0.940992 0
M  V30 3494 H 327.571 -4.21254 0.111053 0
M  V30 3495 H 326.246 -3.19532 -0.51777 0
M  V30 3496 H 325.153 -3.2806 1.79798 0
M  V30 3497 H 326.486 -4.32568 2.34831 0
M  V30 3498 N 328.138 -0.959301 -1.25041 0
M  V30 3499 C 329.549 -0.65667 -1.74771 0
M  V30 3500 C 329.9 0.827852 -1.77879 0
M  V30 3501 O 329.025 1.64783 -1.40269 0
M  V30 3502 C 329.62 -1.1853 -3.1739 0
M  V30 3503 C 328.179 -0.932734 -3.6466 0
M  V30 3504 C 327.326 -1.32558 -2.43564 0
M  V30 3505 H 330.277 -1.13558 -1.10862 0
M  V30 3506 H 330.298 -0.547582 -3.76539 0
M  V30 3507 H 329.81 -2.26576 -3.15095 0
M  V30 3508 H 327.911 0.13257 -3.72364 0
M  V30 3509 H 328.024 -1.57248 -4.52559 0
M  V30 3510 H 326.388 -0.743956 -2.43593 0
M  V30 3511 H 327.171 -2.41537 -2.43957 0
M  V30 3512 N 329.616 1.39756 -0.72842 0
M  V30 3513 C 330.846 2.04651 -0.283117 0
M  V30 3514 C 331.254 1.5502 1.08469 0
M  V30 3515 O 330.597 0.707343 1.69536 0
M  V30 3516 C 330.659 3.58947 -0.199309 0
M  V30 3517 C 330.323 4.31525 -1.5045 0
M  V30 3518 C 331.32 4.5861 -2.44894 0
M  V30 3519 C 329.005 4.70195 -1.76698 0
M  V30 3520 C 330.999 5.23366 -3.63822 0
M  V30 3521 C 328.686 5.3468 -2.95906 0
M  V30 3522 C 329.684 5.61198 -3.89289 0
M  V30 3523 O 329.372 6.24347 -5.06404 0
M  V30 3524 H 329.104 0.664777 -0.122666 0
M  V30 3525 H 331.658 1.79913 -0.990987 0
M  V30 3526 H 329.888 3.82556 0.56461 0
M  V30 3527 H 331.577 4.0534 0.213125 0
M  V30 3528 H 332.343 4.29187 -2.25883 0
M  V30 3529 H 328.222 4.48916 -1.04859 0
M  V30 3530 H 331.766 5.4398 -4.36728 0
M  V30 3531 H 327.663 5.63524 -3.14819 0
M  V30 3532 H 328.431 6.42842 -5.06652 0
M  V30 3533 N 331.094 0.475555 1.50254 0
M  V30 3534 C 332.505 0.0215174 1.86688 0
M  V30 3535 C 332.856 -1.38467 1.39001 0
M  V30 3536 O 331.981 -2.02732 0.756894 0
M  V30 3537 C 332.576 0.0322715 3.38785 0
M  V30 3538 C 331.135 -0.366314 3.74613 0
M  V30 3539 C 330.282 0.415832 2.74164 0
M  V30 3540 H 333.233 0.689612 1.42934 0
M  V30 3541 H 333.254 -0.76889 3.7265 0
M  V30 3542 H 332.766 1.05584 3.73462 0
M  V30 3543 H 330.867 -1.39406 3.45538 0
M  V30 3544 H 330.98 -0.064555 4.79057 0
M  V30 3545 H 329.344 -0.131048 2.54363 0
M  V30 3546 H 330.127 1.43899 3.11686 0
M  V30 3547 N 332.573 -1.56217 0.208337 0
M  V30 3548 C 333.85 -1.89739 -0.475234 0
M  V30 3549 C 334.23 -1.1238 -1.78701 0
M  V30 3550 O 333.578 -0.228979 -2.2735 0
M  V30 3551 C 333.788 -3.42289 -0.681101 0
M  V30 3552 C 335.136 -4.12789 -0.994507 0
M  V30 3553 O 336.16 -3.47814 -0.768357 0
M  V30 3554 O 335.019 -5.27649 -1.42299 0
M  V30 3555 H 332.113 -0.788478 -0.249461 0
M  V30 3556 H 334.659 -1.67855 0.249538 0
M  V30 3557 H 333.431 -3.90534 0.244722 0
M  V30 3558 H 333.054 -3.69909 -1.45785 0
M  V30 3559 N 334.051 0.0651679 -1.57465 0
M  V30 3560 C 335.297 0.764193 -1.87851 0
M  V30 3561 C 335.63 1.76889 -0.801495 0
M  V30 3562 O 334.905 1.93594 0.187528 0
M  V30 3563 C 335.188 1.46625 -3.28897 0
M  V30 3564 C 335.041 0.477515 -4.47258 0
M  V30 3565 C 336.36 2.4095 -3.68281 0
M  V30 3566 H 333.479 0.276351 -0.683227 0
M  V30 3567 H 336.121 0.0272868 -1.8998 0
M  V30 3568 H 334.271 2.09438 -3.27212 0
M  V30 3569 H 335.943 -0.145922 -4.61069 0
M  V30 3570 H 334.186 -0.206576 -4.33308 0
M  V30 3571 H 334.857 1.0065 -5.42746 0
M  V30 3572 H 337.333 1.88209 -3.71102 0
M  V30 3573 H 336.209 2.87072 -4.67847 0
M  V30 3574 H 336.47 3.26049 -2.98571 0
M  V30 3575 N 335.529 1.53961 0.336706 0
M  V30 3576 C 336.757 1.75483 1.09605 0
M  V30 3577 C 337.172 0.4972 1.82136 0
M  V30 3578 O 336.529 -0.53149 1.74589 0
M  V30 3579 C 336.58 2.93943 2.10428 0
M  V30 3580 O 336.301 4.14842 1.40846 0
M  V30 3581 C 337.802 3.27571 2.98684 0
M  V30 3582 H 335.022 0.586166 0.326574 0
M  V30 3583 H 337.566 2.00808 0.38683 0
M  V30 3584 H 335.721 2.70929 2.76905 0
M  V30 3585 H 336.135 4.81383 2.08255 0
M  V30 3586 H 337.609 4.13791 3.6535 0
M  V30 3587 H 338.086 2.44168 3.65074 0
M  V30 3588 H 338.692 3.52615 2.37787 0
M  V30 3589 N 337.007 -0.598083 1.45811 0
M  V30 3590 C 338.254 -1.35681 1.50323 0
M  V30 3591 C 338.582 -1.9393 0.148739 0
M  V30 3592 O 337.837 -1.76094 -0.853787 0
M  V30 3593 C 338.136 -2.51669 2.53766 0
M  V30 3594 C 337.802 -2.11508 3.98215 0
M  V30 3595 C 336.464 -2.0027 4.37545 0
M  V30 3596 C 338.816 -1.80308 4.89018 0
M  V30 3597 C 336.144 -1.56067 5.65562 0
M  V30 3598 C 338.496 -1.37589 6.17456 0
M  V30 3599 C 337.16 -1.24916 6.55708 0
M  V30 3600 H 336.43 -0.496492 0.550069 0
M  V30 3601 H 339.077 -0.675052 1.79207 0
M  V30 3602 H 337.382 -3.25225 2.18486 0
M  V30 3603 H 339.079 -3.09895 2.54492 0
M  V30 3604 H 335.669 -2.21185 3.67117 0
M  V30 3605 H 339.853 -1.87884 4.59362 0
M  V30 3606 H 335.109 -1.44886 5.93985 0
M  V30 3607 H 339.283 -1.12495 6.87254 0
M  V30 3608 H 336.91 -0.904386 7.54801 0
M  V30 3609 N 338.485 -1.33259 -0.841409 0
M  V30 3610 C 339.713 -1.27605 -1.62864 0
M  V30 3611 C 340.128 0.153507 -1.88175 0
M  V30 3612 O 339.485 1.09485 -1.46011 0
M  V30 3613 C 339.536 -2.04596 -2.98031 0
M  V30 3614 O 339.257 -3.41975 -2.73834 0
M  V30 3615 C 340.758 -2.06122 -3.92465 0
M  V30 3616 H 337.978 -0.439718 -0.506842 0
M  V30 3617 H 340.522 -1.75591 -1.04824 0
M  V30 3618 H 338.677 -1.60299 -3.5268 0
M  V30 3619 H 339.091 -3.81549 -3.59889 0
M  V30 3620 H 340.565 -2.64451 -4.84531 0
M  V30 3621 H 341.042 -1.05083 -4.26444 0
M  V30 3622 H 341.648 -2.50427 -3.43753 0
M  V30 3623 N 339.963 1.05934 -1.16686 0
M  V30 3624 C 340.893 2.1546 -0.899949 0
M  V30 3625 C 341.874 1.69391 0.155154 0
M  V30 3626 O 343.059 1.94199 0.00648693 0
M  V30 3627 C 340.189 3.44939 -0.404241 0
M  V30 3628 C 339.143 4.04536 -1.39767 0
M  V30 3629 C 338.469 5.29268 -0.760216 0
M  V30 3630 C 339.769 4.42893 -2.76845 0
M  V30 3631 H 341.463 2.38046 -1.81588 0
M  V30 3632 H 339.009 1.14404 -0.874514 0
M  V30 3633 H 340.962 4.20901 -0.204971 0
M  V30 3634 H 339.686 3.21983 0.547206 0
M  V30 3635 H 338.345 3.30635 -1.58355 0
M  V30 3636 H 337.993 5.02611 0.197831 0
M  V30 3637 H 337.693 5.70101 -1.42332 0
M  V30 3638 H 339.217 6.07924 -0.57105 0
M  V30 3639 H 340.631 5.09921 -2.62019 0
M  V30 3640 H 339.028 4.94721 -3.39663 0
M  V30 3641 H 340.098 3.53584 -3.31823 0
M  V30 3642 N 341.441 0.965919 1.2453 0
M  V30 3643 C 342.371 0.513476 2.27784 0
M  V30 3644 C 343.352 -0.445974 1.6415 0
M  V30 3645 O 344.537 -0.342485 1.91156 0
M  V30 3646 C 341.667 -0.198839 3.4673 0
M  V30 3647 C 340.621 0.676456 4.2262 0
M  V30 3648 C 339.947 -0.167248 5.34438 0
M  V30 3649 C 341.247 1.96017 4.84123 0
M  V30 3650 H 342.941 1.3765 2.65881 0
M  V30 3651 H 340.487 0.663321 1.27813 0
M  V30 3652 H 342.44 -0.526567 4.18097 0
M  V30 3653 H 341.164 -1.0962 3.07654 0
M  V30 3654 H 339.823 0.98743 3.53052 0
M  V30 3655 H 339.471 -1.0647 4.91603 0
M  V30 3656 H 339.171 0.415181 5.86131 0
M  V30 3657 H 340.695 -0.489688 6.08633 0
M  V30 3658 H 342.109 1.69814 5.47573 0
M  V30 3659 H 340.506 2.48918 5.4604 0
M  V30 3660 H 341.576 2.65622 4.05676 0
M  V30 3661 N 342.919 -1.39368 0.735821 0
M  V30 3662 C 343.849 -2.33234 0.111506 0
M  V30 3663 C 344.83 -1.53954 -0.723334 0
M  V30 3664 O 346.015 -1.82344 -0.668147 0
M  V30 3665 C 343.145 -3.38057 -0.795917 0
M  V30 3666 C 342.099 -4.2795 -0.065172 0
M  V30 3667 C 341.425 -5.23479 -1.08967 0
M  V30 3668 C 342.725 -5.10741 1.09273 0
M  V30 3669 H 344.419 -2.85692 0.895571 0
M  V30 3670 H 341.965 -1.37364 0.432109 0
M  V30 3671 H 343.918 -4.02675 -1.24221 0
M  V30 3672 H 342.642 -2.8404 -1.61211 0
M  V30 3673 H 341.301 -3.64813 0.361511 0
M  V30 3674 H 340.949 -4.65758 -1.89944 0
M  V30 3675 H 340.649 -5.84472 -0.605489 0
M  V30 3676 H 342.173 -5.90974 -1.53565 0
M  V30 3677 H 343.587 -5.68699 0.724841 0
M  V30 3678 H 341.984 -5.8088 1.50659 0
M  V30 3679 H 343.054 -4.45525 1.91404 0
M  V30 3680 N 344.397 -0.483516 -1.5 0
M  V30 3681 C 345.344 0.304164 -2.28787 0
M  V30 3682 C 346.314 0.976114 -1.34392 0
M  V30 3683 O 347.499 0.986156 -1.63339 0
M  V30 3684 C 344.639 1.37298 -3.16612 0
M  V30 3685 C 343.752 0.714561 -4.26049 0
M  V30 3686 C 342.887 1.76232 -5.01114 0
M  V30 3687 C 341.926 1.08483 -6.0241 0
M  V30 3688 N 341.063 2.076 -6.70706 0
M  V30 3689 H 345.903 -0.373981 -2.95644 0
M  V30 3690 H 343.44 -0.196275 -1.45785 0
M  V30 3691 H 345.398 2.00445 -3.65893 0
M  V30 3692 H 344.028 2.02012 -2.51776 0
M  V30 3693 H 343.08 -0.0297798 -3.80388 0
M  V30 3694 H 344.392 0.180383 -4.98474 0
M  V30 3695 H 343.546 2.46929 -5.54176 0
M  V30 3696 H 342.285 2.33033 -4.28424 0
M  V30 3697 H 341.29 0.363545 -5.48597 0
M  V30 3698 H 342.515 0.523551 -6.77079 0
M  V30 3699 H 340.461 2.63394 -6.00799 0
M  V30 3700 H 340.378 1.59201 -7.39047 0
M  V30 3701 H 341.646 2.77639 -7.2838 0
M  V30 3702 N 345.875 1.56104 -0.216619 0
M  V30 3703 C 347.291 1.58995 0.13886 0
M  V30 3704 C 347.491 1.23333 1.59346 0
M  V30 3705 O 346.547 0.966234 2.33281 0
M  V30 3706 C 347.86 3.00143 -0.182968 0
M  V30 3707 C 349.408 3.12751 -0.124807 0
M  V30 3708 C 349.883 4.56068 -0.420241 0
M  V30 3709 N 351.374 4.61723 -0.369634 0
M  V30 3710 C 352.109 5.70542 -0.571789 0
M  V30 3711 N 351.605 6.87744 -0.835453 0
M  V30 3712 N 353.398 5.59831 -0.504563 0
M  V30 3713 H 345.549 1.77562 -1.16557 0
M  V30 3714 H 347.812 0.825091 -0.466828 0
M  V30 3715 H 347.518 3.30871 -1.19237 0
M  V30 3716 H 347.392 3.73813 0.504367 0
M  V30 3717 H 349.779 2.81822 0.875223 0
M  V30 3718 H 349.86 2.41421 -0.845544 0
M  V30 3719 H 349.504 4.87713 -1.41769 0
M  V30 3720 H 349.434 5.25617 0.321631 0
M  V30 3721 H 351.925 3.77502 -0.173338 0
M  V30 3722 H 352.238 7.66587 -0.977938 0
M  V30 3723 H 350.583 6.895 -0.872592 0
M  V30 3724 H 353.774 4.67145 -0.298842 0
M  V30 3725 H 353.947 6.44573 -0.665519 0
M  V30 3726 N 347.353 -0.0568162 1.57498 0
M  V30 3727 C 348.769 -0.411933 1.54192 0
M  V30 3728 C 348.969 -1.78287 0.938942 0
M  V30 3729 O 348.025 -2.46483 0.547919 0
M  V30 3730 C 349.338 -0.339244 2.9878 0
M  V30 3731 C 350.886 -0.418348 3.10192 0
M  V30 3732 C 351.361 -0.375407 4.56459 0
M  V30 3733 N 352.852 -0.435038 4.61153 0
M  V30 3734 C 353.587 -0.424265 5.71828 0
M  V30 3735 N 353.083 -0.367418 6.91825 0
M  V30 3736 N 354.876 -0.471938 5.60115 0
M  V30 3737 H 347.027 0.840684 1.95055 0
M  V30 3738 H 349.29 0.316987 0.893433 0
M  V30 3739 H 348.996 0.601742 3.46514 0
M  V30 3740 H 348.87 -1.14371 3.59443 0
M  V30 3741 H 351.257 -1.34976 2.62422 0
M  V30 3742 H 351.338 0.414962 2.52412 0
M  V30 3743 H 350.982 0.552219 5.04889 0
M  V30 3744 H 350.912 -1.22645 5.12119 0
M  V30 3745 H 353.403 -0.482612 3.74806 0
M  V30 3746 H 353.716 -0.363535 7.71944 0
M  V30 3747 H 352.061 -0.333879 6.94198 0
M  V30 3748 H 355.252 -0.514145 4.65268 0
M  V30 3749 H 355.425 -0.460073 6.46365 0
M  V30 3750 N 348.832 -1.54138 -0.328536 0
M  V30 3751 C 350.057 -1.76378 -1.09112 0
M  V30 3752 C 350.482 -0.508596 -1.81094 0
M  V30 3753 O 349.84 0.539598 -1.73084 0
M  V30 3754 C 349.888 -2.95358 -2.06872 0
M  V30 3755 O 348.992 -2.66556 -3.14677 0
M  V30 3756 H 348.333 -0.584614 -0.314838 0
M  V30 3757 H 350.863 -2.01146 -0.374348 0
M  V30 3758 H 350.873 -3.22566 -2.4983 0
M  V30 3759 H 349.548 -3.86385 -1.5388 0
M  V30 3760 H 348.125 -2.50282 -2.7643 0
M  V30 3761 N 350.31 0.590341 -1.46126 0
M  V30 3762 C 351.535 1.37991 -1.54833 0
M  V30 3763 C 351.96 1.87163 -0.187506 0
M  V30 3764 O 351.318 1.61133 0.831008 0
M  V30 3765 C 351.366 2.54867 -2.55098 0
M  V30 3766 O 350.47 3.56061 -2.08073 0
M  V30 3767 H 349.811 0.411265 -0.521303 0
M  V30 3768 H 352.341 0.716819 -1.91632 0
M  V30 3769 H 352.351 3.01886 -2.74461 0
M  V30 3770 H 351.026 2.18429 -3.53923 0
M  V30 3771 H 349.603 3.15574 -1.98664 0
M  V30 3772 N 351.788 1.33704 0.83433 0
M  V30 3773 C 353.035 1.25417 1.58987 0
M  V30 3774 C 353.363 -0.178869 1.93676 0
M  V30 3775 O 352.618 -1.13723 1.59265 0
M  V30 3776 C 352.917 2.07926 2.90692 0
M  V30 3777 C 352.583 3.57066 2.75345 0
M  V30 3778 C 351.245 3.97724 2.70867 0
M  V30 3779 C 353.597 4.51817 2.59828 0
M  V30 3780 C 350.925 5.31344 2.48778 0
M  V30 3781 C 353.277 5.85604 2.39272 0
M  V30 3782 C 351.941 6.25439 2.33199 0
M  V30 3783 H 351.211 0.458934 0.581774 0
M  V30 3784 H 353.858 1.65335 0.966261 0
M  V30 3785 H 352.163 1.608 3.57282 0
M  V30 3786 H 353.86 1.98868 3.48213 0
M  V30 3787 H 350.45 3.24785 2.79665 0
M  V30 3788 H 354.634 4.21311 2.62319 0
M  V30 3789 H 349.89 5.61241 2.42526 0
M  V30 3790 H 354.064 6.58623 2.2625 0
M  V30 3791 H 351.691 7.28914 2.15843 0
M  V30 3792 N 353.266 -1.05314 1.17247 0
M  V30 3793 C 354.496 -1.81707 0.983166 0
M  V30 3794 C 354.904 -1.83222 -0.471822 0
M  V30 3795 O 354.247 -1.25721 -1.3394 0
M  V30 3796 C 354.309 -3.29134 1.44606 0
M  V30 3797 C 353.973 -3.51304 2.92292 0
M  V30 3798 C 354.97 -3.4353 3.90235 0
M  V30 3799 C 352.655 -3.78306 3.30439 0
M  V30 3800 C 354.649 -3.62442 5.24323 0
M  V30 3801 C 352.336 -3.96866 4.64694 0
M  V30 3802 C 353.334 -3.88933 5.61445 0
M  V30 3803 O 353.022 -4.06976 6.93272 0
M  V30 3804 H 352.754 -0.579476 0.348114 0
M  V30 3805 H 355.308 -1.33705 1.55924 0
M  V30 3806 H 353.538 -3.78046 0.813537 0
M  V30 3807 H 355.227 -3.87049 1.22262 0
M  V30 3808 H 355.993 -3.22648 3.62109 0
M  V30 3809 H 351.872 -3.83585 2.55702 0
M  V30 3810 H 355.416 -3.56165 5.99827 0
M  V30 3811 H 351.313 -4.1724 4.92525 0
M  V30 3812 H 352.081 -4.24209 6.99992 0
M  V30 3813 N 354.744 -0.972509 -1.24016 0
M  V30 3814 C 355.993 -0.632603 -1.91523 0
M  V30 3815 C 356.306 0.836641 -1.76804 0
M  V30 3816 O 357.512 1.28728 -2.39043 0
M  V30 3817 C 355.968 -1.08082 -3.43287 0
M  V30 3818 C 355.576 -2.57386 -3.66683 0
M  V30 3819 C 357.32 -0.814288 -4.16617 0
M  V30 3820 C 355.227 -2.95915 -5.12043 0
M  V30 3821 H 354.157 -0.232898 -0.717129 0
M  V30 3822 H 356.808 -1.17936 -1.40582 0
M  V30 3823 H 355.19 -0.462339 -3.93292 0
M  V30 3824 H 356.364 -3.24405 -3.27258 0
M  V30 3825 H 354.679 -2.81701 -3.06649 0
M  V30 3826 H 357.276 -1.0781 -5.23718 0
M  V30 3827 H 357.619 0.24955 -4.15551 0
M  V30 3828 H 358.152 -1.39397 -3.72577 0
M  V30 3829 H 354.891 -4.0139 -5.18234 0
M  V30 3830 H 354.411 -2.33584 -5.52448 0
M  V30 3831 H 356.09 -2.86086 -5.80314 0
M  V30 3832 N 356.222 1.38976 -0.743202 0
M  V30 3833 C 357.468 2.0064 -0.295189 0
M  V30 3834 C 357.801 1.5885 1.11716 0
M  V30 3835 O 357.076 0.821181 1.76315 0
M  V30 3836 C 357.359 3.578 -0.406318 0
M  V30 3837 C 357.212 4.09586 -1.85903 0
M  V30 3838 C 358.531 4.39616 0.206439 0
M  V30 3839 H 355.65 0.728935 -0.108733 0
M  V30 3840 H 358.292 1.65067 -0.940897 0
M  V30 3841 H 356.442 3.88235 0.143419 0
M  V30 3842 H 358.114 3.89837 -2.46627 0
M  V30 3843 H 356.357 3.6284 -2.3776 0
M  V30 3844 H 357.028 5.18708 -1.888 0
M  V30 3845 H 359.504 4.15273 -0.262283 0
M  V30 3846 H 358.38 5.48812 0.0983819 0
M  V30 3847 H 358.641 4.22754 1.2935 0
M  V30 3848 N 357.7 0.491464 1.49741 0
M  V30 3849 C 358.648 -0.305837 2.30581 0
M  V30 3850 C 359.642 -0.971642 1.38764 0
M  V30 3851 O 360.848 -0.90042 1.5586 0
M  V30 3852 H 357.223 -0.117482 0.742767 0
M  V30 3853 H 359.194 0.396093 2.95759 0
M  V30 3854 C 357.943 -1.36319 3.19863 0
M  V30 3855 H 357.266 -0.860258 3.90435 0
M  V30 3856 H 358.706 -1.89323 3.79385 0
M  V30 3857 C 357.165 -2.37621 2.38826 0
M  V30 3858 O 357.695 -3.43311 2.08567 0
M  V30 3859 N 355.901 -2.09849 2.01026 0
M  V30 3860 H 355.448 -1.23922 2.25834 0
M  V30 3861 H 355.406 -2.77859 1.47112 0
M  V30 3862 N 359.178 -1.55987 0.224894 0
M  V30 3863 C 360.108 -2.23426 -0.678457 0
M  V30 3864 C 361.089 -1.20709 -1.19847 0
M  V30 3865 O 362.274 -1.49304 -1.24186 0
M  V30 3866 C 359.404 -2.91676 -1.88527 0
M  V30 3867 C 358.358 -4.00893 -1.49896 0
M  V30 3868 C 357.684 -4.56455 -2.78483 0
M  V30 3869 C 358.984 -5.17769 -0.686461 0
M  V30 3870 H 360.678 -2.99175 -0.116173 0
M  V30 3871 H 358.224 -1.43897 -0.054436 0
M  V30 3872 H 360.177 -3.37547 -2.5227 0
M  V30 3873 H 358.901 -2.1338 -2.47258 0
M  V30 3874 H 357.56 -3.55758 -0.884985 0
M  V30 3875 H 357.208 -3.74886 -3.35365 0
M  V30 3876 H 356.908 -5.30169 -2.53368 0
M  V30 3877 H 358.432 -5.05047 -3.43162 0
M  V30 3878 H 359.846 -5.60001 -1.22767 0
M  V30 3879 H 358.243 -5.97735 -0.532259 0
M  V30 3880 H 359.313 -4.83932 0.306196 0
M  V30 3881 N 360.656 0.0484629 -1.57525 0
M  V30 3882 C 361.586 1.0549 -2.08313 0
M  V30 3883 C 362.567 1.38929 -0.981463 0
M  V30 3884 O 363.752 1.48151 -1.25558 0
M  V30 3885 C 360.882 2.36162 -2.54646 0
M  V30 3886 C 359.836 2.17016 -3.68901 0
M  V30 3887 C 359.162 3.53278 -4.01371 0
M  V30 3888 C 360.462 1.57219 -4.98076 0
M  V30 3889 H 362.156 0.632195 -2.92649 0
M  V30 3890 H 359.702 0.302654 -1.40784 0
M  V30 3891 H 361.655 3.06882 -2.88793 0
M  V30 3892 H 360.379 2.80456 -1.67368 0
M  V30 3893 H 359.038 1.48733 -3.35073 0
M  V30 3894 H 358.686 3.95185 -3.11188 0
M  V30 3895 H 358.386 3.41299 -4.78318 0
M  V30 3896 H 359.91 4.25391 -4.38035 0
M  V30 3897 H 361.324 2.17832 -5.30304 0
M  V30 3898 H 359.721 1.55871 -5.79503 0
M  V30 3899 H 360.791 0.535956 -4.81929 0
M  V30 3900 N 362.134 1.5431 0.320358 0
M  V30 3901 C 363.383 1.7188 1.05546 0
M  V30 3902 C 363.696 0.501143 1.89071 0
M  V30 3903 O 364.902 0.558258 2.65699 0
M  V30 3904 C 363.358 3.04025 1.92605 0
M  V30 3905 C 362.966 4.33207 1.14176 0
M  V30 3906 C 364.71 3.30959 2.65832 0
M  V30 3907 C 362.617 5.56412 2.00399 0
M  V30 3908 H 361.547 0.640547 0.397763 0
M  V30 3909 H 364.198 1.80802 0.313522 0
M  V30 3910 H 362.58 2.89019 2.7071 0
M  V30 3911 H 363.754 4.58989 0.40819 0
M  V30 3912 H 362.069 4.13062 0.526165 0
M  V30 3913 H 364.666 4.20203 3.30656 0
M  V30 3914 H 365.009 2.48979 3.33639 0
M  V30 3915 H 365.542 3.46847 1.94787 0
M  V30 3916 H 362.281 6.41004 1.37094 0
M  V30 3917 H 361.801 5.34844 2.7148 0
M  V30 3918 H 363.48 5.92938 2.58908 0
M  V30 3919 N 363.613 -0.582584 1.46437 0
M  V30 3920 C 365.024 -1.1647 1.45916 0
M  V30 3921 C 365.375 -1.95177 0.200077 0
M  V30 3922 O 364.5 -2.04874 -0.696819 0
M  V30 3923 C 365.095 -2.11885 2.64367 0
M  V30 3924 C 363.654 -2.65421 2.66887 0
M  V30 3925 C 362.801 -1.41294 2.38603 0
M  V30 3926 H 365.752 -0.370514 1.54314 0
M  V30 3927 H 365.773 -2.9535 2.39892 0
M  V30 3928 H 365.285 -1.54573 3.5599 0
M  V30 3929 H 363.386 -3.26602 1.79338 0
M  V30 3930 H 363.499 -3.08147 3.66854 0
M  V30 3931 H 361.863 -1.71109 1.88663 0
M  V30 3932 H 362.646 -0.858125 3.32402 0
M  V30 3933 N 365.091 -1.34144 -0.827227 0
M  V30 3934 C 366.331 -1.27603 -1.59677 0
M  V30 3935 C 366.695 0.153035 -1.91389 0
M  V30 3936 O 367.896 0.342566 -2.66608 0
M  V30 3937 C 366.167 -2.13784 -2.86411 0
M  V30 3938 S 367.726 -2.24552 -3.76991 0
M  V30 3939 H 364.544 -0.453789 -0.547354 0
M  V30 3940 H 367.146 -1.69309 -0.977479 0
M  V30 3941 H 365.85 -3.16627 -2.61104 0
M  V30 3942 H 365.381 -1.72959 -3.5334 0
M  V30 3943 H 367.396 -1.41514 -4.75593 0
M  V30 3944 N 366.569 1.04691 -1.17803 0
M  V30 3945 C 367.815 1.78045 -0.970969 0
M  V30 3946 C 368.148 1.87686 0.498751 0
M  V30 3947 O 367.423 1.38035 1.37027 0
M  V30 3948 C 367.706 3.2166 -1.61884 0
M  V30 3949 C 367.559 3.20001 -3.161 0
M  V30 3950 C 368.878 4.1962 -1.3269 0
M  V30 3951 H 365.997 0.64633 -0.354155 0
M  V30 3952 H 368.639 1.22333 -1.45378 0
M  V30 3953 H 366.789 3.69232 -1.20831 0
M  V30 3954 H 368.461 2.80467 -3.66246 0
M  V30 3955 H 366.704 2.58203 -3.48588 0
M  V30 3956 H 367.375 4.21386 -3.56564 0
M  V30 3957 H 369.851 3.80567 -1.68249 0
M  V30 3958 H 368.727 5.18339 -1.80599 0
M  V30 3959 H 368.988 4.414 -0.248622 0
M  V30 3960 N 368.047 0.979072 1.23499 0
M  V30 3961 C 368.977 0.537606 2.27227 0
M  V30 3962 C 369.958 -0.428539 1.64613 0
M  V30 3963 O 371.143 -0.322191 1.91509 0
M  V30 3964 C 368.273 -0.162052 3.46922 0
M  V30 3965 C 367.227 0.721242 4.21879 0
M  V30 3966 C 366.553 -0.110555 5.34586 0
M  V30 3967 C 367.853 2.01141 4.82016 0
M  V30 3968 H 369.547 1.40462 2.64406 0
M  V30 3969 H 367.093 0.67684 1.27102 0
M  V30 3970 H 369.046 -0.482192 4.18632 0
M  V30 3971 H 367.77 -1.06351 3.08799 0
M  V30 3972 H 366.429 1.02482 3.51984 0
M  V30 3973 H 366.077 -1.0125 4.92704 0
M  V30 3974 H 365.777 0.477325 5.85658 0
M  V30 3975 H 367.301 -0.425107 6.09118 0
M  V30 3976 H 368.715 1.75612 5.45741 0
M  V30 3977 H 367.112 2.54695 5.43369 0
M  V30 3978 H 368.182 2.69909 4.02836 0
M  V30 3979 N 369.525 -1.3858 0.750561 0
M  V30 3980 C 370.774 -1.99424 0.302172 0
M  V30 3981 C 371.087 -1.60254 -1.12152 0
M  V30 3982 O 372.293 -2.14046 -1.67023 0
M  V30 3983 C 370.749 -3.56558 0.489307 0
M  V30 3984 C 370.357 -4.04682 1.92189 0
M  V30 3985 C 372.101 -4.24374 0.103478 0
M  V30 3986 C 370.008 -5.54446 2.05775 0
M  V30 3987 H 368.938 -0.746046 0.10923 0
M  V30 3988 H 371.589 -1.58383 0.92667 0
M  V30 3989 H 369.971 -3.95472 -0.204329 0
M  V30 3990 H 371.145 -3.77065 2.64875 0
M  V30 3991 H 369.46 -3.4958 2.26236 0
M  V30 3992 H 372.057 -5.34384 0.183787 0
M  V30 3993 H 372.4 -4.05468 -0.943481 0
M  V30 3994 H 372.933 -3.90688 0.748854 0
M  V30 3995 H 369.672 -5.78252 3.08714 0
M  V30 3996 H 369.192 -5.83816 1.37546 0
M  V30 3997 H 370.871 -6.20099 1.84626 0
M  V30 3998 N 371.003 -0.499398 -1.49478 0
M  V30 3999 C 372.228 0.044722 -2.07352 0
M  V30 4000 C 372.653 1.30207 -1.35749 0
M  V30 4001 O 372.011 1.76516 -0.413732 0
M  V30 4002 C 372.059 0.283013 -3.59488 0
M  V30 4003 O 371.163 1.35804 -3.89398 0
M  V30 4004 H 370.504 -0.0255147 -0.66351 0
M  V30 4005 H 373.034 -0.698561 -1.92305 0
M  V30 4006 H 373.044 0.515007 -4.04737 0
M  V30 4007 H 371.719 -0.635636 -4.11014 0
M  V30 4008 H 370.296 1.11113 -3.55961 0
M  V30 4009 N 372.481 1.55866 -0.233164 0
M  V30 4010 C 373.728 1.98603 0.395374 0
M  V30 4011 C 374.056 1.12105 1.58942 0
M  V30 4012 O 373.311 0.168656 1.94972 0
M  V30 4013 C 373.61 3.46856 0.861724 0
M  V30 4014 C 373.276 4.50348 -0.223066 0
M  V30 4015 C 371.938 4.78371 -0.521038 0
M  V30 4016 C 374.29 5.12355 -0.956124 0
M  V30 4017 C 371.618 5.6568 -1.55638 0
M  V30 4018 C 373.97 6.00786 -1.98089 0
M  V30 4019 C 372.634 6.27148 -2.28565 0
M  V30 4020 H 371.904 0.726739 0.144677 0
M  V30 4021 H 374.551 1.88491 -0.338114 0
M  V30 4022 H 372.856 3.5423 1.67418 0
M  V30 4023 H 374.553 3.77302 1.35809 0
M  V30 4024 H 371.143 4.28596 0.0193234 0
M  V30 4025 H 375.327 4.90765 -0.739166 0
M  V30 4026 H 370.583 5.84365 -1.798 0
M  V30 4027 H 374.757 6.4788 -2.55391 0
M  V30 4028 H 372.384 6.94597 -3.08932 0
M  V30 4029 N 373.959 -0.0401083 1.57549 0
M  V30 4030 C 374.889 -1.04384 2.08869 0
M  V30 4031 C 375.87 -1.38407 0.988817 0
M  V30 4032 O 377.055 -1.47483 1.26342 0
M  V30 4033 C 374.185 -2.34808 2.55895 0
M  V30 4034 C 373.139 -2.15057 3.70047 0
M  V30 4035 C 372.465 -3.51145 4.03239 0
M  V30 4036 C 373.765 -1.54576 4.98902 0
M  V30 4037 H 375.459 -0.616666 2.92981 0
M  V30 4038 H 373.005 -0.295184 1.40942 0
M  V30 4039 H 374.958 -3.05346 2.90417 0
M  V30 4040 H 373.682 -2.79565 1.68853 0
M  V30 4041 H 372.341 -1.46954 3.35857 0
M  V30 4042 H 371.989 -3.93529 3.13279 0
M  V30 4043 H 371.689 -3.38758 4.80122 0
M  V30 4044 H 373.213 -4.23062 4.40285 0
M  V30 4045 H 374.627 -2.15017 5.31451 0
M  V30 4046 H 373.024 -1.52796 5.80322 0
M  V30 4047 H 374.094 -0.51039 4.82206 0
M  V30 4048 N 375.437 -1.54477 -0.31217 0
M  V30 4049 C 376.4 -1.83923 -1.36766 0
M  V30 4050 C 377.4 -0.711563 -1.44199 0
M  V30 4051 O 378.59 -0.979866 -1.44029 0
M  V30 4052 C 375.722 -2.0095 -2.75376 0
M  V30 4053 H 376.915 -2.78239 -1.11906 0
M  V30 4054 H 374.468 -1.46369 -0.548257 0
M  V30 4055 H 375.203 -1.08883 -3.05475 0
M  V30 4056 H 374.988 -2.83018 -2.71373 0
M  V30 4057 H 376.478 -2.2514 -3.51713 0
M  V30 4058 N 376.915 0.57481 -1.46744 0
M  V30 4059 C 378.326 1.15695 -1.46532 0
M  V30 4060 C 378.677 1.95068 -0.210425 0
M  V30 4061 O 377.802 2.05241 0.685944 0
M  V30 4062 C 378.397 2.1048 -2.65487 0
M  V30 4063 C 376.956 2.64002 -2.68291 0
M  V30 4064 C 376.103 1.40026 -2.39349 0
M  V30 4065 H 379.054 0.362325 -1.54509 0
M  V30 4066 H 379.075 2.94074 -2.41455 0
M  V30 4067 H 378.587 1.52683 -3.56805 0
M  V30 4068 H 376.688 3.25646 -1.81067 0
M  V30 4069 H 376.801 3.06197 -3.68483 0
M  V30 4070 H 375.165 1.70106 -1.89568 0
M  V30 4071 H 375.948 0.840485 -3.32852 0
M  V30 4072 N 378.394 1.34581 0.820102 0
M  V30 4073 C 379.324 1.29038 1.94606 0
M  V30 4074 C 380.305 0.1673 1.69275 0
M  V30 4075 O 381.49 0.360112 1.90832 0
M  V30 4076 C 378.62 1.04793 3.31113 0
M  V30 4077 C 377.574 2.13597 3.70891 0
M  V30 4078 C 376.9 1.74537 5.05412 0
M  V30 4079 C 378.2 3.55451 3.8269 0
M  V30 4080 H 379.894 2.23248 1.99501 0
M  V30 4081 H 377.44 1.0747 0.958449 0
M  V30 4082 H 379.393 0.995592 4.0947 0
M  V30 4083 H 378.117 0.0702565 3.26524 0
M  V30 4084 H 376.776 2.17905 2.9481 0
M  V30 4085 H 376.424 0.754226 4.97313 0
M  V30 4086 H 376.124 2.47361 5.32997 0
M  V30 4087 H 377.648 1.70803 5.86224 0
M  V30 4088 H 379.062 3.5354 4.51312 0
M  V30 4089 H 377.459 4.26922 4.21732 0
M  V30 4090 H 378.529 3.92587 2.84611 0
M  V30 4091 N 379.872 -1.04064 1.18357 0
M  V30 4092 C 381.097 -1.81454 1.00445 0
M  V30 4093 C 381.522 -1.82823 -0.442423 0
M  V30 4094 O 380.88 -1.24555 -1.31741 0
M  V30 4095 C 380.928 -3.24925 1.56384 0
M  V30 4096 O 380.032 -4.04856 0.785209 0
M  V30 4097 H 379.373 -0.560604 0.355835 0
M  V30 4098 H 381.903 -1.31059 1.57114 0
M  V30 4099 H 381.913 -3.75702 1.59097 0
M  V30 4100 H 380.588 -3.23244 2.61699 0
M  V30 4101 H 379.165 -3.63537 0.830399 0
M  V30 4102 N 381.35 -0.985608 -1.22978 0
M  V30 4103 C 382.597 -0.657386 -1.91532 0
M  V30 4104 C 382.925 0.809707 -1.76845 0
M  V30 4105 O 382.18 1.60021 -1.12658 0
M  V30 4106 C 382.479 -1.00014 -3.43121 0
M  V30 4107 C 382.145 -2.4583 -3.77993 0
M  V30 4108 C 380.807 -2.85679 -3.87222 0
M  V30 4109 C 383.159 -3.40378 -3.94705 0
M  V30 4110 C 380.487 -4.19081 -4.10595 0
M  V30 4111 C 382.839 -4.73429 -4.1958 0
M  V30 4112 C 381.503 -5.1303 -4.27032 0
M  V30 4113 H 380.773 -0.240555 -0.700867 0
M  V30 4114 H 383.42 -1.24044 -1.45895 0
M  V30 4115 H 381.725 -0.335072 -3.90365 0
M  V30 4116 H 383.422 -0.724322 -3.94404 0
M  V30 4117 H 380.012 -2.13939 -3.71387 0
M  V30 4118 H 384.196 -3.10766 -3.8696 0
M  V30 4119 H 379.452 -4.49362 -4.14589 0
M  V30 4120 H 383.626 -5.46644 -4.31455 0
M  V30 4121 H 381.253 -6.16418 -4.44896 0
M  V30 4122 N 382.828 1.3818 -0.7579 0
M  V30 4123 C 384.058 2.04004 -0.326463 0
M  V30 4124 C 384.466 1.57286 1.05156 0
M  V30 4125 O 383.809 0.743144 1.67997 0
M  V30 4126 C 383.871 3.58444 -0.275402 0
M  V30 4127 C 383.535 4.28237 -1.59569 0
M  V30 4128 C 384.532 4.53312 -2.54566 0
M  V30 4129 C 382.217 4.66341 -1.86631 0
M  V30 4130 C 384.211 5.15531 -3.74842 0
M  V30 4131 C 381.898 5.28283 -3.0718 0
M  V30 4132 C 382.896 5.52814 -4.01106 0
M  V30 4133 O 382.584 6.13465 -5.19534 0
M  V30 4134 H 382.316 0.662026 -0.136739 0
M  V30 4135 H 384.87 1.7777 -1.02893 0
M  V30 4136 H 383.1 3.83667 0.483337 0
M  V30 4137 H 384.789 4.05701 0.127099 0
M  V30 4138 H 385.555 4.24299 -2.34936 0
M  V30 4139 H 381.434 4.46591 -1.14358 0
M  V30 4140 H 384.978 5.34594 -4.48168 0
M  V30 4141 H 380.875 5.56719 -3.26702 0
M  V30 4142 H 381.643 6.31951 -5.20173 0
M  V30 4143 N 384.306 0.507319 1.49211 0
M  V30 4144 C 385.236 -0.256939 2.32082 0
M  V30 4145 C 386.217 -0.956609 1.40652 0
M  V30 4146 O 387.402 -0.946788 1.69557 0
M  V30 4147 C 384.532 -1.31802 3.21318 0
M  V30 4148 C 383.486 -0.737855 4.21592 0
M  V30 4149 C 382.812 -1.89992 4.99807 0
M  V30 4150 C 384.112 0.275325 5.21574 0
M  V30 4151 H 385.806 0.434798 2.96226 0
M  V30 4152 H 383.352 0.210546 1.42452 0
M  V30 4153 H 385.305 -1.86045 3.78107 0
M  V30 4154 H 384.029 -2.03903 2.5513 0
M  V30 4155 H 382.688 -0.217126 3.65956 0
M  V30 4156 H 382.336 -2.60877 4.30061 0
M  V30 4157 H 382.036 -1.51777 5.6766 0
M  V30 4158 H 383.56 -2.44657 5.59442 0
M  V30 4159 H 384.974 -0.179193 5.7302 0
M  V30 4160 H 383.371 0.573649 5.97352 0
M  V30 4161 H 384.441 1.18903 4.70096 0
M  V30 4162 N 385.784 -1.5574 0.241426 0
M  V30 4163 C 387.195 -1.84842 -0.262755 0
M  V30 4164 C 387.546 -1.16317 -1.58003 0
M  V30 4165 O 386.671 -0.439653 -2.11887 0
M  V30 4166 C 387.266 -3.35332 -0.483523 0
M  V30 4167 C 385.825 -3.6468 -0.931977 0
M  V30 4168 C 384.972 -2.77299 -0.0061151 0
M  V30 4169 H 387.923 -1.51761 0.464129 0
M  V30 4170 H 387.944 -3.56615 -1.32688 0
M  V30 4171 H 387.456 -3.85178 0.47537 0
M  V30 4172 H 385.557 -3.20307 -1.90353 0
M  V30 4173 H 385.67 -4.72498 -0.792628 0
M  V30 4174 H 384.034 -2.49408 -0.516503 0
M  V30 4175 H 384.817 -3.2995 0.948052 0
M  V30 4176 N 387.262 0.0317525 -1.57568 0
M  V30 4177 C 388.225 1.01783 -2.0536 0
M  V30 4178 C 389.225 1.29203 -0.957253 0
M  V30 4179 O 390.415 1.24251 -1.22095 0
M  V30 4180 C 387.547 2.35137 -2.46827 0
M  V30 4181 H 388.74 0.605062 -2.93733 0
M  V30 4182 H 386.293 0.278514 -1.53799 0
M  V30 4183 H 387.028 2.81168 -1.61602 0
M  V30 4184 H 386.813 2.16566 -3.26866 0
M  V30 4185 H 388.303 3.05938 -2.84239 0
M  V30 4186 N 388.74 1.54641 0.303973 0
M  V30 4187 C 389.703 1.84646 1.35789 0
M  V30 4188 C 390.703 0.7192 1.4382 0
M  V30 4189 O 391.893 0.987491 1.43507 0
M  V30 4190 C 389.025 2.02407 2.74307 0
M  V30 4191 H 390.218 2.78829 1.10429 0
M  V30 4192 H 387.771 1.46658 0.540487 0
M  V30 4193 H 388.506 1.10502 3.04893 0
M  V30 4194 H 388.291 2.84453 2.69868 0
M  V30 4195 H 389.781 2.27002 3.50514 0
M  V30 4196 N 390.218 -0.567019 1.47046 0
M  V30 4197 C 391.443 -1.3551 1.57009 0
M  V30 4198 C 391.868 -1.86841 0.217259 0
M  V30 4199 O 391.226 -1.62435 -0.805268 0
M  V30 4200 C 391.274 -2.50777 2.5912 0
M  V30 4201 O 390.378 -3.52706 2.13711 0
M  V30 4202 H 389.719 -0.402919 0.52778 0
M  V30 4203 H 392.249 -0.686241 1.92748 0
M  V30 4204 H 392.259 -2.97481 2.79229 0
M  V30 4205 H 390.934 -2.12771 3.57353 0
M  V30 4206 H 389.511 -3.12374 2.03659 0
M  V30 4207 N 391.696 -1.35014 -0.812953 0
M  V30 4208 C 392.944 -1.27678 -1.56661 0
M  V30 4209 C 393.265 0.150359 -1.94419 0
M  V30 4210 O 392.535 1.08532 -1.63088 0
M  V30 4211 H 391.115 -0.469602 -0.580933 0
M  V30 4212 H 393.777 -1.69043 -0.970076 0
M  V30 4213 H 392.873 -1.88833 -2.48492 0
M  V30 4214 N 393.175 1.03435 -1.18907 0
M  V30 4215 C 394.085 2.15075 -0.937015 0
M  V30 4216 C 395.101 1.73706 0.101085 0
M  V30 4217 O 396.277 2.01232 -0.0822948 0
M  V30 4218 C 393.342 3.43458 -0.473057 0
M  V30 4219 C 392.403 3.99172 -1.57989 0
M  V30 4220 C 391.636 5.21427 -1.13797 0
M  V30 4221 O 391.859 5.704 0.000725941 0
M  V30 4222 O 390.793 5.69837 -1.9383 0
M  V30 4223 H 394.619 2.39198 -1.87131 0
M  V30 4224 H 392.204 1.13506 -0.971427 0
M  V30 4225 H 394.086 4.20811 -0.222702 0
M  V30 4226 H 392.761 3.20793 0.432869 0
M  V30 4227 H 391.668 3.23178 -1.88433 0
M  V30 4228 H 393.001 4.2619 -2.46217 0
M  V30 4229 N 394.653 0.992116 1.22453 0
M  V30 4230 C 395.6 0.541731 2.24352 0
M  V30 4231 C 396.57 -0.425519 1.60557 0
M  V30 4232 O 397.755 -0.330453 1.87917 0
M  V30 4233 C 394.895 -0.138248 3.44823 0
M  V30 4234 C 394.008 0.870649 4.23136 0
M  V30 4235 C 393.143 0.164269 5.30946 0
M  V30 4236 C 392.182 1.16159 6.00977 0
M  V30 4237 N 391.319 0.483568 7.00433 0
M  V30 4238 H 396.159 1.41541 2.62241 0
M  V30 4239 H 393.696 0.709013 1.28885 0
M  V30 4240 H 395.654 -0.5494 4.13567 0
M  V30 4241 H 394.284 -0.975721 3.077 0
M  V30 4242 H 393.336 1.40013 3.53696 0
M  V30 4243 H 394.648 1.63014 4.7141 0
M  V30 4244 H 393.802 -0.303653 6.0594 0
M  V30 4245 H 392.541 -0.627733 4.83643 0
M  V30 4246 H 391.546 1.64015 5.24766 0
M  V30 4247 H 392.771 1.95445 6.50368 0
M  V30 4248 H 390.717 -0.289012 6.55363 0
M  V30 4249 H 390.634 1.18152 7.4671 0
M  V30 4250 H 391.902 0.0384219 7.79491 0
M  V30 4251 N 396.131 -1.37776 0.765217 0
M  V30 4252 C 397.377 -2.00145 0.327072 0
M  V30 4253 C 397.71 -1.60607 -1.09175 0
M  V30 4254 O 396.985 -0.849127 -1.74986 0
M  V30 4255 C 397.268 -3.57109 0.46319 0
M  V30 4256 C 397.121 -4.06576 1.92395 0
M  V30 4257 C 398.44 -4.39888 -0.136473 0
M  V30 4258 H 395.559 -0.727113 0.120316 0
M  V30 4259 H 398.201 -1.63549 0.967039 0
M  V30 4260 H 396.351 -3.88414 -0.0816358 0
M  V30 4261 H 398.023 -3.85864 2.52798 0
M  V30 4262 H 396.266 -3.59011 2.43503 0
M  V30 4263 H 396.937 -5.15639 1.97028 0
M  V30 4264 H 399.413 -4.14803 0.328317 0
M  V30 4265 H 398.289 -5.48899 -0.0110582 0
M  V30 4266 H 398.55 -4.24758 -1.22608 0
M  V30 4267 N 397.609 -0.515225 -1.4894 0
M  V30 4268 C 398.834 0.022727 -2.07388 0
M  V30 4269 C 399.259 1.2876 -1.37122 0
M  V30 4270 O 398.617 1.76067 -0.432431 0
M  V30 4271 C 398.665 0.244869 -3.59768 0
M  V30 4272 O 397.769 1.31667 -3.90817 0
M  V30 4273 H 397.11 -0.0325506 -0.663202 0
M  V30 4274 H 399.64 -0.718918 -1.91553 0
M  V30 4275 H 399.65 0.47205 -4.0526 0
M  V30 4276 H 398.325 -0.679194 -4.10317 0
M  V30 4277 H 396.902 1.07331 -3.5712 0
M  V30 4278 N 399.087 1.5561 -0.249682 0
M  V30 4279 C 400.017 2.24477 0.642826 0
M  V30 4280 C 400.998 1.22601 1.17911 0
M  V30 4281 O 402.183 1.5126 1.21795 0
M  V30 4282 C 399.313 2.94638 1.83863 0
M  V30 4283 C 398.267 4.03227 1.435 0
M  V30 4284 C 397.593 4.60828 2.71186 0
M  V30 4285 C 398.893 5.18796 0.604002 0
M  V30 4286 H 400.587 2.99321 0.0685625 0
M  V30 4287 H 398.133 1.43965 0.0315363 0
M  V30 4288 H 400.086 3.41517 2.46868 0
M  V30 4289 H 398.81 2.17287 2.43832 0
M  V30 4290 H 397.469 3.57121 0.828275 0
M  V30 4291 H 397.117 3.80174 3.29358 0
M  V30 4292 H 396.817 5.34132 2.44901 0
M  V30 4293 H 398.341 5.10442 3.35084 0
M  V30 4294 H 399.755 5.61883 1.13842 0
M  V30 4295 H 398.152 5.98506 0.437097 0
M  V30 4296 H 399.222 4.83384 -0.383147 0
M  V30 4297 N 400.565 -0.0233959 1.57583 0
M  V30 4298 C 401.813 -0.711654 1.89156 0
M  V30 4299 C 402.134 -1.75591 0.848096 0
M  V30 4300 O 401.404 -1.95547 -0.117566 0
M  V30 4301 H 399.984 -0.265835 0.698098 0
M  V30 4302 H 402.646 0.0119948 1.94896 0
M  V30 4303 H 401.742 -1.19766 2.88206 0
M  V30 4304 N 402.043 -1.548 -0.295768 0
M  V30 4305 C 403.289 -1.74588 -1.03184 0
M  V30 4306 C 403.622 -0.532962 -1.86744 0
M  V30 4307 O 402.897 0.469872 -1.88739 0
M  V30 4308 C 403.18 -3.03791 -1.93347 0
M  V30 4309 C 403.033 -4.35392 -1.12933 0
M  V30 4310 C 404.352 -3.28892 -2.92435 0
M  V30 4311 H 401.471 -0.635221 -0.373715 0
M  V30 4312 H 404.113 -1.87519 -0.30606 0
M  V30 4313 H 402.263 -2.92898 -2.55232 0
M  V30 4314 H 403.935 -4.58211 -0.532943 0
M  V30 4315 H 402.178 -4.31642 -0.432168 0
M  V30 4316 H 402.849 -5.22074 -1.79284 0
M  V30 4317 H 405.325 -3.39429 -2.4068 0
M  V30 4318 H 404.201 -4.20603 -3.52682 0
M  V30 4319 H 404.462 -2.47437 -3.6637 0
M  V30 4320 N 403.521 0.559213 -1.47345 0
M  V30 4321 C 404.749 1.34194 -1.57479 0
M  V30 4322 C 405.164 1.87463 -0.224261 0
M  V30 4323 O 404.521 1.64888 0.782185 0
M  V30 4324 C 404.572 2.51324 -2.59843 0
M  V30 4325 O 404.293 2.00256 -3.89653 0
M  V30 4326 C 405.794 3.43563 -2.80142 0
M  V30 4327 H 403.014 0.409136 -0.531835 0
M  V30 4328 H 405.558 0.677609 -1.92947 0
M  V30 4329 H 403.713 3.13699 -2.27314 0
M  V30 4330 H 404.127 2.76708 -4.4557 0
M  V30 4331 H 405.601 4.2217 -3.55635 0
M  V30 4332 H 406.078 3.9698 -1.87892 0
M  V30 4333 H 406.684 2.87005 -3.1386 0
M  V30 4334 N 404.999 1.35443 0.805782 0
M  V30 4335 C 406.248 1.28097 1.55801 0
M  V30 4336 C 406.561 -0.142428 1.95081 0
M  V30 4337 O 407.767 -0.33817 2.69386 0
M  V30 4338 C 406.223 2.24653 2.81174 0
M  V30 4339 C 405.831 3.72342 2.49129 0
M  V30 4340 C 407.575 2.2625 3.59181 0
M  V30 4341 C 405.482 4.60719 3.70799 0
M  V30 4342 H 404.412 0.475937 0.584808 0
M  V30 4343 H 407.063 1.60712 0.885661 0
M  V30 4344 H 405.445 1.85011 3.50124 0
M  V30 4345 H 406.619 4.20624 1.88181 0
M  V30 4346 H 404.934 3.73361 1.84366 0
M  V30 4347 H 407.531 2.89495 4.49552 0
M  V30 4348 H 407.874 1.26647 3.96568 0
M  V30 4349 H 408.407 2.64426 2.97193 0
M  V30 4350 H 405.146 5.61324 3.3852 0
M  V30 4351 H 404.666 4.17163 4.3097 0
M  V30 4352 H 406.345 4.76182 4.38018 0
M  V30 4353 N 406.477 -1.02803 1.19454 0
M  V30 4354 C 407.407 -2.12999 0.956758 0
M  V30 4355 C 408.388 -1.69743 -0.110188 0
M  V30 4356 O 409.573 -1.94148 0.0450038 0
M  V30 4357 C 406.703 -3.43746 0.495553 0
M  V30 4358 C 405.657 -4.00688 1.50443 0
M  V30 4359 C 404.983 -5.27067 0.900275 0
M  V30 4360 C 406.283 -4.35397 2.8849 0
M  V30 4361 H 407.977 -2.33148 1.87836 0
M  V30 4362 H 405.523 -1.12045 0.904539 0
M  V30 4363 H 407.476 -4.2021 0.316493 0
M  V30 4364 H 406.2 -3.23321 -0.461646 0
M  V30 4365 H 404.859 -3.2632 1.67065 0
M  V30 4366 H 404.507 -5.02959 -0.064503 0
M  V30 4367 H 404.207 -5.66127 1.57397 0
M  V30 4368 H 405.731 -6.06196 0.73203 0
M  V30 4369 H 407.145 -5.02795 2.75446 0
M  V30 4370 H 405.542 -4.85541 3.52661 0
M  V30 4371 H 406.612 -3.44662 3.41081 0
M  V30 4372 N 407.956 -0.998596 -1.21925 0
M  V30 4373 C 408.886 -0.573688 -2.26343 0
M  V30 4374 C 409.867 0.402296 -1.65274 0
M  V30 4375 O 411.052 0.291683 -1.91997 0
M  V30 4376 C 408.182 0.106839 -3.47136 0
M  V30 4377 C 407.136 -0.788269 -4.20678 0
M  V30 4378 C 406.462 0.0254927 -5.34694 0
M  V30 4379 C 407.762 -2.08784 -4.78755 0
M  V30 4380 H 409.456 -1.44651 -2.62138 0
M  V30 4381 H 407.002 -0.696975 -1.26009 0
M  V30 4382 H 408.955 0.415531 -4.19346 0
M  V30 4383 H 407.679 1.01424 -3.10452 0
M  V30 4384 H 406.338 -1.08069 -3.50309 0
M  V30 4385 H 405.986 0.933989 -4.94253 0
M  V30 4386 H 405.686 -0.570437 -5.84825 0
M  V30 4387 H 407.21 0.328147 -6.09718 0
M  V30 4388 H 408.624 -1.84272 -5.42878 0
M  V30 4389 H 407.021 -2.63307 -5.39249 0
M  V30 4390 H 408.091 -2.76284 -3.98491 0
M  V30 4391 N 409.434 1.37368 -0.772513 0
M  V30 4392 C 410.397 2.28601 -0.165541 0
M  V30 4393 C 411.397 1.48062 0.627238 0
M  V30 4394 O 412.587 1.68268 0.450715 0
M  V30 4395 C 409.719 3.32023 0.772897 0
M  V30 4396 H 410.912 2.83787 -0.969787 0
M  V30 4397 H 408.465 1.46647 -0.540775 0
M  V30 4398 H 409.2 2.81962 1.60212 0
M  V30 4399 H 408.985 3.91555 0.206585 0
M  V30 4400 H 410.475 4.00197 1.19298 0
M  V30 4401 N 410.912 0.523116 1.48665 0
M  V30 4402 C 411.845 -0.290518 2.26343 0
M  V30 4403 C 412.823 -0.950913 1.31895 0
M  V30 4404 O 414.007 -0.976662 1.61225 0
M  V30 4405 C 411.134 -1.41088 3.07915 0
M  V30 4406 C 410.18 -0.862597 4.17686 0
M  V30 4407 S 411.013 0.264135 5.34848 0
M  V30 4408 C 412.169 -0.858864 6.19979 0
M  V30 4409 H 412.402 0.368726 2.95005 0
M  V30 4410 H 409.935 0.30878 1.51281 0
M  V30 4411 H 411.893 -2.0527 3.55492 0
M  V30 4412 H 410.554 -2.04182 2.38681 0
M  V30 4413 H 409.747 -1.70287 4.74361 0
M  V30 4414 H 409.349 -0.297595 3.72814 0
M  V30 4415 H 411.641 -1.7591 6.54264 0
M  V30 4416 H 412.584 -0.330244 7.07329 0
M  V30 4417 H 412.992 -1.13617 5.52948 0
M  V30 4418 N 412.39 -1.55475 0.257931 0
M  V30 4419 C 413.618 -2.03609 -0.367559 0
M  V30 4420 C 414.033 -1.13687 -1.50734 0
M  V30 4421 O 413.39 -0.153479 -1.81853 0
M  V30 4422 C 413.441 -3.51001 -0.864908 0
M  V30 4423 O 413.162 -4.37499 0.229465 0
M  V30 4424 C 414.663 -4.14946 -1.55997 0
M  V30 4425 H 411.883 -0.665459 -0.0860521 0
M  V30 4426 H 414.427 -2.00843 0.385014 0
M  V30 4427 H 412.582 -3.54266 -1.56762 0
M  V30 4428 H 412.996 -5.24286 -0.14998 0
M  V30 4429 H 414.47 -5.19735 -1.85956 0
M  V30 4430 H 414.947 -3.6209 -2.4857 0
M  V30 4431 H 415.553 -4.15635 -0.901543 0
M  V30 4432 N 413.868 0.0150385 -1.57593 0
M  V30 4433 C 415.114 0.704043 -1.90187 0
M  V30 4434 C 415.447 1.74249 -0.857366 0
M  V30 4435 O 414.722 1.94092 0.125843 0
M  V30 4436 C 415.005 1.36087 -3.33395 0
M  V30 4437 C 414.858 0.334981 -4.48551 0
M  V30 4438 C 416.177 2.29112 -3.7576 0
M  V30 4439 H 413.296 0.254475 -0.691673 0
M  V30 4440 H 415.938 -0.0331678 -1.89971 0
M  V30 4441 H 414.088 1.98922 -3.3371 0
M  V30 4442 H 415.76 -0.292534 -4.60372 0
M  V30 4443 H 414.003 -0.344325 -4.32431 0
M  V30 4444 H 414.674 0.833316 -5.45674 0
M  V30 4445 H 417.15 1.76308 -3.76902 0
M  V30 4446 H 416.026 2.72043 -4.76743 0
M  V30 4447 H 416.287 3.16385 -3.08793 0
M  V30 4448 N 415.346 1.54954 0.287554 0
M  V30 4449 C 416.593 1.74873 1.02106 0
M  V30 4450 C 416.921 0.541829 1.86801 0
M  V30 4451 O 416.176 -0.475992 1.89823 0
M  V30 4452 C 416.475 2.99833 1.94512 0
M  V30 4453 C 416.141 4.33029 1.25686 0
M  V30 4454 C 414.803 4.69233 1.06649 0
M  V30 4455 C 417.155 5.15542 0.765913 0
M  V30 4456 C 414.483 5.85518 0.372222 0
M  V30 4457 C 416.835 6.32542 0.0853101 0
M  V30 4458 C 415.499 6.67398 -0.1169 0
M  V30 4459 H 414.769 0.639906 0.373632 0
M  V30 4460 H 417.416 1.89219 0.294665 0
M  V30 4461 H 415.721 2.80325 2.73725 0
M  V30 4462 H 417.418 3.1244 2.51361 0
M  V30 4463 H 414.008 4.04564 1.41512 0
M  V30 4464 H 418.192 4.88059 0.90066 0
M  V30 4465 H 413.448 6.11057 0.204695 0
M  V30 4466 H 417.622 6.95741 -0.302936 0
M  V30 4467 H 415.249 7.57357 -0.656859 0
M  V30 4468 N 416.824 -0.551391 1.4764 0
M  V30 4469 C 417.756 -1.67333 1.56628 0
M  V30 4470 C 418.769 -1.56398 0.452045 0
M  V30 4471 O 419.958 -1.6325 0.721926 0
M  V30 4472 C 417.058 -3.05841 1.45994 0
M  V30 4473 C 416.231 -3.42472 2.72088 0
M  V30 4474 C 415.29 -4.60168 2.55209 0
M  V30 4475 O 414.316 -4.64458 3.2904 0
M  V30 4476 N 415.518 -5.57024 1.63416 0
M  V30 4477 H 418.283 -1.60066 2.53375 0
M  V30 4478 H 415.844 -0.738169 1.44093 0
M  V30 4479 H 417.836 -3.8242 1.32428 0
M  V30 4480 H 416.406 -3.07302 0.573071 0
M  V30 4481 H 415.626 -2.55284 3.00373 0
M  V30 4482 H 416.914 -3.63723 3.55785 0
M  V30 4483 H 416.312 -5.56319 1.02594 0
M  V30 4484 H 414.869 -6.32906 1.558 0
M  V30 4485 N 418.302 -1.35869 -0.798587 0
M  V30 4486 C 419.232 -1.32118 -1.92528 0
M  V30 4487 C 420.213 -0.194209 -1.68988 0
M  V30 4488 O 421.398 -0.390426 -1.90235 0
M  V30 4489 C 418.528 -1.10047 -3.29404 0
M  V30 4490 C 417.482 -2.19471 -3.67446 0
M  V30 4491 C 416.808 -1.82555 -5.02571 0
M  V30 4492 C 418.108 -3.61495 -3.76987 0
M  V30 4493 H 419.802 -2.26394 -1.95924 0
M  V30 4494 H 417.348 -1.08981 -0.94123 0
M  V30 4495 H 419.301 -1.06061 -4.07835 0
M  V30 4496 H 418.025 -0.122195 -3.26371 0
M  V30 4497 H 416.684 -2.22568 -2.91306 0
M  V30 4498 H 416.332 -0.833249 -4.9605 0
M  V30 4499 H 416.032 -2.5581 -5.28995 0
M  V30 4500 H 417.556 -1.80108 -5.83432 0
M  V30 4501 H 418.97 -3.60676 -4.4563 0
M  V30 4502 H 417.367 -4.33577 -4.14887 0
M  V30 4503 H 418.437 -3.97065 -2.78329 0
M  V30 4504 N 419.78 1.02168 -1.19998 0
M  V30 4505 C 420.713 2.10232 -0.887558 0
M  V30 4506 C 421.691 1.61827 0.158317 0
M  V30 4507 O 422.875 1.88471 0.0330249 0
M  V30 4508 C 420.002 3.37092 -0.32964 0
M  V30 4509 C 419.048 4.0438 -1.3557 0
M  V30 4510 S 419.881 4.48956 -2.91888 0
M  V30 4511 C 421.037 5.79024 -2.37658 0
M  V30 4512 H 421.27 2.36409 -1.80272 0
M  V30 4513 H 418.803 1.15211 -1.0279 0
M  V30 4514 H 420.761 4.10498 -0.0142824 0
M  V30 4515 H 419.422 3.08996 0.563941 0
M  V30 4516 H 418.615 4.95632 -0.9146 0
M  V30 4517 H 418.217 3.37176 -1.61828 0
M  V30 4518 H 420.509 6.53942 -1.77103 0
M  V30 4519 H 421.452 6.27924 -3.27287 0
M  V30 4520 H 421.86 5.35043 -1.79971 0
M  V30 4521 N 421.258 1.00505 1.21394 0
M  V30 4522 C 422.504 0.688793 1.90745 0
M  V30 4523 C 422.837 -0.778486 1.77914 0
M  V30 4524 O 422.112 -1.56433 1.15581 0
M  V30 4525 C 422.395 1.11063 3.42545 0
M  V30 4526 C 422.248 2.63737 3.64367 0
M  V30 4527 C 423.567 0.673059 4.34923 0
M  V30 4528 H 420.686 0.251702 0.692687 0
M  V30 4529 H 423.328 1.25074 1.43026 0
M  V30 4530 H 421.478 0.632508 3.83317 0
M  V30 4531 H 423.15 3.19313 3.32922 0
M  V30 4532 H 421.393 3.05248 3.08231 0
M  V30 4533 H 422.064 2.88305 4.70727 0
M  V30 4534 H 424.54 1.08392 4.01734 0
M  V30 4535 H 423.416 0.996383 5.39781 0
M  V30 4536 H 423.677 -0.425808 4.40045 0
M  V30 4537 N 422.737 -1.36956 0.779787 0
M  V30 4538 C 423.7 -2.2851 0.177662 0
M  V30 4539 C 424.7 -1.48393 -0.619377 0
M  V30 4540 O 425.89 -1.68505 -0.441785 0
M  V30 4541 C 423.022 -3.32428 -0.755279 0
M  V30 4542 H 424.215 -2.83269 0.984823 0
M  V30 4543 H 421.768 -1.46358 0.548544 0
M  V30 4544 H 422.503 -2.82808 -1.58714 0
M  V30 4545 H 422.288 -3.91659 -0.185817 0
M  V30 4546 H 423.778 -4.00824 -1.17174 0
M  V30 4547 N 424.215 -0.530993 -1.48385 0
M  V30 4548 C 425.125 0.23503 -2.3342 0
M  V30 4549 C 426.141 0.93801 -1.46552 0
M  V30 4550 O 427.317 0.912745 -1.7953 0
M  V30 4551 C 424.382 1.26778 -3.22689 0
M  V30 4552 C 423.443 0.575038 -4.25431 0
M  V30 4553 C 422.676 1.55858 -5.10435 0
M  V30 4554 O 422.899 2.79129 -4.97437 0
M  V30 4555 O 421.833 1.09742 -5.91811 0
M  V30 4556 H 425.659 -0.461794 -3.00169 0
M  V30 4557 H 423.244 -0.291903 -1.46521 0
M  V30 4558 H 425.126 1.86457 -3.77904 0
M  V30 4559 H 423.801 1.94699 -2.586 0
M  V30 4560 H 422.708 -0.0622782 -3.74048 0
M  V30 4561 H 424.041 -0.062253 -4.92161 0
M  V30 4562 N 425.693 1.55336 -0.266172 0
M  V30 4563 C 426.942 1.98574 0.353749 0
M  V30 4564 C 427.255 1.15789 1.57646 0
M  V30 4565 O 428.461 1.49129 2.26876 0
M  V30 4566 C 426.917 3.53403 0.680747 0
M  V30 4567 C 426.525 4.44953 -0.52165 0
M  V30 4568 C 428.269 4.05251 1.26379 0
M  V30 4569 C 426.176 5.91156 -0.169736 0
M  V30 4570 H 425.106 0.741643 0.135949 0
M  V30 4571 H 427.757 1.79743 -0.369421 0
M  V30 4572 H 426.139 3.68001 1.46257 0
M  V30 4573 H 427.313 4.42121 -1.29869 0
M  V30 4574 H 425.628 4.03691 -1.02093 0
M  V30 4575 H 428.225 5.12021 1.54074 0
M  V30 4576 H 428.568 3.53749 2.19471 0
M  V30 4577 H 429.101 3.94057 0.544447 0
M  V30 4578 H 425.84 6.46736 -1.0683 0
M  V30 4579 H 425.36 5.97079 0.570717 0
M  V30 4580 H 427.039 6.4655 0.241245 0
M  V30 4581 N 427.171 -0.0066808 1.57599 0
M  V30 4582 C 428.104 -1.03397 2.03431 0
M  V30 4583 C 429.082 -1.33872 0.922877 0
M  V30 4584 O 430.266 -1.4615 1.19048 0
M  V30 4585 C 427.393 -2.36325 2.42628 0
M  V30 4586 C 426.439 -2.21557 3.64438 0
M  V30 4587 S 427.272 -1.54789 5.12641 0
M  V30 4588 C 428.428 -2.8916 5.55101 0
M  V30 4589 H 428.661 -0.643687 2.90248 0
M  V30 4590 H 426.194 -0.217349 1.52863 0
M  V30 4591 H 428.152 -3.12759 2.65879 0
M  V30 4592 H 426.813 -2.72495 1.56222 0
M  V30 4593 H 426.006 -3.1974 3.89592 0
M  V30 4594 H 425.608 -1.53267 3.41153 0
M  V30 4595 H 427.9 -3.8547 5.57153 0
M  V30 4596 H 428.843 -2.68713 6.55133 0
M  V30 4597 H 429.251 -2.92762 4.82649 0
M  V30 4598 N 428.649 -1.55105 -0.279332 0
M  V30 4599 C 430.06 -1.66186 -0.850832 0
M  V30 4600 C 430.411 -0.584707 -1.87285 0
M  V30 4601 O 429.536 0.274919 -2.14647 0
M  V30 4602 C 430.131 -3.01264 -1.55001 0
M  V30 4603 C 428.69 -3.14394 -2.06963 0
M  V30 4604 C 427.837 -2.61959 -0.909536 0
M  V30 4605 H 430.788 -1.58602 -0.0558235 0
M  V30 4606 H 430.809 -2.93899 -2.41669 0
M  V30 4607 H 430.321 -3.7964 -0.805931 0
M  V30 4608 H 428.422 -2.4078 -2.84352 0
M  V30 4609 H 428.535 -4.20867 -2.28928 0
M  V30 4610 H 426.899 -2.18957 -1.30116 0
M  V30 4611 H 427.682 -3.42833 -0.179062 0
M  V30 4612 N 430.127 0.543554 -1.4793 0
M  V30 4613 C 431.09 1.63156 -1.60975 0
M  V30 4614 C 432.09 1.53346 -0.483899 0
M  V30 4615 O 433.28 1.5726 -0.749339 0
M  V30 4616 C 430.412 3.02743 -1.56716 0
M  V30 4617 H 431.605 1.52934 -2.57975 0
M  V30 4618 H 429.158 0.764557 -1.36324 0
M  V30 4619 H 429.893 3.18484 -0.611418 0
M  V30 4620 H 429.678 3.11272 -2.38438 0
M  V30 4621 H 431.168 3.81871 -1.6901 0
M  V30 4622 N 431.605 1.3629 0.791371 0
M  V30 4623 C 432.83 1.33726 1.58531 0
M  V30 4624 C 433.255 -0.0794933 1.87932 0
M  V30 4625 O 432.613 -1.05087 1.47738 0
M  V30 4626 C 432.661 2.16425 2.88431 0
M  V30 4627 O 431.765 1.5554 3.81944 0
M  V30 4628 H 431.106 0.457793 0.480959 0
M  V30 4629 H 433.636 1.79547 0.981031 0
M  V30 4630 H 433.646 2.28933 3.37718 0
M  V30 4631 H 432.321 3.19415 2.66359 0
M  V30 4632 H 430.898 1.51961 3.40532 0
M  V30 4633 N 433.083 -1.0153 1.20538 0
M  V30 4634 C 433.993 -2.13557 0.971113 0
M  V30 4635 C 435.009 -1.73845 -0.0734366 0
M  V30 4636 O 436.185 -2.01075 0.114299 0
M  V30 4637 C 433.25 -3.42661 0.527639 0
M  V30 4638 C 432.311 -3.96608 1.64319 0
M  V30 4639 C 431.544 -5.1955 1.22078 0
M  V30 4640 O 431.767 -5.70329 0.0900198 0
M  V30 4641 O 430.701 -5.66681 2.02871 0
M  V30 4642 H 434.527 -2.3619 1.90913 0
M  V30 4643 H 432.112 -1.11946 0.989362 0
M  V30 4644 H 433.994 -4.20404 0.289621 0
M  V30 4645 H 432.669 -3.21441 -0.381779 0
M  V30 4646 H 431.576 -3.20139 1.93551 0
M  V30 4647 H 432.909 -4.22219 2.52966 0
M  V30 4648 N 434.561 -1.01147 -1.20859 0
M  V30 4649 C 435.509 -0.57059 -2.25493 0
M  V30 4650 C 436.503 0.388109 -1.64894 0
M  V30 4651 O 437.709 0.258592 -1.78133 0
M  V30 4652 H 434.084 -0.166191 -0.733406 0
M  V30 4653 H 436.055 -1.46411 -2.60012 0
M  V30 4654 C 434.804 0.0805241 -3.47607 0
M  V30 4655 H 434.127 -0.648156 -3.94511 0
M  V30 4656 H 435.567 0.352197 -4.22535 0
M  V30 4657 C 434.026 1.32175 -3.09889 0
M  V30 4658 O 434.556 2.41553 -3.20959 0
M  V30 4659 N 432.762 1.20392 -2.64488 0
M  V30 4660 H 432.309 0.313905 -2.5568 0
M  V30 4661 H 432.267 2.03541 -2.39621 0
M  V30 4662 N 436.039 1.36541 -0.78704 0
M  V30 4663 C 437.285 1.99599 -0.358872 0
M  V30 4664 C 437.618 1.62323 1.06606 0
M  V30 4665 O 436.893 0.876858 1.73613 0
M  V30 4666 C 437.176 3.56327 -0.519944 0
M  V30 4667 C 437.029 4.03464 -1.98839 0
M  V30 4668 C 438.348 4.4005 0.0664737 0
M  V30 4669 H 435.467 0.725107 -0.131869 0
M  V30 4670 H 438.109 1.6199 -0.992936 0
M  V30 4671 H 436.259 3.88495 0.0198321 0
M  V30 4672 H 437.931 3.81793 -2.58905 0
M  V30 4673 H 436.174 3.55092 -2.49183 0
M  V30 4674 H 436.845 5.12439 -2.05207 0
M  V30 4675 H 439.321 4.14228 -0.394267 0
M  V30 4676 H 438.197 5.48847 -0.0762682 0
M  V30 4677 H 438.458 4.26655 1.15835 0
M  V30 4678 N 437.518 0.538854 1.48102 0
M  V30 4679 C 438.929 0.100679 1.86428 0
M  V30 4680 C 439.28 -1.32447 1.44749 0
M  V30 4681 O 438.405 -1.99339 0.842199 0
M  V30 4682 C 439 0.175933 3.38343 0
M  V30 4683 C 437.559 -0.207098 3.7583 0
M  V30 4684 C 436.706 0.531741 2.72154 0
M  V30 4685 H 439.657 0.749614 1.3988 0
M  V30 4686 H 439.678 -0.610144 3.75576 0
M  V30 4687 H 439.19 1.21328 3.68648 0
M  V30 4688 H 437.291 -1.24626 3.5114 0
M  V30 4689 H 437.404 0.138687 4.78899 0
M  V30 4690 H 435.768 -0.0230462 2.5469 0
M  V30 4691 H 436.551 1.56989 3.05302 0
M  V30 4692 N 438.996 -1.55193 0.274407 0
M  V30 4693 C 439.926 -2.25471 -0.607032 0
M  V30 4694 C 440.907 -1.24461 -1.15946 0
M  V30 4695 O 442.092 -1.53179 -1.19373 0
M  V30 4696 C 439.222 -2.97526 -1.79153 0
M  V30 4697 C 438.176 -4.05459 -1.37067 0
M  V30 4698 C 437.502 -4.65084 -2.6382 0
M  V30 4699 C 438.802 -5.19691 -0.521389 0
M  V30 4700 H 440.496 -2.99393 -0.0209343 0
M  V30 4701 H 438.042 -1.43997 -0.00862866 0
M  V30 4702 H 439.995 -3.45402 -2.41404 0
M  V30 4703 H 438.719 -2.21138 -2.40344 0
M  V30 4704 H 437.378 -3.58393 -0.771355 0
M  V30 4705 H 437.026 -3.85365 -3.23268 0
M  V30 4706 H 436.726 -5.37961 -2.36372 0
M  V30 4707 H 438.25 -5.15708 -3.26921 0
M  V30 4708 H 439.664 -5.63623 -1.04889 0
M  V30 4709 H 438.061 -5.99126 -0.341825 0
M  V30 4710 H 439.131 -4.82713 0.46 0
M  V30 4711 N 440.474 -0.00167713 -1.576 0
M  V30 4712 C 441.723 0.682021 -1.89819 0
M  V30 4713 C 442.036 1.74844 -0.876871 0
M  V30 4714 O 443.242 2.48688 -1.08934 0
M  V30 4715 C 441.698 1.26425 -3.36964 0
M  V30 4716 C 441.306 0.232568 -4.47396 0
M  V30 4717 C 443.05 1.92604 -3.78291 0
M  V30 4718 C 440.957 0.824882 -5.85619 0
M  V30 4719 H 439.887 0.258499 -0.708304 0
M  V30 4720 H 442.538 -0.0624957 -1.83394 0
M  V30 4721 H 440.92 2.05949 -3.38232 0
M  V30 4722 H 442.094 -0.5382 -4.57646 0
M  V30 4723 H 440.409 -0.32888 -4.15099 0
M  V30 4724 H 443.006 2.37827 -4.78897 0
M  V30 4725 H 443.349 2.75732 -3.11894 0
M  V30 4726 H 443.882 1.19812 -3.79328 0
M  V30 4727 H 440.621 0.0323542 -6.55492 0
M  V30 4728 H 440.141 1.56477 -5.79029 0
M  V30 4729 H 441.82 1.32301 -6.33329 0
M  V30 4730 N 441.952 1.55251 0.271103 0
M  V30 4731 C 443.2 1.75599 1.00047 0
M  V30 4732 C 443.521 0.561188 1.8675 0
M  V30 4733 O 442.791 -0.423846 1.9126 0
M  V30 4734 H 441.371 0.647562 0.372387 0
M  V30 4735 H 444.033 1.92656 0.294876 0
M  V30 4736 H 443.129 2.65766 1.6363 0
M  V30 4737 N 443.43 -0.535701 1.48216 0
M  V30 4738 C 444.377 -1.64083 1.62312 0
M  V30 4739 C 445.347 -1.59448 0.465365 0
M  V30 4740 O 446.532 -1.77959 0.688135 0
M  V30 4741 C 443.672 -3.0236 1.66349 0
M  V30 4742 C 442.785 -3.17273 2.93193 0
M  V30 4743 C 441.92 -4.46075 2.88427 0
M  V30 4744 C 440.959 -4.54496 4.1 0
M  V30 4745 N 440.096 -5.7468 4.03345 0
M  V30 4746 H 444.936 -1.51374 2.5669 0
M  V30 4747 H 442.473 -0.737059 1.27302 0
M  V30 4748 H 444.431 -3.82461 1.66672 0
M  V30 4749 H 443.061 -3.13854 0.754672 0
M  V30 4750 H 442.113 -2.30462 3.02641 0
M  V30 4751 H 443.425 -3.19357 3.83162 0
M  V30 4752 H 442.579 -5.3446 2.87119 0
M  V30 4753 H 441.318 -4.46504 1.96177 0
M  V30 4754 H 440.323 -3.64519 4.11589 0
M  V30 4755 H 441.548 -4.5581 5.03402 0
M  V30 4756 H 439.494 -5.76017 3.13912 0
M  V30 4757 H 439.411 -5.78234 4.87013 0
M  V30 4758 H 440.679 -6.65367 4.06087 0
M  V30 4759 N 444.908 -1.36708 -0.784132 0
M  V30 4760 C 446.138 -1.34203 -1.57077 0
M  V30 4761 C 446.546 0.0774945 -1.89041 0
M  V30 4762 O 445.889 1.04628 -1.50992 0
M  V30 4763 C 445.951 -2.10351 -2.91535 0
M  V30 4764 C 445.615 -3.59405 -2.82272 0
M  V30 4765 C 446.612 -4.53545 -2.54151 0
M  V30 4766 C 444.297 -4.02362 -3.00683 0
M  V30 4767 C 446.291 -5.8862 -2.44551 0
M  V30 4768 C 443.978 -5.37526 -2.90704 0
M  V30 4769 C 444.976 -6.30468 -2.62677 0
M  V30 4770 O 444.664 -7.63149 -2.52702 0
M  V30 4771 H 444.396 -0.461791 -0.493685 0
M  V30 4772 H 446.95 -1.80475 -0.980712 0
M  V30 4773 H 445.18 -1.5875 -3.52612 0
M  V30 4774 H 446.869 -2.00636 -3.52845 0
M  V30 4775 H 447.635 -4.21669 -2.39625 0
M  V30 4776 H 443.514 -3.30389 -3.21503 0
M  V30 4777 H 447.058 -6.61133 -2.22596 0
M  V30 4778 H 442.955 -5.69008 -3.04795 0
M  V30 4779 H 443.723 -7.73331 -2.68144 0
M  V30 4780 N 446.386 1.0089 -1.21074 0
M  V30 4781 C 447.616 1.77933 -1.04993 0
M  V30 4782 C 448.024 1.84847 0.403495 0
M  V30 4783 O 447.367 1.30606 1.29181 0
M  V30 4784 C 447.429 3.23541 -1.56722 0
M  V30 4785 C 447.093 3.40214 -3.05129 0
M  V30 4786 C 448.09 3.2881 -4.02716 0
M  V30 4787 C 445.775 3.65781 -3.44252 0
M  V30 4788 C 447.769 3.42732 -5.37414 0
M  V30 4789 C 445.456 3.79346 -4.79103 0
M  V30 4790 C 446.454 3.67827 -5.75493 0
M  V30 4791 O 446.142 3.80965 -7.07899 0
M  V30 4792 H 445.874 0.566157 -0.369381 0
M  V30 4793 H 448.428 1.27826 -1.60779 0
M  V30 4794 H 446.658 3.74766 -0.953285 0
M  V30 4795 H 448.347 3.82245 -1.36543 0
M  V30 4796 H 449.113 3.08986 -3.73835 0
M  V30 4797 H 444.992 3.73831 -2.69762 0
M  V30 4798 H 448.536 3.33658 -6.12632 0
M  V30 4799 H 444.433 3.98672 -5.07672 0
M  V30 4800 H 445.201 3.97937 -7.15254 0
M  V30 4801 N 447.864 1.01787 1.20321 0
M  V30 4802 C 449.113 0.703249 1.89043 0
M  V30 4803 C 449.426 -0.770445 1.79787 0
M  V30 4804 O 450.632 -1.19767 2.43656 0
M  V30 4805 C 449.088 1.20749 3.3904 0
M  V30 4806 C 448.696 2.70817 3.56878 0
M  V30 4807 C 450.44 0.968352 4.13308 0
M  V30 4808 C 448.347 3.14716 5.00708 0
M  V30 4809 H 447.277 0.259354 0.707991 0
M  V30 4810 H 449.928 1.23072 1.36108 0
M  V30 4811 H 448.31 0.607989 3.91305 0
M  V30 4812 H 449.484 3.36327 3.14993 0
M  V30 4813 H 447.799 2.92888 2.95983 0
M  V30 4814 H 450.396 1.27173 5.19356 0
M  V30 4815 H 450.739 -0.095149 4.16191 0
M  V30 4816 H 451.272 1.53129 3.67146 0
M  V30 4817 H 448.011 4.20347 5.02979 0
M  V30 4818 H 447.531 2.53927 5.43398 0
M  V30 4819 H 449.21 3.07426 5.69296 0
M  V30 4820 N 449.342 -1.36122 0.79427 0
M  V30 4821 C 450.305 -2.28309 0.201889 0
M  V30 4822 C 451.305 -1.49041 -0.603603 0
M  V30 4823 O 452.495 -1.68964 -0.423888 0
M  V30 4824 C 449.627 -3.3321 -0.719978 0
M  V30 4825 H 450.82 -2.82208 1.01481 0
M  V30 4826 H 448.373 -1.45768 0.564037 0
M  V30 4827 H 449.108 -2.84475 -1.55706 0
M  V30 4828 H 448.893 -3.91835 -0.144266 0
M  V30 4829 H 450.383 -4.02044 -1.12916 0
M  V30 4830 N 450.82 -0.546701 -1.47814 0
M  V30 4831 C 452.048 -0.0232857 -2.06887 0
M  V30 4832 C 452.463 1.26571 -1.4009 0
M  V30 4833 O 451.82 1.7569 -0.493906 0
M  V30 4834 C 451.871 0.186975 -3.61016 0
M  V30 4835 O 451.592 -1.05097 -4.25307 0
M  V30 4836 C 453.093 0.748872 -4.36929 0
M  V30 4837 H 450.313 -0.0410763 -0.669742 0
M  V30 4838 H 452.857 -0.757117 -1.89968 0
M  V30 4839 H 451.012 0.870903 -3.77484 0
M  V30 4840 H 451.426 -0.842121 -5.17695 0
M  V30 4841 H 452.9 0.845334 -5.45489 0
M  V30 4842 H 453.377 1.75772 -4.02493 0
M  V30 4843 H 453.983 0.100979 -4.2518 0
M  V30 4844 N 452.299 1.55045 -0.282633 0
M  V30 4845 C 453.232 2.18951 0.64311 0
M  V30 4846 C 454.21 1.15287 1.14664 0
M  V30 4847 O 455.394 1.43846 1.21822 0
M  V30 4848 C 452.521 2.81874 1.87789 0
M  V30 4849 C 451.567 3.98906 1.50919 0
M  V30 4850 S 452.4 5.3234 0.580884 0
M  V30 4851 C 453.556 5.98737 1.82387 0
M  V30 4852 H 453.789 2.97131 0.100138 0
M  V30 4853 H 451.322 1.54255 -0.0668514 0
M  V30 4854 H 453.28 3.18757 2.58658 0
M  V30 4855 H 451.941 2.03573 2.392 0
M  V30 4856 H 451.134 4.4165 2.42819 0
M  V30 4857 H 450.736 3.63485 0.88061 0
M  V30 4858 H 453.028 6.18427 2.76684 0
M  V30 4859 H 453.971 6.93318 1.4393 0
M  V30 4860 H 454.379 5.28177 1.99223 0
M  V30 4861 N 453.777 0.010035 1.57597 0
M  V30 4862 C 454.74 -0.963029 2.07986 0
M  V30 4863 C 455.74 -1.26619 0.991173 0
M  V30 4864 O 456.93 -1.2097 1.25347 0
M  V30 4865 C 454.062 -2.2851 2.52974 0
M  V30 4866 H 455.255 -0.526971 2.95234 0
M  V30 4867 H 452.808 -0.237639 1.54483 0
M  V30 4868 H 453.543 -2.76784 1.69 0
M  V30 4869 H 453.328 -2.07824 3.32493 0
M  V30 4870 H 454.818 -2.98294 2.9225 0
M  V30 4871 N 455.255 -1.55392 -0.262866 0
M  V30 4872 C 456.185 -1.91978 -1.32917 0
M  V30 4873 C 457.166 -0.7828 -1.51017 0
M  V30 4874 O 458.351 -1.04178 -1.63892 0
M  V30 4875 C 455.481 -2.20055 -2.68687 0
M  V30 4876 C 454.435 -3.35854 -2.65304 0
M  V30 4877 C 453.761 -3.49435 -4.04721 0
M  V30 4878 C 455.061 -4.71977 -2.23685 0
M  V30 4879 H 456.755 -2.81292 -1.02544 0
M  V30 4880 H 454.301 -1.3534 -0.491846 0
M  V30 4881 H 456.254 -2.44237 -3.43404 0
M  V30 4882 H 454.978 -1.27551 -3.00663 0
M  V30 4883 H 453.637 -3.11655 -1.93045 0
M  V30 4884 H 453.285 -2.54379 -4.33936 0
M  V30 4885 H 452.985 -4.27297 -4.0335 0
M  V30 4886 H 454.509 -3.7592 -4.81161 0
M  V30 4887 H 455.923 -4.95637 -2.88127 0
M  V30 4888 H 454.32 -5.52828 -2.33456 0
M  V30 4889 H 455.39 -4.70115 -1.18827 0
M  V30 4890 N 456.733 0.527833 -1.48498 0
M  V30 4891 C 457.982 1.28003 -1.55878 0
M  V30 4892 C 458.295 1.9414 -0.238577 0
M  V30 4893 O 459.501 2.7083 -0.190643 0
M  V30 4894 C 457.957 2.32272 -2.74914 0
M  V30 4895 C 457.565 1.72196 -4.13585 0
M  V30 4896 C 459.309 3.08488 -2.91608 0
M  V30 4897 C 457.216 2.74417 -5.23879 0
M  V30 4898 H 456.146 0.481413 -0.580308 0
M  V30 4899 H 458.797 0.557195 -1.74836 0
M  V30 4900 H 457.179 3.07601 -2.49395 0
M  V30 4901 H 458.353 1.03041 -4.49132 0
M  V30 4902 H 456.668 1.08464 -4.02025 0
M  V30 4903 H 459.265 3.84879 -3.71177 0
M  V30 4904 H 459.608 3.64481 -2.01145 0
M  V30 4905 H 460.141 2.40274 -3.17038 0
M  V30 4906 H 456.88 2.23242 -6.16314 0
M  V30 4907 H 456.4 3.41893 -4.92818 0
M  V30 4908 H 458.079 3.37362 -5.52083 0
M  V30 4909 N 458.211 1.37122 0.776871 0
M  V30 4910 C 459.439 1.3523 1.5659 0
M  V30 4911 C 459.854 -0.0635518 1.88693 0
M  V30 4912 O 459.211 -1.02394 1.51069 0
M  V30 4913 C 459.262 2.18583 2.8793 0
M  V30 4914 O 458.983 3.5465 2.57206 0
M  V30 4915 C 460.484 2.24612 3.82183 0
M  V30 4916 H 457.704 0.4634 0.485285 0
M  V30 4917 H 460.248 1.80392 0.963266 0
M  V30 4918 H 458.403 1.76943 3.4463 0
M  V30 4919 H 458.817 3.98286 3.41275 0
M  V30 4920 H 460.291 2.87267 4.71361 0
M  V30 4921 H 460.768 1.25309 4.20944 0
M  V30 4922 H 461.374 2.66543 3.31414 0
M  V30 4923 N 459.689 -1.00246 1.21608 0
M  V30 4924 C 460.652 -2.07233 0.979133 0
M  V30 4925 C 461.652 -1.6072 -0.0508219 0
M  V30 4926 O 462.842 -1.73196 0.186712 0
M  V30 4927 C 459.974 -3.37546 0.477016 0
M  V30 4928 H 461.167 -2.29687 1.92831 0
M  V30 4929 H 458.72 -1.17261 1.03342 0
M  V30 4930 H 459.455 -3.20773 -0.476966 0
M  V30 4931 H 459.24 -3.72638 1.21997 0
M  V30 4932 H 460.73 -4.16285 0.331181 0
M  V30 4933 N 461.167 -1.02423 -1.1978 0
M  V30 4934 C 462.392 -0.7373 -1.93852 0
M  V30 4935 C 462.817 0.696923 -1.74713 0
M  V30 4936 O 462.175 1.48056 -1.04638 0
M  V30 4937 C 462.223 -1.08783 -3.438 0
M  V30 4938 O 461.327 -0.20383 -4.11896 0
M  V30 4939 H 460.668 -0.27284 -0.605355 0
M  V30 4940 H 463.198 -1.36966 -1.51992 0
M  V30 4941 H 463.208 -1.04276 -3.9445 0
M  V30 4942 H 461.883 -2.13274 -3.57053 0
M  V30 4943 H 460.46 -0.307091 -3.71633 0
M  V30 4944 N 462.645 1.35699 -0.801477 0
M  V30 4945 C 463.873 2.03157 -0.391768 0
M  V30 4946 C 464.288 1.60412 0.995668 0
M  V30 4947 O 463.645 0.799228 1.64069 0
M  V30 4948 C 463.696 3.58566 -0.459671 0
M  V30 4949 O 463.417 3.99756 -1.7924 0
M  V30 4950 C 464.918 4.4328 -0.0421205 0
M  V30 4951 H 462.138 0.651688 -0.159825 0
M  V30 4952 H 464.682 1.73426 -1.08368 0
M  V30 4953 H 462.837 3.86963 0.183939 0
M  V30 4954 H 463.251 4.94387 -1.75162 0
M  V30 4955 H 464.725 5.51821 -0.140754 0
M  V30 4956 H 465.202 4.27383 1.01196 0
M  V30 4957 H 465.808 4.20168 -0.658687 0
M  V30 4958 N 464.123 0.554532 1.47522 0
M  V30 4959 C 465.086 -0.184174 2.28459 0
M  V30 4960 C 466.086 -0.845195 1.36796 0
M  V30 4961 O 467.276 -0.701467 1.59452 0
M  V30 4962 C 464.408 -1.26903 3.16399 0
M  V30 4963 H 465.601 0.526751 2.95238 0
M  V30 4964 H 463.154 0.311375 1.53167 0
M  V30 4965 H 463.889 -2.01244 2.54306 0
M  V30 4966 H 463.674 -0.799883 3.83854 0
M  V30 4967 H 465.164 -1.78794 3.77389 0
M  V30 4968 N 465.601 -1.54893 0.290851 0
M  V30 4969 C 466.531 -2.26103 -0.583084 0
M  V30 4970 C 467.512 -1.25684 -1.14619 0
M  V30 4971 O 468.697 -1.54436 -1.17741 0
M  V30 4972 C 465.827 -2.99409 -1.75987 0
M  V30 4973 C 464.781 -4.0689 -1.32758 0
M  V30 4974 C 464.107 -4.67856 -2.58872 0
M  V30 4975 C 465.407 -5.20215 -0.46624 0
M  V30 4976 H 467.101 -2.99398 0.0108214 0
M  V30 4977 H 464.647 -1.43998 0.00664468 0
M  V30 4978 H 466.6 -3.47943 -2.37727 0
M  V30 4979 H 465.324 -2.23675 -2.37985 0
M  V30 4980 H 463.983 -3.59191 -0.733299 0
M  V30 4981 H 463.631 -3.88772 -3.19163 0
M  V30 4982 H 463.331 -5.40438 -2.30653 0
M  V30 4983 H 464.855 -5.19147 -3.21433 0
M  V30 4984 H 466.269 -5.64704 -0.989047 0
M  V30 4985 H 464.666 -5.99455 -0.27826 0
M  V30 4986 H 465.736 -4.82198 0.511173 0
M  V30 4987 N 467.08 -0.0183926 -1.57589 0
M  V30 4988 C 468.308 0.673046 -1.95647 0
M  V30 4989 C 468.723 1.66275 -0.894312 0
M  V30 4990 O 468.08 1.82072 0.124975 0
M  V30 4991 C 468.131 1.38884 -3.33756 0
M  V30 4992 O 467.852 0.438806 -4.35897 0
M  V30 4993 C 469.353 2.1731 -3.86383 0
M  V30 4994 H 466.573 0.186292 -0.644621 0
M  V30 4995 H 469.117 -0.0749748 -2.04363 0
M  V30 4996 H 467.272 2.08835 -3.26293 0
M  V30 4997 H 467.686 0.945869 -5.15901 0
M  V30 4998 H 469.16 2.62863 -4.85394 0
M  V30 4999 H 469.637 3.00764 -3.20059 0
M  V30 5000 H 470.243 1.52339 -3.97081 0
M  V30 5001 N 468.558 1.5553 0.254621 0
M  V30 5002 C 469.807 1.76202 0.981612 0
M  V30 5003 C 470.12 0.580883 1.86776 0
M  V30 5004 O 471.326 0.670448 2.63092 0
M  V30 5005 C 469.782 3.11921 1.79537 0
M  V30 5006 C 469.39 4.37659 0.956991 0
M  V30 5007 C 471.134 3.41936 2.51555 0
M  V30 5008 C 469.041 5.64411 1.76619 0
M  V30 5009 H 467.971 0.656841 0.370237 0
M  V30 5010 H 470.622 1.81969 0.236556 0
M  V30 5011 H 469.004 3.00241 2.58208 0
M  V30 5012 H 470.178 4.60307 0.21315 0
M  V30 5013 H 468.493 4.14922 0.350497 0
M  V30 5014 H 471.09 4.33849 3.12536 0
M  V30 5015 H 471.433 2.62905 3.22779 0
M  V30 5016 H 471.966 3.54797 1.799 0
M  V30 5017 H 468.705 6.46241 1.09783 0
M  V30 5018 H 468.225 5.45877 2.48551 0
M  V30 5019 H 469.904 6.03386 2.33527 0
M  V30 5020 N 470.036 -0.519951 1.48776 0
M  V30 5021 C 470.969 -1.64053 1.58625 0
M  V30 5022 C 471.947 -1.5664 0.43618 0
M  V30 5023 O 473.131 -1.76969 0.649159 0
M  V30 5024 C 470.258 -3.02497 1.52359 0
M  V30 5025 C 469.304 -3.28235 2.72331 0
M  V30 5026 S 470.137 -3.13414 4.34203 0
M  V30 5027 C 471.293 -4.54287 4.30551 0
M  V30 5028 H 471.526 -1.5545 2.53422 0
M  V30 5029 H 469.059 -0.703681 1.37433 0
M  V30 5030 H 471.017 -3.82336 1.4943 0
M  V30 5031 H 469.678 -3.08531 0.588824 0
M  V30 5032 H 468.871 -4.29256 2.64113 0
M  V30 5033 H 468.473 -2.56085 2.72574 0
M  V30 5034 H 470.765 -5.46006 4.01103 0
M  V30 5035 H 471.708 -4.67558 5.31785 0
M  V30 5036 H 472.116 -4.34079 3.60881 0
M  V30 5037 N 471.514 -1.37532 -0.769588 0
M  V30 5038 C 472.76 -1.33057 -1.53048 0
M  V30 5039 C 473.093 0.0841865 -1.94017 0
M  V30 5040 O 472.368 1.04198 -1.64235 0
M  V30 5041 C 472.651 -2.27166 -2.79406 0
M  V30 5042 C 472.504 -3.77429 -2.44677 0
M  V30 5043 C 473.823 -2.19683 -3.81349 0
M  V30 5044 H 470.942 -0.484655 -0.555228 0
M  V30 5045 H 473.584 -1.68251 -0.882702 0
M  V30 5046 H 471.734 -1.97283 -3.34682 0
M  V30 5047 H 473.406 -4.17918 -1.953 0
M  V30 5048 H 471.649 -3.95892 -1.77346 0
M  V30 5049 H 472.32 -4.38716 -3.35011 0
M  V30 5050 H 474.796 -2.46029 -3.35573 0
M  V30 5051 H 473.672 -2.87668 -4.67481 0
M  V30 5052 H 473.933 -1.19045 -4.25771 0
M  V30 5053 N 472.992 0.995999 -1.22138 0
M  V30 5054 C 473.925 2.08302 -0.931952 0
M  V30 5055 C 474.903 1.62127 0.123956 0
M  V30 5056 O 476.087 1.88499 -0.00696004 0
M  V30 5057 C 473.214 3.36317 -0.401068 0
M  V30 5058 C 472.26 4.01413 -1.44117 0
M  V30 5059 S 473.093 4.42664 -3.01345 0
M  V30 5060 C 474.249 5.73853 -2.49887 0
M  V30 5061 H 474.482 2.32532 -1.85246 0
M  V30 5062 H 472.015 1.13005 -1.0521 0
M  V30 5063 H 473.973 4.10375 -0.101352 0
M  V30 5064 H 472.634 3.10123 0.498272 0
M  V30 5065 H 471.827 4.9358 -1.01952 0
M  V30 5066 H 471.429 3.33668 -1.68943 0
M  V30 5067 H 473.721 6.50039 -1.90934 0
M  V30 5068 H 474.664 6.20841 -3.40532 0
M  V30 5069 H 475.072 5.31105 -1.9128 0
M  V30 5070 N 474.47 1.03057 1.19235 0
M  V30 5071 C 475.418 0.606391 2.24557 0
M  V30 5072 C 476.412 -0.361826 1.65491 0
M  V30 5073 O 477.618 -0.23022 1.78522 0
M  V30 5074 H 473.993 0.177838 0.730669 0
M  V30 5075 H 475.964 1.50529 2.5765 0
M  V30 5076 C 474.713 -0.0252127 3.47691 0
M  V30 5077 H 474.036 0.710838 3.9343 0
M  V30 5078 H 475.476 -0.284931 4.23042 0
M  V30 5079 C 473.935 -1.27229 3.11953 0
M  V30 5080 O 474.465 -2.36416 3.24762 0
M  V30 5081 N 472.671 -1.16169 2.6637 0
M  V30 5082 H 472.218 -0.273189 2.56147 0
M  V30 5083 H 472.176 -1.99703 2.42829 0
M  V30 5084 N 475.948 -1.35272 0.808662 0
M  V30 5085 C 477.197 -1.97963 0.386483 0
M  V30 5086 C 477.51 -1.64866 -1.05255 0
M  V30 5087 O 478.716 -2.20937 -1.57794 0
M  V30 5088 C 477.172 -3.54162 0.640096 0
M  V30 5089 C 476.78 -3.96166 2.0918 0
M  V30 5090 C 478.524 -4.23553 0.283376 0
M  V30 5091 C 476.431 -5.4522 2.29106 0
M  V30 5092 H 475.361 -0.740742 0.140774 0
M  V30 5093 H 478.012 -1.5431 0.993012 0
M  V30 5094 H 476.394 -3.95983 -0.0364117 0
M  V30 5095 H 477.568 -3.65491 2.80629 0
M  V30 5096 H 475.883 -3.3967 2.40859 0
M  V30 5097 H 478.48 -5.33124 0.410273 0
M  V30 5098 H 478.823 -4.09105 -0.770659 0
M  V30 5099 H 479.356 -3.8716 0.913884 0
M  V30 5100 H 476.095 -5.64638 3.32962 0
M  V30 5101 H 475.615 -5.77457 1.62184 0
M  V30 5102 H 477.294 -6.1171 2.1076 0
M  V30 5103 N 477.426 -0.562348 -1.47226 0
M  V30 5104 C 478.376 0.202967 -2.27095 0
M  V30 5105 C 479.36 0.880611 -1.34663 0
M  V30 5106 O 480.552 0.778069 -1.58981 0
M  V30 5107 C 477.681 1.22906 -3.20545 0
M  V30 5108 C 476.767 0.554566 -4.20459 0
M  V30 5109 N 477.158 -0.378295 -5.04383 0
M  V30 5110 C 475.456 0.807854 -4.38623 0
M  V30 5111 C 476.157 -0.770583 -5.76573 0
M  V30 5112 N 475.133 -0.124263 -5.43458 0
M  V30 5113 H 478.935 -0.514196 -2.89367 0
M  V30 5114 H 476.449 -0.382655 -1.57827 0
M  V30 5115 H 478.446 1.79134 -3.76453 0
M  V30 5116 H 477.106 1.94726 -2.59831 0
M  V30 5117 H 478.117 -0.75274 -5.124 0
M  V30 5118 H 474.794 1.51418 -3.89075 0
M  V30 5119 H 476.184 -1.53742 -6.54074 0
M  V30 5120 N 478.904 1.54736 -0.299062 0
M  V30 5121 C 480.151 2.00101 0.310784 0
M  V30 5122 C 480.479 1.18746 1.54045 0
M  V30 5123 O 479.734 0.251198 1.94081 0
M  V30 5124 C 480.033 3.50199 0.713835 0
M  V30 5125 C 479.699 4.48997 -0.413873 0
M  V30 5126 C 478.361 4.7573 -0.723462 0
M  V30 5127 C 480.713 5.07839 -1.17257 0
M  V30 5128 C 478.041 5.5857 -1.79491 0
M  V30 5129 C 480.393 5.91844 -2.23392 0
M  V30 5130 C 479.057 6.16889 -2.54959 0
M  V30 5131 H 478.327 0.732221 0.113724 0
M  V30 5132 H 480.974 1.86888 -0.417756 0
M  V30 5133 H 479.279 3.61012 1.52243 0
M  V30 5134 H 480.976 3.82723 1.19684 0
M  V30 5135 H 477.566 4.28292 -0.162476 0
M  V30 5136 H 481.75 4.87188 -0.946651 0
M  V30 5137 H 477.006 5.76213 -2.04423 0
M  V30 5138 H 481.18 6.36465 -2.8264 0
M  V30 5139 H 478.807 6.80869 -3.38114 0
M  V30 5140 N 480.382 0.0267497 1.57577 0
M  V30 5141 C 481.622 -0.65659 1.93567 0
M  V30 5142 C 481.986 -1.69429 0.903213 0
M  V30 5143 O 483.187 -2.42994 1.14923 0
M  V30 5144 C 481.458 -1.25912 3.34486 0
M  V30 5145 S 483.017 -1.96386 3.924 0
M  V30 5146 H 479.835 -0.216237 0.67732 0
M  V30 5147 H 482.437 0.0898475 1.95293 0
M  V30 5148 H 481.141 -0.491405 4.07447 0
M  V30 5149 H 480.672 -2.04291 3.36198 0
M  V30 5150 H 482.687 -3.24202 3.75643 0
M  V30 5151 N 481.861 -1.55662 -0.24637 0
M  V30 5152 C 483.109 -1.77168 -0.972411 0
M  V30 5153 C 483.43 -0.590827 -1.85834 0
M  V30 5154 O 482.7 0.393365 -1.9191 0
M  V30 5155 H 481.28 -0.653405 -0.362038 0
M  V30 5156 H 483.942 -1.93101 -0.264189 0
M  V30 5157 H 483.038 -2.68335 -1.59382 0
M  V30 5158 N 483.339 0.512053 -1.4905 0
M  V30 5159 C 484.302 1.59704 -1.64399 0
M  V30 5160 C 485.302 1.52285 -0.516317 0
M  V30 5161 O 486.492 1.55635 -0.782527 0
M  V30 5162 C 483.624 2.9935 -1.63102 0
M  V30 5163 H 484.817 1.47428 -2.61161 0
M  V30 5164 H 482.37 0.735469 -1.37915 0
M  V30 5165 H 483.105 3.17116 -0.678836 0
M  V30 5166 H 482.89 3.06144 -2.44986 0
M  V30 5167 H 484.38 3.782 -1.77072 0
M  V30 5168 N 484.817 1.37938 0.762283 0
M  V30 5169 C 485.727 1.36681 1.90671 0
M  V30 5170 C 486.743 0.265078 1.71969 0
M  V30 5171 O 487.919 0.502055 1.95042 0
M  V30 5172 C 484.984 1.18211 3.25925 0
M  V30 5173 C 484.045 2.3811 3.57214 0
M  V30 5174 C 483.278 2.20512 4.86014 0
M  V30 5175 O 483.501 1.19429 5.57757 0
M  V30 5176 O 482.435 3.08911 5.16583 0
M  V30 5177 H 486.261 2.33091 1.94685 0
M  V30 5178 H 483.846 1.18767 0.906356 0
M  V30 5179 H 485.728 1.09937 4.06807 0
M  V30 5180 H 484.403 0.248807 3.22742 0
M  V30 5181 H 483.31 2.51958 2.76529 0
M  V30 5182 H 484.643 3.30041 3.65149 0
M  V30 5183 N 486.295 -0.989507 1.22664 0
M  V30 5184 C 487.258 -2.06183 1.00106 0
M  V30 5185 C 488.258 -1.60765 -0.0337726 0
M  V30 5186 O 489.448 -1.72989 0.205072 0
M  V30 5187 C 486.58 -3.37021 0.51279 0
M  V30 5188 H 487.773 -2.27629 1.95256 0
M  V30 5189 H 485.326 -1.16158 1.0458 0
M  V30 5190 H 486.061 -3.21261 -0.442917 0
M  V30 5191 H 485.846 -3.71323 1.25942 0
M  V30 5192 H 487.336 -4.1591 0.375315 0
M  V30 5193 N 487.773 -1.03688 -1.18687 0
M  V30 5194 C 489.189 -0.755413 -1.4059 0
M  V30 5195 C 489.389 0.656659 -1.905 0
M  V30 5196 O 488.445 1.42144 -2.08689 0
M  V30 5197 C 489.758 -1.7983 -2.41001 0
M  V30 5198 C 491.306 -1.81877 -2.54735 0
M  V30 5199 C 491.781 -2.85148 -3.58406 0
M  V30 5200 N 493.272 -2.84015 -3.6591 0
M  V30 5201 C 494.007 -3.60573 -4.45841 0
M  V30 5202 N 493.503 -4.46871 -5.29413 0
M  V30 5203 N 495.296 -3.49079 -4.40568 0
M  V30 5204 H 487.447 -1.94818 -0.846148 0
M  V30 5205 H 489.71 -0.842727 -0.434184 0
M  V30 5206 H 489.416 -2.81097 -2.1137 0
M  V30 5207 H 489.29 -1.62727 -3.40294 0
M  V30 5208 H 491.677 -0.812836 -2.83685 0
M  V30 5209 H 491.758 -2.03057 -1.55568 0
M  V30 5210 H 491.402 -3.85918 -3.30197 0
M  V30 5211 H 491.332 -2.61224 -4.57241 0
M  V30 5212 H 493.823 -2.21431 -3.0623 0
M  V30 5213 H 494.136 -5.02007 -5.87545 0
M  V30 5214 H 492.481 -4.5094 -5.28846 0
M  V30 5215 H 495.672 -2.81066 -3.74325 0
M  V30 5216 H 495.845 -4.08994 -5.02621 0
M  V30 5217 N 489.251 1.34841 -0.815825 0
M  V30 5218 C 490.662 1.80937 -0.46029 0
M  V30 5219 C 491.013 1.67685 1.01863 0
M  V30 5220 O 490.138 1.21277 1.79223 0
M  V30 5221 C 490.733 3.28509 -0.828708 0
M  V30 5222 C 489.292 3.72712 -0.525644 0
M  V30 5223 C 488.439 2.56676 -1.04941 0
M  V30 5224 H 491.39 1.22688 -1.00664 0
M  V30 5225 H 491.411 3.80279 -0.129757 0
M  V30 5226 H 490.923 3.38122 -1.90513 0
M  V30 5227 H 489.024 3.68642 0.541666 0
M  V30 5228 H 489.137 4.67119 -1.06474 0
M  V30 5229 H 487.501 2.50302 -0.471286 0
M  V30 5230 H 488.284 2.69063 -2.13214 0
M  V30 5231 N 490.729 0.570148 1.46925 0
M  V30 5232 C 491.975 0.0510284 2.02736 0
M  V30 5233 C 492.308 -1.3006 1.44215 0
M  V30 5234 O 491.583 -1.84932 0.602521 0
M  V30 5235 C 491.866 -0.028215 3.60089 0
M  V30 5236 C 491.719 1.35142 4.29018 0
M  V30 5237 C 493.038 -0.735181 4.33916 0
M  V30 5238 H 490.157 0.0200178 0.736728 0
M  V30 5239 H 492.799 0.73493 1.75211 0
M  V30 5240 H 490.949 -0.610648 3.83671 0
M  V30 5241 H 492.621 1.97806 4.16738 0
M  V30 5242 H 490.864 1.9226 3.88868 0
M  V30 5243 H 491.535 1.24857 5.37694 0
M  V30 5244 H 494.011 -0.240519 4.15404 0
M  V30 5245 H 492.887 -0.759622 5.43618 0
M  V30 5246 H 493.148 -1.79397 4.04066 0
M  V30 5247 N 492.207 -1.54576 0.307264 0
M  V30 5248 C 493.618 -1.8579 -0.184121 0
M  V30 5249 C 493.969 -1.22914 -1.52927 0
M  V30 5250 O 493.094 -0.529126 -2.09831 0
M  V30 5251 C 493.689 -3.37081 -0.340862 0
M  V30 5252 C 492.248 -3.68304 -0.776465 0
M  V30 5253 C 491.395 -2.77076 0.111503 0
M  V30 5254 H 494.346 -1.49656 0.528078 0
M  V30 5255 H 494.367 -3.61922 -1.17443 0
M  V30 5256 H 493.879 -3.82815 0.638309 0
M  V30 5257 H 491.98 -3.28092 -1.76596 0
M  V30 5258 H 492.093 -4.75434 -0.591512 0
M  V30 5259 H 490.457 -2.51374 -0.410256 0
M  V30 5260 H 491.24 -3.25632 1.08714 0
M  V30 5261 N 493.685 -0.035106 -1.57561 0
M  V30 5262 C 494.635 0.954034 -2.0708 0
M  V30 5263 C 495.619 1.2818 -0.972558 0
M  V30 5264 O 496.811 1.26691 -1.23606 0
M  V30 5265 C 493.94 2.23442 -2.60631 0
M  V30 5266 C 493.026 1.93475 -3.77396 0
M  V30 5267 N 493.417 1.33802 -4.87781 0
M  V30 5268 C 491.715 2.23434 -3.85996 0
M  V30 5269 C 492.416 1.21103 -5.68954 0
M  V30 5270 N 491.392 1.70855 -5.16052 0
M  V30 5271 H 495.194 0.487731 -2.89825 0
M  V30 5272 H 492.708 0.169759 -1.6151 0
M  V30 5273 H 494.705 2.95183 -2.94402 0
M  V30 5274 H 493.365 2.70693 -1.79319 0
M  V30 5275 H 494.376 1.01227 -5.07911 0
M  V30 5276 H 491.053 2.73317 -3.15601 0
M  V30 5277 H 492.443 0.749105 -6.67711 0
M  V30 5278 N 495.163 1.55791 0.238111 0
M  V30 5279 C 496.409 1.79211 0.962035 0
M  V30 5280 C 496.764 0.605463 1.82625 0
M  V30 5281 O 496.057 -0.40104 1.87356 0
M  V30 5282 C 496.251 3.05869 1.84875 0
M  V30 5283 C 496.08 4.36739 1.07186 0
M  V30 5284 C 494.85 4.99346 0.773424 0
M  V30 5285 C 497.048 5.1237 0.445168 0
M  V30 5286 N 495.03 6.13894 -0.0266037 0
M  V30 5287 C 496.401 6.19613 -0.219023 0
M  V30 5288 C 498.456 4.96622 0.356522 0
M  V30 5289 C 497.159 7.1282 -0.963358 0
M  V30 5290 C 499.185 5.90214 -0.374304 0
M  V30 5291 C 498.547 6.96872 -1.0271 0
M  V30 5292 H 494.646 0.707627 0.332849 0
M  V30 5293 H 497.23 1.93284 0.234368 0
M  V30 5294 H 495.401 2.93108 2.54837 0
M  V30 5295 H 497.133 3.17547 2.5089 0
M  V30 5296 H 493.888 4.60948 1.08738 0
M  V30 5297 H 494.312 6.75727 -0.414968 0
M  V30 5298 H 498.954 4.14232 0.846878 0
M  V30 5299 H 496.672 7.94704 -1.46529 0
M  V30 5300 H 500.258 5.80106 -0.443678 0
M  V30 5301 H 499.138 7.68045 -1.58358 0
M  V30 5302 N 496.642 -0.504142 1.49319 0
M  V30 5303 C 497.605 -1.5883 1.65244 0
M  V30 5304 C 498.605 -1.52009 0.524386 0
M  V30 5305 O 499.795 -1.55218 0.79077 0
M  V30 5306 C 496.927 -2.98481 1.64687 0
M  V30 5307 H 498.12 -1.4604 2.61939 0
M  V30 5308 H 495.673 -0.728144 1.38303 0
M  V30 5309 H 496.408 -3.16751 0.695644 0
M  V30 5310 H 496.193 -3.0484 2.46607 0
M  V30 5311 H 497.683 -3.77256 1.79075 0
M  V30 5312 N 498.12 -1.38341 -0.754957 0
M  V30 5313 C 499.536 -1.19508 -1.05783 0
M  V30 5314 C 499.736 -0.0428005 -2.01455 0
M  V30 5315 O 498.792 0.611861 -2.44975 0
M  V30 5316 C 500.105 -2.52091 -1.63923 0
M  V30 5317 C 501.653 -2.58762 -1.76101 0
M  V30 5318 C 502.128 -3.91517 -2.37652 0
M  V30 5319 N 503.619 -3.93049 -2.45085 0
M  V30 5320 C 504.354 -4.9253 -2.93602 0
M  V30 5321 N 503.85 -6.02408 -3.42165 0
M  V30 5322 N 505.643 -4.79921 -2.92629 0
M  V30 5323 H 497.794 -2.1206 -0.120056 0
M  V30 5324 H 500.057 -0.94089 -0.11589 0
M  V30 5325 H 499.763 -3.36858 -1.01093 0
M  V30 5326 H 499.637 -2.70388 -2.63003 0
M  V30 5327 H 502.024 -1.74391 -2.38058 0
M  V30 5328 H 502.105 -2.44333 -0.757294 0
M  V30 5329 H 501.749 -4.76309 -1.76329 0
M  V30 5330 H 501.679 -4.03256 -3.38662 0
M  V30 5331 H 504.17 -3.13685 -2.10736 0
M  V30 5332 H 504.483 -6.74248 -3.77637 0
M  V30 5333 H 502.828 -6.0603 -3.40225 0
M  V30 5334 H 506.019 -3.93194 -2.54001 0
M  V30 5335 H 506.192 -5.57601 -3.30128 0
M  V30 5336 N 499.598 0.982988 -1.23187 0
M  V30 5337 C 500.844 1.72648 -1.06398 0
M  V30 5338 C 501.177 1.90066 0.398561 0
M  V30 5339 O 500.452 1.45105 1.29518 0
M  V30 5340 C 500.735 3.12627 -1.78707 0
M  V30 5341 C 500.588 3.02795 -3.32618 0
M  V30 5342 C 501.907 4.11997 -1.54747 0
M  V30 5343 H 499.026 0.626649 -0.387918 0
M  V30 5344 H 501.668 1.14455 -1.51658 0
M  V30 5345 H 499.818 3.62308 -1.40234 0
M  V30 5346 H 501.49 2.60659 -3.80598 0
M  V30 5347 H 499.733 2.39362 -3.61785 0
M  V30 5348 H 500.404 4.01893 -3.78399 0
M  V30 5349 H 502.88 3.71114 -1.88186 0
M  V30 5350 H 501.756 5.08037 -2.07821 0
M  V30 5351 H 502.017 4.39462 -0.482249 0
M  V30 5352 N 501.076 1.04316 1.18135 0
M  V30 5353 C 502.322 0.749128 1.88457 0
M  V30 5354 C 502.655 -0.72149 1.803 0
M  V30 5355 O 501.93 -1.52676 1.205 0
M  V30 5356 C 502.213 1.21905 3.38838 0
M  V30 5357 C 502.066 2.75195 3.55792 0
M  V30 5358 C 503.385 0.811085 4.32561 0
M  V30 5359 H 500.504 0.273611 0.684329 0
M  V30 5360 H 503.146 1.29561 1.38975 0
M  V30 5361 H 501.296 0.754137 3.8111 0
M  V30 5362 H 502.968 3.29743 3.22595 0
M  V30 5363 H 501.211 3.14899 2.98364 0
M  V30 5364 H 501.882 3.03135 4.61317 0
M  V30 5365 H 504.358 1.21118 3.98082 0
M  V30 5366 H 503.234 1.16761 5.36338 0
M  V30 5367 H 503.495 -0.285596 4.41177 0
M  V30 5368 N 502.554 -1.34406 0.822964 0
M  V30 5369 C 503.803 -1.97542 0.407458 0
M  V30 5370 C 504.116 -1.65973 -1.035 0
M  V30 5371 O 505.322 -2.22598 -1.55442 0
M  V30 5372 C 503.778 -3.53463 0.677623 0
M  V30 5373 C 503.386 -3.93925 2.1337 0
M  V30 5374 C 505.13 -4.23229 0.328284 0
M  V30 5375 C 503.037 -5.42759 2.34876 0
M  V30 5376 H 501.967 -0.739207 0.148623 0
M  V30 5377 H 504.618 -1.53248 1.00932 0
M  V30 5378 H 503 -3.96 0.00558965 0
M  V30 5379 H 504.174 -3.62494 2.8449 0
M  V30 5380 H 502.489 -3.37097 2.44448 0
M  V30 5381 H 505.086 -5.32659 0.466794 0
M  V30 5382 H 505.429 -4.09899 -0.727224 0
M  V30 5383 H 505.962 -3.86169 0.954896 0
M  V30 5384 H 502.701 -5.61075 3.38932 0
M  V30 5385 H 502.221 -5.75704 1.68299 0
M  V30 5386 H 503.9 -6.0944 2.17236 0
M  V30 5387 N 504.032 -0.577932 -1.46621 0
M  V30 5388 C 504.962 0.145917 -2.33044 0
M  V30 5389 C 505.943 0.888412 -1.45056 0
M  V30 5390 O 507.128 0.864812 -1.73881 0
M  V30 5391 C 504.258 1.16322 -3.27241 0
M  V30 5392 C 503.212 0.535868 -4.24632 0
M  V30 5393 C 502.538 1.65929 -5.08303 0
M  V30 5394 C 503.838 -0.523861 -5.19666 0
M  V30 5395 H 505.532 -0.575636 -2.93814 0
M  V30 5396 H 503.078 -0.278272 -1.41286 0
M  V30 5397 H 505.031 1.67793 -3.86553 0
M  V30 5398 H 503.755 1.91498 -2.64567 0
M  V30 5399 H 502.414 0.0422759 -3.66576 0
M  V30 5400 H 502.062 2.40061 -4.42018 0
M  V30 5401 H 501.762 1.2452 -5.74255 0
M  V30 5402 H 503.286 2.17686 -5.70478 0
M  V30 5403 H 504.7 -0.0944059 -5.73222 0
M  V30 5404 H 503.097 -0.858 -5.93935 0
M  V30 5405 H 504.167 -1.41197 -4.63887 0
M  V30 5406 N 505.51 1.54411 -0.315457 0
M  V30 5407 C 506.457 2.24048 0.554166 0
M  V30 5408 C 507.427 1.2283 1.11812 0
M  V30 5409 O 508.612 1.51491 1.15997 0
M  V30 5410 C 505.752 2.99574 1.71316 0
M  V30 5411 C 504.865 4.15594 1.17922 0
M  V30 5412 C 504 4.78669 2.30324 0
M  V30 5413 C 503.039 5.86807 1.74137 0
M  V30 5414 N 502.176 6.43777 2.8017 0
M  V30 5415 H 507.016 2.97964 -0.0462602 0
M  V30 5416 H 504.553 1.47059 -0.0346009 0
M  V30 5417 H 506.511 3.41604 2.39505 0
M  V30 5418 H 505.141 2.28008 2.285 0
M  V30 5419 H 504.193 3.78404 0.389136 0
M  V30 5420 H 505.505 4.93459 0.728012 0
M  V30 5421 H 504.659 5.23626 3.06433 0
M  V30 5422 H 503.398 4.00168 2.78778 0
M  V30 5423 H 502.403 5.41261 0.965236 0
M  V30 5424 H 503.628 6.67201 1.2657 0
M  V30 5425 H 501.574 5.68153 3.2793 0
M  V30 5426 H 501.491 7.17031 2.39588 0
M  V30 5427 H 502.759 6.9339 3.56132 0
M  V30 5428 N 506.988 0.0434614 1.5754 0
M  V30 5429 C 508.218 -0.640905 1.96408 0
M  V30 5430 C 508.626 -1.65365 0.919297 0
M  V30 5431 O 507.969 -1.83395 -0.105795 0
M  V30 5432 C 508.031 -1.39141 3.31482 0
M  V30 5433 C 507.695 -0.535375 4.53853 0
M  V30 5434 C 508.692 0.195335 5.19533 0
M  V30 5435 C 506.377 -0.468564 5.0011 0
M  V30 5436 C 508.371 0.981377 6.298 0
M  V30 5437 C 506.058 0.321171 6.10255 0
M  V30 5438 C 507.056 1.04484 6.74961 0
M  V30 5439 O 506.744 1.8216 7.8299 0
M  V30 5440 H 506.476 -0.180584 0.651433 0
M  V30 5441 H 509.03 0.103848 2.05137 0
M  V30 5442 H 507.26 -2.18162 3.19284 0
M  V30 5443 H 508.949 -1.96526 3.55151 0
M  V30 5444 H 509.715 0.15314 4.84758 0
M  V30 5445 H 505.594 -1.02142 4.49542 0
M  V30 5446 H 509.138 1.54674 6.80237 0
M  V30 5447 H 505.035 0.365032 6.44467 0
M  V30 5448 H 505.803 1.74289 7.99728 0
M  V30 5449 N 508.466 -1.55915 -0.229846 0
M  V30 5450 C 509.399 -1.86734 -1.3117 0
M  V30 5451 C 510.377 -0.723947 -1.45595 0
M  V30 5452 O 511.561 -0.971462 -1.61539 0
M  V30 5453 C 508.688 -2.06707 -2.68309 0
M  V30 5454 C 507.734 -3.2938 -2.70944 0
M  V30 5455 S 508.567 -4.85547 -2.25842 0
M  V30 5456 C 509.723 -5.08546 -3.64873 0
M  V30 5457 H 509.956 -2.78204 -1.04832 0
M  V30 5458 H 507.489 -1.48243 -0.431681 0
M  V30 5459 H 509.447 -2.18898 -3.47267 0
M  V30 5460 H 508.108 -1.16049 -2.91876 0
M  V30 5461 H 507.301 -3.40374 -3.71701 0
M  V30 5462 H 506.903 -3.16004 -2.00044 0
M  V30 5463 H 509.195 -4.96935 -4.60502 0
M  V30 5464 H 510.138 -6.10465 -3.58801 0
M  V30 5465 H 510.546 -4.36314 -3.58176 0
M  V30 5466 N 509.944 0.496216 -1.49584 0
M  V30 5467 C 511.169 1.27865 -1.63295 0
M  V30 5468 C 511.594 1.85592 -0.306156 0
M  V30 5469 O 510.952 1.66092 0.726851 0
M  V30 5470 C 511 2.38128 -2.7079 0
M  V30 5471 O 510.104 3.42108 -2.30296 0
M  V30 5472 H 509.445 0.377279 -0.546403 0
M  V30 5473 H 511.975 0.593497 -1.95803 0
M  V30 5474 H 511.985 2.8382 -2.93104 0
M  V30 5475 H 510.66 1.95479 -3.67098 0
M  V30 5476 H 509.237 3.02301 -2.18331 0
M  V30 5477 N 511.423 1.38739 0.74761 0
M  V30 5478 C 512.839 1.20067 1.05148 0
M  V30 5479 C 513.039 0.0534835 2.01429 0
M  V30 5480 O 512.095 -0.59886 2.45296 0
M  V30 5481 C 513.408 2.52957 1.62584 0
M  V30 5482 C 514.956 2.59692 1.74726 0
M  V30 5483 C 515.431 3.92772 2.35573 0
M  V30 5484 N 516.922 3.94343 2.42997 0
M  V30 5485 C 517.657 4.9408 2.90985 0
M  V30 5486 N 517.153 6.04214 3.38965 0
M  V30 5487 N 518.946 4.81466 2.9008 0
M  V30 5488 H 511.097 2.12121 0.108808 0
M  V30 5489 H 513.36 0.941491 0.110899 0
M  V30 5490 H 513.066 3.37389 0.993051 0
M  V30 5491 H 512.94 2.71779 2.61565 0
M  V30 5492 H 515.327 1.75651 2.3713 0
M  V30 5493 H 515.408 2.44731 0.744326 0
M  V30 5494 H 515.052 4.77238 1.738 0
M  V30 5495 H 514.982 4.05046 3.36519 0
M  V30 5496 H 517.473 3.14799 2.0907 0
M  V30 5497 H 517.786 6.76241 3.74056 0
M  V30 5498 H 516.131 6.07825 3.37007 0
M  V30 5499 H 519.322 3.94535 2.51912 0
M  V30 5500 H 519.495 5.59344 3.27166 0
M  V30 5501 N 512.901 -0.976442 1.23707 0
M  V30 5502 C 514.147 -1.72081 1.07312 0
M  V30 5503 C 514.48 -1.90275 -0.388476 0
M  V30 5504 O 513.755 -1.4579 -1.28746 0
M  V30 5505 C 514.038 -3.11675 1.80363 0
M  V30 5506 C 513.891 -3.01027 3.3422 0
M  V30 5507 C 515.21 -4.1117 1.5693 0
M  V30 5508 H 512.329 -0.624583 0.391236 0
M  V30 5509 H 514.971 -1.13649 1.52263 0
M  V30 5510 H 513.121 -3.61559 1.42153 0
M  V30 5511 H 514.793 -2.58637 3.81975 0
M  V30 5512 H 513.036 -2.3744 3.63049 0
M  V30 5513 H 513.707 -3.9988 3.80525 0
M  V30 5514 H 516.183 -3.7011 1.90151 0
M  V30 5515 H 515.059 -5.06928 2.10513 0
M  V30 5516 H 515.32 -4.392 0.505548 0
M  V30 5517 N 514.379 -1.04941 -1.1758 0
M  V30 5518 C 515.309 -0.669172 -2.23706 0
M  V30 5519 C 516.29 0.331835 -1.66832 0
M  V30 5520 O 517.475 0.209988 -1.93061 0
M  V30 5521 C 514.605 -0.0404889 -3.47276 0
M  V30 5522 C 513.559 -0.965983 -4.16957 0
M  V30 5523 C 512.885 -0.201312 -5.34321 0
M  V30 5524 C 514.185 -2.28902 -4.69469 0
M  V30 5525 H 515.879 -1.55639 -2.55767 0
M  V30 5526 H 513.425 -0.749793 -1.22939 0
M  V30 5527 H 515.378 0.237298 -4.20731 0
M  V30 5528 H 514.102 0.881658 -3.14475 0
M  V30 5529 H 512.761 -1.22829 -3.45411 0
M  V30 5530 H 512.409 0.723519 -4.97769 0
M  V30 5531 H 512.109 -0.817968 -5.81879 0
M  V30 5532 H 513.633 0.0692499 -6.10561 0
M  V30 5533 H 515.047 -2.07132 -5.34574 0
M  V30 5534 H 513.444 -2.85942 -5.27596 0
M  V30 5535 H 514.514 -2.92937 -3.86414 0
M  V30 5536 N 515.857 1.33968 -0.830081 0
M  V30 5537 C 517.104 1.98063 -0.421566 0
M  V30 5538 C 517.432 1.65787 1.0171 0
M  V30 5539 O 516.687 0.925348 1.72441 0
M  V30 5540 C 516.986 3.52679 -0.57898 0
M  V30 5541 C 516.652 4.04884 -1.98443 0
M  V30 5542 C 515.314 4.18852 -2.36888 0
M  V30 5543 C 517.666 4.32879 -2.90285 0
M  V30 5544 C 514.994 4.58145 -3.66497 0
M  V30 5545 C 517.346 4.7362 -4.19364 0
M  V30 5546 C 516.01 4.85794 -4.57778 0
M  V30 5547 H 515.28 0.724765 -0.154262 0
M  V30 5548 H 517.927 1.59792 -1.05541 0
M  V30 5549 H 516.232 3.91556 0.138219 0
M  V30 5550 H 517.929 4.00261 -0.243317 0
M  V30 5551 H 514.519 3.9448 -1.67581 0
M  V30 5552 H 518.703 4.21619 -2.61823 0
M  V30 5553 H 513.959 4.65762 -3.96075 0
M  V30 5554 H 518.133 4.9424 -4.90612 0
M  V30 5555 H 515.76 5.15998 -5.58256 0
M  V30 5556 N 517.335 0.585699 1.46312 0
M  V30 5557 C 518.581 0.0725284 2.0267 0
M  V30 5558 C 518.914 -1.28523 1.45586 0
M  V30 5559 O 518.189 -1.84283 0.622101 0
M  V30 5560 C 518.472 0.0099788 3.60099 0
M  V30 5561 C 518.325 1.39685 4.27561 0
M  V30 5562 C 519.644 -0.689117 4.34671 0
M  V30 5563 H 516.763 0.0278307 0.736474 0
M  V30 5564 H 519.405 0.753472 1.74421 0
M  V30 5565 H 517.555 -0.56992 3.84297 0
M  V30 5566 H 519.227 2.02215 4.14617 0
M  V30 5567 H 517.47 1.96374 3.86807 0
M  V30 5568 H 518.141 1.30553 5.36339 0
M  V30 5569 H 520.617 -0.196446 4.15636 0
M  V30 5570 H 519.493 -0.701921 5.44393 0
M  V30 5571 H 519.754 -1.75101 4.05946 0
M  V30 5572 N 518.813 -1.54241 0.323641 0
M  V30 5573 C 520.043 -2.04687 -0.280464 0
M  V30 5574 C 520.451 -1.19939 -1.46326 0
M  V30 5575 O 519.794 -0.222872 -1.82343 0
M  V30 5576 C 519.856 -3.50978 -0.778123 0
M  V30 5577 C 519.52 -4.56127 0.282371 0
M  V30 5578 C 520.517 -5.07726 1.11847 0
M  V30 5579 C 518.202 -5.00451 0.430582 0
M  V30 5580 C 520.196 -6.02212 2.08851 0
M  V30 5581 C 517.883 -5.94752 1.40404 0
M  V30 5582 C 518.881 -6.45519 2.23147 0
M  V30 5583 O 518.569 -7.37968 3.1884 0
M  V30 5584 H 518.301 -0.673192 -0.0615473 0
M  V30 5585 H 520.855 -1.99999 0.467921 0
M  V30 5586 H 519.085 -3.53064 -1.57742 0
M  V30 5587 H 520.774 -3.84499 -1.30058 0
M  V30 5588 H 521.54 -4.74261 1.01496 0
M  V30 5589 H 517.419 -4.6055 -0.203569 0
M  V30 5590 H 520.963 -6.41761 2.73474 0
M  V30 5591 H 516.86 -6.27633 1.5082 0
M  V30 5592 H 517.628 -7.55841 3.14079 0
M  V30 5593 N 520.291 -0.0518155 -1.57515 0
M  V30 5594 C 521.568 0.661727 -1.84067 0
M  V30 5595 C 521.948 1.88999 -0.940351 0
M  V30 5596 O 521.296 2.285 -0.00155404 0
M  V30 5597 C 521.506 1.01841 -3.3381 0
M  V30 5598 C 522.854 1.40043 -4.00841 0
M  V30 5599 O 523.878 1.11073 -3.38439 0
M  V30 5600 O 522.737 1.94111 -5.10865 0
M  V30 5601 H 519.831 0.326702 -0.759733 0
M  V30 5602 H 522.377 -0.0812277 -1.69505 0
M  V30 5603 H 521.149 0.145202 -3.91031 0
M  V30 5604 H 520.772 1.81879 -3.53562 0
M  V30 5605 N 521.769 1.56035 0.221574 0
M  V30 5606 C 523.015 1.79312 0.947372 0
M  V30 5607 C 523.348 0.621453 1.83988 0
M  V30 5608 O 522.623 -0.379287 1.90766 0
M  V30 5609 C 522.906 3.1267 1.78633 0
M  V30 5610 C 522.759 4.40284 0.920312 0
M  V30 5611 C 524.078 3.4247 2.7641 0
M  V30 5612 H 521.197 0.652328 0.342982 0
M  V30 5613 H 523.839 1.88765 0.216244 0
M  V30 5614 H 521.989 3.04741 2.40967 0
M  V30 5615 H 523.661 4.60232 0.313718 0
M  V30 5616 H 521.904 4.33212 0.225734 0
M  V30 5617 H 522.575 5.30033 1.54171 0
M  V30 5618 H 525.051 3.50526 2.24211 0
M  V30 5619 H 523.927 4.3695 3.32213 0
M  V30 5620 H 524.188 2.64635 3.54148 0
M  V30 5621 N 523.247 -0.488276 1.49845 0
M  V30 5622 C 524.495 -1.23911 1.59657 0
M  V30 5623 C 524.816 -1.92816 0.291005 0
M  V30 5624 O 524.086 -1.83328 -0.690485 0
M  V30 5625 H 522.666 -0.460357 0.588286 0
M  V30 5626 H 525.328 -0.564794 1.86537 0
M  V30 5627 H 524.424 -1.99625 2.39909 0
M  V30 5628 N 524.725 -1.39134 -0.740242 0
M  V30 5629 C 525.635 -1.39697 -1.88473 0
M  V30 5630 C 526.651 -0.292403 -1.71526 0
M  V30 5631 O 527.827 -0.533021 -1.94219 0
M  V30 5632 C 524.892 -1.23382 -3.24003 0
M  V30 5633 C 523.953 -2.43763 -3.53381 0
M  V30 5634 C 523.186 -2.28216 -4.82445 0
M  V30 5635 O 523.409 -1.28288 -5.55786 0
M  V30 5636 O 522.343 -3.1709 -5.11603 0
M  V30 5637 H 526.169 -2.36159 -1.90952 0
M  V30 5638 H 523.754 -1.20194 -0.887346 0
M  V30 5639 H 525.636 -1.16395 -4.05006 0
M  V30 5640 H 524.311 -0.300121 -3.22306 0
M  V30 5641 H 523.218 -2.56325 -2.72485 0
M  V30 5642 H 524.551 -3.35808 -3.59852 0
M  V30 5643 N 526.204 0.969867 -1.24223 0
M  V30 5644 C 527.429 1.75289 -1.10853 0
M  V30 5645 C 527.854 1.85091 0.335079 0
M  V30 5646 O 527.212 1.32024 1.24255 0
M  V30 5647 C 527.26 3.15255 -1.75062 0
M  V30 5648 O 526.364 3.99589 -1.01992 0
M  V30 5649 H 525.705 0.538904 -0.387915 0
M  V30 5650 H 528.235 1.21675 -1.64488 0
M  V30 5651 H 528.245 3.65787 -1.80731 0
M  V30 5652 H 526.92 3.07436 -2.801 0
M  V30 5653 H 525.497 3.58077 -1.04094 0
M  V30 5654 N 527.682 1.05563 1.17022 0
M  V30 5655 C 528.922 0.777033 1.89054 0
M  V30 5656 C 529.286 -0.683617 1.79418 0
M  V30 5657 O 530.487 -1.07648 2.46303 0
M  V30 5658 C 528.758 1.24886 3.34871 0
M  V30 5659 S 530.317 1.0982 4.24835 0
M  V30 5660 H 527.135 0.282082 0.652649 0
M  V30 5661 H 529.737 1.35103 1.41306 0
M  V30 5662 H 528.441 2.30699 3.3942 0
M  V30 5663 H 527.972 0.669292 3.87665 0
M  V30 5664 H 529.987 0.02462 4.96194 0
M  V30 5665 N 529.16 -1.33526 0.837174 0
M  V30 5666 C 530.09 -2.31764 0.284206 0
M  V30 5667 C 531.071 -1.58896 -0.607142 0
M  V30 5668 O 532.256 -1.86798 -0.531047 0
M  V30 5669 C 529.386 -3.43029 -0.542962 0
M  V30 5670 C 528.34 -4.27255 0.252451 0
M  V30 5671 C 527.666 -5.3012 -0.69836 0
M  V30 5672 C 528.966 -5.01229 1.46858 0
M  V30 5673 H 530.66 -2.78262 1.10502 0
M  V30 5674 H 528.206 -1.3378 0.532812 0
M  V30 5675 H 530.159 -4.1078 -0.940096 0
M  V30 5676 H 528.883 -2.95216 -1.39697 0
M  V30 5677 H 527.542 -3.61127 0.631124 0
M  V30 5678 H 527.19 -4.78564 -1.54872 0
M  V30 5679 H 526.89 -5.87353 -0.170274 0
M  V30 5680 H 528.414 -6.00737 -1.09305 0
M  V30 5681 H 529.828 -5.61756 1.14469 0
M  V30 5682 H 528.225 -5.68104 1.93333 0
M  V30 5683 H 529.295 -4.301 2.23924 0
M  V30 5684 N 530.638 -0.59345 -1.46 0
M  V30 5685 C 531.863 -0.0872365 -2.07216 0
M  V30 5686 C 532.288 1.2131 -1.43755 0
M  V30 5687 O 531.646 1.73528 -0.525152 0
M  V30 5688 C 531.694 0.0538197 -3.6056 0
M  V30 5689 O 530.798 1.10765 -3.97247 0
M  V30 5690 H 530.139 -0.0676598 -0.660544 0
M  V30 5691 H 532.669 -0.819445 -1.87473 0
M  V30 5692 H 532.679 0.256567 -4.07193 0
M  V30 5693 H 531.354 -0.895739 -4.0614 0
M  V30 5694 H 529.931 0.882501 -3.62307 0
M  V30 5695 N 532.116 1.54067 -0.331816 0
M  V30 5696 C 533.527 1.86059 0.15454 0
M  V30 5697 C 533.878 1.25331 1.50952 0
M  V30 5698 O 533.003 0.562441 2.08963 0
M  V30 5699 C 533.598 3.37581 0.287192 0
M  V30 5700 C 532.157 3.69493 0.717773 0
M  V30 5701 C 531.304 2.76863 -0.155569 0
M  V30 5702 H 534.255 1.48797 -0.55182 0
M  V30 5703 H 534.276 3.63744 1.11671 0
M  V30 5704 H 533.788 3.81751 -0.699131 0
M  V30 5705 H 531.889 3.3086 1.71354 0
M  V30 5706 H 532.002 4.76315 0.5158 0
M  V30 5707 H 530.366 2.51995 0.370213 0
M  V30 5708 H 531.149 3.23861 -1.13881 0
M  V30 5709 N 533.594 0.0601682 1.57485 0
M  V30 5710 C 534.544 -0.920969 2.08572 0
M  V30 5711 C 535.528 -1.26617 0.992827 0
M  V30 5712 O 536.72 -1.24708 1.25606 0
M  V30 5713 C 533.849 -2.19267 2.64153 0
M  V30 5714 C 532.935 -1.87447 3.80427 0
M  V30 5715 N 533.326 -1.26025 4.89848 0
M  V30 5716 C 531.624 -2.17265 3.89502 0
M  V30 5717 C 532.325 -1.12036 5.70809 0
M  V30 5718 N 531.301 -1.62624 5.18705 0
M  V30 5719 H 535.103 -0.441561 2.90564 0
M  V30 5720 H 532.617 -0.144043 1.6176 0
M  V30 5721 H 534.614 -2.90462 2.99061 0
M  V30 5722 H 533.274 -2.67806 1.83603 0
M  V30 5723 H 534.285 -0.931336 5.09457 0
M  V30 5724 H 530.962 -2.68262 3.19909 0
M  V30 5725 H 532.352 -0.642783 6.68818 0
M  V30 5726 N 535.072 -1.5615 -0.213296 0
M  V30 5727 C 536.022 -1.89485 -1.26804 0
M  V30 5728 C 537.006 -0.758713 -1.41889 0
M  V30 5729 O 538.198 -1.02127 -1.44565 0
M  V30 5730 C 535.327 -2.22219 -2.61675 0
M  V30 5731 C 534.413 -3.42245 -2.50458 0
M  V30 5732 N 534.804 -4.60645 -2.089 0
M  V30 5733 C 533.102 -3.46023 -2.81397 0
M  V30 5734 C 533.803 -5.42805 -2.09135 0
M  V30 5735 N 532.779 -4.82732 -2.49941 0
M  V30 5736 H 536.581 -2.78537 -0.937771 0
M  V30 5737 H 534.095 -1.56826 -0.421824 0
M  V30 5738 H 536.092 -2.44278 -3.37837 0
M  V30 5739 H 534.752 -1.34484 -2.95541 0
M  V30 5740 H 535.763 -4.85651 -1.79899 0
M  V30 5741 H 532.44 -2.68654 -3.1958 0
M  V30 5742 H 533.83 -6.47601 -1.79059 0
M  V30 5743 N 536.55 0.480323 -1.50102 0
M  V30 5744 C 537.775 1.26126 -1.64642 0
M  V30 5745 C 538.2 1.85257 -0.325823 0
M  V30 5746 O 537.558 1.66854 0.709194 0
M  V30 5747 C 537.606 2.35243 -2.73301 0
M  V30 5748 O 536.71 3.39646 -2.33911 0
M  V30 5749 H 536.051 0.371463 -0.550374 0
M  V30 5750 H 538.581 0.572696 -1.96421 0
M  V30 5751 H 538.591 2.80695 -2.96098 0
M  V30 5752 H 537.266 1.91574 -3.6915 0
M  V30 5753 H 535.843 2.99969 -2.21525 0
M  V30 5754 N 538.028 1.39524 0.732853 0
M  V30 5755 C 539.444 1.21176 1.03868 0
M  V30 5756 C 539.644 0.0748448 2.01361 0
M  V30 5757 O 538.7 -0.57281 2.45917 0
M  V30 5758 C 540.013 2.54667 1.59892 0
M  V30 5759 C 541.561 2.6153 1.71962 0
M  V30 5760 C 542.036 3.95248 2.31394 0
M  V30 5761 N 543.527 3.96899 2.38801 0
M  V30 5762 C 544.262 4.97138 2.85729 0
M  V30 5763 N 543.758 6.07775 3.32537 0
M  V30 5764 N 545.551 4.84516 2.84957 0
M  V30 5765 H 537.702 2.12225 0.086304 0
M  V30 5766 H 539.965 0.942614 0.100907 0
M  V30 5767 H 539.671 3.38423 0.95721 0
M  V30 5768 H 539.545 2.74538 2.58668 0
M  V30 5769 H 541.932 1.78156 2.35254 0
M  V30 5770 H 542.013 2.45507 0.718327 0
M  V30 5771 H 541.657 4.79054 1.68729 0
M  V30 5772 H 541.587 4.08593 3.32204 0
M  V30 5773 H 544.078 3.16998 2.05719 0
M  V30 5774 H 544.391 6.8017 3.66862 0
M  V30 5775 H 542.736 6.11366 3.30541 0
M  V30 5776 H 545.927 3.97185 2.47713 0
M  V30 5777 H 546.1 5.62783 3.21215 0
M  V30 5778 N 539.506 -0.963266 1.24736 0
M  V30 5779 C 540.416 -2.09246 1.06082 0
M  V30 5780 C 541.432 -1.74 0.000363101 0
M  V30 5781 O 542.608 -2.0041 0.199479 0
M  V30 5782 C 539.673 -3.40115 0.672498 0
M  V30 5783 C 538.734 -3.89282 1.80993 0
M  V30 5784 C 537.967 -5.13905 1.44004 0
M  V30 5785 O 538.19 -5.69434 0.331835 0
M  V30 5786 O 537.124 -5.57566 2.26723 0
M  V30 5787 H 540.95 -2.27881 2.00759 0
M  V30 5788 H 538.535 -1.07649 1.03595 0
M  V30 5789 H 540.417 -4.18797 0.467668 0
M  V30 5790 H 539.092 -3.22771 -0.245102 0
M  V30 5791 H 537.999 -3.11642 2.06955 0
M  V30 5792 H 539.332 -4.1111 2.70646 0
M  V30 5793 N 540.985 -1.06182 -1.16461 0
M  V30 5794 C 542.401 -0.785065 -1.38956 0
M  V30 5795 C 542.601 0.616103 -1.9185 0
M  V30 5796 O 541.657 1.37686 -2.11657 0
M  V30 5797 C 542.97 -1.84902 -2.37132 0
M  V30 5798 C 544.518 -1.8724 -2.50819 0
M  V30 5799 C 544.993 -2.92686 -3.52277 0
M  V30 5800 N 546.484 -2.91712 -3.59803 0
M  V30 5801 C 547.219 -3.69949 -4.38093 0
M  V30 5802 N 546.715 -4.58 -5.19815 0
M  V30 5803 N 548.508 -3.58346 -4.33064 0
M  V30 5804 H 540.659 -1.96569 -0.804634 0
M  V30 5805 H 542.922 -0.851747 -0.416211 0
M  V30 5806 H 542.628 -2.85518 -2.0536 0
M  V30 5807 H 542.502 -1.69908 -3.36766 0
M  V30 5808 H 544.889 -0.872827 -2.81897 0
M  V30 5809 H 544.97 -2.06311 -1.51226 0
M  V30 5810 H 544.614 -3.92835 -3.21937 0
M  V30 5811 H 544.544 -2.70864 -4.51598 0
M  V30 5812 H 547.035 -2.27876 -3.01464 0
M  V30 5813 H 547.348 -5.14357 -5.76764 0
M  V30 5814 H 545.693 -4.62056 -5.19162 0
M  V30 5815 H 548.884 -2.88943 -3.68279 0
M  V30 5816 H 549.057 -4.19563 -4.93833 0
M  V30 5817 N 542.463 1.3308 -0.844243 0
M  V30 5818 C 543.74 1.92178 -0.364261 0
M  V30 5819 C 544.12 1.76961 1.15101 0
M  V30 5820 O 543.468 1.16128 1.9679 0
M  V30 5821 C 543.678 3.393 -0.817106 0
M  V30 5822 C 545.026 4.16444 -0.828236 0
M  V30 5823 O 546.05 3.47975 -0.761062 0
M  V30 5824 O 544.909 5.38685 -0.920926 0
M  V30 5825 H 542.003 0.820411 -0.10419 0
M  V30 5826 H 544.549 1.41918 -0.930453 0
M  V30 5827 H 543.321 3.44272 -1.85991 0
M  V30 5828 H 542.944 3.96947 -0.227785 0
M  V30 5829 N 543.941 0.601185 1.45683 0
M  V30 5830 C 544.891 -0.142686 2.27553 0
M  V30 5831 C 545.875 -0.844598 1.3695 0
M  V30 5832 O 547.067 -0.735644 1.60988 0
M  V30 5833 C 544.196 -1.14364 3.23691 0
M  V30 5834 C 543.282 -0.442894 4.21781 0
M  V30 5835 N 543.673 0.51189 5.03203 0
M  V30 5836 C 541.971 -0.691277 4.4061 0
M  V30 5837 C 542.672 0.92318 5.74328 0
M  V30 5838 N 541.648 0.268308 5.42937 0
M  V30 5839 H 545.45 0.590736 2.87902 0
M  V30 5840 H 542.964 0.424365 1.56757 0
M  V30 5841 H 544.961 -1.6909 3.8107 0
M  V30 5842 H 543.621 -1.87768 2.64902 0
M  V30 5843 H 544.632 0.888329 5.10225 0
M  V30 5844 H 541.309 -1.41049 3.92952 0
M  V30 5845 H 542.699 1.71029 6.49768 0
M  V30 5846 N 545.419 -1.53889 0.339982 0
M  V30 5847 C 546.349 -2.27843 -0.510856 0
M  V30 5848 C 547.33 -1.29267 -1.10563 0
M  V30 5849 O 548.515 -1.58104 -1.12768 0
M  V30 5850 C 545.645 -3.04857 -1.66372 0
M  V30 5851 C 544.599 -4.10907 -1.19746 0
M  V30 5852 C 543.925 -4.75855 -2.43857 0
M  V30 5853 C 545.225 -5.21435 -0.300501 0
M  V30 5854 H 546.919 -2.99212 0.106067 0
M  V30 5855 H 544.465 -1.43904 0.0524533 0
M  V30 5856 H 546.418 -3.5533 -2.26537 0
M  V30 5857 H 545.142 -2.31133 -2.30749 0
M  V30 5858 H 543.801 -3.61342 -0.618654 0
M  V30 5859 H 543.449 -3.9873 -3.06633 0
M  V30 5860 H 543.149 -5.47502 -2.13343 0
M  V30 5861 H 544.673 -5.2911 -3.04754 0
M  V30 5862 H 546.087 -5.67565 -0.80889 0
M  V30 5863 H 544.484 -6.00036 -0.0874076 0
M  V30 5864 H 545.554 -4.80328 0.664321 0
M  V30 5865 N 546.897 -0.0685191 -1.57451 0
M  V30 5866 C 548.125 0.610462 -1.97689 0
M  V30 5867 C 548.54 1.63346 -0.946758 0
M  V30 5868 O 547.897 1.82377 0.0669868 0
M  V30 5869 C 547.948 1.28196 -3.38006 0
M  V30 5870 O 547.669 0.299906 -4.37072 0
M  V30 5871 C 549.17 2.04907 -3.931 0
M  V30 5872 H 546.39 0.165689 -0.650222 0
M  V30 5873 H 548.934 -0.139953 -2.04021 0
M  V30 5874 H 547.089 1.98348 -3.32771 0
M  V30 5875 H 547.503 0.78126 -5.18649 0
M  V30 5876 H 548.977 2.47287 -4.93511 0
M  V30 5877 H 549.454 2.9043 -3.29465 0
M  V30 5878 H 550.06 1.39629 -4.01726 0
M  V30 5879 N 548.375 1.56261 0.205012 0
M  V30 5880 C 549.322 1.93754 1.25411 0
M  V30 5881 C 550.292 0.796826 1.45739 0
M  V30 5882 O 551.477 1.05414 1.59036 0
M  V30 5883 C 548.617 2.27383 2.59598 0
M  V30 5884 C 547.73 3.5447 2.46931 0
M  V30 5885 C 546.865 3.77468 3.73753 0
M  V30 5886 C 545.904 4.98014 3.55877 0
M  V30 5887 N 545.041 5.17316 4.74688 0
M  V30 5888 H 549.881 2.83203 0.92737 0
M  V30 5889 H 547.418 1.40158 0.446574 0
M  V30 5890 H 549.376 2.44895 3.37761 0
M  V30 5891 H 548.006 1.41088 2.90335 0
M  V30 5892 H 547.058 3.45061 1.60116 0
M  V30 5893 H 548.37 4.42789 2.29651 0
M  V30 5894 H 547.524 3.95165 4.60358 0
M  V30 5895 H 546.263 2.87461 3.93976 0
M  V30 5896 H 545.268 4.80249 2.67657 0
M  V30 5897 H 546.493 5.8952 3.37109 0
M  V30 5898 H 544.439 4.30255 4.95194 0
M  V30 5899 H 544.356 5.99796 4.60197 0
M  V30 5900 H 545.624 5.39463 5.62672 0
M  V30 5901 N 549.853 -0.472356 1.50355 0
M  V30 5902 C 551.099 -1.22634 1.6152 0
M  V30 5903 C 551.432 -1.91645 0.313995 0
M  V30 5904 O 550.707 -1.82059 -0.684446 0
M  V30 5905 C 550.99 -2.27099 2.7946 0
M  V30 5906 C 550.843 -1.62402 4.19459 0
M  V30 5907 C 552.162 -3.28421 2.92964 0
M  V30 5908 H 549.281 -0.444494 0.587873 0
M  V30 5909 H 551.923 -0.520321 1.82737 0
M  V30 5910 H 550.073 -2.87314 2.61501 0
M  V30 5911 H 551.745 -1.05793 4.49005 0
M  V30 5912 H 549.988 -0.927184 4.23776 0
M  V30 5913 H 550.659 -2.38309 4.97909 0
M  V30 5914 H 553.135 -2.78227 3.09401 0
M  V30 5915 H 552.011 -3.98845 3.77113 0
M  V30 5916 H 552.272 -3.92467 2.03525 0
M  V30 5917 N 551.331 -1.39911 -0.725443 0
M  V30 5918 C 552.561 -1.40744 -1.51244 0
M  V30 5919 C 552.969 -0.00275403 -1.892 0
M  V30 5920 O 552.312 0.981299 -1.55294 0
M  V30 5921 C 552.374 -2.22527 -2.82351 0
M  V30 5922 C 552.038 -3.71053 -2.66774 0
M  V30 5923 C 553.035 -4.63916 -2.34686 0
M  V30 5924 C 550.72 -4.14753 -2.83347 0
M  V30 5925 C 552.714 -5.98463 -2.19366 0
M  V30 5926 C 550.401 -5.49372 -2.67644 0
M  V30 5927 C 551.399 -6.41042 -2.357 0
M  V30 5928 O 551.087 -7.73181 -2.20107 0
M  V30 5929 H 550.819 -0.482314 -0.473655 0
M  V30 5930 H 553.373 -1.84472 -0.903284 0
M  V30 5931 H 551.603 -1.73563 -3.45562 0
M  V30 5932 H 553.292 -2.15421 -3.44018 0
M  V30 5933 H 554.058 -4.31453 -2.21525 0
M  V30 5934 H 549.937 -3.43728 -3.072 0
M  V30 5935 H 553.481 -6.69979 -1.94354 0
M  V30 5936 H 549.378 -5.81424 -2.80387 0
M  V30 5937 H 550.146 -7.84008 -2.35103 0
M  V30 5938 N 552.809 0.956637 -1.25245 0
M  V30 5939 C 554.034 1.74104 -1.12706 0
M  V30 5940 C 554.459 1.85436 0.315429 0
M  V30 5941 O 553.817 1.33334 1.22848 0
M  V30 5942 C 553.865 3.1338 -1.78396 0
M  V30 5943 O 552.969 3.98485 -1.06224 0
M  V30 5944 H 552.31 0.53476 -0.393609 0
M  V30 5945 H 554.84 1.19924 -1.65769 0
M  V30 5946 H 554.85 3.6385 -1.846 0
M  V30 5947 H 553.525 3.04448 -2.83345 0
M  V30 5948 H 552.102 3.56952 -1.07886 0
M  V30 5949 N 554.287 1.06798 1.15896 0
M  V30 5950 C 555.234 0.683314 2.20453 0
M  V30 5951 C 556.204 -0.32255 1.62938 0
M  V30 5952 O 557.389 -0.210276 1.89638 0
M  V30 5953 C 554.529 0.0813266 3.45004 0
M  V30 5954 C 553.642 1.13799 4.16742 0
M  V30 5955 C 552.777 0.501598 5.28826 0
M  V30 5956 C 551.816 1.54144 5.92373 0
M  V30 5957 N 550.953 0.928038 6.9594 0
M  V30 5958 H 555.793 1.57932 2.52708 0
M  V30 5959 H 553.33 0.789544 1.24115 0
M  V30 5960 H 555.288 -0.285274 4.16224 0
M  V30 5961 H 553.918 -0.77806 3.13283 0
M  V30 5962 H 552.97 1.62223 3.44075 0
M  V30 5963 H 554.282 1.92664 4.60089 0
M  V30 5964 H 553.436 0.0823162 6.06644 0
M  V30 5965 H 552.175 -0.318883 4.86656 0
M  V30 5966 H 551.18 1.97056 5.13273 0
M  V30 5967 H 552.405 2.3641 6.36621 0
M  V30 5968 H 550.351 0.12836 6.55874 0
M  V30 5969 H 550.268 1.65401 7.37685 0
M  V30 5970 H 551.536 0.534071 7.77668 0
M  V30 5971 N 555.766 -1.3263 0.851289 0
M  V30 5972 C 556.696 -2.31449 0.308771 0
M  V30 5973 C 557.677 -1.59531 -0.590255 0
M  V30 5974 O 558.862 -1.87351 -0.511205 0
M  V30 5975 C 555.992 -3.43586 -0.506548 0
M  V30 5976 C 554.946 -4.26963 0.297753 0
M  V30 5977 C 554.272 -5.30831 -0.642094 0
M  V30 5978 C 555.572 -4.99643 1.52166 0
M  V30 5979 H 557.266 -2.77074 1.13447 0
M  V30 5980 H 554.812 -1.33207 0.546971 0
M  V30 5981 H 556.765 -4.11754 -0.896474 0
M  V30 5982 H 555.489 -2.96681 -1.36558 0
M  V30 5983 H 554.148 -3.60437 0.669391 0
M  V30 5984 H 553.796 -4.8018 -1.49788 0
M  V30 5985 H 553.496 -5.87501 -0.107968 0
M  V30 5986 H 555.02 -6.01862 -1.02927 0
M  V30 5987 H 556.434 -5.6051 1.20421 0
M  V30 5988 H 554.831 -5.66022 1.99347 0
M  V30 5989 H 555.901 -4.27701 2.28474 0
M  V30 5990 N 557.244 -0.608902 -1.45362 0
M  V30 5991 C 558.655 -0.189511 -1.85736 0
M  V30 5992 C 559.006 1.2539 -1.50903 0
M  V30 5993 O 558.131 1.95094 -0.936347 0
M  V30 5994 C 558.726 -0.33716 -3.37118 0
M  V30 5995 C 557.285 0.0275487 -3.7639 0
M  V30 5996 C 556.432 -0.660983 -2.69307 0
M  V30 5997 H 559.383 -0.815499 -1.36144 0
M  V30 5998 H 559.404 0.430257 -3.7806 0
M  V30 5999 H 558.916 -1.38779 -3.62439 0
M  V30 6000 H 557.017 1.0773 -3.56686 0
M  V30 6001 H 557.13 -0.367018 -4.77692 0
M  V30 6002 H 555.494 -0.0984958 -2.54509 0
M  V30 6003 H 556.277 -1.71377 -2.97464 0
M  V30 6004 N 558.722 1.53707 -0.348139 0
M  V30 6005 C 559.632 2.28881 0.514857 0
M  V30 6006 C 560.648 1.34168 1.10793 0
M  V30 6007 O 561.824 1.6721 1.12262 0
M  V30 6008 C 558.889 3.05042 1.64774 0
M  V30 6009 C 557.95 4.15389 1.08398 0
M  V30 6010 C 557.183 4.87909 2.16287 0
M  V30 6011 O 557.406 4.60137 3.3709 0
M  V30 6012 O 556.34 5.74254 1.80323 0
M  V30 6013 H 560.166 3.03547 -0.0963699 0
M  V30 6014 H 557.751 1.48972 -0.113043 0
M  V30 6015 H 559.633 3.52656 2.30677 0
M  V30 6016 H 558.308 2.33228 2.24469 0
M  V30 6017 H 557.215 3.72068 0.389341 0
M  V30 6018 H 558.548 4.89318 0.531829 0
M  V30 6019 N 560.2 0.0768682 1.57412 0
M  V30 6020 C 561.425 -0.603404 1.98428 0
M  V30 6021 C 561.85 -1.62047 0.955108 0
M  V30 6022 O 561.208 -1.81129 -0.0786778 0
M  V30 6023 C 561.256 -1.24396 3.38464 0
M  V30 6024 O 560.36 -2.35982 3.3821 0
M  V30 6025 H 559.701 -0.154741 0.645718 0
M  V30 6026 H 562.231 0.152885 2.04028 0
M  V30 6027 H 562.241 -1.5896 3.7576 0
M  V30 6028 H 560.916 -0.498735 4.12899 0
M  V30 6029 H 559.493 -2.03173 3.1269 0
M  V30 6030 N 561.678 -1.56367 -0.196722 0
M  V30 6031 C 562.626 -1.95304 -1.2633 0
M  V30 6032 C 563.62 -0.838252 -1.47206 0
M  V30 6033 O 564.826 -1.02325 -1.48087 0
M  V30 6034 H 561.201 -0.621013 -0.424083 0
M  V30 6035 H 563.172 -2.84254 -0.907879 0
M  V30 6036 C 561.921 -2.3074 -2.60104 0
M  V30 6037 H 561.244 -3.16047 -2.44856 0
M  V30 6038 H 562.684 -2.61849 -3.33484 0
M  V30 6039 C 561.143 -1.14143 -3.16975 0
M  V30 6040 O 561.673 -0.415602 -3.99544 0
M  V30 6041 N 559.879 -0.91867 -2.75697 0
M  V30 6042 H 559.426 -1.51065 -2.08656 0
M  V30 6043 H 559.384 -0.140321 -3.14087 0
M  V30 6044 N 563.156 0.464375 -1.50603 0
M  V30 6045 C 564.086 1.56944 -1.72889 0
M  V30 6046 C 565.067 1.59979 -0.577997 0
M  V30 6047 O 566.252 1.76138 -0.817855 0
M  V30 6048 C 563.382 2.95225 -1.8292 0
M  V30 6049 C 562.336 3.07056 -2.98162 0
M  V30 6050 C 561.662 4.47051 -2.93343 0
M  V30 6051 C 562.962 2.83648 -4.38567 0
M  V30 6052 H 564.656 1.38547 -2.65415 0
M  V30 6053 H 562.202 0.665082 -1.27721 0
M  V30 6054 H 564.155 3.72467 -1.97095 0
M  V30 6055 H 562.879 3.14793 -0.870209 0
M  V30 6056 H 561.538 2.32248 -2.83648 0
M  V30 6057 H 561.186 4.63547 -1.95276 0
M  V30 6058 H 560.886 4.55902 -3.70712 0
M  V30 6059 H 562.41 5.26304 -3.09575 0
M  V30 6060 H 563.824 3.50636 -4.53572 0
M  V30 6061 H 562.221 3.03937 -5.17438 0
M  V30 6062 H 563.291 1.79451 -4.50472 0
M  V30 6063 N 564.634 1.40294 0.718013 0
M  V30 6064 C 565.581 1.40367 1.8321 0
M  V30 6065 C 566.551 0.260952 1.64037 0
M  V30 6066 O 567.736 0.458648 1.85205 0
M  V30 6067 C 564.876 1.26965 3.20895 0
M  V30 6068 C 563.989 2.50922 3.51656 0
M  V30 6069 C 563.124 2.29981 4.78834 0
M  V30 6070 C 562.163 3.49527 5.02491 0
M  V30 6071 N 561.3 3.27796 6.20882 0
M  V30 6072 H 566.14 2.35593 1.82482 0
M  V30 6073 H 563.677 1.17012 0.891444 0
M  V30 6074 H 565.635 1.17202 4.00399 0
M  V30 6075 H 564.265 0.353591 3.20858 0
M  V30 6076 H 563.317 2.71223 2.66725 0
M  V30 6077 H 564.629 3.39913 3.65048 0
M  V30 6078 H 563.783 2.17558 5.66351 0
M  V30 6079 H 562.522 1.38411 4.67647 0
M  V30 6080 H 561.527 3.6243 4.1343 0
M  V30 6081 H 562.752 4.42021 5.15553 0
M  V30 6082 H 560.698 2.38906 6.1095 0
M  V30 6083 H 560.615 4.10351 6.34939 0
M  V30 6084 H 561.883 3.19101 7.11193 0
M  V30 6085 N 566.112 -0.949982 1.2575 0
M  V30 6086 C 567.075 -2.02894 1.06615 0
M  V30 6087 C 568.075 -1.60791 0.0173905 0
M  V30 6088 O 569.265 -1.72249 0.260003 0
M  V30 6089 C 566.397 -3.35219 0.619751 0
M  V30 6090 H 567.59 -2.21302 2.02399 0
M  V30 6091 H 565.143 -1.12772 1.08223 0
M  V30 6092 H 565.878 -3.22508 -0.340486 0
M  V30 6093 H 565.663 -3.67129 1.37692 0
M  V30 6094 H 567.153 -4.14505 0.507443 0
M  V30 6095 N 567.59 -1.07411 -1.15328 0
M  V30 6096 C 568.553 -0.698914 -2.18284 0
M  V30 6097 C 569.553 0.261149 -1.58665 0
M  V30 6098 O 570.743 0.0420277 -1.74149 0
M  V30 6099 C 567.875 -0.0302427 -3.40887 0
M  V30 6100 H 569.068 -1.61045 -2.52991 0
M  V30 6101 H 566.621 -0.870724 -1.298 0
M  V30 6102 H 567.356 0.893505 -3.11748 0
M  V30 6103 H 567.141 -0.720759 -3.85419 0
M  V30 6104 H 568.631 0.21759 -4.17033 0
M  V30 6105 N 569.068 1.32177 -0.85831 0
M  V30 6106 C 570.484 1.49873 -0.548656 0
M  V30 6107 C 570.684 1.79278 0.919874 0
M  V30 6108 O 569.74 1.86451 1.70271 0
M  V30 6109 C 571.053 2.64043 -1.4388 0
M  V30 6110 C 572.601 2.77928 -1.43961 0
M  V30 6111 C 573.076 3.95182 -2.31506 0
M  V30 6112 N 574.567 4.0245 -2.29321 0
M  V30 6113 C 575.302 4.9242 -2.93786 0
M  V30 6114 N 574.798 5.87373 -3.67376 0
M  V30 6115 N 576.591 4.85572 -2.83155 0
M  V30 6116 H 568.742 1.11357 -1.80868 0
M  V30 6117 H 571.005 0.549175 -0.772729 0
M  V30 6118 H 570.711 2.49055 -2.48324 0
M  V30 6119 H 570.585 3.59912 -1.12885 0
M  V30 6120 H 572.972 2.92338 -0.402813 0
M  V30 6121 H 573.053 1.82762 -1.78974 0
M  V30 6122 H 572.697 3.81531 -3.35256 0
M  V30 6123 H 572.627 4.89633 -1.93823 0
M  V30 6124 H 575.118 3.34507 -1.75822 0
M  V30 6125 H 575.431 6.52728 -4.13722 0
M  V30 6126 H 573.776 5.87388 -3.71484 0
M  V30 6127 H 576.967 4.10363 -2.25211 0
M  V30 6128 H 577.14 5.55486 -3.33676 0
M  V30 6129 N 570.547 0.616602 1.45037 0
M  V30 6130 C 571.495 -0.109318 2.32343 0
M  V30 6131 C 572.489 -0.850543 1.465 0
M  V30 6132 O 573.695 -0.765088 1.62931 0
M  V30 6133 H 570.07 -0.0541091 0.750051 0
M  V30 6134 H 572.041 0.645326 2.91338 0
M  V30 6135 C 570.79 -1.0872 3.30266 0
M  V30 6136 H 570.113 -0.526267 3.96321 0
M  V30 6137 H 571.553 -1.56489 3.94065 0
M  V30 6138 C 570.012 -2.16525 2.58105 0
M  V30 6139 O 570.542 -3.244 2.36913 0
M  V30 6140 N 568.748 -1.92057 2.18088 0
M  V30 6141 H 568.295 -1.04337 2.35524 0
M  V30 6142 H 568.253 -2.64391 1.70131 0
M  V30 6143 N 572.025 -1.5352 0.356285 0
M  V30 6144 C 572.972 -2.25439 -0.494569 0
M  V30 6145 C 573.942 -1.25752 -1.08516 0
M  V30 6146 O 575.127 -1.54513 -1.1194 0
M  V30 6147 C 572.267 -3.04011 -1.63313 0
M  V30 6148 C 571.38 -4.18574 -1.06862 0
M  V30 6149 C 570.515 -4.84607 -2.17552 0
M  V30 6150 C 569.554 -5.91218 -1.58518 0
M  V30 6151 N 568.691 -6.50979 -2.63003 0
M  V30 6152 H 573.531 -2.97737 0.125244 0
M  V30 6153 H 571.068 -1.46916 0.0735789 0
M  V30 6154 H 573.026 -3.47834 -2.30363 0
M  V30 6155 H 571.656 -2.33986 -2.22374 0
M  V30 6156 H 570.708 -3.79303 -0.288672 0
M  V30 6157 H 572.02 -4.95215 -0.596924 0
M  V30 6158 H 571.174 -5.31566 -2.92442 0
M  V30 6159 H 569.913 -4.07418 -2.6807 0
M  V30 6160 H 568.918 -5.4363 -0.821391 0
M  V30 6161 H 570.143 -6.70322 -1.08836 0
M  V30 6162 H 568.089 -5.76648 -3.12751 0
M  V30 6163 H 568.006 -7.23131 -2.20493 0
M  V30 6164 H 569.274 -7.02589 -3.37623 0
M  V30 6165 N 573.503 -0.0852151 -1.57369 0
M  V30 6166 C 574.78 0.622534 -1.85429 0
M  V30 6167 C 575.16 1.86962 -0.980229 0
M  V30 6168 O 574.508 2.28445 -0.0500219 0
M  V30 6169 C 574.718 0.947374 -3.35896 0
M  V30 6170 C 576.066 1.31509 -4.03721 0
M  V30 6171 O 577.09 1.03869 -3.40719 0
M  V30 6172 O 575.949 1.83231 -5.14868 0
M  V30 6173 H 573.043 0.310513 -0.766492 0
M  V30 6174 H 575.589 -0.117164 -1.69295 0
M  V30 6175 H 574.361 0.0622264 -3.91251 0
M  V30 6176 H 573.984 1.74338 -3.5734 0
M  V30 6177 N 574.981 1.5647 0.188427 0
M  V30 6178 C 575.911 1.98101 1.23606 0
M  V30 6179 C 576.892 0.853961 1.47111 0
M  V30 6180 O 578.077 1.11879 1.58735 0
M  V30 6181 C 575.207 2.32624 2.57882 0
M  V30 6182 C 574.161 3.48129 2.48978 0
M  V30 6183 C 573.487 3.68347 3.87588 0
M  V30 6184 C 574.787 4.82112 2.00911 0
M  V30 6185 H 576.481 2.85864 0.890068 0
M  V30 6186 H 574.027 1.37532 0.426714 0
M  V30 6187 H 575.98 2.60343 3.3136 0
M  V30 6188 H 574.704 1.41751 2.94235 0
M  V30 6189 H 573.363 3.20511 1.77956 0
M  V30 6190 H 573.011 2.74793 4.21305 0
M  V30 6191 H 572.711 4.46055 3.82503 0
M  V30 6192 H 574.235 3.98449 4.62678 0
M  V30 6193 H 575.649 5.08819 2.64151 0
M  V30 6194 H 574.046 5.63337 2.06814 0
M  V30 6195 H 575.116 4.75249 0.96262 0
M  V30 6196 N 576.459 -0.456382 1.50847 0
M  V30 6197 C 577.684 -1.2349 1.66628 0
M  V30 6198 C 578.109 -1.84715 0.355254 0
M  V30 6199 O 577.467 -1.67961 -0.682559 0
M  V30 6200 C 577.515 -2.30865 2.77009 0
M  V30 6201 O 576.619 -3.35882 2.39285 0
M  V30 6202 H 575.96 -0.36266 0.556214 0
M  V30 6203 H 578.49 -0.541374 1.97308 0
M  V30 6204 H 578.5 -2.75949 3.00526 0
M  V30 6205 H 577.175 -1.85677 3.72152 0
M  V30 6206 H 575.752 -2.96406 2.26269 0
M  V30 6207 N 577.937 -1.40673 -0.710563 0
M  V30 6208 C 579.353 -1.22813 -1.01928 0
M  V30 6209 C 579.553 -0.10687 -2.01216 0
M  V30 6210 O 578.609 0.533614 -2.46797 0
M  V30 6211 C 579.922 -2.57178 -1.5582 0
M  V30 6212 C 581.47 -2.64233 -1.67779 0
M  V30 6213 C 581.945 -3.98879 -2.25076 0
M  V30 6214 N 583.436 -4.00647 -2.32456 0
M  V30 6215 C 584.171 -5.01621 -2.77784 0
M  V30 6216 N 583.667 -6.12989 -3.22826 0
M  V30 6217 N 585.46 -4.88988 -2.77213 0
M  V30 6218 H 577.611 -2.12335 -0.05253 0
M  V30 6219 H 579.874 -0.9441 -0.085898 0
M  V30 6220 H 579.58 -3.39903 -0.903249 0
M  V30 6221 H 579.454 -2.78618 -2.54267 0
M  V30 6222 H 581.841 -1.81876 -2.3239 0
M  V30 6223 H 581.922 -2.46619 -0.679178 0
M  V30 6224 H 581.566 -4.81678 -1.61086 0
M  V30 6225 H 581.496 -4.13826 -3.25661 0
M  V30 6226 H 583.987 -3.20231 -2.0065 0
M  V30 6227 H 584.3 -6.85921 -3.55995 0
M  V30 6228 H 582.645 -6.16547 -3.20773 0
M  V30 6229 H 585.836 -4.01075 -2.41363 0
M  V30 6230 H 586.009 -5.67822 -3.12221 0
M  V30 6231 N 579.415 0.9433 -1.26252 0
M  V30 6232 C 580.362 2.0417 -1.07625 0
M  V30 6233 C 581.332 1.6609 0.0180738 0
M  V30 6234 O 582.517 1.90276 -0.141289 0
M  V30 6235 C 579.657 3.37653 -0.713043 0
M  V30 6236 C 578.77 3.88783 -1.8834 0
M  V30 6237 C 577.905 5.10642 -1.4635 0
M  V30 6238 C 576.944 5.54028 -2.60229 0
M  V30 6239 N 576.081 6.67092 -2.18936 0
M  V30 6240 H 580.921 2.19436 -2.01623 0
M  V30 6241 H 578.458 1.07519 -1.00389 0
M  V30 6242 H 580.416 4.14391 -0.483358 0
M  V30 6243 H 579.046 3.22241 0.18996 0
M  V30 6244 H 578.098 3.08464 -2.22608 0
M  V30 6245 H 579.41 4.16922 -2.73821 0
M  V30 6246 H 578.564 5.94832 -1.19414 0
M  V30 6247 H 577.303 4.84244 -0.579568 0
M  V30 6248 H 576.308 4.68396 -2.87898 0
M  V30 6249 H 577.533 5.82429 -3.49219 0
M  V30 6250 H 575.479 6.42381 -1.32974 0
M  V30 6251 H 575.396 6.94806 -2.97961 0
M  V30 6252 H 576.664 7.54662 -1.95206 0
M  V30 6253 N 580.893 1.08022 1.14757 0
M  V30 6254 C 581.84 0.706657 2.19716 0
M  V30 6255 C 582.81 -0.30525 1.63271 0
M  V30 6256 O 583.995 -0.19015 1.8985 0
M  V30 6257 C 581.135 0.117914 3.44898 0
M  V30 6258 C 580.248 1.18212 4.15512 0
M  V30 6259 C 579.383 0.557659 5.28265 0
M  V30 6260 C 578.422 1.60418 5.90705 0
M  V30 6261 N 577.559 1.0018 6.94916 0
M  V30 6262 H 582.399 1.60603 2.51019 0
M  V30 6263 H 579.936 0.802664 1.23271 0
M  V30 6264 H 581.894 -0.241112 4.16503 0
M  V30 6265 H 580.524 -0.744788 3.1409 0
M  V30 6266 H 579.576 1.65863 3.42335 0
M  V30 6267 H 580.888 1.97533 4.5802 0
M  V30 6268 H 580.042 0.146654 6.06523 0
M  V30 6269 H 578.781 -0.267249 4.86967 0
M  V30 6270 H 577.786 2.02489 5.11154 0
M  V30 6271 H 579.011 2.43149 6.34078 0
M  V30 6272 H 576.957 0.197917 6.55701 0
M  V30 6273 H 576.874 1.73216 7.35889 0
M  V30 6274 H 578.142 0.616523 7.77058 0
M  V30 6275 N 582.371 -1.3172 0.865308 0
M  V30 6276 C 583.648 -1.91574 0.394789 0
M  V30 6277 C 584.028 -1.78769 -1.12271 0
M  V30 6278 O 583.376 -1.19245 -1.94918 0
M  V30 6279 C 583.586 -3.37957 0.870982 0
M  V30 6280 C 584.934 -4.15073 0.894384 0
M  V30 6281 O 585.958 -3.4672 0.816325 0
M  V30 6282 O 584.817 -5.37151 1.00651 0
M  V30 6283 H 581.911 -0.818649 0.117229 0
M  V30 6284 H 584.457 -1.4042 0.952913 0
M  V30 6285 H 583.229 -3.41269 1.91444 0
M  V30 6286 H 582.852 -3.96534 0.290907 0
M  V30 6287 N 583.85 -0.624285 -1.44708 0
M  V30 6288 C 584.783 0.133905 -2.27807 0
M  V30 6289 C 585.76 0.857794 -1.38133 0
M  V30 6290 O 586.945 0.863277 -1.6757 0
M  V30 6291 C 584.072 1.19541 -3.16903 0
M  V30 6292 C 583.118 0.572813 -4.22636 0
M  V30 6293 S 583.951 -0.631953 -5.31758 0
M  V30 6294 C 585.106 0.429733 -6.24423 0
M  V30 6295 H 585.34 -0.571072 -2.91764 0
M  V30 6296 H 582.873 -0.412261 -1.48794 0
M  V30 6297 H 584.831 1.80293 -3.68788 0
M  V30 6298 H 583.492 1.87255 -2.5218 0
M  V30 6299 H 582.685 1.37205 -4.84965 0
M  V30 6300 H 582.287 0.0400641 -3.73979 0
M  V30 6301 H 584.579 1.30421 -6.64828 0
M  V30 6302 H 585.522 -0.157804 -7.07924 0
M  V30 6303 H 585.93 0.75256 -5.59461 0
M  V30 6304 N 585.328 1.53329 -0.364422 0
M  V30 6305 C 586.276 2.27212 0.497737 0
M  V30 6306 C 587.27 1.30146 1.08437 0
M  V30 6307 O 588.476 1.47778 1.0277 0
M  V30 6308 H 584.851 0.730329 0.179232 0
M  V30 6309 H 586.822 2.98037 -0.147182 0
M  V30 6310 C 585.571 3.07333 1.6261 0
M  V30 6311 H 584.894 3.81866 1.184 0
M  V30 6312 H 586.334 3.62209 2.20409 0
M  V30 6313 C 584.793 2.18102 2.56775 0
M  V30 6314 O 585.323 1.79104 3.59562 0
M  V30 6315 N 583.529 1.82759 2.25937 0
M  V30 6316 H 583.076 2.14671 1.42387 0
M  V30 6317 H 583.034 1.23342 2.89196 0
M  V30 6318 N 586.806 0.0935595 1.57322 0
M  V30 6319 C 587.753 -0.865935 2.1394 0
M  V30 6320 C 588.723 -1.28083 1.05754 0
M  V30 6321 O 589.908 -1.36285 1.33533 0
M  V30 6322 C 587.048 -2.12023 2.72287 0
M  V30 6323 C 586.161 -1.756 3.94701 0
M  V30 6324 C 585.296 -2.95804 4.41218 0
M  V30 6325 C 584.335 -2.555 5.56225 0
M  V30 6326 N 583.472 -3.68534 5.97601 0
M  V30 6327 H 588.312 -0.376261 2.95615 0
M  V30 6328 H 585.849 -0.174052 1.46067 0
M  V30 6329 H 587.807 -2.85477 3.04235 0
M  V30 6330 H 586.437 -2.58492 1.93343 0
M  V30 6331 H 585.489 -0.921208 3.69077 0
M  V30 6332 H 586.801 -1.41964 4.78171 0
M  V30 6333 H 585.955 -3.77513 4.74941 0
M  V30 6334 H 584.694 -3.32649 3.56645 0
M  V30 6335 H 583.699 -1.72218 5.22131 0
M  V30 6336 H 584.924 -2.19801 6.42545 0
M  V30 6337 H 582.87 -4.051 5.15974 0
M  V30 6338 H 582.787 -3.38737 6.75865 0
M  V30 6339 H 584.055 -4.50757 6.35955 0
M  V30 6340 N 588.284 -1.56567 -0.180126 0
M  V30 6341 C 589.7 -1.50488 -0.531559 0
M  V30 6342 C 589.9 -0.796267 -1.851 0
M  V30 6343 O 588.956 -0.352978 -2.50021 0
M  V30 6344 C 590.269 -2.95201 -0.572456 0
M  V30 6345 C 591.817 -3.05957 -0.660264 0
M  V30 6346 C 592.292 -4.5211 -0.732135 0
M  V30 6347 N 593.783 -4.56322 -0.795262 0
M  V30 6348 C 594.518 -5.66742 -0.871296 0
M  V30 6349 N 594.014 -6.86815 -0.908708 0
M  V30 6350 N 595.807 -5.54691 -0.909639 0
M  V30 6351 H 587.958 -2.01045 0.685165 0
M  V30 6352 H 590.221 -0.915536 0.245962 0
M  V30 6353 H 589.927 -3.50165 0.328208 0
M  V30 6354 H 589.801 -3.49369 -1.422 0
M  V30 6355 H 592.188 -2.51032 -1.55136 0
M  V30 6356 H 592.269 -2.54888 0.215783 0
M  V30 6357 H 591.913 -5.07664 0.154664 0
M  V30 6358 H 591.843 -5.00926 -1.6242 0
M  V30 6359 H 594.334 -3.69868 -0.77499 0
M  V30 6360 H 594.647 -7.66718 -0.967654 0
M  V30 6361 H 592.992 -6.89443 -0.877132 0
M  V30 6362 H 596.183 -4.59804 -0.877353 0
M  V30 6363 H 596.356 -6.40768 -0.965434 0
M  V30 6364 N 589.762 0.448376 -1.51087 0
M  V30 6365 C 590.692 1.55102 -1.74544 0
M  V30 6366 C 591.673 1.59357 -0.594932 0
M  V30 6367 O 592.858 1.75261 -0.836491 0
M  V30 6368 C 589.988 2.93268 -1.86041 0
M  V30 6369 C 588.942 3.03877 -3.01402 0
M  V30 6370 C 588.268 4.43914 -2.98068 0
M  V30 6371 C 589.568 2.7898 -4.41551 0
M  V30 6372 H 591.262 1.35724 -2.66869 0
M  V30 6373 H 588.808 0.651498 -1.28419 0
M  V30 6374 H 590.761 3.70356 -2.01034 0
M  V30 6375 H 589.485 3.13853 -0.903548 0
M  V30 6376 H 588.144 2.29227 -2.86096 0
M  V30 6377 H 587.792 4.6145 -2.00182 0
M  V30 6378 H 587.492 4.51944 -3.75527 0
M  V30 6379 H 589.016 5.22991 -3.1514 0
M  V30 6380 H 590.43 3.45805 -4.57265 0
M  V30 6381 H 588.827 2.98431 -5.20633 0
M  V30 6382 H 589.897 1.74663 -4.5235 0
M  V30 6383 N 591.24 1.41047 0.703093 0
M  V30 6384 C 592.187 1.42302 1.81711 0
M  V30 6385 C 593.157 0.278336 1.63751 0
M  V30 6386 O 594.342 0.478266 1.84709 0
M  V30 6387 C 591.482 1.30362 3.19531 0
M  V30 6388 C 590.595 2.54638 3.48975 0
M  V30 6389 C 589.73 2.35047 4.76368 0
M  V30 6390 C 588.769 3.54837 4.98756 0
M  V30 6391 N 587.906 3.34363 6.1737 0
M  V30 6392 H 592.746 2.37516 1.79973 0
M  V30 6393 H 590.283 1.1795 0.878983 0
M  V30 6394 H 592.241 1.21443 3.99134 0
M  V30 6395 H 590.871 0.387602 3.20464 0
M  V30 6396 H 589.923 2.74037 2.63833 0
M  V30 6397 H 591.235 3.43766 3.61423 0
M  V30 6398 H 590.389 2.23552 5.64012 0
M  V30 6399 H 589.128 1.43363 4.66153 0
M  V30 6400 H 588.133 3.66795 4.09563 0
M  V30 6401 H 589.358 4.47464 5.10835 0
M  V30 6402 H 587.304 2.45373 6.08382 0
M  V30 6403 H 587.221 4.17063 6.30551 0
M  V30 6404 H 588.489 3.26626 7.07768 0
M  V30 6405 N 592.718 -0.936591 1.26751 0
M  V30 6406 C 593.666 -2.0573 1.08527 0
M  V30 6407 C 594.66 -1.69397 0.0108784 0
M  V30 6408 O 595.866 -1.79215 0.167915 0
M  V30 6409 H 592.241 -0.673691 0.334133 0
M  V30 6410 H 594.212 -2.1825 2.03493 0
M  V30 6411 C 592.961 -3.39738 0.739845 0
M  V30 6412 H 592.284 -3.68174 1.55845 0
M  V30 6413 H 593.724 -4.18955 0.652149 0
M  V30 6414 C 592.183 -3.32292 -0.555288 0
M  V30 6415 O 592.713 -3.68794 -1.59229 0
M  V30 6416 N 590.919 -2.85394 -0.54762 0
M  V30 6417 H 590.466 -2.55886 0.296667 0
M  V30 6418 H 590.424 -2.80795 -1.41427 0
M  V30 6419 N 594.196 -1.08629 -1.14182 0
M  V30 6420 C 595.473 -0.73002 -1.81466 0
M  V30 6421 C 595.853 0.785996 -1.95922 0
M  V30 6422 O 595.201 1.70535 -1.52086 0
M  V30 6423 C 595.411 -1.45957 -3.17014 0
M  V30 6424 C 596.759 -1.62008 -3.92477 0
M  V30 6425 O 597.783 -1.42141 -3.26611 0
M  V30 6426 O 596.642 -1.94806 -5.106 0
M  V30 6427 H 593.736 -0.261307 -0.784632 0
M  V30 6428 H 596.282 -1.188 -1.2118 0
M  V30 6429 H 595.054 -2.49221 -3.01669 0
M  V30 6430 H 594.677 -0.993222 -3.84995 0
M  V30 6431 N 595.674 1.31259 -0.872281 0
M  V30 6432 C 596.604 2.30929 -0.345554 0
M  V30 6433 C 597.585 1.60449 0.5648 0
M  V30 6434 O 598.77 1.8814 0.481335 0
M  V30 6435 C 595.9 3.44348 0.451823 0
M  V30 6436 C 594.854 4.26435 -0.365641 0
M  V30 6437 C 594.18 5.31785 0.557562 0
M  V30 6438 C 595.48 4.97159 -1.60095 0
M  V30 6439 H 597.174 2.75234 -1.17841 0
M  V30 6440 H 594.72 1.3232 -0.568094 0
M  V30 6441 H 596.673 4.13128 0.830854 0
M  V30 6442 H 595.397 2.98816 1.31821 0
M  V30 6443 H 594.056 3.59326 -0.726649 0
M  V30 6444 H 593.704 4.82502 1.4213 0
M  V30 6445 H 593.404 5.87598 0.0144878 0
M  V30 6446 H 594.928 6.03424 0.933387 0
M  V30 6447 H 596.342 5.58523 -1.29323 0
M  V30 6448 H 594.739 5.62779 -2.08327 0
M  V30 6449 H 595.809 4.24012 -2.35249 0
M  V30 6450 N 597.152 0.631951 1.44375 0
M  V30 6451 C 598.4 0.136497 2.01639 0
M  V30 6452 C 598.721 -1.24637 1.49969 0
M  V30 6453 O 597.991 -1.82827 0.70363 0
M  V30 6454 H 596.571 0.0474703 0.74549 0
M  V30 6455 H 599.233 0.818837 1.76865 0
M  V30 6456 H 598.329 0.104817 3.11924 0
M  V30 6457 N 598.631 -1.53133 0.372548 0
M  V30 6458 C 599.871 -2.03267 -0.214943 0
M  V30 6459 C 600.235 -1.25362 -1.45425 0
M  V30 6460 O 601.436 -1.65536 -2.11781 0
M  V30 6461 C 599.707 -3.53985 -0.492897 0
M  V30 6462 S 601.266 -4.25977 -1.05307 0
M  V30 6463 H 598.084 -0.708289 -0.062029 0
M  V30 6464 H 600.686 -1.88539 0.517025 0
M  V30 6465 H 599.39 -4.08282 0.416442 0
M  V30 6466 H 598.921 -3.72887 -1.25375 0
M  V30 6467 H 600.936 -4.37731 -2.33679 0
M  V30 6468 N 600.109 -0.101901 -1.5727 0
M  V30 6469 C 601.041 0.884723 -2.11436 0
M  V30 6470 C 602.054 1.24149 -1.05314 0
M  V30 6471 O 603.243 1.19341 -1.3274 0
M  V30 6472 C 600.343 2.19179 -2.58484 0
M  V30 6473 C 599.516 2.00933 -3.88516 0
M  V30 6474 C 598.575 3.15213 -4.2134 0
M  V30 6475 O 597.601 2.88877 -4.90448 0
M  V30 6476 N 598.803 4.41174 -3.77288 0
M  V30 6477 H 601.568 0.422058 -2.96713 0
M  V30 6478 H 599.129 0.0830128 -1.61687 0
M  V30 6479 H 601.121 2.94593 -2.77484 0
M  V30 6480 H 599.691 2.56847 -1.7818 0
M  V30 6481 H 598.911 1.09809 -3.78597 0
M  V30 6482 H 600.199 1.86026 -4.73573 0
M  V30 6483 H 599.597 4.6545 -3.21516 0
M  V30 6484 H 598.154 5.13515 -4.01429 0
M  V30 6485 N 601.587 1.56661 0.17182 0
M  V30 6486 C 602.835 1.81606 0.886774 0
M  V30 6487 C 603.156 0.678818 1.82803 0
M  V30 6488 O 602.426 -0.301354 1.93568 0
M  V30 6489 H 601.006 0.669934 0.330451 0
M  V30 6490 H 603.668 1.94142 0.171757 0
M  V30 6491 H 602.764 2.75634 1.46398 0
M  V30 6492 N 603.065 -0.440357 1.51323 0
M  V30 6493 C 604.012 -1.53429 1.72419 0
M  V30 6494 C 604.982 -1.56165 0.565826 0
M  V30 6495 O 606.167 -1.73222 0.799917 0
M  V30 6496 C 603.307 -2.91169 1.85242 0
M  V30 6497 C 602.42 -2.97985 3.12777 0
M  V30 6498 C 601.555 -4.26829 3.16212 0
M  V30 6499 C 600.594 -4.27501 4.38074 0
M  V30 6500 N 599.731 -5.47866 4.39076 0
M  V30 6501 H 604.571 -1.34743 2.65797 0
M  V30 6502 H 602.108 -0.654608 1.31732 0
M  V30 6503 H 604.066 -3.71087 1.90658 0
M  V30 6504 H 602.696 -3.0842 0.952744 0
M  V30 6505 H 601.748 -2.10749 3.16685 0
M  V30 6506 H 603.06 -2.94342 4.02696 0
M  V30 6507 H 602.214 -5.15118 3.20527 0
M  V30 6508 H 600.953 -4.33124 2.24176 0
M  V30 6509 H 599.958 -3.37606 4.33938 0
M  V30 6510 H 601.183 -4.22873 5.31371 0
M  V30 6511 H 599.129 -5.54887 3.49909 0
M  V30 6512 H 599.046 -5.46091 5.22801 0
M  V30 6513 H 600.314 -6.38195 4.4758 0
M  V30 6514 N 604.543 -1.41418 -0.695603 0
M  V30 6515 C 605.491 -1.43467 -1.83084 0
M  V30 6516 C 606.485 -0.312719 -1.66489 0
M  V30 6517 O 607.691 -0.484744 -1.7335 0
M  V30 6518 H 604.066 -0.448891 -0.603325 0
M  V30 6519 H 606.037 -2.39144 -1.78473 0
M  V30 6520 C 604.786 -1.3337 -3.21104 0
M  V30 6521 H 604.109 -2.18989 -3.3449 0
M  V30 6522 H 605.549 -1.38865 -4.00615 0
M  V30 6523 C 604.008 -0.0460484 -3.36869 0
M  V30 6524 O 604.538 0.909258 -3.91274 0
M  V30 6525 N 602.744 0.0300222 -2.90584 0
M  V30 6526 H 602.291 -0.748129 -2.46497 0
M  V30 6527 H 602.249 0.890991 -3.01511 0
M  V30 6528 N 606.021 0.929856 -1.27246 0
M  V30 6529 C 607.432 1.49223 -1.12203 0
M  V30 6530 C 607.783 1.93989 0.293731 0
M  V30 6531 O 606.908 1.80978 1.18642 0
M  V30 6532 C 607.503 2.71198 -2.0307 0
M  V30 6533 C 606.062 3.23666 -1.92139 0
M  V30 6534 C 605.209 1.96409 -1.95752 0
M  V30 6535 H 608.16 0.744181 -1.4017 0
M  V30 6536 H 608.181 3.45905 -1.58524 0
M  V30 6537 H 607.693 2.38585 -3.06102 0
M  V30 6538 H 605.794 3.61042 -0.920834 0
M  V30 6539 H 605.907 3.90006 -2.78267 0
M  V30 6540 H 604.271 2.12806 -1.39949 0
M  V30 6541 H 605.054 1.66113 -3.00436 0
M  V30 6542 N 607.499 1.09233 1.13605 0
M  V30 6543 C 608.431 0.687794 2.18637 0
M  V30 6544 C 609.444 -0.26936 1.60556 0
M  V30 6545 O 610.633 -0.0557162 1.78413 0
M  V30 6546 C 607.733 -0.00751901 3.38899 0
M  V30 6547 C 606.906 0.97067 4.26494 0
M  V30 6548 C 605.965 0.309129 5.25291 0
M  V30 6549 O 604.991 0.956149 5.61112 0
M  V30 6550 N 606.193 -0.937555 5.72879 0
M  V30 6551 H 608.958 1.59141 2.53957 0
M  V30 6552 H 606.519 0.979515 1.28907 0
M  V30 6553 H 608.511 -0.461238 4.02063 0
M  V30 6554 H 607.081 -0.813353 3.01833 0
M  V30 6555 H 606.301 1.603 3.60135 0
M  V30 6556 H 607.589 1.63323 4.81875 0
M  V30 6557 H 606.987 -1.48281 5.4592 0
M  V30 6558 H 605.544 -1.33463 6.3799 0
M  V30 6559 N 608.977 -1.30795 0.87923 0
M  V30 6560 C 609.887 -2.32041 0.345565 0
M  V30 6561 C 610.903 -1.65103 -0.549265 0
M  V30 6562 O 612.079 -1.9645 -0.443763 0
M  V30 6563 C 609.144 -3.43944 -0.436245 0
M  V30 6564 C 608.205 -4.26521 0.48765 0
M  V30 6565 C 607.438 -5.33081 -0.256943 0
M  V30 6566 O 607.661 -5.50762 -1.48381 0
M  V30 6567 O 606.595 -6.00635 0.389985 0
M  V30 6568 H 610.421 -2.79627 1.18501 0
M  V30 6569 H 608.006 -1.3486 0.642885 0
M  V30 6570 H 609.888 -4.12128 -0.879119 0
M  V30 6571 H 608.563 -2.98504 -1.25208 0
M  V30 6572 H 607.47 -3.61057 0.979216 0
M  V30 6573 H 608.803 -4.75551 1.26933 0
M  V30 6574 N 610.455 -0.639598 -1.44038 0
M  V30 6575 C 611.418 0.0506628 -2.29144 0
M  V30 6576 C 612.418 0.764001 -1.41491 0
M  V30 6577 O 613.608 0.607309 -1.63271 0
M  V30 6578 C 610.74 1.0824 -3.2326 0
M  V30 6579 H 611.933 -0.697987 -2.91664 0
M  V30 6580 H 609.486 -0.400146 -1.51091 0
M  V30 6581 H 610.221 1.86075 -2.65606 0
M  V30 6582 H 610.006 0.574725 -3.87865 0
M  V30 6583 H 611.496 1.56487 -3.87171 0
M  V30 6584 N 611.933 1.52934 -0.380664 0
M  V30 6585 C 612.843 2.29921 0.466192 0
M  V30 6586 C 613.859 1.36488 1.07922 0
M  V30 6587 O 615.035 1.69553 1.0869 0
M  V30 6588 C 612.1 3.08468 1.58266 0
M  V30 6589 C 611.161 4.17595 0.995627 0
M  V30 6590 C 610.394 4.92387 2.05889 0
M  V30 6591 O 610.617 4.67184 3.27254 0
M  V30 6592 O 609.551 5.77949 1.68102 0
M  V30 6593 H 613.377 3.03274 -0.160735 0
M  V30 6594 H 610.962 1.48698 -0.144617 0
M  V30 6595 H 612.844 3.57469 2.23145 0
M  V30 6596 H 611.519 2.37937 2.19471 0
M  V30 6597 H 610.426 3.72811 0.310332 0
M  V30 6598 H 611.759 4.90336 0.427918 0
M  V30 6599 N 613.412 0.11024 1.57214 0
M  V30 6600 C 614.637 -0.561179 1.99664 0
M  V30 6601 C 615.062 -1.59985 0.989266 0
M  V30 6602 O 614.42 -1.81255 -0.0402399 0
M  V30 6603 C 614.468 -1.17189 3.41027 0
M  V30 6604 O 613.572 -2.28755 3.4314 0
M  V30 6605 H 612.913 -0.14101 0.648855 0
M  V30 6606 H 615.443 0.196128 2.03658 0
M  V30 6607 H 615.453 -1.50954 3.79047 0
M  V30 6608 H 614.128 -0.411041 4.13864 0
M  V30 6609 H 612.705 -1.96495 3.16929 0
M  V30 6610 N 614.89 -1.56749 -0.16351 0
M  V30 6611 C 616.12 -1.86307 -0.892936 0
M  V30 6612 C 616.528 -0.6945 -1.75992 0
M  V30 6613 O 615.871 0.345384 -1.80424 0
M  V30 6614 C 615.933 -3.10372 -1.81409 0
M  V30 6615 C 615.597 -4.42913 -1.12593 0
M  V30 6616 C 616.594 -5.17608 -0.487661 0
M  V30 6617 C 614.279 -4.89646 -1.12035 0
M  V30 6618 C 616.273 -6.3723 0.14699 0
M  V30 6619 C 613.96 -6.09197 -0.481883 0
M  V30 6620 C 614.958 -6.82834 0.150678 0
M  V30 6621 O 614.646 -8.00116 0.779065 0
M  V30 6622 H 614.378 -0.622126 -0.264452 0
M  V30 6623 H 616.932 -2.04728 -0.166063 0
M  V30 6624 H 615.162 -2.87917 -2.58148 0
M  V30 6625 H 616.851 -3.26312 -2.41403 0
M  V30 6626 H 617.617 -4.8258 -0.483888 0
M  V30 6627 H 613.496 -4.32265 -1.60212 0
M  V30 6628 H 617.04 -6.94646 0.641325 0
M  V30 6629 H 612.937 -6.43688 -0.483266 0
M  V30 6630 H 613.705 -8.15678 0.679089 0
M  V30 6631 N 616.368 0.432326 -1.51554 0
M  V30 6632 C 617.608 1.19076 -1.66133 0
M  V30 6633 C 617.972 1.88364 -0.371873 0
M  V30 6634 O 619.173 2.65904 -0.39349 0
M  V30 6635 C 617.444 2.1768 -2.83461 0
M  V30 6636 S 619.003 3.01943 -3.18396 0
M  V30 6637 H 615.821 0.403735 -0.585251 0
M  V30 6638 H 618.423 0.481554 -1.89476 0
M  V30 6639 H 617.127 1.65424 -3.75583 0
M  V30 6640 H 616.658 2.93174 -2.62322 0
M  V30 6641 H 618.673 4.19373 -2.65219 0
M  V30 6642 N 617.846 1.41785 0.688094 0
M  V30 6643 C 618.809 1.43936 1.78368 0
M  V30 6644 C 619.809 0.328866 1.57401 0
M  V30 6645 O 620.999 0.589093 1.63937 0
M  V30 6646 C 618.131 1.25804 3.16838 0
M  V30 6647 H 619.324 2.41472 1.77852 0
M  V30 6648 H 616.877 1.28037 0.896448 0
M  V30 6649 H 617.612 0.291386 3.22988 0
M  V30 6650 H 617.397 2.06272 3.33458 0
M  V30 6651 H 618.887 1.30162 3.96797 0
M  V30 6652 N 619.324 -0.923095 1.27737 0
M  V30 6653 C 620.256 -2.02871 1.06658 0
M  V30 6654 C 621.269 -1.62786 0.0212095 0
M  V30 6655 O 622.458 -1.76548 0.263267 0
M  V30 6656 C 619.558 -3.33603 0.59682 0
M  V30 6657 C 618.731 -4.02354 1.71551 0
M  V30 6658 C 617.79 -5.11364 1.24071 0
M  V30 6659 O 616.816 -5.35075 1.94123 0
M  V30 6660 N 618.018 -5.80416 0.0988444 0
M  V30 6661 H 620.783 -2.21515 2.01869 0
M  V30 6662 H 618.344 -1.09378 1.19365 0
M  V30 6663 H 620.336 -4.03845 0.262984 0
M  V30 6664 H 618.906 -3.11499 -0.262187 0
M  V30 6665 H 618.126 -3.25786 2.2194 0
M  V30 6666 H 619.414 -4.45035 2.46619 0
M  V30 6667 H 618.812 -5.63611 -0.485743 0
M  V30 6668 H 617.369 -6.51563 -0.17578 0
M  V30 6669 N 620.802 -1.09834 -1.13024 0
M  V30 6670 C 622.032 -0.857657 -1.87957 0
M  V30 6671 C 622.44 0.595008 -1.796 0
M  V30 6672 O 621.783 1.42158 -1.16347 0
M  V30 6673 C 621.845 -1.21949 -3.38185 0
M  V30 6674 C 621.509 -2.67791 -3.7032 0
M  V30 6675 C 622.506 -3.66036 -3.69207 0
M  V30 6676 C 620.191 -3.04019 -3.99847 0
M  V30 6677 C 622.185 -4.98533 -3.9717 0
M  V30 6678 C 619.872 -4.36706 -4.27471 0
M  V30 6679 C 620.87 -5.33772 -4.26118 0
M  V30 6680 O 620.558 -6.64072 -4.53061 0
M  V30 6681 H 620.29 -0.308009 -0.601753 0
M  V30 6682 H 622.844 -1.46496 -1.43973 0
M  V30 6683 H 621.074 -0.555249 -3.82693 0
M  V30 6684 H 622.763 -0.957281 -3.9445 0
M  V30 6685 H 623.529 -3.39392 -3.46465 0
M  V30 6686 H 619.408 -2.29096 -4.00045 0
M  V30 6687 H 622.952 -5.74288 -3.96029 0
M  V30 6688 H 618.849 -4.63091 -4.49685 0
M  V30 6689 H 619.617 -6.69608 -4.7071 0
M  V30 6690 N 622.28 1.30327 -0.886154 0
M  V30 6691 C 623.227 2.28099 -0.352069 0
M  V30 6692 C 624.197 1.56433 0.558397 0
M  V30 6693 O 625.382 1.84492 0.486561 0
M  V30 6694 C 622.522 3.42456 0.426346 0
M  V30 6695 C 621.635 4.28938 -0.513472 0
M  V30 6696 C 620.77 5.30458 0.280657 0
M  V30 6697 C 619.809 6.0859 -0.654556 0
M  V30 6698 N 618.946 7.02022 0.104322 0
M  V30 6699 H 623.786 2.73166 -1.19097 0
M  V30 6700 H 621.323 1.34367 -0.598662 0
M  V30 6701 H 623.281 4.07518 0.893587 0
M  V30 6702 H 621.911 2.98455 1.22981 0
M  V30 6703 H 620.963 3.64173 -1.09921 0
M  V30 6704 H 622.275 4.83399 -1.2299 0
M  V30 6705 H 621.429 6.01273 0.8097 0
M  V30 6706 H 620.168 4.76693 1.03029 0
M  V30 6707 H 619.173 5.36651 -1.19522 0
M  V30 6708 H 620.398 6.64443 -1.4033 0
M  V30 6709 H 618.344 6.50645 0.836472 0
M  V30 6710 H 618.261 7.53979 -0.552453 0
M  V30 6711 H 619.529 7.77077 0.614069 0
M  V30 6712 N 623.758 0.647228 1.43697 0
M  V30 6713 C 625.004 0.158422 2.0218 0
M  V30 6714 C 625.337 -1.22233 1.50907 0
M  V30 6715 O 624.612 -1.81478 0.699702 0
M  V30 6716 C 624.895 0.1627 3.59732 0
M  V30 6717 C 624.748 1.57694 4.21251 0
M  V30 6718 C 626.067 -0.504138 4.37203 0
M  V30 6719 H 623.186 0.059042 0.734631 0
M  V30 6720 H 625.828 0.826772 1.71069 0
M  V30 6721 H 623.978 -0.406414 3.86368 0
M  V30 6722 H 625.65 2.19618 4.05667 0
M  V30 6723 H 623.893 2.12603 3.7813 0
M  V30 6724 H 624.564 1.53183 5.3032 0
M  V30 6725 H 627.04 -0.0199841 4.16095 0
M  V30 6726 H 625.916 -0.470394 5.46881 0
M  V30 6727 H 626.177 -1.57726 4.13007 0
M  V30 6728 N 625.236 -1.5273 0.388769 0
M  V30 6729 C 626.166 -2.29353 -0.438111 0
M  V30 6730 C 627.147 -1.32719 -1.06394 0
M  V30 6731 O 628.332 -1.61612 -1.07681 0
M  V30 6732 C 625.462 -3.09995 -1.56589 0
M  V30 6733 C 624.416 -4.14509 -1.06613 0
M  V30 6734 C 623.742 -4.83372 -2.28594 0
M  V30 6735 C 625.042 -5.22127 -0.134459 0
M  V30 6736 H 626.736 -2.98723 0.201206 0
M  V30 6737 H 624.282 -1.43665 0.0982089 0
M  V30 6738 H 626.235 -3.62357 -2.15118 0
M  V30 6739 H 624.959 -2.38357 -2.23279 0
M  V30 6740 H 623.618 -3.63128 -0.503383 0
M  V30 6741 H 623.266 -4.08283 -2.93792 0
M  V30 6742 H 622.966 -5.54012 -1.95817 0
M  V30 6743 H 624.49 -5.38538 -2.87766 0
M  V30 6744 H 625.904 -5.69851 -0.627914 0
M  V30 6745 H 624.301 -6.00011 0.103534 0
M  V30 6746 H 625.371 -4.77971 0.816798 0
M  V30 6747 N 626.714 -0.118576 -1.57153 0
M  V30 6748 C 627.942 0.54726 -1.99531 0
M  V30 6749 C 628.357 1.60251 -0.998246 0
M  V30 6750 O 627.714 1.82498 0.00893106 0
M  V30 6751 C 627.765 1.17378 -3.41913 0
M  V30 6752 O 627.486 0.160703 -4.37805 0
M  V30 6753 C 628.987 1.92297 -3.9942 0
M  V30 6754 H 626.207 0.144919 -0.655164 0
M  V30 6755 H 628.751 -0.20479 -2.03472 0
M  V30 6756 H 626.906 1.87661 -3.38913 0
M  V30 6757 H 627.32 0.61586 -5.20872 0
M  V30 6758 H 628.794 2.31462 -5.01128 0
M  V30 6759 H 629.271 2.79801 -3.38538 0
M  V30 6760 H 629.877 1.26777 -4.05965 0
M  V30 6761 N 628.193 1.56834 0.155195 0
M  V30 6762 C 629.609 1.51315 0.50755 0
M  V30 6763 C 629.809 0.825614 1.83809 0
M  V30 6764 O 628.865 0.39271 2.49427 0
M  V30 6765 C 630.178 2.96074 0.52542 0
M  V30 6766 C 631.726 3.06968 0.611505 0
M  V30 6767 C 632.201 4.53218 0.660115 0
M  V30 6768 N 633.692 4.5753 0.722564 0
M  V30 6769 C 634.427 5.68056 0.781023 0
M  V30 6770 N 633.923 6.88173 0.799327 0
M  V30 6771 N 635.716 5.56068 0.821278 0
M  V30 6772 H 627.867 1.9993 -0.717063 0
M  V30 6773 H 630.13 0.911507 -0.260496 0
M  V30 6774 H 629.836 3.49599 -0.383875 0
M  V30 6775 H 629.71 3.51587 1.36624 0
M  V30 6776 H 632.097 2.53468 1.51122 0
M  V30 6777 H 632.178 2.54513 -0.256306 0
M  V30 6778 H 631.822 5.07354 -0.23541 0
M  V30 6779 H 631.752 5.03447 1.5443 0
M  V30 6780 H 634.243 3.71054 0.716049 0
M  V30 6781 H 634.556 7.6816 0.845553 0
M  V30 6782 H 632.901 6.90751 0.767337 0
M  V30 6783 H 636.092 4.61142 0.804091 0
M  V30 6784 H 636.265 6.42223 0.863372 0
M  V30 6785 N 629.671 -0.424282 1.51781 0
M  V30 6786 C 630.619 -1.53649 1.74628 0
M  V30 6787 C 631.613 -1.57923 0.612922 0
M  V30 6788 O 632.819 -1.61511 0.794618 0
M  V30 6789 H 629.194 -0.510706 0.551981 0
M  V30 6790 H 631.165 -1.31558 2.67834 0
M  V30 6791 C 629.914 -2.91177 1.9003 0
M  V30 6792 H 629.237 -2.88625 2.76651 0
M  V30 6793 H 630.677 -3.6833 2.10021 0
M  V30 6794 C 629.136 -3.30303 0.663435 0
M  V30 6795 O 629.666 -4.01315 -0.175812 0
M  V30 6796 N 627.872 -2.86201 0.503723 0
M  V30 6797 H 627.419 -2.28583 1.18776 0
M  V30 6798 H 627.377 -3.12741 -0.322575 0
M  V30 6799 N 631.149 -1.42148 -0.680565 0
M  V30 6800 C 632.398 -1.41604 -1.43636 0
M  V30 6801 C 632.711 -0.0337887 -1.95571 0
M  V30 6802 O 633.917 0.0942588 -2.71336 0
M  V30 6803 C 632.373 -2.49056 -2.59806 0
M  V30 6804 C 631.981 -3.9326 -2.14594 0
M  V30 6805 C 633.725 -2.5767 -3.37352 0
M  V30 6806 C 631.632 -4.92232 -3.27813 0
M  V30 6807 H 630.562 -0.526656 -0.539583 0
M  V30 6808 H 633.213 -1.68033 -0.737369 0
M  V30 6809 H 631.595 -2.15782 -3.32045 0
M  V30 6810 H 632.769 -4.35858 -1.49546 0
M  V30 6811 H 631.084 -3.88443 -1.50002 0
M  V30 6812 H 633.681 -3.28794 -4.21662 0
M  V30 6813 H 634.024 -1.61837 -3.83555 0
M  V30 6814 H 634.557 -2.90109 -2.72179 0
M  V30 6815 H 631.296 -5.89522 -2.86607 0
M  V30 6816 H 630.816 -4.5427 -3.91661 0
M  V30 6817 H 632.495 -5.13684 -3.93367 0
M  V30 6818 N 632.627 0.916307 -1.28225 0
M  V30 6819 C 633.537 2.05165 -1.13775 0
M  V30 6820 C 634.553 1.73879 -0.0649418 0
M  V30 6821 O 635.729 1.99531 -0.273722 0
M  V30 6822 C 632.794 3.37385 -0.798267 0
M  V30 6823 C 631.855 3.82296 -1.95316 0
M  V30 6824 C 631.088 5.08206 -1.62978 0
M  V30 6825 O 631.311 5.6781 -0.542948 0
M  V30 6826 O 630.245 5.48768 -2.47261 0
M  V30 6827 H 634.071 2.20273 -2.09078 0
M  V30 6828 H 631.656 1.0373 -1.07519 0
M  V30 6829 H 633.538 4.16773 -0.62278 0
M  V30 6830 H 632.213 3.23458 0.125139 0
M  V30 6831 H 631.12 3.03746 -2.18378 0
M  V30 6832 H 632.453 4.00782 -2.85718 0
M  V30 6833 N 634.105 1.10431 1.1244 0
M  V30 6834 C 635.335 0.867612 1.87499 0
M  V30 6835 C 635.743 -0.585475 1.79913 0
M  V30 6836 O 635.086 -1.41539 1.171 0
M  V30 6837 C 635.148 1.2374 3.37533 0
M  V30 6838 C 634.812 2.69751 3.68895 0
M  V30 6839 C 635.809 3.67988 3.67261 0
M  V30 6840 C 633.494 3.06135 3.98229 0
M  V30 6841 C 635.488 5.00632 3.9452 0
M  V30 6842 C 633.175 4.38967 4.25149 0
M  V30 6843 C 634.173 5.36025 4.23281 0
M  V30 6844 O 633.861 6.66465 4.49533 0
M  V30 6845 H 633.593 0.311196 0.600111 0
M  V30 6846 H 636.147 1.47257 1.43194 0
M  V30 6847 H 634.377 0.575537 3.82393 0
M  V30 6848 H 636.066 0.978187 3.93937 0
M  V30 6849 H 636.832 3.41224 3.44661 0
M  V30 6850 H 632.711 2.31214 3.98825 0
M  V30 6851 H 636.255 5.7638 3.92978 0
M  V30 6852 H 632.152 4.6547 4.47223 0
M  V30 6853 H 632.92 6.72095 4.67152 0
M  V30 6854 N 635.583 -1.29855 0.893053 0
M  V30 6855 C 636.832 -1.95104 0.511597 0
M  V30 6856 C 637.145 -1.71226 -0.945567 0
M  V30 6857 O 638.351 -2.30525 -1.43424 0
M  V30 6858 C 636.807 -3.49374 0.864034 0
M  V30 6859 C 636.415 -3.82061 2.33952 0
M  V30 6860 C 638.159 -4.20894 0.552167 0
M  V30 6861 C 636.066 -5.29546 2.63316 0
M  V30 6862 H 634.996 -0.73029 0.187597 0
M  V30 6863 H 637.647 -1.47682 1.08914 0
M  V30 6864 H 636.029 -3.95413 0.215493 0
M  V30 6865 H 637.203 -3.46904 3.03305 0
M  V30 6866 H 635.518 -3.23665 2.61973 0
M  V30 6867 H 638.115 -5.29435 0.748489 0
M  V30 6868 H 638.458 -4.13178 -0.508924 0
M  V30 6869 H 638.991 -3.80564 1.15825 0
M  V30 6870 H 635.73 -5.4232 3.68197 0
M  V30 6871 H 635.25 -5.65974 1.9858 0
M  V30 6872 H 636.929 -5.97068 2.49236 0
M  V30 6873 N 637.061 -0.65484 -1.43351 0
M  V30 6874 C 638.024 0.0263562 -2.29185 0
M  V30 6875 C 639.024 0.748951 -1.42293 0
M  V30 6876 O 640.214 0.589957 -1.63906 0
M  V30 6877 C 637.346 1.04806 -3.2439 0
M  V30 6878 H 638.539 -0.728883 -2.90908 0
M  V30 6879 H 636.092 -0.416149 -1.50658 0
M  V30 6880 H 636.827 1.83247 -2.67565 0
M  V30 6881 H 636.612 0.533554 -3.88453 0
M  V30 6882 H 638.102 1.52372 -3.88809 0
M  V30 6883 N 638.539 1.52521 -0.396863 0
M  V30 6884 C 639.486 2.26671 0.434624 0
M  V30 6885 C 640.456 1.28584 1.05144 0
M  V30 6886 O 641.641 1.57426 1.07804 0
M  V30 6887 C 638.781 3.08234 1.55196 0
M  V30 6888 C 637.894 4.21261 0.957262 0
M  V30 6889 C 637.029 4.90205 2.04627 0
M  V30 6890 C 636.068 5.95213 1.42787 0
M  V30 6891 N 635.205 6.57723 2.45651 0
M  V30 6892 H 640.045 2.973 -0.204139 0
M  V30 6893 H 637.582 1.46669 -0.112505 0
M  V30 6894 H 639.54 3.53819 2.2106 0
M  V30 6895 H 638.17 2.398 2.16092 0
M  V30 6896 H 637.222 3.79935 0.188005 0
M  V30 6897 H 638.534 4.96624 0.465416 0
M  V30 6898 H 637.688 5.39133 2.78246 0
M  V30 6899 H 636.427 4.14383 2.57174 0
M  V30 6900 H 635.432 5.45616 0.676968 0
M  V30 6901 H 636.657 6.72972 0.910255 0
M  V30 6902 H 634.603 5.84737 2.97353 0
M  V30 6903 H 634.52 7.28723 2.01243 0
M  V30 6904 H 635.788 7.11293 3.18876 0
M  V30 6905 N 640.017 0.126909 1.57088 0
M  V30 6906 C 641.257 -0.53216 1.97351 0
M  V30 6907 C 641.621 -1.63342 1.00913 0
M  V30 6908 O 642.822 -2.35194 1.30144 0
M  V30 6909 C 641.093 -1.04385 3.41817 0
M  V30 6910 S 642.652 -1.71033 4.04095 0
M  V30 6911 H 639.47 -0.172724 0.689701 0
M  V30 6912 H 642.072 0.213865 1.94327 0
M  V30 6913 H 640.776 -0.231289 4.09748 0
M  V30 6914 H 640.307 -1.82496 3.48509 0
M  V30 6915 H 642.322 -2.99656 3.95501 0
M  V30 6916 N 641.495 -1.56914 -0.146875 0
M  V30 6917 C 642.425 -2.01308 -1.1831 0
M  V30 6918 C 643.406 -0.892664 -1.44795 0
M  V30 6919 O 644.591 -1.16048 -1.55713 0
M  V30 6920 C 641.721 -2.3938 -2.51624 0
M  V30 6921 C 640.675 -3.54608 -2.3966 0
M  V30 6922 C 640.001 -3.78493 -3.77686 0
M  V30 6923 C 641.301 -4.87269 -1.88058 0
M  V30 6924 H 642.995 -2.88123 -0.813964 0
M  V30 6925 H 640.541 -1.38615 -0.3901 0
M  V30 6926 H 642.494 -2.69037 -3.24341 0
M  V30 6927 H 641.218 -1.49502 -2.90373 0
M  V30 6928 H 639.877 -3.25116 -1.69396 0
M  V30 6929 H 639.525 -2.85866 -4.13871 0
M  V30 6930 H 639.225 -4.56039 -3.70543 0
M  V30 6931 H 640.749 -4.10576 -4.51951 0
M  V30 6932 H 642.163 -5.15644 -2.50568 0
M  V30 6933 H 640.56 -5.68622 -1.91805 0
M  V30 6934 H 641.63 -4.77634 -0.836277 0
M  V30 6935 N 642.974 0.416227 -1.52004 0
M  V30 6936 C 643.921 1.50666 -1.74838 0
M  V30 6937 C 644.891 1.55245 -0.590599 0
M  V30 6938 O 646.076 1.71928 -0.827374 0
M  V30 6939 C 643.216 2.88185 -1.89851 0
M  V30 6940 C 642.329 2.92971 -3.17478 0
M  V30 6941 C 641.464 4.21745 -3.22962 0
M  V30 6942 C 640.503 4.20478 -4.4482 0
M  V30 6943 N 639.64 5.40811 -4.47736 0
M  V30 6944 H 644.48 1.30498 -2.67907 0
M  V30 6945 H 642.017 0.633568 -1.32757 0
M  V30 6946 H 643.975 3.68007 -1.96537 0
M  V30 6947 H 642.605 3.06865 -1.00169 0
M  V30 6948 H 641.657 2.05684 -3.19997 0
M  V30 6949 H 642.969 2.87899 -4.07328 0
M  V30 6950 H 642.123 5.09954 -3.28682 0
M  V30 6951 H 640.862 4.29503 -2.31038 0
M  V30 6952 H 639.867 3.30659 -4.39254 0
M  V30 6953 H 641.092 4.14366 -5.38031 0
M  V30 6954 H 639.038 5.4925 -3.58692 0
M  V30 6955 H 638.955 5.37705 -5.31422 0
M  V30 6956 H 640.223 6.30993 -4.57676 0
M  V30 6957 N 644.452 1.42507 0.673017 0
M  V30 6958 C 645.729 1.33554 1.42908 0
M  V30 6959 C 646.109 -0.0262211 2.11084 0
M  V30 6960 O 645.457 -1.04181 2.03368 0
M  V30 6961 C 645.667 2.50498 2.43006 0
M  V30 6962 C 647.015 2.92694 3.07596 0
M  V30 6963 O 648.039 2.50401 2.53333 0
M  V30 6964 O 646.898 3.65899 4.05931 0
M  V30 6965 H 643.992 0.526785 0.637516 0
M  V30 6966 H 646.538 1.54518 0.701591 0
M  V30 6967 H 645.31 3.41272 1.9144 0
M  V30 6968 H 644.933 2.3153 3.23233 0
M  V30 6969 N 645.93 -0.909495 1.28709 0
M  V30 6970 C 646.88 -1.9991 1.09636 0
M  V30 6971 C 647.864 -1.60889 0.01872 0
M  V30 6972 O 649.056 -1.75374 0.239338 0
M  V30 6973 C 646.185 -3.34675 0.764702 0
M  V30 6974 C 645.271 -3.80085 1.8814 0
M  V30 6975 N 645.662 -3.97824 3.12361 0
M  V30 6976 C 643.96 -4.09278 1.77221 0
M  V30 6977 C 644.661 -4.35928 3.85151 0
M  V30 6978 N 643.637 -4.44426 3.13028 0
M  V30 6979 H 647.439 -2.11681 2.03883 0
M  V30 6980 H 644.953 -1.09763 1.1969 0
M  V30 6981 H 646.95 -4.12426 0.609132 0
M  V30 6982 H 645.61 -3.24255 -0.169952 0
M  V30 6983 H 646.621 -3.83626 3.47925 0
M  V30 6984 H 643.298 -4.0747 0.909621 0
M  V30 6985 H 644.688 -4.57581 4.92006 0
M  V30 6986 N 647.408 -1.11026 -1.11852 0
M  V30 6987 C 648.355 -0.764662 -2.17765 0
M  V30 6988 C 649.325 0.261854 -1.64023 0
M  V30 6989 O 650.51 0.139748 -1.90288 0
M  V30 6990 C 647.65 -0.209317 -3.44465 0
M  V30 6991 C 646.763 -1.29187 -4.12231 0
M  V30 6992 C 645.898 -0.697523 -5.266 0
M  V30 6993 C 644.937 -1.76023 -5.86244 0
M  V30 6994 N 644.074 -1.18569 -6.92016 0
M  V30 6995 H 648.914 -1.67202 -2.46673 0
M  V30 6996 H 646.451 -0.835065 -1.21099 0
M  V30 6997 H 648.409 0.130599 -4.16996 0
M  V30 6998 H 647.039 0.661251 -3.15955 0
M  V30 6999 H 646.091 -1.74881 -3.37818 0
M  V30 7000 H 647.403 -2.09607 -4.52622 0
M  V30 7001 H 646.557 -0.307412 -6.05921 0
M  V30 7002 H 645.296 0.138044 -4.87505 0
M  V30 7003 H 644.301 -2.1597 -5.05606 0
M  V30 7004 H 645.526 -2.59875 -6.27409 0
M  V30 7005 H 643.472 -0.371695 -6.54946 0
M  V30 7006 H 643.389 -1.92666 -7.31038 0
M  V30 7007 H 644.657 -0.82233 -7.7515 0
M  V30 7008 N 648.886 1.2938 -0.899927 0
M  V30 7009 C 649.849 2.25983 -0.382677 0
M  V30 7010 C 650.849 1.53366 0.483259 0
M  V30 7011 O 652.039 1.71798 0.28828 0
M  V30 7012 C 649.171 3.37878 0.452915 0
M  V30 7013 H 650.364 2.73252 -1.23586 0
M  V30 7014 H 647.917 1.40825 -0.678088 0
M  V30 7015 H 648.652 2.95949 1.32608 0
M  V30 7016 H 648.437 3.91742 -0.167562 0
M  V30 7017 H 649.927 4.09746 0.806107 0
M  V30 7018 N 650.364 0.662433 1.43002 0
M  V30 7019 C 651.592 0.187615 2.06048 0
M  V30 7020 C 652.007 -1.15039 1.49705 0
M  V30 7021 O 651.364 -1.71209 0.631956 0
M  V30 7022 C 651.415 0.100498 3.6136 0
M  V30 7023 O 651.136 1.38562 4.15611 0
M  V30 7024 C 652.637 -0.399298 4.41498 0
M  V30 7025 H 649.857 0.0941675 0.664359 0
M  V30 7026 H 652.401 0.905681 1.83351 0
M  V30 7027 H 650.556 -0.568181 3.83211 0
M  V30 7028 H 650.97 1.25084 5.09366 0
M  V30 7029 H 652.444 -0.409187 5.50481 0
M  V30 7030 H 652.921 -1.43232 4.15188 0
M  V30 7031 H 653.527 0.23721 4.24638 0
M  V30 7032 N 651.842 -1.52309 0.404946 0
M  V30 7033 C 652.79 -2.28452 -0.437321 0
M  V30 7034 C 653.784 -1.32975 -1.04948 0
M  V30 7035 O 654.99 -1.50451 -0.988159 0
M  V30 7036 H 651.365 -0.734824 -0.159805 0
M  V30 7037 H 653.336 -2.97542 0.22615 0
M  V30 7038 C 652.085 -3.11536 -1.54404 0
M  V30 7039 H 651.408 -3.84871 -1.08233 0
M  V30 7040 H 652.848 -3.67926 -2.10729 0
M  V30 7041 C 651.307 -2.24833 -2.50902 0
M  V30 7042 O 651.837 -1.88574 -3.54687 0
M  V30 7043 N 650.043 -1.88685 -2.21012 0
M  V30 7044 H 649.59 -2.18371 -1.36646 0
M  V30 7045 H 649.548 -1.30966 -2.85824 0
M  V30 7046 N 653.32 -0.135238 -1.57019 0
M  V30 7047 C 654.545 0.529343 -2.00531 0
M  V30 7048 C 654.97 1.58391 -1.01459 0
M  V30 7049 O 654.328 1.81296 0.0113986 0
M  V30 7050 C 654.376 1.11748 -3.42848 0
M  V30 7051 O 653.48 2.23267 -3.46736 0
M  V30 7052 H 652.821 0.130669 -0.651016 0
M  V30 7053 H 655.351 -0.228503 -2.0332 0
M  V30 7054 H 655.361 1.44905 -3.81401 0
M  V30 7055 H 654.036 0.345147 -4.14465 0
M  V30 7056 H 652.613 1.91428 -3.20015 0
M  V30 7057 N 654.798 1.5699 0.138552 0
M  V30 7058 C 655.745 1.98899 1.17081 0
M  V30 7059 C 656.715 0.857922 1.42228 0
M  V30 7060 O 657.9 1.12065 1.54422 0
M  V30 7061 C 655.04 2.38189 2.4972 0
M  V30 7062 C 654.153 3.64624 2.31674 0
M  V30 7063 C 653.288 3.9298 3.57407 0
M  V30 7064 C 652.327 5.1266 3.34435 0
M  V30 7065 N 651.464 5.36983 4.5232 0
M  V30 7066 H 656.304 2.86881 0.80642 0
M  V30 7067 H 653.841 1.41925 0.386727 0
M  V30 7068 H 655.799 2.59 3.2707 0
M  V30 7069 H 654.429 1.53275 2.84089 0
M  V30 7070 H 653.481 3.51542 1.45337 0
M  V30 7071 H 654.793 4.52131 2.10664 0
M  V30 7072 H 653.947 4.14335 4.43183 0
M  V30 7073 H 652.686 3.03912 3.8143 0
M  V30 7074 H 651.691 4.9117 2.47048 0
M  V30 7075 H 652.916 6.03288 3.11802 0
M  V30 7076 H 650.862 4.50871 4.76499 0
M  V30 7077 H 650.779 6.18775 4.34343 0
M  V30 7078 H 652.047 5.62842 5.39285 0
M  V30 7079 N 656.276 -0.40816 1.52223 0
M  V30 7080 C 657.524 -1.15274 1.66001 0
M  V30 7081 C 657.845 -1.91003 0.392803 0
M  V30 7082 O 657.115 -1.8673 -0.592336 0
M  V30 7083 H 655.695 -0.428526 0.611861 0
M  V30 7084 H 658.357 -0.46512 1.89269 0
M  V30 7085 H 657.453 -1.86628 2.50153 0
M  V30 7086 N 657.755 -1.42862 -0.66545 0
M  V30 7087 C 658.98 -1.47456 -1.45848 0
M  V30 7088 C 659.405 -0.0900312 -1.87884 0
M  V30 7089 O 658.763 0.913587 -1.56599 0
M  V30 7090 C 658.811 -2.41514 -2.67774 0
M  V30 7091 O 657.915 -1.89296 -3.66389 0
M  V30 7092 H 657.256 -0.499236 -0.437789 0
M  V30 7093 H 659.786 -1.8765 -0.815394 0
M  V30 7094 H 659.796 -2.58409 -3.15735 0
M  V30 7095 H 658.471 -3.42099 -2.36519 0
M  V30 7096 H 657.048 -1.82003 -3.25468 0
M  V30 7097 N 659.233 0.902656 -1.29189 0
M  V30 7098 C 660.143 2.03946 -1.15944 0
M  V30 7099 C 661.159 1.738 -0.0833803 0
M  V30 7100 O 662.335 1.9923 -0.29487 0
M  V30 7101 C 659.4 3.36519 -0.834006 0
M  V30 7102 C 658.461 3.80203 -1.9936 0
M  V30 7103 C 657.694 5.06449 -1.68359 0
M  V30 7104 O 657.917 5.67202 -0.603141 0
M  V30 7105 O 656.851 5.46114 -2.53067 0
M  V30 7106 H 660.677 2.18043 -2.11403 0
M  V30 7107 H 658.262 1.02584 -1.08613 0
M  V30 7108 H 660.144 4.16089 -0.666949 0
M  V30 7109 H 658.819 3.23573 0.0908245 0
M  V30 7110 H 657.726 3.01413 -2.21588 0
M  V30 7111 H 659.059 3.97729 -2.89952 0
M  V30 7112 N 660.711 1.11618 1.11262 0
M  V30 7113 C 661.957 0.877377 1.83504 0
M  V30 7114 C 662.312 -0.590606 1.83111 0
M  V30 7115 O 661.605 -1.43057 1.27456 0
M  V30 7116 C 661.799 1.37529 3.2988 0
M  V30 7117 C 661.628 2.89014 3.4453 0
M  V30 7118 C 660.398 3.57157 3.57445 0
M  V30 7119 C 662.596 3.8706 3.38658 0
M  V30 7120 N 660.578 4.96842 3.60585 0
M  V30 7121 C 661.949 5.12825 3.4844 0
M  V30 7122 C 664.004 3.79593 3.22201 0
M  V30 7123 C 662.707 6.32002 3.43462 0
M  V30 7124 C 664.733 4.98282 3.18542 0
M  V30 7125 C 664.095 6.22901 3.28897 0
M  V30 7126 H 660.194 0.37422 0.686646 0
M  V30 7127 H 662.778 1.42087 1.33114 0
M  V30 7128 H 660.949 0.85895 3.78783 0
M  V30 7129 H 662.681 1.07944 3.90039 0
M  V30 7130 H 659.436 3.07628 3.60086 0
M  V30 7131 H 659.86 5.69674 3.65788 0
M  V30 7132 H 664.502 2.84149 3.1308 0
M  V30 7133 H 662.22 7.27721 3.51352 0
M  V30 7134 H 665.806 4.94226 3.06972 0
M  V30 7135 H 664.686 7.13202 3.26056 0
M  V30 7136 N 662.189 -1.289 0.906776 0
M  V30 7137 C 663.136 -2.2751 0.388313 0
M  V30 7138 C 664.106 -1.57301 -0.533439 0
M  V30 7139 O 665.291 -1.85243 -0.457148 0
M  V30 7140 C 662.431 -3.43091 -0.37181 0
M  V30 7141 C 661.544 -4.28066 0.581647 0
M  V30 7142 C 660.679 -5.30837 -0.19623 0
M  V30 7143 C 659.718 -6.07472 0.751294 0
M  V30 7144 N 658.855 -7.021 0.00737727 0
M  V30 7145 H 663.695 -2.71237 1.23428 0
M  V30 7146 H 661.232 -1.33397 0.619962 0
M  V30 7147 H 663.19 -4.08888 -0.828641 0
M  V30 7148 H 661.82 -3.00374 -1.18218 0
M  V30 7149 H 660.872 -3.62378 1.157 0
M  V30 7150 H 662.184 -4.81382 1.30665 0
M  V30 7151 H 661.338 -6.02485 -0.71394 0
M  V30 7152 H 660.077 -4.78272 -0.954324 0
M  V30 7153 H 659.082 -5.34682 1.28044 0
M  V30 7154 H 660.307 -6.62126 1.50883 0
M  V30 7155 H 658.253 -6.51894 -0.732854 0
M  V30 7156 H 658.17 -7.53004 0.672334 0
M  V30 7157 H 659.438 -7.77956 -0.490365 0
M  V30 7158 N 663.667 -0.670007 -1.42649 0
M  V30 7159 C 664.614 0.0112928 -2.30797 0
M  V30 7160 C 665.584 0.797627 -1.45695 0
M  V30 7161 O 666.769 0.770845 -1.74535 0
M  V30 7162 C 663.909 0.95998 -3.31479 0
M  V30 7163 C 663.022 0.167975 -4.31673 0
M  V30 7164 C 662.157 1.11198 -5.19431 0
M  V30 7165 C 661.196 0.311381 -6.11307 0
M  V30 7166 N 660.333 1.20784 -6.91633 0
M  V30 7167 H 665.173 -0.746231 -2.88505 0
M  V30 7168 H 662.71 -0.379739 -1.42114 0
M  V30 7169 H 664.668 1.52379 -3.88377 0
M  V30 7170 H 663.298 1.68419 -2.75382 0
M  V30 7171 H 662.35 -0.512385 -3.76933 0
M  V30 7172 H 663.662 -0.453814 -4.96731 0
M  V30 7173 H 662.816 1.74587 -5.81037 0
M  V30 7174 H 661.555 1.76766 -4.54538 0
M  V30 7175 H 660.56 -0.335758 -5.48774 0
M  V30 7176 H 661.785 -0.340135 -6.78248 0
M  V30 7177 H 659.731 1.85001 -6.29373 0
M  V30 7178 H 659.648 0.64102 -7.53277 0
M  V30 7179 H 660.916 1.82936 -7.5773 0
M  V30 7180 N 665.145 1.52092 -0.413018 0
M  V30 7181 C 666.391 2.02154 0.161737 0
M  V30 7182 C 666.724 1.29789 1.44459 0
M  V30 7183 O 665.999 0.405378 1.90229 0
M  V30 7184 C 666.282 3.5781 0.405463 0
M  V30 7185 C 666.135 4.40819 -0.894335 0
M  V30 7186 C 667.454 4.23821 1.18591 0
M  V30 7187 H 664.573 0.734769 0.0573077 0
M  V30 7188 H 667.215 1.81948 -0.547247 0
M  V30 7189 H 665.365 3.75158 1.0094 0
M  V30 7190 H 667.037 4.35175 -1.53039 0
M  V30 7191 H 665.28 4.06877 -1.50444 0
M  V30 7192 H 665.951 5.47819 -0.678144 0
M  V30 7193 H 668.427 4.10596 0.674573 0
M  V30 7194 H 667.303 5.32663 1.3252 0
M  V30 7195 H 667.564 3.83038 2.20758 0
M  V30 7196 N 666.623 0.143563 1.56945 0
M  V30 7197 C 667.586 -0.783295 2.154 0
M  V30 7198 C 668.586 -1.17763 1.09492 0
M  V30 7199 O 669.776 -1.09912 1.35148 0
M  V30 7200 C 666.908 -2.06248 2.7143 0
M  V30 7201 H 668.101 -0.274863 2.98638 0
M  V30 7202 H 665.654 -0.105859 1.55941 0
M  V30 7203 H 666.389 -2.61466 1.91849 0
M  V30 7204 H 666.174 -1.78897 3.4891 0
M  V30 7205 H 667.664 -2.72453 3.16479 0
M  V30 7206 N 668.101 -1.57061 -0.130224 0
M  V30 7207 C 669.048 -1.99517 -1.16024 0
M  V30 7208 C 670.018 -0.865452 -1.41771 0
M  V30 7209 O 671.203 -1.12882 -1.53826 0
M  V30 7210 C 668.343 -2.3951 -2.48453 0
M  V30 7211 C 667.456 -3.65848 -2.29737 0
M  V30 7212 C 666.591 -3.9487 -3.55318 0
M  V30 7213 C 665.63 -5.14426 -3.31711 0
M  V30 7214 N 664.767 -5.39375 -4.49466 0
M  V30 7215 H 669.607 -2.87305 -0.791194 0
M  V30 7216 H 667.144 -1.42129 -0.379195 0
M  V30 7217 H 669.102 -2.60731 -3.25692 0
M  V30 7218 H 667.732 -1.54779 -2.83272 0
M  V30 7219 H 666.784 -3.52307 -1.4347 0
M  V30 7220 H 668.096 -4.53241 -2.08263 0
M  V30 7221 H 667.25 -4.16679 -4.4098 0
M  V30 7222 H 665.989 -3.05931 -3.79813 0
M  V30 7223 H 664.994 -4.92473 -2.44439 0
M  V30 7224 H 666.219 -6.04933 -3.08598 0
M  V30 7225 H 664.165 -4.53391 -4.74102 0
M  V30 7226 H 664.082 -6.21069 -4.31055 0
M  V30 7227 H 665.35 -5.65694 -5.36293 0
M  V30 7228 N 669.579 0.400081 -1.52437 0
M  V30 7229 C 670.825 1.14788 -1.67187 0
M  V30 7230 C 671.158 1.89928 -0.405074 0
M  V30 7231 O 670.433 1.85118 0.596804 0
M  V30 7232 C 670.716 2.13507 -2.89977 0
M  V30 7233 C 670.569 1.42204 -4.2673 0
M  V30 7234 C 671.888 3.14069 -3.083 0
M  V30 7235 H 669.007 0.415939 -0.608411 0
M  V30 7236 H 671.649 0.432542 -1.85011 0
M  V30 7237 H 669.799 2.7451 -2.74912 0
M  V30 7238 H 671.471 0.842503 -4.53541 0
M  V30 7239 H 669.714 0.723939 -4.27717 0
M  V30 7240 H 670.385 2.14281 -5.08712 0
M  V30 7241 H 672.861 2.63148 -3.22323 0
M  V30 7242 H 671.737 3.80398 -3.95713 0
M  V30 7243 H 671.998 3.82309 -2.22018 0
M  V30 7244 N 671.057 1.43213 0.657864 0
M  V30 7245 C 672.306 1.43871 1.41365 0
M  V30 7246 C 672.619 0.064898 1.95492 0
M  V30 7247 O 673.825 -0.0510796 2.71452 0
M  V30 7248 C 672.281 2.53158 2.55811 0
M  V30 7249 C 671.889 3.96624 2.08311 0
M  V30 7250 C 673.633 2.63004 3.3321 0
M  V30 7251 C 671.54 4.97385 3.1994 0
M  V30 7252 H 670.47 0.535174 0.531136 0
M  V30 7253 H 673.121 1.69185 0.710543 0
M  V30 7254 H 671.503 2.21037 3.2857 0
M  V30 7255 H 672.677 4.38182 1.42593 0
M  V30 7256 H 670.992 3.90781 1.43804 0
M  V30 7257 H 673.589 3.3546 4.16378 0
M  V30 7258 H 673.932 1.67918 3.80932 0
M  V30 7259 H 674.465 2.94403 2.67529 0
M  V30 7260 H 671.204 5.94007 2.77192 0
M  V30 7261 H 670.724 4.60444 3.84385 0
M  V30 7262 H 672.403 5.19877 3.85145 0
M  V30 7263 N 672.536 -0.895792 1.29666 0
M  V30 7264 C 673.813 -1.62723 1.08538 0
M  V30 7265 C 674.193 -2.07848 -0.369119 0
M  V30 7266 O 673.541 -1.8372 -1.35864 0
M  V30 7267 C 673.751 -2.80505 2.07648 0
M  V30 7268 C 675.099 -3.51098 2.3878 0
M  V30 7269 O 676.123 -2.90679 2.05874 0
M  V30 7270 O 674.982 -4.60028 2.9502 0
M  V30 7271 H 672.076 -0.714692 0.416106 0
M  V30 7272 H 674.622 -0.943517 1.41053 0
M  V30 7273 H 673.394 -2.44386 3.05599 0
M  V30 7274 H 673.017 -3.5658 1.75887 0
M  V30 7275 N 674.014 -1.12206 -1.10668 0
M  V30 7276 C 675.43 -0.857619 -1.346 0
M  V30 7277 C 675.63 0.513542 -1.94846 0
M  V30 7278 O 674.686 1.26273 -2.18658 0
M  V30 7279 C 675.999 -1.97212 -2.26998 0
M  V30 7280 C 677.547 -2.00272 -2.40542 0
M  V30 7281 C 678.022 -3.10948 -3.36267 0
M  V30 7282 N 679.513 -3.10375 -3.43834 0
M  V30 7283 C 680.248 -3.92651 -4.17867 0
M  V30 7284 N 679.744 -4.84911 -4.94807 0
M  V30 7285 N 681.537 -3.80798 -4.1346 0
M  V30 7286 H 673.688 -2.00558 -0.699306 0
M  V30 7287 H 675.951 -0.872612 -0.370477 0
M  V30 7288 H 675.657 -2.96002 -1.89936 0
M  V30 7289 H 675.531 -1.87521 -3.27286 0
M  V30 7290 H 677.918 -1.02103 -2.76874 0
M  V30 7291 H 677.999 -2.14037 -1.40077 0
M  V30 7292 H 677.643 -4.09348 -3.00661 0
M  V30 7293 H 677.573 -2.94421 -4.36605 0
M  V30 7294 H 680.064 -2.43536 -2.88961 0
M  V30 7295 H 680.377 -5.44207 -5.48688 0
M  V30 7296 H 678.722 -4.88926 -4.93939 0
M  V30 7297 H 681.913 -3.08058 -3.52445 0
M  V30 7298 H 682.086 -4.4515 -4.70898 0
M  V30 7299 N 675.492 1.28418 -0.913599 0
M  V30 7300 C 676.739 1.94981 -0.546674 0
M  V30 7301 C 677.067 1.7192 0.909606 0
M  V30 7302 O 676.322 1.03314 1.66207 0
M  V30 7303 C 676.621 3.48283 -0.802099 0
M  V30 7304 C 676.287 3.91444 -2.2379 0
M  V30 7305 C 674.949 4.02939 -2.63046 0
M  V30 7306 C 677.301 4.13542 -3.17227 0
M  V30 7307 C 674.629 4.3391 -3.94891 0
M  V30 7308 C 676.981 4.45992 -4.48636 0
M  V30 7309 C 675.645 4.55698 -4.87746 0
M  V30 7310 H 674.915 0.713487 -0.200042 0
M  V30 7311 H 677.562 1.52756 -1.15489 0
M  V30 7312 H 675.867 3.91643 -0.111076 0
M  V30 7313 H 677.564 3.97903 -0.497375 0
M  V30 7314 H 674.154 3.83024 -1.9233 0
M  V30 7315 H 678.338 4.04114 -2.88107 0
M  V30 7316 H 673.594 4.39631 -4.24894 0
M  V30 7317 H 677.768 4.62038 -5.21051 0
M  V30 7318 H 675.395 4.79451 -5.89942 0
M  V30 7319 N 676.97 0.677563 1.42291 0
M  V30 7320 C 678.217 0.200975 2.015 0
M  V30 7321 C 678.545 -1.19342 1.53583 0
M  V30 7322 O 677.8 -1.81579 0.7299 0
M  V30 7323 C 678.099 0.187229 3.56909 0
M  V30 7324 C 677.765 1.52667 4.24268 0
M  V30 7325 C 676.427 1.89341 4.42384 0
M  V30 7326 C 678.779 2.40869 4.62203 0
M  V30 7327 C 676.107 3.13836 4.95705 0
M  V30 7328 C 678.459 3.64679 5.16906 0
M  V30 7329 C 677.123 4.01519 5.33234 0
M  V30 7330 H 676.393 0.0735418 0.737342 0
M  V30 7331 H 679.04 0.873095 1.70439 0
M  V30 7332 H 677.345 -0.568407 3.87655 0
M  V30 7333 H 679.042 -0.198773 4.00507 0
M  V30 7334 H 675.632 1.23138 4.1053 0
M  V30 7335 H 679.816 2.1382 4.47878 0
M  V30 7336 H 675.072 3.42396 5.06532 0
M  V30 7337 H 679.246 4.33224 5.45243 0
M  V30 7338 H 676.873 4.98062 5.74316 0
M  V30 7339 N 678.448 -1.51871 0.421078 0
M  V30 7340 C 679.381 -2.23851 -0.443369 0
M  V30 7341 C 680.359 -1.25142 -1.03818 0
M  V30 7342 O 681.543 -1.5423 -1.08377 0
M  V30 7343 C 678.67 -2.97637 -1.61648 0
M  V30 7344 C 677.716 -4.10873 -1.14391 0
M  V30 7345 S 678.549 -5.35408 -0.0992403 0
M  V30 7346 C 679.705 -6.12726 -1.27739 0
M  V30 7347 H 679.938 -2.96826 0.167786 0
M  V30 7348 H 677.471 -1.53027 0.205461 0
M  V30 7349 H 679.429 -3.40751 -2.28909 0
M  V30 7350 H 678.09 -2.24282 -2.199 0
M  V30 7351 H 677.283 -4.61718 -2.02069 0
M  V30 7352 H 676.885 -3.69937 -0.549775 0
M  V30 7353 H 679.177 -6.40827 -2.19881 0
M  V30 7354 H 680.12 -7.03461 -0.809239 0
M  V30 7355 H 680.528 -5.43968 -1.5086 0
M  V30 7356 N 679.926 -0.151884 -1.56866 0
M  V30 7357 C 681.172 0.492327 -1.97352 0
M  V30 7358 C 681.527 1.62156 -1.03553 0
M  V30 7359 O 680.82 1.91467 -0.0714872 0
M  V30 7360 C 681.014 1.04074 -3.41911 0
M  V30 7361 C 680.843 -0.0338306 -4.49687 0
M  V30 7362 C 679.613 -0.476914 -5.03044 0
M  V30 7363 C 681.811 -0.827105 -5.07606 0
M  V30 7364 N 679.793 -1.53382 -5.9443 0
M  V30 7365 C 681.164 -1.73439 -5.95247 0
M  V30 7366 C 683.219 -0.874351 -4.90163 0
M  V30 7367 C 681.922 -2.68488 -6.67313 0
M  V30 7368 C 683.948 -1.81269 -5.62935 0
M  V30 7369 C 683.31 -2.70749 -6.50288 0
M  V30 7370 H 679.409 0.148822 -0.767708 0
M  V30 7371 H 681.993 -0.247615 -1.93119 0
M  V30 7372 H 680.164 1.75027 -3.46728 0
M  V30 7373 H 681.896 1.65197 -3.69448 0
M  V30 7374 H 678.651 -0.0782493 -4.73535 0
M  V30 7375 H 679.075 -2.06217 -6.44828 0
M  V30 7376 H 683.717 -0.196628 -4.22343 0
M  V30 7377 H 681.435 -3.37257 -7.34359 0
M  V30 7378 H 685.021 -1.85511 -5.51432 0
M  V30 7379 H 683.901 -3.42175 -7.0561 0
M  V30 7380 N 681.404 1.57128 0.121893 0
M  V30 7381 C 682.653 1.83888 0.828748 0
M  V30 7382 C 682.966 0.737087 1.81181 0
M  V30 7383 O 684.172 0.891007 2.56463 0
M  V30 7384 C 682.628 3.26014 1.52455 0
M  V30 7385 C 682.236 4.44195 0.58263 0
M  V30 7386 C 683.98 3.62025 2.21671 0
M  V30 7387 C 681.887 5.77349 1.28149 0
M  V30 7388 H 680.817 0.685856 0.313238 0
M  V30 7389 H 683.468 1.83319 0.0814851 0
M  V30 7390 H 681.85 3.21044 2.31834 0
M  V30 7391 H 683.024 4.60457 -0.177729 0
M  V30 7392 H 681.339 4.164 -0.00241228 0
M  V30 7393 H 683.936 4.58776 2.74643 0
M  V30 7394 H 684.279 2.89315 2.99337 0
M  V30 7395 H 684.812 3.68767 1.49184 0
M  V30 7396 H 681.551 6.53221 0.546189 0
M  V30 7397 H 681.071 5.64978 2.01394 0
M  V30 7398 H 682.75 6.21006 1.81549 0
M  V30 7399 N 682.882 -0.391992 1.52647 0
M  V30 7400 C 684.129 -1.13732 1.67545 0
M  V30 7401 C 684.457 -1.90045 0.413881 0
M  V30 7402 O 683.712 -1.86157 -0.603646 0
M  V30 7403 C 684.011 -2.14401 2.85949 0
M  V30 7404 C 683.677 -1.54767 4.23507 0
M  V30 7405 C 682.339 -1.38229 4.60919 0
M  V30 7406 C 684.691 -1.11382 5.0916 0
M  V30 7407 C 682.019 -0.7685 5.81645 0
M  V30 7408 C 684.371 -0.514143 6.30507 0
M  V30 7409 C 683.035 -0.33604 6.66654 0
M  V30 7410 H 682.305 -0.416174 0.613091 0
M  V30 7411 H 684.952 -0.422327 1.86785 0
M  V30 7412 H 683.257 -2.92108 2.61114 0
M  V30 7413 H 684.954 -2.71974 2.94671 0
M  V30 7414 H 681.544 -1.68626 3.94035 0
M  V30 7415 H 685.728 -1.22962 4.80826 0
M  V30 7416 H 680.984 -0.618681 6.08262 0
M  V30 7417 H 685.158 -0.169657 6.96193 0
M  V30 7418 H 682.785 0.14166 7.60068 0
M  V30 7419 N 684.36 -1.4356 -0.65026 0
M  V30 7420 C 685.607 -1.45333 -1.41012 0
M  V30 7421 C 685.935 -0.0787282 -1.94341 0
M  V30 7422 O 685.19 0.916715 -1.72901 0
M  V30 7423 C 685.489 -2.44528 -2.60654 0
M  V30 7424 C 685.155 -3.90331 -2.25727 0
M  V30 7425 C 683.817 -4.3004 -2.15914 0
M  V30 7426 C 686.169 -4.822 -1.97821 0
M  V30 7427 C 683.497 -5.59568 -1.76354 0
M  V30 7428 C 685.849 -6.12095 -1.59759 0
M  V30 7429 C 684.513 -6.50778 -1.48473 0
M  V30 7430 H 683.783 -0.531813 -0.516 0
M  V30 7431 H 686.43 -1.76657 -0.739219 0
M  V30 7432 H 684.735 -2.06619 -3.3289 0
M  V30 7433 H 686.432 -2.43155 -3.18868 0
M  V30 7434 H 683.022 -3.58905 -2.34276 0
M  V30 7435 H 687.206 -4.5229 -2.04322 0
M  V30 7436 H 682.462 -5.88376 -1.66205 0
M  V30 7437 H 686.636 -6.82751 -1.37198 0
M  V30 7438 H 684.263 -7.5105 -1.17591 0
M  V30 7439 N 685.838 0.888903 -1.30139 0
M  V30 7440 C 687.087 1.63507 -1.18103 0
M  V30 7441 C 687.4 1.93808 0.264141 0
M  V30 7442 O 688.606 2.66744 0.505966 0
M  V30 7443 C 687.062 2.94673 -2.0663 0
M  V30 7444 C 686.67 2.71926 -3.56034 0
M  V30 7445 C 688.414 3.72626 -2.03346 0
M  V30 7446 C 686.321 3.98884 -4.3663 0
M  V30 7447 H 685.251 0.613426 -0.438435 0
M  V30 7448 H 687.902 0.984427 -1.54859 0
M  V30 7449 H 686.284 3.61009 -1.62754 0
M  V30 7450 H 687.458 2.14116 -4.08033 0
M  V30 7451 H 685.773 2.07353 -3.61101 0
M  V30 7452 H 688.37 4.66775 -2.60816 0
M  V30 7453 H 688.713 4.03712 -1.016 0
M  V30 7454 H 689.246 3.13147 -2.45324 0
M  V30 7455 H 685.985 3.72959 -5.39056 0
M  V30 7456 H 685.505 4.56214 -3.89396 0
M  V30 7457 H 687.184 4.66938 -4.47859 0
M  V30 7458 N 687.317 1.12792 1.10072 0
M  V30 7459 C 688.25 0.742921 2.15768 0
M  V30 7460 C 689.228 -0.267714 1.60381 0
M  V30 7461 O 690.412 -0.160782 1.87813 0
M  V30 7462 C 687.539 0.100244 3.38552 0
M  V30 7463 C 686.585 1.07831 4.12644 0
M  V30 7464 S 687.418 2.60765 4.6772 0
M  V30 7465 C 688.574 1.97838 5.9381 0
M  V30 7466 H 688.807 1.63822 2.48092 0
M  V30 7467 H 686.34 0.947385 1.21918 0
M  V30 7468 H 688.298 -0.264175 4.09649 0
M  V30 7469 H 686.959 -0.772223 3.04459 0
M  V30 7470 H 686.152 0.576325 5.00694 0
M  V30 7471 H 685.754 1.38586 3.47376 0
M  V30 7472 H 688.046 1.32341 6.64449 0
M  V30 7473 H 688.989 2.83943 6.48677 0
M  V30 7474 H 689.397 1.43267 5.46017 0
M  V30 7475 N 688.795 -1.27931 0.920396 0
M  V30 7476 C 690.041 -1.94977 0.557832 0
M  V30 7477 C 690.374 -1.72224 -0.897365 0
M  V30 7478 O 689.649 -1.04705 -1.63912 0
M  V30 7479 C 689.932 -3.49289 0.875741 0
M  V30 7480 C 689.785 -3.81416 2.38416 0
M  V30 7481 C 691.104 -4.38486 0.376517 0
M  V30 7482 H 688.223 -0.708164 0.20414 0
M  V30 7483 H 690.865 -1.5118 1.15085 0
M  V30 7484 H 689.015 -3.86724 0.371062 0
M  V30 7485 H 690.687 -3.53813 2.95997 0
M  V30 7486 H 688.93 -3.28225 2.83639 0
M  V30 7487 H 689.601 -4.89198 2.55713 0
M  V30 7488 H 692.077 -4.08161 0.808945 0
M  V30 7489 H 690.953 -5.45296 0.627976 0
M  V30 7490 H 691.214 -4.36143 -0.723293 0
M  V30 7491 N 690.273 -0.685099 -1.4193 0
M  V30 7492 C 691.52 -0.211658 -2.01391 0
M  V30 7493 C 691.848 1.18526 -1.54214 0
M  V30 7494 O 691.103 1.81189 -0.739519 0
M  V30 7495 C 691.402 -0.206154 -3.56805 0
M  V30 7496 C 691.068 -1.54915 -4.23453 0
M  V30 7497 C 689.73 -1.91684 -4.41373 0
M  V30 7498 C 692.082 -2.43317 -4.60919 0
M  V30 7499 C 689.41 -3.16461 -4.94034 0
M  V30 7500 C 691.762 -3.67415 -5.14965 0
M  V30 7501 C 690.426 -4.04341 -5.31098 0
M  V30 7502 H 689.696 -0.0774511 -0.736941 0
M  V30 7503 H 692.343 -0.882121 -1.69973 0
M  V30 7504 H 690.648 0.547841 -3.87951 0
M  V30 7505 H 692.345 0.17753 -4.00607 0
M  V30 7506 H 688.935 -1.25314 -4.09871 0
M  V30 7507 H 693.119 -2.16192 -4.46738 0
M  V30 7508 H 688.375 -3.45078 -5.04709 0
M  V30 7509 H 692.549 -4.3611 -5.42938 0
M  V30 7510 H 690.176 -5.01101 -5.71666 0
M  V30 7511 N 691.751 1.51645 -0.429126 0
M  V30 7512 C 692.997 2.02314 0.140286 0
M  V30 7513 C 693.33 1.31314 1.43074 0
M  V30 7514 O 692.605 0.425531 1.89788 0
M  V30 7515 C 692.888 3.5822 0.36749 0
M  V30 7516 C 692.741 4.39846 -0.941039 0
M  V30 7517 C 694.06 4.25055 1.14089 0
M  V30 7518 H 691.179 0.735335 0.0495112 0
M  V30 7519 H 693.821 1.81358 -0.566514 0
M  V30 7520 H 691.971 3.76207 0.969556 0
M  V30 7521 H 693.643 4.33527 -1.57646 0
M  V30 7522 H 691.886 4.05259 -1.54751 0
M  V30 7523 H 692.557 5.47069 -0.73621 0
M  V30 7524 H 695.033 4.11288 0.630986 0
M  V30 7525 H 693.909 5.34038 1.26863 0
M  V30 7526 H 694.17 3.85358 2.16683 0
M  V30 7527 N 693.229 0.160201 1.56784 0
M  V30 7528 C 694.162 -0.812797 2.13234 0
M  V30 7529 C 695.14 -1.2335 1.05942 0
M  V30 7530 O 696.324 -1.32725 1.33852 0
M  V30 7531 C 693.451 -2.09311 2.66283 0
M  V30 7532 C 692.497 -1.8173 3.85845 0
M  V30 7533 S 693.33 -0.996473 5.26147 0
M  V30 7534 C 694.486 -2.28769 5.82594 0
M  V30 7535 H 694.719 -0.332794 2.95432 0
M  V30 7536 H 692.252 -0.0542971 1.54304 0
M  V30 7537 H 694.21 -2.82854 2.97496 0
M  V30 7538 H 692.871 -2.54425 1.84192 0
M  V30 7539 H 692.064 -2.76699 4.21253 0
M  V30 7540 H 691.666 -1.16289 3.55462 0
M  V30 7541 H 693.958 -3.24319 5.9483 0
M  V30 7542 H 694.901 -1.97846 6.79899 0
M  V30 7543 H 695.309 -2.40021 5.10931 0
M  V30 7544 N 694.707 -1.5719 -0.113559 0
M  V30 7545 C 695.935 -1.89328 -0.834422 0
M  V30 7546 C 696.35 -0.752018 -1.73177 0
M  V30 7547 O 695.707 0.276912 -1.80387 0
M  V30 7548 C 695.758 -3.20962 -1.66329 0
M  V30 7549 O 695.479 -4.30695 -0.802069 0
M  V30 7550 C 696.98 -3.6684 -2.48884 0
M  V30 7551 H 694.2 -0.626769 -0.239587 0
M  V30 7552 H 696.744 -2.04273 -0.0963195 0
M  V30 7553 H 694.899 -3.0767 -2.35409 0
M  V30 7554 H 695.313 -5.06175 -1.37431 0
M  V30 7555 H 696.787 -4.61692 -3.02563 0
M  V30 7556 H 697.264 -2.93765 -3.26495 0
M  V30 7557 H 697.87 -3.82938 -1.85036 0
M  V30 7558 N 696.185 0.383891 -1.52853 0
M  V30 7559 C 697.434 1.12563 -1.67369 0
M  V30 7560 C 697.747 1.90982 -0.422533 0
M  V30 7561 O 698.953 2.6778 -0.447914 0
M  V30 7562 C 697.409 2.05011 -2.95801 0
M  V30 7563 C 697.017 1.31991 -4.28115 0
M  V30 7564 C 698.761 2.79289 -3.19684 0
M  V30 7565 C 696.668 2.23235 -5.4765 0
M  V30 7566 H 695.598 0.42391 -0.623552 0
M  V30 7567 H 698.249 0.388016 -1.79351 0
M  V30 7568 H 696.631 2.82429 -2.77578 0
M  V30 7569 H 697.805 0.597633 -4.56908 0
M  V30 7570 H 696.12 0.696517 -4.10533 0
M  V30 7571 H 698.717 3.47749 -4.06171 0
M  V30 7572 H 699.06 3.43649 -2.3497 0
M  V30 7573 H 699.593 2.08962 -3.38496 0
M  V30 7574 H 696.332 1.63482 -6.34786 0
M  V30 7575 H 695.852 2.93364 -5.23161 0
M  V30 7576 H 697.531 2.83205 -5.81725 0
M  V30 7577 N 697.663 1.43903 0.642637 0
M  V30 7578 C 698.593 1.52697 1.76652 0
M  V30 7579 C 699.574 0.380816 1.65782 0
M  V30 7580 O 700.759 0.599432 1.84717 0
M  V30 7581 C 697.889 1.45975 3.15133 0
M  V30 7582 C 696.843 2.58949 3.40778 0
M  V30 7583 C 696.169 2.37279 4.79169 0
M  V30 7584 C 697.469 4.01153 3.34475 0
M  V30 7585 H 699.163 2.46766 1.69549 0
M  V30 7586 H 696.709 1.18767 0.814279 0
M  V30 7587 H 698.662 1.5073 3.93521 0
M  V30 7588 H 697.386 0.484162 3.22991 0
M  V30 7589 H 696.045 2.53564 2.64765 0
M  V30 7590 H 695.693 1.37939 4.83717 0
M  V30 7591 H 695.393 3.13016 4.97287 0
M  V30 7592 H 696.917 2.43834 5.59801 0
M  V30 7593 H 698.331 4.07968 4.02784 0
M  V30 7594 H 696.728 4.77001 3.64129 0
M  V30 7595 H 697.798 4.25539 2.32475 0
M  V30 7596 N 699.141 -0.881989 1.30609 0
M  V30 7597 C 700.39 -1.62878 1.18969 0
M  V30 7598 C 700.703 -1.93946 -0.253859 0
M  V30 7599 O 701.909 -2.67008 -0.491813 0
M  V30 7600 C 700.365 -2.93573 2.0819 0
M  V30 7601 C 699.973 -2.70034 3.57471 0
M  V30 7602 C 701.717 -3.71543 2.0532 0
M  V30 7603 C 699.624 -3.96563 4.38739 0
M  V30 7604 H 698.554 -0.611092 0.441682 0
M  V30 7605 H 701.205 -0.976201 1.55379 0
M  V30 7606 H 699.587 -3.6014 1.64666 0
M  V30 7607 H 700.761 -2.11949 4.09163 0
M  V30 7608 H 699.076 -2.05435 3.62195 0
M  V30 7609 H 701.673 -4.65386 2.63288 0
M  V30 7610 H 702.016 -4.03167 1.03739 0
M  V30 7611 H 702.549 -3.11842 2.46981 0
M  V30 7612 H 699.288 -3.70095 5.41027 0
M  V30 7613 H 698.808 -4.54142 3.9181 0
M  V30 7614 H 700.487 -4.64557 4.50329 0
M  V30 7615 N 700.619 -1.13374 -1.09472 0
M  V30 7616 C 701.868 -0.889844 -1.8101 0
M  V30 7617 C 702.181 0.585686 -1.86625 0
M  V30 7618 O 703.387 0.946497 -2.54467 0
M  V30 7619 C 701.843 -1.54241 -3.25174 0
M  V30 7620 C 701.451 -3.05343 -3.27826 0
M  V30 7621 C 703.195 -1.37919 -4.0147 0
M  V30 7622 C 701.102 -3.63486 -4.6651 0
M  V30 7623 H 700.032 -0.329256 -0.678311 0
M  V30 7624 H 702.683 -1.36139 -1.23038 0
M  V30 7625 H 701.065 -0.998525 -3.83204 0
M  V30 7626 H 702.239 -3.66307 -2.79563 0
M  V30 7627 H 700.554 -3.21175 -2.65019 0
M  V30 7628 H 703.151 -1.78771 -5.03929 0
M  V30 7629 H 703.494 -0.323987 -4.15037 0
M  V30 7630 H 704.027 -1.89284 -3.49881 0
M  V30 7631 H 700.766 -4.68811 -4.58145 0
M  V30 7632 H 700.286 -3.073 -5.15099 0
M  V30 7633 H 701.965 -3.63134 -5.35484 0
M  V30 7634 N 702.098 1.27442 -0.927168 0
M  V30 7635 C 703.061 2.2512 -0.430525 0
M  V30 7636 C 704.061 1.54357 0.450619 0
M  V30 7637 O 705.251 1.72371 0.251774 0
M  V30 7638 C 702.383 3.38763 0.381144 0
M  V30 7639 H 703.576 2.70569 -1.29354 0
M  V30 7640 H 701.129 1.39355 -0.707806 0
M  V30 7641 H 701.864 2.98695 1.263 0
M  V30 7642 H 701.649 3.91298 -0.250618 0
M  V30 7643 H 703.139 4.11364 0.719012 0
M  V30 7644 N 703.576 0.692616 1.41565 0
M  V30 7645 C 704.992 0.363878 1.55397 0
M  V30 7646 C 705.192 -1.1294 1.66874 0
M  V30 7647 O 704.248 -1.91517 1.64552 0
M  V30 7648 C 705.561 1.10982 2.7947 0
M  V30 7649 C 707.109 1.09387 2.93263 0
M  V30 7650 C 707.584 1.8215 4.20221 0
M  V30 7651 N 709.075 1.79105 4.27172 0
M  V30 7652 C 709.81 2.32247 5.2426 0
M  V30 7653 N 709.306 2.93847 6.27396 0
M  V30 7654 N 711.099 2.22519 5.1618 0
M  V30 7655 H 703.25 1.66116 1.3236 0
M  V30 7656 H 705.513 0.700848 0.63837 0
M  V30 7657 H 705.219 2.1647 2.77188 0
M  V30 7658 H 705.093 0.686492 3.709 0
M  V30 7659 H 707.48 0.0472638 2.95062 0
M  V30 7660 H 707.561 1.55623 2.03015 0
M  V30 7661 H 707.205 2.86789 4.19183 0
M  V30 7662 H 707.135 1.33351 5.09436 0
M  V30 7663 H 709.626 1.34191 3.53272 0
M  V30 7664 H 709.939 3.31972 6.97864 0
M  V30 7665 H 708.284 2.97924 6.27906 0
M  V30 7666 H 711.475 1.7407 4.34531 0
M  V30 7667 H 711.648 2.64239 5.91677 0
M  V30 7668 N 705.054 -1.51416 0.437162 0
M  V30 7669 C 706.017 -2.26312 -0.362729 0
M  V30 7670 C 707.017 -1.29748 -0.949847 0
M  V30 7671 O 708.207 -1.53462 -0.824325 0
M  V30 7672 C 705.339 -3.05475 -1.5132 0
M  V30 7673 H 706.532 -2.98459 0.29365 0
M  V30 7674 H 704.085 -1.55137 0.190327 0
M  V30 7675 H 704.82 -2.37744 -2.20563 0
M  V30 7676 H 704.605 -3.76401 -1.09838 0
M  V30 7677 H 706.095 -3.62209 -2.07833 0
M  V30 7678 N 706.532 -0.168513 -1.56696 0
M  V30 7679 C 707.809 0.523367 -1.88468 0
M  V30 7680 C 708.189 1.81503 -1.07796 0
M  V30 7681 O 707.537 2.27859 -0.171045 0
M  V30 7682 C 707.747 0.767991 -3.40445 0
M  V30 7683 C 709.095 1.09924 -4.10124 0
M  V30 7684 O 710.119 0.856625 -3.45746 0
M  V30 7685 O 708.978 1.55681 -5.23856 0
M  V30 7686 H 706.072 0.269447 -0.781874 0
M  V30 7687 H 708.618 -0.206739 -1.68436 0
M  V30 7688 H 707.39 -0.145254 -3.9103 0
M  V30 7689 H 707.013 1.55151 -3.66079 0
M  V30 7690 O 708.049 1.61471 -0.0305634 0
M  V30 7691 H 708.74 1.84756 0.581805 0
M  V30 END ATOM
M  V30 BEGIN BOND
M  V30 END BOND
M  V30 END CTAB
M  END
$$$$
