drugbank_target|P43522 Peptide deformylase (DB03661)
 OpenBabel12092120283D

  0  0  0     0  0            999 V3000
M  V30 BEGIN CTAB
M  V30 COUNTS 3123 3151 0 0 0
M  V30 BEGIN ATOM
M  V30 1 H -0.908 1.98254 -0.117106 0
M  V30 2 N 0 1.576 0 0
M  V30 3 C 0.933 2.03868 1.02534 0
M  V30 4 C 1.911 0.928543 1.3348 0
M  V30 5 O 3.095 1.19667 1.45644 0
M  V30 6 C 0.222 2.43627 2.35294 0
M  V30 7 C -0.732 3.65373 2.2001 0
M  V30 8 S 0.101 5.13292 1.52614 0
M  V30 9 C 1.257 5.56322 2.86805 0
M  V30 10 H 1.49 2.90518 0.631377 0
M  V30 11 H -0.977 1.52953 0.210867 0
M  V30 12 H 0.981 2.67203 3.11629 0
M  V30 13 H -0.358 1.57376 2.7183 0
M  V30 14 H -1.165 3.90944 3.18086 0
M  V30 15 H -1.563 3.418 1.51819 0
M  V30 16 H 0.729 5.58782 3.83104 0
M  V30 17 H 1.672 6.56266 2.65933 0
M  V30 18 H 2.08 4.83886 2.90714 0
M  V30 19 N 1.4781 -0.272755 1.55222 0
M  V30 20 C 2.7241 -1.00581 1.761 0
M  V30 21 C 3.0571 -1.85932 0.560625 0
M  V30 22 O 2.3321 -1.89416 -0.441801 0
M  V30 23 C 2.6151 -1.88816 3.06628 0
M  V30 24 C 2.4681 -1.06457 4.37021 0
M  V30 25 C 3.7871 -2.8752 3.33197 0
M  V30 26 H 0.9061 -0.364244 0.640699 0
M  V30 27 H 3.5481 -0.278189 1.87952 0
M  V30 28 H 1.6981 -2.50856 2.96654 0
M  V30 29 H 3.3701 -0.464863 4.58952 0
M  V30 30 H 1.6131 -0.368043 4.32236 0
M  V30 31 H 2.2841 -1.71514 5.24678 0
M  V30 32 H 4.7601 -2.35615 3.42965 0
M  V30 33 H 3.6361 -3.46399 4.25792 0
M  V30 34 H 3.8971 -3.62657 2.52849 0
M  V30 35 N 2.9562 -1.48159 -0.537278 0
M  V30 36 C 4.1862 -1.59223 -1.3165 0
M  V30 37 C 4.5942 -0.248849 -1.87556 0
M  V30 38 O 3.9372 0.770949 -1.6674 0
M  V30 39 C 3.9992 -2.57365 -2.51005 0
M  V30 40 C 3.6632 -4.02603 -2.16239 0
M  V30 41 C 4.6602 -4.90503 -1.72344 0
M  V30 42 C 2.3452 -4.48088 -2.26986 0
M  V30 43 C 4.3392 -6.21913 -1.39651 0
M  V30 44 C 2.0262 -5.7952 -1.93906 0
M  V30 45 C 3.0242 -6.66255 -1.50309 0
M  V30 46 O 2.7122 -7.95243 -1.17659 0
M  V30 47 H 2.4442 -0.539831 -0.406889 0
M  V30 48 H 4.9982 -1.94655 -0.655641 0
M  V30 49 H 3.2282 -2.1704 -3.20048 0
M  V30 50 H 4.9172 -2.58342 -3.13072 0
M  V30 51 H 5.6832 -4.56604 -1.63517 0
M  V30 52 H 1.5622 -3.80769 -2.59877 0
M  V30 53 H 5.1062 -6.89569 -1.0555 0
M  V30 54 H 1.0032 -6.12957 -2.02371 0
M  V30 55 H 1.7712 -8.0793 -1.31119 0
M  V30 56 N 4.4343 0.785586 -1.36625 0
M  V30 57 C 5.8453 1.36101 -1.27803 0
M  V30 58 C 6.1963 1.96035 0.0804875 0
M  V30 59 O 5.3213 1.92834 0.982042 0
M  V30 60 C 5.9163 2.47442 -2.31426 0
M  V30 61 C 4.4753 3.00789 -2.26281 0
M  V30 62 C 3.6223 1.73896 -2.15999 0
M  V30 63 H 6.5733 0.586928 -1.47448 0
M  V30 64 H 6.5943 3.2656 -1.95291 0
M  V30 65 H 6.1063 2.03791 -3.30289 0
M  V30 66 H 4.2073 3.48851 -1.30896 0
M  V30 67 H 4.3203 3.57343 -3.19128 0
M  V30 68 H 2.6843 1.9628 -1.62316 0
M  V30 69 H 3.4673 1.32368 -3.16755 0
M  V30 70 N 5.9124 1.20967 1.01018 0
M  V30 71 C 7.1614 1.01796 1.74128 0
M  V30 72 C 7.4744 -0.449691 1.90361 0
M  V30 73 O 8.6804 -0.76068 2.60626 0
M  V30 74 C 7.1364 1.7727 3.13215 0
M  V30 75 C 6.7444 3.28171 3.04972 0
M  V30 76 C 8.4884 1.66489 3.90489 0
M  V30 77 C 6.3954 3.96156 4.39107 0
M  V30 78 H 5.3254 0.377276 0.652824 0
M  V30 79 H 7.9764 1.44651 1.12909 0
M  V30 80 H 6.3584 1.27205 3.75013 0
M  V30 81 H 7.5324 3.85499 2.52443 0
M  V30 82 H 5.8474 3.39437 2.41188 0
M  V30 83 H 8.4444 2.14617 4.89738 0
M  V30 84 H 8.7874 0.6222 4.11624 0
M  V30 85 H 9.3204 2.14003 3.35332 0
M  V30 86 H 6.0594 5.00604 4.23174 0
M  V30 87 H 5.5794 3.43617 4.91617 0
M  V30 88 H 7.2584 4.00774 5.07926 0
M  V30 89 N 7.3905 -1.2043 1.01659 0
M  V30 90 C 8.8065 -1.41852 0.731442 0
M  V30 91 C 9.0065 -1.89358 -0.688898 0
M  V30 92 O 8.0625 -2.06247 -1.45666 0
M  V30 93 C 9.3755 -2.44019 1.75714 0
M  V30 94 C 10.9235 -2.57785 1.77527 0
M  V30 95 C 11.3985 -3.63194 2.79023 0
M  V30 96 N 12.8895 -3.70678 2.77763 0
M  V30 97 C 13.6245 -4.51897 3.52954 0
M  V30 98 N 13.1205 -5.36921 4.37821 0
M  V30 99 N 14.9135 -4.4643 3.41551 0
M  V30 100 H 7.0645 -0.879093 1.93354 0
M  V30 101 H 9.3275 -0.448425 0.835236 0
M  V30 102 H 9.0335 -2.1611 2.77469 0
M  V30 103 H 8.9075 -3.43007 1.56927 0
M  V30 104 H 11.2945 -2.85023 0.764569 0
M  V30 105 H 11.3755 -1.58992 2.00387 0
M  V30 106 H 11.0195 -3.36699 3.80258 0
M  V30 107 H 10.9495 -4.61609 2.53425 0
M  V30 108 H 13.4405 -3.09944 2.16201 0
M  V30 109 H 13.7535 -5.95981 4.91962 0
M  V30 110 H 12.0985 -5.36424 4.41899 0
M  V30 111 H 15.2895 -3.79042 2.74672 0
M  V30 112 H 15.4625 -5.09491 4.00404 0
M  V30 113 N 8.8686 -0.792821 -1.36206 0
M  V30 114 C 9.7986 -0.207853 -2.32573 0
M  V30 115 C 10.7796 0.659055 -1.56813 0
M  V30 116 O 11.9646 0.592176 -1.84951 0
M  V30 117 C 9.0946 0.655449 -3.41059 0
M  V30 118 C 8.0486 -0.111842 -4.27854 0
M  V30 119 C 7.3746 0.872274 -5.27537 0
M  V30 120 C 8.6746 -1.30299 -5.05786 0
M  V30 121 H 10.3686 -1.01294 -2.81744 0
M  V30 122 H 7.9146 -0.48854 -1.3546 0
M  V30 123 H 9.8676 1.07464 -4.07467 0
M  V30 124 H 8.5916 1.49328 -2.90463 0
M  V30 125 H 7.2506 -0.512053 -3.63006 0
M  V30 126 H 6.8986 1.70523 -4.73214 0
M  V30 127 H 6.5986 0.363291 -5.86476 0
M  V30 128 H 8.1226 1.28996 -5.96818 0
M  V30 129 H 9.5366 -0.959379 -5.65216 0
M  V30 130 H 7.9336 -1.7455 -5.74154 0
M  V30 131 H 9.0036 -2.09663 -4.37229 0
M  V30 132 N 10.3467 1.47872 -0.545128 0
M  V30 133 C 11.5767 2.06589 -0.0210534 0
M  V30 134 C 11.9847 1.39997 1.27269 0
M  V30 135 O 11.3277 0.486421 1.77143 0
M  V30 136 C 11.3897 3.58574 0.257933 0
M  V30 137 C 11.0537 4.47132 -0.944573 0
M  V30 138 C 12.0507 4.85986 -1.84699 0
M  V30 139 C 9.7357 4.88821 -1.15584 0
M  V30 140 C 11.7297 5.65314 -2.94446 0
M  V30 141 C 9.4167 5.67916 -2.25642 0
M  V30 142 C 10.4147 6.06073 -3.14905 0
M  V30 143 O 10.1027 6.83578 -4.23057 0
M  V30 144 H 9.8347 0.674971 -0.0372899 0
M  V30 145 H 12.3887 1.91037 -0.754599 0
M  V30 146 H 10.6187 3.72295 1.04564 0
M  V30 147 H 12.3077 3.99356 0.72592 0
M  V30 148 H 13.0737 4.54388 -1.69577 0
M  V30 149 H 8.9527 4.58595 -0.470279 0
M  V30 150 H 12.4967 5.95016 -3.64145 0
M  V30 151 H 8.3937 5.98927 -2.40742 0
M  V30 152 H 9.1617 7.01954 -4.20954 0
M  V30 153 N 11.8248 0.280983 1.55075 0
M  V30 154 C 13.0728 -0.333455 1.9933 0
M  V30 155 C 13.3938 -1.55937 1.17085 0
M  V30 156 O 12.6638 -1.94143 0.261805 0
M  V30 157 H 11.2438 -0.126197 0.736263 0
M  V30 158 H 13.9058 0.387678 1.91005 0
M  V30 159 H 13.0018 -0.619292 3.05894 0
M  V30 160 N 13.3029 -1.57598 0.00835791 0
M  V30 161 C 14.5799 -1.82172 -0.712235 0
M  V30 162 C 14.9599 -0.887873 -1.9152 0
M  V30 163 O 14.3079 0.06146 -2.28417 0
M  V30 164 C 14.5179 -3.30875 -1.11008 0
M  V30 165 C 15.8659 -3.96826 -1.51044 0
M  V30 166 O 16.8899 -3.35248 -1.20364 0
M  V30 167 O 15.7489 -5.05318 -2.08125 0
M  V30 168 H 12.8429 -0.750435 -0.347529 0
M  V30 169 H 15.3889 -1.69665 0.0344523 0
M  V30 170 H 14.1609 -3.90481 -0.252982 0
M  V30 171 H 13.7839 -3.48412 -1.9156 0
M  V30 172 N 14.781 0.264519 -1.55364 0
M  V30 173 C 16.192 0.834936 -1.6699 0
M  V30 174 C 16.543 1.86718 -0.602552 0
M  V30 175 O 15.668 2.14899 0.254425 0
M  V30 176 C 16.263 1.5212 -3.02729 0
M  V30 177 C 14.822 2.03954 -3.16354 0
M  V30 178 C 13.969 0.884498 -2.62815 0
M  V30 179 H 16.92 0.0406869 -1.58648 0
M  V30 180 H 16.941 2.38853 -2.96191 0
M  V30 181 H 16.453 0.769668 -3.80392 0
M  V30 182 H 14.554 2.82041 -2.43482 0
M  V30 183 H 14.667 2.24902 -4.23032 0
M  V30 184 H 13.031 1.2802 -2.20188 0
M  V30 185 H 13.814 0.14634 -3.42988 0
M  V30 186 N 16.2591 1.48442 0.529413 0
M  V30 187 C 17.5051 1.5672 1.28711 0
M  V30 188 C 17.8381 0.2406 1.92704 0
M  V30 189 O 17.1131 -0.753454 1.79313 0
M  V30 190 C 17.3961 2.70587 2.37603 0
M  V30 191 C 17.2491 4.12953 1.78297 0
M  V30 192 C 18.5681 2.80212 3.39366 0
M  V30 193 H 15.6871 0.570474 0.466613 0
M  V30 194 H 18.3291 1.80617 0.589706 0
M  V30 195 H 16.4791 2.50342 2.97088 0
M  V30 196 H 18.1511 4.44639 1.22858 0
M  V30 197 H 16.3941 4.19927 1.0883 0
M  V30 198 H 17.0651 4.88448 2.57144 0
M  V30 199 H 19.5411 2.98553 2.89836 0
M  V30 200 H 18.4171 3.61611 4.12951 0
M  V30 201 H 18.6781 1.88393 3.99951 0
M  V30 202 N 17.7372 -0.778329 1.37039 0
M  V30 203 C 18.6672 -1.90546 1.34962 0
M  V30 204 C 19.6482 -1.68681 0.219274 0
M  V30 205 O 20.8332 -1.89634 0.418624 0
M  V30 206 C 17.9632 -3.27734 1.14925 0
M  V30 207 C 16.9172 -3.64147 2.24902 0
M  V30 208 C 16.2432 -4.99806 1.89996 0
M  V30 209 C 17.5432 -3.71579 3.67051 0
M  V30 210 H 19.2372 -1.92541 2.29277 0
M  V30 211 H 16.7832 -0.924948 1.10366 0
M  V30 212 H 18.7362 -4.06215 1.12104 0
M  V30 213 H 17.4602 -3.26154 0.170631 0
M  V30 214 H 16.1192 -2.8797 2.26868 0
M  V30 215 H 15.7672 -4.94759 0.906796 0
M  V30 216 H 15.4672 -5.25139 2.63634 0
M  V30 217 H 16.9912 -5.80694 1.88749 0
M  V30 218 H 18.4052 -4.40227 3.67251 0
M  V30 219 H 16.8022 -4.08405 4.39688 0
M  V30 220 H 17.8722 -2.72404 4.01154 0
M  V30 221 N 19.2153 -1.21501 -1.00376 0
M  V30 222 C 20.6313 -0.972629 -1.26539 0
M  V30 223 C 20.8313 0.340257 -1.98606 0
M  V30 224 O 19.8873 1.06561 -2.28913 0
M  V30 225 C 21.2003 -2.16404 -2.08781 0
M  V30 226 C 22.7483 -2.20643 -2.22004 0
M  V30 227 C 23.2233 -3.39306 -3.07629 0
M  V30 228 N 24.7143 -3.39401 -3.15217 0
M  V30 229 C 25.4493 -4.27867 -3.81729 0
M  V30 230 N 24.9453 -5.26533 -4.5026 0
M  V30 231 N 26.7383 -4.15672 -3.78382 0
M  V30 232 H 18.8893 -2.05929 -0.520281 0
M  V30 233 H 21.1523 -0.901803 -0.292328 0
M  V30 234 H 20.8583 -3.11554 -1.63178 0
M  V30 235 H 20.7323 -2.15567 -3.09533 0
M  V30 236 H 23.1193 -1.26048 -2.66825 0
M  V30 237 H 23.2003 -2.25523 -1.20718 0
M  V30 238 H 22.8443 -4.34195 -2.63509 0
M  V30 239 H 22.7743 -3.31665 -4.09031 0
M  V30 240 H 25.2653 -2.67997 -2.66432 0
M  V30 241 H 25.5783 -5.90337 -4.98721 0
M  V30 242 H 23.9233 -5.30457 -4.49044 0
M  V30 243 H 27.1143 -3.3785 -3.23998 0
M  V30 244 H 27.2873 -4.84825 -4.2994 0
M  V30 245 N 20.6934 1.19889 -1.02296 0
M  V30 246 C 22.1094 1.41462 -0.738954 0
M  V30 247 C 22.3094 1.89721 0.678846 0
M  V30 248 O 21.3654 2.07016 1.4457 0
M  V30 249 C 22.6784 2.43083 -1.77005 0
M  V30 250 C 24.2264 2.5684 -1.78892 0
M  V30 251 C 24.7014 3.61709 -2.80945 0
M  V30 252 N 26.1924 3.69199 -2.79725 0
M  V30 253 C 26.9274 4.50019 -3.55345 0
M  V30 254 N 26.4234 5.34592 -4.40662 0
M  V30 255 N 28.2164 4.44612 -3.43914 0
M  V30 256 H 20.3674 0.868827 -1.93817 0
M  V30 257 H 22.6304 0.44399 -0.837602 0
M  V30 258 H 22.3364 2.14636 -2.78612 0
M  V30 259 H 22.2104 3.4217 -1.58744 0
M  V30 260 H 24.5974 2.84614 -0.779674 0
M  V30 261 H 24.6784 1.57927 -2.01228 0
M  V30 262 H 24.3224 3.34678 -3.82038 0
M  V30 263 H 24.2524 4.60259 -2.5587 0
M  V30 264 H 26.7434 3.08794 -2.17842 0
M  V30 265 H 27.0564 5.93363 -4.95116 0
M  V30 266 H 25.4014 5.34073 -4.44737 0
M  V30 267 H 28.5924 3.7758 -2.76679 0
M  V30 268 H 28.7654 5.0736 -4.031 0
M  V30 269 N 22.1715 0.800033 1.35784 0
M  V30 270 C 23.1185 0.203848 2.29898 0
M  V30 271 C 24.0885 -0.658375 1.52495 0
M  V30 272 O 25.2735 -0.604832 1.8096 0
M  V30 273 C 22.4135 -0.64688 3.38983 0
M  V30 274 C 21.5265 0.235054 4.3136 0
M  V30 275 C 20.6615 -0.623054 5.27533 0
M  V30 276 C 19.7005 0.259682 6.11549 0
M  V30 277 N 18.8375 -0.558019 6.99879 0
M  V30 278 H 23.6775 1.01186 2.80295 0
M  V30 279 H 21.2145 0.51053 1.37957 0
M  V30 280 H 23.1725 -1.15521 4.00887 0
M  V30 281 H 21.8025 -1.42021 2.89879 0
M  V30 282 H 20.8545 0.861438 3.70518 0
M  V30 283 H 22.1665 0.914768 4.9034 0
M  V30 284 H 21.3205 -1.19678 5.94779 0
M  V30 285 H 20.0595 -1.33636 4.69034 0
M  V30 286 H 19.0645 0.845726 5.43256 0
M  V30 287 H 20.2895 0.970748 6.72126 0
M  V30 288 H 18.2355 -1.25542 6.43875 0
M  V30 289 H 18.1525 0.0637872 7.55973 0
M  V30 290 H 19.4205 -1.11523 7.71481 0
M  V30 291 N 23.6496 -1.47581 0.552962 0
M  V30 292 C 24.6126 -2.28439 -0.186605 0
M  V30 293 C 25.6126 -1.36706 -0.84665 0
M  V30 294 O 26.8026 -1.59378 -0.703164 0
M  V30 295 C 23.9346 -3.16264 -1.2724 0
M  V30 296 H 25.1276 -2.95294 0.523609 0
M  V30 297 H 22.6806 -1.532 0.309745 0
M  V30 298 H 23.4156 -2.54091 -2.01514 0
M  V30 299 H 23.2006 -3.83769 -0.803968 0
M  V30 300 H 24.6906 -3.77198 -1.79196 0
M  V30 301 N 25.1277 -0.289203 -1.54924 0
M  V30 302 C 26.5437 0.0645403 -1.59469 0
M  V30 303 C 26.7437 1.53419 -1.30632 0
M  V30 304 O 25.7997 2.2852 -1.074 0
M  V30 305 C 27.1127 -0.32278 -2.98963 0
M  V30 306 C 28.6607 -0.270564 -3.11828 0
M  V30 307 C 29.1357 -0.632532 -4.53611 0
M  V30 308 N 30.6267 -0.584617 -4.59496 0
M  V30 309 C 31.3617 -0.837314 -5.67254 0
M  V30 310 N 30.8577 -1.15536 -6.83098 0
M  V30 311 N 32.6507 -0.765166 -5.56868 0
M  V30 312 H 24.8017 -1.24714 -1.71931 0
M  V30 313 H 27.0647 -0.504809 -0.802416 0
M  V30 314 H 26.7707 -1.34541 -3.24948 0
M  V30 315 H 26.6447 0.32944 -3.75759 0
M  V30 316 H 29.0317 0.742805 -2.85598 0
M  V30 317 H 29.1127 -0.957242 -2.37214 0
M  V30 318 H 28.7567 -1.64365 -4.80569 0
M  V30 319 H 28.6867 0.07609 -5.26545 0
M  V30 320 H 31.1777 -0.349248 -3.76283 0
M  V30 321 H 31.4907 -1.33447 -7.61191 0
M  V30 322 H 29.8357 -1.19328 -6.84679 0
M  V30 323 H 33.0267 -0.516432 -4.65243 0
M  V30 324 H 33.1997 -0.965477 -6.40767 0
M  V30 325 N 26.6058 1.57591 -0.0167156 0
M  V30 326 C 28.0168 1.79201 0.523834 0
M  V30 327 C 28.3678 0.925796 1.72984 0
M  V30 328 O 27.4928 0.132792 2.15992 0
M  V30 329 C 28.0878 3.25 0.957091 0
M  V30 330 C 26.6468 3.47648 1.44283 0
M  V30 331 C 25.7938 2.74374 0.401757 0
M  V30 332 H 28.7448 1.56831 -0.242816 0
M  V30 333 H 28.7658 3.34031 1.82219 0
M  V30 334 H 28.2778 3.88019 0.0791415 0
M  V30 335 H 26.3788 2.89866 2.34113 0
M  V30 336 H 26.4918 4.56352 1.45877 0
M  V30 337 H 24.8558 2.39485 0.867121 0
M  V30 338 H 25.6388 3.40102 -0.467513 0
M  V30 339 N 28.0839 -0.256276 1.55502 0
M  V30 340 C 29.3299 -0.987079 1.77157 0
M  V30 341 C 29.6629 -1.85327 0.580315 0
M  V30 342 O 28.9379 -1.89874 -0.421686 0
M  V30 343 C 29.2209 -1.85553 3.08613 0
M  V30 344 C 29.0739 -1.01816 4.38125 0
M  V30 345 C 30.3929 -2.8397 3.36228 0
M  V30 346 H 27.5119 -0.357428 0.644526 0
M  V30 347 H 30.1539 -0.258239 1.88237 0
M  V30 348 H 28.3039 -2.47695 2.99298 0
M  V30 349 H 29.9759 -0.416159 4.59419 0
M  V30 350 H 28.2189 -0.322178 4.32602 0
M  V30 351 H 28.8899 -1.65939 5.26468 0
M  V30 352 H 31.3659 -2.31964 3.45445 0
M  V30 353 H 30.2419 -3.41864 4.29442 0
M  V30 354 H 30.5029 -3.59955 2.56681 0
M  V30 355 N 29.562 -1.4872 -0.521534 0
M  V30 356 C 30.472 -1.66569 -1.65203 0
M  V30 357 C 31.488 -0.548197 -1.65139 0
M  V30 358 O 32.664 -0.820339 -1.83936 0
M  V30 359 C 29.729 -1.70917 -3.01642 0
M  V30 360 C 28.79 -2.94356 -3.12495 0
M  V30 361 C 28.023 -2.98487 -4.42426 0
M  V30 362 O 28.246 -2.10786 -5.30024 0
M  V30 363 O 27.18 -3.90746 -4.57822 0
M  V30 364 H 31.006 -2.62298 -1.5308 0
M  V30 365 H 28.591 -1.3222 -0.695565 0
M  V30 366 H 30.473 -1.7625 -3.82771 0
M  V30 367 H 29.148 -0.783633 -3.14071 0
M  V30 368 H 28.055 -2.94552 -2.3063 0
M  V30 369 H 29.388 -3.86322 -3.04986 0
M  V30 370 N 31.0401 0.771051 -1.3745 0
M  V30 371 C 32.3171 1.519 -1.23231 0
M  V30 372 C 32.6971 2.10383 0.173809 0
M  V30 373 O 32.0451 1.95583 1.18151 0
M  V30 374 C 32.2551 2.59933 -2.32886 0
M  V30 375 C 33.6031 3.27316 -2.70461 0
M  V30 376 O 34.6271 2.70228 -2.32068 0
M  V30 377 O 33.4861 4.30531 -3.36608 0
M  V30 378 H 30.5801 0.672803 -0.480901 0
M  V30 379 H 33.1261 0.807957 -1.49232 0
M  V30 380 H 31.8981 2.14842 -3.27045 0
M  V30 381 H 31.5211 3.38637 -2.08353 0
M  V30 382 N 32.5182 1.22032 0.997298 0
M  V30 383 C 33.7652 1.04222 1.73621 0
M  V30 384 C 34.0932 -0.423264 1.89839 0
M  V30 385 O 33.3482 -1.3302 1.43542 0
M  V30 386 C 33.6472 1.69345 3.14733 0
M  V30 387 C 33.3132 3.19226 3.18442 0
M  V30 388 C 31.9752 3.60124 3.19161 0
M  V30 389 C 34.3272 4.15181 3.15078 0
M  V30 390 C 31.6552 4.95467 3.14212 0
M  V30 391 C 34.0072 5.50495 3.1167 0
M  V30 392 C 32.6712 5.90779 3.10703 0
M  V30 393 H 31.9412 0.381374 0.635323 0
M  V30 394 H 34.5882 1.51732 1.16831 0
M  V30 395 H 32.8932 1.14147 3.74803 0
M  V30 396 H 34.5902 1.53059 3.7064 0
M  V30 397 H 31.1802 2.86659 3.18629 0
M  V30 398 H 35.3642 3.84605 3.13676 0
M  V30 399 H 30.6202 5.25916 3.11805 0
M  V30 400 H 34.7942 6.24576 3.08022 0
M  V30 401 H 32.4212 6.9562 3.06622 0
M  V30 402 N 33.9963 -1.19345 1.0293 0
M  V30 403 C 35.2213 -1.93538 0.745511 0
M  V30 404 C 35.6463 -1.75007 -0.689511 0
M  V30 405 O 35.0043 -1.05265 -1.47611 0
M  V30 406 C 35.0523 -3.43336 1.10239 0
M  V30 407 O 34.1563 -4.11806 0.221289 0
M  V30 408 H 33.4973 -0.604193 0.275404 0
M  V30 409 H 36.0273 -1.5141 1.37609 0
M  V30 410 H 36.0373 -3.94004 1.05947 0
M  V30 411 H 34.7123 -3.56146 2.14786 0
M  V30 412 H 33.2893 -3.715 0.322842 0
M  V30 413 N 35.4744 -0.807222 -1.35358 0
M  V30 414 C 36.7224 -0.387122 -1.98358 0
M  V30 415 C 37.0434 1.04942 -1.64354 0
M  V30 416 O 36.3134 1.72615 -0.926339 0
M  V30 417 H 34.8934 -0.140154 -0.733734 0
M  V30 418 H 37.5554 -1.0332 -1.6526 0
M  V30 419 H 36.6514 -0.493352 -3.08176 0
M  V30 420 N 36.9525 1.47285 -0.560781 0
M  V30 421 C 38.2015 2.01668 -0.035895 0
M  V30 422 C 38.5145 1.44021 1.32353 0
M  V30 423 O 39.7205 1.90088 1.93853 0
M  V30 424 C 38.1765 3.59897 -0.0136659 0
M  V30 425 C 37.7845 4.26536 -1.37006 0
M  V30 426 C 39.5285 4.22017 0.458425 0
M  V30 427 C 37.4355 5.76782 -1.30675 0
M  V30 428 H 36.3655 0.753938 -0.00964879 0
M  V30 429 H 39.0165 1.69243 -0.709166 0
M  V30 430 H 37.3985 3.89301 0.725325 0
M  V30 431 H 38.5725 4.0877 -2.12705 0
M  V30 432 H 36.8875 3.76419 -1.78038 0
M  V30 433 H 39.4845 5.32124 0.524247 0
M  V30 434 H 39.8275 3.89437 1.4712 0
M  V30 435 H 40.3605 3.97159 -0.225818 0
M  V30 436 H 37.0995 6.13988 -2.29564 0
M  V30 437 H 36.6195 5.96875 -0.591622 0
M  V30 438 H 38.2985 6.39063 -1.01033 0
M  V30 439 N 38.4306 0.297415 1.54768 0
M  V30 440 C 39.3776 -0.580276 2.23386 0
M  V30 441 C 40.3476 -1.13238 1.21517 0
M  V30 442 O 41.5326 -1.17757 1.50126 0
M  V30 443 C 38.6726 -1.74801 2.97555 0
M  V30 444 C 37.7856 -1.22764 4.1419 0
M  V30 445 C 36.9206 -2.35895 4.75949 0
M  V30 446 C 35.9596 -1.80974 5.84735 0
M  V30 447 N 35.0966 -2.87664 6.40464 0
M  V30 448 H 39.9366 0.0114833 2.97998 0
M  V30 449 H 37.4736 0.0174361 1.4709 0
M  V30 450 H 39.4316 -2.43475 3.38786 0
M  V30 451 H 38.0616 -2.31145 2.25326 0
M  V30 452 H 37.1136 -0.433271 3.77924 0
M  V30 453 H 38.4256 -0.785551 4.92575 0
M  V30 454 H 37.5796 -3.12523 5.20014 0
M  V30 455 H 36.3186 -2.83429 3.96887 0
M  V30 456 H 35.3236 -1.02834 5.40097 0
M  V30 457 H 36.5486 -1.34348 6.65678 0
M  V30 458 H 34.4946 -3.34538 5.64287 0
M  V30 459 H 34.4116 -2.4794 7.14186 0
M  V30 460 H 35.6796 -3.642 6.89187 0
M  V30 461 N 39.9087 -1.5758 0.0250728 0
M  V30 462 C 41.3247 -1.56124 -0.331282 0
M  V30 463 C 41.5247 -1.03029 -1.73169 0
M  V30 464 O 40.5807 -0.675215 -2.43305 0
M  V30 465 C 41.8937 -3.00139 -0.183584 0
M  V30 466 C 43.4417 -3.11946 -0.256654 0
M  V30 467 C 43.9167 -4.57793 -0.137792 0
M  V30 468 N 45.4077 -4.6279 -0.194904 0
M  V30 469 C 46.1427 -5.7326 -0.126655 0
M  V30 470 N 45.6387 -6.928 -0.00755288 0
M  V30 471 N 47.4317 -5.61811 -0.180348 0
M  V30 472 H 39.5827 -1.90424 0.94087 0
M  V30 473 H 41.8457 -0.875761 0.362968 0
M  V30 474 H 41.5517 -3.4292 0.780927 0
M  V30 475 H 41.4257 -3.64899 -0.955448 0
M  V30 476 H 43.8127 -2.69079 -1.21162 0
M  V30 477 H 43.8937 -2.49915 0.545517 0
M  V30 478 H 43.5377 -5.01339 0.813739 0
M  V30 479 H 43.4677 -5.17798 -0.958775 0
M  V30 480 H 45.9587 -3.76807 -0.287267 0
M  V30 481 H 46.2717 -7.72791 0.0379428 0
M  V30 482 H 44.6167 -6.94995 0.0271731 0
M  V30 483 H 47.8077 -4.6731 -0.271767 0
M  V30 484 H 47.9807 -6.47882 -0.123697 0
M  V30 485 N 41.3868 0.248026 -1.55636 0
M  V30 486 C 42.3168 1.31079 -1.93237 0
M  V30 487 C 43.2978 1.50264 -0.797174 0
M  V30 488 O 44.4828 1.62891 -1.05737 0
M  V30 489 C 41.6128 2.66575 -2.22609 0
M  V30 490 C 40.5668 2.62087 -3.3837 0
M  V30 491 C 39.8928 4.01369 -3.53281 0
M  V30 492 C 41.1928 2.19171 -4.7409 0
M  V30 493 H 42.8868 0.998556 -2.82257 0
M  V30 494 H 40.4328 0.47891 -1.35803 0
M  V30 495 H 42.3858 3.41057 -2.47503 0
M  V30 496 H 41.1098 2.99432 -1.30414 0
M  V30 497 H 39.7688 1.90063 -3.13483 0
M  V30 498 H 39.4168 4.31489 -2.58508 0
M  V30 499 H 39.1168 3.99254 -4.31127 0
M  V30 500 H 40.6408 4.77552 -3.80495 0
M  V30 501 H 42.0548 2.83384 -4.98363 0
M  V30 502 H 40.4518 2.2817 -5.5503 0
M  V30 503 H 41.5218 1.14336 -4.71227 0
M  V30 504 N 42.8649 1.48995 0.513639 0
M  V30 505 C 43.8279 1.64229 1.59879 0
M  V30 506 C 44.8279 0.514696 1.5234 0
M  V30 507 O 46.0179 0.78087 1.55718 0
M  V30 508 C 43.1499 1.62783 2.99524 0
M  V30 509 H 44.3429 2.61004 1.47705 0
M  V30 510 H 41.8959 1.37837 0.736936 0
M  V30 511 H 42.6309 0.675461 3.17188 0
M  V30 512 H 42.4159 2.4466 3.06404 0
M  V30 513 H 43.9059 1.76669 3.78388 0
M  V30 514 N 44.343 -0.763751 1.37857 0
M  V30 515 C 45.253 -1.90817 1.36478 0
M  V30 516 C 46.269 -1.71997 0.263248 0
M  V30 517 O 47.445 -1.95095 0.499979 0
M  V30 518 C 44.51 -3.2605 1.17864 0
M  V30 519 C 43.571 -3.57467 2.3773 0
M  V30 520 C 42.804 -4.86249 2.19995 0
M  V30 521 O 43.027 -5.57884 1.18836 0
M  V30 522 O 41.961 -5.16911 3.08361 0
M  V30 523 H 45.787 -1.94933 2.32884 0
M  V30 524 H 43.372 -0.907619 1.1867 0
M  V30 525 H 45.254 -4.06924 1.09504 0
M  V30 526 H 43.929 -3.22769 0.245372 0
M  V30 527 H 42.836 -2.76796 2.51664 0
M  V30 528 H 44.169 -3.655 3.29652 0
M  V30 529 N 45.8211 -1.22559 -0.990812 0
M  V30 530 C 47.0981 -0.959875 -1.70428 0
M  V30 531 C 47.4781 0.524455 -2.04481 0
M  V30 532 O 46.8261 1.49302 -1.72977 0
M  V30 533 C 47.0361 -1.85955 -2.95333 0
M  V30 534 C 48.3841 -2.11687 -3.68068 0
M  V30 535 O 49.4081 -1.8342 -3.05345 0
M  V30 536 O 48.2671 -2.59572 -4.80921 0
M  V30 537 H 45.3611 -0.361154 -0.743974 0
M  V30 538 H 47.9071 -1.33554 -1.04697 0
M  V30 539 H 46.6791 -2.86346 -2.66687 0
M  V30 540 H 46.3021 -1.4856 -3.68803 0
M  V30 541 N 47.2992 1.18797 -1.03562 0
M  V30 542 C 48.2322 2.2105 -0.56676 0
M  V30 543 C 49.2102 1.57704 0.395993 0
M  V30 544 O 50.3942 1.85908 0.311498 0
M  V30 545 C 47.5212 3.38259 0.172704 0
M  V30 546 C 46.5672 4.19987 -0.74252 0
M  V30 547 S 47.4002 4.87199 -2.22254 0
M  V30 548 C 48.5562 6.07813 -1.49379 0
M  V30 549 H 48.7892 2.60478 -1.43312 0
M  V30 550 H 46.3222 1.29151 -0.846133 0
M  V30 551 H 48.2802 4.06191 0.593191 0
M  V30 552 H 46.9412 2.97252 1.01488 0
M  V30 553 H 46.1342 5.03709 -0.171265 0
M  V30 554 H 45.7362 3.57408 -1.10163 0
M  V30 555 H 48.0282 6.72948 -0.784056 0
M  V30 556 H 48.9712 6.69435 -2.30786 0
M  V30 557 H 49.3792 5.55781 -0.988331 0
M  V30 558 N 48.7773 0.814389 1.34928 0
M  V30 559 C 49.7073 0.244827 2.32213 0
M  V30 560 C 50.6883 -0.634024 1.57842 0
M  V30 561 O 51.8733 -0.562676 1.8587 0
M  V30 562 C 49.0033 -0.601106 3.42058 0
M  V30 563 C 47.9573 0.179896 4.27622 0
M  V30 564 C 47.2833 -0.788237 5.28858 0
M  V30 565 C 48.5833 1.38329 5.03649 0
M  V30 566 H 50.2773 1.05763 2.80097 0
M  V30 567 H 47.8233 0.510029 1.34665 0
M  V30 568 H 49.7763 -1.00968 4.09125 0
M  V30 569 H 48.5003 -1.44688 2.92802 0
M  V30 570 H 47.1593 0.569739 3.62146 0
M  V30 571 H 46.8073 -1.62973 4.75866 0
M  V30 572 H 46.5073 -0.269942 5.8698 0
M  V30 573 H 48.0313 -1.19485 5.98795 0
M  V30 574 H 49.4453 1.04918 5.63618 0
M  V30 575 H 47.8423 1.83662 5.71304 0
M  V30 576 H 48.9123 2.16592 4.33839 0
M  V30 577 N 50.2554 -1.46986 0.568584 0
M  V30 578 C 51.1654 -2.33942 -0.17555 0
M  V30 579 C 52.1814 -1.48891 -0.90041 0
M  V30 580 O 53.3574 -1.81794 -0.86676 0
M  V30 581 C 50.4224 -3.25811 -1.18524 0
M  V30 582 C 49.4834 -4.26757 -0.466582 0
M  V30 583 C 48.7164 -5.14236 -1.42817 0
M  V30 584 O 48.9394 -5.04379 -2.66379 0
M  V30 585 O 47.8734 -5.94412 -0.946453 0
M  V30 586 H 51.6994 -2.98896 0.538036 0
M  V30 587 H 49.2844 -1.4573 0.329097 0
M  V30 588 H 51.1664 -3.82527 -1.76779 0
M  V30 589 H 49.8414 -2.63471 -1.88055 0
M  V30 590 H 48.7484 -3.73769 0.157451 0
M  V30 591 H 50.0814 -4.91843 0.187485 0
M  V30 592 N 51.7335 -0.305618 -1.54608 0
M  V30 593 C 52.9615 0.304775 -2.04643 0
M  V30 594 C 53.3765 1.47167 -1.18268 0
M  V30 595 O 52.7335 1.81296 -0.209328 0
M  V30 596 C 52.7845 0.756564 -3.53495 0
M  V30 597 O 52.5055 -0.36389 -4.36586 0
M  V30 598 C 54.0065 1.43163 -4.19546 0
M  V30 599 H 51.2265 0.0655481 -0.667791 0
M  V30 600 H 53.7705 -0.446592 -1.99564 0
M  V30 601 H 51.9255 1.45794 -3.58919 0
M  V30 602 H 52.3395 -0.0113121 -5.24499 0
M  V30 603 H 53.8135 1.69886 -5.25207 0
M  V30 604 H 54.2905 2.37318 -3.69563 0
M  V30 605 H 54.8965 0.773307 -4.18211 0
M  V30 606 N 53.2116 1.57565 -0.0334293 0
M  V30 607 C 54.1446 2.05997 0.981866 0
M  V30 608 C 55.1226 0.956647 1.3148 0
M  V30 609 O 56.3066 1.22729 1.43073 0
M  V30 610 C 53.4336 2.48564 2.30074 0
M  V30 611 C 52.4796 3.69958 2.12211 0
M  V30 612 S 53.3126 5.16414 1.41692 0
M  V30 613 C 54.4686 5.6228 2.7494 0
M  V30 614 H 54.7016 2.91792 0.569612 0
M  V30 615 H 52.2346 1.53366 0.178376 0
M  V30 616 H 54.1926 2.73753 3.05892 0
M  V30 617 H 52.8536 1.63106 2.68431 0
M  V30 618 H 52.0466 3.97603 3.09722 0
M  V30 619 H 51.6486 3.44943 1.44535 0
M  V30 620 H 53.9406 5.66783 3.71165 0
M  V30 621 H 54.8836 6.61759 2.51953 0
M  V30 622 H 55.2916 4.89944 2.80384 0
M  V30 623 N 54.6897 -0.239769 1.55765 0
M  V30 624 C 55.9367 -0.966801 1.7793 0
M  V30 625 C 56.2647 -1.85046 0.599015 0
M  V30 626 O 55.5197 -1.91197 -0.417395 0
M  V30 627 C 55.8187 -1.852 3.05672 0
M  V30 628 C 55.4847 -1.1231 4.36689 0
M  V30 629 C 54.1467 -0.921689 4.72291 0
M  V30 630 C 56.4987 -0.607019 5.17653 0
M  V30 631 C 53.8267 -0.191996 5.86386 0
M  V30 632 C 56.1787 0.109241 6.32506 0
M  V30 633 C 54.8427 0.322073 6.66723 0
M  V30 634 H 54.1127 -0.353778 0.651093 0
M  V30 635 H 56.7597 -0.23634 1.90036 0
M  V30 636 H 55.0647 -2.64975 2.8861 0
M  V30 637 H 56.7617 -2.41635 3.20021 0
M  V30 638 H 53.3517 -1.29004 4.08725 0
M  V30 639 H 57.5357 -0.750153 4.90598 0
M  V30 640 H 52.7917 -0.0166949 6.11398 0
M  V30 641 H 56.9657 0.516737 6.9448 0
M  V30 642 H 54.5927 0.88944 7.54979 0
M  V30 643 N 56.1678 -1.49265 -0.50573 0
M  V30 644 C 57.0778 -1.68312 -1.63427 0
M  V30 645 C 58.0938 -0.565682 -1.64548 0
M  V30 646 O 59.2698 -0.839801 -1.83055 0
M  V30 647 C 56.3348 -1.74107 -2.99813 0
M  V30 648 C 55.3958 -2.97653 -3.09356 0
M  V30 649 C 54.6288 -3.03163 -4.39236 0
M  V30 650 O 54.8518 -2.16396 -5.27758 0
M  V30 651 O 53.7858 -3.9558 -4.53652 0
M  V30 652 H 57.6118 -2.63907 -1.50289 0
M  V30 653 H 55.1968 -1.32951 -0.681502 0
M  V30 654 H 57.0788 -1.803 -3.80881 0
M  V30 655 H 55.7538 -0.816901 -3.13223 0
M  V30 656 H 54.6608 -2.96981 -2.27493 0
M  V30 657 H 55.9938 -3.89535 -3.00871 0
M  V30 658 N 57.6459 0.756429 -1.3826 0
M  V30 659 C 58.6089 1.85176 -1.35065 0
M  V30 660 C 59.6089 1.58818 -0.251703 0
M  V30 661 O 60.7989 1.66615 -0.508433 0
M  V30 662 C 57.9309 3.22596 -1.10201 0
M  V30 663 H 59.1239 1.89417 -2.3251 0
M  V30 664 H 56.6769 0.95783 -1.23512 0
M  V30 665 H 57.4119 3.24025 -0.133504 0
M  V30 666 H 57.1969 3.43122 -1.89762 0
M  V30 667 H 58.6869 4.02673 -1.10654 0
M  V30 668 N 59.124 1.23083 0.984299 0
M  V30 669 C 60.071 1.00854 2.07598 0
M  V30 670 C 61.041 -0.0726709 1.65941 0
M  V30 671 O 62.226 0.0786535 1.90638 0
M  V30 672 C 59.366 0.601645 3.39815 0
M  V30 673 C 58.479 1.75456 3.94765 0
M  V30 674 C 57.614 1.29482 5.15177 0
M  V30 675 C 56.653 2.41873 5.62284 0
M  V30 676 N 55.79 1.96885 6.73929 0
M  V30 677 H 60.63 1.943 2.25946 0
M  V30 678 H 58.167 0.968001 1.10762 0
M  V30 679 H 60.125 0.346854 4.15756 0
M  V30 680 H 58.755 -0.295803 3.21442 0
M  V30 681 H 57.807 2.12346 3.15616 0
M  V30 682 H 59.119 2.59965 4.25699 0
M  V30 683 H 58.273 0.997923 5.98437 0
M  V30 684 H 57.012 0.420046 4.85888 0
M  V30 685 H 56.017 2.72342 4.77608 0
M  V30 686 H 57.242 3.29881 5.93595 0
M  V30 687 H 55.188 1.11782 6.46406 0
M  V30 688 H 55.105 2.74956 7.04227 0
M  V30 689 H 56.373 1.70289 7.60672 0
M  V30 690 N 60.6021 -1.18246 1.0419 0
M  V30 691 C 61.8501 -1.87886 0.744543 0
M  V30 692 C 62.1711 -1.8082 -0.730006 0
M  V30 693 O 61.4411 -1.22736 -1.52685 0
M  V30 694 H 60.0211 -0.695556 0.272417 0
M  V30 695 H 62.6831 -1.43494 1.31892 0
M  V30 696 H 61.7791 -2.9389 1.05049 0
M  V30 697 N 62.0802 -0.821533 -1.34494 0
M  V30 698 C 63.3262 -0.409552 -1.98622 0
M  V30 699 C 63.6592 1.0244 -1.64984 0
M  V30 700 O 62.9342 1.71325 -0.920758 0
M  V30 701 C 63.2172 -0.610458 -3.54888 0
M  V30 702 C 63.0702 -2.09043 -3.98273 0
M  V30 703 C 64.3892 -0.0455379 -4.40076 0
M  V30 704 H 61.5082 -0.15028 -0.721516 0
M  V30 705 H 64.1502 -1.03384 -1.59411 0
M  V30 706 H 62.3002 -0.079044 -3.8842 0
M  V30 707 H 63.9722 -2.68537 -3.75081 0
M  V30 708 H 62.2152 -2.58139 -3.48635 0
M  V30 709 H 62.8862 -2.18182 -5.07051 0
M  V30 710 H 65.3622 -0.499557 -4.1309 0
M  V30 711 H 64.2382 -0.215922 -5.48475 0
M  V30 712 H 64.4992 1.04939 -4.29465 0
M  V30 713 N 63.5583 1.46682 -0.576371 0
M  V30 714 C 64.8063 2.02013 -0.0594163 0
M  V30 715 C 65.1273 1.45101 1.30271 0
M  V30 716 O 64.3973 0.633317 1.8538 0
M  V30 717 H 62.9773 0.746759 -0.0189745 0
M  V30 718 H 65.6393 1.79862 -0.750717 0
M  V30 719 H 64.7353 3.12097 0.014345 0
M  V30 720 N 65.0364 0.313813 1.54444 0
M  V30 721 C 65.9664 -0.549454 2.26943 0
M  V30 722 C 66.9474 -1.12741 1.27372 0
M  V30 723 O 68.1324 -1.15436 1.56167 0
M  V30 724 C 65.2624 -1.71523 3.01989 0
M  V30 725 C 64.2164 -1.26703 4.08816 0
M  V30 726 C 63.5424 -2.51898 4.71647 0
M  V30 727 C 64.8424 -0.388962 5.2085 0
M  V30 728 H 66.5364 0.0552661 2.99349 0
M  V30 729 H 64.0824 0.0280207 1.43973 0
M  V30 730 H 66.0354 -2.32535 3.51433 0
M  V30 731 H 64.7594 -2.34639 2.27183 0
M  V30 732 H 63.4184 -0.679896 3.6024 0
M  V30 733 H 63.0664 -3.13356 3.93468 0
M  V30 734 H 62.7664 -2.22605 5.43802 0
M  V30 735 H 64.2904 -3.1369 5.23861 0
M  V30 736 H 65.7044 -0.905107 5.6611 0
M  V30 737 H 64.1014 -0.18924 5.99802 0
M  V30 738 H 65.1714 0.582699 4.81386 0
M  V30 739 N 66.5145 -1.57545 0.0417849 0
M  V30 740 C 67.4775 -2.09885 -0.92093 0
M  V30 741 C 68.4775 -1.01648 -1.24596 0
M  V30 742 O 69.6675 -1.27759 -1.1842 0
M  V30 743 C 66.7995 -2.57527 -2.23367 0
M  V30 744 H 67.9925 -2.96236 -0.467382 0
M  V30 745 H 65.5455 -1.5493 -0.206467 0
M  V30 746 H 66.2805 -1.74542 -2.73323 0
M  V30 747 H 66.0655 -3.36613 -2.01083 0
M  V30 748 H 67.5555 -2.98201 -2.92346 0
M  V30 749 N 67.9926 0.231505 -1.5589 0
M  V30 750 C 68.9556 1.27028 -1.90779 0
M  V30 751 C 69.9556 1.40308 -0.785507 0
M  V30 752 O 71.1456 1.38744 -1.05336 0
M  V30 753 C 68.2776 2.64566 -2.14983 0
M  V30 754 H 69.4706 0.973017 -2.83677 0
M  V30 755 H 67.0236 0.471486 -1.49019 0
M  V30 756 H 67.7586 2.99406 -1.24604 0
M  V30 757 H 67.5436 2.56305 -2.96732 0
M  V30 758 H 69.0336 3.39543 -2.43105 0
M  V30 759 N 69.4707 1.49531 0.497807 0
M  V30 760 C 70.8817 1.52344 1.07927 0
M  V30 761 C 71.2327 0.311469 1.93712 0
M  V30 762 O 70.3577 -0.578405 2.08527 0
M  V30 763 C 70.9527 2.76062 1.96405 0
M  V30 764 C 69.5117 2.81643 2.49709 0
M  V30 765 C 68.6587 2.46299 1.27404 0
M  V30 766 H 71.6097 1.56182 0.281576 0
M  V30 767 H 71.6307 2.56405 2.81135 0
M  V30 768 H 71.1427 3.64254 1.33943 0
M  V30 769 H 69.2437 1.97739 3.15801 0
M  V30 770 H 69.3567 3.83891 2.86643 0
M  V30 771 H 67.7207 1.98148 1.60029 0
M  V30 772 H 68.5037 3.36769 0.66645 0
M  V30 773 N 70.9488 -0.749086 1.3866 0
M  V30 774 C 71.8808 -1.87273 1.32142 0
M  V30 775 C 72.8938 -1.61127 0.232787 0
M  V30 776 O 74.0828 -1.71623 0.49069 0
M  V30 777 C 71.1828 -3.23005 1.02571 0
M  V30 778 C 70.3558 -3.7662 2.22433 0
M  V30 779 C 69.4148 -4.90879 1.89537 0
M  V30 780 O 68.4408 -5.05276 2.62078 0
M  V30 781 N 69.6428 -5.74198 0.853031 0
M  V30 782 H 72.4078 -1.93373 2.28969 0
M  V30 783 H 69.9688 -0.929216 1.32579 0
M  V30 784 H 71.9608 -3.96992 0.786085 0
M  V30 785 H 70.5308 -3.12262 0.145249 0
M  V30 786 H 69.7508 -2.94147 2.62434 0
M  V30 787 H 71.0388 -4.09173 3.02415 0
M  V30 788 H 70.4368 -5.6514 0.25155 0
M  V30 789 H 68.9938 -6.48313 0.67329 0
M  V30 790 N 72.4269 -1.23603 -0.977757 0
M  V30 791 C 73.6759 -1.06377 -1.71368 0
M  V30 792 C 73.9889 0.399062 -1.91486 0
M  V30 793 O 75.1949 0.691312 -2.62551 0
M  V30 794 C 73.6509 -1.85512 -3.08404 0
M  V30 795 C 73.2589 -3.36141 -2.96164 0
M  V30 796 C 75.0029 -1.76783 -3.85938 0
M  V30 797 C 72.9099 -4.07659 -4.28449 0
M  V30 798 H 71.8399 -0.394452 -0.642591 0
M  V30 799 H 74.4909 -1.47594 -1.09034 0
M  V30 800 H 72.8729 -1.37103 -3.71509 0
M  V30 801 H 74.0469 -3.92056 -2.42133 0
M  V30 802 H 72.3619 -3.45712 -2.32104 0
M  V30 803 H 74.9589 -2.27526 -4.83876 0
M  V30 804 H 75.3019 -0.731116 -4.0983 0
M  V30 805 H 75.8349 -2.22818 -3.2954 0
M  V30 806 H 72.5739 -5.11648 -4.09752 0
M  V30 807 H 72.0939 -3.5653 -4.82334 0
M  V30 808 H 73.7729 -4.141 -4.97122 0
M  V30 809 N 73.905 1.17692 -1.04816 0
M  V30 810 C 75.153 1.87488 -0.754497 0
M  V30 811 C 75.474 1.81205 0.720407 0
M  V30 812 O 74.744 1.23544 1.52032 0
M  V30 813 H 73.324 0.694101 -0.276102 0
M  V30 814 H 75.986 1.42793 -1.32651 0
M  V30 815 H 75.082 2.93328 -1.06606 0
M  V30 816 N 75.3831 0.828654 1.34056 0
M  V30 817 C 76.3131 0.269443 2.3194 0
M  V30 818 C 77.2941 -0.617247 1.58506 0
M  V30 819 O 78.4791 -0.542931 1.86456 0
M  V30 820 C 75.6091 -0.564793 3.42677 0
M  V30 821 C 74.5631 0.225241 4.27407 0
M  V30 822 C 73.8891 -0.7321 5.29664 0
M  V30 823 C 75.1891 1.43663 5.02154 0
M  V30 824 H 76.8831 1.08728 2.7896 0
M  V30 825 H 74.4291 0.524283 1.34117 0
M  V30 826 H 76.3821 -0.966233 4.10173 0
M  V30 827 H 75.1061 -1.41574 2.9432 0
M  V30 828 H 73.7651 0.608117 3.61521 0
M  V30 829 H 73.4131 -1.57916 4.77568 0
M  V30 830 H 73.1131 -0.20767 5.87233 0
M  V30 831 H 74.6371 -1.13128 6.00029 0
M  V30 832 H 76.0511 1.1089 5.62473 0
M  V30 833 H 74.4481 1.89711 5.69324 0
M  V30 834 H 75.5181 2.21181 4.31517 0
M  V30 835 N 76.8612 -1.46375 0.584142 0
M  V30 836 C 78.0862 -2.07268 0.0740405 0
M  V30 837 C 78.5112 -1.42979 -1.22223 0
M  V30 838 O 77.8692 -0.514092 -1.73859 0
M  V30 839 C 77.9172 -3.60518 -0.0767769 0
M  V30 840 O 77.0212 -3.96533 -1.13292 0
M  V30 841 H 76.3622 -0.660961 0.0634524 0
M  V30 842 H 78.8922 -1.87991 0.807492 0
M  V30 843 H 78.9022 -4.07021 -0.282489 0
M  V30 844 H 77.5772 -4.06702 0.86986 0
M  V30 845 H 76.1542 -3.61738 -0.905553 0
M  V30 846 N 78.3393 -0.321999 -1.54275 0
M  V30 847 C 79.2713 0.578671 -2.21775 0
M  V30 848 C 80.2843 1.08109 -1.21722 0
M  V30 849 O 81.4733 0.994938 -1.482 0
M  V30 850 C 78.5733 1.80661 -2.86731 0
M  V30 851 C 77.7463 1.44314 -4.12907 0
M  V30 852 C 76.8053 2.52845 -4.61472 0
M  V30 853 O 75.8313 2.17054 -5.2619 0
M  V30 854 N 77.0333 3.83748 -4.35566 0
M  V30 855 H 79.7983 0.000709447 -2.997 0
M  V30 856 H 77.3593 -0.145132 -1.61248 0
M  V30 857 H 79.3513 2.52655 -3.16145 0
M  V30 858 H 77.9213 2.29245 -2.12521 0
M  V30 859 H 77.1413 0.554906 -3.90275 0
M  V30 860 H 78.4293 1.17598 -4.95023 0
M  V30 861 H 77.8273 4.15625 -3.83761 0
M  V30 862 H 76.3843 4.51977 -4.69638 0
M  V30 863 N 79.8174 1.5752 -0.0501392 0
M  V30 864 C 81.2334 1.56631 0.306402 0
M  V30 865 C 81.4334 1.0577 1.71508 0
M  V30 866 O 80.4894 0.713837 2.422 0
M  V30 867 C 81.8024 3.00393 0.135811 0
M  V30 868 C 83.3504 3.12315 0.206993 0
M  V30 869 C 83.8254 4.57954 0.064944 0
M  V30 870 N 85.3164 4.63041 0.121254 0
M  V30 871 C 86.0514 5.73389 0.0354381 0
M  V30 872 N 85.5474 6.92724 -0.102666 0
M  V30 873 N 87.3404 5.62026 0.090946 0
M  V30 874 H 79.4914 1.88903 -0.971046 0
M  V30 875 H 81.7544 0.869876 -0.376855 0
M  V30 876 H 81.4604 3.41635 -0.835384 0
M  V30 877 H 81.3344 3.66373 0.897275 0
M  V30 878 H 83.7214 2.70973 1.16866 0
M  V30 879 H 83.8024 2.49016 -0.585208 0
M  V30 880 H 83.4464 4.99981 -0.893394 0
M  V30 881 H 83.3764 5.19258 0.876277 0
M  V30 882 H 85.8674 3.77216 0.227284 0
M  V30 883 H 86.1804 7.72633 -0.160882 0
M  V30 884 H 84.5254 6.94864 -0.137737 0
M  V30 885 H 87.7164 4.67684 0.197388 0
M  V30 886 H 87.8894 6.47997 0.0206089 0
M  V30 887 N 81.2955 -0.223234 1.56011 0
M  V30 888 C 82.2255 -1.27988 1.95298 0
M  V30 889 C 83.2065 -1.48976 0.820979 0
M  V30 890 O 84.3915 -1.61188 1.08315 0
M  V30 891 C 81.5215 -2.63 2.26822 0
M  V30 892 C 80.4755 -2.56671 3.42497 0
M  V30 893 C 79.8015 -3.95697 3.59622 0
M  V30 894 C 81.1015 -2.11601 4.77517 0
M  V30 895 H 82.7955 -0.953525 2.8381 0
M  V30 896 H 80.3415 -0.457244 1.36548 0
M  V30 897 H 82.2945 -3.37077 2.52898 0
M  V30 898 H 81.0185 -2.9732 1.35161 0
M  V30 899 H 79.6775 -1.85051 3.16467 0
M  V30 900 H 79.3255 -4.27322 2.6534 0
M  V30 901 H 79.0255 -3.92345 4.37424 0
M  V30 902 H 80.5495 -4.71438 3.88044 0
M  V30 903 H 81.9635 -2.7542 5.02809 0
M  V30 904 H 80.3605 -2.19311 5.5859 0
M  V30 905 H 81.4305 -1.06824 4.72987 0
M  V30 906 N 82.7736 -1.49793 -0.48987 0
M  V30 907 C 84.0206 -1.59841 -1.24327 0
M  V30 908 C 84.3486 -0.290135 -1.92324 0
M  V30 909 O 83.6036 0.722749 -1.81865 0
M  V30 910 C 83.9026 -2.71488 -2.32441 0
M  V30 911 C 83.5686 -4.12614 -1.81826 0
M  V30 912 C 82.2306 -4.51017 -1.67742 0
M  V30 913 C 84.5826 -5.00892 -1.4407 0
M  V30 914 C 81.9106 -5.75459 -1.14297 0
M  V30 915 C 84.2626 -6.25863 -0.920742 0
M  V30 916 C 82.9266 -6.63086 -0.766383 0
M  V30 917 H 82.1966 -0.584899 -0.454944 0
M  V30 918 H 84.8436 -1.83663 -0.542215 0
M  V30 919 H 83.1486 -2.4168 -3.0838 0
M  V30 920 H 84.8456 -2.76469 -2.90458 0
M  V30 921 H 81.4356 -3.82307 -1.93751 0
M  V30 922 H 85.6196 -4.7187 -1.53794 0
M  V30 923 H 80.8756 -6.02989 -1.01068 0
M  V30 924 H 85.0496 -6.9364 -0.619448 0
M  V30 925 H 82.6766 -7.59393 -0.350083 0
M  V30 926 N 84.2517 0.741722 -1.39055 0
M  V30 927 C 85.4977 1.50336 -1.36113 0
M  V30 928 C 85.8307 1.94148 0.0450796 0
M  V30 929 O 85.1057 1.66301 1.00868 0
M  V30 930 C 85.3887 2.74773 -2.32749 0
M  V30 931 C 85.2417 2.37023 -3.82283 0
M  V30 932 C 86.5607 3.76846 -2.27322 0
M  V30 933 H 83.6797 0.545351 -0.495743 0
M  V30 934 H 86.3217 0.848624 -1.69995 0
M  V30 935 H 84.4717 3.30639 -2.03986 0
M  V30 936 H 86.1437 1.8684 -4.21768 0
M  V30 937 H 84.3867 1.69334 -3.99385 0
M  V30 938 H 85.0577 3.26104 -4.45376 0
M  V30 939 H 87.5337 3.30548 -2.5274 0
M  V30 940 H 86.4097 4.6159 -2.97028 0
M  V30 941 H 86.6707 4.23286 -1.27599 0
M  V30 942 N 85.7298 1.2412 0.971189 0
M  V30 943 C 86.6928 1.03156 2.04674 0
M  V30 944 C 87.6928 -0.00990322 1.60797 0
M  V30 945 O 88.8828 0.230729 1.72665 0
M  V30 946 C 86.0148 0.562765 3.36223 0
M  V30 947 H 87.2078 1.98614 2.24705 0
M  V30 948 H 84.7608 1.06293 1.14593 0
M  V30 949 H 85.4958 -0.395176 3.21883 0
M  V30 950 H 85.2808 1.31441 3.69413 0
M  V30 951 H 86.7708 0.437015 4.15307 0
M  V30 952 N 87.2079 -1.17134 1.05439 0
M  V30 953 C 88.4539 -1.87733 0.767077 0
M  V30 954 C 88.7869 -1.8098 -0.704253 0
M  V30 955 O 88.0619 -1.21951 -1.5152 0
M  V30 956 C 88.3449 -3.37659 1.25133 0
M  V30 957 C 88.1979 -3.53149 2.78578 0
M  V30 958 C 89.5169 -4.31768 0.852324 0
M  V30 959 H 86.6359 -0.681687 0.280129 0
M  V30 960 H 89.2779 -1.37732 1.30881 0
M  V30 961 H 87.4279 -3.80373 0.790469 0
M  V30 962 H 89.0999 -3.19434 3.32806 0
M  V30 963 H 87.3429 -2.95345 3.17732 0
M  V30 964 H 88.0139 -4.58403 3.07523 0
M  V30 965 H 90.4899 -3.96909 1.24911 0
M  V30 966 H 89.3659 -5.35199 1.21873 0
M  V30 967 H 89.6269 -4.41429 -0.243485 0
M  V30 968 N 88.686 -0.835752 -1.33615 0
M  V30 969 C 89.596 -0.269088 -2.33052 0
M  V30 970 C 90.612 0.603251 -1.63208 0
M  V30 971 O 91.788 0.508112 -1.94885 0
M  V30 972 C 88.853 0.549091 -3.42324 0
M  V30 973 C 87.914 -0.347156 -4.27894 0
M  V30 974 C 87.147 0.43207 -5.31948 0
M  V30 975 O 87.37 1.66409 -5.45586 0
M  V30 976 O 86.304 -0.192298 -6.01593 0
M  V30 977 H 90.13 -1.09243 -2.83372 0
M  V30 978 H 87.715 -0.598198 -1.36901 0
M  V30 979 H 89.597 1.01414 -4.09015 0
M  V30 980 H 88.272 1.34955 -2.94226 0
M  V30 981 H 87.179 -0.859979 -3.64081 0
M  V30 982 H 88.512 -1.1123 -4.79467 0
M  V30 983 N 90.1641 1.46063 -0.591896 0
M  V30 984 C 91.3941 2.06418 -0.0867676 0
M  V30 985 C 91.8021 1.43975 1.22751 0
M  V30 986 O 91.1451 0.542531 1.75506 0
M  V30 987 C 91.2071 3.59213 0.143725 0
M  V30 988 C 90.8711 4.439 -1.08635 0
M  V30 989 C 91.8681 4.79864 -2.00067 0
M  V30 990 C 89.5531 4.84896 -1.31077 0
M  V30 991 C 91.5471 5.55661 -3.12282 0
M  V30 992 C 89.2341 5.6045 -2.43596 0
M  V30 993 C 90.2321 5.95747 -3.34027 0
M  V30 994 O 89.9201 6.69772 -4.4459 0
M  V30 995 H 89.6521 0.673443 -0.0587447 0
M  V30 996 H 92.2061 1.88539 -0.814994 0
M  V30 997 H 90.4361 3.75433 0.926668 0
M  V30 998 H 92.1251 4.01463 0.5985 0
M  V30 999 H 92.8911 4.48763 -1.83947 0
M  V30 1000 H 88.7701 4.56867 -0.61594 0
M  V30 1001 H 92.3141 5.8313 -3.82891 0
M  V30 1002 H 88.2111 5.90965 -2.59674 0
M  V30 1003 H 88.9791 6.88207 -4.43073 0
M  V30 1004 N 91.6422 0.330177 1.54103 0
M  V30 1005 C 92.6052 -0.520144 2.2322 0
M  V30 1006 C 93.6052 -1.03828 1.22786 0
M  V30 1007 O 94.7952 -0.929652 1.4732 0
M  V30 1008 C 91.9272 -1.72317 2.94142 0
M  V30 1009 H 93.1202 0.0841605 2.99782 0
M  V30 1010 H 90.6732 0.0813433 1.56088 0
M  V30 1011 H 91.4082 -2.36653 2.21734 0
M  V30 1012 H 91.1932 -1.35898 3.67796 0
M  V30 1013 H 92.6832 -2.3266 3.46784 0
M  V30 1014 N 93.1203 -1.57491 0.0584922 0
M  V30 1015 C 94.3973 -1.84346 -0.653918 0
M  V30 1016 C 94.7773 -0.948355 -1.88599 0
M  V30 1017 O 94.1253 -0.0112403 -2.28497 0
M  V30 1018 C 94.3353 -3.34239 -1.00425 0
M  V30 1019 C 95.6833 -4.01431 -1.38342 0
M  V30 1020 O 96.7073 -3.38907 -1.09637 0
M  V30 1021 O 95.5663 -5.11683 -1.91943 0
M  V30 1022 H 92.6603 -0.761112 -0.323478 0
M  V30 1023 H 95.2063 -1.6947 0.0884125 0
M  V30 1024 H 93.9783 -3.91089 -0.128625 0
M  V30 1025 H 93.6013 -3.54329 -1.80378 0
M  V30 1026 N 94.5984 0.214957 -1.56127 0
M  V30 1027 C 95.5084 1.28727 -1.96129 0
M  V30 1028 C 96.5244 1.50916 -0.866044 0
M  V30 1029 O 97.7004 1.63918 -1.17016 0
M  V30 1030 C 94.7654 2.61569 -2.27558 0
M  V30 1031 C 93.8264 2.47625 -3.50685 0
M  V30 1032 C 93.0594 3.74132 -3.80606 0
M  V30 1033 O 93.2824 4.77438 -3.12104 0
M  V30 1034 O 92.2164 3.70849 -4.74083 0
M  V30 1035 H 96.0424 0.977855 -2.87527 0
M  V30 1036 H 93.6274 0.418358 -1.43423 0
M  V30 1037 H 95.5094 3.40012 -2.48938 0
M  V30 1038 H 94.1844 2.92178 -1.39332 0
M  V30 1039 H 93.0914 1.67361 -3.34576 0
M  V30 1040 H 94.4244 2.21954 -4.39315 0
M  V30 1041 N 96.0765 1.50051 0.48192 0
M  V30 1042 C 97.4875 1.5348 1.06305 0
M  V30 1043 C 97.8385 0.331997 1.93371 0
M  V30 1044 O 96.9635 -0.556256 2.09129 0
M  V30 1045 C 97.5585 2.7813 1.93466 0
M  V30 1046 C 96.1175 2.84275 2.46707 0
M  V30 1047 C 95.2645 2.47637 1.24785 0
M  V30 1048 H 98.2155 1.56472 0.264995 0
M  V30 1049 H 98.2365 2.59372 2.78399 0
M  V30 1050 H 97.7485 3.65654 1.30072 0
M  V30 1051 H 95.8495 2.01077 3.13686 0
M  V30 1052 H 95.9625 3.8691 2.82555 0
M  V30 1053 H 94.3265 1.99835 1.57918 0
M  V30 1054 H 95.1095 3.37457 0.630694 0
M  V30 1055 N 97.5546 -0.734337 1.39446 0
M  V30 1056 C 98.4646 -1.87879 1.40495 0
M  V30 1057 C 99.4806 -1.714 0.299672 0
M  V30 1058 O 100.657 -1.93991 0.541249 0
M  V30 1059 C 97.7216 -3.23477 1.24754 0
M  V30 1060 C 96.7826 -3.52344 2.45259 0
M  V30 1061 C 96.0156 -4.81473 2.30259 0
M  V30 1062 O 96.2386 -5.55237 1.30643 0
M  V30 1063 O 95.1726 -5.10254 3.19256 0
M  V30 1064 H 98.9986 -1.89949 2.36966 0
M  V30 1065 H 96.5836 -0.882243 1.20569 0
M  V30 1066 H 98.4656 -4.04509 1.18111 0
M  V30 1067 H 97.1406 -3.22176 0.313781 0
M  V30 1068 H 96.0476 -2.71396 2.57478 0
M  V30 1069 H 97.3806 -3.58426 3.37331 0
M  V30 1070 N 99.0327 -1.24633 -0.964593 0
M  V30 1071 C 100.281 -1.08573 -1.70459 0
M  V30 1072 C 100.602 0.375655 -1.91347 0
M  V30 1073 O 99.8717 1.26779 -1.49345 0
M  V30 1074 H 98.4517 -0.398784 -0.631649 0
M  V30 1075 H 101.114 -1.56601 -1.16026 0
M  V30 1076 H 100.21 -1.58623 -2.68785 0
M  V30 1077 N 100.511 1.16574 -1.06058 0
M  V30 1078 C 101.421 2.2452 -0.680282 0
M  V30 1079 C 102.437 1.71348 0.302604 0
M  V30 1080 O 103.613 2.00822 0.152513 0
M  V30 1081 C 100.678 3.46629 -0.0700315 0
M  V30 1082 C 99.7388 4.14849 -1.10448 0
M  V30 1083 C 98.9718 5.31129 -0.523256 0
M  V30 1084 O 99.1948 5.66514 0.664709 0
M  V30 1085 O 98.1288 5.88526 -1.26179 0
M  V30 1086 H 101.955 2.59355 -1.58015 0
M  V30 1087 H 99.5398 1.24043 -0.832694 0
M  V30 1088 H 101.422 4.20543 0.268667 0
M  V30 1089 H 100.097 3.13573 0.803353 0
M  V30 1090 H 99.0038 3.42916 -1.49532 0
M  V30 1091 H 100.337 4.51954 -1.94931 0
M  V30 1092 N 101.989 0.842826 1.3317 0
M  V30 1093 C 102.899 0.281444 2.32906 0
M  V30 1094 C 103.915 -0.594587 1.63526 0
M  V30 1095 O 105.091 -0.49777 1.95152 0
M  V30 1096 C 102.156 -0.530929 3.42611 0
M  V30 1097 C 101.217 0.369843 4.27704 0
M  V30 1098 C 100.45 -0.403853 5.3217 0
M  V30 1099 O 100.673 -1.63513 5.46461 0
M  V30 1100 O 99.6069 0.224199 6.01482 0
M  V30 1101 H 103.433 1.10744 2.82789 0
M  V30 1102 H 101.018 0.60545 1.36582 0
M  V30 1103 H 102.9 -0.992437 4.09547 0
M  V30 1104 H 101.575 -1.33392 2.94938 0
M  V30 1105 H 100.482 0.879275 3.6362 0
M  V30 1106 H 101.815 1.13771 4.78871 0
M  V30 1107 N 103.467 -1.45747 0.599634 0
M  V30 1108 C 104.377 -2.34262 -0.125888 0
M  V30 1109 C 105.393 -1.50768 -0.868625 0
M  V30 1110 O 106.569 -1.83592 -0.828003 0
M  V30 1111 C 103.634 -3.28252 -1.11587 0
M  V30 1112 C 102.695 -4.27651 -0.375956 0
M  V30 1113 C 101.928 -5.1715 -1.31877 0
M  V30 1114 O 102.151 -5.09916 -2.55621 0
M  V30 1115 O 101.085 -5.96286 -0.820157 0
M  V30 1116 H 104.911 -2.97688 0.601315 0
M  V30 1117 H 102.496 -1.44999 0.359934 0
M  V30 1118 H 104.378 -3.86191 -1.68626 0
M  V30 1119 H 103.053 -2.67401 -1.82424 0
M  V30 1120 H 101.96 -3.7335 0.236698 0
M  V30 1121 H 103.293 -4.91334 0.29177 0
M  V30 1122 N 104.945 -0.338344 -1.53925 0
M  V30 1123 C 106.361 0.0137736 -1.59594 0
M  V30 1124 C 106.561 1.49186 -1.35447 0
M  V30 1125 O 105.617 2.24987 -1.14616 0
M  V30 1126 C 106.93 -0.41773 -2.97784 0
M  V30 1127 C 108.478 -0.369633 -3.1081 0
M  V30 1128 C 108.953 -0.776524 -4.51369 0
M  V30 1129 N 110.444 -0.730506 -4.57403 0
M  V30 1130 C 111.179 -1.01736 -5.64303 0
M  V30 1131 N 110.675 -1.3721 -6.79077 0
M  V30 1132 N 112.468 -0.941942 -5.54151 0
M  V30 1133 H 104.619 -1.3012 -1.67876 0
M  V30 1134 H 106.882 -0.530082 -0.78595 0
M  V30 1135 H 106.588 -1.44811 -3.20504 0
M  V30 1136 H 106.462 0.209729 -3.76616 0
M  V30 1137 H 108.849 0.651568 -2.87817 0
M  V30 1138 H 108.93 -1.03223 -2.34049 0
M  V30 1139 H 108.574 -1.79571 -4.75096 0
M  V30 1140 H 108.504 -0.0914649 -5.26521 0
M  V30 1141 H 110.995 -0.468783 -3.74981 0
M  V30 1142 H 111.308 -1.57597 -7.5656 0
M  V30 1143 H 109.653 -1.4105 -6.80536 0
M  V30 1144 H 112.844 -0.664184 -4.63364 0
M  V30 1145 H 113.017 -1.16884 -6.37371 0
M  V30 1146 N 106.423 1.57458 -0.0668435 0
M  V30 1147 C 107.834 1.80776 0.466558 0
M  V30 1148 C 108.185 0.980361 1.69951 0
M  V30 1149 O 107.31 0.201441 2.1546 0
M  V30 1150 C 107.905 3.27881 0.85321 0
M  V30 1151 C 106.464 3.52062 1.3315 0
M  V30 1152 C 105.611 2.75513 0.314264 0
M  V30 1153 H 108.562 1.5598 -0.292588 0
M  V30 1154 H 108.583 3.39659 1.715 0
M  V30 1155 H 108.095 3.88075 -0.0443439 0
M  V30 1156 H 106.196 2.97167 2.24772 0
M  V30 1157 H 106.309 4.60762 1.31285 0
M  V30 1158 H 104.673 2.42123 0.790492 0
M  V30 1159 H 105.456 3.38442 -0.575477 0
M  V30 1160 N 107.901 -0.206675 1.56239 0
M  V30 1161 C 108.831 -1.25909 1.96645 0
M  V30 1162 C 109.812 -1.48097 0.836734 0
M  V30 1163 O 110.997 -1.6003 1.10019 0
M  V30 1164 C 108.127 -2.6058 2.29599 0
M  V30 1165 C 107.081 -2.53024 3.452 0
M  V30 1166 C 106.407 -3.91861 3.63798 0
M  V30 1167 C 107.707 -2.06524 4.79734 0
M  V30 1168 H 109.401 -0.923369 2.84806 0
M  V30 1169 H 106.947 -0.442735 1.37025 0
M  V30 1170 H 108.9 -3.34375 2.56459 0
M  V30 1171 H 107.624 -2.95869 1.38307 0
M  V30 1172 H 106.283 -1.81684 3.18412 0
M  V30 1173 H 105.931 -4.24483 2.69857 0
M  V30 1174 H 105.631 -3.87683 4.4156 0
M  V30 1175 H 107.155 -4.67296 3.93022 0
M  V30 1176 H 108.569 -2.70072 5.05702 0
M  V30 1177 H 106.966 -2.13374 5.60885 0
M  V30 1178 H 108.036 -1.01802 4.74093 0
M  V30 1179 N 109.379 -1.50304 -0.473955 0
M  V30 1180 C 110.795 -1.37667 -0.807466 0
M  V30 1181 C 110.995 -0.430555 -1.96846 0
M  V30 1182 O 110.051 0.127874 -2.52176 0
M  V30 1183 C 111.364 -2.78974 -1.12223 0
M  V30 1184 C 112.912 -2.87868 -1.22885 0
M  V30 1185 C 113.387 -4.30003 -1.57676 0
M  V30 1186 N 114.878 -4.3294 -1.64673 0
M  V30 1187 C 115.613 -5.3991 -1.93091 0
M  V30 1188 N 115.109 -6.57092 -2.1955 0
M  V30 1189 N 116.902 -5.27351 -1.94569 0
M  V30 1190 H 109.053 -2.10394 0.291212 0
M  V30 1191 H 111.316 -0.945575 0.0677609 0
M  V30 1192 H 111.022 -3.50031 -0.342229 0
M  V30 1193 H 110.896 -3.16038 -2.05913 0
M  V30 1194 H 113.283 -2.17032 -1.99953 0
M  V30 1195 H 113.364 -2.54352 -0.271814 0
M  V30 1196 H 113.008 -5.01375 -0.81149 0
M  V30 1197 H 112.938 -4.61004 -2.54525 0
M  V30 1198 H 115.429 -3.48441 -1.46277 0
M  V30 1199 H 115.742 -7.34425 -2.405 0
M  V30 1200 H 114.087 -6.60272 -2.16948 0
M  V30 1201 H 117.278 -4.34801 -1.73394 0
M  V30 1202 H 117.451 -6.10805 -2.16381 0
M  V30 1203 N 110.857 0.726932 -1.39834 0
M  V30 1204 C 111.767 1.87131 -1.41489 0
M  V30 1205 C 112.783 1.71239 -0.308757 0
M  V30 1206 O 113.959 1.93701 -0.551529 0
M  V30 1207 C 111.024 3.22811 -1.26468 0
M  V30 1208 C 110.085 3.51039 -2.47124 0
M  V30 1209 C 109.318 4.80245 -2.3281 0
M  V30 1210 O 109.541 5.54537 -1.33585 0
M  V30 1211 O 108.475 5.08554 -3.21957 0
M  V30 1212 H 112.301 1.8869 -2.3797 0
M  V30 1213 H 109.886 0.875837 -1.21035 0
M  V30 1214 H 111.768 4.03877 -1.20255 0
M  V30 1215 H 110.443 3.22005 -0.330862 0
M  V30 1216 H 109.35 2.70027 -2.58914 0
M  V30 1217 H 110.683 3.56632 -3.39227 0
M  V30 1218 N 112.336 1.25143 0.95797 0
M  V30 1219 C 113.266 1.07711 2.07173 0
M  V30 1220 C 114.247 -0.0128462 1.70095 0
M  V30 1221 O 115.432 0.156061 1.93572 0
M  V30 1222 C 112.562 0.691503 3.40346 0
M  V30 1223 C 111.516 1.73132 3.9142 0
M  V30 1224 C 110.842 1.20049 5.21049 0
M  V30 1225 C 112.142 3.1294 4.1817 0
M  V30 1226 H 113.836 2.00873 2.22014 0
M  V30 1227 H 111.382 0.967191 1.06684 0
M  V30 1228 H 113.335 0.556505 4.17709 0
M  V30 1229 H 112.059 -0.275819 3.25433 0
M  V30 1230 H 110.718 1.8547 3.16222 0
M  V30 1231 H 110.366 0.223499 5.02503 0
M  V30 1232 H 110.066 1.89545 5.56189 0
M  V30 1233 H 111.59 1.07782 6.01012 0
M  V30 1234 H 113.004 3.03775 4.86203 0
M  V30 1235 H 111.401 3.79875 4.64559 0
M  V30 1236 H 112.471 3.6025 3.24573 0
M  V30 1237 N 113.814 -1.1601 1.06675 0
M  V30 1238 C 115.06 -1.86909 0.786945 0
M  V30 1239 C 115.393 -1.81717 -0.685018 0
M  V30 1240 O 114.668 -1.23551 -1.50218 0
M  V30 1241 C 114.951 -3.36313 1.28707 0
M  V30 1242 C 114.804 -3.50175 2.82308 0
M  V30 1243 C 116.123 -4.3084 0.898071 0
M  V30 1244 H 113.242 -0.678677 0.287343 0
M  V30 1245 H 115.884 -1.36336 1.32334 0
M  V30 1246 H 114.034 -3.79513 0.830768 0
M  V30 1247 H 115.706 -3.15886 3.36175 0
M  V30 1248 H 113.949 -2.91959 3.20847 0
M  V30 1249 H 114.62 -4.55116 3.12368 0
M  V30 1250 H 117.096 -3.95561 1.29114 0
M  V30 1251 H 115.972 -5.33876 1.27543 0
M  V30 1252 H 116.233 -4.41662 -0.196651 0
M  V30 1253 N 115.292 -0.849877 -1.32721 0
M  V30 1254 C 116.708 -0.539102 -1.50219 0
M  V30 1255 C 116.908 0.931271 -1.78689 0
M  V30 1256 O 115.964 1.71455 -1.85363 0
M  V30 1257 C 117.277 -1.42196 -2.64954 0
M  V30 1258 C 118.825 -1.42189 -2.78839 0
M  V30 1259 C 119.3 -2.28985 -3.96648 0
M  V30 1260 N 120.791 -2.26754 -4.03902 0
M  V30 1261 C 121.526 -2.90644 -4.94281 0
M  V30 1262 N 121.022 -3.63629 -5.897 0
M  V30 1263 N 122.815 -2.80057 -4.87365 0
M  V30 1264 H 114.966 -1.80156 -1.12506 0
M  V30 1265 H 117.229 -0.769217 -0.554085 0
M  V30 1266 H 116.935 -2.46733 -2.50631 0
M  V30 1267 H 116.809 -1.10591 -3.60624 0
M  V30 1268 H 119.196 -0.38419 -2.92588 0
M  V30 1269 H 119.277 -1.77807 -1.83898 0
M  V30 1270 H 118.921 -3.32819 -3.83658 0
M  V30 1271 H 118.851 -1.90702 -4.90857 0
M  V30 1272 H 121.342 -1.73688 -3.3562 0
M  V30 1273 H 121.655 -4.09558 -6.55349 0
M  V30 1274 H 120 -3.67737 -5.89741 0
M  V30 1275 H 123.191 -2.22593 -4.11789 0
M  V30 1276 H 123.364 -3.30132 -5.57599 0
M  V30 1277 N 116.77 1.45427 -0.607355 0
M  V30 1278 C 118.186 1.57283 -0.270985 0
M  V30 1279 C 118.386 1.59875 1.22647 0
M  V30 1280 O 117.442 1.52893 2.00948 0
M  V30 1281 C 118.755 2.85566 -0.941952 0
M  V30 1282 C 120.303 2.9924 -0.917849 0
M  V30 1283 C 120.778 4.30293 -1.56882 0
M  V30 1284 N 122.269 4.37051 -1.5343 0
M  V30 1285 C 123.004 5.37123 -2.00715 0
M  V30 1286 N 122.5 6.43734 -2.56084 0
M  V30 1287 N 124.293 5.28479 -1.91484 0
M  V30 1288 H 116.444 1.41988 -1.57966 0
M  V30 1289 H 118.707 0.67885 -0.661715 0
M  V30 1290 H 118.413 2.8955 -1.99633 0
M  V30 1291 H 118.287 3.74322 -0.465096 0
M  V30 1292 H 120.674 2.94822 0.127984 0
M  V30 1293 H 120.755 2.11895 -1.43297 0
M  V30 1294 H 120.399 4.35469 -2.61398 0
M  V30 1295 H 120.329 5.16454 -1.02873 0
M  V30 1296 H 122.82 3.60615 -1.12982 0
M  V30 1297 H 123.133 7.16341 -2.89958 0
M  V30 1298 H 121.478 6.44485 -2.60122 0
M  V30 1299 H 124.669 4.44098 -1.47967 0
M  V30 1300 H 124.842 6.0632 -2.28648 0
M  V30 1301 N 118.248 0.346503 1.53744 0
M  V30 1302 C 119.494 -0.249473 2.0126 0
M  V30 1303 C 119.827 -1.49965 1.23386 0
M  V30 1304 O 119.102 -1.91811 0.32229 0
M  V30 1305 C 119.385 -0.560643 3.55709 0
M  V30 1306 C 119.238 0.701836 4.44291 0
M  V30 1307 C 120.557 -1.36905 4.18264 0
M  V30 1308 H 117.676 -0.0891987 0.731582 0
M  V30 1309 H 120.318 0.467624 1.84156 0
M  V30 1310 H 118.468 -1.17156 3.70414 0
M  V30 1311 H 120.14 1.33974 4.41417 0
M  V30 1312 H 118.383 1.32612 4.13033 0
M  V30 1313 H 119.054 0.43933 5.50249 0
M  V30 1314 H 121.53 -0.852448 4.07275 0
M  V30 1315 H 120.406 -1.55553 5.26398 0
M  V30 1316 H 120.667 -2.37203 3.73078 0
M  V30 1317 N 119.726 -1.57421 0.075193 0
M  V30 1318 C 120.956 -1.97659 -0.601203 0
M  V30 1319 C 121.364 -0.952427 -1.63479 0
M  V30 1320 O 120.707 0.0688241 -1.83571 0
M  V30 1321 C 120.769 -3.34218 -1.32434 0
M  V30 1322 C 120.433 -4.5484 -0.443826 0
M  V30 1323 C 121.43 -5.19034 0.299969 0
M  V30 1324 C 119.115 -5.00952 -0.367709 0
M  V30 1325 C 121.109 -6.27695 1.10807 0
M  V30 1326 C 118.796 -6.09484 0.444058 0
M  V30 1327 C 119.794 -6.72719 1.18061 0
M  V30 1328 O 119.482 -7.79161 1.97898 0
M  V30 1329 H 119.214 -0.65494 -0.167422 0
M  V30 1330 H 121.768 -2.04886 0.145157 0
M  V30 1331 H 119.998 -3.23615 -2.11685 0
M  V30 1332 H 121.687 -3.59038 -1.89331 0
M  V30 1333 H 122.453 -4.84351 0.250776 0
M  V30 1334 H 118.332 -4.51509 -0.930638 0
M  V30 1335 H 121.876 -6.76982 1.68347 0
M  V30 1336 H 117.773 -6.43601 0.494803 0
M  V30 1337 H 118.541 -7.96055 1.90367 0
M  V30 1338 N 121.204 0.198386 -1.56346 0
M  V30 1339 C 122.45 0.920648 -1.80698 0
M  V30 1340 C 122.783 1.83045 -0.648697 0
M  V30 1341 O 122.058 1.91308 0.350925 0
M  V30 1342 C 122.341 1.73971 -3.15287 0
M  V30 1343 C 122.194 0.85485 -4.41602 0
M  V30 1344 C 123.513 2.71296 -3.46535 0
M  V30 1345 H 120.632 0.333261 -0.657348 0
M  V30 1346 H 123.274 0.188198 -1.89066 0
M  V30 1347 H 121.424 2.36416 -3.08285 0
M  V30 1348 H 123.096 0.245362 -4.60647 0
M  V30 1349 H 121.339 0.161398 -4.335 0
M  V30 1350 H 122.01 1.46286 -5.32264 0
M  V30 1351 H 124.486 2.18983 -3.53816 0
M  V30 1352 H 123.362 3.2569 -4.41834 0
M  V30 1353 H 123.623 3.5018 -2.69864 0
M  V30 1354 N 122.682 1.50554 0.465978 0
M  V30 1355 C 123.928 1.62038 1.21949 0
M  V30 1356 C 124.261 0.322116 1.9151 0
M  V30 1357 O 123.536 -0.676723 1.82348 0
M  V30 1358 C 123.819 2.80421 2.25912 0
M  V30 1359 C 123.672 4.20144 1.60622 0
M  V30 1360 C 124.991 2.94354 3.27176 0
M  V30 1361 H 122.11 0.589752 0.441998 0
M  V30 1362 H 124.752 1.82956 0.51257 0
M  V30 1363 H 122.902 2.62717 2.86203 0
M  V30 1364 H 124.574 4.49449 1.03889 0
M  V30 1365 H 122.817 4.24165 0.909211 0
M  V30 1366 H 123.488 4.98914 2.36196 0
M  V30 1367 H 125.964 3.10578 2.76913 0
M  V30 1368 H 124.84 3.788 3.97242 0
M  V30 1369 H 125.101 2.05186 3.916 0
M  V30 1370 N 124.16 -0.719506 1.40217 0
M  V30 1371 C 125.123 -1.8153 1.39927 0
M  V30 1372 C 126.123 -1.58095 0.293723 0
M  V30 1373 O 127.313 -1.65209 0.552429 0
M  V30 1374 C 124.445 -3.19561 1.18716 0
M  V30 1375 H 125.638 -1.83186 2.37451 0
M  V30 1376 H 123.191 -0.924746 1.26008 0
M  V30 1377 H 123.926 -3.23557 0.219366 0
M  V30 1378 H 123.711 -3.3797 1.98793 0
M  V30 1379 H 125.201 -3.99598 1.21291 0
M  V30 1380 N 125.638 -1.25649 -0.95132 0
M  V30 1381 C 126.586 -1.06118 -2.06982 0
M  V30 1382 C 127.58 0.00889169 -1.69398 0
M  V30 1383 O 128.786 -0.146988 -1.79399 0
M  V30 1384 H 125.161 -0.326248 -0.677544 0
M  V30 1385 H 127.132 -2.00932 -2.2061 0
M  V30 1386 C 125.881 -0.700145 -3.40578 0
M  V30 1387 H 125.204 -1.51537 -3.69968 0
M  V30 1388 H 126.644 -0.603211 -4.19687 0
M  V30 1389 C 125.103 0.59403 -3.31622 0
M  V30 1390 O 125.633 1.63522 -3.66911 0
M  V30 1391 N 123.839 0.58089 -2.84735 0
M  V30 1392 H 123.386 -0.266783 -2.56215 0
M  V30 1393 H 123.344 1.44695 -2.79125 0
M  V30 1394 N 127.117 1.15442 -1.07289 0
M  V30 1395 C 128.528 1.67803 -0.818475 0
M  V30 1396 C 128.879 1.8489 0.656507 0
M  V30 1397 O 128.004 1.55176 1.50829 0
M  V30 1398 C 128.599 3.04805 -1.47917 0
M  V30 1399 C 127.158 3.54245 -1.27229 0
M  V30 1400 C 126.305 2.29986 -1.54925 0
M  V30 1401 H 129.256 0.996646 -1.23502 0
M  V30 1402 H 129.277 3.69702 -0.90005 0
M  V30 1403 H 128.789 2.92336 -2.55267 0
M  V30 1404 H 126.89 3.71956 -0.21899 0
M  V30 1405 H 127.003 4.35723 -1.99203 0
M  V30 1406 H 125.367 2.35496 -0.970242 0
M  V30 1407 H 126.15 2.20105 -2.63455 0
M  V30 1408 N 128.595 0.856903 1.32268 0
M  V30 1409 C 129.841 0.462069 1.97466 0
M  V30 1410 C 130.174 -0.980298 1.67642 0
M  V30 1411 O 129.449 -1.68824 0.965858 0
M  V30 1412 C 129.732 0.704336 3.53145 0
M  V30 1413 C 129.585 2.19529 3.9259 0
M  V30 1414 C 130.904 0.1622 4.39801 0
M  V30 1415 H 128.023 0.169357 0.717278 0
M  V30 1416 H 130.665 1.07574 1.56614 0
M  V30 1417 H 128.815 0.181999 3.88073 0
M  V30 1418 H 130.487 2.78387 3.67829 0
M  V30 1419 H 128.73 2.67292 3.41668 0
M  V30 1420 H 129.401 2.31549 5.01088 0
M  V30 1421 H 131.877 0.608905 4.11621 0
M  V30 1422 H 130.753 0.361265 5.4771 0
M  V30 1423 H 131.014 -0.935158 4.32096 0
M  V30 1424 N 130.073 -1.45103 0.615059 0
M  V30 1425 C 131.322 -2.01396 0.110718 0
M  V30 1426 C 131.635 -1.48834 -1.26916 0
M  V30 1427 O 132.841 -1.97152 -1.86664 0
M  V30 1428 C 131.297 -3.59599 0.14723 0
M  V30 1429 C 130.905 -4.21158 1.52743 0
M  V30 1430 C 132.649 -4.23428 -0.30148 0
M  V30 1431 C 130.556 -5.71535 1.51992 0
M  V30 1432 H 129.486 -0.753061 0.0376241 0
M  V30 1433 H 132.137 -1.66494 0.77149 0
M  V30 1434 H 130.519 -3.91724 -0.580339 0
M  V30 1435 H 131.693 -4.00594 2.2773 0
M  V30 1436 H 130.008 -3.69552 1.91886 0
M  V30 1437 H 132.605 -5.33703 -0.326392 0
M  V30 1438 H 132.948 -3.94629 -1.32565 0
M  V30 1439 H 133.481 -3.96047 0.373065 0
M  V30 1440 H 130.22 -6.05044 2.52193 0
M  V30 1441 H 129.74 -5.94268 0.81274 0
M  V30 1442 H 131.419 -6.34873 1.24681 0
M  V30 1443 N 131.551 -0.354651 -1.53558 0
M  V30 1444 C 132.779 0.239515 -2.05509 0
M  V30 1445 C 133.194 1.4333 -1.2289 0
M  V30 1446 O 132.551 1.80538 -0.266899 0
M  V30 1447 C 132.602 0.643719 -3.55723 0
M  V30 1448 O 132.323 -0.502602 -4.35207 0
M  V30 1449 C 133.824 1.29743 -4.23889 0
M  V30 1450 H 131.044 0.0442697 -0.669538 0
M  V30 1451 H 133.588 -0.509856 -1.98042 0
M  V30 1452 H 131.743 1.34302 -3.63376 0
M  V30 1453 H 132.157 -0.178172 -5.24197 0
M  V30 1454 H 133.631 1.53091 -5.30346 0
M  V30 1455 H 134.108 2.25441 -3.76926 0
M  V30 1456 H 134.714 0.639865 -4.20459 0
M  V30 1457 N 133.029 1.57378 -0.0835403 0
M  V30 1458 C 134.259 1.97975 0.590713 0
M  V30 1459 C 134.667 0.961083 1.62972 0
M  V30 1460 O 134.01 -0.0590879 1.83605 0
M  V30 1461 C 134.072 3.34915 1.3066 0
M  V30 1462 C 133.736 4.55069 0.419698 0
M  V30 1463 C 134.733 5.18868 -0.32749 0
M  V30 1464 C 132.418 5.0114 0.341137 0
M  V30 1465 C 134.412 6.27098 -1.14134 0
M  V30 1466 C 132.099 6.0924 -0.476374 0
M  V30 1467 C 133.097 6.72083 -1.21627 0
M  V30 1468 O 132.785 7.781 -2.02028 0
M  V30 1469 H 132.517 0.655818 0.163947 0
M  V30 1470 H 135.071 2.04807 -0.156021 0
M  V30 1471 H 133.301 3.24733 2.09966 0
M  V30 1472 H 134.99 3.60037 1.87424 0
M  V30 1473 H 135.756 4.84211 -0.276459 0
M  V30 1474 H 131.635 4.51996 0.90668 0
M  V30 1475 H 135.179 6.7608 -1.71935 0
M  V30 1476 H 131.076 6.43329 -0.528927 0
M  V30 1477 H 131.844 7.95034 -1.94586 0
M  V30 1478 N 134.507 -0.190092 1.56449 0
M  V30 1479 C 135.923 -0.54113 1.50146 0
M  V30 1480 C 136.123 -1.85603 0.784465 0
M  V30 1481 O 135.179 -2.5024 0.337051 0
M  V30 1482 C 136.492 -0.591241 2.9483 0
M  V30 1483 C 138.04 -0.679732 3.0553 0
M  V30 1484 C 138.515 -0.760908 4.51635 0
M  V30 1485 N 140.006 -0.824302 4.55806 0
M  V30 1486 C 140.741 -0.907365 5.66175 0
M  V30 1487 N 140.237 -0.952422 6.86222 0
M  V30 1488 N 142.03 -0.94494 5.541 0
M  V30 1489 H 134.181 0.67235 2.01478 0
M  V30 1490 H 136.444 0.240127 0.917084 0
M  V30 1491 H 136.15 0.305905 3.50367 0
M  V30 1492 H 136.024 -1.44422 3.48457 0
M  V30 1493 H 138.411 -1.56731 2.50039 0
M  V30 1494 H 138.492 0.199549 2.5502 0
M  V30 1495 H 138.136 0.122336 5.07753 0
M  V30 1496 H 138.066 -1.65606 4.99882 0
M  V30 1497 H 140.557 -0.798526 3.69367 0
M  V30 1498 H 140.87 -1.01645 7.66086 0
M  V30 1499 H 139.215 -0.921014 6.8887 0
M  V30 1500 H 142.406 -0.906612 4.59236 0
M  V30 1501 H 142.579 -1.00622 6.4014 0
M  V30 1502 N 135.985 -1.50799 -0.457987 0
M  V30 1503 C 136.895 -1.73426 -1.57989 0
M  V30 1504 C 137.911 -0.617745 -1.62665 0
M  V30 1505 O 139.087 -0.897614 -1.80291 0
M  V30 1506 C 136.152 -1.83557 -2.94122 0
M  V30 1507 C 135.213 -3.07345 -2.99729 0
M  V30 1508 C 134.446 -3.16983 -4.29368 0
M  V30 1509 O 134.669 -2.33077 -5.20607 0
M  V30 1510 O 133.603 -4.09812 -4.40837 0
M  V30 1511 H 137.429 -2.68555 -1.41817 0
M  V30 1512 H 135.014 -1.35052 -0.638859 0
M  V30 1513 H 136.896 -1.92326 -3.74952 0
M  V30 1514 H 135.571 -0.916137 -3.10465 0
M  V30 1515 H 134.478 -3.04068 -2.1793 0
M  V30 1516 H 135.811 -3.9891 -2.88326 0
M  V30 1517 N 137.463 0.71206 -1.40597 0
M  V30 1518 C 138.711 1.46907 -1.38791 0
M  V30 1519 C 139.032 1.94998 0.00780391 0
M  V30 1520 O 138.302 1.70587 0.963174 0
M  V30 1521 H 136.882 0.545043 -0.51082 0
M  V30 1522 H 139.544 0.843882 -1.75683 0
M  V30 1523 H 138.64 2.34021 -2.06496 0
M  V30 1524 N 138.941 1.26152 0.944643 0
M  V30 1525 C 139.871 1.09902 2.06019 0
M  V30 1526 C 140.852 0.00519538 1.70099 0
M  V30 1527 O 142.037 0.176583 1.93396 0
M  V30 1528 C 139.167 0.727562 3.39594 0
M  V30 1529 C 138.121 1.77274 3.89561 0
M  V30 1530 C 137.447 1.25569 5.19747 0
M  V30 1531 C 138.747 3.17357 4.14827 0
M  V30 1532 H 140.441 2.03217 2.19871 0
M  V30 1533 H 137.987 0.978452 1.05652 0
M  V30 1534 H 139.94 0.600777 4.17095 0
M  V30 1535 H 138.664 -0.241287 3.25707 0
M  V30 1536 H 137.323 1.88814 3.14237 0
M  V30 1537 H 136.971 0.276783 5.02238 0
M  V30 1538 H 136.671 1.95433 5.54148 0
M  V30 1539 H 138.195 1.1415 5.99835 0
M  V30 1540 H 139.609 3.08914 4.82954 0
M  V30 1541 H 138.006 3.84781 4.60504 0
M  V30 1542 H 139.076 3.63673 3.20734 0
M  V30 1543 N 140.419 -1.14872 1.07899 0
M  V30 1544 C 141.665 -1.86064 0.806725 0
M  V30 1545 C 141.998 -1.82434 -0.665706 0
M  V30 1546 O 141.273 -1.25138 -1.48899 0
M  V30 1547 C 141.556 -3.34929 1.32267 0
M  V30 1548 C 141.409 -3.47161 2.86006 0
M  V30 1549 C 142.728 -4.29863 0.943717 0
M  V30 1550 H 139.847 -0.675591 0.294526 0
M  V30 1551 H 142.489 -1.34925 1.33773 0
M  V30 1552 H 140.639 -3.78611 0.870974 0
M  V30 1553 H 142.311 -3.12302 3.39507 0
M  V30 1554 H 140.554 -2.88539 3.23925 0
M  V30 1555 H 141.225 -4.51777 3.17177 0
M  V30 1556 H 143.701 -3.9417 1.33302 0
M  V30 1557 H 142.577 -5.32494 1.33198 0
M  V30 1558 H 142.838 -4.41846 -0.149796 0
M  V30 1559 N 141.898 -0.863906 -1.31812 0
M  V30 1560 C 142.808 -0.318461 -2.32428 0
M  V30 1561 C 143.824 0.568496 -1.64451 0
M  V30 1562 O 145 0.46666 -1.95919 0
M  V30 1563 C 142.065 0.476355 -3.43412 0
M  V30 1564 C 141.126 -0.43784 -4.27061 0
M  V30 1565 C 140.359 0.319138 -5.32745 0
M  V30 1566 O 140.582 1.54799 -5.48993 0
M  V30 1567 O 139.516 -0.319861 -6.01049 0
M  V30 1568 H 143.342 -1.15229 -2.80991 0
M  V30 1569 H 140.927 -0.627103 -1.35602 0
M  V30 1570 H 142.809 0.927156 -4.11074 0
M  V30 1571 H 141.484 1.28683 -2.97022 0
M  V30 1572 H 140.391 -0.937013 -3.62175 0
M  V30 1573 H 141.724 -1.21375 -4.77 0
M  V30 1574 N 143.376 1.44774 -0.622745 0
M  V30 1575 C 144.624 2.01721 -0.123655 0
M  V30 1576 C 144.945 1.49172 1.25589 0
M  V30 1577 O 144.215 0.691974 1.83272 0
M  V30 1578 H 142.795 0.745777 -0.0427225 0
M  V30 1579 H 145.457 1.77382 -0.807559 0
M  V30 1580 H 144.553 3.11984 -0.0849534 0
M  V30 1581 N 144.854 0.36279 1.53368 0
M  V30 1582 C 146.082 -0.228613 2.05633 0
M  V30 1583 C 146.497 -1.42676 1.23649 0
M  V30 1584 O 145.854 -1.80394 0.27647 0
M  V30 1585 C 145.905 -0.624845 3.56059 0
M  V30 1586 O 145.626 0.525675 4.34935 0
M  V30 1587 C 147.127 -1.27493 4.24571 0
M  V30 1588 H 144.347 -0.0407183 0.669763 0
M  V30 1589 H 146.891 0.520352 1.97769 0
M  V30 1590 H 145.046 -1.32373 3.64083 0
M  V30 1591 H 145.46 0.205969 5.24095 0
M  V30 1592 H 146.934 -1.50277 5.31151 0
M  V30 1593 H 147.411 -2.23439 3.78116 0
M  V30 1594 H 148.017 -0.617558 4.20792 0
M  V30 1595 N 146.332 -1.57332 0.0918853 0
M  V30 1596 C 147.242 -2.17368 -0.882505 0
M  V30 1597 C 148.258 -1.14226 -1.31257 0
M  V30 1598 O 149.434 -1.46582 -1.38115 0
M  V30 1599 C 146.499 -2.73962 -2.12476 0
M  V30 1600 C 145.56 -3.92048 -1.7492 0
M  V30 1601 C 144.793 -4.45933 -2.93223 0
M  V30 1602 O 145.016 -3.98764 -4.07852 0
M  V30 1603 O 143.95 -5.36999 -2.71875 0
M  V30 1604 H 147.776 -3.01031 -0.40172 0
M  V30 1605 H 145.361 -1.48813 -0.132291 0
M  V30 1606 H 147.243 -3.10147 -2.85283 0
M  V30 1607 H 145.918 -1.93347 -2.59613 0
M  V30 1608 H 144.825 -3.6068 -0.993025 0
M  V30 1609 H 146.158 -4.74017 -1.32548 0
M  V30 1610 N 147.81 0.181792 -1.56548 0
M  V30 1611 C 149.058 0.89832 -1.81038 0
M  V30 1612 C 149.379 1.83232 -0.667164 0
M  V30 1613 O 148.649 1.93372 0.313673 0
M  V30 1614 H 147.229 0.33471 -0.667816 0
M  V30 1615 H 149.891 0.184116 -1.94028 0
M  V30 1616 H 148.987 1.4815 -2.74696 0
M  V30 1617 N 149.288 1.51039 0.449983 0
M  V30 1618 C 150.528 1.64732 1.21007 0
M  V30 1619 C 150.892 0.349865 1.88785 0
M  V30 1620 O 152.093 0.362431 2.66345 0
M  V30 1621 C 150.364 2.80902 2.20973 0
M  V30 1622 S 151.923 3.14851 3.05638 0
M  V30 1623 H 148.741 0.5805 0.410538 0
M  V30 1624 H 151.343 1.88901 0.503634 0
M  V30 1625 H 150.047 3.73627 1.69796 0
M  V30 1626 H 149.578 2.58882 2.96215 0
M  V30 1627 H 151.593 2.60306 4.22439 0
M  V30 1628 N 150.766 -0.704594 1.40972 0
M  V30 1629 C 151.696 -1.83124 1.44872 0
M  V30 1630 C 152.677 -1.67281 0.30838 0
M  V30 1631 O 153.862 -1.87149 0.518556 0
M  V30 1632 C 150.992 -3.21181 1.32136 0
M  V30 1633 C 149.946 -3.51714 2.43888 0
M  V30 1634 C 149.272 -4.89032 2.16222 0
M  V30 1635 C 150.572 -3.516 3.86232 0
M  V30 1636 H 152.266 -1.80117 2.39161 0
M  V30 1637 H 149.812 -0.865145 1.15114 0
M  V30 1638 H 151.765 -3.99702 1.33479 0
M  V30 1639 H 150.489 -3.24791 0.343279 0
M  V30 1640 H 149.148 -2.75539 2.41813 0
M  V30 1641 H 148.796 -4.89256 1.16778 0
M  V30 1642 H 148.496 -5.10426 2.911 0
M  V30 1643 H 150.02 -5.69873 2.19265 0
M  V30 1644 H 151.434 -4.2014 3.9007 0
M  V30 1645 H 149.831 -3.84523 4.60719 0
M  V30 1646 H 150.901 -2.50757 4.15029 0
M  V30 1647 N 152.244 -1.26651 -0.937939 0
M  V30 1648 C 153.469 -1.15279 -1.72411 0
M  V30 1649 C 153.894 0.287866 -1.85884 0
M  V30 1650 O 153.252 1.20855 -1.35143 0
M  V30 1651 C 153.3 -1.83028 -3.10698 0
M  V30 1652 O 152.404 -1.12128 -3.96864 0
M  V30 1653 H 151.745 -0.401504 -0.528858 0
M  V30 1654 H 154.275 -1.67531 -1.1745 0
M  V30 1655 H 154.285 -1.89981 -3.6107 0
M  V30 1656 H 152.96 -2.87833 -3.00208 0
M  V30 1657 H 151.537 -1.13173 -3.55312 0
M  V30 1658 N 153.722 1.14298 -1.08507 0
M  V30 1659 C 154.652 2.21542 -0.737646 0
M  V30 1660 C 155.633 1.67773 0.280377 0
M  V30 1661 O 156.818 1.93616 0.150521 0
M  V30 1662 C 153.948 3.46988 -0.147259 0
M  V30 1663 C 152.902 4.13789 -1.09374 0
M  V30 1664 C 152.228 5.33449 -0.365524 0
M  V30 1665 C 153.528 4.62208 -2.4323 0
M  V30 1666 H 155.222 2.5086 -1.6343 0
M  V30 1667 H 152.768 1.20576 -0.787243 0
M  V30 1668 H 154.721 4.21262 0.107808 0
M  V30 1669 H 153.445 3.17037 0.784538 0
M  V30 1670 H 152.104 3.4147 -1.33393 0
M  V30 1671 H 151.752 4.99759 0.57011 0
M  V30 1672 H 151.452 5.79088 -0.996512 0
M  V30 1673 H 152.976 6.10485 -0.118534 0
M  V30 1674 H 154.39 5.27952 -2.23472 0
M  V30 1675 H 152.787 5.18553 -3.02031 0
M  V30 1676 H 153.857 3.77224 -3.04681 0
M  V30 1677 N 155.201 0.870884 1.31352 0
M  V30 1678 C 156.612 0.534714 1.78879 0
M  V30 1679 C 156.963 -0.948423 1.71754 0
M  V30 1680 O 156.088 -1.74055 1.28584 0
M  V30 1681 C 156.683 0.963839 3.24801 0
M  V30 1682 C 155.242 0.679311 3.70219 0
M  V30 1683 C 154.389 1.15465 2.52117 0
M  V30 1684 H 157.34 1.05651 1.18421 0
M  V30 1685 H 157.361 0.286892 3.79417 0
M  V30 1686 H 156.873 2.04332 3.29955 0
M  V30 1687 H 154.974 -0.388769 3.70566 0
M  V30 1688 H 155.087 1.25698 4.62317 0
M  V30 1689 H 153.451 0.574383 2.48139 0
M  V30 1690 H 154.234 2.24157 2.60016 0
M  V30 1691 N 156.679 -1.44442 0.630414 0
M  V30 1692 C 157.927 -2.01653 0.134351 0
M  V30 1693 C 158.248 -1.49836 -1.24796 0
M  V30 1694 O 157.518 -0.701684 -1.82902 0
M  V30 1695 H 156.098 -0.74554 0.0466769 0
M  V30 1696 H 158.76 -1.76952 0.816955 0
M  V30 1697 H 157.856 -3.11935 0.101498 0
M  V30 1698 N 158.157 -0.370918 -1.53173 0
M  V30 1699 C 159.087 0.464847 -2.28826 0
M  V30 1700 C 160.068 1.07936 -1.31468 0
M  V30 1701 O 161.253 1.0956 -1.60344 0
M  V30 1702 C 158.383 1.60196 -3.08147 0
M  V30 1703 C 157.337 1.11443 -4.13237 0
M  V30 1704 C 156.663 2.3422 -4.80672 0
M  V30 1705 C 157.963 0.195384 -5.21934 0
M  V30 1706 H 159.657 -0.166329 -2.98938 0
M  V30 1707 H 157.203 -0.0814359 -1.4377 0
M  V30 1708 H 159.156 2.19332 -3.59822 0
M  V30 1709 H 157.88 2.26045 -2.35735 0
M  V30 1710 H 156.539 0.545727 -3.62515 0
M  V30 1711 H 156.187 2.98537 -4.04827 0
M  V30 1712 H 155.887 2.02269 -5.51689 0
M  V30 1713 H 157.411 2.94032 -5.35143 0
M  V30 1714 H 158.825 0.694375 -5.69079 0
M  V30 1715 H 157.222 -0.0335027 -6.00091 0
M  V30 1716 H 158.292 -0.760961 -4.78892 0
M  V30 1717 N 159.635 1.57281 -0.100228 0
M  V30 1718 C 160.865 1.98591 0.569681 0
M  V30 1719 C 161.273 0.978315 1.61943 0
M  V30 1720 O 160.616 -0.0396108 1.83657 0
M  V30 1721 C 160.678 3.36282 1.271 0
M  V30 1722 C 160.342 4.55488 0.371409 0
M  V30 1723 C 161.339 5.18491 -0.382504 0
M  V30 1724 C 159.024 5.01474 0.287965 0
M  V30 1725 C 161.018 6.25852 -1.20779 0
M  V30 1726 C 158.705 6.08701 -0.540965 0
M  V30 1727 C 159.703 6.70755 -1.28749 0
M  V30 1728 O 159.391 7.75914 -2.10269 0
M  V30 1729 H 159.123 0.65752 0.156982 0
M  V30 1730 H 161.677 2.0463 -0.177734 0
M  V30 1731 H 159.907 3.26941 2.0651 0
M  V30 1732 H 161.596 3.62005 1.83595 0
M  V30 1733 H 162.362 4.83891 -0.3278 0
M  V30 1734 H 158.241 4.52932 0.858689 0
M  V30 1735 H 161.785 6.74218 -1.79096 0
M  V30 1736 H 157.682 6.42732 -0.597131 0
M  V30 1737 H 158.45 7.92925 -2.03007 0
M  V30 1738 N 161.113 -0.173488 1.56642 0
M  V30 1739 C 162.338 -0.910149 1.86363 0
M  V30 1740 C 162.763 -1.75132 0.686318 0
M  V30 1741 O 162.121 -1.77595 -0.364643 0
M  V30 1742 C 162.169 -1.76447 3.14482 0
M  V30 1743 O 161.273 -2.86584 2.96553 0
M  V30 1744 H 160.614 -0.255086 0.613047 0
M  V30 1745 H 163.144 -0.172283 2.03873 0
M  V30 1746 H 163.154 -2.16483 3.45831 0
M  V30 1747 H 161.829 -1.14658 3.99783 0
M  V30 1748 H 160.406 -2.50146 2.76553 0
M  V30 1749 N 162.591 -1.51276 -0.441967 0
M  V30 1750 C 163.501 -1.75092 -1.56141 0
M  V30 1751 C 164.517 -0.634963 -1.62001 0
M  V30 1752 O 165.693 -0.916686 -1.79329 0
M  V30 1753 C 162.758 -1.86666 -2.92158 0
M  V30 1754 C 161.819 -3.10506 -2.96453 0
M  V30 1755 C 161.052 -3.21519 -4.25982 0
M  V30 1756 O 161.275 -2.38586 -5.18105 0
M  V30 1757 O 160.209 -4.14465 -4.36466 0
M  V30 1758 H 164.035 -2.70044 -1.38961 0
M  V30 1759 H 161.62 -1.35722 -0.624499 0
M  V30 1760 H 163.502 -1.96292 -3.72891 0
M  V30 1761 H 162.177 -0.949014 -3.09476 0
M  V30 1762 H 161.084 -3.06363 -2.14692 0
M  V30 1763 H 162.417 -4.01945 -2.84079 0
M  V30 1764 N 164.069 0.697108 -1.41344 0
M  V30 1765 C 164.979 1.84088 -1.45427 0
M  V30 1766 C 165.995 1.70545 -0.34501 0
M  V30 1767 O 167.171 1.92488 -0.592492 0
M  V30 1768 C 164.236 3.20056 -1.33286 0
M  V30 1769 C 163.297 3.45718 -2.54514 0
M  V30 1770 C 162.53 4.75199 -2.42944 0
M  V30 1771 O 162.753 5.51579 -1.45318 0
M  V30 1772 O 161.687 5.0161 -3.32672 0
M  V30 1773 H 165.513 1.836 -2.41919 0
M  V30 1774 H 163.098 0.849966 -1.22866 0
M  V30 1775 H 164.98 4.01236 -1.28794 0
M  V30 1776 H 163.655 3.2123 -0.39909 0
M  V30 1777 H 162.562 2.64474 -2.64583 0
M  V30 1778 H 163.895 3.49356 -3.46715 0
M  V30 1779 N 165.547 1.27147 0.931209 0
M  V30 1780 C 166.793 1.13446 1.68101 0
M  V30 1781 C 167.126 -0.319628 1.91552 0
M  V30 1782 O 166.401 -1.23407 1.50336 0
M  V30 1783 C 166.684 1.91482 3.0497 0
M  V30 1784 C 166.537 3.44855 2.88782 0
M  V30 1785 C 167.856 1.71651 4.05246 0
M  V30 1786 H 164.975 0.413498 0.610072 0
M  V30 1787 H 167.617 1.56261 1.08086 0
M  V30 1788 H 165.767 1.55095 3.56199 0
M  V30 1789 H 167.439 3.9105 2.44698 0
M  V30 1790 H 165.682 3.71373 2.24198 0
M  V30 1791 H 166.353 3.94694 3.85902 0
M  V30 1792 H 168.829 2.0337 3.63015 0
M  V30 1793 H 167.705 2.28651 4.99009 0
M  V30 1794 H 167.966 0.663555 4.37092 0
M  V30 1795 N 167.025 -1.13721 1.09112 0
M  V30 1796 C 168.436 -1.6648 0.845068 0
M  V30 1797 C 168.787 -1.85911 -0.62701 0
M  V30 1798 O 167.912 -1.57556 -1.48341 0
M  V30 1799 C 168.507 -3.02413 1.52748 0
M  V30 1800 C 167.066 -3.52176 1.32849 0
M  V30 1801 C 166.213 -2.27492 1.58564 0
M  V30 1802 H 169.164 -0.976872 1.25072 0
M  V30 1803 H 169.185 -3.68223 0.958752 0
M  V30 1804 H 168.697 -2.88238 2.59885 0
M  V30 1805 H 166.798 -3.7156 0.278137 0
M  V30 1806 H 166.911 -4.32499 2.0611 0
M  V30 1807 H 165.275 -2.33923 1.00758 0
M  V30 1808 H 166.058 -2.15886 2.66924 0
M  V30 1809 N 168.503 -0.877838 -1.30888 0
M  V30 1810 C 169.919 -0.570844 -1.49042 0
M  V30 1811 C 170.119 0.893159 -1.80624 0
M  V30 1812 O 169.175 1.67485 -1.88958 0
M  V30 1813 C 170.488 -1.47784 -2.61878 0
M  V30 1814 C 172.036 -1.48071 -2.75761 0
M  V30 1815 C 172.511 -2.37347 -3.91702 0
M  V30 1816 N 174.002 -2.35271 -3.99001 0
M  V30 1817 C 174.737 -3.01063 -4.88004 0
M  V30 1818 N 174.233 -3.76055 -5.81854 0
M  V30 1819 N 176.026 -2.90332 -4.81315 0
M  V30 1820 H 168.177 -1.82502 -1.0866 0
M  V30 1821 H 170.44 -0.780797 -0.537644 0
M  V30 1822 H 170.146 -2.51993 -2.45341 0
M  V30 1823 H 170.02 -1.18215 -3.58197 0
M  V30 1824 H 172.407 -0.446166 -2.91708 0
M  V30 1825 H 172.488 -1.81668 -1.80085 0
M  V30 1826 H 172.132 -3.40883 -3.76512 0
M  V30 1827 H 172.062 -2.01071 -4.86701 0
M  V30 1828 H 174.553 -1.80768 -3.3186 0
M  V30 1829 H 174.866 -4.23366 -6.46514 0
M  V30 1830 H 173.211 -3.80163 -5.81808 0
M  V30 1831 H 176.402 -2.31278 -4.06974 0
M  V30 1832 H 176.575 -3.41885 -5.50471 0
M  V30 1833 N 169.982 1.44106 -0.638065 0
M  V30 1834 C 170.945 2.29138 0.0531013 0
M  V30 1835 C 171.945 1.41409 0.765506 0
M  V30 1836 O 173.135 1.63206 0.609046 0
M  V30 1837 C 170.267 3.23144 1.08584 0
M  V30 1838 H 171.46 2.91739 -0.694883 0
M  V30 1839 H 169.013 1.51134 -0.398538 0
M  V30 1840 H 169.748 2.65408 1.86357 0
M  V30 1841 H 169.533 3.87804 0.578852 0
M  V30 1842 H 171.023 3.87004 1.56899 0
M  V30 1843 N 171.46 0.379036 1.52974 0
M  V30 1844 C 172.37 -0.468639 2.29872 0
M  V30 1845 C 173.386 -1.08067 1.36373 0
M  V30 1846 O 174.562 -1.08871 1.69438 0
M  V30 1847 C 171.627 -1.58594 3.083 0
M  V30 1848 C 170.688 -1.00007 4.17489 0
M  V30 1849 C 169.921 -2.06413 4.92168 0
M  V30 1850 O 170.144 -3.27751 4.66835 0
M  V30 1851 O 169.078 -1.68717 5.7777 0
M  V30 1852 H 172.904 0.157508 3.03291 0
M  V30 1853 H 170.489 0.143035 1.48714 0
M  V30 1854 H 172.371 -2.23525 3.57232 0
M  V30 1855 H 171.046 -2.19724 2.37703 0
M  V30 1856 H 169.953 -0.314299 3.72777 0
M  V30 1857 H 171.286 -0.433135 4.90291 0
M  V30 1858 N 172.938 -1.57226 0.108567 0
M  V30 1859 C 174.354 -1.5766 -0.248058 0
M  V30 1860 C 174.554 -1.12063 -1.67464 0
M  V30 1861 O 173.61 -0.803236 -2.39383 0
M  V30 1862 C 174.923 -3.0069 -0.0242287 0
M  V30 1863 C 176.471 -3.12868 -0.0909372 0
M  V30 1864 C 176.946 -4.57879 0.105067 0
M  V30 1865 N 178.437 -4.63172 0.0506846 0
M  V30 1866 C 179.172 -5.73126 0.177396 0
M  V30 1867 N 178.668 -6.91866 0.359696 0
M  V30 1868 N 180.461 -5.61977 0.117709 0
M  V30 1869 H 172.612 -1.85169 1.04049 0
M  V30 1870 H 174.875 -0.85529 0.40888 0
M  V30 1871 H 174.581 -3.38299 0.961604 0
M  V30 1872 H 174.455 -3.6945 -0.76068 0
M  V30 1873 H 176.842 -2.75124 -1.06729 0
M  V30 1874 H 176.923 -2.46672 0.677225 0
M  V30 1875 H 176.567 -4.96321 1.07834 0
M  V30 1876 H 176.497 -5.22153 -0.682954 0
M  V30 1877 H 178.988 -3.778 -0.0871266 0
M  V30 1878 H 179.301 -7.71503 0.447529 0
M  V30 1879 H 177.646 -6.93874 0.395536 0
M  V30 1880 H 180.837 -4.68094 -0.0236741 0
M  V30 1881 H 181.01 -6.47627 0.219905 0
M  V30 1882 N 174.416 0.165178 -1.56732 0
M  V30 1883 C 175.665 0.879143 -1.81532 0
M  V30 1884 C 175.978 1.83144 -0.686842 0
M  V30 1885 O 177.184 2.58823 -0.819944 0
M  V30 1886 C 175.64 1.61388 -3.21686 0
M  V30 1887 C 175.248 0.704904 -4.4242 0
M  V30 1888 C 176.992 2.3157 -3.55774 0
M  V30 1889 C 174.899 1.44022 -5.73595 0
M  V30 1890 H 173.829 0.332033 -0.676957 0
M  V30 1891 H 176.48 0.132008 -1.83025 0
M  V30 1892 H 174.862 2.40599 -3.14529 0
M  V30 1893 H 176.036 -0.0506815 -4.60772 0
M  V30 1894 H 174.351 0.112419 -4.16248 0
M  V30 1895 H 176.948 2.8719 -4.51028 0
M  V30 1896 H 177.291 3.07201 -2.8095 0
M  V30 1897 H 177.824 1.59297 -3.64513 0
M  V30 1898 H 174.563 0.72612 -6.51466 0
M  V30 1899 H 174.083 2.16898 -5.5921 0
M  V30 1900 H 175.762 1.98606 -6.15764 0
M  V30 1901 N 175.894 1.51508 0.433938 0
M  V30 1902 C 177.31 1.39759 0.770682 0
M  V30 1903 C 177.51 0.482594 1.95636 0
M  V30 1904 O 176.566 -0.0609691 2.52426 0
M  V30 1905 C 177.879 2.81851 1.04787 0
M  V30 1906 C 179.427 2.91025 1.1521 0
M  V30 1907 C 179.902 4.34032 1.46219 0
M  V30 1908 N 181.393 4.37154 1.53136 0
M  V30 1909 C 182.128 5.4484 1.78709 0
M  V30 1910 N 181.624 6.62682 2.02051 0
M  V30 1911 N 183.417 5.32324 1.80519 0
M  V30 1912 H 175.568 2.09548 -0.346892 0
M  V30 1913 H 177.831 0.943446 -0.0928074 0
M  V30 1914 H 177.537 3.50815 0.249304 0
M  V30 1915 H 177.411 3.21386 1.97461 0
M  V30 1916 H 179.798 2.22257 1.94128 0
M  V30 1917 H 179.879 2.54983 0.204281 0
M  V30 1918 H 179.523 5.03351 0.678274 0
M  V30 1919 H 179.453 4.6759 2.42212 0
M  V30 1920 H 181.944 3.52197 1.36987 0
M  V30 1921 H 182.257 7.40543 2.20943 0
M  V30 1922 H 180.602 6.65791 1.99366 0
M  V30 1923 H 183.793 4.39246 1.61805 0
M  V30 1924 H 183.966 6.16328 2.00111 0
M  V30 1925 N 177.372 -0.689602 1.41712 0
M  V30 1926 C 178.618 -1.45181 1.41599 0
M  V30 1927 C 178.951 -1.94181 0.0270081 0
M  V30 1928 O 178.226 -1.6993 -0.946265 0
M  V30 1929 C 178.509 -2.65945 2.42787 0
M  V30 1930 C 178.362 -2.22672 3.90816 0
M  V30 1931 C 179.681 -3.68149 2.41151 0
M  V30 1932 H 176.8 -0.526576 0.515642 0
M  V30 1933 H 179.442 -0.784947 1.73028 0
M  V30 1934 H 177.592 -3.2284 2.16116 0
M  V30 1935 H 179.264 -1.71058 4.28412 0
M  V30 1936 H 177.507 -1.54394 4.05395 0
M  V30 1937 H 178.178 -3.0935 4.57172 0
M  V30 1938 H 180.654 -3.2094 2.64834 0
M  V30 1939 H 179.53 -4.50248 3.13955 0
M  V30 1940 H 179.791 -4.18259 1.43221 0
M  V30 1941 N 178.85 -1.27639 -0.924453 0
M  V30 1942 C 179.76 -1.12466 -2.05885 0
M  V30 1943 C 180.776 -0.053869 -1.73917 0
M  V30 1944 O 181.952 -0.261012 -1.99702 0
M  V30 1945 C 179.017 -0.776768 -3.37886 0
M  V30 1946 C 178.078 -1.92878 -3.83532 0
M  V30 1947 C 177.311 -1.59739 -5.09234 0
M  V30 1948 O 177.534 -0.506782 -5.68144 0
M  V30 1949 O 176.468 -2.43761 -5.50331 0
M  V30 1950 H 180.294 -2.07671 -2.21599 0
M  V30 1951 H 177.879 -1.06857 -1.04413 0
M  V30 1952 H 179.761 -0.596229 -4.17161 0
M  V30 1953 H 178.436 0.145732 -3.23372 0
M  V30 1954 H 177.343 -2.1644 -3.0513 0
M  V30 1955 H 178.676 -2.8316 -4.02593 0
M  V30 1956 N 180.328 1.1314 -1.09713 0
M  V30 1957 C 181.558 1.88048 -0.855656 0
M  V30 1958 C 181.966 1.79537 0.596919 0
M  V30 1959 O 181.309 1.16196 1.42282 0
M  V30 1960 C 181.371 3.38314 -1.21589 0
M  V30 1961 C 181.035 3.70605 -2.67397 0
M  V30 1962 C 182.032 3.69596 -3.65643 0
M  V30 1963 C 179.717 4.0017 -3.03593 0
M  V30 1964 C 181.711 3.977 -4.9811 0
M  V30 1965 C 179.398 4.27935 -4.36251 0
M  V30 1966 C 180.396 4.26685 -5.33318 0
M  V30 1967 O 180.084 4.53767 -6.63589 0
M  V30 1968 H 179.816 0.60208 -0.307368 0
M  V30 1969 H 182.37 1.44128 -1.46343 0
M  V30 1970 H 180.6 3.82752 -0.551177 0
M  V30 1971 H 182.289 3.94552 -0.953083 0
M  V30 1972 H 183.055 3.46826 -3.39023 0
M  V30 1973 H 178.934 4.00289 -2.2867 0
M  V30 1974 H 182.478 3.9664 -5.73866 0
M  V30 1975 H 178.375 4.50178 -4.62613 0
M  V30 1976 H 179.143 4.71422 -6.69107 0
M  V30 1977 N 181.806 0.884767 1.30421 0
M  V30 1978 C 182.738 0.308655 2.27112 0
M  V30 1979 C 183.751 -0.536655 1.53701 0
M  V30 1980 O 184.94 -0.35624 1.74909 0
M  V30 1981 C 182.04 -0.579782 3.33904 0
M  V30 1982 C 181.213 0.236417 4.36761 0
M  V30 1983 C 180.272 -0.582482 5.22966 0
M  V30 1984 O 179.298 -0.00525502 5.692 0
M  V30 1985 N 180.5 -1.89163 5.48815 0
M  V30 1986 H 183.265 1.13964 2.77186 0
M  V30 1987 H 180.826 0.747731 1.43599 0
M  V30 1988 H 182.818 -1.13366 3.88497 0
M  V30 1989 H 181.388 -1.31144 2.83761 0
M  V30 1990 H 180.608 0.97174 3.82035 0
M  V30 1991 H 181.896 0.795924 5.02536 0
M  V30 1992 H 181.294 -2.38352 5.13035 0
M  V30 1993 H 179.851 -2.39296 6.06284 0
M  V30 1994 N 183.284 -1.43765 0.645699 0
M  V30 1995 C 184.561 -1.9541 0.0862963 0
M  V30 1996 C 184.941 -1.58725 -1.39175 0
M  V30 1997 O 184.289 -0.868581 -2.11348 0
M  V30 1998 C 184.499 -3.47488 0.324565 0
M  V30 1999 C 185.847 -4.24001 0.225497 0
M  V30 2000 O 186.871 -3.55274 0.256715 0
M  V30 2001 O 185.73 -5.46313 0.142801 0
M  V30 2002 H 182.824 -0.826882 -0.0139483 0
M  V30 2003 H 185.37 -1.53743 0.718415 0
M  V30 2004 H 184.142 -3.67289 1.3496 0
M  V30 2005 H 183.765 -3.96135 -0.340987 0
M  V30 2006 N 184.763 -0.387143 -1.52771 0
M  V30 2007 C 185.673 0.456442 -2.30117 0
M  V30 2008 C 186.689 1.07342 -1.36944 0
M  V30 2009 O 187.865 1.07971 -1.70013 0
M  V30 2010 C 184.93 1.56957 -3.09136 0
M  V30 2011 C 183.991 0.977916 -4.18014 0
M  V30 2012 C 183.224 2.038 -4.93256 0
M  V30 2013 O 183.447 3.25271 -4.68567 0
M  V30 2014 O 182.381 1.6565 -5.78657 0
M  V30 2015 H 186.207 -0.17359 -3.03203 0
M  V30 2016 H 183.792 -0.150919 -1.48636 0
M  V30 2017 H 185.674 2.21628 -3.58412 0
M  V30 2018 H 184.349 2.18461 -2.38865 0
M  V30 2019 H 183.256 0.294525 -3.72939 0
M  V30 2020 H 184.589 0.407128 -4.90513 0
M  V30 2021 N 186.241 1.57166 -0.116904 0
M  V30 2022 C 187.151 2.18745 0.847812 0
M  V30 2023 C 188.167 1.163 1.29423 0
M  V30 2024 O 189.343 1.48761 1.35765 0
M  V30 2025 C 186.408 2.77307 2.0809 0
M  V30 2026 C 185.469 3.94781 1.68661 0
M  V30 2027 C 184.702 4.50541 2.86091 0
M  V30 2028 O 184.925 4.05202 4.01456 0
M  V30 2029 O 183.859 5.41256 2.63298 0
M  V30 2030 H 187.685 3.01632 0.353778 0
M  V30 2031 H 185.27 1.49005 0.108599 0
M  V30 2032 H 187.152 3.14647 2.80313 0
M  V30 2033 H 185.827 1.97452 2.56504 0
M  V30 2034 H 184.734 3.62214 0.935518 0
M  V30 2035 H 186.067 4.76065 1.24991 0
M  V30 2036 N 187.719 -0.156864 1.56817 0
M  V30 2037 C 188.967 -0.869404 1.82444 0
M  V30 2038 C 189.288 -1.82147 0.69623 0
M  V30 2039 O 188.558 -1.93847 -0.28287 0
M  V30 2040 H 187.138 -0.324043 0.673056 0
M  V30 2041 H 189.8 -0.153224 1.94297 0
M  V30 2042 H 188.896 -1.43761 2.77019 0
M  V30 2043 N 189.197 -1.51736 -0.425897 0
M  V30 2044 C 190.613 -1.40166 -0.76326 0
M  V30 2045 C 190.813 -0.492962 -1.95377 0
M  V30 2046 O 189.869 0.0475815 -2.52455 0
M  V30 2047 C 191.182 -2.82403 -1.03291 0
M  V30 2048 C 192.73 -2.91632 -1.13665 0
M  V30 2049 C 193.205 -4.34801 -1.43916 0
M  V30 2050 N 194.696 -4.3796 -1.50816 0
M  V30 2051 C 195.431 -5.4578 -1.75817 0
M  V30 2052 N 194.927 -6.63744 -1.98534 0
M  V30 2053 N 196.72 -5.33274 -1.77694 0
M  V30 2054 H 188.871 -2.09361 0.358 0
M  V30 2055 H 191.134 -0.942941 0.0978094 0
M  V30 2056 H 190.84 -3.50943 -0.230696 0
M  V30 2057 H 190.714 -3.22428 -1.95754 0
M  V30 2058 H 193.101 -2.23284 -1.92947 0
M  V30 2059 H 193.182 -2.55088 -0.190756 0
M  V30 2060 H 192.826 -5.03703 -0.65157 0
M  V30 2061 H 192.756 -4.68868 -2.39729 0
M  V30 2062 H 195.247 -3.52919 -1.35118 0
M  V30 2063 H 195.56 -7.41704 -2.17013 0
M  V30 2064 H 193.905 -6.66839 -1.95832 0
M  V30 2065 H 197.096 -4.40098 -1.59473 0
M  V30 2066 H 197.269 -6.1738 -1.9684 0
M  V30 2067 N 190.675 0.682077 -1.42076 0
M  V30 2068 C 191.923 1.4393 -1.41876 0
M  V30 2069 C 192.244 1.94971 -0.0335599 0
M  V30 2070 O 191.514 1.72591 0.926773 0
M  V30 2071 H 190.094 0.534085 -0.522267 0
M  V30 2072 H 192.756 0.806427 -1.77434 0
M  V30 2073 H 191.852 2.29588 -2.11414 0
M  V30 2074 N 192.153 1.28127 0.917671 0
M  V30 2075 C 193.569 1.05749 1.19538 0
M  V30 2076 C 193.769 -0.202633 2.00479 0
M  V30 2077 O 192.825 -0.905382 2.3571 0
M  V30 2078 C 194.138 2.30273 1.93378 0
M  V30 2079 C 195.686 2.35412 2.06277 0
M  V30 2080 C 196.161 3.59692 2.83524 0
M  V30 2081 N 197.652 3.60309 2.91087 0
M  V30 2082 C 198.387 4.53147 3.51348 0
M  V30 2083 N 197.883 5.563 4.12919 0
M  V30 2084 N 199.676 4.40751 3.48849 0
M  V30 2085 H 191.827 2.09024 0.377184 0
M  V30 2086 H 194.09 0.919798 0.22951 0
M  V30 2087 H 193.796 3.22055 1.41328 0
M  V30 2088 H 193.67 2.36378 2.93947 0
M  V30 2089 H 196.057 1.4413 2.57508 0
M  V30 2090 H 196.138 2.33304 1.04895 0
M  V30 2091 H 195.782 4.51316 2.32973 0
M  V30 2092 H 195.712 3.59054 3.85211 0
M  V30 2093 H 198.203 2.85714 2.47338 0
M  V30 2094 H 198.516 6.2329 4.56869 0
M  V30 2095 H 196.861 5.60131 4.11435 0
M  V30 2096 H 200.052 3.59367 2.99955 0
M  V30 2097 H 200.225 5.13291 3.9552 0
M  V30 2098 N 193.631 -1.12557 1.10312 0
M  V30 2099 C 194.877 -1.84311 0.846011 0
M  V30 2100 C 195.21 -1.83805 -0.626859 0
M  V30 2101 O 194.485 -1.28268 -1.46211 0
M  V30 2102 C 194.768 -3.32048 1.39341 0
M  V30 2103 C 194.621 -3.41016 2.93305 0
M  V30 2104 C 195.94 -4.27764 1.03468 0
M  V30 2105 H 193.059 -0.669192 0.30879 0
M  V30 2106 H 195.701 -1.32057 1.36605 0
M  V30 2107 H 193.851 -3.76678 0.951087 0
M  V30 2108 H 195.523 -3.05031 3.46055 0
M  V30 2109 H 193.766 -2.81603 3.29973 0
M  V30 2110 H 194.437 -4.44948 3.26689 0
M  V30 2111 H 196.913 -3.91253 1.41633 0
M  V30 2112 H 195.789 -5.29549 1.44463 0
M  V30 2113 H 196.05 -4.42064 -0.0560404 0
M  V30 2114 N 195.109 -0.891671 -1.2995 0
M  V30 2115 C 196.039 -0.379797 -2.30391 0
M  V30 2116 C 197.02 0.540919 -1.6127 0
M  V30 2117 O 198.205 0.453352 -1.88834 0
M  V30 2118 C 195.335 0.400654 -3.44981 0
M  V30 2119 C 194.289 -0.428905 -4.25846 0
M  V30 2120 C 193.615 0.478557 -5.32554 0
M  V30 2121 C 194.915 -1.67458 -4.94727 0
M  V30 2122 H 196.609 -1.21914 -2.73454 0
M  V30 2123 H 194.155 -0.587675 -1.31462 0
M  V30 2124 H 196.108 0.769434 -4.14316 0
M  V30 2125 H 194.832 1.27371 -3.0074 0
M  V30 2126 H 193.491 -0.779911 -3.58208 0
M  V30 2127 H 193.139 1.34951 -4.84559 0
M  V30 2128 H 192.839 -0.0727433 -5.87555 0
M  V30 2129 H 194.363 0.843705 -6.04743 0
M  V30 2130 H 195.777 -1.376 -5.56542 0
M  V30 2131 H 194.174 -2.16659 -5.59624 0
M  V30 2132 H 195.244 -2.41518 -4.20473 0
M  V30 2133 N 196.587 1.43421 -0.653314 0
M  V30 2134 C 197.497 2.34568 0.0388565 0
M  V30 2135 C 198.513 1.53888 0.81207 0
M  V30 2136 O 199.689 1.86539 0.759294 0
M  V30 2137 C 196.754 3.32167 0.993269 0
M  V30 2138 C 195.815 4.28751 0.216977 0
M  V30 2139 C 195.048 5.21688 1.12593 0
M  V30 2140 O 195.271 5.19052 2.36519 0
M  V30 2141 O 194.205 5.98919 0.598284 0
M  V30 2142 H 198.031 2.95251 -0.711386 0
M  V30 2143 H 195.616 1.43564 -0.413502 0
M  V30 2144 H 197.498 3.92183 1.54176 0
M  V30 2145 H 196.173 2.73987 1.72374 0
M  V30 2146 H 195.08 3.72215 -0.375101 0
M  V30 2147 H 196.413 4.89913 -0.473924 0
M  V30 2148 N 198.065 0.39524 1.52563 0
M  V30 2149 C 198.995 -0.428384 2.29537 0
M  V30 2150 C 199.976 -1.05831 1.33169 0
M  V30 2151 O 201.161 -1.06995 1.62067 0
M  V30 2152 C 198.291 -1.55274 3.10656 0
M  V30 2153 C 197.245 -1.04855 4.14957 0
M  V30 2154 C 196.571 -2.26543 4.84337 0
M  V30 2155 C 197.871 -0.112324 5.22179 0
M  V30 2156 H 199.565 0.213867 2.98635 0
M  V30 2157 H 197.111 0.104298 1.43622 0
M  V30 2158 H 199.064 -2.1358 3.63265 0
M  V30 2159 H 197.788 -2.22266 2.39302 0
M  V30 2160 H 196.447 -0.487985 3.63338 0
M  V30 2161 H 196.095 -2.92059 4.09525 0
M  V30 2162 H 195.795 -1.93466 5.54837 0
M  V30 2163 H 197.319 -2.85481 5.39753 0
M  V30 2164 H 198.733 -0.603752 5.70112 0
M  V30 2165 H 197.13 0.128968 5.99961 0
M  V30 2166 H 198.2 0.837052 4.77621 0
M  V30 2167 N 199.544 -1.57102 0.125237 0
M  V30 2168 C 200.454 -2.19191 -0.8362 0
M  V30 2169 C 201.47 -1.16985 -1.28805 0
M  V30 2170 O 202.646 -1.49479 -1.34974 0
M  V30 2171 C 199.711 -2.78407 -2.06617 0
M  V30 2172 C 198.772 -3.9567 -1.66565 0
M  V30 2173 C 198.005 -4.52052 -2.83698 0
M  V30 2174 O 198.228 -4.07326 -3.99302 0
M  V30 2175 O 197.162 -5.42645 -2.60423 0
M  V30 2176 H 200.988 -3.01816 -0.337776 0
M  V30 2177 H 198.573 -1.4906 -0.100695 0
M  V30 2178 H 200.455 -3.16129 -2.7864 0
M  V30 2179 H 199.13 -1.9881 -2.55453 0
M  V30 2180 H 198.037 -3.62705 -0.916296 0
M  V30 2181 H 199.37 -4.76722 -1.22464 0
M  V30 2182 N 201.022 0.148545 -1.56898 0
M  V30 2183 C 202.27 0.859717 -1.82902 0
M  V30 2184 C 202.591 1.81775 -0.70588 0
M  V30 2185 O 201.861 1.93994 0.272586 0
M  V30 2186 H 200.441 0.320469 -0.674766 0
M  V30 2187 H 203.103 0.142918 -1.94375 0
M  V30 2188 H 202.199 1.4229 -2.77777 0
M  V30 2189 N 202.5 1.5196 0.417844 0
M  V30 2190 C 203.73 1.69181 1.18581 0
M  V30 2191 C 204.138 0.397104 1.84986 0
M  V30 2192 O 203.481 -0.636011 1.72339 0
M  V30 2193 C 203.543 2.76497 2.29759 0
M  V30 2194 C 203.207 4.18514 1.83563 0
M  V30 2195 C 204.204 5.02648 1.32821 0
M  V30 2196 C 201.889 4.64708 1.90661 0
M  V30 2197 C 203.883 6.31044 0.897894 0
M  V30 2198 C 201.57 5.93096 1.47241 0
M  V30 2199 C 202.568 6.76093 0.968891 0
M  V30 2200 O 202.256 8.02078 0.540924 0
M  V30 2201 H 201.988 0.570457 0.362705 0
M  V30 2202 H 204.542 1.99249 0.498885 0
M  V30 2203 H 202.772 2.41786 3.01789 0
M  V30 2204 H 204.461 2.82403 2.91553 0
M  V30 2205 H 205.227 4.68154 1.26716 0
M  V30 2206 H 201.106 4.00216 2.28797 0
M  V30 2207 H 204.65 6.95776 0.504192 0
M  V30 2208 H 200.547 6.271 1.53022 0
M  V30 2209 H 201.315 8.15794 0.66502 0
M  V30 2210 N 203.978 -0.674533 1.42435 0
M  V30 2211 C 204.911 -1.79924 1.40366 0
M  V30 2212 C 205.889 -1.60378 0.267899 0
M  V30 2213 O 207.073 -1.82847 0.458159 0
M  V30 2214 C 204.2 -3.16927 1.19478 0
M  V30 2215 C 203.246 -3.55221 2.36051 0
M  V30 2216 S 204.079 -3.5762 3.98583 0
M  V30 2217 C 205.235 -4.97315 3.80038 0
M  V30 2218 H 205.468 -1.81405 2.35541 0
M  V30 2219 H 203.001 -0.845221 1.29211 0
M  V30 2220 H 204.959 -3.96007 1.08114 0
M  V30 2221 H 203.62 -3.13031 0.258883 0
M  V30 2222 H 202.813 -4.54804 2.17185 0
M  V30 2223 H 202.415 -2.83502 2.43932 0
M  V30 2224 H 204.707 -5.85401 3.41045 0
M  V30 2225 H 205.65 -5.21228 4.79298 0
M  V30 2226 H 206.058 -4.69845 3.12899 0
M  V30 2227 N 205.456 -1.28612 -0.910864 0
M  V30 2228 C 206.419 -1.12803 -1.9952 0
M  V30 2229 C 207.419 -0.0668264 -1.60661 0
M  V30 2230 O 208.609 -0.312847 -1.71368 0
M  V30 2231 C 205.741 -0.72254 -3.33155 0
M  V30 2232 H 206.934 -2.09109 -2.14973 0
M  V30 2233 H 204.487 -1.11639 -1.09391 0
M  V30 2234 H 205.222 0.241152 -3.23402 0
M  V30 2235 H 205.007 -1.48916 -3.62721 0
M  V30 2236 H 206.497 -0.634666 -4.12749 0
M  V30 2237 N 206.934 1.1197 -1.10907 0
M  V30 2238 C 208.35 1.35591 -0.841852 0
M  V30 2239 C 208.55 1.94233 0.536246 0
M  V30 2240 O 207.606 2.1717 1.28816 0
M  V30 2241 C 208.919 2.29284 -1.94549 0
M  V30 2242 C 210.467 2.42862 -1.97451 0
M  V30 2243 C 210.942 3.39873 -3.07002 0
M  V30 2244 N 212.433 3.47433 -3.06341 0
M  V30 2245 C 213.168 4.22421 -3.87748 0
M  V30 2246 N 212.664 5.00432 -4.79103 0
M  V30 2247 N 214.457 4.17876 -3.75946 0
M  V30 2248 H 206.608 0.722664 -1.99728 0
M  V30 2249 H 208.871 0.380635 -0.868229 0
M  V30 2250 H 208.577 1.93378 -2.93765 0
M  V30 2251 H 208.451 3.29452 -1.83688 0
M  V30 2252 H 210.838 2.78046 -0.988645 0
M  V30 2253 H 210.919 1.42566 -2.12388 0
M  V30 2254 H 210.563 3.05417 -4.05811 0
M  V30 2255 H 210.493 4.40011 -2.89306 0
M  V30 2256 H 212.984 2.91784 -2.40147 0
M  V30 2257 H 213.297 5.55002 -5.37766 0
M  V30 2258 H 211.642 4.99612 -4.83128 0
M  V30 2259 H 214.833 3.56016 -3.03924 0
M  V30 2260 H 215.006 4.76061 -4.39624 0
M  V30 2261 N 208.412 0.89855 1.29475 0
M  V30 2262 C 209.658 0.524658 1.95896 0
M  V30 2263 C 209.991 -0.926468 1.70676 0
M  V30 2264 O 209.266 -1.65665 1.01908 0
M  V30 2265 C 209.549 0.81633 3.50725 0
M  V30 2266 C 209.402 2.31907 3.85408 0
M  V30 2267 C 210.721 0.302038 4.39062 0
M  V30 2268 H 207.84 0.19209 0.711527 0
M  V30 2269 H 210.482 1.12502 1.53112 0
M  V30 2270 H 208.632 0.305369 3.87298 0
M  V30 2271 H 210.304 2.89949 3.58786 0
M  V30 2272 H 208.547 2.78027 3.32992 0
M  V30 2273 H 209.218 2.47373 4.93468 0
M  V30 2274 H 211.694 0.739551 4.09475 0
M  V30 2275 H 210.57 0.535331 5.46283 0
M  V30 2276 H 210.831 -0.797216 4.34853 0
M  V30 2277 N 209.89 -1.43072 0.660911 0
M  V30 2278 C 211.137 -2.01721 0.177445 0
M  V30 2279 C 211.465 -1.5218 -1.21126 0
M  V30 2280 O 210.72 -0.708659 -1.82419 0
M  V30 2281 C 211.019 -3.57103 0.145563 0
M  V30 2282 C 210.685 -4.26021 1.47705 0
M  V30 2283 C 209.347 -4.44563 1.84165 0
M  V30 2284 C 211.699 -4.64983 2.35458 0
M  V30 2285 C 209.027 -4.99334 3.0803 0
M  V30 2286 C 211.379 -5.21127 3.58622 0
M  V30 2287 C 210.043 -5.37884 3.95268 0
M  V30 2288 H 209.313 -0.73815 0.0649317 0
M  V30 2289 H 211.96 -1.71446 0.853144 0
M  V30 2290 H 210.265 -3.86965 -0.61361 0
M  V30 2291 H 211.962 -4.00248 -0.2455 0
M  V30 2292 H 208.552 -4.11939 1.18339 0
M  V30 2293 H 212.736 -4.50343 2.08579 0
M  V30 2294 H 207.992 -5.10493 3.36462 0
M  V30 2295 H 212.166 -5.50262 4.26831 0
M  V30 2296 H 209.793 -5.80089 4.91325 0
M  V30 2297 N 211.368 -0.403325 -1.52352 0
M  V30 2298 C 212.3 0.4603 -2.2453 0
M  V30 2299 C 213.313 1.01505 -1.27282 0
M  V30 2300 O 214.502 0.914982 -1.53266 0
M  V30 2301 C 211.602 1.65208 -2.95905 0
M  V30 2302 C 210.775 1.22224 -4.19976 0
M  V30 2303 C 209.834 2.28028 -4.74226 0
M  V30 2304 O 208.86 1.88857 -5.36956 0
M  V30 2305 N 210.062 3.6012 -4.55295 0
M  V30 2306 H 212.827 -0.158156 -2.99282 0
M  V30 2307 H 210.388 -0.230402 -1.60252 0
M  V30 2308 H 212.38 2.35541 -3.29093 0
M  V30 2309 H 210.95 2.17658 -2.24374 0
M  V30 2310 H 210.17 0.34725 -3.92668 0
M  V30 2311 H 211.458 0.911924 -5.00561 0
M  V30 2312 H 210.856 3.94698 -4.05253 0
M  V30 2313 H 209.413 4.26447 -4.92936 0
M  V30 2314 N 212.846 1.57033 -0.133567 0
M  V30 2315 C 213.796 2.12641 0.822671 0
M  V30 2316 C 214.78 1.05081 1.21847 0
M  V30 2317 O 215.972 1.31287 1.18713 0
M  V30 2318 C 213.101 2.74094 2.06706 0
M  V30 2319 C 212.187 3.88757 1.69497 0
M  V30 2320 N 212.578 4.95194 1.03037 0
M  V30 2321 C 210.876 3.99213 1.98859 0
M  V30 2322 C 211.577 5.75414 0.852873 0
M  V30 2323 N 210.553 5.25726 1.3825 0
M  V30 2324 H 214.355 2.92308 0.305537 0
M  V30 2325 H 211.869 1.62256 0.0684276 0
M  V30 2326 H 213.866 3.12285 2.76195 0
M  V30 2327 H 212.526 1.95896 2.5895 0
M  V30 2328 H 213.537 5.13247 0.692669 0
M  V30 2329 H 210.214 3.32075 2.53047 0
M  V30 2330 H 211.604 6.71089 0.330091 0
M  V30 2331 N 214.325 -0.140222 1.56975 0
M  V30 2332 C 215.235 -1.19223 2.02047 0
M  V30 2333 C 216.251 -1.46612 0.937062 0
M  V30 2334 O 217.427 -1.58148 1.24704 0
M  V30 2335 C 214.492 -2.50414 2.39778 0
M  V30 2336 C 213.553 -2.30612 3.621 0
M  V30 2337 C 212.786 -3.55547 3.98023 0
M  V30 2338 O 213.009 -4.62004 3.34528 0
M  V30 2339 O 211.943 -3.47808 4.91237 0
M  V30 2340 H 215.769 -0.839559 2.91865 0
M  V30 2341 H 213.354 -0.349453 1.45256 0
M  V30 2342 H 215.236 -3.27747 2.64877 0
M  V30 2343 H 213.911 -2.85198 1.53114 0
M  V30 2344 H 212.818 -1.51207 3.4218 0
M  V30 2345 H 214.151 -2.00741 4.49404 0
M  V30 2346 N 215.803 -1.52179 -0.40978 0
M  V30 2347 C 217.052 -1.65434 -1.15388 0
M  V30 2348 C 217.365 -0.390056 -1.91671 0
M  V30 2349 O 218.571 -0.402399 -2.68501 0
M  V30 2350 C 217.027 -2.92279 -2.10003 0
M  V30 2351 C 216.635 -4.25813 -1.39239 0
M  V30 2352 C 218.379 -3.14897 -2.84675 0
M  V30 2353 C 216.286 -5.43782 -2.32498 0
M  V30 2354 H 215.216 -0.616267 -0.434432 0
M  V30 2355 H 217.867 -1.78666 -0.418401 0
M  V30 2356 H 216.249 -2.72744 -2.871 0
M  V30 2357 H 217.423 -4.55828 -0.675099 0
M  V30 2358 H 215.738 -4.09292 -0.766097 0
M  V30 2359 H 218.335 -4.0021 -3.54593 0
M  V30 2360 H 218.678 -2.29103 -3.47588 0
M  V30 2361 H 219.211 -3.34901 -2.14677 0
M  V30 2362 H 215.95 -6.3192 -1.74233 0
M  V30 2363 H 215.47 -5.18106 -3.02201 0
M  V30 2364 H 217.149 -5.76834 -2.93038 0
M  V30 2365 N 217.281 0.66697 -1.42791 0
M  V30 2366 C 218.558 1.4234 -1.34159 0
M  V30 2367 C 218.938 2.11093 0.0172729 0
M  V30 2368 O 218.286 2.03808 1.03318 0
M  V30 2369 C 218.496 2.41942 -2.51526 0
M  V30 2370 C 219.844 3.06353 -2.93995 0
M  V30 2371 O 220.868 2.52269 -2.51473 0
M  V30 2372 O 219.727 4.04376 -3.67617 0
M  V30 2373 H 216.821 0.635277 -0.529483 0
M  V30 2374 H 219.367 0.695034 -1.54814 0
M  V30 2375 H 218.139 1.89991 -3.42081 0
M  V30 2376 H 217.762 3.22249 -2.32898 0
M  V30 2377 N 218.759 1.29093 0.90403 0
M  V30 2378 C 219.709 1.10482 1.99443 0
M  V30 2379 C 220.693 0.0255401 1.6088 0
M  V30 2380 O 221.885 0.24677 1.75271 0
M  V30 2381 C 219.014 0.778882 3.34348 0
M  V30 2382 C 218.1 1.89749 3.79284 0
M  V30 2383 N 218.491 3.14045 3.96497 0
M  V30 2384 C 216.789 1.78955 4.08523 0
M  V30 2385 C 217.49 3.86996 4.34292 0
M  V30 2386 N 216.466 3.14909 4.43095 0
M  V30 2387 H 220.268 2.04778 2.10815 0
M  V30 2388 H 217.782 1.20155 1.09255 0
M  V30 2389 H 219.779 0.62661 4.12164 0
M  V30 2390 H 218.439 -0.156205 3.24324 0
M  V30 2391 H 219.45 3.49548 3.82148 0
M  V30 2392 H 216.127 0.926886 4.07081 0
M  V30 2393 H 217.517 4.93941 4.55491 0
M  V30 2394 N 220.237 -1.11381 1.11499 0
M  V30 2395 C 221.167 -2.19509 0.796125 0
M  V30 2396 C 222.148 -1.68458 -0.235796 0
M  V30 2397 O 223.333 -1.93947 -0.0991344 0
M  V30 2398 C 220.463 -3.46475 0.239205 0
M  V30 2399 C 219.417 -4.10744 1.20307 0
M  V30 2400 C 218.743 -5.32293 0.50683 0
M  V30 2401 C 220.043 -4.55597 2.55399 0
M  V30 2402 H 221.737 -2.46439 1.70024 0
M  V30 2403 H 219.283 -1.18446 0.818935 0
M  V30 2404 H 221.236 -4.214 0.00392006 0
M  V30 2405 H 219.96 -3.19006 -0.700206 0
M  V30 2406 H 218.619 -3.37813 1.42399 0
M  V30 2407 H 218.267 -5.01095 -0.437408 0
M  V30 2408 H 217.967 -5.76243 1.1497 0
M  V30 2409 H 219.491 -6.09956 0.280351 0
M  V30 2410 H 220.905 -5.21841 2.37391 0
M  V30 2411 H 219.302 -5.10363 3.15673 0
M  V30 2412 H 220.372 -3.69013 3.14575 0
M  V30 2413 N 221.715 -0.905404 -1.28997 0
M  V30 2414 C 222.992 -0.453513 -1.9027 0
M  V30 2415 C 223.372 1.06721 -1.82137 0
M  V30 2416 O 222.72 1.91159 -1.25182 0
M  V30 2417 C 222.93 -0.974494 -3.35119 0
M  V30 2418 C 224.278 -1.0216 -4.12127 0
M  V30 2419 O 225.302 -0.922557 -3.44046 0
M  V30 2420 O 224.161 -1.17121 -5.33802 0
M  V30 2421 H 221.255 -0.142347 -0.814657 0
M  V30 2422 H 223.801 -0.995642 -1.37423 0
M  V30 2423 H 222.573 -2.01848 -3.35221 0
M  V30 2424 H 222.196 -0.412706 -3.95452 0
M  V30 2425 N 223.193 1.4272 -0.668489 0
M  V30 2426 C 224.441 2.01226 -0.187769 0
M  V30 2427 C 224.762 1.53092 1.2078 0
M  V30 2428 O 224.032 0.74993 1.80977 0
M  V30 2429 H 222.612 0.744041 -0.0664272 0
M  V30 2430 H 225.274 1.74723 -0.863583 0
M  V30 2431 H 224.37 3.11556 -0.184166 0
M  V30 2432 N 224.671 0.411399 1.52136 0
M  V30 2433 C 225.92 -0.165009 2.01024 0
M  V30 2434 C 226.233 -1.4603 1.30133 0
M  V30 2435 O 227.439 -2.1181 1.69849 0
M  V30 2436 C 225.895 -0.344618 3.58246 0
M  V30 2437 C 225.503 0.938716 4.38055 0
M  V30 2438 C 227.247 -0.876195 4.15359 0
M  V30 2439 C 225.154 0.726172 5.86925 0
M  V30 2440 H 224.084 -0.0654407 0.751155 0
M  V30 2441 H 226.735 0.537192 1.75461 0
M  V30 2442 H 225.117 -1.10921 3.80148 0
M  V30 2443 H 226.291 1.70963 4.27912 0
M  V30 2444 H 224.606 1.39688 3.92271 0
M  V30 2445 H 227.203 -1.05128 5.24263 0
M  V30 2446 H 227.546 -1.85152 3.7286 0
M  V30 2447 H 228.079 -0.170607 3.97434 0
M  V30 2448 H 224.818 1.67312 6.33788 0
M  V30 2449 H 224.338 -0.00540283 5.998 0
M  V30 2450 H 226.017 0.369231 6.45946 0
M  V30 2451 N 226.149 -1.5696 0.141893 0
M  V30 2452 C 227.079 -2.19516 -0.795936 0
M  V30 2453 C 228.06 -1.14187 -1.26077 0
M  V30 2454 O 229.245 -1.42511 -1.31925 0
M  V30 2455 C 226.375 -2.81272 -2.03723 0
M  V30 2456 C 225.329 -3.92384 -1.70936 0
M  V30 2457 C 224.655 -4.41052 -3.02287 0
M  V30 2458 C 225.955 -5.13403 -0.959954 0
M  V30 2459 H 227.649 -2.98138 -0.274596 0
M  V30 2460 H 225.195 -1.43406 -0.130636 0
M  V30 2461 H 227.148 -3.237 -2.69808 0
M  V30 2462 H 225.872 -1.99973 -2.58221 0
M  V30 2463 H 224.531 -3.50566 -1.07232 0
M  V30 2464 H 224.179 -3.56582 -3.54765 0
M  V30 2465 H 223.879 -5.15993 -2.81114 0
M  V30 2466 H 225.403 -4.86146 -3.69451 0
M  V30 2467 H 226.817 -5.52706 -1.52279 0
M  V30 2468 H 225.214 -5.94073 -0.848357 0
M  V30 2469 H 226.284 -4.84875 0.0492434 0
M  V30 2470 N 227.627 0.131896 -1.57047 0
M  V30 2471 C 228.874 0.841932 -1.84168 0
M  V30 2472 C 229.202 1.8048 -0.725066 0
M  V30 2473 O 228.457 1.93618 0.284692 0
M  V30 2474 C 228.756 1.63703 -3.17704 0
M  V30 2475 C 228.422 0.81961 -4.43388 0
M  V30 2476 C 227.084 0.594148 -4.77518 0
M  V30 2477 C 229.436 0.248977 -5.20605 0
M  V30 2478 C 226.764 -0.212409 -5.86315 0
M  V30 2479 C 229.116 -0.544701 -6.30251 0
M  V30 2480 C 227.78 -0.780599 -6.6292 0
M  V30 2481 H 227.05 0.308085 -0.673917 0
M  V30 2482 H 229.697 0.104867 -1.91213 0
M  V30 2483 H 228.002 2.44464 -3.06177 0
M  V30 2484 H 229.699 2.19015 -3.35907 0
M  V30 2485 H 226.289 1.00542 -4.16641 0
M  V30 2486 H 230.473 0.410408 -4.946 0
M  V30 2487 H 225.729 -0.404524 -6.1006 0
M  V30 2488 H 229.903 -0.993922 -6.89271 0
M  V30 2489 H 227.53 -1.40742 -7.47058 0
M  V30 2490 N 229.106 1.52395 0.401703 0
M  V30 2491 C 230.353 1.66817 1.14796 0
M  V30 2492 C 230.681 0.401772 1.90305 0
M  V30 2493 O 229.936 -0.615487 1.85769 0
M  V30 2494 C 230.235 2.84578 2.16217 0
M  V30 2495 C 229.901 4.22513 1.5746 0
M  V30 2496 C 228.563 4.60029 1.41161 0
M  V30 2497 C 230.915 5.0844 1.14622 0
M  V30 2498 C 228.243 5.81144 0.80552 0
M  V30 2499 C 230.595 6.30167 0.55428 0
M  V30 2500 C 229.259 6.66426 0.378482 0
M  V30 2501 H 228.529 0.610428 0.420069 0
M  V30 2502 H 231.176 1.86512 0.434212 0
M  V30 2503 H 229.481 2.59248 2.93764 0
M  V30 2504 H 231.178 2.92933 2.73845 0
M  V30 2505 H 227.768 3.92953 1.71132 0
M  V30 2506 H 231.952 4.80034 1.26021 0
M  V30 2507 H 227.208 6.07855 0.657399 0
M  V30 2508 H 231.382 6.96071 0.213983 0
M  V30 2509 H 229.009 7.60143 -0.0932606 0
M  V30 2510 N 230.584 -0.659388 1.43143 0
M  V30 2511 C 231.494 -1.80167 1.50256 0
M  V30 2512 C 232.51 -1.69571 0.390106 0
M  V30 2513 O 233.686 -1.90849 0.643319 0
M  V30 2514 C 230.751 -3.16409 1.41725 0
M  V30 2515 C 229.812 -3.38848 2.63591 0
M  V30 2516 C 229.045 -4.68591 2.55458 0
M  V30 2517 O 229.268 -5.47532 1.59891 0
M  V30 2518 O 228.202 -4.92614 3.45854 0
M  V30 2519 H 232.028 -1.77121 2.46702 0
M  V30 2520 H 229.613 -0.817092 1.25076 0
M  V30 2521 H 231.495 -3.9768 1.39387 0
M  V30 2522 H 230.17 -3.20059 0.484118 0
M  V30 2523 H 229.077 -2.57366 2.71502 0
M  V30 2524 H 230.41 -3.4004 3.55856 0
M  V30 2525 N 232.062 -1.29571 -0.897171 0
M  V30 2526 C 233.478 -1.07637 -1.17841 0
M  V30 2527 C 233.678 0.170713 -2.00776 0
M  V30 2528 O 232.734 0.867768 -2.3712 0
M  V30 2529 C 234.047 -2.3332 -1.8969 0
M  V30 2530 C 235.595 -2.38664 -2.02505 0
M  V30 2531 C 236.07 -3.64157 -2.77765 0
M  V30 2532 N 237.561 -3.64894 -2.85318 0
M  V30 2533 C 238.296 -4.58679 -3.44094 0
M  V30 2534 N 237.792 -5.62799 -4.04017 0
M  V30 2535 N 239.585 -4.46245 -3.41793 0
M  V30 2536 H 231.736 -2.09598 -0.343883 0
M  V30 2537 H 233.999 -0.923333 -0.214848 0
M  V30 2538 H 233.705 -3.24262 -1.36187 0
M  V30 2539 H 233.579 -2.41025 -2.9015 0
M  V30 2540 H 235.966 -1.48208 -2.55183 0
M  V30 2541 H 236.047 -2.34943 -1.01171 0
M  V30 2542 H 235.691 -4.54965 -2.25763 0
M  V30 2543 H 235.621 -3.65137 -3.7945 0
M  V30 2544 H 238.112 -2.89613 -2.42761 0
M  V30 2545 H 238.425 -6.3048 -4.46895 0
M  V30 2546 H 236.77 -5.66605 -4.02472 0
M  V30 2547 H 239.961 -3.64094 -2.94199 0
M  V30 2548 H 240.134 -5.19518 -3.87304 0
M  V30 2549 N 233.54 1.10788 -1.12088 0
M  V30 2550 C 234.47 2.19083 -0.807755 0
M  V30 2551 C 235.451 1.6858 0.226859 0
M  V30 2552 O 236.636 1.93997 0.0888475 0
M  V30 2553 C 233.766 3.46344 -0.257576 0
M  V30 2554 C 232.72 4.101 -1.22483 0
M  V30 2555 C 232.046 5.32016 -0.535052 0
M  V30 2556 C 233.346 4.54236 -2.57811 0
M  V30 2557 H 235.04 2.45534 -1.71328 0
M  V30 2558 H 232.586 1.1801 -0.825205 0
M  V30 2559 H 234.539 4.21392 -0.0262679 0
M  V30 2560 H 233.263 3.19373 0.683278 0
M  V30 2561 H 231.922 3.37054 -1.44189 0
M  V30 2562 H 231.57 5.01319 0.410827 0
M  V30 2563 H 231.27 5.75625 -1.18024 0
M  V30 2564 H 232.794 6.09799 -0.312695 0
M  V30 2565 H 234.208 5.20575 -2.40155 0
M  V30 2566 H 232.605 5.08682 -3.18375 0
M  V30 2567 H 233.675 3.6734 -3.16528 0
M  V30 2568 N 235.018 0.912232 1.28515 0
M  V30 2569 C 236.429 0.591352 1.77087 0
M  V30 2570 C 236.78 -0.8933 1.74684 0
M  V30 2571 O 235.905 -1.69876 1.34056 0
M  V30 2572 C 236.5 1.06668 3.2157 0
M  V30 2573 C 235.059 0.79675 3.67871 0
M  V30 2574 C 234.206 1.23427 2.48316 0
M  V30 2575 H 237.157 1.09365 1.15 0
M  V30 2576 H 237.178 0.407455 3.78312 0
M  V30 2577 H 236.69 2.14726 3.23287 0
M  V30 2578 H 234.791 -0.270679 3.71616 0
M  V30 2579 H 234.904 1.40343 4.58084 0
M  V30 2580 H 233.268 0.653036 2.46186 0
M  V30 2581 H 234.051 2.32316 2.52753 0
M  V30 2582 N 236.496 -1.42363 0.676048 0
M  V30 2583 C 237.443 -2.308 -0.00150904 0
M  V30 2584 C 238.413 -1.46032 -0.791444 0
M  V30 2585 O 239.598 -1.74861 -0.76344 0
M  V30 2586 C 236.738 -3.31883 -0.945919 0
M  V30 2587 C 235.851 -4.31741 -0.149675 0
M  V30 2588 C 234.986 -5.19898 -1.08995 0
M  V30 2589 C 234.025 -6.11434 -0.285465 0
M  V30 2590 N 233.162 -6.92138 -1.17851 0
M  V30 2591 H 238.002 -2.88187 0.758455 0
M  V30 2592 H 235.539 -1.41952 0.38576 0
M  V30 2593 H 237.497 -3.89019 -1.50731 0
M  V30 2594 H 236.127 -2.76093 -1.6725 0
M  V30 2595 H 235.179 -3.76713 0.528359 0
M  V30 2596 H 236.491 -4.96534 0.474866 0
M  V30 2597 H 235.645 -5.81772 -1.72123 0
M  V30 2598 H 234.384 -4.55284 -1.74837 0
M  V30 2599 H 233.389 -5.48627 0.359018 0
M  V30 2600 H 234.614 -6.78097 0.368883 0
M  V30 2601 H 232.56 -6.30152 -1.82332 0
M  V30 2602 H 232.477 -7.53542 -0.609082 0
M  V30 2603 H 233.745 -7.58499 -1.79722 0
M  V30 2604 N 237.974 -0.419461 -1.51915 0
M  V30 2605 C 239.385 0.0477853 -1.86639 0
M  V30 2606 C 239.736 1.43531 -1.33766 0
M  V30 2607 O 238.861 2.05401 -0.68113 0
M  V30 2608 C 239.456 0.0934885 -3.38671 0
M  V30 2609 C 238.015 0.505097 -3.72996 0
M  V30 2610 C 237.162 -0.313792 -2.75519 0
M  V30 2611 H 240.113 -0.636088 -1.45395 0
M  V30 2612 H 240.134 0.906667 -3.6954 0
M  V30 2613 H 239.646 -0.916501 -3.77123 0
M  V30 2614 H 237.747 1.52135 -3.40126 0
M  V30 2615 H 237.86 0.242309 -4.78487 0
M  V30 2616 H 236.224 0.225363 -2.53701 0
M  V30 2617 H 237.007 -1.32232 -3.16812 0
M  V30 2618 N 239.452 1.56882 -0.150215 0
M  V30 2619 C 240.399 2.16922 0.788244 0
M  V30 2620 C 241.369 1.10303 1.24187 0
M  V30 2621 O 242.554 1.38359 1.31383 0
M  V30 2622 C 239.694 2.79754 2.02068 0
M  V30 2623 C 238.807 4.00775 1.61257 0
M  V30 2624 C 237.942 4.51595 2.79705 0
M  V30 2625 C 236.981 5.65074 2.35282 0
M  V30 2626 N 236.118 6.10499 3.4675 0
M  V30 2627 H 240.958 2.96779 0.269444 0
M  V30 2628 H 238.495 1.46599 0.12128 0
M  V30 2629 H 240.453 3.14329 2.74323 0
M  V30 2630 H 239.083 2.02536 2.51354 0
M  V30 2631 H 238.135 3.72158 0.787553 0
M  V30 2632 H 239.447 4.82978 1.24633 0
M  V30 2633 H 238.601 4.88242 3.60145 0
M  V30 2634 H 237.34 3.68406 3.19576 0
M  V30 2635 H 236.345 5.28 1.53283 0
M  V30 2636 H 237.57 6.50052 1.96493 0
M  V30 2637 H 235.516 5.30243 3.86236 0
M  V30 2638 H 235.433 6.87637 3.14152 0
M  V30 2639 H 236.701 6.51791 4.27537 0
M  V30 2640 N 240.93 -0.123565 1.57115 0
M  V30 2641 C 242.346 -0.476961 1.52306 0
M  V30 2642 C 242.546 -1.82109 0.86248 0
M  V30 2643 O 241.602 -2.48586 0.442884 0
M  V30 2644 C 242.915 -0.465661 2.97073 0
M  V30 2645 C 244.463 -0.549534 3.08138 0
M  V30 2646 C 244.938 -0.568669 4.54456 0
M  V30 2647 N 246.429 -0.630237 4.58892 0
M  V30 2648 C 247.164 -0.666415 5.69514 0
M  V30 2649 N 246.66 -0.660514 6.89644 0
M  V30 2650 N 248.453 -0.709077 5.5761 0
M  V30 2651 H 240.604 0.757198 1.98445 0
M  V30 2652 H 242.867 0.278808 0.906074 0
M  V30 2653 H 242.573 0.454232 3.48754 0
M  V30 2654 H 242.447 -1.29513 3.54269 0
M  V30 2655 H 244.834 -1.45985 2.56461 0
M  V30 2656 H 244.915 0.307532 2.53945 0
M  V30 2657 H 244.559 0.337581 5.06777 0
M  V30 2658 H 244.489 -1.44256 5.06456 0
M  V30 2659 H 246.98 -0.641146 3.72421 0
M  V30 2660 H 247.293 -0.690616 7.69708 0
M  V30 2661 H 245.638 -0.628012 6.92157 0
M  V30 2662 H 248.829 -0.711019 4.62668 0
M  V30 2663 H 249.002 -0.733804 6.43832 0
M  V30 2664 N 242.408 -1.52605 -0.393616 0
M  V30 2665 C 243.318 -1.79971 -1.50492 0
M  V30 2666 C 244.334 -0.686181 -1.59899 0
M  V30 2667 O 245.51 -0.973274 -1.76322 0
M  V30 2668 C 242.575 -1.95867 -2.86072 0
M  V30 2669 C 241.636 -3.19781 -2.86424 0
M  V30 2670 C 240.869 -3.34909 -4.15538 0
M  V30 2671 O 241.092 -2.54948 -5.10253 0
M  V30 2672 O 240.026 -4.28141 -4.23059 0
M  V30 2673 H 243.852 -2.74328 -1.30299 0
M  V30 2674 H 241.437 -1.3764 -0.581005 0
M  V30 2675 H 243.319 -2.08056 -3.66457 0
M  V30 2676 H 241.994 -1.04699 -3.063 0
M  V30 2677 H 240.901 -3.13038 -2.04837 0
M  V30 2678 H 242.234 -4.1078 -2.71147 0
M  V30 2679 N 243.887 0.651787 -1.4349 0
M  V30 2680 C 244.85 1.74647 -1.48429 0
M  V30 2681 C 245.85 1.56513 -0.368817 0
M  V30 2682 O 247.04 1.62385 -0.630623 0
M  V30 2683 C 244.172 3.13533 -1.33827 0
M  V30 2684 H 245.365 1.71649 -2.4592 0
M  V30 2685 H 242.918 0.863573 -1.30277 0
M  V30 2686 H 243.653 3.22142 -0.37349 0
M  V30 2687 H 243.438 3.28101 -2.14691 0
M  V30 2688 H 244.928 3.93356 -1.40218 0
M  V30 2689 N 245.365 1.30045 0.890287 0
M  V30 2690 C 246.612 1.18561 1.64163 0
M  V30 2691 C 246.94 -0.260852 1.92743 0
M  V30 2692 O 246.195 -1.20376 1.54299 0
M  V30 2693 C 246.494 1.95409 2.99249 0
M  V30 2694 C 246.16 3.45066 2.90242 0
M  V30 2695 C 244.822 3.85878 2.87492 0
M  V30 2696 C 247.174 4.4039 2.78758 0
M  V30 2697 C 244.502 5.20314 2.7109 0
M  V30 2698 C 246.854 5.74928 2.63894 0
M  V30 2699 C 245.518 6.14986 2.59516 0
M  V30 2700 H 244.788 0.433846 0.600715 0
M  V30 2701 H 247.435 1.61088 1.03552 0
M  V30 2702 H 245.74 1.45501 3.63781 0
M  V30 2703 H 247.437 1.8392 3.56334 0
M  V30 2704 H 244.027 3.12631 2.93189 0
M  V30 2705 H 248.211 4.09806 2.79952 0
M  V30 2706 H 243.467 5.50449 2.66112 0
M  V30 2707 H 247.641 6.48434 2.53981 0
M  V30 2708 H 245.268 7.19104 2.46565 0
M  V30 2709 N 246.843 -1.10192 1.12674 0
M  V30 2710 C 247.773 -2.18652 0.819362 0
M  V30 2711 C 248.754 -1.68698 -0.217915 0
M  V30 2712 O 249.939 -1.94041 -0.0785581 0
M  V30 2713 C 247.069 -3.46202 0.27594 0
M  V30 2714 C 246.023 -4.09444 1.24656 0
M  V30 2715 C 245.349 -5.31725 0.563258 0
M  V30 2716 C 246.649 -4.52863 2.60217 0
M  V30 2717 H 248.343 -2.44622 1.72628 0
M  V30 2718 H 245.889 -1.17571 0.831451 0
M  V30 2719 H 247.842 -4.21372 0.0486149 0
M  V30 2720 H 246.566 -3.1973 -0.666331 0
M  V30 2721 H 245.225 -3.36284 1.45974 0
M  V30 2722 H 244.873 -5.0153 -0.384235 0
M  V30 2723 H 244.573 -5.74991 1.21075 0
M  V30 2724 H 246.097 -6.09624 0.34503 0
M  V30 2725 H 247.511 -5.19294 2.42913 0
M  V30 2726 H 245.908 -5.06986 3.21068 0
M  V30 2727 H 246.978 -3.65656 3.18471 0
M  V30 2728 N 248.321 -0.919034 -1.28029 0
M  V30 2729 C 249.231 -0.416756 -2.30869 0
M  V30 2730 C 250.247 0.498235 -1.66714 0
M  V30 2731 O 251.423 0.383144 -1.97722 0
M  V30 2732 C 248.488 0.330274 -3.45123 0
M  V30 2733 C 247.549 -0.618578 -4.2482 0
M  V30 2734 C 246.782 0.0928959 -5.33619 0
M  V30 2735 O 247.005 1.31375 -5.55065 0
M  V30 2736 O 245.939 -0.574499 -5.99152 0
M  V30 2737 H 249.765 -1.27043 -2.75851 0
M  V30 2738 H 247.35 -0.684052 -1.3282 0
M  V30 2739 H 249.232 0.751972 -4.14636 0
M  V30 2740 H 247.907 1.1597 -3.02213 0
M  V30 2741 H 246.814 -1.08978 -3.57875 0
M  V30 2742 H 248.147 -1.41497 -4.71423 0
M  V30 2743 N 249.799 1.42003 -0.683588 0
M  V30 2744 C 250.762 2.29191 -0.0198243 0
M  V30 2745 C 251.762 1.43773 0.72013 0
M  V30 2746 O 252.952 1.65061 0.556815 0
M  V30 2747 C 250.084 3.26435 0.982487 0
M  V30 2748 H 251.277 2.8938 -0.787345 0
M  V30 2749 H 248.83 1.49789 -0.446418 0
M  V30 2750 H 249.565 2.71203 1.77819 0
M  V30 2751 H 249.35 3.89449 0.455182 0
M  V30 2752 H 250.84 3.918 1.44508 0
M  V30 2753 N 251.277 0.427512 1.51691 0
M  V30 2754 C 252.225 -0.403359 2.29076 0
M  V30 2755 C 253.219 -1.02962 1.34518 0
M  V30 2756 O 254.425 -0.965715 1.51901 0
M  V30 2757 H 250.8 -0.148879 0.737115 0
M  V30 2758 H 252.771 0.270295 2.97173 0
M  V30 2759 C 251.52 -1.49763 3.13794 0
M  V30 2760 H 250.843 -1.02508 3.86435 0
M  V30 2761 H 252.283 -2.05244 3.71014 0
M  V30 2762 C 250.742 -2.47536 2.28533 0
M  V30 2763 O 251.272 -3.51848 1.93819 0
M  V30 2764 N 249.478 -2.18187 1.91945 0
M  V30 2765 H 249.025 -1.33389 2.20375 0
M  V30 2766 H 248.983 -2.83848 1.35195 0
M  V30 2767 N 252.755 -1.56801 0.158532 0
M  V30 2768 C 254.171 -1.5837 -0.197774 0
M  V30 2769 C 254.371 -1.17334 -1.63814 0
M  V30 2770 O 253.427 -0.878988 -2.36707 0
M  V30 2771 C 254.74 -3.00615 0.0714459 0
M  V30 2772 C 256.288 -3.12999 0.00864533 0
M  V30 2773 C 256.763 -4.57313 0.250685 0
M  V30 2774 N 258.254 -4.62777 0.198014 0
M  V30 2775 C 258.989 -5.72271 0.359642 0
M  V30 2776 N 258.485 -6.90371 0.579625 0
M  V30 2777 N 260.278 -5.61318 0.296438 0
M  V30 2778 H 252.429 -1.81765 1.09887 0
M  V30 2779 H 254.692 -0.841849 0.435884 0
M  V30 2780 H 254.398 -3.35068 1.06874 0
M  V30 2781 H 254.272 -3.71683 -0.642757 0
M  V30 2782 H 256.659 -2.7838 -0.979217 0
M  V30 2783 H 256.74 -2.44393 0.755359 0
M  V30 2784 H 256.384 -4.92639 1.2357 0
M  V30 2785 H 256.314 -5.24061 -0.516489 0
M  V30 2786 H 258.805 -3.77885 0.0331115 0
M  V30 2787 H 259.118 -7.69689 0.69275 0
M  V30 2788 H 257.463 -6.92264 0.616087 0
M  V30 2789 H 260.654 -4.67932 0.125258 0
M  V30 2790 H 260.827 -6.46599 0.425831 0
M  V30 2791 N 254.233 0.115231 -1.57178 0
M  V30 2792 C 255.196 1.12526 -1.99676 0
M  V30 2793 C 256.196 1.34095 -0.88742 0
M  V30 2794 O 257.386 1.30548 -1.15337 0
M  V30 2795 C 254.518 2.4789 -2.34015 0
M  V30 2796 H 255.711 0.759912 -2.90113 0
M  V30 2797 H 253.264 0.359648 -1.52106 0
M  V30 2798 H 253.999 2.89339 -1.4647 0
M  V30 2799 H 253.784 2.33588 -3.14927 0
M  V30 2800 H 255.274 3.20575 -2.67622 0
M  V30 2801 N 255.711 1.52812 0.385517 0
M  V30 2802 C 256.621 1.80766 1.49535 0
M  V30 2803 C 257.637 0.694651 1.59532 0
M  V30 2804 O 258.813 0.982611 1.75803 0
M  V30 2805 C 255.878 1.97381 2.85029 0
M  V30 2806 C 254.939 3.21295 2.84724 0
M  V30 2807 C 254.172 3.37108 4.13756 0
M  V30 2808 O 254.395 2.5765 5.08893 0
M  V30 2809 O 253.329 4.30378 4.20783 0
M  V30 2810 H 257.155 2.75015 1.28842 0
M  V30 2811 H 254.74 1.37946 0.573697 0
M  V30 2812 H 256.622 2.09996 3.65349 0
M  V30 2813 H 255.297 1.06322 3.05741 0
M  V30 2814 H 254.204 3.1412 2.03174 0
M  V30 2815 H 255.537 4.12212 2.68965 0
M  V30 2816 N 257.189 -0.644168 1.43834 0
M  V30 2817 C 258.119 -1.76814 1.52509 0
M  V30 2818 C 259.1 -1.65823 0.379052 0
M  V30 2819 O 260.285 -1.84781 0.597466 0
M  V30 2820 C 257.415 -3.15288 1.4564 0
M  V30 2821 C 256.369 -3.41053 2.58586 0
M  V30 2822 C 255.695 -4.79421 2.36769 0
M  V30 2823 C 256.995 -3.34902 4.00797 0
M  V30 2824 H 258.689 -1.69812 2.46586 0
M  V30 2825 H 256.235 -0.815542 1.1868 0
M  V30 2826 H 258.188 -3.93681 1.50311 0
M  V30 2827 H 256.912 -3.23043 0.480725 0
M  V30 2828 H 255.571 -2.65035 2.53282 0
M  V30 2829 H 255.219 -4.83863 1.37424 0
M  V30 2830 H 254.919 -4.9762 3.12487 0
M  V30 2831 H 256.443 -5.6006 2.43238 0
M  V30 2832 H 257.857 -4.03218 4.07539 0
M  V30 2833 H 256.254 -3.64637 4.76613 0
M  V30 2834 H 257.324 -2.32928 4.25291 0
M  V30 2835 N 258.668 -1.30515 -0.883378 0
M  V30 2836 C 259.914 -1.19607 -1.63774 0
M  V30 2837 C 260.247 0.248314 -1.92606 0
M  V30 2838 O 259.522 1.17742 -1.54813 0
M  V30 2839 C 259.805 -2.02669 -2.97653 0
M  V30 2840 C 259.658 -3.55335 -2.75784 0
M  V30 2841 C 260.977 -1.86573 -3.98596 0
M  V30 2842 H 258.096 -0.435856 -0.594305 0
M  V30 2843 H 260.738 -1.60165 -1.02212 0
M  V30 2844 H 258.888 -1.68208 -3.50197 0
M  V30 2845 H 260.56 -3.99863 -2.30016 0
M  V30 2846 H 258.803 -3.79438 -2.1026 0
M  V30 2847 H 259.474 -4.08745 -3.70988 0
M  V30 2848 H 261.95 -2.16703 -3.55217 0
M  V30 2849 H 260.826 -2.47014 -4.90179 0
M  V30 2850 H 261.087 -0.825321 -4.34328 0
M  V30 2851 N 260.146 1.09593 -1.13257 0
M  V30 2852 C 261.562 1.33775 -0.870423 0
M  V30 2853 C 261.762 1.95327 0.494926 0
M  V30 2854 O 260.818 2.19853 1.2418 0
M  V30 2855 C 262.131 2.25106 -1.99369 0
M  V30 2856 C 263.679 2.3862 -2.02558 0
M  V30 2857 C 264.154 3.33285 -3.14142 0
M  V30 2858 N 265.645 3.40857 -3.13641 0
M  V30 2859 C 266.38 4.14101 -3.96621 0
M  V30 2860 N 265.876 4.90157 -4.8961 0
M  V30 2861 N 267.669 4.09808 -3.84726 0
M  V30 2862 H 259.82 0.680136 -2.01216 0
M  V30 2863 H 262.083 0.362133 -0.876107 0
M  V30 2864 H 261.789 1.87103 -2.97801 0
M  V30 2865 H 261.663 3.25481 -1.90635 0
M  V30 2866 H 264.05 2.75887 -1.0474 0
M  V30 2867 H 264.131 1.38028 -2.15364 0
M  V30 2868 H 263.775 2.96741 -4.12198 0
M  V30 2869 H 263.705 4.33776 -2.98574 0
M  V30 2870 H 266.196 2.86624 -2.46282 0
M  V30 2871 H 266.509 5.4347 -5.49418 0
M  V30 2872 H 264.854 4.89251 -4.93617 0
M  V30 2873 H 268.045 3.4949 -3.11408 0
M  V30 2874 H 268.218 4.66629 -4.49623 0
M  V30 2875 N 261.624 0.925811 1.2754 0
M  V30 2876 C 262.871 0.565255 1.94451 0
M  V30 2877 C 263.199 -0.89316 1.7278 0
M  V30 2878 O 262.454 -1.65213 1.04895 0
M  V30 2879 C 262.753 0.835296 3.47502 0
M  V30 2880 C 262.419 2.27515 3.89291 0
M  V30 2881 C 261.081 2.66879 4.00411 0
M  V30 2882 C 263.433 3.21158 4.10496 0
M  V30 2883 C 260.761 3.99014 4.30122 0
M  V30 2884 C 263.113 4.52871 4.4169 0
M  V30 2885 C 261.777 4.92072 4.51023 0
M  V30 2886 H 261.047 0.206841 0.711546 0
M  V30 2887 H 263.694 1.16942 1.51647 0
M  V30 2888 H 261.999 0.148442 3.91519 0
M  V30 2889 H 263.696 0.535322 3.97411 0
M  V30 2890 H 260.286 1.95976 3.81171 0
M  V30 2891 H 264.47 2.9195 4.01346 0
M  V30 2892 H 259.726 4.2907 4.35556 0
M  V30 2893 H 263.9 5.25436 4.57045 0
M  V30 2894 H 261.527 5.9449 4.738 0
M  V30 2895 N 263.102 -1.41638 0.69111 0
M  V30 2896 C 264.034 -2.29194 -0.0161523 0
M  V30 2897 C 265.047 -1.44549 -0.748955 0
M  V30 2898 O 266.236 -1.681 -0.6004 0
M  V30 2899 C 263.336 -3.22325 -1.0469 0
M  V30 2900 C 262.509 -4.35706 -0.384621 0
M  V30 2901 C 261.568 -5.09443 -1.31737 0
M  V30 2902 O 260.594 -5.63386 -0.811451 0
M  V30 2903 N 261.796 -5.16487 -2.64993 0
M  V30 2904 H 264.561 -2.90534 0.735523 0
M  V30 2905 H 262.122 -1.52742 0.53679 0
M  V30 2906 H 264.114 -3.68522 -1.67252 0
M  V30 2907 H 262.684 -2.62323 -1.70015 0
M  V30 2908 H 261.904 -3.91948 0.420804 0
M  V30 2909 H 263.192 -5.08743 0.0760765 0
M  V30 2910 H 262.59 -4.741 -3.08619 0
M  V30 2911 H 261.147 -5.66276 -3.22761 0
M  V30 2912 N 264.58 -0.43555 -1.51462 0
M  V30 2913 C 265.527 0.376797 -2.27703 0
M  V30 2914 C 266.497 1.01838 -1.31219 0
M  V30 2915 O 267.682 1.03762 -1.60119 0
M  V30 2916 C 264.822 1.47301 -3.12084 0
M  V30 2917 C 263.935 0.849744 -4.2356 0
M  V30 2918 C 263.07 1.92086 -4.95254 0
M  V30 2919 C 262.109 1.27593 -5.98654 0
M  V30 2920 N 261.246 2.28833 -6.63762 0
M  V30 2921 H 266.086 -0.279734 -2.96684 0
M  V30 2922 H 263.623 -0.149795 -1.46335 0
M  V30 2923 H 265.581 2.11984 -3.59331 0
M  V30 2924 H 264.211 2.0992 -2.45221 0
M  V30 2925 H 263.263 0.0912529 -3.80291 0
M  V30 2926 H 264.575 0.338878 -4.97648 0
M  V30 2927 H 263.729 2.64435 -5.46039 0
M  V30 2928 H 262.468 2.46545 -4.20793 0
M  V30 2929 H 261.473 0.537893 -5.47162 0
M  V30 2930 H 262.698 0.738693 -6.7507 0
M  V30 2931 H 260.644 2.82375 -5.92115 0
M  V30 2932 H 260.561 1.82632 -7.33608 0
M  V30 2933 H 261.829 3.00671 -7.19178 0
M  V30 2934 N 266.058 1.56714 -0.166846 0
M  V30 2935 C 266.968 2.21331 0.777791 0
M  V30 2936 C 267.984 1.20358 1.25658 0
M  V30 2937 O 269.16 1.53005 1.30964 0
M  V30 2938 C 266.225 2.83787 1.99163 0
M  V30 2939 C 265.286 3.99947 1.56016 0
M  V30 2940 C 264.519 4.59415 2.71613 0
M  V30 2941 O 264.742 4.17769 3.88362 0
M  V30 2942 O 263.676 5.49359 2.45945 0
M  V30 2943 H 267.502 3.02605 0.257636 0
M  V30 2944 H 265.087 1.49275 0.0611393 0
M  V30 2945 H 266.969 3.23405 2.70161 0
M  V30 2946 H 265.644 2.05513 2.50092 0
M  V30 2947 H 264.551 3.65007 0.819809 0
M  V30 2948 H 265.884 4.79801 1.09782 0
M  V30 2949 N 267.536 -0.106894 1.57237 0
M  V30 2950 C 268.499 -1.11466 2.0027 0
M  V30 2951 C 269.499 -1.33623 0.894519 0
M  V30 2952 O 270.689 -1.29935 1.16028 0
M  V30 2953 C 267.821 -2.46646 2.35327 0
M  V30 2954 H 269.014 -0.744516 2.90512 0
M  V30 2955 H 266.567 -0.351576 1.52295 0
M  V30 2956 H 267.302 -2.88558 1.48003 0
M  V30 2957 H 267.087 -2.31915 3.16161 0
M  V30 2958 H 268.577 -3.19151 2.69318 0
M  V30 2959 N 269.014 -1.53014 -0.377408 0
M  V30 2960 C 270.43 -1.42523 -0.718281 0
M  V30 2961 C 270.63 -0.55487 -1.9371 0
M  V30 2962 O 269.686 -0.0327593 -2.52479 0
M  V30 2963 C 270.999 -2.85546 -0.942539 0
M  V30 2964 C 272.547 -2.95101 -1.04329 0
M  V30 2965 C 273.022 -4.3916 -1.3001 0
M  V30 2966 N 274.513 -4.42536 -1.36806 0
M  V30 2967 C 275.248 -5.51097 -1.58364 0
M  V30 2968 N 274.744 -6.69724 -1.77317 0
M  V30 2969 N 276.537 -5.38657 -1.60638 0
M  V30 2970 H 268.688 -2.08116 0.424426 0
M  V30 2971 H 270.951 -0.939352 0.127759 0
M  V30 2972 H 270.657 -3.51499 -0.118929 0
M  V30 2973 H 270.531 -3.28493 -1.85397 0
M  V30 2974 H 272.918 -2.29309 -1.85745 0
M  V30 2975 H 272.999 -2.55566 -0.109505 0
M  V30 2976 H 272.643 -5.05521 -0.490991 0
M  V30 2977 H 272.573 -4.76258 -2.24691 0
M  V30 2978 H 275.064 -3.57039 -1.23821 0
M  V30 2979 H 275.377 -7.48233 -1.93306 0
M  V30 2980 H 273.722 -6.72732 -1.74518 0
M  V30 2981 H 276.913 -4.44948 -1.45391 0
M  V30 2982 H 277.086 -6.2333 -1.77098 0
M  V30 2983 N 270.492 0.636531 -1.44174 0
M  V30 2984 C 271.455 1.73063 -1.50273 0
M  V30 2985 C 272.455 1.56113 -0.385397 0
M  V30 2986 O 273.645 1.61707 -0.64781 0
M  V30 2987 C 270.777 3.12096 -1.37145 0
M  V30 2988 H 271.97 1.69031 -2.47727 0
M  V30 2989 H 269.523 0.849706 -1.31186 0
M  V30 2990 H 270.258 3.21728 -0.407636 0
M  V30 2991 H 270.043 3.25805 -2.18159 0
M  V30 2992 H 271.533 3.91846 -1.44382 0
M  V30 2993 N 271.97 1.30982 0.876444 0
M  V30 2994 C 272.9 1.20668 1.99903 0
M  V30 2995 C 273.881 0.095354 1.69833 0
M  V30 2996 O 275.066 0.27885 1.92188 0
M  V30 2997 C 272.196 0.90655 3.3526 0
M  V30 2998 C 271.15 1.97675 3.79617 0
M  V30 2999 C 270.476 1.52943 5.1236 0
M  V30 3000 C 271.776 3.389 3.97422 0
M  V30 3001 H 273.47 2.14586 2.0879 0
M  V30 3002 H 271.016 1.03308 1.00317 0
M  V30 3003 H 272.969 0.821025 4.13324 0
M  V30 3004 H 271.693 -0.0682969 3.26529 0
M  V30 3005 H 270.352 2.05205 3.03787 0
M  V30 3006 H 270 0.54262 5.00065 0
M  V30 3007 H 269.7 2.24532 5.43009 0
M  V30 3008 H 271.224 1.45786 5.92941 0
M  V30 3009 H 272.638 3.34081 4.659 0
M  V30 3010 H 271.035 4.0865 4.3946 0
M  V30 3011 H 272.105 3.80163 3.01006 0
M  V30 3012 N 273.449 -1.08991 1.13837 0
M  V30 3013 C 274.379 -2.17771 0.842507 0
M  V30 3014 C 275.36 -1.6892 -0.20001 0
M  V30 3015 O 276.545 -1.94113 -0.0579731 0
M  V30 3016 C 273.675 -3.4589 0.312644 0
M  V30 3017 C 272.629 -4.08099 1.28992 0
M  V30 3018 C 271.955 -5.31098 0.619623 0
M  V30 3019 C 273.255 -4.50077 2.65005 0
M  V30 3020 H 274.949 -2.42777 1.75213 0
M  V30 3021 H 272.495 -1.16682 0.843875 0
M  V30 3022 H 274.448 -4.21297 0.0933043 0
M  V30 3023 H 273.172 -3.20419 -0.632382 0
M  V30 3024 H 271.831 -3.34717 1.49533 0
M  V30 3025 H 271.479 -5.0191 -0.33102 0
M  V30 3026 H 271.179 -5.73674 1.27167 0
M  V30 3027 H 272.703 -6.09224 0.409669 0
M  V30 3028 H 274.117 -5.16688 2.48407 0
M  V30 3029 H 272.514 -5.03553 3.26427 0
M  V30 3030 H 273.584 -3.62257 3.22332 0
M  V30 3031 N 274.927 -0.932562 -1.27047 0
M  V30 3032 C 275.874 -0.434072 -2.26681 0
M  V30 3033 C 276.844 0.501639 -1.58344 0
M  V30 3034 O 278.029 0.419734 -1.86126 0
M  V30 3035 C 275.169 0.30261 -3.43771 0
M  V30 3036 C 274.282 -0.667774 -4.26808 0
M  V30 3037 C 273.417 0.0892393 -5.31125 0
M  V30 3038 C 272.456 -0.873532 -6.05835 0
M  V30 3039 N 271.593 -0.148832 -7.01942 0
M  V30 3040 H 276.433 -1.28868 -2.68695 0
M  V30 3041 H 273.97 -0.646713 -1.32121 0
M  V30 3042 H 275.928 0.746092 -4.10474 0
M  V30 3043 H 274.558 1.12142 -3.02695 0
M  V30 3044 H 273.61 -1.22978 -3.59973 0
M  V30 3045 H 274.922 -1.40337 -4.78651 0
M  V30 3046 H 274.076 0.592409 -6.03801 0
M  V30 3047 H 272.815 0.85777 -4.80097 0
M  V30 3048 H 271.82 -1.38791 -5.31994 0
M  V30 3049 H 273.045 -1.64193 -6.58952 0
M  V30 3050 H 270.991 0.601365 -6.53238 0
M  V30 3051 H 270.908 -0.82391 -7.51497 0
M  V30 3052 H 272.176 0.333527 -7.78786 0
M  V30 3053 N 276.405 1.4127 -0.698611 0
M  V30 3054 C 277.315 2.34573 -0.0357891 0
M  V30 3055 C 278.331 1.56393 0.762701 0
M  V30 3056 O 279.507 1.8886 0.699564 0
M  V30 3057 C 276.572 3.35159 0.887089 0
M  V30 3058 C 275.633 4.29225 0.0804634 0
M  V30 3059 C 274.866 5.25006 0.959387 0
M  V30 3060 O 275.089 5.26314 2.19886 0
M  V30 3061 O 274.023 6.00519 0.407439 0
M  V30 3062 H 277.849 2.92838 -0.804957 0
M  V30 3063 H 275.434 1.42175 -0.458966 0
M  V30 3064 H 277.316 3.9689 1.41621 0
M  V30 3065 H 275.991 2.79333 1.6357 0
M  V30 3066 H 274.898 3.70833 -0.493328 0
M  V30 3067 H 276.231 4.88157 -0.629547 0
M  V30 3068 N 277.883 0.443576 1.51229 0
M  V30 3069 C 278.813 -0.355142 2.30783 0
M  V30 3070 C 279.794 -1.0154 1.36468 0
M  V30 3071 O 280.979 -1.01785 1.65389 0
M  V30 3072 C 278.109 -1.45312 3.15439 0
M  V30 3073 C 277.063 -0.916002 4.18083 0
M  V30 3074 C 276.389 -2.1102 4.91299 0
M  V30 3075 C 277.689 0.0538602 5.22272 0
M  V30 3076 H 279.383 0.308767 2.97804 0
M  V30 3077 H 276.929 0.149937 1.43217 0
M  V30 3078 H 278.882 -2.01914 3.69876 0
M  V30 3079 H 277.606 -2.14541 2.46252 0
M  V30 3080 H 276.265 -0.372145 3.64706 0
M  V30 3081 H 275.913 -2.78882 4.18609 0
M  V30 3082 H 275.613 -1.75717 5.60712 0
M  V30 3083 H 277.137 -2.68164 5.48562 0
M  V30 3084 H 278.551 -0.422069 5.71744 0
M  V30 3085 H 276.948 0.319776 5.99247 0
M  V30 3086 H 278.018 0.98858 4.74716 0
M  V30 3087 N 279.361 -1.56624 0.175154 0
M  V30 3088 C 280.586 -2.01813 -0.478137 0
M  V30 3089 C 281.011 -1.05457 -1.55757 0
M  V30 3090 O 280.369 -0.0347439 -1.81267 0
M  V30 3091 C 280.417 -3.45581 -1.02987 0
M  V30 3092 O 279.521 -3.52305 -2.14371 0
M  V30 3093 H 278.862 -0.65413 -0.114059 0
M  V30 3094 H 281.392 -2.02673 0.280173 0
M  V30 3095 H 281.402 -3.84965 -1.35151 0
M  V30 3096 H 280.077 -4.1521 -0.239556 0
M  V30 3097 H 278.654 -3.24783 -1.83222 0
M  V30 3098 N 280.839 0.0985539 -1.57292 0
M  V30 3099 C 281.771 1.14595 -1.98496 0
M  V30 3100 C 282.784 1.36512 -0.887031 0
M  V30 3101 O 283.973 1.35225 -1.16518 0
M  V30 3102 C 281.073 2.50216 -2.28572 0
M  V30 3103 C 280.246 2.48624 -3.59868 0
M  V30 3104 C 279.305 3.66146 -3.7792 0
M  V30 3105 O 278.331 3.48795 -4.49812 0
M  V30 3106 N 279.533 4.85496 -3.18235 0
M  V30 3107 H 282.298 0.795277 -2.88956 0
M  V30 3108 H 279.859 0.287579 -1.59325 0
M  V30 3109 H 281.851 3.27432 -2.37845 0
M  V30 3110 H 280.421 2.77387 -1.44136 0
M  V30 3111 H 279.641 1.56978 -3.61596 0
M  V30 3112 H 280.929 2.44635 -4.46129 0
M  V30 3113 H 280.327 5.02497 -2.59833 0
M  V30 3114 H 278.884 5.60317 -3.32999 0
M  V30 3115 N 282.317 1.53212 0.369288 0
M  V30 3116 C 283.565 1.68881 1.11012 0
M  V30 3117 C 283.886 0.441285 1.89941 0
M  V30 3118 O 283.156 -0.544623 1.88177 0
M  V30 3119 H 281.736 0.622569 0.412816 0
M  V30 3120 H 284.398 1.90391 0.416802 0
M  V30 3121 H 283.494 2.54822 1.80201 0
M  V30 3122 O 283.834 -0.515259 1.5306 0
M  V30 3123 H 284.525 -1.17028 1.54351 0
M  V30 END ATOM
M  V30 BEGIN BOND
M  V30 END BOND
M  V30 END CTAB
M  END
$$$$
