drugbank_target|P35228 Nitric oxide synthase, inducible (DB00125; DB00155; DB01017; DB01110; DB01234; DB01686; DB01835; DB01997; DB02044; DB02207; DB02234; DB02462; DB02644; DB03100; DB03144; DB03366; DB03449; DB03953; DB04400; DB04534; DB05214; DB05252; DB05383; DB06879; DB06916; DB07002; DB07003; DB07007; DB07008; DB07011; DB07029; DB07306; DB07318; DB07388; DB07389; DB07405; DB08214; DB08750; DB08814; DB09237; DB11327; DB14649)
 OpenBabel12092119223D

  0  0  0     0  0            999 V3000
M  V30 BEGIN CTAB
M  V30 COUNTS 18360 18602 0 0 0
M  V30 BEGIN ATOM
M  V30 1 H -0.908 1.98254 -0.117106 0
M  V30 2 N 0 1.576 0 0
M  V30 3 C 0.933 2.03868 1.02534 0
M  V30 4 C 1.911 0.928543 1.3348 0
M  V30 5 O 3.095 1.19667 1.45644 0
M  V30 6 C 0.222 2.43627 2.35294 0
M  V30 7 C -0.732 3.65373 2.2001 0
M  V30 8 S 0.101 5.13292 1.52614 0
M  V30 9 C 1.257 5.56322 2.86805 0
M  V30 10 H 1.49 2.90518 0.631377 0
M  V30 11 H -0.977 1.52953 0.210867 0
M  V30 12 H 0.981 2.67203 3.11629 0
M  V30 13 H -0.358 1.57376 2.7183 0
M  V30 14 H -1.165 3.90944 3.18086 0
M  V30 15 H -1.563 3.418 1.51819 0
M  V30 16 H 0.729 5.58782 3.83104 0
M  V30 17 H 1.672 6.56266 2.65933 0
M  V30 18 H 2.08 4.83886 2.90714 0
M  V30 19 N 1.4781 -0.272755 1.55222 0
M  V30 20 C 2.4411 -1.32041 1.87344 0
M  V30 21 C 3.4411 -1.42342 0.74803 0
M  V30 22 O 4.6311 -1.41488 1.0162 0
M  V30 23 C 1.7631 -2.70173 2.07893 0
M  V30 24 H 2.9561 -1.04789 2.80997 0
M  V30 25 H 0.5091 -0.51083 1.47717 0
M  V30 26 H 1.2441 -3.02605 1.16622 0
M  V30 27 H 1.0291 -2.64082 2.89833 0
M  V30 28 H 2.5191 -3.45869 2.34017 0
M  V30 29 N 2.9562 -1.48159 -0.537278 0
M  V30 30 C 4.1962 -1.57397 -1.30405 0
M  V30 31 C 4.5602 -0.239202 -1.90504 0
M  V30 32 O 5.7612 -0.206528 -2.68005 0
M  V30 33 C 4.0322 -2.6754 -2.36974 0
M  V30 34 S 5.5912 -2.96496 -3.23475 0
M  V30 35 H 2.4092 -0.555577 -0.443684 0
M  V30 36 H 5.0112 -1.85644 -0.612912 0
M  V30 37 H 3.7152 -3.63092 -1.91291 0
M  V30 38 H 3.2462 -2.41172 -3.10805 0
M  V30 39 H 5.2612 -2.35234 -4.36897 0
M  V30 40 N 4.4343 0.785586 -1.36625 0
M  V30 41 C 5.8453 1.36101 -1.27803 0
M  V30 42 C 6.1963 1.96035 0.0804875 0
M  V30 43 O 5.3213 1.92834 0.982042 0
M  V30 44 C 5.9163 2.47442 -2.31426 0
M  V30 45 C 4.4753 3.00789 -2.26281 0
M  V30 46 C 3.6223 1.73896 -2.15999 0
M  V30 47 H 6.5733 0.586928 -1.47448 0
M  V30 48 H 6.5943 3.2656 -1.95291 0
M  V30 49 H 6.1063 2.03791 -3.30289 0
M  V30 50 H 4.2073 3.48851 -1.30896 0
M  V30 51 H 4.3203 3.57343 -3.19128 0
M  V30 52 H 2.6843 1.9628 -1.62316 0
M  V30 53 H 3.4673 1.32368 -3.16755 0
M  V30 54 N 5.9124 1.20967 1.01018 0
M  V30 55 C 7.1584 1.0353 1.7508 0
M  V30 56 C 7.5134 -0.42734 1.87594 0
M  V30 57 O 6.8064 -1.31298 1.3954 0
M  V30 58 C 7.0004 1.65997 3.16512 0
M  V30 59 C 6.8294 3.18184 3.17788 0
M  V30 60 C 5.5994 3.87198 3.24662 0
M  V30 61 C 7.7974 4.15334 3.03319 0
M  V30 62 N 5.7794 5.26618 3.15509 0
M  V30 63 C 7.1504 5.41472 3.02007 0
M  V30 64 C 9.2054 4.06449 2.87583 0
M  V30 65 C 7.9084 6.5975 2.86571 0
M  V30 66 C 9.9344 5.24357 2.73503 0
M  V30 67 C 9.2964 6.49404 2.72862 0
M  V30 68 H 5.3954 0.433137 0.651089 0
M  V30 69 H 7.9794 1.5324 1.20107 0
M  V30 70 H 6.1504 1.18863 3.69765 0
M  V30 71 H 7.8824 1.41816 3.79039 0
M  V30 72 H 4.6374 3.38093 3.31648 0
M  V30 73 H 5.0614 5.99626 3.14289 0
M  V30 74 H 9.7034 3.10573 2.86887 0
M  V30 75 H 7.4214 7.55792 2.86015 0
M  V30 76 H 11.0074 5.19299 2.62334 0
M  V30 77 H 9.8874 7.39105 2.62093 0
M  V30 78 N 7.3905 -1.2043 1.01659 0
M  V30 79 C 8.3375 -2.23215 0.586822 0
M  V30 80 C 9.3075 -1.61382 -0.393085 0
M  V30 81 O 10.4925 -1.88544 -0.292525 0
M  V30 82 C 7.6325 -3.45032 -0.0687464 0
M  V30 83 C 6.7455 -4.21296 0.955724 0
M  V30 84 C 5.8805 -5.30507 0.271208 0
M  V30 85 C 4.9195 -5.98515 1.28244 0
M  V30 86 N 4.0565 -6.99316 0.62459 0
M  V30 87 H 8.8965 -2.59336 1.46796 0
M  V30 88 H 6.4335 -1.27431 0.734836 0
M  V30 89 H 8.3915 -4.1459 -0.465965 0
M  V30 90 H 7.0215 -3.09604 -0.913529 0
M  V30 91 H 6.0735 -3.50803 1.4711 0
M  V30 92 H 7.3855 -4.6803 1.72479 0
M  V30 93 H 6.5395 -6.06428 -0.18151 0
M  V30 94 H 5.2785 -4.8481 -0.530163 0
M  V30 95 H 4.2835 -5.21355 1.74554 0
M  V30 96 H 5.5085 -6.46298 2.08509 0
M  V30 97 H 3.4545 -6.55812 -0.156914 0
M  V30 98 H 3.3715 -7.44178 1.33172 0
M  V30 99 H 4.6395 -7.79255 0.195462 0
M  V30 100 N 8.8686 -0.792821 -1.36206 0
M  V30 101 C 10.1156 -0.366786 -1.99151 0
M  V30 102 C 10.4436 1.06243 -1.62919 0
M  V30 103 O 9.6986 1.74927 -0.877442 0
M  V30 104 C 9.9976 -0.481501 -3.54142 0
M  V30 105 C 9.6636 -1.87202 -4.10203 0
M  V30 106 C 8.3256 -2.25248 -4.25226 0
M  V30 107 C 10.6776 -2.78237 -4.40719 0
M  V30 108 C 8.0056 -3.53723 -4.68078 0
M  V30 109 C 10.3576 -4.06144 -4.85005 0
M  V30 110 C 9.0216 -4.44207 -4.98234 0
M  V30 111 H 8.2916 -0.134217 -0.728743 0
M  V30 112 H 10.9386 -1.01094 -1.62641 0
M  V30 113 H 9.2436 0.246146 -3.91026 0
M  V30 114 H 10.9406 -0.132844 -4.0078 0
M  V30 115 H 7.5306 -1.56639 -3.98951 0
M  V30 116 H 11.7146 -2.50097 -4.28679 0
M  V30 117 H 6.9706 -3.8308 -4.76508 0
M  V30 118 H 11.1446 -4.76796 -5.07581 0
M  V30 119 H 8.7716 -5.43814 -5.31197 0
M  V30 120 N 10.3467 1.47872 -0.545128 0
M  V30 121 C 11.2767 2.32661 0.197793 0
M  V30 122 C 12.2577 1.43041 0.920504 0
M  V30 123 O 13.4427 1.71912 0.90333 0
M  V30 124 C 10.5727 3.24569 1.23582 0
M  V30 125 C 9.5267 4.23333 0.630323 0
M  V30 126 C 8.8527 5.0448 1.77211 0
M  V30 127 C 10.1527 5.20704 -0.407974 0
M  V30 128 H 11.8467 2.95024 -0.510045 0
M  V30 129 H 9.3927 1.4187 -0.246731 0
M  V30 130 H 11.3457 3.8272 1.76362 0
M  V30 131 H 10.0697 2.60236 1.97344 0
M  V30 132 H 8.7287 3.6639 0.123922 0
M  V30 133 H 8.3767 4.36561 2.49847 0
M  V30 134 H 8.0767 5.71339 1.37281 0
M  V30 135 H 9.6007 5.65487 2.3034 0
M  V30 136 H 11.0147 5.7329 0.033305 0
M  V30 137 H 9.4117 5.95699 -0.725486 0
M  V30 138 H 10.4817 4.66917 -1.30828 0
M  V30 139 N 11.8248 0.280983 1.55075 0
M  V30 140 C 13.0718 -0.334115 1.99725 0
M  V30 141 C 13.3998 -1.5542 1.1694 0
M  V30 142 O 12.6548 -1.94361 0.228531 0
M  V30 143 C 12.9538 -0.754656 3.49342 0
M  V30 144 C 12.6198 0.361445 4.49449 0
M  V30 145 C 11.2818 0.667893 4.76542 0
M  V30 146 C 13.6338 1.11322 5.09173 0
M  V30 147 C 10.9618 1.7296 5.60626 0
M  V30 148 C 13.3138 2.1647 5.9441 0
M  V30 149 C 11.9778 2.47742 6.19822 0
M  V30 150 H 11.2478 -0.122261 0.730844 0
M  V30 151 H 13.8948 0.395917 1.87363 0
M  V30 152 H 12.1998 -1.56446 3.5921 0
M  V30 153 H 13.8968 -1.24142 3.813 0
M  V30 154 H 10.4868 0.112481 4.28452 0
M  V30 155 H 14.6708 0.88973 4.8826 0
M  V30 156 H 9.9268 1.97684 5.78559 0
M  V30 157 H 14.1008 2.75193 6.3972 0
M  V30 158 H 11.7278 3.30145 6.84769 0
M  V30 159 N 13.3029 -1.57598 0.00835791 0
M  V30 160 C 14.2499 -2.08945 -0.980346 0
M  V30 161 C 15.2199 -0.986738 -1.33614 0
M  V30 162 O 16.4049 -1.25968 -1.43306 0
M  V30 163 C 13.5449 -2.60425 -2.26435 0
M  V30 164 C 12.6579 -3.84628 -1.96685 0
M  V30 165 C 11.7929 -4.24579 -3.19228 0
M  V30 166 C 10.8319 -5.41596 -2.85202 0
M  V30 167 N 9.9689 -5.768 -4.00307 0
M  V30 168 H 14.8089 -2.93148 -0.535551 0
M  V30 169 H 12.3459 -1.44912 -0.252776 0
M  V30 170 H 14.3039 -2.88354 -3.01509 0
M  V30 171 H 12.9339 -1.79083 -2.68568 0
M  V30 172 H 11.9859 -3.63556 -1.11942 0
M  V30 173 H 13.2979 -4.69796 -1.67611 0
M  V30 174 H 12.4519 -4.53834 -4.02641 0
M  V30 175 H 11.1909 -3.38137 -3.51447 0
M  V30 176 H 10.1959 -5.12056 -2.00198 0
M  V30 177 H 11.4209 -6.29721 -2.54222 0
M  V30 178 H 9.3669 -4.93316 -4.32407 0
M  V30 179 H 9.2839 -6.5656 -3.74786 0
M  V30 180 H 10.5519 -6.10652 -4.84484 0
M  V30 181 N 14.781 0.264519 -1.55364 0
M  V30 182 C 16.009 1.013 -1.80405 0
M  V30 183 C 16.424 1.79618 -0.581622 0
M  V30 184 O 15.781 1.76879 0.449468 0
M  V30 185 C 15.832 1.96487 -3.03439 0
M  V30 186 O 15.553 1.21341 -4.20961 0
M  V30 187 C 17.054 2.83079 -3.41147 0
M  V30 188 H 14.274 0.298875 -0.600762 0
M  V30 189 H 16.818 0.292736 -2.02394 0
M  V30 190 H 14.973 2.63965 -2.83551 0
M  V30 191 H 15.387 1.85573 -4.90574 0
M  V30 192 H 16.861 3.4565 -4.30384 0
M  V30 193 H 17.338 3.53286 -2.60932 0
M  V30 194 H 17.944 2.2108 -3.63323 0
M  V30 195 N 16.2591 1.48442 0.529413 0
M  V30 196 C 17.2061 1.63007 1.63394 0
M  V30 197 C 18.1761 0.47212 1.59249 0
M  V30 198 O 19.3611 0.695673 1.77666 0
M  V30 199 C 16.5011 1.6763 3.01653 0
M  V30 200 C 15.6141 2.94535 3.16027 0
M  V30 201 C 14.7491 2.90316 4.44849 0
M  V30 202 C 13.7881 4.11923 4.52754 0
M  V30 203 N 12.9251 4.05777 5.72965 0
M  V30 204 H 17.7651 2.5733 1.50285 0
M  V30 205 H 15.3021 1.27613 0.731656 0
M  V30 206 H 17.2601 1.68292 3.81751 0
M  V30 207 H 15.8901 0.76797 3.13532 0
M  V30 208 H 14.9421 3.03615 2.29177 0
M  V30 209 H 16.2541 3.84512 3.17729 0
M  V30 210 H 15.4081 2.89382 5.33238 0
M  V30 211 H 14.1471 1.98068 4.45668 0
M  V30 212 H 13.1521 4.13131 3.62771 0
M  V30 213 H 14.3771 5.0533 4.53672 0
M  V30 214 H 12.3231 3.16351 5.74681 0
M  V30 215 H 12.2401 4.8946 5.76164 0
M  V30 216 H 13.5081 4.08904 6.6364 0
M  V30 217 N 17.7372 -0.778329 1.37039 0
M  V30 218 C 18.9842 -1.53665 1.31884 0
M  V30 219 C 19.3122 -1.9425 -0.0986303 0
M  V30 220 O 18.5672 -1.63832 -1.07041 0
M  V30 221 C 18.8662 -2.81845 2.19768 0
M  V30 222 C 18.5322 -2.60345 3.68146 0
M  V30 223 C 17.1942 -2.5419 4.08584 0
M  V30 224 C 19.5462 -2.40923 4.62175 0
M  V30 225 C 16.8742 -2.26594 5.41177 0
M  V30 226 C 19.2262 -2.14852 5.94997 0
M  V30 227 C 17.8902 -2.07137 6.34547 0
M  V30 228 H 17.1602 -0.562299 0.482598 0
M  V30 229 H 19.8072 -0.897069 1.69189 0
M  V30 230 H 18.1122 -3.50328 1.75436 0
M  V30 231 H 19.8092 -3.39692 2.13097 0
M  V30 232 H 16.3992 -2.65996 3.36072 0
M  V30 233 H 20.5832 -2.44673 4.31797 0
M  V30 234 H 15.8392 -2.19111 5.70789 0
M  V30 235 H 20.0132 -1.98822 6.67415 0
M  V30 236 H 17.6402 -1.85518 7.37216 0
M  V30 237 N 19.2153 -1.21501 -1.00376 0
M  V30 238 C 20.1653 -0.942843 -2.07592 0
M  V30 239 C 21.1493 0.102384 -1.60574 0
M  V30 240 O 22.3413 -0.10671 -1.76678 0
M  V30 241 C 19.4703 -0.510729 -3.3948 0
M  V30 242 C 18.5563 -1.59009 -3.93163 0
M  V30 243 N 18.9473 -2.81544 -4.20198 0
M  V30 244 C 17.2453 -1.45925 -4.21452 0
M  V30 245 C 17.9463 -3.51261 -4.63671 0
M  V30 246 N 16.9223 -2.78703 -4.66718 0
M  V30 247 H 20.7243 -1.87378 -2.26421 0
M  V30 248 H 18.2383 -1.11093 -1.18458 0
M  V30 249 H 20.2353 -0.297101 -4.1584 0
M  V30 250 H 18.8953 0.413436 -3.22057 0
M  V30 251 H 19.9063 -3.18075 -4.08716 0
M  V30 252 H 16.5833 -0.600467 -4.13159 0
M  V30 253 H 17.9733 -4.56183 -4.93302 0
M  V30 254 N 20.6934 1.19889 -1.02296 0
M  V30 255 C 21.6254 2.22334 -0.556787 0
M  V30 256 C 22.6384 1.58674 0.364199 0
M  V30 257 O 23.8274 1.77768 0.161533 0
M  V30 258 C 20.9274 3.38257 0.208694 0
M  V30 259 C 20.1004 4.31504 -0.71577 0
M  V30 260 C 19.1594 5.262 0.00325597 0
M  V30 261 O 18.1854 5.65798 -0.621357 0
M  V30 262 N 19.3874 5.66303 1.27599 0
M  V30 263 H 22.1524 2.62957 -1.43784 0
M  V30 264 H 19.7134 1.34495 -0.901261 0
M  V30 265 H 21.7054 3.98616 0.699111 0
M  V30 266 H 20.2754 2.96472 0.991102 0
M  V30 267 H 19.4954 3.69016 -1.38638 0
M  V30 268 H 20.7834 4.9072 -1.34428 0
M  V30 269 H 20.1814 5.36155 1.80429 0
M  V30 270 H 18.7384 6.28942 1.71102 0
M  V30 271 N 22.1715 0.800033 1.35784 0
M  V30 272 C 23.4015 0.389041 2.02904 0
M  V30 273 C 23.8095 -1.0027 1.60445 0
M  V30 274 O 23.1525 -1.65633 0.794453 0
M  V30 275 C 23.2145 0.385495 3.57427 0
M  V30 276 C 22.8785 1.72662 4.23127 0
M  V30 277 C 23.8755 2.68385 4.4527 0
M  V30 278 C 21.5605 2.00883 4.60381 0
M  V30 279 C 23.5545 3.90517 5.03761 0
M  V30 280 C 21.2415 3.2328 5.18588 0
M  V30 281 C 22.2395 4.17915 5.40218 0
M  V30 282 O 21.9275 5.38153 5.97199 0
M  V30 283 H 21.6595 0.157032 0.657508 0
M  V30 284 H 24.2135 1.08311 1.74522 0
M  V30 285 H 22.4435 -0.365128 3.84972 0
M  V30 286 H 24.1325 -0.00228296 4.059 0
M  V30 287 H 24.8985 2.47872 4.16874 0
M  V30 288 H 20.7775 1.28037 4.42863 0
M  V30 289 H 24.3215 4.64395 5.2056 0
M  V30 290 H 20.2185 3.43667 5.4641 0
M  V30 291 H 20.9865 5.3936 6.15656 0
M  V30 292 N 23.6496 -1.47581 0.552962 0
M  V30 293 C 24.6126 -2.28439 -0.186605 0
M  V30 294 C 25.6126 -1.36706 -0.84665 0
M  V30 295 O 26.8026 -1.59378 -0.703164 0
M  V30 296 C 23.9346 -3.16264 -1.2724 0
M  V30 297 H 25.1276 -2.95294 0.523609 0
M  V30 298 H 22.6806 -1.532 0.309745 0
M  V30 299 H 23.4156 -2.54091 -2.01514 0
M  V30 300 H 23.2006 -3.83769 -0.803968 0
M  V30 301 H 24.6906 -3.77198 -1.79196 0
M  V30 302 N 25.1277 -0.289203 -1.54924 0
M  V30 303 C 26.0607 0.633823 -2.19221 0
M  V30 304 C 27.0387 1.14174 -1.15772 0
M  V30 305 O 28.2227 1.21211 -1.44361 0
M  V30 306 C 25.3497 1.86592 -2.82668 0
M  V30 307 C 24.3957 1.49227 -3.99542 0
M  V30 308 S 25.2287 0.558312 -5.32582 0
M  V30 309 C 26.3847 1.79847 -5.99505 0
M  V30 310 H 26.6177 0.0875416 -2.97171 0
M  V30 311 H 24.1507 -0.0733899 -1.54225 0
M  V30 312 H 26.1087 2.57305 -3.19851 0
M  V30 313 H 24.7697 2.38335 -2.04585 0
M  V30 314 H 23.9627 2.40945 -4.42676 0
M  V30 315 H 23.5647 0.865193 -3.63855 0
M  V30 316 H 25.8567 2.7406 -6.19595 0
M  V30 317 H 26.7997 1.4099 -6.93922 0
M  V30 318 H 27.2077 1.96982 -5.29016 0
M  V30 319 N 26.6058 1.57591 -0.0167156 0
M  V30 320 C 27.5538 2.10604 0.987353 0
M  V30 321 C 28.5478 1.02977 1.34507 0
M  V30 322 O 29.7538 1.21425 1.32875 0
M  V30 323 H 26.1288 0.672695 0.336134 0
M  V30 324 H 28.0998 2.93925 0.514817 0
M  V30 325 C 26.8488 2.6382 2.26483 0
M  V30 326 H 26.1718 3.46278 1.99829 0
M  V30 327 H 27.6118 3.04573 2.94977 0
M  V30 328 C 26.0708 1.55992 2.9861 0
M  V30 329 O 26.6008 0.952521 3.90243 0
M  V30 330 N 24.8068 1.28335 2.60727 0
M  V30 331 H 24.3538 1.77914 1.86291 0
M  V30 332 H 24.3118 0.564115 3.09298 0
M  V30 333 N 28.0839 -0.256276 1.55502 0
M  V30 334 C 29.3319 -0.983672 1.76545 0
M  V30 335 C 29.6529 -1.86206 0.578982 0
M  V30 336 O 28.9229 -1.91656 -0.405577 0
M  V30 337 H 27.5029 -0.366191 0.651086 0
M  V30 338 H 30.1649 -0.276479 1.92929 0
M  V30 339 H 29.2609 -1.61087 2.67315 0
M  V30 340 N 29.562 -1.4872 -0.521534 0
M  V30 341 C 30.472 -1.66569 -1.65203 0
M  V30 342 C 31.488 -0.548197 -1.65139 0
M  V30 343 O 32.664 -0.820339 -1.83936 0
M  V30 344 C 29.729 -1.70917 -3.01642 0
M  V30 345 C 28.79 -2.94356 -3.12495 0
M  V30 346 C 28.023 -2.98487 -4.42426 0
M  V30 347 O 28.246 -2.10786 -5.30024 0
M  V30 348 O 27.18 -3.90746 -4.57822 0
M  V30 349 H 31.006 -2.62298 -1.5308 0
M  V30 350 H 28.591 -1.3222 -0.695565 0
M  V30 351 H 30.473 -1.7625 -3.82771 0
M  V30 352 H 29.148 -0.783633 -3.14071 0
M  V30 353 H 28.055 -2.94552 -2.3063 0
M  V30 354 H 29.388 -3.86322 -3.04986 0
M  V30 355 N 31.0401 0.771051 -1.3745 0
M  V30 356 C 31.9871 1.88435 -1.3327 0
M  V30 357 C 32.9571 1.64914 -0.198136 0
M  V30 358 O 34.1421 1.86821 -0.387606 0
M  V30 359 C 31.2821 3.25509 -1.14622 0
M  V30 360 C 30.3951 3.60979 -2.37314 0
M  V30 361 C 29.5301 4.87265 -2.11533 0
M  V30 362 C 28.5691 5.15469 -3.30088 0
M  V30 363 N 27.7061 6.32944 -3.03853 0
M  V30 364 H 32.5461 1.91344 -2.28455 0
M  V30 365 H 30.0831 0.935466 -1.13523 0
M  V30 366 H 32.0411 4.04582 -1.01831 0
M  V30 367 H 30.6711 3.21974 -0.230837 0
M  V30 368 H 29.7231 2.76885 -2.60842 0
M  V30 369 H 31.0351 3.77759 -3.25729 0
M  V30 370 H 30.1891 5.74244 -1.95777 0
M  V30 371 H 28.9281 4.7259 -1.20457 0
M  V30 372 H 27.9331 4.26966 -3.46382 0
M  V30 373 H 29.1581 5.32052 -4.22016 0
M  V30 374 H 27.1041 6.19625 -2.15407 0
M  V30 375 H 27.0211 6.50143 -3.85812 0
M  V30 376 H 28.2891 7.22857 -2.91716 0
M  V30 377 N 32.5182 1.22032 0.997298 0
M  V30 378 C 33.7952 0.950823 1.70935 0
M  V30 379 C 34.1752 -0.535292 2.042 0
M  V30 380 O 33.5232 -1.50217 1.72183 0
M  V30 381 C 33.7332 1.84386 2.96315 0
M  V30 382 C 35.0812 2.09732 3.69185 0
M  V30 383 O 36.1052 1.81798 3.06314 0
M  V30 384 O 34.9642 2.57018 4.82291 0
M  V30 385 H 32.0582 0.357204 0.745878 0
M  V30 386 H 34.6042 1.32997 1.05404 0
M  V30 387 H 33.3762 2.84928 2.68201 0
M  V30 388 H 32.9992 1.46602 3.69586 0
M  V30 389 N 33.9963 -1.19345 1.0293 0
M  V30 390 C 35.2453 -1.88363 0.721256 0
M  V30 391 C 35.5583 -1.80514 -0.753254 0
M  V30 392 O 36.7643 -2.44788 -1.17436 0
M  V30 393 C 35.2203 -3.37872 1.23978 0
M  V30 394 C 34.8283 -3.54278 2.74211 0
M  V30 395 C 36.5723 -4.12365 1.00775 0
M  V30 396 C 34.4793 -4.97682 3.19479 0
M  V30 397 H 33.4093 -0.705484 0.266098 0
M  V30 398 H 36.0603 -1.34928 1.24365 0
M  V30 399 H 34.4423 -3.90707 0.6453 0
M  V30 400 H 35.6163 -3.11769 3.39318 0
M  V30 401 H 33.9313 -2.93174 2.95699 0
M  V30 402 H 36.5283 -5.18119 1.32123 0
M  V30 403 H 36.8713 -4.16263 -0.0554308 0
M  V30 404 H 37.4043 -3.65668 1.56625 0
M  V30 405 H 34.1433 -4.98945 4.25128 0
M  V30 406 H 33.6633 -5.4095 2.591 0
M  V30 407 H 35.3423 -5.66337 3.12845 0
M  V30 408 N 35.4744 -0.807222 -1.35358 0
M  V30 409 C 36.4224 -0.20614 -2.31685 0
M  V30 410 C 37.4164 0.644445 -1.56663 0
M  V30 411 O 38.6224 0.537538 -1.71786 0
M  V30 412 H 34.9974 -0.0479006 -0.750473 0
M  V30 413 H 36.9684 -1.03369 -2.79924 0
M  V30 414 C 35.7174 0.630212 -3.41941 0
M  V30 415 H 35.0404 -0.0149558 -3.99797 0
M  V30 416 H 36.4804 1.01716 -4.11619 0
M  V30 417 C 34.9394 1.79601 -2.85035 0
M  V30 418 O 35.4694 2.89351 -2.78637 0
M  V30 419 N 33.6754 1.60774 -2.42074 0
M  V30 420 H 33.2224 0.715009 -2.47478 0
M  V30 421 H 33.1804 2.38933 -2.04349 0
M  V30 422 N 36.9525 1.47285 -0.560781 0
M  V30 423 C 37.9005 2.31756 0.197942 0
M  V30 424 C 38.8945 1.43146 0.905854 0
M  V30 425 O 40.1005 1.59891 0.826733 0
M  V30 426 H 36.4755 0.747438 0.0827049 0
M  V30 427 H 38.4465 2.9359 -0.533629 0
M  V30 428 C 37.1955 3.25874 1.21249 0
M  V30 429 H 36.5185 3.94023 0.67719 0
M  V30 430 H 37.9585 3.87803 1.71419 0
M  V30 431 C 36.4175 2.49651 2.26221 0
M  V30 432 O 36.9475 2.24355 3.33208 0
M  V30 433 N 35.1535 2.10597 2.00243 0
M  V30 434 H 34.7005 2.31369 1.13252 0
M  V30 435 H 34.6585 1.59913 2.70694 0
M  V30 436 N 38.4306 0.297415 1.54768 0
M  V30 437 C 39.3786 -0.596051 2.24833 0
M  V30 438 C 40.3726 -1.13992 1.25308 0
M  V30 439 O 41.5786 -1.09098 1.4317 0
M  V30 440 H 37.9536 -0.210814 0.721846 0
M  V30 441 H 39.9246 0.0174667 2.98395 0
M  V30 442 C 38.6736 -1.75818 2.99972 0
M  V30 443 H 37.9966 -1.3489 3.76357 0
M  V30 444 H 39.4366 -2.35949 3.52284 0
M  V30 445 C 37.8956 -2.66014 2.06732 0
M  V30 446 O 38.4256 -3.67009 1.63302 0
M  V30 447 N 36.6316 -2.33669 1.72763 0
M  V30 448 H 36.1786 -1.51586 2.08277 0
M  V30 449 H 36.1366 -2.94285 1.10652 0
M  V30 450 N 39.9087 -1.5758 0.0250728 0
M  V30 451 C 41.1547 -1.91917 -0.655413 0
M  V30 452 C 41.4877 -0.901433 -1.72011 0
M  V30 453 O 40.7627 0.0764069 -1.9435 0
M  V30 454 C 41.0457 -3.36751 -1.27558 0
M  V30 455 C 40.8987 -4.49258 -0.220719 0
M  V30 456 C 42.2177 -3.81469 -2.19475 0
M  V30 457 H 39.3367 -0.697925 -0.23679 0
M  V30 458 H 41.9787 -1.89825 0.0815036 0
M  V30 459 H 40.1287 -3.38664 -1.90365 0
M  V30 460 H 41.8007 -4.59478 0.409601 0
M  V30 461 H 40.0437 -4.31415 0.454264 0
M  V30 462 H 40.7147 -5.47618 -0.694175 0
M  V30 463 H 43.1907 -3.81266 -1.66659 0
M  V30 464 H 42.0667 -4.83512 -2.59822 0
M  V30 465 H 42.3277 -3.16744 -3.08424 0
M  V30 466 N 41.3868 0.248026 -1.55636 0
M  V30 467 C 42.2968 1.32859 -1.93354 0
M  V30 468 C 43.3128 1.52719 -0.833838 0
M  V30 469 O 44.4888 1.66363 -1.13513 0
M  V30 470 C 41.5538 2.66337 -2.21958 0
M  V30 471 C 40.6148 2.55008 -3.45354 0
M  V30 472 C 39.8478 3.82121 -3.72584 0
M  V30 473 O 40.0708 4.83951 -3.01907 0
M  V30 474 O 39.0048 3.80822 -4.6611 0
M  V30 475 H 42.8308 1.03862 -2.85388 0
M  V30 476 H 40.4158 0.448686 -1.42503 0
M  V30 477 H 42.2978 3.45216 -2.4167 0
M  V30 478 H 40.9728 2.95068 -1.33103 0
M  V30 479 H 39.8798 1.7442 -3.30951 0
M  V30 480 H 41.2128 2.31222 -4.34508 0
M  V30 481 N 42.8649 1.48995 0.513639 0
M  V30 482 C 43.8119 1.6473 1.61656 0
M  V30 483 C 44.7819 0.488984 1.58739 0
M  V30 484 O 45.9669 0.714478 1.76918 0
M  V30 485 C 43.1069 1.7082 2.99858 0
M  V30 486 C 42.2199 2.9787 3.12885 0
M  V30 487 C 41.3549 2.95017 4.41744 0
M  V30 488 C 40.3939 4.16702 4.48359 0
M  V30 489 N 39.5309 4.11832 5.68629 0
M  V30 490 H 44.3709 2.58909 1.47547 0
M  V30 491 H 41.9079 1.28382 0.71808 0
M  V30 492 H 43.8659 1.72331 3.79944 0
M  V30 493 H 42.4959 0.801181 3.12699 0
M  V30 494 H 41.5479 3.06029 2.25944 0
M  V30 495 H 42.8599 3.8786 3.13633 0
M  V30 496 H 42.0139 2.95021 5.30139 0
M  V30 497 H 40.7529 2.02784 4.43542 0
M  V30 498 H 39.7579 4.16955 3.58369 0
M  V30 499 H 40.9829 5.10113 4.48287 0
M  V30 500 H 38.9289 3.22428 5.71293 0
M  V30 501 H 38.8459 4.95543 5.7094 0
M  V30 502 H 40.1139 4.1592 6.59266 0
M  V30 503 N 44.343 -0.763751 1.37857 0
M  V30 504 C 45.306 -1.85889 1.34081 0
M  V30 505 C 46.306 -1.58949 0.243277 0
M  V30 506 O 47.496 -1.66882 0.499589 0
M  V30 507 C 44.628 -3.23176 1.08489 0
M  V30 508 H 45.821 -1.90648 2.31502 0
M  V30 509 H 43.374 -0.964367 1.23003 0
M  V30 510 H 44.109 -3.24091 0.116318 0
M  V30 511 H 43.894 -3.44124 1.8794 0
M  V30 512 H 45.384 -4.03254 1.08517 0
M  V30 513 N 45.8211 -1.22559 -0.990812 0
M  V30 514 C 47.2321 -1.04791 -1.54518 0
M  V30 515 C 47.5831 0.387998 -1.92325 0
M  V30 516 O 46.7081 1.27328 -1.74976 0
M  V30 517 C 47.3031 -1.896 -2.80779 0
M  V30 518 C 45.8621 -1.76124 -3.32652 0
M  V30 519 C 45.0091 -1.8594 -2.05722 0
M  V30 520 H 47.9601 -1.36374 -0.811662 0
M  V30 521 H 47.9811 -1.41464 -3.53225 0
M  V30 522 H 47.4931 -2.94101 -2.53231 0
M  V30 523 H 45.5941 -0.743643 -3.65104 0
M  V30 524 H 45.7071 -2.58913 -4.03114 0
M  V30 525 H 44.0711 -1.29403 -2.19379 0
M  V30 526 H 44.8541 -2.91976 -1.80568 0
M  V30 527 N 47.2992 1.18797 -1.03562 0
M  V30 528 C 48.5392 1.90346 -0.744832 0
M  V30 529 C 48.9032 1.78231 0.713972 0
M  V30 530 O 50.1042 2.44441 1.11813 0
M  V30 531 C 48.3752 3.36942 -1.19184 0
M  V30 532 S 49.9342 4.26638 -1.02593 0
M  V30 533 H 46.7522 0.657343 -0.270963 0
M  V30 534 H 49.3542 1.43579 -1.32685 0
M  V30 535 H 48.0582 3.43287 -2.24905 0
M  V30 536 H 47.5892 3.88745 -0.603397 0
M  V30 537 H 49.6042 4.96164 0.0596033 0
M  V30 538 N 48.7773 0.814389 1.34928 0
M  V30 539 C 49.7403 0.235759 2.27984 0
M  V30 540 C 50.7403 -0.581412 1.49921 0
M  V30 541 O 51.9303 -0.398758 1.69575 0
M  V30 542 C 49.0623 -0.670433 3.34242 0
M  V30 543 H 50.2553 1.05659 2.80671 0
M  V30 544 H 47.8083 0.585614 1.44915 0
M  V30 545 H 48.5433 -1.51466 2.86755 0
M  V30 546 H 48.3283 -0.0860822 3.92005 0
M  V30 547 H 49.8183 -1.06935 4.03676 0
M  V30 548 N 50.2554 -1.46986 0.568584 0
M  V30 549 C 51.4834 -2.0683 0.0539956 0
M  V30 550 C 51.8984 -1.41953 -1.24478 0
M  V30 551 O 51.2554 -0.519933 -1.74937 0
M  V30 552 C 51.3064 -3.61254 -0.133362 0
M  V30 553 O 51.0274 -4.237 1.11399 0
M  V30 554 C 52.5284 -4.37992 -0.683927 0
M  V30 555 H 49.7484 -0.669058 0.0510141 0
M  V30 556 H 52.2924 -1.88824 0.785234 0
M  V30 557 H 50.4474 -3.78735 -0.81477 0
M  V30 558 H 50.8614 -5.16388 0.91888 0
M  V30 559 H 52.3354 -5.46684 -0.764263 0
M  V30 560 H 52.8124 -4.05058 -1.69778 0
M  V30 561 H 53.4184 -4.25283 -0.0378494 0
M  V30 562 N 51.7335 -0.305618 -1.54608 0
M  V30 563 C 52.9585 0.307562 -2.05107 0
M  V30 564 C 53.3835 1.46385 -1.18123 0
M  V30 565 O 52.7415 1.8034 -0.186324 0
M  V30 566 C 52.7895 0.73704 -3.52987 0
M  V30 567 O 51.8935 1.84134 -3.6901 0
M  V30 568 H 51.2345 0.0589143 -0.661381 0
M  V30 569 H 53.7645 -0.448807 -1.99617 0
M  V30 570 H 53.7745 1.02459 -3.94925 0
M  V30 571 H 52.4495 -0.108773 -4.15758 0
M  V30 572 H 51.0265 1.55398 -3.38978 0
M  V30 573 N 53.2116 1.57565 -0.0334293 0
M  V30 574 C 54.4366 1.96689 0.657895 0
M  V30 575 C 54.8616 0.910057 1.64619 0
M  V30 576 O 54.2196 -0.128598 1.80843 0
M  V30 577 C 54.2676 3.34905 1.33683 0
M  V30 578 O 53.3716 3.31574 2.45219 0
M  V30 579 H 52.7126 0.641205 0.172489 0
M  V30 580 H 55.2426 2.04372 -0.0965621 0
M  V30 581 H 55.2526 3.71234 1.69262 0
M  V30 582 H 53.9276 4.11366 0.612411 0
M  V30 583 H 52.5046 3.06968 2.11719 0
M  V30 584 N 54.6897 -0.239769 1.55765 0
M  V30 585 C 56.1007 -0.808263 1.68297 0
M  V30 586 C 56.4517 -1.85736 0.632181 0
M  V30 587 O 55.5767 -2.15277 -0.220204 0
M  V30 588 C 56.1717 -1.47284 3.05111 0
M  V30 589 C 54.7307 -1.98895 3.19559 0
M  V30 590 C 53.8777 -0.842575 2.64189 0
M  V30 591 H 56.8287 -0.0154422 1.58692 0
M  V30 592 H 56.8497 -2.34111 2.99954 0
M  V30 593 H 56.3617 -0.709053 3.81568 0
M  V30 594 H 54.4627 -2.78132 2.47938 0
M  V30 595 H 54.5757 -2.18143 4.26556 0
M  V30 596 H 52.9397 -1.24501 2.22197 0
M  V30 597 H 53.7227 -0.0917552 3.43177 0
M  V30 598 N 56.1678 -1.49265 -0.50573 0
M  V30 599 C 57.4138 -1.58748 -1.26202 0
M  V30 600 C 57.7468 -0.271227 -1.92297 0
M  V30 601 O 57.0218 0.724831 -1.80489 0
M  V30 602 C 57.3048 -2.74332 -2.33268 0
M  V30 603 C 57.1578 -4.15737 -1.71705 0
M  V30 604 C 58.4768 -2.85576 -3.34865 0
M  V30 605 H 55.5958 -0.577826 -0.457478 0
M  V30 606 H 58.2378 -1.81532 -0.560897 0
M  V30 607 H 56.3878 -2.55036 -2.93068 0
M  V30 608 H 58.0598 -4.46537 -1.15769 0
M  V30 609 H 56.3028 -4.21605 -1.02135 0
M  V30 610 H 56.9738 -4.92477 -2.49341 0
M  V30 611 H 59.4498 -3.03127 -2.8505 0
M  V30 612 H 58.3258 -3.68135 -4.07146 0
M  V30 613 H 58.5868 -1.94732 -3.96903 0
M  V30 614 N 57.6459 0.756429 -1.3826 0
M  V30 615 C 58.8739 1.54565 -1.3754 0
M  V30 616 C 59.2889 1.88767 0.0355331 0
M  V30 617 O 58.6459 1.52572 1.0014 0
M  V30 618 C 58.6969 2.84654 -2.22833 0
M  V30 619 O 58.4179 2.51912 -3.5843 0
M  V30 620 C 59.9189 3.78807 -2.30261 0
M  V30 621 H 57.1389 0.478353 -0.470553 0
M  V30 622 H 59.6829 0.936381 -1.81803 0
M  V30 623 H 57.8379 3.41965 -1.8204 0
M  V30 624 H 58.2519 3.35325 -4.03308 0
M  V30 625 H 59.7259 4.67045 -2.94233 0
M  V30 626 H 60.2029 4.19038 -1.31545 0
M  V30 627 H 60.8089 3.2742 -2.71433 0
M  V30 628 N 59.124 1.23083 0.984299 0
M  V30 629 C 60.056 0.96636 2.07832 0
M  V30 630 C 61.069 -0.0582135 1.62696 0
M  V30 631 O 62.258 0.176843 1.77622 0
M  V30 632 C 59.358 0.433397 3.36117 0
M  V30 633 C 58.531 1.51722 4.10243 0
M  V30 634 C 57.59 0.989821 5.16807 0
M  V30 635 O 56.616 1.67794 5.43906 0
M  V30 636 N 57.818 -0.184367 5.80207 0
M  V30 637 H 60.583 1.90824 2.31098 0
M  V30 638 H 58.144 1.13888 1.1507 0
M  V30 639 H 60.136 0.065699 4.04647 0
M  V30 640 H 58.706 -0.413806 3.09849 0
M  V30 641 H 57.926 2.05786 3.36223 0
M  V30 642 H 59.214 2.24619 4.56534 0
M  V30 643 H 58.612 -0.760062 5.60571 0
M  V30 644 H 57.169 -0.493366 6.4993 0
M  V30 645 N 60.6021 -1.18246 1.0419 0
M  V30 646 C 61.8791 -1.84121 0.660208 0
M  V30 647 C 62.2591 -1.92778 -0.860221 0
M  V30 648 O 61.6071 -1.45464 -1.76217 0
M  V30 649 C 61.8171 -3.22355 1.33747 0
M  V30 650 C 63.1651 -3.98376 1.46906 0
M  V30 651 O 64.1891 -3.31799 1.29568 0
M  V30 652 O 63.0481 -5.17665 1.75171 0
M  V30 653 H 60.1421 -0.794036 0.231161 0
M  V30 654 H 62.6881 -1.25628 1.14087 0
M  V30 655 H 61.4601 -3.10964 2.37522 0
M  V30 656 H 61.0831 -3.88506 0.845515 0
M  V30 657 N 62.0802 -0.821533 -1.34494 0
M  V30 658 C 63.3572 -0.33159 -1.92769 0
M  V30 659 C 63.7372 1.18088 -1.74981 0
M  V30 660 O 63.0852 1.98733 -1.12772 0
M  V30 661 C 63.2952 -0.759398 -3.40638 0
M  V30 662 C 64.6432 -0.757433 -4.1779 0
M  V30 663 O 65.6672 -0.70189 -3.49216 0
M  V30 664 O 64.5262 -0.829361 -5.4017 0
M  V30 665 H 61.6202 -0.0902502 -0.822061 0
M  V30 666 H 64.1662 -0.906231 -1.43477 0
M  V30 667 H 62.9382 -1.8012 -3.47379 0
M  V30 668 H 62.5612 -0.160378 -3.97276 0
M  V30 669 N 63.5583 1.46682 -0.576371 0
M  V30 670 C 64.4883 2.33028 0.148397 0
M  V30 671 C 65.4693 1.44961 0.889956 0
M  V30 672 O 66.6543 1.73789 0.866662 0
M  V30 673 C 63.7843 3.27117 1.1667 0
M  V30 674 C 62.7383 4.24575 0.540386 0
M  V30 675 C 62.0643 5.08126 1.6647 0
M  V30 676 C 63.3643 5.19722 -0.518331 0
M  V30 677 H 65.0583 2.93875 -0.572509 0
M  V30 678 H 62.6043 1.41315 -0.276768 0
M  V30 679 H 64.5573 3.86374 1.68204 0
M  V30 680 H 63.2813 2.64364 1.9178 0
M  V30 681 H 61.9403 3.66571 0.0461769 0
M  V30 682 H 61.5883 4.41762 2.40531 0
M  V30 683 H 61.2883 5.74122 1.25131 0
M  V30 684 H 62.8123 5.70246 2.18293 0
M  V30 685 H 64.2263 5.73232 -0.0883058 0
M  V30 686 H 62.6233 5.94026 -0.851679 0
M  V30 687 H 63.6933 4.64037 -1.40703 0
M  V30 688 N 65.0364 0.313813 1.54444 0
M  V30 689 C 65.9684 -0.590425 2.21465 0
M  V30 690 C 66.9814 -1.08753 1.21147 0
M  V30 691 O 68.1704 -1.00278 1.4767 0
M  V30 692 C 65.2704 -1.82179 2.85769 0
M  V30 693 C 64.4434 -1.46502 4.12136 0
M  V30 694 C 63.5024 -2.55288 4.60124 0
M  V30 695 O 62.5284 -2.19842 5.25032 0
M  V30 696 N 63.7304 -3.86053 4.33525 0
M  V30 697 H 66.4954 -0.0166033 2.99695 0
M  V30 698 H 64.0564 0.136578 1.61323 0
M  V30 699 H 66.0484 -2.54328 3.14801 0
M  V30 700 H 64.6184 -2.30369 2.11303 0
M  V30 701 H 63.8384 -0.575595 3.89975 0
M  V30 702 H 65.1264 -1.20221 4.94393 0
M  V30 703 H 64.5244 -4.17654 3.81552 0
M  V30 704 H 63.0814 -4.54461 4.67235 0
M  V30 705 N 66.5145 -1.57545 0.0417849 0
M  V30 706 C 67.7445 -1.96339 -0.642995 0
M  V30 707 C 68.1525 -0.917536 -1.65463 0
M  V30 708 O 67.4955 0.107747 -1.83384 0
M  V30 709 C 67.5575 -3.31333 -1.39494 0
M  V30 710 C 67.2215 -4.53796 -0.540204 0
M  V30 711 C 68.2185 -5.19553 0.189806 0
M  V30 712 C 65.9035 -5.0006 -0.473886 0
M  V30 713 C 67.8975 -6.29904 0.974674 0
M  V30 714 C 65.5845 -6.10289 0.314677 0
M  V30 715 C 66.5825 -6.75072 1.03765 0
M  V30 716 O 66.2705 -7.83183 1.81327 0
M  V30 717 H 66.0025 -0.651241 -0.181277 0
M  V30 718 H 68.5565 -2.05148 0.101665 0
M  V30 719 H 66.7865 -3.19052 -2.18502 0
M  V30 720 H 68.4755 -3.54942 -1.96904 0
M  V30 721 H 69.2415 -4.84774 0.147981 0
M  V30 722 H 65.1205 -4.49433 -1.0262 0
M  V30 723 H 68.6645 -6.80401 1.5395 0
M  V30 724 H 64.5615 -6.44506 0.358174 0
M  V30 725 H 65.3295 -7.99913 1.73438 0
M  V30 726 N 67.9926 0.231505 -1.5589 0
M  V30 727 C 68.9426 1.29007 -1.87993 0
M  V30 728 C 69.9266 1.42764 -0.742102 0
M  V30 729 O 71.1186 1.45747 -1.00433 0
M  V30 730 C 68.2476 2.6425 -2.1915 0
M  V30 731 C 67.3336 2.54435 -3.39299 0
M  V30 732 N 67.7246 2.14262 -4.58176 0
M  V30 733 C 66.0226 2.85416 -3.42715 0
M  V30 734 C 66.7236 2.15455 -5.40328 0
M  V30 735 N 65.6996 2.55558 -4.79783 0
M  V30 736 H 69.5016 0.970213 -2.77424 0
M  V30 737 H 67.0156 0.440097 -1.56323 0
M  V30 738 H 69.0126 3.40665 -2.40319 0
M  V30 739 H 67.6726 2.9709 -1.31025 0
M  V30 740 H 68.6836 1.85554 -4.83518 0
M  V30 741 H 65.3606 3.22693 -2.64906 0
M  V30 742 H 66.7506 1.86605 -6.45467 0
M  V30 743 N 69.4707 1.49531 0.497807 0
M  V30 744 C 70.4187 1.66926 1.61983 0
M  V30 745 C 71.4127 0.535167 1.60724 0
M  V30 746 O 72.6187 0.714896 1.65195 0
M  V30 747 H 68.9937 0.526415 0.537021 0
M  V30 748 H 70.9647 2.61098 1.44465 0
M  V30 749 C 69.7137 1.75602 3.00099 0
M  V30 750 H 69.0367 2.62244 3.01775 0
M  V30 751 H 70.4767 1.91807 3.78135 0
M  V30 752 C 68.9357 0.501543 3.33146 0
M  V30 753 O 69.4657 -0.371342 3.9998 0
M  V30 754 N 67.6717 0.363531 2.88317 0
M  V30 755 H 67.2187 1.07485 2.34104 0
M  V30 756 H 67.1767 -0.474728 3.10795 0
M  V30 757 N 70.9488 -0.749086 1.3866 0
M  V30 758 C 71.8788 -1.8764 1.38973 0
M  V30 759 C 72.8598 -1.68178 0.255004 0
M  V30 760 O 74.0448 -1.88704 0.458754 0
M  V30 761 C 71.1748 -3.25222 1.21851 0
M  V30 762 C 70.1288 -3.59295 2.32575 0
M  V30 763 C 69.4548 -4.95663 2.00555 0
M  V30 764 C 70.7548 -3.63709 3.7485 0
M  V30 765 H 72.4488 -1.87635 2.3331 0
M  V30 766 H 69.9948 -0.901329 1.12303 0
M  V30 767 H 71.9478 -4.03746 1.20695 0
M  V30 768 H 70.6718 -3.25719 0.239775 0
M  V30 769 H 69.3308 -2.83093 2.32925 0
M  V30 770 H 68.9788 -4.92724 1.01154 0
M  V30 771 H 68.6788 -5.19429 2.74714 0
M  V30 772 H 70.2028 -5.7656 2.01024 0
M  V30 773 H 71.6168 -4.32338 3.76506 0
M  V30 774 H 70.0138 -3.98986 4.48252 0
M  V30 775 H 71.0838 -2.63834 4.06841 0
M  V30 776 N 72.4269 -1.23603 -0.977757 0
M  V30 777 C 73.6519 -1.09735 -1.75991 0
M  V30 778 C 74.0769 0.346858 -1.84874 0
M  V30 779 O 73.4349 1.25093 -1.3123 0
M  V30 780 C 73.4829 -1.73051 -3.16363 0
M  V30 781 O 72.5869 -0.994452 -4.0023 0
M  V30 782 H 71.9279 -0.384476 -0.541364 0
M  V30 783 H 74.4579 -1.6371 -1.2272 0
M  V30 784 H 74.4679 -1.78398 -3.66931 0
M  V30 785 H 73.1429 -2.78137 -3.09213 0
M  V30 786 H 71.7199 -1.01812 -3.58732 0
M  V30 787 N 73.905 1.17692 -1.04816 0
M  V30 788 C 74.852 2.21581 -0.645797 0
M  V30 789 C 75.822 1.62367 0.350159 0
M  V30 790 O 77.007 1.89254 0.242433 0
M  V30 791 C 74.147 3.45092 -0.0227568 0
M  V30 792 C 73.26 4.18613 -1.06709 0
M  V30 793 C 72.395 5.29602 -0.411767 0
M  V30 794 C 71.434 5.94904 -1.44067 0
M  V30 795 N 70.571 6.97414 -0.809781 0
M  V30 796 H 75.411 2.55353 -1.5362 0
M  V30 797 H 72.948 1.25438 -0.768364 0
M  V30 798 H 74.906 4.15679 0.35588 0
M  V30 799 H 73.536 3.11917 0.831122 0
M  V30 800 H 72.588 3.46779 -1.5636 0
M  V30 801 H 73.9 4.63293 -1.84827 0
M  V30 802 H 73.054 6.06696 0.0206623 0
M  V30 803 H 71.793 4.86045 0.401438 0
M  V30 804 H 70.798 5.16544 -1.88316 0
M  V30 805 H 72.023 6.40542 -2.25571 0
M  V30 806 H 69.969 6.55998 -0.0170186 0
M  V30 807 H 69.886 7.40386 -1.52856 0
M  V30 808 H 71.154 7.78463 -0.401999 0
M  V30 809 N 75.3831 0.828654 1.34056 0
M  V30 810 C 76.3151 0.212052 2.28217 0
M  V30 811 C 77.3281 -0.601362 1.51286 0
M  V30 812 O 78.5171 -0.430104 1.73241 0
M  V30 813 C 75.6171 -0.72088 3.31144 0
M  V30 814 C 74.7901 0.0509587 4.3737 0
M  V30 815 C 73.8491 -0.803766 5.20025 0
M  V30 816 O 72.8751 -0.246667 5.68665 0
M  V30 817 N 74.0771 -2.1227 5.40298 0
M  V30 818 H 76.8421 1.02105 2.81771 0
M  V30 819 H 74.4031 0.686153 1.46641 0
M  V30 820 H 76.3951 -1.29742 3.8334 0
M  V30 821 H 74.9651 -1.43061 2.77943 0
M  V30 822 H 74.1851 0.808831 3.85813 0
M  V30 823 H 75.4731 0.582065 5.0546 0
M  V30 824 H 74.8711 -2.59898 5.02464 0
M  V30 825 H 73.4281 -2.64796 5.95589 0
M  V30 826 N 76.8612 -1.46375 0.584142 0
M  V30 827 C 77.7932 -2.28443 -0.186119 0
M  V30 828 C 78.8062 -1.38596 -0.854115 0
M  V30 829 O 79.9952 -1.63183 -0.723438 0
M  V30 830 C 77.0952 -3.13671 -1.28311 0
M  V30 831 C 76.2682 -4.31652 -0.706758 0
M  V30 832 C 75.3272 -4.98267 -1.69163 0
M  V30 833 O 74.3532 -5.55815 -1.22712 0
M  V30 834 N 75.5552 -4.95408 -3.02575 0
M  V30 835 H 78.3202 -2.9519 0.517986 0
M  V30 836 H 75.8812 -1.56303 0.42201 0
M  V30 837 H 77.8732 -3.55101 -1.94128 0
M  V30 838 H 76.4432 -2.48989 -1.89005 0
M  V30 839 H 75.6632 -3.93989 0.128908 0
M  V30 840 H 76.9512 -5.07906 -0.301506 0
M  V30 841 H 76.3492 -4.49902 -3.42936 0
M  V30 842 H 74.9062 -5.40774 -3.63877 0
M  V30 843 N 78.3393 -0.321999 -1.54275 0
M  V30 844 C 79.2873 0.560206 -2.25753 0
M  V30 845 C 80.2813 1.11984 -1.27106 0
M  V30 846 O 81.4873 1.06806 -1.44888 0
M  V30 847 H 77.8623 0.199304 -0.725108 0
M  V30 848 H 79.8333 -0.0649365 -2.98329 0
M  V30 849 C 78.5823 1.71023 -3.02731 0
M  V30 850 H 77.9053 1.28885 -3.78456 0
M  V30 851 H 79.3453 2.30314 -3.55993 0
M  V30 852 C 77.8043 2.62692 -2.10938 0
M  V30 853 O 78.3343 3.64364 -1.6912 0
M  V30 854 N 76.5403 2.30891 -1.76459 0
M  V30 855 H 76.0873 1.48253 -2.10663 0
M  V30 856 H 76.0453 2.92487 -1.1532 0
M  V30 857 N 79.8174 1.5752 -0.0501392 0
M  V30 858 C 80.7274 2.14952 0.939827 0
M  V30 859 C 81.7434 1.10706 1.34239 0
M  V30 860 O 82.9194 1.42869 1.41952 0
M  V30 861 C 79.9844 2.68232 2.19665 0
M  V30 862 C 79.0454 3.87272 1.85253 0
M  V30 863 C 78.2784 4.38002 3.04943 0
M  V30 864 O 78.5014 3.87811 4.18281 0
M  V30 865 O 77.4354 5.29602 2.86017 0
M  V30 866 H 81.2614 2.9986 0.481392 0
M  V30 867 H 78.8464 1.4841 0.171699 0
M  V30 868 H 80.7284 3.02475 2.93406 0
M  V30 869 H 79.4034 1.86395 2.64648 0
M  V30 870 H 78.3104 3.5792 1.0883 0
M  V30 871 H 79.6434 4.70336 1.4507 0
M  V30 872 N 81.2955 -0.223234 1.56011 0
M  V30 873 C 82.5205 -0.968978 1.83373 0
M  V30 874 C 82.9455 -1.77227 0.630254 0
M  V30 875 O 82.3035 -1.76345 -0.420959 0
M  V30 876 C 82.3515 -1.86363 3.08709 0
M  V30 877 O 81.4555 -2.95873 2.87285 0
M  V30 878 H 80.7965 -0.274461 0.604622 0
M  V30 879 H 83.3265 -0.237056 2.03222 0
M  V30 880 H 83.3365 -2.27376 3.38768 0
M  V30 881 H 82.0115 -1.27319 3.95933 0
M  V30 882 H 80.5885 -2.58818 2.68454 0
M  V30 883 N 82.7736 -1.49793 -0.48987 0
M  V30 884 C 84.1846 -1.52914 -1.07118 0
M  V30 885 C 84.5356 -0.321738 -1.93544 0
M  V30 886 O 83.6606 0.567338 -2.08831 0
M  V30 887 C 84.2556 -2.771 -1.94938 0
M  V30 888 C 82.8146 -2.82963 -2.48212 0
M  V30 889 C 81.9616 -2.46972 -1.26096 0
M  V30 890 H 84.9126 -1.56329 -0.273289 0
M  V30 891 H 84.9336 -2.57892 -2.79771 0
M  V30 892 H 84.4456 -3.64959 -1.32009 0
M  V30 893 H 82.5466 -1.99411 -3.14748 0
M  V30 894 H 82.6596 -3.85406 -2.84603 0
M  V30 895 H 81.0236 -1.98994 -1.58976 0
M  V30 896 H 81.8066 -3.37118 -0.648581 0
M  V30 897 N 84.2517 0.741722 -1.39055 0
M  V30 898 C 85.1837 1.8657 -1.33133 0
M  V30 899 C 86.1967 1.61001 -0.241329 0
M  V30 900 O 87.3857 1.7136 -0.499784 0
M  V30 901 C 84.4857 3.22457 -1.04283 0
M  V30 902 C 83.6587 3.75435 -2.24427 0
M  V30 903 C 82.7177 4.89867 -1.92138 0
M  V30 904 O 81.7437 5.03879 -2.64754 0
M  V30 905 N 82.9457 5.73738 -0.88347 0
M  V30 906 H 85.7107 1.92156 -2.29991 0
M  V30 907 H 83.2717 0.922172 -1.3307 0
M  V30 908 H 85.2637 3.9657 -0.807128 0
M  V30 909 H 83.8337 3.12181 -0.161807 0
M  V30 910 H 83.0537 2.92751 -2.6399 0
M  V30 911 H 84.3417 4.07563 -3.04581 0
M  V30 912 H 83.7397 5.64999 -0.281517 0
M  V30 913 H 82.2967 6.47947 -0.707662 0
M  V30 914 N 85.7298 1.2412 0.971189 0
M  V30 915 C 87.1408 1.07236 1.52831 0
M  V30 916 C 87.4918 -0.357352 1.92918 0
M  V30 917 O 86.6168 -1.24528 1.76979 0
M  V30 918 C 87.2118 1.94043 2.77728 0
M  V30 919 C 85.7708 1.81394 3.29808 0
M  V30 920 C 84.9178 1.89189 2.02738 0
M  V30 921 H 87.8688 1.37648 0.789864 0
M  V30 922 H 87.8898 1.47066 3.5093 0
M  V30 923 H 87.4018 2.98093 2.4852 0
M  V30 924 H 85.5028 0.801634 3.63874 0
M  V30 925 H 85.6158 2.65294 3.98944 0
M  V30 926 H 83.9798 1.32877 2.17292 0
M  V30 927 H 84.7628 2.94812 1.759 0
M  V30 928 N 87.2079 -1.17134 1.05439 0
M  V30 929 C 88.1379 -2.2342 0.678649 0
M  V30 930 C 89.1189 -1.66971 -0.32476 0
M  V30 931 O 90.3039 -1.93149 -0.201802 0
M  V30 932 C 87.4339 -3.47256 0.0552099 0
M  V30 933 C 86.3879 -4.16543 0.98365 0
M  V30 934 C 85.7139 -5.34231 0.223961 0
M  V30 935 C 87.0139 -4.68495 2.3089 0
M  V30 936 H 88.7079 -2.55105 1.56722 0
M  V30 937 H 86.2539 -1.2262 0.754998 0
M  V30 938 H 88.2069 -4.20828 -0.21946 0
M  V30 939 H 86.9309 -3.14846 -0.868319 0
M  V30 940 H 85.5899 -3.44887 1.24293 0
M  V30 941 H 85.2379 -4.98071 -0.702412 0
M  V30 942 H 84.9379 -5.81527 0.842627 0
M  V30 943 H 86.4619 -6.10585 -0.0433671 0
M  V30 944 H 87.8759 -5.33691 2.09396 0
M  V30 945 H 86.2729 -5.26379 2.88176 0
M  V30 946 H 87.3429 -3.85169 2.94572 0
M  V30 947 N 88.686 -0.835752 -1.33615 0
M  V30 948 C 89.932 -0.430596 -1.98176 0
M  V30 949 C 90.265 1.00684 -1.66061 0
M  V30 950 O 89.54 1.70339 -0.938877 0
M  V30 951 C 89.823 -0.648065 -3.5422 0
M  V30 952 C 89.676 -2.13255 -3.96033 0
M  V30 953 C 90.995 -0.0922113 -4.40003 0
M  V30 954 H 88.114 -0.157924 -0.719881 0
M  V30 955 H 90.756 -1.05069 -1.58305 0
M  V30 956 H 88.906 -0.120237 -3.88314 0
M  V30 957 H 90.578 -2.725 -3.72211 0
M  V30 958 H 88.821 -2.61823 -3.45878 0
M  V30 959 H 89.492 -2.23547 -5.04708 0
M  V30 960 H 91.968 -0.543343 -4.12537 0
M  V30 961 H 90.844 -0.274083 -5.48215 0
M  V30 962 H 91.105 1.00378 -4.30554 0
M  V30 963 N 90.1641 1.46063 -0.591896 0
M  V30 964 C 91.0741 2.34192 0.13831 0
M  V30 965 C 92.0901 1.50305 0.876608 0
M  V30 966 O 93.2661 1.8315 0.837728 0
M  V30 967 C 90.3311 3.27656 1.13326 0
M  V30 968 C 89.3921 4.27445 0.39863 0
M  V30 969 C 88.6251 5.16443 1.34618 0
M  V30 970 O 88.8481 5.08553 2.58321 0
M  V30 971 O 87.7821 5.95843 0.851768 0
M  V30 972 H 91.6081 2.98002 -0.58552 0
M  V30 973 H 89.1931 1.45188 -0.352239 0
M  V30 974 H 91.0751 3.85291 1.70671 0
M  V30 975 H 89.7501 2.6643 1.83839 0
M  V30 976 H 88.6571 3.73471 -0.216895 0
M  V30 977 H 89.9901 4.91482 -0.265709 0
M  V30 978 N 91.6422 0.330177 1.54103 0
M  V30 979 C 92.8702 -0.272179 2.05102 0
M  V30 980 C 93.2852 -1.45267 1.20595 0
M  V30 981 O 92.6422 -1.8094 0.238144 0
M  V30 982 C 92.6932 -0.70023 3.54653 0
M  V30 983 O 92.4142 0.433301 4.35952 0
M  V30 984 C 93.9152 -1.3647 4.21771 0
M  V30 985 H 91.1352 -0.0549159 0.668749 0
M  V30 986 H 93.6792 0.478285 1.98828 0
M  V30 987 H 91.8342 -1.40066 3.61193 0
M  V30 988 H 92.2482 0.0947539 5.24414 0
M  V30 989 H 93.7222 -1.61509 5.27843 0
M  V30 990 H 94.1992 -2.31409 3.73292 0
M  V30 991 H 94.8052 -0.706675 4.19388 0
M  V30 992 N 93.1203 -1.57491 0.0584922 0
M  V30 993 C 94.3683 -1.92597 -0.612436 0
M  V30 994 C 94.6893 -0.938162 -1.70949 0
M  V30 995 O 93.9593 0.0158301 -1.95894 0
M  V30 996 H 92.5393 -0.710964 -0.229214 0
M  V30 997 H 95.2013 -1.94571 0.113218 0
M  V30 998 H 94.2973 -2.94038 -1.04633 0
M  V30 999 N 94.5984 0.214957 -1.56127 0
M  V30 1000 C 95.5454 1.26642 -1.92952 0
M  V30 1001 C 96.5154 1.46244 -0.78753 0
M  V30 1002 O 97.7004 1.59704 -1.04399 0
M  V30 1003 C 94.8404 2.6104 -2.25726 0
M  V30 1004 C 93.9534 2.49183 -3.52891 0
M  V30 1005 C 93.0884 3.76149 -3.7508 0
M  V30 1006 C 92.1274 3.59041 -4.95738 0
M  V30 1007 N 91.2644 4.77972 -5.14283 0
M  V30 1008 H 96.1044 0.945384 -2.82607 0
M  V30 1009 H 93.6414 0.455489 -1.3987 0
M  V30 1010 H 95.5994 3.39313 -2.42739 0
M  V30 1011 H 94.2294 2.91227 -1.39236 0
M  V30 1012 H 93.2814 1.6231 -3.44034 0
M  V30 1013 H 94.5934 2.32466 -4.41318 0
M  V30 1014 H 93.7474 4.62865 -3.92226 0
M  V30 1015 H 92.4864 3.95799 -2.84947 0
M  V30 1016 H 91.4914 2.7071 -4.78535 0
M  V30 1017 H 92.7164 3.40856 -5.87362 0
M  V30 1018 H 90.6624 4.97923 -4.27093 0
M  V30 1019 H 90.5794 4.64006 -5.96853 0
M  V30 1020 H 91.8474 5.66096 -5.35869 0
M  V30 1021 N 96.0765 1.50051 0.48192 0
M  V30 1022 C 97.0235 1.68122 1.58125 0
M  V30 1023 C 97.9935 0.522545 1.57666 0
M  V30 1024 O 99.1785 0.751844 1.75362 0
M  V30 1025 C 96.3185 1.77142 2.96167 0
M  V30 1026 C 95.4315 3.0444 3.06497 0
M  V30 1027 C 94.5665 3.04321 4.35387 0
M  V30 1028 C 93.6055 4.26118 4.3942 0
M  V30 1029 N 92.7425 4.238 5.59766 0
M  V30 1030 H 97.5825 2.6198 1.42022 0
M  V30 1031 H 95.1195 1.29877 0.690687 0
M  V30 1032 H 97.0775 1.80352 3.76203 0
M  V30 1033 H 95.7075 0.867329 3.1093 0
M  V30 1034 H 94.7595 3.10752 2.19402 0
M  V30 1035 H 96.0715 3.94426 3.05336 0
M  V30 1036 H 95.2255 3.062 5.23762 0
M  V30 1037 H 93.9645 2.12147 4.39141 0
M  V30 1038 H 92.9695 4.24463 3.49444 0
M  V30 1039 H 94.1945 5.19507 4.37366 0
M  V30 1040 H 92.1405 3.34474 5.64326 0
M  V30 1041 H 92.0575 5.07542 5.60301 0
M  V30 1042 H 93.3255 4.2981 6.50295 0
M  V30 1043 N 97.5546 -0.734337 1.39446 0
M  V30 1044 C 98.7796 -1.52866 1.40167 0
M  V30 1045 C 99.2046 -1.881 -0.00171513 0
M  V30 1046 O 98.5626 -1.51957 -0.988879 0
M  V30 1047 C 98.6106 -2.79235 2.28167 0
M  V30 1048 O 97.7146 -3.75185 1.71201 0
M  V30 1049 H 97.0556 -0.461618 0.477289 0
M  V30 1050 H 99.5856 -0.905949 1.8345 0
M  V30 1051 H 99.5956 -3.27963 2.42702 0
M  V30 1052 H 98.2706 -2.52923 3.30156 0
M  V30 1053 H 96.8476 -3.33958 1.65912 0
M  V30 1054 N 99.0327 -1.24633 -0.964593 0
M  V30 1055 C 100.444 -1.08045 -1.5226 0
M  V30 1056 C 100.795 0.347116 -1.93105 0
M  V30 1057 O 99.9197 1.23588 -1.77637 0
M  V30 1058 C 100.515 -1.95514 -2.76695 0
M  V30 1059 C 99.0737 -1.8314 -3.28841 0
M  V30 1060 C 98.2207 -1.90262 -2.01732 0
M  V30 1061 H 101.172 -1.38064 -0.782553 0
M  V30 1062 H 101.193 -1.48925 -3.50145 0
M  V30 1063 H 100.705 -2.99407 -2.46936 0
M  V30 1064 H 98.8057 -0.82092 -3.63444 0
M  V30 1065 H 98.9187 -2.67406 -3.97531 0
M  V30 1066 H 97.2827 -1.34027 -2.16584 0
M  V30 1067 H 98.0657 -2.9574 -1.74334 0
M  V30 1068 N 100.511 1.16574 -1.06058 0
M  V30 1069 C 101.421 2.2452 -0.680282 0
M  V30 1070 C 102.437 1.71348 0.302604 0
M  V30 1071 O 103.613 2.00822 0.152513 0
M  V30 1072 C 100.678 3.46629 -0.0700315 0
M  V30 1073 C 99.7388 4.14849 -1.10448 0
M  V30 1074 C 98.9718 5.31129 -0.523256 0
M  V30 1075 O 99.1948 5.66514 0.664709 0
M  V30 1076 O 98.1288 5.88526 -1.26179 0
M  V30 1077 H 101.955 2.59355 -1.58015 0
M  V30 1078 H 99.5398 1.24043 -0.832694 0
M  V30 1079 H 101.422 4.20543 0.268667 0
M  V30 1080 H 100.097 3.13573 0.803353 0
M  V30 1081 H 99.0038 3.42916 -1.49532 0
M  V30 1082 H 100.337 4.51954 -1.94931 0
M  V30 1083 N 101.989 0.842826 1.3317 0
M  V30 1084 C 103.214 0.453129 2.02389 0
M  V30 1085 C 103.639 -0.939105 1.6298 0
M  V30 1086 O 102.997 -1.61472 0.8244 0
M  V30 1087 C 103.045 0.586094 3.55805 0
M  V30 1088 O 102.149 -0.386029 4.10589 0
M  V30 1089 H 101.49 0.183664 0.638094 0
M  V30 1090 H 104.02 1.13875 1.69981 0
M  V30 1091 H 104.03 0.469209 4.05293 0
M  V30 1092 H 102.705 1.6014 3.83833 0
M  V30 1093 H 101.282 -0.226371 3.72212 0
M  V30 1094 N 103.467 -1.45747 0.599634 0
M  V30 1095 C 104.397 -2.33235 -0.111306 0
M  V30 1096 C 105.378 -1.46359 -0.866781 0
M  V30 1097 O 106.563 -1.75146 -0.838904 0
M  V30 1098 C 103.693 -3.28932 -1.11451 0
M  V30 1099 C 102.647 -4.25381 -0.472772 0
M  V30 1100 C 101.973 -5.1071 -1.58365 0
M  V30 1101 C 103.273 -5.18831 0.600948 0
M  V30 1102 H 104.967 -2.92927 0.61919 0
M  V30 1103 H 102.513 -1.40857 0.299215 0
M  V30 1104 H 104.466 -3.89002 -1.62036 0
M  V30 1105 H 103.19 -2.67381 -1.8755 0
M  V30 1106 H 101.849 -3.66598 0.0121472 0
M  V30 1107 H 101.497 -4.45533 -2.33473 0
M  V30 1108 H 101.197 -5.7604 -1.15982 0
M  V30 1109 H 102.721 -5.73647 -2.09194 0
M  V30 1110 H 104.135 -5.73019 0.179491 0
M  V30 1111 H 102.532 -5.92595 0.946076 0
M  V30 1112 H 103.602 -4.6174 1.48068 0
M  V30 1113 N 104.945 -0.338344 -1.53925 0
M  V30 1114 C 106.191 0.260143 -2.01125 0
M  V30 1115 C 106.524 1.50617 -1.22589 0
M  V30 1116 O 105.799 1.91979 -0.312113 0
M  V30 1117 C 106.082 0.579499 -3.55407 0
M  V30 1118 C 105.935 -0.678264 -4.44657 0
M  V30 1119 C 107.254 1.39122 -4.17532 0
M  V30 1120 H 104.373 0.0930772 -0.731099 0
M  V30 1121 H 107.015 -0.457852 -1.84401 0
M  V30 1122 H 105.165 1.19118 -3.69788 0
M  V30 1123 H 106.837 -1.31631 -4.42121 0
M  V30 1124 H 105.08 -1.3042 -4.13731 0
M  V30 1125 H 105.751 -0.410143 -5.50474 0
M  V30 1126 H 108.227 0.874035 -4.06817 0
M  V30 1127 H 107.103 1.58342 -5.25565 0
M  V30 1128 H 107.364 2.39178 -3.71815 0
M  V30 1129 N 106.423 1.57458 -0.0668435 0
M  V30 1130 C 107.37 2.12439 0.902122 0
M  V30 1131 C 108.34 1.03565 1.2986 0
M  V30 1132 O 109.525 1.312 1.38532 0
M  V30 1133 C 106.665 2.6865 2.16614 0
M  V30 1134 C 105.778 3.91663 1.82274 0
M  V30 1135 C 104.913 4.36134 3.0325 0
M  V30 1136 C 103.952 5.51808 2.64904 0
M  V30 1137 N 103.089 5.9126 3.78624 0
M  V30 1138 H 107.929 2.94934 0.426382 0
M  V30 1139 H 105.466 1.4575 0.198819 0
M  V30 1140 H 107.424 2.99346 2.90599 0
M  V30 1141 H 106.054 1.88928 2.61737 0
M  V30 1142 H 105.106 3.6746 0.983719 0
M  V30 1143 H 106.418 4.75693 1.50059 0
M  V30 1144 H 105.572 4.68465 3.85519 0
M  V30 1145 H 104.311 3.50948 3.38655 0
M  V30 1146 H 103.316 5.19133 1.81055 0
M  V30 1147 H 104.541 6.38722 2.30675 0
M  V30 1148 H 102.487 5.09024 4.138 0
M  V30 1149 H 102.404 6.70018 3.5016 0
M  V30 1150 H 103.672 6.28212 4.61486 0
M  V30 1151 N 107.901 -0.206675 1.56239 0
M  V30 1152 C 108.831 -1.25909 1.96645 0
M  V30 1153 C 109.812 -1.48097 0.836734 0
M  V30 1154 O 110.997 -1.6003 1.10019 0
M  V30 1155 C 108.127 -2.6058 2.29599 0
M  V30 1156 C 107.081 -2.53024 3.452 0
M  V30 1157 C 106.407 -3.91861 3.63798 0
M  V30 1158 C 107.707 -2.06524 4.79734 0
M  V30 1159 H 109.401 -0.923369 2.84806 0
M  V30 1160 H 106.947 -0.442735 1.37025 0
M  V30 1161 H 108.9 -3.34375 2.56459 0
M  V30 1162 H 107.624 -2.95869 1.38307 0
M  V30 1163 H 106.283 -1.81684 3.18412 0
M  V30 1164 H 105.931 -4.24483 2.69857 0
M  V30 1165 H 105.631 -3.87683 4.4156 0
M  V30 1166 H 107.155 -4.67296 3.93022 0
M  V30 1167 H 108.569 -2.70072 5.05702 0
M  V30 1168 H 106.966 -2.13374 5.60885 0
M  V30 1169 H 108.036 -1.01802 4.74093 0
M  V30 1170 N 109.379 -1.50304 -0.473955 0
M  V30 1171 C 110.656 -1.51667 -1.23518 0
M  V30 1172 C 111.036 -0.259701 -2.09496 0
M  V30 1173 O 110.384 0.756986 -2.15597 0
M  V30 1174 C 110.594 -2.81082 -2.06868 0
M  V30 1175 C 111.942 -3.31631 -2.65153 0
M  V30 1176 O 112.966 -2.82384 -2.17113 0
M  V30 1177 O 111.825 -4.17471 -3.52675 0
M  V30 1178 H 108.919 -0.60822 -0.560355 0
M  V30 1179 H 111.465 -1.62592 -0.486011 0
M  V30 1180 H 110.237 -3.64041 -1.4349 0
M  V30 1181 H 109.86 -2.73146 -2.88924 0
M  V30 1182 N 110.857 0.726932 -1.39834 0
M  V30 1183 C 111.82 1.82269 -1.38962 0
M  V30 1184 C 112.82 1.58248 -0.285334 0
M  V30 1185 O 114.01 1.65499 -0.54366 0
M  V30 1186 C 111.142 3.20186 -1.17019 0
M  V30 1187 H 112.335 1.84443 -2.36476 0
M  V30 1188 H 109.888 0.931416 -1.25516 0
M  V30 1189 H 110.623 3.23669 -0.202204 0
M  V30 1190 H 110.408 3.3902 -1.96998 0
M  V30 1191 H 111.898 4.00235 -1.1917 0
M  V30 1192 N 112.336 1.25143 0.95797 0
M  V30 1193 C 113.564 1.12424 1.73691 0
M  V30 1194 C 113.979 -0.322304 1.86029 0
M  V30 1195 O 113.336 -1.22186 1.35561 0
M  V30 1196 C 113.387 1.76933 3.15241 0
M  V30 1197 O 113.108 3.15932 3.03511 0
M  V30 1198 C 114.609 1.6995 4.09429 0
M  V30 1199 H 111.829 0.3923 0.544373 0
M  V30 1200 H 114.373 1.6544 1.20207 0
M  V30 1201 H 112.528 1.27895 3.6568 0
M  V30 1202 H 112.942 3.47598 3.9278 0
M  V30 1203 H 114.416 2.19753 5.06372 0
M  V30 1204 H 114.893 0.662619 4.34173 0
M  V30 1205 H 115.499 2.18461 3.64904 0
M  V30 1206 N 113.814 -1.1601 1.06675 0
M  V30 1207 C 115.225 -1.68235 0.809565 0
M  V30 1208 C 115.576 -1.8454 -0.666303 0
M  V30 1209 O 114.701 -1.54374 -1.5165 0
M  V30 1210 C 115.296 -3.05585 1.46299 0
M  V30 1211 C 113.855 -3.54915 1.25349 0
M  V30 1212 C 113.002 -2.30804 1.53703 0
M  V30 1213 H 115.953 -1.00318 1.22971 0
M  V30 1214 H 115.974 -3.70174 0.880431 0
M  V30 1215 H 115.486 -2.93686 2.53713 0
M  V30 1216 H 113.587 -3.72067 0.199261 0
M  V30 1217 H 113.7 -4.36774 1.9689 0
M  V30 1218 H 112.064 -2.36007 0.957739 0
M  V30 1219 H 112.847 -2.21499 2.62284 0
M  V30 1220 N 115.292 -0.849877 -1.32721 0
M  V30 1221 C 116.222 -0.306308 -2.31482 0
M  V30 1222 C 117.203 0.591952 -1.59468 0
M  V30 1223 O 118.388 0.513199 -1.87296 0
M  V30 1224 C 115.518 0.510204 -3.43532 0
M  V30 1225 C 114.472 -0.293209 -4.26994 0
M  V30 1226 C 113.798 0.647743 -5.30762 0
M  V30 1227 C 115.098 -1.51634 -4.99804 0
M  V30 1228 H 116.792 -1.13153 -2.77195 0
M  V30 1229 H 114.338 -0.545553 -1.33266 0
M  V30 1230 H 116.291 0.900856 -4.11658 0
M  V30 1231 H 115.015 1.36874 -2.96535 0
M  V30 1232 H 113.674 -0.665555 -3.60508 0
M  V30 1233 H 113.322 1.50299 -4.8002 0
M  V30 1234 H 113.022 0.11422 -5.87489 0
M  V30 1235 H 114.546 1.03567 -6.01753 0
M  V30 1236 H 115.96 -1.19824 -5.60638 0
M  V30 1237 H 114.357 -1.98745 -5.66234 0
M  V30 1238 H 115.427 -2.28018 -4.27943 0
M  V30 1239 N 116.77 1.45427 -0.607355 0
M  V30 1240 C 117.995 2.07124 -0.107006 0
M  V30 1241 C 118.42 1.44906 1.19933 0
M  V30 1242 O 117.778 0.541687 1.73019 0
M  V30 1243 C 117.826 3.60595 0.0194119 0
M  V30 1244 O 116.93 3.98285 1.0697 0
M  V30 1245 H 116.271 0.659868 -0.0739597 0
M  V30 1246 H 118.801 1.86683 -0.837297 0
M  V30 1247 H 118.811 4.07419 0.2177 0
M  V30 1248 H 117.486 4.05266 -0.934453 0
M  V30 1249 H 116.063 3.63133 0.847889 0
M  V30 1250 N 118.248 0.346503 1.53744 0
M  V30 1251 C 119.473 -0.253074 2.0585 0
M  V30 1252 C 119.898 -1.43202 1.21962 0
M  V30 1253 O 119.256 -1.79783 0.234073 0
M  V30 1254 C 119.304 -0.643193 3.54817 0
M  V30 1255 O 118.408 -1.74286 3.73762 0
M  V30 1256 H 117.749 -0.0413583 0.662711 0
M  V30 1257 H 120.279 0.501574 1.98357 0
M  V30 1258 H 120.289 -0.919526 3.97503 0
M  V30 1259 H 118.964 0.218966 4.15323 0
M  V30 1260 H 117.541 -1.46356 3.42979 0
M  V30 1261 N 119.726 -1.57421 0.075193 0
M  V30 1262 C 121.137 -1.81021 -0.456964 0
M  V30 1263 C 121.488 -0.98936 -1.69429 0
M  V30 1264 O 120.613 -0.212865 -2.15351 0
M  V30 1265 C 121.208 -3.28329 -0.83581 0
M  V30 1266 C 119.767 -3.52764 -1.31281 0
M  V30 1267 C 118.914 -2.75676 -0.299648 0
M  V30 1268 H 121.865 -1.55822 0.300856 0
M  V30 1269 H 121.886 -3.40564 -1.69696 0
M  V30 1270 H 121.398 -3.88046 0.0649238 0
M  V30 1271 H 119.499 -2.98355 -2.23193 0
M  V30 1272 H 119.612 -4.61451 -1.28839 0
M  V30 1273 H 117.976 -2.42538 -0.777641 0
M  V30 1274 H 118.759 -3.38132 0.593417 0
M  V30 1275 N 121.204 0.198386 -1.56346 0
M  V30 1276 C 122.62 0.549085 -1.49857 0
M  V30 1277 C 122.82 1.86016 -0.774611 0
M  V30 1278 O 121.876 2.50416 -0.323776 0
M  V30 1279 C 123.189 0.606868 -2.94512 0
M  V30 1280 C 124.737 0.695925 -3.05165 0
M  V30 1281 C 125.212 0.784848 -4.51225 0
M  V30 1282 N 126.703 0.848463 -4.55363 0
M  V30 1283 C 127.438 0.937378 -5.65686 0
M  V30 1284 N 126.934 0.9888 -6.85707 0
M  V30 1285 N 128.727 0.974312 -5.53592 0
M  V30 1286 H 120.878 -0.661655 -2.01831 0
M  V30 1287 H 123.141 -0.235261 -0.918344 0
M  V30 1288 H 122.847 -0.28732 -3.50524 0
M  V30 1289 H 122.721 1.46268 -3.47686 0
M  V30 1290 H 125.108 1.58055 -2.49204 0
M  V30 1291 H 125.189 -0.186022 -2.55123 0
M  V30 1292 H 124.833 -0.0954072 -5.0781 0
M  V30 1293 H 124.763 1.68255 -4.98997 0
M  V30 1294 H 127.254 0.818103 -3.68938 0
M  V30 1295 H 127.567 1.05707 -7.65536 0
M  V30 1296 H 125.912 0.957534 -6.88372 0
M  V30 1297 H 129.103 0.930954 -4.58749 0
M  V30 1298 H 129.276 1.04015 -6.39597 0
M  V30 1299 N 122.682 1.50554 0.465978 0
M  V30 1300 C 123.632 1.66177 1.56106 0
M  V30 1301 C 124.616 0.516265 1.52393 0
M  V30 1302 O 125.808 0.770906 1.5933 0
M  V30 1303 C 122.937 1.76396 2.94515 0
M  V30 1304 C 122.023 2.9664 3.03093 0
M  V30 1305 N 122.414 4.20245 2.81474 0
M  V30 1306 C 120.712 2.95304 3.34233 0
M  V30 1307 C 121.413 5.01259 2.95151 0
M  V30 1308 N 120.389 4.35318 3.25576 0
M  V30 1309 H 124.191 2.59434 1.38099 0
M  V30 1310 H 121.705 1.47808 0.6728 0
M  V30 1311 H 123.702 1.85694 3.73261 0
M  V30 1312 H 122.362 0.843017 3.13565 0
M  V30 1313 H 123.373 4.4966 2.56956 0
M  V30 1314 H 120.05 2.12729 3.59239 0
M  V30 1315 H 121.44 6.09564 2.82632 0
M  V30 1316 N 124.16 -0.719506 1.40217 0
M  V30 1317 C 125.406 -1.48152 1.38488 0
M  V30 1318 C 125.739 -1.94195 -0.0141867 0
M  V30 1319 O 125.014 -1.67884 -0.982096 0
M  V30 1320 C 125.297 -2.71035 2.37091 0
M  V30 1321 C 125.15 -2.30912 3.86005 0
M  V30 1322 C 126.469 -3.73182 2.33288 0
M  V30 1323 H 123.588 -0.537395 0.504357 0
M  V30 1324 H 126.23 -0.821472 1.71324 0
M  V30 1325 H 124.38 -3.27352 2.0922 0
M  V30 1326 H 126.052 -1.80107 4.24687 0
M  V30 1327 H 124.295 -1.62958 4.02029 0
M  V30 1328 H 124.966 -3.18978 4.50508 0
M  V30 1329 H 127.442 -3.26485 2.57966 0
M  V30 1330 H 126.318 -4.56806 3.04334 0
M  V30 1331 H 126.579 -4.21202 1.34317 0
M  V30 1332 N 125.638 -1.25649 -0.95132 0
M  V30 1333 C 127.054 -1.02542 -1.223 0
M  V30 1334 C 127.254 0.255715 -1.99871 0
M  V30 1335 O 126.31 0.967558 -2.33226 0
M  V30 1336 C 127.623 -2.25065 -1.99415 0
M  V30 1337 C 129.171 -2.29861 -2.12446 0
M  V30 1338 C 129.646 -3.52048 -2.92961 0
M  V30 1339 N 131.137 -3.52465 -3.00538 0
M  V30 1340 C 131.872 -4.43672 -3.63239 0
M  V30 1341 N 131.368 -5.45157 -4.27523 0
M  V30 1342 N 133.161 -4.31346 -3.60412 0
M  V30 1343 H 125.312 -2.07951 -0.432471 0
M  V30 1344 H 127.575 -0.91339 -0.253816 0
M  V30 1345 H 127.281 -3.18194 -1.49817 0
M  V30 1346 H 127.155 -2.28502 -3.00111 0
M  V30 1347 H 129.542 -1.37252 -2.61239 0
M  V30 1348 H 129.623 -2.3044 -1.11044 0
M  V30 1349 H 129.267 -4.44981 -2.44856 0
M  V30 1350 H 129.197 -3.48715 -3.94596 0
M  V30 1351 H 131.688 -2.79056 -2.54826 0
M  V30 1352 H 132.001 -6.10958 -4.73234 0
M  V30 1353 H 130.346 -5.49025 -4.26141 0
M  V30 1354 H 133.537 -3.51288 -3.09377 0
M  V30 1355 H 133.71 -5.02624 -4.0899 0
M  V30 1356 N 127.117 1.15442 -1.07289 0
M  V30 1357 C 128.366 1.85557 -0.790669 0
M  V30 1358 C 128.679 1.83186 0.685739 0
M  V30 1359 O 129.885 2.48977 1.0827 0
M  V30 1360 C 128.341 3.33038 -1.36433 0
M  V30 1361 C 127.949 3.43856 -2.8717 0
M  V30 1362 C 129.693 4.0834 -1.1601 0
M  V30 1363 C 127.6 4.85482 -3.3773 0
M  V30 1364 H 126.53 0.695122 -0.292098 0
M  V30 1365 H 129.181 1.30219 -1.29287 0
M  V30 1366 H 127.563 3.88043 -0.789864 0
M  V30 1367 H 128.737 2.98961 -3.50655 0
M  V30 1368 H 127.052 2.81998 -3.06376 0
M  V30 1369 H 129.649 5.12859 -1.51262 0
M  V30 1370 H 129.992 4.16182 -0.0991007 0
M  V30 1371 H 130.525 3.59603 -1.70089 0
M  V30 1372 H 127.264 4.82823 -4.43353 0
M  V30 1373 H 126.784 5.30961 -2.78999 0
M  V30 1374 H 128.463 5.54335 -3.33648 0
M  V30 1375 N 128.595 0.856903 1.32268 0
M  V30 1376 C 129.542 0.301172 2.28827 0
M  V30 1377 C 130.512 -0.593104 1.5515 0
M  V30 1378 O 131.697 -0.527537 1.83362 0
M  V30 1379 C 128.837 -0.502523 3.41422 0
M  V30 1380 C 127.95 0.417797 4.29975 0
M  V30 1381 C 127.085 -0.398749 5.29701 0
M  V30 1382 C 126.124 0.518827 6.09897 0
M  V30 1383 N 125.261 -0.260674 7.01616 0
M  V30 1384 H 130.101 1.12983 2.75751 0
M  V30 1385 H 127.638 0.568582 1.35667 0
M  V30 1386 H 129.596 -0.984141 4.05426 0
M  V30 1387 H 128.226 -1.29599 2.95642 0
M  V30 1388 H 127.278 1.01781 3.66531 0
M  V30 1389 H 128.59 1.12191 4.86019 0
M  V30 1390 H 127.744 -0.943435 5.9932 0
M  V30 1391 H 126.483 -1.13622 4.7428 0
M  V30 1392 H 125.488 1.07538 5.39181 0
M  V30 1393 H 126.713 1.25495 6.67404 0
M  V30 1394 H 124.659 -0.981198 6.4862 0
M  V30 1395 H 124.576 0.384364 7.55022 0
M  V30 1396 H 125.844 -0.787014 7.75517 0
M  V30 1397 N 130.073 -1.45103 0.615059 0
M  V30 1398 C 131.021 -2.32331 -0.111791 0
M  V30 1399 C 132.015 -1.46409 -0.852102 0
M  V30 1400 O 133.221 -1.62849 -0.766821 0
M  V30 1401 H 129.596 -0.749993 -0.0549072 0
M  V30 1402 H 131.567 -2.91407 0.642225 0
M  V30 1403 C 130.316 -3.3015 -1.09071 0
M  V30 1404 H 129.639 -3.96265 -0.530485 0
M  V30 1405 H 131.079 -3.93898 -1.56908 0
M  V30 1406 C 129.538 -2.57875 -2.168 0
M  V30 1407 O 130.068 -2.36567 -3.24652 0
M  V30 1408 N 128.274 -2.17884 -1.92289 0
M  V30 1409 H 127.821 -2.35413 -1.04587 0
M  V30 1410 H 127.779 -1.6985 -2.64572 0
M  V30 1411 N 131.551 -0.354651 -1.53558 0
M  V30 1412 C 132.797 0.231422 -2.02079 0
M  V30 1413 C 133.152 1.47308 -1.23767 0
M  V30 1414 O 132.445 1.8891 -0.319947 0
M  V30 1415 C 132.639 0.587121 -3.52545 0
M  V30 1416 C 132.468 -0.618513 -4.45426 0
M  V30 1417 C 131.238 -1.12724 -4.92566 0
M  V30 1418 C 133.436 -1.48039 -4.92533 0
M  V30 1419 N 131.418 -2.29404 -5.69427 0
M  V30 1420 C 132.789 -2.49397 -5.67628 0
M  V30 1421 C 134.844 -1.50454 -4.74624 0
M  V30 1422 C 133.547 -3.53013 -6.26717 0
M  V30 1423 C 135.573 -2.52958 -5.34571 0
M  V30 1424 C 134.935 -3.5304 -6.09543 0
M  V30 1425 H 131.034 0.0476909 -0.780544 0
M  V30 1426 H 133.618 -0.496727 -1.88257 0
M  V30 1427 H 131.789 1.28436 -3.6655 0
M  V30 1428 H 133.521 1.15734 -3.87799 0
M  V30 1429 H 130.276 -0.693577 -4.68494 0
M  V30 1430 H 130.7 -2.88347 -6.12524 0
M  V30 1431 H 135.342 -0.744356 -4.16196 0
M  V30 1432 H 133.06 -4.2992 -6.84247 0
M  V30 1433 H 136.646 -2.55667 -5.22614 0
M  V30 1434 H 135.526 -4.31056 -6.55103 0
M  V30 1435 N 133.029 1.57378 -0.0835403 0
M  V30 1436 C 134.277 1.93547 0.581718 0
M  V30 1437 C 134.598 0.96524 1.69435 0
M  V30 1438 O 133.868 0.0153369 1.95894 0
M  V30 1439 H 132.448 0.714521 0.217874 0
M  V30 1440 H 135.11 1.94366 -0.144158 0
M  V30 1441 H 134.206 2.95665 0.999423 0
M  V30 1442 N 134.507 -0.190092 1.56449 0
M  V30 1443 C 135.732 -0.929864 1.85387 0
M  V30 1444 C 136.157 -1.7585 0.667704 0
M  V30 1445 O 135.515 -1.77198 -0.383459 0
M  V30 1446 C 135.563 -1.79773 3.12593 0
M  V30 1447 O 134.667 -2.89713 2.93496 0
M  V30 1448 H 134.008 -0.261574 0.610307 0
M  V30 1449 H 136.538 -0.193896 2.03679 0
M  V30 1450 H 136.548 -2.20139 3.43515 0
M  V30 1451 H 135.223 -1.18892 3.98544 0
M  V30 1452 H 133.8 -2.53065 2.73884 0
M  V30 1453 N 135.985 -1.50799 -0.457987 0
M  V30 1454 C 137.233 -1.62121 -1.2067 0
M  V30 1455 C 137.554 -0.329793 -1.92191 0
M  V30 1456 O 136.824 0.653409 -1.84682 0
M  V30 1457 H 135.404 -0.597441 -0.448411 0
M  V30 1458 H 138.066 -1.87637 -0.527096 0
M  V30 1459 H 137.162 -2.43882 -1.94751 0
M  V30 1460 N 137.463 0.71206 -1.40597 0
M  V30 1461 C 138.396 1.83582 -1.35546 0
M  V30 1462 C 139.374 1.61032 -0.225284 0
M  V30 1463 O 140.558 1.83998 -0.409519 0
M  V30 1464 C 137.685 3.19983 -1.11034 0
M  V30 1465 C 136.731 3.61355 -2.2655 0
M  V30 1466 S 137.564 3.68062 -3.88961 0
M  V30 1467 C 138.72 5.07216 -3.66719 0
M  V30 1468 H 138.953 1.87586 -2.30648 0
M  V30 1469 H 136.486 0.879182 -1.26924 0
M  V30 1470 H 138.444 3.98734 -0.975761 0
M  V30 1471 H 137.105 3.13608 -0.175798 0
M  V30 1472 H 136.298 4.60403 -2.0505 0
M  V30 1473 H 135.9 2.8987 -2.36329 0
M  V30 1474 H 138.192 5.94238 -3.25404 0
M  V30 1475 H 139.135 5.33753 -4.6531 0
M  V30 1476 H 139.543 4.77976 -3.00332 0
M  V30 1477 N 138.941 1.26152 0.944643 0
M  V30 1478 C 140.169 1.14259 1.72489 0
M  V30 1479 C 140.584 -0.302555 1.8636 0
M  V30 1480 O 139.941 -1.20741 1.36849 0
M  V30 1481 C 139.992 1.80266 3.13347 0
M  V30 1482 O 139.713 3.19133 3.00143 0
M  V30 1483 C 141.214 1.74283 4.07603 0
M  V30 1484 H 138.434 0.398051 0.540181 0
M  V30 1485 H 140.978 1.66706 1.18446 0
M  V30 1486 H 139.133 1.31766 3.64303 0
M  V30 1487 H 139.547 3.51744 3.89071 0
M  V30 1488 H 141.021 2.25111 5.04013 0
M  V30 1489 H 141.498 0.708631 4.33446 0
M  V30 1490 H 142.104 2.22319 3.62567 0
M  V30 1491 N 140.419 -1.14872 1.07899 0
M  V30 1492 C 141.666 -1.85789 0.805532 0
M  V30 1493 C 141.994 -1.82649 -0.668561 0
M  V30 1494 O 141.249 -1.24858 -1.50695 0
M  V30 1495 C 141.548 -3.34223 1.26609 0
M  V30 1496 C 141.214 -3.57555 2.74709 0
M  V30 1497 C 139.876 -3.63631 3.1516 0
M  V30 1498 C 142.228 -3.66803 3.70277 0
M  V30 1499 C 139.556 -3.76473 4.49983 0
M  V30 1500 C 141.908 -3.8117 5.04869 0
M  V30 1501 C 140.572 -3.85494 5.44932 0
M  V30 1502 H 139.842 -0.679849 0.294765 0
M  V30 1503 H 142.489 -1.3572 1.35101 0
M  V30 1504 H 140.794 -3.86536 0.640103 0
M  V30 1505 H 142.491 -3.87511 1.03132 0
M  V30 1506 H 139.081 -3.5347 2.42398 0
M  V30 1507 H 143.265 -3.61404 3.40149 0
M  V30 1508 H 138.521 -3.7808 4.80484 0
M  V30 1509 H 142.695 -3.87268 5.78789 0
M  V30 1510 H 140.322 -3.95197 6.49403 0
M  V30 1511 N 141.898 -0.863906 -1.31812 0
M  V30 1512 C 142.83 -0.272485 -2.27575 0
M  V30 1513 C 143.843 0.56104 -1.52827 0
M  V30 1514 O 145.032 0.384021 -1.7432 0
M  V30 1515 C 142.132 0.63283 -3.32939 0
M  V30 1516 C 141.305 -0.166902 -4.37081 0
M  V30 1517 C 140.364 0.665608 -5.21973 0
M  V30 1518 O 139.39 0.0958091 -5.69119 0
M  V30 1519 N 140.592 1.9787 -5.45736 0
M  V30 1520 H 143.357 -1.0954 -2.78964 0
M  V30 1521 H 140.918 -0.724791 -1.4477 0
M  V30 1522 H 142.91 1.19532 -3.86645 0
M  V30 1523 H 141.48 1.35642 -2.81638 0
M  V30 1524 H 140.7 -0.910838 -3.83533 0
M  V30 1525 H 141.988 -0.715874 -5.03739 0
M  V30 1526 H 141.386 2.46484 -5.09178 0
M  V30 1527 H 139.943 2.48911 -6.024 0
M  V30 1528 N 143.376 1.44774 -0.622745 0
M  V30 1529 C 144.653 1.95522 -0.0551974 0
M  V30 1530 C 145.033 1.5649 1.41683 0
M  V30 1531 O 144.381 0.834848 2.12703 0
M  V30 1532 C 144.591 3.4796 -0.269242 0
M  V30 1533 C 145.939 4.24306 -0.158014 0
M  V30 1534 O 146.963 3.55637 -0.200162 0
M  V30 1535 O 145.822 5.46471 -0.0558693 0
M  V30 1536 H 142.916 0.826556 0.0271015 0
M  V30 1537 H 145.462 1.54866 -0.693864 0
M  V30 1538 H 144.234 3.6939 -1.29099 0
M  V30 1539 H 143.857 3.95543 0.403966 0
M  V30 1540 N 144.854 0.36279 1.53368 0
M  V30 1541 C 146.082 -0.228613 2.05633 0
M  V30 1542 C 146.497 -1.42676 1.23649 0
M  V30 1543 O 145.854 -1.80394 0.27647 0
M  V30 1544 C 145.905 -0.624845 3.56059 0
M  V30 1545 O 145.626 0.525675 4.34935 0
M  V30 1546 C 147.127 -1.27493 4.24571 0
M  V30 1547 H 144.347 -0.0407183 0.669763 0
M  V30 1548 H 146.891 0.520352 1.97769 0
M  V30 1549 H 145.046 -1.32373 3.64083 0
M  V30 1550 H 145.46 0.205969 5.24095 0
M  V30 1551 H 146.934 -1.50277 5.31151 0
M  V30 1552 H 147.411 -2.23439 3.78116 0
M  V30 1553 H 148.017 -0.617558 4.20792 0
M  V30 1554 N 146.332 -1.57332 0.0918853 0
M  V30 1555 C 147.262 -2.16872 -0.865371 0
M  V30 1556 C 148.243 -1.10118 -1.29646 0
M  V30 1557 O 149.428 -1.38242 -1.36392 0
M  V30 1558 C 146.558 -2.74649 -2.12569 0
M  V30 1559 C 145.512 -3.86747 -1.83333 0
M  V30 1560 C 144.838 -4.31212 -3.16166 0
M  V30 1561 C 146.138 -5.10089 -1.1228 0
M  V30 1562 H 147.832 -2.97114 -0.369307 0
M  V30 1563 H 145.378 -1.42918 -0.176194 0
M  V30 1564 H 147.331 -3.14952 -2.7997 0
M  V30 1565 H 146.055 -1.91657 -2.64452 0
M  V30 1566 H 144.714 -3.46978 -1.18331 0
M  V30 1567 H 144.362 -3.45115 -3.6593 0
M  V30 1568 H 144.062 -5.06788 -2.97388 0
M  V30 1569 H 145.586 -4.74146 -3.84731 0
M  V30 1570 H 147 -5.47582 -1.69785 0
M  V30 1571 H 145.397 -5.91073 -1.03693 0
M  V30 1572 H 146.467 -4.84786 -0.105041 0
M  V30 1573 N 147.81 0.181792 -1.56548 0
M  V30 1574 C 148.76 1.22961 -1.92002 0
M  V30 1575 C 149.744 1.40331 -0.787146 0
M  V30 1576 O 150.936 1.42478 -1.05019 0
M  V30 1577 C 148.065 2.57144 -2.27446 0
M  V30 1578 C 147.151 2.43512 -3.47222 0
M  V30 1579 N 147.542 1.99577 -4.64761 0
M  V30 1580 C 145.84 2.74368 -3.51622 0
M  V30 1581 C 146.541 1.98156 -5.46909 0
M  V30 1582 N 145.517 2.40164 -4.8767 0
M  V30 1583 H 149.319 0.881462 -2.8037 0
M  V30 1584 H 146.833 0.390141 -1.57644 0
M  V30 1585 H 148.83 3.32847 -2.51035 0
M  V30 1586 H 147.49 2.92771 -1.40411 0
M  V30 1587 H 148.501 1.70078 -4.89177 0
M  V30 1588 H 145.178 3.14102 -2.75038 0
M  V30 1589 H 146.568 1.65975 -6.51077 0
M  V30 1590 N 149.288 1.51039 0.449983 0
M  V30 1591 C 150.238 1.67824 1.54335 0
M  V30 1592 C 151.222 0.5324 1.51836 0
M  V30 1593 O 152.414 0.787762 1.58503 0
M  V30 1594 C 149.543 1.7951 2.92628 0
M  V30 1595 C 148.629 2.99838 2.9993 0
M  V30 1596 N 149.02 4.23207 2.77001 0
M  V30 1597 C 147.318 2.98832 3.31082 0
M  V30 1598 C 148.019 5.04361 2.89818 0
M  V30 1599 N 146.995 4.38746 3.2094 0
M  V30 1600 H 150.797 2.60884 1.35339 0
M  V30 1601 H 148.311 1.48513 0.657085 0
M  V30 1602 H 150.308 1.89642 3.7127 0
M  V30 1603 H 148.968 0.876227 3.12654 0
M  V30 1604 H 149.979 4.5236 2.52172 0
M  V30 1605 H 146.656 2.16527 3.56963 0
M  V30 1606 H 148.046 6.12528 2.76151 0
M  V30 1607 N 150.766 -0.704594 1.40972 0
M  V30 1608 C 151.713 -1.81862 1.42109 0
M  V30 1609 C 152.683 -1.63781 0.276593 0
M  V30 1610 O 153.868 -1.84759 0.4763 0
M  V30 1611 C 151.008 -3.19669 1.30022 0
M  V30 1612 C 150.121 -3.49246 2.54267 0
M  V30 1613 C 149.256 -4.76618 2.3454 0
M  V30 1614 C 148.295 -4.99133 3.54306 0
M  V30 1615 N 147.432 -6.17726 3.33706 0
M  V30 1616 H 152.272 -1.80226 2.37324 0
M  V30 1617 H 149.809 -0.880238 1.17857 0
M  V30 1618 H 151.767 -3.99263 1.21018 0
M  V30 1619 H 150.397 -3.20506 0.384192 0
M  V30 1620 H 149.449 -2.64125 2.73756 0
M  V30 1621 H 150.761 -3.61788 3.43381 0
M  V30 1622 H 149.915 -5.64249 2.22952 0
M  V30 1623 H 148.654 -4.66305 1.42867 0
M  V30 1624 H 147.659 -4.09953 3.66359 0
M  V30 1625 H 148.884 -5.11311 4.4692 0
M  V30 1626 H 146.83 -6.08642 2.44725 0
M  V30 1627 H 146.747 -6.30995 4.16391 0
M  V30 1628 H 148.015 -7.08115 3.25873 0
M  V30 1629 N 152.244 -1.26651 -0.937939 0
M  V30 1630 C 153.207 -1.08546 -2.01867 0
M  V30 1631 C 154.207 -0.0327327 -1.60767 0
M  V30 1632 O 155.397 -0.276427 -1.71993 0
M  V30 1633 C 152.529 -0.651711 -3.34613 0
M  V30 1634 H 153.722 -2.04502 -2.1936 0
M  V30 1635 H 151.275 -1.09294 -1.11734 0
M  V30 1636 H 152.01 0.309696 -3.22818 0
M  V30 1637 H 151.795 -1.41189 -3.65798 0
M  V30 1638 H 153.285 -0.546973 -4.14002 0
M  V30 1639 N 153.722 1.14298 -1.08507 0
M  V30 1640 C 154.669 2.19414 -0.715965 0
M  V30 1641 C 155.639 1.63399 0.298326 0
M  V30 1642 O 156.824 1.89929 0.182101 0
M  V30 1643 C 153.964 3.44845 -0.132534 0
M  V30 1644 C 153.077 4.15007 -1.19973 0
M  V30 1645 C 152.212 5.28024 -0.580048 0
M  V30 1646 C 151.251 5.9002 -1.62921 0
M  V30 1647 N 150.388 6.94485 -1.03125 0
M  V30 1648 H 155.228 2.50336 -1.61666 0
M  V30 1649 H 152.765 1.2293 -0.807882 0
M  V30 1650 H 154.723 4.16601 0.223454 0
M  V30 1651 H 153.353 3.14403 0.731467 0
M  V30 1652 H 152.405 3.41629 -1.67313 0
M  V30 1653 H 153.717 4.57178 -1.99473 0
M  V30 1654 H 152.871 6.06455 -0.172364 0
M  V30 1655 H 151.61 4.87076 0.246603 0
M  V30 1656 H 150.615 5.10291 -2.04654 0
M  V30 1657 H 151.84 6.33042 -2.45835 0
M  V30 1658 H 149.786 6.55612 -0.225711 0
M  V30 1659 H 149.703 7.35148 -1.76334 0
M  V30 1660 H 150.971 7.7679 -0.649458 0
M  V30 1661 N 155.201 0.870884 1.31352 0
M  V30 1662 C 156.449 0.48132 1.96285 0
M  V30 1663 C 156.77 -0.969813 1.69173 0
M  V30 1664 O 156.04 -1.67998 1.00764 0
M  V30 1665 H 154.62 0.175002 0.726212 0
M  V30 1666 H 157.282 1.11087 1.60143 0
M  V30 1667 H 156.378 0.639825 3.05471 0
M  V30 1668 N 156.679 -1.44442 0.630414 0
M  V30 1669 C 157.928 -2.01267 0.132073 0
M  V30 1670 C 158.241 -1.50172 -1.25331 0
M  V30 1671 O 159.447 -1.9912 -1.84562 0
M  V30 1672 C 157.903 -3.59422 0.185362 0
M  V30 1673 C 157.511 -4.19514 1.57201 0
M  V30 1674 C 159.255 -4.23724 -0.256553 0
M  V30 1675 C 157.162 -5.69891 1.58045 0
M  V30 1676 H 156.092 -0.752619 0.0456092 0
M  V30 1677 H 158.743 -1.65666 0.789106 0
M  V30 1678 H 157.125 -3.92318 -0.538759 0
M  V30 1679 H 158.299 -3.98156 2.31966 0
M  V30 1680 H 156.614 -3.67496 1.95795 0
M  V30 1681 H 159.211 -5.34019 -0.269767 0
M  V30 1682 H 159.554 -3.96013 -1.28372 0
M  V30 1683 H 160.087 -3.95629 0.41505 0
M  V30 1684 H 156.826 -6.02336 2.58597 0
M  V30 1685 H 156.346 -5.93373 0.875725 0
M  V30 1686 H 158.025 -6.33515 1.31408 0
M  V30 1687 N 158.157 -0.370918 -1.53173 0
M  V30 1688 C 159.087 0.464847 -2.28826 0
M  V30 1689 C 160.068 1.07936 -1.31468 0
M  V30 1690 O 161.253 1.0956 -1.60344 0
M  V30 1691 C 158.383 1.60196 -3.08147 0
M  V30 1692 C 157.337 1.11443 -4.13237 0
M  V30 1693 C 156.663 2.3422 -4.80672 0
M  V30 1694 C 157.963 0.195384 -5.21934 0
M  V30 1695 H 159.657 -0.166329 -2.98938 0
M  V30 1696 H 157.203 -0.0814359 -1.4377 0
M  V30 1697 H 159.156 2.19332 -3.59822 0
M  V30 1698 H 157.88 2.26045 -2.35735 0
M  V30 1699 H 156.539 0.545727 -3.62515 0
M  V30 1700 H 156.187 2.98537 -4.04827 0
M  V30 1701 H 155.887 2.02269 -5.51689 0
M  V30 1702 H 157.411 2.94032 -5.35143 0
M  V30 1703 H 158.825 0.694375 -5.69079 0
M  V30 1704 H 157.222 -0.0335027 -6.00091 0
M  V30 1705 H 158.292 -0.760961 -4.78892 0
M  V30 1706 N 159.635 1.57281 -0.100228 0
M  V30 1707 C 160.863 1.98879 0.570509 0
M  V30 1708 C 161.278 0.979476 1.61405 0
M  V30 1709 O 160.635 -0.0302288 1.82475 0
M  V30 1710 C 160.686 3.4052 1.2136 0
M  V30 1711 O 160.407 4.37588 0.211786 0
M  V30 1712 C 161.908 3.97149 1.96945 0
M  V30 1713 H 159.128 0.653428 0.152555 0
M  V30 1714 H 161.672 2.03697 -0.18103 0
M  V30 1715 H 159.827 3.367 1.91603 0
M  V30 1716 H 160.241 5.20118 0.676607 0
M  V30 1717 H 161.715 4.98393 2.37294 0
M  V30 1718 H 162.192 3.3525 2.83733 0
M  V30 1719 H 162.798 4.04458 1.31506 0
M  V30 1720 N 161.113 -0.173488 1.56642 0
M  V30 1721 C 162.353 -0.896984 1.83667 0
M  V30 1722 C 162.717 -1.79523 0.680842 0
M  V30 1723 O 163.918 -2.55616 0.831488 0
M  V30 1724 C 162.189 -1.67351 3.15798 0
M  V30 1725 S 163.748 -2.44607 3.64298 0
M  V30 1726 H 160.566 -0.300464 0.644393 0
M  V30 1727 H 163.168 -0.158775 1.94854 0
M  V30 1728 H 161.872 -1.00462 3.97914 0
M  V30 1729 H 161.403 -2.45313 3.07546 0
M  V30 1730 H 163.418 -3.69261 3.31452 0
M  V30 1731 N 162.591 -1.51276 -0.441967 0
M  V30 1732 C 164.007 -1.39349 -0.778083 0
M  V30 1733 C 164.207 -0.472212 -1.95889 0
M  V30 1734 O 163.263 0.0743551 -2.5239 0
M  V30 1735 C 164.576 -2.81292 -1.0628 0
M  V30 1736 C 166.124 -2.9041 -1.16751 0
M  V30 1737 C 166.599 -4.33251 -1.48519 0
M  V30 1738 N 168.09 -4.36336 -1.55453 0
M  V30 1739 C 168.825 -5.43885 -1.81596 0
M  V30 1740 N 168.321 -6.61601 -2.05562 0
M  V30 1741 N 170.114 -5.3136 -1.8334 0
M  V30 1742 H 162.265 -2.09729 0.335774 0
M  V30 1743 H 164.528 -0.943925 0.0878028 0
M  V30 1744 H 164.234 -3.50678 -0.267905 0
M  V30 1745 H 164.108 -3.20334 -1.99163 0
M  V30 1746 H 166.495 -2.21225 -1.95304 0
M  V30 1747 H 166.576 -2.54871 -0.217801 0
M  V30 1748 H 166.22 -5.02984 -0.704958 0
M  V30 1749 H 166.15 -4.66299 -2.44689 0
M  V30 1750 H 168.641 -3.51466 -1.38853 0
M  V30 1751 H 168.954 -7.39361 -2.24867 0
M  V30 1752 H 167.299 -6.64725 -2.02894 0
M  V30 1753 H 170.49 -4.38382 -1.64132 0
M  V30 1754 H 170.663 -6.15258 -2.03377 0
M  V30 1755 N 164.069 0.697108 -1.41344 0
M  V30 1756 C 165.294 1.49096 -1.44171 0
M  V30 1757 C 165.719 1.88038 -0.0481568 0
M  V30 1758 O 165.077 1.54525 0.948243 0
M  V30 1759 C 165.125 2.73088 -2.3549 0
M  V30 1760 O 164.229 3.70514 -1.81088 0
M  V30 1761 H 163.57 0.448801 -0.489361 0
M  V30 1762 H 166.1 0.856992 -1.85787 0
M  V30 1763 H 166.11 3.21413 -2.51312 0
M  V30 1764 H 164.785 2.44081 -3.36745 0
M  V30 1765 H 163.362 3.29441 -1.74708 0
M  V30 1766 N 165.547 1.27147 0.931209 0
M  V30 1767 C 166.494 1.09568 2.03134 0
M  V30 1768 C 167.464 -0.00222433 1.661 0
M  V30 1769 O 168.649 0.159439 1.90133 0
M  V30 1770 C 165.789 0.745231 3.36957 0
M  V30 1771 C 164.902 1.92041 3.86968 0
M  V30 1772 C 164.037 1.51216 5.09222 0
M  V30 1773 C 163.076 2.65504 5.5152 0
M  V30 1774 N 162.213 2.25291 6.64972 0
M  V30 1775 H 167.053 2.03708 2.17502 0
M  V30 1776 H 164.59 1.01411 1.06556 0
M  V30 1777 H 166.548 0.522878 4.1391 0
M  V30 1778 H 165.178 -0.159202 3.22407 0
M  V30 1779 H 164.23 2.25541 3.06326 0
M  V30 1780 H 165.542 2.77787 4.1429 0
M  V30 1781 H 164.696 1.25084 5.93666 0
M  V30 1782 H 163.435 0.625749 4.83669 0
M  V30 1783 H 162.44 2.92354 4.65628 0
M  V30 1784 H 163.665 3.54761 5.7907 0
M  V30 1785 H 161.611 1.39098 6.41083 0
M  V30 1786 H 161.528 3.04577 6.91931 0
M  V30 1787 H 162.796 2.02398 7.52765 0
M  V30 1788 N 167.025 -1.13721 1.09112 0
M  V30 1789 C 168.25 -1.89314 0.847053 0
M  V30 1790 C 168.675 -1.78416 -0.595774 0
M  V30 1791 O 168.033 -1.12942 -1.41823 0
M  V30 1792 C 168.081 -3.3701 1.28284 0
M  V30 1793 O 167.185 -4.10054 0.439267 0
M  V30 1794 H 166.526 -0.588745 0.307044 0
M  V30 1795 H 169.056 -1.43902 1.45442 0
M  V30 1796 H 169.066 -3.87834 1.26683 0
M  V30 1797 H 167.741 -3.4426 2.33363 0
M  V30 1798 H 166.318 -3.69266 0.519312 0
M  V30 1799 N 168.503 -0.877838 -1.30888 0
M  V30 1800 C 169.743 -0.499301 -1.98208 0
M  V30 1801 C 170.107 0.932649 -1.67826 0
M  V30 1802 O 171.308 1.41694 -2.28421 0
M  V30 1803 C 169.579 -0.758221 -3.49265 0
M  V30 1804 S 171.138 -0.480719 -4.36159 0
M  V30 1805 H 167.956 -0.186062 -0.686223 0
M  V30 1806 H 170.558 -1.13556 -1.59139 0
M  V30 1807 H 169.262 -1.79903 -3.68867 0
M  V30 1808 H 168.793 -0.109247 -3.93248 0
M  V30 1809 H 170.808 0.683698 -4.91467 0
M  V30 1810 N 169.982 1.44106 -0.638065 0
M  V30 1811 C 170.912 2.33448 0.0494287 0
M  V30 1812 C 171.893 1.48606 0.827672 0
M  V30 1813 O 173.078 1.77308 0.792173 0
M  V30 1814 C 170.208 3.31771 1.02691 0
M  V30 1815 C 169.162 4.26485 0.359823 0
M  V30 1816 C 168.488 5.14729 1.44769 0
M  V30 1817 C 169.788 5.17056 -0.738296 0
M  V30 1818 H 171.482 2.91183 -0.696636 0
M  V30 1819 H 169.028 1.40014 -0.336456 0
M  V30 1820 H 170.981 3.93161 1.51666 0
M  V30 1821 H 169.705 2.7226 1.80395 0
M  V30 1822 H 168.364 3.66437 -0.10934 0
M  V30 1823 H 168.012 4.51566 2.21578 0
M  V30 1824 H 167.712 5.78913 1.00668 0
M  V30 1825 H 169.236 5.78991 1.93911 0
M  V30 1826 H 170.65 5.72342 -0.331354 0
M  V30 1827 H 169.047 5.89879 -1.10286 0
M  V30 1828 H 170.117 4.57652 -1.60258 0
M  V30 1829 N 171.46 0.379036 1.52974 0
M  V30 1830 C 172.708 -0.206014 2.01047 0
M  V30 1831 C 173.029 -1.48175 1.26765 0
M  V30 1832 O 172.299 -1.92085 0.384743 0
M  V30 1833 H 170.879 -0.0791184 0.742798 0
M  V30 1834 H 173.541 0.508366 1.88153 0
M  V30 1835 H 172.637 -0.423501 3.09213 0
M  V30 1836 N 172.938 -1.57226 0.108567 0
M  V30 1837 C 174.163 -1.99604 -0.563303 0
M  V30 1838 C 174.588 -0.987563 -1.6009 0
M  V30 1839 O 173.946 0.0421687 -1.81251 0
M  V30 1840 C 173.994 -3.40902 -1.17552 0
M  V30 1841 O 173.098 -3.42896 -2.2912 0
M  V30 1842 H 172.439 -0.648704 -0.1417 0
M  V30 1843 H 174.969 -2.03679 0.193961 0
M  V30 1844 H 174.979 -3.78886 -1.51357 0
M  V30 1845 H 173.654 -4.1382 -0.415445 0
M  V30 1846 H 172.231 -3.1672 -1.96832 0
M  V30 1847 N 174.416 0.165178 -1.56732 0
M  V30 1848 C 175.665 0.879143 -1.81532 0
M  V30 1849 C 175.978 1.83144 -0.686842 0
M  V30 1850 O 177.184 2.58823 -0.819944 0
M  V30 1851 C 175.64 1.61388 -3.21686 0
M  V30 1852 C 175.248 0.704904 -4.4242 0
M  V30 1853 C 176.992 2.3157 -3.55774 0
M  V30 1854 C 174.899 1.44022 -5.73595 0
M  V30 1855 H 173.829 0.332033 -0.676957 0
M  V30 1856 H 176.48 0.132008 -1.83025 0
M  V30 1857 H 174.862 2.40599 -3.14529 0
M  V30 1858 H 176.036 -0.0506815 -4.60772 0
M  V30 1859 H 174.351 0.112419 -4.16248 0
M  V30 1860 H 176.948 2.8719 -4.51028 0
M  V30 1861 H 177.291 3.07201 -2.8095 0
M  V30 1862 H 177.824 1.59297 -3.64513 0
M  V30 1863 H 174.563 0.72612 -6.51466 0
M  V30 1864 H 174.083 2.16898 -5.5921 0
M  V30 1865 H 175.762 1.98606 -6.15764 0
M  V30 1866 N 175.894 1.51508 0.433938 0
M  V30 1867 C 176.827 1.67756 1.54704 0
M  V30 1868 C 177.805 0.525127 1.53887 0
M  V30 1869 O 178.989 0.749393 1.72963 0
M  V30 1870 C 176.116 1.69424 2.9328 0
M  V30 1871 C 175.162 2.90673 3.12108 0
M  V30 1872 S 175.995 4.51431 2.88046 0
M  V30 1873 C 177.151 4.55849 4.28897 0
M  V30 1874 H 177.384 2.61904 1.40689 0
M  V30 1875 H 174.917 1.41235 0.62386 0
M  V30 1876 H 176.875 1.7107 3.73156 0
M  V30 1877 H 175.536 0.764464 3.04655 0
M  V30 1878 H 174.729 2.88251 4.13434 0
M  V30 1879 H 174.331 2.86786 2.40062 0
M  V30 1880 H 176.623 4.31699 5.22152 0
M  V30 1881 H 177.566 5.57676 4.36351 0
M  V30 1882 H 177.974 3.85137 4.12711 0
M  V30 1883 N 177.372 -0.689602 1.41712 0
M  V30 1884 C 178.6 -1.47827 1.44758 0
M  V30 1885 C 179.015 -1.88721 0.0545703 0
M  V30 1886 O 178.372 -1.57176 -0.927463 0
M  V30 1887 C 178.423 -2.73698 2.3616 0
M  V30 1888 O 178.144 -2.34524 3.7004 0
M  V30 1889 C 179.645 -3.67389 2.48072 0
M  V30 1890 H 176.865 -0.455357 0.49284 0
M  V30 1891 H 179.409 -0.848574 1.86063 0
M  V30 1892 H 177.564 -3.32891 1.98148 0
M  V30 1893 H 177.978 -3.15701 4.18847 0
M  V30 1894 H 179.452 -4.52475 3.16181 0
M  V30 1895 H 179.929 -4.12284 1.51388 0
M  V30 1896 H 180.535 -3.14097 2.86746 0
M  V30 1897 N 178.85 -1.27639 -0.924453 0
M  V30 1898 C 180.261 -1.12834 -1.48746 0
M  V30 1899 C 180.612 0.285505 -1.94112 0
M  V30 1900 O 179.737 1.17874 -1.81479 0
M  V30 1901 C 180.332 -2.04217 -2.70334 0
M  V30 1902 C 178.891 -1.93509 -3.22848 0
M  V30 1903 C 178.038 -1.96583 -1.95577 0
M  V30 1904 H 180.989 -1.40484 -0.738233 0
M  V30 1905 H 181.01 -1.59989 -3.4523 0
M  V30 1906 H 180.522 -3.07111 -2.37285 0
M  V30 1907 H 178.623 -0.936131 -3.60649 0
M  V30 1908 H 178.736 -2.79917 -3.88823 0
M  V30 1909 H 177.1 -1.4085 -2.12211 0
M  V30 1910 H 177.883 -3.01137 -1.64837 0
M  V30 1911 N 180.328 1.1314 -1.09713 0
M  V30 1912 C 181.275 2.18642 -0.739196 0
M  V30 1913 C 182.245 1.63706 0.280978 0
M  V30 1914 O 183.43 1.90111 0.161946 0
M  V30 1915 C 180.57 3.44685 -0.169102 0
M  V30 1916 C 179.683 4.13711 -1.24367 0
M  V30 1917 C 178.818 5.27379 -0.636019 0
M  V30 1918 C 177.857 5.88259 -1.69169 0
M  V30 1919 N 176.994 6.93352 -1.10485 0
M  V30 1920 H 181.834 2.48607 -1.64312 0
M  V30 1921 H 179.371 1.22066 -0.820875 0
M  V30 1922 H 181.329 4.16815 0.179256 0
M  V30 1923 H 179.959 3.15161 0.698079 0
M  V30 1924 H 179.011 3.39835 -1.70927 0
M  V30 1925 H 180.323 4.55037 -2.04311 0
M  V30 1926 H 179.477 6.06238 -0.236677 0
M  V30 1927 H 178.216 4.8731 0.194928 0
M  V30 1928 H 177.221 5.08092 -2.10055 0
M  V30 1929 H 178.446 6.30399 -2.52536 0
M  V30 1930 H 176.392 6.55335 -0.295234 0
M  V30 1931 H 176.309 7.33236 -1.84121 0
M  V30 1932 H 177.577 7.76057 -0.73181 0
M  V30 1933 N 181.806 0.884767 1.30421 0
M  V30 1934 C 183.031 0.517288 2.00845 0
M  V30 1935 C 183.456 -0.886779 1.65885 0
M  V30 1936 O 182.814 -1.58768 0.875354 0
M  V30 1937 C 182.862 0.698994 3.5376 0
M  V30 1938 O 181.966 -0.255208 4.1161 0
M  V30 1939 H 181.307 0.203872 0.631927 0
M  V30 1940 H 183.837 1.19225 1.66272 0
M  V30 1941 H 183.847 0.597912 4.03595 0
M  V30 1942 H 182.522 1.72271 3.78544 0
M  V30 1943 H 181.099 -0.10784 3.72744 0
M  V30 1944 N 183.284 -1.43765 0.645699 0
M  V30 1945 C 184.214 -2.33471 -0.0370477 0
M  V30 1946 C 185.195 -1.49042 -0.819779 0
M  V30 1947 O 186.38 -1.77726 -0.782758 0
M  V30 1948 C 183.51 -3.32311 -1.0093 0
M  V30 1949 C 182.464 -4.2667 -0.337201 0
M  V30 1950 C 181.79 -5.1549 -1.42037 0
M  V30 1951 C 183.09 -5.16657 0.765706 0
M  V30 1952 H 184.784 -2.90809 0.712069 0
M  V30 1953 H 182.33 -1.39834 0.343876 0
M  V30 1954 H 184.283 -3.9396 -1.49578 0
M  V30 1955 H 183.007 -2.73213 -1.78948 0
M  V30 1956 H 181.666 -3.66374 0.128771 0
M  V30 1957 H 181.314 -4.52735 -2.1918 0
M  V30 1958 H 181.014 -5.79438 -0.975966 0
M  V30 1959 H 182.538 -5.80012 -1.90838 0
M  V30 1960 H 183.952 -5.72158 0.361702 0
M  V30 1961 H 182.349 -5.89286 1.13413 0
M  V30 1962 H 183.419 -4.56796 1.62683 0
M  V30 1963 N 184.763 -0.387143 -1.52771 0
M  V30 1964 C 185.991 0.195869 -2.05971 0
M  V30 1965 C 186.406 1.40691 -1.25903 0
M  V30 1966 O 185.763 1.79931 -0.305134 0
M  V30 1967 C 185.814 0.56812 -3.57008 0
M  V30 1968 O 185.535 -0.594803 -4.34043 0
M  V30 1969 C 187.036 1.20723 -4.26545 0
M  V30 1970 H 184.256 0.0300578 -0.670326 0
M  V30 1971 H 186.8 -0.551749 -1.96916 0
M  V30 1972 H 184.955 1.26564 -3.66143 0
M  V30 1973 H 185.369 -0.289322 -5.23701 0
M  V30 1974 H 186.843 1.41807 -5.33474 0
M  V30 1975 H 187.32 2.17395 -3.81623 0
M  V30 1976 H 187.926 0.550535 -4.21722 0
M  V30 1977 N 186.241 1.57166 -0.116904 0
M  V30 1978 C 187.657 1.5779 0.239693 0
M  V30 1979 C 187.857 1.1295 1.66867 0
M  V30 1980 O 186.913 0.81592 2.38954 0
M  V30 1981 C 188.226 3.00699 0.00828202 0
M  V30 1982 C 189.774 3.12912 0.0743438 0
M  V30 1983 C 190.249 4.57817 -0.129348 0
M  V30 1984 N 191.74 4.63139 -0.075247 0
M  V30 1985 C 192.475 5.73023 -0.207788 0
M  V30 1986 N 191.971 6.91665 -0.396382 0
M  V30 1987 N 193.764 5.61906 -0.14751 0
M  V30 1988 H 185.915 1.84615 -1.05029 0
M  V30 1989 H 188.178 0.85311 -0.41341 0
M  V30 1990 H 187.884 3.37784 -0.979531 0
M  V30 1991 H 187.758 3.69848 0.741077 0
M  V30 1992 H 190.145 2.75686 1.05268 0
M  V30 1993 H 190.226 2.4631 -0.690297 0
M  V30 1994 H 189.87 4.95742 -1.10465 0
M  V30 1995 H 189.8 5.22507 0.655253 0
M  V30 1996 H 192.291 3.7784 0.0670898 0
M  V30 1997 H 192.604 7.71255 -0.488437 0
M  V30 1998 H 190.949 6.93654 -0.432329 0
M  V30 1999 H 194.14 4.681 -0.00115036 0
M  V30 2000 H 194.313 6.47501 -0.254247 0
M  V30 2001 N 187.719 -0.156864 1.56817 0
M  V30 2002 C 188.967 -0.869404 1.82444 0
M  V30 2003 C 189.288 -1.82147 0.69623 0
M  V30 2004 O 188.558 -1.93847 -0.28287 0
M  V30 2005 H 187.138 -0.324043 0.673056 0
M  V30 2006 H 189.8 -0.153224 1.94297 0
M  V30 2007 H 188.896 -1.43761 2.77019 0
M  V30 2008 N 189.197 -1.51736 -0.425897 0
M  V30 2009 C 190.608 -1.5732 -1.00536 0
M  V30 2010 C 190.959 -0.403537 -1.92005 0
M  V30 2011 O 190.084 0.478256 -2.11049 0
M  V30 2012 C 190.679 -2.85119 -1.8301 0
M  V30 2013 C 189.238 -2.93236 -2.35987 0
M  V30 2014 C 188.385 -2.52098 -1.15508 0
M  V30 2015 H 191.336 -1.57348 -0.206739 0
M  V30 2016 H 191.357 -2.69526 -2.68581 0
M  V30 2017 H 190.869 -3.7023 -1.16411 0
M  V30 2018 H 188.97 -2.12581 -3.06007 0
M  V30 2019 H 189.083 -3.9713 -2.68001 0
M  V30 2020 H 187.447 -2.05558 -1.50393 0
M  V30 2021 H 188.23 -3.39565 -0.505014 0
M  V30 2022 N 190.675 0.682077 -1.42076 0
M  V30 2023 C 192.091 0.994324 -1.24841 0
M  V30 2024 C 192.291 2.0096 -0.147389 0
M  V30 2025 O 191.347 2.47822 0.483782 0
M  V30 2026 C 192.66 1.50607 -2.60265 0
M  V30 2027 C 194.208 1.62421 -2.6756 0
M  V30 2028 C 194.683 2.16994 -4.03333 0
M  V30 2029 N 196.174 2.24337 -4.0525 0
M  V30 2030 C 196.909 2.67621 -5.07116 0
M  V30 2031 N 196.405 3.1041 -6.19368 0
M  V30 2032 N 198.198 2.67305 -4.94474 0
M  V30 2033 H 190.349 0.00973908 -2.12398 0
M  V30 2034 H 192.612 0.0668593 -0.945639 0
M  V30 2035 H 192.318 0.834583 -3.41654 0
M  V30 2036 H 192.192 2.48602 -2.83684 0
M  V30 2037 H 194.579 2.28678 -1.86521 0
M  V30 2038 H 194.66 0.629352 -2.47937 0
M  V30 2039 H 194.304 1.51349 -4.84826 0
M  V30 2040 H 194.234 3.17258 -4.20304 0
M  V30 2041 H 196.725 1.94158 -3.24209 0
M  V30 2042 H 197.038 3.42103 -6.92954 0
M  V30 2043 H 195.383 3.08286 -6.22884 0
M  V30 2044 H 198.574 2.33233 -4.05857 0
M  V30 2045 H 198.747 3.00718 -5.73997 0
M  V30 2046 N 192.153 1.28127 0.917671 0
M  V30 2047 C 193.43 1.05761 1.64542 0
M  V30 2048 C 193.81 -0.404344 2.07191 0
M  V30 2049 O 193.158 -1.38963 1.81388 0
M  V30 2050 C 193.368 2.02857 2.83989 0
M  V30 2051 C 194.716 2.32786 3.551 0
M  V30 2052 O 195.74 2.0091 2.94132 0
M  V30 2053 O 194.599 2.87169 4.64969 0
M  V30 2054 H 191.693 0.403916 0.721652 0
M  V30 2055 H 194.239 1.39431 0.967322 0
M  V30 2056 H 193.011 3.01407 2.49538 0
M  V30 2057 H 192.634 1.69809 3.59514 0
M  V30 2058 N 193.631 -1.12557 1.10312 0
M  V30 2059 C 194.578 -2.18247 0.750781 0
M  V30 2060 C 195.548 -1.63853 -0.272293 0
M  V30 2061 O 196.733 -1.90195 -0.151862 0
M  V30 2062 C 193.873 -3.44591 0.187379 0
M  V30 2063 C 192.986 -4.13046 1.2656 0
M  V30 2064 C 192.121 -5.27034 0.663978 0
M  V30 2065 C 191.16 -5.87353 1.72287 0
M  V30 2066 N 190.297 -6.92757 1.1416 0
M  V30 2067 H 195.137 -2.47732 1.65628 0
M  V30 2068 H 192.674 -1.21629 0.827337 0
M  V30 2069 H 194.632 -4.16904 -0.157148 0
M  V30 2070 H 193.262 -3.15527 -0.681355 0
M  V30 2071 H 192.314 -3.38924 1.72727 0
M  V30 2072 H 193.626 -4.53947 2.06721 0
M  V30 2073 H 192.78 -6.06104 0.268824 0
M  V30 2074 H 191.519 -4.87407 -0.169082 0
M  V30 2075 H 190.524 -5.06971 2.12746 0
M  V30 2076 H 191.749 -6.29051 2.55875 0
M  V30 2077 H 189.695 -6.5517 0.329984 0
M  V30 2078 H 189.612 -7.3225 1.88007 0
M  V30 2079 H 190.88 -7.75658 0.772956 0
M  V30 2080 N 195.109 -0.891671 -1.2995 0
M  V30 2081 C 196.52 -0.563104 -1.78006 0
M  V30 2082 C 196.871 0.920978 -1.73241 0
M  V30 2083 O 195.996 1.71987 -1.31337 0
M  V30 2084 C 196.591 -1.01539 -3.23226 0
M  V30 2085 C 195.15 -0.738124 -3.69092 0
M  V30 2086 C 194.297 -1.19461 -2.50249 0
M  V30 2087 H 197.248 -1.07522 -1.16725 0
M  V30 2088 H 197.269 -0.347217 -3.78912 0
M  V30 2089 H 196.781 -2.09555 -3.26662 0
M  V30 2090 H 194.882 0.329766 -3.71138 0
M  V30 2091 H 194.995 -1.33037 -4.60259 0
M  V30 2092 H 193.359 -0.613787 -2.47194 0
M  V30 2093 H 194.142 -2.28265 -2.56417 0
M  V30 2094 N 196.587 1.43421 -0.653314 0
M  V30 2095 C 197.815 2.06163 -0.174491 0
M  V30 2096 C 198.23 1.48969 1.1599 0
M  V30 2097 O 197.587 0.621042 1.71608 0
M  V30 2098 C 197.638 3.61417 -0.0774865 0
M  V30 2099 O 197.359 4.16485 -1.35912 0
M  V30 2100 C 198.86 4.41235 0.427402 0
M  V30 2101 H 196.08 0.664946 -0.0899353 0
M  V30 2102 H 198.624 1.83924 -0.893988 0
M  V30 2103 H 196.779 3.82841 0.59257 0
M  V30 2104 H 197.193 5.10153 -1.21839 0
M  V30 2105 H 198.667 5.5021 0.44423 0
M  V30 2106 H 199.144 4.14268 1.45873 0
M  V30 2107 H 199.75 4.2478 -0.210167 0
M  V30 2108 N 198.065 0.39524 1.52563 0
M  V30 2109 C 199.476 -0.0774719 1.86539 0
M  V30 2110 C 199.827 -1.45641 1.31466 0
M  V30 2111 O 198.952 -2.06459 0.648367 0
M  V30 2112 C 199.547 -0.147356 3.38479 0
M  V30 2113 C 198.106 -0.564373 3.72145 0
M  V30 2114 C 197.253 0.269919 2.75983 0
M  V30 2115 H 200.204 0.612876 1.46388 0
M  V30 2116 H 200.225 -0.965343 3.68051 0
M  V30 2117 H 199.737 0.856387 3.78534 0
M  V30 2118 H 197.838 -1.57527 3.37663 0
M  V30 2119 H 197.951 -0.318402 4.78041 0
M  V30 2120 H 196.315 -0.265696 2.5331 0
M  V30 2121 H 197.098 1.27175 3.18875 0
M  V30 2122 N 199.544 -1.57102 0.125237 0
M  V30 2123 C 200.955 -1.82384 -0.399142 0
M  V30 2124 C 201.306 -1.04276 -1.66195 0
M  V30 2125 O 200.431 -0.281269 -2.14564 0
M  V30 2126 C 201.026 -3.30821 -0.730932 0
M  V30 2127 C 199.585 -3.56762 -1.19992 0
M  V30 2128 C 198.732 -2.7649 -0.211792 0
M  V30 2129 H 201.683 -1.54786 0.350277 0
M  V30 2130 H 201.704 -3.4579 -1.58775 0
M  V30 2131 H 201.216 -3.87643 0.188345 0
M  V30 2132 H 199.317 -3.05305 -2.13588 0
M  V30 2133 H 199.43 -4.65317 -1.14093 0
M  V30 2134 H 197.794 -2.4489 -0.700085 0
M  V30 2135 H 198.577 -3.36073 0.700691 0
M  V30 2136 N 201.022 0.148545 -1.56898 0
M  V30 2137 C 202.299 0.890019 -1.74178 0
M  V30 2138 C 202.679 1.99407 -0.692839 0
M  V30 2139 O 202.027 2.26671 0.288505 0
M  V30 2140 C 202.237 1.43389 -3.18183 0
M  V30 2141 C 203.585 1.89791 -3.79822 0
M  V30 2142 O 204.609 1.53134 -3.21603 0
M  V30 2143 O 203.468 2.57387 -4.82093 0
M  V30 2144 H 200.562 0.420496 -0.712118 0
M  V30 2145 H 203.108 0.134591 -1.69165 0
M  V30 2146 H 201.88 0.640383 -3.86024 0
M  V30 2147 H 201.503 2.25287 -3.27615 0
M  V30 2148 N 202.5 1.5196 0.417844 0
M  V30 2149 C 203.41 1.77554 1.53336 0
M  V30 2150 C 204.426 0.660655 1.6097 0
M  V30 2151 O 205.602 0.945099 1.77848 0
M  V30 2152 C 202.667 1.91291 2.89152 0
M  V30 2153 C 201.728 3.15183 2.91475 0
M  V30 2154 C 200.961 3.28256 4.20813 0
M  V30 2155 O 201.184 2.46798 5.14244 0
M  V30 2156 O 200.118 4.21356 4.29817 0
M  V30 2157 H 203.944 2.7222 1.34647 0
M  V30 2158 H 201.529 1.36698 0.602828 0
M  V30 2159 H 203.411 2.02199 3.69721 0
M  V30 2160 H 202.086 0.998129 3.07927 0
M  V30 2161 H 200.993 3.09739 2.09791 0
M  V30 2162 H 202.326 4.06414 2.77648 0
M  V30 2163 N 203.978 -0.674533 1.42435 0
M  V30 2164 C 204.908 -1.80009 1.48724 0
M  V30 2165 C 205.889 -1.6659 0.343793 0
M  V30 2166 O 207.074 -1.86007 0.558137 0
M  V30 2167 C 204.204 -3.18306 1.38919 0
M  V30 2168 C 203.158 -3.46461 2.51294 0
M  V30 2169 C 202.484 -4.84335 2.26547 0
M  V30 2170 C 203.784 -3.43328 3.93603 0
M  V30 2171 H 205.478 -1.75004 2.42928 0
M  V30 2172 H 203.024 -0.840533 1.16923 0
M  V30 2173 H 204.977 -3.9678 1.41927 0
M  V30 2174 H 203.701 -3.2399 0.412094 0
M  V30 2175 H 202.36 -2.70348 2.47604 0
M  V30 2176 H 202.008 -4.86669 1.2713 0
M  V30 2177 H 201.708 -5.04136 3.01861 0
M  V30 2178 H 203.232 -5.65094 2.31304 0
M  V30 2179 H 204.646 -4.11772 3.98894 0
M  V30 2180 H 203.043 -3.74664 4.68771 0
M  V30 2181 H 204.113 -2.41897 4.20255 0
M  V30 2182 N 205.456 -1.28612 -0.910864 0
M  V30 2183 C 206.386 -1.15326 -2.03032 0
M  V30 2184 C 207.367 -0.0502924 -1.70026 0
M  V30 2185 O 208.552 -0.227797 -1.92859 0
M  V30 2186 C 205.682 -0.817343 -3.37545 0
M  V30 2187 C 204.636 -1.8754 -3.84724 0
M  V30 2188 C 203.962 -1.39305 -5.16235 0
M  V30 2189 C 205.262 -3.28244 -4.06267 0
M  V30 2190 H 206.956 -2.08975 -2.14406 0
M  V30 2191 H 204.502 -1.00612 -1.03021 0
M  V30 2192 H 206.455 -0.711151 -4.15356 0
M  V30 2193 H 205.179 0.154846 -3.26233 0
M  V30 2194 H 203.838 -1.97079 -3.09121 0
M  V30 2195 H 203.486 -0.409846 -5.01328 0
M  V30 2196 H 203.186 -2.10057 -5.48771 0
M  V30 2197 H 204.71 -1.30014 -5.96598 0
M  V30 2198 H 206.124 -3.21611 -4.74594 0
M  V30 2199 H 204.521 -3.96855 -4.5014 0
M  V30 2200 H 205.591 -3.72048 -3.10979 0
M  V30 2201 N 206.934 1.1197 -1.10907 0
M  V30 2202 C 208.345 1.65114 -0.871446 0
M  V30 2203 C 208.696 1.86885 0.597353 0
M  V30 2204 O 207.821 1.59896 1.45816 0
M  V30 2205 C 208.416 2.99944 -1.5754 0
M  V30 2206 C 206.975 3.50018 -1.38435 0
M  V30 2207 C 206.122 2.24941 -1.62164 0
M  V30 2208 H 209.073 0.956851 -1.2661 0
M  V30 2209 H 209.094 3.66651 -1.01721 0
M  V30 2210 H 208.606 2.84067 -2.64438 0
M  V30 2211 H 206.707 3.71071 -0.337214 0
M  V30 2212 H 206.82 4.29165 -2.12965 0
M  V30 2213 H 205.184 2.3229 -1.04467 0
M  V30 2214 H 205.967 2.11612 -2.70324 0
M  V30 2215 N 208.412 0.89855 1.29475 0
M  V30 2216 C 209.344 0.332726 2.26772 0
M  V30 2217 C 210.357 -0.520323 1.54261 0
M  V30 2218 O 211.546 -0.337668 1.75277 0
M  V30 2219 C 208.646 -0.544334 3.345 0
M  V30 2220 C 207.819 0.282728 4.36485 0
M  V30 2221 C 206.878 -0.526982 5.23555 0
M  V30 2222 O 205.904 0.0551165 5.69173 0
M  V30 2223 N 207.106 -1.83331 5.5079 0
M  V30 2224 H 209.871 1.16897 2.75962 0
M  V30 2225 H 207.432 0.762919 1.42798 0
M  V30 2226 H 209.424 -1.09239 3.89678 0
M  V30 2227 H 207.994 -1.28127 2.85136 0
M  V30 2228 H 207.214 1.01221 3.80983 0
M  V30 2229 H 208.502 0.84918 5.01664 0
M  V30 2230 H 207.9 -2.32898 5.15534 0
M  V30 2231 H 206.457 -2.32852 6.08788 0
M  V30 2232 N 209.89 -1.43072 0.660911 0
M  V30 2233 C 210.853 -2.29194 -0.0166406 0
M  V30 2234 C 211.853 -1.42609 -0.742912 0
M  V30 2235 O 213.043 -1.64155 -0.583004 0
M  V30 2236 C 210.175 -3.24831 -1.0343 0
M  V30 2237 H 211.368 -2.90596 0.741208 0
M  V30 2238 H 208.921 -1.5048 0.422532 0
M  V30 2239 H 209.656 -2.68339 -1.82111 0
M  V30 2240 H 209.441 -3.88676 -0.517082 0
M  V30 2241 H 210.931 -3.89451 -1.50723 0
M  V30 2242 N 211.368 -0.403325 -1.52352 0
M  V30 2243 C 212.617 0.175668 -2.00934 0
M  V30 2244 C 212.93 1.46718 -1.29356 0
M  V30 2245 O 214.136 2.12708 -1.68724 0
M  V30 2246 C 212.592 0.363612 -3.58058 0
M  V30 2247 C 212.2 -0.915472 -4.38547 0
M  V30 2248 C 213.944 0.89821 -4.14888 0
M  V30 2249 C 211.851 -0.695035 -5.87302 0
M  V30 2250 H 210.781 0.0694234 -0.750797 0
M  V30 2251 H 213.432 -0.527879 -1.75743 0
M  V30 2252 H 211.814 1.12935 -3.79555 0
M  V30 2253 H 212.988 -1.68691 -4.28812 0
M  V30 2254 H 211.303 -1.37606 -3.93006 0
M  V30 2255 H 213.9 1.07907 -5.23699 0
M  V30 2256 H 214.243 1.87126 -3.71873 0
M  V30 2257 H 214.776 0.191681 -3.97338 0
M  V30 2258 H 211.515 -1.63948 -6.34666 0
M  V30 2259 H 211.035 0.0372116 -5.99788 0
M  V30 2260 H 212.714 -0.33497 -6.46132 0
M  V30 2261 N 212.846 1.57033 -0.133567 0
M  V30 2262 C 213.756 2.19632 0.824564 0
M  V30 2263 C 214.772 1.17666 1.28182 0
M  V30 2264 O 215.948 1.50193 1.3418 0
M  V30 2265 C 213.013 2.79499 2.05137 0
M  V30 2266 C 212.074 3.96548 1.64464 0
M  V30 2267 C 211.307 4.5355 2.81297 0
M  V30 2268 O 211.53 4.09438 3.97136 0
M  V30 2269 O 210.464 5.44018 2.57542 0
M  V30 2270 H 214.29 3.01991 0.321766 0
M  V30 2271 H 211.875 1.49112 0.0927889 0
M  V30 2272 H 213.757 3.17602 2.7696 0
M  V30 2273 H 212.432 2.00162 2.54395 0
M  V30 2274 H 211.339 3.63186 0.897048 0
M  V30 2275 H 212.672 4.77364 1.19934 0
M  V30 2276 N 214.325 -0.140222 1.56975 0
M  V30 2277 C 215.572 -0.851687 1.83719 0
M  V30 2278 C 215.9 -1.80862 0.715485 0
M  V30 2279 O 215.155 -1.93464 -0.294956 0
M  V30 2280 C 215.454 -1.65386 3.16832 0
M  V30 2281 C 215.12 -0.843112 4.42947 0
M  V30 2282 C 213.782 -0.619464 4.77196 0
M  V30 2283 C 216.134 -0.276582 5.20466 0
M  V30 2284 C 213.462 0.181312 5.8642 0
M  V30 2285 C 215.814 0.51127 6.30531 0
M  V30 2286 C 214.478 0.745432 6.63325 0
M  V30 2287 H 213.748 -0.311654 0.672274 0
M  V30 2288 H 216.395 -0.115006 1.91154 0
M  V30 2289 H 214.7 -2.46084 3.04877 0
M  V30 2290 H 216.397 -2.20793 3.34741 0
M  V30 2291 H 212.987 -1.0275 4.16101 0
M  V30 2292 H 217.171 -0.436632 4.94376 0
M  V30 2293 H 212.427 0.372165 6.10266 0
M  V30 2294 H 216.601 0.957354 6.89788 0
M  V30 2295 H 214.228 1.36778 7.47794 0
M  V30 2296 N 215.803 -1.52179 -0.40978 0
M  V30 2297 C 217.049 -1.66453 -1.15851 0
M  V30 2298 C 217.382 -0.392972 -1.90182 0
M  V30 2299 O 216.657 0.608579 -1.84734 0
M  V30 2300 C 216.94 -2.88612 -2.15349 0
M  V30 2301 C 216.793 -4.25815 -1.44918 0
M  V30 2302 C 218.112 -3.06294 -3.16026 0
M  V30 2303 H 215.231 -0.60575 -0.419805 0
M  V30 2304 H 217.873 -1.84732 -0.444314 0
M  V30 2305 H 216.023 -2.73158 -2.76255 0
M  V30 2306 H 217.695 -4.52995 -0.871365 0
M  V30 2307 H 215.938 -4.27247 -0.751159 0
M  V30 2308 H 216.609 -5.07337 -2.17516 0
M  V30 2309 H 219.085 -3.20641 -2.65195 0
M  V30 2310 H 217.961 -3.93283 -3.8291 0
M  V30 2311 H 218.222 -2.19579 -3.83715 0
M  V30 2312 N 217.281 0.66697 -1.42791 0
M  V30 2313 C 218.229 1.80157 -1.47127 0
M  V30 2314 C 219.223 1.65825 -0.346199 0
M  V30 2315 O 220.429 1.72338 -0.519572 0
M  V30 2316 H 216.804 0.594158 -0.460956 0
M  V30 2317 H 218.775 1.73619 -2.42692 0
M  V30 2318 C 217.524 3.18351 -1.39813 0
M  V30 2319 H 216.847 3.3001 -2.25684 0
M  V30 2320 H 218.287 3.97736 -1.46908 0
M  V30 2321 C 216.746 3.36707 -0.11391 0
M  V30 2322 O 217.276 3.93027 0.830241 0
M  V30 2323 N 215.482 2.90586 -0.0285295 0
M  V30 2324 H 215.029 2.4494 -0.79764 0
M  V30 2325 H 214.987 3.03245 0.830063 0
M  V30 2326 N 218.759 1.29093 0.90403 0
M  V30 2327 C 219.691 1.09658 2.01266 0
M  V30 2328 C 220.704 0.0453729 1.62737 0
M  V30 2329 O 221.893 0.289446 1.76138 0
M  V30 2330 C 218.993 0.646278 3.32681 0
M  V30 2331 C 218.166 1.77505 3.99763 0
M  V30 2332 C 217.225 1.31649 5.09465 0
M  V30 2333 O 216.251 2.02045 5.32134 0
M  V30 2334 N 217.453 0.184997 5.80205 0
M  V30 2335 H 220.218 2.05135 2.18494 0
M  V30 2336 H 217.779 1.20975 1.07594 0
M  V30 2337 H 219.771 0.322906 4.0341 0
M  V30 2338 H 218.341 -0.215916 3.11853 0
M  V30 2339 H 217.561 2.26752 3.22455 0
M  V30 2340 H 218.849 2.53198 4.41325 0
M  V30 2341 H 218.247 -0.402021 5.6427 0
M  V30 2342 H 216.804 -0.0790358 6.51752 0
M  V30 2343 N 220.237 -1.11381 1.11499 0
M  V30 2344 C 221.467 -1.86663 0.885464 0
M  V30 2345 C 221.875 -1.80464 -0.568281 0
M  V30 2346 O 221.218 -1.18445 -1.40415 0
M  V30 2347 C 221.28 -3.36337 1.26956 0
M  V30 2348 C 220.944 -3.66304 2.73259 0
M  V30 2349 C 221.941 -3.63733 3.71476 0
M  V30 2350 C 219.626 -3.9529 3.09921 0
M  V30 2351 C 221.62 -3.89725 5.04374 0
M  V30 2352 C 219.307 -4.20941 4.43004 0
M  V30 2353 C 220.305 -4.18147 5.40039 0
M  V30 2354 O 219.993 -4.43153 6.70724 0
M  V30 2355 H 219.725 -0.597114 0.316908 0
M  V30 2356 H 222.279 -1.41782 1.48617 0
M  V30 2357 H 220.509 -3.81826 0.611999 0
M  V30 2358 H 222.198 -3.92986 1.01573 0
M  V30 2359 H 222.964 -3.41389 3.44498 0
M  V30 2360 H 218.843 -3.966 2.35009 0
M  V30 2361 H 222.387 -3.8746 5.80104 0
M  V30 2362 H 218.284 -4.42761 4.69716 0
M  V30 2363 H 219.052 -4.60717 6.76522 0
M  V30 2364 N 221.715 -0.905404 -1.28997 0
M  V30 2365 C 222.945 -0.549049 -1.99171 0
M  V30 2366 C 223.353 0.87203 -1.67906 0
M  V30 2367 O 222.696 1.58796 -0.923561 0
M  V30 2368 C 222.758 -0.668306 -3.53234 0
M  V30 2369 C 222.422 -2.0574 -4.08069 0
M  V30 2370 C 223.419 -3.0292 -4.22534 0
M  V30 2371 C 221.104 -2.36833 -4.42962 0
M  V30 2372 C 223.098 -4.29314 -4.71135 0
M  V30 2373 C 220.785 -3.63467 -4.91258 0
M  V30 2374 C 221.783 -4.59522 -5.053 0
M  V30 2375 O 221.471 -5.83907 -5.52546 0
M  V30 2376 H 221.203 -0.208784 -0.64295 0
M  V30 2377 H 223.757 -1.21836 -1.65363 0
M  V30 2378 H 221.987 0.0580547 -3.86656 0
M  V30 2379 H 223.676 -0.320273 -4.04634 0
M  V30 2380 H 224.442 -2.80216 -3.95859 0
M  V30 2381 H 220.321 -1.62824 -4.31288 0
M  V30 2382 H 223.865 -5.04293 -4.8201 0
M  V30 2383 H 219.762 -3.86 -5.17372 0
M  V30 2384 H 220.53 -5.86578 -5.70849 0
M  V30 2385 N 223.193 1.4272 -0.668489 0
M  V30 2386 C 224.441 2.01226 -0.187769 0
M  V30 2387 C 224.762 1.53092 1.2078 0
M  V30 2388 O 224.032 0.74993 1.80977 0
M  V30 2389 H 222.612 0.744041 -0.0664272 0
M  V30 2390 H 225.274 1.74723 -0.863583 0
M  V30 2391 H 224.37 3.11556 -0.184166 0
M  V30 2392 N 224.671 0.411399 1.52136 0
M  V30 2393 C 225.896 -0.165538 2.06738 0
M  V30 2394 C 226.321 -1.379 1.27926 0
M  V30 2395 O 225.679 -1.78628 0.310114 0
M  V30 2396 C 225.727 -0.492124 3.57226 0
M  V30 2397 O 224.831 -1.58276 3.80818 0
M  V30 2398 H 224.172 -0.0132132 0.663869 0
M  V30 2399 H 226.702 0.585253 1.96051 0
M  V30 2400 H 226.712 -0.750104 4.01045 0
M  V30 2401 H 225.387 0.394922 4.14021 0
M  V30 2402 H 223.964 -1.31677 3.48877 0
M  V30 2403 N 226.149 -1.5696 0.141893 0
M  V30 2404 C 227.396 -1.9596 -0.510492 0
M  V30 2405 C 227.724 -1.02648 -1.65208 0
M  V30 2406 O 226.979 -0.0546947 -1.95624 0
M  V30 2407 C 227.278 -3.41242 -1.06249 0
M  V30 2408 C 226.944 -4.50882 -0.0398791 0
M  V30 2409 C 225.606 -4.80595 0.241247 0
M  V30 2410 C 227.958 -5.17058 0.65578 0
M  V30 2411 C 225.286 -5.73792 1.22393 0
M  V30 2412 C 227.638 -6.11313 1.62724 0
M  V30 2413 C 226.302 -6.39407 1.91612 0
M  V30 2414 H 225.572 -0.717068 -0.186802 0
M  V30 2415 H 228.219 -1.90142 0.227643 0
M  V30 2416 H 226.524 -3.43866 -1.87785 0
M  V30 2417 H 228.221 -3.68742 -1.57576 0
M  V30 2418 H 224.811 -4.27754 -0.269174 0
M  V30 2419 H 228.995 -4.94239 0.451779 0
M  V30 2420 H 224.251 -5.93853 1.45424 0
M  V30 2421 H 228.425 -6.61668 2.17183 0
M  V30 2422 H 226.052 -7.11427 2.6791 0
M  V30 2423 N 227.627 0.131896 -1.57047 0
M  V30 2424 C 228.574 1.16236 -1.99393 0
M  V30 2425 C 229.544 1.41863 -0.863943 0
M  V30 2426 O 230.729 1.53946 -1.12718 0
M  V30 2427 C 227.869 2.48708 -2.39245 0
M  V30 2428 C 226.982 2.30127 -3.65603 0
M  V30 2429 C 226.117 3.55738 -3.94492 0
M  V30 2430 C 225.156 3.32259 -5.14073 0
M  V30 2431 N 224.293 4.50039 -5.38896 0
M  V30 2432 H 229.133 0.794251 -2.87221 0
M  V30 2433 H 226.67 0.380707 -1.42088 0
M  V30 2434 H 228.628 3.25969 -2.60384 0
M  V30 2435 H 227.258 2.83437 -1.54478 0
M  V30 2436 H 226.31 1.43845 -3.52154 0
M  V30 2437 H 227.622 2.08746 -4.5302 0
M  V30 2438 H 226.776 4.41423 -4.1621 0
M  V30 2439 H 225.515 3.80138 -3.05526 0
M  V30 2440 H 224.52 2.44963 -4.92212 0
M  V30 2441 H 225.745 3.09242 -6.04604 0
M  V30 2442 H 223.691 4.74584 -4.52886 0
M  V30 2443 H 223.608 4.31716 -6.2061 0
M  V30 2444 H 224.876 5.36895 -5.65123 0
M  V30 2445 N 229.106 1.52395 0.401703 0
M  V30 2446 C 230.016 1.7917 1.51444 0
M  V30 2447 C 231.032 0.677691 1.6026 0
M  V30 2448 O 232.208 0.963909 1.76835 0
M  V30 2449 C 229.273 1.94347 2.87107 0
M  V30 2450 C 228.334 3.18257 2.88116 0
M  V30 2451 C 227.567 3.32701 4.17308 0
M  V30 2452 O 227.79 2.52238 5.11598 0
M  V30 2453 O 226.724 4.25891 4.25324 0
M  V30 2454 H 230.55 2.73633 1.31752 0
M  V30 2455 H 228.135 1.3733 0.588296 0
M  V30 2456 H 230.017 2.06109 3.67555 0
M  V30 2457 H 228.692 1.03073 3.06851 0
M  V30 2458 H 227.599 3.11947 2.06494 0
M  V30 2459 H 228.932 4.09336 2.73322 0
M  V30 2460 N 230.584 -0.659388 1.43143 0
M  V30 2461 C 231.547 -1.75432 1.47501 0
M  V30 2462 C 232.547 -1.56707 0.360512 0
M  V30 2463 O 233.737 -1.62717 0.622002 0
M  V30 2464 C 230.869 -3.14239 1.32162 0
M  V30 2465 H 232.062 -1.7295 2.45006 0
M  V30 2466 H 229.615 -0.870469 1.29817 0
M  V30 2467 H 230.35 -3.22336 0.356401 0
M  V30 2468 H 230.135 -3.29235 2.12948 0
M  V30 2469 H 231.625 -3.94094 1.3813 0
M  V30 2470 N 232.062 -1.29571 -0.897171 0
M  V30 2471 C 233.009 -1.14916 -2.00158 0
M  V30 2472 C 233.979 -0.0418149 -1.66047 0
M  V30 2473 O 235.164 -0.209793 -1.89643 0
M  V30 2474 C 232.304 -0.834307 -3.34863 0
M  V30 2475 C 231.417 -2.02234 -3.8174 0
M  V30 2476 C 230.552 -1.64664 -5.05034 0
M  V30 2477 C 229.591 -2.80033 -5.44286 0
M  V30 2478 N 228.728 -2.42843 -6.58765 0
M  V30 2479 H 233.568 -2.09403 -2.12025 0
M  V30 2480 H 231.105 -1.042 -1.0383 0
M  V30 2481 H 233.063 -0.632436 -4.12379 0
M  V30 2482 H 231.693 0.0736656 -3.22716 0
M  V30 2483 H 230.745 -2.33583 -3.00238 0
M  V30 2484 H 232.057 -2.88673 -4.06779 0
M  V30 2485 H 231.211 -1.4078 -5.9014 0
M  V30 2486 H 229.95 -0.753766 -4.8184 0
M  V30 2487 H 228.955 -3.04596 -4.57713 0
M  V30 2488 H 230.18 -3.69989 -5.6946 0
M  V30 2489 H 228.126 -1.56046 -6.3717 0
M  V30 2490 H 228.043 -3.22815 -6.83613 0
M  V30 2491 H 229.311 -2.22285 -7.47134 0
M  V30 2492 N 233.54 1.10788 -1.12088 0
M  V30 2493 C 234.789 1.82036 -0.868659 0
M  V30 2494 C 235.102 1.85929 0.607426 0
M  V30 2495 O 236.308 2.53346 0.97613 0
M  V30 2496 C 234.764 3.26951 -1.50435 0
M  V30 2497 C 234.372 3.31367 -3.01496 0
M  V30 2498 C 236.116 4.03053 -1.33225 0
M  V30 2499 C 234.023 4.7072 -3.58017 0
M  V30 2500 H 232.953 0.682108 -0.321318 0
M  V30 2501 H 235.604 1.24618 -1.34694 0
M  V30 2502 H 233.986 3.84343 -0.953735 0
M  V30 2503 H 235.16 2.83819 -3.6302 0
M  V30 2504 H 233.475 2.6875 -3.18061 0
M  V30 2505 H 236.072 5.05981 -1.72878 0
M  V30 2506 H 236.415 4.15387 -0.275529 0
M  V30 2507 H 236.948 3.52066 -1.85188 0
M  V30 2508 H 233.687 4.63585 -4.63432 0
M  V30 2509 H 233.207 5.1865 -3.01268 0
M  V30 2510 H 234.886 5.39685 -3.56859 0
M  V30 2511 N 235.018 0.912232 1.28515 0
M  V30 2512 C 235.928 0.404506 2.31086 0
M  V30 2513 C 236.944 -0.50707 1.66448 0
M  V30 2514 O 238.12 -0.393624 1.97516 0
M  V30 2515 C 235.185 -0.348572 3.44943 0
M  V30 2516 C 234.246 0.59604 4.25142 0
M  V30 2517 C 233.479 -0.121194 5.33562 0
M  V30 2518 O 233.702 -1.34317 5.5436 0
M  V30 2519 O 232.636 0.542716 5.99448 0
M  V30 2520 H 236.462 1.25579 2.76521 0
M  V30 2521 H 234.047 0.676998 1.33181 0
M  V30 2522 H 235.929 -0.77395 4.14232 0
M  V30 2523 H 234.604 -1.17571 3.01594 0
M  V30 2524 H 233.511 1.07079 3.58448 0
M  V30 2525 H 234.844 1.38995 4.72167 0
M  V30 2526 N 236.496 -1.42363 0.676048 0
M  V30 2527 C 237.406 -2.346 -0.00153389 0
M  V30 2528 C 238.422 -1.5516 -0.787485 0
M  V30 2529 O 239.598 -1.87723 -0.729521 0
M  V30 2530 C 236.663 -3.33705 -0.940298 0
M  V30 2531 C 235.724 -4.29042 -0.148739 0
M  V30 2532 C 234.957 -5.23413 -1.04279 0
M  V30 2533 O 235.18 -5.22749 -2.28232 0
M  V30 2534 O 234.114 -5.99795 -0.502925 0
M  V30 2535 H 237.94 -2.94082 0.758268 0
M  V30 2536 H 235.525 -1.42888 0.436289 0
M  V30 2537 H 237.407 -3.94586 -1.47917 0
M  V30 2538 H 236.082 -2.76695 -1.67993 0
M  V30 2539 H 234.989 -3.71571 0.43427 0
M  V30 2540 H 236.322 -4.89097 0.551805 0
M  V30 2541 N 237.974 -0.419461 -1.51915 0
M  V30 2542 C 238.924 0.418496 -2.24126 0
M  V30 2543 C 239.908 1.00495 -1.25656 0
M  V30 2544 O 241.1 0.926058 -1.50842 0
M  V30 2545 C 238.229 1.52899 -3.07371 0
M  V30 2546 C 237.315 0.952797 -4.13258 0
M  V30 2547 N 237.706 0.104175 -5.05693 0
M  V30 2548 C 236.004 1.22224 -4.28926 0
M  V30 2549 C 236.705 -0.21752 -5.81293 0
M  V30 2550 N 235.681 0.394293 -5.42168 0
M  V30 2551 H 239.483 -0.236048 -2.92951 0
M  V30 2552 H 236.997 -0.230481 -1.60756 0
M  V30 2553 H 238.994 2.14199 -3.57665 0
M  V30 2554 H 237.654 2.18605 -2.40088 0
M  V30 2555 H 238.665 -0.260924 -5.17242 0
M  V30 2556 H 235.342 1.87812 -3.72871 0
M  V30 2557 H 236.732 -0.906992 -6.6575 0
M  V30 2558 N 239.452 1.56882 -0.150215 0
M  V30 2559 C 240.382 2.19935 0.784284 0
M  V30 2560 C 241.363 1.14854 1.25469 0
M  V30 2561 O 242.548 1.43209 1.31168 0
M  V30 2562 C 239.678 2.82349 2.02229 0
M  V30 2563 C 238.632 3.93285 1.68853 0
M  V30 2564 C 237.958 4.42649 2.99944 0
M  V30 2565 C 239.258 5.13904 0.932714 0
M  V30 2566 H 240.952 2.9828 0.258781 0
M  V30 2567 H 238.498 1.43473 0.123029 0
M  V30 2568 H 240.451 3.25126 2.68088 0
M  V30 2569 H 239.175 2.0134 2.57157 0
M  V30 2570 H 237.834 3.5113 1.05371 0
M  V30 2571 H 237.482 3.58458 3.52869 0
M  V30 2572 H 237.182 5.17476 2.78374 0
M  V30 2573 H 238.706 4.88099 3.66868 0
M  V30 2574 H 240.12 5.53506 1.49345 0
M  V30 2575 H 238.517 5.94515 0.81684 0
M  V30 2576 H 239.587 4.84842 -0.0749568 0
M  V30 2577 N 240.93 -0.123565 1.57115 0
M  V30 2578 C 241.893 -1.13583 1.99076 0
M  V30 2579 C 242.893 -1.34564 0.880296 0
M  V30 2580 O 244.083 -1.31158 1.14644 0
M  V30 2581 C 241.215 -2.49128 2.32698 0
M  V30 2582 H 242.408 -0.775287 2.89706 0
M  V30 2583 H 239.961 -0.36771 1.51913 0
M  V30 2584 H 240.696 -2.90111 1.44934 0
M  V30 2585 H 240.481 -2.35255 3.13684 0
M  V30 2586 H 241.971 -3.2199 2.65918 0
M  V30 2587 N 242.408 -1.52605 -0.393616 0
M  V30 2588 C 243.824 -1.41753 -0.733357 0
M  V30 2589 C 244.024 -0.534293 -1.94287 0
M  V30 2590 O 243.08 -0.0059787 -2.52499 0
M  V30 2591 C 244.393 -2.84531 -0.972772 0
M  V30 2592 C 245.941 -2.93978 -1.07453 0
M  V30 2593 C 246.416 -4.37756 -1.3466 0
M  V30 2594 N 247.907 -4.4106 -1.41492 0
M  V30 2595 C 248.642 -5.49387 -1.642 0
M  V30 2596 N 248.138 -6.67806 -1.8441 0
M  V30 2597 N 249.931 -5.36923 -1.66342 0
M  V30 2598 H 242.082 -2.08555 0.402328 0
M  V30 2599 H 244.345 -0.940654 0.117789 0
M  V30 2600 H 244.051 -3.51353 -0.156204 0
M  V30 2601 H 243.925 -3.26508 -1.88871 0
M  V30 2602 H 246.312 -2.27326 -1.88167 0
M  V30 2603 H 246.393 -2.55435 -0.136605 0
M  V30 2604 H 246.037 -5.04972 -0.544581 0
M  V30 2605 H 245.967 -4.73848 -2.2973 0
M  V30 2606 H 248.458 -3.55705 -1.27601 0
M  V30 2607 H 248.771 -7.46141 -2.01231 0
M  V30 2608 H 247.116 -6.70843 -1.81644 0
M  V30 2609 H 250.307 -4.43381 -1.50102 0
M  V30 2610 H 250.48 -6.21416 -1.837 0
M  V30 2611 N 243.887 0.651787 -1.4349 0
M  V30 2612 C 245.133 1.41376 -1.45398 0
M  V30 2613 C 245.466 1.94041 -0.0784823 0
M  V30 2614 O 244.741 1.72379 0.900878 0
M  V30 2615 C 245.024 2.59414 -2.49752 0
M  V30 2616 C 244.877 2.12232 -3.96582 0
M  V30 2617 C 246.196 3.61626 -2.50827 0
M  V30 2618 H 243.315 0.512719 -0.529422 0
M  V30 2619 H 245.957 0.738796 -1.75048 0
M  V30 2620 H 244.107 3.16997 -2.246 0
M  V30 2621 H 245.779 1.59639 -4.32797 0
M  V30 2622 H 244.022 1.43592 -4.09346 0
M  V30 2623 H 244.693 2.9712 -4.65214 0
M  V30 2624 H 247.169 3.13805 -2.7325 0
M  V30 2625 H 246.045 4.41766 -3.25783 0
M  V30 2626 H 246.306 4.14314 -1.5426 0
M  V30 2627 N 245.365 1.30045 0.890287 0
M  V30 2628 C 246.275 1.17885 2.02831 0
M  V30 2629 C 247.291 0.0999609 1.73713 0
M  V30 2630 O 248.467 0.313867 1.98939 0
M  V30 2631 C 245.532 0.866079 3.35708 0
M  V30 2632 C 244.593 2.02979 3.78283 0
M  V30 2633 C 243.826 1.73184 5.0482 0
M  V30 2634 O 244.049 0.657237 5.66601 0
M  V30 2635 O 242.983 2.58267 5.43674 0
M  V30 2636 H 246.809 2.13474 2.16015 0
M  V30 2637 H 244.394 1.09587 1.01543 0
M  V30 2638 H 246.276 0.706623 4.15433 0
M  V30 2639 H 244.951 -0.0599443 3.23644 0
M  V30 2640 H 243.858 2.24454 2.99285 0
M  V30 2641 H 245.191 2.93734 3.94944 0
M  V30 2642 N 246.843 -1.10192 1.12674 0
M  V30 2643 C 247.806 -2.14786 0.799979 0
M  V30 2644 C 248.806 -1.59711 -0.18685 0
M  V30 2645 O 249.996 -1.74156 0.0392558 0
M  V30 2646 C 247.128 -3.40374 0.189228 0
M  V30 2647 H 248.321 -2.45203 1.72671 0
M  V30 2648 H 245.874 -1.25597 0.930326 0
M  V30 2649 H 246.609 -3.15577 -0.747107 0
M  V30 2650 H 246.394 -3.81637 0.899766 0
M  V30 2651 H 247.884 -4.17594 -0.0228143 0
M  V30 2652 N 248.321 -0.919034 -1.28029 0
M  V30 2653 C 249.567 -0.555757 -1.95036 0
M  V30 2654 C 249.9 0.899198 -1.72128 0
M  V30 2655 O 249.175 1.64023 -1.04531 0
M  V30 2656 C 249.458 -0.872024 -3.49382 0
M  V30 2657 C 249.311 -2.3801 -3.81669 0
M  V30 2658 C 250.63 -0.37185 -4.38526 0
M  V30 2659 H 247.749 -0.203386 -0.708381 0
M  V30 2660 H 250.391 -1.14924 -1.51303 0
M  V30 2661 H 248.541 -0.366946 -3.86763 0
M  V30 2662 H 250.213 -2.9562 -3.54128 0
M  V30 2663 H 248.456 -2.83289 -3.28526 0
M  V30 2664 H 249.127 -2.55192 -4.8947 0
M  V30 2665 H 251.603 -0.804602 -4.08247 0
M  V30 2666 H 250.479 -0.622173 -5.45362 0
M  V30 2667 H 250.74 0.727934 -4.36066 0
M  V30 2668 N 249.799 1.42003 -0.683588 0
M  V30 2669 C 251.027 2.05746 -0.218182 0
M  V30 2670 C 251.442 1.51396 1.12804 0
M  V30 2671 O 250.799 0.657303 1.70252 0
M  V30 2672 C 250.85 3.61171 -0.154131 0
M  V30 2673 O 250.571 4.13508 -1.44716 0
M  V30 2674 C 252.072 4.42042 0.333713 0
M  V30 2675 H 249.292 0.662888 -0.10402 0
M  V30 2676 H 251.836 1.81987 -0.9328 0
M  V30 2677 H 249.991 3.84012 0.511231 0
M  V30 2678 H 250.405 5.07453 -1.32632 0
M  V30 2679 H 251.879 5.51028 0.327423 0
M  V30 2680 H 252.356 4.17269 1.37053 0
M  V30 2681 H 252.962 4.24239 -0.300222 0
M  V30 2682 N 251.277 0.427512 1.51691 0
M  V30 2683 C 252.224 -0.388867 2.275 0
M  V30 2684 C 253.194 -1.02532 1.30677 0
M  V30 2685 O 254.379 -1.0461 1.59566 0
M  V30 2686 C 251.519 -1.48954 3.11298 0
M  V30 2687 C 250.632 -0.872194 4.23104 0
M  V30 2688 C 249.767 -1.94709 4.94228 0
M  V30 2689 C 248.806 -1.30766 5.97969 0
M  V30 2690 N 247.943 -2.32349 6.62539 0
M  V30 2691 H 252.783 0.263997 2.96828 0
M  V30 2692 H 250.32 0.142033 1.46413 0
M  V30 2693 H 252.278 -2.13887 3.58201 0
M  V30 2694 H 250.908 -2.11217 2.44105 0
M  V30 2695 H 249.96 -0.111419 3.80237 0
M  V30 2696 H 251.272 -0.365264 4.97461 0
M  V30 2697 H 250.426 -2.67327 5.44629 0
M  V30 2698 H 249.165 -2.48773 4.1948 0
M  V30 2699 H 248.17 -0.566902 5.4687 0
M  V30 2700 H 249.395 -0.774483 6.74669 0
M  V30 2701 H 247.341 -2.85511 5.90609 0
M  V30 2702 H 247.258 -1.8652 7.3263 0
M  V30 2703 H 248.526 -3.04481 7.17574 0
M  V30 2704 N 252.755 -1.56801 0.158532 0
M  V30 2705 C 253.665 -2.20916 -0.789518 0
M  V30 2706 C 254.681 -1.1969 -1.26294 0
M  V30 2707 O 255.857 -1.52308 -1.31773 0
M  V30 2708 C 252.922 -2.82727 -2.00665 0
M  V30 2709 C 251.983 -3.99114 -1.58134 0
M  V30 2710 C 251.216 -4.57968 -2.74045 0
M  V30 2711 O 251.439 -4.15704 -3.90572 0
M  V30 2712 O 250.373 -5.48047 -2.48855 0
M  V30 2713 H 254.199 -3.02464 -0.273681 0
M  V30 2714 H 251.784 -1.4924 -0.0690548 0
M  V30 2715 H 253.666 -3.21968 -2.71872 0
M  V30 2716 H 252.341 -2.04184 -2.51179 0
M  V30 2717 H 251.248 -3.64567 -0.839155 0
M  V30 2718 H 252.581 -4.79212 -1.12325 0
M  V30 2719 N 254.233 0.115231 -1.57178 0
M  V30 2720 C 255.482 0.820945 -1.84237 0
M  V30 2721 C 255.795 1.80866 -0.744761 0
M  V30 2722 O 257.001 2.56083 -0.901871 0
M  V30 2723 C 255.457 1.51072 -3.26658 0
M  V30 2724 C 255.065 0.563795 -4.44438 0
M  V30 2725 C 256.809 2.20134 -3.62962 0
M  V30 2726 C 254.716 1.25701 -5.77887 0
M  V30 2727 H 253.646 0.310328 -0.687177 0
M  V30 2728 H 256.297 0.0737134 -1.83352 0
M  V30 2729 H 254.679 2.30471 -3.22024 0
M  V30 2730 H 255.853 -0.197247 -4.60378 0
M  V30 2731 H 254.168 -0.0200638 -4.16395 0
M  V30 2732 H 256.765 2.72696 -4.59936 0
M  V30 2733 H 257.108 2.98107 -2.90582 0
M  V30 2734 H 257.641 1.47619 -3.69396 0
M  V30 2735 H 254.38 0.518493 -6.53446 0
M  V30 2736 H 253.9 1.98997 -5.65827 0
M  V30 2737 H 255.579 1.78915 -6.2177 0
M  V30 2738 N 255.711 1.52812 0.385517 0
M  V30 2739 C 256.621 1.80766 1.49535 0
M  V30 2740 C 257.637 0.694651 1.59532 0
M  V30 2741 O 258.813 0.982611 1.75803 0
M  V30 2742 C 255.878 1.97381 2.85029 0
M  V30 2743 C 254.939 3.21295 2.84724 0
M  V30 2744 C 254.172 3.37108 4.13756 0
M  V30 2745 O 254.395 2.5765 5.08893 0
M  V30 2746 O 253.329 4.30378 4.20783 0
M  V30 2747 H 257.155 2.75015 1.28842 0
M  V30 2748 H 254.74 1.37946 0.573697 0
M  V30 2749 H 256.622 2.09996 3.65349 0
M  V30 2750 H 255.297 1.06322 3.05741 0
M  V30 2751 H 254.204 3.1412 2.03174 0
M  V30 2752 H 255.537 4.12212 2.68965 0
M  V30 2753 N 257.189 -0.644168 1.43834 0
M  V30 2754 C 258.417 -1.43147 1.49387 0
M  V30 2755 C 258.832 -1.88452 0.114583 0
M  V30 2756 O 258.189 -1.60047 -0.876989 0
M  V30 2757 C 258.24 -2.66046 2.44748 0
M  V30 2758 O 257.961 -2.22633 3.77314 0
M  V30 2759 C 259.462 -3.59311 2.59635 0
M  V30 2760 H 256.682 -0.439447 0.507077 0
M  V30 2761 H 259.226 -0.78895 1.88669 0
M  V30 2762 H 257.381 -3.26418 2.08638 0
M  V30 2763 H 257.795 -3.02216 4.28679 0
M  V30 2764 H 259.269 -4.42187 3.30416 0
M  V30 2765 H 259.746 -4.07259 1.64427 0
M  V30 2766 H 260.352 -3.04816 2.96593 0
M  V30 2767 N 258.668 -1.30515 -0.883378 0
M  V30 2768 C 259.896 -1.22359 -1.66841 0
M  V30 2769 C 260.311 0.213296 -1.87591 0
M  V30 2770 O 259.668 1.14075 -1.42454 0
M  V30 2771 C 259.719 -1.95011 -3.04389 0
M  V30 2772 O 259.44 -3.3309 -2.84575 0
M  V30 2773 C 260.941 -1.93532 -3.98824 0
M  V30 2774 H 258.161 -0.423371 -0.520575 0
M  V30 2775 H 260.705 -1.72167 -1.10357 0
M  V30 2776 H 258.86 -1.48997 -3.57601 0
M  V30 2777 H 259.274 -3.69907 -3.71846 0
M  V30 2778 H 260.748 -2.48902 -4.92699 0
M  V30 2779 H 261.225 -0.914627 -4.29571 0
M  V30 2780 H 261.831 -2.39364 -3.51547 0
M  V30 2781 N 260.146 1.09593 -1.13257 0
M  V30 2782 C 261.394 1.81375 -0.891492 0
M  V30 2783 C 261.715 1.86049 0.584009 0
M  V30 2784 O 260.985 1.34481 1.42449 0
M  V30 2785 H 259.565 0.671708 -0.326828 0
M  V30 2786 H 262.227 1.3256 -1.42877 0
M  V30 2787 H 261.323 2.84612 -1.28071 0
M  V30 2788 N 261.624 0.925811 1.2754 0
M  V30 2789 C 262.852 0.581509 1.9856 0
M  V30 2790 C 263.267 -0.840041 1.69082 0
M  V30 2791 O 262.624 -1.55805 0.950312 0
M  V30 2792 C 262.675 0.795589 3.52637 0
M  V30 2793 O 262.396 2.16121 3.81082 0
M  V30 2794 C 263.897 0.459744 4.4091 0
M  V30 2795 H 261.117 0.220538 0.633722 0
M  V30 2796 H 263.661 1.24232 1.6244 0
M  V30 2797 H 261.816 0.18161 3.86974 0
M  V30 2798 H 262.23 2.2098 4.75676 0
M  V30 2799 H 263.704 0.660244 5.48037 0
M  V30 2800 H 264.181 -0.604625 4.35018 0
M  V30 2801 H 264.787 1.05178 4.12089 0
M  V30 2802 N 263.102 -1.41638 0.69111 0
M  V30 2803 C 264.332 -2.0533 0.228758 0
M  V30 2804 C 264.74 -1.52089 -1.12541 0
M  V30 2805 O 264.083 -0.662145 -1.71351 0
M  V30 2806 C 264.145 -3.59349 0.10407 0
M  V30 2807 C 263.809 -4.35362 1.38956 0
M  V30 2808 C 264.806 -4.64942 2.32648 0
M  V30 2809 C 262.491 -4.74714 1.64169 0
M  V30 2810 C 264.485 -5.32828 3.49818 0
M  V30 2811 C 262.172 -5.42338 2.81625 0
M  V30 2812 C 263.17 -5.71322 3.74273 0
M  V30 2813 O 262.858 -6.37554 4.89673 0
M  V30 2814 H 262.59 -0.667796 0.104997 0
M  V30 2815 H 265.144 -1.82477 0.942938 0
M  V30 2816 H 263.374 -3.80924 -0.665839 0
M  V30 2817 H 265.063 -4.04633 -0.320519 0
M  V30 2818 H 265.829 -4.35025 2.14425 0
M  V30 2819 H 261.708 -4.51538 0.929202 0
M  V30 2820 H 265.252 -5.55368 4.22152 0
M  V30 2821 H 261.149 -5.71673 2.99768 0
M  V30 2822 H 261.917 -6.56049 4.8943 0
M  V30 2823 N 264.58 -0.43555 -1.51462 0
M  V30 2824 C 265.512 0.41257 -2.25456 0
M  V30 2825 C 266.525 0.987822 -1.29406 0
M  V30 2826 O 267.714 0.882266 -1.55172 0
M  V30 2827 C 264.814 1.58894 -2.99342 0
M  V30 2828 C 263.987 1.13288 -4.22474 0
M  V30 2829 C 263.046 2.17917 -4.78956 0
M  V30 2830 O 262.072 1.77425 -5.40841 0
M  V30 2831 N 263.274 3.50382 -4.62832 0
M  V30 2832 H 266.039 -0.221603 -2.9888 0
M  V30 2833 H 263.6 -0.264342 -1.59727 0
M  V30 2834 H 265.592 2.28508 -3.34015 0
M  V30 2835 H 264.162 2.12849 -2.28941 0
M  V30 2836 H 263.382 0.263881 -3.93316 0
M  V30 2837 H 264.67 0.805542 -5.02383 0
M  V30 2838 H 264.068 3.86013 -4.13534 0
M  V30 2839 H 262.625 4.15895 -5.01871 0
M  V30 2840 N 266.058 1.56714 -0.166846 0
M  V30 2841 C 266.988 2.20754 0.760913 0
M  V30 2842 C 267.969 1.16178 1.24244 0
M  V30 2843 O 269.154 1.44592 1.29641 0
M  V30 2844 C 266.284 2.84478 1.99223 0
M  V30 2845 C 265.238 3.95053 1.64672 0
M  V30 2846 C 264.564 4.45805 2.95232 0
M  V30 2847 C 265.864 5.14865 0.878155 0
M  V30 2848 H 267.558 2.98537 0.22713 0
M  V30 2849 H 265.104 1.43596 0.107805 0
M  V30 2850 H 267.057 3.27951 2.64624 0
M  V30 2851 H 265.781 2.04056 2.55007 0
M  V30 2852 H 264.44 3.52228 1.01641 0
M  V30 2853 H 264.088 3.62181 3.49047 0
M  V30 2854 H 263.788 5.204 2.7287 0
M  V30 2855 H 265.312 4.91962 3.6167 0
M  V30 2856 H 266.726 5.55059 1.43466 0
M  V30 2857 H 265.123 5.95348 0.753738 0
M  V30 2858 H 266.193 4.84735 -0.126377 0
M  V30 2859 N 267.536 -0.106894 1.57237 0
M  V30 2860 C 268.764 -0.826389 1.8968 0
M  V30 2861 C 269.179 -1.72856 0.759353 0
M  V30 2862 O 268.536 -1.80503 -0.269263 0
M  V30 2863 C 268.587 -1.64967 3.21665 0
M  V30 2864 O 268.308 -0.783804 4.31031 0
M  V30 2865 C 269.809 -2.47326 3.67892 0
M  V30 2866 H 267.029 -0.236927 0.627779 0
M  V30 2867 H 269.573 -0.0876593 2.04312 0
M  V30 2868 H 267.728 -2.34103 3.08666 0
M  V30 2869 H 268.142 -1.35284 5.06753 0
M  V30 2870 H 269.616 -3.00604 4.6297 0
M  V30 2871 H 270.093 -3.25247 2.95146 0
M  V30 2872 H 270.699 -1.83411 3.83719 0
M  V30 2873 N 269.014 -1.53014 -0.377408 0
M  V30 2874 C 270.262 -1.6829 -1.11906 0
M  V30 2875 C 270.583 -0.431206 -1.90173 0
M  V30 2876 O 269.853 0.554595 -1.87886 0
M  V30 2877 H 268.433 -0.620371 -0.416112 0
M  V30 2878 H 271.095 -1.90167 -0.426893 0
M  V30 2879 H 270.191 -2.53862 -1.8155 0
M  V30 2880 N 270.492 0.636531 -1.44174 0
M  V30 2881 C 271.769 1.39463 -1.37148 0
M  V30 2882 C 272.149 2.11082 -0.027507 0
M  V30 2883 O 271.497 2.05954 0.989716 0
M  V30 2884 C 271.707 2.36552 -2.56601 0
M  V30 2885 C 273.055 3.00048 -3.00427 0
M  V30 2886 O 274.079 2.46878 -2.56767 0
M  V30 2887 O 272.938 3.96488 -3.76111 0
M  V30 2888 H 270.032 0.623903 -0.542839 0
M  V30 2889 H 272.578 0.662039 -1.56253 0
M  V30 2890 H 271.35 1.82692 -3.46034 0
M  V30 2891 H 270.973 3.17236 -2.39681 0
M  V30 2892 N 271.97 1.30982 0.876444 0
M  V30 2893 C 272.88 1.2003 2.01569 0
M  V30 2894 C 273.896 0.11838 1.73597 0
M  V30 2895 O 275.072 0.33495 1.98595 0
M  V30 2896 C 272.137 0.901637 3.34771 0
M  V30 2897 C 271.198 2.06979 3.76109 0
M  V30 2898 C 270.431 1.78529 5.02954 0
M  V30 2899 O 270.654 0.717296 5.65872 0
M  V30 2900 O 269.588 2.64019 5.40905 0
M  V30 2901 H 273.414 2.15753 2.13739 0
M  V30 2902 H 270.999 1.10658 1.00375 0
M  V30 2903 H 272.881 0.750645 4.1466 0
M  V30 2904 H 271.556 -0.0256141 3.2369 0
M  V30 2905 H 270.463 2.27616 2.96887 0
M  V30 2906 H 271.796 2.97907 3.91807 0
M  V30 2907 N 273.449 -1.08991 1.13837 0
M  V30 2908 C 274.379 -2.17771 0.842507 0
M  V30 2909 C 275.36 -1.6892 -0.20001 0
M  V30 2910 O 276.545 -1.94113 -0.0579731 0
M  V30 2911 C 273.675 -3.4589 0.312644 0
M  V30 2912 C 272.629 -4.08099 1.28992 0
M  V30 2913 C 271.955 -5.31098 0.619623 0
M  V30 2914 C 273.255 -4.50077 2.65005 0
M  V30 2915 H 274.949 -2.42777 1.75213 0
M  V30 2916 H 272.495 -1.16682 0.843875 0
M  V30 2917 H 274.448 -4.21297 0.0933043 0
M  V30 2918 H 273.172 -3.20419 -0.632382 0
M  V30 2919 H 271.831 -3.34717 1.49533 0
M  V30 2920 H 271.479 -5.0191 -0.33102 0
M  V30 2921 H 271.179 -5.73674 1.27167 0
M  V30 2922 H 272.703 -6.09224 0.409669 0
M  V30 2923 H 274.117 -5.16688 2.48407 0
M  V30 2924 H 272.514 -5.03553 3.26427 0
M  V30 2925 H 273.584 -3.62257 3.22332 0
M  V30 2926 N 274.927 -0.932562 -1.27047 0
M  V30 2927 C 276.176 -0.571351 -1.93439 0
M  V30 2928 C 276.489 0.892467 -1.74053 0
M  V30 2929 O 277.695 1.36267 -2.34826 0
M  V30 2930 C 276.151 -0.97106 -3.46552 0
M  V30 2931 C 275.759 -2.4559 -3.74686 0
M  V30 2932 C 277.503 -0.681333 -4.18997 0
M  V30 2933 C 275.41 -2.79475 -5.21198 0
M  V30 2934 H 274.34 -0.209966 -0.724176 0
M  V30 2935 H 276.991 -1.13403 -1.44263 0
M  V30 2936 H 275.373 -0.336983 -3.94564 0
M  V30 2937 H 276.547 -3.13829 -3.37414 0
M  V30 2938 H 274.862 -2.71802 -3.15456 0
M  V30 2939 H 277.459 -0.910939 -5.26883 0
M  V30 2940 H 277.802 0.381628 -4.14547 0
M  V30 2941 H 278.335 -1.27473 -3.76823 0
M  V30 2942 H 275.074 -3.847 -5.30741 0
M  V30 2943 H 274.594 -2.1589 -5.596 0
M  V30 2944 H 276.273 -2.67478 -5.89122 0
M  V30 2945 N 276.405 1.4127 -0.698611 0
M  V30 2946 C 277.652 2.0118 -0.230865 0
M  V30 2947 C 277.98 1.55338 1.17049 0
M  V30 2948 O 277.235 0.756775 1.80475 0
M  V30 2949 C 277.534 3.56592 -0.240192 0
M  V30 2950 C 277.2 4.21955 -1.58948 0
M  V30 2951 C 275.862 4.39524 -1.95887 0
M  V30 2952 C 278.214 4.58576 -2.47704 0
M  V30 2953 C 275.542 4.90992 -3.2116 0
M  V30 2954 C 277.894 5.11435 -3.72313 0
M  V30 2955 C 276.558 5.27215 -4.0939 0
M  V30 2956 H 275.828 0.736169 -0.0844796 0
M  V30 2957 H 278.475 1.69124 -0.8983 0
M  V30 2958 H 276.78 3.88456 0.510797 0
M  V30 2959 H 278.477 4.00758 0.139296 0
M  V30 2960 H 275.067 4.08657 -1.29219 0
M  V30 2961 H 279.251 4.44654 -2.20445 0
M  V30 2962 H 274.507 5.01393 -3.49878 0
M  V30 2963 H 278.681 5.38752 -4.4127 0
M  V30 2964 H 276.308 5.66859 -5.06533 0
M  V30 2965 N 277.883 0.443576 1.51229 0
M  V30 2966 C 278.846 -0.353132 2.26463 0
M  V30 2967 C 279.846 -0.944338 1.3015 0
M  V30 2968 O 281.036 -0.817813 1.5381 0
M  V30 2969 C 278.168 -1.50023 3.06114 0
M  V30 2970 H 279.361 0.3063 2.98332 0
M  V30 2971 H 276.914 0.196902 1.55055 0
M  V30 2972 H 277.649 -2.19553 2.38677 0
M  V30 2973 H 277.434 -1.08241 3.76864 0
M  V30 2974 H 278.924 -2.06296 3.63087 0
M  V30 2975 N 279.361 -1.56624 0.175154 0
M  V30 2976 C 280.589 -2.01374 -0.474971 0
M  V30 2977 C 281.004 -1.05537 -1.56548 0
M  V30 2978 O 280.361 -0.0568668 -1.82411 0
M  V30 2979 C 280.412 -3.45923 -1.04975 0
M  V30 2980 O 280.133 -4.381 -0.00276605 0
M  V30 2981 C 281.634 -4.06093 -1.77773 0
M  V30 2982 H 278.854 -0.659962 -0.121206 0
M  V30 2983 H 281.398 -2.02601 0.27801 0
M  V30 2984 H 279.553 -3.45458 -1.75321 0
M  V30 2985 H 279.967 -5.22753 -0.427681 0
M  V30 2986 H 281.441 -5.09147 -2.13245 0
M  V30 2987 H 281.918 -3.48405 -2.67414 0
M  V30 2988 H 282.524 -4.10272 -1.12059 0
M  V30 2989 N 280.839 0.0985539 -1.57292 0
M  V30 2990 C 281.786 1.11981 -2.01814 0
M  V30 2991 C 282.756 1.39999 -0.89384 0
M  V30 2992 O 283.941 1.5152 -1.15958 0
M  V30 2993 C 281.081 2.43577 -2.44467 0
M  V30 2994 C 280.194 2.2232 -3.70402 0
M  V30 2995 C 279.329 3.4729 -4.01949 0
M  V30 2996 C 278.368 3.2128 -5.21005 0
M  V30 2997 N 277.505 4.38507 -5.48321 0
M  V30 2998 H 282.345 0.733149 -2.88841 0
M  V30 2999 H 279.882 0.350482 -1.42864 0
M  V30 3000 H 281.84 3.20373 -2.6724 0
M  V30 3001 H 280.47 2.80097 -1.60455 0
M  V30 3002 H 279.522 1.36343 -3.55126 0
M  V30 3003 H 280.834 1.99089 -4.57345 0
M  V30 3004 H 279.988 4.32495 -4.25479 0
M  V30 3005 H 278.727 3.73572 -3.13521 0
M  V30 3006 H 277.732 2.34468 -4.97298 0
M  V30 3007 H 278.957 2.96348 -6.11028 0
M  V30 3008 H 276.903 4.64871 -4.62851 0
M  V30 3009 H 276.82 4.18455 -6.29628 0
M  V30 3010 H 278.088 5.24787 -5.76385 0
M  V30 3011 N 282.317 1.53212 0.369288 0
M  V30 3012 C 283.249 1.75668 1.47219 0
M  V30 3013 C 284.262 0.637387 1.49804 0
M  V30 3014 O 285.451 0.913561 1.5335 0
M  V30 3015 C 282.551 1.81818 2.85999 0
M  V30 3016 C 281.724 3.11409 3.07153 0
M  V30 3017 C 280.783 3.08849 4.26026 0
M  V30 3018 O 279.809 3.82659 4.2138 0
M  V30 3019 N 281.011 2.29409 5.33246 0
M  V30 3020 H 283.776 2.70832 1.28337 0
M  V30 3021 H 281.337 1.51944 0.55898 0
M  V30 3022 H 283.329 1.77588 3.63655 0
M  V30 3023 H 281.899 0.939544 2.98146 0
M  V30 3024 H 281.119 3.28971 2.1719 0
M  V30 3025 H 282.407 3.97059 3.18154 0
M  V30 3026 H 281.805 1.68946 5.39883 0
M  V30 3027 H 280.362 2.31001 6.09493 0
M  V30 3028 N 283.795 -0.628877 1.44509 0
M  V30 3029 C 284.758 -1.72263 1.51188 0
M  V30 3030 C 285.758 -1.55907 0.39367 0
M  V30 3031 O 286.948 -1.61361 0.656377 0
M  V30 3032 C 284.08 -3.11365 1.38798 0
M  V30 3033 H 285.273 -1.67714 2.4862 0
M  V30 3034 H 282.826 -0.842737 1.31634 0
M  V30 3035 H 283.561 -3.21507 0.424693 0
M  V30 3036 H 283.346 -3.24644 2.19884 0
M  V30 3037 H 284.836 -3.91075 1.46458 0
M  V30 3038 N 285.273 -1.31445 -0.869486 0
M  V30 3039 C 286.519 -1.22347 -1.62489 0
M  V30 3040 C 286.874 0.216204 -1.91181 0
M  V30 3041 O 286.167 1.14977 -1.53268 0
M  V30 3042 C 286.361 -2.00145 -2.96102 0
M  V30 3043 C 286.19 -3.51531 -2.80456 0
M  V30 3044 C 284.96 -4.20882 -2.79618 0
M  V30 3045 C 287.158 -4.46471 -2.5528 0
M  V30 3046 N 285.14 -5.58421 -2.55027 0
M  V30 3047 C 286.511 -5.71682 -2.39957 0
M  V30 3048 C 288.566 -4.35892 -2.40629 0
M  V30 3049 C 287.269 -6.87511 -2.11472 0
M  V30 3050 C 289.295 -5.51505 -2.13532 0
M  V30 3051 C 288.657 -6.75707 -1.98998 0
M  V30 3052 H 284.756 -0.502815 -0.598917 0
M  V30 3053 H 287.34 -1.65639 -1.02332 0
M  V30 3054 H 285.511 -1.59221 -3.54264 0
M  V30 3055 H 287.243 -1.83063 -3.60929 0
M  V30 3056 H 283.998 -3.72857 -2.92018 0
M  V30 3057 H 284.422 -6.30841 -2.45701 0
M  V30 3058 H 289.064 -3.40533 -2.50593 0
M  V30 3059 H 286.782 -7.82897 -2.00245 0
M  V30 3060 H 290.368 -5.45238 -2.02995 0
M  V30 3061 H 289.248 -7.63655 -1.78326 0
M  V30 3062 N 286.751 1.08385 -1.14413 0
M  V30 3063 C 288.167 1.32844 -0.884563 0
M  V30 3064 C 288.367 1.95841 0.474181 0
M  V30 3065 O 287.423 2.21158 1.21842 0
M  V30 3066 C 288.736 2.22978 -2.01745 0
M  V30 3067 C 290.284 2.36458 -2.05077 0
M  V30 3068 C 290.759 3.29934 -3.1766 0
M  V30 3069 N 292.25 3.37511 -3.17239 0
M  V30 3070 C 292.985 4.09871 -4.0099 0
M  V30 3071 N 292.481 4.84936 -4.94781 0
M  V30 3072 N 294.274 4.05704 -3.89051 0
M  V30 3073 H 286.425 0.658756 -2.01926 0
M  V30 3074 H 288.688 0.352821 -0.879899 0
M  V30 3075 H 288.394 1.83934 -2.99769 0
M  V30 3076 H 288.268 3.23441 -1.94077 0
M  V30 3077 H 290.655 2.7476 -1.0766 0
M  V30 3078 H 290.736 1.35736 -2.16816 0
M  V30 3079 H 290.38 2.92352 -4.15322 0
M  V30 3080 H 290.31 4.30584 -3.03158 0
M  V30 3081 H 292.801 2.83996 -2.49308 0
M  V30 3082 H 293.114 5.37612 -5.55151 0
M  V30 3083 H 291.459 4.83988 -4.98779 0
M  V30 3084 H 294.65 3.46167 -3.15097 0
M  V30 3085 H 294.823 4.61834 -4.54547 0
M  V30 3086 N 288.23 0.939286 1.26551 0
M  V30 3087 C 289.178 0.43815 2.28436 0
M  V30 3088 C 290.172 -0.483587 1.62351 0
M  V30 3089 O 291.378 -0.362009 1.76322 0
M  V30 3090 H 287.753 0.123149 0.741848 0
M  V30 3091 H 289.724 1.31002 2.68106 0
M  V30 3092 C 288.473 -0.283052 3.46546 0
M  V30 3093 H 287.796 0.417043 3.97619 0
M  V30 3094 H 289.236 -0.597948 4.19763 0
M  V30 3095 C 287.695 -1.50018 3.01656 0
M  V30 3096 O 288.225 -2.59855 3.0633 0
M  V30 3097 N 286.431 -1.35608 2.57019 0
M  V30 3098 H 285.978 -0.46244 2.53415 0
M  V30 3099 H 285.936 -2.17165 2.27347 0
M  V30 3100 N 289.708 -1.40897 0.706093 0
M  V30 3101 C 290.671 -2.29131 0.0562841 0
M  V30 3102 C 291.671 -1.44901 -0.697166 0
M  V30 3103 O 292.861 -1.65926 -0.530484 0
M  V30 3104 C 289.993 -3.27957 -0.93043 0
M  V30 3105 H 291.186 -2.88091 0.833284 0
M  V30 3106 H 288.739 -1.4906 0.470192 0
M  V30 3107 H 289.474 -2.73997 -1.73482 0
M  V30 3108 H 289.259 -3.90124 -0.393166 0
M  V30 3109 H 290.749 -3.94049 -1.38256 0
M  V30 3110 N 291.186 -0.45159 -1.50991 0
M  V30 3111 C 292.597 0.00818571 -1.86698 0
M  V30 3112 C 292.948 1.40661 -1.3678 0
M  V30 3113 O 292.073 2.0391 -0.724546 0
M  V30 3114 C 292.668 0.0216303 -3.38793 0
M  V30 3115 C 291.227 0.425865 -3.73983 0
M  V30 3116 C 290.374 -0.372163 -2.74791 0
M  V30 3117 H 293.325 -0.666785 -1.44013 0
M  V30 3118 H 293.346 0.828078 -3.7138 0
M  V30 3119 H 292.858 -0.996288 -3.75094 0
M  V30 3120 H 290.959 1.44886 -3.43277 0
M  V30 3121 H 291.072 0.140761 -4.78893 0
M  V30 3122 H 289.436 0.171498 -2.54122 0
M  V30 3123 H 290.219 -1.38922 -3.13935 0
M  V30 3124 N 292.664 1.56529 -0.183458 0
M  V30 3125 C 294.08 1.58664 0.172554 0
M  V30 3126 C 294.28 1.19925 1.61926 0
M  V30 3127 O 293.336 0.916534 2.35278 0
M  V30 3128 C 294.649 3.00463 -0.119262 0
M  V30 3129 C 296.197 3.12945 -0.0584396 0
M  V30 3130 C 296.672 4.56857 -0.323408 0
M  V30 3131 N 298.163 4.62403 -0.271612 0
M  V30 3132 C 298.898 5.71626 -0.450639 0
M  V30 3133 N 298.394 6.89362 -0.689384 0
M  V30 3134 N 300.187 5.60775 -0.385701 0
M  V30 3135 H 292.338 1.79994 -1.12765 0
M  V30 3136 H 294.601 0.834808 -0.449222 0
M  V30 3137 H 294.307 3.33326 -1.12192 0
M  V30 3138 H 294.181 3.72659 0.583544 0
M  V30 3139 H 296.568 2.79902 0.934805 0
M  V30 3140 H 296.649 2.4316 -0.794144 0
M  V30 3141 H 296.293 4.9061 -1.31392 0
M  V30 3142 H 296.223 5.24816 0.43305 0
M  V30 3143 H 298.714 3.77785 -0.0932256 0
M  V30 3144 H 299.027 7.68489 -0.815113 0
M  V30 3145 H 297.372 6.91196 -0.726142 0
M  V30 3146 H 300.563 4.67674 -0.199687 0
M  V30 3147 H 300.736 6.4584 -0.528646 0
M  V30 3148 N 294.142 -0.090211 1.57342 0
M  V30 3149 C 295.382 -0.798365 1.88163 0
M  V30 3150 C 295.746 -1.75662 0.775046 0
M  V30 3151 O 296.947 -2.50849 0.965816 0
M  V30 3152 C 295.218 -1.50376 3.24225 0
M  V30 3153 S 296.777 -2.24952 3.76752 0
M  V30 3154 H 293.595 -0.265883 0.659414 0
M  V30 3155 H 296.197 -0.055264 1.95422 0
M  V30 3156 H 294.901 -0.792286 4.0268 0
M  V30 3157 H 294.432 -2.28666 3.20118 0
M  V30 3158 H 296.447 -3.51173 3.5056 0
M  V30 3159 N 295.62 -1.53406 -0.361157 0
M  V30 3160 C 296.869 -1.69022 -1.10066 0
M  V30 3161 C 297.182 -0.450838 -1.90333 0
M  V30 3162 O 298.388 -0.487617 -2.67085 0
M  V30 3163 C 296.844 -2.98812 -2.00598 0
M  V30 3164 C 296.452 -4.30027 -1.25621 0
M  V30 3165 C 298.196 -3.23795 -2.74513 0
M  V30 3166 C 296.103 -5.50903 -2.1508 0
M  V30 3167 H 295.033 -0.629776 -0.414606 0
M  V30 3168 H 297.684 -1.79907 -0.361348 0
M  V30 3169 H 296.066 -2.8174 -2.78278 0
M  V30 3170 H 297.24 -4.57745 -0.529739 0
M  V30 3171 H 295.555 -4.11522 -0.635496 0
M  V30 3172 H 298.152 -4.11289 -3.41681 0
M  V30 3173 H 298.495 -2.40045 -3.40123 0
M  V30 3174 H 299.028 -3.41561 -2.03914 0
M  V30 3175 H 295.767 -6.37143 -1.54041 0
M  V30 3176 H 295.287 -5.27459 -2.85565 0
M  V30 3177 H 296.966 -5.85865 -2.74538 0
M  V30 3178 N 297.098 0.621204 -1.44841 0
M  V30 3179 C 298.346 1.37783 -1.47852 0
M  V30 3180 C 298.667 1.94653 -0.116224 0
M  V30 3181 O 297.937 1.76367 0.852737 0
M  V30 3182 H 296.517 0.511453 -0.544449 0
M  V30 3183 H 299.179 0.730446 -1.80694 0
M  V30 3184 H 298.275 2.20414 -2.20961 0
M  V30 3185 N 298.576 1.31904 0.862503 0
M  V30 3186 C 299.992 1.10724 1.14945 0
M  V30 3187 C 300.192 -0.117421 2.01158 0
M  V30 3188 O 299.248 -0.804595 2.39338 0
M  V30 3189 C 300.561 2.38267 1.83437 0
M  V30 3190 C 302.109 2.43949 1.96106 0
M  V30 3191 C 302.584 3.71394 2.68013 0
M  V30 3192 N 304.075 3.72331 2.75543 0
M  V30 3193 C 304.81 4.67641 3.31812 0
M  V30 3194 N 304.306 5.73313 3.88953 0
M  V30 3195 N 306.099 4.5515 3.29841 0
M  V30 3196 H 298.25 2.10436 0.288191 0
M  V30 3197 H 300.513 0.928705 0.190292 0
M  V30 3198 H 300.219 3.27759 1.27542 0
M  V30 3199 H 300.093 2.48633 2.83657 0
M  V30 3200 H 302.48 1.54922 2.51164 0
M  V30 3201 H 302.561 2.37543 0.949059 0
M  V30 3202 H 302.205 4.60791 2.13621 0
M  V30 3203 H 302.135 3.75069 3.69636 0
M  V30 3204 H 304.626 2.95947 2.34997 0
M  V30 3205 H 304.939 6.42107 4.30022 0
M  V30 3206 H 303.284 5.77077 3.87308 0
M  V30 3207 H 306.475 3.71766 2.84443 0
M  V30 3208 H 306.648 5.29604 3.73394 0
M  V30 3209 N 300.054 -1.07777 1.14986 0
M  V30 3210 C 301.303 -1.79669 0.916617 0
M  V30 3211 C 301.616 -1.87474 -0.557917 0
M  V30 3212 O 302.822 -2.55845 -0.908617 0
M  V30 3213 C 301.278 -3.22848 1.59051 0
M  V30 3214 C 300.886 -3.23257 3.10176 0
M  V30 3215 C 302.63 -3.99379 1.43864 0
M  V30 3216 C 300.537 -4.61063 3.70372 0
M  V30 3217 H 299.467 -0.673349 0.33929 0
M  V30 3218 H 302.118 -1.21003 1.37951 0
M  V30 3219 H 300.5 -3.8168 1.0553 0
M  V30 3220 H 301.674 -2.74095 3.70417 0
M  V30 3221 H 299.989 -2.60222 3.25074 0
M  V30 3222 H 302.586 -5.0122 1.86232 0
M  V30 3223 H 302.929 -4.14511 0.385564 0
M  V30 3224 H 303.462 -3.47032 1.94457 0
M  V30 3225 H 300.201 -4.51135 4.7556 0
M  V30 3226 H 299.721 -5.1048 3.14913 0
M  V30 3227 H 301.4 -5.30034 3.71043 0
M  V30 3228 N 301.532 -0.945985 -1.26051 0
M  V30 3229 C 302.464 -0.416662 -2.25381 0
M  V30 3230 C 303.477 0.462712 -1.56086 0
M  V30 3231 O 304.666 0.272383 -1.7641 0
M  V30 3232 C 301.766 0.419812 -3.3629 0
M  V30 3233 C 300.939 -0.444531 -4.35135 0
M  V30 3234 C 299.998 0.332305 -5.2515 0
M  V30 3235 O 299.024 -0.266324 -5.68577 0
M  V30 3236 N 300.226 1.62763 -5.57215 0
M  V30 3237 H 302.991 -1.27059 -2.71433 0
M  V30 3238 H 300.552 -0.815392 -1.39868 0
M  V30 3239 H 302.544 0.947013 -3.93464 0
M  V30 3240 H 301.114 1.17456 -2.89694 0
M  V30 3241 H 300.334 -1.15291 -3.76964 0
M  V30 3242 H 301.622 -1.03478 -4.98166 0
M  V30 3243 H 301.02 2.13603 -5.23823 0
M  V30 3244 H 299.577 2.10097 -6.17011 0
M  V30 3245 N 303.011 1.40521 -0.713556 0
M  V30 3246 C 304.257 2.01714 -0.261382 0
M  V30 3247 C 304.612 1.55562 1.13217 0
M  V30 3248 O 303.905 0.764893 1.7567 0
M  V30 3249 C 304.099 3.56317 -0.278 0
M  V30 3250 C 303.928 4.17476 -1.67163 0
M  V30 3251 C 302.698 4.50998 -2.2788 0
M  V30 3252 C 304.896 4.42472 -2.6215 0
M  V30 3253 N 302.878 4.9754 -3.5962 0
M  V30 3254 C 304.249 4.90985 -3.78594 0
M  V30 3255 C 306.304 4.24508 -2.60188 0
M  V30 3256 C 305.007 5.2342 -4.9338 0
M  V30 3257 C 307.033 4.58043 -3.741 0
M  V30 3258 C 306.395 5.06743 -4.89276 0
M  V30 3259 H 302.494 0.769104 -0.141434 0
M  V30 3260 H 305.078 1.70785 -0.934915 0
M  V30 3261 H 303.249 3.8668 0.36509 0
M  V30 3262 H 304.981 4.0425 0.190695 0
M  V30 3263 H 301.736 4.38062 -1.79997 0
M  V30 3264 H 302.16 5.25196 -4.27198 0
M  V30 3265 H 306.802 3.86078 -1.72348 0
M  V30 3266 H 304.52 5.60765 -5.81866 0
M  V30 3267 H 308.106 4.45785 -3.73854 0
M  V30 3268 H 306.986 5.32204 -5.75959 0
M  V30 3269 N 304.489 0.459591 1.5075 0
M  V30 3270 C 305.714 -0.0996819 2.0716 0
M  V30 3271 C 306.139 -1.33761 1.32249 0
M  V30 3272 O 305.497 -1.77551 0.366786 0
M  V30 3273 C 305.545 -0.378226 3.58611 0
M  V30 3274 O 304.649 -1.46081 3.85661 0
M  V30 3275 H 303.99 0.00791392 0.663953 0
M  V30 3276 H 306.52 0.647329 1.9409 0
M  V30 3277 H 306.53 -0.622135 4.03229 0
M  V30 3278 H 305.205 0.526439 4.12555 0
M  V30 3279 H 303.782 -1.20511 3.5289 0
M  V30 3280 N 305.967 -1.56429 0.191757 0
M  V30 3281 C 306.915 -2.20273 -0.747174 0
M  V30 3282 C 307.909 -1.17288 -1.22229 0
M  V30 3283 O 309.115 -1.35441 -1.18557 0
M  V30 3284 H 305.49 -0.705885 -0.259289 0
M  V30 3285 H 307.461 -2.97826 -0.184963 0
M  V30 3286 C 306.21 -2.87356 -1.95759 0
M  V30 3287 H 305.533 -3.66341 -1.60106 0
M  V30 3288 H 306.973 -3.3547 -2.59299 0
M  V30 3289 C 305.432 -1.88213 -2.79423 0
M  V30 3290 O 305.962 -1.38033 -3.7724 0
M  V30 3291 N 304.168 -1.56516 -2.44849 0
M  V30 3292 H 303.715 -1.97516 -1.65364 0
M  V30 3293 H 303.673 -0.904369 -3.01112 0
M  V30 3294 N 307.445 0.0818655 -1.57387 0
M  V30 3295 C 308.375 1.09885 -2.06028 0
M  V30 3296 C 309.356 1.4098 -0.951774 0
M  V30 3297 O 310.541 1.50781 -1.22387 0
M  V30 3298 C 307.671 2.4151 -2.4958 0
M  V30 3299 C 306.625 2.24792 -3.64215 0
M  V30 3300 C 305.951 3.61712 -3.93787 0
M  V30 3301 C 307.251 1.67749 -4.94629 0
M  V30 3302 H 308.945 0.694128 -2.91243 0
M  V30 3303 H 306.491 0.332448 -1.4011 0
M  V30 3304 H 308.444 3.12939 -2.82219 0
M  V30 3305 H 307.168 2.83943 -1.61381 0
M  V30 3306 H 305.827 1.55807 -3.31843 0
M  V30 3307 H 305.475 4.01697 -3.02735 0
M  V30 3308 H 305.175 3.51368 -4.70971 0
M  V30 3309 H 306.699 4.34587 -4.28913 0
M  V30 3310 H 308.113 2.29032 -5.25564 0
M  V30 3311 H 306.51 1.68128 -5.76067 0
M  V30 3312 H 307.58 0.638059 -4.80684 0
M  V30 3313 N 308.923 1.53595 0.353017 0
M  V30 3314 C 309.855 1.77219 1.45348 0
M  V30 3315 C 310.868 0.65324 1.49119 0
M  V30 3316 O 312.057 0.929775 1.52373 0
M  V30 3317 C 309.157 1.84841 2.84055 0
M  V30 3318 C 308.33 3.14649 3.03833 0
M  V30 3319 C 307.389 3.13351 4.22727 0
M  V30 3320 O 306.415 3.87107 4.17297 0
M  V30 3321 N 307.617 2.35052 5.30783 0
M  V30 3322 H 310.382 2.72178 1.25457 0
M  V30 3323 H 307.943 1.52528 0.542833 0
M  V30 3324 H 309.935 1.81435 3.61751 0
M  V30 3325 H 308.505 0.971114 2.97133 0
M  V30 3326 H 307.725 3.31256 2.13689 0
M  V30 3327 H 309.013 4.00411 3.13925 0
M  V30 3328 H 308.411 1.74663 5.38061 0
M  V30 3329 H 306.968 2.37453 6.07009 0
M  V30 3330 N 310.401 -0.613514 1.45168 0
M  V30 3331 C 311.647 -1.37471 1.49096 0
M  V30 3332 C 311.98 -1.93765 0.129901 0
M  V30 3333 O 311.255 -1.74707 -0.854858 0
M  V30 3334 C 311.538 -2.52701 2.56542 0
M  V30 3335 C 311.391 -2.01643 4.0207 0
M  V30 3336 C 312.71 -3.54849 2.60327 0
M  V30 3337 H 309.829 -0.498502 0.54283 0
M  V30 3338 H 312.471 -0.692125 1.76945 0
M  V30 3339 H 310.621 -3.10931 2.32926 0
M  V30 3340 H 312.293 -1.48108 4.36877 0
M  V30 3341 H 310.536 -1.32688 4.13009 0
M  V30 3342 H 311.207 -2.84681 4.72928 0
M  V30 3343 H 313.683 -3.0645 2.81474 0
M  V30 3344 H 312.559 -4.32973 3.37381 0
M  V30 3345 H 312.82 -4.10079 1.6519 0
M  V30 3346 N 311.879 -1.3236 -0.855495 0
M  V30 3347 C 313.126 -1.22872 -1.60962 0
M  V30 3348 C 313.454 0.209658 -1.93367 0
M  V30 3349 O 312.709 1.16243 -1.57436 0
M  V30 3350 C 313.008 -2.03275 -2.93963 0
M  V30 3351 C 312.674 -3.5264 -2.80991 0
M  V30 3352 C 311.336 -3.93364 -2.7716 0
M  V30 3353 C 313.688 -4.47626 -2.66983 0
M  V30 3354 C 311.016 -5.27319 -2.572 0
M  V30 3355 C 313.368 -5.81723 -2.48558 0
M  V30 3356 C 312.032 -6.2165 -2.4312 0
M  V30 3357 H 311.302 -0.44962 -0.589001 0
M  V30 3358 H 313.949 -1.63777 -0.992442 0
M  V30 3359 H 312.254 -1.55095 -3.59795 0
M  V30 3360 H 313.951 -1.93303 -3.51333 0
M  V30 3361 H 310.541 -3.20295 -2.84797 0
M  V30 3362 H 314.725 -4.17084 -2.68988 0
M  V30 3363 H 309.981 -5.57311 -2.51424 0
M  V30 3364 H 314.155 -6.5494 -2.36699 0
M  V30 3365 H 311.782 -7.25388 -2.27412 0
M  V30 3366 N 313.357 1.07166 -1.15556 0
M  V30 3367 C 314.634 1.76546 -0.842069 0
M  V30 3368 C 315.014 2.00453 0.661939 0
M  V30 3369 O 314.362 1.62452 1.60691 0
M  V30 3370 C 314.572 3.07266 -1.65495 0
M  V30 3371 C 315.92 3.81578 -1.86234 0
M  V30 3372 O 316.944 3.17083 -1.62287 0
M  V30 3373 O 315.803 4.97419 -2.26355 0
M  V30 3374 H 312.897 0.766756 -0.309862 0
M  V30 3375 H 315.443 1.13514 -1.26145 0
M  V30 3376 H 314.215 2.85494 -2.67598 0
M  V30 3377 H 313.838 3.7803 -1.23203 0
M  V30 3378 N 314.835 0.952656 1.25548 0
M  V30 3379 C 315.798 0.475794 2.24207 0
M  V30 3380 C 316.798 -0.419428 1.55234 0
M  V30 3381 O 317.988 -0.216994 1.72843 0
M  V30 3382 C 315.12 -0.312814 3.39462 0
M  V30 3383 H 316.313 1.34779 2.67908 0
M  V30 3384 H 313.866 0.735739 1.37901 0
M  V30 3385 H 314.601 -1.20257 3.01179 0
M  V30 3386 H 314.386 0.329404 3.90714 0
M  V30 3387 H 315.876 -0.635986 4.12729 0
M  V30 3388 N 316.313 -1.40141 0.720998 0
M  V30 3389 C 317.729 -1.54632 0.395113 0
M  V30 3390 C 317.929 -1.69115 -1.09555 0
M  V30 3391 O 316.985 -1.68377 -1.88163 0
M  V30 3392 C 318.298 -2.77177 1.1659 0
M  V30 3393 C 319.846 -2.91 1.15274 0
M  V30 3394 C 320.321 -4.16465 1.90579 0
M  V30 3395 N 321.812 -4.23476 1.87675 0
M  V30 3396 C 322.547 -5.19475 2.42762 0
M  V30 3397 N 322.043 -6.21348 3.06428 0
M  V30 3398 N 323.836 -5.11592 2.32874 0
M  V30 3399 H 315.987 -1.28986 1.68749 0
M  V30 3400 H 318.25 -0.62412 0.713567 0
M  V30 3401 H 317.956 -2.72771 2.22011 0
M  V30 3402 H 317.83 -3.69442 0.76108 0
M  V30 3403 H 320.217 -2.94907 0.106702 0
M  V30 3404 H 320.298 -1.99838 1.59682 0
M  V30 3405 H 319.942 -4.1332 2.95176 0
M  V30 3406 H 319.872 -5.06646 1.43587 0
M  V30 3407 H 322.363 -3.50497 1.41281 0
M  V30 3408 H 322.676 -6.91034 3.45965 0
M  V30 3409 H 321.021 -6.21777 3.10514 0
M  V30 3410 H 324.212 -4.30936 1.82789 0
M  V30 3411 H 324.385 -5.86233 2.76106 0
M  V30 3412 N 317.792 -0.46758 -1.50504 0
M  V30 3413 C 319.017 0.0886943 -2.0721 0
M  V30 3414 C 319.442 1.33057 -1.32956 0
M  V30 3415 O 318.8 1.77354 -0.376197 0
M  V30 3416 C 318.848 0.359202 -3.58806 0
M  V30 3417 O 317.952 1.44034 -3.8643 0
M  V30 3418 H 317.293 -0.0114349 -0.663902 0
M  V30 3419 H 319.823 -0.657613 -1.93744 0
M  V30 3420 H 319.833 0.600742 -4.03553 0
M  V30 3421 H 318.508 -0.548311 -4.1227 0
M  V30 3422 H 317.085 1.18638 -3.53524 0
M  V30 3423 N 319.27 1.56325 -0.20005 0
M  V30 3424 C 320.51 1.99619 0.439519 0
M  V30 3425 C 320.874 1.08423 1.58456 0
M  V30 3426 O 322.075 1.40973 2.28867 0
M  V30 3427 C 320.346 3.46314 0.883258 0
M  V30 3428 S 321.905 4.11634 1.51997 0
M  V30 3429 H 318.723 0.697007 0.140363 0
M  V30 3430 H 321.325 1.93118 -0.304282 0
M  V30 3431 H 320.029 4.10381 0.0398967 0
M  V30 3432 H 319.56 3.56643 1.6604 0
M  V30 3433 H 321.575 4.09049 2.8088 0
M  V30 3434 N 320.748 -0.0735177 1.57428 0
M  V30 3435 C 321.973 -0.789787 1.91774 0
M  V30 3436 C 322.398 -1.70413 0.796306 0
M  V30 3437 O 321.756 -1.79555 -0.250961 0
M  V30 3438 C 321.804 -1.5609 3.25067 0
M  V30 3439 O 320.908 -2.67144 3.14178 0
M  V30 3440 H 320.249 -0.215582 0.628029 0
M  V30 3441 H 322.779 -0.0422781 2.04556 0
M  V30 3442 H 322.789 -1.94052 3.58898 0
M  V30 3443 H 321.464 -0.890015 4.06265 0
M  V30 3444 H 320.041 -2.32052 2.91901 0
M  V30 3445 N 322.226 -1.5378 -0.344866 0
M  V30 3446 C 323.454 -1.74899 -1.10534 0
M  V30 3447 C 323.869 -0.487534 -1.82397 0
M  V30 3448 O 323.226 0.540741 -1.74305 0
M  V30 3449 C 323.277 -2.92822 -2.11984 0
M  V30 3450 O 322.998 -4.14089 -1.43044 0
M  V30 3451 C 324.499 -3.25982 -3.00417 0
M  V30 3452 H 321.719 -0.584426 -0.329678 0
M  V30 3453 H 324.263 -2.006 -0.397474 0
M  V30 3454 H 322.418 -2.69457 -2.78338 0
M  V30 3455 H 322.832 -4.80272 -2.10805 0
M  V30 3456 H 324.306 -4.11848 -3.67539 0
M  V30 3457 H 324.783 -2.42228 -3.66363 0
M  V30 3458 H 325.389 -3.51349 -2.39654 0
M  V30 3459 N 323.704 0.605807 -1.45491 0
M  V30 3460 C 324.667 1.69836 -1.5391 0
M  V30 3461 C 325.667 1.55261 -0.418424 0
M  V30 3462 O 326.857 1.60296 -0.681965 0
M  V30 3463 C 323.989 3.09117 -1.43734 0
M  V30 3464 H 325.182 1.63738 -2.51257 0
M  V30 3465 H 322.735 0.821689 -1.32959 0
M  V30 3466 H 323.47 3.20791 -0.475788 0
M  V30 3467 H 323.255 3.21104 -2.25021 0
M  V30 3468 H 324.745 3.88696 -1.52661 0
M  V30 3469 N 325.182 1.32811 0.848464 0
M  V30 3470 C 326.598 1.11937 1.13764 0
M  V30 3471 C 326.798 -0.0960789 2.01271 0
M  V30 3472 O 325.854 -0.779165 2.40178 0
M  V30 3473 C 327.167 2.402 1.809 0
M  V30 3474 C 328.715 2.46016 1.93508 0
M  V30 3475 C 329.19 3.74215 2.64059 0
M  V30 3476 N 330.681 3.75232 2.71579 0
M  V30 3477 C 331.416 4.71134 3.26833 0
M  V30 3478 N 330.912 5.77406 3.8285 0
M  V30 3479 N 332.705 4.58623 3.24995 0
M  V30 3480 H 324.856 2.1073 0.265855 0
M  V30 3481 H 327.119 0.930671 0.180431 0
M  V30 3482 H 326.825 3.29093 1.24058 0
M  V30 3483 H 326.699 2.51628 2.81004 0
M  V30 3484 H 329.086 1.57577 2.49506 0
M  V30 3485 H 329.167 2.38536 0.923811 0
M  V30 3486 H 328.811 4.63031 2.08722 0
M  V30 3487 H 328.741 3.78968 3.65637 0
M  V30 3488 H 331.232 2.98423 2.31845 0
M  V30 3489 H 331.545 6.46632 4.23187 0
M  V30 3490 H 329.89 5.81152 3.81165 0
M  V30 3491 H 333.081 3.74762 2.80484 0
M  V30 3492 H 333.254 5.33535 3.67756 0
M  V30 3493 N 326.66 -1.06551 1.16123 0
M  V30 3494 C 327.57 -2.17484 0.879662 0
M  V30 3495 C 328.586 -1.73377 -0.147104 0
M  V30 3496 O 329.762 -2.01379 0.0289128 0
M  V30 3497 C 326.827 -3.44591 0.381829 0
M  V30 3498 C 325.888 -4.0322 1.4735 0
M  V30 3499 C 325.121 -5.24261 0.999324 0
M  V30 3500 O 325.344 -5.70198 -0.151957 0
M  V30 3501 O 324.278 -5.74775 1.78653 0
M  V30 3502 H 328.104 -2.44075 1.80724 0
M  V30 3503 H 325.689 -1.16042 0.940992 0
M  V30 3504 H 327.571 -4.21254 0.111053 0
M  V30 3505 H 326.246 -3.19532 -0.51777 0
M  V30 3506 H 325.153 -3.2806 1.79798 0
M  V30 3507 H 326.486 -4.32568 2.34831 0
M  V30 3508 N 328.138 -0.959301 -1.25041 0
M  V30 3509 C 329.071 -0.427418 -2.24161 0
M  V30 3510 C 330.049 0.493837 -1.54919 0
M  V30 3511 O 331.233 0.427144 -1.83597 0
M  V30 3512 C 328.36 0.383893 -3.36517 0
M  V30 3513 C 327.406 -0.478431 -4.23808 0
M  V30 3514 S 328.239 -1.91353 -5.00144 0
M  V30 3515 C 329.395 -1.11077 -6.15965 0
M  V30 3516 H 329.628 -1.26743 -2.6893 0
M  V30 3517 H 327.161 -0.763714 -1.34189 0
M  V30 3518 H 329.119 0.846039 -4.01687 0
M  V30 3519 H 327.78 1.19878 -2.90324 0
M  V30 3520 H 326.973 0.14406 -5.03794 0
M  V30 3521 H 326.575 -0.87597 -3.63597 0
M  V30 3522 H 328.867 -0.361699 -6.76534 0
M  V30 3523 H 329.81 -1.88472 -6.82557 0
M  V30 3524 H 330.218 -0.638843 -5.60873 0
M  V30 3525 N 329.616 1.39756 -0.72842 0
M  V30 3526 C 330.863 2.00645 -0.273487 0
M  V30 3527 C 331.191 1.57786 1.13727 0
M  V30 3528 O 330.446 0.794886 1.7883 0
M  V30 3529 C 330.745 3.56002 -0.315776 0
M  V30 3530 C 330.411 4.18489 -1.67863 0
M  V30 3531 C 329.073 4.3527 -2.05166 0
M  V30 3532 C 331.425 4.53219 -2.57375 0
M  V30 3533 C 328.753 4.84069 -3.31503 0
M  V30 3534 C 331.105 5.03423 -3.83077 0
M  V30 3535 C 329.769 5.18413 -4.20481 0
M  V30 3536 H 329.039 0.734211 -0.100076 0
M  V30 3537 H 331.686 1.6718 -0.933972 0
M  V30 3538 H 329.991 3.89452 0.428285 0
M  V30 3539 H 331.688 4.00963 0.0542575 0
M  V30 3540 H 328.278 4.05824 -1.37858 0
M  V30 3541 H 332.462 4.39878 -2.29827 0
M  V30 3542 H 327.718 4.93859 -3.60435 0
M  V30 3543 H 331.892 5.2927 -4.52599 0
M  V30 3544 H 329.519 5.55987 -5.18443 0
M  V30 3545 N 331.094 0.475555 1.50254 0
M  V30 3546 C 332.004 -0.321501 2.32387 0
M  V30 3547 C 333.02 -0.991755 1.42969 0
M  V30 3548 O 334.196 -0.978747 1.76018 0
M  V30 3549 C 331.261 -1.38667 3.17762 0
M  V30 3550 C 330.322 -0.732538 4.23004 0
M  V30 3551 C 329.555 -1.74695 5.04299 0
M  V30 3552 O 329.778 -2.97399 4.86734 0
M  V30 3553 O 328.712 -1.31631 5.8733 0
M  V30 3554 H 332.538 0.350071 3.01676 0
M  V30 3555 H 330.123 0.237321 1.47503 0
M  V30 3556 H 332.005 -2.00354 3.70724 0
M  V30 3557 H 330.68 -2.04163 2.51196 0
M  V30 3558 H 329.587 -0.0765902 3.74022 0
M  V30 3559 H 330.92 -0.120452 4.92053 0
M  V30 3560 N 332.573 -1.56217 0.208337 0
M  V30 3561 C 333.523 -2.16324 -0.720281 0
M  V30 3562 C 334.507 -1.10775 -1.16695 0
M  V30 3563 O 335.699 -1.36801 -1.12314 0
M  V30 3564 C 332.828 -2.83644 -1.93393 0
M  V30 3565 C 331.914 -3.96401 -1.50755 0
M  V30 3566 N 332.305 -4.99546 -0.792937 0
M  V30 3567 C 330.603 -4.08246 -1.79585 0
M  V30 3568 C 331.304 -5.78828 -0.577364 0
M  V30 3569 N 330.28 -5.31723 -1.1301 0
M  V30 3570 H 334.082 -2.93432 -0.165725 0
M  V30 3571 H 331.596 -1.62397 0.00906463 0
M  V30 3572 H 333.593 -3.25107 -2.60981 0
M  V30 3573 H 332.253 -2.08027 -2.49308 0
M  V30 3574 H 333.264 -5.15967 -0.447004 0
M  V30 3575 H 329.941 -3.4377 -2.36915 0
M  V30 3576 H 331.331 -6.71899 -0.00952956 0
M  V30 3577 N 334.051 0.0651679 -1.57465 0
M  V30 3578 C 335.3 0.761916 -1.86756 0
M  V30 3579 C 335.613 1.78406 -0.801925 0
M  V30 3580 O 336.819 2.53084 -0.982885 0
M  V30 3581 C 335.275 1.40603 -3.31299 0
M  V30 3582 C 334.883 0.422115 -4.46007 0
M  V30 3583 C 336.627 2.08476 -3.69781 0
M  V30 3584 C 334.534 1.07252 -5.81593 0
M  V30 3585 H 333.464 0.288308 -0.696702 0
M  V30 3586 H 336.115 0.015344 -1.83494 0
M  V30 3587 H 334.497 2.20109 -3.29193 0
M  V30 3588 H 335.671 -0.343613 -4.59517 0
M  V30 3589 H 333.986 -0.152527 -4.16121 0
M  V30 3590 H 336.583 2.57925 -4.68379 0
M  V30 3591 H 336.926 2.88712 -2.99919 0
M  V30 3592 H 337.459 1.35792 -3.73905 0
M  V30 3593 H 334.198 0.310342 -6.54765 0
M  V30 3594 H 333.718 1.80895 -5.71872 0
M  V30 3595 H 335.397 1.59043 -6.27148 0
M  V30 3596 N 335.529 1.53961 0.336706 0
M  V30 3597 C 336.769 1.73254 1.08454 0
M  V30 3598 C 337.133 0.488937 1.8567 0
M  V30 3599 O 338.334 0.559001 2.62923 0
M  V30 3600 C 336.605 2.96519 1.99528 0
M  V30 3601 S 338.164 3.36655 2.81441 0
M  V30 3602 H 334.982 0.609353 0.366347 0
M  V30 3603 H 337.584 1.92117 0.362124 0
M  V30 3604 H 336.288 3.85193 1.41614 0
M  V30 3605 H 335.819 2.80142 2.76196 0
M  V30 3606 H 337.834 2.90925 4.01967 0
M  V30 3607 N 337.007 -0.598083 1.45811 0
M  V30 3608 C 338.423 -0.919847 1.30426 0
M  V30 3609 C 338.623 -1.99759 0.264303 0
M  V30 3610 O 337.679 -2.50221 -0.338472 0
M  V30 3611 C 338.992 -1.35176 2.68603 0
M  V30 3612 C 340.54 -1.46546 2.76574 0
M  V30 3613 C 341.015 -1.9311 4.15298 0
M  V30 3614 N 342.506 -2.00328 4.1764 0
M  V30 3615 C 343.241 -2.37599 5.21856 0
M  V30 3616 N 342.737 -2.73771 6.36413 0
M  V30 3617 N 344.53 -2.38021 5.09218 0
M  V30 3618 H 336.681 0.114111 2.12093 0
M  V30 3619 H 338.944 -0.0116121 0.947929 0
M  V30 3620 H 338.65 -0.633969 3.45939 0
M  V30 3621 H 338.524 -2.3164 2.97696 0
M  V30 3622 H 340.911 -2.17415 1.99537 0
M  V30 3623 H 340.992 -0.483727 2.51185 0
M  V30 3624 H 340.636 -1.22824 4.92825 0
M  V30 3625 H 340.566 -2.92213 4.38086 0
M  V30 3626 H 343.057 -1.74925 3.34977 0
M  V30 3627 H 343.37 -3.0112 7.11721 0
M  V30 3628 H 341.715 -2.71445 6.39799 0
M  V30 3629 H 344.906 -2.09174 4.18765 0
M  V30 3630 H 345.079 -2.66741 5.90554 0
M  V30 3631 N 338.485 -1.33259 -0.841409 0
M  V30 3632 C 339.435 -1.19872 -1.93945 0
M  V30 3633 C 340.419 -0.102269 -1.60575 0
M  V30 3634 O 341.611 -0.330114 -1.73894 0
M  V30 3635 C 338.74 -0.937517 -3.30251 0
M  V30 3636 C 337.826 -2.07629 -3.69799 0
M  V30 3637 N 338.217 -3.32604 -3.81062 0
M  V30 3638 C 336.515 -1.98242 -3.9952 0
M  V30 3639 C 337.216 -4.07275 -4.15333 0
M  V30 3640 N 336.192 -3.35691 -4.27566 0
M  V30 3641 H 339.994 -2.14604 -2.00805 0
M  V30 3642 H 337.508 -1.2523 -1.03398 0
M  V30 3643 H 339.505 -0.822545 -4.08705 0
M  V30 3644 H 338.165 0.00128798 -3.247 0
M  V30 3645 H 339.176 -3.67382 -3.65035 0
M  V30 3646 H 335.853 -1.12005 -4.02195 0
M  V30 3647 H 337.243 -5.1511 -4.31406 0
M  V30 3648 N 339.963 1.05934 -1.16686 0
M  V30 3649 C 341.209 1.79065 -0.95203 0
M  V30 3650 C 341.542 1.87147 0.518629 0
M  V30 3651 O 340.817 1.36574 1.38484 0
M  V30 3652 C 341.1 3.23359 -1.58464 0
M  V30 3653 C 340.953 3.23336 -3.12689 0
M  V30 3654 C 342.272 4.21004 -1.28232 0
M  V30 3655 H 339.391 0.65005 -0.34728 0
M  V30 3656 H 342.033 1.23868 -1.44072 0
M  V30 3657 H 340.183 3.70493 -1.16908 0
M  V30 3658 H 341.855 2.84336 -3.6325 0
M  V30 3659 H 340.098 2.61886 -3.4583 0
M  V30 3660 H 340.769 4.25144 -3.52075 0
M  V30 3661 H 343.245 3.8233 -1.64203 0
M  V30 3662 H 342.121 5.20225 -1.75092 0
M  V30 3663 H 342.382 4.41639 -0.201791 0
M  V30 3664 N 341.441 0.965919 1.2453 0
M  V30 3665 C 342.857 0.67216 1.44756 0
M  V30 3666 C 343.057 -0.766609 1.86347 0
M  V30 3667 O 342.113 -1.5407 2.00047 0
M  V30 3668 C 343.426 1.65473 2.51076 0
M  V30 3669 C 344.974 1.66716 2.64905 0
M  V30 3670 C 345.449 2.63766 3.74421 0
M  V30 3671 N 346.94 2.62198 3.81846 0
M  V30 3672 C 347.675 3.33966 4.66106 0
M  V30 3673 N 347.171 4.15245 5.54566 0
M  V30 3674 N 348.964 3.22799 4.60171 0
M  V30 3675 H 341.115 1.89553 0.958293 0
M  V30 3676 H 343.378 0.815979 0.482579 0
M  V30 3677 H 343.084 2.68296 2.27399 0
M  V30 3678 H 342.958 1.4261 3.49202 0
M  V30 3679 H 345.345 0.646057 2.87941 0
M  V30 3680 H 345.426 1.93642 1.67142 0
M  V30 3681 H 345.07 3.6601 3.52135 0
M  V30 3682 H 345 2.34121 4.71694 0
M  V30 3683 H 347.491 2.032 3.18619 0
M  V30 3684 H 347.804 4.66898 6.15814 0
M  V30 3685 H 346.149 4.1934 5.54237 0
M  V30 3686 H 349.34 2.58764 3.90075 0
M  V30 3687 H 349.513 3.78994 5.25612 0
M  V30 3688 N 342.919 -1.39368 0.735821 0
M  V30 3689 C 344.149 -2.04498 0.293967 0
M  V30 3690 C 344.557 -1.55593 -1.07645 0
M  V30 3691 O 343.9 -0.716324 -1.69158 0
M  V30 3692 C 343.962 -3.58836 0.218342 0
M  V30 3693 C 343.626 -4.30721 1.52736 0
M  V30 3694 C 344.623 -4.57305 2.47322 0
M  V30 3695 C 342.308 -4.69251 1.79189 0
M  V30 3696 C 344.302 -5.21429 3.66593 0
M  V30 3697 C 341.989 -5.33104 2.98737 0
M  V30 3698 C 342.987 -5.59125 3.9226 0
M  V30 3699 O 342.675 -6.21653 5.09708 0
M  V30 3700 H 342.407 -0.664118 0.126189 0
M  V30 3701 H 344.961 -1.79385 1.00051 0
M  V30 3702 H 343.191 -3.8285 -0.544314 0
M  V30 3703 H 344.88 -4.05447 -0.191626 0
M  V30 3704 H 345.646 -4.27983 2.28156 0
M  V30 3705 H 341.525 -4.48354 1.07239 0
M  V30 3706 H 345.069 -5.41656 4.39607 0
M  V30 3707 H 340.966 -5.61846 3.17803 0
M  V30 3708 H 341.734 -6.40146 5.10054 0
M  V30 3709 N 344.397 -0.483516 -1.5 0
M  V30 3710 C 345.622 0.0667119 -2.07293 0
M  V30 3711 C 346.047 1.3164 -1.3436 0
M  V30 3712 O 345.405 1.76945 -0.394987 0
M  V30 3713 C 345.453 0.321126 -3.59167 0
M  V30 3714 O 344.557 1.39927 -3.87936 0
M  V30 3715 H 343.898 -0.0184758 -0.663743 0
M  V30 3716 H 346.428 -0.678125 -1.93035 0
M  V30 3717 H 346.438 0.557906 -4.04168 0
M  V30 3718 H 345.113 -0.592007 -4.11665 0
M  V30 3719 H 343.69 1.14882 -3.54763 0
M  V30 3720 N 345.875 1.56104 -0.216619 0
M  V30 3721 C 347.103 2.02563 0.421413 0
M  V30 3722 C 347.518 1.0965 1.53695 0
M  V30 3723 O 346.875 0.10521 1.82196 0
M  V30 3724 C 346.926 3.48584 0.957665 0
M  V30 3725 O 346.647 4.37953 -0.113389 0
M  V30 3726 C 348.148 4.10664 1.66943 0
M  V30 3727 H 345.368 0.662944 0.103665 0
M  V30 3728 H 347.912 2.01793 -0.331629 0
M  V30 3729 H 346.067 3.49985 1.661 0
M  V30 3730 H 346.481 5.23704 0.288932 0
M  V30 3731 H 347.955 5.14622 1.99671 0
M  V30 3732 H 348.432 3.55373 2.58083 0
M  V30 3733 H 349.038 4.13098 1.01142 0
M  V30 3734 N 347.353 -0.0568162 1.57498 0
M  V30 3735 C 348.301 -1.08452 2.05769 0
M  V30 3736 C 349.295 -1.39164 0.965903 0
M  V30 3737 O 350.501 -1.38395 1.15095 0
M  V30 3738 H 346.876 -0.367148 0.656282 0
M  V30 3739 H 348.847 -0.651368 2.91204 0
M  V30 3740 C 347.596 -2.38543 2.52968 0
M  V30 3741 H 346.919 -2.15765 3.36579 0
M  V30 3742 H 348.359 -3.08863 2.90481 0
M  V30 3743 C 346.818 -3.05562 1.41893 0
M  V30 3744 O 347.348 -3.94262 0.769442 0
M  V30 3745 N 345.554 -2.6643 1.16032 0
M  V30 3746 H 345.101 -1.94387 1.6903 0
M  V30 3747 H 345.059 -3.11593 0.419219 0
M  V30 3748 N 348.832 -1.54138 -0.328536 0
M  V30 3749 C 349.78 -1.83894 -1.42428 0
M  V30 3750 C 350.774 -0.710478 -1.53781 0
M  V30 3751 O 351.98 -0.894062 -1.56226 0
M  V30 3752 H 348.355 -0.582837 -0.475189 0
M  V30 3753 H 350.326 -2.75537 -1.14552 0
M  V30 3754 C 349.075 -2.07866 -2.78724 0
M  V30 3755 H 348.398 -2.94158 -2.7076 0
M  V30 3756 H 349.838 -2.32644 -3.54476 0
M  V30 3757 C 348.297 -0.868689 -3.25508 0
M  V30 3758 O 348.827 -0.0754908 -4.01629 0
M  V30 3759 N 347.033 -0.681711 -2.82491 0
M  V30 3760 H 346.58 -1.32838 -2.20708 0
M  V30 3761 H 346.538 0.126374 -3.14146 0
M  V30 3762 N 350.31 0.590341 -1.46126 0
M  V30 3763 C 351.558 1.34616 -1.50742 0
M  V30 3764 C 351.879 1.94363 -0.157486 0
M  V30 3765 O 351.149 1.78136 0.815136 0
M  V30 3766 H 349.729 0.499789 -0.555175 0
M  V30 3767 H 352.391 0.691953 -1.82203 0
M  V30 3768 H 351.487 2.15678 -2.25587 0
M  V30 3769 N 351.788 1.33704 0.83433 0
M  V30 3770 C 352.736 1.24323 1.96587 0
M  V30 3771 C 353.73 0.143659 1.6879 0
M  V30 3772 O 354.936 0.30791 1.77347 0
M  V30 3773 H 351.311 0.385925 0.645419 0
M  V30 3774 H 353.282 2.19978 2.01624 0
M  V30 3775 C 352.031 1.00394 3.32891 0
M  V30 3776 H 351.354 1.84231 3.54822 0
M  V30 3777 H 352.794 0.97862 4.12552 0
M  V30 3778 C 351.253 -0.293047 3.35623 0
M  V30 3779 O 351.783 -1.29823 3.80143 0
M  V30 3780 N 349.989 -0.322174 2.88809 0
M  V30 3781 H 349.536 0.496379 2.52772 0
M  V30 3782 H 349.494 -1.18977 2.91019 0
M  V30 3783 N 353.266 -1.05314 1.17247 0
M  V30 3784 C 354.515 -1.77685 0.954521 0
M  V30 3785 C 354.828 -1.88616 -0.518025 0
M  V30 3786 O 356.034 -2.57714 -0.854144 0
M  V30 3787 C 354.49 -3.19402 1.65863 0
M  V30 3788 C 354.098 -3.16605 3.16963 0
M  V30 3789 C 355.842 -3.96237 1.52303 0
M  V30 3790 C 353.749 -4.53103 3.80068 0
M  V30 3791 H 352.679 -0.666 0.353496 0
M  V30 3792 H 355.33 -1.1805 1.40486 0
M  V30 3793 H 353.712 -3.79355 1.13602 0
M  V30 3794 H 354.886 -2.66176 3.76148 0
M  V30 3795 H 353.201 -2.53268 3.30521 0
M  V30 3796 H 355.798 -4.97157 1.96822 0
M  V30 3797 H 356.141 -4.136 0.473401 0
M  V30 3798 H 356.674 -3.42829 2.01775 0
M  V30 3799 H 353.413 -4.40946 4.85023 0
M  V30 3800 H 352.933 -5.03686 3.2567 0
M  V30 3801 H 354.612 -5.22045 3.82202 0
M  V30 3802 N 354.744 -0.972509 -1.24016 0
M  V30 3803 C 356.16 -0.679827 -1.44397 0
M  V30 3804 C 356.36 0.756716 -1.86751 0
M  V30 3805 O 355.416 1.53007 -2.00861 0
M  V30 3806 C 356.729 -1.66803 -2.50195 0
M  V30 3807 C 358.277 -1.68119 -2.64017 0
M  V30 3808 C 358.752 -2.65748 -3.73017 0
M  V30 3809 N 360.243 -2.64219 -3.8045 0
M  V30 3810 C 360.978 -3.36433 -4.64328 0
M  V30 3811 N 360.474 -4.1818 -5.52356 0
M  V30 3812 N 362.267 -3.25235 -4.58453 0
M  V30 3813 H 354.418 -1.90059 -0.948228 0
M  V30 3814 H 356.681 -0.818527 -0.478245 0
M  V30 3815 H 356.387 -2.69498 -2.25973 0
M  V30 3816 H 356.261 -1.4446 -3.48441 0
M  V30 3817 H 358.648 -0.661319 -2.87594 0
M  V30 3818 H 358.729 -1.94525 -1.66113 0
M  V30 3819 H 358.373 -3.67872 -3.50189 0
M  V30 3820 H 358.303 -2.36619 -4.70446 0
M  V30 3821 H 360.794 -2.04887 -3.17537 0
M  V30 3822 H 361.107 -4.70157 -6.13329 0
M  V30 3823 H 359.452 -4.22273 -5.52006 0
M  V30 3824 H 362.643 -2.60829 -3.88698 0
M  V30 3825 H 362.816 -3.81776 -5.23594 0
M  V30 3826 N 356.222 1.38976 -0.743202 0
M  V30 3827 C 357.447 2.05161 -0.303936 0
M  V30 3828 C 357.872 1.55677 1.05576 0
M  V30 3829 O 357.23 0.704131 1.67068 0
M  V30 3830 C 357.278 3.59138 -0.324373 0
M  V30 3831 O 356.382 4.06668 0.685204 0
M  V30 3832 H 355.723 0.649815 -0.136518 0
M  V30 3833 H 358.253 1.77852 -1.01142 0
M  V30 3834 H 358.263 4.07639 -0.171618 0
M  V30 3835 H 356.938 3.94515 -1.31647 0
M  V30 3836 H 355.515 3.69561 0.497913 0
M  V30 3837 N 357.7 0.491464 1.49741 0
M  V30 3838 C 358.663 -0.280906 2.27472 0
M  V30 3839 C 359.663 -0.902454 1.33088 0
M  V30 3840 O 360.853 -0.768465 1.56334 0
M  V30 3841 C 357.985 -1.40209 3.10732 0
M  V30 3842 H 359.178 0.401056 2.97206 0
M  V30 3843 H 356.731 0.246131 1.5435 0
M  V30 3844 H 357.466 -2.11849 2.45541 0
M  V30 3845 H 357.251 -0.961969 3.80117 0
M  V30 3846 H 358.741 -1.9464 3.69466 0
M  V30 3847 N 359.178 -1.55987 0.224894 0
M  V30 3848 C 360.427 -1.97566 -0.406273 0
M  V30 3849 C 360.74 -1.11569 -1.6066 0
M  V30 3850 O 361.946 -1.43062 -2.3075 0
M  V30 3851 C 360.402 -3.51474 -0.774207 0
M  V30 3852 C 360.01 -4.46179 0.403496 0
M  V30 3853 C 361.754 -4.01758 -1.37079 0
M  V30 3854 C 359.661 -5.91399 0.0129412 0
M  V30 3855 H 358.591 -0.737777 -0.155565 0
M  V30 3856 H 361.242 -1.80659 0.321635 0
M  V30 3857 H 359.624 -3.63994 -1.55963 0
M  V30 3858 H 360.798 -4.45409 1.18101 0
M  V30 3859 H 359.113 -4.06255 0.913536 0
M  V30 3860 H 361.71 -5.07756 -1.67596 0
M  V30 3861 H 362.053 -3.47805 -2.28773 0
M  V30 3862 H 362.586 -3.92475 -0.648733 0
M  V30 3863 H 359.325 -6.49341 0.896451 0
M  V30 3864 H 358.845 -5.95356 -0.728821 0
M  V30 3865 H 360.524 -6.45683 -0.412582 0
M  V30 3866 N 360.656 0.0484629 -1.57525 0
M  V30 3867 C 361.884 0.755421 -1.92616 0
M  V30 3868 C 362.299 1.69919 -0.822984 0
M  V30 3869 O 361.656 1.81378 0.202085 0
M  V30 3870 C 361.707 1.52915 -3.27566 0
M  V30 3871 O 361.428 0.62329 -4.33644 0
M  V30 3872 C 362.929 2.33502 -3.76818 0
M  V30 3873 H 360.149 0.213465 -0.63614 0
M  V30 3874 H 362.693 0.0117698 -2.04497 0
M  V30 3875 H 360.848 2.22486 -3.17142 0
M  V30 3876 H 361.262 1.16383 -5.11425 0
M  V30 3877 H 362.736 2.83214 -4.73808 0
M  V30 3878 H 363.213 3.14068 -3.07014 0
M  V30 3879 H 363.819 1.69043 -3.90262 0
M  V30 3880 N 362.134 1.5431 0.320358 0
M  V30 3881 C 363.38 1.72924 1.05949 0
M  V30 3882 C 363.713 0.503185 1.87568 0
M  V30 3883 O 362.988 -0.499839 1.87968 0
M  V30 3884 C 363.271 3.00676 1.98156 0
M  V30 3885 C 363.124 4.3354 1.19845 0
M  V30 3886 C 364.443 3.24198 2.9763 0
M  V30 3887 H 361.562 0.629195 0.383774 0
M  V30 3888 H 364.204 1.87008 0.335854 0
M  V30 3889 H 362.354 2.888 2.59859 0
M  V30 3890 H 364.026 4.57305 0.605773 0
M  V30 3891 H 362.269 4.309 0.500784 0
M  V30 3892 H 362.94 5.19156 1.87567 0
M  V30 3893 H 365.416 3.35557 2.4605 0
M  V30 3894 H 364.292 4.14938 3.59329 0
M  V30 3895 H 364.553 2.41577 3.7026 0
M  V30 3896 N 363.613 -0.582584 1.46437 0
M  V30 3897 C 364.86 -1.34079 1.51753 0
M  V30 3898 C 365.188 -1.93762 0.169299 0
M  V30 3899 O 364.443 -1.76989 -0.835062 0
M  V30 3900 C 364.742 -2.48964 2.56421 0
M  V30 3901 C 364.408 -2.07273 4.00436 0
M  V30 3902 C 363.07 -1.95618 4.39644 0
M  V30 3903 C 365.422 -1.75111 4.90903 0
M  V30 3904 C 362.75 -1.5006 5.67185 0
M  V30 3905 C 365.102 -1.31032 6.18881 0
M  V30 3906 C 363.766 -1.17954 6.56996 0
M  V30 3907 H 363.036 -0.49063 0.555304 0
M  V30 3908 H 365.683 -0.656007 1.79913 0
M  V30 3909 H 363.988 -3.22889 2.21923 0
M  V30 3910 H 365.685 -3.07178 2.57765 0
M  V30 3911 H 362.275 -2.17279 3.69443 0
M  V30 3912 H 366.459 -1.83001 4.61329 0
M  V30 3913 H 361.715 -1.38577 5.95488 0
M  V30 3914 H 365.889 -1.052 6.88408 0
M  V30 3915 H 363.516 -0.824279 7.55718 0
M  V30 3916 N 365.091 -1.34144 -0.827227 0
M  V30 3917 C 366.502 -1.23557 -1.39966 0
M  V30 3918 C 366.853 0.140731 -1.95695 0
M  V30 3919 O 365.978 1.04087 -1.89723 0
M  V30 3920 C 366.573 -2.23708 -2.54441 0
M  V30 3921 C 365.132 -2.16924 -3.07605 0
M  V30 3922 C 364.279 -2.10549 -1.80456 0
M  V30 3923 H 367.23 -1.45573 -0.631991 0
M  V30 3924 H 367.251 -1.85157 -3.32411 0
M  V30 3925 H 366.763 -3.23866 -2.13851 0
M  V30 3926 H 364.864 -1.20107 -3.52711 0
M  V30 3927 H 364.977 -3.07988 -3.66988 0
M  V30 3928 H 363.341 -1.56203 -2.01178 0
M  V30 3929 H 364.124 -3.12535 -1.42046 0
M  V30 3930 N 366.569 1.04691 -1.17803 0
M  V30 3931 C 367.501 2.12571 -0.857097 0
M  V30 3932 C 368.514 1.62174 0.142647 0
M  V30 3933 O 369.703 1.78301 -0.0843387 0
M  V30 3934 C 366.803 3.37915 -0.258216 0
M  V30 3935 C 365.976 4.1757 -1.30207 0
M  V30 3936 C 365.035 5.2125 -0.720029 0
M  V30 3937 O 364.061 5.51888 -1.39314 0
M  V30 3938 N 365.263 5.78466 0.485507 0
M  V30 3939 H 368.028 2.40698 -1.78562 0
M  V30 3940 H 365.589 1.20831 -1.07757 0
M  V30 3941 H 367.581 4.04442 0.144584 0
M  V30 3942 H 366.151 3.07281 0.574199 0
M  V30 3943 H 365.371 3.46458 -1.88043 0
M  V30 3944 H 366.659 4.67586 -2.00601 0
M  V30 3945 H 366.057 5.55866 1.05022 0
M  V30 3946 H 364.614 6.4649 0.830307 0
M  V30 3947 N 368.047 0.979072 1.23499 0
M  V30 3948 C 369.463 0.687475 1.44034 0
M  V30 3949 C 369.663 -0.746801 1.8715 0
M  V30 3950 O 368.719 -1.51939 2.0167 0
M  V30 3951 C 370.032 1.68127 2.49307 0
M  V30 3952 C 371.58 1.69516 2.63122 0
M  V30 3953 C 372.055 2.67723 3.71603 0
M  V30 3954 N 373.546 2.66233 3.79044 0
M  V30 3955 C 374.281 3.38891 4.62537 0
M  V30 3956 N 373.777 4.21103 5.50131 0
M  V30 3957 N 375.57 3.27661 4.56721 0
M  V30 3958 H 367.721 1.90559 0.938135 0
M  V30 3959 H 369.984 0.821051 0.473897 0
M  V30 3960 H 369.69 2.70693 2.2454 0
M  V30 3961 H 369.564 1.46306 3.4767 0
M  V30 3962 H 371.951 0.676561 2.8724 0
M  V30 3963 H 372.032 1.95404 1.65079 0
M  V30 3964 H 371.676 3.69724 3.48233 0
M  V30 3965 H 371.606 2.39111 4.69184 0
M  V30 3966 H 374.097 2.06568 3.16446 0
M  V30 3967 H 374.41 4.73403 6.10827 0
M  V30 3968 H 372.755 4.25195 5.49759 0
M  V30 3969 H 375.946 2.62887 3.87309 0
M  V30 3970 H 376.119 3.84547 5.21562 0
M  V30 3971 N 369.525 -1.3858 0.750561 0
M  V30 3972 C 370.75 -2.04997 0.314812 0
M  V30 3973 C 371.175 -1.56235 -1.04749 0
M  V30 3974 O 370.533 -0.712981 -1.66692 0
M  V30 3975 C 370.581 -3.58961 0.343415 0
M  V30 3976 O 369.685 -4.07025 -0.663628 0
M  V30 3977 H 369.026 -0.649081 0.139962 0
M  V30 3978 H 371.556 -1.77313 1.02084 0
M  V30 3979 H 371.566 -4.07542 0.193233 0
M  V30 3980 H 370.241 -3.93811 1.33738 0
M  V30 3981 H 368.818 -3.6982 -0.478307 0
M  V30 3982 N 371.003 -0.499398 -1.49478 0
M  V30 3983 C 372.28 0.108629 -1.95298 0
M  V30 3984 C 372.66 1.54282 -1.44084 0
M  V30 3985 O 372.008 2.18944 -0.653908 0
M  V30 3986 C 372.218 0.0229111 -3.48992 0
M  V30 3987 C 373.566 0.197643 -4.2414 0
M  V30 3988 O 374.59 0.0981735 -3.56065 0
M  V30 3989 O 373.449 0.401669 -5.45022 0
M  V30 3990 H 370.543 0.096181 -0.821388 0
M  V30 3991 H 373.089 -0.561822 -1.6013 0
M  V30 3992 H 371.861 -0.977321 -3.78899 0
M  V30 3993 H 371.484 0.733579 -3.90774 0
M  V30 3994 N 372.481 1.55866 -0.233164 0
M  V30 3995 C 373.729 1.9821 0.394593 0
M  V30 3996 C 374.05 1.12234 1.59463 0
M  V30 3997 O 373.32 0.201981 1.94856 0
M  V30 3998 H 371.9 0.732034 0.148778 0
M  V30 3999 H 374.562 1.92107 -0.32876 0
M  V30 4000 H 373.658 3.03845 0.713063 0
M  V30 4001 N 373.959 -0.0401083 1.57549 0
M  V30 4002 C 374.906 -1.04413 2.05831 0
M  V30 4003 C 375.876 -1.36585 0.945184 0
M  V30 4004 O 377.061 -1.47112 1.21502 0
M  V30 4005 C 374.201 -2.34336 2.53339 0
M  V30 4006 C 373.314 -2.08419 3.78398 0
M  V30 4007 C 372.449 -3.32133 4.14561 0
M  V30 4008 C 371.488 -3.01721 5.3257 0
M  V30 4009 N 370.625 -4.17855 5.64218 0
M  V30 4010 H 375.465 -0.625442 2.91363 0
M  V30 4011 H 373.002 -0.297218 1.44066 0
M  V30 4012 H 374.96 -3.10234 2.78946 0
M  V30 4013 H 373.59 -2.73948 1.7074 0
M  V30 4014 H 372.642 -1.23069 3.59942 0
M  V30 4015 H 373.954 -1.81978 4.64419 0
M  V30 4016 H 373.108 -4.16406 4.41238 0
M  V30 4017 H 371.847 -3.61678 3.2717 0
M  V30 4018 H 370.852 -2.15849 5.05657 0
M  V30 4019 H 372.077 -2.73466 6.21605 0
M  V30 4020 H 370.023 -4.47372 4.79786 0
M  V30 4021 H 369.94 -3.94798 6.44725 0
M  V30 4022 H 371.208 -5.03033 5.95465 0
M  V30 4023 N 375.437 -1.54477 -0.31217 0
M  V30 4024 C 376.387 -1.81037 -1.38598 0
M  V30 4025 C 377.371 -0.666941 -1.46426 0
M  V30 4026 O 378.563 -0.927269 -1.50767 0
M  V30 4027 C 375.692 -2.05127 -2.75277 0
M  V30 4028 C 374.778 -3.25624 -2.71716 0
M  V30 4029 N 375.169 -4.46428 -2.37773 0
M  V30 4030 C 373.467 -3.27427 -3.02833 0
M  V30 4031 C 374.168 -5.28406 -2.43232 0
M  V30 4032 N 373.144 -4.6586 -2.80135 0
M  V30 4033 H 376.946 -2.7201 -1.11301 0
M  V30 4034 H 374.46 -1.53826 -0.520705 0
M  V30 4035 H 376.457 -2.22299 -3.52688 0
M  V30 4036 H 375.117 -1.15416 -3.03495 0
M  V30 4037 H 376.128 -4.73227 -2.1042 0
M  V30 4038 H 372.805 -2.47786 -3.36018 0
M  V30 4039 H 374.195 -6.34903 -2.19882 0
M  V30 4040 N 376.915 0.57481 -1.46744 0
M  V30 4041 C 378.192 1.3352 -1.4294 0
M  V30 4042 C 378.572 2.10775 -0.117009 0
M  V30 4043 O 377.92 2.09966 0.901474 0
M  V30 4044 C 378.13 2.25456 -2.66403 0
M  V30 4045 C 379.478 2.87035 -3.12883 0
M  V30 4046 O 380.502 2.35766 -2.67007 0
M  V30 4047 O 379.361 3.80179 -3.92589 0
M  V30 4048 H 376.455 0.600318 -0.568812 0
M  V30 4049 H 379.001 0.595171 -1.58921 0
M  V30 4050 H 377.773 1.67851 -3.53471 0
M  V30 4051 H 377.396 3.06785 -2.52921 0
M  V30 4052 N 378.394 1.34581 0.820102 0
M  V30 4053 C 379.641 1.27096 1.57648 0
M  V30 4054 C 379.969 -0.158317 1.93855 0
M  V30 4055 O 379.224 -1.12028 1.60463 0
M  V30 4056 C 379.523 2.10997 2.8847 0
M  V30 4057 C 379.189 3.59966 2.71543 0
M  V30 4058 C 377.851 4.00575 2.66634 0
M  V30 4059 C 380.203 4.54548 2.55021 0
M  V30 4060 C 377.531 5.33953 2.43128 0
M  V30 4061 C 379.883 5.88109 2.33047 0
M  V30 4062 C 378.547 6.27878 2.26552 0
M  V30 4063 H 377.817 0.465078 0.576874 0
M  V30 4064 H 380.464 1.6635 0.948671 0
M  V30 4065 H 378.769 1.6458 3.55557 0
M  V30 4066 H 380.466 2.0255 3.46084 0
M  V30 4067 H 377.056 3.27733 2.76205 0
M  V30 4068 H 381.24 4.24069 2.57835 0
M  V30 4069 H 376.496 5.63781 2.3656 0
M  V30 4070 H 380.67 6.60985 2.19251 0
M  V30 4071 H 378.297 7.31162 2.081 0
M  V30 4072 N 379.872 -1.04064 1.18357 0
M  V30 4073 C 381.288 -1.2947 0.933258 0
M  V30 4074 C 381.488 -1.97466 -0.401169 0
M  V30 4075 O 380.544 -2.25528 -1.13549 0
M  V30 4076 C 381.857 -2.15337 2.09882 0
M  V30 4077 C 383.405 -2.28683 2.13712 0
M  V30 4078 C 383.88 -3.17917 3.29686 0
M  V30 4079 N 385.371 -3.25504 3.29547 0
M  V30 4080 C 386.106 -3.94706 4.15926 0
M  V30 4081 N 385.602 -4.66239 5.12439 0
M  V30 4082 N 387.395 -3.90986 4.0384 0
M  V30 4083 H 379.546 -0.583359 2.04232 0
M  V30 4084 H 381.809 -0.319921 0.892387 0
M  V30 4085 H 381.515 -1.72682 3.06389 0
M  V30 4086 H 381.389 -3.16015 2.05947 0
M  V30 4087 H 383.776 -2.70575 1.17784 0
M  V30 4088 H 383.857 -1.27596 2.21705 0
M  V30 4089 H 383.501 -2.76736 4.25887 0
M  V30 4090 H 383.431 -4.19036 3.1893 0
M  V30 4091 H 385.922 -2.74547 2.59677 0
M  V30 4092 H 386.235 -5.16638 5.74722 0
M  V30 4093 H 384.58 -4.65143 5.16398 0
M  V30 4094 H 387.771 -3.34234 3.27727 0
M  V30 4095 H 387.944 -4.44646 4.71375 0
M  V30 4096 N 381.35 -0.985608 -1.22978 0
M  V30 4097 C 382.596 -0.65836 -1.91816 0
M  V30 4098 C 382.929 0.806692 -1.76653 0
M  V30 4099 O 382.204 1.58252 -1.13078 0
M  V30 4100 C 382.487 -1.056 -3.44268 0
M  V30 4101 C 382.34 -2.57906 -3.68516 0
M  V30 4102 C 383.659 -0.603781 -4.35939 0
M  V30 4103 H 380.778 -0.24065 -0.696604 0
M  V30 4104 H 383.42 -1.22783 -1.44998 0
M  V30 4105 H 381.57 -0.571445 -3.84274 0
M  V30 4106 H 383.242 -3.13976 -3.3796 0
M  V30 4107 H 381.485 -3.00305 -3.13048 0
M  V30 4108 H 382.156 -2.80779 -4.75255 0
M  V30 4109 H 384.632 -1.01987 -4.03408 0
M  V30 4110 H 383.508 -0.910383 -5.41298 0
M  V30 4111 H 383.769 0.495761 -4.39312 0
M  V30 4112 N 382.828 1.3818 -0.7579 0
M  V30 4113 C 384.074 2.0078 -0.325423 0
M  V30 4114 C 384.429 1.59085 1.08211 0
M  V30 4115 O 383.722 0.820394 1.73148 0
M  V30 4116 C 383.916 3.55252 -0.391218 0
M  V30 4117 C 383.745 4.11947 -1.8036 0
M  V30 4118 C 382.515 4.43519 -2.42113 0
M  V30 4119 C 384.713 4.33908 -2.76095 0
M  V30 4120 N 382.695 4.85847 -3.75267 0
M  V30 4121 C 384.066 4.78692 -3.94023 0
M  V30 4122 C 386.121 4.16015 -2.73561 0
M  V30 4123 C 384.824 5.07459 -5.09782 0
M  V30 4124 C 386.85 4.45909 -3.88483 0
M  V30 4125 C 386.212 4.90921 -5.0515 0
M  V30 4126 H 382.311 0.764215 -0.165831 0
M  V30 4127 H 384.895 1.67724 -0.988776 0
M  V30 4128 H 383.066 3.87646 0.241886 0
M  V30 4129 H 384.798 4.04653 0.061989 0
M  V30 4130 H 381.553 4.32113 -1.93842 0
M  V30 4131 H 381.977 5.11339 -4.4369 0
M  V30 4132 H 386.619 3.80399 -1.84544 0
M  V30 4133 H 384.337 5.4197 -5.99412 0
M  V30 4134 H 387.923 4.33666 -3.87847 0
M  V30 4135 H 386.803 5.1361 -5.92599 0
M  V30 4136 N 384.306 0.507319 1.49211 0
M  V30 4137 C 385.254 -0.281364 2.30892 0
M  V30 4138 C 386.248 -0.95687 1.39787 0
M  V30 4139 O 387.454 -0.883838 1.56807 0
M  V30 4140 H 383.829 -0.109597 0.743971 0
M  V30 4141 H 385.8 0.42744 2.95323 0
M  V30 4142 C 384.549 -1.32918 3.21291 0
M  V30 4143 H 383.872 -0.818799 3.91326 0
M  V30 4144 H 385.312 -1.85288 3.81372 0
M  V30 4145 C 383.771 -2.35074 2.41333 0
M  V30 4146 O 384.301 -3.4108 2.12197 0
M  V30 4147 N 382.507 -2.07705 2.03241 0
M  V30 4148 H 382.054 -1.2152 2.27136 0
M  V30 4149 H 382.012 -2.76283 1.50051 0
M  V30 4150 N 385.784 -1.5574 0.241426 0
M  V30 4151 C 386.747 -2.19877 -0.647063 0
M  V30 4152 C 387.747 -1.16642 -1.10686 0
M  V30 4153 O 388.937 -1.41757 -1.01245 0
M  V30 4154 C 386.069 -2.83797 -1.88871 0
M  V30 4155 H 387.262 -2.99772 -0.087574 0
M  V30 4156 H 384.815 -1.56298 -0.00813574 0
M  V30 4157 H 385.55 -2.07824 -2.48957 0
M  V30 4158 H 385.335 -3.59414 -1.56728 0
M  V30 4159 H 386.825 -3.32898 -2.52129 0
M  V30 4160 N 387.262 0.0317525 -1.57568 0
M  V30 4161 C 388.194 1.06073 -2.03178 0
M  V30 4162 C 389.207 1.32627 -0.944132 0
M  V30 4163 O 390.396 1.30162 -1.22148 0
M  V30 4164 C 387.496 2.40297 -2.38978 0
M  V30 4165 C 386.669 2.33137 -3.70089 0
M  V30 4166 C 385.728 3.49787 -3.9311 0
M  V30 4167 O 384.754 3.29403 -4.64201 0
M  V30 4168 N 385.956 4.71562 -3.38541 0
M  V30 4169 H 388.721 0.672006 -2.92069 0
M  V30 4170 H 386.282 0.219745 -1.60402 0
M  V30 4171 H 388.274 3.1705 -2.51518 0
M  V30 4172 H 386.844 2.71024 -1.55771 0
M  V30 4173 H 386.064 1.415 -3.67928 0
M  V30 4174 H 387.352 2.25493 -4.56104 0
M  V30 4175 H 386.75 4.91024 -2.80912 0
M  V30 4176 H 385.307 5.45689 -3.56464 0
M  V30 4177 N 388.74 1.54641 0.303973 0
M  V30 4178 C 389.67 1.88386 1.3796 0
M  V30 4179 C 390.651 0.742485 1.5304 0
M  V30 4180 O 391.836 0.997959 1.66597 0
M  V30 4181 C 388.966 2.12854 2.74427 0
M  V30 4182 C 387.92 3.28702 2.74115 0
M  V30 4183 C 387.246 3.38582 4.13844 0
M  V30 4184 C 388.546 4.65881 2.3612 0
M  V30 4185 H 390.24 2.78474 1.09966 0
M  V30 4186 H 387.786 1.33988 0.527556 0
M  V30 4187 H 389.739 2.35047 3.49758 0
M  V30 4188 H 388.463 1.19535 3.03939 0
M  V30 4189 H 387.122 3.06428 2.0124 0
M  V30 4190 H 386.77 2.42784 4.40528 0
M  V30 4191 H 386.47 4.16453 4.14537 0
M  V30 4192 H 387.994 3.63031 4.90959 0
M  V30 4193 H 389.408 4.87823 3.01167 0
M  V30 4194 H 387.805 5.46444 2.48031 0
M  V30 4195 H 388.875 4.66799 1.3125 0
M  V30 4196 N 390.218 -0.567019 1.47046 0
M  V30 4197 C 391.467 -1.32091 1.5243 0
M  V30 4198 C 391.78 -1.94704 0.187021 0
M  V30 4199 O 392.986 -2.7124 0.118771 0
M  V30 4200 C 391.442 -2.39479 2.68659 0
M  V30 4201 C 391.05 -1.831 4.08874 0
M  V30 4202 C 392.794 -3.16111 2.83327 0
M  V30 4203 C 390.701 -2.8821 5.16419 0
M  V30 4204 H 389.631 -0.496629 0.56734 0
M  V30 4205 H 392.282 -0.603354 1.73297 0
M  V30 4206 H 390.664 -3.14105 2.41152 0
M  V30 4207 H 391.838 -1.14913 4.46242 0
M  V30 4208 H 390.153 -1.19085 3.99008 0
M  V30 4209 H 392.75 -3.94585 3.60842 0
M  V30 4210 H 393.093 -3.69686 1.91411 0
M  V30 4211 H 393.626 -2.48595 3.10556 0
M  V30 4212 H 390.365 -2.39504 6.10179 0
M  V30 4213 H 389.885 -3.54839 4.8358 0
M  V30 4214 H 391.564 -3.51881 5.42945 0
M  V30 4215 N 391.696 -1.35014 -0.812953 0
M  V30 4216 C 393.112 -1.14914 -1.10757 0
M  V30 4217 C 393.312 0.0426818 -2.01455 0
M  V30 4218 O 392.368 0.715212 -2.42159 0
M  V30 4219 C 393.681 -2.44911 -1.74468 0
M  V30 4220 C 395.229 -2.5106 -1.86917 0
M  V30 4221 C 395.704 -3.81085 -2.54044 0
M  V30 4222 N 397.195 -3.82301 -2.61535 0
M  V30 4223 C 397.93 -4.79634 -3.14227 0
M  V30 4224 N 397.426 -5.87353 -3.67407 0
M  V30 4225 N 399.219 -4.67078 -3.12721 0
M  V30 4226 H 391.37 -2.1136 -0.20989 0
M  V30 4227 H 393.633 -0.935128 -0.155692 0
M  V30 4228 H 393.339 -3.32267 -1.15289 0
M  V30 4229 H 393.213 -2.58989 -2.74234 0
M  V30 4230 H 395.6 -1.64137 -2.45241 0
M  V30 4231 H 395.681 -2.40901 -0.860242 0
M  V30 4232 H 395.325 -4.68402 -1.96372 0
M  V30 4233 H 395.255 -3.88529 -3.55461 0
M  V30 4234 H 397.746 -3.04465 -2.23851 0
M  V30 4235 H 398.059 -6.57624 -4.05894 0
M  V30 4236 H 396.404 -5.91054 -3.65623 0
M  V30 4237 H 399.595 -3.82067 -2.70449 0
M  V30 4238 H 399.768 -5.43098 -3.53481 0
M  V30 4239 N 393.175 1.03435 -1.18907 0
M  V30 4240 C 394.405 1.8012 -1.01195 0
M  V30 4241 C 394.813 1.8395 0.442613 0
M  V30 4242 O 394.156 1.27836 1.31923 0
M  V30 4243 C 394.218 3.26792 -1.49823 0
M  V30 4244 C 393.882 3.46609 -2.97844 0
M  V30 4245 C 394.879 3.37278 -3.95651 0
M  V30 4246 C 392.564 3.73001 -3.36416 0
M  V30 4247 C 394.558 3.54054 -5.30023 0
M  V30 4248 C 392.245 3.89423 -4.70949 0
M  V30 4249 C 393.243 3.79951 -5.67562 0
M  V30 4250 O 392.931 3.95895 -6.99659 0
M  V30 4251 H 392.663 0.573865 -0.357289 0
M  V30 4252 H 395.217 1.31207 -1.58031 0
M  V30 4253 H 393.447 3.76703 -0.873578 0
M  V30 4254 H 395.136 3.85055 -1.28404 0
M  V30 4255 H 395.902 3.16846 -3.67197 0
M  V30 4256 H 391.781 3.79469 -2.61772 0
M  V30 4257 H 395.325 3.46577 -6.05417 0
M  V30 4258 H 391.222 4.09351 -4.99101 0
M  V30 4259 H 391.99 4.13019 -7.06653 0
M  V30 4260 N 394.653 0.992116 1.22453 0
M  V30 4261 C 395.616 0.546883 2.2258 0
M  V30 4262 C 396.616 -0.369829 1.56489 0
M  V30 4263 O 397.806 -0.161896 1.73446 0
M  V30 4264 C 394.938 -0.204659 3.40285 0
M  V30 4265 H 396.131 1.43234 2.63484 0
M  V30 4266 H 393.684 0.779239 1.3549 0
M  V30 4267 H 394.419 -1.10614 3.04853 0
M  V30 4268 H 394.204 0.45354 3.89468 0
M  V30 4269 H 395.694 -0.504358 4.14543 0
M  V30 4270 N 396.131 -1.37776 0.765217 0
M  V30 4271 C 397.379 -1.99454 0.325943 0
M  V30 4272 C 397.7 -1.61049 -1.09947 0
M  V30 4273 O 396.97 -0.872821 -1.75381 0
M  V30 4274 H 395.55 -0.737697 0.117525 0
M  V30 4275 H 398.212 -1.68359 0.981895 0
M  V30 4276 H 397.308 -3.09547 0.398353 0
M  V30 4277 N 397.609 -0.515225 -1.4894 0
M  V30 4278 C 398.839 0.0205735 -2.0659 0
M  V30 4279 C 399.247 1.30064 -1.37405 0
M  V30 4280 O 398.59 1.78087 -0.450632 0
M  V30 4281 C 398.652 0.330124 -3.57981 0
M  V30 4282 C 398.316 -0.854295 -4.48944 0
M  V30 4283 C 399.313 -1.7487 -4.89609 0
M  V30 4284 C 396.998 -1.05712 -4.9105 0
M  V30 4285 C 398.992 -2.82996 -5.71132 0
M  V30 4286 C 396.679 -2.14154 -5.72347 0
M  V30 4287 C 397.677 -3.0263 -6.12294 0
M  V30 4288 O 397.365 -4.09198 -6.91962 0
M  V30 4289 H 397.097 -0.0236833 -0.675585 0
M  V30 4290 H 399.651 -0.715956 -1.92518 0
M  V30 4291 H 397.881 1.12044 -3.70112 0
M  V30 4292 H 399.57 0.806233 -3.97812 0
M  V30 4293 H 400.336 -1.60388 -4.57712 0
M  V30 4294 H 396.215 -0.377788 -4.59449 0
M  V30 4295 H 399.759 -3.52083 -6.02232 0
M  V30 4296 H 395.656 -2.28626 -6.03656 0
M  V30 4297 H 396.424 -4.06726 -7.10293 0
M  V30 4298 N 399.087 1.5561 -0.249682 0
M  V30 4299 C 400.019 2.18834 0.681496 0
M  V30 4300 C 401.032 1.16546 1.1367 0
M  V30 4301 O 402.221 1.43397 1.06299 0
M  V30 4302 C 399.321 2.77992 1.9384 0
M  V30 4303 C 398.494 4.05725 1.63419 0
M  V30 4304 C 397.553 4.49174 2.74096 0
M  V30 4305 O 396.579 5.15492 2.41364 0
M  V30 4306 N 397.781 4.17191 4.03649 0
M  V30 4307 H 400.546 2.9937 0.140514 0
M  V30 4308 H 398.107 1.6175 -0.0697541 0
M  V30 4309 H 400.099 3.04015 2.67127 0
M  V30 4310 H 398.669 2.01596 2.38909 0
M  V30 4311 H 397.889 3.87261 0.736358 0
M  V30 4312 H 399.177 4.88999 1.40562 0
M  V30 4313 H 398.575 3.63955 4.33074 0
M  V30 4314 H 397.132 4.48043 4.73393 0
M  V30 4315 N 400.565 -0.0233959 1.57583 0
M  V30 4316 C 401.498 -1.05549 2.02323 0
M  V30 4317 C 402.476 -1.34843 0.908626 0
M  V30 4318 O 403.66 -1.47404 1.17491 0
M  V30 4319 C 400.787 -2.38885 2.40108 0
M  V30 4320 C 399.833 -2.2541 3.62067 0
M  V30 4321 S 400.666 -1.60217 5.1097 0
M  V30 4322 C 401.822 -2.95032 5.52003 0
M  V30 4323 H 402.055 -0.674435 2.89549 0
M  V30 4324 H 399.588 -0.23355 1.52623 0
M  V30 4325 H 401.546 -3.15562 2.62547 0
M  V30 4326 H 400.207 -2.74137 1.53323 0
M  V30 4327 H 399.4 -3.23854 3.86179 0
M  V30 4328 H 399.002 -1.56876 3.39508 0
M  V30 4329 H 401.294 -3.91357 5.53033 0
M  V30 4330 H 402.237 -2.75646 6.52246 0
M  V30 4331 H 402.645 -2.97865 4.79517 0
M  V30 4332 N 402.043 -1.548 -0.295768 0
M  V30 4333 C 403.454 -1.65274 -0.868411 0
M  V30 4334 C 403.805 -0.56481 -1.87894 0
M  V30 4335 O 402.93 0.29767 -2.14343 0
M  V30 4336 C 403.525 -2.99603 -1.58188 0
M  V30 4337 C 402.084 -3.12181 -2.10286 0
M  V30 4338 C 401.231 -2.6098 -0.93727 0
M  V30 4339 H 404.182 -1.58534 -0.0726422 0
M  V30 4340 H 404.203 -2.91319 -2.44772 0
M  V30 4341 H 403.715 -3.78764 -0.846151 0
M  V30 4342 H 401.816 -2.3775 -2.8689 0
M  V30 4343 H 401.929 -4.18415 -2.33379 0
M  V30 4344 H 400.293 -2.17564 -1.32431 0
M  V30 4345 H 401.076 -3.42623 -0.215414 0
M  V30 4346 N 403.521 0.559213 -1.47345 0
M  V30 4347 C 404.798 1.31997 -1.44348 0
M  V30 4348 C 405.178 2.1064 -0.139358 0
M  V30 4349 O 404.526 2.1091 0.879153 0
M  V30 4350 C 404.736 2.22618 -2.68779 0
M  V30 4351 C 406.084 2.83701 -3.1591 0
M  V30 4352 O 407.108 2.32921 -2.69493 0
M  V30 4353 O 405.967 3.75993 -3.966 0
M  V30 4354 H 403.061 0.594251 -0.575147 0
M  V30 4355 H 405.607 0.578282 -1.59543 0
M  V30 4356 H 404.379 1.64093 -3.55231 0
M  V30 4357 H 404.002 3.04085 -2.5616 0
M  V30 4358 N 404.999 1.35443 0.805782 0
M  V30 4359 C 406.247 1.28507 1.55982 0
M  V30 4360 C 406.568 -0.140046 1.94496 0
M  V30 4361 O 405.838 -1.07666 1.63661 0
M  V30 4362 H 404.418 0.472676 0.578434 0
M  V30 4363 H 407.08 1.69555 0.961098 0
M  V30 4364 H 406.176 1.90148 2.47488 0
M  V30 4365 N 406.477 -1.02803 1.19454 0
M  V30 4366 C 407.702 -1.80378 1.02364 0
M  V30 4367 C 408.127 -1.83282 -0.423007 0
M  V30 4368 O 407.485 -1.25945 -1.30413 0
M  V30 4369 C 407.533 -3.23248 1.59821 0
M  V30 4370 O 406.637 -4.04 0.828105 0
M  V30 4371 H 405.978 -0.556799 0.361761 0
M  V30 4372 H 408.508 -1.29385 1.58495 0
M  V30 4373 H 408.518 -3.73994 1.63073 0
M  V30 4374 H 407.193 -3.2045 2.65113 0
M  V30 4375 H 405.77 -3.62635 0.86891 0
M  V30 4376 N 407.956 -0.998596 -1.21925 0
M  V30 4377 C 409.205 -0.673085 -1.90138 0
M  V30 4378 C 409.518 0.79895 -1.78539 0
M  V30 4379 O 410.724 1.23628 -2.4172 0
M  V30 4380 C 409.18 -1.15339 -3.40918 0
M  V30 4381 C 408.788 -2.65106 -3.61141 0
M  V30 4382 C 410.532 -0.902476 -4.14796 0
M  V30 4383 C 408.439 -3.0671 -5.05651 0
M  V30 4384 H 407.369 -0.248057 -0.712028 0
M  V30 4385 H 410.02 -1.20891 -1.38049 0
M  V30 4386 H 408.402 -0.545658 -3.92223 0
M  V30 4387 H 409.576 -3.31274 -3.20304 0
M  V30 4388 H 407.891 -2.88142 -3.00605 0
M  V30 4389 H 410.488 -1.18895 -5.21314 0
M  V30 4390 H 410.831 0.161349 -4.15987 0
M  V30 4391 H 411.364 -1.47269 -3.69536 0
M  V30 4392 H 408.103 -4.12292 -5.09603 0
M  V30 4393 H 407.623 -2.45249 -5.47369 0
M  V30 4394 H 409.302 -2.9833 -5.74115 0
M  V30 4395 N 409.434 1.37368 -0.772513 0
M  V30 4396 C 410.85 1.53059 -0.452231 0
M  V30 4397 C 411.05 1.73065 1.03203 0
M  V30 4398 O 410.106 1.75245 1.81784 0
M  V30 4399 C 411.419 2.72659 -1.26797 0
M  V30 4400 C 412.967 2.86521 -1.25995 0
M  V30 4401 C 413.442 4.09105 -2.05905 0
M  V30 4402 N 414.933 4.16219 -2.03263 0
M  V30 4403 C 415.668 5.10107 -2.61875 0
M  V30 4404 N 415.164 6.09547 -3.29278 0
M  V30 4405 N 416.957 5.02596 -2.51701 0
M  V30 4406 H 409.108 1.22634 -1.7342 0
M  V30 4407 H 411.371 0.597206 -0.736239 0
M  V30 4408 H 411.077 2.64343 -2.31982 0
M  V30 4409 H 410.951 3.66363 -0.897672 0
M  V30 4410 H 413.338 2.94308 -0.216081 0
M  V30 4411 H 413.419 1.93774 -1.66989 0
M  V30 4412 H 413.063 4.0208 -3.10313 0
M  V30 4413 H 412.993 5.00968 -1.62292 0
M  V30 4414 H 415.484 3.45012 -1.54192 0
M  V30 4415 H 415.797 6.77718 -3.71374 0
M  V30 4416 H 414.142 6.09824 -3.33377 0
M  V30 4417 H 417.333 4.23855 -1.98657 0
M  V30 4418 H 417.506 5.75582 -2.97673 0
M  V30 4419 N 410.912 0.523116 1.48665 0
M  V30 4420 C 412.16 -0.0134497 2.02096 0
M  V30 4421 C 412.481 -1.35418 1.40311 0
M  V30 4422 O 411.751 -1.87543 0.566074 0
M  V30 4423 H 410.331 -0.00795915 0.746958 0
M  V30 4424 H 412.993 0.685388 1.82451 0
M  V30 4425 H 412.089 -0.126849 3.11842 0
M  V30 4426 N 412.39 -1.55475 0.257931 0
M  V30 4427 C 413.667 -1.91155 -0.414629 0
M  V30 4428 C 414.047 -1.18008 -1.75035 0
M  V30 4429 O 413.395 -0.301193 -2.26506 0
M  V30 4430 C 413.605 -3.44283 -0.571859 0
M  V30 4431 C 414.953 -4.15744 -0.862678 0
M  V30 4432 O 415.977 -3.50083 -0.657314 0
M  V30 4433 O 414.836 -5.31909 -1.2544 0
M  V30 4434 H 411.93 -0.796016 -0.22425 0
M  V30 4435 H 414.476 -1.66976 0.302814 0
M  V30 4436 H 413.248 -3.89558 0.368844 0
M  V30 4437 H 412.871 -3.7436 -1.33943 0
M  V30 4438 N 413.868 0.0150385 -1.57593 0
M  V30 4439 C 415.279 0.559832 -1.78109 0
M  V30 4440 C 415.63 1.74814 -0.890756 0
M  V30 4441 O 414.755 2.16216 -0.0892482 0
M  V30 4442 C 415.35 1.02238 -3.23006 0
M  V30 4443 C 413.909 1.51258 -3.44671 0
M  V30 4444 C 413.056 0.456955 -2.73509 0
M  V30 4445 H 416.007 -0.211169 -1.57289 0
M  V30 4446 H 416.028 1.88912 -3.30292 0
M  V30 4447 H 415.54 0.157302 -3.87781 0
M  V30 4448 H 413.641 2.39905 -2.8509 0
M  V30 4449 H 413.754 1.55042 -4.5332 0
M  V30 4450 H 412.118 0.915196 -2.37689 0
M  V30 4451 H 412.901 -0.398896 -3.40975 0
M  V30 4452 N 415.346 1.54954 0.287554 0
M  V30 4453 C 416.309 1.86076 1.33823 0
M  V30 4454 C 417.309 0.734414 1.43049 0
M  V30 4455 O 418.499 1.00266 1.42452 0
M  V30 4456 C 415.631 2.05305 2.72144 0
M  V30 4457 H 416.824 2.79984 1.07465 0
M  V30 4458 H 414.377 1.47223 0.524902 0
M  V30 4459 H 415.112 1.1373 3.03704 0
M  V30 4460 H 414.897 2.873 2.66836 0
M  V30 4461 H 416.387 2.30706 3.48087 0
M  V30 4462 N 416.824 -0.551391 1.4764 0
M  V30 4463 C 417.772 -1.67896 1.60978 0
M  V30 4464 C 418.766 -1.62549 0.476877 0
M  V30 4465 O 419.972 -1.67664 0.654878 0
M  V30 4466 H 416.347 -0.555649 0.506713 0
M  V30 4467 H 418.318 -1.53784 2.55721 0
M  V30 4468 C 417.067 -3.06234 1.64669 0
M  V30 4469 H 416.39 -3.11033 2.51194 0
M  V30 4470 H 417.83 -3.84804 1.7805 0
M  V30 4471 C 416.289 -3.34737 0.381115 0
M  V30 4472 O 416.819 -3.98381 -0.515297 0
M  V30 4473 N 415.025 -2.8944 0.259354 0
M  V30 4474 H 414.572 -2.37827 0.98976 0
M  V30 4475 H 414.53 -3.08882 -0.586464 0
M  V30 4476 N 418.302 -1.35869 -0.798587 0
M  V30 4477 C 419.548 -1.2978 -1.55836 0
M  V30 4478 C 419.881 0.125322 -1.93795 0
M  V30 4479 O 419.156 1.07658 -1.61987 0
M  V30 4480 C 419.439 -2.21188 -2.84162 0
M  V30 4481 C 419.292 -3.72155 -2.52628 0
M  V30 4482 C 420.611 -2.11545 -3.85923 0
M  V30 4483 H 417.73 -0.472769 -0.565383 0
M  V30 4484 H 420.372 -1.66341 -0.918192 0
M  V30 4485 H 418.522 -1.90139 -3.38791 0
M  V30 4486 H 420.194 -4.13682 -2.04121 0
M  V30 4487 H 418.437 -3.92042 -1.85704 0
M  V30 4488 H 419.108 -4.31511 -3.44242 0
M  V30 4489 H 421.584 -2.38855 -3.40716 0
M  V30 4490 H 420.46 -2.77688 -4.73477 0
M  V30 4491 H 420.721 -1.09987 -4.282 0
M  V30 4492 N 419.78 1.02168 -1.19998 0
M  V30 4493 C 420.69 2.14069 -0.959774 0
M  V30 4494 C 421.706 1.73804 0.082655 0
M  V30 4495 O 422.882 2.01133 -0.103633 0
M  V30 4496 C 419.947 3.42936 -0.509459 0
M  V30 4497 C 419.008 3.97474 -1.62213 0
M  V30 4498 C 418.241 5.2019 -1.19321 0
M  V30 4499 O 418.464 5.70369 -0.0597726 0
M  V30 4500 O 417.398 5.67749 -1.99863 0
M  V30 4501 H 421.224 2.37199 -1.89658 0
M  V30 4502 H 418.809 1.12469 -0.983411 0
M  V30 4503 H 420.691 4.20551 -0.267322 0
M  V30 4504 H 419.366 3.21234 0.398821 0
M  V30 4505 H 418.273 3.21161 -1.9185 0
M  V30 4506 H 419.606 4.23555 -2.50723 0
M  V30 4507 N 421.258 1.00505 1.21394 0
M  V30 4508 C 422.505 0.687774 1.90462 0
M  V30 4509 C 422.833 -0.78147 1.7811 0
M  V30 4510 O 422.088 -1.58208 1.1519 0
M  V30 4511 C 422.387 1.0546 3.41486 0
M  V30 4512 C 422.053 2.51812 3.74034 0
M  V30 4513 C 420.715 2.91804 3.82628 0
M  V30 4514 C 423.067 3.46614 3.8924 0
M  V30 4515 C 420.395 4.2556 4.03876 0
M  V30 4516 C 422.747 4.80044 4.11995 0
M  V30 4517 C 421.411 5.19759 4.18816 0
M  V30 4518 H 420.681 0.251674 0.696951 0
M  V30 4519 H 423.328 1.26349 1.43903 0
M  V30 4520 H 421.633 0.397133 3.89782 0
M  V30 4521 H 423.33 0.786976 3.93202 0
M  V30 4522 H 419.92 2.1982 3.67936 0
M  V30 4523 H 424.104 3.16883 3.81967 0
M  V30 4524 H 419.36 4.55901 4.07387 0
M  V30 4525 H 423.534 5.53439 4.22704 0
M  V30 4526 H 421.161 6.23418 4.35033 0
M  V30 4527 N 422.737 -1.36956 0.779787 0
M  V30 4528 C 423.965 -2.03755 0.359398 0
M  V30 4529 C 424.38 -1.58807 -1.02106 0
M  V30 4530 O 423.737 -0.773024 -1.6532 0
M  V30 4531 C 423.788 -3.59251 0.402568 0
M  V30 4532 O 423.509 -4.02557 1.72858 0
M  V30 4533 C 425.01 -4.43291 -0.0284068 0
M  V30 4534 H 422.23 -0.654148 0.149437 0
M  V30 4535 H 424.774 -1.75128 1.05595 0
M  V30 4536 H 422.929 -3.86621 -0.245478 0
M  V30 4537 H 423.343 -4.97111 1.67275 0
M  V30 4538 H 424.817 -5.51975 0.0529466 0
M  V30 4539 H 425.294 -4.25719 -1.07982 0
M  V30 4540 H 425.9 -4.21163 0.591758 0
M  V30 4541 N 424.215 -0.530993 -1.48385 0
M  V30 4542 C 425.147 0.268353 -2.27624 0
M  V30 4543 C 426.16 0.903525 -1.35426 0
M  V30 4544 O 427.349 0.781796 -1.60469 0
M  V30 4545 C 424.449 1.39535 -3.08842 0
M  V30 4546 C 423.622 0.861913 -4.28824 0
M  V30 4547 C 422.681 1.87016 -4.91845 0
M  V30 4548 O 421.707 1.4267 -5.5103 0
M  V30 4549 N 422.909 3.20238 -4.84178 0
M  V30 4550 H 425.674 -0.41123 -2.96865 0
M  V30 4551 H 423.235 -0.365387 -1.57723 0
M  V30 4552 H 425.227 2.06803 -3.47871 0
M  V30 4553 H 423.797 1.97859 -2.42014 0
M  V30 4554 H 423.017 0.0132126 -3.94198 0
M  V30 4555 H 424.305 0.484415 -5.06489 0
M  V30 4556 H 423.703 3.58932 -4.37246 0
M  V30 4557 H 422.26 3.83136 -5.27305 0
M  V30 4558 N 425.693 1.55336 -0.266172 0
M  V30 4559 C 426.623 2.25146 0.618981 0
M  V30 4560 C 427.604 1.23845 1.16604 0
M  V30 4561 O 428.789 1.52544 1.20183 0
M  V30 4562 C 425.919 2.96572 1.80728 0
M  V30 4563 C 424.873 4.04726 1.39215 0
M  V30 4564 C 424.199 4.63678 2.66283 0
M  V30 4565 C 425.499 5.19407 0.548942 0
M  V30 4566 H 427.193 2.99377 0.0368116 0
M  V30 4567 H 424.739 1.43991 0.0162651 0
M  V30 4568 H 426.692 3.44116 2.43232 0
M  V30 4569 H 425.416 2.19861 2.41514 0
M  V30 4570 H 424.075 3.57979 0.790351 0
M  V30 4571 H 423.723 3.83646 3.25308 0
M  V30 4572 H 423.423 5.367 2.39222 0
M  V30 4573 H 424.947 5.13967 3.29651 0
M  V30 4574 H 426.361 5.63059 1.07876 0
M  V30 4575 H 424.758 5.98936 0.373593 0
M  V30 4576 H 425.828 4.8295 -0.434394 0
M  V30 4577 N 427.171 -0.0066808 1.57599 0
M  V30 4578 C 428.411 -0.697501 1.92131 0
M  V30 4579 C 428.775 -1.71306 0.867071 0
M  V30 4580 O 429.976 -2.45377 1.09743 0
M  V30 4581 C 428.247 -1.32978 3.3174 0
M  V30 4582 S 429.806 -2.04665 3.88146 0
M  V30 4583 H 426.624 -0.230555 0.672581 0
M  V30 4584 H 429.226 0.0484026 1.9544 0
M  V30 4585 H 427.93 -0.57772 4.06313 0
M  V30 4586 H 427.461 -2.11376 3.31789 0
M  V30 4587 H 429.476 -3.32097 3.68682 0
M  V30 4588 N 428.649 -1.55105 -0.279332 0
M  V30 4589 C 429.898 -1.74618 -1.00952 0
M  V30 4590 C 430.211 -0.551096 -1.87676 0
M  V30 4591 O 431.417 -0.628507 -2.64125 0
M  V30 4592 C 429.873 -3.09025 -1.84476 0
M  V30 4593 C 429.481 -4.36081 -1.0265 0
M  V30 4594 C 431.225 -3.37891 -2.56963 0
M  V30 4595 C 429.132 -5.6153 -1.85576 0
M  V30 4596 H 428.062 -0.650868 -0.38064 0
M  V30 4597 H 430.713 -1.81569 -0.265475 0
M  V30 4598 H 429.095 -2.96095 -2.62952 0
M  V30 4599 H 430.269 -4.59909 -0.286354 0
M  V30 4600 H 428.584 -4.14312 -0.416464 0
M  V30 4601 H 431.181 -4.28822 -3.19399 0
M  V30 4602 H 431.524 -2.57737 -3.26921 0
M  V30 4603 H 432.057 -3.5189 -1.85522 0
M  V30 4604 H 428.796 -6.44413 -1.2005 0
M  V30 4605 H 428.316 -5.41854 -2.57204 0
M  V30 4606 H 429.995 -5.99594 -2.43096 0
M  V30 4607 N 430.127 0.543554 -1.4793 0
M  V30 4608 C 431.404 1.30458 -1.4574 0
M  V30 4609 C 431.784 2.1048 -0.161692 0
M  V30 4610 O 431.132 2.11831 0.856734 0
M  V30 4611 C 431.342 2.19754 -2.71126 0
M  V30 4612 C 432.69 2.80334 -3.18901 0
M  V30 4613 O 433.714 2.30049 -2.71948 0
M  V30 4614 O 432.573 3.71766 -4.00565 0
M  V30 4615 H 429.667 0.588117 -0.581418 0
M  V30 4616 H 432.213 0.561328 -1.60147 0
M  V30 4617 H 430.985 1.60316 -3.56952 0
M  V30 4618 H 430.608 3.01351 -2.59371 0
M  V30 4619 N 431.605 1.3629 0.791371 0
M  V30 4620 C 432.535 1.33137 1.91825 0
M  V30 4621 C 433.516 0.203168 1.68882 0
M  V30 4622 O 434.701 0.400509 1.90025 0
M  V30 4623 C 431.831 1.11793 3.28816 0
M  V30 4624 C 430.785 2.21417 3.66277 0
M  V30 4625 C 430.111 1.85218 5.01596 0
M  V30 4626 C 431.411 3.63489 3.75064 0
M  V30 4627 H 433.105 2.2743 1.9472 0
M  V30 4628 H 430.651 1.09479 0.935437 0
M  V30 4629 H 432.604 1.08222 4.07266 0
M  V30 4630 H 431.328 0.139501 3.26302 0
M  V30 4631 H 429.987 2.2411 2.90121 0
M  V30 4632 H 429.635 0.859544 4.95602 0
M  V30 4633 H 429.335 2.58611 5.27631 0
M  V30 4634 H 430.859 1.832 5.82469 0
M  V30 4635 H 432.273 3.63034 4.43711 0
M  V30 4636 H 430.67 4.35771 4.12582 0
M  V30 4637 H 431.74 3.98536 2.76219 0
M  V30 4638 N 433.083 -1.0153 1.20538 0
M  V30 4639 C 434.331 -1.74803 1.01432 0
M  V30 4640 C 434.652 -1.8963 -0.454456 0
M  V30 4641 O 433.922 -1.43975 -1.32846 0
M  V30 4642 H 432.502 -0.647598 0.372324 0
M  V30 4643 H 435.164 -1.22402 1.5167 0
M  V30 4644 H 434.26 -2.75114 1.47373 0
M  V30 4645 N 434.561 -1.01147 -1.20859 0
M  V30 4646 C 435.807 -0.708598 -1.90658 0
M  V30 4647 C 436.162 0.753069 -1.7705 0
M  V30 4648 O 435.455 1.53952 -1.14059 0
M  V30 4649 C 435.649 -1.0727 -3.40922 0
M  V30 4650 C 435.478 -2.56821 -3.69152 0
M  V30 4651 C 434.248 -3.23524 -3.8815 0
M  V30 4652 C 436.446 -3.54997 -3.72131 0
M  V30 4653 N 434.428 -4.62359 -4.03853 0
M  V30 4654 C 435.799 -4.79371 -3.93196 0
M  V30 4655 C 437.854 -3.49042 -3.55069 0
M  V30 4656 C 436.557 -5.98512 -3.98969 0
M  V30 4657 C 438.583 -4.67579 -3.6211 0
M  V30 4658 C 437.945 -5.9076 -3.83643 0
M  V30 4659 H 434.044 -0.31088 -0.71755 0
M  V30 4660 H 436.628 -1.29526 -1.45366 0
M  V30 4661 H 434.799 -0.51443 -3.84978 0
M  V30 4662 H 436.531 -0.723891 -3.98173 0
M  V30 4663 H 433.286 -2.73958 -3.86321 0
M  V30 4664 H 433.71 -5.34427 -4.15592 0
M  V30 4665 H 438.352 -2.54808 -3.37391 0
M  V30 4666 H 436.07 -6.93132 -4.15444 0
M  V30 4667 H 439.656 -4.64581 -3.50222 0
M  V30 4668 H 438.536 -6.8095 -3.88944 0
M  V30 4669 N 436.039 1.36541 -0.78704 0
M  V30 4670 C 436.986 2.30082 -0.181901 0
M  V30 4671 C 437.956 1.5186 0.672896 0
M  V30 4672 O 439.141 1.80374 0.622072 0
M  V30 4673 C 436.281 3.3835 0.679197 0
M  V30 4674 C 435.394 4.31565 -0.193882 0
M  V30 4675 C 434.529 5.26915 0.673364 0
M  V30 4676 C 433.568 6.11769 -0.201315 0
M  V30 4677 N 432.705 6.99315 0.624777 0
M  V30 4678 H 437.545 2.81248 -0.985064 0
M  V30 4679 H 435.082 1.38437 -0.497342 0
M  V30 4680 H 437.04 3.99767 1.19341 0
M  V30 4681 H 435.67 2.8851 1.44781 0
M  V30 4682 H 434.722 3.71323 -0.826044 0
M  V30 4683 H 436.034 4.91191 -0.867937 0
M  V30 4684 H 435.188 5.9361 1.25348 0
M  V30 4685 H 433.927 4.67737 1.38105 0
M  V30 4686 H 432.932 5.44039 -0.793849 0
M  V30 4687 H 434.157 6.73022 -0.906568 0
M  V30 4688 H 432.103 6.42648 1.3168 0
M  V30 4689 H 432.02 7.56 0.00835237 0
M  V30 4690 H 433.288 7.70382 1.18879 0
M  V30 4691 N 437.518 0.538854 1.48102 0
M  V30 4692 C 438.929 0.100679 1.86428 0
M  V30 4693 C 439.28 -1.32447 1.44749 0
M  V30 4694 O 438.405 -1.99339 0.842199 0
M  V30 4695 C 439 0.175933 3.38343 0
M  V30 4696 C 437.559 -0.207098 3.7583 0
M  V30 4697 C 436.706 0.531741 2.72154 0
M  V30 4698 H 439.657 0.749614 1.3988 0
M  V30 4699 H 439.678 -0.610144 3.75576 0
M  V30 4700 H 439.19 1.21328 3.68648 0
M  V30 4701 H 437.291 -1.24626 3.5114 0
M  V30 4702 H 437.404 0.138687 4.78899 0
M  V30 4703 H 435.768 -0.0230462 2.5469 0
M  V30 4704 H 436.551 1.56989 3.05302 0
M  V30 4705 N 438.996 -1.55193 0.274407 0
M  V30 4706 C 439.943 -2.225 -0.613374 0
M  V30 4707 C 440.913 -1.19823 -1.15029 0
M  V30 4708 O 442.098 -1.48362 -1.19973 0
M  V30 4709 C 439.238 -2.94927 -1.79199 0
M  V30 4710 C 438.351 -4.12322 -1.28899 0
M  V30 4711 C 437.486 -4.72394 -2.42934 0
M  V30 4712 C 436.525 -5.81984 -1.89634 0
M  V30 4713 N 435.662 -6.36123 -2.9714 0
M  V30 4714 H 440.502 -2.97982 -0.032756 0
M  V30 4715 H 438.039 -1.47099 -0.00440146 0
M  V30 4716 H 439.997 -3.35134 -2.48478 0
M  V30 4717 H 438.627 -2.2187 -2.34465 0
M  V30 4718 H 437.679 -3.7724 -0.489327 0
M  V30 4719 H 438.991 -4.91355 -0.858587 0
M  V30 4720 H 438.145 -5.15317 -3.20208 0
M  V30 4721 H 436.884 -3.92636 -2.8929 0
M  V30 4722 H 435.889 -5.38511 -1.1084 0
M  V30 4723 H 437.114 -6.6361 -1.44215 0
M  V30 4724 H 435.06 -5.59259 -3.42878 0
M  V30 4725 H 434.977 -7.10427 -2.58515 0
M  V30 4726 H 436.245 -6.83704 -3.74391 0
M  V30 4727 N 440.474 -0.00167713 -1.576 0
M  V30 4728 C 441.704 0.692754 -1.94639 0
M  V30 4729 C 442.112 1.67744 -0.87513 0
M  V30 4730 O 441.455 1.8305 0.154382 0
M  V30 4731 C 441.517 1.47881 -3.27676 0
M  V30 4732 C 441.181 0.655518 -4.52274 0
M  V30 4733 C 442.178 -0.0575214 -5.19868 0
M  V30 4734 C 439.863 0.600994 -4.98692 0
M  V30 4735 C 441.857 -0.814052 -6.3218 0
M  V30 4736 C 439.544 -0.15926 -6.10892 0
M  V30 4737 C 440.542 -0.865515 -6.77494 0
M  V30 4738 O 440.23 -1.61336 -7.87544 0
M  V30 4739 H 439.962 0.197792 -0.646417 0
M  V30 4740 H 442.516 -0.049423 -2.05341 0
M  V30 4741 H 440.746 2.2655 -3.13388 0
M  V30 4742 H 442.435 2.05874 -3.49816 0
M  V30 4743 H 443.201 -0.0245611 -4.84994 0
M  V30 4744 H 439.08 1.14025 -4.46676 0
M  V30 4745 H 442.624 -1.36584 -6.84098 0
M  V30 4746 H 438.521 -0.194035 -6.45208 0
M  V30 4747 H 439.289 -1.53025 -8.04068 0
M  V30 4748 N 441.952 1.55251 0.271103 0
M  V30 4749 C 443.2 1.75599 1.00047 0
M  V30 4750 C 443.521 0.561188 1.8675 0
M  V30 4751 O 442.791 -0.423846 1.9126 0
M  V30 4752 H 441.371 0.647562 0.372387 0
M  V30 4753 H 444.033 1.92656 0.294876 0
M  V30 4754 H 443.129 2.65766 1.6363 0
M  V30 4755 N 443.43 -0.535701 1.48216 0
M  V30 4756 C 444.846 -0.863701 1.3421 0
M  V30 4757 C 445.046 -1.98458 0.34879 0
M  V30 4758 O 444.102 -2.51432 -0.23204 0
M  V30 4759 C 445.415 -1.23662 2.74095 0
M  V30 4760 C 446.963 -1.34683 2.82541 0
M  V30 4761 C 447.438 -1.75322 4.23115 0
M  V30 4762 N 448.929 -1.82434 4.2576 0
M  V30 4763 C 449.664 -2.15252 5.31464 0
M  V30 4764 N 449.16 -2.46533 6.47452 0
M  V30 4765 N 450.953 -2.16209 5.18855 0
M  V30 4766 H 443.104 0.203965 2.11418 0
M  V30 4767 H 445.367 0.0286033 0.947568 0
M  V30 4768 H 445.073 -0.486674 3.48316 0
M  V30 4769 H 444.947 -2.18805 3.07253 0
M  V30 4770 H 447.334 -2.08756 2.08579 0
M  V30 4771 H 447.415 -0.376756 2.5301 0
M  V30 4772 H 447.059 -1.01812 4.97591 0
M  V30 4773 H 446.989 -2.7337 4.50085 0
M  V30 4774 H 449.48 -1.6056 3.42095 0
M  V30 4775 H 449.793 -2.70662 7.23852 0
M  V30 4776 H 448.138 -2.44065 6.50736 0
M  V30 4777 H 451.329 -1.91224 4.2726 0
M  V30 4778 H 451.502 -2.41453 6.01335 0
M  V30 4779 N 444.908 -1.36708 -0.784132 0
M  V30 4780 C 446.155 -1.31231 -1.54222 0
M  V30 4781 C 446.483 0.106864 -1.94206 0
M  V30 4782 O 445.738 1.07734 -1.63376 0
M  V30 4783 C 446.037 -2.18571 -2.82774 0
M  V30 4784 C 445.703 -3.67039 -2.61903 0
M  V30 4785 C 444.365 -4.07503 -2.55919 0
M  V30 4786 C 446.717 -4.61149 -2.4288 0
M  V30 4787 C 444.045 -5.40211 -2.28886 0
M  V30 4788 C 446.397 -5.94081 -2.17373 0
M  V30 4789 C 445.061 -6.33664 -2.09825 0
M  V30 4790 H 444.331 -0.48021 -0.56434 0
M  V30 4791 H 446.978 -1.68807 -0.904233 0
M  V30 4792 H 445.283 -1.73949 -3.51068 0
M  V30 4793 H 446.98 -2.11655 -3.40592 0
M  V30 4794 H 443.57 -3.34941 -2.67418 0
M  V30 4795 H 447.754 -4.30756 -2.46501 0
M  V30 4796 H 443.01 -5.69855 -2.21529 0
M  V30 4797 H 447.184 -6.66566 -2.01649 0
M  V30 4798 H 444.811 -7.36423 -1.88641 0
M  V30 4799 N 446.386 1.0089 -1.21074 0
M  V30 4800 C 447.663 1.71834 -0.934469 0
M  V30 4801 C 448.043 2.0368 0.554753 0
M  V30 4802 O 447.391 1.70742 1.51854 0
M  V30 4803 C 447.601 2.98061 -1.8155 0
M  V30 4804 C 448.949 3.7117 -2.06199 0
M  V30 4805 O 449.973 3.08034 -1.78867 0
M  V30 4806 O 448.832 4.84721 -2.52404 0
M  V30 4807 H 445.926 0.749253 -0.35007 0
M  V30 4808 H 448.472 1.06668 -1.31985 0
M  V30 4809 H 447.244 2.70908 -2.82355 0
M  V30 4810 H 446.867 3.70968 -1.43068 0
M  V30 4811 N 447.864 1.01787 1.20321 0
M  V30 4812 C 449.11 0.708985 1.90003 0
M  V30 4813 C 449.443 -0.759572 1.78729 0
M  V30 4814 O 448.718 -1.55198 1.17234 0
M  V30 4815 C 449.001 1.1469 3.41348 0
M  V30 4816 C 448.854 2.67586 3.61549 0
M  V30 4817 C 450.173 0.71915 4.34185 0
M  V30 4818 H 447.292 0.259034 0.689978 0
M  V30 4819 H 449.934 1.26584 1.41692 0
M  V30 4820 H 448.084 0.673128 3.82624 0
M  V30 4821 H 449.756 3.22826 3.29517 0
M  V30 4822 H 447.999 3.085 3.04976 0
M  V30 4823 H 448.67 2.93281 4.67643 0
M  V30 4824 H 451.146 1.12647 4.00562 0
M  V30 4825 H 450.022 1.05358 5.38694 0
M  V30 4826 H 450.283 -0.379111 4.40472 0
M  V30 4827 N 449.342 -1.36122 0.79427 0
M  V30 4828 C 450.588 -1.99406 0.369452 0
M  V30 4829 C 450.921 -1.62886 -1.05743 0
M  V30 4830 O 450.196 -0.886053 -1.73145 0
M  V30 4831 C 450.479 -3.56046 0.538833 0
M  V30 4832 C 450.332 -4.02404 2.00976 0
M  V30 4833 C 451.651 -4.40079 -0.0431359 0
M  V30 4834 H 448.77 -0.724397 0.135712 0
M  V30 4835 H 451.412 -1.61461 1.00151 0
M  V30 4836 H 449.562 -3.885 0.000771004 0
M  V30 4837 H 451.234 -3.80415 2.60926 0
M  V30 4838 H 449.477 -3.53765 2.51063 0
M  V30 4839 H 450.148 -5.11344 2.07922 0
M  V30 4840 H 452.624 -4.14013 0.416228 0
M  V30 4841 H 451.5 -5.48799 0.105374 0
M  V30 4842 H 451.761 -4.27264 -1.13571 0
M  V30 4843 N 450.82 -0.546701 -1.47814 0
M  V30 4844 C 452.231 -0.110564 -1.86372 0
M  V30 4845 C 452.582 1.31678 -1.45449 0
M  V30 4846 O 451.707 1.98889 -0.852758 0
M  V30 4847 C 452.302 -0.193873 -3.38245 0
M  V30 4848 C 450.861 0.187164 -3.75934 0
M  V30 4849 C 450.008 -0.546166 -2.71868 0
M  V30 4850 H 452.959 -0.757022 -1.39481 0
M  V30 4851 H 452.98 0.590218 -3.75895 0
M  V30 4852 H 452.492 -1.23282 -3.67999 0
M  V30 4853 H 450.593 1.22762 -3.51796 0
M  V30 4854 H 450.706 -0.164083 -4.78819 0
M  V30 4855 H 449.07 0.00953904 -2.54698 0
M  V30 4856 H 449.853 -1.58606 -3.04465 0
M  V30 4857 N 452.299 1.55045 -0.282633 0
M  V30 4858 C 453.229 2.2579 0.595066 0
M  V30 4859 C 454.21 1.25074 1.15284 0
M  V30 4860 O 455.395 1.5381 1.18559 0
M  V30 4861 C 452.525 2.98472 1.77572 0
M  V30 4862 C 451.479 4.0618 1.34914 0
M  V30 4863 C 450.805 4.66477 2.6135 0
M  V30 4864 C 452.105 5.1996 0.493821 0
M  V30 4865 H 453.799 2.994 0.00505653 0
M  V30 4866 H 451.345 1.44 0.000992001 0
M  V30 4867 H 453.298 3.46677 2.39568 0
M  V30 4868 H 452.022 2.2241 2.39168 0
M  V30 4869 H 450.681 3.58797 0.752338 0
M  V30 4870 H 450.329 3.87074 3.2122 0
M  V30 4871 H 450.029 5.39207 2.33516 0
M  V30 4872 H 451.553 5.17435 3.24181 0
M  V30 4873 H 452.967 5.64172 1.01898 0
M  V30 4874 H 451.364 5.99299 0.310047 0
M  V30 4875 H 452.434 4.82462 -0.485593 0
M  V30 4876 N 453.777 0.010035 1.57597 0
M  V30 4877 C 455.023 -0.673697 1.91283 0
M  V30 4878 C 455.356 -1.72863 0.884979 0
M  V30 4879 O 454.631 -1.94268 -0.0949487 0
M  V30 4880 C 454.914 -1.30766 3.35518 0
M  V30 4881 C 454.767 -0.263578 4.49027 0
M  V30 4882 C 456.086 -2.23105 3.79358 0
M  V30 4883 H 453.205 -0.243439 0.695634 0
M  V30 4884 H 455.847 0.0633864 1.89894 0
M  V30 4885 H 453.997 -1.93588 3.36832 0
M  V30 4886 H 455.669 0.365738 4.59848 0
M  V30 4887 H 453.912 0.413077 4.31829 0
M  V30 4888 H 454.583 -0.746398 5.4693 0
M  V30 4889 H 457.059 -1.70289 3.79659 0
M  V30 4890 H 455.935 -2.64424 4.81011 0
M  V30 4891 H 456.196 -3.11433 3.13787 0
M  V30 4892 N 455.255 -1.55392 -0.262866 0
M  V30 4893 C 456.185 -1.91978 -1.32917 0
M  V30 4894 C 457.166 -0.7828 -1.51017 0
M  V30 4895 O 458.351 -1.04178 -1.63892 0
M  V30 4896 C 455.481 -2.20055 -2.68687 0
M  V30 4897 C 454.435 -3.35854 -2.65304 0
M  V30 4898 C 453.761 -3.49435 -4.04721 0
M  V30 4899 C 455.061 -4.71977 -2.23685 0
M  V30 4900 H 456.755 -2.81292 -1.02544 0
M  V30 4901 H 454.301 -1.3534 -0.491846 0
M  V30 4902 H 456.254 -2.44237 -3.43404 0
M  V30 4903 H 454.978 -1.27551 -3.00663 0
M  V30 4904 H 453.637 -3.11655 -1.93045 0
M  V30 4905 H 453.285 -2.54379 -4.33936 0
M  V30 4906 H 452.985 -4.27297 -4.0335 0
M  V30 4907 H 454.509 -3.7592 -4.81161 0
M  V30 4908 H 455.923 -4.95637 -2.88127 0
M  V30 4909 H 454.32 -5.52828 -2.33456 0
M  V30 4910 H 455.39 -4.70115 -1.18827 0
M  V30 4911 N 456.733 0.527833 -1.48498 0
M  V30 4912 C 457.665 1.6482 -1.5927 0
M  V30 4913 C 458.678 1.55659 -0.476869 0
M  V30 4914 O 459.867 1.62081 -0.747806 0
M  V30 4915 C 456.967 3.0348 -1.50842 0
M  V30 4916 C 456.14 3.381 -2.77502 0
M  V30 4917 C 455.199 4.5605 -2.62497 0
M  V30 4918 O 454.225 4.59165 -3.36387 0
M  V30 4919 N 455.427 5.54353 -1.72257 0
M  V30 4920 H 458.192 1.56015 -2.55889 0
M  V30 4921 H 455.753 0.715152 -1.45249 0
M  V30 4922 H 457.745 3.80264 -1.38496 0
M  V30 4923 H 456.315 3.06352 -0.621887 0
M  V30 4924 H 455.535 2.50473 -3.04396 0
M  V30 4925 H 456.823 3.58017 -3.61527 0
M  V30 4926 H 456.221 5.54617 -1.11431 0
M  V30 4927 H 454.778 6.30347 -1.65849 0
M  V30 4928 N 458.211 1.37122 0.776871 0
M  V30 4929 C 459.174 1.32301 1.8716 0
M  V30 4930 C 460.174 0.228099 1.59174 0
M  V30 4931 O 461.364 0.483642 1.67352 0
M  V30 4932 C 458.496 1.054 3.24197 0
M  V30 4933 H 459.689 2.29673 1.92848 0
M  V30 4934 H 457.242 1.22077 0.97606 0
M  V30 4935 H 457.977 0.0853872 3.24188 0
M  V30 4936 H 457.762 1.84648 3.45901 0
M  V30 4937 H 459.252 1.04664 4.04271 0
M  V30 4938 N 459.689 -1.00246 1.21608 0
M  V30 4939 C 460.637 -2.11193 0.97469 0
M  V30 4940 C 461.631 -1.69216 -0.0789303 0
M  V30 4941 O 462.837 -1.79853 0.0726806 0
M  V30 4942 H 459.212 -0.690455 0.297953 0
M  V30 4943 H 461.183 -2.2873 1.91638 0
M  V30 4944 C 459.932 -3.43182 0.558717 0
M  V30 4945 H 459.255 -3.75918 1.3611 0
M  V30 4946 H 460.695 -4.21823 0.429154 0
M  V30 4947 C 459.154 -3.28882 -0.730648 0
M  V30 4948 O 459.684 -3.59835 -1.78554 0
M  V30 4949 N 457.89 -2.8209 -0.698131 0
M  V30 4950 H 457.437 -2.57099 0.16061 0
M  V30 4951 H 457.395 -2.72903 -1.56113 0
M  V30 4952 N 461.167 -1.02423 -1.1978 0
M  V30 4953 C 462.415 -0.716569 -1.8897 0
M  V30 4954 C 462.736 0.756769 -1.79716 0
M  V30 4955 O 462.006 1.5449 -1.20456 0
M  V30 4956 H 460.586 -0.262062 -0.699523 0
M  V30 4957 H 463.248 -1.29747 -1.45436 0
M  V30 4958 H 462.344 -1.00675 -2.95417 0
M  V30 4959 N 462.645 1.35699 -0.801477 0
M  V30 4960 C 464.061 1.52065 -0.484596 0
M  V30 4961 C 464.261 1.75215 0.995084 0
M  V30 4962 O 463.317 1.79061 1.78026 0
M  V30 4963 C 464.63 2.69908 -1.32552 0
M  V30 4964 C 466.178 2.83784 -1.32044 0
M  V30 4965 C 466.653 4.04646 -2.14536 0
M  V30 4966 N 468.144 4.11814 -2.12046 0
M  V30 4967 C 468.879 5.04437 -2.72636 0
M  V30 4968 N 468.375 6.02426 -3.42133 0
M  V30 4969 N 470.168 4.97144 -2.62305 0
M  V30 4970 H 462.319 1.18928 -1.75983 0
M  V30 4971 H 464.582 0.581455 -0.748741 0
M  V30 4972 H 464.288 2.59363 -2.37537 0
M  V30 4973 H 464.162 3.64376 -0.975181 0
M  V30 4974 H 466.549 2.93783 -0.27846 0
M  V30 4975 H 466.63 1.90188 -1.71062 0
M  V30 4976 H 466.274 3.95407 -3.18772 0
M  V30 4977 H 466.204 4.97413 -1.72882 0
M  V30 4978 H 468.695 3.41664 -1.61476 0
M  V30 4979 H 469.008 6.69688 -3.85666 0
M  V30 4980 H 467.353 6.02615 -3.46237 0
M  V30 4981 H 470.544 4.19546 -2.07603 0
M  V30 4982 H 470.717 5.69138 -3.09815 0
M  V30 4983 N 464.123 0.554532 1.47522 0
M  V30 4984 C 465.4 -0.0360704 1.95567 0
M  V30 4985 C 465.78 -1.48828 1.49711 0
M  V30 4986 O 465.128 -2.16366 0.734717 0
M  V30 4987 C 465.338 0.106631 3.48837 0
M  V30 4988 C 466.686 -0.0400899 4.24581 0
M  V30 4989 O 467.71 0.0340453 3.56184 0
M  V30 4990 O 466.569 -0.199111 5.46137 0
M  V30 4991 H 463.663 -0.0656294 0.824392 0
M  V30 4992 H 466.209 0.620867 1.57935 0
M  V30 4993 H 464.981 1.11727 3.7501 0
M  V30 4994 H 464.604 -0.58804 3.93227 0
M  V30 4995 N 465.601 -1.54893 0.290851 0
M  V30 4996 C 467.012 -1.85584 -0.203816 0
M  V30 4997 C 467.363 -1.21285 -1.54222 0
M  V30 4998 O 466.488 -0.506841 -2.10381 0
M  V30 4999 C 467.083 -3.367 -0.376595 0
M  V30 5000 C 465.642 -3.6746 -0.815485 0
M  V30 5001 C 464.789 -2.77178 0.0821087 0
M  V30 5002 H 467.74 -1.50208 0.512175 0
M  V30 5003 H 467.761 -3.60656 -1.21275 0
M  V30 5004 H 467.273 -3.8347 0.59767 0
M  V30 5005 H 465.374 -3.26201 -1.80066 0
M  V30 5006 H 465.487 -4.7478 -0.641905 0
M  V30 5007 H 463.851 -2.50925 -0.436895 0
M  V30 5008 H 464.634 -3.26767 1.05254 0
M  V30 5009 N 467.08 -0.0183926 -1.57589 0
M  V30 5010 C 467.99 0.982943 -2.13015 0
M  V30 5011 C 469.006 1.36443 -1.07979 0
M  V30 5012 O 470.182 1.44802 -1.3998 0
M  V30 5013 C 467.247 2.25024 -2.63752 0
M  V30 5014 C 466.308 1.93018 -3.83461 0
M  V30 5015 C 465.541 3.13706 -4.31769 0
M  V30 5016 O 465.764 4.2601 -3.79305 0
M  V30 5017 O 464.698 2.96629 -5.23732 0
M  V30 5018 H 468.524 0.541709 -2.9883 0
M  V30 5019 H 466.109 0.201565 -1.48034 0
M  V30 5020 H 467.991 2.99441 -2.96502 0
M  V30 5021 H 466.666 2.68349 -1.81026 0
M  V30 5022 H 465.573 1.16019 -3.55655 0
M  V30 5023 H 466.906 1.54516 -4.67317 0
M  V30 5024 N 468.558 1.5553 0.254621 0
M  V30 5025 C 469.488 1.9268 1.31897 0
M  V30 5026 C 470.469 0.790797 1.506 0
M  V30 5027 O 471.654 1.05045 1.63337 0
M  V30 5028 C 468.784 2.21477 2.67517 0
M  V30 5029 C 467.738 3.37256 2.63519 0
M  V30 5030 C 467.064 3.51576 4.02862 0
M  V30 5031 C 468.364 4.73157 2.21179 0
M  V30 5032 H 470.058 2.81832 1.01051 0
M  V30 5033 H 467.604 1.35599 0.484662 0
M  V30 5034 H 469.557 2.46055 3.42104 0
M  V30 5035 H 468.281 1.29144 2.99982 0
M  V30 5036 H 466.94 3.12675 1.9139 0
M  V30 5037 H 466.588 2.56676 4.32581 0
M  V30 5038 H 466.288 4.2943 4.01078 0
M  V30 5039 H 467.812 3.78467 4.79161 0
M  V30 5040 H 469.226 4.97158 2.85494 0
M  V30 5041 H 467.623 5.54058 2.30521 0
M  V30 5042 H 468.693 4.70739 1.16332 0
M  V30 5043 N 470.036 -0.519951 1.48776 0
M  V30 5044 C 471.283 -1.27522 1.57303 0
M  V30 5045 C 471.611 -1.92869 0.251328 0
M  V30 5046 O 470.866 -1.80372 -0.759243 0
M  V30 5047 C 471.165 -2.37864 2.6675 0
M  V30 5048 C 470.831 -1.90103 4.08867 0
M  V30 5049 C 469.493 -1.76795 4.47546 0
M  V30 5050 C 471.845 -1.54133 4.97888 0
M  V30 5051 C 469.173 -1.25868 5.73039 0
M  V30 5052 C 471.525 -1.04665 6.23881 0
M  V30 5053 C 470.189 -0.899823 6.61407 0
M  V30 5054 H 469.459 -0.466636 0.575614 0
M  V30 5055 H 472.106 -0.579109 1.82534 0
M  V30 5056 H 470.411 -3.13186 2.35418 0
M  V30 5057 H 472.108 -2.95969 2.70561 0
M  V30 5058 H 468.698 -2.01414 3.78326 0
M  V30 5059 H 472.882 -1.6327 4.68675 0
M  V30 5060 H 468.138 -1.13196 6.0083 0
M  V30 5061 H 472.312 -0.759074 6.92251 0
M  V30 5062 H 469.939 -0.503011 7.58534 0
M  V30 5063 N 471.514 -1.37532 -0.769588 0
M  V30 5064 C 472.424 -1.35668 -1.91393 0
M  V30 5065 C 473.44 -0.255954 -1.72107 0
M  V30 5066 O 474.616 -0.491704 -1.95305 0
M  V30 5067 C 471.681 -1.16481 -3.26547 0
M  V30 5068 C 470.742 -2.36212 -3.58472 0
M  V30 5069 C 469.975 -2.17932 -4.87177 0
M  V30 5070 O 470.198 -1.1647 -5.58382 0
M  V30 5071 O 469.132 -3.06167 -5.18214 0
M  V30 5072 H 472.958 -2.32055 -1.95918 0
M  V30 5073 H 470.543 -1.18284 -0.912641 0
M  V30 5074 H 472.425 -1.07778 -4.07384 0
M  V30 5075 H 471.1 -0.231687 -3.2287 0
M  V30 5076 H 470.007 -2.50488 -2.77861 0
M  V30 5077 H 471.34 -3.281 -3.66894 0
M  V30 5078 N 472.992 0.995999 -1.22138 0
M  V30 5079 C 474.241 1.72928 -1.03821 0
M  V30 5080 C 474.554 1.90872 0.427444 0
M  V30 5081 O 475.76 2.61496 0.730212 0
M  V30 5082 C 474.216 3.11124 -1.80913 0
M  V30 5083 C 473.824 3.01122 -3.31707 0
M  V30 5084 C 475.568 3.8852 -1.71035 0
M  V30 5085 C 473.475 4.34453 -4.01253 0
M  V30 5086 H 472.405 0.648376 -0.384869 0
M  V30 5087 H 475.056 1.11213 -1.45959 0
M  V30 5088 H 473.438 3.73503 -1.31573 0
M  V30 5089 H 474.612 2.47926 -3.88419 0
M  V30 5090 H 472.927 2.3721 -3.42228 0
M  V30 5091 H 475.524 4.872 -2.20318 0
M  V30 5092 H 475.867 4.1087 -0.670196 0
M  V30 5093 H 476.4 3.32812 -2.17902 0
M  V30 5094 H 473.139 4.17303 -5.05508 0
M  V30 5095 H 472.659 4.87574 -3.49331 0
M  V30 5096 H 474.338 5.03215 -4.06674 0
M  V30 5097 N 474.47 1.03057 1.19235 0
M  V30 5098 C 475.881 0.757449 1.70645 0
M  V30 5099 C 476.232 -0.722735 1.82403 0
M  V30 5100 O 475.357 -1.56325 1.49638 0
M  V30 5101 C 475.952 1.36833 3.09939 0
M  V30 5102 C 474.511 1.14375 3.58602 0
M  V30 5103 C 473.658 1.46533 2.35422 0
M  V30 5104 H 476.609 1.19828 1.04052 0
M  V30 5105 H 476.63 0.766184 3.72706 0
M  V30 5106 H 476.142 2.44562 3.01349 0
M  V30 5107 H 474.243 0.0847542 3.72504 0
M  V30 5108 H 474.356 1.83366 4.42622 0
M  V30 5109 H 472.72 0.884712 2.38841 0
M  V30 5110 H 473.503 2.55349 2.2946 0
M  V30 5111 N 475.948 -1.35272 0.808662 0
M  V30 5112 C 477.359 -1.81179 0.450688 0
M  V30 5113 C 477.71 -1.67143 -1.02751 0
M  V30 5114 O 476.835 -1.20325 -1.79864 0
M  V30 5115 C 477.43 -3.28943 0.811275 0
M  V30 5116 C 475.989 -3.72985 0.505871 0
M  V30 5117 C 475.136 -2.57229 1.03578 0
M  V30 5118 H 478.087 -1.2322 1.00012 0
M  V30 5119 H 478.108 -3.80342 0.109588 0
M  V30 5120 H 477.62 -3.39127 1.88718 0
M  V30 5121 H 475.721 -3.68349 -0.561209 0
M  V30 5122 H 475.834 -4.67677 1.03995 0
M  V30 5123 H 474.198 -2.50548 0.458005 0
M  V30 5124 H 474.981 -2.7019 2.11784 0
M  V30 5125 N 477.426 -0.562348 -1.47226 0
M  V30 5126 C 478.703 0.0256985 -1.95583 0
M  V30 5127 C 479.083 1.48032 -1.50498 0
M  V30 5128 O 478.431 2.15973 -0.746181 0
M  V30 5129 C 478.641 -0.125129 -3.48776 0
M  V30 5130 C 479.989 0.0175728 -4.24596 0
M  V30 5131 O 481.013 -0.0529341 -3.56161 0
M  V30 5132 O 479.872 0.170145 -5.46235 0
M  V30 5133 H 476.966 0.0612565 -0.824728 0
M  V30 5134 H 479.512 -0.629233 -1.57603 0
M  V30 5135 H 478.284 -1.13715 -3.74412 0
M  V30 5136 H 477.907 0.567178 -3.93534 0
M  V30 5137 N 478.904 1.54736 -0.299062 0
M  V30 5138 C 479.834 2.26409 0.571085 0
M  V30 5139 C 480.815 1.2629 1.13951 0
M  V30 5140 O 482 1.55059 1.16921 0
M  V30 5141 C 479.13 3.00338 1.74396 0
M  V30 5142 C 478.084 4.07588 1.30599 0
M  V30 5143 C 477.41 4.69222 2.56387 0
M  V30 5144 C 478.71 5.20455 0.438645 0
M  V30 5145 H 480.404 2.99388 -0.0266991 0
M  V30 5146 H 477.95 1.43993 -0.0142812 0
M  V30 5147 H 479.903 3.49198 2.35878 0
M  V30 5148 H 478.627 2.24934 2.36796 0
M  V30 5149 H 477.286 3.59575 0.71424 0
M  V30 5150 H 476.934 3.9046 3.17097 0
M  V30 5151 H 476.634 5.41653 2.27784 0
M  V30 5152 H 478.158 5.20844 3.18675 0
M  V30 5153 H 479.572 5.65221 0.959085 0
M  V30 5154 H 477.969 5.99594 0.246466 0
M  V30 5155 H 479.039 4.8192 -0.536738 0
M  V30 5156 N 480.382 0.0267497 1.57577 0
M  V30 5157 C 481.628 -0.653371 1.91987 0
M  V30 5158 C 481.961 -1.71915 0.903263 0
M  V30 5159 O 481.236 -1.94358 -0.0743387 0
M  V30 5160 C 481.519 -1.272 3.36886 0
M  V30 5161 C 481.372 -0.215938 4.49281 0
M  V30 5162 C 482.691 -2.19069 3.81703 0
M  V30 5163 H 479.81 -0.236047 0.698177 0
M  V30 5164 H 482.452 0.0835236 1.89816 0
M  V30 5165 H 480.602 -1.90005 3.38866 0
M  V30 5166 H 482.274 0.41449 4.59434 0
M  V30 5167 H 480.517 0.458855 4.31366 0
M  V30 5168 H 481.188 -0.688347 5.47691 0
M  V30 5169 H 483.664 -1.66253 3.81444 0
M  V30 5170 H 482.54 -2.59307 4.83788 0
M  V30 5171 H 482.801 -3.08087 3.17072 0
M  V30 5172 N 481.861 -1.55662 -0.24637 0
M  V30 5173 C 482.791 -1.93377 -1.30873 0
M  V30 5174 C 483.772 -0.798773 -1.50179 0
M  V30 5175 O 484.957 -1.0591 -1.62778 0
M  V30 5176 C 482.087 -2.22893 -2.66338 0
M  V30 5177 C 481.041 -3.38649 -2.61727 0
M  V30 5178 C 480.367 -3.53708 -4.00992 0
M  V30 5179 C 481.667 -4.74323 -2.18666 0
M  V30 5180 H 483.361 -2.82363 -0.995552 0
M  V30 5181 H 480.907 -1.35854 -0.477464 0
M  V30 5182 H 482.86 -2.47866 -3.40794 0
M  V30 5183 H 481.584 -1.30733 -2.99293 0
M  V30 5184 H 480.243 -3.13685 -1.89729 0
M  V30 5185 H 479.891 -2.58967 -4.31214 0
M  V30 5186 H 479.591 -4.31551 -3.98795 0
M  V30 5187 H 481.115 -3.81003 -4.77147 0
M  V30 5188 H 482.529 -4.98665 -2.82854 0
M  V30 5189 H 480.926 -5.55273 -2.27579 0
M  V30 5190 H 481.996 -4.71349 -1.13834 0
M  V30 5191 N 483.339 0.512053 -1.4905 0
M  V30 5192 C 484.249 1.64139 -1.67617 0
M  V30 5193 C 485.265 1.64786 -0.558701 0
M  V30 5194 O 486.441 1.8341 -0.832034 0
M  V30 5195 C 483.506 3.00548 -1.72835 0
M  V30 5196 C 482.567 3.10615 -2.96339 0
M  V30 5197 C 481.8 4.40517 -3.01298 0
M  V30 5198 O 482.023 5.28671 -2.14157 0
M  V30 5199 O 480.957 4.55325 -3.93653 0
M  V30 5200 H 484.783 1.51407 -2.63267 0
M  V30 5201 H 482.368 0.687131 -1.32661 0
M  V30 5202 H 484.25 3.81641 -1.78683 0
M  V30 5203 H 482.925 3.13566 -0.803616 0
M  V30 5204 H 481.832 2.2875 -2.96014 0
M  V30 5205 H 483.165 3.0252 -3.88256 0
M  V30 5206 N 484.817 1.37938 0.762283 0
M  V30 5207 C 486.063 1.33866 1.52341 0
M  V30 5208 C 486.396 -0.0738961 1.94059 0
M  V30 5209 O 485.671 -1.03326 1.64785 0
M  V30 5210 C 485.954 2.28644 2.78197 0
M  V30 5211 C 485.807 3.78722 2.42672 0
M  V30 5212 C 487.126 2.21702 3.80179 0
M  V30 5213 H 484.245 0.487593 0.55265 0
M  V30 5214 H 486.887 1.68717 0.873767 0
M  V30 5215 H 485.037 1.99055 3.33631 0
M  V30 5216 H 486.709 4.18948 1.93081 0
M  V30 5217 H 484.952 3.96827 1.75244 0
M  V30 5218 H 485.623 4.40486 3.3268 0
M  V30 5219 H 488.099 2.47805 3.34263 0
M  V30 5220 H 486.975 2.90143 4.65949 0
M  V30 5221 H 487.236 1.21301 4.25133 0
M  V30 5222 N 486.295 -0.989507 1.22664 0
M  V30 5223 C 487.258 -2.06183 1.00106 0
M  V30 5224 C 488.258 -1.60765 -0.0337726 0
M  V30 5225 O 489.448 -1.72989 0.205072 0
M  V30 5226 C 486.58 -3.37021 0.51279 0
M  V30 5227 H 487.773 -2.27629 1.95256 0
M  V30 5228 H 485.326 -1.16158 1.0458 0
M  V30 5229 H 486.061 -3.21261 -0.442917 0
M  V30 5230 H 485.846 -3.71323 1.25942 0
M  V30 5231 H 487.336 -4.1591 0.375315 0
M  V30 5232 N 487.773 -1.03688 -1.18687 0
M  V30 5233 C 488.706 -0.569112 -2.2099 0
M  V30 5234 C 489.684 0.394315 -1.57746 0
M  V30 5235 O 490.868 0.309519 -1.85941 0
M  V30 5236 C 487.995 0.169104 -3.38278 0
M  V30 5237 C 487.041 -0.746989 -4.19908 0
M  V30 5238 S 487.874 -2.22773 -4.86963 0
M  V30 5239 C 489.03 -1.50025 -6.07654 0
M  V30 5240 H 489.263 -1.43589 -2.60326 0
M  V30 5241 H 486.796 -0.847507 -1.29061 0
M  V30 5242 H 488.754 0.588868 -4.06254 0
M  V30 5243 H 487.415 1.01172 -2.9736 0
M  V30 5244 H 486.608 -0.176626 -5.0369 0
M  V30 5245 H 486.21 -1.10543 -3.5729 0
M  V30 5246 H 488.502 -0.791217 -6.72864 0
M  V30 5247 H 489.445 -2.31498 -6.69189 0
M  V30 5248 H 489.853 -0.994245 -5.55675 0
M  V30 5249 N 489.251 1.34841 -0.815825 0
M  V30 5250 C 490.161 2.33425 -0.234462 0
M  V30 5251 C 491.177 1.62295 0.627413 0
M  V30 5252 O 492.353 1.94109 0.536987 0
M  V30 5253 C 489.418 3.41471 0.599849 0
M  V30 5254 C 488.479 4.28362 -0.283596 0
M  V30 5255 C 487.712 5.31248 0.51099 0
M  V30 5256 O 487.935 5.43056 1.7449 0
M  V30 5257 O 486.869 6.01812 -0.10297 0
M  V30 5258 H 490.695 2.84962 -1.05024 0
M  V30 5259 H 488.28 1.37774 -0.577809 0
M  V30 5260 H 490.162 4.07464 1.07475 0
M  V30 5261 H 488.837 2.9219 1.39308 0
M  V30 5262 H 487.744 3.65318 -0.805836 0
M  V30 5263 H 489.077 4.81066 -1.041 0
M  V30 5264 N 490.729 0.570148 1.46925 0
M  V30 5265 C 491.679 -0.190921 2.27199 0
M  V30 5266 C 492.663 -0.873457 1.35128 0
M  V30 5267 O 493.855 -0.769627 1.59392 0
M  V30 5268 C 490.984 -1.21204 3.21192 0
M  V30 5269 C 490.07 -0.532261 4.20747 0
M  V30 5270 N 490.461 0.405038 5.04176 0
M  V30 5271 C 488.759 -0.784582 4.39045 0
M  V30 5272 C 489.46 0.801149 5.76157 0
M  V30 5273 N 488.436 0.153082 5.43384 0
M  V30 5274 H 492.238 0.529535 2.8909 0
M  V30 5275 H 489.752 0.391019 1.57622 0
M  V30 5276 H 491.749 -1.77135 3.77398 0
M  V30 5277 H 490.409 -1.93345 2.6086 0
M  V30 5278 H 491.42 0.779903 5.11994 0
M  V30 5279 H 488.097 -1.49352 3.89872 0
M  V30 5280 H 489.487 1.57208 6.5325 0
M  V30 5281 N 492.207 -1.54576 0.307264 0
M  V30 5282 C 493.618 -1.8579 -0.184121 0
M  V30 5283 C 493.969 -1.22914 -1.52927 0
M  V30 5284 O 493.094 -0.529126 -2.09831 0
M  V30 5285 C 493.689 -3.37081 -0.340862 0
M  V30 5286 C 492.248 -3.68304 -0.776465 0
M  V30 5287 C 491.395 -2.77076 0.111503 0
M  V30 5288 H 494.346 -1.49656 0.528078 0
M  V30 5289 H 494.367 -3.61922 -1.17443 0
M  V30 5290 H 493.879 -3.82815 0.638309 0
M  V30 5291 H 491.98 -3.28092 -1.76596 0
M  V30 5292 H 492.093 -4.75434 -0.591512 0
M  V30 5293 H 490.457 -2.51374 -0.410256 0
M  V30 5294 H 491.24 -3.25632 1.08714 0
M  V30 5295 N 493.685 -0.035106 -1.57561 0
M  V30 5296 C 494.632 0.94474 -2.10578 0
M  V30 5297 C 495.602 1.3192 -1.00927 0
M  V30 5298 O 496.787 1.41147 -1.28382 0
M  V30 5299 C 493.927 2.21982 -2.64231 0
M  V30 5300 C 493.04 1.90128 -3.87911 0
M  V30 5301 C 492.175 3.11975 -4.29936 0
M  V30 5302 C 491.214 2.75968 -5.46359 0
M  V30 5303 N 490.351 3.90459 -5.83512 0
M  V30 5304 H 495.191 0.485717 -2.94015 0
M  V30 5305 H 492.728 0.228143 -1.4532 0
M  V30 5306 H 494.686 2.96572 -2.9343 0
M  V30 5307 H 493.316 2.6549 -1.83616 0
M  V30 5308 H 492.368 1.05755 -3.65404 0
M  V30 5309 H 493.68 1.59613 -4.72573 0
M  V30 5310 H 492.834 3.9488 -4.60603 0
M  V30 5311 H 491.573 3.45657 -3.44053 0
M  V30 5312 H 490.578 1.91478 -5.1538 0
M  V30 5313 H 491.803 2.43497 -6.33945 0
M  V30 5314 H 489.749 4.23971 -5.00584 0
M  V30 5315 H 489.666 3.63588 -6.62827 0
M  V30 5316 H 490.934 4.7405 -6.18787 0
M  V30 5317 N 495.163 1.55791 0.238111 0
M  V30 5318 C 496.393 1.81834 0.980809 0
M  V30 5319 C 496.801 0.609741 1.79106 0
M  V30 5320 O 496.144 -0.431073 1.78571 0
M  V30 5321 C 496.206 3.01363 1.96011 0
M  V30 5322 C 495.87 4.37037 1.33597 0
M  V30 5323 C 496.867 5.14692 0.734063 0
M  V30 5324 C 494.552 4.83743 1.3527 0
M  V30 5325 C 496.546 6.37206 0.157208 0
M  V30 5326 C 494.233 6.06204 0.77199 0
M  V30 5327 C 495.231 6.82775 0.175282 0
M  V30 5328 O 494.919 8.02922 -0.396432 0
M  V30 5329 H 494.651 0.6088 0.293834 0
M  V30 5330 H 497.205 2.03702 0.263552 0
M  V30 5331 H 495.435 2.75273 2.71591 0
M  V30 5332 H 497.124 3.14422 2.56697 0
M  V30 5333 H 497.89 4.79722 0.713582 0
M  V30 5334 H 493.769 4.24129 1.80653 0
M  V30 5335 H 497.313 6.96915 -0.30917 0
M  V30 5336 H 493.21 6.4065 0.789828 0
M  V30 5337 H 493.978 8.17989 -0.289145 0
M  V30 5338 N 496.642 -0.504142 1.49319 0
M  V30 5339 C 497.552 -1.63248 1.68486 0
M  V30 5340 C 498.568 -1.64488 0.567432 0
M  V30 5341 O 499.744 -1.82966 0.841749 0
M  V30 5342 C 496.809 -2.99627 1.74426 0
M  V30 5343 C 495.87 -3.09039 2.97982 0
M  V30 5344 C 495.103 -4.38913 3.0363 0
M  V30 5345 O 495.326 -5.27528 2.16958 0
M  V30 5346 O 494.26 -4.53231 3.96062 0
M  V30 5347 H 498.086 -1.50008 2.64067 0
M  V30 5348 H 495.671 -0.680086 1.33023 0
M  V30 5349 H 497.553 -3.80689 1.80705 0
M  V30 5350 H 496.228 -3.13136 0.820233 0
M  V30 5351 H 495.135 -2.27177 2.97223 0
M  V30 5352 H 496.468 -3.00456 3.89855 0
M  V30 5353 N 498.12 -1.38341 -0.754957 0
M  V30 5354 C 499.366 -1.35678 -1.51536 0
M  V30 5355 C 499.721 0.0533985 -1.92326 0
M  V30 5356 O 499.014 1.01573 -1.6246 0
M  V30 5357 C 499.208 -2.2452 -2.78075 0
M  V30 5358 C 499.037 -3.74035 -2.49655 0
M  V30 5359 C 497.807 -4.43066 -2.42942 0
M  V30 5360 C 500.005 -4.665 -2.16523 0
M  V30 5361 N 497.987 -5.78026 -2.06783 0
M  V30 5362 C 499.358 -5.89962 -1.90644 0
M  V30 5363 C 501.413 -4.54718 -2.02821 0
M  V30 5364 C 500.116 -7.0296 -1.52444 0
M  V30 5365 C 502.142 -5.67618 -1.66023 0
M  V30 5366 C 501.504 -6.90141 -1.41015 0
M  V30 5367 H 497.603 -0.551764 -0.554148 0
M  V30 5368 H 500.187 -1.73716 -0.879258 0
M  V30 5369 H 498.358 -1.88673 -3.39496 0
M  V30 5370 H 500.09 -2.12993 -3.44116 0
M  V30 5371 H 496.845 -3.96264 -2.59367 0
M  V30 5372 H 497.269 -6.49394 -1.91353 0
M  V30 5373 H 501.911 -3.60546 -2.20831 0
M  V30 5374 H 499.629 -7.97051 -1.33174 0
M  V30 5375 H 503.215 -5.6048 -1.56055 0
M  V30 5376 H 502.095 -7.76021 -1.12965 0
M  V30 5377 N 499.598 0.982988 -1.23187 0
M  V30 5378 C 500.845 1.72392 -1.06241 0
M  V30 5379 C 501.173 1.9032 0.40108 0
M  V30 5380 O 500.428 1.45084 1.31336 0
M  V30 5381 C 500.727 3.12736 -1.73006 0
M  V30 5382 C 500.393 3.14695 -3.22921 0
M  V30 5383 C 499.055 3.14937 -3.63824 0
M  V30 5384 C 501.407 3.10211 -4.1883 0
M  V30 5385 C 498.735 3.08408 -4.99101 0
M  V30 5386 C 501.087 3.05224 -5.54095 0
M  V30 5387 C 499.751 3.03787 -5.94365 0
M  V30 5388 H 499.021 0.630829 -0.388762 0
M  V30 5389 H 501.668 1.15053 -1.53085 0
M  V30 5390 H 499.973 3.73446 -1.18514 0
M  V30 5391 H 501.67 3.68828 -1.57374 0
M  V30 5392 H 498.26 3.15262 -2.90358 0
M  V30 5393 H 502.444 3.09166 -3.8824 0
M  V30 5394 H 497.7 3.05646 -5.29519 0
M  V30 5395 H 501.874 3.00712 -6.28128 0
M  V30 5396 H 499.501 2.98483 -6.99151 0
M  V30 5397 N 501.076 1.04316 1.18135 0
M  V30 5398 C 502.492 0.762858 1.40188 0
M  V30 5399 C 502.692 -0.646547 1.90846 0
M  V30 5400 O 501.748 -1.41036 2.0944 0
M  V30 5401 C 503.061 1.81106 2.40044 0
M  V30 5402 C 504.609 1.83226 2.53766 0
M  V30 5403 C 505.084 2.87044 3.56889 0
M  V30 5404 N 506.575 2.85951 3.64398 0
M  V30 5405 C 507.31 3.62932 4.43923 0
M  V30 5406 N 506.806 4.49672 5.27036 0
M  V30 5407 N 508.599 3.51411 4.38711 0
M  V30 5408 H 500.75 1.95264 0.835805 0
M  V30 5409 H 503.013 0.845017 0.429709 0
M  V30 5410 H 502.719 2.82214 2.09876 0
M  V30 5411 H 502.593 1.64529 3.39426 0
M  V30 5412 H 504.98 0.827869 2.8325 0
M  V30 5413 H 505.061 2.03879 1.54489 0
M  V30 5414 H 504.705 3.87663 3.28145 0
M  V30 5415 H 504.635 2.63645 4.5585 0
M  V30 5416 H 507.126 2.23051 3.05052 0
M  V30 5417 H 507.439 5.05116 5.84874 0
M  V30 5418 H 505.784 4.53738 5.26447 0
M  V30 5419 H 508.975 2.83047 3.72829 0
M  V30 5420 H 509.148 4.11654 5.00445 0
M  V30 5421 N 502.554 -1.34406 0.822964 0
M  V30 5422 C 503.464 -2.33298 0.246838 0
M  V30 5423 C 504.48 -1.62625 -0.618797 0
M  V30 5424 O 505.656 -1.94391 -0.526685 0
M  V30 5425 C 502.721 -3.41785 -0.581731 0
M  V30 5426 C 501.782 -4.28206 0.306309 0
M  V30 5427 C 501.015 -5.31512 -0.48281 0
M  V30 5428 O 501.238 -5.43973 -1.71607 0
M  V30 5429 O 500.172 -6.01749 0.134884 0
M  V30 5430 H 503.998 -2.84401 1.06534 0
M  V30 5431 H 501.583 -1.37466 0.585108 0
M  V30 5432 H 503.465 -4.08028 -1.05313 0
M  V30 5433 H 502.14 -2.92925 -1.37756 0
M  V30 5434 H 501.047 -3.64885 0.825199 0
M  V30 5435 H 502.38 -4.80507 1.06649 0
M  V30 5436 N 504.032 -0.577932 -1.46621 0
M  V30 5437 C 504.962 0.145917 -2.33044 0
M  V30 5438 C 505.943 0.888412 -1.45056 0
M  V30 5439 O 507.128 0.864812 -1.73881 0
M  V30 5440 C 504.258 1.16322 -3.27241 0
M  V30 5441 C 503.212 0.535868 -4.24632 0
M  V30 5442 C 502.538 1.65929 -5.08303 0
M  V30 5443 C 503.838 -0.523861 -5.19666 0
M  V30 5444 H 505.532 -0.575636 -2.93814 0
M  V30 5445 H 503.078 -0.278272 -1.41286 0
M  V30 5446 H 505.031 1.67793 -3.86553 0
M  V30 5447 H 503.755 1.91498 -2.64567 0
M  V30 5448 H 502.414 0.0422759 -3.66576 0
M  V30 5449 H 502.062 2.40061 -4.42018 0
M  V30 5450 H 501.762 1.2452 -5.74255 0
M  V30 5451 H 503.286 2.17686 -5.70478 0
M  V30 5452 H 504.7 -0.0944059 -5.73222 0
M  V30 5453 H 503.097 -0.858 -5.93935 0
M  V30 5454 H 504.167 -1.41197 -4.63887 0
M  V30 5455 N 505.51 1.54411 -0.315457 0
M  V30 5456 C 506.42 2.27737 0.56329 0
M  V30 5457 C 507.436 1.31787 1.13614 0
M  V30 5458 O 508.612 1.64791 1.15784 0
M  V30 5459 C 505.677 3.01478 1.71207 0
M  V30 5460 C 504.738 4.12997 1.17185 0
M  V30 5461 C 503.971 4.83212 2.26588 0
M  V30 5462 O 504.194 4.52884 3.46775 0
M  V30 5463 O 503.128 5.70299 1.92463 0
M  V30 5464 H 506.954 3.03683 -0.0319614 0
M  V30 5465 H 504.539 1.49178 -0.0814188 0
M  V30 5466 H 506.421 3.47683 2.38106 0
M  V30 5467 H 505.096 2.28414 2.29366 0
M  V30 5468 H 504.003 3.71159 0.468174 0
M  V30 5469 H 505.336 4.8808 0.635501 0
M  V30 5470 N 506.988 0.0434614 1.5754 0
M  V30 5471 C 507.918 -0.931651 2.14109 0
M  V30 5472 C 508.899 -1.32971 1.06079 0
M  V30 5473 O 510.084 -1.40579 1.33982 0
M  V30 5474 C 507.214 -2.20914 2.67982 0
M  V30 5475 C 506.168 -1.95139 3.80926 0
M  V30 5476 C 505.494 -3.29276 4.21285 0
M  V30 5477 C 506.794 -1.27913 5.06395 0
M  V30 5478 H 508.488 -0.460497 2.95837 0
M  V30 5479 H 506.034 -0.220058 1.42309 0
M  V30 5480 H 507.987 -2.89522 3.06194 0
M  V30 5481 H 506.711 -2.70221 1.83434 0
M  V30 5482 H 505.37 -1.28945 3.43175 0
M  V30 5483 H 505.018 -3.76369 3.33699 0
M  V30 5484 H 504.718 -3.12831 4.97404 0
M  V30 5485 H 506.242 -3.99129 4.62091 0
M  V30 5486 H 507.656 -1.86544 5.42102 0
M  V30 5487 H 506.053 -1.2182 5.87605 0
M  V30 5488 H 507.123 -0.254066 4.84234 0
M  V30 5489 N 508.466 -1.55915 -0.229846 0
M  V30 5490 C 509.413 -1.91734 -1.28478 0
M  V30 5491 C 510.383 -0.773539 -1.46988 0
M  V30 5492 O 511.568 -1.02871 -1.60693 0
M  V30 5493 C 508.708 -2.23224 -2.63182 0
M  V30 5494 C 507.821 -3.50497 -2.52539 0
M  V30 5495 C 506.956 -3.71474 -3.79711 0
M  V30 5496 C 505.995 -4.92289 -3.63755 0
M  V30 5497 N 505.132 -5.09698 -4.82858 0
M  V30 5498 H 509.972 -2.81692 -0.972308 0
M  V30 5499 H 507.509 -1.39429 -0.468815 0
M  V30 5500 H 509.467 -2.3949 -3.41614 0
M  V30 5501 H 508.097 -1.36451 -2.92542 0
M  V30 5502 H 507.149 -3.4247 -1.65585 0
M  V30 5503 H 508.461 -4.39079 -2.36666 0
M  V30 5504 H 507.615 -3.87791 -4.66586 0
M  V30 5505 H 506.354 -2.81157 -3.985 0
M  V30 5506 H 505.359 -4.7593 -2.75264 0
M  V30 5507 H 506.584 -5.84083 -3.46445 0
M  V30 5508 H 504.53 -4.22322 -5.01976 0
M  V30 5509 H 504.447 -5.92399 -4.69681 0
M  V30 5510 H 505.715 -5.30443 -5.71183 0
M  V30 5511 N 509.944 0.496216 -1.49584 0
M  V30 5512 C 511.19 1.24918 -1.60521 0
M  V30 5513 C 511.545 1.90197 -0.290352 0
M  V30 5514 O 510.838 1.77967 0.709813 0
M  V30 5515 C 511.032 2.3359 -2.705 0
M  V30 5516 C 510.861 1.78969 -4.12553 0
M  V30 5517 C 509.631 1.60057 -4.79281 0
M  V30 5518 C 511.829 1.29883 -4.97629 0
M  V30 5519 N 509.811 1.00415 -6.05632 0
M  V30 5520 C 511.182 0.824057 -6.14499 0
M  V30 5521 C 513.237 1.18501 -4.83593 0
M  V30 5522 C 511.94 0.246721 -7.18877 0
M  V30 5523 C 513.966 0.621634 -5.88124 0
M  V30 5524 C 513.328 0.157116 -7.04225 0
M  V30 5525 H 509.427 0.446896 -0.641722 0
M  V30 5526 H 512.011 0.555456 -1.86609 0
M  V30 5527 H 510.182 3.00418 -2.46178 0
M  V30 5528 H 511.914 3.00628 -2.70933 0
M  V30 5529 H 508.669 1.84562 -4.36158 0
M  V30 5530 H 509.093 0.725074 -6.73106 0
M  V30 5531 H 513.735 1.53012 -3.94141 0
M  V30 5532 H 511.453 -0.110651 -8.08024 0
M  V30 5533 H 515.039 0.536279 -5.79323 0
M  V30 5534 H 513.919 -0.272009 -7.83728 0
M  V30 5535 N 511.423 1.38739 0.74761 0
M  V30 5536 C 512.653 1.3832 1.53464 0
M  V30 5537 C 513.061 -0.0273464 1.8918 0
M  V30 5538 O 512.404 -1.00588 1.53713 0
M  V30 5539 C 512.466 2.18007 2.85855 0
M  V30 5540 C 512.13 3.66762 2.72644 0
M  V30 5541 C 513.127 4.60124 2.42037 0
M  V30 5542 C 510.812 4.10193 2.89909 0
M  V30 5543 C 512.806 5.94897 2.28859 0
M  V30 5544 C 510.493 5.45045 2.7635 0
M  V30 5545 C 511.491 6.37211 2.45869 0
M  V30 5546 O 511.179 7.69581 2.3238 0
M  V30 5547 H 510.911 0.474718 0.481268 0
M  V30 5548 H 513.465 1.83012 0.932518 0
M  V30 5549 H 511.695 1.68043 3.48279 0
M  V30 5550 H 513.384 2.09921 3.47402 0
M  V30 5551 H 514.15 4.27874 2.28361 0
M  V30 5552 H 510.029 3.38797 3.1263 0
M  V30 5553 H 513.573 6.66802 2.04989 0
M  V30 5554 H 509.47 5.76889 2.89601 0
M  V30 5555 H 510.238 7.80169 2.47546 0
M  V30 5556 N 512.901 -0.976442 1.23707 0
M  V30 5557 C 513.864 -2.0511 1.02287 0
M  V30 5558 C 514.864 -1.60791 -0.0167195 0
M  V30 5559 O 516.054 -1.72761 0.223408 0
M  V30 5560 C 513.186 -3.36458 0.548507 0
M  V30 5561 H 514.379 -2.25545 1.9766 0
M  V30 5562 H 511.932 -1.15042 1.05806 0
M  V30 5563 H 512.667 -3.21713 -0.408818 0
M  V30 5564 H 512.452 -3.69967 1.29874 0
M  V30 5565 H 513.942 -4.15489 0.419406 0
M  V30 5566 N 514.379 -1.04941 -1.1758 0
M  V30 5567 C 515.309 -0.669172 -2.23706 0
M  V30 5568 C 516.29 0.331835 -1.66832 0
M  V30 5569 O 517.475 0.209988 -1.93061 0
M  V30 5570 C 514.605 -0.0404889 -3.47276 0
M  V30 5571 C 513.559 -0.965983 -4.16957 0
M  V30 5572 C 512.885 -0.201312 -5.34321 0
M  V30 5573 C 514.185 -2.28902 -4.69469 0
M  V30 5574 H 515.879 -1.55639 -2.55767 0
M  V30 5575 H 513.425 -0.749793 -1.22939 0
M  V30 5576 H 515.378 0.237298 -4.20731 0
M  V30 5577 H 514.102 0.881658 -3.14475 0
M  V30 5578 H 512.761 -1.22829 -3.45411 0
M  V30 5579 H 512.409 0.723519 -4.97769 0
M  V30 5580 H 512.109 -0.817968 -5.81879 0
M  V30 5581 H 513.633 0.0692499 -6.10561 0
M  V30 5582 H 515.047 -2.07132 -5.34574 0
M  V30 5583 H 513.444 -2.85942 -5.27596 0
M  V30 5584 H 514.514 -2.92937 -3.86414 0
M  V30 5585 N 515.857 1.33968 -0.830081 0
M  V30 5586 C 517.268 1.80439 -0.479455 0
M  V30 5587 C 517.619 1.68756 1.00079 0
M  V30 5588 O 516.744 1.23171 1.77927 0
M  V30 5589 C 517.339 3.27611 -0.863505 0
M  V30 5590 C 515.898 3.72133 -0.565145 0
M  V30 5591 C 515.045 2.55549 -1.07657 0
M  V30 5592 H 517.996 1.21614 -1.0196 0
M  V30 5593 H 518.017 3.8012 -0.170083 0
M  V30 5594 H 517.529 3.36082 -1.94089 0
M  V30 5595 H 515.63 3.69196 0.502536 0
M  V30 5596 H 515.743 4.65963 -1.11422 0
M  V30 5597 H 514.107 2.49788 -0.497807 0
M  V30 5598 H 514.89 2.66786 -2.16055 0
M  V30 5599 N 517.335 0.585699 1.46312 0
M  V30 5600 C 518.298 -0.135673 2.28798 0
M  V30 5601 C 519.298 -0.815988 1.38558 0
M  V30 5602 O 520.488 -0.667487 1.60904 0
M  V30 5603 C 517.62 -1.20163 3.1902 0
M  V30 5604 H 518.813 0.589257 2.94054 0
M  V30 5605 H 516.366 0.343794 1.52472 0
M  V30 5606 H 517.101 -1.95804 2.58517 0
M  V30 5607 H 516.886 -0.718282 3.85465 0
M  V30 5608 H 518.376 -1.70749 3.81096 0
M  V30 5609 N 518.813 -1.54241 0.323641 0
M  V30 5610 C 520.059 -2.00867 -0.279323 0
M  V30 5611 C 520.392 -1.21146 -1.5178 0
M  V30 5612 O 519.667 -0.29378 -1.92269 0
M  V30 5613 C 519.95 -3.54837 -0.613387 0
M  V30 5614 C 519.803 -4.45284 0.635803 0
M  V30 5615 C 521.122 -4.16186 -1.43099 0
M  V30 5616 H 518.241 -0.730177 -0.100049 0
M  V30 5617 H 520.883 -1.84829 0.440235 0
M  V30 5618 H 519.033 -3.68634 -1.22641 0
M  V30 5619 H 520.705 -4.43357 1.27406 0
M  V30 5620 H 518.948 -4.14956 1.26466 0
M  V30 5621 H 519.619 -5.5084 0.357597 0
M  V30 5622 H 522.095 -4.05964 -0.912814 0
M  V30 5623 H 520.971 -5.24031 -1.6335 0
M  V30 5624 H 521.232 -3.69516 -2.42715 0
M  V30 5625 N 520.291 -0.0518155 -1.57515 0
M  V30 5626 C 521.254 0.907547 -2.10467 0
M  V30 5627 C 522.254 1.23947 -1.02439 0
M  V30 5628 O 523.444 1.17604 -1.2851 0
M  V30 5629 C 520.576 2.21723 -2.58944 0
M  V30 5630 H 521.769 0.44851 -2.96527 0
M  V30 5631 H 519.322 0.196598 -1.55059 0
M  V30 5632 H 520.057 2.72206 -1.76279 0
M  V30 5633 H 519.842 1.98935 -3.37886 0
M  V30 5634 H 521.332 2.90441 -3.00056 0
M  V30 5635 N 521.769 1.56035 0.221574 0
M  V30 5636 C 522.717 1.93269 1.29421 0
M  V30 5637 C 523.711 0.814727 1.48521 0
M  V30 5638 O 524.917 0.999559 1.49696 0
M  V30 5639 H 521.292 0.614188 0.43391 0
M  V30 5640 H 523.263 2.82773 0.952987 0
M  V30 5641 C 522.012 2.26573 2.63742 0
M  V30 5642 H 521.335 3.12112 2.49853 0
M  V30 5643 H 522.775 2.5651 3.37607 0
M  V30 5644 C 521.234 1.09086 3.1875 0
M  V30 5645 O 521.764 0.351985 4.00155 0
M  V30 5646 N 519.97 0.874693 2.77124 0
M  V30 5647 H 519.517 1.47726 2.11033 0
M  V30 5648 H 519.475 0.0903349 3.1427 0
M  V30 5649 N 523.247 -0.488276 1.49845 0
M  V30 5650 C 524.18 -1.60651 1.62069 0
M  V30 5651 C 525.158 -1.5568 0.469308 0
M  V30 5652 O 526.342 -1.75553 0.686551 0
M  V30 5653 C 523.469 -2.99197 1.58741 0
M  V30 5654 C 522.515 -3.22385 2.79232 0
M  V30 5655 S 523.348 -3.04133 4.40753 0
M  V30 5656 C 524.504 -4.45052 4.4009 0
M  V30 5657 H 524.737 -1.50039 2.56662 0
M  V30 5658 H 522.27 -0.674371 1.38894 0
M  V30 5659 H 524.228 -3.79081 1.57506 0
M  V30 5660 H 522.889 -3.07213 0.654136 0
M  V30 5661 H 522.082 -4.23557 2.73159 0
M  V30 5662 H 521.684 -2.50245 2.77945 0
M  V30 5663 H 523.976 -5.37375 4.12594 0
M  V30 5664 H 524.919 -4.56172 5.41583 0
M  V30 5665 H 525.327 -4.26327 3.70008 0
M  V30 5666 N 524.725 -1.39134 -0.740242 0
M  V30 5667 C 525.655 -1.40165 -1.86751 0
M  V30 5668 C 526.636 -0.265708 -1.68012 0
M  V30 5669 O 527.821 -0.47076 -1.88408 0
M  V30 5670 C 524.951 -1.2392 -3.2444 0
M  V30 5671 C 523.905 -2.34858 -3.57807 0
M  V30 5672 C 523.231 -2.03707 -4.94376 0
M  V30 5673 C 524.531 -3.77159 -3.61315 0
M  V30 5674 H 526.225 -2.345 -1.86145 0
M  V30 5675 H 523.771 -1.12875 -0.89416 0
M  V30 5676 H 525.724 -1.23263 -4.02969 0
M  V30 5677 H 524.448 -0.26051 -3.25559 0
M  V30 5678 H 523.107 -2.34723 -2.81604 0
M  V30 5679 H 522.755 -1.04289 -4.9207 0
M  V30 5680 H 522.455 -2.78016 -5.17669 0
M  V30 5681 H 523.979 -2.04691 -5.75268 0
M  V30 5682 H 525.393 -3.79252 -4.29931 0
M  V30 5683 H 523.79 -4.50784 -3.96124 0
M  V30 5684 H 524.86 -4.08513 -2.61238 0
M  V30 5685 N 526.204 0.969867 -1.24223 0
M  V30 5686 C 527.134 2.08191 -1.05729 0
M  V30 5687 C 528.115 1.70075 0.0290765 0
M  V30 5688 O 529.3 1.93712 -0.137583 0
M  V30 5689 C 526.43 3.40991 -0.658995 0
M  V30 5690 C 525.384 3.93054 -1.69389 0
M  V30 5691 C 524.71 5.22171 -1.15072 0
M  V30 5692 C 526.01 4.21137 -3.08935 0
M  V30 5693 H 527.704 2.23921 -1.98746 0
M  V30 5694 H 525.25 1.07602 -0.956967 0
M  V30 5695 H 527.203 4.18221 -0.51662 0
M  V30 5696 H 525.927 3.25155 0.30686 0
M  V30 5697 H 524.586 3.17977 -1.82444 0
M  V30 5698 H 524.234 5.02694 -0.175539 0
M  V30 5699 H 523.934 5.57973 -1.84229 0
M  V30 5700 H 525.458 6.02013 -1.02042 0
M  V30 5701 H 526.872 4.8908 -2.99121 0
M  V30 5702 H 525.269 4.68163 -3.75425 0
M  V30 5703 H 526.339 3.27996 -3.57137 0
M  V30 5704 N 527.682 1.05563 1.17022 0
M  V30 5705 C 528.592 0.670758 2.24807 0
M  V30 5706 C 529.608 -0.309865 1.71219 0
M  V30 5707 O 530.784 -0.161025 2.00755 0
M  V30 5708 C 527.849 0.055337 3.46656 0
M  V30 5709 C 526.91 1.08688 4.15314 0
M  V30 5710 C 526.143 0.500736 5.31346 0
M  V30 5711 O 526.366 -0.688718 5.66227 0
M  V30 5712 O 525.3 1.23683 5.89055 0
M  V30 5713 H 529.126 1.56914 2.60023 0
M  V30 5714 H 526.711 0.827428 1.24395 0
M  V30 5715 H 528.593 -0.286492 4.20425 0
M  V30 5716 H 527.268 -0.816638 3.13229 0
M  V30 5717 H 526.175 1.48077 3.43546 0
M  V30 5718 H 527.508 1.93014 4.52777 0
M  V30 5719 N 529.16 -1.33526 0.837174 0
M  V30 5720 C 530.406 -1.9813 0.432704 0
M  V30 5721 C 530.739 -1.66168 -1.00508 0
M  V30 5722 O 530.014 -0.94069 -1.70239 0
M  V30 5723 C 530.297 -3.54151 0.651834 0
M  V30 5724 C 530.15 -3.95806 2.13676 0
M  V30 5725 C 531.469 -4.39993 0.0968937 0
M  V30 5726 H 528.588 -0.719713 0.15869 0
M  V30 5727 H 531.23 -1.58193 1.05237 0
M  V30 5728 H 529.38 -3.88301 0.124369 0
M  V30 5729 H 531.052 -3.71921 2.72896 0
M  V30 5730 H 529.295 -3.45599 2.62191 0
M  V30 5731 H 529.966 -5.0447 2.24084 0
M  V30 5732 H 532.442 -4.12479 0.547733 0
M  V30 5733 H 531.318 -5.48186 0.279917 0
M  V30 5734 H 531.579 -4.3066 -0.9992 0
M  V30 5735 N 530.638 -0.59345 -1.46 0
M  V30 5736 C 531.886 -0.082988 -2.0193 0
M  V30 5737 C 532.207 1.28569 -1.46612 0
M  V30 5738 O 531.477 1.84629 -0.654909 0
M  V30 5739 H 530.057 -0.0276882 -0.746487 0
M  V30 5740 H 532.719 -0.771657 -1.78973 0
M  V30 5741 H 531.815 -0.022079 -3.12092 0
M  V30 5742 N 532.116 1.54067 -0.331816 0
M  V30 5743 C 533.364 2.00319 0.267739 0
M  V30 5744 C 533.685 1.22148 1.52003 0
M  V30 5745 O 532.955 0.325494 1.93177 0
M  V30 5746 H 531.535 0.740014 0.101922 0
M  V30 5747 H 534.197 1.89628 -0.450267 0
M  V30 5748 H 533.293 3.07765 0.518385 0
M  V30 5749 N 533.594 0.0601682 1.57485 0
M  V30 5750 C 534.524 -0.90889 2.15085 0
M  V30 5751 C 535.505 -1.31838 1.07484 0
M  V30 5752 O 536.69 -1.3915 1.35466 0
M  V30 5753 C 533.82 -2.18059 2.7031 0
M  V30 5754 C 532.774 -1.91088 3.82974 0
M  V30 5755 C 532.1 -3.24789 4.24754 0
M  V30 5756 C 533.4 -1.22535 5.07723 0
M  V30 5757 H 535.094 -0.429093 2.96309 0
M  V30 5758 H 532.64 -0.204952 1.42534 0
M  V30 5759 H 534.593 -2.86258 3.09248 0
M  V30 5760 H 533.317 -2.6826 1.8629 0
M  V30 5761 H 531.976 -1.25297 3.44523 0
M  V30 5762 H 531.624 -3.72809 3.37672 0
M  V30 5763 H 531.324 -3.07538 5.00694 0
M  V30 5764 H 532.848 -3.94205 4.66299 0
M  V30 5765 H 534.262 -1.80783 5.4405 0
M  V30 5766 H 532.659 -1.1558 5.88864 0
M  V30 5767 H 533.729 -0.202692 4.84476 0
M  V30 5768 N 535.072 -1.5615 -0.213296 0
M  V30 5769 C 535.982 -1.96265 -1.28519 0
M  V30 5770 C 536.998 -0.86765 -1.50824 0
M  V30 5771 O 538.174 -1.17191 -1.63793 0
M  V30 5772 C 535.239 -2.27836 -2.61327 0
M  V30 5773 C 534.3 -3.50949 -2.47252 0
M  V30 5774 C 533.533 -3.81004 -3.73727 0
M  V30 5775 O 533.756 -3.12612 -4.77106 0
M  V30 5776 O 532.69 -4.74477 -3.70344 0
M  V30 5777 H 536.516 -2.87631 -0.974795 0
M  V30 5778 H 534.101 -1.43467 -0.416832 0
M  V30 5779 H 535.983 -2.49299 -3.39747 0
M  V30 5780 H 534.658 -1.39643 -2.9203 0
M  V30 5781 H 533.565 -3.34754 -1.67004 0
M  V30 5782 H 534.898 -4.39551 -2.21486 0
M  V30 5783 N 536.55 0.480323 -1.50102 0
M  V30 5784 C 537.797 1.23307 -1.60629 0
M  V30 5785 C 538.125 1.92135 -0.302375 0
M  V30 5786 O 537.38 1.82321 0.711154 0
M  V30 5787 C 537.679 2.30708 -2.72963 0
M  V30 5788 C 537.345 1.79195 -4.13763 0
M  V30 5789 C 536.007 1.64867 -4.52076 0
M  V30 5790 C 538.359 1.40878 -5.018 0
M  V30 5791 C 535.687 1.10631 -5.76175 0
M  V30 5792 C 538.039 0.880872 -6.26437 0
M  V30 5793 C 536.703 0.724146 -6.6356 0
M  V30 5794 H 535.973 0.451211 -0.587784 0
M  V30 5795 H 538.62 0.53051 -1.84005 0
M  V30 5796 H 536.925 3.06834 -2.43639 0
M  V30 5797 H 538.622 2.88692 -2.78313 0
M  V30 5798 H 535.212 1.91313 -3.83533 0
M  V30 5799 H 539.396 1.50786 -4.7284 0
M  V30 5800 H 534.652 0.972263 -6.0362 0
M  V30 5801 H 538.826 0.575269 -6.9402 0
M  V30 5802 H 536.453 0.301722 -7.59601 0
M  V30 5803 N 538.028 1.39524 0.732853 0
M  V30 5804 C 539.439 1.32905 1.31122 0
M  V30 5805 C 539.79 -0.00558708 1.96199 0
M  V30 5806 O 538.915 -0.907706 1.96443 0
M  V30 5807 C 539.51 2.40704 2.38426 0
M  V30 5808 C 538.069 2.37599 2.91931 0
M  V30 5809 C 537.216 2.2248 1.65523 0
M  V30 5810 H 540.167 1.49581 0.530207 0
M  V30 5811 H 540.188 2.07616 3.18867 0
M  V30 5812 H 539.7 3.37829 1.91033 0
M  V30 5813 H 537.801 1.44119 3.43599 0
M  V30 5814 H 537.914 3.32538 3.44899 0
M  V30 5815 H 536.278 1.69691 1.8994 0
M  V30 5816 H 537.061 3.21577 1.20178 0
M  V30 5817 N 539.506 -0.963266 1.24736 0
M  V30 5818 C 540.754 -1.70343 1.08755 0
M  V30 5819 C 541.075 -1.91387 -0.373619 0
M  V30 5820 O 540.345 -1.4948 -1.2662 0
M  V30 5821 H 538.925 -0.631224 0.399456 0
M  V30 5822 H 541.587 -1.15859 1.56725 0
M  V30 5823 H 540.683 -2.68616 1.58909 0
M  V30 5824 N 540.985 -1.06182 -1.16461 0
M  V30 5825 C 542.225 -0.787048 -1.8864 0
M  V30 5826 C 542.589 0.674093 -1.79778 0
M  V30 5827 O 543.79 1.06341 -2.46871 0
M  V30 5828 C 542.061 -1.2666 -3.34203 0
M  V30 5829 S 543.62 -1.12071 -4.24247 0
M  V30 5830 H 540.438 -0.285539 -0.651144 0
M  V30 5831 H 543.04 -1.35851 -1.40587 0
M  V30 5832 H 541.744 -2.32496 -3.38192 0
M  V30 5833 H 541.275 -0.689841 -3.87304 0
M  V30 5834 H 543.29 -0.0509341 -4.96174 0
M  V30 5835 N 542.463 1.3308 -0.844243 0
M  V30 5836 C 543.874 1.7992 -0.498566 0
M  V30 5837 C 544.225 1.69808 0.982834 0
M  V30 5838 O 543.35 1.25051 1.7661 0
M  V30 5839 C 543.945 3.26677 -0.898204 0
M  V30 5840 C 542.504 3.71513 -0.604583 0
M  V30 5841 C 541.651 2.54393 -1.10362 0
M  V30 5842 H 544.602 1.20526 -1.03244 0
M  V30 5843 H 544.623 3.79918 -0.21039 0
M  V30 5844 H 544.135 3.34004 -1.97643 0
M  V30 5845 H 542.236 3.69708 0.46335 0
M  V30 5846 H 542.349 4.64755 -1.16358 0
M  V30 5847 H 540.713 2.49246 -0.524273 0
M  V30 5848 H 541.496 2.6448 -2.18873 0
M  V30 5849 N 543.941 0.601185 1.45683 0
M  V30 5850 C 545.188 0.0938811 2.02282 0
M  V30 5851 C 545.516 -1.27315 1.47041 0
M  V30 5852 O 544.771 -1.85193 0.632623 0
M  V30 5853 C 545.07 -0.00222425 3.574 0
M  V30 5854 C 544.736 1.29963 4.31764 0
M  V30 5855 C 543.398 1.65625 4.51798 0
M  V30 5856 C 545.75 2.1603 4.74321 0
M  V30 5857 C 543.078 2.87119 5.11644 0
M  V30 5858 C 545.43 3.36766 5.3551 0
M  V30 5859 C 544.094 3.72689 5.53768 0
M  V30 5860 H 543.364 0.0343535 0.740203 0
M  V30 5861 H 546.011 0.781522 1.74827 0
M  V30 5862 H 544.316 -0.773096 3.84097 0
M  V30 5863 H 546.013 -0.410794 3.9889 0
M  V30 5864 H 542.603 1.01204 4.1648 0
M  V30 5865 H 546.787 1.89778 4.58582 0
M  V30 5866 H 542.043 3.15065 5.2397 0
M  V30 5867 H 546.217 4.03713 5.67441 0
M  V30 5868 H 543.844 4.66918 5.99909 0
M  V30 5869 N 545.419 -1.53889 0.339982 0
M  V30 5870 C 546.367 -2.26391 -0.533822 0
M  V30 5871 C 547.361 -1.28404 -1.10493 0
M  V30 5872 O 548.567 -1.46124 -1.05108 0
M  V30 5873 H 544.942 -0.727385 -0.190828 0
M  V30 5874 H 546.913 -2.98233 0.0997484 0
M  V30 5875 C 545.662 -3.04707 -1.67479 0
M  V30 5876 H 544.985 -3.79934 -1.2446 0
M  V30 5877 H 546.425 -3.58657 -2.26144 0
M  V30 5878 C 544.884 -2.13989 -2.60212 0
M  V30 5879 O 545.414 -1.73361 -3.62366 0
M  V30 5880 N 543.62 -1.79141 -2.28816 0
M  V30 5881 H 543.167 -2.12378 -1.45785 0
M  V30 5882 H 543.125 -1.18725 -2.91121 0
M  V30 5883 N 546.897 -0.0685191 -1.57451 0
M  V30 5884 C 548.145 0.60016 -1.92983 0
M  V30 5885 C 548.466 1.70348 -0.949028 0
M  V30 5886 O 547.736 1.959 0.00335647 0
M  V30 5887 H 546.316 0.224682 -0.712409 0
M  V30 5888 H 548.978 -0.125605 -1.94495 0
M  V30 5889 H 548.074 1.02759 -2.94698 0
M  V30 5890 N 548.375 1.56261 0.205012 0
M  V30 5891 C 549.621 1.81211 0.923805 0
M  V30 5892 C 549.976 0.644065 1.813 0
M  V30 5893 O 549.269 -0.361208 1.88164 0
M  V30 5894 C 549.463 3.09722 1.78345 0
M  V30 5895 C 549.292 4.38915 0.978979 0
M  V30 5896 C 548.062 5.00874 0.667332 0
M  V30 5897 C 550.26 5.13199 0.336386 0
M  V30 5898 N 548.242 6.137 -0.156814 0
M  V30 5899 C 549.613 6.19009 -0.350402 0
M  V30 5900 C 551.668 4.97266 0.251101 0
M  V30 5901 C 550.371 7.10616 -1.11434 0
M  V30 5902 C 552.397 5.89288 -0.499413 0
M  V30 5903 C 551.759 6.94536 -1.17468 0
M  V30 5904 H 547.858 0.714528 0.317764 0
M  V30 5905 H 550.442 1.93738 0.193317 0
M  V30 5906 H 548.613 2.98448 2.48563 0
M  V30 5907 H 550.345 3.22798 2.44098 0
M  V30 5908 H 547.1 4.63151 0.989366 0
M  V30 5909 H 547.524 6.74695 -0.558206 0
M  V30 5910 H 552.166 4.15935 0.758823 0
M  V30 5911 H 549.884 7.91417 -1.63353 0
M  V30 5912 H 553.47 5.79034 -0.566627 0
M  V30 5913 H 552.35 7.64513 -1.74613 0
M  V30 5914 N 549.853 -0.472356 1.50355 0
M  V30 5915 C 551.083 -1.24603 1.64796 0
M  V30 5916 C 551.491 -1.86297 0.330156 0
M  V30 5917 O 550.834 -1.69934 -0.697728 0
M  V30 5918 C 550.896 -2.39578 2.68035 0
M  V30 5919 C 550.56 -1.98531 4.11624 0
M  V30 5920 C 551.557 -1.50856 4.97532 0
M  V30 5921 C 549.242 -2.0729 4.57532 0
M  V30 5922 C 551.236 -1.12481 6.27397 0
M  V30 5923 C 548.923 -1.68527 5.87403 0
M  V30 5924 C 549.921 -1.212 6.7216 0
M  V30 5925 O 549.609 -0.829728 7.99607 0
M  V30 5926 H 549.341 -0.383035 0.55701 0
M  V30 5927 H 551.895 -0.570392 1.97321 0
M  V30 5928 H 550.125 -3.10309 2.30749 0
M  V30 5929 H 551.814 -3.01544 2.71709 0
M  V30 5930 H 552.58 -1.43511 4.63281 0
M  V30 5931 H 548.459 -2.43076 3.91708 0
M  V30 5932 H 552.003 -0.754698 6.93506 0
M  V30 5933 H 547.9 -1.7553 6.21176 0
M  V30 5934 H 548.668 -0.958689 8.12866 0
M  V30 5935 N 551.331 -1.39911 -0.725443 0
M  V30 5936 C 552.264 -1.33788 -1.84867 0
M  V30 5937 C 553.242 -0.209907 -1.61239 0
M  V30 5938 O 554.426 -0.391943 -1.8438 0
M  V30 5939 C 551.553 -1.07975 -3.21028 0
M  V30 5940 C 550.599 -2.23092 -3.635 0
M  V30 5941 S 551.432 -3.85431 -3.71757 0
M  V30 5942 C 552.588 -3.61862 -5.10692 0
M  V30 5943 H 552.821 -2.28848 -1.89779 0
M  V30 5944 H 550.354 -1.26079 -0.891254 0
M  V30 5945 H 552.312 -0.937669 -3.99647 0
M  V30 5946 H 550.973 -0.145865 -3.13761 0
M  V30 5947 H 550.166 -2.00647 -4.62338 0
M  V30 5948 H 549.768 -2.33553 -2.92112 0
M  V30 5949 H 552.06 -3.19719 -5.97316 0
M  V30 5950 H 553.003 -4.60196 -5.38169 0
M  V30 5951 H 553.411 -2.95757 -4.8082 0
M  V30 5952 N 552.809 0.956637 -1.25245 0
M  V30 5953 C 554.057 1.69764 -1.09657 0
M  V30 5954 C 554.378 1.91583 0.363464 0
M  V30 5955 O 553.648 1.50149 1.25825 0
M  V30 5956 H 552.228 0.629097 -0.402798 0
M  V30 5957 H 554.89 1.15026 -1.57337 0
M  V30 5958 H 553.986 2.67769 -1.60331 0
M  V30 5959 N 554.287 1.06798 1.15896 0
M  V30 5960 C 555.515 0.808694 1.90441 0
M  V30 5961 C 555.93 -0.637506 1.77711 0
M  V30 5962 O 555.287 -1.43684 1.12522 0
M  V30 5963 C 555.338 1.20068 3.40978 0
M  V30 5964 O 555.059 2.59013 3.53333 0
M  V30 5965 C 556.56 0.96987 4.3256 0
M  V30 5966 H 553.78 0.292809 0.603742 0
M  V30 5967 H 556.324 1.42296 1.46874 0
M  V30 5968 H 554.479 0.630842 3.82229 0
M  V30 5969 H 554.893 2.7485 4.46719 0
M  V30 5970 H 556.367 1.29371 5.36626 0
M  V30 5971 H 556.844 -0.0941209 4.39099 0
M  V30 5972 H 557.45 1.52433 3.97044 0
M  V30 5973 N 555.766 -1.3263 0.851289 0
M  V30 5974 C 556.676 -2.32722 0.296268 0
M  V30 5975 C 557.692 -1.63901 -0.584162 0
M  V30 5976 O 558.868 -1.95465 -0.485334 0
M  V30 5977 C 555.933 -3.42942 -0.509103 0
M  V30 5978 C 554.994 -4.2746 0.397069 0
M  V30 5979 C 554.227 -5.32416 -0.36996 0
M  V30 5980 O 554.45 -5.47491 -1.6003 0
M  V30 5981 O 553.384 -6.01327 0.262493 0
M  V30 5982 H 557.21 -2.82078 1.12543 0
M  V30 5983 H 554.795 -1.36194 0.614135 0
M  V30 5984 H 556.677 -4.1017 -0.96634 0
M  V30 5985 H 555.352 -2.95781 -1.31512 0
M  V30 5986 H 554.259 -3.63053 0.902411 0
M  V30 5987 H 555.592 -4.78136 1.16818 0
M  V30 5988 N 557.244 -0.608902 -1.45362 0
M  V30 5989 C 558.493 -0.10218 -2.01441 0
M  V30 5990 C 558.806 1.27546 -1.48295 0
M  V30 5991 O 560.012 1.87498 -1.96359 0
M  V30 5992 C 558.468 -0.131985 -3.59658 0
M  V30 5993 C 558.076 -1.50956 -4.21801 0
M  V30 5994 C 559.82 0.319427 -4.23296 0
M  V30 5995 C 557.727 -1.49568 -5.72174 0
M  V30 5996 H 556.657 -0.0344314 -0.753213 0
M  V30 5997 H 559.308 -0.764426 -1.6682 0
M  V30 5998 H 557.69 0.596939 -3.91475 0
M  V30 5999 H 558.864 -2.26029 -4.01556 0
M  V30 6000 H 557.179 -1.90318 -3.70362 0
M  V30 6001 H 559.776 0.349013 -5.3356 0
M  V30 6002 H 560.119 1.34237 -3.94064 0
M  V30 6003 H 560.652 -0.356273 -3.96201 0
M  V30 6004 H 557.391 -2.49626 -6.06108 0
M  V30 6005 H 556.911 -0.787542 -5.94607 0
M  V30 6006 H 558.59 -1.21989 -6.35396 0
M  V30 6007 N 558.722 1.53707 -0.348139 0
M  V30 6008 C 559.97 2.00591 0.246478 0
M  V30 6009 C 560.291 1.23753 1.50699 0
M  V30 6010 O 559.561 0.345964 1.92821 0
M  V30 6011 H 558.141 0.741053 0.0940679 0
M  V30 6012 H 560.803 1.89139 -0.470354 0
M  V30 6013 H 559.899 3.08297 0.485714 0
M  V30 6014 N 560.2 0.0768682 1.57412 0
M  V30 6015 C 561.446 -0.591961 1.93968 0
M  V30 6016 C 561.779 -1.68954 0.9575 0
M  V30 6017 O 561.054 -1.94496 -0.0124675 0
M  V30 6018 C 561.337 -1.16418 3.40762 0
M  V30 6019 C 561.19 -0.0728933 4.49741 0
M  V30 6020 C 562.509 -2.06814 3.88479 0
M  V30 6021 H 559.628 -0.213716 0.705333 0
M  V30 6022 H 562.27 0.14387 1.89455 0
M  V30 6023 H 560.42 -1.79128 3.4474 0
M  V30 6024 H 562.092 0.560446 4.57883 0
M  V30 6025 H 560.335 0.595859 4.29688 0
M  V30 6026 H 561.006 -0.513755 5.49604 0
M  V30 6027 H 563.482 -1.54033 3.8654 0
M  V30 6028 H 562.358 -2.43785 4.91793 0
M  V30 6029 H 562.619 -2.97844 3.26713 0
M  V30 6030 N 561.678 -1.56367 -0.196722 0
M  V30 6031 C 563.094 -1.49916 -0.54749 0
M  V30 6032 C 563.294 -0.77659 -1.85934 0
M  V30 6033 O 562.35 -0.32644 -2.50381 0
M  V30 6034 C 563.663 -2.94577 -0.603734 0
M  V30 6035 C 565.211 -3.05239 -0.692677 0
M  V30 6036 C 565.686 -4.51308 -0.780046 0
M  V30 6037 N 567.177 -4.55453 -0.843616 0
M  V30 6038 C 567.912 -5.65786 -0.931358 0
M  V30 6039 N 567.408 -6.85812 -0.981503 0
M  V30 6040 N 569.201 -5.53695 -0.968421 0
M  V30 6041 H 561.352 -2.01761 0.663803 0
M  V30 6042 H 563.615 -0.918094 0.236238 0
M  V30 6043 H 563.321 -3.50494 0.29105 0
M  V30 6044 H 563.195 -3.47841 -1.45898 0
M  V30 6045 H 565.582 -2.49372 -1.57789 0
M  V30 6046 H 565.663 -2.55103 0.188736 0
M  V30 6047 H 565.307 -5.078 0.100811 0
M  V30 6048 H 565.237 -4.99176 -1.67724 0
M  V30 6049 H 567.728 -3.69025 -0.814176 0
M  V30 6050 H 568.041 -7.65648 -1.04892 0
M  V30 6051 H 566.386 -6.88474 -0.950208 0
M  V30 6052 H 569.577 -4.58848 -0.926072 0
M  V30 6053 H 569.75 -6.39708 -1.03334 0
M  V30 6054 N 563.156 0.464375 -1.50603 0
M  V30 6055 C 564.433 1.22549 -1.5245 0
M  V30 6056 C 564.813 2.09327 -0.273035 0
M  V30 6057 O 564.161 2.16074 0.743242 0
M  V30 6058 C 564.371 2.05074 -2.82393 0
M  V30 6059 C 565.719 2.63036 -3.33313 0
M  V30 6060 O 566.743 2.1531 -2.8376 0
M  V30 6061 O 565.602 3.5001 -4.19709 0
M  V30 6062 H 562.696 0.556471 -0.611775 0
M  V30 6063 H 565.242 0.475648 -1.62898 0
M  V30 6064 H 564.014 1.41169 -3.64948 0
M  V30 6065 H 563.637 2.87179 -2.7498 0
M  V30 6066 N 564.634 1.40294 0.718013 0
M  V30 6067 C 565.881 1.3844 1.47786 0
M  V30 6068 C 566.209 -0.0140838 1.94495 0
M  V30 6069 O 565.464 -0.998165 1.68331 0
M  V30 6070 C 565.763 2.31814 2.72024 0
M  V30 6071 C 565.429 3.79117 2.44093 0
M  V30 6072 C 564.091 4.19249 2.36185 0
M  V30 6073 C 566.443 4.72212 2.20602 0
M  V30 6074 C 563.771 5.50516 2.02851 0
M  V30 6075 C 566.123 6.03775 1.88781 0
M  V30 6076 C 564.787 6.42953 1.79354 0
M  V30 6077 H 564.057 0.506588 0.540786 0
M  V30 6078 H 566.704 1.72929 0.822663 0
M  V30 6079 H 565.009 1.90501 3.42369 0
M  V30 6080 H 566.706 2.27664 3.30106 0
M  V30 6081 H 563.296 3.47318 2.51133 0
M  V30 6082 H 567.48 4.42026 2.25669 0
M  V30 6083 H 562.736 5.79776 1.94088 0
M  V30 6084 H 566.91 6.75428 1.69617 0
M  V30 6085 H 564.537 7.44584 1.53291 0
M  V30 6086 N 566.112 -0.949982 1.2575 0
M  V30 6087 C 567.352 -1.70994 1.11984 0
M  V30 6088 C 567.716 -1.89095 -0.332746 0
M  V30 6089 O 568.917 -2.62192 -0.592331 0
M  V30 6090 C 567.188 -3.05286 1.85837 0
M  V30 6091 S 568.747 -3.96477 1.88019 0
M  V30 6092 H 565.565 -0.587689 0.400178 0
M  V30 6093 H 568.167 -1.13271 1.59342 0
M  V30 6094 H 566.871 -2.89785 2.90608 0
M  V30 6095 H 566.402 -3.68069 1.38885 0
M  V30 6096 H 568.417 -4.86814 0.96057 0
M  V30 6097 N 567.59 -1.07411 -1.15328 0
M  V30 6098 C 568.867 -0.710732 -1.82231 0
M  V30 6099 C 569.247 0.806732 -1.95077 0
M  V30 6100 O 568.595 1.72139 -1.50268 0
M  V30 6101 C 568.805 -1.42586 -3.18544 0
M  V30 6102 C 570.153 -1.57836 -3.94174 0
M  V30 6103 O 571.177 -1.38669 -3.281 0
M  V30 6104 O 570.036 -1.8938 -5.12638 0
M  V30 6105 H 567.13 -0.25297 -0.78736 0
M  V30 6106 H 569.676 -1.17508 -1.22434 0
M  V30 6107 H 568.448 -2.46008 -3.04296 0
M  V30 6108 H 568.071 -0.952332 -3.86026 0
M  V30 6109 N 569.068 1.32177 -0.85831 0
M  V30 6110 C 570.314 1.97417 -0.46417 0
M  V30 6111 C 570.647 1.67746 0.978514 0
M  V30 6112 O 569.922 0.967654 1.68721 0
M  V30 6113 C 570.205 3.53069 -0.708094 0
M  V30 6114 C 570.058 3.92357 -2.19946 0
M  V30 6115 C 571.377 4.39783 -0.166881 0
M  V30 6116 H 568.496 0.717097 -0.17012 0
M  V30 6117 H 571.138 1.56499 -1.07741 0
M  V30 6118 H 569.288 3.88054 -0.186128 0
M  V30 6119 H 570.96 3.67533 -2.78779 0
M  V30 6120 H 569.203 3.41384 -2.67656 0
M  V30 6121 H 569.874 5.00841 -2.32082 0
M  V30 6122 H 572.35 4.11556 -0.613285 0
M  V30 6123 H 571.226 5.47671 -0.367093 0
M  V30 6124 H 571.487 4.32196 0.930559 0
M  V30 6125 N 570.547 0.616602 1.45037 0
M  V30 6126 C 571.479 -0.135186 2.28801 0
M  V30 6127 C 572.492 -0.82303 1.40464 0
M  V30 6128 O 573.681 -0.686909 1.64754 0
M  V30 6129 C 570.781 -1.21292 3.16451 0
M  V30 6130 C 569.954 -0.61043 4.3312 0
M  V30 6131 C 569.013 -1.58022 5.01912 0
M  V30 6132 O 568.039 -1.10301 5.58411 0
M  V30 6133 N 569.241 -2.91464 5.02025 0
M  V30 6134 H 572.006 0.583612 2.93963 0
M  V30 6135 H 569.567 0.456723 1.55324 0
M  V30 6136 H 571.559 -1.86169 3.59337 0
M  V30 6137 H 570.129 -1.83412 2.53138 0
M  V30 6138 H 569.349 0.216638 3.93604 0
M  V30 6139 H 570.637 -0.188293 5.08451 0
M  V30 6140 H 570.035 -3.32829 4.57429 0
M  V30 6141 H 568.592 -3.51741 5.48745 0
M  V30 6142 N 572.025 -1.5352 0.356285 0
M  V30 6143 C 573.441 -1.59599 0.00485267 0
M  V30 6144 C 573.641 -1.37179 -1.47595 0
M  V30 6145 O 572.697 -1.17234 -2.23635 0
M  V30 6146 C 574.01 -2.97277 0.452454 0
M  V30 6147 C 575.558 -3.10357 0.405881 0
M  V30 6148 C 576.033 -4.50432 0.829148 0
M  V30 6149 N 577.524 -4.5652 0.783838 0
M  V30 6150 C 578.259 -5.63077 1.08315 0
M  V30 6151 N 577.755 -6.77429 1.45126 0
M  V30 6152 N 579.548 -5.53014 1.00655 0
M  V30 6153 H 571.699 -1.66346 1.32071 0
M  V30 6154 H 573.962 -0.77971 0.539218 0
M  V30 6155 H 573.668 -3.18792 1.48542 0
M  V30 6156 H 573.542 -3.76836 -0.165762 0
M  V30 6157 H 575.929 -2.88558 -0.617934 0
M  V30 6158 H 576.01 -2.32828 1.05947 0
M  V30 6159 H 575.654 -4.72968 1.85103 0
M  V30 6160 H 575.584 -5.26378 0.152906 0
M  V30 6161 H 578.075 -3.74408 0.512513 0
M  V30 6162 H 578.388 -7.54669 1.66415 0
M  V30 6163 H 576.733 -6.78844 1.48983 0
M  V30 6164 H 579.924 -4.62557 0.718215 0
M  V30 6165 H 580.097 -6.35964 1.24315 0
M  V30 6166 N 573.503 -0.0852151 -1.57369 0
M  V30 6167 C 574.733 0.588605 -1.98038 0
M  V30 6168 C 575.141 1.62869 -0.962817 0
M  V30 6169 O 574.484 1.83611 0.057134 0
M  V30 6170 C 574.546 1.30303 -3.35054 0
M  V30 6171 C 574.21 0.414855 -4.55113 0
M  V30 6172 C 575.207 -0.333011 -5.18832 0
M  V30 6173 C 572.892 0.335804 -5.01176 0
M  V30 6174 C 574.886 -1.14801 -6.26976 0
M  V30 6175 C 572.573 -0.482857 -6.09189 0
M  V30 6176 C 573.571 -1.22342 -6.71953 0
M  V30 6177 O 573.259 -2.02855 -7.77885 0
M  V30 6178 H 572.991 0.163249 -0.655992 0
M  V30 6179 H 575.545 -0.1582 -2.0479 0
M  V30 6180 H 573.775 2.0962 -3.24956 0
M  V30 6181 H 575.464 1.87041 -3.60237 0
M  V30 6182 H 576.23 -0.281611 -4.84182 0
M  V30 6183 H 572.109 0.901869 -4.52092 0
M  V30 6184 H 575.653 -1.72654 -6.75897 0
M  V30 6185 H 571.55 -0.535773 -6.43273 0
M  V30 6186 H 572.318 -1.95432 -7.94826 0
M  V30 6187 N 574.981 1.5647 0.188427 0
M  V30 6188 C 575.929 1.95971 1.25293 0
M  V30 6189 C 576.923 0.846047 1.4676 0
M  V30 6190 O 578.129 1.03109 1.47542 0
M  V30 6191 H 574.504 0.623253 0.420784 0
M  V30 6192 H 576.475 2.84731 0.892792 0
M  V30 6193 C 575.224 2.32116 2.58877 0
M  V30 6194 H 574.547 3.17341 2.43176 0
M  V30 6195 H 575.987 2.63613 3.3209 0
M  V30 6196 C 574.446 1.15823 3.16365 0
M  V30 6197 O 574.976 0.436785 3.99318 0
M  V30 6198 N 573.182 0.933278 2.75206 0
M  V30 6199 H 572.729 1.52169 2.07852 0
M  V30 6200 H 572.687 0.156976 3.14008 0
M  V30 6201 N 576.459 -0.456382 1.50847 0
M  V30 6202 C 577.708 -1.2042 1.61808 0
M  V30 6203 C 578.021 -1.9278 0.330932 0
M  V30 6204 O 579.227 -2.69612 0.319643 0
M  V30 6205 C 577.683 -2.18891 2.85683 0
M  V30 6206 C 577.291 -1.52267 4.2133 0
M  V30 6207 C 579.035 -2.94224 3.05994 0
M  V30 6208 C 576.942 -2.4911 5.36375 0
M  V30 6209 H 575.872 -0.453177 0.602616 0
M  V30 6210 H 578.523 -0.473144 1.77295 0
M  V30 6211 H 576.905 -2.95351 2.63787 0
M  V30 6212 H 578.079 -0.814949 4.53536 0
M  V30 6213 H 576.394 -0.891594 4.06743 0
M  V30 6214 H 578.991 -3.66732 3.89117 0
M  V30 6215 H 579.334 -3.54469 2.18306 0
M  V30 6216 H 579.867 -2.24874 3.28141 0
M  V30 6217 H 576.606 -1.93582 6.26264 0
M  V30 6218 H 576.126 -3.17991 5.08569 0
M  V30 6219 H 577.805 -3.10637 5.67551 0
M  V30 6220 N 577.937 -1.40673 -0.710563 0
M  V30 6221 C 578.867 -1.44095 -1.83736 0
M  V30 6222 C 579.848 -0.301286 -1.67411 0
M  V30 6223 O 581.033 -0.510618 -1.87367 0
M  V30 6224 C 578.163 -1.30773 -3.21738 0
M  V30 6225 C 577.117 -2.42395 -3.52745 0
M  V30 6226 C 576.443 -2.14147 -4.89944 0
M  V30 6227 C 577.743 -3.84738 -3.53234 0
M  V30 6228 H 579.437 -2.38396 -1.81129 0
M  V30 6229 H 576.983 -1.14746 -0.870017 0
M  V30 6230 H 578.936 -1.31783 -4.00264 0
M  V30 6231 H 577.66 -0.329507 -3.24934 0
M  V30 6232 H 576.319 -2.40643 -2.76562 0
M  V30 6233 H 575.967 -1.14703 -4.89747 0
M  V30 6234 H 575.667 -2.88934 -5.11655 0
M  V30 6235 H 577.191 -2.16848 -5.70797 0
M  V30 6236 H 578.605 -3.88286 -4.2179 0
M  V30 6237 H 577.002 -4.59085 -3.86473 0
M  V30 6238 H 578.072 -4.13962 -2.52514 0
M  V30 6239 N 579.415 0.9433 -1.26252 0
M  V30 6240 C 580.325 2.07532 -1.09397 0
M  V30 6241 C 581.341 1.73977 -0.0280449 0
M  V30 6242 O 582.517 2.00067 -0.231337 0
M  V30 6243 C 579.582 3.39002 -0.726523 0
M  V30 6244 C 578.643 3.86353 -1.87163 0
M  V30 6245 C 577.876 5.11549 -1.52162 0
M  V30 6246 O 578.099 5.68834 -0.422385 0
M  V30 6247 O 577.033 5.53889 -2.35565 0
M  V30 6248 H 580.859 2.24658 -2.04359 0
M  V30 6249 H 578.444 1.05988 -1.05295 0
M  V30 6250 H 580.326 4.18 -0.534236 0
M  V30 6251 H 579.001 3.2312 0.193721 0
M  V30 6252 H 577.908 3.0831 -2.11886 0
M  V30 6253 H 579.241 4.06752 -2.77152 0
M  V30 6254 N 580.893 1.08022 1.14757 0
M  V30 6255 C 581.803 0.718292 2.23333 0
M  V30 6256 C 582.819 -0.273477 1.71837 0
M  V30 6257 O 583.995 -0.118406 2.01052 0
M  V30 6258 C 581.06 0.128855 3.4646 0
M  V30 6259 C 580.121 1.17473 4.12915 0
M  V30 6260 C 579.354 0.61333 5.30164 0
M  V30 6261 O 579.577 -0.568458 5.6756 0
M  V30 6262 O 578.511 1.3615 5.86299 0
M  V30 6263 H 582.337 1.62394 2.56636 0
M  V30 6264 H 579.922 0.853628 1.22611 0
M  V30 6265 H 581.804 -0.197249 4.20938 0
M  V30 6266 H 580.479 -0.750014 3.14891 0
M  V30 6267 H 579.386 1.5533 3.40328 0
M  V30 6268 H 580.719 2.02574 4.48581 0
M  V30 6269 N 582.371 -1.3172 0.865308 0
M  V30 6270 C 583.617 -1.97168 0.474633 0
M  V30 6271 C 583.95 -1.68263 -0.969604 0
M  V30 6272 O 583.225 -0.976588 -1.68205 0
M  V30 6273 C 583.508 -3.52689 0.726808 0
M  V30 6274 C 583.361 -3.91185 2.22024 0
M  V30 6275 C 584.68 -4.39689 0.190201 0
M  V30 6276 H 581.799 -0.716185 0.17392 0
M  V30 6277 H 584.441 -1.55925 1.08569 0
M  V30 6278 H 582.591 -3.8795 0.206705 0
M  V30 6279 H 584.263 -3.66049 2.80724 0
M  V30 6280 H 582.506 -3.3996 2.69462 0
M  V30 6281 H 583.177 -4.99604 2.34735 0
M  V30 6282 H 585.653 -4.11225 0.635103 0
M  V30 6283 H 584.529 -5.47469 0.396132 0
M  V30 6284 H 584.79 -4.32683 -0.907625 0
M  V30 6285 N 583.85 -0.624285 -1.44708 0
M  V30 6286 C 585.098 -0.125802 -2.01708 0
M  V30 6287 C 585.418 1.2543 -1.49306 0
M  V30 6288 O 584.689 1.83198 -0.693924 0
M  V30 6289 H 583.269 -0.0435161 -0.745731 0
M  V30 6290 H 585.931 -0.809446 -1.77296 0
M  V30 6291 H 585.027 -0.0882734 -3.11975 0
M  V30 6292 N 585.328 1.53329 -0.364422 0
M  V30 6293 C 586.744 1.59594 -0.0133165 0
M  V30 6294 C 586.944 1.37959 1.46865 0
M  V30 6295 O 586 1.18418 2.2301 0
M  V30 6296 C 587.313 2.97032 -0.468213 0
M  V30 6297 C 588.861 3.10138 -0.422334 0
M  V30 6298 C 589.336 4.49986 -0.853024 0
M  V30 6299 N 590.827 4.56098 -0.808037 0
M  V30 6300 C 591.562 5.62495 -1.11299 0
M  V30 6301 N 591.058 6.7665 -1.48717 0
M  V30 6302 N 592.851 5.52473 -1.03586 0
M  V30 6303 H 585.002 1.65644 -1.32951 0
M  V30 6304 H 587.265 0.77684 -0.543345 0
M  V30 6305 H 586.971 3.18 -1.5023 0
M  V30 6306 H 586.845 3.76918 0.145775 0
M  V30 6307 H 589.232 2.88881 0.602622 0
M  V30 6308 H 589.313 2.32263 -1.0718 0
M  V30 6309 H 588.957 4.7198 -1.87609 0
M  V30 6310 H 588.887 5.26289 -0.180819 0
M  V30 6311 H 591.378 3.74131 -0.532361 0
M  V30 6312 H 591.691 7.53776 -1.70415 0
M  V30 6313 H 590.036 6.78044 -1.52581 0
M  V30 6314 H 593.227 4.6217 -0.742736 0
M  V30 6315 H 593.4 6.35295 -1.27686 0
M  V30 6316 N 586.806 0.0935595 1.57322 0
M  V30 6317 C 588.222 -0.263091 1.57417 0
M  V30 6318 C 588.422 -1.68526 1.1046 0
M  V30 6319 O 587.478 -2.40139 0.780357 0
M  V30 6320 C 588.791 -0.0529201 3.00653 0
M  V30 6321 C 590.339 -0.120788 3.12767 0
M  V30 6322 C 590.814 0.0613707 4.57959 0
M  V30 6323 N 592.305 0.00648534 4.632 0
M  V30 6324 C 593.04 0.122699 5.73269 0
M  V30 6325 N 592.536 0.29366 6.92177 0
M  V30 6326 N 594.329 0.0640787 5.62063 0
M  V30 6327 H 586.48 1.02277 1.86154 0
M  V30 6328 H 588.743 0.4007 0.859153 0
M  V30 6329 H 588.449 0.929279 3.39201 0
M  V30 6330 H 588.323 -0.795899 3.68708 0
M  V30 6331 H 590.71 -1.09349 2.74093 0
M  V30 6332 H 590.791 0.653656 2.47307 0
M  V30 6333 H 590.435 1.03093 4.97327 0
M  V30 6334 H 590.365 -0.732748 5.21477 0
M  V30 6335 H 592.856 -0.123173 3.77699 0
M  V30 6336 H 593.169 0.37389 7.71895 0
M  V30 6337 H 591.514 0.329307 6.94219 0
M  V30 6338 H 594.705 -0.0683396 4.6805 0
M  V30 6339 H 594.878 0.158097 6.47807 0
M  V30 6340 N 588.284 -1.56567 -0.180126 0
M  V30 6341 C 589.217 -1.90813 -1.25163 0
M  V30 6342 C 590.195 -0.7699 -1.43218 0
M  V30 6343 O 591.379 -1.02236 -1.58367 0
M  V30 6344 C 588.506 -2.15138 -2.61597 0
M  V30 6345 C 587.552 -3.37834 -2.60328 0
M  V30 6346 S 588.385 -4.92486 -2.1028 0
M  V30 6347 C 589.541 -5.19896 -3.48509 0
M  V30 6348 H 589.774 -2.81398 -0.959283 0
M  V30 6349 H 587.307 -1.49541 -0.3843 0
M  V30 6350 H 589.265 -2.29835 -3.40127 0
M  V30 6351 H 587.926 -1.25276 -2.88036 0
M  V30 6352 H 587.119 -3.52027 -3.60684 0
M  V30 6353 H 586.721 -3.22208 -1.8989 0
M  V30 6354 H 589.013 -5.11334 -4.44459 0
M  V30 6355 H 589.956 -6.21571 -3.39198 0
M  V30 6356 H 590.364 -4.47489 -3.44114 0
M  V30 6357 N 589.762 0.448376 -1.51087 0
M  V30 6358 C 591.01 1.19635 -1.62886 0
M  V30 6359 C 591.331 1.91977 -0.342024 0
M  V30 6360 O 590.601 1.85094 0.641636 0
M  V30 6361 H 589.181 0.444598 -0.600285 0
M  V30 6362 H 591.843 0.515138 -1.87969 0
M  V30 6363 H 590.939 1.93194 -2.45117 0
M  V30 6364 N 591.24 1.41047 0.703093 0
M  V30 6365 C 592.17 1.45067 1.82969 0
M  V30 6366 C 593.151 0.31016 1.67248 0
M  V30 6367 O 594.336 0.520548 1.87093 0
M  V30 6368 C 591.466 1.32478 3.2104 0
M  V30 6369 C 590.42 2.44262 3.51454 0
M  V30 6370 C 589.746 2.16742 4.88801 0
M  V30 6371 C 591.046 3.86606 3.51189 0
M  V30 6372 H 592.74 2.39353 1.79863 0
M  V30 6373 H 590.286 1.15206 0.863919 0
M  V30 6374 H 592.239 1.33904 3.99559 0
M  V30 6375 H 590.963 0.346735 3.24754 0
M  V30 6376 H 589.622 2.42107 2.75282 0
M  V30 6377 H 589.27 1.17299 4.89132 0
M  V30 6378 H 588.97 2.91643 5.10116 0
M  V30 6379 H 590.494 2.19872 5.69639 0
M  V30 6380 H 591.908 3.90517 4.19725 0
M  V30 6381 H 590.305 4.61128 3.84033 0
M  V30 6382 H 591.375 4.15296 2.50315 0
M  V30 6383 N 592.718 -0.936591 1.26751 0
M  V30 6384 C 593.628 -2.06949 1.10496 0
M  V30 6385 C 594.644 -1.7396 0.037271 0
M  V30 6386 O 595.82 -1.99941 0.241944 0
M  V30 6387 C 592.885 -3.38612 0.744491 0
M  V30 6388 C 591.946 -3.85355 1.89209 0
M  V30 6389 C 591.179 -5.10735 1.54873 0
M  V30 6390 O 591.402 -5.68602 0.452546 0
M  V30 6391 O 590.336 -5.52632 2.38499 0
M  V30 6392 H 594.162 -2.23571 2.05547 0
M  V30 6393 H 591.747 -1.05428 1.05855 0
M  V30 6394 H 593.629 -4.17711 0.556396 0
M  V30 6395 H 592.304 -3.23218 -0.176582 0
M  V30 6396 H 591.211 -3.07182 2.13518 0
M  V30 6397 H 592.544 -4.05277 2.79305 0
M  V30 6398 N 594.196 -1.08629 -1.14182 0
M  V30 6399 C 595.424 -0.838889 -1.8913 0
M  V30 6400 C 595.839 0.609153 -1.78703 0
M  V30 6401 O 595.196 1.41876 -1.14794 0
M  V30 6402 C 595.247 -1.25477 -3.39025 0
M  V30 6403 O 594.968 -2.64601 -3.49167 0
M  V30 6404 C 596.469 -1.03856 -4.30963 0
M  V30 6405 H 593.689 -0.302377 -0.599007 0
M  V30 6406 H 596.233 -1.44615 -1.44592 0
M  V30 6407 H 594.388 -0.691571 -3.81177 0
M  V30 6408 H 594.802 -2.81922 -4.42289 0
M  V30 6409 H 596.276 -1.37892 -5.345 0
M  V30 6410 H 596.753 0.0242522 -4.39193 0
M  V30 6411 H 597.359 -1.58731 -3.94569 0
M  V30 6412 N 595.674 1.31259 -0.872281 0
M  V30 6413 C 596.624 2.26 -0.301295 0
M  V30 6414 C 597.608 1.50729 0.562991 0
M  V30 6415 O 598.8 1.72198 0.40949 0
M  V30 6416 C 595.929 3.39724 0.494227 0
M  V30 6417 C 595.015 4.22363 -0.383432 0
M  V30 6418 N 595.406 4.83724 -1.47799 0
M  V30 6419 C 593.704 4.45652 -0.176278 0
M  V30 6420 C 594.405 5.45523 -2.01939 0
M  V30 6421 N 593.381 5.27428 -1.31608 0
M  V30 6422 H 597.183 2.70981 -1.13782 0
M  V30 6423 H 594.697 1.45552 -0.720294 0
M  V30 6424 H 596.694 4.06626 0.919828 0
M  V30 6425 H 595.354 2.96286 1.32834 0
M  V30 6426 H 596.365 4.83313 -1.8609 0
M  V30 6427 H 593.042 4.12845 0.621698 0
M  V30 6428 H 594.432 6.04268 -2.93786 0
M  V30 6429 N 597.152 0.631951 1.44375 0
M  V30 6430 C 598.099 -0.0724807 2.30686 0
M  V30 6431 C 599.069 -0.835975 1.43529 0
M  V30 6432 O 600.254 -0.816849 1.7243 0
M  V30 6433 C 597.394 -1.04753 3.28817 0
M  V30 6434 C 596.507 -0.282367 4.31076 0
M  V30 6435 C 595.642 -1.2493 5.163 0
M  V30 6436 C 594.681 -0.473349 6.10267 0
M  V30 6437 N 593.818 -1.39079 6.88187 0
M  V30 6438 H 598.658 0.669477 2.90383 0
M  V30 6439 H 596.195 0.341927 1.43071 0
M  V30 6440 H 598.153 -1.62623 3.842 0
M  V30 6441 H 596.783 -1.75661 2.70819 0
M  V30 6442 H 595.835 0.412268 3.78159 0
M  V30 6443 H 597.147 0.321955 4.9776 0
M  V30 6444 H 596.301 -1.89931 5.76204 0
M  V30 6445 H 595.04 -1.88755 4.49692 0
M  V30 6446 H 594.045 0.190142 5.49471 0
M  V30 6447 H 595.27 0.16019 6.78911 0
M  V30 6448 H 593.216 -2.01623 6.24247 0
M  V30 6449 H 593.133 -0.840513 7.51313 0
M  V30 6450 H 594.401 -2.02961 7.52613 0
M  V30 6451 N 598.631 -1.53133 0.372548 0
M  V30 6452 C 599.561 -2.28876 -0.462412 0
M  V30 6453 C 600.542 -1.31583 -1.07796 0
M  V30 6454 O 601.727 -1.60461 -1.09389 0
M  V30 6455 C 598.857 -3.08317 -1.59868 0
M  V30 6456 C 597.811 -4.13355 -1.11003 0
M  V30 6457 C 597.137 -4.8092 -2.33708 0
M  V30 6458 C 598.437 -5.21955 -0.18983 0
M  V30 6459 H 600.131 -2.9892 0.169511 0
M  V30 6460 H 597.677 -1.43761 0.0829658 0
M  V30 6461 H 599.63 -3.60055 -2.18949 0
M  V30 6462 H 598.354 -2.35976 -2.25794 0
M  V30 6463 H 597.013 -3.62573 -0.541869 0
M  V30 6464 H 596.661 -4.05144 -2.98106 0
M  V30 6465 H 596.361 -5.51904 -2.01682 0
M  V30 6466 H 597.885 -5.35455 -2.93462 0
M  V30 6467 H 599.299 -5.69153 -0.688319 0
M  V30 6468 H 597.696 -6.00087 0.0398887 0
M  V30 6469 H 598.766 -4.78811 0.766057 0
M  V30 6470 N 600.109 -0.101901 -1.5727 0
M  V30 6471 C 601.072 0.840129 -2.13247 0
M  V30 6472 C 602.072 1.20625 -1.06331 0
M  V30 6473 O 603.262 1.13456 -1.32186 0
M  V30 6474 C 600.394 2.13372 -2.65867 0
M  V30 6475 H 601.587 0.353945 -2.97804 0
M  V30 6476 H 599.14 0.147167 -1.55606 0
M  V30 6477 H 599.875 2.66461 -1.84849 0
M  V30 6478 H 599.66 1.88085 -3.44044 0
M  V30 6479 H 601.15 2.80748 -3.09145 0
M  V30 6480 N 601.587 1.56661 0.17182 0
M  V30 6481 C 602.812 1.86459 0.908165 0
M  V30 6482 C 603.237 0.688181 1.75059 0
M  V30 6483 O 602.595 -0.362753 1.77634 0
M  V30 6484 C 602.643 3.14669 1.76112 0
M  V30 6485 O 601.747 2.96858 2.86268 0
M  V30 6486 H 601.088 0.613318 0.254434 0
M  V30 6487 H 603.618 2.03892 0.170113 0
M  V30 6488 H 603.628 3.46061 2.16115 0
M  V30 6489 H 602.303 3.99905 1.14233 0
M  V30 6490 H 600.88 2.76819 2.49852 0
M  V30 6491 N 603.065 -0.440357 1.51323 0
M  V30 6492 C 603.995 -1.54174 1.75364 0
M  V30 6493 C 604.976 -1.59039 0.603375 0
M  V30 6494 O 606.161 -1.74815 0.845774 0
M  V30 6495 C 603.291 -2.92277 1.87593 0
M  V30 6496 C 602.245 -3.02274 3.03009 0
M  V30 6497 C 601.571 -4.42327 3.00418 0
M  V30 6498 C 602.871 -2.76634 4.43024 0
M  V30 6499 H 604.565 -1.34307 2.67585 0
M  V30 6500 H 602.111 -0.644678 1.28763 0
M  V30 6501 H 604.064 -3.69284 2.02995 0
M  V30 6502 H 602.788 -3.13369 0.920179 0
M  V30 6503 H 601.447 -2.27706 2.87307 0
M  V30 6504 H 601.095 -4.60382 2.02626 0
M  V30 6505 H 600.795 -4.49946 3.77918 0
M  V30 6506 H 602.319 -5.21312 3.17909 0
M  V30 6507 H 603.733 -3.43376 4.59093 0
M  V30 6508 H 602.13 -2.95666 5.22208 0
M  V30 6509 H 603.2 -1.72262 4.5327 0
M  V30 6510 N 604.543 -1.41418 -0.695603 0
M  V30 6511 C 605.789 -1.41983 -1.45645 0
M  V30 6512 C 606.144 -0.0282216 -1.92379 0
M  V30 6513 O 605.437 0.945916 -1.66622 0
M  V30 6514 C 605.631 -2.36112 -2.68302 0
M  V30 6515 C 605.46 -3.84288 -2.33566 0
M  V30 6516 C 604.23 -4.52971 -2.23932 0
M  V30 6517 C 606.428 -4.75264 -1.96543 0
M  V30 6518 N 604.41 -5.86276 -1.82081 0
M  V30 6519 C 605.781 -5.97517 -1.6545 0
M  V30 6520 C 607.836 -4.62911 -1.83352 0
M  V30 6521 C 606.539 -7.08793 -1.22492 0
M  V30 6522 C 608.565 -5.74149 -1.41799 0
M  V30 6523 C 607.927 -6.95501 -1.11617 0
M  V30 6524 H 604.026 -0.574771 -0.530247 0
M  V30 6525 H 606.61 -1.77289 -0.804788 0
M  V30 6526 H 604.781 -2.02902 -3.31188 0
M  V30 6527 H 606.513 -2.27397 -3.34773 0
M  V30 6528 H 603.268 -4.06909 -2.42327 0
M  V30 6529 H 603.692 -6.56926 -1.63638 0
M  V30 6530 H 608.334 -3.69588 -2.05341 0
M  V30 6531 H 606.052 -8.01982 -0.992482 0
M  V30 6532 H 609.638 -5.66595 -1.32143 0
M  V30 6533 H 608.518 -7.80114 -0.799493 0
M  V30 6534 N 606.021 0.929856 -1.27246 0
M  V30 6535 C 606.968 2.03017 -1.09785 0
M  V30 6536 C 607.938 1.661 0.000456744 0
M  V30 6537 O 609.123 1.90116 -0.161462 0
M  V30 6538 C 606.263 3.36878 -0.748816 0
M  V30 6539 C 605.376 3.86763 -1.92453 0
M  V30 6540 C 604.511 5.09061 -1.51758 0
M  V30 6541 C 603.55 5.51237 -2.66091 0
M  V30 6542 N 602.687 6.64732 -2.25999 0
M  V30 6543 H 607.527 2.17285 -2.03939 0
M  V30 6544 H 605.064 1.06448 -1.01524 0
M  V30 6545 H 607.022 4.13855 -0.527283 0
M  V30 6546 H 605.652 3.22424 0.155771 0
M  V30 6547 H 604.704 3.06086 -2.25867 0
M  V30 6548 H 606.016 4.13994 -2.78227 0
M  V30 6549 H 605.17 5.93532 -1.25716 0
M  V30 6550 H 603.909 4.83602 -0.630896 0
M  V30 6551 H 602.914 4.65316 -2.92849 0
M  V30 6552 H 604.139 5.78692 -3.55377 0
M  V30 6553 H 602.085 6.40935 -1.3978 0
M  V30 6554 H 602.002 6.91607 -3.05313 0
M  V30 6555 H 603.27 7.52549 -2.03199 0
M  V30 6556 N 607.499 1.09233 1.13605 0
M  V30 6557 C 608.776 0.739633 1.81077 0
M  V30 6558 C 609.156 -0.775595 1.96336 0
M  V30 6559 O 608.504 -1.69726 1.52988 0
M  V30 6560 C 608.714 1.47636 3.16235 0
M  V30 6561 C 610.062 1.64087 3.91613 0
M  V30 6562 O 611.086 1.43871 3.25852 0
M  V30 6563 O 609.945 1.97511 5.0956 0
M  V30 6564 H 607.039 0.265464 0.783236 0
M  V30 6565 H 609.585 1.19441 1.20549 0
M  V30 6566 H 608.357 2.50818 3.00344 0
M  V30 6567 H 607.98 1.01362 3.84462 0
M  V30 6568 N 608.977 -1.30795 0.87923 0
M  V30 6569 C 609.909 -2.27241 0.299025 0
M  V30 6570 C 610.922 -1.53472 -0.543166 0
M  V30 6571 O 612.111 -1.74756 -0.363651 0
M  V30 6572 C 609.211 -3.33655 -0.593931 0
M  V30 6573 C 608.384 -4.36857 0.2179 0
M  V30 6574 C 607.443 -5.22715 -0.604646 0
M  V30 6575 O 606.469 -5.69192 -0.0293838 0
M  V30 6576 N 607.671 -5.48008 -1.91488 0
M  V30 6577 H 610.436 -2.77667 1.12788 0
M  V30 6578 H 607.997 -1.43914 0.741637 0
M  V30 6579 H 609.989 -3.88013 -1.15012 0
M  V30 6580 H 608.559 -2.83202 -1.32346 0
M  V30 6581 H 607.779 -3.82444 0.955536 0
M  V30 6582 H 609.067 -5.02869 0.774614 0
M  V30 6583 H 608.465 -5.1202 -2.40525 0
M  V30 6584 H 607.022 -6.05264 -2.41864 0
M  V30 6585 N 610.455 -0.639598 -1.44038 0
M  V30 6586 C 611.418 0.0506628 -2.29144 0
M  V30 6587 C 612.418 0.764001 -1.41491 0
M  V30 6588 O 613.608 0.607309 -1.63271 0
M  V30 6589 C 610.74 1.0824 -3.2326 0
M  V30 6590 H 611.933 -0.697987 -2.91664 0
M  V30 6591 H 609.486 -0.400146 -1.51091 0
M  V30 6592 H 610.221 1.86075 -2.65606 0
M  V30 6593 H 610.006 0.574725 -3.87865 0
M  V30 6594 H 611.496 1.56487 -3.87171 0
M  V30 6595 N 611.933 1.52934 -0.380664 0
M  V30 6596 C 613.179 2.01765 0.20458 0
M  V30 6597 C 613.512 1.26696 1.47179 0
M  V30 6598 O 612.787 0.364936 1.91046 0
M  V30 6599 C 613.07 3.56869 0.481269 0
M  V30 6600 C 612.923 4.42617 -0.800629 0
M  V30 6601 C 614.242 4.2121 1.27554 0
M  V30 6602 H 611.361 0.733388 0.0728803 0
M  V30 6603 H 614.003 1.83068 -0.50853 0
M  V30 6604 H 612.153 3.72932 1.08875 0
M  V30 6605 H 613.825 4.38323 -1.43773 0
M  V30 6606 H 612.068 4.09977 -1.4178 0
M  V30 6607 H 612.739 5.49134 -0.561791 0
M  V30 6608 H 615.215 4.09072 0.761514 0
M  V30 6609 H 614.091 5.29732 1.43788 0
M  V30 6610 H 614.352 3.78269 2.28833 0
M  V30 6611 N 613.412 0.11024 1.57214 0
M  V30 6612 C 614.658 -0.550684 1.9518 0
M  V30 6613 C 614.991 -1.66885 0.993122 0
M  V30 6614 O 614.266 -1.94479 0.0287907 0
M  V30 6615 C 614.549 -1.09163 3.43155 0
M  V30 6616 C 614.402 0.0225198 4.49794 0
M  V30 6617 C 615.721 -1.98527 3.92778 0
M  V30 6618 H 612.84 -0.198706 0.709708 0
M  V30 6619 H 615.482 0.184024 1.89107 0
M  V30 6620 H 613.632 -1.71775 3.48462 0
M  V30 6621 H 615.304 0.657443 4.56591 0
M  V30 6622 H 613.547 0.686868 4.28328 0
M  V30 6623 H 614.218 -0.39706 5.5057 0
M  V30 6624 H 616.694 -1.458 3.8972 0
M  V30 6625 H 615.57 -2.33298 4.96853 0
M  V30 6626 H 615.831 -2.90846 3.32958 0
M  V30 6627 N 614.89 -1.56749 -0.16351 0
M  V30 6628 C 615.8 -2.00255 -1.2221 0
M  V30 6629 C 616.816 -0.915194 -1.47987 0
M  V30 6630 O 617.992 -1.22342 -1.59982 0
M  V30 6631 C 615.057 -2.36035 -2.53946 0
M  V30 6632 C 614.118 -3.58637 -2.35962 0
M  V30 6633 C 613.351 -3.92701 -3.61416 0
M  V30 6634 O 613.574 -3.27632 -4.66919 0
M  V30 6635 O 612.508 -4.86019 -3.55062 0
M  V30 6636 H 616.334 -2.90586 -0.882794 0
M  V30 6637 H 613.919 -1.44721 -0.370978 0
M  V30 6638 H 615.801 -2.59982 -3.31643 0
M  V30 6639 H 614.476 -1.48863 -2.8744 0
M  V30 6640 H 613.383 -3.39898 -1.5627 0
M  V30 6641 H 614.716 -4.46374 -2.0739 0
M  V30 6642 N 616.368 0.432326 -1.51554 0
M  V30 6643 C 617.617 1.17831 -1.63703 0
M  V30 6644 C 617.93 1.92229 -0.36156 0
M  V30 6645 O 619.136 2.69069 -0.362495 0
M  V30 6646 C 617.592 2.14318 -2.89129 0
M  V30 6647 C 617.2 1.45544 -4.23699 0
M  V30 6648 C 618.944 2.89319 -3.10636 0
M  V30 6649 C 616.851 2.40545 -5.4027 0
M  V30 6650 H 615.781 0.443533 -0.60975 0
M  V30 6651 H 618.432 0.444878 -1.78026 0
M  V30 6652 H 616.814 2.91117 -2.68452 0
M  V30 6653 H 617.988 0.742693 -4.54775 0
M  V30 6654 H 616.303 0.826772 -4.0811 0
M  V30 6655 H 618.9 3.60495 -3.94902 0
M  V30 6656 H 619.243 3.50951 -2.23918 0
M  V30 6657 H 619.776 2.19625 -3.31677 0
M  V30 6658 H 616.515 1.83594 -6.29264 0
M  V30 6659 H 616.035 3.09859 -5.13563 0
M  V30 6660 H 617.714 3.01569 -5.72421 0
M  V30 6661 N 617.846 1.41785 0.688094 0
M  V30 6662 C 618.794 1.44436 1.82321 0
M  V30 6663 C 619.788 0.321544 1.6632 0
M  V30 6664 O 620.994 0.493931 1.73091 0
M  V30 6665 H 617.369 0.452084 0.600936 0
M  V30 6666 H 619.34 2.40087 1.77202 0
M  V30 6667 C 618.089 1.35071 3.20392 0
M  V30 6668 H 617.412 2.2076 3.33324 0
M  V30 6669 H 618.852 1.40988 3.99873 0
M  V30 6670 C 617.311 0.0639127 3.36839 0
M  V30 6671 O 617.841 -0.888495 3.91751 0
M  V30 6672 N 616.047 -0.0146114 2.90596 0
M  V30 6673 H 615.594 0.761191 2.46097 0
M  V30 6674 H 615.552 -0.874988 3.01979 0
M  V30 6675 N 619.324 -0.923095 1.27737 0
M  V30 6676 C 620.573 -1.66581 1.13727 0
M  V30 6677 C 620.886 -1.9304 -0.315433 0
M  V30 6678 O 622.092 -2.65309 -0.57651 0
M  V30 6679 C 620.548 -3.00047 1.98745 0
M  V30 6680 C 620.156 -2.8127 3.48699 0
M  V30 6681 C 621.9 -3.77887 1.93395 0
M  V30 6682 C 619.807 -4.1032 4.25901 0
M  V30 6683 H 618.737 -0.624834 0.422017 0
M  V30 6684 H 621.388 -1.02514 1.52194 0
M  V30 6685 H 619.77 -3.65197 1.53125 0
M  V30 6686 H 620.944 -2.24859 4.02213 0
M  V30 6687 H 619.259 -2.16854 3.55476 0
M  V30 6688 H 621.856 -4.73526 2.48348 0
M  V30 6689 H 622.199 -4.06264 0.908605 0
M  V30 6690 H 622.732 -3.19541 2.36935 0
M  V30 6691 H 619.471 -3.8712 5.28978 0
M  V30 6692 H 618.991 -4.66377 3.77163 0
M  V30 6693 H 620.67 -4.78648 4.35321 0
M  V30 6694 N 620.802 -1.09834 -1.13024 0
M  V30 6695 C 621.765 -0.745058 -2.16752 0
M  V30 6696 C 622.765 0.227435 -1.59183 0
M  V30 6697 O 623.955 0.0050786 -1.74199 0
M  V30 6698 C 621.087 -0.102543 -3.40746 0
M  V30 6699 H 622.28 -1.66375 -2.49518 0
M  V30 6700 H 619.833 -0.898061 -1.27924 0
M  V30 6701 H 620.568 0.827177 -3.13573 0
M  V30 6702 H 620.353 -0.80235 -3.83803 0
M  V30 6703 H 621.843 0.129082 -4.174 0
M  V30 6704 N 622.28 1.30327 -0.886154 0
M  V30 6705 C 623.526 1.96388 -0.505941 0
M  V30 6706 C 623.859 1.69784 0.942712 0
M  V30 6707 O 623.134 1.00322 1.6663 0
M  V30 6708 C 623.417 3.51488 -0.782826 0
M  V30 6709 C 623.27 3.87603 -2.28219 0
M  V30 6710 C 624.589 4.39331 -0.260128 0
M  V30 6711 H 621.708 0.713327 -0.185292 0
M  V30 6712 H 624.35 1.54178 -1.11036 0
M  V30 6713 H 622.5 3.87572 -0.268399 0
M  V30 6714 H 624.172 3.61537 -2.86512 0
M  V30 6715 H 622.415 3.3563 -2.74837 0
M  V30 6716 H 623.086 4.95806 -2.42653 0
M  V30 6717 H 625.562 4.10162 -0.700444 0
M  V30 6718 H 624.438 5.46769 -0.483179 0
M  V30 6719 H 624.699 4.34072 0.838674 0
M  V30 6720 N 623.758 0.647228 1.43697 0
M  V30 6721 C 624.688 -0.0345631 2.33474 0
M  V30 6722 C 625.669 -0.818193 1.4913 0
M  V30 6723 O 626.854 -0.780867 1.77809 0
M  V30 6724 C 623.984 -1.00576 3.32418 0
M  V30 6725 C 622.938 -0.33266 4.26705 0
M  V30 6726 C 622.264 -1.41489 5.1564 0
M  V30 6727 C 623.564 0.771204 5.16575 0
M  V30 6728 H 625.258 0.715163 2.90733 0
M  V30 6729 H 622.804 0.345364 1.39797 0
M  V30 6730 H 624.757 -1.49159 3.94119 0
M  V30 6731 H 623.481 -1.78657 2.73403 0
M  V30 6732 H 622.14 0.13267 3.6636 0
M  V30 6733 H 621.788 -2.18698 4.52968 0
M  V30 6734 H 621.488 -0.969799 5.79542 0
M  V30 6735 H 623.012 -1.9022 5.80214 0
M  V30 6736 H 624.426 0.36779 5.72119 0
M  V30 6737 H 622.823 1.1404 5.89165 0
M  V30 6738 H 623.893 1.63169 4.56622 0
M  V30 6739 N 625.236 -1.5273 0.388769 0
M  V30 6740 C 626.186 -2.23238 -0.463567 0
M  V30 6741 C 627.17 -1.23606 -1.03007 0
M  V30 6742 O 628.362 -1.48945 -0.956261 0
M  V30 6743 C 625.491 -3.04228 -1.5906 0
M  V30 6744 C 624.577 -4.11255 -1.03587 0
M  V30 6745 N 624.968 -5.0538 -0.206038 0
M  V30 6746 C 623.266 -4.26376 -1.30841 0
M  V30 6747 C 623.967 -5.81613 0.100359 0
M  V30 6748 N 622.943 -5.41264 -0.503447 0
M  V30 6749 H 626.745 -2.93367 0.176978 0
M  V30 6750 H 624.259 -1.61188 0.198046 0
M  V30 6751 H 626.256 -3.53277 -2.21362 0
M  V30 6752 H 624.916 -2.35634 -2.23398 0
M  V30 6753 H 625.927 -5.17663 0.156659 0
M  V30 6754 H 622.604 -3.69011 -1.95287 0
M  V30 6755 H 623.994 -6.67442 0.772676 0
M  V30 6756 N 626.714 -0.118576 -1.57153 0
M  V30 6757 C 627.939 0.550582 -1.99958 0
M  V30 6758 C 628.364 1.59458 -0.997736 0
M  V30 6759 O 627.722 1.81274 0.0306269 0
M  V30 6760 C 627.77 1.15379 -3.41643 0
M  V30 6761 O 626.874 2.26932 -3.44348 0
M  V30 6762 H 626.215 0.137567 -0.649593 0
M  V30 6763 H 628.745 -0.206926 -2.03551 0
M  V30 6764 H 628.755 1.48942 -3.79843 0
M  V30 6765 H 627.43 0.389087 -4.14076 0
M  V30 6766 H 626.007 1.94812 -3.17967 0
M  V30 6767 N 628.193 1.56834 0.155195 0
M  V30 6768 C 629.44 1.82898 0.869179 0
M  V30 6769 C 629.768 0.698194 1.81537 0
M  V30 6770 O 629.023 -0.313404 1.93174 0
M  V30 6771 C 629.322 3.15239 1.68402 0
M  V30 6772 C 628.988 4.42123 0.885341 0
M  V30 6773 C 627.65 4.76583 0.664971 0
M  V30 6774 C 630.002 5.20178 0.326234 0
M  V30 6775 C 627.33 5.86566 -0.125346 0
M  V30 6776 C 629.682 6.3099 -0.45108 0
M  V30 6777 C 628.346 6.64006 -0.682102 0
M  V30 6778 H 627.616 0.66927 0.318055 0
M  V30 6779 H 630.263 1.91036 0.133241 0
M  V30 6780 H 628.568 3.02515 2.48982 0
M  V30 6781 H 630.265 3.32618 2.23978 0
M  V30 6782 H 626.855 4.15102 1.06716 0
M  V30 6783 H 631.039 4.93936 0.483787 0
M  V30 6784 H 626.295 6.10594 -0.313915 0
M  V30 6785 H 630.469 6.9067 -0.89149 0
M  V30 6786 H 628.096 7.49065 -1.29636 0
M  V30 6787 N 629.671 -0.424282 1.51781 0
M  V30 6788 C 630.603 -1.53457 1.70246 0
M  V30 6789 C 631.616 -1.52004 0.582967 0
M  V30 6790 O 632.805 -1.56544 0.857683 0
M  V30 6791 C 629.905 -2.92368 1.71389 0
M  V30 6792 C 629.078 -3.1818 3.00133 0
M  V30 6793 C 628.137 -4.36884 2.9329 0
M  V30 6794 O 627.163 -4.34901 3.67219 0
M  V30 6795 N 628.365 -5.4117 2.10036 0
M  V30 6796 H 631.13 -1.38017 2.66029 0
M  V30 6797 H 628.691 -0.613394 1.4983 0
M  V30 6798 H 630.683 -3.6982 1.64362 0
M  V30 6799 H 629.253 -3.0134 0.831449 0
M  V30 6800 H 628.473 -2.28908 3.20928 0
M  V30 6801 H 629.761 -3.32261 3.85331 0
M  V30 6802 H 629.159 -5.45623 1.49373 0
M  V30 6803 H 627.716 -6.17425 2.08878 0
M  V30 6804 N 631.149 -1.42148 -0.680565 0
M  V30 6805 C 632.096 -1.45175 -1.79424 0
M  V30 6806 C 633.066 -0.304352 -1.63288 0
M  V30 6807 O 634.251 -0.507591 -1.83924 0
M  V30 6808 C 631.391 -1.35429 -3.17416 0
M  V30 6809 C 630.504 -2.60158 -3.4488 0
M  V30 6810 C 629.639 -2.42596 -4.72568 0
M  V30 6811 C 628.678 -3.62727 -4.93047 0
M  V30 6812 N 627.815 -3.44143 -6.11973 0
M  V30 6813 H 632.655 -2.40349 -1.76172 0
M  V30 6814 H 630.192 -1.19334 -0.860107 0
M  V30 6815 H 632.15 -1.27777 -3.97151 0
M  V30 6816 H 630.78 -0.438536 -3.19807 0
M  V30 6817 H 629.832 -2.78199 -2.5944 0
M  V30 6818 H 631.144 -3.49473 -3.55908 0
M  V30 6819 H 630.298 -2.32497 -5.60384 0
M  V30 6820 H 629.037 -1.50761 -4.63813 0
M  V30 6821 H 628.042 -3.73264 -4.03676 0
M  V30 6822 H 629.267 -4.55534 -5.03652 0
M  V30 6823 H 627.213 -2.5502 -6.04401 0
M  V30 6824 H 627.13 -4.27041 -6.23836 0
M  V30 6825 H 628.398 -3.37845 -7.02482 0
M  V30 6826 N 632.627 0.916307 -1.28225 0
M  V30 6827 C 633.559 2.02303 -1.07732 0
M  V30 6828 C 634.572 1.62773 -0.0298421 0
M  V30 6829 O 635.761 1.76406 -0.272626 0
M  V30 6830 C 632.861 3.33282 -0.614504 0
M  V30 6831 C 632.034 4.01439 -1.73682 0
M  V30 6832 C 631.093 5.10698 -1.26781 0
M  V30 6833 O 630.119 5.34038 -1.96958 0
M  V30 6834 N 631.321 5.80355 -0.129624 0
M  V30 6835 H 634.086 2.20442 -2.03041 0
M  V30 6836 H 631.647 1.08744 -1.19943 0
M  V30 6837 H 633.639 4.03699 -0.284397 0
M  V30 6838 H 632.209 3.11633 0.245664 0
M  V30 6839 H 631.429 3.24604 -2.23665 0
M  V30 6840 H 632.717 4.43721 -2.48976 0
M  V30 6841 H 632.115 5.6386 0.455847 0
M  V30 6842 H 630.672 6.51647 0.141224 0
M  V30 6843 N 634.105 1.10431 1.1244 0
M  V30 6844 C 635.053 0.747974 2.20246 0
M  V30 6845 C 636.047 -0.255848 1.67457 0
M  V30 6846 O 637.253 -0.116221 1.79624 0
M  V30 6847 H 633.628 0.223946 0.71788 0
M  V30 6848 H 635.599 1.6661 2.47556 0
M  V30 6849 C 634.348 0.195957 3.47147 0
M  V30 6850 H 633.671 0.959606 3.88113 0
M  V30 6851 H 635.111 -0.0153154 4.23997 0
M  V30 6852 C 633.57 -1.07132 3.19413 0
M  V30 6853 O 634.1 -2.15284 3.3914 0
M  V30 6854 N 632.306 -0.98994 2.73219 0
M  V30 6855 H 631.853 -0.109736 2.57366 0
M  V30 6856 H 631.811 -1.83856 2.55038 0
M  V30 6857 N 635.583 -1.29855 0.893053 0
M  V30 6858 C 636.829 -1.96116 0.516349 0
M  V30 6859 C 637.162 -1.70281 -0.933695 0
M  V30 6860 O 636.437 -1.01205 -1.66096 0
M  V30 6861 C 636.72 -3.51068 0.801455 0
M  V30 6862 C 636.573 -3.86387 2.30272 0
M  V30 6863 C 637.892 -4.39186 0.283423 0
M  V30 6864 H 635.011 -0.712335 0.189072 0
M  V30 6865 H 637.653 -1.53587 1.11852 0
M  V30 6866 H 635.803 -3.87424 0.288949 0
M  V30 6867 H 637.475 -3.60012 2.88425 0
M  V30 6868 H 635.718 -3.34167 2.76613 0
M  V30 6869 H 636.389 -4.94512 2.45279 0
M  V30 6870 H 638.865 -4.09785 0.722187 0
M  V30 6871 H 637.741 -5.46505 0.512169 0
M  V30 6872 H 638.002 -4.34511 -0.815643 0
M  V30 6873 N 637.061 -0.65484 -1.43351 0
M  V30 6874 C 638.289 -0.176685 -2.06144 0
M  V30 6875 C 638.704 1.15831 -1.49093 0
M  V30 6876 O 638.061 1.71542 -0.622868 0
M  V30 6877 C 638.112 -0.0813326 -3.61408 0
M  V30 6878 O 637.833 -1.36355 -4.1634 0
M  V30 6879 C 639.334 0.422706 -4.4128 0
M  V30 6880 H 636.554 -0.0906429 -0.66485 0
M  V30 6881 H 639.098 -0.895945 -1.83829 0
M  V30 6882 H 637.253 0.588496 -3.82904 0
M  V30 6883 H 637.667 -1.22381 -5.10023 0
M  V30 6884 H 639.141 0.438375 -5.50257 0
M  V30 6885 H 639.618 1.45432 -4.14423 0
M  V30 6886 H 640.224 -0.214687 -4.24758 0
M  V30 6887 N 638.539 1.52521 -0.396863 0
M  V30 6888 C 639.788 2.00857 0.184184 0
M  V30 6889 C 640.101 1.28733 1.47265 0
M  V30 6890 O 641.307 1.67821 2.13421 0
M  V30 6891 C 639.763 3.57901 0.378787 0
M  V30 6892 C 639.371 4.38931 -0.896873 0
M  V30 6893 C 641.115 4.14504 0.915789 0
M  V30 6894 C 639.022 5.87591 -0.670133 0
M  V30 6895 H 637.952 0.750496 0.0726055 0
M  V30 6896 H 640.603 1.75965 -0.520425 0
M  V30 6897 H 638.985 3.79072 1.14543 0
M  V30 6898 H 640.159 4.29524 -1.66872 0
M  V30 6899 H 638.474 3.93586 -1.35938 0
M  V30 6900 H 641.071 5.23236 1.10126 0
M  V30 6901 H 641.414 3.71076 1.88701 0
M  V30 6902 H 641.947 3.97253 0.208523 0
M  V30 6903 H 638.686 6.35355 -1.61257 0
M  V30 6904 H 638.206 5.99767 0.0626368 0
M  V30 6905 H 639.885 6.46268 -0.307577 0
M  V30 6906 N 640.017 0.126909 1.57088 0
M  V30 6907 C 640.95 -0.857844 2.11462 0
M  V30 6908 C 641.928 -1.25569 1.03301 0
M  V30 6909 O 643.112 -1.35535 1.31006 0
M  V30 6910 C 640.239 -2.14912 2.61784 0
M  V30 6911 C 639.285 -1.89874 3.81903 0
M  V30 6912 S 640.118 -1.10785 5.23915 0
M  V30 6913 C 641.274 -2.41075 5.7761 0
M  V30 6914 H 641.507 -0.395384 2.94659 0
M  V30 6915 H 639.04 -0.0870151 1.54155 0
M  V30 6916 H 640.998 -2.89101 2.91429 0
M  V30 6917 H 639.659 -2.58275 1.78754 0
M  V30 6918 H 638.852 -2.85572 4.15289 0
M  V30 6919 H 638.454 -1.23802 3.52915 0
M  V30 6920 H 640.746 -3.36864 5.87817 0
M  V30 6921 H 641.689 -2.12223 6.75549 0
M  V30 6922 H 642.097 -2.50804 5.05725 0
M  V30 6923 N 641.495 -1.56914 -0.146875 0
M  V30 6924 C 642.772 -1.74273 -0.888165 0
M  V30 6925 C 643.152 -0.69496 -1.99333 0
M  V30 6926 O 642.5 0.286093 -2.26702 0
M  V30 6927 C 642.71 -3.18336 -1.43051 0
M  V30 6928 C 644.058 -3.80024 -1.89387 0
M  V30 6929 O 645.082 -3.21765 -1.52792 0
M  V30 6930 O 643.941 -4.82367 -2.56874 0
M  V30 6931 H 641.035 -0.712565 -0.419738 0
M  V30 6932 H 643.581 -1.6918 -0.132791 0
M  V30 6933 H 642.353 -3.86092 -0.636274 0
M  V30 6934 H 641.976 -3.27854 -2.24938 0
M  V30 6935 N 642.974 0.416227 -1.52004 0
M  V30 6936 C 643.924 1.50558 -1.7122 0
M  V30 6937 C 644.908 1.50613 -0.56609 0
M  V30 6938 O 646.1 1.56709 -0.822874 0
M  V30 6939 C 643.229 2.88556 -1.85984 0
M  V30 6940 C 642.315 2.93177 -3.06445 0
M  V30 6941 N 642.706 2.67505 -4.29272 0
M  V30 6942 C 641.004 3.24343 -3.06133 0
M  V30 6943 C 641.705 2.78511 -5.10692 0
M  V30 6944 N 640.681 3.11087 -4.45787 0
M  V30 6945 H 644.483 1.29494 -2.63834 0
M  V30 6946 H 641.997 0.62384 -1.4994 0
M  V30 6947 H 643.994 3.66954 -1.97865 0
M  V30 6948 H 642.654 3.10624 -0.945654 0
M  V30 6949 H 643.665 2.42033 -4.57865 0
M  V30 6950 H 640.342 3.52051 -2.24425 0
M  V30 6951 H 641.732 2.62438 -6.18527 0
M  V30 6952 N 644.452 1.42507 0.673017 0
M  V30 6953 C 645.402 1.4258 1.77919 0
M  V30 6954 C 646.386 0.296885 1.58137 0
M  V30 6955 O 647.578 0.539243 1.68586 0
M  V30 6956 C 644.707 1.33238 3.1639 0
M  V30 6957 C 643.793 2.51081 3.41788 0
M  V30 6958 N 644.184 3.76498 3.37761 0
M  V30 6959 C 642.482 2.4538 3.72431 0
M  V30 6960 C 643.183 4.54784 3.62693 0
M  V30 6961 N 642.159 3.8522 3.83544 0
M  V30 6962 H 645.961 2.37442 1.73201 0
M  V30 6963 H 643.475 1.36881 0.873924 0
M  V30 6964 H 645.472 1.31372 3.9566 0
M  V30 6965 H 644.132 0.393794 3.22303 0
M  V30 6966 H 645.143 4.09068 3.17622 0
M  V30 6967 H 641.82 1.60109 3.85579 0
M  V30 6968 H 643.21 5.63774 3.65525 0
M  V30 6969 N 645.93 -0.909495 1.28709 0
M  V30 6970 C 647.155 -1.69801 1.1909 0
M  V30 6971 C 647.58 -1.86479 -0.246388 0
M  V30 6972 O 646.938 -1.37802 -1.17815 0
M  V30 6973 C 646.986 -3.06543 1.89904 0
M  V30 6974 O 646.09 -3.94268 1.2094 0
M  V30 6975 H 645.431 -0.519783 0.413185 0
M  V30 6976 H 647.961 -1.13689 1.70106 0
M  V30 6977 H 647.971 -3.56748 1.97977 0
M  V30 6978 H 646.646 -2.93722 2.94449 0
M  V30 6979 H 645.223 -3.52702 1.2106 0
M  V30 6980 N 647.408 -1.11026 -1.11852 0
M  V30 6981 C 648.371 -0.768006 -2.1595 0
M  V30 6982 C 649.371 0.210538 -1.59416 0
M  V30 6983 O 650.561 -0.0133978 -1.74195 0
M  V30 6984 C 647.693 -0.138678 -3.40618 0
M  V30 6985 H 648.886 -1.69012 -2.4774 0
M  V30 6986 H 646.439 -0.911578 -1.26964 0
M  V30 6987 H 647.174 0.793872 -3.14433 0
M  V30 6988 H 646.959 -0.843012 -3.8293 0
M  V30 6989 H 648.449 0.0848039 -4.17514 0
M  V30 6990 N 648.886 1.2938 -0.899927 0
M  V30 6991 C 649.849 2.25983 -0.382677 0
M  V30 6992 C 650.849 1.53366 0.483259 0
M  V30 6993 O 652.039 1.71798 0.28828 0
M  V30 6994 C 649.171 3.37878 0.452915 0
M  V30 6995 H 650.364 2.73252 -1.23586 0
M  V30 6996 H 647.917 1.40825 -0.678088 0
M  V30 6997 H 648.652 2.95949 1.32608 0
M  V30 6998 H 648.437 3.91742 -0.167562 0
M  V30 6999 H 649.927 4.09746 0.806107 0
M  V30 7000 N 650.364 0.662433 1.43002 0
M  V30 7001 C 651.274 -0.0239199 2.34588 0
M  V30 7002 C 652.29 -0.802255 1.54402 0
M  V30 7003 O 653.466 -0.747401 1.87018 0
M  V30 7004 C 650.531 -0.972098 3.32793 0
M  V30 7005 C 649.592 -0.189673 4.28881 0
M  V30 7006 C 648.825 -1.09269 5.22395 0
M  V30 7007 O 649.048 -2.33209 5.20547 0
M  V30 7008 O 647.982 -0.560136 5.99288 0
M  V30 7009 H 651.808 0.730171 2.94792 0
M  V30 7010 H 649.393 0.422635 1.43297 0
M  V30 7011 H 651.275 -1.51676 3.93157 0
M  V30 7012 H 649.95 -1.70626 2.75079 0
M  V30 7013 H 648.857 0.398794 3.71968 0
M  V30 7014 H 650.19 0.50511 4.89601 0
M  V30 7015 N 651.842 -1.52309 0.404946 0
M  V30 7016 C 653.067 -2.06666 -0.1743 0
M  V30 7017 C 653.492 -1.27341 -1.38441 0
M  V30 7018 O 652.85 -0.302539 -1.78758 0
M  V30 7019 C 652.898 -3.57014 -0.507262 0
M  V30 7020 O 652.002 -3.80144 -1.59889 0
M  V30 7021 H 651.343 -0.663807 -0.0160273 0
M  V30 7022 H 653.873 -1.96297 0.576937 0
M  V30 7023 H 653.883 -4.00724 -0.767098 0
M  V30 7024 H 652.558 -4.14184 0.377368 0
M  V30 7025 H 651.135 -3.48316 -1.33155 0
M  V30 7026 N 653.32 -0.135238 -1.57019 0
M  V30 7027 C 654.567 0.518794 -1.95742 0
M  V30 7028 C 654.895 1.65642 -1.01947 0
M  V30 7029 O 654.15 1.95645 -0.0464016 0
M  V30 7030 C 654.449 1.07694 -3.40788 0
M  V30 7031 C 654.115 0.058992 -4.50861 0
M  V30 7032 C 652.777 -0.220872 -4.80693 0
M  V30 7033 C 655.129 -0.633856 -5.17331 0
M  V30 7034 C 652.457 -1.19959 -5.74305 0
M  V30 7035 C 654.809 -1.60131 -6.11997 0
M  V30 7036 C 653.473 -1.889 -6.40213 0
M  V30 7037 H 652.743 0.18984 -0.716269 0
M  V30 7038 H 655.39 -0.219581 -1.90237 0
M  V30 7039 H 653.695 1.89241 -3.43067 0
M  V30 7040 H 655.392 1.59137 -3.68071 0
M  V30 7041 H 651.982 0.287304 -4.27636 0
M  V30 7042 H 656.166 -0.430823 -4.94427 0
M  V30 7043 H 651.422 -1.42905 -5.94465 0
M  V30 7044 H 655.596 -2.14376 -6.62583 0
M  V30 7045 H 653.223 -2.64891 -7.12556 0
M  V30 7046 N 654.798 1.5699 0.138552 0
M  V30 7047 C 655.731 1.94064 1.2006 0
M  V30 7048 C 656.709 0.807601 1.41126 0
M  V30 7049 O 657.893 1.06399 1.556 0
M  V30 7050 C 655.02 2.21999 2.55801 0
M  V30 7051 C 654.066 3.44617 2.5128 0
M  V30 7052 S 654.899 4.97888 1.97149 0
M  V30 7053 C 656.055 5.28954 3.34602 0
M  V30 7054 H 656.288 2.83843 0.884337 0
M  V30 7055 H 653.821 1.50507 0.344517 0
M  V30 7056 H 655.779 2.38772 3.33914 0
M  V30 7057 H 654.44 1.32869 2.84613 0
M  V30 7058 H 653.633 3.61466 3.51224 0
M  V30 7059 H 653.235 3.27129 1.8128 0
M  V30 7060 H 655.527 5.22938 4.30745 0
M  V30 7061 H 656.47 6.30346 3.22598 0
M  V30 7062 H 656.878 4.56455 3.32128 0
M  V30 7063 N 656.276 -0.40816 1.52223 0
M  V30 7064 C 657.223 -1.49737 1.75635 0
M  V30 7065 C 658.193 -1.5493 0.598824 0
M  V30 7066 O 659.378 -1.71487 0.83648 0
M  V30 7067 C 656.518 -2.87174 1.91376 0
M  V30 7068 C 655.631 -2.91283 3.19027 0
M  V30 7069 C 654.766 -4.20026 3.25195 0
M  V30 7070 C 653.805 -4.18113 4.47044 0
M  V30 7071 N 652.942 -5.38429 4.50598 0
M  V30 7072 H 657.782 -1.29075 2.68596 0
M  V30 7073 H 655.319 -0.626518 1.33091 0
M  V30 7074 H 657.277 -3.66959 1.98486 0
M  V30 7075 H 655.907 -3.06329 1.01795 0
M  V30 7076 H 654.959 -2.03984 3.21084 0
M  V30 7077 H 656.271 -2.85734 4.08849 0
M  V30 7078 H 655.425 -5.08204 3.31382 0
M  V30 7079 H 654.164 -4.28271 2.33313 0
M  V30 7080 H 653.169 -3.28325 4.41002 0
M  V30 7081 H 654.394 -4.11507 5.40221 0
M  V30 7082 H 652.34 -5.4734 3.616 0
M  V30 7083 H 652.257 -5.34879 5.34266 0
M  V30 7084 H 653.525 -6.28557 4.61016 0
M  V30 7085 N 657.755 -1.42862 -0.66545 0
M  V30 7086 C 658.985 -1.47032 -1.45138 0
M  V30 7087 C 659.393 -0.0829977 -1.89018 0
M  V30 7088 O 658.736 0.914551 -1.59316 0
M  V30 7089 C 658.798 -2.34302 -2.72659 0
M  V30 7090 C 658.462 -3.82034 -2.50796 0
M  V30 7091 C 659.459 -4.73453 -2.14799 0
M  V30 7092 C 657.144 -4.26397 -2.655 0
M  V30 7093 C 659.138 -6.07228 -1.93785 0
M  V30 7094 C 656.825 -5.6023 -2.44103 0
M  V30 7095 C 657.823 -6.50462 -2.08299 0
M  V30 7096 O 657.511 -7.8182 -1.87116 0
M  V30 7097 H 657.243 -0.501969 -0.452772 0
M  V30 7098 H 659.797 -1.88137 -0.82423 0
M  V30 7099 H 658.027 -1.88063 -3.37889 0
M  V30 7100 H 659.716 -2.29818 -3.34572 0
M  V30 7101 H 660.482 -4.4046 -2.03026 0
M  V30 7102 H 656.361 -3.56448 -2.92345 0
M  V30 7103 H 659.905 -6.7762 -1.65763 0
M  V30 7104 H 655.802 -5.92793 -2.55475 0
M  V30 7105 H 656.57 -7.93274 -2.01639 0
M  V30 7106 N 659.233 0.902656 -1.29189 0
M  V30 7107 C 660.166 2.00816 -1.0839 0
M  V30 7108 C 661.144 1.626 0.00335266 0
M  V30 7109 O 662.328 1.87928 -0.146765 0
M  V30 7110 C 659.455 3.32415 -0.649435 0
M  V30 7111 C 658.501 3.89617 -1.73496 0
M  V30 7112 S 659.334 4.19091 -3.33351 0
M  V30 7113 C 660.49 5.53736 -2.91766 0
M  V30 7114 H 660.723 2.18151 -2.01984 0
M  V30 7115 H 658.256 1.0489 -1.13303 0
M  V30 7116 H 660.214 4.08492 -0.405479 0
M  V30 7117 H 658.875 3.12964 0.266857 0
M  V30 7118 H 658.068 4.84658 -1.38284 0
M  V30 7119 H 657.67 3.20217 -1.93229 0
M  V30 7120 H 659.962 6.34085 -2.38627 0
M  V30 7121 H 660.905 5.93871 -3.85647 0
M  V30 7122 H 661.313 5.15453 -2.30149 0
M  V30 7123 N 660.711 1.11618 1.11262 0
M  V30 7124 C 661.643 0.734015 2.17129 0
M  V30 7125 C 662.656 -0.235243 1.61091 0
M  V30 7126 O 663.845 -0.0178597 1.78491 0
M  V30 7127 C 660.945 0.0643682 3.38839 0
M  V30 7128 C 660.118 1.06092 4.24339 0
M  V30 7129 C 659.177 0.420482 5.24517 0
M  V30 7130 O 658.203 1.07495 5.58957 0
M  V30 7131 N 659.405 -0.815828 5.74739 0
M  V30 7132 H 662.17 1.64492 2.50524 0
M  V30 7133 H 659.731 1.00664 1.26801 0
M  V30 7134 H 661.723 -0.375851 4.02951 0
M  V30 7135 H 660.293 -0.749147 3.03491 0
M  V30 7136 H 659.513 1.67903 3.56654 0
M  V30 7137 H 660.801 1.73507 4.78302 0
M  V30 7138 H 660.199 -1.36668 5.48943 0
M  V30 7139 H 658.756 -1.199 6.40677 0
M  V30 7140 N 662.189 -1.289 0.906776 0
M  V30 7141 C 663.137 -2.29477 0.379873 0
M  V30 7142 C 664.131 -1.61068 -0.524747 0
M  V30 7143 O 665.337 -1.75344 -0.406765 0
M  V30 7144 H 661.712 -0.744742 0.10423 0
M  V30 7145 H 663.683 -2.71353 1.24137 0
M  V30 7146 C 662.432 -3.45713 -0.371154 0
M  V30 7147 H 661.755 -3.98551 0.315716 0
M  V30 7148 H 663.195 -4.18105 -0.704581 0
M  V30 7149 C 661.654 -2.9774 -1.57646 0
M  V30 7150 O 662.184 -2.99618 -2.67567 0
M  V30 7151 N 660.39 -2.53485 -1.42105 0
M  V30 7152 H 659.937 -2.52156 -0.526783 0
M  V30 7153 H 659.895 -2.21747 -2.22881 0
M  V30 7154 N 663.667 -0.670007 -1.42649 0
M  V30 7155 C 664.577 0.0114788 -2.34597 0
M  V30 7156 C 665.593 0.794055 -1.54825 0
M  V30 7157 O 666.769 0.737472 -1.87412 0
M  V30 7158 C 663.834 0.954436 -3.33304 0
M  V30 7159 C 662.895 0.166925 -4.28975 0
M  V30 7160 C 662.128 1.06497 -5.22967 0
M  V30 7161 O 662.351 2.30446 -5.21777 0
M  V30 7162 O 661.285 0.528347 -5.99577 0
M  V30 7163 H 665.111 -0.745794 -2.944 0
M  V30 7164 H 662.696 -0.430228 -1.43071 0
M  V30 7165 H 664.578 1.49589 -3.93956 0
M  V30 7166 H 663.253 1.69164 -2.7598 0
M  V30 7167 H 662.16 -0.418515 -3.71752 0
M  V30 7168 H 663.493 -0.531067 -4.89327 0
M  V30 7169 N 665.145 1.52092 -0.413018 0
M  V30 7170 C 666.375 2.05974 0.160648 0
M  V30 7171 C 666.783 1.28267 1.39084 0
M  V30 7172 O 666.126 0.328805 1.80733 0
M  V30 7173 C 666.188 3.54918 0.572169 0
M  V30 7174 C 665.852 4.53705 -0.547826 0
M  V30 7175 C 666.849 5.00342 -1.41259 0
M  V30 7176 C 664.534 4.97089 -0.721627 0
M  V30 7177 C 666.528 5.89011 -2.43607 0
M  V30 7178 C 664.215 5.85554 -1.74841 0
M  V30 7179 C 665.213 6.3141 -2.60403 0
M  V30 7180 O 664.901 7.18123 -3.61323 0
M  V30 7181 H 664.633 0.675636 0.0221936 0
M  V30 7182 H 667.187 1.96931 -0.58373 0
M  V30 7183 H 665.417 3.61661 1.36889 0
M  V30 7184 H 667.106 3.91428 1.0742 0
M  V30 7185 H 667.872 4.67537 -1.28974 0
M  V30 7186 H 663.751 4.60954 -0.0652911 0
M  V30 7187 H 667.295 6.24725 -3.10425 0
M  V30 7188 H 663.192 6.17773 -1.87156 0
M  V30 7189 H 663.96 7.36244 -3.57613 0
M  V30 7190 N 666.623 0.143563 1.56945 0
M  V30 7191 C 668.039 -0.212877 1.58174 0
M  V30 7192 C 668.239 -1.64926 1.15766 0
M  V30 7193 O 667.295 -2.37535 0.856361 0
M  V30 7194 C 668.608 0.0427573 3.0067 0
M  V30 7195 C 670.156 -0.0212221 3.12993 0
M  V30 7196 C 670.631 0.207036 4.57532 0
M  V30 7197 N 672.122 0.153845 4.62944 0
M  V30 7198 C 672.857 0.305018 5.72588 0
M  V30 7199 N 672.353 0.513722 6.90893 0
M  V30 7200 N 674.146 0.242862 5.61575 0
M  V30 7201 H 666.297 1.08148 1.82805 0
M  V30 7202 H 668.56 0.427831 0.84597 0
M  V30 7203 H 668.266 1.03672 3.36073 0
M  V30 7204 H 668.14 -0.678195 3.71053 0
M  V30 7205 H 670.527 -1.00574 2.77433 0
M  V30 7206 H 670.608 0.732004 2.45103 0
M  V30 7207 H 670.252 1.18863 4.93795 0
M  V30 7208 H 670.182 -0.566473 5.23544 0
M  V30 7209 H 672.673 -0.00294866 3.779 0
M  V30 7210 H 672.986 0.619273 7.70315 0
M  V30 7211 H 671.331 0.550001 6.9282 0
M  V30 7212 H 674.522 0.0806015 4.68031 0
M  V30 7213 H 674.695 0.364112 6.46976 0
M  V30 7214 N 668.101 -1.57061 -0.130224 0
M  V30 7215 C 669.326 -1.88802 -0.858409 0
M  V30 7216 C 669.751 -0.734353 -1.73173 0
M  V30 7217 O 669.109 0.315529 -1.78533 0
M  V30 7218 C 669.157 -3.19228 -1.67708 0
M  V30 7219 O 668.261 -3.04343 -2.78297 0
M  V30 7220 H 667.602 -0.619849 -0.238083 0
M  V30 7221 H 670.132 -2.04271 -0.115995 0
M  V30 7222 H 670.142 -3.51669 -2.06864 0
M  V30 7223 H 668.817 -4.02793 -1.0359 0
M  V30 7224 H 667.394 -2.83346 -2.42425 0
M  V30 7225 N 669.579 0.400081 -1.52437 0
M  V30 7226 C 670.995 0.739359 -1.41441 0
M  V30 7227 C 671.195 1.94512 -0.526053 0
M  V30 7228 O 670.251 2.525 0.00472502 0
M  V30 7229 C 671.564 0.984824 -2.84116 0
M  V30 7230 C 673.112 1.08698 -2.93519 0
M  V30 7231 C 673.587 1.36515 -4.37181 0
M  V30 7232 N 675.078 1.43361 -4.40457 0
M  V30 7233 C 675.813 1.66528 -5.48686 0
M  V30 7234 N 675.309 1.87239 -6.67018 0
M  V30 7235 N 677.102 1.68617 -5.36213 0
M  V30 7236 H 669.253 -0.393484 -2.08723 0
M  V30 7237 H 671.516 -0.1138 -0.941145 0
M  V30 7238 H 671.222 0.171096 -3.51284 0
M  V30 7239 H 671.096 1.90253 -3.25705 0
M  V30 7240 H 673.483 1.89129 -2.26526 0
M  V30 7241 H 673.564 0.147432 -2.55375 0
M  V30 7242 H 673.208 0.565982 -5.04737 0
M  V30 7243 H 673.138 2.31737 -4.7287 0
M  V30 7244 H 675.629 1.29108 -3.55161 0
M  V30 7245 H 675.942 2.04392 -7.45281 0
M  V30 7246 H 674.287 1.84486 -6.70067 0
M  V30 7247 H 677.478 1.5198 -4.42741 0
M  V30 7248 H 677.651 1.86332 -6.20632 0
M  V30 7249 N 671.057 1.43213 0.657864 0
M  V30 7250 C 672.305 1.44298 1.41501 0
M  V30 7251 C 672.626 0.0666478 1.94886 0
M  V30 7252 O 671.896 -0.897345 1.74139 0
M  V30 7253 H 670.476 0.531257 0.525143 0
M  V30 7254 H 673.138 1.78777 0.776195 0
M  V30 7255 H 672.234 2.1528 2.25966 0
M  V30 7256 N 672.536 -0.895792 1.29666 0
M  V30 7257 C 673.784 -1.64339 1.17631 0
M  V30 7258 C 674.105 -1.93099 -0.271643 0
M  V30 7259 O 673.375 -1.55981 -1.18518 0
M  V30 7260 H 671.955 -0.609162 0.432354 0
M  V30 7261 H 674.617 -1.07389 1.62646 0
M  V30 7262 H 673.713 -2.59815 1.72924 0
M  V30 7263 N 674.014 -1.12206 -1.10668 0
M  V30 7264 C 675.254 -0.885935 -1.84202 0
M  V30 7265 C 675.618 0.577849 -1.83098 0
M  V30 7266 O 676.819 0.931051 -2.5216 0
M  V30 7267 C 675.09 -1.44197 -3.2702 0
M  V30 7268 S 676.649 -1.34402 -4.1771 0
M  V30 7269 H 673.467 -0.319653 -0.635093 0
M  V30 7270 H 676.069 -1.43112 -1.33189 0
M  V30 7271 H 674.773 -2.50096 -3.25392 0
M  V30 7272 H 674.304 -0.894173 -3.83103 0
M  V30 7273 H 676.319 -0.313873 -4.95206 0
M  V30 7274 N 675.492 1.28418 -0.913599 0
M  V30 7275 C 676.903 1.77024 -0.593237 0
M  V30 7276 C 677.254 1.74779 0.891441 0
M  V30 7277 O 676.379 1.34237 1.69733 0
M  V30 7278 C 676.974 3.21456 -1.07011 0
M  V30 7279 C 675.533 3.67786 -0.800664 0
M  V30 7280 C 674.68 2.48185 -1.23691 0
M  V30 7281 H 677.631 1.14883 -1.09487 0
M  V30 7282 H 677.652 3.78269 -0.411481 0
M  V30 7283 H 677.164 3.23058 -2.1507 0
M  V30 7284 H 675.265 3.71644 0.266725 0
M  V30 7285 H 675.378 4.57934 -1.4083 0
M  V30 7286 H 673.742 2.46116 -0.655655 0
M  V30 7287 H 674.525 2.52506 -2.32585 0
M  V30 7288 N 676.97 0.677563 1.42291 0
M  V30 7289 C 677.933 0.0101085 2.29198 0
M  V30 7290 C 678.933 -0.726219 1.43467 0
M  V30 7291 O 680.123 -0.563807 1.64824 0
M  V30 7292 C 677.255 -0.996316 3.26016 0
M  V30 7293 H 678.448 0.775071 2.89711 0
M  V30 7294 H 676.001 0.440065 1.49977 0
M  V30 7295 H 676.736 -1.78967 2.70446 0
M  V30 7296 H 676.521 -0.471687 3.89253 0
M  V30 7297 H 678.011 -1.46167 3.91184 0
M  V30 7298 N 678.448 -1.51871 0.421078 0
M  V30 7299 C 679.725 -1.9447 -0.20993 0
M  V30 7300 C 680.105 -1.35875 -1.61558 0
M  V30 7301 O 679.453 -0.539294 -2.22045 0
M  V30 7302 C 679.663 -3.48402 -0.204165 0
M  V30 7303 C 681.011 -4.2254 -0.417696 0
M  V30 7304 O 682.035 -3.55074 -0.282999 0
M  V30 7305 O 680.894 -5.422 -0.684239 0
M  V30 7306 H 677.988 -0.815283 -0.138718 0
M  V30 7307 H 680.534 -1.62832 0.477884 0
M  V30 7308 H 679.306 -3.83464 0.779183 0
M  V30 7309 H 678.929 -3.86436 -0.935576 0
M  V30 7310 N 679.926 -0.151884 -1.56866 0
M  V30 7311 C 681.172 0.492327 -1.97352 0
M  V30 7312 C 681.527 1.62156 -1.03553 0
M  V30 7313 O 680.82 1.91467 -0.0714872 0
M  V30 7314 C 681.014 1.04074 -3.41911 0
M  V30 7315 C 680.843 -0.0338306 -4.49687 0
M  V30 7316 C 679.613 -0.476914 -5.03044 0
M  V30 7317 C 681.811 -0.827105 -5.07606 0
M  V30 7318 N 679.793 -1.53382 -5.9443 0
M  V30 7319 C 681.164 -1.73439 -5.95247 0
M  V30 7320 C 683.219 -0.874351 -4.90163 0
M  V30 7321 C 681.922 -2.68488 -6.67313 0
M  V30 7322 C 683.948 -1.81269 -5.62935 0
M  V30 7323 C 683.31 -2.70749 -6.50288 0
M  V30 7324 H 679.409 0.148822 -0.767708 0
M  V30 7325 H 681.993 -0.247615 -1.93119 0
M  V30 7326 H 680.164 1.75027 -3.46728 0
M  V30 7327 H 681.896 1.65197 -3.69448 0
M  V30 7328 H 678.651 -0.0782493 -4.73535 0
M  V30 7329 H 679.075 -2.06217 -6.44828 0
M  V30 7330 H 683.717 -0.196628 -4.22343 0
M  V30 7331 H 681.435 -3.37257 -7.34359 0
M  V30 7332 H 685.021 -1.85511 -5.51432 0
M  V30 7333 H 683.901 -3.42175 -7.0561 0
M  V30 7334 N 681.404 1.57128 0.121893 0
M  V30 7335 C 682.653 1.83888 0.828748 0
M  V30 7336 C 682.966 0.737087 1.81181 0
M  V30 7337 O 684.172 0.891007 2.56463 0
M  V30 7338 C 682.628 3.26014 1.52455 0
M  V30 7339 C 682.236 4.44195 0.58263 0
M  V30 7340 C 683.98 3.62025 2.21671 0
M  V30 7341 C 681.887 5.77349 1.28149 0
M  V30 7342 H 680.817 0.685856 0.313238 0
M  V30 7343 H 683.468 1.83319 0.0814851 0
M  V30 7344 H 681.85 3.21044 2.31834 0
M  V30 7345 H 683.024 4.60457 -0.177729 0
M  V30 7346 H 681.339 4.164 -0.00241228 0
M  V30 7347 H 683.936 4.58776 2.74643 0
M  V30 7348 H 684.279 2.89315 2.99337 0
M  V30 7349 H 684.812 3.68767 1.49184 0
M  V30 7350 H 681.551 6.53221 0.546189 0
M  V30 7351 H 681.071 5.64978 2.01394 0
M  V30 7352 H 682.75 6.21006 1.81549 0
M  V30 7353 N 682.882 -0.391992 1.52647 0
M  V30 7354 C 684.128 -1.13563 1.68745 0
M  V30 7355 C 684.483 -1.87745 0.420685 0
M  V30 7356 O 683.776 -1.82434 -0.585529 0
M  V30 7357 C 683.97 -2.14401 2.85949 0
M  V30 7358 C 683.799 -1.50124 4.23902 0
M  V30 7359 C 682.569 -1.2666 4.89168 0
M  V30 7360 C 684.767 -0.952933 5.05395 0
M  V30 7361 N 682.749 -0.584555 6.11111 0
M  V30 7362 C 684.12 -0.398784 6.18716 0
M  V30 7363 C 686.175 -0.849053 4.90607 0
M  V30 7364 C 684.878 0.249084 7.18869 0
M  V30 7365 C 686.904 -0.215011 5.91009 0
M  V30 7366 C 686.266 0.328382 7.03634 0
M  V30 7367 H 682.365 -0.401628 0.670984 0
M  V30 7368 H 684.949 -0.425585 1.89992 0
M  V30 7369 H 683.12 -2.82746 2.66288 0
M  V30 7370 H 684.852 -2.8125 2.90999 0
M  V30 7371 H 681.607 -1.54078 4.47836 0
M  V30 7372 H 682.031 -0.259663 6.76502 0
M  V30 7373 H 686.673 -1.25497 4.03745 0
M  V30 7374 H 684.391 0.667019 8.05342 0
M  V30 7375 H 687.977 -0.135921 5.81641 0
M  V30 7376 H 686.857 0.811257 7.79992 0
M  V30 7377 N 684.36 -1.4356 -0.65026 0
M  V30 7378 C 685.29 -1.51758 -1.77459 0
M  V30 7379 C 686.271 -0.372019 -1.65982 0
M  V30 7380 O 687.456 -0.589627 -1.85033 0
M  V30 7381 C 684.586 -1.44302 -3.15902 0
M  V30 7382 C 683.54 -2.57138 -3.42146 0
M  V30 7383 C 682.866 -2.34735 -4.8042 0
M  V30 7384 C 684.166 -3.99373 -3.36598 0
M  V30 7385 H 685.86 -2.45863 -1.70855 0
M  V30 7386 H 683.406 -1.18333 -0.820566 0
M  V30 7387 H 685.359 -1.48641 -3.94314 0
M  V30 7388 H 684.083 -0.467026 -3.23244 0
M  V30 7389 H 682.742 -2.52157 -2.66106 0
M  V30 7390 H 682.39 -1.35372 -4.84441 0
M  V30 7391 H 682.09 -3.10375 -4.9894 0
M  V30 7392 H 683.614 -2.40862 -5.61086 0
M  V30 7393 H 685.028 -4.05826 -4.04942 0
M  V30 7394 H 683.425 -4.75063 -3.66654 0
M  V30 7395 H 684.495 -4.243 -2.34729 0
M  V30 7396 N 685.838 0.888903 -1.30139 0
M  V30 7397 C 687.084 1.6428 -1.18912 0
M  V30 7398 C 687.417 1.92499 0.256477 0
M  V30 7399 O 686.692 1.54312 1.18397 0
M  V30 7400 C 686.975 2.9851 -2.01405 0
M  V30 7401 C 686.828 2.77288 -3.54163 0
M  V30 7402 C 688.147 3.99383 -1.84882 0
M  V30 7403 H 685.266 0.596148 -0.433333 0
M  V30 7404 H 687.908 1.0289 -1.5973 0
M  V30 7405 H 686.058 3.50907 -1.66722 0
M  V30 7406 H 687.73 2.31709 -3.98884 0
M  V30 7407 H 685.973 2.11867 -3.78543 0
M  V30 7408 H 686.644 3.72717 -4.07168 0
M  V30 7409 H 689.12 3.56132 -2.15196 0
M  V30 7410 H 687.996 4.91222 -2.44934 0
M  V30 7411 H 688.257 4.34674 -0.806902 0
M  V30 7412 N 687.317 1.12792 1.10072 0
M  V30 7413 C 688.728 0.899346 1.63611 0
M  V30 7414 C 689.079 -0.565547 1.87872 0
M  V30 7415 O 688.204 -1.43081 1.62348 0
M  V30 7416 C 688.799 1.62608 2.97227 0
M  V30 7417 C 687.358 1.44356 3.47618 0
M  V30 7418 C 686.505 1.65958 2.22156 0
M  V30 7419 H 689.456 1.28216 0.935223 0
M  V30 7420 H 689.477 1.0793 3.64872 0
M  V30 7421 H 688.989 2.69221 2.79538 0
M  V30 7422 H 687.09 0.400148 3.70445 0
M  V30 7423 H 687.203 2.20218 4.25489 0
M  V30 7424 H 685.567 1.08395 2.30484 0
M  V30 7425 H 686.35 2.73877 2.06993 0
M  V30 7426 N 688.795 -1.27931 0.920396 0
M  V30 7427 C 690.206 -1.76707 0.602616 0
M  V30 7428 C 690.557 -1.75249 -0.882159 0
M  V30 7429 O 689.682 -1.35135 -1.69019 0
M  V30 7430 C 690.277 -3.20884 1.08714 0
M  V30 7431 C 688.836 -3.67356 0.820157 0
M  V30 7432 C 687.983 -2.47525 1.25006 0
M  V30 7433 H 690.934 -1.14301 1.10095 0
M  V30 7434 H 690.955 -3.78045 0.431535 0
M  V30 7435 H 690.467 -3.21913 2.1678 0
M  V30 7436 H 688.568 -3.7178 -0.247012 0
M  V30 7437 H 688.681 -4.57181 1.43257 0
M  V30 7438 H 687.045 -2.45765 0.668698 0
M  V30 7439 H 687.828 -2.51269 2.3392 0
M  V30 7440 N 690.273 -0.685099 -1.4193 0
M  V30 7441 C 691.206 0.0371639 -2.2817 0
M  V30 7442 C 692.184 0.798436 -1.41647 0
M  V30 7443 O 693.368 0.791428 -1.71081 0
M  V30 7444 C 690.495 1.05993 -3.21688 0
M  V30 7445 C 689.541 0.393043 -4.24685 0
M  V30 7446 S 690.374 -0.856921 -5.28599 0
M  V30 7447 C 691.53 0.164508 -6.25684 0
M  V30 7448 H 691.763 -0.694305 -2.89079 0
M  V30 7449 H 689.296 -0.474999 -1.46912 0
M  V30 7450 H 691.254 1.64489 -3.76103 0
M  V30 7451 H 689.915 1.7639 -2.59895 0
M  V30 7452 H 689.108 1.16513 -4.90348 0
M  V30 7453 H 688.71 -0.118589 -3.73812 0
M  V30 7454 H 691.002 1.02106 -6.69762 0
M  V30 7455 H 691.945 -0.457917 -7.06618 0
M  V30 7456 H 692.353 0.514596 -5.6215 0
M  V30 7457 N 691.751 1.51645 -0.429126 0
M  V30 7458 C 692.976 2.06917 0.141399 0
M  V30 7459 C 693.401 1.29527 1.36398 0
M  V30 7460 O 692.759 0.33094 1.78254 0
M  V30 7461 C 692.807 3.57776 0.4504 0
M  V30 7462 O 691.911 3.82639 1.53821 0
M  V30 7463 H 691.252 0.663978 0.0054647 0
M  V30 7464 H 693.782 1.95355 -0.608093 0
M  V30 7465 H 693.792 4.01894 0.703249 0
M  V30 7466 H 692.467 4.13532 -0.443213 0
M  V30 7467 H 691.044 3.5039 1.27597 0
M  V30 7468 N 693.229 0.160201 1.56784 0
M  V30 7469 C 694.477 -0.486625 1.96154 0
M  V30 7470 C 694.798 -1.64525 1.04673 0
M  V30 7471 O 694.068 -1.95586 0.110864 0
M  V30 7472 H 692.648 -0.182764 0.724297 0
M  V30 7473 H 695.31 0.238787 1.93432 0
M  V30 7474 H 694.406 -0.854025 3.00188 0
M  V30 7475 N 694.707 -1.5719 -0.113559 0
M  V30 7476 C 695.932 -1.89702 -0.838336 0
M  V30 7477 C 696.357 -0.752679 -1.72384 0
M  V30 7478 O 695.715 0.296575 -1.78858 0
M  V30 7479 C 695.763 -3.20989 -1.64312 0
M  V30 7480 O 694.867 -3.07278 -2.75053 0
M  V30 7481 H 694.208 -0.622339 -0.231496 0
M  V30 7482 H 696.738 -2.04382 -0.0943228 0
M  V30 7483 H 696.748 -3.53843 -2.03123 0
M  V30 7484 H 695.423 -4.03869 -0.993119 0
M  V30 7485 H 694 -2.85901 -2.39406 0
M  V30 7486 N 696.185 0.383891 -1.52853 0
M  V30 7487 C 697.434 1.12563 -1.67369 0
M  V30 7488 C 697.747 1.90982 -0.422533 0
M  V30 7489 O 698.953 2.6778 -0.447914 0
M  V30 7490 C 697.409 2.05011 -2.95801 0
M  V30 7491 C 697.017 1.31991 -4.28115 0
M  V30 7492 C 698.761 2.79289 -3.19684 0
M  V30 7493 C 696.668 2.23235 -5.4765 0
M  V30 7494 H 695.598 0.42391 -0.623552 0
M  V30 7495 H 698.249 0.388016 -1.79351 0
M  V30 7496 H 696.631 2.82429 -2.77578 0
M  V30 7497 H 697.805 0.597633 -4.56908 0
M  V30 7498 H 696.12 0.696517 -4.10533 0
M  V30 7499 H 698.717 3.47749 -4.06171 0
M  V30 7500 H 699.06 3.43649 -2.3497 0
M  V30 7501 H 699.593 2.08962 -3.38496 0
M  V30 7502 H 696.332 1.63482 -6.34786 0
M  V30 7503 H 695.852 2.93364 -5.23161 0
M  V30 7504 H 697.531 2.83205 -5.81725 0
M  V30 7505 N 697.663 1.43903 0.642637 0
M  V30 7506 C 698.891 1.4954 1.42988 0
M  V30 7507 C 699.306 0.116588 1.8844 0
M  V30 7508 O 698.663 -0.875285 1.60141 0
M  V30 7509 C 698.714 2.45031 2.65785 0
M  V30 7510 O 698.435 3.77551 2.22232 0
M  V30 7511 C 699.936 2.60017 3.59035 0
M  V30 7512 H 697.156 0.507544 0.438907 0
M  V30 7513 H 699.7 1.88752 0.786942 0
M  V30 7514 H 697.855 2.08985 3.26196 0
M  V30 7515 H 698.269 4.29001 3.01759 0
M  V30 7516 H 699.743 3.30887 4.41835 0
M  V30 7517 H 700.22 1.64861 4.07084 0
M  V30 7518 H 700.826 2.96918 3.045 0
M  V30 7519 N 699.141 -0.881989 1.30609 0
M  V30 7520 C 700.552 -1.44956 1.17664 0
M  V30 7521 C 700.903 -1.94945 -0.221531 0
M  V30 7522 O 700.028 -1.85257 -1.11844 0
M  V30 7523 C 700.623 -2.63474 2.12995 0
M  V30 7524 C 699.182 -3.16312 2.04019 0
M  V30 7525 C 698.329 -1.89008 2.02907 0
M  V30 7526 H 701.28 -0.691645 1.42835 0
M  V30 7527 H 701.301 -3.39783 1.71253 0
M  V30 7528 H 700.813 -2.2706 3.14746 0
M  V30 7529 H 698.914 -3.57376 1.0542 0
M  V30 7530 H 699.027 -3.79409 2.9255 0
M  V30 7531 H 697.391 -2.07465 1.47751 0
M  V30 7532 H 698.174 -1.54848 3.06394 0
M  V30 7533 N 700.619 -1.13374 -1.09472 0
M  V30 7534 C 701.865 -0.896516 -1.81908 0
M  V30 7535 C 702.198 0.575933 -1.85463 0
M  V30 7536 O 701.473 1.42618 -1.32251 0
M  V30 7537 C 701.756 -1.48445 -3.28079 0
M  V30 7538 C 701.609 -3.02598 -3.32798 0
M  V30 7539 C 702.928 -1.15226 -4.24748 0
M  V30 7540 H 700.047 -0.327127 -0.660422 0
M  V30 7541 H 702.689 -1.40195 -1.2824 0
M  V30 7542 H 700.839 -1.0546 -3.73912 0
M  V30 7543 H 702.511 -3.54335 -2.95372 0
M  V30 7544 H 700.754 -3.37613 -2.72397 0
M  V30 7545 H 701.425 -3.38835 -4.3577 0
M  V30 7546 H 703.901 -1.52369 -3.87199 0
M  V30 7547 H 702.777 -1.59012 -5.25363 0
M  V30 7548 H 703.038 -0.0658891 -4.42051 0
M  V30 7549 N 702.098 1.27442 -0.927168 0
M  V30 7550 C 703.345 1.94391 -0.567324 0
M  V30 7551 C 703.673 1.72875 0.891321 0
M  V30 7552 O 702.928 1.05071 1.65102 0
M  V30 7553 C 703.227 3.47413 -0.838994 0
M  V30 7554 C 702.893 3.89049 -2.2793 0
M  V30 7555 C 701.555 4.00127 -2.67305 0
M  V30 7556 C 703.907 4.10154 -3.21595 0
M  V30 7557 C 701.235 4.29697 -3.99471 0
M  V30 7558 C 703.587 4.41208 -4.53341 0
M  V30 7559 C 702.251 4.50499 -4.92551 0
M  V30 7560 H 701.521 0.711325 -0.207598 0
M  V30 7561 H 704.168 1.51523 -1.17103 0
M  V30 7562 H 702.473 3.91503 -0.152609 0
M  V30 7563 H 704.17 3.97354 -0.53955 0
M  V30 7564 H 700.76 3.80962 -1.96381 0
M  V30 7565 H 704.944 4.01036 -2.92377 0
M  V30 7566 H 700.2 4.35099 -4.29533 0
M  V30 7567 H 704.374 4.56486 -5.25922 0
M  V30 7568 H 702.001 4.73167 -5.94994 0
M  V30 7569 N 703.576 0.692616 1.41565 0
M  V30 7570 C 704.526 0.00231847 2.28 0
M  V30 7571 C 705.51 -0.755793 1.42044 0
M  V30 7572 O 706.702 -0.631772 1.65341 0
M  V30 7573 C 703.831 -0.935468 3.30309 0
M  V30 7574 C 702.917 -0.173761 4.23744 0
M  V30 7575 N 703.308 0.830872 4.98929 0
M  V30 7576 C 701.606 -0.409666 4.44115 0
M  V30 7577 C 702.307 1.28656 5.67294 0
M  V30 7578 N 701.283 0.613053 5.40132 0
M  V30 7579 H 705.085 0.772635 2.83562 0
M  V30 7580 H 702.599 0.523198 1.53741 0
M  V30 7581 H 704.596 -1.44513 3.91052 0
M  V30 7582 H 703.256 -1.70542 2.76307 0
M  V30 7583 H 704.267 1.21101 5.03542 0
M  V30 7584 H 700.944 -1.15773 4.01127 0
M  V30 7585 H 702.334 2.12006 6.37576 0
M  V30 7586 N 705.054 -1.51416 0.437162 0
M  V30 7587 C 705.986 -2.255 -0.410171 0
M  V30 7588 C 706.999 -1.29511 -0.986444 0
M  V30 7589 O 708.188 -1.55266 -0.880614 0
M  V30 7590 C 705.288 -2.99511 -1.58575 0
M  V30 7591 C 704.461 -4.22595 -1.12839 0
M  V30 7592 C 703.52 -4.79187 -2.17407 0
M  V30 7593 O 702.546 -5.4103 -1.76849 0
M  V30 7594 N 703.748 -4.63204 -3.49889 0
M  V30 7595 H 706.513 -2.98856 0.224783 0
M  V30 7596 H 704.074 -1.59699 0.266041 0
M  V30 7597 H 706.066 -3.34258 -2.28152 0
M  V30 7598 H 704.636 -2.29167 -2.12606 0
M  V30 7599 H 703.856 -3.93344 -0.259695 0
M  V30 7600 H 705.144 -5.02468 -0.800196 0
M  V30 7601 H 704.542 -4.13945 -3.85573 0
M  V30 7602 H 703.099 -5.02313 -4.15361 0
M  V30 7603 N 706.532 -0.168513 -1.56696 0
M  V30 7604 C 707.442 0.775435 -2.21414 0
M  V30 7605 C 708.458 1.25529 -1.20492 0
M  V30 7606 O 709.634 1.30801 -1.53144 0
M  V30 7607 C 706.699 1.9886 -2.83999 0
M  V30 7608 C 705.76 1.5559 -4.00113 0
M  V30 7609 C 704.993 2.71124 -4.59704 0
M  V30 7610 O 705.216 3.87917 -4.18182 0
M  V30 7611 O 704.15 2.4536 -5.4962 0
M  V30 7612 H 707.976 0.254416 -3.02632 0
M  V30 7613 H 705.561 0.0595507 -1.49281 0
M  V30 7614 H 707.443 2.69816 -3.23693 0
M  V30 7615 H 706.118 2.49874 -2.05779 0
M  V30 7616 H 705.025 0.815924 -3.65094 0
M  V30 7617 H 706.358 1.09271 -4.79917 0
M  V30 7618 N 708.01 1.57248 0.105221 0
M  V30 7619 C 708.943 1.96567 1.15916 0
M  V30 7620 C 709.921 0.837355 1.39381 0
M  V30 7621 O 711.105 1.09676 1.53308 0
M  V30 7622 C 708.232 2.27375 2.51035 0
M  V30 7623 C 707.278 3.49869 2.43913 0
M  V30 7624 S 708.111 5.01958 1.86543 0
M  V30 7625 C 709.267 5.35932 3.23307 0
M  V30 7626 H 709.5 2.85655 0.823931 0
M  V30 7627 H 707.033 1.51204 0.312515 0
M  V30 7628 H 708.991 2.45801 3.28774 0
M  V30 7629 H 707.652 1.38876 2.81731 0
M  V30 7630 H 706.845 3.68835 3.43477 0
M  V30 7631 H 706.447 3.30901 1.743 0
M  V30 7632 H 708.739 5.31958 4.19556 0
M  V30 7633 H 709.682 6.37047 3.09155 0
M  V30 7634 H 710.09 4.63397 3.22372 0
M  V30 7635 N 709.488 -0.375779 1.53054 0
M  V30 7636 C 710.418 -1.46598 1.81745 0
M  V30 7637 C 711.399 -1.56337 0.670286 0
M  V30 7638 O 712.584 -1.71071 0.919158 0
M  V30 7639 C 709.714 -2.84058 1.99821 0
M  V30 7640 C 708.668 -2.8915 3.15557 0
M  V30 7641 C 707.994 -4.29187 3.18908 0
M  V30 7642 C 709.294 -2.57595 4.54359 0
M  V30 7643 H 710.988 -1.22837 2.73041 0
M  V30 7644 H 708.534 -0.589485 1.31381 0
M  V30 7645 H 710.487 -3.60342 2.18475 0
M  V30 7646 H 709.211 -3.09184 1.05226 0
M  V30 7647 H 707.87 -2.15316 2.96706 0
M  V30 7648 H 707.518 -4.51374 2.2197 0
M  V30 7649 H 707.218 -4.33512 3.96662 0
M  V30 7650 H 708.742 -5.07359 3.39734 0
M  V30 7651 H 710.156 -3.23595 4.73243 0
M  V30 7652 H 708.553 -2.73252 5.34279 0
M  V30 7653 H 709.623 -1.52882 4.60169 0
M  V30 7654 N 710.966 -1.44241 -0.634997 0
M  V30 7655 C 711.914 -1.51103 -1.76835 0
M  V30 7656 C 712.908 -0.383051 -1.65012 0
M  V30 7657 O 714.114 -0.557832 -1.71138 0
M  V30 7658 H 710.489 -0.474076 -0.583743 0
M  V30 7659 H 712.46 -2.46499 -1.68169 0
M  V30 7660 C 711.209 -1.4687 -3.15158 0
M  V30 7661 H 710.532 -2.32979 -3.24901 0
M  V30 7662 H 711.972 -1.55731 -3.94365 0
M  V30 7663 C 710.431 -0.188884 -3.3637 0
M  V30 7664 O 710.961 0.742487 -3.94778 0
M  V30 7665 N 709.167 -0.0932516 -2.9045 0
M  V30 7666 H 708.714 -0.852004 -2.43102 0
M  V30 7667 H 708.672 0.762308 -3.05018 0
M  V30 7668 N 712.444 0.87505 -1.31075 0
M  V30 7669 C 713.674 1.65818 -1.2324 0
M  V30 7670 C 714.082 1.8808 0.205536 0
M  V30 7671 O 713.425 1.43548 1.14628 0
M  V30 7672 C 713.487 3.05131 -1.90093 0
M  V30 7673 C 713.151 3.05999 -3.39432 0
M  V30 7674 C 714.148 2.84328 -4.35263 0
M  V30 7675 C 711.833 3.27281 -3.81041 0
M  V30 7676 C 713.827 2.83912 -5.70678 0
M  V30 7677 C 711.514 3.26493 -5.16571 0
M  V30 7678 C 712.512 3.04834 -6.112 0
M  V30 7679 O 712.2 3.03882 -7.44252 0
M  V30 7680 H 711.932 0.52387 -0.427242 0
M  V30 7681 H 714.486 1.10086 -1.73408 0
M  V30 7682 H 712.716 3.62568 -1.34468 0
M  V30 7683 H 714.405 3.65641 -1.76242 0
M  V30 7684 H 715.171 2.67673 -4.04445 0
M  V30 7685 H 711.05 3.43171 -3.07822 0
M  V30 7686 H 714.594 2.66925 -6.44513 0
M  V30 7687 H 710.491 3.42687 -5.47025 0
M  V30 7688 H 711.259 3.19979 -7.53363 0
M  V30 7689 N 713.922 1.13953 1.08869 0
M  V30 7690 C 715.168 0.906151 1.8143 0
M  V30 7691 C 715.501 -0.566089 1.85766 0
M  V30 7692 O 714.776 -1.41915 1.33006 0
M  V30 7693 C 715.059 1.50183 3.27287 0
M  V30 7694 C 714.912 3.04359 3.31189 0
M  V30 7695 C 716.231 1.17477 4.24131 0
M  V30 7696 H 713.35 0.330624 0.658678 0
M  V30 7697 H 715.992 1.40873 1.27495 0
M  V30 7698 H 714.142 1.07442 3.73348 0
M  V30 7699 H 715.814 3.55896 2.93488 0
M  V30 7700 H 714.057 3.39053 2.70602 0
M  V30 7701 H 714.728 3.41141 4.33966 0
M  V30 7702 H 717.204 1.5442 3.86385 0
M  V30 7703 H 716.08 1.61795 5.24513 0
M  V30 7704 H 716.341 0.0893312 4.4201 0
M  V30 7705 N 715.4 -1.26948 0.933913 0
M  V30 7706 C 716.33 -2.29017 0.45534 0
M  V30 7707 C 717.311 -1.62961 -0.487605 0
M  V30 7708 O 718.496 -1.90223 -0.391022 0
M  V30 7709 C 715.626 -3.46112 -0.287015 0
M  V30 7710 C 714.58 -4.24205 0.568682 0
M  V30 7711 C 713.906 -5.3384 -0.303206 0
M  V30 7712 C 715.206 -4.88954 1.83633 0
M  V30 7713 H 716.9 -2.69298 1.30839 0
M  V30 7714 H 714.446 -1.29459 0.630579 0
M  V30 7715 H 716.399 -4.16622 -0.6328 0
M  V30 7716 H 715.123 -3.04765 -1.17414 0
M  V30 7717 H 713.782 -3.5545 0.897261 0
M  V30 7718 H 713.43 -4.88734 -1.18947 0
M  V30 7719 H 713.13 -5.86998 0.265879 0
M  V30 7720 H 714.654 -6.0719 -0.644423 0
M  V30 7721 H 716.068 -5.51717 1.55823 0
M  V30 7722 H 714.465 -5.52198 2.34941 0
M  V30 7723 H 715.535 -4.12305 2.55211 0
M  V30 7724 N 716.879 -0.700114 -1.41195 0
M  V30 7725 C 718.104 -0.240704 -2.05998 0
M  V30 7726 C 718.529 1.10313 -1.52357 0
M  V30 7727 O 717.887 1.69154 -0.652424 0
M  V30 7728 C 717.935 -0.213783 -3.59966 0
M  V30 7729 O 717.039 0.809933 -4.04368 0
M  V30 7730 H 716.38 -0.116471 -0.653705 0
M  V30 7731 H 718.91 -0.956251 -1.80878 0
M  V30 7732 H 718.92 -0.0461852 -4.07974 0
M  V30 7733 H 717.595 -1.19454 -3.98376 0
M  V30 7734 H 716.172 0.611319 -3.67855 0
M  V30 7735 N 718.357 1.51182 -0.445186 0
M  V30 7736 C 719.768 1.86693 0.0160999 0
M  V30 7737 C 720.119 1.36183 1.4124 0
M  V30 7738 O 719.244 0.715895 2.04215 0
M  V30 7739 C 719.839 3.38781 0.0359918 0
M  V30 7740 C 718.398 3.73799 0.441715 0
M  V30 7741 C 717.545 2.74947 -0.360511 0
M  V30 7742 H 720.496 1.44294 -0.660674 0
M  V30 7743 H 720.517 3.71026 0.843813 0
M  V30 7744 H 720.029 3.75513 -0.980378 0
M  V30 7745 H 718.13 3.42659 1.4634 0
M  V30 7746 H 718.243 4.78829 0.16106 0
M  V30 7747 H 716.607 2.54047 0.182269 0
M  V30 7748 H 717.39 3.14521 -1.3759 0
M  V30 7749 N 719.835 0.176821 1.56605 0
M  V30 7750 C 721.082 -0.466715 1.97048 0
M  V30 7751 C 721.41 -1.6288 1.06302 0
M  V30 7752 O 720.665 -1.95453 0.0982571 0
M  V30 7753 C 720.964 -0.986208 3.43524 0
M  V30 7754 C 720.63 0.0605667 4.50859 0
M  V30 7755 C 719.292 0.348242 4.79938 0
M  V30 7756 C 721.644 0.770794 5.15469 0
M  V30 7757 C 718.972 1.35144 5.70923 0
M  V30 7758 C 721.324 1.76301 6.07537 0
M  V30 7759 C 719.988 2.05808 6.3498 0
M  V30 7760 H 719.258 -0.170783 0.721051 0
M  V30 7761 H 721.905 0.269942 1.89588 0
M  V30 7762 H 720.21 -1.80079 3.47964 0
M  V30 7763 H 721.907 -1.49323 3.72161 0
M  V30 7764 H 718.497 -0.173823 4.28247 0
M  V30 7765 H 722.681 0.56176 4.9311 0
M  V30 7766 H 717.937 1.58616 5.90467 0
M  V30 7767 H 722.111 2.31868 6.56666 0
M  V30 7768 H 719.738 2.8369 7.05283 0
M  V30 7769 N 721.313 -1.57302 -0.09688 0
M  V30 7770 C 722.543 -1.89926 -0.813114 0
M  V30 7771 C 722.951 -0.76852 -1.72888 0
M  V30 7772 O 722.294 0.268549 -1.81726 0
M  V30 7773 C 722.356 -3.17787 -1.68082 0
M  V30 7774 C 722.02 -4.4729 -0.937061 0
M  V30 7775 C 723.017 -5.1921 -0.267687 0
M  V30 7776 C 720.702 -4.93957 -0.911671 0
M  V30 7777 C 722.696 -6.36034 0.417129 0
M  V30 7778 C 720.383 -6.10693 -0.223068 0
M  V30 7779 C 721.381 -6.8158 0.440155 0
M  V30 7780 O 721.069 -7.96092 1.11772 0
M  V30 7781 H 720.801 -0.632783 -0.237828 0
M  V30 7782 H 723.355 -2.05248 -0.0790818 0
M  V30 7783 H 721.585 -2.98607 -2.45705 0
M  V30 7784 H 723.274 -3.36257 -2.27346 0
M  V30 7785 H 724.04 -4.84198 -0.278774 0
M  V30 7786 H 719.919 -4.38671 -1.41734 0
M  V30 7787 H 723.463 -6.91301 0.93537 0
M  V30 7788 H 719.36 -6.45159 -0.209821 0
M  V30 7789 H 720.128 -8.12064 1.02443 0
M  V30 7790 N 722.791 0.367657 -1.53252 0
M  V30 7791 C 724.021 1.12955 -1.72988 0
M  V30 7792 C 724.429 1.8358 -0.457708 0
M  V30 7793 O 723.772 1.74336 0.579006 0
M  V30 7794 C 723.834 2.20545 -2.83902 0
M  V30 7795 C 723.498 1.69704 -4.24323 0
M  V30 7796 C 724.495 1.16223 -5.06743 0
M  V30 7797 C 722.18 1.7528 -4.70725 0
M  V30 7798 C 724.174 0.689935 -6.33655 0
M  V30 7799 C 721.861 1.27662 -5.97617 0
M  V30 7800 C 722.859 0.746083 -6.78913 0
M  V30 7801 O 722.547 0.276925 -8.03423 0
M  V30 7802 H 722.279 0.343753 -0.582074 0
M  V30 7803 H 724.833 0.433106 -2.00782 0
M  V30 7804 H 723.063 2.93676 -2.51577 0
M  V30 7805 H 724.752 2.82111 -2.91836 0
M  V30 7806 H 725.518 1.11256 -4.72067 0
M  V30 7807 H 721.397 2.15515 -4.07522 0
M  V30 7808 H 724.941 0.275164 -6.97057 0
M  V30 7809 H 720.838 1.32322 -6.31792 0
M  V30 7810 H 721.606 0.396445 -8.17539 0
M  V30 7811 N 724.269 1.44576 0.627338 0
M  V30 7812 C 725.499 1.50829 1.41189 0
M  V30 7813 C 725.907 0.133083 1.88731 0
M  V30 7814 O 725.25 -0.87199 1.61685 0
M  V30 7815 C 725.312 2.41449 2.66351 0
M  V30 7816 C 724.976 3.88549 2.40579 0
M  V30 7817 C 725.973 4.78981 2.0217 0
M  V30 7818 C 723.658 4.33287 2.54102 0
M  V30 7819 C 725.652 6.12153 1.77618 0
M  V30 7820 C 723.339 5.66505 2.29163 0
M  V30 7821 C 724.337 6.55756 1.9098 0
M  V30 7822 O 724.025 7.86506 1.66321 0
M  V30 7823 H 723.757 0.513797 0.439304 0
M  V30 7824 H 726.311 1.90256 0.774059 0
M  V30 7825 H 724.541 1.96955 3.32784 0
M  V30 7826 H 726.23 2.38608 3.28361 0
M  V30 7827 H 726.996 4.45689 1.91277 0
M  V30 7828 H 722.875 3.64074 2.82792 0
M  V30 7829 H 726.419 6.81776 1.47739 0
M  V30 7830 H 722.316 5.99358 2.39668 0
M  V30 7831 H 723.084 7.98341 1.80536 0
M  V30 7832 N 725.747 -0.868086 1.31537 0
M  V30 7833 C 726.679 -1.98165 1.15166 0
M  V30 7834 C 727.692 -1.6255 0.0902335 0
M  V30 7835 O 728.881 -1.75272 0.33791 0
M  V30 7836 C 725.981 -3.30772 0.737776 0
M  V30 7837 C 725.154 -3.94716 1.88462 0
M  V30 7838 C 724.213 -5.05641 1.45648 0
M  V30 7839 O 723.239 -5.2636 2.16642 0
M  V30 7840 N 724.441 -5.79474 0.34493 0
M  V30 7841 H 727.206 -2.12754 2.11083 0
M  V30 7842 H 724.767 -1.04217 1.23897 0
M  V30 7843 H 726.759 -4.02366 0.434032 0
M  V30 7844 H 725.329 -3.1233 -0.129834 0
M  V30 7845 H 724.549 -3.16079 2.35558 0
M  V30 7846 H 725.837 -4.34175 2.65273 0
M  V30 7847 H 725.235 -5.65164 -0.246259 0
M  V30 7848 H 723.792 -6.51722 0.100728 0
M  V30 7849 N 727.225 -1.14528 -1.08264 0
M  V30 7850 C 728.471 -0.91576 -1.80947 0
M  V30 7851 C 728.804 0.55623 -1.86064 0
M  V30 7852 O 728.079 1.41207 -1.33756 0
M  V30 7853 C 728.362 -1.51917 -3.26486 0
M  V30 7854 C 728.215 -3.06111 -3.2957 0
M  V30 7855 C 729.534 -1.19724 -4.23502 0
M  V30 7856 H 726.653 -0.334113 -0.656915 0
M  V30 7857 H 729.295 -1.41547 -1.26746 0
M  V30 7858 H 727.445 -1.0942 -3.72773 0
M  V30 7859 H 729.117 -3.57448 -2.91597 0
M  V30 7860 H 727.36 -3.40483 -2.688 0
M  V30 7861 H 728.031 -3.43438 -4.32151 0
M  V30 7862 H 730.507 -1.56467 -3.85561 0
M  V30 7863 H 729.383 -1.64575 -5.23647 0
M  V30 7864 H 729.644 -0.112771 -4.41956 0
M  V30 7865 N 728.703 1.26451 -0.940633 0
M  V30 7866 C 729.613 2.30128 -0.455881 0
M  V30 7867 C 730.629 1.67536 0.469867 0
M  V30 7868 O 731.805 1.98344 0.349529 0
M  V30 7869 C 728.87 3.45634 0.271648 0
M  V30 7870 C 727.931 4.23709 -0.690594 0
M  V30 7871 C 727.164 5.337 0.00231047 0
M  V30 7872 O 727.387 5.57215 1.21935 0
M  V30 7873 O 726.321 5.98091 -0.676111 0
M  V30 7874 H 730.147 2.73655 -1.31707 0
M  V30 7875 H 727.732 1.3164 -0.706497 0
M  V30 7876 H 729.614 4.15853 0.681486 0
M  V30 7877 H 728.289 3.04138 1.10824 0
M  V30 7878 H 727.196 3.55974 -1.15037 0
M  V30 7879 H 728.529 4.68953 -1.49478 0
M  V30 7880 N 730.181 0.707592 1.40822 0
M  V30 7881 C 731.144 0.0587224 2.29125 0
M  V30 7882 C 732.144 -0.695624 1.44975 0
M  V30 7883 O 733.334 -0.528718 1.65983 0
M  V30 7884 C 730.466 -0.926939 3.28056 0
M  V30 7885 H 731.659 0.836349 2.88002 0
M  V30 7886 H 729.212 0.471778 1.4901 0
M  V30 7887 H 729.947 -1.7319 2.74182 0
M  V30 7888 H 729.732 -0.389015 3.90165 0
M  V30 7889 H 731.222 -1.37837 3.94196 0
M  V30 7890 N 731.66 -1.50943 0.453197 0
M  V30 7891 C 732.906 -2.03153 -0.100277 0
M  V30 7892 C 733.261 -1.33032 -1.38997 0
M  V30 7893 O 732.554 -0.441423 -1.86446 0
M  V30 7894 C 732.748 -3.55603 -0.357944 0
M  V30 7895 C 732.577 -4.40495 0.905223 0
M  V30 7896 C 731.347 -4.84247 1.44337 0
M  V30 7897 C 733.545 -4.81931 1.79575 0
M  V30 7898 N 731.527 -5.53403 2.65742 0
M  V30 7899 C 732.898 -5.50314 2.85577 0
M  V30 7900 C 734.953 -4.63903 1.80828 0
M  V30 7901 C 733.656 -6.02581 3.92797 0
M  V30 7902 C 735.682 -5.17097 2.86993 0
M  V30 7903 C 735.044 -5.8544 3.91713 0
M  V30 7904 H 731.143 -0.781995 0.00287755 0
M  V30 7905 H 733.727 -1.84651 0.617411 0
M  V30 7906 H 731.898 -3.74087 -1.04467 0
M  V30 7907 H 733.63 -3.9447 -0.904175 0
M  V30 7908 H 730.385 -4.63029 0.995045 0
M  V30 7909 H 730.809 -5.92598 3.27348 0
M  V30 7910 H 735.451 -4.10512 1.0119 0
M  V30 7911 H 733.169 -6.55018 4.73262 0
M  V30 7912 H 736.755 -5.0499 2.88923 0
M  V30 7913 H 735.635 -6.25861 4.72512 0
M  V30 7914 N 733.138 -0.185124 -1.56509 0
M  V30 7915 C 734.085 0.739729 -2.18624 0
M  V30 7916 C 735.055 1.217 -1.13042 0
M  V30 7917 O 736.24 1.28268 -1.41251 0
M  V30 7918 C 733.38 1.95787 -2.84186 0
M  V30 7919 C 732.493 1.52289 -4.04267 0
M  V30 7920 C 731.628 2.69576 -4.57714 0
M  V30 7921 C 730.667 2.22636 -5.70175 0
M  V30 7922 N 729.804 3.33065 -6.18071 0
M  V30 7923 H 734.644 0.203269 -2.97306 0
M  V30 7924 H 732.181 0.0885946 -1.46833 0
M  V30 7925 H 734.139 2.67253 -3.20361 0
M  V30 7926 H 732.769 2.4678 -2.08085 0
M  V30 7927 H 731.821 0.704458 -3.7382 0
M  V30 7928 H 733.133 1.13843 -4.85635 0
M  V30 7929 H 732.287 3.4918 -4.96143 0
M  V30 7930 H 731.026 3.1129 -3.75433 0
M  V30 7931 H 730.031 1.41483 -5.31284 0
M  V30 7932 H 731.256 1.81964 -6.54267 0
M  V30 7933 H 729.202 3.74328 -5.38715 0
M  V30 7934 H 729.119 2.98756 -6.94464 0
M  V30 7935 H 730.387 4.12912 -6.61153 0
M  V30 7936 N 734.616 1.57351 0.0885366 0
M  V30 7937 C 735.844 1.90631 0.804196 0
M  V30 7938 C 736.259 0.779474 1.71958 0
M  V30 7939 O 735.616 -0.248179 1.80805 0
M  V30 7940 C 735.667 3.23568 1.61202 0
M  V30 7941 O 735.388 4.31917 0.733447 0
M  V30 7942 C 736.889 3.70753 2.43016 0
M  V30 7943 H 734.109 0.630501 0.229585 0
M  V30 7944 H 736.653 2.044 0.0638092 0
M  V30 7945 H 734.808 3.11377 2.30485 0
M  V30 7946 H 735.222 5.08297 1.29361 0
M  V30 7947 H 736.696 4.66447 2.9518 0
M  V30 7948 H 737.173 2.98922 3.2178 0
M  V30 7949 H 737.779 3.85834 1.7892 0
M  V30 7950 N 736.094 -0.359525 1.53444 0
M  V30 7951 C 737.044 -1.441 1.7669 0
M  V30 7952 C 738.028 -1.48408 0.621599 0
M  V30 7953 O 739.22 -1.53547 0.880468 0
M  V30 7954 C 736.349 -2.81455 1.96566 0
M  V30 7955 C 735.435 -2.81601 3.17115 0
M  V30 7956 N 735.826 -2.51388 4.38905 0
M  V30 7957 C 734.124 -3.12758 3.1796 0
M  V30 7958 C 734.825 -2.59365 5.20677 0
M  V30 7959 N 733.801 -2.94328 4.57025 0
M  V30 7960 H 737.603 -1.19613 2.68458 0
M  V30 7961 H 735.117 -0.567761 1.52152 0
M  V30 7962 H 737.114 -3.59357 2.11348 0
M  V30 7963 H 735.774 -3.06901 1.06029 0
M  V30 7964 H 736.785 -2.24873 4.66533 0
M  V30 7965 H 733.462 -3.43479 2.37336 0
M  V30 7966 H 734.852 -2.39301 6.27841 0
M  V30 7967 N 737.572 -1.44907 -0.619662 0
M  V30 7968 C 738.818 -1.48512 -1.38102 0
M  V30 7969 C 739.151 -0.121686 -1.93818 0
M  V30 7970 O 738.426 0.862256 -1.74343 0
M  V30 7971 C 738.709 -2.55469 -2.53787 0
M  V30 7972 C 738.562 -4.01212 -2.03345 0
M  V30 7973 C 739.881 -2.58821 -3.55949 0
M  V30 7974 H 737 -0.540712 -0.500799 0
M  V30 7975 H 739.642 -1.7665 -0.69962 0
M  V30 7976 H 737.792 -2.31606 -3.11915 0
M  V30 7977 H 739.464 -4.36245 -1.49959 0
M  V30 7978 H 737.707 -4.12443 -1.34438 0
M  V30 7979 H 738.378 -4.71717 -2.86683 0
M  V30 7980 H 740.854 -2.80172 -3.07641 0
M  V30 7981 H 739.73 -3.35542 -4.34399 0
M  V30 7982 H 739.991 -1.63451 -4.10775 0
M  V30 7983 N 739.05 0.861098 -1.31996 0
M  V30 7984 C 740.296 1.61707 -1.23379 0
M  V30 7985 C 740.651 1.91315 0.204026 0
M  V30 7986 O 739.944 1.53997 1.13998 0
M  V30 7987 C 740.138 2.94822 -2.02027 0
M  V30 7988 C 739.967 2.78212 -3.5331 0
M  V30 7989 C 738.737 2.76933 -4.22654 0
M  V30 7990 C 740.935 2.52432 -4.48088 0
M  V30 7991 N 738.917 2.51466 -5.60034 0
M  V30 7992 C 740.288 2.36312 -5.73198 0
M  V30 7993 C 742.343 2.37848 -4.37416 0
M  V30 7994 C 741.046 2.0709 -6.88844 0
M  V30 7995 C 743.072 2.10016 -5.52854 0
M  V30 7996 C 742.434 1.94691 -6.7696 0
M  V30 7997 H 738.533 0.595703 -0.506618 0
M  V30 7998 H 741.117 1.01275 -1.66287 0
M  V30 7999 H 739.288 3.53243 -1.61474 0
M  V30 8000 H 741.02 3.59756 -1.85358 0
M  V30 8001 H 737.775 2.89638 -3.74709 0
M  V30 8002 H 738.199 2.41679 -6.32392 0
M  V30 8003 H 742.841 2.4842 -3.42122 0
M  V30 8004 H 740.559 1.95256 -7.84156 0
M  V30 8005 H 744.145 1.99519 -5.46519 0
M  V30 8006 H 743.025 1.7346 -7.64775 0
M  V30 8007 N 740.528 1.15101 1.07655 0
M  V30 8008 C 741.46 0.802722 2.14684 0
M  V30 8009 C 742.473 -0.183874 1.61758 0
M  V30 8010 O 743.662 0.0389349 1.78458 0
M  V30 8011 C 740.762 0.172135 3.38463 0
M  V30 8012 C 739.935 1.19538 4.20749 0
M  V30 8013 C 738.994 0.58714 5.22914 0
M  V30 8014 O 738.02 1.25224 5.55255 0
M  V30 8015 N 739.222 -0.632566 5.77043 0
M  V30 8016 H 741.987 1.72379 2.45164 0
M  V30 8017 H 739.548 1.04647 1.23534 0
M  V30 8018 H 741.54 -0.247465 4.03943 0
M  V30 8019 H 740.11 -0.652214 3.0572 0
M  V30 8020 H 739.33 1.79165 3.51132 0
M  V30 8021 H 740.618 1.88636 4.7254 0
M  V30 8022 H 740.016 -1.19135 5.53013 0
M  V30 8023 H 738.573 -0.994566 6.44167 0
M  V30 8024 N 742.006 -1.2595 0.947325 0
M  V30 8025 C 743.283 -1.88676 0.515824 0
M  V30 8026 C 743.663 -1.85547 -1.00675 0
M  V30 8027 O 743.011 -1.31399 -1.8694 0
M  V30 8028 C 743.221 -3.31734 1.08415 0
M  V30 8029 C 744.569 -4.08545 1.15654 0
M  V30 8030 O 745.593 -3.40826 1.03517 0
M  V30 8031 O 744.452 -5.29663 1.34608 0
M  V30 8032 H 741.546 -0.809537 0.169055 0
M  V30 8033 H 744.092 -1.34075 1.04029 0
M  V30 8034 H 742.864 -3.28404 2.1276 0
M  V30 8035 H 742.487 -3.93882 0.542499 0
M  V30 8036 N 743.484 -0.715051 -1.40445 0
M  V30 8037 C 744.394 -0.0631624 -2.34515 0
M  V30 8038 C 745.41 0.744397 -1.57273 0
M  V30 8039 O 746.586 0.677475 -1.89663 0
M  V30 8040 C 743.651 0.847915 -3.36172 0
M  V30 8041 C 742.712 0.0303655 -4.29289 0
M  V30 8042 C 741.945 0.898051 -5.2609 0
M  V30 8043 O 742.168 2.13729 -5.28844 0
M  V30 8044 O 741.102 0.337328 -6.00954 0
M  V30 8045 H 744.928 -0.839078 -2.91879 0
M  V30 8046 H 742.513 -0.475527 -1.4163 0
M  V30 8047 H 744.395 1.3698 -3.98515 0
M  V30 8048 H 743.07 1.60299 -2.81222 0
M  V30 8049 H 741.977 -0.536573 -3.70232 0
M  V30 8050 H 743.31 -0.686474 -4.87389 0
M  V30 8051 N 744.962 1.50701 -0.461195 0
M  V30 8052 C 745.909 2.2831 0.338094 0
M  V30 8053 C 746.879 1.32928 0.995957 0
M  V30 8054 O 748.064 1.61857 1.0103 0
M  V30 8055 C 745.204 3.14539 1.41983 0
M  V30 8056 C 744.317 4.24942 0.77773 0
M  V30 8057 C 743.452 4.98443 1.83652 0
M  V30 8058 C 742.491 6.00733 1.17413 0
M  V30 8059 N 741.628 6.6755 2.17533 0
M  V30 8060 H 746.468 2.96167 -0.330051 0
M  V30 8061 H 744.005 1.4606 -0.174611 0
M  V30 8062 H 745.963 3.62877 2.05855 0
M  V30 8063 H 744.593 2.48749 2.05727 0
M  V30 8064 H 743.645 3.80391 0.0266924 0
M  V30 8065 H 744.957 4.98151 0.254362 0
M  V30 8066 H 744.111 5.50449 2.55129 0
M  V30 8067 H 742.85 4.24917 2.39367 0
M  V30 8068 H 741.855 5.47997 0.444944 0
M  V30 8069 H 743.08 6.76227 0.624006 0
M  V30 8070 H 741.026 5.96823 2.72284 0
M  V30 8071 H 740.943 7.36603 1.70154 0
M  V30 8072 H 742.211 7.24178 2.88421 0
M  V30 8073 N 746.441 0.193421 1.56409 0
M  V30 8074 C 747.857 -0.162447 1.58771 0
M  V30 8075 C 748.057 -1.6116 1.20954 0
M  V30 8076 O 747.113 -2.3469 0.931497 0
M  V30 8077 C 748.426 0.138391 3.00381 0
M  V30 8078 C 749.974 0.0783649 3.12902 0
M  V30 8079 C 750.449 0.352491 4.56642 0
M  V30 8080 N 751.94 0.30105 4.62221 0
M  V30 8081 C 752.675 0.487028 5.71328 0
M  V30 8082 N 752.171 0.733265 6.88909 0
M  V30 8083 N 753.964 0.4214 5.60518 0
M  V30 8084 H 746.115 1.13909 1.79272 0
M  V30 8085 H 748.378 0.454528 0.83193 0
M  V30 8086 H 748.084 1.14312 3.32604 0
M  V30 8087 H 747.958 -0.559804 3.73023 0
M  V30 8088 H 750.345 -0.916963 2.80492 0
M  V30 8089 H 750.426 0.809611 2.4265 0
M  V30 8090 H 750.07 1.34513 4.89764 0
M  V30 8091 H 750 -0.399624 5.25081 0
M  V30 8092 H 752.491 0.117279 3.77718 0
M  V30 8093 H 752.804 0.86403 7.67955 0
M  V30 8094 H 751.149 0.770138 6.9072 0
M  V30 8095 H 754.34 0.229461 4.67537 0
M  V30 8096 H 754.513 0.569758 6.4549 0
M  V30 8097 N 747.919 -1.57396 -0.0801906 0
M  V30 8098 C 749.335 -1.53564 -0.434778 0
M  V30 8099 C 749.535 -0.912372 -1.79661 0
M  V30 8100 O 748.591 -0.511268 -2.4727 0
M  V30 8101 C 749.904 -2.98244 -0.383561 0
M  V30 8102 C 751.452 -3.09536 -0.46435 0
M  V30 8103 C 751.927 -4.55851 -0.443128 0
M  V30 8104 N 753.418 -4.60456 -0.503448 0
M  V30 8105 C 754.153 -5.71135 -0.509106 0
M  V30 8106 N 753.649 -6.91203 -0.47008 0
M  V30 8107 N 755.442 -5.59353 -0.555035 0
M  V30 8108 H 747.593 -1.96281 0.811635 0
M  V30 8109 H 749.856 -0.898041 0.303689 0
M  V30 8110 H 749.562 -3.47369 0.550236 0
M  V30 8111 H 749.436 -3.57705 -1.19694 0
M  V30 8112 H 751.823 -2.6039 -1.38857 0
M  V30 8113 H 751.904 -2.53 0.377445 0
M  V30 8114 H 751.548 -5.05653 0.477207 0
M  V30 8115 H 751.478 -5.10242 -1.30234 0
M  V30 8116 H 753.969 -3.74048 -0.538199 0
M  V30 8117 H 754.282 -7.7132 -0.478091 0
M  V30 8118 H 752.627 -6.93625 -0.436897 0
M  V30 8119 H 755.818 -4.64453 -0.583158 0
M  V30 8120 H 755.991 -6.4561 -0.555976 0
M  V30 8121 N 749.397 0.351382 -1.53633 0
M  V30 8122 C 750.808 0.927429 -1.62036 0
M  V30 8123 C 751.159 1.89809 -0.496706 0
M  V30 8124 O 750.284 2.1313 0.374749 0
M  V30 8125 C 750.879 1.68886 -2.93706 0
M  V30 8126 C 749.438 2.21404 -3.04397 0
M  V30 8127 C 748.585 1.03075 -2.57431 0
M  V30 8128 H 751.536 0.129748 -1.58169 0
M  V30 8129 H 751.557 2.55116 -2.82305 0
M  V30 8130 H 751.069 0.982149 -3.75467 0
M  V30 8131 H 749.17 2.95274 -2.27253 0
M  V30 8132 H 749.283 2.48312 -4.09729 0
M  V30 8133 H 747.647 1.40188 -2.12649 0
M  V30 8134 H 748.43 0.338793 -3.41624 0
M  V30 8135 N 750.875 1.45233 0.611969 0
M  V30 8136 C 751.822 1.5357 1.72293 0
M  V30 8137 C 752.792 0.381912 1.6165 0
M  V30 8138 O 753.977 0.594765 1.81293 0
M  V30 8139 C 751.117 1.50419 3.10593 0
M  V30 8140 C 750.23 2.76316 3.32074 0
M  V30 8141 C 749.365 2.64866 4.60456 0
M  V30 8142 C 748.404 3.85838 4.7518 0
M  V30 8143 N 747.541 3.72949 5.94856 0
M  V30 8144 H 752.381 2.4848 1.64504 0
M  V30 8145 H 749.918 1.23302 0.802191 0
M  V30 8146 H 751.876 1.4658 3.90602 0
M  V30 8147 H 750.506 0.590621 3.17351 0
M  V30 8148 H 749.558 2.90261 2.45872 0
M  V30 8149 H 750.87 3.66055 3.38829 0
M  V30 8150 H 750.024 2.58969 5.48653 0
M  V30 8151 H 748.763 1.72719 4.56092 0
M  V30 8152 H 747.768 3.92099 3.85407 0
M  V30 8153 H 748.993 4.79045 4.81344 0
M  V30 8154 H 746.939 2.83567 5.91545 0
M  V30 8155 H 746.856 4.56319 6.02751 0
M  V30 8156 H 748.124 3.70976 6.85563 0
M  V30 8157 N 752.353 -0.854086 1.3245 0
M  V30 8158 C 753.769 -1.14238 1.11453 0
M  V30 8159 C 753.969 -2.01228 -0.10461 0
M  V30 8160 O 753.025 -2.39845 -0.789339 0
M  V30 8161 C 754.338 -1.81916 2.39431 0
M  V30 8162 C 755.886 -1.94549 2.45193 0
M  V30 8163 C 756.361 -2.65642 3.73093 0
M  V30 8164 N 757.852 -2.73167 3.74078 0
M  V30 8165 C 758.587 -3.28828 4.69744 0
M  V30 8166 N 758.083 -3.85295 5.75778 0
M  V30 8167 N 759.876 -3.26936 4.57241 0
M  V30 8168 H 752.027 -0.274786 2.10615 0
M  V30 8169 H 754.29 -0.184375 0.929898 0
M  V30 8170 H 753.996 -1.25452 3.28565 0
M  V30 8171 H 753.87 -2.82068 2.50434 0
M  V30 8172 H 756.257 -2.50172 1.56518 0
M  V30 8173 H 756.338 -0.933914 2.38142 0
M  V30 8174 H 755.982 -2.10683 4.62142 0
M  V30 8175 H 755.912 -3.6724 3.77415 0
M  V30 8176 H 758.403 -2.33108 2.97438 0
M  V30 8177 H 758.716 -4.25925 6.44832 0
M  V30 8178 H 757.061 -3.83625 5.79531 0
M  V30 8179 H 760.252 -2.8207 3.7357 0
M  V30 8180 H 760.425 -3.70014 5.31971 0
M  V30 8181 N 753.831 -1.1567 -1.07043 0
M  V30 8182 C 755.247 -0.900006 -1.31803 0
M  V30 8183 C 755.447 0.451293 -1.96381 0
M  V30 8184 O 754.503 1.19252 -2.22565 0
M  V30 8185 C 755.816 -2.04334 -2.20609 0
M  V30 8186 C 757.364 -2.07823 -2.34048 0
M  V30 8187 C 757.839 -3.21488 -3.26204 0
M  V30 8188 N 759.33 -3.21156 -3.33786 0
M  V30 8189 C 760.065 -4.05746 -4.05163 0
M  V30 8190 N 759.561 -5.00407 -4.79129 0
M  V30 8191 N 761.354 -3.93759 -4.01136 0
M  V30 8192 H 753.505 -2.02681 -0.635146 0
M  V30 8193 H 755.768 -0.883956 -0.342528 0
M  V30 8194 H 755.474 -3.01895 -1.80423 0
M  V30 8195 H 755.348 -1.97838 -3.21154 0
M  V30 8196 H 757.735 -1.1086 -2.73485 0
M  V30 8197 H 757.816 -2.18386 -1.33197 0
M  V30 8198 H 757.46 -4.18706 -2.87485 0
M  V30 8199 H 757.39 -3.08162 -4.27017 0
M  V30 8200 H 759.881 -2.52606 -2.81067 0
M  V30 8201 H 760.194 -5.61387 -5.31097 0
M  V30 8202 H 758.539 -5.04393 -4.78135 0
M  V30 8203 H 761.73 -3.19115 -3.42466 0
M  V30 8204 H 761.903 -4.59906 -4.56498 0
M  V30 8205 N 755.309 1.25446 -0.953992 0
M  V30 8206 C 756.219 2.29632 -0.480264 0
M  V30 8207 C 757.235 1.68025 0.452071 0
M  V30 8208 O 758.411 1.98703 0.328472 0
M  V30 8209 C 755.476 3.45903 0.234974 0
M  V30 8210 C 754.537 4.22953 -0.735495 0
M  V30 8211 C 753.77 5.33672 -0.0542957 0
M  V30 8212 O 753.993 5.58477 1.16018 0
M  V30 8213 O 752.927 5.9734 -0.739509 0
M  V30 8214 H 756.753 2.72242 -1.34602 0
M  V30 8215 H 754.338 1.30883 -0.720419 0
M  V30 8216 H 756.22 4.16552 0.637341 0
M  V30 8217 H 754.895 3.05296 1.07592 0
M  V30 8218 H 753.802 3.54734 -1.18806 0
M  V30 8219 H 755.135 4.67341 -1.54444 0
M  V30 8220 N 756.787 0.722489 1.40064 0
M  V30 8221 C 758.036 0.261932 1.99992 0
M  V30 8222 C 758.349 -1.15358 1.57961 0
M  V30 8223 O 759.555 -1.71301 2.10637 0
M  V30 8224 C 758.011 0.41737 3.57472 0
M  V30 8225 C 757.619 1.83997 4.08472 0
M  V30 8226 C 759.363 0.0179561 4.24496 0
M  V30 8227 C 757.27 1.94563 5.5848 0
M  V30 8228 H 756.2 0.0941768 0.748095 0
M  V30 8229 H 758.851 0.894572 1.60218 0
M  V30 8230 H 757.233 -0.283965 3.94981 0
M  V30 8231 H 758.407 2.57224 3.82325 0
M  V30 8232 H 756.722 2.19147 3.54067 0
M  V30 8233 H 759.319 0.076085 5.34646 0
M  V30 8234 H 759.662 -1.02498 4.03485 0
M  V30 8235 H 760.195 0.669988 3.92117 0
M  V30 8236 H 756.934 2.97001 5.84355 0
M  V30 8237 H 756.454 1.25756 5.86469 0
M  V30 8238 H 758.133 1.72095 6.23692 0
M  V30 8239 N 758.265 -1.50454 0.469181 0
M  V30 8240 C 759.676 -1.86695 0.0136034 0
M  V30 8241 C 760.027 -1.38413 -1.39055 0
M  V30 8242 O 759.152 -0.748294 -2.03051 0
M  V30 8243 C 759.747 -3.38795 0.0179098 0
M  V30 8244 C 758.306 -3.74455 -0.382191 0
M  V30 8245 C 757.453 -2.74338 0.404207 0
M  V30 8246 H 760.404 -1.43225 0.683547 0
M  V30 8247 H 760.425 -3.72321 -0.78468 0
M  V30 8248 H 759.937 -3.73906 1.04 0
M  V30 8249 H 758.038 -3.44944 -1.4087 0
M  V30 8250 H 758.151 -4.79025 -0.084862 0
M  V30 8251 H 756.515 -2.54305 -0.141829 0
M  V30 8252 H 757.298 -3.12293 1.42577 0
M  V30 8253 N 759.743 -0.201713 -1.56304 0
M  V30 8254 C 760.673 0.71155 -2.22394 0
M  V30 8255 C 761.654 1.21625 -1.18917 0
M  V30 8256 O 762.839 1.26388 -1.47444 0
M  V30 8257 C 759.969 1.92837 -2.88845 0
M  V30 8258 C 758.923 1.55831 -3.98623 0
M  V30 8259 C 758.249 2.85228 -4.52271 0
M  V30 8260 C 759.549 0.763249 -5.16693 0
M  V30 8261 H 761.243 0.160573 -2.98969 0
M  V30 8262 H 758.789 0.0757916 -1.438 0
M  V30 8263 H 760.742 2.57253 -3.33764 0
M  V30 8264 H 759.466 2.50398 -2.09686 0
M  V30 8265 H 758.125 0.9377 -3.54405 0
M  V30 8266 H 757.773 3.40893 -3.69866 0
M  V30 8267 H 757.473 2.6121 -5.26349 0
M  V30 8268 H 758.997 3.50622 -4.99897 0
M  V30 8269 H 760.411 1.31066 -5.58117 0
M  V30 8270 H 758.808 0.620935 -5.96879 0
M  V30 8271 H 759.878 -0.234322 -4.84334 0
M  V30 8272 N 761.222 1.57436 0.0718424 0
M  V30 8273 C 762.169 2.03686 1.08539 0
M  V30 8274 C 763.139 0.917474 1.38462 0
M  V30 8275 O 764.324 1.18513 1.4953 0
M  V30 8276 C 761.464 2.48566 2.39393 0
M  V30 8277 C 760.577 3.74122 2.16001 0
M  V30 8278 C 759.712 4.07786 3.40418 0
M  V30 8279 C 758.751 5.26383 3.1239 0
M  V30 8280 N 757.888 5.55685 4.29138 0
M  V30 8281 H 762.728 2.90043 0.684018 0
M  V30 8282 H 760.265 1.43438 0.326183 0
M  V30 8283 H 762.223 2.72639 3.15791 0
M  V30 8284 H 760.853 1.65186 2.77333 0
M  V30 8285 H 759.905 3.57389 1.30296 0
M  V30 8286 H 761.217 4.60659 1.91298 0
M  V30 8287 H 760.371 4.32759 4.25211 0
M  V30 8288 H 759.11 3.19817 3.68197 0
M  V30 8289 H 758.115 5.01206 2.25993 0
M  V30 8290 H 759.34 6.1597 2.85934 0
M  V30 8291 H 757.286 4.70675 4.56948 0
M  V30 8292 H 757.203 6.3664 4.07708 0
M  V30 8293 H 758.471 5.85209 5.14928 0
M  V30 8294 N 762.7 -0.34323 1.53817 0
M  V30 8295 C 763.946 -1.08504 1.71332 0
M  V30 8296 C 764.279 -1.88294 0.475285 0
M  V30 8297 O 763.554 -1.87205 -0.527688 0
M  V30 8298 C 763.837 -2.02597 2.97702 0
M  V30 8299 C 763.69 -1.26268 4.31713 0
M  V30 8300 C 765.009 -3.0241 3.19744 0
M  V30 8301 H 762.128 -0.393072 0.623429 0
M  V30 8302 H 764.77 -0.363579 1.86489 0
M  V30 8303 H 762.92 -2.64118 2.8491 0
M  V30 8304 H 764.592 -0.673594 4.56356 0
M  V30 8305 H 762.835 -0.564696 4.30109 0
M  V30 8306 H 763.506 -1.95253 5.16314 0
M  V30 8307 H 765.982 -2.51004 3.31868 0
M  V30 8308 H 764.858 -3.65449 4.09558 0
M  V30 8309 H 765.119 -3.73806 2.36054 0
M  V30 8310 N 764.178 -1.45556 -0.604258 0
M  V30 8311 C 765.108 -1.57327 -1.72541 0
M  V30 8312 C 766.089 -0.424637 -1.64714 0
M  V30 8313 O 767.274 -0.648196 -1.83063 0
M  V30 8314 C 764.404 -1.54279 -3.11152 0
M  V30 8315 C 763.358 -2.67893 -3.33792 0
M  V30 8316 C 762.684 -2.499 -4.72709 0
M  V30 8317 C 763.984 -4.0988 -3.23722 0
M  V30 8318 H 765.678 -2.51175 -1.62947 0
M  V30 8319 H 763.224 -1.20884 -0.782504 0
M  V30 8320 H 765.177 -1.6111 -3.89386 0
M  V30 8321 H 763.901 -0.569627 -3.21594 0
M  V30 8322 H 762.56 -2.60495 -2.57949 0
M  V30 8323 H 762.208 -1.50715 -4.79889 0
M  V30 8324 H 761.908 -3.26091 -4.88813 0
M  V30 8325 H 763.432 -2.5859 -5.5314 0
M  V30 8326 H 764.846 -4.18503 -3.91826 0
M  V30 8327 H 763.243 -4.86487 -3.51355 0
M  V30 8328 H 764.313 -4.31553 -2.21111 0
M  V30 8329 N 765.656 0.84705 -1.32902 0
M  V30 8330 C 766.902 1.60414 -1.24078 0
M  V30 8331 C 767.235 1.93217 0.195105 0
M  V30 8332 O 766.51 1.58001 1.13428 0
M  V30 8333 C 766.793 2.91951 -2.108 0
M  V30 8334 C 766.646 2.6588 -3.62805 0
M  V30 8335 C 767.965 3.93299 -1.97494 0
M  V30 8336 H 765.084 0.58206 -0.452079 0
M  V30 8337 H 767.726 0.977562 -1.62922 0
M  V30 8338 H 765.876 3.45425 -1.77802 0
M  V30 8339 H 767.548 2.18902 -4.06054 0
M  V30 8340 H 765.791 1.99716 -3.85092 0
M  V30 8341 H 766.462 3.59574 -4.1882 0
M  V30 8342 H 768.938 3.49105 -2.26417 0
M  V30 8343 H 767.814 4.8318 -2.60438 0
M  V30 8344 H 768.075 4.31887 -0.944782 0
M  V30 8345 N 767.134 1.16236 1.06428 0
M  V30 8346 C 768.081 0.86769 2.13869 0
M  V30 8347 C 769.051 -0.183298 1.65086 0
M  V30 8348 O 770.236 -0.0488002 1.90738 0
M  V30 8349 C 767.376 0.373427 3.43074 0
M  V30 8350 C 766.489 1.48708 4.05598 0
M  V30 8351 C 765.624 0.947977 5.22673 0
M  V30 8352 C 764.663 2.03793 5.77178 0
M  V30 8353 N 763.8 1.51451 6.85571 0
M  V30 8354 H 768.64 1.78781 2.38414 0
M  V30 8355 H 766.177 0.891892 1.16977 0
M  V30 8356 H 768.135 0.0685035 4.17144 0
M  V30 8357 H 766.765 -0.509752 3.1875 0
M  V30 8358 H 765.817 1.908 3.29089 0
M  V30 8359 H 767.129 2.30964 4.42105 0
M  V30 8360 H 766.283 0.596154 6.03764 0
M  V30 8361 H 765.022 0.0947081 4.87608 0
M  V30 8362 H 764.027 2.39847 4.94726 0
M  V30 8363 H 765.252 2.89514 6.14295 0
M  V30 8364 H 763.198 0.683755 6.52427 0
M  V30 8365 H 763.115 2.27325 7.21013 0
M  V30 8366 H 764.383 1.19123 7.70344 0
M  V30 8367 N 768.612 -1.24939 0.960631 0
M  V30 8368 C 769.575 -2.239 0.49006 0
M  V30 8369 C 770.575 -1.55497 -0.409535 0
M  V30 8370 O 771.765 -1.72978 -0.205984 0
M  V30 8371 C 768.897 -3.39654 -0.291193 0
M  V30 8372 H 770.09 -2.67044 1.36482 0
M  V30 8373 H 767.643 -1.37429 0.744505 0
M  V30 8374 H 768.378 -3.01939 -1.18336 0
M  V30 8375 H 768.163 -3.90496 0.354276 0
M  V30 8376 H 769.653 -4.13125 -0.609693 0
M  V30 8377 N 770.09 -0.729906 -1.39679 0
M  V30 8378 C 771.336 -0.27603 -2.00913 0
M  V30 8379 C 771.669 1.13227 -1.57776 0
M  V30 8380 O 770.944 1.7709 -0.804319 0
M  V30 8381 C 771.227 -0.372157 -3.58172 0
M  V30 8382 C 771.08 -1.81986 -4.11341 0
M  V30 8383 C 772.399 0.248378 -4.39399 0
M  V30 8384 H 769.518 -0.101773 -0.729939 0
M  V30 8385 H 772.16 -0.925104 -1.65957 0
M  V30 8386 H 770.31 0.180459 -3.88081 0
M  V30 8387 H 771.982 -2.42896 -3.92172 0
M  V30 8388 H 770.225 -2.34287 -3.65092 0
M  V30 8389 H 770.896 -1.83842 -5.20486 0
M  V30 8390 H 773.372 -0.222645 -4.15504 0
M  V30 8391 H 772.248 0.150746 -5.48693 0
M  V30 8392 H 772.509 1.33378 -4.21501 0
M  V30 8393 N 771.568 1.50203 -0.477153 0
M  V30 8394 C 772.498 2.31517 0.303646 0
M  V30 8395 C 773.479 1.38696 0.984753 0
M  V30 8396 O 774.664 1.67615 0.980758 0
M  V30 8397 C 771.794 3.18598 1.38249 0
M  V30 8398 C 770.748 4.2002 0.822645 0
M  V30 8399 C 770.074 4.95878 2.00024 0
M  V30 8400 C 771.374 5.22023 -0.170185 0
M  V30 8401 H 773.068 2.97042 -0.375027 0
M  V30 8402 H 770.614 1.42848 -0.181802 0
M  V30 8403 H 772.567 3.74282 1.93625 0
M  V30 8404 H 771.291 2.5097 2.09002 0
M  V30 8405 H 769.95 3.65445 0.290813 0
M  V30 8406 H 769.598 4.24717 2.69489 0
M  V30 8407 H 769.298 5.64487 1.63183 0
M  V30 8408 H 770.822 5.54399 2.55878 0
M  V30 8409 H 772.236 5.72543 0.294606 0
M  V30 8410 H 770.633 5.98386 -0.453181 0
M  V30 8411 H 771.703 4.72396 -1.09408 0
M  V30 8412 N 773.046 0.209999 1.56195 0
M  V30 8413 C 774.293 -0.424813 1.97994 0
M  V30 8414 C 774.621 -1.60589 1.09733 0
M  V30 8415 O 773.876 -1.95201 0.139693 0
M  V30 8416 C 774.175 -0.91312 3.45539 0
M  V30 8417 C 773.841 0.156187 4.50629 0
M  V30 8418 C 772.503 0.449966 4.79092 0
M  V30 8419 C 774.855 0.879959 5.13718 0
M  V30 8420 C 772.183 1.47223 5.67928 0
M  V30 8421 C 774.535 1.89148 6.0366 0
M  V30 8422 C 773.199 2.1923 6.30472 0
M  V30 8423 H 772.469 -0.15545 0.724511 0
M  V30 8424 H 775.116 0.310095 1.88973 0
M  V30 8425 H 773.421 -1.72658 3.51705 0
M  V30 8426 H 775.118 -1.41395 3.75245 0
M  V30 8427 H 771.708 -0.0829466 4.2852 0
M  V30 8428 H 775.892 0.66623 4.91808 0
M  V30 8429 H 771.148 1.71105 5.86969 0
M  V30 8430 H 775.322 2.45745 6.516 0
M  V30 8431 H 772.949 2.98587 6.99107 0
M  V30 8432 N 774.524 -1.57472 -0.0634922 0
M  V30 8433 C 775.487 -2.03268 -1.059 0
M  V30 8434 C 776.487 -0.931028 -1.31105 0
M  V30 8435 O 777.677 -1.19567 -1.26686 0
M  V30 8436 C 774.809 -2.42039 -2.40062 0
M  V30 8437 H 776.002 -2.92454 -0.664119 0
M  V30 8438 H 773.555 -1.53206 -0.309444 0
M  V30 8439 H 774.29 -1.55904 -2.84367 0
M  V30 8440 H 774.075 -3.22437 -2.23108 0
M  V30 8441 H 775.565 -2.78017 -3.11603 0
M  V30 8442 N 776.003 0.335068 -1.53997 0
M  V30 8443 C 777.243 1.0827 -1.7337 0
M  V30 8444 C 777.607 1.85618 -0.490913 0
M  V30 8445 O 778.808 2.62864 -0.561799 0
M  V30 8446 C 777.079 1.99212 -2.96731 0
M  V30 8447 S 778.638 2.81083 -3.36954 0
M  V30 8448 H 775.456 0.365698 -0.609743 0
M  V30 8449 H 778.058 0.360079 -1.92155 0
M  V30 8450 H 776.762 1.41204 -3.85344 0
M  V30 8451 H 776.293 2.75898 -2.80436 0
M  V30 8452 H 778.308 4.01657 -2.91352 0
M  V30 8453 N 777.481 1.45874 0.596531 0
M  V30 8454 C 778.414 1.49889 1.72071 0
M  V30 8455 C 779.392 0.354224 1.58695 0
M  V30 8456 O 780.576 0.556355 1.80103 0
M  V30 8457 C 777.703 1.3644 3.10003 0
M  V30 8458 C 776.749 2.54913 3.41938 0
M  V30 8459 S 777.582 4.17336 3.35545 0
M  V30 8460 C 778.738 4.06372 4.76039 0
M  V30 8461 H 778.971 2.45005 1.68404 0
M  V30 8462 H 776.504 1.33592 0.77412 0
M  V30 8463 H 778.462 1.29368 3.89582 0
M  V30 8464 H 777.123 0.427762 3.11174 0
M  V30 8465 H 776.316 2.41458 4.42396 0
M  V30 8466 H 775.918 2.58904 2.69898 0
M  V30 8467 H 778.21 3.72199 5.66105 0
M  V30 8468 H 779.153 5.0678 4.9455 0
M  V30 8469 H 779.561 3.37846 4.52239 0
M  V30 8470 N 778.959 -0.83999 1.33349 0
M  V30 8471 C 779.889 -1.965 1.26135 0
M  V30 8472 C 780.87 -1.69505 0.142152 0
M  V30 8473 O 782.055 -1.91346 0.331743 0
M  V30 8474 C 779.185 -3.32632 0.99866 0
M  V30 8475 C 778.139 -3.74021 2.08068 0
M  V30 8476 C 777.465 -5.07947 1.67014 0
M  V30 8477 C 778.765 -3.87925 3.49731 0
M  V30 8478 H 780.459 -2.02793 2.20262 0
M  V30 8479 H 778.005 -0.974297 1.06035 0
M  V30 8480 H 779.958 -4.10903 0.934696 0
M  V30 8481 H 778.682 -3.26593 0.0217759 0
M  V30 8482 H 777.341 -2.98012 2.13505 0
M  V30 8483 H 776.989 -4.98378 0.680316 0
M  V30 8484 H 776.689 -5.36611 2.39422 0
M  V30 8485 H 778.213 -5.88695 1.62082 0
M  V30 8486 H 779.627 -4.5651 3.46802 0
M  V30 8487 H 778.024 -4.28023 4.20614 0
M  V30 8488 H 779.094 -2.90407 3.88319 0
M  V30 8489 N 780.437 -1.16799 -1.0581 0
M  V30 8490 C 781.37 -0.822491 -2.12862 0
M  V30 8491 C 782.348 0.208006 -1.61264 0
M  V30 8492 O 783.532 0.0909652 -1.8828 0
M  V30 8493 C 780.659 -0.225826 -3.37946 0
M  V30 8494 C 779.705 -1.23071 -4.08357 0
M  V30 8495 S 780.538 -2.77944 -4.5772 0
M  V30 8496 C 781.694 -2.19741 -5.86059 0
M  V30 8497 H 781.927 -1.72917 -2.41841 0
M  V30 8498 H 779.46 -0.991982 -1.18318 0
M  V30 8499 H 781.418 0.111955 -4.10347 0
M  V30 8500 H 780.079 0.658692 -3.07116 0
M  V30 8501 H 779.272 -0.761758 -4.9821 0
M  V30 8502 H 778.874 -1.51383 -3.41993 0
M  V30 8503 H 781.166 -1.5691 -6.59079 0
M  V30 8504 H 782.109 -3.07823 -6.37692 0
M  V30 8505 H 782.517 -1.63433 -5.40324 0
M  V30 8506 N 781.915 1.24427 -0.967243 0
M  V30 8507 C 783.331 1.44684 -0.6737 0
M  V30 8508 C 783.531 1.86429 0.764625 0
M  V30 8509 O 782.587 2.00211 1.53857 0
M  V30 8510 C 783.9 2.509 -1.6574 0
M  V30 8511 C 785.448 2.64728 -1.66998 0
M  V30 8512 C 785.923 3.7414 -2.64165 0
M  V30 8513 N 787.414 3.81567 -2.62604 0
M  V30 8514 C 788.149 4.6575 -3.34462 0
M  V30 8515 N 787.645 5.54124 -4.15835 0
M  V30 8516 N 789.438 4.59827 -3.23288 0
M  V30 8517 H 781.589 0.956276 -1.89655 0
M  V30 8518 H 783.852 0.48171 -0.816492 0
M  V30 8519 H 783.558 2.27113 -2.68538 0
M  V30 8520 H 783.432 3.4905 -1.42981 0
M  V30 8521 H 785.819 2.87872 -0.649121 0
M  V30 8522 H 785.9 1.66936 -1.93819 0
M  V30 8523 H 785.544 3.51745 -3.66384 0
M  V30 8524 H 785.474 4.71444 -2.34623 0
M  V30 8525 H 787.965 3.18403 -2.03539 0
M  V30 8526 H 788.278 6.15316 -4.67553 0
M  V30 8527 H 786.623 5.53791 -4.19929 0
M  V30 8528 H 789.814 3.898 -2.59179 0
M  V30 8529 H 789.987 5.25208 -3.79553 0
M  V30 8530 N 783.393 0.737304 1.3929 0
M  V30 8531 C 784.34 0.0988364 2.30588 0
M  V30 8532 C 785.31 -0.727206 1.49335 0
M  V30 8533 O 786.495 -0.686694 1.78014 0
M  V30 8534 C 783.635 -0.800734 3.35682 0
M  V30 8535 C 782.748 0.0381731 4.31983 0
M  V30 8536 C 781.883 -0.862884 5.24145 0
M  V30 8537 C 780.922 -0.0193639 6.12097 0
M  V30 8538 N 780.059 -0.87648 6.96608 0
M  V30 8539 H 784.899 0.883031 2.84617 0
M  V30 8540 H 782.436 0.447111 1.4014 0
M  V30 8541 H 784.394 -1.33676 3.95205 0
M  V30 8542 H 783.024 -1.55088 2.83103 0
M  V30 8543 H 782.076 0.691641 3.74059 0
M  V30 8544 H 783.388 0.690294 4.94 0
M  V30 8545 H 782.542 -1.46667 5.88705 0
M  V30 8546 H 781.281 -1.54878 4.62454 0
M  V30 8547 H 780.286 0.597202 5.46547 0
M  V30 8548 H 781.511 0.663348 6.75852 0
M  V30 8549 H 779.457 -1.54762 6.37483 0
M  V30 8550 H 779.374 -0.280892 7.55478 0
M  V30 8551 H 780.642 -1.46575 7.65595 0
M  V30 8552 N 784.871 -1.49948 0.485112 0
M  V30 8553 C 786.099 -2.06806 -0.0622824 0
M  V30 8554 C 786.514 -1.34736 -1.32256 0
M  V30 8555 O 785.871 -0.420836 -1.77582 0
M  V30 8556 C 785.922 -3.59934 -0.336096 0
M  V30 8557 O 785.643 -4.29289 0.874203 0
M  V30 8558 C 787.144 -4.33459 -0.928903 0
M  V30 8559 H 784.364 -0.670867 0.0133472 0
M  V30 8560 H 786.908 -1.92937 0.677917 0
M  V30 8561 H 785.063 -3.7356 -1.02625 0
M  V30 8562 H 785.477 -5.20735 0.627332 0
M  V30 8563 H 786.951 -5.41527 -1.07017 0
M  V30 8564 H 787.428 -3.94881 -1.92265 0
M  V30 8565 H 788.034 -4.24399 -0.276705 0
M  V30 8566 N 786.349 -0.21828 -1.56081 0
M  V30 8567 C 787.282 0.733096 -2.16104 0
M  V30 8568 C 788.26 1.19333 -1.10447 0
M  V30 8569 O 789.444 1.27666 -1.38685 0
M  V30 8570 C 786.571 1.99283 -2.73868 0
M  V30 8571 C 785.617 1.67285 -3.92324 0
M  V30 8572 S 786.45 0.800511 -5.29483 0
M  V30 8573 C 787.606 2.06988 -5.90683 0
M  V30 8574 H 787.839 0.222917 -2.96463 0
M  V30 8575 H 785.372 -0.00300946 -1.544 0
M  V30 8576 H 787.33 2.71618 -3.07789 0
M  V30 8577 H 785.991 2.47414 -1.93508 0
M  V30 8578 H 785.184 2.60874 -4.31232 0
M  V30 8579 H 784.786 1.03016 -3.59533 0
M  V30 8580 H 787.078 3.02019 -6.06457 0
M  V30 8581 H 788.021 1.72476 -6.86773 0
M  V30 8582 H 788.429 2.20893 -5.19487 0
M  V30 8583 N 787.827 1.57504 0.0551401 0
M  V30 8584 C 788.79 2.03826 1.04821 0
M  V30 8585 C 789.79 0.937968 1.30609 0
M  V30 8586 O 790.98 1.20237 1.2605 0
M  V30 8587 C 788.112 2.43309 2.38775 0
M  V30 8588 H 789.305 2.92802 0.6486 0
M  V30 8589 H 786.858 1.53368 0.301315 0
M  V30 8590 H 787.593 1.5741 2.83536 0
M  V30 8591 H 787.378 3.23615 2.21395 0
M  V30 8592 H 788.868 2.79666 3.10124 0
M  V30 8593 N 789.305 -0.326896 1.54172 0
M  V30 8594 C 790.53 -1.08924 1.76494 0
M  V30 8595 C 790.955 -1.81039 0.510523 0
M  V30 8596 O 790.313 -1.73141 -0.537756 0
M  V30 8597 C 790.361 -2.06558 2.95578 0
M  V30 8598 O 789.465 -3.14394 2.6689 0
M  V30 8599 H 788.806 -0.314216 0.584948 0
M  V30 8600 H 791.336 -0.372207 2.01186 0
M  V30 8601 H 791.346 -2.49487 3.22832 0
M  V30 8602 H 790.021 -1.53469 3.86549 0
M  V30 8603 H 788.598 -2.76164 2.50576 0
M  V30 8604 N 790.784 -1.46188 -0.588786 0
M  V30 8605 C 792.2 -1.31009 -0.911524 0
M  V30 8606 C 792.4 -0.277017 -1.99587 0
M  V30 8607 O 791.456 0.322532 -2.50432 0
M  V30 8608 C 792.769 -2.69459 -1.33463 0
M  V30 8609 C 794.317 -2.77502 -1.44782 0
M  V30 8610 C 794.792 -4.1652 -1.90461 0
M  V30 8611 N 796.283 -4.18907 -1.97665 0
M  V30 8612 C 797.018 -5.23359 -2.34271 0
M  V30 8613 N 796.514 -6.38143 -2.69714 0
M  V30 8614 N 798.307 -5.10723 -2.34774 0
M  V30 8615 H 790.458 -2.12016 0.127614 0
M  V30 8616 H 792.721 -0.947984 -0.00557599 0
M  V30 8617 H 792.427 -3.46336 -0.611929 0
M  V30 8618 H 792.301 -2.99165 -2.2974 0
M  V30 8619 H 794.688 -2.00917 -2.1614 0
M  V30 8620 H 794.769 -2.51488 -0.467724 0
M  V30 8621 H 794.413 -4.93597 -1.19684 0
M  V30 8622 H 794.343 -4.39937 -2.89418 0
M  V30 8623 H 796.834 -3.36084 -1.72789 0
M  V30 8624 H 797.147 -7.13624 -2.96582 0
M  V30 8625 H 795.492 -6.41514 -2.67366 0
M  V30 8626 H 798.683 -4.20088 -2.06503 0
M  V30 8627 H 798.856 -5.9224 -2.62975 0
M  V30 8628 N 792.262 0.832906 -1.33792 0
M  V30 8629 C 793.508 1.59089 -1.25772 0
M  V30 8630 C 793.841 1.93414 0.174601 0
M  V30 8631 O 793.116 1.59195 1.11746 0
M  V30 8632 C 793.399 2.89699 -2.13885 0
M  V30 8633 C 793.252 2.62017 -3.65605 0
M  V30 8634 C 794.571 3.91182 -2.01654 0
M  V30 8635 H 791.69 0.577232 -0.458227 0
M  V30 8636 H 794.332 0.960227 -1.6395 0
M  V30 8637 H 792.482 3.4352 -1.81456 0
M  V30 8638 H 794.154 2.14582 -4.08353 0
M  V30 8639 H 792.397 1.95621 -3.87189 0
M  V30 8640 H 793.068 3.55112 -4.2261 0
M  V30 8641 H 795.544 3.46684 -2.30107 0
M  V30 8642 H 794.42 4.80391 -2.65548 0
M  V30 8643 H 794.681 4.30861 -0.990536 0
M  V30 8644 N 793.74 1.17359 1.05189 0
M  V30 8645 C 795.156 0.920861 1.30355 0
M  V30 8646 C 795.356 -0.419993 1.97074 0
M  V30 8647 O 794.412 -1.15696 2.24434 0
M  V30 8648 C 795.725 2.07818 2.1733 0
M  V30 8649 C 797.273 2.1152 2.30712 0
M  V30 8650 C 797.748 3.26637 3.21048 0
M  V30 8651 N 799.239 3.26426 3.28634 0
M  V30 8652 C 799.974 4.12141 3.98657 0
M  V30 8653 N 799.47 5.07966 4.71107 0
M  V30 8654 N 801.263 4.00091 3.94821 0
M  V30 8655 H 793.414 2.03666 0.602821 0
M  V30 8656 H 795.677 0.889294 0.328421 0
M  V30 8657 H 795.383 3.04727 1.75597 0
M  V30 8658 H 795.257 2.02922 3.17966 0
M  V30 8659 H 797.644 1.15196 2.71687 0
M  V30 8660 H 797.725 2.20477 1.29706 0
M  V30 8661 H 797.369 4.23227 2.80788 0
M  V30 8662 H 797.299 3.14917 4.2206 0
M  V30 8663 H 799.79 2.57045 2.77013 0
M  V30 8664 H 800.103 5.69766 5.22099 0
M  V30 8665 H 798.448 5.11936 4.7005 0
M  V30 8666 H 801.639 3.24523 3.37346 0
M  V30 8667 H 801.812 4.6711 4.49123 0
M  V30 8668 N 795.218 -1.23913 0.973828 0
M  V30 8669 C 796.464 -1.92436 0.640026 0
M  V30 8670 C 796.797 -1.75875 -0.823512 0
M  V30 8671 O 796.072 -1.11563 -1.59323 0
M  V30 8672 C 796.355 -3.4526 1.0231 0
M  V30 8673 C 796.208 -3.70961 2.54378 0
M  V30 8674 C 797.527 -4.36495 0.562155 0
M  V30 8675 H 794.646 -0.698868 0.233992 0
M  V30 8676 H 797.288 -1.46163 1.21393 0
M  V30 8677 H 795.438 -3.84802 0.534751 0
M  V30 8678 H 797.11 -3.40941 3.10737 0
M  V30 8679 H 795.353 -3.15899 2.97305 0
M  V30 8680 H 796.024 -4.77912 2.76232 0
M  V30 8681 H 798.5 -4.04363 0.981333 0
M  V30 8682 H 797.376 -5.42142 0.858689 0
M  V30 8683 H 797.637 -4.38818 -0.537659 0
M  V30 8684 N 796.696 -0.74468 -1.38897 0
M  V30 8685 C 797.924 -0.307428 -2.04603 0
M  V30 8686 C 798.339 1.06115 -1.56157 0
M  V30 8687 O 797.696 1.67233 -0.730701 0
M  V30 8688 C 797.747 -0.31101 -3.6016 0
M  V30 8689 O 797.468 -1.62557 -4.06825 0
M  V30 8690 C 798.969 0.141213 -4.43075 0
M  V30 8691 H 796.189 -0.132741 -0.657739 0
M  V30 8692 H 798.733 -1.01104 -1.77759 0
M  V30 8693 H 796.888 0.343792 -3.85872 0
M  V30 8694 H 797.302 -1.54569 -5.01207 0
M  V30 8695 H 798.776 0.0875449 -5.51931 0
M  V30 8696 H 799.253 1.18782 -4.22833 0
M  V30 8697 H 799.859 -0.484383 -4.22533 0
M  V30 8698 N 798.174 1.49689 -0.493057 0
M  V30 8699 C 799.423 2.01622 0.0560733 0
M  V30 8700 C 799.736 1.37838 1.3878 0
M  V30 8701 O 800.942 1.81054 2.02316 0
M  V30 8702 C 799.398 3.59586 0.150409 0
M  V30 8703 C 799.006 4.32338 -1.1742 0
M  V30 8704 C 800.75 4.19489 0.650327 0
M  V30 8705 C 798.657 5.8214 -1.04246 0
M  V30 8706 H 797.587 0.753594 0.0247297 0
M  V30 8707 H 800.238 1.723 -0.631279 0
M  V30 8708 H 798.62 3.8559 0.902035 0
M  V30 8709 H 799.794 4.18042 -1.9385 0
M  V30 8710 H 798.109 3.84144 -1.60694 0
M  V30 8711 H 800.706 5.29181 0.766272 0
M  V30 8712 H 801.049 3.82326 1.6472 0
M  V30 8713 H 801.582 3.97775 -0.0445371 0
M  V30 8714 H 798.321 6.23814 -2.01336 0
M  V30 8715 H 797.841 5.98952 -0.31892 0
M  V30 8716 H 799.52 6.43004 -0.717957 0
M  V30 8717 N 799.652 0.226554 1.55963 0
M  V30 8718 C 800.582 -0.676079 2.23498 0
M  V30 8719 C 801.563 -1.19718 1.20837 0
M  V30 8720 O 802.748 -1.24027 1.49436 0
M  V30 8721 C 799.878 -1.88217 2.91876 0
M  V30 8722 C 798.832 -1.4947 4.01052 0
M  V30 8723 C 798.158 -2.77997 4.56751 0
M  V30 8724 C 799.458 -0.680951 5.17842 0
M  V30 8725 H 801.152 -0.112989 2.99187 0
M  V30 8726 H 798.698 -0.0529046 1.43903 0
M  V30 8727 H 800.651 -2.51911 3.37815 0
M  V30 8728 H 799.375 -2.47031 2.13643 0
M  V30 8729 H 798.034 -0.881199 3.55852 0
M  V30 8730 H 797.682 -3.34966 3.75243 0
M  V30 8731 H 797.382 -2.52803 5.30438 0
M  V30 8732 H 798.906 -3.42625 5.05411 0
M  V30 8733 H 800.32 -1.22171 5.60131 0
M  V30 8734 H 798.717 -0.525898 5.97791 0
M  V30 8735 H 799.787 0.311346 4.83899 0
M  V30 8736 N 801.13 -1.57531 -0.0467866 0
M  V30 8737 C 802.377 -1.88451 -0.74112 0
M  V30 8738 C 802.705 -0.821592 -1.76296 0
M  V30 8739 O 801.96 0.179585 -1.94874 0
M  V30 8740 C 802.259 -3.26091 -1.46285 0
M  V30 8741 C 801.925 -4.47171 -0.578669 0
M  V30 8742 C 800.587 -4.80032 -0.335083 0
M  V30 8743 C 802.939 -5.2119 0.0328809 0
M  V30 8744 C 800.267 -5.84309 0.529121 0
M  V30 8745 C 802.619 -6.26383 0.884684 0
M  V30 8746 C 801.283 -6.57729 1.1379 0
M  V30 8747 H 800.553 -0.68959 -0.271195 0
M  V30 8748 H 803.2 -1.915 -0.00132378 0
M  V30 8749 H 801.505 -3.18948 -2.27551 0
M  V30 8750 H 803.202 -3.47258 -2.00532 0
M  V30 8751 H 799.792 -4.21467 -0.778666 0
M  V30 8752 H 803.976 -4.96096 -0.142375 0
M  V30 8753 H 799.232 -6.06981 0.733794 0
M  V30 8754 H 803.406 -6.82888 1.36516 0
M  V30 8755 H 801.033 -7.38355 1.80929 0
M  V30 8756 N 802.608 0.318715 -1.54344 0
M  V30 8757 C 803.571 1.37545 -1.83342 0
M  V30 8758 C 804.571 1.445 -0.705444 0
M  V30 8759 O 805.761 1.44443 -0.973752 0
M  V30 8760 C 802.893 2.76225 -1.99781 0
M  V30 8761 H 804.086 1.13084 -2.77762 0
M  V30 8762 H 801.639 0.554457 -1.46135 0
M  V30 8763 H 802.374 3.05934 -1.07588 0
M  V30 8764 H 802.159 2.7257 -2.81865 0
M  V30 8765 H 803.649 3.52664 -2.23647 0
M  V30 8766 N 804.086 1.46499 0.581025 0
M  V30 8767 C 805.314 1.5547 1.36517 0
M  V30 8768 C 805.729 0.196407 1.87776 0
M  V30 8769 O 805.086 -0.806577 1.63709 0
M  V30 8770 C 805.137 2.56084 2.55154 0
M  V30 8771 O 804.858 3.86637 2.06018 0
M  V30 8772 C 806.359 2.75011 3.47683 0
M  V30 8773 H 803.579 0.525703 0.416986 0
M  V30 8774 H 806.123 1.9192 0.706177 0
M  V30 8775 H 804.278 2.22633 3.17039 0
M  V30 8776 H 804.692 4.41413 2.83292 0
M  V30 8777 H 806.166 3.49329 4.27403 0
M  V30 8778 H 806.643 1.81978 3.99726 0
M  V30 8779 H 807.249 3.09565 2.91632 0
M  V30 8780 N 805.565 -0.825799 1.34232 0
M  V30 8781 C 806.475 -1.9684 1.27638 0
M  V30 8782 C 807.491 -1.73018 0.184569 0
M  V30 8783 O 808.667 -1.97172 0.410525 0
M  V30 8784 C 805.732 -3.31084 1.02879 0
M  V30 8785 C 804.793 -3.67933 2.21188 0
M  V30 8786 C 804.026 -4.95772 1.976 0
M  V30 8787 O 804.249 -5.62721 0.93281 0
M  V30 8788 O 803.183 -5.30431 2.84477 0
M  V30 8789 H 807.009 -2.05346 2.23756 0
M  V30 8790 H 804.594 -0.960772 1.1441 0
M  V30 8791 H 806.476 -4.11492 0.908406 0
M  V30 8792 H 805.151 -3.23552 0.0979821 0
M  V30 8793 H 804.058 -2.87981 2.38784 0
M  V30 8794 H 805.391 -3.80147 3.12648 0
M  V30 8795 N 807.043 -1.17915 -1.04565 0
M  V30 8796 C 808.271 -0.99616 -1.8134 0
M  V30 8797 C 808.686 0.455509 -1.83223 0
M  V30 8798 O 808.043 1.31636 -1.26405 0
M  V30 8799 C 808.094 -1.53758 -3.27171 0
M  V30 8800 O 807.815 -2.93241 -3.25486 0
M  V30 8801 C 809.316 -1.40007 -4.2061 0
M  V30 8802 H 806.536 -0.352055 -0.571225 0
M  V30 8803 H 809.08 -1.56349 -1.31815 0
M  V30 8804 H 807.235 -1.01213 -3.73945 0
M  V30 8805 H 807.649 -3.18392 -4.16805 0
M  V30 8806 H 809.123 -1.82695 -5.2089 0
M  V30 8807 H 809.6 -0.348054 -4.37819 0
M  V30 8808 H 810.206 -1.916 -3.79697 0
M  V30 8809 N 808.521 1.23394 -0.980386 0
M  V30 8810 C 809.769 1.91431 -0.647978 0
M  V30 8811 C 810.09 1.76871 0.821066 0
M  V30 8812 O 809.36 1.14808 1.58732 0
M  V30 8813 H 807.94 0.708516 -0.236673 0
M  V30 8814 H 810.602 1.50019 -1.2442 0
M  V30 8815 H 809.698 2.98854 -0.899592 0
M  V30 8816 N 809.999 0.752036 1.385 0
M  V30 8817 C 810.946 0.123288 2.3047 0
M  V30 8818 C 811.916 -0.711326 1.50098 0
M  V30 8819 O 813.101 -0.667775 1.78733 0
M  V30 8820 C 810.241 -0.765085 3.36512 0
M  V30 8821 C 809.354 0.0839885 4.31918 0
M  V30 8822 C 808.489 -0.807243 5.25031 0
M  V30 8823 C 807.528 0.0455583 6.12083 0
M  V30 8824 N 806.665 -0.802547 6.97498 0
M  V30 8825 H 811.505 0.913169 2.83664 0
M  V30 8826 H 809.042 0.46195 1.39658 0
M  V30 8827 H 811 -1.29476 3.966 0
M  V30 8828 H 809.63 -1.52077 2.84732 0
M  V30 8829 H 808.682 0.731276 3.73305 0
M  V30 8830 H 809.994 0.74265 4.9324 0
M  V30 8831 H 809.148 -1.40414 5.90228 0
M  V30 8832 H 807.887 -1.49964 4.64071 0
M  V30 8833 H 806.892 0.655137 5.45883 0
M  V30 8834 H 808.117 0.734994 6.75111 0
M  V30 8835 H 806.063 -1.47992 6.39089 0
M  V30 8836 H 805.98 -0.200747 7.55733 0
M  V30 8837 H 807.248 -1.38447 7.67107 0
M  V30 8838 N 811.477 -1.49425 0.500989 0
M  V30 8839 C 812.702 -2.07356 -0.0425154 0
M  V30 8840 C 813.127 -1.35887 -1.30063 0
M  V30 8841 O 812.485 -0.41561 -1.76472 0
M  V30 8842 C 812.533 -3.59518 -0.279188 0
M  V30 8843 O 811.637 -3.89542 -1.3539 0
M  V30 8844 H 810.978 -0.663482 0.0262207 0
M  V30 8845 H 813.508 -1.92231 0.700607 0
M  V30 8846 H 813.518 -4.04791 -0.5107 0
M  V30 8847 H 812.193 -4.10946 0.640009 0
M  V30 8848 H 810.77 -3.56079 -1.10734 0
M  V30 8849 N 812.955 -0.234822 -1.55841 0
M  V30 8850 C 813.865 0.680828 -2.24504 0
M  V30 8851 C 814.881 1.20306 -1.25708 0
M  V30 8852 O 816.057 1.24188 -1.58554 0
M  V30 8853 C 813.122 1.86636 -2.92178 0
M  V30 8854 C 812.183 1.3848 -4.06352 0
M  V30 8855 C 811.416 2.51382 -4.70789 0
M  V30 8856 O 811.639 3.69831 -4.34259 0
M  V30 8857 O 810.573 2.21828 -5.59532 0
M  V30 8858 H 814.399 0.12583 -3.03439 0
M  V30 8859 H 811.984 -0.00381817 -1.494 0
M  V30 8860 H 813.866 2.55845 -3.34845 0
M  V30 8861 H 812.541 2.40921 -2.16192 0
M  V30 8862 H 811.448 0.660341 -3.68226 0
M  V30 8863 H 812.781 0.888177 -4.8412 0
M  V30 8864 N 814.433 1.57553 0.0384317 0
M  V30 8865 C 815.396 2.04927 1.02653 0
M  V30 8866 C 816.396 0.951768 1.29607 0
M  V30 8867 O 817.586 1.21568 1.24768 0
M  V30 8868 C 814.718 2.45828 2.36181 0
M  V30 8869 H 815.911 2.93474 0.617508 0
M  V30 8870 H 813.464 1.53679 0.285031 0
M  V30 8871 H 814.199 1.60408 2.8185 0
M  V30 8872 H 813.984 3.25945 2.1795 0
M  V30 8873 H 815.474 2.82939 3.0714 0
M  V30 8874 N 815.911 -0.310526 1.54511 0
M  V30 8875 C 816.841 -1.38757 1.878 0
M  V30 8876 C 817.822 -1.53353 0.735991 0
M  V30 8877 O 819.007 -1.67018 0.990887 0
M  V30 8878 C 816.137 -2.75327 2.11689 0
M  V30 8879 C 815.091 -2.75506 3.27537 0
M  V30 8880 C 814.417 -4.15275 3.36824 0
M  V30 8881 C 815.717 -2.38093 4.64875 0
M  V30 8882 H 817.411 -1.11146 2.78005 0
M  V30 8883 H 814.957 -0.533232 1.33763 0
M  V30 8884 H 816.91 -3.50752 2.33562 0
M  V30 8885 H 815.634 -3.04443 1.18245 0
M  V30 8886 H 814.293 -2.02538 3.05572 0
M  V30 8887 H 813.941 -4.41553 2.40915 0
M  V30 8888 H 813.641 -4.16299 4.14692 0
M  V30 8889 H 815.165 -4.92493 3.60947 0
M  V30 8890 H 816.579 -3.03232 4.86542 0
M  V30 8891 H 814.976 -2.50345 5.45387 0
M  V30 8892 H 816.046 -1.33227 4.66239 0
M  V30 8893 N 817.389 -1.46805 -0.573248 0
M  V30 8894 C 818.352 -1.57655 -1.66366 0
M  V30 8895 C 819.352 -0.452905 -1.5429 0
M  V30 8896 O 820.542 -0.717502 -1.58737 0
M  V30 8897 C 817.674 -1.50584 -3.05839 0
M  V30 8898 H 818.867 -2.54842 -1.581 0
M  V30 8899 H 816.42 -1.34756 -0.791868 0
M  V30 8900 H 817.155 -0.547127 -3.19651 0
M  V30 8901 H 816.94 -2.32118 -3.16012 0
M  V30 8902 H 818.43 -1.61282 -3.85199 0
M  V30 8903 N 818.867 0.818669 -1.34668 0
M  V30 8904 C 820.113 1.577 -1.28461 0
M  V30 8905 C 820.468 1.91867 0.143057 0
M  V30 8906 O 819.761 1.57545 1.09041 0
M  V30 8907 C 819.955 2.88245 -2.11304 0
M  V30 8908 C 819.784 2.66831 -3.61982 0
M  V30 8909 C 818.554 2.63346 -4.3125 0
M  V30 8910 C 820.752 2.38049 -4.55892 0
M  V30 8911 N 818.734 2.33522 -5.67751 0
M  V30 8912 C 820.105 2.17957 -5.80426 0
M  V30 8913 C 822.16 2.23812 -4.44761 0
M  V30 8914 C 820.863 1.8507 -6.95084 0
M  V30 8915 C 822.889 1.92321 -5.59255 0
M  V30 8916 C 822.251 1.73056 -6.82811 0
M  V30 8917 H 818.35 0.579284 -0.525314 0
M  V30 8918 H 820.934 0.959336 -1.69425 0
M  V30 8919 H 819.105 3.47927 -1.7263 0
M  V30 8920 H 820.837 3.53677 -1.96709 0
M  V30 8921 H 817.592 2.7757 -3.83734 0
M  V30 8922 H 818.016 2.21438 -6.39761 0
M  V30 8923 H 822.658 2.3741 -3.49852 0
M  V30 8924 H 820.376 1.7021 -7.89971 0
M  V30 8925 H 823.962 1.82031 -5.5259 0
M  V30 8926 H 822.842 1.49042 -7.69907 0
M  V30 8927 N 820.346 1.18468 1.03938 0
M  V30 8928 C 821.623 0.890435 1.74157 0
M  V30 8929 C 822.003 -0.606409 2.02203 0
M  V30 8930 O 821.351 -1.5615 1.66822 0
M  V30 8931 C 821.561 1.73906 3.02585 0
M  V30 8932 C 822.909 1.96686 3.76297 0
M  V30 8933 O 823.933 1.70969 3.12487 0
M  V30 8934 O 822.792 2.39986 4.90988 0
M  V30 8935 H 819.886 0.330889 0.757919 0
M  V30 8936 H 822.432 1.29228 1.09992 0
M  V30 8937 H 821.204 2.75369 2.78006 0
M  V30 8938 H 820.827 1.33581 3.74489 0
M  V30 8939 N 821.824 -1.22873 0.986916 0
M  V30 8940 C 822.754 -2.2688 0.552064 0
M  V30 8941 C 823.735 -1.64883 -0.418048 0
M  V30 8942 O 824.92 -1.9171 -0.30999 0
M  V30 8943 C 822.05 -3.47018 -0.139959 0
M  V30 8944 C 821.004 -4.21411 0.748091 0
M  V30 8945 C 820.33 -5.34645 -0.0765132 0
M  V30 8946 C 821.63 -4.80726 2.04206 0
M  V30 8947 H 823.324 -2.63507 1.42143 0
M  V30 8948 H 820.87 -1.26668 0.68492 0
M  V30 8949 H 822.823 -4.18931 -0.455527 0
M  V30 8950 H 821.547 -3.0947 -1.04382 0
M  V30 8951 H 820.206 -3.51325 1.04721 0
M  V30 8952 H 819.854 -4.93339 -0.981109 0
M  V30 8953 H 819.554 -5.85342 0.514606 0
M  V30 8954 H 821.078 -6.09377 -0.386313 0
M  V30 8955 H 822.492 -5.44612 1.79083 0
M  V30 8956 H 820.889 -5.41737 2.5815 0
M  V30 8957 H 821.959 -4.01109 2.72469 0
M  V30 8958 N 823.302 -0.75937 -1.38099 0
M  V30 8959 C 824.55 -0.317485 -1.99591 0
M  V30 8960 C 824.871 1.10628 -1.60581 0
M  V30 8961 O 824.141 1.7575 -0.865378 0
M  V30 8962 H 822.721 -0.114397 -0.738189 0
M  V30 8963 H 825.383 -0.974749 -1.68774 0
M  V30 8964 H 824.479 -0.385227 -3.09713 0
M  V30 8965 N 824.78 1.49157 -0.508906 0
M  V30 8966 C 825.743 2.27784 0.25434 0
M  V30 8967 C 826.743 1.34132 0.88686 0
M  V30 8968 O 827.933 1.5722 0.750168 0
M  V30 8969 C 825.065 3.12347 1.36573 0
M  V30 8970 H 826.258 2.96718 -0.435714 0
M  V30 8971 H 823.811 1.54052 -0.264128 0
M  V30 8972 H 824.546 2.47997 2.08969 0
M  V30 8973 H 824.331 3.81213 0.917543 0
M  V30 8974 H 825.821 3.71712 1.90315 0
M  V30 8975 N 826.258 0.243083 1.55714 0
M  V30 8976 C 827.188 -0.652336 2.24203 0
M  V30 8977 C 828.169 -1.1843 1.221 0
M  V30 8978 O 829.354 -1.22435 1.50743 0
M  V30 8979 C 826.484 -1.85111 2.93856 0
M  V30 8980 C 825.438 -1.45208 4.02615 0
M  V30 8981 C 824.764 -2.73137 4.59674 0
M  V30 8982 C 826.064 -0.625988 5.18535 0
M  V30 8983 H 827.758 -0.0812504 2.9929 0
M  V30 8984 H 825.304 -0.0376388 1.43951 0
M  V30 8985 H 827.257 -2.48314 3.40468 0
M  V30 8986 H 825.981 -2.44751 2.16251 0
M  V30 8987 H 824.64 -0.843406 3.56766 0
M  V30 8988 H 824.288 -3.30967 3.78774 0
M  V30 8989 H 823.988 -2.47163 5.33089 0
M  V30 8990 H 825.512 -3.37245 5.09017 0
M  V30 8991 H 826.926 -1.16223 5.61396 0
M  V30 8992 H 825.323 -0.462465 5.98315 0
M  V30 8993 H 826.393 0.362652 4.83542 0
M  V30 8994 N 827.736 -1.57571 -0.0300757 0
M  V30 8995 C 828.983 -1.89226 -0.721091 0
M  V30 8996 C 829.311 -0.840244 -1.75414 0
M  V30 8997 O 828.566 0.158906 -1.95054 0
M  V30 8998 C 828.865 -3.27624 -1.42818 0
M  V30 8999 C 828.531 -4.4776 -0.531208 0
M  V30 9000 C 827.193 -4.8036 -0.28415 0
M  V30 9001 C 829.545 -5.21125 0.0881582 0
M  V30 9002 C 826.873 -5.83715 0.591065 0
M  V30 9003 C 829.225 -6.2541 0.95107 0
M  V30 9004 C 827.889 -6.56486 1.2076 0
M  V30 9005 H 827.159 -0.692428 -0.263866 0
M  V30 9006 H 829.806 -1.91491 0.0189874 0
M  V30 9007 H 828.111 -3.21343 -2.24155 0
M  V30 9008 H 829.808 -3.49365 -1.96838 0
M  V30 9009 H 826.398 -4.2227 -0.73392 0
M  V30 9010 H 830.582 -4.96219 -0.0897496 0
M  V30 9011 H 825.838 -6.06168 0.798132 0
M  V30 9012 H 830.012 -6.81402 1.43751 0
M  V30 9013 H 827.639 -7.36395 1.88751 0
M  V30 9014 N 829.214 0.302327 -1.54673 0
M  V30 9015 C 830.439 1.06103 -1.78205 0
M  V30 9016 C 830.864 1.80204 -0.53926 0
M  V30 9017 O 830.222 1.73975 0.510142 0
M  V30 9018 C 830.27 2.01829 -2.98827 0
M  V30 9019 O 829.374 3.10108 -2.71858 0
M  V30 9020 H 828.715 0.30487 -0.589873 0
M  V30 9021 H 831.245 0.340153 -2.01753 0
M  V30 9022 H 831.255 2.44319 -3.2676 0
M  V30 9023 H 829.93 1.473 -3.88942 0
M  V30 9024 H 828.507 2.72142 -2.54937 0
M  V30 9025 N 830.692 1.47107 0.565454 0
M  V30 9026 C 831.932 1.5488 1.33385 0
M  V30 9027 C 832.296 0.202804 1.90926 0
M  V30 9028 O 833.497 0.155345 2.68351 0
M  V30 9029 C 831.768 2.62969 2.42037 0
M  V30 9030 S 833.327 2.90269 3.29074 0
M  V30 9031 H 830.145 0.547008 0.454206 0
M  V30 9032 H 832.747 1.8444 0.648228 0
M  V30 9033 H 831.451 3.59376 1.98185 0
M  V30 9034 H 830.982 2.35197 3.15351 0
M  V30 9035 H 832.997 2.26854 4.41307 0
M  V30 9036 N 832.17 -0.811516 1.35101 0
M  V30 9037 C 833.133 -1.90467 1.27495 0
M  V30 9038 C 834.133 -1.59703 0.187516 0
M  V30 9039 O 835.323 -1.68528 0.440896 0
M  V30 9040 C 832.455 -3.26774 0.971154 0
M  V30 9041 H 833.648 -1.98631 2.2469 0
M  V30 9042 H 831.201 -1.00681 1.19553 0
M  V30 9043 H 831.936 -3.243 0.0028557 0
M  V30 9044 H 831.721 -3.50488 1.75785 0
M  V30 9045 H 833.211 -4.06804 0.943414 0
M  V30 9046 N 833.648 -1.19017 -1.03309 0
M  V30 9047 C 834.895 -0.990214 -1.76638 0
M  V30 9048 C 835.223 0.479435 -1.88498 0
M  V30 9049 O 834.478 1.37223 -1.39529 0
M  V30 9050 C 834.777 -1.59927 -3.19622 0
M  V30 9051 C 834.443 -3.09632 -3.27779 0
M  V30 9052 C 833.105 -3.50491 -3.29712 0
M  V30 9053 C 835.457 -4.05644 -3.27264 0
M  V30 9054 C 832.785 -4.85921 -3.28782 0
M  V30 9055 C 835.137 -5.41 -3.27875 0
M  V30 9056 C 833.801 -5.81295 -3.28104 0
M  V30 9057 H 833.071 -0.362345 -0.646364 0
M  V30 9058 H 835.718 -1.48197 -1.21284 0
M  V30 9059 H 834.023 -1.0297 -3.78027 0
M  V30 9060 H 835.72 -1.41989 -3.7502 0
M  V30 9061 H 832.31 -2.77073 -3.26999 0
M  V30 9062 H 836.494 -3.75124 -3.24955 0
M  V30 9063 H 831.75 -5.16427 -3.27281 0
M  V30 9064 H 835.924 -6.15157 -3.26428 0
M  V30 9065 H 833.551 -6.86211 -3.27138 0
M  V30 9066 N 835.127 1.22348 -0.993418 0
M  V30 9067 C 836.075 2.26315 -0.537052 0
M  V30 9068 C 837.069 1.643 0.412545 0
M  V30 9069 O 838.275 1.77729 0.285008 0
M  V30 9070 H 834.65 0.735792 -0.155286 0
M  V30 9071 H 836.621 2.62157 -1.42535 0
M  V30 9072 C 835.37 3.47449 0.132118 0
M  V30 9073 H 834.693 3.9543 -0.589519 0
M  V30 9074 H 836.133 4.21965 0.414884 0
M  V30 9075 C 834.592 3.07893 1.36761 0
M  V30 9076 O 835.122 3.17338 2.46291 0
M  V30 9077 N 833.328 2.62672 1.24305 0
M  V30 9078 H 832.875 2.55186 0.351826 0
M  V30 9079 H 832.833 2.36574 2.07076 0
M  V30 9080 N 836.605 0.766683 1.37694 0
M  V30 9081 C 838.016 0.394761 1.82479 0
M  V30 9082 C 838.367 -1.07842 1.63904 0
M  V30 9083 O 837.492 -1.83479 1.14737 0
M  V30 9084 C 838.087 0.70974 3.31283 0
M  V30 9085 C 836.646 0.390936 3.74364 0
M  V30 9086 C 835.793 0.956192 2.60293 0
M  V30 9087 H 838.744 0.961756 1.26238 0
M  V30 9088 H 838.765 -0.00742144 3.80499 0
M  V30 9089 H 838.277 1.782 3.4477 0
M  V30 9090 H 836.378 -0.674213 3.66449 0
M  V30 9091 H 836.491 0.895645 4.70654 0
M  V30 9092 H 834.855 0.380744 2.51838 0
M  V30 9093 H 835.638 2.03375 2.76575 0
M  V30 9094 N 838.083 -1.48885 0.516809 0
M  V30 9095 C 839.03 -2.29408 -0.253125 0
M  V30 9096 C 840 -1.36533 -0.945935 0
M  V30 9097 O 841.185 -1.65495 -0.949527 0
M  V30 9098 C 838.325 -3.19592 -1.30211 0
M  V30 9099 C 837.438 -4.27535 -0.61948 0
M  V30 9100 C 836.573 -5.04916 -1.65026 0
M  V30 9101 C 835.612 -6.04677 -0.950368 0
M  V30 9102 N 834.749 -6.75164 -1.92608 0
M  V30 9103 H 839.589 -2.94738 0.439744 0
M  V30 9104 H 837.126 -1.45311 0.2287 0
M  V30 9105 H 839.084 -3.70267 -1.92245 0
M  V30 9106 H 837.714 -2.56213 -1.96353 0
M  V30 9107 H 836.766 -3.80228 0.114505 0
M  V30 9108 H 838.078 -4.98752 -0.0693016 0
M  V30 9109 H 837.232 -5.59539 -2.34523 0
M  V30 9110 H 835.971 -4.33508 -2.23432 0
M  V30 9111 H 834.976 -5.4927 -0.241252 0
M  V30 9112 H 836.201 -6.78077 -0.372599 0
M  V30 9113 H 834.147 -6.06517 -2.49946 0
M  V30 9114 H 834.064 -7.4241 -1.42699 0
M  V30 9115 H 835.332 -7.34384 -2.61345 0
M  V30 9116 N 839.561 -0.251338 -1.55583 0
M  V30 9117 C 840.807 0.37272 -1.99346 0
M  V30 9118 C 841.14 1.57266 -1.13934 0
M  V30 9119 O 840.415 1.9343 -0.20377 0
M  V30 9120 C 840.698 0.778245 -3.5159 0
M  V30 9121 C 840.551 -0.427394 -4.47765 0
M  V30 9122 C 841.87 1.62358 -4.09057 0
M  V30 9123 H 838.989 0.134002 -0.724715 0
M  V30 9124 H 841.631 -0.353536 -1.86682 0
M  V30 9125 H 839.781 1.39704 -3.62512 0
M  V30 9126 H 841.453 -1.06586 -4.48818 0
M  V30 9127 H 839.696 -1.06972 -4.20404 0
M  V30 9128 H 840.367 -0.10025 -5.51909 0
M  V30 9129 H 842.843 1.1012 -4.01264 0
M  V30 9130 H 841.719 1.87617 -5.1584 0
M  V30 9131 H 841.98 2.59688 -3.57791 0
M  V30 9132 N 841.039 1.57585 0.0217189 0
M  V30 9133 C 842.285 1.89887 0.712099 0
M  V30 9134 C 842.618 0.849971 1.74611 0
M  V30 9135 O 841.893 -0.13407 1.94037 0
M  V30 9136 C 842.176 3.32815 1.37499 0
M  V30 9137 C 842.029 4.48405 0.353993 0
M  V30 9138 C 843.348 3.74786 2.30703 0
M  V30 9139 H 840.467 0.690588 0.257405 0
M  V30 9140 H 843.109 1.89983 -0.0251145 0
M  V30 9141 H 841.259 3.32863 2.00335 0
M  V30 9142 H 842.931 4.60491 -0.273015 0
M  V30 9143 H 841.174 4.32573 -0.32599 0
M  V30 9144 H 841.845 5.45316 0.85644 0
M  V30 9145 H 844.321 3.76151 1.77904 0
M  V30 9146 H 843.197 4.75585 2.74061 0
M  V30 9147 H 843.458 3.07449 3.17691 0
M  V30 9148 N 842.517 -0.29412 1.54831 0
M  V30 9149 C 843.757 -1.03635 1.76179 0
M  V30 9150 C 844.121 -1.84251 0.539953 0
M  V30 9151 O 845.322 -2.61282 0.631295 0
M  V30 9152 C 843.593 -1.91275 3.01909 0
M  V30 9153 S 845.152 -2.7205 3.44288 0
M  V30 9154 H 841.97 -0.349403 0.619224 0
M  V30 9155 H 844.572 -0.309006 1.93042 0
M  V30 9156 H 843.276 -1.30937 3.88952 0
M  V30 9157 H 842.807 -2.68365 2.87652 0
M  V30 9158 H 844.822 -3.93791 3.01899 0
M  V30 9159 N 843.995 -1.47404 -0.557645 0
M  V30 9160 C 844.928 -1.54399 -1.68036 0
M  V30 9161 C 845.906 -0.396175 -1.577 0
M  V30 9162 O 847.09 -0.603911 -1.78564 0
M  V30 9163 C 844.217 -1.44611 -3.06277 0
M  V30 9164 C 843.263 -2.63889 -3.35059 0
M  V30 9165 S 844.096 -4.26086 -3.24362 0
M  V30 9166 C 845.252 -4.1885 -4.65097 0
M  V30 9167 H 845.485 -2.49384 -1.61849 0
M  V30 9168 H 843.018 -1.35597 -0.738429 0
M  V30 9169 H 844.976 -1.39651 -3.86015 0
M  V30 9170 H 843.637 -0.510114 -3.0993 0
M  V30 9171 H 842.83 -2.53103 -4.35838 0
M  V30 9172 H 842.432 -2.65969 -2.62938 0
M  V30 9173 H 844.724 -3.87077 -5.56037 0
M  V30 9174 H 845.667 -5.19714 -4.8094 0
M  V30 9175 H 846.075 -3.49717 -4.43123 0
M  V30 9176 N 845.473 0.80434 -1.35529 0
M  V30 9177 C 846.75 1.5486 -1.1949 0
M  V30 9178 C 847.13 2.09897 0.22506 0
M  V30 9179 O 846.478 1.92643 1.22886 0
M  V30 9180 C 846.688 2.65535 -2.26478 0
M  V30 9181 C 848.036 3.33814 -2.62399 0
M  V30 9182 O 849.06 2.75807 -2.25409 0
M  V30 9183 O 847.919 4.38612 -3.26009 0
M  V30 9184 H 845.013 0.68433 -0.464351 0
M  V30 9185 H 847.559 0.844107 -1.47217 0
M  V30 9186 H 846.331 2.22754 -3.21709 0
M  V30 9187 H 845.954 3.43617 -2.00033 0
M  V30 9188 N 846.951 1.19563 1.02676 0
M  V30 9189 C 847.898 0.935291 2.11 0
M  V30 9190 C 848.868 -0.130685 1.65585 0
M  V30 9191 O 850.053 0.0119062 1.90796 0
M  V30 9192 C 847.193 0.482384 3.41712 0
M  V30 9193 C 846.306 1.61537 4.00662 0
M  V30 9194 C 845.441 1.11378 5.19392 0
M  V30 9195 C 844.48 2.22052 5.70403 0
M  V30 9196 N 843.617 1.73185 6.80405 0
M  V30 9197 H 848.457 1.86275 2.32606 0
M  V30 9198 H 845.994 0.928656 1.14081 0
M  V30 9199 H 847.952 0.20118 4.16715 0
M  V30 9200 H 846.582 -0.408086 3.2021 0
M  V30 9201 H 845.634 2.01173 3.22852 0
M  V30 9202 H 846.946 2.44912 4.34534 0
M  V30 9203 H 846.1 0.787935 6.01562 0
M  V30 9204 H 844.839 0.249789 4.8706 0
M  V30 9205 H 843.844 2.55465 4.86845 0
M  V30 9206 H 845.069 3.08911 6.04774 0
M  V30 9207 H 843.015 0.890973 6.49921 0
M  V30 9208 H 842.932 2.50148 7.13416 0
M  V30 9209 H 844.2 1.4357 7.66164 0
M  V30 9210 N 848.429 -1.21819 0.999893 0
M  V30 9211 C 849.659 -1.94475 0.697346 0
M  V30 9212 C 850.067 -1.73991 -0.743228 0
M  V30 9213 O 849.41 -1.04042 -1.51397 0
M  V30 9214 C 849.472 -3.47204 0.932181 0
M  V30 9215 C 849.136 -3.91432 2.3586 0
M  V30 9216 C 850.133 -3.98545 3.33853 0
M  V30 9217 C 847.818 -4.23888 2.69489 0
M  V30 9218 C 849.812 -4.37499 4.63545 0
M  V30 9219 C 847.499 -4.62519 3.99399 0
M  V30 9220 C 848.497 -4.69294 4.96238 0
M  V30 9221 O 848.185 -5.07048 6.23825 0
M  V30 9222 H 847.917 -0.625419 0.256567 0
M  V30 9223 H 850.471 -1.55728 1.33933 0
M  V30 9224 H 848.701 -3.85997 0.233025 0
M  V30 9225 H 850.39 -4.01078 0.623807 0
M  V30 9226 H 851.156 -3.73654 3.09205 0
M  V30 9227 H 847.035 -4.17815 1.94812 0
M  V30 9228 H 850.579 -4.42702 5.3913 0
M  V30 9229 H 846.476 -4.86864 4.23833 0
M  V30 9230 H 847.244 -5.25098 6.27865 0
M  V30 9231 N 849.908 -0.773975 -1.37286 0
M  V30 9232 C 851.324 -0.45386 -1.53011 0
M  V30 9233 C 851.524 1.03018 -1.73175 0
M  V30 9234 O 850.58 1.81597 -1.75438 0
M  V30 9235 C 851.893 -1.27087 -2.72524 0
M  V30 9236 C 853.441 -1.26299 -2.86387 0
M  V30 9237 C 853.916 -2.0634 -4.08886 0
M  V30 9238 N 855.407 -2.03706 -4.16003 0
M  V30 9239 C 856.142 -2.62418 -5.09828 0
M  V30 9240 N 855.638 -3.29926 -6.09197 0
M  V30 9241 N 857.431 -2.52236 -5.02328 0
M  V30 9242 H 849.582 -1.73551 -1.22449 0
M  V30 9243 H 851.845 -0.736874 -0.596423 0
M  V30 9244 H 851.551 -2.32263 -2.64096 0
M  V30 9245 H 851.425 -0.90157 -3.66267 0
M  V30 9246 H 853.812 -0.219213 -2.94285 0
M  V30 9247 H 853.893 -1.67195 -1.93596 0
M  V30 9248 H 853.537 -3.10741 -4.01749 0
M  V30 9249 H 853.467 -1.62825 -5.00795 0
M  V30 9250 H 855.958 -1.54559 -3.44848 0
M  V30 9251 H 856.271 -3.72095 -6.77322 0
M  V30 9252 H 854.616 -3.34026 -6.09469 0
M  V30 9253 H 857.807 -1.99108 -4.23643 0
M  V30 9254 H 857.98 -2.98286 -5.75265 0
M  V30 9255 N 851.386 1.48609 -0.524698 0
M  V30 9256 C 852.316 2.32366 0.229837 0
M  V30 9257 C 853.297 1.41759 0.940129 0
M  V30 9258 O 854.482 1.7065 0.926936 0
M  V30 9259 C 851.612 3.22835 1.28043 0
M  V30 9260 C 850.566 4.22424 0.688603 0
M  V30 9261 C 849.892 5.0199 1.84146 0
M  V30 9262 C 851.192 5.21217 -0.336176 0
M  V30 9263 H 852.886 2.95698 -0.469339 0
M  V30 9264 H 850.432 1.42197 -0.227156 0
M  V30 9265 H 852.385 3.80253 1.8162 0
M  V30 9266 H 851.109 2.57492 2.00912 0
M  V30 9267 H 849.768 3.66185 0.174402 0
M  V30 9268 H 849.416 4.33076 2.5584 0
M  V30 9269 H 849.116 5.69392 1.45142 0
M  V30 9270 H 850.64 5.62259 2.38111 0
M  V30 9271 H 852.054 5.7319 0.112307 0
M  V30 9272 H 850.451 5.96642 -0.643324 0
M  V30 9273 H 851.521 4.68676 -1.24381 0
M  V30 9274 N 852.864 0.259585 1.55447 0
M  V30 9275 C 854.089 -0.368317 2.04103 0
M  V30 9276 C 854.514 -1.49827 1.13725 0
M  V30 9277 O 853.872 -1.80814 0.132705 0
M  V30 9278 C 853.92 -0.841506 3.50644 0
M  V30 9279 O 853.024 -1.95008 3.63381 0
M  V30 9280 H 852.365 -0.0785227 0.659341 0
M  V30 9281 H 854.895 0.389349 2.00861 0
M  V30 9282 H 854.905 -1.14138 3.9171 0
M  V30 9283 H 853.58 -0.0147001 4.15897 0
M  V30 9284 H 852.157 -1.65393 3.34215 0
M  V30 9285 N 854.342 -1.57594 -0.0133615 0
M  V30 9286 C 855.582 -1.91834 -0.705639 0
M  V30 9287 C 855.946 -0.859801 -1.71672 0
M  V30 9288 O 857.147 -1.08702 -2.4584 0
M  V30 9289 C 855.418 -3.31174 -1.34383 0
M  V30 9290 S 856.977 -3.87275 -2.06309 0
M  V30 9291 H 853.795 -0.671598 -0.233404 0
M  V30 9292 H 856.397 -1.95459 0.0401173 0
M  V30 9293 H 855.101 -4.06065 -0.594939 0
M  V30 9294 H 854.632 -3.3089 -2.12781 0
M  V30 9295 H 856.647 -3.67271 -3.33657 0
M  V30 9296 N 855.82 0.285905 -1.54985 0
M  V30 9297 C 856.75 1.35752 -1.89983 0
M  V30 9298 C 857.731 1.52163 -0.760295 0
M  V30 9299 O 858.916 1.65421 -1.01733 0
M  V30 9300 C 856.046 2.71925 -2.16042 0
M  V30 9301 C 855 2.70261 -3.31878 0
M  V30 9302 C 854.326 4.09864 -3.43388 0
M  V30 9303 C 855.626 2.30667 -4.68604 0
M  V30 9304 H 857.32 1.06709 -2.79738 0
M  V30 9305 H 854.866 0.511884 -1.34595 0
M  V30 9306 H 856.819 3.46992 -2.39113 0
M  V30 9307 H 855.543 3.02523 -1.23074 0
M  V30 9308 H 854.202 1.97651 -3.08755 0
M  V30 9309 H 853.85 4.37664 -2.47909 0
M  V30 9310 H 853.55 4.09648 -4.21262 0
M  V30 9311 H 855.074 4.86689 -3.68736 0
M  V30 9312 H 856.488 2.95453 -4.91305 0
M  V30 9313 H 854.885 2.41637 -5.49301 0
M  V30 9314 H 855.955 1.25793 -4.68299 0
M  V30 9315 N 857.298 1.47698 0.54982 0
M  V30 9316 C 858.208 1.63386 1.68351 0
M  V30 9317 C 859.224 0.516583 1.66155 0
M  V30 9318 O 860.4 0.785088 1.85468 0
M  V30 9319 C 857.465 1.6513 3.04849 0
M  V30 9320 C 856.526 2.88338 3.18056 0
M  V30 9321 C 855.759 2.8999 4.48042 0
M  V30 9322 O 855.982 2.00633 5.3395 0
M  V30 9323 O 854.916 3.81938 4.65196 0
M  V30 9324 H 858.742 2.59329 1.58057 0
M  V30 9325 H 856.327 1.30869 0.72067 0
M  V30 9326 H 858.209 1.68913 3.86065 0
M  V30 9327 H 856.884 0.723555 3.1551 0
M  V30 9328 H 855.791 2.90097 2.36209 0
M  V30 9329 H 857.124 3.80431 3.12302 0
M  V30 9330 N 858.776 -0.797141 1.35954 0
M  V30 9331 C 859.686 -1.94088 1.31784 0
M  V30 9332 C 860.702 -1.72588 0.221227 0
M  V30 9333 O 861.878 -1.96256 0.452255 0
M  V30 9334 C 858.943 -3.28828 1.09878 0
M  V30 9335 C 858.004 -3.63158 2.28942 0
M  V30 9336 C 857.237 -4.91469 2.08072 0
M  V30 9337 O 857.46 -5.60616 1.05196 0
M  V30 9338 O 856.394 -5.24277 2.95664 0
M  V30 9339 H 860.22 -2.00554 2.28061 0
M  V30 9340 H 857.805 -0.936288 1.16422 0
M  V30 9341 H 859.687 -4.09473 0.995485 0
M  V30 9342 H 858.362 -3.23271 0.16659 0
M  V30 9343 H 857.269 -2.82851 2.44839 0
M  V30 9344 H 858.602 -3.7343 3.20641 0
M  V30 9345 N 860.254 -1.20106 -1.0204 0
M  V30 9346 C 861.164 -0.962051 -2.13967 0
M  V30 9347 C 862.18 0.0808053 -1.73812 0
M  V30 9348 O 863.356 -0.105774 -2.01122 0
M  V30 9349 C 860.421 -0.513108 -3.42882 0
M  V30 9350 C 859.482 -1.62636 -3.97301 0
M  V30 9351 C 858.715 -1.19875 -5.20063 0
M  V30 9352 O 858.938 -0.0658423 -5.70362 0
M  V30 9353 O 857.872 -2.00467 -5.67536 0
M  V30 9354 H 861.698 -1.8991 -2.36998 0
M  V30 9355 H 859.283 -0.984608 -1.12365 0
M  V30 9356 H 861.165 -0.271797 -4.20523 0
M  V30 9357 H 859.84 0.395402 -3.21276 0
M  V30 9358 H 858.747 -1.92192 -3.20957 0
M  V30 9359 H 860.08 -2.51174 -4.23288 0
M  V30 9360 N 861.732 1.21287 -1.00634 0
M  V30 9361 C 863.148 1.42467 -0.719389 0
M  V30 9362 C 863.348 1.88767 0.704927 0
M  V30 9363 O 862.404 2.05004 1.47409 0
M  V30 9364 C 863.717 2.455 -1.73639 0
M  V30 9365 C 865.265 2.59281 -1.75335 0
M  V30 9366 C 865.74 3.65547 -2.75934 0
M  V30 9367 N 867.231 3.73019 -2.74611 0
M  V30 9368 C 867.966 4.54873 -3.4911 0
M  V30 9369 N 867.462 5.40614 -4.33253 0
M  V30 9370 N 869.255 4.49309 -3.37754 0
M  V30 9371 H 861.406 0.895454 -1.92602 0
M  V30 9372 H 863.669 0.455491 -0.831404 0
M  V30 9373 H 863.375 2.18455 -2.75627 0
M  V30 9374 H 863.249 3.44325 -1.54014 0
M  V30 9375 H 865.636 2.85661 -0.740377 0
M  V30 9376 H 865.717 1.60685 -1.99032 0
M  V30 9377 H 865.361 3.39911 -3.77389 0
M  V30 9378 H 865.291 4.63741 -2.49503 0
M  V30 9379 H 867.782 3.11766 -2.13565 0
M  V30 9380 H 868.095 6.0013 -4.86892 0
M  V30 9381 H 866.44 5.40151 -4.37335 0
M  V30 9382 H 869.631 3.81357 -2.71449 0
M  V30 9383 H 869.804 5.12867 -3.9607 0
M  V30 9384 N 863.21 0.781244 1.36873 0
M  V30 9385 C 864.14 0.188128 2.32741 0
M  V30 9386 C 865.121 -0.672326 1.56249 0
M  V30 9387 O 866.306 -0.607835 1.84442 0
M  V30 9388 C 863.436 -0.684341 3.40491 0
M  V30 9389 C 862.39 0.0755641 4.27933 0
M  V30 9390 C 861.716 -0.916968 5.26779 0
M  V30 9391 C 863.016 1.26006 5.06873 0
M  V30 9392 H 864.71 0.989016 2.82593 0
M  V30 9393 H 862.256 0.477038 1.35869 0
M  V30 9394 H 864.209 -1.10915 4.06541 0
M  V30 9395 H 862.933 -1.51785 2.89187 0
M  V30 9396 H 861.592 0.481258 3.63427 0
M  V30 9397 H 861.24 -1.74528 4.71751 0
M  V30 9398 H 860.94 -0.413 5.86147 0
M  V30 9399 H 862.464 -1.34052 5.95703 0
M  V30 9400 H 863.878 0.911425 5.66009 0
M  V30 9401 H 862.275 1.69676 5.75613 0
M  V30 9402 H 863.345 2.05948 4.38991 0
M  V30 9403 N 864.689 -1.48329 0.532571 0
M  V30 9404 C 865.619 -2.32485 -0.217511 0
M  V30 9405 C 866.6 -1.42255 -0.932598 0
M  V30 9406 O 867.785 -1.7114 -0.917873 0
M  V30 9407 C 864.915 -3.23509 -1.26329 0
M  V30 9408 C 863.869 -4.22784 -0.666191 0
M  V30 9409 C 863.195 -5.0296 -1.81482 0
M  V30 9410 C 864.495 -5.21031 0.363813 0
M  V30 9411 H 866.189 -2.95445 0.485014 0
M  V30 9412 H 863.735 -1.42075 0.234694 0
M  V30 9413 H 865.688 -3.81211 -1.79601 0
M  V30 9414 H 864.412 -2.58554 -1.99543 0
M  V30 9415 H 863.071 -3.66272 -0.15498 0
M  V30 9416 H 862.719 -4.34427 -2.5354 0
M  V30 9417 H 862.419 -5.70154 -1.4212 0
M  V30 9418 H 863.943 -5.63514 -2.35126 0
M  V30 9419 H 865.357 -5.73241 -0.0819079 0
M  V30 9420 H 863.754 -5.96292 0.674956 0
M  V30 9421 H 864.824 -4.6801 1.26865 0
M  V30 9422 N 866.167 -0.267825 -1.55308 0
M  V30 9423 C 867.097 0.616585 -2.25212 0
M  V30 9424 C 868.078 1.16472 -1.23969 0
M  V30 9425 O 869.263 1.20021 -1.52672 0
M  V30 9426 C 866.393 1.80412 -2.96764 0
M  V30 9427 C 865.347 1.38784 -4.04874 0
M  V30 9428 C 864.673 2.65789 -4.63961 0
M  V30 9429 C 865.973 0.543415 -5.19465 0
M  V30 9430 H 867.667 0.0336257 -2.99381 0
M  V30 9431 H 865.213 0.0147328 -1.43992 0
M  V30 9432 H 867.166 2.42866 -3.44375 0
M  V30 9433 H 865.89 2.4128 -2.20118 0
M  V30 9434 H 864.549 0.786541 -3.58063 0
M  V30 9435 H 864.197 3.24899 -3.83992 0
M  V30 9436 H 863.897 2.38651 -5.36954 0
M  V30 9437 H 865.421 3.29104 -5.14318 0
M  V30 9438 H 866.835 1.07277 -5.63174 0
M  V30 9439 H 865.232 0.367219 -5.98975 0
M  V30 9440 H 866.302 -0.439534 -4.82904 0
M  V30 9441 N 867.645 1.57599 0.00500368 0
M  V30 9442 C 868.891 1.90631 0.691919 0
M  V30 9443 C 869.224 0.868443 1.737 0
M  V30 9444 O 868.499 -0.113482 1.94169 0
M  V30 9445 C 868.782 3.34255 1.33961 0
M  V30 9446 C 868.635 4.48755 0.306413 0
M  V30 9447 C 869.954 3.77211 2.26715 0
M  V30 9448 H 867.073 0.693279 0.250066 0
M  V30 9449 H 869.715 1.89946 -0.0452634 0
M  V30 9450 H 867.865 3.3497 1.96793 0
M  V30 9451 H 869.537 4.60176 -0.321841 0
M  V30 9452 H 867.78 4.32203 -0.371852 0
M  V30 9453 H 868.451 5.46193 0.798554 0
M  V30 9454 H 870.927 3.78017 1.73904 0
M  V30 9455 H 869.803 4.78466 2.69002 0
M  V30 9456 H 870.064 3.10801 3.14413 0
M  V30 9457 N 869.123 -0.277682 1.55134 0
M  V30 9458 C 870.369 -1.0114 1.7578 0
M  V30 9459 C 870.702 -1.86109 0.554719 0
M  V30 9460 O 869.977 -1.89275 -0.447813 0
M  V30 9461 C 870.26 -1.89789 3.06027 0
M  V30 9462 C 870.113 -1.07844 4.3668 0
M  V30 9463 C 871.432 -2.88577 3.32282 0
M  V30 9464 H 868.551 -0.366277 0.639539 0
M  V30 9465 H 871.193 -0.284155 1.87863 0
M  V30 9466 H 869.343 -2.51796 2.95856 0
M  V30 9467 H 871.015 -0.479432 4.58802 0
M  V30 9468 H 869.258 -0.381764 4.32117 0
M  V30 9469 H 869.929 -1.73179 5.24131 0
M  V30 9470 H 872.405 -2.36702 3.42215 0
M  V30 9471 H 871.281 -3.47749 4.2469 0
M  V30 9472 H 871.542 -3.63458 2.51696 0
M  V30 9473 N 870.601 -1.47988 -0.541979 0
M  V30 9474 C 871.829 -1.59034 -1.32347 0
M  V30 9475 C 872.244 -0.246123 -1.87189 0
M  V30 9476 O 871.601 0.762889 -1.6579 0
M  V30 9477 C 871.652 -2.62759 -2.48274 0
M  V30 9478 O 871.373 -3.91963 -1.95695 0
M  V30 9479 C 872.874 -2.84133 -3.4027 0
M  V30 9480 H 870.094 -0.536574 -0.402901 0
M  V30 9481 H 872.638 -1.93725 -0.655045 0
M  V30 9482 H 870.793 -2.3096 -3.11025 0
M  V30 9483 H 871.207 -4.48769 -2.7149 0
M  V30 9484 H 872.681 -3.60538 -4.17991 0
M  V30 9485 H 873.158 -1.92512 -3.9476 0
M  V30 9486 H 873.764 -3.17188 -2.83322 0
M  V30 9487 N 872.079 0.78992 -1.36375 0
M  V30 9488 C 873.304 1.58389 -1.33895 0
M  V30 9489 C 873.729 1.8794 0.0774934 0
M  V30 9490 O 873.087 1.4785 1.0493 0
M  V30 9491 C 873.135 2.88201 -2.16732 0
M  V30 9492 O 872.239 3.81778 -1.55946 0
M  V30 9493 H 871.58 0.480471 -0.458305 0
M  V30 9494 H 874.11 0.979119 -1.79651 0
M  V30 9495 H 874.12 3.37475 -2.29292 0
M  V30 9496 H 872.795 2.66019 -3.19698 0
M  V30 9497 H 871.372 3.40371 -1.52323 0
M  V30 9498 N 873.557 1.20646 1.01402 0
M  V30 9499 C 874.785 1.04389 1.78635 0
M  V30 9500 C 875.2 -0.406771 1.84366 0
M  V30 9501 O 874.557 -1.28239 1.2985 0
M  V30 9502 C 874.608 1.62378 3.22979 0
M  V30 9503 O 874.329 3.01768 3.17597 0
M  V30 9504 C 875.83 1.5111 4.1675 0
M  V30 9505 H 873.05 0.367077 0.56169 0
M  V30 9506 H 875.594 1.59789 1.27624 0
M  V30 9507 H 873.749 1.11092 3.7113 0
M  V30 9508 H 874.163 3.29331 4.08217 0
M  V30 9509 H 875.637 1.96441 5.15863 0
M  V30 9510 H 876.114 0.464011 4.36742 0
M  V30 9511 H 876.72 2.01599 3.74483 0
M  V30 9512 N 875.035 -1.20752 1.01276 0
M  V30 9513 C 876.282 -1.90021 0.699887 0
M  V30 9514 C 876.61 -1.78604 -0.770113 0
M  V30 9515 O 875.865 -1.16195 -1.57471 0
M  V30 9516 C 876.164 -3.40808 1.07633 0
M  V30 9517 C 875.83 -3.72423 2.54189 0
M  V30 9518 C 874.492 -3.80762 2.94234 0
M  V30 9519 C 876.844 -3.87025 3.49086 0
M  V30 9520 C 874.172 -4.01158 4.28123 0
M  V30 9521 C 876.524 -4.0893 4.82658 0
M  V30 9522 C 875.188 -4.15498 5.22415 0
M  V30 9523 H 874.458 -0.695335 0.256107 0
M  V30 9524 H 877.105 -1.43096 1.27263 0
M  V30 9525 H 875.41 -3.89521 0.421944 0
M  V30 9526 H 877.107 -3.92693 0.811997 0
M  V30 9527 H 873.697 -3.66529 2.22158 0
M  V30 9528 H 877.881 -3.79942 3.19309 0
M  V30 9529 H 873.137 -4.04476 4.58486 0
M  V30 9530 H 877.311 -4.19172 5.56119 0
M  V30 9531 H 874.938 -4.31055 6.26176 0
M  V30 9532 N 876.513 -0.788492 -1.36457 0
M  V30 9533 C 877.761 -0.359749 -1.98872 0
M  V30 9534 C 878.082 1.07197 -1.62892 0
M  V30 9535 O 877.352 1.73875 -0.902463 0
M  V30 9536 H 875.932 -0.130029 -0.735596 0
M  V30 9537 H 878.594 -1.01033 -1.66668 0
M  V30 9538 H 877.69 -0.450835 -3.08827 0
M  V30 9539 N 877.991 1.48044 -0.54043 0
M  V30 9540 C 878.939 2.31461 0.229862 0
M  V30 9541 C 879.933 1.41884 0.925495 0
M  V30 9542 O 881.139 1.58736 0.848689 0
M  V30 9543 H 877.514 0.746227 0.0929975 0
M  V30 9544 H 879.485 2.94297 -0.493118 0
M  V30 9545 C 878.234 3.24172 1.25729 0
M  V30 9546 H 877.557 3.93052 0.731426 0
M  V30 9547 H 878.997 3.85404 1.76747 0
M  V30 9548 C 877.456 2.4651 2.2964 0
M  V30 9549 O 877.986 2.19742 3.36268 0
M  V30 9550 N 876.192 2.07817 2.03127 0
M  V30 9551 H 875.739 2.29786 1.1643 0
M  V30 9552 H 875.697 1.56168 2.72872 0
M  V30 9553 N 879.47 0.276058 1.55163 0
M  V30 9554 C 880.718 -0.339782 1.99223 0
M  V30 9555 C 881.039 -1.56307 1.16589 0
M  V30 9556 O 880.309 -1.94225 0.25564 0
M  V30 9557 H 878.889 -0.128534 0.735859 0
M  V30 9558 H 881.551 0.381612 1.91128 0
M  V30 9559 H 880.647 -0.629 3.05696 0
M  V30 9560 N 880.948 -1.576 0.00335426 0
M  V30 9561 C 882.225 -1.81945 -0.718015 0
M  V30 9562 C 882.605 -0.881788 -1.91801 0
M  V30 9563 O 881.953 0.0687118 -2.28397 0
M  V30 9564 C 882.163 -3.30521 -1.12058 0
M  V30 9565 C 883.511 -3.96345 -1.52303 0
M  V30 9566 O 884.535 -3.34864 -1.21428 0
M  V30 9567 O 883.394 -5.04655 -2.09728 0
M  V30 9568 H 880.488 -0.749328 -0.34991 0
M  V30 9569 H 883.034 -1.69675 0.0290654 0
M  V30 9570 H 881.806 -3.90399 -0.265378 0
M  V30 9571 H 881.429 -3.47802 -1.92665 0
M  V30 9572 N 882.426 0.269451 -1.5528 0
M  V30 9573 C 883.666 1.00819 -1.77806 0
M  V30 9574 C 884.03 1.83369 -0.569198 0
M  V30 9575 O 885.231 2.60244 -0.672783 0
M  V30 9576 C 883.502 1.86447 -3.04913 0
M  V30 9577 S 885.061 2.66538 -3.48573 0
M  V30 9578 H 881.879 0.339508 -0.624704 0
M  V30 9579 H 884.481 0.278256 -1.9351 0
M  V30 9580 H 883.185 1.24733 -3.90986 0
M  V30 9581 H 882.716 2.63755 -2.91885 0
M  V30 9582 H 884.731 3.88938 -3.08126 0
M  V30 9583 N 883.904 1.48273 0.534124 0
M  V30 9584 C 885.315 1.49667 1.1161 0
M  V30 9585 C 885.666 0.264139 1.94414 0
M  V30 9586 O 884.791 -0.629084 2.07054 0
M  V30 9587 C 885.386 2.71191 2.03079 0
M  V30 9588 C 883.945 2.7547 2.56502 0
M  V30 9589 C 883.092 2.43119 1.33373 0
M  V30 9590 H 886.043 1.55449 0.319578 0
M  V30 9591 H 886.064 2.49473 2.87304 0
M  V30 9592 H 885.576 3.60879 1.42785 0
M  V30 9593 H 883.677 1.89979 3.20529 0
M  V30 9594 H 883.79 3.76787 2.95919 0
M  V30 9595 H 882.154 1.94187 1.64813 0
M  V30 9596 H 882.937 3.35044 0.748375 0
M  V30 9597 N 885.382 -0.782676 1.36792 0
M  V30 9598 C 886.63 -1.53778 1.31136 0
M  V30 9599 C 886.951 -1.94706 -0.107014 0
M  V30 9600 O 886.221 -1.65465 -1.04872 0
M  V30 9601 H 884.801 -0.570328 0.482426 0
M  V30 9602 H 887.463 -0.932181 1.71162 0
M  V30 9603 H 886.559 -2.44224 1.94321 0
M  V30 9604 N 886.86 -1.21182 -1.00761 0
M  V30 9605 C 887.808 -0.965728 -2.11604 0
M  V30 9606 C 888.802 0.0861028 -1.69181 0
M  V30 9607 O 890.008 -0.0650558 -1.79882 0
M  V30 9608 H 886.383 -0.295023 -0.691712 0
M  V30 9609 H 888.354 -1.90667 -2.2954 0
M  V30 9610 C 887.103 -0.544164 -3.43415 0
M  V30 9611 H 886.426 -1.34515 -3.76491 0
M  V30 9612 H 887.866 -0.411268 -4.22001 0
M  V30 9613 C 886.325 0.744583 -3.28569 0
M  V30 9614 O 886.855 1.80078 -3.59075 0
M  V30 9615 N 885.061 0.710083 -2.81791 0
M  V30 9616 H 884.608 -0.14971 -2.57165 0
M  V30 9617 H 884.566 1.57268 -2.72239 0
M  V30 9618 N 888.338 1.20213 -1.01915 0
M  V30 9619 C 889.586 1.89272 -0.708552 0
M  V30 9620 C 889.907 1.79394 0.76438 0
M  V30 9621 O 889.177 1.198 1.54999 0
M  V30 9622 H 887.757 0.700628 -0.259094 0
M  V30 9623 H 890.419 1.45985 -1.29129 0
M  V30 9624 H 889.515 2.95841 -0.994215 0
M  V30 9625 N 889.816 0.795718 1.36037 0
M  V30 9626 C 890.726 0.199784 2.33748 0
M  V30 9627 C 891.742 -0.651436 1.61345 0
M  V30 9628 O 892.918 -0.565743 1.93291 0
M  V30 9629 C 889.983 -0.650475 3.40543 0
M  V30 9630 C 889.044 0.219974 4.28736 0
M  V30 9631 C 888.277 -0.589798 5.30431 0
M  V30 9632 O 888.5 -1.82532 5.40406 0
M  V30 9633 O 887.434 0.0136187 6.01898 0
M  V30 9634 H 891.26 1.00782 2.8649 0
M  V30 9635 H 888.845 0.557293 1.38617 0
M  V30 9636 H 890.727 -1.13512 4.05824 0
M  V30 9637 H 889.402 -1.4363 2.9009 0
M  V30 9638 H 888.309 0.751516 3.66474 0
M  V30 9639 H 889.642 0.969468 4.82558 0
M  V30 9640 N 891.294 -1.47756 0.548274 0
M  V30 9641 C 892.241 -2.29893 -0.204408 0
M  V30 9642 C 893.211 -1.38509 -0.916761 0
M  V30 9643 O 894.396 -1.67472 -0.91421 0
M  V30 9644 C 891.536 -3.22282 -1.23403 0
M  V30 9645 C 890.649 -4.28753 -0.528654 0
M  V30 9646 C 889.784 -5.08303 -1.54279 0
M  V30 9647 C 888.823 -6.06557 -0.821893 0
M  V30 9648 N 887.96 -6.79098 -1.78243 0
M  V30 9649 H 892.8 -2.93739 0.502163 0
M  V30 9650 H 890.337 -1.44793 0.259471 0
M  V30 9651 H 892.295 -3.74262 -1.84348 0
M  V30 9652 H 890.925 -2.6032 -1.90875 0
M  V30 9653 H 889.977 -3.79899 0.195132 0
M  V30 9654 H 891.289 -4.98787 0.0365066 0
M  V30 9655 H 890.443 -5.64388 -2.22602 0
M  V30 9656 H 889.182 -4.3815 -2.14186 0
M  V30 9657 H 888.187 -5.49659 -0.12469 0
M  V30 9658 H 889.412 -6.78715 -0.228685 0
M  V30 9659 H 887.358 -6.11682 -2.37025 0
M  V30 9660 H 887.275 -7.4527 -1.26919 0
M  V30 9661 H 888.543 -7.39762 -2.45709 0
M  V30 9662 N 892.772 -0.284283 -1.55015 0
M  V30 9663 C 893.702 0.592663 -2.25853 0
M  V30 9664 C 894.683 1.15151 -1.25197 0
M  V30 9665 O 895.868 1.18395 -1.53936 0
M  V30 9666 C 892.998 1.77254 -2.98661 0
M  V30 9667 C 891.952 1.34482 -4.06323 0
M  V30 9668 C 891.278 2.60853 -4.66754 0
M  V30 9669 C 892.578 0.488288 -5.20013 0
M  V30 9670 H 894.272 0.00187041 -2.994 0
M  V30 9671 H 891.818 -0.000540402 -1.44 0
M  V30 9672 H 893.771 2.39199 -3.46932 0
M  V30 9673 H 892.495 2.38931 -2.22664 0
M  V30 9674 H 891.154 0.748519 -3.58877 0
M  V30 9675 H 890.802 3.20808 -3.87416 0
M  V30 9676 H 890.502 2.32942 -5.39455 0
M  V30 9677 H 892.026 3.23631 -5.1778 0
M  V30 9678 H 893.44 1.01298 -5.6428 0
M  V30 9679 H 891.837 0.303669 -5.99331 0
M  V30 9680 H 892.907 -0.490727 -4.8241 0
M  V30 9681 N 894.251 1.57596 -0.0117121 0
M  V30 9682 C 895.198 2.09153 0.975897 0
M  V30 9683 C 896.168 0.989579 1.33404 0
M  V30 9684 O 897.353 1.26273 1.43038 0
M  V30 9685 C 894.493 2.60906 2.2588 0
M  V30 9686 C 893.606 3.85046 1.95866 0
M  V30 9687 C 892.741 4.25257 3.18323 0
M  V30 9688 C 891.78 5.42202 2.84049 0
M  V30 9689 N 890.917 5.77651 3.99079 0
M  V30 9690 H 895.757 2.93261 0.52931 0
M  V30 9691 H 893.294 1.44965 0.249691 0
M  V30 9692 H 895.252 2.88995 3.00895 0
M  V30 9693 H 893.882 1.79654 2.68187 0
M  V30 9694 H 892.934 3.63794 1.11168 0
M  V30 9695 H 894.246 4.70151 1.66611 0
M  V30 9696 H 893.4 4.5469 4.01674 0
M  V30 9697 H 892.139 3.38884 3.50726 0
M  V30 9698 H 891.144 5.1248 1.99107 0
M  V30 9699 H 892.369 6.3026 2.52881 0
M  V30 9700 H 890.315 4.94235 4.31356 0
M  V30 9701 H 890.232 6.57356 3.73388 0
M  V30 9702 H 891.5 6.11681 4.83183 0
M  V30 9703 N 895.729 -0.261212 1.5542 0
M  V30 9704 C 896.676 -1.32315 1.89107 0
M  V30 9705 C 897.646 -1.48517 0.743767 0
M  V30 9706 O 898.831 -1.62733 0.996123 0
M  V30 9707 C 895.971 -2.67626 2.17877 0
M  V30 9708 C 895.084 -2.59549 3.45338 0
M  V30 9709 C 894.219 -3.87118 3.63748 0
M  V30 9710 C 893.258 -3.736 4.8486 0
M  V30 9711 N 892.395 -4.93029 4.99867 0
M  V30 9712 H 897.235 -1.02886 2.79675 0
M  V30 9713 H 894.772 -0.496812 1.38456 0
M  V30 9714 H 896.73 -3.4637 2.32559 0
M  V30 9715 H 895.36 -2.95232 1.30529 0
M  V30 9716 H 894.412 -1.72452 3.39064 0
M  V30 9717 H 895.724 -2.45465 4.34222 0
M  V30 9718 H 894.878 -4.74305 3.78312 0
M  V30 9719 H 893.617 -4.04084 2.73071 0
M  V30 9720 H 892.622 -2.84797 4.70288 0
M  V30 9721 H 893.847 -3.58143 5.76984 0
M  V30 9722 H 891.793 -5.10383 4.12123 0
M  V30 9723 H 891.71 -4.81521 5.82815 0
M  V30 9724 H 892.978 -5.81754 5.18828 0
M  V30 9725 N 897.207 -1.48554 -0.526253 0
M  V30 9726 C 898.432 -1.60686 -1.31129 0
M  V30 9727 C 898.857 -0.268701 -1.86171 0
M  V30 9728 O 898.215 0.760167 -1.64594 0
M  V30 9729 C 898.263 -2.65938 -2.43536 0
M  V30 9730 O 897.367 -2.23356 -3.46678 0
M  V30 9731 H 896.708 -0.538691 -0.388211 0
M  V30 9732 H 899.238 -1.94567 -0.632826 0
M  V30 9733 H 899.248 -2.87327 -2.89668 0
M  V30 9734 H 897.923 -3.63085 -2.02835 0
M  V30 9735 H 896.5 -2.12196 -3.06639 0
M  V30 9736 N 898.685 0.775411 -1.37205 0
M  V30 9737 C 899.615 1.90258 -1.35367 0
M  V30 9738 C 900.596 1.68634 -0.222864 0
M  V30 9739 O 901.781 1.89545 -0.422659 0
M  V30 9740 C 898.911 3.27488 -1.15623 0
M  V30 9741 C 897.865 3.63668 -2.25676 0
M  V30 9742 C 897.191 4.994 -1.91059 0
M  V30 9743 C 898.491 3.70797 -3.67841 0
M  V30 9744 H 900.185 1.92053 -2.29687 0
M  V30 9745 H 897.731 0.922597 -1.10563 0
M  V30 9746 H 899.684 4.05976 -1.12968 0
M  V30 9747 H 898.408 3.26117 -0.177573 0
M  V30 9748 H 897.067 2.87486 -2.2748 0
M  V30 9749 H 896.715 4.94565 -0.917324 0
M  V30 9750 H 896.415 5.24576 -2.64751 0
M  V30 9751 H 897.939 5.80291 -1.89985 0
M  V30 9752 H 899.353 4.39444 -3.68187 0
M  V30 9753 H 897.75 4.07468 -4.40556 0
M  V30 9754 H 898.82 2.71549 -4.01732 0
M  V30 9755 N 900.163 1.21714 1.00117 0
M  V30 9756 C 901.41 1.0367 1.73951 0
M  V30 9757 C 901.738 -0.429289 1.89703 0
M  V30 9758 O 900.993 -1.33475 1.43119 0
M  V30 9759 C 901.292 1.68345 3.15269 0
M  V30 9760 C 900.958 3.18214 3.19454 0
M  V30 9761 C 899.62 3.59109 3.20303 0
M  V30 9762 C 901.972 4.14179 3.16394 0
M  V30 9763 C 899.3 4.94467 3.15783 0
M  V30 9764 C 901.652 5.49502 3.13416 0
M  V30 9765 C 900.316 5.8979 3.12577 0
M  V30 9766 H 899.586 0.379355 0.63653 0
M  V30 9767 H 902.233 1.51361 1.17312 0
M  V30 9768 H 900.538 1.12957 3.75164 0
M  V30 9769 H 902.235 1.51882 3.71124 0
M  V30 9770 H 898.825 2.85646 3.19538 0
M  V30 9771 H 903.009 3.83607 3.14895 0
M  V30 9772 H 898.265 5.24923 3.13473 0
M  V30 9773 H 902.439 6.23595 3.10003 0
M  V30 9774 H 900.066 6.94643 3.08829 0
M  V30 9775 N 901.641 -1.19671 1.02551 0
M  V30 9776 C 902.574 -2.21522 0.547998 0
M  V30 9777 C 903.552 -1.57363 -0.409349 0
M  V30 9778 O 904.736 -1.85638 -0.327248 0
M  V30 9779 C 901.863 -3.38101 -0.201375 0
M  V30 9780 C 900.909 -4.20601 0.706886 0
M  V30 9781 S 901.742 -4.89066 2.18116 0
M  V30 9782 C 902.898 -6.09058 1.4422 0
M  V30 9783 H 903.131 -2.61684 1.41099 0
M  V30 9784 H 900.664 -1.29864 0.835153 0
M  V30 9785 H 902.622 -4.05674 -0.627607 0
M  V30 9786 H 901.283 -2.96381 -1.04005 0
M  V30 9787 H 900.476 -5.03836 0.128554 0
M  V30 9788 H 900.078 -3.58329 1.07129 0
M  V30 9789 H 902.37 -6.73588 0.726975 0
M  V30 9790 H 903.313 -6.71368 2.25102 0
M  V30 9791 H 903.721 -5.56599 0.941176 0
M  V30 9792 N 903.119 -0.802921 -1.35613 0
M  V30 9793 C 904.049 -0.225131 -2.32412 0
M  V30 9794 C 905.03 0.647383 -1.57299 0
M  V30 9795 O 906.215 0.578414 -1.85386 0
M  V30 9796 C 903.345 0.630085 -3.41537 0
M  V30 9797 C 902.299 -0.143635 -4.27759 0
M  V30 9798 C 901.625 0.833046 -5.28171 0
M  V30 9799 C 902.925 -1.34054 -5.04804 0
M  V30 9800 H 904.619 -1.03385 -2.80984 0
M  V30 9801 H 902.165 -0.498593 -1.35093 0
M  V30 9802 H 904.118 1.04433 -4.08254 0
M  V30 9803 H 902.842 1.47165 -2.91565 0
M  V30 9804 H 901.501 -0.539015 -3.62616 0
M  V30 9805 H 901.149 1.67001 -4.74468 0
M  V30 9806 H 900.849 0.319697 -5.8673 0
M  V30 9807 H 902.373 1.24558 -5.97761 0
M  V30 9808 H 903.787 -1.00136 -5.64487 0
M  V30 9809 H 902.184 -1.78812 -5.72841 0
M  V30 9810 H 903.254 -2.12906 -4.35659 0
M  V30 9811 N 904.597 1.47463 -0.556102 0
M  V30 9812 C 905.544 2.29998 0.192213 0
M  V30 9813 C 906.514 1.38993 0.909403 0
M  V30 9814 O 907.699 1.67954 0.905316 0
M  V30 9815 C 904.839 3.22932 1.21692 0
M  V30 9816 C 903.952 4.29027 0.505908 0
M  V30 9817 C 903.087 5.09114 1.51581 0
M  V30 9818 C 902.126 6.06984 0.789714 0
M  V30 9819 N 901.263 6.80033 1.74639 0
M  V30 9820 H 906.103 2.93468 -0.517734 0
M  V30 9821 H 903.64 1.44654 -0.267147 0
M  V30 9822 H 905.598 3.75234 1.8236 0
M  V30 9823 H 904.228 2.61329 1.89491 0
M  V30 9824 H 903.28 3.7979 -0.215276 0
M  V30 9825 H 904.592 4.9876 -0.062958 0
M  V30 9826 H 903.746 5.6556 2.19606 0
M  V30 9827 H 902.485 4.3928 2.11859 0
M  V30 9828 H 901.49 5.49717 0.0955382 0
M  V30 9829 H 902.715 6.78827 0.192688 0
M  V30 9830 H 900.661 6.12931 2.33777 0
M  V30 9831 H 900.578 7.45933 1.22965 0
M  V30 9832 H 901.846 7.41054 2.41782 0
M  V30 9833 N 906.075 0.2925 1.54862 0
M  V30 9834 C 906.985 -0.597036 2.26876 0
M  V30 9835 C 908.001 -1.15558 1.30086 0
M  V30 9836 O 909.177 -1.18217 1.63054 0
M  V30 9837 C 906.242 -1.75664 2.98903 0
M  V30 9838 C 905.303 -1.23303 4.11212 0
M  V30 9839 C 904.536 -2.33736 4.79795 0
M  V30 9840 O 904.759 -3.53459 4.47686 0
M  V30 9841 O 903.693 -2.00908 5.67379 0
M  V30 9842 H 907.519 -0.0131242 3.03697 0
M  V30 9843 H 905.104 0.0592642 1.49282 0
M  V30 9844 H 906.986 -2.43241 3.4411 0
M  V30 9845 H 905.661 -2.32731 2.24984 0
M  V30 9846 H 904.568 -0.523222 3.70423 0
M  V30 9847 H 905.901 -0.707887 4.87083 0
M  V30 9848 N 907.553 -1.57587 0.0200696 0
M  V30 9849 C 908.483 -2.12702 -0.963333 0
M  V30 9850 C 909.464 -1.04094 -1.34531 0
M  V30 9851 O 910.649 -1.31881 -1.42552 0
M  V30 9852 C 907.779 -2.64673 -2.24868 0
M  V30 9853 C 906.733 -3.77987 -2.00772 0
M  V30 9854 C 906.059 -4.16351 -3.35494 0
M  V30 9855 C 907.359 -5.0444 -1.35416 0
M  V30 9856 H 909.053 -2.95121 -0.504363 0
M  V30 9857 H 906.599 -1.41966 -0.24116 0
M  V30 9858 H 908.552 -3.01862 -2.94036 0
M  V30 9859 H 907.276 -1.79403 -2.72914 0
M  V30 9860 H 905.935 -3.41223 -1.34025 0
M  V30 9861 H 905.583 -3.28075 -3.81282 0
M  V30 9862 H 905.283 -4.92705 -3.20181 0
M  V30 9863 H 906.807 -4.56115 -4.05945 0
M  V30 9864 H 908.221 -5.39273 -1.94571 0
M  V30 9865 H 906.618 -5.85732 -1.30529 0
M  V30 9866 H 907.688 -4.83803 -0.325923 0
M  V30 9867 N 909.032 0.252966 -1.55557 0
M  V30 9868 C 909.98 1.33289 -1.90622 0
M  V30 9869 C 910.974 1.50133 -0.784638 0
M  V30 9870 O 912.18 1.51679 -0.969196 0
M  V30 9871 H 908.555 0.446196 -0.605321 0
M  V30 9872 H 910.526 1.00977 -2.80796 0
M  V30 9873 C 909.275 2.68254 -2.21213 0
M  V30 9874 H 908.598 2.5609 -3.07014 0
M  V30 9875 H 910.038 3.42707 -2.49656 0
M  V30 9876 C 908.497 3.20884 -1.02642 0
M  V30 9877 O 909.027 4.00783 -0.271292 0
M  V30 9878 N 907.233 2.7883 -0.818682 0
M  V30 9879 H 906.78 2.13966 -1.43444 0
M  V30 9880 H 906.738 3.14388 -0.0269989 0
M  V30 9881 N 910.51 1.48831 0.518367 0
M  V30 9882 C 911.458 1.64678 1.64268 0
M  V30 9883 C 912.452 0.512967 1.61447 0
M  V30 9884 O 913.658 0.692063 1.66164 0
M  V30 9885 H 910.033 0.518964 0.544224 0
M  V30 9886 H 912.004 2.59083 1.4805 0
M  V30 9887 C 910.753 1.71449 3.0249 0
M  V30 9888 H 910.076 2.58061 3.0536 0
M  V30 9889 H 911.516 1.86577 3.80743 0
M  V30 9890 C 909.975 0.455584 3.33805 0
M  V30 9891 O 910.505 -0.426428 3.9943 0
M  V30 9892 N 908.711 0.323763 2.88791 0
M  V30 9893 H 908.258 1.04249 2.35563 0
M  V30 9894 H 908.216 -0.517514 3.10112 0
M  V30 9895 N 911.988 -0.768124 1.37614 0
M  V30 9896 C 912.935 -1.88151 1.33671 0
M  V30 9897 C 913.905 -1.64871 0.201645 0
M  V30 9898 O 915.09 -1.86739 0.391582 0
M  V30 9899 C 912.23 -3.25264 1.15314 0
M  V30 9900 C 911.343 -3.60473 2.38082 0
M  V30 9901 C 910.478 -4.86814 2.12569 0
M  V30 9902 C 909.517 -5.14765 3.31184 0
M  V30 9903 N 908.654 -6.32295 3.052 0
M  V30 9904 H 913.494 -1.90857 2.28862 0
M  V30 9905 H 911.031 -0.933048 1.13722 0
M  V30 9906 H 912.989 -4.04364 1.02691 0
M  V30 9907 H 911.619 -3.21924 0.237689 0
M  V30 9908 H 910.671 -2.7633 2.61431 0
M  V30 9909 H 911.983 -3.77065 3.26532 0
M  V30 9910 H 911.137 -5.73826 1.96999 0
M  V30 9911 H 909.876 -4.72333 1.21462 0
M  V30 9912 H 908.881 -4.26227 3.4729 0
M  V30 9913 H 910.106 -5.31153 4.23147 0
M  V30 9914 H 908.052 -6.19166 2.16726 0
M  V30 9915 H 907.969 -6.4932 3.87195 0
M  V30 9916 H 909.237 -7.22234 2.93254 0
M  V30 9917 N 913.466 -1.22244 -0.994698 0
M  V30 9918 C 914.713 -1.04591 -1.73398 0
M  V30 9919 C 915.041 0.419223 -1.89928 0
M  V30 9920 O 914.296 1.32714 -1.43824 0
M  V30 9921 C 914.595 -1.70014 -3.14372 0
M  V30 9922 C 914.261 -3.19903 -3.17762 0
M  V30 9923 C 912.923 -3.60803 -3.18394 0
M  V30 9924 C 915.275 -4.15851 -3.14194 0
M  V30 9925 C 912.603 -4.96135 -3.13157 0
M  V30 9926 C 914.955 -5.51157 -3.10498 0
M  V30 9927 C 913.619 -5.91439 -3.09445 0
M  V30 9928 H 912.889 -0.382725 -0.63451 0
M  V30 9929 H 915.536 -1.51981 -1.16508 0
M  V30 9930 H 913.841 -1.14945 -3.7456 0
M  V30 9931 H 915.538 -1.53848 -3.70313 0
M  V30 9932 H 912.128 -2.87336 -3.18019 0
M  V30 9933 H 916.312 -3.85272 -3.12857 0
M  V30 9934 H 911.568 -5.26578 -3.10685 0
M  V30 9935 H 915.742 -6.2523 -3.06692 0
M  V30 9936 H 913.369 -6.96271 -3.05141 0
M  V30 9937 N 914.944 1.19125 -1.03184 0
M  V30 9938 C 916.36 1.40909 -0.749447 0
M  V30 9939 C 916.56 1.9022 0.664729 0
M  V30 9940 O 915.616 2.08085 1.43028 0
M  V30 9941 C 916.929 2.41761 -1.78807 0
M  V30 9942 C 918.477 2.55503 -1.80796 0
M  V30 9943 C 918.952 3.59612 -2.83626 0
M  V30 9944 N 920.443 3.6711 -2.82461 0
M  V30 9945 C 921.178 4.47366 -3.5868 0
M  V30 9946 N 920.674 5.31302 -4.44623 0
M  V30 9947 N 922.467 4.42044 -3.47208 0
M  V30 9948 H 914.618 0.854399 -1.94458 0
M  V30 9949 H 916.881 0.437753 -0.840878 0
M  V30 9950 H 916.587 2.12559 -2.80199 0
M  V30 9951 H 916.461 3.40981 -1.61283 0
M  V30 9952 H 918.848 2.84027 -0.800803 0
M  V30 9953 H 918.929 1.56427 -2.02396 0
M  V30 9954 H 918.573 3.3183 -3.84515 0
M  V30 9955 H 918.503 4.58345 -2.59283 0
M  V30 9956 H 920.994 3.07166 -2.2013 0
M  V30 9957 H 921.307 5.89667 -4.99512 0
M  V30 9958 H 919.652 5.30753 -4.48694 0
M  V30 9959 H 922.843 3.75513 -2.79477 0
M  V30 9960 H 923.016 5.0435 -4.06859 0
M  V30 9961 N 916.422 0.810101 1.35185 0
M  V30 9962 C 917.652 0.404109 2.02609 0
M  V30 9963 C 918.06 -0.990748 1.61186 0
M  V30 9964 O 917.403 -1.65038 0.80674 0
M  V30 9965 C 917.465 0.412047 3.57131 0
M  V30 9966 C 917.129 1.75802 4.21832 0
M  V30 9967 C 918.126 2.71687 4.43263 0
M  V30 9968 C 915.811 2.04299 4.58876 0
M  V30 9969 C 917.805 3.9425 5.00845 0
M  V30 9970 C 915.492 3.27125 5.16171 0
M  V30 9971 C 916.49 4.21918 5.37098 0
M  V30 9972 O 916.178 5.42576 5.93184 0
M  V30 9973 H 915.91 0.161914 0.656323 0
M  V30 9974 H 918.464 1.09605 1.73712 0
M  V30 9975 H 916.694 -0.336509 3.85233 0
M  V30 9976 H 918.383 0.0278817 4.0589 0
M  V30 9977 H 919.149 2.50964 4.15021 0
M  V30 9978 H 915.028 1.31324 4.41899 0
M  V30 9979 H 918.572 4.68251 5.17094 0
M  V30 9980 H 914.469 3.47718 5.43841 0
M  V30 9981 H 915.237 5.43921 6.11631 0
M  V30 9982 N 917.9 -1.47166 0.563914 0
M  V30 9983 C 918.863 -2.28571 -0.169624 0
M  V30 9984 C 919.863 -1.37331 -0.836467 0
M  V30 9985 O 921.053 -1.59896 -0.6913 0
M  V30 9986 C 918.185 -3.17201 -1.24886 0
M  V30 9987 H 919.378 -2.94896 0.545539 0
M  V30 9988 H 916.931 -1.52966 0.321121 0
M  V30 9989 H 917.666 -2.55582 -1.99621 0
M  V30 9990 H 917.451 -3.84356 -0.775426 0
M  V30 9991 H 918.941 -3.7852 -1.76388 0
M  V30 9992 N 919.378 -0.300708 -1.54705 0
M  V30 9993 C 920.624 0.309111 -2.0043 0
M  V30 9994 C 920.957 1.53562 -1.1888 0
M  V30 9995 O 920.232 1.92683 -0.265205 0
M  V30 9996 C 920.515 0.665995 -3.53888 0
M  V30 9997 C 920.368 -0.56963 -4.46178 0
M  V30 9998 C 921.687 1.49262 -4.14016 0
M  V30 9999 H 918.806 0.110878 -0.728612 0
M  V30 10000 H 921.448 -0.412748 -1.85463 0
M  V30 10001 H 919.598 1.281 -3.66773 0
M  V30 10002 H 921.27 -1.20811 -4.45199 0
M  V30 10003 H 919.513 -1.20292 -4.16788 0
M  V30 10004 H 920.184 -0.275785 -5.51311 0
M  V30 10005 H 922.66 0.972979 -4.04564 0
M  V30 10006 H 921.536 1.71111 -5.21548 0
M  V30 10007 H 921.797 2.48174 -3.65872 0
M  V30 10008 N 920.856 1.57574 -0.0284266 0
M  V30 10009 C 922.103 1.91772 0.650364 0
M  V30 10010 C 922.431 0.904769 1.72175 0
M  V30 10011 O 921.686 -0.0864038 1.95509 0
M  V30 10012 C 921.985 3.32699 1.3056 0
M  V30 10013 C 921.651 4.49423 0.364658 0
M  V30 10014 C 920.313 4.81084 0.105672 0
M  V30 10015 C 922.665 5.20439 -0.28151 0
M  V30 10016 C 919.993 5.81119 -0.8073 0
M  V30 10017 C 922.345 6.21449 -1.18253 0
M  V30 10018 C 921.009 6.51551 -1.45042 0
M  V30 10019 H 920.279 0.701744 0.237985 0
M  V30 10020 H 922.926 1.91288 -0.0900448 0
M  V30 10021 H 921.231 3.29441 2.12075 0
M  V30 10022 H 922.928 3.5643 1.83736 0
M  V30 10023 H 919.518 4.24703 0.576692 0
M  V30 10024 H 923.702 4.9621 -0.0944806 0
M  V30 10025 H 918.958 6.02788 -1.02256 0
M  V30 10026 H 923.132 6.75597 -1.68942 0
M  V30 10027 H 920.759 7.28882 -2.15951 0
M  V30 10028 N 922.334 -0.244713 1.55689 0
M  V30 10029 C 923.582 -0.970525 1.77272 0
M  V30 10030 C 923.903 -1.85771 0.592804 0
M  V30 10031 O 923.173 -1.91952 -0.391323 0
M  V30 10032 H 921.753 -0.361342 0.653789 0
M  V30 10033 H 924.415 -0.262134 1.93129 0
M  V30 10034 H 923.511 -1.59096 2.68505 0
M  V30 10035 N 923.813 -1.49104 -0.510467 0
M  V30 10036 C 924.743 -1.67981 -1.62187 0
M  V30 10037 C 925.724 -0.528529 -1.6168 0
M  V30 10038 O 926.909 -0.763305 -1.7857 0
M  V30 10039 C 924.039 -1.73755 -3.0071 0
M  V30 10040 C 922.993 -2.88579 -3.1608 0
M  V30 10041 C 922.319 -2.79457 -4.5586 0
M  V30 10042 C 923.619 -4.29638 -2.97 0
M  V30 10043 H 925.313 -2.61029 -1.46643 0
M  V30 10044 H 922.859 -1.25615 -0.704042 0
M  V30 10045 H 924.812 -1.85548 -3.78352 0
M  V30 10046 H 923.536 -0.772996 -3.17321 0
M  V30 10047 H 922.195 -2.76372 -2.40861 0
M  V30 10048 H 921.843 -1.80929 -4.69333 0
M  V30 10049 H 921.543 -3.56518 -4.67086 0
M  V30 10050 H 923.067 -2.93245 -5.35574 0
M  V30 10051 H 924.481 -4.42575 -3.64418 0
M  V30 10052 H 922.878 -5.07847 -3.19704 0
M  V30 10053 H 923.948 -4.44741 -1.93219 0
M  V30 10054 N 925.291 0.760815 -1.38019 0
M  V30 10055 C 926.539 1.51673 -1.33566 0
M  V30 10056 C 926.86 1.94852 0.076024 0
M  V30 10057 O 926.13 1.67112 1.02227 0
M  V30 10058 H 924.71 0.562581 -0.491438 0
M  V30 10059 H 927.372 0.904832 -1.72623 0
M  V30 10060 H 926.468 2.41102 -1.98182 0
M  V30 10061 N 926.769 1.22769 0.988202 0
M  V30 10062 C 927.994 1.08239 1.76915 0
M  V30 10063 C 928.419 -0.362519 1.84574 0
M  V30 10064 O 927.777 -1.26202 1.30165 0
M  V30 10065 C 927.825 1.70363 3.17819 0
M  V30 10066 O 926.929 0.960484 4.01059 0
M  V30 10067 H 926.27 0.379872 0.544604 0
M  V30 10068 H 928.8 1.62663 1.24104 0
M  V30 10069 H 928.81 1.7528 3.6843 0
M  V30 10070 H 927.485 2.75505 3.1156 0
M  V30 10071 H 926.062 0.987667 3.59582 0
M  V30 10072 N 928.247 -1.18576 1.03814 0
M  V30 10073 C 929.472 -1.92978 0.759873 0
M  V30 10074 C 929.897 -1.75514 -0.676486 0
M  V30 10075 O 929.255 -1.06359 -1.46824 0
M  V30 10076 C 929.303 -3.42507 1.12788 0
M  V30 10077 O 928.407 -4.1163 0.251886 0
M  V30 10078 H 927.748 -0.602129 0.279886 0
M  V30 10079 H 930.278 -1.50383 1.3873 0
M  V30 10080 H 930.288 -3.93206 1.08872 0
M  V30 10081 H 928.963 -3.5454 2.17427 0
M  V30 10082 H 927.54 -3.7125 0.350441 0
M  V30 10083 N 929.725 -0.817259 -1.34754 0
M  V30 10084 C 930.658 -0.180483 -2.27485 0
M  V30 10085 C 931.636 0.659792 -1.48612 0
M  V30 10086 O 932.82 0.624761 -1.77845 0
M  V30 10087 C 929.947 0.748487 -3.30326 0
M  V30 10088 C 928.993 -0.0135304 -4.26498 0
M  V30 10089 S 929.826 -1.35685 -5.18025 0
M  V30 10090 C 930.982 -0.432605 -6.24403 0
M  V30 10091 H 931.215 -0.966677 -2.81145 0
M  V30 10092 H 928.748 -0.612864 -1.41716 0
M  V30 10093 H 930.706 1.27893 -3.90069 0
M  V30 10094 H 929.367 1.50816 -2.75524 0
M  V30 10095 H 928.56 0.692454 -4.9922 0
M  V30 10096 H 928.162 -0.474344 -3.7098 0
M  V30 10097 H 930.454 0.378035 -6.76444 0
M  V30 10098 H 931.397 -1.12934 -6.99036 0
M  V30 10099 H 931.805 -0.0235533 -5.64495 0
M  V30 10100 N 931.203 1.46865 -0.571711 0
M  V30 10101 C 932.433 2.06518 -0.0583129 0
M  V30 10102 C 932.841 1.4227 1.24723 0
M  V30 10103 O 932.184 0.518293 1.76237 0
M  V30 10104 C 932.246 3.5898 0.193214 0
M  V30 10105 C 931.91 4.45355 -1.02507 0
M  V30 10106 C 932.907 4.82575 -1.93435 0
M  V30 10107 C 930.592 4.86656 -1.24382 0
M  V30 10108 C 932.586 5.59912 -3.04595 0
M  V30 10109 C 930.273 5.63754 -2.35849 0
M  V30 10110 C 931.271 6.00294 -3.25785 0
M  V30 10111 O 930.959 6.75836 -4.35318 0
M  V30 10112 H 930.691 0.674188 -0.0494584 0
M  V30 10113 H 933.245 1.89644 -0.788934 0
M  V30 10114 H 931.475 3.7412 0.978319 0
M  V30 10115 H 933.164 4.006 0.653769 0
M  V30 10116 H 933.93 4.51256 -1.77745 0
M  V30 10117 H 929.809 4.57672 -0.55292 0
M  V30 10118 H 933.353 5.88351 -3.74818 0
M  V30 10119 H 929.25 5.94487 -2.51506 0
M  V30 10120 H 930.018 6.94247 -4.33547 0
M  V30 10121 N 932.681 0.308908 1.54543 0
M  V30 10122 C 934.092 -0.182144 1.85809 0
M  V30 10123 C 934.443 -1.52796 1.23076 0
M  V30 10124 O 933.568 -2.09775 0.531358 0
M  V30 10125 C 934.163 -0.337275 3.37117 0
M  V30 10126 C 932.722 -0.772545 3.68387 0
M  V30 10127 C 931.869 0.114451 2.77064 0
M  V30 10128 H 934.82 0.529671 1.496 0
M  V30 10129 H 934.841 -1.17058 3.62046 0
M  V30 10130 H 934.353 0.642382 3.82747 0
M  V30 10131 H 932.454 -1.76247 3.2828 0
M  V30 10132 H 932.567 -0.586453 4.75497 0
M  V30 10133 H 930.931 -0.407581 2.51418 0
M  V30 10134 H 931.714 1.09061 3.25516 0
M  V30 10135 N 934.159 -1.57557 0.0367827 0
M  V30 10136 C 935.575 -1.56366 -0.31967 0
M  V30 10137 C 935.775 -1.04313 -1.72398 0
M  V30 10138 O 934.831 -0.693278 -2.42796 0
M  V30 10139 C 936.144 -3.00267 -0.161274 0
M  V30 10140 C 937.692 -3.12128 -0.233464 0
M  V30 10141 C 938.167 -4.57882 -0.103767 0
M  V30 10142 N 939.658 -4.62922 -0.160506 0
M  V30 10143 C 940.393 -5.73338 -0.0840493 0
M  V30 10144 N 939.889 -6.92786 0.043933 0
M  V30 10145 N 941.682 -5.61929 -0.138592 0
M  V30 10146 H 933.833 -1.8972 0.954996 0
M  V30 10147 H 936.096 -0.87304 0.369467 0
M  V30 10148 H 935.802 -3.42331 0.80639 0
M  V30 10149 H 935.676 -3.65599 -0.928304 0
M  V30 10150 H 938.063 -2.69972 -1.19159 0
M  V30 10151 H 938.144 -2.49503 0.564075 0
M  V30 10152 H 937.788 -5.0072 0.850973 0
M  V30 10153 H 937.718 -5.18496 -0.920268 0
M  V30 10154 H 940.209 -3.7701 -0.259257 0
M  V30 10155 H 940.522 -7.72741 0.095372 0
M  V30 10156 H 938.867 -6.94955 0.0788211 0
M  V30 10157 H 942.058 -4.67499 -0.237031 0
M  V30 10158 H 942.231 -6.47956 -0.075546 0
M  V30 10159 N 935.637 0.236453 -1.55816 0
M  V30 10160 C 936.884 0.963012 -1.78136 0
M  V30 10161 C 937.212 1.84918 -0.602952 0
M  V30 10162 O 936.467 1.91285 0.413325 0
M  V30 10163 C 936.766 1.84549 -3.06066 0
M  V30 10164 C 936.432 1.11381 -4.36927 0
M  V30 10165 C 935.094 0.911635 -4.72486 0
M  V30 10166 C 937.446 0.596 -5.17781 0
M  V30 10167 C 934.774 0.179515 -5.86425 0
M  V30 10168 C 937.126 -0.122702 -6.32481 0
M  V30 10169 C 935.79 -0.336263 -6.66652 0
M  V30 10170 H 935.06 0.352391 -0.651845 0
M  V30 10171 H 937.707 0.232295 -1.90086 0
M  V30 10172 H 936.012 2.6436 -2.89173 0
M  V30 10173 H 937.709 2.40953 -3.20535 0
M  V30 10174 H 934.299 1.28134 -4.08998 0
M  V30 10175 H 938.483 0.73971 -4.90757 0
M  V30 10176 H 933.739 0.00368224 -6.114 0
M  V30 10177 H 937.913 -0.531516 -6.94369 0
M  V30 10178 H 935.54 -0.905507 -7.54788 0
M  V30 10179 N 937.115 1.49373 0.502552 0
M  V30 10180 C 938.355 1.60398 1.26696 0
M  V30 10181 C 938.719 0.283599 1.89894 0
M  V30 10182 O 939.92 0.269022 2.6745 0
M  V30 10183 C 938.191 2.72998 2.30666 0
M  V30 10184 S 939.75 3.03964 3.16466 0
M  V30 10185 H 936.568 0.565781 0.430596 0
M  V30 10186 H 939.17 1.87024 0.569418 0
M  V30 10187 H 937.874 3.67458 1.82765 0
M  V30 10188 H 937.405 2.4836 3.05091 0
M  V30 10189 H 939.42 2.45367 4.31288 0
M  V30 10190 N 938.594 -0.753485 1.38421 0
M  V30 10191 C 939.557 -1.84888 1.35459 0
M  V30 10192 C 940.557 -1.58764 0.255083 0
M  V30 10193 O 941.747 -1.66507 0.511978 0
M  V30 10194 C 938.879 -3.22361 1.10888 0
M  V30 10195 H 940.072 -1.88922 2.32913 0
M  V30 10196 H 937.625 -0.955199 1.23716 0
M  V30 10197 H 938.36 -3.23996 0.1404 0
M  V30 10198 H 938.145 -3.42717 1.90492 0
M  V30 10199 H 939.635 -4.02437 1.1151 0
M  V30 10200 N 940.072 -1.23292 -0.981677 0
M  V30 10201 C 941.319 -1.06424 -1.72279 0
M  V30 10202 C 941.647 0.399055 -1.90362 0
M  V30 10203 O 940.902 1.31181 -1.45224 0
M  V30 10204 C 941.201 -1.73339 -3.12551 0
M  V30 10205 C 940.867 -3.23256 -3.14351 0
M  V30 10206 C 939.529 -3.64159 -3.14549 0
M  V30 10207 C 941.881 -4.1916 -3.09765 0
M  V30 10208 C 939.209 -4.99428 -3.07877 0
M  V30 10209 C 941.561 -5.54419 -3.04635 0
M  V30 10210 C 940.225 -5.94688 -3.03154 0
M  V30 10211 H 939.495 -0.389434 -0.630415 0
M  V30 10212 H 942.142 -1.53208 -1.1489 0
M  V30 10213 H 940.447 -1.18911 -3.73319 0
M  V30 10214 H 942.144 -1.57767 -3.68661 0
M  V30 10215 H 938.734 -2.90693 -3.14953 0
M  V30 10216 H 942.918 -3.88569 -3.08753 0
M  V30 10217 H 938.174 -5.29844 -3.05083 0
M  V30 10218 H 942.348 -6.28448 -3.00043 0
M  V30 10219 H 939.975 -6.99468 -2.97739 0
M  V30 10220 N 941.55 1.18024 -1.04442 0
M  V30 10221 C 942.513 2.19992 -0.643136 0
M  V30 10222 C 943.513 1.57949 0.301444 0
M  V30 10223 O 944.703 1.73986 0.0863341 0
M  V30 10224 C 941.835 3.40853 0.0565208 0
M  V30 10225 H 943.028 2.57008 -1.54554 0
M  V30 10226 H 940.581 1.31974 -0.837408 0
M  V30 10227 H 941.316 3.09373 0.972553 0
M  V30 10228 H 941.101 3.87128 -0.622439 0
M  V30 10229 H 942.591 4.16344 0.323652 0
M  V30 10230 N 943.028 0.824394 1.34319 0
M  V30 10231 C 943.978 0.219624 2.2694 0
M  V30 10232 C 944.962 -0.616964 1.48601 0
M  V30 10233 O 946.154 -0.471303 1.7061 0
M  V30 10234 C 943.283 -0.616379 3.37721 0
M  V30 10235 C 942.369 0.230917 4.23471 0
M  V30 10236 N 942.76 1.30264 4.88738 0
M  V30 10237 C 941.058 0.0155016 4.45997 0
M  V30 10238 C 941.759 1.82141 5.52449 0
M  V30 10239 N 940.735 1.12508 5.3183 0
M  V30 10240 H 944.537 1.03939 2.74907 0
M  V30 10241 H 942.051 0.667353 1.48055 0
M  V30 10242 H 944.048 -1.06582 4.03046 0
M  V30 10243 H 942.708 -1.43429 2.91304 0
M  V30 10244 H 943.719 1.68545 4.89707 0
M  V30 10245 H 940.396 -0.770128 4.10336 0
M  V30 10246 H 941.786 2.7181 6.14466 0
M  V30 10247 N 944.506 -1.46559 0.579492 0
M  V30 10248 C 945.783 -1.956 -0.00287136 0
M  V30 10249 C 946.163 -1.52215 -1.46266 0
M  V30 10250 O 945.511 -0.771335 -2.15088 0
M  V30 10251 C 945.721 -3.48606 0.165824 0
M  V30 10252 C 947.069 -4.24588 0.0319807 0
M  V30 10253 O 948.093 -3.56075 0.094496 0
M  V30 10254 O 946.952 -5.46396 -0.106386 0
M  V30 10255 H 944.046 -0.825387 -0.0516274 0
M  V30 10256 H 946.592 -1.56858 0.647584 0
M  V30 10257 H 945.364 -3.7306 1.18076 0
M  V30 10258 H 944.987 -3.94169 -0.521212 0
M  V30 10259 N 945.984 -0.3171 -1.54377 0
M  V30 10260 C 947.233 0.288271 -1.99629 0
M  V30 10261 C 947.546 1.53754 -1.2091 0
M  V30 10262 O 948.752 2.2185 -1.56508 0
M  V30 10263 C 947.208 0.564188 -3.5545 0
M  V30 10264 C 946.816 -0.667659 -4.42997 0
M  V30 10265 C 948.56 1.12987 -4.09187 0
M  V30 10266 C 946.467 -0.364003 -5.90279 0
M  V30 10267 H 945.397 0.111492 -0.745711 0
M  V30 10268 H 948.048 -0.428317 -1.78431 0
M  V30 10269 H 946.43 1.34079 -3.72611 0
M  V30 10270 H 947.604 -1.44335 -4.37612 0
M  V30 10271 H 945.919 -1.1531 -4.00116 0
M  V30 10272 H 948.516 1.37157 -5.1681 0
M  V30 10273 H 948.859 2.07722 -3.60773 0
M  V30 10274 H 949.392 0.414595 -3.95634 0
M  V30 10275 H 946.131 -1.28035 -6.42874 0
M  V30 10276 H 945.651 0.374102 -5.98632 0
M  V30 10277 H 947.33 0.0285433 -6.46994 0
M  V30 10278 N 947.462 1.57535 -0.0451378 0
M  V30 10279 C 948.739 1.83785 0.669523 0
M  V30 10280 C 949.119 0.932331 1.89396 0
M  V30 10281 O 948.467 -0.00813229 2.28499 0
M  V30 10282 C 948.677 3.33376 1.03255 0
M  V30 10283 C 950.025 4.00243 1.41741 0
M  V30 10284 O 951.049 3.37965 1.12507 0
M  V30 10285 O 949.908 5.10038 1.96275 0
M  V30 10286 H 947.002 0.758342 0.329919 0
M  V30 10287 H 949.548 1.69538 -0.0740415 0
M  V30 10288 H 948.32 3.90965 0.161777 0
M  V30 10289 H 947.943 3.52787 1.83376 0
M  V30 10290 N 948.94 -0.228186 1.55939 0
M  V30 10291 C 949.872 -1.30605 1.88348 0
M  V30 10292 C 950.885 -1.43375 0.771198 0
M  V30 10293 O 952.074 -1.44391 1.04945 0
M  V30 10294 C 949.174 -2.68248 2.07115 0
M  V30 10295 C 948.347 -2.77509 3.38094 0
M  V30 10296 C 947.406 -3.96121 3.46373 0
M  V30 10297 O 946.432 -3.8477 4.19453 0
M  V30 10298 N 947.634 -5.10132 2.77031 0
M  V30 10299 H 950.399 -1.03132 2.81396 0
M  V30 10300 H 947.96 -0.418245 1.56404 0
M  V30 10301 H 949.952 -3.45966 2.09976 0
M  V30 10302 H 948.522 -2.88348 1.20723 0
M  V30 10303 H 947.742 -1.8632 3.47388 0
M  V30 10304 H 949.03 -2.80662 4.2439 0
M  V30 10305 H 948.428 -5.22249 2.17424 0
M  V30 10306 H 946.985 -5.85916 2.85561 0
M  V30 10307 N 950.418 -1.49637 -0.494624 0
M  V30 10308 C 951.365 -1.66776 -1.59545 0
M  V30 10309 C 952.335 -0.509159 -1.58104 0
M  V30 10310 O 953.52 -0.736949 -1.75993 0
M  V30 10311 C 950.66 -1.74624 -2.97658 0
M  V30 10312 C 949.773 -3.01831 -3.09067 0
M  V30 10313 C 948.908 -3.00619 -4.37952 0
M  V30 10314 C 947.947 -4.22378 -4.43016 0
M  V30 10315 N 947.084 -4.1904 -5.63339 0
M  V30 10316 H 951.924 -2.60767 -1.44238 0
M  V30 10317 H 949.461 -1.29286 -0.701673 0
M  V30 10318 H 951.419 -1.77156 -3.77719 0
M  V30 10319 H 950.049 -0.840936 -3.11654 0
M  V30 10320 H 949.101 -3.08881 -2.22029 0
M  V30 10321 H 950.413 -3.91823 -3.08669 0
M  V30 10322 H 949.567 -3.01749 -5.26339 0
M  V30 10323 H 948.306 -2.08416 -4.40924 0
M  V30 10324 H 947.311 -4.21485 -3.5303 0
M  V30 10325 H 948.536 -5.15781 -4.41755 0
M  V30 10326 H 946.482 -3.29677 -5.67141 0
M  V30 10327 H 946.399 -5.02774 -5.64583 0
M  V30 10328 H 947.667 -4.24281 -6.53916 0
M  V30 10329 N 951.896 0.746133 -1.38819 0
M  V30 10330 C 952.826 1.87344 -1.39372 0
M  V30 10331 C 953.807 1.68123 -0.258583 0
M  V30 10332 O 954.992 1.88606 -0.462769 0
M  V30 10333 C 952.122 3.24962 -1.22543 0
M  V30 10334 C 951.076 3.58799 -2.33339 0
M  V30 10335 C 950.402 4.95235 -2.01609 0
M  V30 10336 C 951.702 3.62911 -3.75624 0
M  V30 10337 H 953.396 1.87138 -2.33709 0
M  V30 10338 H 950.942 0.898937 -1.12495 0
M  V30 10339 H 952.895 4.03488 -1.21554 0
M  V30 10340 H 951.619 3.25667 -0.246707 0
M  V30 10341 H 950.278 2.82596 -2.33527 0
M  V30 10342 H 949.926 4.92508 -1.02202 0
M  V30 10343 H 949.626 5.18843 -2.75819 0
M  V30 10344 H 951.15 5.76131 -2.02251 0
M  V30 10345 H 952.564 4.31535 -3.77426 0
M  V30 10346 H 950.961 3.98031 -4.491 0
M  V30 10347 H 952.031 2.62967 -4.07402 0
M  V30 10348 N 953.375 1.23811 0.975125 0
M  V30 10349 C 954.6 1.10109 1.75757 0
M  V30 10350 C 955.025 -0.342922 1.84948 0
M  V30 10351 O 954.383 -1.24814 1.31496 0
M  V30 10352 C 954.431 1.73724 3.15994 0
M  V30 10353 O 953.535 1.00297 4.00018 0
M  V30 10354 H 952.876 0.385627 0.540544 0
M  V30 10355 H 955.406 1.63971 1.22372 0
M  V30 10356 H 955.416 1.79178 3.6655 0
M  V30 10357 H 954.091 2.78794 3.0862 0
M  V30 10358 H 952.668 1.02575 3.58515 0
M  V30 10359 N 954.853 -1.17469 1.05066 0
M  V30 10360 C 955.803 -2.19388 0.620713 0
M  V30 10361 C 956.787 -1.5722 -0.34214 0
M  V30 10362 O 957.979 -1.76279 -0.159574 0
M  V30 10363 C 955.108 -3.433 -0.00438518 0
M  V30 10364 C 954.194 -4.12569 0.982218 0
M  V30 10365 N 954.585 -4.57683 2.15313 0
M  V30 10366 C 952.883 -4.38575 0.810416 0
M  V30 10367 C 953.584 -5.11124 2.77719 0
M  V30 10368 N 952.56 -5.0325 2.05525 0
M  V30 10369 H 956.362 -2.51971 1.51287 0
M  V30 10370 H 953.876 -1.33784 0.920625 0
M  V30 10371 H 955.873 -4.15591 -0.330161 0
M  V30 10372 H 954.533 -3.12209 -0.89195 0
M  V30 10373 H 955.544 -4.51812 2.53154 0
M  V30 10374 H 952.221 -4.17492 -0.0262078 0
M  V30 10375 H 953.611 -5.56161 3.77008 0
M  V30 10376 N 956.331 -0.831506 -1.3388 0
M  V30 10377 C 957.261 -0.274378 -2.31882 0
M  V30 10378 C 958.242 0.613872 -1.58637 0
M  V30 10379 O 959.427 0.538961 -1.86571 0
M  V30 10380 C 956.557 0.557498 -3.42796 0
M  V30 10381 C 955.511 -0.234337 -4.27358 0
M  V30 10382 C 954.837 0.720825 -5.29819 0
M  V30 10383 C 956.137 -1.44732 -5.01847 0
M  V30 10384 H 957.831 -1.09322 -2.78728 0
M  V30 10385 H 955.377 -0.527136 -1.34005 0
M  V30 10386 H 957.33 0.957501 -4.10378 0
M  V30 10387 H 956.054 1.40947 -2.94621 0
M  V30 10388 H 954.713 -0.61581 -3.61391 0
M  V30 10389 H 954.361 1.569 -4.77903 0
M  V30 10390 H 954.061 0.195171 -5.87276 0
M  V30 10391 H 955.585 1.1185 -6.00268 0
M  V30 10392 H 956.999 -1.12087 -5.62236 0
M  V30 10393 H 955.396 -1.90923 -5.68919 0
M  V30 10394 H 956.466 -2.22099 -4.31045 0
M  V30 10395 N 957.809 1.4625 -0.587256 0
M  V30 10396 C 959.057 2.01963 -0.0744273 0
M  V30 10397 C 959.378 1.46065 1.29189 0
M  V30 10398 O 958.648 0.647077 1.84905 0
M  V30 10399 H 957.228 0.746597 -0.0245236 0
M  V30 10400 H 959.89 1.79299 -0.764063 0
M  V30 10401 H 958.986 3.12099 -0.00884894 0
M  V30 10402 N 959.287 0.325282 1.54207 0
M  V30 10403 C 960.25 -0.527228 2.23054 0
M  V30 10404 C 961.25 -1.04217 1.22456 0
M  V30 10405 O 962.44 -0.934325 1.47024 0
M  V30 10406 C 959.572 -1.7325 2.93594 0
M  V30 10407 H 960.765 0.0746423 2.99807 0
M  V30 10408 H 958.318 0.0763872 1.56113 0
M  V30 10409 H 959.053 -2.37356 2.20981 0
M  V30 10410 H 958.838 -1.37065 3.67363 0
M  V30 10411 H 960.328 -2.3376 3.46043 0
M  V30 10412 N 960.765 -1.57509 0.0534917 0
M  V30 10413 C 961.99 -1.97511 -0.632794 0
M  V30 10414 C 962.415 -0.930947 -1.63447 0
M  V30 10415 O 961.773 0.105558 -1.80992 0
M  V30 10416 C 961.821 -3.3658 -1.29407 0
M  V30 10417 O 960.925 -3.3467 -2.40977 0
M  V30 10418 H 960.266 -0.643349 -0.16431 0
M  V30 10419 H 962.796 -2.04232 0.12258 0
M  V30 10420 H 962.806 -3.73359 -1.64521 0
M  V30 10421 H 961.481 -4.12113 -0.559976 0
M  V30 10422 H 960.058 -3.09639 -2.07793 0
M  V30 10423 N 962.243 0.219913 -1.56058 0
M  V30 10424 C 963.175 1.29604 -1.89038 0
M  V30 10425 C 964.188 1.42964 -0.778791 0
M  V30 10426 O 965.377 1.43832 -1.0571 0
M  V30 10427 C 962.477 2.67145 -2.08534 0
M  V30 10428 C 961.65 2.75712 -3.39561 0
M  V30 10429 C 960.709 3.94279 -3.48469 0
M  V30 10430 O 959.735 3.8254 -4.21487 0
M  V30 10431 N 960.937 5.08655 -2.79732 0
M  V30 10432 H 963.702 1.01638 -2.81939 0
M  V30 10433 H 961.263 0.409945 -1.56624 0
M  V30 10434 H 963.255 3.44847 -2.11808 0
M  V30 10435 H 961.825 2.87704 -1.2225 0
M  V30 10436 H 961.045 1.84475 -3.48371 0
M  V30 10437 H 962.333 2.78407 -4.25872 0
M  V30 10438 H 961.731 5.21088 -2.2019 0
M  V30 10439 H 960.288 5.84394 -2.88665 0
M  V30 10440 N 963.721 1.49897 0.486681 0
M  V30 10441 C 964.651 1.7054 1.59494 0
M  V30 10442 C 965.632 0.554184 1.60819 0
M  V30 10443 O 966.817 0.791617 1.77333 0
M  V30 10444 C 963.947 1.78517 2.97908 0
M  V30 10445 C 962.901 2.93571 3.11449 0
M  V30 10446 C 962.227 2.86674 4.51356 0
M  V30 10447 C 963.527 4.34308 2.90127 0
M  V30 10448 H 965.221 2.63329 1.42472 0
M  V30 10449 H 962.767 1.2672 0.683969 0
M  V30 10450 H 964.72 1.91544 3.75352 0
M  V30 10451 H 963.444 0.823381 3.16051 0
M  V30 10452 H 962.103 2.80169 2.36433 0
M  V30 10453 H 961.751 1.88373 4.66395 0
M  V30 10454 H 961.451 3.63903 4.61355 0
M  V30 10455 H 962.975 3.01728 5.30841 0
M  V30 10456 H 964.389 4.48317 3.57331 0
M  V30 10457 H 962.786 5.12869 3.11585 0
M  V30 10458 H 963.856 4.47759 1.86119 0
M  V30 10459 N 965.199 -0.738761 1.39212 0
M  V30 10460 C 966.427 -1.52801 1.39497 0
M  V30 10461 C 966.842 -1.88797 -0.0114917 0
M  V30 10462 O 966.199 -1.53835 -0.981887 0
M  V30 10463 C 966.25 -2.81793 2.2644 0
M  V30 10464 O 965.971 -2.47328 3.61608 0
M  V30 10465 C 967.472 -3.75844 2.35067 0
M  V30 10466 H 964.692 -0.472322 0.476606 0
M  V30 10467 H 967.236 -0.913153 1.8298 0
M  V30 10468 H 965.391 -3.3962 1.8638 0
M  V30 10469 H 965.805 -3.30162 4.07545 0
M  V30 10470 H 967.279 -4.6326 3.00157 0
M  V30 10471 H 967.756 -4.17329 1.3687 0
M  V30 10472 H 968.362 -3.23937 2.75581 0
M  V30 10473 N 966.677 -1.24326 -0.968545 0
M  V30 10474 C 968.088 -1.07561 -1.52603 0
M  V30 10475 C 968.439 0.353245 -1.92994 0
M  V30 10476 O 967.564 1.24151 -1.77244 0
M  V30 10477 C 968.159 -1.94634 -2.77314 0
M  V30 10478 C 966.718 -1.82095 -3.29421 0
M  V30 10479 C 965.865 -1.8962 -2.02335 0
M  V30 10480 H 968.816 -1.37815 -0.786932 0
M  V30 10481 H 968.837 -1.47812 -3.50616 0
M  V30 10482 H 968.349 -2.98621 -2.47885 0
M  V30 10483 H 966.45 -0.809376 -3.63703 0
M  V30 10484 H 966.563 -2.66142 -3.98378 0
M  V30 10485 H 964.927 -1.33339 -2.17009 0
M  V30 10486 H 965.71 -2.95185 -1.75273 0
M  V30 10487 N 968.156 1.1691 -1.05688 0
M  V30 10488 C 969.089 2.19992 -0.606539 0
M  V30 10489 C 970.067 1.58393 0.367483 0
M  V30 10490 O 971.251 1.8644 0.277914 0
M  V30 10491 C 968.378 3.38516 0.111663 0
M  V30 10492 C 967.424 4.18579 -0.818153 0
M  V30 10493 S 968.257 4.83111 -2.31006 0
M  V30 10494 C 969.413 6.0502 -1.60317 0
M  V30 10495 H 969.646 2.57851 -1.47987 0
M  V30 10496 H 967.179 1.27604 -0.869291 0
M  V30 10497 H 969.137 4.07195 0.519829 0
M  V30 10498 H 967.798 2.99034 0.961103 0
M  V30 10499 H 966.991 5.03318 -0.262092 0
M  V30 10500 H 966.593 3.55362 -1.16592 0
M  V30 10501 H 968.885 6.71424 -0.905309 0
M  V30 10502 H 969.828 6.65164 -2.42823 0
M  V30 10503 H 970.236 5.53908 -1.08842 0
M  V30 10504 N 969.634 0.838594 1.33437 0
M  V30 10505 C 970.882 0.433312 1.974 0
M  V30 10506 C 971.203 -1.01078 1.66758 0
M  V30 10507 O 970.473 -1.70406 0.966373 0
M  V30 10508 H 969.053 0.15724 0.730263 0
M  V30 10509 H 971.715 1.07149 1.62804 0
M  V30 10510 H 970.811 0.565144 3.06941 0
M  V30 10511 N 971.112 -1.45937 0.595003 0
M  V30 10512 C 972.022 -2.34221 -0.133325 0
M  V30 10513 C 973.038 -1.50491 -0.873407 0
M  V30 10514 O 974.214 -1.83328 -0.833828 0
M  V30 10515 C 971.279 -3.27896 -1.12628 0
M  V30 10516 C 970.34 -4.27529 -0.389532 0
M  V30 10517 C 969.573 -5.16729 -1.33519 0
M  V30 10518 O 969.796 -5.09102 -2.57238 0
M  V30 10519 O 968.73 -5.96023 -0.839084 0
M  V30 10520 H 972.556 -2.97877 0.591861 0
M  V30 10521 H 970.141 -1.45113 0.355329 0
M  V30 10522 H 972.023 -3.85654 -1.69851 0
M  V30 10523 H 970.698 -2.6682 -1.83272 0
M  V30 10524 H 969.605 -3.73424 0.224843 0
M  V30 10525 H 970.938 -4.91425 0.276169 0
M  V30 10526 N 972.59 -0.333456 -1.54032 0
M  V30 10527 C 973.838 0.265608 -2.00347 0
M  V30 10528 C 974.159 1.51873 -1.2231 0
M  V30 10529 O 973.429 1.93142 -0.327549 0
M  V30 10530 H 972.009 0.101135 -0.740122 0
M  V30 10531 H 974.671 -0.452285 -1.8958 0
M  V30 10532 H 973.767 0.51511 -3.0782 0
M  V30 10533 N 974.068 1.57479 -0.061844 0
M  V30 10534 C 975.345 1.84484 0.649993 0
M  V30 10535 C 975.725 0.952366 1.88396 0
M  V30 10536 O 975.073 0.0161035 2.28494 0
M  V30 10537 C 975.283 3.34452 0.997133 0
M  V30 10538 C 976.631 4.01724 1.37488 0
M  V30 10539 O 977.655 3.3914 1.08916 0
M  V30 10540 O 976.514 5.12091 1.90854 0
M  V30 10541 H 973.608 0.761798 0.321858 0
M  V30 10542 H 976.154 1.6945 -0.0920192 0
M  V30 10543 H 974.926 3.91115 0.120301 0
M  V30 10544 H 974.549 3.54713 1.79624 0
M  V30 10545 N 975.546 -0.211634 1.56173 0
M  V30 10546 C 976.456 -1.2831 1.96402 0
M  V30 10547 C 977.472 -1.50731 0.869254 0
M  V30 10548 O 978.648 -1.63669 1.17365 0
M  V30 10549 C 975.713 -2.61084 2.28114 0
M  V30 10550 C 974.774 -2.46879 3.51211 0
M  V30 10551 C 974.007 -3.73321 3.81401 0
M  V30 10552 O 974.23 -4.76773 3.13119 0
M  V30 10553 O 973.164 -3.69839 4.74871 0
M  V30 10554 H 976.99 -0.971733 2.87734 0
M  V30 10555 H 974.575 -0.415305 1.43512 0
M  V30 10556 H 976.457 -3.39481 2.49661 0
M  V30 10557 H 975.132 -2.91881 1.39954 0
M  V30 10558 H 974.039 -1.66648 3.34932 0
M  V30 10559 H 975.372 -2.21018 4.39786 0
M  V30 10560 N 977.024 -1.50153 -0.478725 0
M  V30 10561 C 977.954 -1.71384 -1.58587 0
M  V30 10562 C 978.935 -0.562705 -1.60523 0
M  V30 10563 O 980.12 -0.80101 -1.76911 0
M  V30 10564 C 977.25 -1.80094 -2.96957 0
M  V30 10565 C 976.204 -2.95218 -3.09888 0
M  V30 10566 C 975.53 -2.89063 -4.49829 0
M  V30 10567 C 976.83 -4.35841 -2.8782 0
M  V30 10568 H 978.524 -2.64081 -1.41073 0
M  V30 10569 H 976.07 -1.27081 -0.677239 0
M  V30 10570 H 978.023 -1.93531 -3.74331 0
M  V30 10571 H 976.747 -0.840131 -3.1561 0
M  V30 10572 H 975.406 -2.81419 -2.34944 0
M  V30 10573 H 975.054 -1.90844 -4.6539 0
M  V30 10574 H 974.754 -3.66345 -4.59418 0
M  V30 10575 H 976.278 -3.04539 -5.29234 0
M  V30 10576 H 977.692 -4.50205 -3.54948 0
M  V30 10577 H 976.089 -5.14515 -3.0886 0
M  V30 10578 H 977.159 -4.48739 -1.83742 0
M  V30 10579 N 978.502 0.731368 -1.39602 0
M  V30 10580 C 979.727 1.52567 -1.40492 0
M  V30 10581 C 980.152 1.881 -0.00228828 0
M  V30 10582 O 979.51 1.52167 0.985643 0
M  V30 10583 C 979.558 2.78749 -2.2876 0
M  V30 10584 O 978.662 3.7482 -1.71999 0
M  V30 10585 H 978.003 0.460601 -0.478271 0
M  V30 10586 H 980.533 0.902042 -1.83642 0
M  V30 10587 H 980.543 3.27446 -2.43399 0
M  V30 10588 H 979.218 2.5222 -3.30693 0
M  V30 10589 H 977.795 3.33604 -1.66622 0
M  V30 10590 N 979.98 1.24838 0.961938 0
M  V30 10591 C 981.228 1.08936 1.70227 0
M  V30 10592 C 981.549 -0.371582 1.91427 0
M  V30 10593 O 980.819 -1.26461 1.49614 0
M  V30 10594 H 979.399 0.400128 0.630799 0
M  V30 10595 H 982.061 1.56848 1.15692 0
M  V30 10596 H 981.157 1.59195 2.68446 0
M  V30 10597 N 981.458 -1.16348 1.06306 0
M  V30 10598 C 982.39 -2.20316 0.631929 0
M  V30 10599 C 983.403 -1.59819 -0.310133 0
M  V30 10600 O 984.592 -1.78213 -0.101103 0
M  V30 10601 C 981.692 -3.3877 -0.0937645 0
M  V30 10602 C 980.865 -4.28826 0.861816 0
M  V30 10603 C 979.924 -5.25908 0.175346 0
M  V30 10604 O 978.95 -5.63363 0.813039 0
M  V30 10605 N 980.152 -5.70307 -1.08305 0
M  V30 10606 H 982.917 -2.57925 1.52626 0
M  V30 10607 H 980.478 -1.31358 0.946392 0
M  V30 10608 H 982.47 -4.00759 -0.563412 0
M  V30 10609 H 981.04 -2.99666 -0.889904 0
M  V30 10610 H 980.26 -3.64098 1.51083 0
M  V30 10611 H 981.548 -4.85875 1.51007 0
M  V30 10612 H 980.946 -5.4197 -1.62127 0
M  V30 10613 H 979.503 -6.34387 -1.49656 0
M  V30 10614 N 982.937 -0.845659 -1.3299 0
M  V30 10615 C 983.847 -0.2864 -2.32845 0
M  V30 10616 C 984.863 0.591105 -1.63652 0
M  V30 10617 O 986.039 0.493615 -1.95257 0
M  V30 10618 C 983.104 0.523636 -3.42723 0
M  V30 10619 C 982.165 -0.378945 -4.27624 0
M  V30 10620 C 981.398 0.392526 -5.32255 0
M  V30 10621 O 981.621 1.6235 -5.46808 0
M  V30 10622 O 980.555 -0.237 -6.01433 0
M  V30 10623 H 984.381 -1.11346 -2.82552 0
M  V30 10624 H 981.966 -0.608356 -1.36453 0
M  V30 10625 H 983.848 0.983718 -4.09757 0
M  V30 10626 H 982.523 1.32764 -2.95221 0
M  V30 10627 H 981.43 -0.887012 -3.63432 0
M  V30 10628 H 982.763 -1.1479 -4.78627 0
M  V30 10629 N 984.415 1.45619 -0.602734 0
M  V30 10630 C 985.692 1.9558 -0.0282472 0
M  V30 10631 C 986.072 1.54523 1.43826 0
M  V30 10632 O 985.42 0.805456 2.13833 0
M  V30 10633 C 985.63 3.48298 -0.221263 0
M  V30 10634 C 986.978 4.24483 -0.0995249 0
M  V30 10635 O 988.002 3.55879 -0.151132 0
M  V30 10636 O 986.861 5.46497 0.0194454 0
M  V30 10637 H 983.955 0.826104 0.0384897 0
M  V30 10638 H 986.501 1.55808 -0.672456 0
M  V30 10639 H 985.273 3.71134 -1.23997 0
M  V30 10640 H 984.896 3.94948 0.458437 0
M  V30 10641 N 985.893 0.34162 1.53853 0
M  V30 10642 C 986.856 -0.503541 2.236 0
M  V30 10643 C 987.856 -1.02912 1.23554 0
M  V30 10644 O 989.046 -0.918678 1.48007 0
M  V30 10645 C 986.178 -1.70126 2.95415 0
M  V30 10646 H 987.371 0.106437 2.99711 0
M  V30 10647 H 984.924 0.0929408 1.56023 0
M  V30 10648 H 985.659 -2.34999 2.23486 0
M  V30 10649 H 985.444 -1.33161 3.68796 0
M  V30 10650 H 986.934 -2.30077 3.48503 0
M  V30 10651 N 987.371 -1.57444 0.0701946 0
M  V30 10652 C 988.618 -1.93429 -0.59929 0
M  V30 10653 C 988.946 -0.9501 -1.69715 0
M  V30 10654 O 988.201 0.0345377 -1.9567 0
M  V30 10655 C 988.5 -3.36044 -1.21694 0
M  V30 10656 C 988.166 -4.50232 -0.245374 0
M  V30 10657 C 986.828 -4.81195 0.0219161 0
M  V30 10658 C 989.18 -5.1951 0.419396 0
M  V30 10659 C 986.508 -5.78775 0.96109 0
M  V30 10660 C 988.86 -6.18095 1.34688 0
M  V30 10661 C 987.524 -6.47477 1.62265 0
M  V30 10662 H 986.794 -0.707807 -0.219296 0
M  V30 10663 H 989.441 -1.90982 0.14073 0
M  V30 10664 H 987.746 -3.34948 -2.03265 0
M  V30 10665 H 989.443 -3.61176 -1.74221 0
M  V30 10666 H 986.033 -4.26082 -0.463887 0
M  V30 10667 H 990.217 -4.95785 0.226009 0
M  V30 10668 H 985.473 -5.99865 1.18202 0
M  V30 10669 H 989.647 -6.7088 1.86795 0
M  V30 10670 H 987.274 -7.229 2.352 0
M  V30 10671 N 988.849 0.203349 -1.56283 0
M  V30 10672 C 990.265 0.55384 -1.49682 0
M  V30 10673 C 990.465 1.86261 -0.768701 0
M  V30 10674 O 989.521 2.50517 -0.315824 0
M  V30 10675 C 990.834 0.616216 -2.94318 0
M  V30 10676 C 992.382 0.705611 -3.04943 0
M  V30 10677 C 992.857 0.79917 -4.50974 0
M  V30 10678 N 994.348 0.862916 -4.55091 0
M  V30 10679 C 995.083 0.955334 -5.65386 0
M  V30 10680 N 994.579 1.01057 -6.8539 0
M  V30 10681 N 996.372 0.991884 -5.53279 0
M  V30 10682 H 988.523 -0.655244 -2.0204 0
M  V30 10683 H 990.786 -0.232344 -0.919087 0
M  V30 10684 H 990.492 -0.27619 -3.50614 0
M  V30 10685 H 990.366 1.47371 -3.4722 0
M  V30 10686 H 992.753 1.58845 -2.48701 0
M  V30 10687 H 992.834 -0.177921 -2.5518 0
M  V30 10688 H 992.478 -0.0792841 -5.07838 0
M  V30 10689 H 992.408 1.69838 -4.9846 0
M  V30 10690 H 994.899 0.829812 -3.68677 0
M  V30 10691 H 995.212 1.08137 -7.65197 0
M  V30 10692 H 993.557 0.979384 -6.88065 0
M  V30 10693 H 996.748 0.945514 -4.58451 0
M  V30 10694 H 996.921 1.06045 -6.39264 0
M  V30 10695 N 990.327 1.50405 0.470755 0
M  V30 10696 C 991.552 1.65442 1.25075 0
M  V30 10697 C 991.977 0.337612 1.85045 0
M  V30 10698 O 991.335 -0.698555 1.67302 0
M  V30 10699 C 991.383 2.74793 2.33498 0
M  V30 10700 O 990.487 2.36069 3.3815 0
M  V30 10701 H 989.828 0.552728 0.367951 0
M  V30 10702 H 992.358 1.96782 0.560177 0
M  V30 10703 H 992.368 2.97879 2.78804 0
M  V30 10704 H 991.043 3.70363 1.8922 0
M  V30 10705 H 989.62 2.2343 2.98552 0
M  V30 10706 N 991.805 -0.723954 1.39988 0
M  V30 10707 C 993.051 -1.48476 1.3902 0
M  V30 10708 C 993.406 -1.92397 -0.0105439 0
M  V30 10709 O 992.699 -1.64683 -0.979294 0
M  V30 10710 C 992.893 -2.73004 2.30659 0
M  V30 10711 C 992.722 -2.41261 3.79504 0
M  V30 10712 C 991.492 -2.33013 4.48367 0
M  V30 10713 C 993.69 -2.06078 4.71207 0
M  V30 10714 N 991.672 -1.93856 5.82489 0
M  V30 10715 C 993.043 -1.77455 5.94062 0
M  V30 10716 C 995.098 -1.92642 4.59123 0
M  V30 10717 C 993.801 -1.36748 7.06182 0
M  V30 10718 C 995.827 -1.53338 5.71175 0
M  V30 10719 C 995.189 -1.25607 6.93111 0
M  V30 10720 H 991.288 -0.54172 0.563971 0
M  V30 10721 H 993.872 -0.840344 1.75631 0
M  V30 10722 H 992.043 -3.35209 1.96188 0
M  V30 10723 H 993.775 -3.39286 2.20606 0
M  V30 10724 H 990.53 -2.50476 4.01944 0
M  V30 10725 H 990.954 -1.7684 6.53496 0
M  V30 10726 H 995.596 -2.12745 3.65376 0
M  V30 10727 H 993.314 -1.15386 7.9982 0
M  V30 10728 H 996.9 -1.43532 5.63817 0
M  V30 10729 H 995.78 -0.956505 7.78345 0
M  V30 10730 N 993.283 -1.25346 -0.955304 0
M  V30 10731 C 994.246 -1.05754 -2.03344 0
M  V30 10732 C 995.246 -0.0105743 -1.60797 0
M  V30 10733 O 996.436 -0.252699 -1.72357 0
M  V30 10734 C 993.568 -0.605536 -3.35479 0
M  V30 10735 H 994.761 -2.01459 -2.22158 0
M  V30 10736 H 992.314 -1.07744 -1.1323 0
M  V30 10737 H 993.049 0.354154 -3.2236 0
M  V30 10738 H 992.834 -1.36134 -3.67709 0
M  V30 10739 H 994.324 -0.489867 -4.14717 0
M  V30 10740 N 994.761 1.15782 -1.06922 0
M  V30 10741 C 996.007 1.86741 -0.790922 0
M  V30 10742 C 996.34 1.81863 0.681149 0
M  V30 10743 O 995.615 1.23871 1.49954 0
M  V30 10744 C 995.898 3.36038 -1.29422 0
M  V30 10745 C 995.751 3.49573 -2.83052 0
M  V30 10746 C 997.07 4.30647 -0.907239 0
M  V30 10747 H 994.189 0.678064 -0.288787 0
M  V30 10748 H 996.831 1.36054 -1.32624 0
M  V30 10749 H 994.981 3.79336 -0.838843 0
M  V30 10750 H 996.653 3.1517 -3.36847 0
M  V30 10751 H 994.896 2.91275 -3.21467 0
M  V30 10752 H 995.567 4.5445 -3.13335 0
M  V30 10753 H 998.043 3.95286 -1.29956 0
M  V30 10754 H 996.919 5.33604 -1.28679 0
M  V30 10755 H 997.18 4.41703 0.187251 0
M  V30 10756 N 996.239 0.8527 1.3254 0
M  V30 10757 C 997.171 0.253181 2.27797 0
M  V30 10758 C 998.184 -0.573977 1.52346 0
M  V30 10759 O 999.373 -0.398786 1.73988 0
M  V30 10760 C 996.473 -0.661034 3.32391 0
M  V30 10761 C 995.646 0.12984 4.37207 0
M  V30 10762 C 994.705 -0.709837 5.2139 0
M  V30 10763 O 993.731 -0.144056 5.69018 0
M  V30 10764 N 994.933 -2.0249 5.44039 0
M  V30 10765 H 997.698 1.07171 2.79883 0
M  V30 10766 H 995.259 0.712491 1.45379 0
M  V30 10767 H 997.251 -1.22806 3.85617 0
M  V30 10768 H 995.821 -1.38025 2.80478 0
M  V30 10769 H 995.041 0.878289 3.84291 0
M  V30 10770 H 996.329 0.673141 5.04328 0
M  V30 10771 H 995.727 -2.50792 5.0707 0
M  V30 10772 H 994.284 -2.5401 6.00269 0
M  V30 10773 N 997.718 -1.45297 0.610449 0
M  V30 10774 C 998.946 -2.0659 0.113211 0
M  V30 10775 C 999.361 -1.4546 -1.20361 0
M  V30 10776 O 998.718 -0.569823 -1.73376 0
M  V30 10777 C 998.769 -3.61488 -0.0298411 0
M  V30 10778 O 998.49 -4.20336 1.23488 0
M  V30 10779 C 999.991 -4.39772 -0.558202 0
M  V30 10780 H 997.211 -0.667322 0.0701555 0
M  V30 10781 H 999.755 -1.86497 0.838993 0
M  V30 10782 H 997.91 -3.80913 -0.705963 0
M  V30 10783 H 998.324 -5.13545 1.0664 0
M  V30 10784 H 999.798 -5.48648 -0.607375 0
M  V30 10785 H 1000.27 -4.09755 -1.58107 0
M  V30 10786 H 1000.88 -4.25217 0.0839704 0
M  V30 10787 N 999.196 -0.349774 -1.5367 0
M  V30 10788 C 1000.44 0.244827 -2.01015 0
M  V30 10789 C 1000.77 1.50057 -1.23746 0
M  V30 10790 O 1000.03 1.9315 -0.314872 0
M  V30 10791 C 1000.32 0.598311 -3.52356 0
M  V30 10792 C 999.991 -0.56127 -4.47393 0
M  V30 10793 C 998.653 -0.879481 -4.73095 0
M  V30 10794 C 1001 -1.3389 -5.03709 0
M  V30 10795 C 998.333 -1.97758 -5.52366 0
M  V30 10796 C 1000.68 -2.4273 -5.84179 0
M  V30 10797 C 999.349 -2.75103 -6.08173 0
M  V30 10798 H 998.619 0.0895884 -0.735564 0
M  V30 10799 H 1001.27 -0.478975 -1.85413 0
M  V30 10800 H 999.571 1.40291 -3.65822 0
M  V30 10801 H 1001.27 1.07036 -3.86451 0
M  V30 10802 H 997.858 -0.303201 -4.27526 0
M  V30 10803 H 1002.04 -1.10632 -4.83812 0
M  V30 10804 H 997.298 -2.23257 -5.6918 0
M  V30 10805 H 1001.47 -3.03412 -6.26828 0
M  V30 10806 H 999.099 -3.60317 -6.69385 0
M  V30 10807 N 1000.67 1.57404 -0.0785433 0
M  V30 10808 C 1001.62 2.13104 0.88631 0
M  V30 10809 C 1002.59 1.04527 1.29086 0
M  V30 10810 O 1003.78 1.32226 1.37553 0
M  V30 10811 C 1000.92 2.70252 2.14611 0
M  V30 10812 C 1000.03 3.93007 1.79358 0
M  V30 10813 C 999.164 4.38376 3 0
M  V30 10814 C 998.203 5.53761 2.60796 0
M  V30 10815 N 997.34 5.94058 3.74219 0
M  V30 10816 H 1002.18 2.95243 0.404452 0
M  V30 10817 H 999.717 1.45894 0.187982 0
M  V30 10818 H 1001.67 3.01497 2.88367 0
M  V30 10819 H 1000.3 1.90868 2.60326 0
M  V30 10820 H 999.357 3.68181 0.956384 0
M  V30 10821 H 1000.67 4.76795 1.4652 0
M  V30 10822 H 999.823 4.71317 3.82027 0
M  V30 10823 H 998.562 3.53455 3.36037 0
M  V30 10824 H 997.567 5.20464 1.77192 0
M  V30 10825 H 998.792 6.40419 2.25922 0
M  V30 10826 H 996.738 5.12085 4.10005 0
M  V30 10827 H 996.655 6.72602 3.45171 0
M  V30 10828 H 997.923 6.31624 4.56805 0
M  V30 10829 N 1002.15 -0.195058 1.56388 0
M  V30 10830 C 1003.11 -1.2254 1.93692 0
M  V30 10831 C 1004.11 -1.38437 0.81804 0
M  V30 10832 O 1005.3 -1.36248 1.08545 0
M  V30 10833 C 1002.44 -2.59476 2.21099 0
M  V30 10834 H 1003.63 -0.906544 2.8587 0
M  V30 10835 H 1001.18 -0.436577 1.50079 0
M  V30 10836 H 1001.92 -2.96417 1.31558 0
M  V30 10837 H 1001.7 -2.4931 3.02634 0
M  V30 10838 H 1003.19 -3.33777 2.50964 0
M  V30 10839 N 1003.63 -1.50653 -0.462772 0
M  V30 10840 C 1004.59 -1.69561 -1.54213 0
M  V30 10841 C 1005.59 -0.566106 -1.50505 0
M  V30 10842 O 1006.78 -0.833273 -1.52978 0
M  V30 10843 C 1003.91 -1.72856 -2.93826 0
M  V30 10844 H 1005.11 -2.65867 -1.38761 0
M  V30 10845 H 1002.66 -1.40259 -0.689728 0
M  V30 10846 H 1003.4 -0.78273 -3.14712 0
M  V30 10847 H 1003.18 -2.54919 -2.97924 0
M  V30 10848 H 1004.67 -1.89411 -3.72174 0
M  V30 10849 N 1005.11 0.71652 -1.4037 0
M  V30 10850 C 1006.35 1.48883 -1.40047 0
M  V30 10851 C 1006.71 1.92 -0.00158027 0
M  V30 10852 O 1007.91 2.68501 0.126765 0
M  V30 10853 C 1006.18 2.68265 -2.36154 0
M  V30 10854 S 1007.74 3.57684 -2.5418 0
M  V30 10855 H 1004.56 0.509035 -0.496391 0
M  V30 10856 H 1007.16 0.837967 -1.76631 0
M  V30 10857 H 1005.87 2.34759 -3.36625 0
M  V30 10858 H 1005.4 3.38264 -2.0085 0
M  V30 10859 H 1007.41 4.62653 -1.79352 0
M  V30 10860 N 1006.59 1.25851 0.948643 0
M  V30 10861 C 1007.5 1.08516 2.07994 0
M  V30 10862 C 1008.51 0.0206696 1.73988 0
M  V30 10863 O 1009.69 0.222854 2.00163 0
M  V30 10864 C 1006.75 0.712145 3.39307 0
M  V30 10865 C 1005.81 1.85523 3.87143 0
M  V30 10866 C 1005.05 1.49992 5.1219 0
M  V30 10867 O 1005.27 0.398268 5.69008 0
M  V30 10868 O 1004.2 2.33215 5.54882 0
M  V30 10869 H 1008.03 2.03405 2.25522 0
M  V30 10870 H 1005.62 1.04844 1.06433 0
M  V30 10871 H 1007.5 0.516512 4.18223 0
M  V30 10872 H 1006.17 -0.207416 3.23035 0
M  V30 10873 H 1005.08 2.10578 3.09205 0
M  V30 10874 H 1006.41 2.75425 4.07924 0
M  V30 10875 N 1008.06 -1.15214 1.07534 0
M  V30 10876 C 1009.29 -1.89922 0.820804 0
M  V30 10877 C 1009.71 -1.78114 -0.626177 0
M  V30 10878 O 1009.06 -1.13435 -1.42964 0
M  V30 10879 C 1009.12 -3.40207 1.22236 0
M  V30 10880 O 1008.84 -3.51676 2.61257 0
M  V30 10881 C 1010.34 -4.31934 0.997393 0
M  V30 10882 H 1007.56 -0.601865 0.296647 0
M  V30 10883 H 1010.1 -1.45965 1.43229 0
M  V30 10884 H 1008.26 -3.8182 0.655167 0
M  V30 10885 H 1008.67 -4.44959 2.77689 0
M  V30 10886 H 1010.14 -5.35791 1.32785 0
M  V30 10887 H 1010.62 -4.3915 -0.0661599 0
M  V30 10888 H 1011.23 -3.96066 1.54958 0
M  V30 10889 N 1009.54 -0.859717 -1.32086 0
M  V30 10890 C 1010.79 -0.465581 -1.97075 0
M  V30 10891 C 1011.12 0.979917 -1.68012 0
M  V30 10892 O 1010.37 1.70337 -0.96353 0
M  V30 10893 C 1010.67 -0.657397 -3.51302 0
M  V30 10894 C 1010.34 -2.07413 -4.00363 0
M  V30 10895 C 1009 -2.4616 -4.13472 0
M  V30 10896 C 1011.35 -2.99855 -4.26305 0
M  V30 10897 C 1008.68 -3.76611 -4.49868 0
M  V30 10898 C 1011.03 -4.2981 -4.64161 0
M  V30 10899 C 1009.7 -4.68485 -4.75476 0
M  V30 10900 H 1008.97 -0.170368 -0.721149 0
M  V30 10901 H 1011.61 -1.09074 -1.57401 0
M  V30 10902 H 1009.92 0.0509638 -3.91767 0
M  V30 10903 H 1011.61 -0.332416 -3.9962 0
M  V30 10904 H 1008.2 -1.76327 -3.90649 0
M  V30 10905 H 1012.39 -2.7115 -4.15682 0
M  V30 10906 H 1007.64 -4.06352 -4.56824 0
M  V30 10907 H 1011.82 -5.015 -4.83188 0
M  V30 10908 H 1009.45 -5.69612 -5.03435 0
M  V30 10909 N 1011.02 1.44971 -0.618145 0
M  V30 10910 C 1012.3 1.95539 -0.0489895 0
M  V30 10911 C 1012.68 1.5604 1.42179 0
M  V30 10912 O 1012.03 0.82809 2.12967 0
M  V30 10913 C 1012.24 3.48044 -0.258193 0
M  V30 10914 C 1013.58 4.24354 -0.144541 0
M  V30 10915 O 1014.61 3.55699 -0.18887 0
M  V30 10916 O 1013.47 5.46486 -0.038519 0
M  V30 10917 H 1010.56 0.826466 0.0297256 0
M  V30 10918 H 1013.11 1.55086 -0.688944 0
M  V30 10919 H 1011.88 3.69798 -1.27926 0
M  V30 10920 H 1011.5 3.95412 0.416522 0
M  V30 10921 N 1012.5 0.357919 1.53482 0
M  V30 10922 C 1013.74 -0.23451 2.0144 0
M  V30 10923 C 1014.08 -1.49044 1.24497 0
M  V30 10924 O 1013.35 -1.91566 0.336535 0
M  V30 10925 C 1013.64 -0.534193 3.56116 0
M  V30 10926 C 1013.49 0.734834 4.43757 0
M  V30 10927 C 1014.81 -1.33793 4.1927 0
M  V30 10928 H 1011.93 -0.0837595 0.732225 0
M  V30 10929 H 1014.57 0.481297 1.83803 0
M  V30 10930 H 1012.72 -1.144 3.71275 0
M  V30 10931 H 1014.39 1.37251 4.40409 0
M  V30 10932 H 1012.63 1.35678 4.12036 0
M  V30 10933 H 1013.3 0.48021 5.49907 0
M  V30 10934 H 1015.78 -0.822158 4.07897 0
M  V30 10935 H 1014.66 -1.51636 5.27539 0
M  V30 10936 H 1014.92 -2.34423 3.74831 0
M  V30 10937 N 1013.98 -1.5736 0.0868897 0
M  V30 10938 C 1015.39 -1.57304 -0.269762 0
M  V30 10939 C 1015.59 -1.09745 -1.68992 0
M  V30 10940 O 1014.65 -0.77017 -2.40468 0
M  V30 10941 C 1015.96 -3.00628 -0.0656646 0
M  V30 10942 C 1017.51 -3.12713 -0.134045 0
M  V30 10943 C 1017.98 -4.57981 0.0419569 0
M  V30 10944 N 1019.48 -4.63198 -0.0131501 0
M  V30 10945 C 1020.21 -5.73316 0.0983964 0
M  V30 10946 N 1019.71 -6.92296 0.264315 0
M  V30 10947 N 1021.5 -5.62086 0.0402517 0
M  V30 10948 H 1013.65 -1.86585 1.01487 0
M  V30 10949 H 1015.91 -0.860843 0.397055 0
M  V30 10950 H 1015.62 -3.39592 0.914891 0
M  V30 10951 H 1015.49 -3.68367 -0.811522 0
M  V30 10952 H 1017.88 -2.73627 -1.1051 0
M  V30 10953 H 1017.96 -2.47582 0.643167 0
M  V30 10954 H 1017.61 -4.9776 1.00984 0
M  V30 10955 H 1017.54 -5.21162 -0.754847 0
M  V30 10956 H 1020.03 -3.77644 -0.139183 0
M  V30 10957 H 1020.34 -7.72047 0.341165 0
M  V30 10958 H 1018.68 -6.94353 0.299876 0
M  V30 10959 H 1021.88 -4.68017 -0.0881801 0
M  V30 10960 H 1022.05 -6.47868 0.130635 0
M  V30 10961 N 1015.45 0.186762 -1.56489 0
M  V30 10962 C 1016.7 0.904063 -1.80752 0
M  V30 10963 C 1017.02 1.83443 -0.661343 0
M  V30 10964 O 1016.29 1.93272 0.319811 0
M  V30 10965 H 1014.87 0.336828 -0.66675 0
M  V30 10966 H 1017.54 0.190275 -1.93969 0
M  V30 10967 H 1016.63 1.49021 -2.74225 0
M  V30 10968 N 1016.93 1.50896 0.454776 0
M  V30 10969 C 1017.88 1.70947 1.55067 0
M  V30 10970 C 1018.85 0.550899 1.56698 0
M  V30 10971 O 1020.03 0.783352 1.73978 0
M  V30 10972 C 1017.17 1.82455 2.92924 0
M  V30 10973 C 1016.29 3.09919 3.00956 0
M  V30 10974 C 1015.42 3.12125 4.29827 0
M  V30 10975 C 1014.46 4.33975 4.31662 0
M  V30 10976 N 1013.6 4.33828 5.5203 0
M  V30 10977 H 1018.44 2.645 1.37273 0
M  V30 10978 H 1015.98 1.31101 0.667148 0
M  V30 10979 H 1017.93 1.87108 3.72889 0
M  V30 10980 H 1016.56 0.92327 3.09315 0
M  V30 10981 H 1015.62 3.14659 2.13761 0
M  V30 10982 H 1016.93 3.99869 2.98172 0
M  V30 10983 H 1016.08 3.15598 5.18154 0
M  V30 10984 H 1014.82 2.20033 4.35243 0
M  V30 10985 H 1013.83 4.30697 3.41731 0
M  V30 10986 H 1015.05 5.27312 4.27924 0
M  V30 10987 H 1013 3.44598 5.58201 0
M  V30 10988 H 1012.91 5.17566 5.51055 0
M  V30 10989 H 1014.18 4.4147 6.42437 0
M  V30 10990 N 1018.41 -0.709066 1.40748 0
M  V30 10991 C 1019.34 -1.83412 1.37451 0
M  V30 10992 C 1020.36 -1.60394 0.27884 0
M  V30 10993 O 1021.54 -1.70147 0.539642 0
M  V30 10994 C 1018.64 -3.19935 1.1178 0
M  V30 10995 C 1017.82 -3.70095 2.33128 0
M  V30 10996 C 1016.88 -4.85249 2.03518 0
M  V30 10997 O 1015.9 -4.97563 2.76442 0
M  V30 10998 N 1017.1 -5.7152 1.01714 0
M  V30 10999 H 1019.87 -1.86736 2.34414 0
M  V30 11000 H 1017.43 -0.890863 1.35186 0
M  V30 11001 H 1019.42 -3.94578 0.899464 0
M  V30 11002 H 1017.99 -3.11718 0.234624 0
M  V30 11003 H 1017.21 -2.8651 2.70751 0
M  V30 11004 H 1018.5 -4.00344 3.1401 0
M  V30 11005 H 1017.9 -5.64188 0.413307 0
M  V30 11006 H 1016.46 -6.46119 0.858696 0
M  V30 11007 N 1019.89 -1.26353 -0.941956 0
M  V30 11008 C 1020.84 -1.04513 -2.02635 0
M  V30 11009 C 1021.82 0.0222314 -1.60885 0
M  V30 11010 O 1023.02 -0.194629 -1.75927 0
M  V30 11011 C 1020.14 -0.679282 -3.36512 0
M  V30 11012 C 1019.23 -1.78406 -3.8475 0
M  V30 11013 N 1019.62 -3.02136 -4.05645 0
M  V30 11014 C 1017.92 -1.66748 -4.13656 0
M  V30 11015 C 1018.62 -3.73932 -4.45589 0
M  V30 11016 N 1017.6 -3.01616 -4.52248 0
M  V30 11017 H 1021.4 -1.9843 -2.16801 0
M  V30 11018 H 1018.91 -1.16858 -1.12774 0
M  V30 11019 H 1020.91 -0.503975 -4.13843 0
M  V30 11020 H 1019.57 0.252418 -3.23717 0
M  V30 11021 H 1020.58 -3.38049 -3.92356 0
M  V30 11022 H 1017.26 -0.805627 -4.09653 0
M  V30 11023 H 1018.65 -4.80201 -4.69954 0
M  V30 11024 N 1021.37 1.14642 -1.08144 0
M  V30 11025 C 1022.62 1.84964 -0.804437 0
M  V30 11026 C 1022.93 1.8369 0.672106 0
M  V30 11027 O 1024.14 2.49775 1.06417 0
M  V30 11028 C 1022.59 3.32015 -1.38904 0
M  V30 11029 C 1022.2 3.41713 -2.89718 0
M  V30 11030 C 1023.94 4.07467 -1.19041 0
M  V30 11031 C 1021.85 4.82958 -3.41329 0
M  V30 11032 H 1020.78 0.692932 -0.297256 0
M  V30 11033 H 1023.43 1.29255 -1.30251 0
M  V30 11034 H 1021.81 3.87445 -0.818679 0
M  V30 11035 H 1022.99 2.96347 -3.52867 0
M  V30 11036 H 1021.3 2.79713 -3.08463 0
M  V30 11037 H 1023.9 5.1172 -1.55069 0
M  V30 11038 H 1024.24 4.16097 -0.130027 0
M  V30 11039 H 1024.78 3.58329 -1.72757 0
M  V30 11040 H 1021.51 4.79515 -4.46929 0
M  V30 11041 H 1021.03 5.28873 -2.82937 0
M  V30 11042 H 1022.71 5.51841 -3.37759 0
M  V30 11043 N 1022.85 0.866709 1.31628 0
M  V30 11044 C 1023.78 0.277328 2.27516 0
M  V30 11045 C 1024.79 -0.557786 1.52946 0
M  V30 11046 O 1025.98 -0.38031 1.74402 0
M  V30 11047 C 1023.08 -0.625742 3.33073 0
M  V30 11048 C 1022.25 0.176204 4.37045 0
M  V30 11049 C 1021.31 -0.654497 5.22114 0
M  V30 11050 O 1020.34 -0.0836961 5.69138 0
M  V30 11051 N 1021.54 -1.96708 5.46156 0
M  V30 11052 H 1024.3 1.10133 2.78731 0
M  V30 11053 H 1021.87 0.72787 1.44616 0
M  V30 11054 H 1023.86 -1.18709 3.86898 0
M  V30 11055 H 1022.43 -1.35042 2.81926 0
M  V30 11056 H 1021.65 0.918999 3.83338 0
M  V30 11057 H 1022.94 0.726594 5.03585 0
M  V30 11058 H 1022.33 -2.454 5.09701 0
M  V30 11059 H 1020.89 -2.47629 6.02929 0
M  V30 11060 N 1024.32 -1.44642 0.625825 0
M  V30 11061 C 1025.57 -2.01308 0.125682 0
M  V30 11062 C 1025.89 -1.49773 -1.25807 0
M  V30 11063 O 1027.09 -1.98533 -1.85194 0
M  V30 11064 C 1025.55 -3.59479 0.17395 0
M  V30 11065 C 1025.16 -4.20011 1.55868 0
M  V30 11066 C 1026.9 -4.2364 -0.270005 0
M  V30 11067 C 1024.81 -5.7039 1.56235 0
M  V30 11068 H 1023.74 -0.75276 0.0432194 0
M  V30 11069 H 1026.39 -1.65916 0.783842 0
M  V30 11070 H 1024.77 -3.92145 -0.551212 0
M  V30 11071 H 1025.94 -3.98891 2.307 0
M  V30 11072 H 1024.26 -3.68116 1.94627 0
M  V30 11073 H 1026.86 -5.33931 -0.28672 0
M  V30 11074 H 1027.2 -3.95603 -1.29629 0
M  V30 11075 H 1027.73 -3.95759 0.402487 0
M  V30 11076 H 1024.47 -6.03154 2.56683 0
M  V30 11077 H 1023.99 -5.93648 0.856881 0
M  V30 11078 H 1025.67 -6.33929 1.29396 0
M  V30 11079 N 1025.8 -0.366053 -1.5329 0
M  V30 11080 C 1027.21 0.113056 -1.86357 0
M  V30 11081 C 1027.56 1.48123 -1.28662 0
M  V30 11082 O 1026.69 2.07658 -0.608849 0
M  V30 11083 C 1027.28 0.211923 -3.38137 0
M  V30 11084 C 1025.84 0.635289 -3.71 0
M  V30 11085 C 1024.99 -0.217203 -2.76448 0
M  V30 11086 H 1027.94 -0.584829 -1.47531 0
M  V30 11087 H 1027.96 1.0354 -3.66142 0
M  V30 11088 H 1027.47 -0.783994 -3.80099 0
M  V30 11089 H 1025.57 1.63942 -3.34595 0
M  V30 11090 H 1025.69 0.409571 -4.77346 0
M  V30 11091 H 1024.05 0.313988 -2.52757 0
M  V30 11092 H 1024.83 -1.21067 -3.21244 0
M  V30 11093 N 1027.28 1.57312 -0.0952337 0
M  V30 11094 C 1028.23 2.14032 0.863657 0
M  V30 11095 C 1029.2 1.0589 1.27971 0
M  V30 11096 O 1030.38 1.33678 1.36143 0
M  V30 11097 C 1027.52 2.72513 2.11733 0
M  V30 11098 C 1026.63 3.94887 1.7518 0
M  V30 11099 C 1025.77 4.41533 2.95334 0
M  V30 11100 C 1024.81 5.56496 2.54908 0
M  V30 11101 N 1023.95 5.97993 3.67897 0
M  V30 11102 H 1028.79 2.95655 0.373115 0
M  V30 11103 H 1026.32 1.46085 0.172497 0
M  V30 11104 H 1028.28 3.04539 2.85153 0
M  V30 11105 H 1026.91 1.93618 2.58287 0
M  V30 11106 H 1025.96 3.69175 0.917279 0
M  V30 11107 H 1027.27 4.78322 1.41455 0
M  V30 11108 H 1026.43 4.75343 3.77007 0
M  V30 11109 H 1025.17 3.56999 3.3227 0
M  V30 11110 H 1024.17 5.22314 1.71662 0
M  V30 11111 H 1025.4 6.42779 2.19117 0
M  V30 11112 H 1023.34 5.16405 4.04551 0
M  V30 11113 H 1023.26 6.76225 3.38018 0
M  V30 11114 H 1024.53 6.36434 4.5008 0
M  V30 11115 N 1028.76 -0.17846 1.56586 0
M  V30 11116 C 1029.69 -1.22342 1.98884 0
M  V30 11117 C 1030.67 -1.46564 0.86331 0
M  V30 11118 O 1031.85 -1.58019 1.12887 0
M  V30 11119 C 1028.98 -2.56396 2.34261 0
M  V30 11120 C 1027.94 -2.46756 3.49708 0
M  V30 11121 C 1027.26 -3.85235 3.70807 0
M  V30 11122 C 1028.56 -1.97838 4.83381 0
M  V30 11123 H 1030.26 -0.871848 2.86425 0
M  V30 11124 H 1027.8 -0.417948 1.37801 0
M  V30 11125 H 1029.76 -3.29695 2.62448 0
M  V30 11126 H 1028.48 -2.93327 1.43621 0
M  V30 11127 H 1027.14 -1.75912 3.21637 0
M  V30 11128 H 1026.79 -4.19547 2.7747 0
M  V30 11129 H 1026.49 -3.79655 4.48481 0
M  V30 11130 H 1028.01 -4.60131 4.01387 0
M  V30 11131 H 1029.43 -2.60906 5.10491 0
M  V30 11132 H 1027.82 -2.03223 5.64642 0
M  V30 11133 H 1028.89 -0.932339 4.75852 0
M  V30 11134 N 1030.24 -1.51135 -0.446768 0
M  V30 11135 C 1031.47 -1.66887 -1.21788 0
M  V30 11136 C 1031.87 -0.361729 -1.8571 0
M  V30 11137 O 1031.22 0.668784 -1.71093 0
M  V30 11138 C 1031.28 -2.72062 -2.34994 0
M  V30 11139 C 1030.94 -4.14935 -1.91516 0
M  V30 11140 C 1031.94 -5.00021 -1.42389 0
M  V30 11141 C 1029.62 -4.60985 -1.99495 0
M  V30 11142 C 1031.62 -6.29216 -1.01816 0
M  V30 11143 C 1029.31 -5.90179 -1.58532 0
M  V30 11144 C 1030.3 -6.74121 -1.09774 0
M  V30 11145 O 1029.99 -8.009 -0.69389 0
M  V30 11146 H 1029.72 -0.563431 -0.373525 0
M  V30 11147 H 1032.28 -1.98261 -0.536818 0
M  V30 11148 H 1030.51 -2.35983 -3.06348 0
M  V30 11149 H 1032.2 -2.76788 -2.96889 0
M  V30 11150 H 1032.96 -4.6565 -1.35627 0
M  V30 11151 H 1028.84 -3.95777 -2.36393 0
M  V30 11152 H 1032.39 -6.94687 -0.636879 0
M  V30 11153 H 1028.28 -6.24066 -1.64962 0
M  V30 11154 H 1029.05 -8.14376 -0.820582 0
M  V30 11155 N 1031.71 0.701592 -1.41122 0
M  V30 11156 C 1032.94 1.49049 -1.43499 0
M  V30 11157 C 1033.36 1.88761 -0.0385684 0
M  V30 11158 O 1032.71 1.56384 0.940755 0
M  V30 11159 C 1032.76 2.7569 -2.33832 0
M  V30 11160 O 1032.49 2.37653 -3.68039 0
M  V30 11161 C 1033.99 3.69479 -2.44949 0
M  V30 11162 H 1031.21 0.459519 -0.488961 0
M  V30 11163 H 1033.75 0.864318 -1.85337 0
M  V30 11164 H 1031.91 3.34559 -1.95318 0
M  V30 11165 H 1032.32 3.19241 -4.16156 0
M  V30 11166 H 1033.79 4.55139 -3.12334 0
M  V30 11167 H 1034.27 4.13553 -1.47887 0
M  V30 11168 H 1034.88 3.16517 -2.84072 0
M  V30 11169 N 1033.19 1.2685 0.935242 0
M  V30 11170 C 1034.42 1.15645 1.72165 0
M  V30 11171 C 1034.84 -0.283909 1.85945 0
M  V30 11172 O 1034.2 -1.20567 1.354 0
M  V30 11173 C 1034.25 1.83689 3.10307 0
M  V30 11174 O 1033.35 1.12972 3.96625 0
M  V30 11175 H 1032.69 0.402629 0.528002 0
M  V30 11176 H 1035.22 1.67781 1.17093 0
M  V30 11177 H 1035.23 1.90749 3.60664 0
M  V30 11178 H 1033.91 2.88472 2.99595 0
M  V30 11179 H 1032.48 1.13929 3.5507 0
M  V30 11180 N 1034.67 -1.14067 1.0875 0
M  V30 11181 C 1035.62 -2.21332 0.715195 0
M  V30 11182 C 1036.61 -1.67059 -0.280679 0
M  V30 11183 O 1037.82 -1.79432 -0.142874 0
M  V30 11184 H 1034.19 -0.721126 0.213264 0
M  V30 11185 H 1036.16 -2.50002 1.62916 0
M  V30 11186 C 1034.91 -3.474 0.144401 0
M  V30 11187 H 1034.24 -3.89495 0.901884 0
M  V30 11188 H 1035.68 -4.23928 -0.0782564 0
M  V30 11189 C 1034.14 -3.17787 -1.11862 0
M  V30 11190 O 1034.67 -3.35906 -2.20295 0
M  V30 11191 N 1032.87 -2.71719 -1.03039 0
M  V30 11192 H 1032.42 -2.57175 -0.14793 0
M  V30 11193 H 1032.38 -2.52281 -1.87621 0
M  V30 11194 N 1036.15 -0.873678 -1.31166 0
M  V30 11195 C 1037.39 -0.487178 -1.96861 0
M  V30 11196 C 1037.73 0.95887 -1.68877 0
M  V30 11197 O 1037 1.6758 -0.987279 0
M  V30 11198 C 1037.29 -0.74925 -3.52219 0
M  V30 11199 C 1037.14 -2.2451 -3.89763 0
M  V30 11200 C 1038.46 -0.218194 -4.39559 0
M  V30 11201 H 1035.58 -0.178477 -0.715063 0
M  V30 11202 H 1038.22 -1.0956 -1.55231 0
M  V30 11203 H 1036.37 -0.231403 -3.8781 0
M  V30 11204 H 1038.04 -2.83049 -3.64254 0
M  V30 11205 H 1036.28 -2.71621 -3.38237 0
M  V30 11206 H 1036.95 -2.37911 -4.98099 0
M  V30 11207 H 1039.43 -0.661274 -4.10812 0
M  V30 11208 H 1038.31 -0.430983 -5.47205 0
M  V30 11209 H 1038.57 0.880056 -4.33252 0
M  V30 11210 N 1037.63 1.44308 -0.633487 0
M  V30 11211 C 1038.85 2.06384 -0.146063 0
M  V30 11212 C 1039.27 1.47357 1.18031 0
M  V30 11213 O 1038.63 0.597334 1.72448 0
M  V30 11214 C 1038.68 3.61489 -0.0276722 0
M  V30 11215 O 1038.4 4.18318 -1.3016 0
M  V30 11216 C 1039.9 4.40604 0.488168 0
M  V30 11217 H 1037.12 0.666122 -0.0807632 0
M  V30 11218 H 1039.66 1.85139 -0.868557 0
M  V30 11219 H 1037.82 3.81988 0.645273 0
M  V30 11220 H 1038.23 5.11783 -1.14797 0
M  V30 11221 H 1039.71 5.49545 0.520013 0
M  V30 11222 H 1040.18 4.12218 1.51568 0
M  V30 11223 H 1040.79 4.2503 -0.151608 0
M  V30 11224 N 1039.1 0.374177 1.53094 0
M  V30 11225 C 1040.35 -0.205669 2.02358 0
M  V30 11226 C 1040.71 -1.4572 1.25633 0
M  V30 11227 O 1040 -1.88487 0.343977 0
M  V30 11228 C 1040.19 -0.542179 3.53264 0
M  V30 11229 C 1040.02 0.675186 4.44602 0
M  V30 11230 C 1038.79 1.18987 4.91091 0
M  V30 11231 C 1040.99 1.54299 4.90608 0
M  V30 11232 N 1038.97 2.36637 5.66459 0
M  V30 11233 C 1040.34 2.56605 5.64406 0
M  V30 11234 C 1042.4 1.56486 4.7267 0
M  V30 11235 C 1041.1 3.60965 6.22171 0
M  V30 11236 C 1043.13 2.59745 5.31307 0
M  V30 11237 C 1042.49 3.60774 6.04997 0
M  V30 11238 H 1038.59 -0.0377471 0.781088 0
M  V30 11239 H 1041.17 0.520661 1.87609 0
M  V30 11240 H 1039.34 -1.23758 3.68156 0
M  V30 11241 H 1041.07 -1.10786 3.89241 0
M  V30 11242 H 1037.83 0.753181 4.67573 0
M  V30 11243 H 1038.25 2.96123 6.08802 0
M  V30 11244 H 1042.9 0.797296 4.15214 0
M  V30 11245 H 1040.61 4.38599 6.78717 0
M  V30 11246 H 1044.2 2.62301 5.19316 0
M  V30 11247 H 1043.08 4.39363 6.49561 0
M  V30 11248 N 1040.58 -1.57259 0.103575 0
M  V30 11249 C 1041.86 -1.86143 -0.600852 0
M  V30 11250 C 1042.24 -1.00198 -1.85805 0
M  V30 11251 O 1041.59 -0.0766791 -2.28371 0
M  V30 11252 C 1041.8 -3.36978 -0.908108 0
M  V30 11253 C 1043.15 -4.05228 -1.26788 0
M  V30 11254 O 1044.17 -3.41908 -0.998859 0
M  V30 11255 O 1043.03 -5.16971 -1.7721 0
M  V30 11256 H 1040.12 -0.770064 -0.301547 0
M  V30 11257 H 1042.67 -1.69147 0.136914 0
M  V30 11258 H 1041.44 -3.91296 -0.0165615 0
M  V30 11259 H 1041.06 -3.5935 -1.70156 0
M  V30 11260 N 1042.06 0.170153 -1.56679 0
M  V30 11261 C 1043.47 0.732502 -1.7173 0
M  V30 11262 C 1043.82 1.82736 -0.71428 0
M  V30 11263 O 1042.95 2.16044 0.124102 0
M  V30 11264 C 1043.54 1.33548 -3.11368 0
M  V30 11265 C 1042.1 1.84464 -3.281 0
M  V30 11266 C 1041.25 0.724069 -2.6768 0
M  V30 11267 H 1044.2 -0.0552543 -1.58604 0
M  V30 11268 H 1044.22 2.20519 -3.10083 0
M  V30 11269 H 1043.73 0.5384 -3.84347 0
M  V30 11270 H 1041.83 2.66813 -2.6008 0
M  V30 11271 H 1041.95 1.98928 -4.35849 0
M  V30 11272 H 1040.31 1.14481 -2.27522 0
M  V30 11273 H 1041.09 -0.0611861 -3.43245 0
M  V30 11274 N 1043.54 1.5137 0.438746 0
M  V30 11275 C 1044.49 1.68966 1.53083 0
M  V30 11276 C 1045.47 0.543669 1.51437 0
M  V30 11277 O 1046.66 0.799519 1.57914 0
M  V30 11278 C 1043.79 1.8168 2.91286 0
M  V30 11279 C 1042.88 3.02059 2.97693 0
M  V30 11280 N 1043.27 4.25254 2.73848 0
M  V30 11281 C 1041.57 3.01284 3.28852 0
M  V30 11282 C 1042.27 5.06501 2.86062 0
M  V30 11283 N 1041.25 4.41119 3.17671 0
M  V30 11284 H 1045.05 2.61883 1.33397 0
M  V30 11285 H 1042.56 1.48997 0.64603 0
M  V30 11286 H 1044.56 1.92396 3.6985 0
M  V30 11287 H 1043.22 0.899438 3.11994 0
M  V30 11288 H 1044.23 4.54222 2.48803 0
M  V30 11289 H 1040.91 2.19174 3.55344 0
M  V30 11290 H 1042.3 6.14563 2.71592 0
M  V30 11291 N 1045.02 -0.694098 1.41492 0
M  V30 11292 C 1045.97 -1.80016 1.39923 0
M  V30 11293 C 1046.95 -1.58561 0.273377 0
M  V30 11294 O 1048.14 -1.69368 0.514157 0
M  V30 11295 C 1045.27 -3.18333 1.28526 0
M  V30 11296 C 1044.36 -3.45478 2.45979 0
M  V30 11297 N 1044.75 -3.43313 3.71443 0
M  V30 11298 C 1043.05 -3.76033 2.39824 0
M  V30 11299 C 1043.75 -3.69404 4.4935 0
M  V30 11300 N 1042.72 -3.89221 3.79484 0
M  V30 11301 H 1046.53 -1.76707 2.34844 0
M  V30 11302 H 1044.04 -0.894148 1.35568 0
M  V30 11303 H 1046.04 -3.97567 1.25484 0
M  V30 11304 H 1044.7 -3.22852 0.345904 0
M  V30 11305 H 1045.71 -3.2366 4.04308 0
M  V30 11306 H 1042.38 -3.87913 1.54368 0
M  V30 11307 H 1043.77 -3.73854 5.58285 0
M  V30 11308 N 1046.49 -1.27344 -0.928501 0
M  V30 11309 C 1047.72 -1.16278 -1.70772 0
M  V30 11310 C 1048.13 0.283131 -1.8707 0
M  V30 11311 O 1047.48 1.20466 -1.38685 0
M  V30 11312 C 1047.54 -1.77313 -3.1273 0
M  V30 11313 C 1047.2 -3.26488 -3.19773 0
M  V30 11314 C 1048.2 -4.23133 -3.02083 0
M  V30 11315 C 1045.88 -3.67182 -3.42757 0
M  V30 11316 C 1047.88 -5.5845 -3.07267 0
M  V30 11317 C 1045.56 -5.02629 -3.47574 0
M  V30 11318 C 1046.56 -5.98072 -3.29847 0
M  V30 11319 O 1046.25 -7.3105 -3.34397 0
M  V30 11320 H 1045.98 -0.405215 -0.541089 0
M  V30 11321 H 1048.54 -1.68707 -1.17163 0
M  V30 11322 H 1046.77 -1.19361 -3.67818 0
M  V30 11323 H 1048.46 -1.60972 -3.72616 0
M  V30 11324 H 1049.22 -3.93031 -2.84168 0
M  V30 11325 H 1045.1 -2.93369 -3.55606 0
M  V30 11326 H 1048.64 -6.32924 -2.93348 0
M  V30 11327 H 1044.54 -5.32387 -3.65013 0
M  V30 11328 H 1045.31 -7.39488 -3.50857 0
M  V30 11329 N 1047.97 1.13488 -1.09353 0
M  V30 11330 C 1049.39 1.36739 -0.823086 0
M  V30 11331 C 1049.59 1.93476 0.562963 0
M  V30 11332 O 1048.64 2.15374 1.31796 0
M  V30 11333 C 1049.96 2.31943 -1.91371 0
M  V30 11334 C 1051.51 2.4556 -1.94085 0
M  V30 11335 C 1051.98 3.44072 -3.02289 0
M  V30 11336 N 1053.47 3.51622 -3.01524 0
M  V30 11337 C 1054.21 4.27724 -3.8189 0
M  V30 11338 N 1053.7 5.06987 -4.72161 0
M  V30 11339 N 1055.5 4.23018 -3.70152 0
M  V30 11340 H 1047.65 0.75012 -1.98713 0
M  V30 11341 H 1049.91 0.392564 -0.862901 0
M  V30 11342 H 1049.62 1.97408 -2.91072 0
M  V30 11343 H 1049.49 3.31952 -1.79131 0
M  V30 11344 H 1051.88 2.79382 -0.950234 0
M  V30 11345 H 1051.96 1.45479 -2.10403 0
M  V30 11346 H 1051.6 3.10981 -4.01564 0
M  V30 11347 H 1051.53 4.43956 -2.83214 0
M  V30 11348 H 1054.02 2.95066 -2.36103 0
M  V30 11349 H 1054.34 5.6236 -5.30067 0
M  V30 11350 H 1052.68 5.06222 -4.76197 0
M  V30 11351 H 1055.87 3.60171 -2.98989 0
M  V30 11352 H 1056.04 4.82075 -4.33022 0
M  V30 11353 N 1049.45 0.880621 1.30701 0
M  V30 11354 C 1050.38 0.360251 2.30704 0
M  V30 11355 C 1051.36 -0.554572 1.60806 0
M  V30 11356 O 1052.55 -0.469345 1.88443 0
M  V30 11357 C 1049.68 -0.429888 3.44629 0
M  V30 11358 C 1048.63 0.392786 4.26194 0
M  V30 11359 C 1047.96 -0.52369 5.32129 0
M  V30 11360 C 1049.26 1.63258 4.96129 0
M  V30 11361 H 1050.95 1.19591 2.74478 0
M  V30 11362 H 1048.5 0.576508 1.31956 0
M  V30 11363 H 1050.45 -0.804532 4.13649 0
M  V30 11364 H 1049.17 -1.29916 2.99649 0
M  V30 11365 H 1047.83 0.749514 3.58856 0
M  V30 11366 H 1047.48 -1.39054 4.83397 0
M  V30 11367 H 1047.18 0.0229272 5.87596 0
M  V30 11368 H 1048.71 -0.894946 6.04006 0
M  V30 11369 H 1050.12 1.32877 5.57689 0
M  V30 11370 H 1048.52 2.11906 5.61441 0
M  V30 11371 H 1049.59 2.37944 4.22505 0
M  V30 11372 N 1050.93 -1.4397 0.641131 0
M  V30 11373 C 1052.18 -2.02246 0.14985 0
M  V30 11374 C 1052.51 -1.50387 -1.22871 0
M  V30 11375 O 1051.78 -0.692003 -1.81773 0
M  V30 11376 C 1052.07 -3.59798 0.147449 0
M  V30 11377 C 1051.92 -4.21916 1.55907 0
M  V30 11378 C 1053.24 -4.36985 -0.522667 0
M  V30 11379 H 1050.36 -0.734875 0.0559274 0
M  V30 11380 H 1053 -1.71418 0.819513 0
M  V30 11381 H 1051.15 -3.86193 -0.422789 0
M  V30 11382 H 1052.82 -4.06594 2.17896 0
M  V30 11383 H 1051.06 -3.79028 2.10998 0
M  V30 11384 H 1051.74 -5.30964 1.50934 0
M  V30 11385 H 1054.21 -4.16083 -0.0376226 0
M  V30 11386 H 1053.09 -5.46676 -0.493572 0
M  V30 11387 H 1053.35 -4.12335 -1.59475 0
M  V30 11388 N 1052.41 -0.382291 -1.52893 0
M  V30 11389 C 1053.34 0.491199 -2.23875 0
M  V30 11390 C 1054.35 1.03249 -1.25871 0
M  V30 11391 O 1055.54 0.936016 -1.5199 0
M  V30 11392 C 1052.64 1.6927 -2.936 0
M  V30 11393 C 1051.81 1.28 -4.18252 0
M  V30 11394 C 1050.87 2.34541 -4.71038 0
M  V30 11395 O 1049.9 1.96239 -5.34302 0
M  V30 11396 N 1051.1 3.6636 -4.50289 0
M  V30 11397 H 1053.87 -0.116897 -2.99472 0
M  V30 11398 H 1051.43 -0.208296 -1.60554 0
M  V30 11399 H 1053.42 2.40054 -3.25816 0
M  V30 11400 H 1051.99 2.20729 -2.21354 0
M  V30 11401 H 1051.21 0.40133 -3.92152 0
M  V30 11402 H 1052.5 0.98082 -4.99257 0
M  V30 11403 H 1051.9 4.00245 -3.99775 0
M  V30 11404 H 1050.45 4.332 -4.87013 0
M  V30 11405 N 1053.89 1.57202 -0.111913 0
M  V30 11406 C 1055.16 1.86459 0.590972 0
M  V30 11407 C 1055.54 1.01182 1.85271 0
M  V30 11408 O 1054.89 0.0887891 2.28327 0
M  V30 11409 C 1055.1 3.37455 0.890225 0
M  V30 11410 C 1056.45 4.05895 1.24638 0
M  V30 11411 O 1057.47 3.42433 0.980713 0
M  V30 11412 O 1056.33 5.17903 1.74466 0
M  V30 11413 H 1053.43 0.771652 0.297459 0
M  V30 11414 H 1055.97 1.69072 -0.145882 0
M  V30 11415 H 1054.74 3.913 -0.00419012 0
M  V30 11416 H 1054.37 3.60248 1.68248 0
M  V30 11417 N 1055.36 -0.161842 1.56767 0
M  V30 11418 C 1056.59 -0.896274 1.87034 0
M  V30 11419 C 1057.01 -1.74617 0.699314 0
M  V30 11420 O 1056.37 -1.77861 -0.351435 0
M  V30 11421 C 1056.42 -1.74105 3.15784 0
M  V30 11422 O 1055.52 -2.84372 2.98674 0
M  V30 11423 H 1054.86 -0.250523 0.614926 0
M  V30 11424 H 1057.39 -0.157127 2.03996 0
M  V30 11425 H 1057.4 -2.13907 3.4743 0
M  V30 11426 H 1056.08 -1.11684 4.00624 0
M  V30 11427 H 1054.66 -2.48084 2.78404 0
M  V30 11428 N 1056.84 -1.516 -0.430713 0
M  V30 11429 C 1057.77 -1.69594 -1.54177 0
M  V30 11430 C 1058.79 -0.576518 -1.5225 0
M  V30 11431 O 1059.98 -0.85104 -1.56906 0
M  V30 11432 C 1057.08 -1.70148 -2.93092 0
M  V30 11433 C 1056.25 -2.98782 -3.1945 0
M  V30 11434 C 1055.31 -2.91435 -4.38123 0
M  V30 11435 O 1054.33 -3.65372 -4.36454 0
M  V30 11436 N 1055.54 -2.0774 -5.42056 0
M  V30 11437 H 1058.3 -2.65442 -1.39143 0
M  V30 11438 H 1055.86 -1.49569 -0.61974 0
M  V30 11439 H 1057.85 -1.62793 -3.70514 0
M  V30 11440 H 1056.42 -0.818667 -3.0169 0
M  V30 11441 H 1055.64 -3.19954 -2.30267 0
M  V30 11442 H 1056.93 -3.83919 -3.33892 0
M  V30 11443 H 1056.33 -1.47059 -5.46251 0
M  V30 11444 H 1054.89 -2.06259 -6.18305 0
M  V30 11445 N 1058.32 0.686584 -1.41858 0
M  V30 11446 C 1059.73 1.26682 -1.37145 0
M  V30 11447 C 1060.08 1.96112 -0.058922 0
M  V30 11448 O 1059.21 1.99321 0.842629 0
M  V30 11449 C 1059.8 2.30383 -2.48413 0
M  V30 11450 C 1058.36 2.83961 -2.47069 0
M  V30 11451 C 1057.51 1.58119 -2.27802 0
M  V30 11452 H 1060.46 0.480742 -1.51243 0
M  V30 11453 H 1060.48 3.11868 -2.17987 0
M  V30 11454 H 1059.99 1.79822 -3.43927 0
M  V30 11455 H 1058.09 3.38675 -1.55338 0
M  V30 11456 H 1058.21 3.3378 -3.43697 0
M  V30 11457 H 1056.57 1.84258 -1.75844 0
M  V30 11458 H 1057.35 1.09541 -3.25355 0
M  V30 11459 N 1059.8 1.27835 0.921735 0
M  V30 11460 C 1060.73 1.136 2.04003 0
M  V30 11461 C 1061.71 0.0358756 1.70062 0
M  V30 11462 O 1062.89 0.211438 1.93046 0
M  V30 11463 C 1060.02 0.788697 3.38226 0
M  V30 11464 C 1058.98 1.84272 3.863 0
M  V30 11465 C 1058.3 1.34923 5.17397 0
M  V30 11466 C 1059.6 3.24788 4.09035 0
M  V30 11467 H 1061.3 2.07149 2.1617 0
M  V30 11468 H 1058.84 0.997349 1.0387 0
M  V30 11469 H 1060.8 0.675911 4.15944 0
M  V30 11470 H 1059.52 -0.182499 3.2609 0
M  V30 11471 H 1058.18 1.94451 3.1078 0
M  V30 11472 H 1057.83 0.367328 5.01657 0
M  V30 11473 H 1057.53 2.05397 5.50532 0
M  V30 11474 H 1059.05 1.24951 5.97678 0
M  V30 11475 H 1060.47 3.17575 4.77304 0
M  V30 11476 H 1058.86 3.93025 4.53488 0
M  V30 11477 H 1059.93 3.69398 3.14122 0
M  V30 11478 N 1061.28 -1.12907 1.09954 0
M  V30 11479 C 1062.55 -1.80602 0.751148 0
M  V30 11480 C 1062.93 -1.96826 -0.763077 0
M  V30 11481 O 1062.28 -1.54066 -1.68749 0
M  V30 11482 C 1062.49 -3.15289 1.49646 0
M  V30 11483 C 1063.84 -3.9056 1.66578 0
M  V30 11484 O 1064.86 -3.24929 1.45943 0
M  V30 11485 O 1063.72 -5.08292 2.00752 0
M  V30 11486 H 1060.82 -0.781529 0.270446 0
M  V30 11487 H 1063.36 -1.19786 1.20206 0
M  V30 11488 H 1062.13 -2.9874 2.52725 0
M  V30 11489 H 1061.76 -3.83809 1.03808 0
M  V30 11490 N 1062.75 -0.88754 -1.30232 0
M  V30 11491 C 1063.68 -0.372481 -2.3051 0
M  V30 11492 C 1064.66 0.546037 -1.61098 0
M  V30 11493 O 1065.85 0.459345 -1.88689 0
M  V30 11494 C 1062.98 0.411605 -3.44852 0
M  V30 11495 C 1061.93 -0.415383 -4.2598 0
M  V30 11496 C 1061.26 0.495463 -5.324 0
M  V30 11497 C 1062.56 -1.65886 -4.95257 0
M  V30 11498 H 1064.25 -1.21045 -2.7384 0
M  V30 11499 H 1061.8 -0.583498 -1.31648 0
M  V30 11500 H 1063.75 0.782584 -4.1407 0
M  V30 11501 H 1062.48 1.28325 -3.00334 0
M  V30 11502 H 1061.14 -0.768534 -3.58454 0
M  V30 11503 H 1060.78 1.36489 -4.84128 0
M  V30 11504 H 1060.48 -0.0540885 -5.87575 0
M  V30 11505 H 1062.01 0.862901 -6.04472 0
M  V30 11506 H 1063.42 -1.35832 -5.56976 0
M  V30 11507 H 1061.82 -2.14881 -5.60309 0
M  V30 11508 H 1062.89 -2.40181 -4.21237 0
M  V30 11509 N 1064.23 1.43628 -0.648757 0
M  V30 11510 C 1065.46 2.06732 -0.166284 0
M  V30 11511 C 1065.88 1.48281 1.15734 0
M  V30 11512 O 1065.24 0.591018 1.71396 0
M  V30 11513 C 1065.29 3.60502 -0.0838732 0
M  V30 11514 O 1064.39 4.01186 0.955185 0
M  V30 11515 H 1063.73 0.657479 -0.0928285 0
M  V30 11516 H 1066.26 1.84208 -0.890421 0
M  V30 11517 H 1066.27 4.07875 0.100923 0
M  V30 11518 H 1064.95 4.02424 -1.05014 0
M  V30 11519 H 1063.53 3.65412 0.743537 0
M  V30 11520 N 1065.71 0.390394 1.52688 0
M  V30 11521 C 1066.66 -0.444229 2.26485 0
M  V30 11522 C 1067.63 -1.05688 1.28138 0
M  V30 11523 O 1068.81 -1.0847 1.56968 0
M  V30 11524 C 1065.95 -1.56501 3.07574 0
M  V30 11525 C 1065.07 -0.975111 4.20851 0
M  V30 11526 C 1064.2 -2.06704 4.89333 0
M  V30 11527 C 1063.24 -1.45309 5.94602 0
M  V30 11528 N 1062.38 -2.48437 6.56676 0
M  V30 11529 H 1067.22 0.191535 2.97384 0
M  V30 11530 H 1064.75 0.106287 1.46716 0
M  V30 11531 H 1066.71 -2.22558 3.52879 0
M  V30 11532 H 1065.34 -2.17107 2.38881 0
M  V30 11533 H 1064.39 -0.204109 3.79852 0
M  V30 11534 H 1065.71 -0.486465 4.96422 0
M  V30 11535 H 1064.86 -2.80528 5.37949 0
M  V30 11536 H 1063.6 -2.58928 4.13289 0
M  V30 11537 H 1062.6 -0.700091 5.45324 0
M  V30 11538 H 1063.83 -0.938775 6.7258 0
M  V30 11539 H 1061.77 -2.99829 5.83471 0
M  V30 11540 H 1061.69 -2.04331 7.27863 0
M  V30 11541 H 1062.96 -3.21888 7.09935 0
M  V30 11542 N 1067.19 -1.57141 0.120249 0
M  V30 11543 C 1068.15 -2.14213 -0.815185 0
M  V30 11544 C 1069.15 -1.07731 -1.19376 0
M  V30 11545 O 1070.34 -1.33502 -1.11906 0
M  V30 11546 C 1067.47 -2.68339 -2.10255 0
M  V30 11547 H 1068.67 -2.98197 -0.319166 0
M  V30 11548 H 1066.22 -1.55767 -0.128997 0
M  V30 11549 H 1066.95 -1.87946 -2.64285 0
M  V30 11550 H 1066.74 -3.46216 -1.84057 0
M  V30 11551 H 1068.23 -3.124 -2.77121 0
M  V30 11552 N 1068.67 0.153526 -1.5685 0
M  V30 11553 C 1069.6 1.19162 -2.00805 0
M  V30 11554 C 1070.58 1.45172 -0.886518 0
M  V30 11555 O 1071.76 1.56203 -1.15387 0
M  V30 11556 C 1068.89 2.52637 -2.38311 0
M  V30 11557 C 1067.85 2.41161 -3.53589 0
M  V30 11558 C 1067.17 3.79287 -3.76889 0
M  V30 11559 C 1068.47 1.90122 -4.86468 0
M  V30 11560 H 1070.17 0.82617 -2.87776 0
M  V30 11561 H 1067.71 0.395972 -1.38449 0
M  V30 11562 H 1069.67 3.25478 -2.6766 0
M  V30 11563 H 1068.39 2.91005 -1.4827 0
M  V30 11564 H 1067.05 1.70772 -3.24395 0
M  V30 11565 H 1066.7 4.15079 -2.84109 0
M  V30 11566 H 1066.4 3.72472 -4.54465 0
M  V30 11567 H 1067.92 4.53687 -4.08657 0
M  V30 11568 H 1069.33 2.52752 -5.14577 0
M  V30 11569 H 1067.73 1.94214 -5.67804 0
M  V30 11570 H 1068.8 0.856517 -4.77275 0
M  V30 11571 N 1070.14 1.51827 0.422667 0
M  V30 11572 C 1071.37 1.69337 1.19748 0
M  V30 11573 C 1071.79 0.396312 1.83878 0
M  V30 11574 O 1071.15 -0.644976 1.6944 0
M  V30 11575 C 1071.2 2.82082 2.24637 0
M  V30 11576 O 1070.3 2.46708 3.30468 0
M  V30 11577 H 1069.65 0.564154 0.35018 0
M  V30 11578 H 1072.18 1.98465 0.497289 0
M  V30 11579 H 1072.19 3.06599 2.69186 0
M  V30 11580 H 1070.86 3.76195 1.77341 0
M  V30 11581 H 1069.44 2.32815 2.91293 0
M  V30 11582 N 1071.62 -0.679052 1.4222 0
M  V30 11583 C 1072.85 -1.47248 1.46058 0
M  V30 11584 C 1073.27 -1.87962 0.0720987 0
M  V30 11585 O 1072.63 -1.5572 -0.928488 0
M  V30 11586 C 1072.68 -2.70067 2.38948 0
M  V30 11587 O 1071.78 -3.68178 1.85791 0
M  V30 11588 H 1071.12 -0.442533 0.495036 0
M  V30 11589 H 1073.65 -0.833263 1.86863 0
M  V30 11590 H 1073.66 -3.18187 2.55385 0
M  V30 11591 H 1072.34 -2.39773 3.39826 0
M  V30 11592 H 1070.92 -3.2719 1.78889 0
M  V30 11593 N 1073.1 -1.28322 -0.914942 0
M  V30 11594 C 1074.03 -1.06469 -2.01841 0
M  V30 11595 C 1075.01 0.0188681 -1.62589 0
M  V30 11596 O 1076.2 -0.128825 -1.88059 0
M  V30 11597 C 1073.32 -0.617685 -3.3302 0
M  V30 11598 C 1072.37 -1.6977 -3.91255 0
M  V30 11599 S 1073.2 -3.29337 -4.22253 0
M  V30 11600 C 1074.36 -2.86468 -5.56495 0
M  V30 11601 H 1074.59 -1.99893 -2.20068 0
M  V30 11602 H 1072.12 -1.12297 -1.05966 0
M  V30 11603 H 1074.08 -0.366481 -4.08861 0
M  V30 11604 H 1072.74 0.296709 -3.12695 0
M  V30 11605 H 1071.94 -1.33653 -4.85956 0
M  V30 11606 H 1071.54 -1.90164 -3.22046 0
M  V30 11607 H 1073.83 -2.32565 -6.36333 0
M  V30 11608 H 1074.77 -3.79962 -5.97523 0
M  V30 11609 H 1075.18 -2.2522 -5.17626 0
M  V30 11610 N 1074.58 1.12322 -1.10551 0
M  V30 11611 C 1075.53 2.16177 -0.724679 0
M  V30 11612 C 1076.51 1.58674 0.266739 0
M  V30 11613 O 1077.7 1.7684 0.0752872 0
M  V30 11614 C 1074.83 3.4293 -0.159413 0
M  V30 11615 C 1073.92 4.07413 -1.17794 0
M  V30 11616 N 1074.31 4.46889 -2.36905 0
M  V30 11617 C 1072.61 4.34209 -1.01874 0
M  V30 11618 C 1073.31 4.97291 -3.01789 0
M  V30 11619 N 1072.29 4.92871 -2.29302 0
M  V30 11620 H 1076.09 2.44466 -1.63136 0
M  V30 11621 H 1073.6 1.2924 -0.983407 0
M  V30 11622 H 1075.6 4.16693 0.131502 0
M  V30 11623 H 1074.26 3.16109 0.741975 0
M  V30 11624 H 1075.27 4.39219 -2.74422 0
M  V30 11625 H 1071.95 4.17141 -0.173013 0
M  V30 11626 H 1073.34 5.3754 -4.03114 0
M  V30 11627 N 1076.06 0.894434 1.2976 0
M  V30 11628 C 1077.02 0.373094 2.26143 0
M  V30 11629 C 1078.02 -0.489756 1.5316 0
M  V30 11630 O 1079.21 -0.29556 1.71674 0
M  V30 11631 C 1076.34 -0.467234 3.37683 0
M  V30 11632 H 1077.53 1.22427 2.73773 0
M  V30 11633 H 1075.09 0.672112 1.41111 0
M  V30 11634 H 1075.82 -1.33861 2.95384 0
M  V30 11635 H 1075.61 0.150954 3.91809 0
M  V30 11636 H 1077.1 -0.823469 4.094 0
M  V30 11637 N 1077.53 -1.43282 0.656365 0
M  V30 11638 C 1078.48 -2.30776 -0.0333155 0
M  V30 11639 C 1079.45 -1.44928 -0.811493 0
M  V30 11640 O 1080.64 -1.73792 -0.787465 0
M  V30 11641 C 1077.78 -3.30548 -0.991566 0
M  V30 11642 C 1076.89 -4.31493 -0.209159 0
M  V30 11643 C 1076.02 -5.18346 -1.16149 0
M  V30 11644 C 1075.06 -6.10983 -0.369699 0
M  V30 11645 N 1074.2 -6.90449 -1.27378 0
M  V30 11646 H 1079.04 -2.89204 0.718668 0
M  V30 11647 H 1076.58 -1.4247 0.366161 0
M  V30 11648 H 1078.54 -3.86905 -1.56078 0
M  V30 11649 H 1077.17 -2.73762 -1.71039 0
M  V30 11650 H 1076.22 -3.77405 0.476394 0
M  V30 11651 H 1077.53 -4.97142 0.406394 0
M  V30 11652 H 1076.68 -5.79345 -1.80124 0
M  V30 11653 H 1075.42 -4.52831 -1.81095 0
M  V30 11654 H 1074.43 -5.49069 0.283377 0
M  V30 11655 H 1075.65 -6.78541 0.275399 0
M  V30 11656 H 1073.6 -6.27579 -1.90999 0
M  V30 11657 H 1073.52 -7.52631 -0.71287 0
M  V30 11658 H 1074.78 -7.5595 -1.90158 0
M  V30 11659 N 1079.01 -0.398486 -1.52479 0
M  V30 11660 C 1079.96 0.447001 -2.28264 0
M  V30 11661 C 1080.96 1.05511 -1.32529 0
M  V30 11662 O 1082.16 0.994528 -1.5003 0
M  V30 11663 H 1078.54 0.162919 -0.73414 0
M  V30 11664 H 1080.51 -0.213534 -2.97635 0
M  V30 11665 C 1079.26 1.55724 -3.10879 0
M  V30 11666 H 1078.58 1.09864 -3.84409 0
M  V30 11667 H 1080.02 2.12286 -3.67029 0
M  V30 11668 C 1078.48 2.51853 -2.23768 0
M  V30 11669 O 1079.01 3.55483 -1.87069 0
M  V30 11670 N 1077.21 2.2181 -1.87746 0
M  V30 11671 H 1076.76 1.3757 -2.17789 0
M  V30 11672 H 1076.72 2.86376 -1.29753 0
M  V30 11673 N 1080.49 1.57075 -0.12858 0
M  V30 11674 C 1081.74 1.9581 0.527868 0
M  V30 11675 C 1082.07 1.01253 1.65715 0
M  V30 11676 O 1081.35 0.0514853 1.94432 0
M  V30 11677 C 1081.63 3.44406 1.05151 0
M  V30 11678 C 1081.48 4.49737 -0.0750113 0
M  V30 11679 C 1082.8 3.95069 1.9393 0
M  V30 11680 H 1079.92 0.711978 0.19041 0
M  V30 11681 H 1082.56 1.88879 -0.206081 0
M  V30 11682 H 1080.71 3.50443 1.67697 0
M  V30 11683 H 1082.38 4.55793 -0.710685 0
M  V30 11684 H 1080.63 4.27497 -0.736809 0
M  V30 11685 H 1081.3 5.50996 0.332779 0
M  V30 11686 H 1083.77 3.91395 1.41241 0
M  V30 11687 H 1082.65 4.99542 2.27484 0
M  V30 11688 H 1082.91 3.36329 2.86941 0
M  V30 11689 N 1081.97 -0.145205 1.5693 0
M  V30 11690 C 1083.22 -0.857516 1.83447 0
M  V30 11691 C 1083.54 -1.81088 0.709739 0
M  V30 11692 O 1082.8 -1.9337 -0.301097 0
M  V30 11693 C 1083.1 -1.66391 3.16305 0
M  V30 11694 C 1082.76 -0.857171 4.42678 0
M  V30 11695 C 1081.43 -0.634611 4.76997 0
M  V30 11696 C 1083.78 -0.293105 5.20375 0
M  V30 11697 C 1081.11 0.162693 5.86474 0
M  V30 11698 C 1083.46 0.491248 6.3069 0
M  V30 11699 C 1082.12 0.724368 6.63558 0
M  V30 11700 H 1081.39 -0.313787 0.671281 0
M  V30 11701 H 1084.04 -0.121074 1.91117 0
M  V30 11702 H 1082.34 -2.47051 3.04094 0
M  V30 11703 H 1084.04 -2.21855 3.34038 0
M  V30 11704 H 1080.63 -1.0407 4.15773 0
M  V30 11705 H 1084.82 -0.452326 4.94234 0
M  V30 11706 H 1080.07 0.352788 6.10381 0
M  V30 11707 H 1084.25 0.935449 6.90089 0
M  V30 11708 H 1081.87 1.34403 7.48224 0
M  V30 11709 N 1083.45 -1.52049 -0.414609 0
M  V30 11710 C 1084.68 -1.69679 -1.18392 0
M  V30 11711 C 1085.09 -0.403881 -1.84429 0
M  V30 11712 O 1084.45 0.619636 -1.71659 0
M  V30 11713 C 1084.5 -2.82855 -2.25112 0
M  V30 11714 O 1084.22 -4.07138 -1.61772 0
M  V30 11715 C 1085.72 -3.11948 -3.14965 0
M  V30 11716 H 1082.94 -0.56879 -0.355977 0
M  V30 11717 H 1085.48 -1.9858 -0.488505 0
M  V30 11718 H 1083.64 -2.56488 -2.90332 0
M  V30 11719 H 1084.05 -4.70163 -2.32479 0
M  V30 11720 H 1085.53 -3.94665 -3.85932 0
M  V30 11721 H 1086 -2.25276 -3.77024 0
M  V30 11722 H 1086.61 -3.40059 -2.55421 0
M  V30 11723 N 1084.93 0.6715 -1.42579 0
M  V30 11724 C 1085.86 1.79625 -1.40749 0
M  V30 11725 C 1086.84 1.6032 -0.271312 0
M  V30 11726 O 1088.02 1.82749 -0.46205 0
M  V30 11727 C 1085.15 3.16672 -1.20153 0
M  V30 11728 C 1084.19 3.54718 -2.36807 0
M  V30 11729 S 1085.03 3.56771 -3.99343 0
M  V30 11730 C 1086.18 4.96505 -3.81095 0
M  V30 11731 H 1086.42 1.80903 -2.35926 0
M  V30 11732 H 1083.95 0.842469 -1.2939 0
M  V30 11733 H 1085.91 3.95776 -1.08956 0
M  V30 11734 H 1084.57 3.12976 -0.265545 0
M  V30 11735 H 1083.76 4.54341 -2.18152 0
M  V30 11736 H 1083.36 2.82982 -2.44535 0
M  V30 11737 H 1085.65 5.84674 -3.4229 0
M  V30 11738 H 1086.6 5.20207 -4.80406 0
M  V30 11739 H 1087.01 4.69178 -3.13898 0
M  V30 11740 N 1086.4 1.28806 0.908124 0
M  V30 11741 C 1087.82 1.06634 1.18749 0
M  V30 11742 C 1088.02 -0.187729 2.00624 0
M  V30 11743 O 1087.08 -0.88784 2.36376 0
M  V30 11744 C 1088.39 2.31703 1.91661 0
M  V30 11745 C 1089.94 2.36939 2.04521 0
M  V30 11746 C 1090.41 3.61789 2.80843 0
M  V30 11747 N 1091.9 3.62462 2.88402 0
M  V30 11748 C 1092.64 4.55746 3.47971 0
M  V30 11749 N 1092.13 5.59353 4.08774 0
M  V30 11750 N 1093.93 4.43331 3.45564 0
M  V30 11751 H 1086.08 2.09299 0.36164 0
M  V30 11752 H 1088.34 0.921479 0.222668 0
M  V30 11753 H 1088.05 3.23096 1.38931 0
M  V30 11754 H 1087.92 2.38556 2.92183 0
M  V30 11755 H 1090.31 1.4604 2.5643 0
M  V30 11756 H 1090.39 2.34077 1.03159 0
M  V30 11757 H 1090.03 4.53035 2.29612 0
M  V30 11758 H 1089.96 3.61907 3.82532 0
M  V30 11759 H 1092.45 2.87544 2.45208 0
M  V30 11760 H 1092.77 6.26668 4.52224 0
M  V30 11761 H 1091.11 5.63173 4.07261 0
M  V30 11762 H 1094.3 3.61587 2.97276 0
M  V30 11763 H 1094.48 5.16216 3.91695 0
M  V30 11764 N 1087.88 -1.11734 1.11145 0
M  V30 11765 C 1088.81 -2.1976 0.789152 0
M  V30 11766 C 1089.79 -1.68382 -0.241143 0
M  V30 11767 O 1090.98 -1.93914 -0.105292 0
M  V30 11768 C 1088.11 -3.46549 0.228204 0
M  V30 11769 C 1087.06 -4.11123 1.19002 0
M  V30 11770 C 1086.39 -5.32451 0.489928 0
M  V30 11771 C 1087.69 -4.56406 2.53951 0
M  V30 11772 H 1089.38 -2.46978 1.69241 0
M  V30 11773 H 1086.93 -1.18705 0.81517 0
M  V30 11774 H 1088.88 -4.21399 -0.00945908 0
M  V30 11775 H 1087.6 -3.18782 -0.71033 0
M  V30 11776 H 1086.26 -3.38264 1.41326 0
M  V30 11777 H 1085.91 -5.00953 -0.453315 0
M  V30 11778 H 1085.61 -5.76605 1.1314 0
M  V30 11779 H 1087.14 -6.10042 0.260984 0
M  V30 11780 H 1088.55 -5.22592 2.35733 0
M  V30 11781 H 1086.95 -5.11363 3.14051 0
M  V30 11782 H 1088.02 -3.7001 3.13402 0
M  V30 11783 N 1089.36 -0.901303 -1.29284 0
M  V30 11784 C 1090.31 -0.378666 -2.27672 0
M  V30 11785 C 1091.28 0.540102 -1.57074 0
M  V30 11786 O 1092.46 0.464997 -1.85047 0
M  V30 11787 C 1089.6 0.38635 -3.42931 0
M  V30 11788 C 1088.71 -0.563496 -4.28309 0
M  V30 11789 C 1087.85 0.218731 -5.30749 0
M  V30 11790 C 1086.89 -0.725536 -6.07785 0
M  V30 11791 N 1086.03 0.0223854 -7.02096 0
M  V30 11792 H 1090.87 -1.22277 -2.71758 0
M  V30 11793 H 1088.4 -0.614302 -1.33659 0
M  V30 11794 H 1090.36 0.845967 -4.08533 0
M  V30 11795 H 1088.99 1.1949 -2.9987 0
M  V30 11796 H 1088.04 -1.14163 -3.62865 0
M  V30 11797 H 1089.35 -1.28623 -4.81931 0
M  V30 11798 H 1088.51 0.739473 -6.02177 0
M  V30 11799 H 1087.25 0.97459 -4.77863 0
M  V30 11800 H 1086.25 -1.25776 -5.3522 0
M  V30 11801 H 1087.48 -1.48075 -6.6276 0
M  V30 11802 H 1085.42 0.760482 -6.51577 0
M  V30 11803 H 1085.34 -0.640408 -7.53283 0
M  V30 11804 H 1086.61 0.523339 -7.77741 0
M  V30 11805 N 1090.84 1.42931 -0.663954 0
M  V30 11806 C 1092.06 2.06544 -0.188201 0
M  V30 11807 C 1092.49 1.495 1.14155 0
M  V30 11808 O 1091.85 0.609164 1.7076 0
M  V30 11809 C 1091.89 3.60393 -0.122105 0
M  V30 11810 O 1091 4.02176 0.91258 0
M  V30 11811 H 1090.34 0.656458 -0.0997967 0
M  V30 11812 H 1092.87 1.83253 -0.909909 0
M  V30 11813 H 1092.88 4.07959 0.0576568 0
M  V30 11814 H 1091.55 4.01287 -1.09276 0
M  V30 11815 H 1090.13 3.6618 0.704738 0
M  V30 11816 N 1092.32 0.406567 1.52266 0
M  V30 11817 C 1093.73 0.0573228 1.59497 0
M  V30 11818 C 1093.93 -1.43005 1.41957 0
M  V30 11819 O 1092.99 -2.19659 1.24523 0
M  V30 11820 C 1094.3 0.549947 2.95628 0
M  V30 11821 C 1095.85 0.5077 3.08855 0
M  V30 11822 C 1096.32 0.976792 4.47463 0
M  V30 11823 N 1097.81 0.933508 4.53696 0
M  V30 11824 C 1098.55 1.26769 5.59211 0
M  V30 11825 N 1098.05 1.6732 6.72292 0
M  V30 11826 N 1099.84 1.18782 5.49406 0
M  V30 11827 H 1091.99 1.37468 1.61914 0
M  V30 11828 H 1094.25 0.564562 0.76156 0
M  V30 11829 H 1093.96 1.58943 3.13736 0
M  V30 11830 H 1093.83 -0.0417767 3.77177 0
M  V30 11831 H 1096.22 -0.522728 2.90433 0
M  V30 11832 H 1096.3 1.13545 2.29219 0
M  V30 11833 H 1095.94 2.00554 4.66627 0
M  V30 11834 H 1095.87 0.325885 5.25591 0
M  V30 11835 H 1098.37 0.635333 3.72521 0
M  V30 11836 H 1098.68 1.91137 7.4879 0
M  V30 11837 H 1097.02 1.71221 6.73579 0
M  V30 11838 H 1100.21 0.869906 4.59946 0
M  V30 11839 H 1100.39 1.45157 6.31533 0
M  V30 11840 N 1093.79 -1.57004 0.136909 0
M  V30 11841 C 1094.73 -2.13355 -0.837405 0
M  V30 11842 C 1095.74 -1.08053 -1.21772 0
M  V30 11843 O 1096.93 -1.35365 -1.16355 0
M  V30 11844 C 1094.03 -2.63302 -2.13366 0
M  V30 11845 C 1093.2 -3.92896 -1.92228 0
M  V30 11846 C 1092.26 -4.28257 -3.05749 0
M  V30 11847 O 1091.29 -4.96761 -2.7788 0
M  V30 11848 N 1092.49 -3.87021 -4.3266 0
M  V30 11849 H 1095.25 -2.9758 -0.35586 0
M  V30 11850 H 1092.81 -1.61832 -0.0469758 0
M  V30 11851 H 1094.81 -2.83977 -2.88339 0
M  V30 11852 H 1093.38 -1.83858 -2.52814 0
M  V30 11853 H 1092.6 -3.80949 -1.01349 0
M  V30 11854 H 1093.88 -4.776 -1.75431 0
M  V30 11855 H 1093.28 -3.31804 -4.58173 0
M  V30 11856 H 1091.84 -4.12768 -5.04446 0
M  V30 11857 N 1095.27 0.136881 -1.57004 0
M  V30 11858 C 1096.22 1.18782 -1.99984 0
M  V30 11859 C 1097.21 1.43899 -0.893841 0
M  V30 11860 O 1098.42 1.44072 -1.07904 0
M  V30 11861 H 1094.8 0.400065 -0.636751 0
M  V30 11862 H 1096.77 0.798696 -2.87512 0
M  V30 11863 C 1095.52 2.51105 -2.40502 0
M  V30 11864 H 1094.84 2.32611 -3.25165 0
M  V30 11865 H 1096.28 3.23244 -2.74389 0
M  V30 11866 C 1094.74 3.12386 -1.26161 0
M  V30 11867 O 1095.27 3.97666 -0.567836 0
M  V30 11868 N 1093.47 2.71989 -1.02326 0
M  V30 11869 H 1093.02 2.02736 -1.58921 0
M  V30 11870 H 1092.98 3.13322 -0.26013 0
M  V30 11871 N 1096.75 1.52266 0.40654 0
M  V30 11872 C 1097.68 1.78755 1.50229 0
M  V30 11873 C 1098.66 0.638652 1.57655 0
M  V30 11874 O 1099.85 0.884505 1.72888 0
M  V30 11875 C 1096.98 1.94057 2.88026 0
M  V30 11876 C 1095.93 3.09667 2.95449 0
M  V30 11877 C 1095.26 3.10196 4.35526 0
M  V30 11878 C 1096.56 4.49077 2.66697 0
M  V30 11879 H 1098.25 2.70511 1.28313 0
M  V30 11880 H 1095.8 1.30167 0.615836 0
M  V30 11881 H 1097.75 2.11171 3.64671 0
M  V30 11882 H 1096.47 0.989755 3.11242 0
M  V30 11883 H 1095.13 2.92308 2.2125 0
M  V30 11884 H 1094.78 2.12831 4.55754 0
M  V30 11885 H 1094.48 3.87847 4.41416 0
M  V30 11886 H 1096 3.29443 5.14101 0
M  V30 11887 H 1097.42 4.66628 3.33064 0
M  V30 11888 H 1095.82 5.28665 2.8396 0
M  V30 11889 H 1096.89 4.56995 1.62122 0
M  V30 11890 N 1098.23 -0.663929 1.42933 0
M  V30 11891 C 1099.16 -1.78946 1.43217 0
M  V30 11892 C 1100.17 -1.59426 0.329727 0
M  V30 11893 O 1101.36 -1.68344 0.5935 0
M  V30 11894 C 1098.46 -3.16217 1.21902 0
M  V30 11895 C 1097.64 -3.6249 2.44785 0
M  V30 11896 C 1096.69 -4.78529 2.18853 0
M  V30 11897 O 1095.72 -4.88516 2.92131 0
M  V30 11898 N 1096.92 -5.67994 1.19845 0
M  V30 11899 H 1099.69 -1.79184 2.40236 0
M  V30 11900 H 1097.25 -0.847404 1.37952 0
M  V30 11901 H 1099.24 -3.91517 1.02454 0
M  V30 11902 H 1097.81 -3.10814 0.333676 0
M  V30 11903 H 1097.03 -2.77751 2.79729 0
M  V30 11904 H 1098.32 -3.90151 3.26588 0
M  V30 11905 H 1097.72 -5.62588 0.59259 0
M  V30 11906 H 1096.27 -6.4306 1.06382 0
M  V30 11907 N 1099.71 -1.29285 -0.901281 0
M  V30 11908 C 1100.93 -1.20169 -1.69039 0
M  V30 11909 C 1101.36 0.234509 -1.86632 0
M  V30 11910 O 1100.71 1.16935 -1.38549 0
M  V30 11911 C 1100.76 -1.91852 -3.05328 0
M  V30 11912 O 1099.87 -1.23448 -3.9349 0
M  V30 11913 H 1099.21 -0.416486 -0.517141 0
M  V30 11914 H 1101.74 -1.70826 -1.12603 0
M  V30 11915 H 1101.75 -2.00244 -3.5548 0
M  V30 11916 H 1100.42 -2.96313 -2.91841 0
M  V30 11917 H 1099 -1.23303 -3.51924 0
M  V30 11918 N 1101.18 1.11143 -1.11736 0
M  V30 11919 C 1102.6 1.64462 -0.883693 0
M  V30 11920 C 1102.95 1.87324 0.583448 0
M  V30 11921 O 1102.07 1.60975 1.44623 0
M  V30 11922 C 1102.67 2.98765 -1.59764 0
M  V30 11923 C 1101.23 3.4898 -1.41032 0
M  V30 11924 C 1100.37 2.23729 -1.63831 0
M  V30 11925 H 1103.32 0.947415 -1.27317 0
M  V30 11926 H 1103.34 3.65885 -1.04443 0
M  V30 11927 H 1102.86 2.82094 -2.66542 0
M  V30 11928 H 1100.96 3.7081 -0.364781 0
M  V30 11929 H 1101.07 4.27571 -2.16148 0
M  V30 11930 H 1099.43 2.31507 -1.06191 0
M  V30 11931 H 1100.22 2.09597 -2.7189 0
M  V30 11932 N 1102.66 0.908147 1.28804 0
M  V30 11933 C 1103.89 0.55409 1.99343 0
M  V30 11934 C 1104.31 -0.863262 1.67908 0
M  V30 11935 O 1103.66 -1.571 0.92875 0
M  V30 11936 C 1103.71 0.746916 3.537 0
M  V30 11937 O 1103.43 2.10849 3.84024 0
M  V30 11938 C 1104.94 0.398939 4.41501 0
M  V30 11939 H 1102.16 0.211784 0.636701 0
M  V30 11940 H 1104.7 1.21981 1.64137 0
M  V30 11941 H 1102.85 0.128264 3.87188 0
M  V30 11942 H 1103.27 2.14404 4.78676 0
M  V30 11943 H 1104.74 0.584656 5.48895 0
M  V30 11944 H 1105.22 -0.664517 4.34144 0
M  V30 11945 H 1105.83 0.994892 4.135 0
M  V30 11946 N 1104.14 -1.42577 0.671525 0
M  V30 11947 C 1105.37 -2.06442 0.199152 0
M  V30 11948 C 1105.79 -1.50104 -1.1336 0
M  V30 11949 O 1105.15 -0.618211 -1.70434 0
M  V30 11950 C 1105.2 -3.60323 0.141215 0
M  V30 11951 O 1104.3 -4.02655 -0.891238 0
M  V30 11952 H 1103.64 -0.655919 0.103277 0
M  V30 11953 H 1106.17 -1.82768 0.919614 0
M  V30 11954 H 1106.18 -4.07984 -0.0360209 0
M  V30 11955 H 1104.86 -4.00702 1.11403 0
M  V30 11956 H 1103.43 -3.66549 -0.685309 0
M  V30 11957 N 1105.62 -0.414636 -1.52048 0
M  V30 11958 C 1106.84 0.161137 -2.06773 0
M  V30 11959 C 1107.27 1.37628 -1.2822 0
M  V30 11960 O 1106.63 1.78562 -0.313915 0
M  V30 11961 C 1106.67 0.48452 -3.5733 0
M  V30 11962 O 1105.78 1.57466 -3.81154 0
M  V30 11963 H 1105.12 0.0118003 -0.663895 0
M  V30 11964 H 1107.65 -0.589424 -1.95926 0
M  V30 11965 H 1107.66 0.741567 -4.01204 0
M  V30 11966 H 1106.33 -0.403733 -4.13936 0
M  V30 11967 H 1104.91 1.30935 -3.49157 0
M  V30 11968 N 1107.1 1.56929 -0.145233 0
M  V30 11969 C 1108.51 1.58196 0.211194 0
M  V30 11970 C 1108.71 1.15941 1.64803 0
M  V30 11971 O 1107.77 0.858888 2.37443 0
M  V30 11972 C 1109.08 3.00665 -0.0459569 0
M  V30 11973 C 1110.63 3.12995 0.0178913 0
M  V30 11974 C 1111.1 4.5751 -0.211905 0
M  V30 11975 N 1112.6 4.62928 -0.158772 0
M  V30 11976 C 1113.33 5.72555 -0.311111 0
M  V30 11977 N 1112.83 6.90838 -0.521074 0
M  V30 11978 N 1114.62 5.61549 -0.248838 0
M  V30 11979 H 1106.77 1.8269 -1.08342 0
M  V30 11980 H 1109.03 0.845514 -0.428731 0
M  V30 11981 H 1108.74 3.35962 -1.0403 0
M  V30 11982 H 1108.61 3.71125 0.674246 0
M  V30 11983 H 1111 2.7754 1.00278 0
M  V30 11984 H 1111.08 2.45025 -0.734612 0
M  V30 11985 H 1110.73 4.93669 -1.19389 0
M  V30 11986 H 1110.66 5.23604 0.560901 0
M  V30 11987 H 1113.15 3.779 -0.00107283 0
M  V30 11988 H 1113.46 7.70248 -0.62747 0
M  V30 11989 H 1111.8 6.92761 -0.557374 0
M  V30 11990 H 1115 4.68022 -0.0855821 0
M  V30 11991 H 1115.17 6.46937 -0.370997 0
M  V30 11992 N 1108.58 -0.128553 1.57075 0
M  V30 11993 C 1109.54 -1.14215 1.98715 0
M  V30 11994 C 1110.54 -1.34843 0.876019 0
M  V30 11995 O 1111.73 -1.31522 1.14227 0
M  V30 11996 C 1108.86 -2.49865 2.31905 0
M  V30 11997 H 1110.05 -0.784481 2.89458 0
M  V30 11998 H 1107.61 -0.372531 1.51796 0
M  V30 11999 H 1108.34 -2.9057 1.44012 0
M  V30 12000 H 1108.13 -2.3625 3.12935 0
M  V30 12001 H 1109.62 -3.22832 2.64895 0
M  V30 12002 N 1110.05 -1.5248 -0.398459 0
M  V30 12003 C 1111.28 -1.70925 -1.16586 0
M  V30 12004 C 1111.7 -0.42342 -1.83991 0
M  V30 12005 O 1111.05 0.601395 -1.72306 0
M  V30 12006 C 1111.1 -2.85226 -2.22099 0
M  V30 12007 O 1110.83 -4.08831 -1.57444 0
M  V30 12008 C 1112.33 -3.15272 -3.11639 0
M  V30 12009 H 1109.55 -0.572533 -0.349924 0
M  V30 12010 H 1112.09 -1.99087 -0.467416 0
M  V30 12011 H 1110.25 -2.59553 -2.87595 0
M  V30 12012 H 1110.66 -4.72603 -2.2748 0
M  V30 12013 H 1112.13 -3.98737 -3.81724 0
M  V30 12014 H 1112.61 -2.29262 -3.74614 0
M  V30 12015 H 1113.22 -3.42749 -2.518 0
M  V30 12016 N 1111.53 0.65634 -1.43283 0
M  V30 12017 C 1112.78 1.41212 -1.44021 0
M  V30 12018 C 1113.09 1.95485 -0.0669783 0
M  V30 12019 O 1114.3 2.71457 0.0481909 0
M  V30 12020 C 1112.76 2.55541 -2.5343 0
M  V30 12021 C 1112.36 2.07889 -3.96845 0
M  V30 12022 C 1114.11 3.3293 -2.63359 0
M  V30 12023 C 1112.01 3.19411 -4.97726 0
M  V30 12024 H 1110.94 0.530566 -0.535739 0
M  V30 12025 H 1113.6 0.708743 -1.6926 0
M  V30 12026 H 1111.98 3.28335 -2.21387 0
M  V30 12027 H 1113.15 1.42127 -4.38334 0
M  V30 12028 H 1111.47 1.43388 -3.90933 0
M  V30 12029 H 1114.06 4.1602 -3.35903 0
M  V30 12030 H 1114.41 3.80753 -1.68324 0
M  V30 12031 H 1114.94 2.67216 -2.94687 0
M  V30 12032 H 1111.68 2.7656 -5.94302 0
M  V30 12033 H 1111.2 3.83895 -4.60853 0
M  V30 12034 H 1112.88 3.84591 -5.20287 0
M  V30 12035 N 1113.01 1.29761 0.894412 0
M  V30 12036 C 1113.94 1.17902 2.01547 0
M  V30 12037 C 1114.92 0.0719402 1.69948 0
M  V30 12038 O 1116.11 0.252338 1.92554 0
M  V30 12039 C 1113.24 0.860262 3.36477 0
M  V30 12040 C 1112.19 1.92424 3.82305 0
M  V30 12041 C 1111.52 1.45868 5.14419 0
M  V30 12042 C 1112.82 3.33391 4.02054 0
M  V30 12043 H 1114.51 2.11688 2.11727 0
M  V30 12044 H 1112.06 1.01916 1.01731 0
M  V30 12045 H 1114.01 0.763987 4.14417 0
M  V30 12046 H 1112.73 -0.113289 3.26403 0
M  V30 12047 H 1111.39 2.00999 3.06586 0
M  V30 12048 H 1111.04 0.473654 5.00765 0
M  V30 12049 H 1110.74 2.17028 5.46052 0
M  V30 12050 H 1112.26 1.37601 5.94894 0
M  V30 12051 H 1113.68 3.27628 4.7046 0
M  V30 12052 H 1112.07 4.02555 4.4505 0
M  V30 12053 H 1113.14 3.75978 3.06216 0
M  V30 12054 N 1114.49 -1.10549 1.12324 0
M  V30 12055 C 1115.73 -1.82755 0.879117 0
M  V30 12056 C 1116.07 -1.84905 -0.593604 0
M  V30 12057 O 1115.34 -1.30884 -1.43873 0
M  V30 12058 C 1115.62 -3.29481 1.45308 0
M  V30 12059 C 1115.48 -3.3567 2.99408 0
M  V30 12060 C 1116.8 -4.25828 1.11167 0
M  V30 12061 H 1113.92 -0.663513 0.32081 0
M  V30 12062 H 1116.56 -1.29572 1.38965 0
M  V30 12063 H 1114.71 -3.74902 1.01887 0
M  V30 12064 H 1116.38 -2.98739 3.515 0
M  V30 12065 H 1114.62 -2.75606 3.34998 0
M  V30 12066 H 1115.29 -4.38983 3.34661 0
M  V30 12067 H 1117.77 -3.88635 1.48667 0
M  V30 12068 H 1116.65 -5.26857 1.53991 0
M  V30 12069 H 1116.91 -4.42094 0.0237046 0
M  V30 12070 N 1115.97 -0.914965 -1.28321 0
M  V30 12071 C 1116.88 -0.409424 -2.31 0
M  V30 12072 C 1117.89 0.503526 -1.66555 0
M  V30 12073 O 1119.07 0.38942 -1.97599 0
M  V30 12074 C 1116.13 0.34123 -3.45017 0
M  V30 12075 C 1115.19 -0.605087 -4.25014 0
M  V30 12076 C 1114.43 0.109837 -5.33587 0
M  V30 12077 O 1114.65 1.33136 -5.54645 0
M  V30 12078 O 1113.58 -0.555474 -5.99331 0
M  V30 12079 H 1117.41 -1.26167 -2.76253 0
M  V30 12080 H 1114.99 -0.679831 -1.33036 0
M  V30 12081 H 1116.88 0.765132 -4.14396 0
M  V30 12082 H 1115.55 1.16929 -3.01843 0
M  V30 12083 H 1114.46 -1.07841 -3.58219 0
M  V30 12084 H 1115.79 -1.39999 -4.7187 0
M  V30 12085 N 1117.44 1.42219 -0.679077 0
M  V30 12086 C 1118.37 2.33493 -0.0174528 0
M  V30 12087 C 1119.35 1.50915 0.78477 0
M  V30 12088 O 1120.54 1.79504 0.741065 0
M  V30 12089 C 1117.67 3.34576 0.931463 0
M  V30 12090 C 1116.62 4.2734 0.237527 0
M  V30 12091 C 1115.95 5.18664 1.29967 0
M  V30 12092 C 1117.25 5.14729 -0.886082 0
M  V30 12093 H 1118.94 2.89068 -0.779748 0
M  V30 12094 H 1116.49 1.38993 -0.376419 0
M  V30 12095 H 1118.44 3.97343 1.40343 0
M  V30 12096 H 1117.17 2.77315 1.72523 0
M  V30 12097 H 1115.83 3.65973 -0.214245 0
M  V30 12098 H 1115.47 4.57727 2.08554 0
M  V30 12099 H 1115.17 5.81558 0.840463 0
M  V30 12100 H 1116.7 5.84308 1.77249 0
M  V30 12101 H 1118.11 5.71158 -0.495141 0
M  V30 12102 H 1116.51 5.86478 -1.27135 0
M  V30 12103 H 1117.58 4.52874 -1.733 0
M  V30 12104 N 1118.92 0.422693 1.51826 0
M  V30 12105 C 1120.15 -0.15017 2.06856 0
M  V30 12106 C 1120.57 -1.36946 1.28948 0
M  V30 12107 O 1119.93 -1.78393 0.32338 0
M  V30 12108 C 1119.98 -0.465563 3.57582 0
M  V30 12109 O 1119.08 -1.55442 3.81984 0
M  V30 12110 H 1118.42 -0.00827931 0.663948 0
M  V30 12111 H 1120.95 0.599806 1.95611 0
M  V30 12112 H 1120.96 -0.720279 4.01592 0
M  V30 12113 H 1119.64 0.425679 4.13716 0
M  V30 12114 H 1118.21 -1.29081 3.49846 0
M  V30 12115 N 1120.4 -1.5685 0.153553 0
M  V30 12116 C 1121.64 -1.98226 -0.498586 0
M  V30 12117 C 1122 -1.03671 -1.61605 0
M  V30 12118 O 1123.2 -1.34117 -2.32951 0
M  V30 12119 C 1121.48 -3.43539 -0.985678 0
M  V30 12120 S 1123.03 -4.0694 -1.6415 0
M  V30 12121 H 1119.85 -0.692533 -0.160993 0
M  V30 12122 H 1122.45 -1.93936 0.246817 0
M  V30 12123 H 1121.16 -4.10081 -0.161708 0
M  V30 12124 H 1120.69 -3.51557 -1.76555 0
M  V30 12125 H 1122.7 -4.0053 -2.929 0
M  V30 12126 N 1121.88 0.120221 -1.57141 0
M  V30 12127 C 1122.79 1.16641 -2.03549 0
M  V30 12128 C 1123.8 1.45407 -0.955656 0
M  V30 12129 O 1124.98 1.56547 -1.26708 0
M  V30 12130 C 1122.04 2.4734 -2.42948 0
M  V30 12131 C 1121.11 2.25982 -3.65008 0
M  V30 12132 C 1120.34 3.50449 -4.02518 0
M  V30 12133 O 1120.56 4.57706 -3.40384 0
M  V30 12134 O 1119.5 3.41524 -4.95626 0
M  V30 12135 H 1123.32 0.802323 -2.9291 0
M  V30 12136 H 1120.91 0.330927 -1.45689 0
M  V30 12137 H 1122.79 3.24348 -2.69029 0
M  V30 12138 H 1121.46 2.83225 -1.56733 0
M  V30 12139 H 1120.37 1.46837 -3.44078 0
M  V30 12140 H 1121.7 1.95002 -4.51924 0
M  V30 12141 N 1123.36 1.52689 0.390367 0
M  V30 12142 C 1124.63 1.58246 1.14968 0
M  V30 12143 C 1125.01 0.374808 2.07746 0
M  V30 12144 O 1124.36 -0.636969 2.19442 0
M  V30 12145 C 1124.57 2.92059 1.91056 0
M  V30 12146 C 1125.92 3.45745 2.46466 0
M  V30 12147 O 1126.94 2.93924 2.01214 0
M  V30 12148 O 1125.8 4.3628 3.29122 0
M  V30 12149 H 1122.9 0.638189 0.52597 0
M  V30 12150 H 1125.44 1.65024 0.39563 0
M  V30 12151 H 1124.21 3.71399 1.23201 0
M  V30 12152 H 1123.84 2.8866 2.73425 0
M  V30 12153 N 1124.83 -0.648732 1.43629 0
M  V30 12154 C 1126.08 -1.40579 1.45196 0
M  V30 12155 C 1126.4 -1.9484 0.0790556 0
M  V30 12156 O 1125.67 -1.74707 -0.886239 0
M  V30 12157 H 1124.25 -0.52175 0.53459 0
M  V30 12158 H 1126.92 -0.764796 1.79268 0
M  V30 12159 H 1126.01 -2.24591 2.16715 0
M  V30 12160 N 1126.31 -1.30234 -0.887518 0
M  V30 12161 C 1127.24 -1.12212 -1.99853 0
M  V30 12162 C 1128.26 -0.0660929 -1.62666 0
M  V30 12163 O 1129.45 -0.311853 -1.75755 0
M  V30 12164 C 1126.55 -0.688591 -3.31831 0
M  V30 12165 C 1125.72 -1.82581 -3.97471 0
M  V30 12166 C 1124.78 -1.38126 -5.07748 0
M  V30 12167 O 1123.8 -2.08805 -5.29518 0
M  V30 12168 N 1125.01 -0.258868 -5.79923 0
M  V30 12169 H 1127.77 -2.07901 -2.15864 0
M  V30 12170 H 1125.33 -1.22336 -1.06045 0
M  V30 12171 H 1127.32 -0.374252 -4.02966 0
M  V30 12172 H 1125.89 0.176185 -3.12103 0
M  V30 12173 H 1125.11 -2.3084 -3.19541 0
M  V30 12174 H 1126.4 -2.58798 -4.38065 0
M  V30 12175 H 1125.8 0.330131 -5.64736 0
M  V30 12176 H 1124.36 -0.00396813 -6.518 0
M  V30 12177 N 1127.79 1.09952 -1.12909 0
M  V30 12178 C 1129.04 1.81657 -0.885729 0
M  V30 12179 C 1129.36 1.85863 0.589913 0
M  V30 12180 O 1128.63 1.34028 1.42875 0
M  V30 12181 H 1127.21 0.672743 -0.324694 0
M  V30 12182 H 1129.87 1.33013 -1.42456 0
M  V30 12183 H 1128.97 2.85018 -1.27167 0
M  V30 12184 N 1129.27 0.921757 1.27833 0
M  V30 12185 C 1130.2 0.433466 2.29441 0
M  V30 12186 C 1131.18 -0.503133 1.62489 0
M  V30 12187 O 1132.36 -0.409156 1.89841 0
M  V30 12188 C 1129.49 -0.320029 3.45822 0
M  V30 12189 C 1128.45 0.528178 4.24728 0
M  V30 12190 C 1127.77 -0.354132 5.33526 0
M  V30 12191 C 1129.07 1.78959 4.90684 0
M  V30 12192 H 1130.77 1.28263 2.70535 0
M  V30 12193 H 1128.31 0.618197 1.30055 0
M  V30 12194 H 1130.27 -0.672526 4.15999 0
M  V30 12195 H 1128.99 -1.20317 3.0363 0
M  V30 12196 H 1127.65 0.863302 3.5629 0
M  V30 12197 H 1127.3 -1.23605 4.87576 0
M  V30 12198 H 1127 0.209855 5.87225 0
M  V30 12199 H 1128.52 -0.702333 6.06547 0
M  V30 12200 H 1129.94 1.50552 5.53179 0
M  V30 12201 H 1128.33 2.29661 5.54415 0
M  V30 12202 H 1129.4 2.51265 4.14721 0
M  V30 12203 N 1130.75 -1.41857 0.686609 0
M  V30 12204 C 1131.69 -2.326 0.0041351 0
M  V30 12205 C 1132.69 -1.50474 -0.778077 0
M  V30 12206 O 1133.89 -1.66468 -0.684709 0
M  V30 12207 H 1130.27 -0.751797 -0.0174615 0
M  V30 12208 H 1132.24 -2.87844 0.786656 0
M  V30 12209 C 1130.99 -3.35175 -0.924819 0
M  V30 12210 H 1130.31 -3.98416 -0.332339 0
M  V30 12211 H 1131.75 -4.01229 -1.37082 0
M  V30 12212 C 1130.21 -2.68359 -2.03679 0
M  V30 12213 O 1130.74 -2.52453 -3.12459 0
M  V30 12214 N 1128.95 -2.27196 -1.81192 0
M  V30 12215 H 1128.49 -2.40333 -0.92725 0
M  V30 12216 H 1128.45 -1.82824 -2.55778 0
M  V30 12217 N 1132.22 -0.430739 -1.51599 0
M  V30 12218 C 1133.45 0.136599 -2.06148 0
M  V30 12219 C 1133.86 1.37577 -1.29881 0
M  V30 12220 O 1133.21 1.80337 -0.349875 0
M  V30 12221 C 1133.27 0.53071 -3.55561 0
M  V30 12222 C 1132.93 -0.600738 -4.53034 0
M  V30 12223 C 1133.93 -1.47089 -4.98659 0
M  V30 12224 C 1131.61 -0.77959 -4.96213 0
M  V30 12225 C 1133.61 -2.50464 -5.86128 0
M  V30 12226 C 1131.29 -1.81663 -5.83474 0
M  V30 12227 C 1132.29 -2.67755 -6.28328 0
M  V30 12228 O 1131.98 -3.69679 -7.13858 0
M  V30 12229 H 1131.71 0.0143071 -0.675849 0
M  V30 12230 H 1134.27 -0.606673 -1.96236 0
M  V30 12231 H 1132.5 1.32659 -3.63233 0
M  V30 12232 H 1134.19 1.02844 -3.92655 0
M  V30 12233 H 1134.95 -1.34421 -4.66 0
M  V30 12234 H 1130.83 -0.119082 -4.60846 0
M  V30 12235 H 1134.37 -3.17695 -6.2106 0
M  V30 12236 H 1130.27 -1.94353 -6.15546 0
M  V30 12237 H 1131.04 -3.66181 -7.3202 0
M  V30 12238 N 1133.7 1.56767 -0.161869 0
M  V30 12239 C 1134.63 2.20511 0.767918 0
M  V30 12240 C 1135.61 1.15783 1.24612 0
M  V30 12241 O 1136.8 1.44179 1.301 0
M  V30 12242 C 1133.93 2.83844 2.00125 0
M  V30 12243 C 1132.88 3.94528 1.65926 0
M  V30 12244 C 1132.21 4.44866 2.96646 0
M  V30 12245 C 1133.51 5.14583 0.894497 0
M  V30 12246 H 1135.2 2.98464 0.236607 0
M  V30 12247 H 1132.75 1.43561 0.112363 0
M  V30 12248 H 1134.7 3.27109 2.65664 0
M  V30 12249 H 1133.43 2.03246 2.55654 0
M  V30 12250 H 1132.08 3.51904 1.02759 0
M  V30 12251 H 1131.73 3.61071 3.50196 0
M  V30 12252 H 1131.43 5.19531 2.74521 0
M  V30 12253 H 1132.96 4.90812 3.6323 0
M  V30 12254 H 1134.37 5.54601 1.45228 0
M  V30 12255 H 1132.77 5.95105 0.772636 0
M  V30 12256 H 1133.84 4.84773 -0.110986 0
M  V30 12257 N 1135.18 -0.111886 1.57202 0
M  V30 12258 C 1136.59 -0.668261 1.74331 0
M  V30 12259 C 1136.94 -1.79959 0.781609 0
M  V30 12260 O 1136.07 -2.16356 -0.043833 0
M  V30 12261 C 1136.66 -1.219 3.1611 0
M  V30 12262 C 1135.22 -1.7216 3.34721 0
M  V30 12263 C 1134.37 -0.624223 2.70183 0
M  V30 12264 H 1137.32 0.114081 1.58289 0
M  V30 12265 H 1137.34 -2.08858 3.18054 0
M  V30 12266 H 1136.85 -0.395381 3.86081 0
M  V30 12267 H 1134.95 -2.56976 2.69803 0
M  V30 12268 H 1135.07 -1.82615 4.42932 0
M  V30 12269 H 1133.43 -1.05958 2.31614 0
M  V30 12270 H 1134.21 0.188537 3.42782 0
M  V30 12271 N 1136.66 -1.52894 -0.382264 0
M  V30 12272 C 1137.91 -1.67933 -1.1244 0
M  V30 12273 C 1138.23 -0.425166 -1.90309 0
M  V30 12274 O 1137.5 0.560557 -1.87709 0
M  V30 12275 H 1136.08 -0.619047 -0.418079 0
M  V30 12276 H 1138.74 -1.90031 -0.432928 0
M  V30 12277 H 1137.84 -2.53285 -1.82355 0
M  V30 12278 N 1138.14 0.641106 -1.43971 0
M  V30 12279 C 1139.05 1.78239 -1.52538 0
M  V30 12280 C 1140.06 1.6906 -0.411668 0
M  V30 12281 O 1141.24 1.90014 -0.66757 0
M  V30 12282 C 1138.3 3.14579 -1.45743 0
M  V30 12283 C 1137.37 3.35464 -2.67885 0
M  V30 12284 C 1136.6 4.65299 -2.61404 0
M  V30 12285 O 1136.82 5.45451 -1.66851 0
M  V30 12286 O 1135.76 4.8817 -3.521 0
M  V30 12287 H 1139.58 1.73965 -2.48937 0
M  V30 12288 H 1137.17 0.801098 -1.26106 0
M  V30 12289 H 1139.05 3.95873 -1.4444 0
M  V30 12290 H 1137.72 3.19417 -0.524837 0
M  V30 12291 H 1136.63 2.53888 -2.74758 0
M  V30 12292 H 1137.96 3.35481 -3.60157 0
M  V30 12293 N 1139.62 1.30703 0.880598 0
M  V30 12294 C 1140.57 1.14062 1.97418 0
M  V30 12295 C 1141.55 0.0545541 1.60807 0
M  V30 12296 O 1142.74 0.278344 1.74798 0
M  V30 12297 C 1139.87 0.839062 3.32888 0
M  V30 12298 C 1138.96 1.96559 3.75799 0
M  V30 12299 N 1139.35 3.21145 3.90768 0
M  V30 12300 C 1137.65 1.86294 4.05229 0
M  V30 12301 C 1138.35 3.94766 4.27241 0
M  V30 12302 N 1137.32 3.2285 4.37343 0
M  V30 12303 H 1141.12 2.08548 2.07087 0
M  V30 12304 H 1138.64 1.22106 1.0707 0
M  V30 12305 H 1140.64 0.700851 4.10967 0
M  V30 12306 H 1139.3 -0.0976808 3.24553 0
M  V30 12307 H 1140.31 3.56384 3.75781 0
M  V30 12308 H 1136.98 1.00016 4.05343 0
M  V30 12309 H 1138.37 5.02076 4.46508 0
M  V30 12310 N 1141.09 -1.09351 1.1349 0
M  V30 12311 C 1142.02 -2.18037 0.835588 0
M  V30 12312 C 1143 -1.68856 -0.205373 0
M  V30 12313 O 1144.19 -1.94094 -0.0641357 0
M  V30 12314 C 1141.32 -3.45987 0.301661 0
M  V30 12315 C 1140.27 -4.08507 1.27696 0
M  V30 12316 C 1139.6 -5.31292 0.602758 0
M  V30 12317 C 1140.9 -4.50916 2.63575 0
M  V30 12318 H 1142.59 -2.43332 1.74441 0
M  V30 12319 H 1140.14 -1.1695 0.840166 0
M  V30 12320 H 1142.09 -4.21324 0.079928 0
M  V30 12321 H 1140.82 -3.20217 -0.642552 0
M  V30 12322 H 1139.48 -3.3519 1.4847 0
M  V30 12323 H 1139.12 -5.01802 -0.346953 0
M  V30 12324 H 1138.82 -5.74075 1.25345 0
M  V30 12325 H 1140.35 -6.09351 0.390325 0
M  V30 12326 H 1141.76 -5.17474 2.46765 0
M  V30 12327 H 1140.16 -5.04586 3.24827 0
M  V30 12328 H 1141.23 -3.63279 3.2118 0
M  V30 12329 N 1142.57 -0.928524 -1.27343 0
M  V30 12330 C 1143.82 -0.568267 -1.93946 0
M  V30 12331 C 1144.14 0.893501 -1.73325 0
M  V30 12332 O 1143.41 1.63344 -1.08147 0
M  V30 12333 H 1141.99 -0.207173 -0.717696 0
M  V30 12334 H 1144.65 -1.1811 -1.55036 0
M  V30 12335 H 1143.75 -0.775246 -3.02318 0
M  V30 12336 N 1144.05 1.41491 -0.694123 0
M  V30 12337 C 1145.3 2.0155 -0.224809 0
M  V30 12338 C 1145.63 1.54844 1.17205 0
M  V30 12339 O 1144.9 0.75899 1.7908 0
M  V30 12340 C 1145.19 3.59003 -0.280884 0
M  V30 12341 C 1145.04 4.15839 -1.71458 0
M  V30 12342 C 1146.36 4.38624 0.360122 0
M  V30 12343 H 1143.48 0.732293 -0.0831632 0
M  V30 12344 H 1146.12 1.68258 -0.882569 0
M  V30 12345 H 1144.27 3.87496 0.279164 0
M  V30 12346 H 1145.94 3.98227 -2.32837 0
M  V30 12347 H 1144.18 3.70936 -2.2492 0
M  V30 12348 H 1144.86 5.24997 -1.70536 0
M  V30 12349 H 1147.33 4.15936 -0.11683 0
M  V30 12350 H 1146.21 5.48132 0.290337 0
M  V30 12351 H 1146.47 4.1797 1.44062 0
M  V30 12352 N 1145.53 0.438773 1.51369 0
M  V30 12353 C 1146.77 -0.126367 2.04009 0
M  V30 12354 C 1147.13 -1.39837 1.31566 0
M  V30 12355 O 1148.33 -2.04384 1.74587 0
M  V30 12356 C 1146.6 -0.338531 3.55793 0
M  V30 12357 S 1148.16 -0.866869 4.30152 0
M  V30 12358 H 1144.98 -0.0311763 0.710316 0
M  V30 12359 H 1147.58 0.598507 1.86113 0
M  V30 12360 H 1146.29 0.593555 4.06085 0
M  V30 12361 H 1145.82 -1.09044 3.77985 0
M  V30 12362 H 1147.83 -2.14427 4.47477 0
M  V30 12363 N 1147.01 -1.56678 0.170181 0
M  V30 12364 C 1148.42 -1.83452 -0.346742 0
M  V30 12365 C 1148.77 -1.08993 -1.63141 0
M  V30 12366 O 1147.89 -0.342607 -2.13671 0
M  V30 12367 C 1148.49 -3.32779 -0.635882 0
M  V30 12368 C 1147.05 -3.60052 -1.09725 0
M  V30 12369 C 1146.19 -2.76983 -0.132516 0
M  V30 12370 H 1149.14 -1.53719 0.394465 0
M  V30 12371 H 1149.17 -3.50195 -1.48806 0
M  V30 12372 H 1148.68 -3.86944 0.299291 0
M  V30 12373 H 1146.78 -3.11297 -2.04756 0
M  V30 12374 H 1146.89 -4.68393 -1.00719 0
M  V30 12375 H 1145.26 -2.46794 -0.62966 0
M  V30 12376 H 1146.04 -3.33929 0.796658 0
M  V30 12377 N 1148.48 0.103547 -1.57259 0
M  V30 12378 C 1149.73 0.806979 -1.8529 0
M  V30 12379 C 1150.05 1.79679 -0.757653 0
M  V30 12380 O 1149.32 1.94695 0.216913 0
M  V30 12381 H 1147.9 0.301012 -0.683667 0
M  V30 12382 H 1150.56 0.0871886 -1.94705 0
M  V30 12383 H 1149.66 1.34275 -2.81738 0
M  V30 12384 N 1149.96 1.53094 0.37415 0
M  V30 12385 C 1150.91 1.79585 1.47824 0
M  V30 12386 C 1151.9 0.664513 1.55822 0
M  V30 12387 O 1153.11 0.84729 1.58811 0
M  V30 12388 H 1149.48 0.568474 0.492282 0
M  V30 12389 H 1151.46 2.72014 1.22681 0
M  V30 12390 C 1150.2 1.995 2.84772 0
M  V30 12391 H 1149.53 2.85991 2.79373 0
M  V30 12392 H 1150.97 2.22018 3.61226 0
M  V30 12393 C 1149.43 0.771673 3.27943 0
M  V30 12394 O 1149.96 -0.0437737 4.01676 0
M  V30 12395 N 1148.16 0.597547 2.8439 0
M  V30 12396 H 1147.71 1.26227 2.24554 0
M  V30 12397 H 1147.67 -0.219578 3.13632 0
M  V30 12398 N 1151.44 -0.633461 1.44309 0
M  V30 12399 C 1152.37 -1.75868 1.4698 0
M  V30 12400 C 1153.38 -1.58691 0.363469 0
M  V30 12401 O 1154.57 -1.67048 0.629075 0
M  V30 12402 C 1151.67 -3.1356 1.28582 0
M  V30 12403 C 1150.85 -3.57217 2.52418 0
M  V30 12404 C 1149.91 -4.73779 2.28954 0
M  V30 12405 O 1148.93 -4.8221 3.02428 0
M  V30 12406 N 1150.13 -5.65324 1.31866 0
M  V30 12407 H 1152.9 -1.74048 2.43983 0
M  V30 12408 H 1150.46 -0.817952 1.39718 0
M  V30 12409 H 1152.45 -3.89255 1.10736 0
M  V30 12410 H 1151.02 -3.10036 0.399529 0
M  V30 12411 H 1150.24 -2.71755 2.85557 0
M  V30 12412 H 1151.53 -3.83136 3.3479 0
M  V30 12413 H 1150.93 -5.61204 0.71179 0
M  V30 12414 H 1149.48 -6.40659 1.19998 0
M  V30 12415 N 1152.92 -1.31168 -0.873655 0
M  V30 12416 C 1154.33 -1.18584 -1.44203 0
M  V30 12417 C 1154.68 0.209114 -1.95082 0
M  V30 12418 O 1153.81 1.10662 -1.85965 0
M  V30 12419 C 1154.4 -2.14668 -2.62112 0
M  V30 12420 C 1152.96 -2.06029 -3.15006 0
M  V30 12421 C 1152.11 -2.04106 -1.87712 0
M  V30 12422 H 1155.06 -1.43273 -0.682536 0
M  V30 12423 H 1155.08 -1.73413 -3.38686 0
M  V30 12424 H 1154.59 -3.16186 -2.25051 0
M  V30 12425 H 1152.69 -1.07693 -3.56697 0
M  V30 12426 H 1152.8 -2.9496 -3.77539 0
M  V30 12427 H 1151.17 -1.49069 -2.0652 0
M  V30 12428 H 1151.95 -3.07373 -1.52894 0
M  V30 12429 N 1154.4 1.08748 -1.14068 0
M  V30 12430 C 1155.36 2.1375 -0.827266 0
M  V30 12431 C 1156.36 1.59936 0.166496 0
M  V30 12432 O 1157.55 1.74092 -0.0614305 0
M  V30 12433 C 1154.68 3.40106 -0.232557 0
M  V30 12434 H 1155.87 2.42985 -1.7578 0
M  V30 12435 H 1153.43 1.24402 -0.946244 0
M  V30 12436 H 1154.16 3.16503 0.706859 0
M  V30 12437 H 1153.95 3.8046 -0.948293 0
M  V30 12438 H 1155.44 4.17589 -0.0303662 0
M  V30 12439 N 1155.87 0.935264 1.26849 0
M  V30 12440 C 1156.8 0.457776 2.28969 0
M  V30 12441 C 1157.79 -0.48587 1.63013 0
M  V30 12442 O 1158.97 -0.388998 1.90264 0
M  V30 12443 C 1156.1 -0.283332 3.46142 0
M  V30 12444 C 1155.05 0.573196 4.24144 0
M  V30 12445 C 1154.38 -0.297525 5.33872 0
M  V30 12446 C 1155.68 1.84153 4.88759 0
M  V30 12447 H 1157.37 1.31125 2.69159 0
M  V30 12448 H 1154.92 0.631956 1.29392 0
M  V30 12449 H 1156.87 -0.628366 4.16689 0
M  V30 12450 H 1155.6 -1.1709 3.04889 0
M  V30 12451 H 1154.26 0.901043 3.55354 0
M  V30 12452 H 1153.9 -1.18427 4.8886 0
M  V30 12453 H 1153.6 0.272126 5.8697 0
M  V30 12454 H 1155.13 -0.637961 6.07258 0
M  V30 12455 H 1156.54 1.5641 5.51551 0
M  V30 12456 H 1154.94 2.35528 5.51948 0
M  V30 12457 H 1156.01 2.5565 4.12033 0
M  V30 12458 N 1157.35 -1.41121 0.701616 0
M  V30 12459 C 1158.6 -2.01428 0.235495 0
M  V30 12460 C 1158.93 -1.55463 -1.16382 0
M  V30 12461 O 1158.21 -0.768477 -1.78675 0
M  V30 12462 C 1158.49 -3.58849 0.299919 0
M  V30 12463 C 1158.34 -4.14924 1.73661 0
M  V30 12464 C 1159.66 -4.38809 -0.336856 0
M  V30 12465 H 1156.78 -0.731842 0.0870456 0
M  V30 12466 H 1159.42 -1.67787 0.891479 0
M  V30 12467 H 1157.57 -3.87638 -0.258611 0
M  V30 12468 H 1159.24 -3.96987 2.34945 0
M  V30 12469 H 1157.49 -3.69738 2.26884 0
M  V30 12470 H 1158.16 -5.24085 1.73318 0
M  V30 12471 H 1160.63 -4.15868 0.138886 0
M  V30 12472 H 1159.51 -5.48278 -0.261264 0
M  V30 12473 H 1159.77 -4.18728 -1.41843 0
M  V30 12474 N 1158.83 -0.446794 -1.51134 0
M  V30 12475 C 1159.76 0.395804 -2.25757 0
M  V30 12476 C 1160.78 0.978178 -1.30137 0
M  V30 12477 O 1161.96 0.87071 -1.55823 0
M  V30 12478 C 1159.06 1.56665 -3.00515 0
M  V30 12479 C 1158.24 1.10146 -4.23305 0
M  V30 12480 C 1157.3 2.14352 -4.80562 0
M  V30 12481 O 1156.32 1.73401 -5.42145 0
M  V30 12482 N 1157.52 3.46932 -4.65423 0
M  V30 12483 H 1160.29 -0.243808 -2.98707 0
M  V30 12484 H 1157.85 -0.276205 -1.59527 0
M  V30 12485 H 1159.84 2.26019 -3.35704 0
M  V30 12486 H 1158.41 2.11142 -2.30516 0
M  V30 12487 H 1157.63 0.234644 -3.93501 0
M  V30 12488 H 1158.92 0.768185 -5.02968 0
M  V30 12489 H 1158.32 3.82929 -4.16391 0
M  V30 12490 H 1156.88 4.12154 -5.04948 0
M  V30 12491 N 1160.31 1.56586 -0.178487 0
M  V30 12492 C 1161.56 1.96709 0.4637 0
M  V30 12493 C 1161.88 1.06586 1.63292 0
M  V30 12494 O 1161.15 0.133683 1.95443 0
M  V30 12495 H 1159.73 0.726381 0.174299 0
M  V30 12496 H 1162.39 1.9314 -0.261345 0
M  V30 12497 H 1161.49 3.01164 0.818934 0
M  V30 12498 N 1161.79 -0.095206 1.57312 0
M  V30 12499 C 1163.04 -0.797417 1.85268 0
M  V30 12500 C 1163.35 -1.79903 0.767733 0
M  V30 12501 O 1164.55 -2.54914 0.934409 0
M  V30 12502 C 1163.01 -1.469 3.28555 0
M  V30 12503 C 1162.62 -0.507152 4.4512 0
M  V30 12504 C 1164.36 -2.15494 3.65735 0
M  V30 12505 C 1162.27 -1.18331 5.79441 0
M  V30 12506 H 1161.2 -0.301552 0.691074 0
M  V30 12507 H 1163.85 -0.0503584 1.83431 0
M  V30 12508 H 1162.23 -2.26351 3.24933 0
M  V30 12509 H 1163.41 0.255858 4.60089 0
M  V30 12510 H 1161.72 0.0730882 4.16336 0
M  V30 12511 H 1164.32 -2.66816 4.63371 0
M  V30 12512 H 1164.66 -2.94383 2.94354 0
M  V30 12513 H 1165.19 -1.42903 3.71246 0
M  V30 12514 H 1161.93 -0.435238 6.54053 0
M  V30 12515 H 1161.45 -1.91775 5.68315 0
M  V30 12516 H 1163.13 -1.70983 6.23998 0
M  V30 12517 N 1163.26 -1.53291 -0.366026 0
M  V30 12518 C 1164.19 -1.82675 -1.45437 0
M  V30 12519 C 1165.18 -0.680227 -1.55907 0
M  V30 12520 O 1166.36 -0.930032 -1.70482 0
M  V30 12521 C 1163.49 -2.01626 -2.8278 0
M  V30 12522 C 1162.44 -3.17391 -2.87135 0
M  V30 12523 C 1161.77 -3.21634 -4.27148 0
M  V30 12524 C 1163.07 -4.5599 -2.54697 0
M  V30 12525 H 1164.76 -2.73818 -1.21096 0
M  V30 12526 H 1162.31 -1.31754 -0.581108 0
M  V30 12527 H 1164.26 -2.20765 -3.58944 0
M  V30 12528 H 1162.99 -1.07193 -3.08508 0
M  V30 12529 H 1161.65 -2.98071 -2.13422 0
M  V30 12530 H 1161.29 -2.2484 -4.49951 0
M  V30 12531 H 1160.99 -3.99414 -4.30978 0
M  V30 12532 H 1162.52 -3.42957 -5.05186 0
M  V30 12533 H 1163.93 -4.75294 -3.20575 0
M  V30 12534 H 1162.33 -5.36008 -2.69844 0
M  V30 12535 H 1163.4 -4.61133 -1.49949 0
M  V30 12536 N 1164.74 0.6258 -1.44643 0
M  V30 12537 C 1165.65 1.76611 -1.5442 0
M  V30 12538 C 1166.67 1.68614 -0.429576 0
M  V30 12539 O 1167.84 1.89296 -0.687686 0
M  V30 12540 C 1164.91 3.13015 -1.49071 0
M  V30 12541 C 1163.97 3.32604 -2.71428 0
M  V30 12542 C 1163.2 4.62501 -2.66325 0
M  V30 12543 O 1163.43 5.43651 -1.72626 0
M  V30 12544 O 1162.36 4.84408 -3.57258 0
M  V30 12545 H 1166.19 1.71315 -2.50769 0
M  V30 12546 H 1163.77 0.787677 -1.26949 0
M  V30 12547 H 1165.65 3.94318 -1.48631 0
M  V30 12548 H 1164.33 3.18842 -0.558686 0
M  V30 12549 H 1163.24 2.50959 -2.77435 0
M  V30 12550 H 1164.57 3.31642 -3.63695 0
M  V30 12551 N 1166.22 1.31629 0.866686 0
M  V30 12552 C 1167.64 1.10358 1.15296 0
M  V30 12553 C 1167.84 -0.123807 2.01119 0
M  V30 12554 O 1166.89 -0.81219 2.39081 0
M  V30 12555 C 1168.21 2.37684 1.84193 0
M  V30 12556 C 1169.75 2.43326 1.9688 0
M  V30 12557 C 1170.23 3.70541 2.69191 0
M  V30 12558 N 1171.72 3.71454 2.76724 0
M  V30 12559 C 1172.45 4.66585 3.33295 0
M  V30 12560 N 1171.95 5.72075 3.90771 0
M  V30 12561 N 1173.74 4.541 3.31284 0
M  V30 12562 H 1165.89 2.10343 0.29487 0
M  V30 12563 H 1168.16 0.928096 0.193239 0
M  V30 12564 H 1167.86 3.27352 1.28582 0
M  V30 12565 H 1167.74 2.47731 2.84445 0
M  V30 12566 H 1170.12 1.54124 2.51654 0
M  V30 12567 H 1170.21 2.3724 0.956596 0
M  V30 12568 H 1169.85 4.60111 2.15083 0
M  V30 12569 H 1169.78 3.73894 3.70825 0
M  V30 12570 H 1172.27 2.952 2.35936 0
M  V30 12571 H 1172.58 6.40738 4.32058 0
M  V30 12572 H 1170.93 5.75844 3.89138 0
M  V30 12573 H 1174.12 3.70861 2.85622 0
M  V30 12574 H 1174.29 5.28416 3.75074 0
M  V30 12575 N 1167.7 -1.08142 1.14644 0
M  V30 12576 C 1168.95 -1.80849 0.917685 0
M  V30 12577 C 1169.28 -1.86123 -0.554249 0
M  V30 12578 O 1168.55 -1.33907 -1.41065 0
M  V30 12579 C 1168.84 -3.26325 1.52264 0
M  V30 12580 C 1168.69 -3.29244 3.06461 0
M  V30 12581 C 1170.01 -4.23375 1.20175 0
M  V30 12582 H 1167.13 -0.656559 0.334812 0
M  V30 12583 H 1169.77 -1.26595 1.41682 0
M  V30 12584 H 1167.92 -3.72656 1.09817 0
M  V30 12585 H 1169.59 -2.91216 3.57758 0
M  V30 12586 H 1167.83 -2.68438 3.40769 0
M  V30 12587 H 1168.51 -4.31785 3.43897 0
M  V30 12588 H 1170.98 -3.85394 1.56877 0
M  V30 12589 H 1169.86 -5.23472 1.65132 0
M  V30 12590 H 1170.12 -4.41944 0.117474 0
M  V30 12591 N 1169.18 -0.941978 -1.26351 0
M  V30 12592 C 1170.42 -0.590845 -1.94002 0
M  V30 12593 C 1170.76 0.868004 -1.73722 0
M  V30 12594 O 1170.03 1.62111 -1.07472 0
M  V30 12595 C 1170.31 -0.934901 -3.47752 0
M  V30 12596 C 1170.17 -2.44855 -3.77314 0
M  V30 12597 C 1171.49 -0.450888 -4.37784 0
M  V30 12598 H 1168.61 -0.21613 -0.704597 0
M  V30 12599 H 1171.25 -1.17634 -1.49205 0
M  V30 12600 H 1169.4 -0.436648 -3.86038 0
M  V30 12601 H 1171.07 -3.01959 -3.48738 0
M  V30 12602 H 1169.31 -2.89169 -3.23363 0
M  V30 12603 H 1169.98 -2.6398 -4.84787 0
M  V30 12604 H 1172.46 -0.878107 -4.06729 0
M  V30 12605 H 1171.34 -0.720439 -5.44152 0
M  V30 12606 H 1171.6 0.649162 -4.37308 0
M  V30 12607 N 1170.66 1.40747 -0.709091 0
M  V30 12608 C 1171.93 1.94831 -0.173246 0
M  V30 12609 C 1172.31 1.64766 1.31967 0
M  V30 12610 O 1171.66 0.961853 2.07269 0
M  V30 12611 C 1171.87 3.45697 -0.479013 0
M  V30 12612 C 1173.22 4.22576 -0.414122 0
M  V30 12613 O 1174.24 3.53778 -0.414699 0
M  V30 12614 O 1173.1 5.45135 -0.385986 0
M  V30 12615 H 1170.2 0.826683 -0.0228947 0
M  V30 12616 H 1172.74 1.50391 -0.786178 0
M  V30 12617 H 1171.51 3.60914 -1.51185 0
M  V30 12618 H 1171.14 3.97261 0.164211 0
M  V30 12619 N 1172.13 0.454803 1.50895 0
M  V30 12620 C 1173.38 -0.105562 2.01824 0
M  V30 12621 C 1173.7 -1.41673 1.33992 0
M  V30 12622 O 1172.97 -1.89929 0.479994 0
M  V30 12623 H 1171.55 -0.0420011 0.745818 0
M  V30 12624 H 1174.21 0.601504 1.85386 0
M  V30 12625 H 1173.31 -0.268872 3.1094 0
M  V30 12626 N 1173.61 -1.56489 0.186789 0
M  V30 12627 C 1175.02 -1.83809 -0.327265 0
M  V30 12628 C 1175.37 -1.10718 -1.61976 0
M  V30 12629 O 1174.5 -0.36525 -2.13295 0
M  V30 12630 C 1175.09 -3.33435 -0.600551 0
M  V30 12631 C 1173.65 -3.61195 -1.059 0
M  V30 12632 C 1172.8 -2.77108 -0.103131 0
M  V30 12633 H 1175.75 -1.53292 0.410747 0
M  V30 12634 H 1175.77 -3.51754 -1.45084 0
M  V30 12635 H 1175.28 -3.86605 0.340315 0
M  V30 12636 H 1173.38 -3.13451 -2.01443 0
M  V30 12637 H 1173.5 -4.69435 -0.957458 0
M  V30 12638 H 1171.86 -2.47448 -0.603449 0
M  V30 12639 H 1172.64 -3.33065 0.832031 0
M  V30 12640 N 1175.09 0.086862 -1.5736 0
M  V30 12641 C 1176.32 0.802167 -1.90717 0
M  V30 12642 C 1176.73 1.71875 -0.781304 0
M  V30 12643 O 1176.09 1.80831 0.246255 0
M  V30 12644 C 1176.14 1.60858 -3.23739 0
M  V30 12645 O 1175.86 0.728851 -4.31995 0
M  V30 12646 C 1177.36 2.42621 -3.71012 0
M  V30 12647 H 1174.58 0.228914 -0.630745 0
M  V30 12648 H 1177.13 0.061634 -2.04407 0
M  V30 12649 H 1175.28 2.30153 -3.11622 0
M  V30 12650 H 1175.7 1.2882 -5.08435 0
M  V30 12651 H 1177.17 2.94683 -4.66761 0
M  V30 12652 H 1177.65 3.21462 -2.99264 0
M  V30 12653 H 1178.25 1.78509 -3.86024 0
M  V30 12654 N 1176.57 1.53483 0.357892 0
M  V30 12655 C 1177.98 1.61641 0.934289 0
M  V30 12656 C 1178.33 0.488655 1.90017 0
M  V30 12657 O 1177.45 -0.38378 2.1297 0
M  V30 12658 C 1178.05 2.92987 1.7013 0
M  V30 12659 C 1176.61 3.03456 2.22692 0
M  V30 12660 C 1175.76 2.56992 1.04165 0
M  V30 12661 H 1178.71 1.58112 0.136452 0
M  V30 12662 H 1178.73 2.81221 2.5631 0
M  V30 12663 H 1178.24 3.75047 0.998056 0
M  V30 12664 H 1176.34 2.25999 2.96235 0
M  V30 12665 H 1176.45 4.08673 2.50046 0
M  V30 12666 H 1174.82 2.12052 1.41088 0
M  V30 12667 H 1175.6 3.41477 0.353272 0
M  V30 12668 N 1178.05 -0.61812 1.44973 0
M  V30 12669 C 1179 -1.72346 1.49268 0
M  V30 12670 C 1179.98 -1.56889 0.357042 0
M  V30 12671 O 1181.17 -1.66404 0.603212 0
M  V30 12672 C 1178.3 -3.11073 1.4522 0
M  V30 12673 C 1177.39 -3.31953 2.63947 0
M  V30 12674 N 1177.78 -3.23141 3.89119 0
M  V30 12675 C 1176.08 -3.62791 2.59419 0
M  V30 12676 C 1176.78 -3.45066 4.683 0
M  V30 12677 N 1175.75 -3.68558 3.99582 0
M  V30 12678 H 1179.55 -1.6401 2.43881 0
M  V30 12679 H 1177.07 -0.821029 1.40117 0
M  V30 12680 H 1179.07 -3.90356 1.46381 0
M  V30 12681 H 1177.73 -3.20565 0.516555 0
M  V30 12682 H 1178.74 -3.01773 4.20896 0
M  V30 12683 H 1175.41 -3.79185 1.74713 0
M  V30 12684 H 1176.8 -3.43735 5.77318 0
M  V30 12685 N 1179.52 -1.32087 -0.859693 0
M  V30 12686 C 1180.46 -1.16426 -1.97428 0
M  V30 12687 C 1181.47 -0.100582 -1.62489 0
M  V30 12688 O 1182.66 -0.349063 -1.75054 0
M  V30 12689 C 1179.76 -0.758822 -3.30295 0
M  V30 12690 C 1178.93 -1.90971 -3.93508 0
M  V30 12691 C 1177.99 -1.48865 -5.04704 0
M  V30 12692 O 1177.02 -2.1999 -5.2497 0
M  V30 12693 N 1178.22 -0.38182 -5.79243 0
M  V30 12694 H 1180.98 -2.12433 -2.11406 0
M  V30 12695 H 1178.54 -1.24558 -1.03426 0
M  V30 12696 H 1180.54 -0.459643 -4.02081 0
M  V30 12697 H 1179.11 0.109944 -3.12407 0
M  V30 12698 H 1178.33 -2.37566 -3.14573 0
M  V30 12699 H 1179.61 -2.68032 -4.32477 0
M  V30 12700 H 1179.01 0.210268 -5.65309 0
M  V30 12701 H 1177.57 -0.142224 -6.51645 0
M  V30 12702 N 1181 1.07532 -1.15215 0
M  V30 12703 C 1182.23 1.83817 -0.949687 0
M  V30 12704 C 1182.64 1.82004 0.501991 0
M  V30 12705 O 1182 1.23014 1.34811 0
M  V30 12706 C 1182.05 3.30978 -1.45382 0
M  V30 12707 O 1181.77 3.32844 -2.84863 0
M  V30 12708 C 1183.27 4.24037 -1.29257 0
M  V30 12709 H 1180.49 0.58 -0.337404 0
M  V30 12710 H 1183.04 1.35752 -1.52944 0
M  V30 12711 H 1181.19 3.76399 -0.916638 0
M  V30 12712 H 1181.61 4.24773 -3.07682 0
M  V30 12713 H 1183.08 5.25371 -1.69379 0
M  V30 12714 H 1183.56 4.38563 -0.236519 0
M  V30 12715 H 1184.16 3.8445 -1.81874 0
M  V30 12716 N 1182.48 0.948665 1.2585 0
M  V30 12717 C 1183.73 0.601125 1.93686 0
M  V30 12718 C 1184.06 -0.858779 1.7418 0
M  V30 12719 O 1183.33 -1.61539 1.0833 0
M  V30 12720 C 1183.62 0.95333 3.47252 0
M  V30 12721 C 1183.47 2.46853 3.7601 0
M  V30 12722 C 1184.79 0.474098 4.37539 0
M  V30 12723 H 1181.91 0.219864 0.703441 0
M  V30 12724 H 1184.55 1.18424 1.48579 0
M  V30 12725 H 1182.7 0.457114 3.85801 0
M  V30 12726 H 1184.37 3.03804 3.47132 0
M  V30 12727 H 1182.62 2.9088 3.21825 0
M  V30 12728 H 1183.29 2.66547 4.83381 0
M  V30 12729 H 1185.76 0.899664 4.06258 0
M  V30 12730 H 1184.64 0.749287 5.43762 0
M  V30 12731 H 1184.9 -0.625961 4.37646 0
M  V30 12732 N 1183.96 -1.40369 0.716545 0
M  V30 12733 C 1185.37 -1.54757 0.390202 0
M  V30 12734 C 1185.57 -1.68767 -1.10091 0
M  V30 12735 O 1184.63 -1.67779 -1.88697 0
M  V30 12736 C 1185.94 -2.77546 1.15709 0
M  V30 12737 C 1187.49 -2.91364 1.14349 0
M  V30 12738 C 1187.97 -4.17068 1.89256 0
M  V30 12739 N 1189.46 -4.2407 1.8633 0
M  V30 12740 C 1190.19 -5.20243 2.41112 0
M  V30 12741 N 1189.69 -6.22318 3.04454 0
M  V30 12742 N 1191.48 -5.12328 2.31249 0
M  V30 12743 H 1183.63 -1.29521 1.68339 0
M  V30 12744 H 1185.9 -0.626382 0.711582 0
M  V30 12745 H 1185.6 -2.73474 2.21144 0
M  V30 12746 H 1185.48 -3.69682 0.749347 0
M  V30 12747 H 1187.86 -2.94939 0.0973383 0
M  V30 12748 H 1187.94 -2.00344 1.59047 0
M  V30 12749 H 1187.59 -4.14255 2.93863 0
M  V30 12750 H 1187.52 -5.07099 1.41978 0
M  V30 12751 H 1190.01 -3.50944 1.40168 0
M  V30 12752 H 1190.32 -6.92129 3.43769 0
M  V30 12753 H 1188.67 -6.22759 3.08538 0
M  V30 12754 H 1191.86 -4.31514 1.8142 0
M  V30 12755 H 1192.03 -5.87107 2.74243 0
M  V30 12756 N 1185.44 -0.462799 -1.50652 0
M  V30 12757 C 1186.37 0.325724 -2.31217 0
M  V30 12758 C 1187.35 0.997942 -1.3775 0
M  V30 12759 O 1188.53 0.996707 -1.66671 0
M  V30 12760 C 1185.66 1.41283 -3.17264 0
M  V30 12761 C 1184.62 0.862687 -4.19216 0
M  V30 12762 C 1183.94 2.04746 -4.93946 0
M  V30 12763 C 1185.24 -0.120365 -5.22161 0
M  V30 12764 H 1186.94 -0.346666 -2.97386 0
M  V30 12765 H 1184.48 -0.168163 -1.43015 0
M  V30 12766 H 1186.44 1.97188 -3.72418 0
M  V30 12767 H 1185.16 2.11387 -2.48964 0
M  V30 12768 H 1183.82 0.325671 -3.65151 0
M  V30 12769 H 1183.47 2.73529 -4.22127 0
M  V30 12770 H 1183.17 1.68562 -5.62904 0
M  V30 12771 H 1184.69 2.61157 -5.51932 0
M  V30 12772 H 1186.1 0.349226 -5.72235 0
M  V30 12773 H 1184.5 -0.396061 -5.98792 0
M  V30 12774 H 1185.57 -1.04895 -4.73418 0
M  V30 12775 N 1186.91 1.56388 -0.195085 0
M  V30 12776 C 1187.82 2.22698 0.737743 0
M  V30 12777 C 1188.84 1.22605 1.23466 0
M  V30 12778 O 1190.02 1.55342 1.28183 0
M  V30 12779 C 1187.08 2.87333 1.94011 0
M  V30 12780 C 1186.14 4.02696 1.48776 0
M  V30 12781 C 1185.38 4.64239 2.63282 0
M  V30 12782 O 1185.6 4.24706 3.80763 0
M  V30 12783 O 1184.53 5.53705 2.35996 0
M  V30 12784 H 1188.36 3.03021 0.203013 0
M  V30 12785 H 1185.94 1.49361 0.0342044 0
M  V30 12786 H 1187.83 3.28226 2.64284 0
M  V30 12787 H 1186.5 2.0999 2.46345 0
M  V30 12788 H 1185.41 3.66426 0.753839 0
M  V30 12789 H 1186.74 4.81703 1.01109 0
M  V30 12790 N 1188.39 -0.0785156 1.57404 0
M  V30 12791 C 1189.36 -1.07835 2.02248 0
M  V30 12792 C 1190.36 -1.31987 0.918475 0
M  V30 12793 O 1191.55 -1.27821 1.18353 0
M  V30 12794 C 1188.68 -2.42361 2.39737 0
M  V30 12795 H 1189.87 -0.691995 2.91807 0
M  V30 12796 H 1187.42 -0.32405 1.52904 0
M  V30 12797 H 1188.16 -2.85841 1.53183 0
M  V30 12798 H 1187.94 -2.26174 3.20293 0
M  V30 12799 H 1189.43 -3.14241 2.75031 0
M  V30 12800 N 1189.87 -1.5367 -0.349747 0
M  V30 12801 C 1190.8 -1.84208 -1.43492 0
M  V30 12802 C 1191.78 -0.696725 -1.55177 0
M  V30 12803 O 1192.97 -0.948061 -1.69486 0
M  V30 12804 C 1190.1 -2.04613 -2.80625 0
M  V30 12805 C 1189.05 -3.20419 -2.83753 0
M  V30 12806 C 1188.38 -3.26147 -4.23713 0
M  V30 12807 C 1189.68 -4.58666 -2.49846 0
M  V30 12808 H 1191.37 -2.75087 -1.18185 0
M  V30 12809 H 1188.92 -1.32363 -0.567101 0
M  V30 12810 H 1190.87 -2.2456 -3.56582 0
M  V30 12811 H 1189.59 -1.10459 -3.07354 0
M  V30 12812 H 1188.25 -3.00318 -2.10249 0
M  V30 12813 H 1187.9 -2.29599 -4.47541 0
M  V30 12814 H 1187.6 -4.03963 -4.26717 0
M  V30 12815 H 1189.12 -3.48296 -5.0152 0
M  V30 12816 H 1190.54 -4.78668 -3.15516 0
M  V30 12817 H 1188.94 -5.3884 -2.64144 0
M  V30 12818 H 1190.01 -4.62697 -1.4505 0
M  V30 12819 N 1191.35 0.610423 -1.45298 0
M  V30 12820 C 1192.63 1.36966 -1.39641 0
M  V30 12821 C 1193.01 2.10998 -0.0655757 0
M  V30 12822 O 1192.35 2.07705 0.952407 0
M  V30 12823 C 1192.56 2.31885 -2.60826 0
M  V30 12824 C 1193.91 2.9458 -3.05791 0
M  V30 12825 O 1194.94 2.42207 -2.61179 0
M  V30 12826 O 1193.79 3.89639 -3.83202 0
M  V30 12827 H 1190.89 0.61401 -0.554004 0
M  V30 12828 H 1193.43 0.633748 -1.57422 0
M  V30 12829 H 1192.21 1.76421 -3.49272 0
M  V30 12830 H 1191.83 3.12861 -2.45364 0
M  V30 12831 N 1192.83 1.32541 0.852676 0
M  V30 12832 C 1193.74 1.23646 1.99371 0
M  V30 12833 C 1194.75 0.149673 1.73355 0
M  V30 12834 O 1195.93 0.370716 1.97959 0
M  V30 12835 C 1192.99 0.961873 3.3309 0
M  V30 12836 C 1192.05 2.1373 3.72315 0
M  V30 12837 C 1191.29 1.87572 4.99652 0
M  V30 12838 O 1191.51 0.819247 5.64486 0
M  V30 12839 O 1190.44 2.73732 5.36054 0
M  V30 12840 H 1194.27 2.19573 2.09813 0
M  V30 12841 H 1191.86 1.12451 0.983627 0
M  V30 12842 H 1193.74 0.825316 4.13239 0
M  V30 12843 H 1192.41 0.0327745 3.23683 0
M  V30 12844 H 1191.32 2.32933 2.92733 0
M  V30 12845 H 1192.65 3.04925 3.86369 0
M  V30 12846 N 1194.3 -1.0692 1.15784 0
M  V30 12847 C 1195.53 -1.83849 0.959903 0
M  V30 12848 C 1195.95 -1.8169 -0.486873 0
M  V30 12849 O 1195.31 -1.21305 -1.34739 0
M  V30 12850 C 1195.36 -3.28642 1.48414 0
M  V30 12851 O 1194.46 -4.0665 0.686249 0
M  V30 12852 H 1193.81 -0.569115 0.342059 0
M  V30 12853 H 1196.34 -1.34851 1.53871 0
M  V30 12854 H 1196.35 -3.7947 1.49888 0
M  V30 12855 H 1195.02 -3.29529 2.53739 0
M  V30 12856 H 1193.6 -3.65453 0.741501 0
M  V30 12857 N 1195.78 -0.955326 -1.25345 0
M  V30 12858 C 1197.03 -0.609278 -1.92697 0
M  V30 12859 C 1197.35 0.856535 -1.75181 0
M  V30 12860 O 1196.62 1.61013 -1.11587 0
M  V30 12861 H 1195.2 -0.22235 -0.713141 0
M  V30 12862 H 1197.86 -1.21372 -1.52496 0
M  V30 12863 H 1196.96 -0.839198 -3.00606 0
M  V30 12864 N 1197.26 1.39987 -0.723979 0
M  V30 12865 C 1198.49 2.0556 -0.275634 0
M  V30 12866 C 1198.91 1.54207 1.07711 0
M  V30 12867 O 1198.27 0.681041 1.68022 0
M  V30 12868 C 1198.32 3.59551 -0.27485 0
M  V30 12869 O 1197.42 4.05685 0.741182 0
M  V30 12870 H 1196.76 0.651634 -0.12755 0
M  V30 12871 H 1199.29 1.79229 -0.986814 0
M  V30 12872 H 1199.3 4.07837 -0.115425 0
M  V30 12873 H 1197.98 3.96291 -1.26198 0
M  V30 12874 H 1196.55 3.6884 0.548795 0
M  V30 12875 N 1198.74 0.470782 1.50404 0
M  V30 12876 C 1199.97 -0.0818945 2.06438 0
M  V30 12877 C 1200.38 -1.34085 1.33483 0
M  V30 12878 O 1199.72 -1.79346 0.397565 0
M  V30 12879 C 1199.78 -0.436252 3.56843 0
M  V30 12880 C 1199.45 0.720641 4.51282 0
M  V30 12881 C 1200.44 1.60258 4.94584 0
M  V30 12882 C 1198.13 0.910879 4.93972 0
M  V30 12883 C 1200.12 2.65916 5.79282 0
M  V30 12884 C 1197.81 1.97069 5.78452 0
M  V30 12885 C 1198.81 2.84319 6.21008 0
M  V30 12886 O 1198.5 3.88476 7.03805 0
M  V30 12887 H 1198.23 0.00361688 0.67599 0
M  V30 12888 H 1200.78 0.658488 1.94559 0
M  V30 12889 H 1199.01 -1.22982 3.66623 0
M  V30 12890 H 1200.7 -0.923976 3.95244 0
M  V30 12891 H 1201.47 1.46729 4.62272 0
M  V30 12892 H 1197.35 0.241225 4.60368 0
M  V30 12893 H 1200.89 3.3405 6.12419 0
M  V30 12894 H 1196.79 2.10605 6.10177 0
M  V30 12895 H 1197.55 3.8546 7.22054 0
M  V30 12896 N 1200.22 -1.56282 0.203376 0
M  V30 12897 C 1201.46 -1.98864 -0.427176 0
M  V30 12898 C 1201.82 -1.08828 -1.58664 0
M  V30 12899 O 1201.11 -0.134399 -1.91128 0
M  V30 12900 C 1201.31 -3.45148 -0.927759 0
M  V30 12901 C 1201.13 -4.49333 0.18166 0
M  V30 12902 C 1199.9 -5.01204 0.642046 0
M  V30 12903 C 1202.1 -5.04612 0.993548 0
M  V30 12904 N 1200.08 -5.89066 1.72842 0
M  V30 12905 C 1201.46 -5.89223 1.92915 0
M  V30 12906 C 1203.51 -4.87023 1.03503 0
M  V30 12907 C 1202.21 -6.58125 2.90282 0
M  V30 12908 C 1204.24 -5.56671 1.99679 0
M  V30 12909 C 1203.6 -6.41035 2.91982 0
M  V30 12910 H 1199.7 -0.772186 -0.123501 0
M  V30 12911 H 1202.28 -1.92201 0.310974 0
M  V30 12912 H 1200.46 -3.52295 -1.63533 0
M  V30 12913 H 1202.19 -3.7468 -1.52961 0
M  V30 12914 H 1198.94 -4.73022 0.233895 0
M  V30 12915 H 1199.37 -6.377 2.27306 0
M  V30 12916 H 1204.01 -4.21468 0.335379 0
M  V30 12917 H 1201.73 -7.22874 3.61219 0
M  V30 12918 H 1205.31 -5.45034 2.0354 0
M  V30 12919 H 1204.19 -6.93979 3.65189 0
M  V30 12920 N 1201.7 0.070167 -1.57444 0
M  V30 12921 C 1202.94 0.770153 -1.87607 0
M  V30 12922 C 1203.27 1.77143 -0.795875 0
M  V30 12923 O 1202.55 1.93533 0.193674 0
M  V30 12924 C 1202.83 1.47668 -3.2843 0
M  V30 12925 C 1202.69 0.491712 -4.47104 0
M  V30 12926 C 1204 2.42118 -3.67514 0
M  V30 12927 H 1201.12 0.278519 -0.682346 0
M  V30 12928 H 1203.77 0.0333184 -1.89971 0
M  V30 12929 H 1201.92 2.10476 -3.26546 0
M  V30 12930 H 1203.59 -0.131283 -4.61113 0
M  V30 12931 H 1201.83 -0.192817 -4.33371 0
M  V30 12932 H 1202.5 1.02372 -5.42424 0
M  V30 12933 H 1204.98 1.89387 -3.70502 0
M  V30 12934 H 1203.85 2.88556 -4.66933 0
M  V30 12935 H 1204.11 3.26995 -2.97534 0
M  V30 12936 N 1203.17 1.53854 0.341593 0
M  V30 12937 C 1204.4 1.75447 1.10604 0
M  V30 12938 C 1204.82 0.493225 1.81518 0
M  V30 12939 O 1204.18 -0.554253 1.7262 0
M  V30 12940 C 1204.23 2.93593 2.09369 0
M  V30 12941 O 1203.33 2.63878 3.16926 0
M  V30 12942 H 1202.67 0.581923 0.319783 0
M  V30 12943 H 1205.2 2.00822 0.391388 0
M  V30 12944 H 1205.21 3.20437 2.52556 0
M  V30 12945 H 1203.89 3.85067 1.57151 0
M  V30 12946 H 1202.47 2.47929 2.78542 0
M  V30 12947 N 1204.65 -0.602709 1.4562 0
M  V30 12948 C 1205.93 -1.36224 1.40366 0
M  V30 12949 C 1206.31 -2.1096 0.0767645 0
M  V30 12950 O 1205.66 -2.08207 -0.941378 0
M  V30 12951 C 1205.87 -2.30499 2.62052 0
M  V30 12952 C 1207.21 -2.92954 3.07348 0
M  V30 12953 O 1208.24 -2.40818 2.62459 0
M  V30 12954 O 1207.1 -3.87601 3.85263 0
M  V30 12955 H 1204.19 -0.611064 0.557253 0
M  V30 12956 H 1206.74 -0.625391 1.57756 0
M  V30 12957 H 1205.51 -1.74566 3.50203 0
M  V30 12958 H 1205.13 -3.11556 2.4702 0
M  V30 12959 N 1206.13 -1.32992 -0.845635 0
M  V30 12960 C 1207.08 -1.22682 -1.95494 0
M  V30 12961 C 1208.05 -0.106942 -1.65755 0
M  V30 12962 O 1209.23 -0.28405 -1.88674 0
M  V30 12963 C 1206.37 -0.965068 -3.31331 0
M  V30 12964 C 1205.48 -2.17058 -3.7351 0
M  V30 12965 C 1204.62 -1.84355 -4.98183 0
M  V30 12966 C 1203.66 -3.01176 -5.32878 0
M  V30 12967 N 1202.8 -2.68506 -6.48729 0
M  V30 12968 H 1207.64 -2.17562 -2.03644 0
M  V30 12969 H 1205.17 -1.08194 -0.996613 0
M  V30 12970 H 1207.13 -0.793771 -4.09579 0
M  V30 12971 H 1205.76 -0.0530285 -3.22756 0
M  V30 12972 H 1204.81 -2.45185 -2.90841 0
M  V30 12973 H 1206.12 -3.04413 -3.95138 0
M  V30 12974 H 1205.28 -1.6383 -5.84162 0
M  V30 12975 H 1204.02 -0.942264 -4.78511 0
M  V30 12976 H 1203.02 -3.22323 -4.45408 0
M  V30 12977 H 1204.25 -3.9205 -5.54503 0
M  V30 12978 H 1202.19 -1.80929 -6.30556 0
M  V30 12979 H 1202.11 -3.49392 -6.70419 0
M  V30 12980 H 1203.38 -2.51432 -7.37836 0
M  V30 12981 N 1207.61 1.06304 -1.1635 0
M  V30 12982 C 1209.02 1.31227 -0.90838 0
M  V30 12983 C 1209.22 1.96665 0.438779 0
M  V30 12984 O 1208.28 2.2332 1.17833 0
M  V30 12985 C 1209.59 2.19303 -2.05734 0
M  V30 12986 C 1211.14 2.3272 -2.09309 0
M  V30 12987 C 1211.62 3.24151 -3.23559 0
M  V30 12988 N 1213.11 3.31734 -3.23275 0
M  V30 12989 C 1213.84 4.02572 -4.08318 0
M  V30 12990 N 1213.34 4.75933 -5.03448 0
M  V30 12991 N 1215.13 3.98621 -3.96305 0
M  V30 12992 H 1207.28 0.622228 -2.03081 0
M  V30 12993 H 1209.54 0.336892 -0.886119 0
M  V30 12994 H 1209.25 1.78497 -3.03037 0
M  V30 12995 H 1209.12 3.19888 -1.99879 0
M  V30 12996 H 1211.51 2.72774 -1.12599 0
M  V30 12997 H 1211.59 1.31804 -2.19229 0
M  V30 12998 H 1211.24 2.84813 -4.20528 0
M  V30 12999 H 1211.17 4.25046 -3.10875 0
M  V30 13000 H 1213.66 2.79453 -2.5439 0
M  V30 13001 H 1213.97 5.27512 -5.64758 0
M  V30 13002 H 1212.32 4.74913 -5.07427 0
M  V30 13003 H 1215.51 3.40427 -3.21289 0
M  V30 13004 H 1215.68 4.5356 -4.62804 0
M  V30 13005 N 1209.09 0.96196 1.24836 0
M  V30 13006 C 1210.02 0.506241 2.27946 0
M  V30 13007 C 1211 -0.451183 1.64007 0
M  V30 13008 O 1212.18 -0.348552 1.91046 0
M  V30 13009 C 1209.31 -0.209846 3.46665 0
M  V30 13010 C 1208.27 0.663035 4.22833 0
M  V30 13011 C 1207.59 -0.184216 5.34383 0
M  V30 13012 C 1208.89 1.94479 4.84742 0
M  V30 13013 H 1210.59 1.36805 2.66317 0
M  V30 13014 H 1208.13 0.65926 1.28023 0
M  V30 13015 H 1210.08 -0.539838 4.17928 0
M  V30 13016 H 1208.81 -1.10596 3.07305 0
M  V30 13017 H 1207.47 0.976216 3.53363 0
M  V30 13018 H 1207.12 -1.08031 4.91262 0
M  V30 13019 H 1206.82 0.39657 5.8626 0
M  V30 13020 H 1208.34 -0.509009 6.08475 0
M  V30 13021 H 1209.75 1.68074 5.48109 0
M  V30 13022 H 1208.15 2.47183 5.46828 0
M  V30 13023 H 1209.22 2.64332 4.06517 0
M  V30 13024 N 1210.56 -1.39601 0.731392 0
M  V30 13025 C 1211.97 -1.83424 0.348194 0
M  V30 13026 C 1212.33 -1.61106 -1.11979 0
M  V30 13027 O 1211.45 -1.1003 -1.86339 0
M  V30 13028 C 1212.05 -3.32982 0.6252 0
M  V30 13029 C 1210.6 -3.75238 0.295536 0
M  V30 13030 C 1209.75 -2.62642 0.88964 0
M  V30 13031 H 1212.7 -1.28644 0.929318 0
M  V30 13032 H 1212.72 -3.80357 -0.104254 0
M  V30 13033 H 1212.24 -3.49193 1.69368 0
M  V30 13034 H 1210.34 -3.64615 -0.767254 0
M  V30 13035 H 1210.45 -4.72781 0.775576 0
M  V30 13036 H 1208.81 -2.52726 0.316529 0
M  V30 13037 H 1209.6 -2.81661 1.96271 0
M  V30 13038 N 1212.04 -0.478751 -1.50152 0
M  V30 13039 C 1213.45 -0.0254907 -1.86683 0
M  V30 13040 C 1213.8 1.38171 -1.39295 0
M  V30 13041 O 1212.93 2.0257 -0.761207 0
M  V30 13042 C 1213.52 -0.0394819 -3.38777 0
M  V30 13043 C 1212.08 0.35834 -3.7469 0
M  V30 13044 C 1211.23 -0.421667 -2.74075 0
M  V30 13045 H 1214.18 -0.692653 -1.42787 0
M  V30 13046 H 1214.2 0.760957 -3.72813 0
M  V30 13047 H 1213.71 -1.06378 -3.73236 0
M  V30 13048 H 1211.82 1.38671 -3.45834 0
M  V30 13049 H 1211.93 0.0543589 -4.79069 0
M  V30 13050 H 1210.29 0.125634 -2.5439 0
M  V30 13051 H 1211.08 -1.44562 -3.11379 0
M  V30 13052 N 1213.52 1.56172 -0.211661 0
M  V30 13053 C 1214.76 1.9994 0.424672 0
M  V30 13054 C 1215.12 1.09598 1.57646 0
M  V30 13055 O 1216.33 1.4267 2.27813 0
M  V30 13056 C 1214.6 3.46961 0.857497 0
M  V30 13057 S 1216.16 4.12752 1.48933 0
M  V30 13058 H 1212.97 0.698031 0.135179 0
M  V30 13059 H 1215.58 1.92886 -0.318625 0
M  V30 13060 H 1214.28 4.10399 0.009398 0
M  V30 13061 H 1213.81 3.57867 1.63385 0
M  V30 13062 H 1215.83 4.11125 2.77833 0
M  V30 13063 N 1215 -0.0618163 1.57479 0
M  V30 13064 C 1216.22 -0.775513 1.92355 0
M  V30 13065 C 1216.65 -1.69816 0.808949 0
M  V30 13066 O 1216.01 -1.79736 -0.23761 0
M  V30 13067 C 1216.05 -1.5367 3.26218 0
M  V30 13068 O 1215.16 -2.64802 3.16155 0
M  V30 13069 H 1214.5 -0.210909 0.629614 0
M  V30 13070 H 1217.03 -0.0270752 2.04582 0
M  V30 13071 H 1217.04 -1.91379 3.6033 0
M  V30 13072 H 1215.71 -0.859798 4.06916 0
M  V30 13073 H 1214.29 -2.29876 2.93618 0
M  V30 13074 N 1216.48 -1.54033 -0.333429 0
M  V30 13075 C 1217.41 -1.85719 -1.4153 0
M  V30 13076 C 1218.39 -0.713144 -1.54429 0
M  V30 13077 O 1219.57 -0.965984 -1.68471 0
M  V30 13078 C 1216.7 -2.07578 -2.78439 0
M  V30 13079 C 1215.66 -3.23411 -2.80338 0
M  V30 13080 C 1214.98 -3.30622 -4.2023 0
M  V30 13081 C 1216.28 -4.6129 -2.44968 0
M  V30 13082 H 1217.98 -2.76325 -1.15261 0
M  V30 13083 H 1215.52 -1.32957 -0.55303 0
M  V30 13084 H 1217.48 -2.28329 -3.5418 0
M  V30 13085 H 1216.2 -1.13713 -3.06165 0
M  V30 13086 H 1214.86 -3.02531 -2.07052 0
M  V30 13087 H 1214.51 -2.34333 -4.45081 0
M  V30 13088 H 1214.21 -4.08466 -4.22409 0
M  V30 13089 H 1215.73 -3.53596 -4.97798 0
M  V30 13090 H 1217.14 -4.81987 -3.10421 0
M  V30 13091 H 1215.54 -5.41611 -2.58414 0
M  V30 13092 H 1216.61 -4.6421 -1.40134 0
M  V30 13093 N 1217.95 0.594978 -1.45938 0
M  V30 13094 C 1219.18 1.38482 -1.54394 0
M  V30 13095 C 1219.6 1.87222 -0.181563 0
M  V30 13096 O 1218.96 1.60869 0.836119 0
M  V30 13097 C 1219.01 2.55676 -2.54287 0
M  V30 13098 O 1218.11 3.5672 -2.06941 0
M  V30 13099 H 1217.46 0.412918 -0.519995 0
M  V30 13100 H 1219.99 0.722899 -1.91404 0
M  V30 13101 H 1220 3.02756 -2.73501 0
M  V30 13102 H 1218.67 2.19552 -3.53228 0
M  V30 13103 H 1217.25 3.16204 -1.97661 0
M  V30 13104 N 1219.43 1.33438 0.838571 0
M  V30 13105 C 1220.36 1.19552 1.9555 0
M  V30 13106 C 1221.38 0.12642 1.62308 0
M  V30 13107 O 1222.57 0.376868 1.74476 0
M  V30 13108 C 1219.67 0.811273 3.29046 0
M  V30 13109 C 1218.84 1.97207 3.9042 0
M  V30 13110 C 1217.9 1.56875 5.02271 0
M  V30 13111 O 1216.92 2.28314 5.21403 0
M  V30 13112 N 1218.13 0.473924 5.78562 0
M  V30 13113 H 1220.89 2.15769 2.07999 0
M  V30 13114 H 1218.45 1.26187 1.01432 0
M  V30 13115 H 1220.44 0.523553 4.01299 0
M  V30 13116 H 1219.01 -0.0602291 3.12542 0
M  V30 13117 H 1218.23 2.4254 3.10754 0
M  V30 13118 H 1219.52 2.74878 4.28158 0
M  V30 13119 H 1218.92 -0.120306 5.65572 0
M  V30 13120 H 1217.48 0.245877 6.51336 0
M  V30 13121 N 1220.91 -1.05686 1.16912 0
M  V30 13122 C 1221.87 -2.11481 0.883647 0
M  V30 13123 C 1222.87 -1.60321 -0.124034 0
M  V30 13124 O 1224.06 -1.73868 0.107566 0
M  V30 13125 C 1221.2 -3.3937 0.322649 0
M  V30 13126 H 1222.39 -2.38239 1.8216 0
M  V30 13127 H 1219.94 -1.2185 0.978895 0
M  V30 13128 H 1220.68 -3.18266 -0.622695 0
M  V30 13129 H 1220.46 -3.77812 1.04883 0
M  V30 13130 H 1221.95 -4.17362 0.141072 0
M  V30 13131 N 1222.39 -0.968567 -1.24324 0
M  V30 13132 C 1223.32 -0.518323 -2.27674 0
M  V30 13133 C 1224.3 0.442479 -1.64244 0
M  V30 13134 O 1225.48 0.338416 -1.91229 0
M  V30 13135 C 1222.61 0.191459 -3.46772 0
M  V30 13136 C 1221.57 -0.685449 -4.22476 0
M  V30 13137 C 1220.89 0.155873 -5.34473 0
M  V30 13138 C 1222.19 -1.97047 -4.83704 0
M  V30 13139 H 1223.89 -1.38215 -2.65588 0
M  V30 13140 H 1221.43 -0.66604 -1.27671 0
M  V30 13141 H 1223.39 0.517667 -4.18208 0
M  V30 13142 H 1222.11 1.08965 -3.07887 0
M  V30 13143 H 1220.77 -0.994942 -3.52841 0
M  V30 13144 H 1220.42 1.05424 -4.91828 0
M  V30 13145 H 1220.12 -0.427655 -5.86042 0
M  V30 13146 H 1221.64 0.476733 -6.08736 0
M  V30 13147 H 1223.06 -1.70979 -5.4721 0
M  V30 13148 H 1221.45 -2.50079 -5.45509 0
M  V30 13149 H 1222.52 -2.66484 -4.0511 0
M  V30 13150 N 1223.87 1.39211 -0.738786 0
M  V30 13151 C 1225.09 2.04732 -0.298751 0
M  V30 13152 C 1225.51 1.55706 1.06776 0
M  V30 13153 O 1224.87 0.723605 1.67542 0
M  V30 13154 C 1224.92 3.60288 -0.29574 0
M  V30 13155 O 1224.64 4.07511 -1.60831 0
M  V30 13156 C 1226.14 4.43011 0.159994 0
M  V30 13157 H 1223.36 0.658296 -0.129952 0
M  V30 13158 H 1225.9 1.78186 -1.0035 0
M  V30 13159 H 1224.06 3.85722 0.360146 0
M  V30 13160 H 1224.47 5.01858 -1.52443 0
M  V30 13161 H 1225.95 5.51889 0.110941 0
M  V30 13162 H 1226.42 4.22325 1.20573 0
M  V30 13163 H 1227.03 4.22734 -0.466467 0
M  V30 13164 N 1225.34 0.486708 1.49896 0
M  V30 13165 C 1226.57 -0.0599944 2.06513 0
M  V30 13166 C 1226.98 -1.32662 1.34898 0
M  V30 13167 O 1226.33 -1.78915 0.416565 0
M  V30 13168 C 1226.39 -0.39838 3.57286 0
M  V30 13169 C 1226.05 0.768465 4.50493 0
M  V30 13170 C 1227.05 1.65495 4.92856 0
M  V30 13171 C 1224.73 0.96322 4.92978 0
M  V30 13172 C 1226.73 2.72046 5.76429 0
M  V30 13173 C 1224.41 2.03193 5.7633 0
M  V30 13174 C 1225.41 2.9089 6.17958 0
M  V30 13175 O 1225.1 3.95919 6.99645 0
M  V30 13176 H 1224.83 0.0107865 0.675914 0
M  V30 13177 H 1227.39 0.679087 1.93849 0
M  V30 13178 H 1225.62 -1.19086 3.67907 0
M  V30 13179 H 1227.31 -0.882003 3.96201 0
M  V30 13180 H 1228.07 1.51624 4.6069 0
M  V30 13181 H 1223.95 0.29004 4.60087 0
M  V30 13182 H 1227.49 3.40526 6.08841 0
M  V30 13183 H 1223.39 2.17064 6.07909 0
M  V30 13184 H 1224.16 3.93097 7.17925 0
M  V30 13185 N 1226.82 -1.56058 0.219941 0
M  V30 13186 C 1228.07 -1.9826 -0.412197 0
M  V30 13187 C 1228.4 -1.10754 -1.59887 0
M  V30 13188 O 1227.65 -0.15212 -1.95108 0
M  V30 13189 C 1227.95 -3.46113 -0.8911 0
M  V30 13190 C 1227.62 -4.50521 0.184877 0
M  V30 13191 C 1226.28 -4.78795 0.480462 0
M  V30 13192 C 1228.63 -5.13147 0.912652 0
M  V30 13193 C 1225.96 -5.66979 1.50837 0
M  V30 13194 C 1228.31 -6.02444 1.92988 0
M  V30 13195 C 1226.98 -6.29063 2.2324 0
M  V30 13196 H 1226.25 -0.725486 -0.150834 0
M  V30 13197 H 1228.89 -1.88771 0.322122 0
M  V30 13198 H 1227.2 -3.52797 -1.70415 0
M  V30 13199 H 1228.9 -3.76137 -1.39003 0
M  V30 13200 H 1225.49 -4.28564 -0.0556594 0
M  V30 13201 H 1229.67 -4.91374 0.697532 0
M  V30 13202 H 1224.93 -5.85868 1.74839 0
M  V30 13203 H 1229.1 -6.50022 2.49889 0
M  V30 13204 H 1226.73 -6.97191 3.03032 0
M  V30 13205 N 1228.3 0.053464 -1.57509 0
M  V30 13206 C 1229.23 1.06151 -2.07977 0
M  V30 13207 C 1230.21 1.3924 -0.977047 0
M  V30 13208 O 1231.4 1.48549 -1.25087 0
M  V30 13209 C 1228.53 2.36969 -2.53895 0
M  V30 13210 C 1227.48 2.18186 -3.6821 0
M  V30 13211 C 1226.81 3.54551 -4.00247 0
M  V30 13212 C 1228.11 1.588 -4.97574 0
M  V30 13213 H 1229.8 0.641483 -2.92447 0
M  V30 13214 H 1227.35 0.307122 -1.40687 0
M  V30 13215 H 1229.3 3.07797 -2.87817 0
M  V30 13216 H 1228.02 2.80986 -1.66476 0
M  V30 13217 H 1226.68 1.49796 -3.34599 0
M  V30 13218 H 1226.33 3.96171 -3.09932 0
M  V30 13219 H 1226.03 3.42816 -4.77232 0
M  V30 13220 H 1227.56 4.2678 -4.36682 0
M  V30 13221 H 1228.97 2.19515 -5.29609 0
M  V30 13222 H 1227.37 1.57711 -5.79006 0
M  V30 13223 H 1228.44 0.551254 -4.81756 0
M  V30 13224 N 1229.78 1.54207 0.325255 0
M  V30 13225 C 1231.06 1.6298 1.08153 0
M  V30 13226 C 1231.44 0.462583 2.05969 0
M  V30 13227 O 1230.78 -0.543323 2.21947 0
M  V30 13228 C 1230.99 2.999 1.78497 0
M  V30 13229 C 1232.34 3.55888 2.3158 0
M  V30 13230 O 1233.37 3.02194 1.88566 0
M  V30 13231 O 1232.23 4.49847 3.10322 0
M  V30 13232 H 1229.32 0.659923 0.498429 0
M  V30 13233 H 1231.87 1.66553 0.325282 0
M  V30 13234 H 1230.64 3.7629 1.07338 0
M  V30 13235 H 1230.26 2.99997 2.60936 0
M  V30 13236 N 1231.26 -0.58723 1.46251 0
M  V30 13237 C 1232.51 -1.34179 1.50595 0
M  V30 13238 C 1232.82 -1.94943 0.160171 0
M  V30 13239 O 1234.03 -2.71378 0.0813797 0
M  V30 13240 C 1232.48 -2.43159 2.65333 0
M  V30 13241 C 1232.09 -1.88718 4.06312 0
M  V30 13242 C 1233.83 -3.19986 2.78943 0
M  V30 13243 C 1231.74 -2.953 5.12398 0
M  V30 13244 H 1230.67 -0.504401 0.560442 0
M  V30 13245 H 1233.32 -0.627179 1.72449 0
M  V30 13246 H 1231.7 -3.17398 2.368 0
M  V30 13247 H 1232.88 -1.21051 4.44616 0
M  V30 13248 H 1231.19 -1.24572 3.97329 0
M  V30 13249 H 1233.79 -3.9952 3.5537 0
M  V30 13250 H 1234.13 -3.72288 1.86298 0
M  V30 13251 H 1234.67 -2.52852 3.07101 0
M  V30 13252 H 1231.4 -2.4789 6.0682 0
M  V30 13253 H 1230.92 -3.61469 4.78644 0
M  V30 13254 H 1232.6 -3.5933 5.38044 0
M  V30 13255 N 1232.74 -1.33881 -0.831482 0
M  V30 13256 C 1233.96 -1.28812 -1.61911 0
M  V30 13257 C 1234.38 0.139519 -1.88284 0
M  V30 13258 O 1233.74 1.08397 -1.46821 0
M  V30 13259 C 1233.79 -2.06806 -2.96502 0
M  V30 13260 O 1233.51 -3.44 -2.71285 0
M  V30 13261 C 1235.01 -2.09033 -3.90922 0
M  V30 13262 H 1232.23 -0.443473 -0.50356 0
M  V30 13263 H 1234.77 -1.76365 -1.03516 0
M  V30 13264 H 1232.93 -1.62915 -3.51479 0
M  V30 13265 H 1233.34 -3.84213 -3.57044 0
M  V30 13266 H 1234.82 -2.68044 -4.82552 0
M  V30 13267 H 1235.29 -1.08249 -4.25651 0
M  V30 13268 H 1235.9 -2.52975 -3.41883 0
M  V30 13269 N 1234.21 1.05064 -1.1747 0
M  V30 13270 C 1235.44 1.81761 -0.988464 0
M  V30 13271 C 1235.86 1.83028 0.463272 0
M  V30 13272 O 1235.21 1.25846 1.32171 0
M  V30 13273 C 1235.26 3.2782 -1.5237 0
M  V30 13274 O 1234.99 3.26726 -2.91859 0
M  V30 13275 C 1236.49 4.212 -1.38223 0
M  V30 13276 H 1233.71 0.572712 -0.349631 0
M  V30 13277 H 1236.25 1.32477 -1.55789 0
M  V30 13278 H 1234.41 3.7437 -0.996272 0
M  V30 13279 H 1234.82 4.18151 -3.16623 0
M  V30 13280 H 1236.29 5.2166 -1.80485 0
M  V30 13281 H 1236.77 4.37962 -0.329491 0
M  V30 13282 H 1237.38 3.80506 -1.89988 0
M  V30 13283 N 1235.69 0.975146 1.23809 0
M  V30 13284 C 1237.1 0.678873 1.7392 0
M  V30 13285 C 1237.45 -0.805133 1.78919 0
M  V30 13286 O 1236.58 -1.62984 1.42356 0
M  V30 13287 C 1237.17 1.22562 3.15854 0
M  V30 13288 C 1235.73 0.979096 3.63443 0
M  V30 13289 C 1234.88 1.35649 2.41857 0
M  V30 13290 H 1237.83 1.14961 1.09406 0
M  V30 13291 H 1237.85 0.595489 3.75811 0
M  V30 13292 H 1237.36 2.30571 3.12184 0
M  V30 13293 H 1235.46 -0.0851407 3.72503 0
M  V30 13294 H 1235.58 1.62998 4.5052 0
M  V30 13295 H 1233.94 0.774916 2.42626 0
M  V30 13296 H 1234.72 2.44624 2.40861 0
M  V30 13297 N 1237.17 -1.38817 0.746158 0
M  V30 13298 C 1238.58 -1.83045 0.367629 0
M  V30 13299 C 1238.93 -1.62285 -1.10263 0
M  V30 13300 O 1238.06 -1.12001 -1.85162 0
M  V30 13301 C 1238.65 -3.323 0.660482 0
M  V30 13302 C 1237.21 -3.74903 0.335318 0
M  V30 13303 C 1236.36 -2.61683 0.917446 0
M  V30 13304 H 1239.31 -1.27651 0.94291 0
M  V30 13305 H 1239.33 -3.80446 -0.0639061 0
M  V30 13306 H 1238.84 -3.47377 1.73062 0
M  V30 13307 H 1236.94 -3.65408 -0.728538 0
M  V30 13308 H 1237.06 -4.71932 0.825677 0
M  V30 13309 H 1235.42 -2.52376 0.343316 0
M  V30 13310 H 1236.2 -2.79563 1.99247 0
M  V30 13311 N 1238.65 -0.49465 -1.49636 0
M  V30 13312 C 1239.88 0.0491129 -2.06842 0
M  V30 13313 C 1240.29 1.31395 -1.35576 0
M  V30 13314 O 1239.65 1.7731 -0.432135 0
M  V30 13315 C 1239.7 0.313171 -3.60141 0
M  V30 13316 O 1239.42 -0.90152 -4.28724 0
M  V30 13317 C 1240.92 0.901284 -4.34041 0
M  V30 13318 H 1238.14 -0.0176186 -0.670769 0
M  V30 13319 H 1240.68 -0.690188 -1.92501 0
M  V30 13320 H 1238.84 1.00244 -3.74206 0
M  V30 13321 H 1239.25 -0.660477 -5.20325 0
M  V30 13322 H 1240.73 1.03567 -5.42197 0
M  V30 13323 H 1241.2 1.89746 -3.96097 0
M  V30 13324 H 1241.81 0.249677 -4.24566 0
M  V30 13325 N 1240.13 1.55939 -0.228214 0
M  V30 13326 C 1241.06 2.17874 0.711589 0
M  V30 13327 C 1242.07 1.14969 1.15265 0
M  V30 13328 O 1243.26 1.41919 1.08265 0
M  V30 13329 C 1240.36 2.75294 1.97652 0
M  V30 13330 C 1239.53 4.03435 1.68994 0
M  V30 13331 C 1238.59 4.45354 2.8026 0
M  V30 13332 O 1237.62 5.12117 2.48445 0
M  V30 13333 N 1238.82 4.11588 4.0936 0
M  V30 13334 H 1241.58 2.99148 0.181757 0
M  V30 13335 H 1239.15 1.6183 -0.0474567 0
M  V30 13336 H 1241.14 3.00305 2.71292 0
M  V30 13337 H 1239.71 1.98285 2.41665 0
M  V30 13338 H 1238.93 3.8621 0.789657 0
M  V30 13339 H 1240.22 4.87015 1.47287 0
M  V30 13340 H 1239.61 3.57953 4.38048 0
M  V30 13341 H 1238.17 4.41477 4.79522 0
M  V30 13342 N 1241.6 -0.0451101 1.57535 0
M  V30 13343 C 1242.53 -1.05046 2.08537 0
M  V30 13344 C 1243.52 -1.3872 0.984418 0
M  V30 13345 O 1244.7 -1.47884 1.25873 0
M  V30 13346 C 1241.83 -2.3562 2.55148 0
M  V30 13347 C 1240.78 -2.16231 3.69362 0
M  V30 13348 C 1240.11 -3.52423 4.02122 0
M  V30 13349 C 1241.41 -1.56159 4.98409 0
M  V30 13350 H 1243.1 -0.625965 2.92783 0
M  V30 13351 H 1240.65 -0.299657 1.40848 0
M  V30 13352 H 1242.6 -3.06266 2.89446 0
M  V30 13353 H 1241.33 -2.80099 1.67964 0
M  V30 13354 H 1239.99 -1.4802 3.35389 0
M  V30 13355 H 1239.63 -3.94522 3.12028 0
M  V30 13356 H 1239.33 -3.4028 4.79044 0
M  V30 13357 H 1240.86 -4.24458 4.38939 0
M  V30 13358 H 1242.27 -2.16703 5.30766 0
M  V30 13359 H 1240.67 -1.54638 5.79834 0
M  V30 13360 H 1241.74 -0.525698 4.82042 0
M  V30 13361 N 1243.08 -1.54377 -0.317073 0
M  V30 13362 C 1244.01 -1.8721 -1.39552 0
M  V30 13363 C 1244.99 -0.729483 -1.53664 0
M  V30 13364 O 1246.18 -0.983799 -1.67437 0
M  V30 13365 C 1243.31 -2.1052 -2.76222 0
M  V30 13366 C 1242.26 -3.26366 -2.76892 0
M  V30 13367 C 1241.59 -3.35061 -4.16699 0
M  V30 13368 C 1242.89 -4.63862 -2.40061 0
M  V30 13369 H 1244.58 -2.77532 -1.12323 0
M  V30 13370 H 1242.13 -1.33536 -0.538897 0
M  V30 13371 H 1244.08 -2.32073 -3.51739 0
M  V30 13372 H 1242.81 -1.16953 -3.04942 0
M  V30 13373 H 1241.46 -3.0471 -2.03831 0
M  V30 13374 H 1241.11 -2.39041 -4.4257 0
M  V30 13375 H 1240.81 -4.12923 -4.18053 0
M  V30 13376 H 1242.34 -3.58856 -4.94019 0
M  V30 13377 H 1243.75 -4.85252 -3.05292 0
M  V30 13378 H 1242.15 -5.44321 -2.52655 0
M  V30 13379 H 1243.22 -4.6567 -1.35202 0
M  V30 13380 N 1244.56 0.579466 -1.4656 0
M  V30 13381 C 1245.49 1.69846 -1.60233 0
M  V30 13382 C 1246.47 1.6397 -0.452533 0
M  V30 13383 O 1247.66 1.81936 -0.679174 0
M  V30 13384 C 1244.79 3.08488 -1.59538 0
M  V30 13385 C 1243.74 3.29197 -2.7352 0
M  V30 13386 C 1243.07 4.684 -2.57887 0
M  V30 13387 C 1244.37 3.16718 -4.15315 0
M  V30 13388 H 1246.06 1.5866 -2.53904 0
M  V30 13389 H 1243.61 0.761873 -1.22194 0
M  V30 13390 H 1245.56 3.86595 -1.67696 0
M  V30 13391 H 1244.28 3.20581 -0.62413 0
M  V30 13392 H 1242.94 2.53491 -2.64836 0
M  V30 13393 H 1242.59 4.77262 -1.58839 0
M  V30 13394 H 1242.29 4.83208 -3.34341 0
M  V30 13395 H 1243.81 5.48671 -2.67942 0
M  V30 13396 H 1245.23 3.84666 -4.25094 0
M  V30 13397 H 1243.63 3.43047 -4.92381 0
M  V30 13398 H 1244.7 2.13755 -4.35244 0
M  V30 13399 N 1246.04 1.3432 0.824371 0
M  V30 13400 C 1246.97 1.21619 1.94271 0
M  V30 13401 C 1247.98 0.143628 1.62165 0
M  V30 13402 O 1249.17 0.395353 1.74067 0
M  V30 13403 C 1246.27 0.846128 3.28167 0
M  V30 13404 C 1245.45 2.01337 3.88307 0
M  V30 13405 C 1244.5 1.62194 5.00579 0
M  V30 13406 O 1243.53 2.33831 5.18953 0
M  V30 13407 N 1244.73 0.535262 5.78027 0
M  V30 13408 H 1247.5 2.17963 2.05699 0
M  V30 13409 H 1245.06 1.27256 1.00088 0
M  V30 13410 H 1247.05 0.566086 4.00721 0
M  V30 13411 H 1245.62 -0.0270764 3.12588 0
M  V30 13412 H 1244.84 2.45823 3.08164 0
M  V30 13413 H 1246.13 2.79404 4.25219 0
M  V30 13414 H 1245.53 -0.0603126 5.65668 0
M  V30 13415 H 1244.08 0.314946 6.51039 0
M  V30 13416 N 1247.52 -1.0444 1.18026 0
M  V30 13417 C 1248.46 -2.12365 0.903865 0
M  V30 13418 C 1249.43 -1.65373 -0.155252 0
M  V30 13419 O 1250.62 -1.90793 -0.016419 0
M  V30 13420 C 1247.76 -3.4239 0.431603 0
M  V30 13421 C 1246.87 -4.03016 1.55571 0
M  V30 13422 C 1246.01 -5.20988 1.03655 0
M  V30 13423 C 1245.05 -5.73636 2.1356 0
M  V30 13424 N 1244.18 -6.82901 1.63066 0
M  V30 13425 H 1249.02 -2.35346 1.82802 0
M  V30 13426 H 1246.56 -1.15447 0.911618 0
M  V30 13427 H 1248.52 -4.16967 0.139296 0
M  V30 13428 H 1247.15 -3.19569 -0.455576 0
M  V30 13429 H 1246.2 -3.25803 1.96358 0
M  V30 13430 H 1247.51 -4.38122 2.38434 0
M  V30 13431 H 1246.67 -6.02665 0.698546 0
M  V30 13432 H 1245.4 -4.87377 0.177457 0
M  V30 13433 H 1244.41 -4.90583 2.4821 0
M  V30 13434 H 1245.63 -6.09293 2.99899 0
M  V30 13435 H 1243.58 -6.51172 0.794394 0
M  V30 13436 H 1243.5 -7.1705 2.3953 0
M  V30 13437 H 1244.77 -7.68211 1.32181 0
M  V30 13438 N 1248.99 -0.981699 -1.2329 0
M  V30 13439 C 1249.92 -0.542441 -2.27112 0
M  V30 13440 C 1250.91 0.425034 -1.64704 0
M  V30 13441 O 1252.09 0.318114 -1.91577 0
M  V30 13442 C 1249.22 0.154668 -3.46955 0
M  V30 13443 C 1248.17 -0.73022 -4.21725 0
M  V30 13444 C 1247.5 0.0991766 -5.34608 0
M  V30 13445 C 1248.8 -2.02166 -4.81587 0
M  V30 13446 H 1250.49 -1.41024 -2.64107 0
M  V30 13447 H 1248.04 -0.679544 -1.26957 0
M  V30 13448 H 1249.99 0.473281 -4.18734 0
M  V30 13449 H 1248.72 1.05693 -3.09025 0
M  V30 13450 H 1247.38 -1.03231 -3.51765 0
M  V30 13451 H 1247.02 1.00201 -4.92919 0
M  V30 13452 H 1246.72 -0.489788 -5.85555 0
M  V30 13453 H 1248.25 0.412141 -6.09207 0
M  V30 13454 H 1249.66 -1.76773 -5.45366 0
M  V30 13455 H 1248.06 -2.55851 -5.42826 0
M  V30 13456 H 1249.13 -2.70766 -4.02261 0
M  V30 13457 N 1250.47 1.3842 -0.753509 0
M  V30 13458 C 1251.44 2.28808 -0.134022 0
M  V30 13459 C 1252.44 1.47184 0.647583 0
M  V30 13460 O 1253.63 1.67631 0.473861 0
M  V30 13461 C 1250.76 3.30926 0.81858 0
M  V30 13462 H 1251.95 2.85097 -0.930586 0
M  V30 13463 H 1249.5 1.47378 -0.520514 0
M  V30 13464 H 1250.24 2.79728 1.64082 0
M  V30 13465 H 1250.02 3.91234 0.260526 0
M  V30 13466 H 1251.51 3.98515 1.24802 0
M  V30 13467 N 1251.95 0.502579 1.49372 0
M  V30 13468 C 1252.88 -0.311743 2.2707 0
M  V30 13469 C 1253.9 -0.929204 1.33677 0
M  V30 13470 O 1255.08 -0.812277 1.58948 0
M  V30 13471 C 1252.18 -1.45404 3.06122 0
M  V30 13472 C 1251.36 -0.943591 4.27101 0
M  V30 13473 C 1250.42 -1.96368 4.88186 0
M  V30 13474 O 1249.44 -1.5316 5.48207 0
M  V30 13475 N 1250.64 -3.29419 4.77978 0
M  V30 13476 H 1253.41 0.354503 2.97596 0
M  V30 13477 H 1250.97 0.335222 1.58392 0
M  V30 13478 H 1252.96 -2.13404 3.43862 0
M  V30 13479 H 1251.53 -2.02441 2.38194 0
M  V30 13480 H 1250.75 -0.0884372 3.94101 0
M  V30 13481 H 1252.04 -0.580983 5.05472 0
M  V30 13482 H 1251.44 -3.67211 4.30317 0
M  V30 13483 H 1250 -3.93129 5.19897 0
M  V30 13484 N 1253.43 -1.55816 0.23648 0
M  V30 13485 C 1254.67 -1.98981 -0.391725 0
M  V30 13486 C 1255.01 -1.12428 -1.58346 0
M  V30 13487 O 1254.28 -0.185303 -1.93615 0
M  V30 13488 C 1254.57 -3.50831 -0.811759 0
M  V30 13489 C 1254.42 -4.48152 0.384648 0
M  V30 13490 C 1255.74 -4.07489 -1.66254 0
M  V30 13491 H 1252.86 -0.723404 -0.140911 0
M  V30 13492 H 1255.5 -1.87011 0.335706 0
M  V30 13493 H 1253.65 -3.61162 -1.43157 0
M  V30 13494 H 1255.32 -4.49814 1.02298 0
M  V30 13495 H 1253.56 -4.21406 1.02955 0
M  V30 13496 H 1254.23 -5.51979 0.0475809 0
M  V30 13497 H 1256.71 -4.00195 -1.13944 0
M  V30 13498 H 1255.59 -5.14026 -1.92531 0
M  V30 13499 H 1255.85 -3.55297 -2.6309 0
M  V30 13500 N 1254.91 0.036755 -1.57557 0
M  V30 13501 C 1255.87 1.02435 -2.05036 0
M  V30 13502 C 1256.87 1.29506 -0.953146 0
M  V30 13503 O 1258.06 1.24638 -1.217 0
M  V30 13504 C 1255.19 2.3592 -2.46079 0
M  V30 13505 H 1256.38 0.614384 -2.93539 0
M  V30 13506 H 1253.94 0.283396 -1.53709 0
M  V30 13507 H 1254.67 2.8168 -1.60708 0
M  V30 13508 H 1254.46 2.17603 -3.26177 0
M  V30 13509 H 1255.95 3.06839 -2.83266 0
M  V30 13510 N 1256.39 1.54543 0.308881 0
M  V30 13511 C 1257.61 1.77431 1.06422 0
M  V30 13512 C 1258.03 0.529972 1.81209 0
M  V30 13513 O 1257.39 -0.499912 1.7552 0
M  V30 13514 C 1257.44 2.9769 2.05092 0
M  V30 13515 O 1257.16 4.17315 1.33341 0
M  V30 13516 C 1258.66 3.32905 2.92727 0
M  V30 13517 H 1255.88 0.591961 0.315948 0
M  V30 13518 H 1258.42 2.01473 0.350547 0
M  V30 13519 H 1256.58 2.7588 2.71973 0
M  V30 13520 H 1256.99 4.85061 1.99539 0
M  V30 13521 H 1258.47 4.20314 3.57827 0
M  V30 13522 H 1258.94 2.50713 3.6061 0
M  V30 13523 H 1259.55 3.56847 2.31388 0
M  V30 13524 N 1257.86 -0.571685 1.46866 0
M  V30 13525 C 1258.77 -1.70758 1.60869 0
M  V30 13526 C 1259.79 -1.66903 0.49186 0
M  V30 13527 O 1260.97 -1.86613 0.757468 0
M  V30 13528 C 1258.03 -3.07267 1.60586 0
M  V30 13529 C 1257.09 -3.22301 2.83585 0
M  V30 13530 C 1256.32 -4.52298 2.83306 0
M  V30 13531 O 1256.55 -5.36869 1.92685 0
M  V30 13532 O 1255.48 -4.70814 3.7499 0
M  V30 13533 H 1259.31 -1.6189 2.56954 0
M  V30 13534 H 1256.89 -0.740018 1.29785 0
M  V30 13535 H 1258.77 -3.8853 1.63163 0
M  V30 13536 H 1257.45 -3.16549 0.676637 0
M  V30 13537 H 1256.36 -2.4049 2.86558 0
M  V30 13538 H 1257.69 -3.17916 3.75753 0
M  V30 13539 N 1259.34 -1.34755 -0.817236 0
M  V30 13540 C 1260.25 -1.28888 -1.96023 0
M  V30 13541 C 1261.27 -0.195582 -1.72897 0
M  V30 13542 O 1262.44 -0.423071 -1.96906 0
M  V30 13543 C 1259.51 -1.04985 -3.30423 0
M  V30 13544 C 1258.57 -2.23526 -3.66517 0
M  V30 13545 C 1257.8 -2.00753 -4.94504 0
M  V30 13546 O 1258.03 -0.968622 -5.62116 0
M  V30 13547 O 1256.96 -2.87848 -5.28608 0
M  V30 13548 H 1260.79 -2.25059 -2.03917 0
M  V30 13549 H 1258.37 -1.15019 -0.953467 0
M  V30 13550 H 1260.25 -0.934589 -4.10906 0
M  V30 13551 H 1258.93 -0.118582 -3.23483 0
M  V30 13552 H 1257.83 -2.40613 -2.86455 0
M  V30 13553 H 1259.17 -3.15062 -3.78149 0
M  V30 13554 N 1260.82 1.03812 -1.18578 0
M  V30 13555 C 1262.23 1.58509 -0.986496 0
M  V30 13556 C 1262.58 1.90655 0.463136 0
M  V30 13557 O 1261.71 1.69847 1.34093 0
M  V30 13558 C 1262.3 2.88 -1.78441 0
M  V30 13559 C 1260.86 3.39304 -1.6294 0
M  V30 13560 C 1260.01 2.12857 -1.77727 0
M  V30 13561 H 1262.96 0.864528 -1.33085 0
M  V30 13562 H 1262.98 3.58502 -1.27501 0
M  V30 13563 H 1262.49 2.64572 -2.83942 0
M  V30 13564 H 1260.59 3.6774 -0.599864 0
M  V30 13565 H 1260.71 4.12959 -2.42902 0
M  V30 13566 H 1259.07 2.24285 -1.20699 0
M  V30 13567 H 1259.85 1.91882 -2.84669 0
M  V30 13568 N 1262.3 0.988223 1.22768 0
M  V30 13569 C 1263.21 0.543407 2.2822 0
M  V30 13570 C 1264.22 -0.405563 1.69208 0
M  V30 13571 O 1265.4 -0.273551 1.99534 0
M  V30 13572 C 1262.46 -0.139495 3.46419 0
M  V30 13573 C 1261.53 0.851853 4.20764 0
M  V30 13574 C 1260.76 0.201446 5.3332 0
M  V30 13575 O 1260.98 -1.00573 5.61464 0
M  V30 13576 O 1259.92 0.903956 5.95073 0
M  V30 13577 H 1263.74 1.42059 2.68427 0
M  V30 13578 H 1261.33 0.756239 1.28846 0
M  V30 13579 H 1263.21 -0.522226 4.18152 0
M  V30 13580 H 1261.88 -0.991315 3.08147 0
M  V30 13581 H 1260.79 1.28543 3.51322 0
M  V30 13582 H 1262.12 1.67273 4.62905 0
M  V30 13583 N 1263.78 -1.38018 0.760839 0
M  V30 13584 C 1265.19 -1.53437 0.439239 0
M  V30 13585 C 1265.39 -1.72184 -1.04666 0
M  V30 13586 O 1264.45 -1.73698 -1.83263 0
M  V30 13587 C 1265.76 -2.73724 1.24481 0
M  V30 13588 C 1267.31 -2.87579 1.23561 0
M  V30 13589 C 1267.78 -4.10836 2.02429 0
M  V30 13590 N 1269.27 -4.17928 1.99727 0
M  V30 13591 C 1270.01 -5.12309 2.57541 0
M  V30 13592 N 1269.51 -6.12317 3.24098 0
M  V30 13593 N 1271.3 -5.04712 2.47431 0
M  V30 13594 H 1263.45 -1.241 1.72375 0
M  V30 13595 H 1265.71 -0.603427 0.73115 0
M  V30 13596 H 1265.42 -2.663 2.29732 0
M  V30 13597 H 1265.29 -3.67111 0.866579 0
M  V30 13598 H 1267.68 -2.9448 0.191122 0
M  V30 13599 H 1267.76 -1.95183 1.6534 0
M  V30 13600 H 1267.4 -4.04696 3.06893 0
M  V30 13601 H 1267.33 -5.02326 1.58039 0
M  V30 13602 H 1269.83 -3.46307 1.51262 0
M  V30 13603 H 1270.14 -6.80842 3.65615 0
M  V30 13604 H 1268.48 -6.12628 3.28195 0
M  V30 13605 H 1271.67 -4.25524 1.95057 0
M  V30 13606 H 1271.85 -5.78085 2.92783 0
M  V30 13607 N 1265.25 -0.510493 -1.49103 0
M  V30 13608 C 1266.19 0.299697 -2.27232 0
M  V30 13609 C 1267.2 0.922102 -1.34168 0
M  V30 13610 O 1268.39 0.803836 -1.59376 0
M  V30 13611 C 1265.49 1.43778 -3.06889 0
M  V30 13612 C 1264.66 0.920927 -4.27595 0
M  V30 13613 C 1263.72 1.93777 -4.89221 0
M  V30 13614 O 1262.75 1.5025 -5.49011 0
M  V30 13615 N 1263.95 3.2688 -4.79718 0
M  V30 13616 H 1266.71 -0.37028 -2.97404 0
M  V30 13617 H 1264.27 -0.343617 -1.58212 0
M  V30 13618 H 1266.27 2.11577 -3.44988 0
M  V30 13619 H 1264.84 2.01175 -2.39264 0
M  V30 13620 H 1264.06 0.0675358 -3.94142 0
M  V30 13621 H 1265.34 0.554168 -5.05773 0
M  V30 13622 H 1264.74 3.64924 -4.32258 0
M  V30 13623 H 1263.3 3.90366 -5.21974 0
M  V30 13624 N 1266.73 1.55688 -0.24474 0
M  V30 13625 C 1268.15 1.59219 0.110159 0
M  V30 13626 C 1268.35 1.26187 1.57096 0
M  V30 13627 O 1267.4 1.00815 2.31501 0
M  V30 13628 C 1268.72 2.99764 -0.237075 0
M  V30 13629 C 1270.26 3.12475 -0.181198 0
M  V30 13630 C 1270.74 4.55236 -0.502435 0
M  V30 13631 N 1272.23 4.60981 -0.452855 0
M  V30 13632 C 1272.97 5.69418 -0.674605 0
M  V30 13633 N 1272.46 6.86125 -0.959366 0
M  V30 13634 N 1274.25 5.5883 -0.605459 0
M  V30 13635 H 1266.41 1.7543 -1.19741 0
M  V30 13636 H 1268.67 0.816537 -0.481634 0
M  V30 13637 H 1268.37 3.28666 -1.25185 0
M  V30 13638 H 1268.25 3.74662 0.436859 0
M  V30 13639 H 1270.64 2.83355 0.824248 0
M  V30 13640 H 1270.72 2.39857 -0.888952 0
M  V30 13641 H 1270.36 4.85077 -1.50543 0
M  V30 13642 H 1270.29 5.26111 0.226773 0
M  V30 13643 H 1272.78 3.77128 -0.241401 0
M  V30 13644 H 1273.09 7.64699 -1.11605 0
M  V30 13645 H 1271.44 6.87814 -0.996816 0
M  V30 13646 H 1274.63 4.6653 -0.383053 0
M  V30 13647 H 1274.8 6.43268 -0.781673 0
M  V30 13648 N 1268.21 -0.0283989 1.57574 0
M  V30 13649 C 1269.14 -1.02828 2.09639 0
M  V30 13650 C 1270.12 -1.37668 0.999076 0
M  V30 13651 O 1271.31 -1.4654 1.27435 0
M  V30 13652 C 1268.44 -2.329 2.57633 0
M  V30 13653 C 1267.39 -2.12301 3.71635 0
M  V30 13654 C 1266.72 -3.48138 4.05837 0
M  V30 13655 C 1268.02 -1.50864 5.00037 0
M  V30 13656 H 1269.71 -0.594876 2.93431 0
M  V30 13657 H 1267.26 -0.284701 1.41158 0
M  V30 13658 H 1269.21 -3.03179 2.92678 0
M  V30 13659 H 1267.93 -2.78302 1.70926 0
M  V30 13660 H 1266.59 -1.44454 3.3694 0
M  V30 13661 H 1266.24 -3.9119 3.16195 0
M  V30 13662 H 1265.94 -3.3518 4.82626 0
M  V30 13663 H 1267.46 -4.19779 4.43417 0
M  V30 13664 H 1268.88 -2.11062 5.33035 0
M  V30 13665 H 1267.27 -1.48479 5.81441 0
M  V30 13666 H 1268.34 -0.474541 4.82572 0
M  V30 13667 N 1269.69 -1.54705 -0.300681 0
M  V30 13668 C 1270.6 -1.88736 -1.39341 0
M  V30 13669 C 1271.61 -0.78155 -1.5546 0
M  V30 13670 O 1272.79 -1.07804 -1.70118 0
M  V30 13671 C 1269.85 -2.12795 -2.73713 0
M  V30 13672 C 1268.92 -3.36504 -2.66577 0
M  V30 13673 C 1268.15 -3.59407 -3.94541 0
M  V30 13674 O 1268.37 -2.85315 -4.93914 0
M  V30 13675 O 1267.31 -4.52923 -3.96415 0
M  V30 13676 H 1271.13 -2.817 -1.13484 0
M  V30 13677 H 1268.72 -1.40899 -0.496771 0
M  V30 13678 H 1270.6 -2.29819 -3.53215 0
M  V30 13679 H 1269.27 -1.23017 -2.99414 0
M  V30 13680 H 1268.18 -3.24844 -1.85546 0
M  V30 13681 H 1269.51 -4.26414 -2.45829 0
M  V30 13682 N 1271.17 0.563888 -1.47167 0
M  V30 13683 C 1272.13 1.65359 -1.58711 0
M  V30 13684 C 1273.13 1.53999 -0.46272 0
M  V30 13685 O 1274.32 1.58277 -0.727595 0
M  V30 13686 C 1271.45 3.04874 -1.52529 0
M  V30 13687 H 1272.64 1.56475 -2.55843 0
M  V30 13688 H 1270.2 0.783271 -1.35257 0
M  V30 13689 H 1270.93 3.19297 -0.56747 0
M  V30 13690 H 1270.72 3.14528 -2.34125 0
M  V30 13691 H 1272.21 3.84164 -1.63731 0
M  V30 13692 N 1272.64 1.35187 0.810078 0
M  V30 13693 C 1273.57 1.30481 1.93641 0
M  V30 13694 C 1274.56 0.179875 1.69146 0
M  V30 13695 O 1275.74 0.374284 1.90559 0
M  V30 13696 C 1272.87 1.07251 3.30325 0
M  V30 13697 C 1271.82 2.16348 3.69293 0
M  V30 13698 C 1271.15 1.78288 5.04101 0
M  V30 13699 C 1272.45 3.58285 3.80038 0
M  V30 13700 H 1274.14 2.24725 1.97836 0
M  V30 13701 H 1271.69 1.08179 0.950436 0
M  V30 13702 H 1273.64 1.02599 4.08719 0
M  V30 13703 H 1272.37 0.0945203 3.26463 0
M  V30 13704 H 1271.03 2.2009 2.93182 0
M  V30 13705 H 1270.67 0.791163 4.96739 0
M  V30 13706 H 1270.37 2.51315 5.31144 0
M  V30 13707 H 1271.9 1.75155 5.84938 0
M  V30 13708 H 1273.31 3.56884 4.48672 0
M  V30 13709 H 1271.71 4.30044 4.18548 0
M  V30 13710 H 1272.78 3.94691 2.81685 0
M  V30 13711 N 1274.12 -1.03182 1.19127 0
M  V30 13712 C 1275.36 -1.78089 1.00318 0
M  V30 13713 C 1275.73 -1.86451 -0.458252 0
M  V30 13714 O 1276.93 -2.57653 -0.766061 0
M  V30 13715 C 1275.2 -3.17012 1.6504 0
M  V30 13716 S 1276.76 -4.08146 1.61129 0
M  V30 13717 H 1273.58 -0.613096 0.360048 0
M  V30 13718 H 1276.18 -1.23657 1.51424 0
M  V30 13719 H 1274.88 -3.08541 2.70612 0
M  V30 13720 H 1274.41 -3.7652 1.14001 0
M  V30 13721 H 1276.43 -4.92141 0.633408 0
M  V30 13722 N 1275.6 -0.99472 -1.22242 0
M  V30 13723 C 1276.53 -0.504783 -2.23572 0
M  V30 13724 C 1277.55 0.401105 -1.57781 0
M  V30 13725 O 1278.73 0.202948 -1.77343 0
M  V30 13726 C 1275.83 0.287524 -3.37678 0
M  V30 13727 C 1275.01 -0.614941 -4.33056 0
M  V30 13728 C 1274.07 0.125974 -5.26049 0
M  V30 13729 O 1273.09 -0.489234 -5.67094 0
M  V30 13730 N 1274.29 1.40772 -5.63173 0
M  V30 13731 H 1277.06 -1.37612 -2.66238 0
M  V30 13732 H 1274.62 -0.86965 -1.3656 0
M  V30 13733 H 1276.61 0.791884 -3.96877 0
M  V30 13734 H 1275.18 1.05998 -2.9408 0
M  V30 13735 H 1274.4 -1.29994 -3.72149 0
M  V30 13736 H 1275.69 -1.22947 -4.93722 0
M  V30 13737 H 1275.09 1.92884 -5.31801 0
M  V30 13738 H 1273.65 1.85723 -6.2478 0
M  V30 13739 N 1277.08 1.37613 -0.768148 0
M  V30 13740 C 1278.49 1.82437 -0.396703 0
M  V30 13741 C 1278.84 1.64019 1.07668 0
M  V30 13742 O 1277.97 1.14932 1.83356 0
M  V30 13743 C 1278.56 3.31207 -0.713265 0
M  V30 13744 C 1277.12 3.74323 -0.39492 0
M  V30 13745 C 1276.27 2.60191 -0.958962 0
M  V30 13746 H 1279.22 1.26135 -0.963099 0
M  V30 13747 H 1279.24 3.805 0.00337228 0
M  V30 13748 H 1278.75 3.4458 -1.78567 0
M  V30 13749 H 1276.85 3.66521 0.670313 0
M  V30 13750 H 1276.96 4.70558 -0.900653 0
M  V30 13751 H 1275.33 2.51797 -0.383423 0
M  V30 13752 H 1276.11 2.76358 -2.03669 0
M  V30 13753 N 1278.56 0.518393 1.4883 0
M  V30 13754 C 1279.78 -0.0183131 2.07392 0
M  V30 13755 C 1280.21 -1.28468 1.37396 0
M  V30 13756 O 1279.56 -1.75975 0.436177 0
M  V30 13757 C 1279.61 -0.237211 3.59819 0
M  V30 13758 O 1278.72 -1.30835 3.91096 0
M  V30 13759 H 1278.06 0.0339621 0.663131 0
M  V30 13760 H 1280.59 0.722993 1.914 0
M  V30 13761 H 1280.6 -0.463424 4.0536 0
M  V30 13762 H 1279.27 0.687925 4.10171 0
M  V30 13763 H 1277.85 -1.06571 3.57347 0
M  V30 13764 N 1280.03 -1.55556 0.252993 0
M  V30 13765 C 1280.94 -2.25283 -0.654581 0
M  V30 13766 C 1281.96 -1.27103 -1.18831 0
M  V30 13767 O 1283.14 -1.59993 -1.22329 0
M  V30 13768 C 1280.2 -2.94336 -1.83214 0
M  V30 13769 C 1279.26 -4.0794 -1.33728 0
M  V30 13770 C 1278.5 -4.73691 -2.45871 0
M  V30 13771 O 1278.72 -4.38545 -3.64738 0
M  V30 13772 O 1277.65 -5.62083 -2.15283 0
M  V30 13773 H 1281.48 -3.03565 -0.0904091 0
M  V30 13774 H 1279.06 -1.49385 0.0212535 0
M  V30 13775 H 1280.95 -3.37808 -2.5192 0
M  V30 13776 H 1279.62 -2.18989 -2.38381 0
M  V30 13777 H 1278.53 -3.68971 -0.617323 0
M  V30 13778 H 1279.86 -4.85124 -0.831617 0
M  V30 13779 N 1281.51 0.0200419 -1.57587 0
M  V30 13780 C 1282.74 0.719511 -1.93666 0
M  V30 13781 C 1283.15 1.68934 -0.85193 0
M  V30 13782 O 1282.49 1.8282 0.179593 0
M  V30 13783 C 1282.56 1.52382 -3.25607 0
M  V30 13784 C 1282.22 0.717784 -4.51328 0
M  V30 13785 C 1283.22 0.0141272 -5.19898 0
M  V30 13786 C 1280.9 0.669662 -4.97816 0
M  V30 13787 C 1282.9 -0.726853 -6.33242 0
M  V30 13788 C 1280.58 -0.0750577 -6.11054 0
M  V30 13789 C 1281.58 -0.772067 -6.78622 0
M  V30 13790 O 1281.27 -1.50468 -7.89693 0
M  V30 13791 H 1281 0.206681 -0.643629 0
M  V30 13792 H 1283.55 -0.0211203 -2.05389 0
M  V30 13793 H 1281.78 2.30848 -3.10236 0
M  V30 13794 H 1283.47 2.10675 -3.46945 0
M  V30 13795 H 1284.24 0.0422784 -4.84982 0
M  V30 13796 H 1280.12 1.20169 -4.45062 0
M  V30 13797 H 1283.66 -1.27143 -6.85916 0
M  V30 13798 H 1279.56 -0.1051 -6.45414 0
M  V30 13799 H 1280.33 -1.41929 -8.06101 0
M  V30 13800 N 1282.99 1.54862 0.292472 0
M  V30 13801 C 1284.22 1.78877 1.04966 0
M  V30 13802 C 1284.64 0.550724 1.79857 0
M  V30 13803 O 1284 -0.499054 1.74296 0
M  V30 13804 C 1284.05 3.00106 1.99922 0
M  V30 13805 O 1283.15 2.73827 3.0837 0
M  V30 13806 H 1282.49 0.591802 0.301108 0
M  V30 13807 H 1285.02 2.01965 0.3273 0
M  V30 13808 H 1285.03 3.28309 2.42233 0
M  V30 13809 H 1283.71 3.89872 1.44821 0
M  V30 13810 H 1282.28 2.56665 2.70513 0
M  V30 13811 N 1284.47 -0.556076 1.47464 0
M  V30 13812 C 1285.42 -1.66304 1.60036 0
M  V30 13813 C 1286.39 -1.60074 0.443348 0
M  V30 13814 O 1287.57 -1.7889 0.663545 0
M  V30 13815 C 1284.71 -3.04624 1.62167 0
M  V30 13816 C 1283.82 -3.21283 2.88793 0
M  V30 13817 C 1282.96 -4.50008 2.82252 0
M  V30 13818 C 1282 -4.60103 4.03698 0
M  V30 13819 N 1281.13 -5.80184 3.95387 0
M  V30 13820 H 1285.97 -1.54897 2.5458 0
M  V30 13821 H 1283.51 -0.754533 1.26274 0
M  V30 13822 H 1285.47 -3.84721 1.61386 0
M  V30 13823 H 1284.1 -3.14865 0.711348 0
M  V30 13824 H 1283.15 -2.34611 2.99436 0
M  V30 13825 H 1284.46 -3.24607 3.78724 0
M  V30 13826 H 1283.62 -5.38366 2.79726 0
M  V30 13827 H 1282.36 -4.49165 1.90005 0
M  V30 13828 H 1281.36 -3.70157 4.06527 0
M  V30 13829 H 1282.59 -4.62704 4.97073 0
M  V30 13830 H 1280.53 -5.80288 3.05944 0
M  V30 13831 H 1280.45 -5.8489 4.78998 0
M  V30 13832 H 1281.72 -6.709 3.96879 0
M  V30 13833 N 1285.95 -1.35615 -0.802897 0
M  V30 13834 C 1287.19 -1.30293 -1.5619 0
M  V30 13835 C 1287.55 0.120656 -1.92021 0
M  V30 13836 O 1286.84 1.07195 -1.58807 0
M  V30 13837 C 1287.04 -2.14653 -2.8576 0
M  V30 13838 C 1286.86 -3.65072 -2.62589 0
M  V30 13839 C 1285.63 -4.34294 -2.58295 0
M  V30 13840 C 1287.83 -4.58639 -2.32712 0
M  V30 13841 N 1285.81 -5.70437 -2.2688 0
M  V30 13842 C 1287.19 -5.82931 -2.11168 0
M  V30 13843 C 1289.24 -4.47343 -2.18606 0
M  V30 13844 C 1287.94 -6.97196 -1.76946 0
M  V30 13845 C 1289.97 -5.61462 -1.85781 0
M  V30 13846 C 1289.33 -6.84784 -1.65075 0
M  V30 13847 H 1285.43 -0.532038 -0.573114 0
M  V30 13848 H 1288.01 -1.70533 -0.939498 0
M  V30 13849 H 1286.19 -1.76679 -3.45889 0
M  V30 13850 H 1287.92 -2.00823 -3.51358 0
M  V30 13851 H 1284.67 -3.86947 -2.73073 0
M  V30 13852 H 1285.1 -6.42302 -2.13956 0
M  V30 13853 H 1289.74 -3.52599 -2.33311 0
M  V30 13854 H 1287.46 -7.91904 -1.60979 0
M  V30 13855 H 1291.04 -5.54677 -1.7557 0
M  V30 13856 H 1289.92 -7.71594 -1.40046 0
M  V30 13857 N 1287.43 1.02549 -1.19673 0
M  V30 13858 C 1288.37 2.109 -0.937536 0
M  V30 13859 C 1289.34 1.65599 0.128923 0
M  V30 13860 O 1290.53 1.90795 -0.0139366 0
M  V30 13861 C 1287.67 3.4166 -0.48602 0
M  V30 13862 C 1286.78 4.0049 -1.61963 0
M  V30 13863 C 1285.92 5.19273 -1.11931 0
M  V30 13864 C 1284.95 5.70166 -2.22659 0
M  V30 13865 N 1284.09 6.80221 -1.73909 0
M  V30 13866 H 1288.93 2.32408 -1.86523 0
M  V30 13867 H 1286.47 1.13982 -0.929869 0
M  V30 13868 H 1288.43 4.16693 -0.205614 0
M  V30 13869 H 1287.06 3.20253 0.404678 0
M  V30 13870 H 1286.11 3.22638 -2.01516 0
M  V30 13871 H 1287.42 4.34273 -2.45374 0
M  V30 13872 H 1286.57 6.01478 -0.794336 0
M  V30 13873 H 1285.31 4.87033 -0.254972 0
M  V30 13874 H 1284.32 4.86572 -2.55983 0
M  V30 13875 H 1285.54 6.04444 -3.09554 0
M  V30 13876 H 1283.49 6.49826 -0.897889 0
M  V30 13877 H 1283.41 7.13149 -2.50907 0
M  V30 13878 H 1284.67 7.66011 -1.44386 0
M  V30 13879 N 1288.9 1.00119 1.21713 0
M  V30 13880 C 1290.15 0.681723 1.9068 0
M  V30 13881 C 1290.48 -0.787121 1.77861 0
M  V30 13882 O 1289.73 -1.58573 1.14687 0
M  V30 13883 C 1290.03 1.04376 3.41819 0
M  V30 13884 C 1289.7 2.50624 3.74831 0
M  V30 13885 C 1288.36 2.90587 3.83552 0
M  V30 13886 C 1290.71 3.45377 3.90339 0
M  V30 13887 C 1288.04 4.24276 4.05225 0
M  V30 13888 C 1290.39 4.78734 4.13517 0
M  V30 13889 C 1289.06 5.18427 4.20464 0
M  V30 13890 H 1288.33 0.24946 0.697747 0
M  V30 13891 H 1290.97 1.25892 1.44304 0
M  V30 13892 H 1289.28 0.384756 3.89906 0
M  V30 13893 H 1290.98 0.774488 3.9345 0
M  V30 13894 H 1287.57 2.18651 3.68632 0
M  V30 13895 H 1291.75 3.15669 3.82971 0
M  V30 13896 H 1287.01 4.54605 4.08833 0
M  V30 13897 H 1291.18 5.52094 4.24459 0
M  V30 13898 H 1288.81 6.22034 4.3701 0
M  V30 13899 N 1290.38 -1.37203 0.775435 0
M  V30 13900 C 1291.61 -2.03868 0.352927 0
M  V30 13901 C 1292.02 -1.58482 -1.0261 0
M  V30 13902 O 1291.38 -0.767772 -1.65564 0
M  V30 13903 C 1291.43 -3.59378 0.39116 0
M  V30 13904 O 1291.15 -4.03103 1.71579 0
M  V30 13905 C 1292.65 -4.4328 -0.0424808 0
M  V30 13906 H 1289.87 -0.654619 0.14736 0
M  V30 13907 H 1292.42 -1.75463 1.05039 0
M  V30 13908 H 1290.57 -3.86542 -0.257752 0
M  V30 13909 H 1290.99 -4.9764 1.65695 0
M  V30 13910 H 1292.46 -5.51989 0.0354215 0
M  V30 13911 H 1292.94 -4.25374 -1.09333 0
M  V30 13912 H 1293.54 -4.21349 0.578384 0
M  V30 13913 N 1291.86 -0.526279 -1.48553 0
M  V30 13914 C 1292.81 0.251938 -2.31232 0
M  V30 13915 C 1293.8 0.938991 -1.40994 0
M  V30 13916 O 1295.01 0.863798 -1.57919 0
M  V30 13917 H 1291.38 0.100114 -0.745306 0
M  V30 13918 H 1293.35 -0.465013 -2.94754 0
M  V30 13919 C 1292.1 1.28816 -3.22958 0
M  V30 13920 H 1291.43 0.768899 -3.92337 0
M  V30 13921 H 1292.87 1.80417 -3.837 0
M  V30 13922 C 1291.32 2.31982 -2.44307 0
M  V30 13923 O 1291.85 3.3835 -2.16523 0
M  V30 13924 N 1290.06 2.051 -2.05869 0
M  V30 13925 H 1289.61 1.18618 -2.28665 0
M  V30 13926 H 1289.57 2.74349 -1.53557 0
M  V30 13927 N 1293.34 1.5542 -0.261239 0
M  V30 13928 C 1294.56 2.04142 0.366144 0
M  V30 13929 C 1294.99 1.13884 1.49706 0
M  V30 13930 O 1294.35 0.134629 1.80799 0
M  V30 13931 C 1294.39 3.50733 0.837774 0
M  V30 13932 O 1293.5 3.63588 1.94621 0
M  V30 13933 H 1292.84 0.659424 0.077821 0
M  V30 13934 H 1295.37 2.0082 -0.391487 0
M  V30 13935 H 1295.38 3.91831 1.13721 0
M  V30 13936 H 1294.05 4.15899 0.0102742 0
M  V30 13937 H 1292.63 3.34391 1.65037 0
M  V30 13938 N 1294.82 -0.0116844 1.57596 0
M  V30 13939 C 1296.23 -0.55604 1.78228 0
M  V30 13940 C 1296.58 -1.74624 0.894474 0
M  V30 13941 O 1295.7 -2.16196 0.0938498 0
M  V30 13942 C 1296.3 -1.0155 3.23223 0
M  V30 13943 C 1294.86 -1.50525 3.44992 0
M  V30 13944 C 1294 -0.451133 2.73606 0
M  V30 13945 H 1296.95 0.214516 1.57243 0
M  V30 13946 H 1296.98 -1.88208 3.30693 0
M  V30 13947 H 1296.49 -0.149048 3.87814 0
M  V30 13948 H 1294.59 -2.39298 2.856 0
M  V30 13949 H 1294.7 -1.54076 4.53649 0
M  V30 13950 H 1293.07 -0.910135 2.37884 0
M  V30 13951 H 1293.85 0.406152 3.40889 0
M  V30 13952 N 1296.29 -1.55015 -0.284256 0
M  V30 13953 C 1297.52 -1.79102 -1.03586 0
M  V30 13954 C 1297.94 -0.558733 -1.80343 0
M  V30 13955 O 1297.29 0.471925 -1.76293 0
M  V30 13956 C 1297.34 -3.00915 -2.0033 0
M  V30 13957 O 1297.07 -4.19384 -1.26685 0
M  V30 13958 C 1298.57 -3.3752 -2.87394 0
M  V30 13959 H 1295.79 -0.596912 -0.306491 0
M  V30 13960 H 1298.33 -2.02005 -0.31845 0
M  V30 13961 H 1296.49 -2.80171 -2.67549 0
M  V30 13962 H 1296.9 -4.88175 -1.91796 0
M  V30 13963 H 1298.37 -4.25953 -3.51095 0
M  V30 13964 H 1298.85 -2.56418 -3.56576 0
M  V30 13965 H 1299.46 -3.60483 -2.25682 0
M  V30 13966 N 1297.77 0.548248 -1.47757 0
M  V30 13967 C 1299.02 1.30501 -1.54841 0
M  V30 13968 C 1299.35 1.93314 -0.214476 0
M  V30 13969 O 1298.6 1.7889 0.793526 0
M  V30 13970 C 1298.9 2.42911 -2.62162 0
M  V30 13971 C 1298.57 1.97871 -4.05164 0
M  V30 13972 C 1297.23 1.85304 -4.4409 0
M  V30 13973 C 1299.58 1.63606 -4.94856 0
M  V30 13974 C 1296.91 1.36781 -5.70533 0
M  V30 13975 C 1299.26 1.16552 -6.2177 0
M  V30 13976 C 1297.92 1.02588 -6.5957 0
M  V30 13977 H 1297.19 0.477536 -0.566604 0
M  V30 13978 H 1299.84 0.613837 -1.81395 0
M  V30 13979 H 1298.15 3.17622 -2.29398 0
M  V30 13980 H 1299.84 3.01078 -2.64864 0
M  V30 13981 H 1296.43 2.08597 -3.74413 0
M  V30 13982 H 1300.62 1.72184 -4.65474 0
M  V30 13983 H 1295.87 1.24641 -5.9856 0
M  V30 13984 H 1300.05 0.891041 -6.90676 0
M  V30 13985 H 1297.67 0.647675 -7.57436 0
M  V30 13986 N 1299.25 1.36039 0.795694 0
M  V30 13987 C 1300.18 1.32528 1.92246 0
M  V30 13988 C 1301.16 0.197805 1.68946 0
M  V30 13989 O 1302.35 0.394474 1.90151 0
M  V30 13990 C 1299.48 1.10748 3.29169 0
M  V30 13991 C 1298.43 2.20253 3.66978 0
M  V30 13992 C 1297.76 1.83624 5.02181 0
M  V30 13993 C 1299.06 3.62296 3.76216 0
M  V30 13994 H 1300.75 2.2681 1.95442 0
M  V30 13995 H 1298.3 1.09181 0.938908 0
M  V30 13996 H 1300.25 1.06929 4.07608 0
M  V30 13997 H 1298.97 0.129141 3.26345 0
M  V30 13998 H 1297.63 2.23187 2.90832 0
M  V30 13999 H 1297.28 0.843804 4.95872 0
M  V30 14000 H 1296.98 2.56935 5.28449 0
M  V30 14001 H 1298.5 1.81349 5.83048 0
M  V30 14002 H 1299.92 3.61623 4.44861 0
M  V30 14003 H 1298.31 4.34459 4.13963 0
M  V30 14004 H 1299.38 3.97657 2.77483 0
M  V30 14005 N 1300.73 -1.01913 1.20215 0
M  V30 14006 C 1301.64 -2.13864 0.964328 0
M  V30 14007 C 1302.65 -1.73821 -0.0789556 0
M  V30 14008 O 1303.83 -2.01111 0.107914 0
M  V30 14009 C 1300.9 -3.42827 0.516757 0
M  V30 14010 C 1299.96 -3.97127 1.63059 0
M  V30 14011 C 1299.19 -5.19935 1.20428 0
M  V30 14012 O 1299.41 -5.70355 0.0719119 0
M  V30 14013 O 1298.35 -5.67322 2.01071 0
M  V30 14014 H 1302.17 -2.36795 1.90162 0
M  V30 14015 H 1299.76 -1.1226 0.985803 0
M  V30 14016 H 1301.64 -4.20493 0.276272 0
M  V30 14017 H 1300.31 -3.21318 -0.391983 0
M  V30 14018 H 1299.22 -3.20752 1.92533 0
M  V30 14019 H 1300.55 -4.2302 2.51624 0
M  V30 14020 N 1302.21 -1.00763 -1.2118 0
M  V30 14021 C 1303.45 -0.692851 -1.90598 0
M  V30 14022 C 1303.79 0.774698 -1.78079 0
M  V30 14023 O 1303.06 1.56186 -1.15914 0
M  V30 14024 C 1303.34 -1.11792 -3.42308 0
M  V30 14025 C 1303.2 -2.64511 -3.63805 0
M  V30 14026 C 1304.52 -0.682314 -4.34779 0
M  V30 14027 H 1301.63 -0.253175 -0.69215 0
M  V30 14028 H 1304.28 -1.25378 -1.4276 0
M  V30 14029 H 1302.43 -0.640665 -3.83181 0
M  V30 14030 H 1304.1 -3.20021 -3.32242 0
M  V30 14031 H 1302.34 -3.05903 -3.0758 0
M  V30 14032 H 1303.01 -2.89306 -4.70113 0
M  V30 14033 H 1305.49 -1.09247 -4.01503 0
M  V30 14034 H 1304.36 -1.00787 -5.39568 0
M  V30 14035 H 1304.63 0.416441 -4.40134 0
M  V30 14036 N 1303.68 1.3679 -0.7827 0
M  V30 14037 C 1304.61 2.32721 -0.190604 0
M  V30 14038 C 1305.6 1.56321 0.670663 0
M  V30 14039 O 1306.78 1.84507 0.605871 0
M  V30 14040 C 1303.91 3.40564 0.680717 0
M  V30 14041 C 1302.86 4.27925 -0.080118 0
M  V30 14042 C 1302.19 5.26876 0.911361 0
M  V30 14043 C 1303.49 5.06738 -1.26545 0
M  V30 14044 H 1305.18 2.82488 -0.992023 0
M  V30 14045 H 1302.73 1.35818 -0.478484 0
M  V30 14046 H 1304.68 4.06659 1.10482 0
M  V30 14047 H 1303.41 2.89348 1.51477 0
M  V30 14048 H 1302.07 3.63376 -0.485125 0
M  V30 14049 H 1301.71 4.71936 1.74026 0
M  V30 14050 H 1301.41 5.8619 0.406762 0
M  V30 14051 H 1302.94 5.95846 1.33418 0
M  V30 14052 H 1304.35 5.65911 -0.917448 0
M  V30 14053 H 1302.75 5.75432 -1.70289 0
M  V30 14054 H 1303.82 4.38772 -2.06415 0
M  V30 14055 N 1305.16 0.53415 1.48272 0
M  V30 14056 C 1306.07 -0.230062 2.33469 0
M  V30 14057 C 1307.09 -0.934889 1.46751 0
M  V30 14058 O 1308.26 -0.908921 1.79724 0
M  V30 14059 C 1305.33 -1.2609 3.22958 0
M  V30 14060 C 1304.39 -0.565983 4.25553 0
M  V30 14061 C 1303.62 -1.54771 5.10766 0
M  V30 14062 O 1303.85 -2.7807 4.9803 0
M  V30 14063 O 1302.78 -1.08482 5.92043 0
M  V30 14064 H 1306.61 0.468182 3.0007 0
M  V30 14065 H 1304.19 0.29502 1.46458 0
M  V30 14066 H 1306.07 -1.85652 3.783 0
M  V30 14067 H 1304.75 -1.94148 2.59014 0
M  V30 14068 H 1303.66 0.0702391 3.74034 0
M  V30 14069 H 1304.99 0.0727277 4.92146 0
M  V30 14070 N 1306.64 -1.55279 0.269478 0
M  V30 14071 C 1307.55 -2.25965 -0.63065 0
M  V30 14072 C 1308.57 -1.28357 -1.17476 0
M  V30 14073 O 1309.74 -1.61281 -1.20625 0
M  V30 14074 C 1306.81 -2.96263 -1.80081 0
M  V30 14075 C 1305.87 -4.09336 -1.29394 0
M  V30 14076 C 1305.1 -4.76272 -2.40833 0
M  V30 14077 O 1305.32 -4.42389 -3.60066 0
M  V30 14078 O 1304.26 -5.64334 -2.09309 0
M  V30 14079 H 1308.08 -3.03644 -0.0582069 0
M  V30 14080 H 1305.67 -1.49354 0.0370966 0
M  V30 14081 H 1307.55 -3.40461 -2.48322 0
M  V30 14082 H 1306.23 -2.21505 -2.36045 0
M  V30 14083 H 1305.13 -3.69605 -0.578154 0
M  V30 14084 H 1306.47 -4.85978 -0.780117 0
M  V30 14085 N 1308.12 0.00332656 -1.576 0
M  V30 14086 C 1309.37 0.688869 -1.90423 0
M  V30 14087 C 1309.69 1.73963 -0.869896 0
M  V30 14088 O 1308.95 1.95295 0.125777 0
M  V30 14089 C 1309.25 1.37237 -3.30001 0
M  V30 14090 C 1308.91 0.455132 -4.48597 0
M  V30 14091 C 1307.58 0.202577 -4.80773 0
M  V30 14092 C 1309.93 -0.176597 -5.20901 0
M  V30 14093 C 1307.26 -0.690055 -5.82628 0
M  V30 14094 C 1309.61 -1.05708 -6.23705 0
M  V30 14095 C 1308.27 -1.31885 -6.54341 0
M  V30 14096 H 1307.54 0.252075 -0.696806 0
M  V30 14097 H 1310.19 -0.0514867 -1.91431 0
M  V30 14098 H 1308.49 2.18669 -3.25102 0
M  V30 14099 H 1310.19 1.9088 -3.52656 0
M  V30 14100 H 1306.78 0.662142 -4.23454 0
M  V30 14101 H 1310.96 0.0055127 -4.963 0
M  V30 14102 H 1306.22 -0.900902 -6.04726 0
M  V30 14103 H 1310.39 -1.55296 -6.78864 0
M  V30 14104 H 1308.02 -2.01222 -7.33085 0
M  V30 14105 N 1309.6 1.55164 0.276031 0
M  V30 14106 C 1311.01 1.66367 0.847293 0
M  V30 14107 C 1311.36 0.588692 1.8716 0
M  V30 14108 O 1310.48 -0.27035 2.14705 0
M  V30 14109 C 1311.08 3.01593 1.5436 0
M  V30 14110 C 1309.64 3.14833 2.06293 0
M  V30 14111 C 1308.78 2.62152 0.903959 0
M  V30 14112 H 1311.74 1.58613 0.0524478 0
M  V30 14113 H 1311.76 2.94412 2.41043 0
M  V30 14114 H 1311.27 3.7981 0.797849 0
M  V30 14115 H 1309.37 2.41384 2.83839 0
M  V30 14116 H 1309.48 4.21353 2.28032 0
M  V30 14117 H 1307.85 2.19233 1.29649 0
M  V30 14118 H 1308.63 3.4287 0.171765 0
M  V30 14119 N 1311.07 -0.540404 1.48045 0
M  V30 14120 C 1312.3 -1.32656 1.59427 0
M  V30 14121 C 1312.72 -1.86419 0.250924 0
M  V30 14122 O 1312.08 -1.63861 -0.775838 0
M  V30 14123 C 1312.13 -2.46062 2.63602 0
M  V30 14124 O 1311.23 -3.48794 2.20038 0
M  V30 14125 H 1310.58 -0.393334 0.534962 0
M  V30 14126 H 1313.11 -0.651363 1.93955 0
M  V30 14127 H 1313.12 -2.92396 2.84549 0
M  V30 14128 H 1311.79 -2.06291 3.61133 0
M  V30 14129 H 1310.37 -3.0865 2.0926 0
M  V30 14130 N 1312.55 -1.36459 -0.788468 0
M  V30 14131 C 1313.48 -1.33545 -1.91541 0
M  V30 14132 C 1314.46 -0.206762 -1.68839 0
M  V30 14133 O 1315.65 -0.404553 -1.89939 0
M  V30 14134 C 1312.78 -1.12492 -3.28577 0
M  V30 14135 C 1311.73 -2.22196 -3.65805 0
M  V30 14136 C 1311.06 -1.86285 -5.01201 0
M  V30 14137 C 1312.36 -3.64286 -3.7429 0
M  V30 14138 H 1314.05 -2.27844 -1.94236 0
M  V30 14139 H 1311.6 -1.09677 -0.933105 0
M  V30 14140 H 1313.55 -1.09089 -4.07035 0
M  V30 14141 H 1312.28 -0.146446 -3.26272 0
M  V30 14142 H 1310.93 -2.24727 -2.89644 0
M  V30 14143 H 1310.58 -0.87009 -4.95417 0
M  V30 14144 H 1310.28 -2.59734 -5.27079 0
M  V30 14145 H 1311.81 -1.84439 -5.82078 0
M  V30 14146 H 1313.22 -3.63977 -4.42937 0
M  V30 14147 H 1311.62 -4.36648 -4.11653 0
M  V30 14148 H 1312.69 -3.99123 -2.75371 0
M  V30 14149 N 1314.03 1.01274 -1.20754 0
M  V30 14150 C 1315.45 1.27256 -0.963221 0
M  V30 14151 C 1315.65 1.98349 0.354972 0
M  V30 14152 O 1314.7 2.28116 1.08255 0
M  V30 14153 C 1316.02 2.1038 -2.14851 0
M  V30 14154 C 1317.56 2.23633 -2.18991 0
M  V30 14155 C 1318.04 3.10136 -3.37016 0
M  V30 14156 N 1319.53 3.17724 -3.37054 0
M  V30 14157 C 1320.26 3.84891 -4.25025 0
M  V30 14158 N 1319.76 4.54152 -5.23181 0
M  V30 14159 N 1321.55 3.81454 -4.12855 0
M  V30 14160 H 1313.7 0.535534 -2.05538 0
M  V30 14161 H 1315.97 0.299006 -0.899611 0
M  V30 14162 H 1315.67 1.65484 -3.10335 0
M  V30 14163 H 1315.55 3.11122 -2.13267 0
M  V30 14164 H 1317.93 2.67753 -1.24067 0
M  V30 14165 H 1318.02 1.22387 -2.24622 0
M  V30 14166 H 1317.66 2.66721 -4.32229 0
M  V30 14167 H 1317.59 4.11478 -3.28623 0
M  V30 14168 H 1320.08 2.68412 -2.66014 0
M  V30 14169 H 1320.39 5.03084 -5.86623 0
M  V30 14170 H 1318.74 4.52964 -5.27113 0
M  V30 14171 H 1321.93 3.26494 -3.35439 0
M  V30 14172 H 1322.1 4.33523 -4.81624 0
M  V30 14173 N 1315.51 1.01404 1.20644 0
M  V30 14174 C 1316.76 0.702949 1.90227 0
M  V30 14175 C 1317.09 -0.765243 1.78487 0
M  V30 14176 O 1316.36 -1.55569 1.16741 0
M  V30 14177 C 1316.65 1.13606 3.4171 0
M  V30 14178 C 1316.5 2.66437 3.62397 0
M  V30 14179 C 1317.82 0.705361 4.34411 0
M  V30 14180 H 1314.94 0.256842 0.690797 0
M  V30 14181 H 1317.58 1.26133 1.42093 0
M  V30 14182 H 1315.73 0.660977 3.82836 0
M  V30 14183 H 1317.4 3.21778 3.3054 0
M  V30 14184 H 1315.64 3.0753 3.05954 0
M  V30 14185 H 1316.32 2.91795 4.68572 0
M  V30 14186 H 1318.79 1.11375 4.00918 0
M  V30 14187 H 1317.67 1.03647 5.39026 0
M  V30 14188 H 1317.93 -0.393094 4.40349 0
M  V30 14189 N 1316.99 -1.36373 0.789944 0
M  V30 14190 C 1318.21 -2.04011 0.373396 0
M  V30 14191 C 1318.64 -1.59171 -1.00231 0
M  V30 14192 O 1318 -0.760431 -1.64582 0
M  V30 14193 C 1318.04 -3.5783 0.446083 0
M  V30 14194 O 1317.15 -4.08759 -0.54678 0
M  V30 14195 H 1316.49 -0.644807 0.158495 0
M  V30 14196 H 1319.02 -1.74317 1.0712 0
M  V30 14197 H 1319.03 -4.06822 0.309877 0
M  V30 14198 H 1317.7 -3.89819 1.44962 0
M  V30 14199 H 1316.28 -3.71038 -0.372192 0
M  V30 14200 N 1318.47 -0.542005 -1.47987 0
M  V30 14201 C 1319.43 0.203537 -2.28294 0
M  V30 14202 C 1320.43 0.856762 -1.36074 0
M  V30 14203 O 1321.62 0.71496 -1.58852 0
M  V30 14204 C 1318.75 1.29581 -3.15312 0
M  V30 14205 H 1319.94 -0.501701 -2.95674 0
M  V30 14206 H 1317.5 -0.298378 -1.53426 0
M  V30 14207 H 1318.23 2.03393 -2.5259 0
M  V30 14208 H 1318.02 0.832398 -3.83163 0
M  V30 14209 H 1319.51 1.81988 -3.75859 0
M  V30 14210 N 1319.94 1.55134 -0.277709 0
M  V30 14211 C 1321.19 1.99259 0.337662 0
M  V30 14212 C 1321.51 1.16755 1.56183 0
M  V30 14213 O 1320.78 0.257707 1.94198 0
M  V30 14214 H 1319.36 0.735995 0.127751 0
M  V30 14215 H 1322.02 1.91087 -0.383646 0
M  V30 14216 H 1321.12 3.05763 0.625747 0
M  V30 14217 N 1321.42 0.00503138 1.57599 0
M  V30 14218 C 1322.67 -0.678761 1.90785 0
M  V30 14219 C 1323 -1.73499 0.87911 0
M  V30 14220 O 1322.25 -1.95359 -0.115418 0
M  V30 14221 C 1322.55 -1.35485 3.30724 0
M  V30 14222 C 1322.22 -0.431335 4.48832 0
M  V30 14223 C 1320.88 -0.177078 4.80874 0
M  V30 14224 C 1323.23 0.204219 5.208 0
M  V30 14225 C 1320.56 0.720944 5.82254 0
M  V30 14226 C 1322.91 1.09015 6.23136 0
M  V30 14227 C 1321.57 1.35353 6.53633 0
M  V30 14228 H 1320.84 -0.248376 0.698133 0
M  V30 14229 H 1323.49 0.061638 1.91401 0
M  V30 14230 H 1321.8 -2.16942 3.26257 0
M  V30 14231 H 1323.49 -1.89007 3.53663 0
M  V30 14232 H 1320.08 -0.639676 4.238 0
M  V30 14233 H 1324.27 0.0208074 4.96296 0
M  V30 14234 H 1319.52 0.93296 6.0424 0
M  V30 14235 H 1323.7 1.58894 6.78031 0
M  V30 14236 H 1321.32 2.05107 7.32008 0
M  V30 14237 N 1322.9 -1.55308 -0.267798 0
M  V30 14238 C 1323.83 -1.91555 -1.33525 0
M  V30 14239 C 1324.81 -0.778001 -1.51265 0
M  V30 14240 O 1326 -1.03657 -1.64222 0
M  V30 14241 C 1323.13 -2.19201 -2.69385 0
M  V30 14242 C 1322.08 -3.3501 -2.66369 0
M  V30 14243 C 1321.41 -3.48148 -4.05829 0
M  V30 14244 C 1322.71 -4.71265 -2.25182 0
M  V30 14245 H 1324.4 -2.80965 -1.03437 0
M  V30 14246 H 1321.95 -1.35183 -0.496141 0
M  V30 14247 H 1323.9 -2.43146 -3.44177 0
M  V30 14248 H 1322.62 -1.26596 -3.01067 0
M  V30 14249 H 1321.28 -3.11041 -1.94034 0
M  V30 14250 H 1320.93 -2.53 -4.34741 0
M  V30 14251 H 1320.63 -4.26014 -4.04704 0
M  V30 14252 H 1322.15 -3.74391 -4.82352 0
M  V30 14253 H 1323.57 -4.94719 -2.89699 0
M  V30 14254 H 1321.96 -5.52084 -2.3521 0
M  V30 14255 H 1323.03 -4.69735 -1.20319 0
M  V30 14256 N 1324.38 0.532545 -1.4833 0
M  V30 14257 C 1325.31 1.64662 -1.65555 0
M  V30 14258 C 1326.29 1.62447 -0.50447 0
M  V30 14259 O 1327.47 1.79684 -0.736712 0
M  V30 14260 C 1324.6 3.03256 -1.69272 0
M  V30 14261 C 1323.56 3.20329 -2.83854 0
M  V30 14262 C 1322.88 4.59958 -2.72659 0
M  V30 14263 C 1324.18 3.03345 -4.25181 0
M  V30 14264 H 1325.88 1.50502 -2.58823 0
M  V30 14265 H 1323.42 0.722612 -1.24556 0
M  V30 14266 H 1325.38 3.81064 -1.79911 0
M  V30 14267 H 1324.1 3.18433 -0.725805 0
M  V30 14268 H 1322.76 2.44937 -2.72766 0
M  V30 14269 H 1322.41 4.71967 -1.73942 0
M  V30 14270 H 1322.11 4.72327 -3.49544 0
M  V30 14271 H 1323.63 5.39869 -2.85262 0
M  V30 14272 H 1325.05 3.70948 -4.37116 0
M  V30 14273 H 1323.44 3.27208 -5.03045 0
M  V30 14274 H 1324.51 1.998 -4.41824 0
M  V30 14275 N 1325.86 1.36875 0.78122 0
M  V30 14276 C 1327.08 1.349 1.57533 0
M  V30 14277 C 1327.51 -0.0655249 1.87986 0
M  V30 14278 O 1326.86 -1.03986 1.48515 0
M  V30 14279 C 1326.91 2.18562 2.86815 0
M  V30 14280 O 1326.02 1.58374 3.80777 0
M  V30 14281 H 1325.36 0.461355 0.477543 0
M  V30 14282 H 1327.89 1.80271 0.96766 0
M  V30 14283 H 1327.9 2.31436 3.36008 0
M  V30 14284 H 1326.57 3.21385 2.63978 0
M  V30 14285 H 1325.15 1.54487 3.39394 0
M  V30 14286 N 1327.33 -1.00632 1.21289 0
M  V30 14287 C 1328.27 -2.0954 0.928753 0
M  V30 14288 C 1329.28 -1.62565 -0.0875212 0
M  V30 14289 O 1330.47 -1.77912 0.144808 0
M  V30 14290 C 1327.57 -3.36844 0.37276 0
M  V30 14291 C 1326.74 -4.1291 1.44305 0
M  V30 14292 C 1325.8 -5.18506 0.896534 0
M  V30 14293 O 1324.83 -5.46841 1.57966 0
M  V30 14294 N 1326.03 -5.79781 -0.288888 0
M  V30 14295 H 1328.79 -2.34499 1.86629 0
M  V30 14296 H 1326.35 -1.17104 1.11796 0
M  V30 14297 H 1328.35 -4.04699 -0.00722737 0
M  V30 14298 H 1326.92 -3.09053 -0.469572 0
M  V30 14299 H 1326.14 -3.39876 1.99694 0
M  V30 14300 H 1327.42 -4.60508 2.16356 0
M  V30 14301 H 1326.82 -5.5911 -0.860951 0
M  V30 14302 H 1325.38 -6.48936 -0.6104 0
M  V30 14303 N 1328.81 -1.02043 -1.20104 0
M  V30 14304 C 1329.74 -0.614421 -2.25271 0
M  V30 14305 C 1330.72 0.37242 -1.65973 0
M  V30 14306 O 1331.91 0.257005 -1.92492 0
M  V30 14307 C 1329.04 0.0442085 -3.47272 0
M  V30 14308 C 1327.99 -0.864019 -4.19188 0
M  V30 14309 C 1327.32 -0.0709551 -5.34653 0
M  V30 14310 C 1328.62 -2.17385 -4.74912 0
M  V30 14311 H 1330.31 -1.49355 -2.59487 0
M  V30 14312 H 1327.86 -0.719591 -1.24731 0
M  V30 14313 H 1329.81 0.339825 -4.20028 0
M  V30 14314 H 1328.53 0.958082 -3.12231 0
M  V30 14315 H 1327.19 -1.1437 -3.48303 0
M  V30 14316 H 1326.84 0.844688 -4.95857 0
M  V30 14317 H 1326.54 -0.67583 -5.83701 0
M  V30 14318 H 1328.07 0.218118 -6.1021 0
M  V30 14319 H 1329.48 -1.94034 -5.39466 0
M  V30 14320 H 1327.88 -2.72991 -5.34412 0
M  V30 14321 H 1328.95 -2.83427 -3.93443 0
M  V30 14322 N 1330.29 1.35952 -0.797165 0
M  V30 14323 C 1331.7 1.81554 -0.435311 0
M  V30 14324 C 1332.05 1.66266 1.04164 0
M  V30 14325 O 1331.18 1.18796 1.80877 0
M  V30 14326 C 1331.77 3.29619 -0.783358 0
M  V30 14327 C 1330.33 3.73401 -0.47423 0
M  V30 14328 C 1329.48 2.58098 -1.01394 0
M  V30 14329 H 1332.43 1.24064 -0.989638 0
M  V30 14330 H 1332.45 3.80421 -0.0773381 0
M  V30 14331 H 1331.96 3.40715 -1.85836 0
M  V30 14332 H 1330.06 3.6786 0.592418 0
M  V30 14333 H 1330.18 4.68542 -1.00026 0
M  V30 14334 H 1328.54 2.50927 -0.436747 0
M  V30 14335 H 1329.32 2.71976 -2.09485 0
M  V30 14336 N 1331.77 0.549846 1.47697 0
M  V30 14337 C 1333.02 0.0209424 2.01689 0
M  V30 14338 C 1333.33 -1.33417 1.43036 0
M  V30 14339 O 1334.54 -1.95257 1.88646 0
M  V30 14340 C 1332.99 -0.0130171 3.59898 0
M  V30 14341 C 1332.6 1.3384 4.2754 0
M  V30 14342 C 1334.34 -0.489701 4.21666 0
M  V30 14343 C 1332.25 1.26395 5.77735 0
M  V30 14344 H 1331.18 0.00405885 0.753989 0
M  V30 14345 H 1333.83 0.696599 1.69764 0
M  V30 14346 H 1332.21 -0.754168 3.88752 0
M  V30 14347 H 1333.39 2.09668 4.10336 0
M  V30 14348 H 1331.7 1.75242 3.77729 0
M  V30 14349 H 1334.3 -0.563684 5.31721 0
M  V30 14350 H 1334.64 -1.50004 3.88336 0
M  V30 14351 H 1335.18 0.196366 3.97315 0
M  V30 14352 H 1331.92 2.25005 6.15673 0
M  V30 14353 H 1331.44 0.547353 5.97297 0
M  V30 14354 H 1333.11 0.962918 6.39794 0
M  V30 14355 N 1333.25 -1.54984 0.285932 0
M  V30 14356 C 1334.18 -2.25916 -0.590259 0
M  V30 14357 C 1335.16 -1.25319 -1.15018 0
M  V30 14358 O 1336.34 -1.54062 -1.18231 0
M  V30 14359 C 1333.47 -2.98849 -1.76936 0
M  V30 14360 C 1332.43 -4.06466 -1.3405 0
M  V30 14361 C 1331.75 -4.67032 -2.60356 0
M  V30 14362 C 1333.05 -5.20064 -0.482754 0
M  V30 14363 H 1334.75 -2.994 0.00131571 0
M  V30 14364 H 1332.29 -1.44 0.00207281 0
M  V30 14365 H 1334.25 -3.47186 -2.3883 0
M  V30 14366 H 1332.97 -2.22918 -2.38694 0
M  V30 14367 H 1331.63 -3.58957 -0.7447 0
M  V30 14368 H 1331.28 -3.87757 -3.20396 0
M  V30 14369 H 1330.98 -5.39703 -2.32368 0
M  V30 14370 H 1332.5 -5.18124 -3.23079 0
M  V30 14371 H 1333.91 -5.64387 -1.00697 0
M  V30 14372 H 1332.31 -5.99363 -0.297291 0
M  V30 14373 H 1333.38 -4.82358 0.495861 0
M  V30 14374 N 1334.72 -0.0133892 -1.57594 0
M  V30 14375 C 1335.67 0.97367 -2.09257 0
M  V30 14376 C 1336.64 1.33298 -0.990998 0
M  V30 14377 O 1337.83 1.42903 -1.26425 0
M  V30 14378 C 1334.97 2.25603 -2.61147 0
M  V30 14379 C 1334.08 1.95456 -3.85254 0
M  V30 14380 C 1333.21 3.17871 -4.25596 0
M  V30 14381 C 1332.25 2.83471 -5.42504 0
M  V30 14382 N 1331.39 3.98464 -5.78075 0
M  V30 14383 H 1336.23 0.526189 -2.93318 0
M  V30 14384 H 1333.77 0.248148 -1.44992 0
M  V30 14385 H 1335.73 3.00587 -2.89315 0
M  V30 14386 H 1334.36 2.67995 -1.7994 0
M  V30 14387 H 1333.41 1.10781 -3.63912 0
M  V30 14388 H 1334.72 1.6611 -4.70328 0
M  V30 14389 H 1333.87 4.0119 -4.55117 0
M  V30 14390 H 1332.61 3.50365 -3.39257 0
M  V30 14391 H 1331.62 1.98562 -5.12692 0
M  V30 14392 H 1332.84 2.5221 -6.30529 0
M  V30 14393 H 1330.79 4.3083 -4.94694 0
M  V30 14394 H 1330.71 3.72688 -6.57753 0
M  V30 14395 H 1331.97 4.82532 -6.12195 0
M  V30 14396 N 1336.2 1.55448 0.259558 0
M  V30 14397 C 1337.61 1.67256 0.8296 0
M  V30 14398 C 1337.96 0.60851 1.86525 0
M  V30 14399 O 1337.09 -0.247563 2.14979 0
M  V30 14400 C 1337.68 3.03213 1.51152 0
M  V30 14401 C 1336.24 3.17004 2.02943 0
M  V30 14402 C 1335.39 2.63096 0.876103 0
M  V30 14403 H 1338.34 1.5866 0.0356218 0
M  V30 14404 H 1338.36 2.96952 2.37906 0
M  V30 14405 H 1337.87 3.80635 0.75752 0
M  V30 14406 H 1335.98 2.44381 2.81263 0
M  V30 14407 H 1336.09 4.23748 2.2355 0
M  V30 14408 H 1334.45 2.20596 1.27317 0
M  V30 14409 H 1335.24 3.43033 0.13539 0
M  V30 14410 N 1337.68 -0.524672 1.4861 0
M  V30 14411 C 1339.1 -0.853703 1.34848 0
M  V30 14412 C 1339.3 -1.98194 0.363529 0
M  V30 14413 O 1338.35 -2.51597 -0.213348 0
M  V30 14414 C 1339.67 -1.21622 2.75006 0
M  V30 14415 C 1341.21 -1.3258 2.83534 0
M  V30 14416 C 1341.69 -1.72172 4.24406 0
M  V30 14417 N 1343.18 -1.79265 4.27105 0
M  V30 14418 C 1343.91 -2.11296 5.33049 0
M  V30 14419 N 1343.41 -2.41714 6.49266 0
M  V30 14420 N 1345.2 -2.12347 5.20447 0
M  V30 14421 H 1337.35 0.219671 2.11261 0
M  V30 14422 H 1339.62 0.0356444 0.94733 0
M  V30 14423 H 1339.32 -0.460776 3.48669 0
M  V30 14424 H 1339.2 -2.16516 3.0887 0
M  V30 14425 H 1341.58 -2.072 2.10124 0
M  V30 14426 H 1341.67 -0.357943 2.53283 0
M  V30 14427 H 1341.31 -0.981108 4.98334 0
M  V30 14428 H 1341.24 -2.70017 4.52104 0
M  V30 14429 H 1343.73 -1.58013 3.43279 0
M  V30 14430 H 1344.04 -2.65276 7.25843 0
M  V30 14431 H 1342.39 -2.39222 6.52532 0
M  V30 14432 H 1345.58 -1.88044 4.28669 0
M  V30 14433 H 1345.75 -2.36978 6.03113 0
M  V30 14434 N 1339.16 -1.37287 -0.77395 0
M  V30 14435 C 1340.41 -1.32374 -1.53243 0
M  V30 14436 C 1340.73 0.0924284 -1.9428 0
M  V30 14437 O 1339.99 1.06517 -1.64173 0
M  V30 14438 C 1340.29 -2.20667 -2.81142 0
M  V30 14439 C 1339.95 -3.68975 -2.59168 0
M  V30 14440 C 1338.62 -4.09394 -2.52884 0
M  V30 14441 C 1340.97 -4.62941 -2.39447 0
M  V30 14442 C 1338.3 -5.41897 -2.24865 0
M  V30 14443 C 1340.65 -5.9568 -2.12952 0
M  V30 14444 C 1339.31 -6.35205 -2.05111 0
M  V30 14445 H 1338.58 -0.48439 -0.560756 0
M  V30 14446 H 1341.23 -1.69475 -0.891663 0
M  V30 14447 H 1339.53 -1.76553 -3.49766 0
M  V30 14448 H 1341.23 -2.1418 -3.3901 0
M  V30 14449 H 1337.82 -3.36919 -2.64922 0
M  V30 14450 H 1342 -4.32576 -2.43293 0
M  V30 14451 H 1337.26 -5.71486 -2.17288 0
M  V30 14452 H 1341.43 -6.68046 -1.9669 0
M  V30 14453 H 1339.06 -7.37804 -1.83163 0
M  V30 14454 N 1340.64 0.999871 -1.21821 0
M  V30 14455 C 1341.87 1.77148 -1.06312 0
M  V30 14456 C 1342.27 1.85142 0.389747 0
M  V30 14457 O 1341.62 1.31562 1.28207 0
M  V30 14458 C 1341.68 3.22367 -1.59122 0
M  V30 14459 C 1341.34 3.37937 -3.07649 0
M  V30 14460 C 1342.34 3.25808 -4.05148 0
M  V30 14461 C 1340.03 3.63213 -3.46961 0
M  V30 14462 C 1342.02 3.38729 -5.39946 0
M  V30 14463 C 1339.71 3.75775 -4.81909 0
M  V30 14464 C 1340.7 3.6354 -5.78211 0
M  V30 14465 O 1340.39 3.75694 -7.1071 0
M  V30 14466 H 1340.12 0.563396 -0.373578 0
M  V30 14467 H 1342.68 1.26627 -1.61724 0
M  V30 14468 H 1340.91 3.74047 -0.98111 0
M  V30 14469 H 1342.6 3.81219 -1.39379 0
M  V30 14470 H 1343.36 3.062 -3.76121 0
M  V30 14471 H 1339.24 3.71816 -2.72533 0
M  V30 14472 H 1342.79 3.29096 -6.15095 0
M  V30 14473 H 1338.68 3.94889 -5.1062 0
M  V30 14474 H 1339.45 3.9261 -7.18192 0
M  V30 14475 N 1342.11 1.02678 1.19562 0
M  V30 14476 C 1343.34 0.741424 1.93695 0
M  V30 14477 C 1343.76 -0.693203 1.74861 0
M  V30 14478 O 1343.12 -1.47833 1.04953 0
M  V30 14479 C 1343.17 1.09514 3.43568 0
M  V30 14480 O 1342.27 0.212596 4.11852 0
M  V30 14481 H 1341.62 0.274128 0.604773 0
M  V30 14482 H 1344.15 1.37289 1.517 0
M  V30 14483 H 1344.16 1.05115 3.94227 0
M  V30 14484 H 1342.83 2.14034 3.56598 0
M  V30 14485 H 1341.41 0.315 3.71567 0
M  V30 14486 N 1343.59 -1.35528 0.804364 0
M  V30 14487 C 1344.84 -1.98084 0.380196 0
M  V30 14488 C 1345.15 -1.64531 -1.05778 0
M  V30 14489 O 1346.36 -2.20435 -1.58495 0
M  V30 14490 C 1344.82 -3.54364 0.628848 0
M  V30 14491 C 1344.42 -3.96828 2.07921 0
M  V30 14492 C 1346.17 -4.23641 0.269927 0
M  V30 14493 C 1344.08 -5.45944 2.27374 0
M  V30 14494 H 1343.01 -0.741185 0.138422 0
M  V30 14495 H 1345.66 -1.54624 0.988107 0
M  V30 14496 H 1344.04 -3.9597 -0.0489837 0
M  V30 14497 H 1345.21 -3.6638 2.79467 0
M  V30 14498 H 1343.53 -3.40433 2.39779 0
M  V30 14499 H 1346.12 -5.33251 0.393344 0
M  V30 14500 H 1346.47 -4.08858 -0.783644 0
M  V30 14501 H 1347 -3.87448 0.901588 0
M  V30 14502 H 1343.74 -5.65693 3.31168 0
M  V30 14503 H 1343.26 -5.77969 1.6035 0
M  V30 14504 H 1344.94 -6.12376 2.08817 0
M  V30 14505 N 1345.07 -0.557671 -1.47404 0
M  V30 14506 C 1346.3 -0.0366797 -2.07368 0
M  V30 14507 C 1346.72 1.2478 -1.40754 0
M  V30 14508 O 1346.08 1.74757 -0.48268 0
M  V30 14509 C 1346.13 0.141728 -3.60321 0
M  V30 14510 O 1345.23 1.20419 -3.94427 0
M  V30 14511 H 1344.57 -0.0515319 -0.661997 0
M  V30 14512 H 1347.1 -0.773485 -1.89416 0
M  V30 14513 H 1347.11 0.355787 -4.06446 0
M  V30 14514 H 1345.79 -0.796433 -4.08203 0
M  V30 14515 H 1344.36 0.970589 -3.60047 0
M  V30 14516 N 1346.55 1.54831 -0.294147 0
M  V30 14517 C 1347.77 2.04873 0.32276 0
M  V30 14518 C 1348.2 1.17034 1.47257 0
M  V30 14519 O 1347.56 0.172949 1.80473 0
M  V30 14520 C 1347.61 3.52431 0.76319 0
M  V30 14521 O 1346.71 3.67635 1.86865 0
M  V30 14522 H 1346.05 0.660926 0.0638162 0
M  V30 14523 H 1348.58 1.99944 -0.433995 0
M  V30 14524 H 1348.59 3.94155 1.05385 0
M  V30 14525 H 1347.27 4.15827 -0.0779464 0
M  V30 14526 H 1345.84 3.37816 1.57907 0
M  V30 14527 N 1348.03 0.0217466 1.57585 0
M  V30 14528 C 1349.25 -0.67246 1.96196 0
M  V30 14529 C 1349.68 -1.6529 0.897827 0
M  V30 14530 O 1349.04 -1.80743 -0.142002 0
M  V30 14531 C 1349.08 -1.36162 3.33905 0
M  V30 14532 O 1348.19 -2.47671 3.29747 0
M  V30 14533 H 1347.53 -0.177238 0.639908 0
M  V30 14534 H 1350.06 0.0814073 2.04438 0
M  V30 14535 H 1350.07 -1.7201 3.69968 0
M  V30 14536 H 1348.74 -0.642893 4.10901 0
M  V30 14537 H 1347.32 -2.13989 3.0539 0
M  V30 14538 N 1349.51 -1.55583 -0.251311 0
M  V30 14539 C 1350.92 -1.47908 -0.599606 0
M  V30 14540 C 1351.12 -0.711061 -1.88537 0
M  V30 14541 O 1350.18 -0.238639 -2.5137 0
M  V30 14542 C 1351.49 -2.92284 -0.706429 0
M  V30 14543 C 1353.04 -3.02629 -0.799049 0
M  V30 14544 C 1353.51 -4.48303 -0.93747 0
M  V30 14545 N 1355 -4.52222 -1.00245 0
M  V30 14546 C 1355.74 -5.62181 -1.12874 0
M  V30 14547 N 1355.24 -6.81958 -1.22085 0
M  V30 14548 N 1357.03 -5.49968 -1.16155 0
M  V30 14549 H 1349.18 -2.0396 0.592806 0
M  V30 14550 H 1351.44 -0.925797 0.203971 0
M  V30 14551 H 1351.15 -3.51297 0.168243 0
M  V30 14552 H 1351.02 -3.42524 -1.57979 0
M  V30 14553 H 1353.41 -2.43699 -1.66418 0
M  V30 14554 H 1353.49 -2.55607 0.099367 0
M  V30 14555 H 1353.13 -5.07842 -0.0769166 0
M  V30 14556 H 1353.06 -4.93002 -1.85086 0
M  V30 14557 H 1355.56 -3.65951 -0.94279 0
M  V30 14558 H 1355.87 -7.6151 -1.31616 0
M  V30 14559 H 1354.21 -6.84728 -1.1905 0
M  V30 14560 H 1357.4 -4.55327 -1.08604 0
M  V30 14561 H 1357.58 -6.35701 -1.25653 0
M  V30 14562 N 1350.98 0.516783 -1.48886 0
M  V30 14563 C 1352.26 1.27808 -1.48069 0
M  V30 14564 C 1352.64 2.10154 -0.19963 0
M  V30 14565 O 1351.99 2.13342 0.818386 0
M  V30 14566 C 1352.2 2.14828 -2.75045 0
M  V30 14567 C 1353.55 2.74536 -3.23906 0
M  V30 14568 O 1354.57 2.25107 -2.76053 0
M  V30 14569 O 1353.43 3.6448 -4.07206 0
M  V30 14570 H 1350.52 0.577535 -0.591931 0
M  V30 14571 H 1353.07 0.532351 -1.61134 0
M  V30 14572 H 1351.84 1.53852 -3.59785 0
M  V30 14573 H 1351.46 2.96624 -2.64764 0
M  V30 14574 N 1352.46 1.37696 0.766659 0
M  V30 14575 C 1353.41 1.30383 1.87041 0
M  V30 14576 C 1354.4 0.190643 1.59767 0
M  V30 14577 O 1355.59 0.425485 1.7181 0
M  V30 14578 C 1352.72 1.11817 3.2458 0
M  V30 14579 C 1351.8 2.27701 3.57789 0
M  V30 14580 N 1352.19 3.53108 3.62144 0
M  V30 14581 C 1350.49 2.19967 3.87983 0
M  V30 14582 C 1351.19 4.29555 3.92247 0
M  V30 14583 N 1350.17 3.58754 4.08408 0
M  V30 14584 H 1353.97 2.25348 1.88668 0
M  V30 14585 H 1351.48 1.30741 0.963362 0
M  V30 14586 H 1353.48 1.04663 4.03548 0
M  V30 14587 H 1352.14 0.177731 3.24213 0
M  V30 14588 H 1353.15 3.86949 3.44225 0
M  V30 14589 H 1349.83 1.34009 3.95408 0
M  V30 14590 H 1351.22 5.38112 4.0235 0
M  V30 14591 N 1353.94 -0.993397 1.22349 0
M  V30 14592 C 1355.17 -1.76838 1.07406 0
M  V30 14593 C 1355.58 -1.8503 -0.37542 0
M  V30 14594 O 1354.94 -1.32008 -1.26016 0
M  V30 14595 C 1354.99 -3.20177 1.67837 0
M  V30 14596 O 1354.71 -3.12429 3.07115 0
M  V30 14597 C 1356.21 -4.14125 1.58161 0
M  V30 14598 H 1353.43 -0.555379 0.376557 0
M  V30 14599 H 1355.98 -1.24893 1.61932 0
M  V30 14600 H 1354.13 -3.69191 1.17375 0
M  V30 14601 H 1354.55 -4.02568 3.36213 0
M  V30 14602 H 1356.02 -5.12455 2.05169 0
M  V30 14603 H 1356.5 -4.35892 0.538073 0
M  V30 14604 H 1357.1 -3.71008 2.07926 0
M  V30 14605 N 1355.42 -1.03311 -1.19015 0
M  V30 14606 C 1356.83 -0.761079 -1.70483 0
M  V30 14607 C 1357.18 0.718851 -1.82557 0
M  V30 14608 O 1356.3 1.56006 -1.4997 0
M  V30 14609 C 1356.9 -1.37492 -3.09647 0
M  V30 14610 C 1355.46 -1.15138 -3.58358 0
M  V30 14611 C 1354.61 -1.47034 -2.35109 0
M  V30 14612 H 1357.56 -1.2005 -1.03797 0
M  V30 14613 H 1357.58 -0.774115 -3.72542 0
M  V30 14614 H 1357.09 -2.45203 -3.00828 0
M  V30 14615 H 1355.19 -0.0926822 -3.72485 0
M  V30 14616 H 1355.3 -1.84307 -4.4223 0
M  V30 14617 H 1353.67 -0.889794 -2.38652 0
M  V30 14618 H 1354.45 -2.55837 -2.28916 0
M  V30 14619 N 1356.9 1.35099 -0.81154 0
M  V30 14620 C 1358.12 2.0286 -0.406855 0
M  V30 14621 C 1358.54 1.61147 0.98372 0
M  V30 14622 O 1357.9 0.811398 1.6347 0
M  V30 14623 C 1357.95 3.58214 -0.486305 0
M  V30 14624 O 1357.67 3.98412 -1.82206 0
M  V30 14625 C 1359.17 4.43236 -0.0750619 0
M  V30 14626 H 1356.39 0.650482 -0.164664 0
M  V30 14627 H 1358.93 1.72616 -1.09654 0
M  V30 14628 H 1357.09 3.87089 0.155177 0
M  V30 14629 H 1357.5 4.93072 -1.78831 0
M  V30 14630 H 1358.98 5.51701 -0.181759 0
M  V30 14631 H 1359.45 4.28123 0.980169 0
M  V30 14632 H 1360.06 4.19667 -0.689894 0
M  V30 14633 N 1358.37 0.56548 1.47106 0
M  V30 14634 C 1359.28 -0.180488 2.33905 0
M  V30 14635 C 1360.3 -0.90355 1.48701 0
M  V30 14636 O 1361.48 -0.870595 1.81611 0
M  V30 14637 C 1358.54 -1.19212 3.2556 0
M  V30 14638 C 1357.6 -0.475589 4.26658 0
M  V30 14639 C 1356.83 -1.43902 5.13934 0
M  V30 14640 O 1357.06 -2.67443 5.03816 0
M  V30 14641 O 1355.99 -0.958998 5.94211 0
M  V30 14642 H 1359.82 0.531726 2.99009 0
M  V30 14643 H 1357.4 0.32602 1.45799 0
M  V30 14644 H 1359.28 -1.77586 3.82153 0
M  V30 14645 H 1357.96 -1.8861 2.63074 0
M  V30 14646 H 1356.87 0.149561 3.73801 0
M  V30 14647 H 1358.2 0.177103 4.91881 0
M  V30 14648 N 1359.85 -1.54672 0.302354 0
M  V30 14649 C 1361.1 -1.99345 -0.307307 0
M  V30 14650 C 1361.41 -1.19437 -1.549 0
M  V30 14651 O 1362.62 -1.54384 -2.23334 0
M  V30 14652 C 1361.08 -3.54896 -0.59808 0
M  V30 14653 C 1360.68 -4.43614 0.625357 0
M  V30 14654 C 1362.43 -4.08091 -1.16886 0
M  V30 14655 C 1360.34 -5.90599 0.307661 0
M  V30 14656 H 1359.27 -0.744614 -0.118603 0
M  V30 14657 H 1361.92 -1.78832 0.411271 0
M  V30 14658 H 1360.3 -3.71314 -1.37629 0
M  V30 14659 H 1361.47 -4.38969 1.40152 0
M  V30 14660 H 1359.79 -4.01198 1.11487 0
M  V30 14661 H 1362.38 -5.15477 -1.42082 0
M  V30 14662 H 1362.73 -3.58775 -2.11155 0
M  V30 14663 H 1363.26 -3.9522 -0.452329 0
M  V30 14664 H 1360 -6.44067 1.21895 0
M  V30 14665 H 1359.52 -5.98248 -0.431208 0
M  V30 14666 H 1361.2 -6.46937 -0.0902796 0
M  V30 14667 N 1361.33 -0.0301034 -1.57571 0
M  V30 14668 C 1362.28 0.960604 -2.06776 0
M  V30 14669 C 1363.26 1.28488 -0.968483 0
M  V30 14670 O 1364.46 1.27083 -1.23203 0
M  V30 14671 C 1361.59 2.24268 -2.59921 0
M  V30 14672 C 1360.67 1.94673 -3.7678 0
M  V30 14673 N 1361.06 1.3535 -4.87354 0
M  V30 14674 C 1359.36 2.24658 -3.85285 0
M  V30 14675 C 1360.06 1.22909 -5.68567 0
M  V30 14676 N 1359.04 1.72493 -5.15507 0
M  V30 14677 H 1362.84 0.496931 -2.89668 0
M  V30 14678 H 1360.35 0.174886 -1.61456 0
M  V30 14679 H 1362.35 2.96116 -2.93463 0
M  V30 14680 H 1361.01 2.71261 -1.78459 0
M  V30 14681 H 1362.02 1.02839 -5.07587 0
M  V30 14682 H 1358.7 2.74318 -3.14731 0
M  V30 14683 H 1360.09 0.7703 -6.6747 0
M  V30 14684 N 1362.81 1.55714 0.243056 0
M  V30 14685 C 1363.74 1.93655 1.30461 0
M  V30 14686 C 1364.72 0.801968 1.50008 0
M  V30 14687 O 1365.9 1.06256 1.62552 0
M  V30 14688 C 1363.03 2.23459 2.65863 0
M  V30 14689 C 1361.99 3.39205 2.61006 0
M  V30 14690 C 1361.31 3.5456 4.00239 0
M  V30 14691 C 1362.61 4.74787 2.17656 0
M  V30 14692 H 1364.31 2.82575 0.98954 0
M  V30 14693 H 1361.85 1.35955 0.474572 0
M  V30 14694 H 1363.81 2.48591 3.40266 0
M  V30 14695 H 1362.53 1.31369 2.99014 0
M  V30 14696 H 1361.19 3.14088 1.89061 0
M  V30 14697 H 1360.84 2.59884 4.30661 0
M  V30 14698 H 1360.54 4.32399 3.97876 0
M  V30 14699 H 1362.06 3.82017 4.76335 0
M  V30 14700 H 1363.48 4.99266 2.81792 0
M  V30 14701 H 1361.87 5.55756 2.26397 0
M  V30 14702 H 1362.94 4.7159 1.12831 0
M  V30 14703 N 1364.29 -0.50888 1.49158 0
M  V30 14704 C 1365.51 -1.28771 1.61943 0
M  V30 14705 C 1365.93 -1.86594 0.287759 0
M  V30 14706 O 1365.29 -1.67448 -0.725769 0
M  V30 14707 C 1365.34 -2.4236 2.68224 0
M  V30 14708 O 1365.06 -1.86915 3.96225 0
M  V30 14709 C 1366.56 -3.33856 2.91642 0
M  V30 14710 H 1363.78 -0.390849 0.545416 0
M  V30 14711 H 1366.32 -0.611729 1.95136 0
M  V30 14712 H 1364.48 -3.05803 2.37831 0
M  V30 14713 H 1364.89 -2.61426 4.54705 0
M  V30 14714 H 1366.37 -4.09856 3.69759 0
M  V30 14715 H 1366.84 -3.90374 2.01258 0
M  V30 14716 H 1367.45 -2.76187 3.23421 0
M  V30 14717 N 1365.76 -1.381 -0.759346 0
M  V30 14718 C 1367.01 -1.3419 -1.52055 0
M  V30 14719 C 1367.34 0.0697657 -1.94075 0
M  V30 14720 O 1366.62 1.02975 -1.65004 0
M  V30 14721 C 1366.9 -2.29236 -2.7771 0
M  V30 14722 C 1366.75 -3.79237 -2.41866 0
M  V30 14723 C 1368.07 -2.22511 -3.79706 0
M  V30 14724 H 1365.19 -0.488768 -0.551611 0
M  V30 14725 H 1367.83 -1.68902 -0.870174 0
M  V30 14726 H 1365.98 -1.99764 -3.33206 0
M  V30 14727 H 1367.66 -4.19358 -1.92189 0
M  V30 14728 H 1365.9 -3.97199 -1.74399 0
M  V30 14729 H 1366.57 -4.41193 -3.31742 0
M  V30 14730 H 1369.05 -2.48516 -3.33735 0
M  V30 14731 H 1367.92 -2.91134 -4.6533 0
M  V30 14732 H 1368.18 -1.22206 -4.24874 0
M  V30 14733 N 1367.24 0.986894 -1.22875 0
M  V30 14734 C 1368.21 2.0597 -1.00544 0
M  V30 14735 C 1369.21 1.60771 0.0303509 0
M  V30 14736 O 1370.4 1.72945 -0.208753 0
M  V30 14737 C 1367.53 3.36911 -0.519962 0
M  V30 14738 H 1368.72 2.27213 -1.9574 0
M  V30 14739 H 1366.27 1.15935 -1.04827 0
M  V30 14740 H 1367.01 3.21355 0.436078 0
M  V30 14741 H 1366.79 3.71054 -1.26732 0
M  V30 14742 H 1368.28 4.15829 -0.384166 0
M  V30 14743 N 1368.72 1.0394 1.18466 0
M  V30 14744 C 1369.97 0.743141 1.88694 0
M  V30 14745 C 1370.3 -0.727211 1.8007 0
M  V30 14746 O 1369.57 -1.53058 1.20014 0
M  V30 14747 C 1369.86 1.20829 3.39223 0
M  V30 14748 C 1369.71 2.74064 3.56664 0
M  V30 14749 C 1371.03 0.797348 4.32817 0
M  V30 14750 H 1368.15 0.271437 0.685194 0
M  V30 14751 H 1370.79 1.29119 1.39386 0
M  V30 14752 H 1368.94 0.742033 3.81348 0
M  V30 14753 H 1370.61 3.28717 3.2364 0
M  V30 14754 H 1368.86 3.1395 2.99362 0
M  V30 14755 H 1369.53 3.01668 4.62277 0
M  V30 14756 H 1372 1.19854 3.98465 0
M  V30 14757 H 1370.88 1.15057 5.36706 0
M  V30 14758 H 1371.14 -0.299601 4.41084 0
M  V30 14759 N 1370.2 -1.34667 0.818693 0
M  V30 14760 C 1371.44 -1.98708 0.405359 0
M  V30 14761 C 1371.78 -1.64767 -1.02788 0
M  V30 14762 O 1371.05 -0.91714 -1.71519 0
M  V30 14763 C 1371.34 -3.55016 0.602966 0
M  V30 14764 C 1371.19 -3.98713 2.08201 0
M  V30 14765 C 1372.51 -4.40085 0.0362489 0
M  V30 14766 H 1369.63 -0.721831 0.148756 0
M  V30 14767 H 1372.27 -1.59628 1.03047 0
M  V30 14768 H 1370.42 -3.88435 0.0708453 0
M  V30 14769 H 1372.09 -3.75647 2.67745 0
M  V30 14770 H 1370.33 -3.49179 2.57403 0
M  V30 14771 H 1371 -5.0751 2.17111 0
M  V30 14772 H 1373.48 -4.13195 0.490837 0
M  V30 14773 H 1372.36 -5.4852 0.204344 0
M  V30 14774 H 1372.62 -4.29243 -1.05845 0
M  V30 14775 N 1371.68 -0.573274 -1.46804 0
M  V30 14776 C 1372.9 -0.0605984 -2.06811 0
M  V30 14777 C 1373.32 1.24024 -1.4235 0
M  V30 14778 O 1372.68 1.7477 -0.525515 0
M  V30 14779 C 1372.73 0.121828 -3.61295 0
M  V30 14780 O 1372.45 -1.12751 -4.23342 0
M  V30 14781 C 1373.95 0.669941 -4.38208 0
M  V30 14782 H 1371.17 -0.0531498 -0.668892 0
M  V30 14783 H 1373.71 -0.791259 -1.88572 0
M  V30 14784 H 1371.87 0.802674 -3.78993 0
M  V30 14785 H 1372.28 -0.935361 -5.16092 0
M  V30 14786 H 1373.76 0.746806 -5.46925 0
M  V30 14787 H 1374.23 1.68483 -4.05598 0
M  V30 14788 H 1374.84 0.0242721 -4.25293 0
M  V30 14789 N 1373.15 1.5451 -0.310553 0
M  V30 14790 C 1374.38 2.04442 0.297807 0
M  V30 14791 C 1374.79 1.18695 1.47337 0
M  V30 14792 O 1374.14 0.207405 1.82525 0
M  V30 14793 C 1374.2 3.50306 0.807851 0
M  V30 14794 C 1373.86 4.5635 -0.24369 0
M  V30 14795 C 1374.86 5.08656 -1.07539 0
M  V30 14796 C 1372.54 5.00798 -0.388138 0
M  V30 14797 C 1374.54 6.03961 -2.03738 0
M  V30 14798 C 1372.22 5.95921 -1.35357 0
M  V30 14799 C 1373.22 6.47387 -2.17667 0
M  V30 14800 O 1372.91 7.40644 -3.12571 0
M  V30 14801 H 1372.64 0.672646 0.0672525 0
M  V30 14802 H 1375.2 2.00389 -0.450948 0
M  V30 14803 H 1373.43 3.51714 1.6073 0
M  V30 14804 H 1375.12 3.83383 1.33314 0
M  V30 14805 H 1375.88 4.75105 -0.97471 0
M  V30 14806 H 1371.76 4.60361 0.242608 0
M  V30 14807 H 1375.3 6.44057 -2.68023 0
M  V30 14808 H 1371.2 6.2889 -1.45493 0
M  V30 14809 H 1371.97 7.58477 -3.0766 0
M  V30 14810 N 1374.63 0.0384594 1.57553 0
M  V30 14811 C 1375.58 -0.949625 2.07283 0
M  V30 14812 C 1376.57 -1.27973 0.975284 0
M  V30 14813 O 1377.76 -1.26428 1.23875 0
M  V30 14814 C 1374.89 -2.22887 2.61106 0
M  V30 14815 C 1373.97 -1.92672 3.77807 0
M  V30 14816 N 1374.37 -1.32764 4.88065 0
M  V30 14817 C 1372.66 -2.22612 3.86471 0
M  V30 14818 C 1373.36 -1.19892 5.69211 0
M  V30 14819 N 1372.34 -1.69757 5.16414 0
M  V30 14820 H 1376.14 -0.481562 2.89928 0
M  V30 14821 H 1373.66 -0.166321 1.61546 0
M  V30 14822 H 1375.65 -2.94556 2.9503 0
M  V30 14823 H 1374.31 -2.70311 1.79895 0
M  V30 14824 H 1375.32 -1.00146 5.08125 0
M  V30 14825 H 1372 -2.72645 3.16182 0
M  V30 14826 H 1373.39 -0.734892 6.67869 0
M  V30 14827 N 1376.11 -1.55841 -0.234795 0
M  V30 14828 C 1377.34 -1.82307 -0.978355 0
M  V30 14829 C 1377.75 -0.615825 -1.78474 0
M  V30 14830 O 1377.11 0.4156 -1.77705 0
M  V30 14831 C 1377.16 -3.07136 -1.90655 0
M  V30 14832 O 1376.88 -4.23202 -1.13278 0
M  V30 14833 C 1378.38 -3.46492 -2.76511 0
M  V30 14834 H 1375.6 -0.606361 -0.287345 0
M  V30 14835 H 1378.15 -2.02916 -0.254023 0
M  V30 14836 H 1376.3 -2.88542 -2.58501 0
M  V30 14837 H 1376.72 -4.94029 -1.76168 0
M  V30 14838 H 1378.19 -4.36908 -3.37366 0
M  V30 14839 H 1378.67 -2.67633 -3.48238 0
M  V30 14840 H 1379.27 -3.6748 -2.14099 0
M  V30 14841 N 1377.59 0.500963 -1.49426 0
M  V30 14842 C 1379.01 0.832142 -1.36189 0
M  V30 14843 C 1379.21 1.9759 -0.395014 0
M  V30 14844 O 1378.26 2.51905 0.173294 0
M  V30 14845 C 1379.57 1.17232 -2.76907 0
M  V30 14846 C 1381.12 1.28052 -2.85607 0
M  V30 14847 C 1381.6 1.65399 -4.27092 0
M  V30 14848 N 1383.09 1.72448 -4.29902 0
M  V30 14849 C 1383.82 2.02789 -5.36343 0
M  V30 14850 N 1383.32 2.31354 -6.53029 0
M  V30 14851 N 1385.11 2.0404 -5.23759 0
M  V30 14852 H 1377.26 -0.253253 -2.10885 0
M  V30 14853 H 1379.53 -0.0507111 -0.946643 0
M  V30 14854 H 1379.23 0.405247 -3.49357 0
M  V30 14855 H 1379.11 2.11574 -3.12276 0
M  V30 14856 H 1381.49 2.03831 -2.13394 0
M  V30 14857 H 1381.57 0.317603 -2.53821 0
M  V30 14858 H 1381.22 0.901704 -4.99832 0
M  V30 14859 H 1381.15 2.6279 -4.56343 0
M  V30 14860 H 1383.64 1.52532 -3.45749 0
M  V30 14861 H 1383.95 2.53695 -7.29972 0
M  V30 14862 H 1382.3 2.28811 -6.56255 0
M  V30 14863 H 1385.49 1.812 -4.31606 0
M  V30 14864 H 1385.66 2.27353 -6.06807 0
M  V30 14865 N 1379.07 1.38501 0.752011 0
M  V30 14866 C 1380.34 1.25315 1.50185 0
M  V30 14867 C 1380.72 -0.144762 2.10603 0
M  V30 14868 O 1380.07 -1.15441 1.97194 0
M  V30 14869 C 1380.28 2.36451 2.56694 0
M  V30 14870 C 1381.63 2.74952 3.23553 0
M  V30 14871 O 1382.65 2.35774 2.67 0
M  V30 14872 O 1381.51 3.42517 4.25845 0
M  V30 14873 H 1378.61 0.490139 0.666103 0
M  V30 14874 H 1381.15 1.50333 0.787288 0
M  V30 14875 H 1379.93 3.29978 2.10309 0
M  V30 14876 H 1379.55 2.13006 3.35729 0
M  V30 14877 N 1380.55 -0.980364 1.23396 0
M  V30 14878 C 1381.79 -1.71826 1.06397 0
M  V30 14879 C 1382.11 -1.90854 -0.399958 0
M  V30 14880 O 1381.38 -1.47721 -1.28668 0
M  V30 14881 H 1379.96 -0.636669 0.390719 0
M  V30 14882 H 1382.63 -1.18008 1.55113 0
M  V30 14883 H 1381.72 -2.7078 1.55192 0
M  V30 14884 N 1382.02 -1.04567 -1.17913 0
M  V30 14885 C 1382.96 -0.599154 -2.2123 0
M  V30 14886 C 1383.97 0.333824 -1.59341 0
M  V30 14887 O 1385.16 0.127548 -1.78044 0
M  V30 14888 C 1382.26 0.144045 -3.38594 0
M  V30 14889 C 1381.43 -0.798061 -4.30058 0
M  V30 14890 C 1380.49 -0.0972548 -5.2611 0
M  V30 14891 O 1379.52 -0.729318 -5.64508 0
M  V30 14892 N 1380.72 1.16759 -5.68637 0
M  V30 14893 H 1383.48 -1.48781 -2.60162 0
M  V30 14894 H 1381.04 -0.926787 -1.32749 0
M  V30 14895 H 1383.04 0.622843 -3.99878 0
M  V30 14896 H 1381.61 0.934292 -2.98311 0
M  V30 14897 H 1380.83 -1.45662 -3.66301 0
M  V30 14898 H 1382.11 -1.43777 -4.88063 0
M  V30 14899 H 1381.51 1.70155 -5.39503 0
M  V30 14900 H 1380.07 1.59057 -6.32095 0
M  V30 14901 N 1383.5 1.34231 -0.825823 0
M  V30 14902 C 1384.75 1.97805 -0.414456 0
M  V30 14903 C 1385.07 1.65786 1.02664 0
M  V30 14904 O 1384.34 0.950069 1.7132 0
M  V30 14905 H 1382.92 0.73173 -0.150265 0
M  V30 14906 H 1385.58 1.63819 -1.05591 0
M  V30 14907 H 1384.68 3.07466 -0.535829 0
M  V30 14908 N 1384.98 0.581051 1.46498 0
M  V30 14909 C 1386.39 0.154032 1.86064 0
M  V30 14910 C 1386.74 -1.28247 1.48483 0
M  V30 14911 O 1385.87 -1.96845 0.898945 0
M  V30 14912 C 1386.46 0.272764 3.377 0
M  V30 14913 C 1385.02 -0.0993724 3.76269 0
M  V30 14914 C 1384.17 0.60947 2.70519 0
M  V30 14915 H 1387.12 0.78937 1.37676 0
M  V30 14916 H 1387.14 -0.502326 3.7717 0
M  V30 14917 H 1386.65 1.31837 3.65021 0
M  V30 14918 H 1384.75 -1.14517 3.54565 0
M  V30 14919 H 1384.87 0.275791 4.78306 0
M  V30 14920 H 1383.23 0.0499083 2.54651 0
M  V30 14921 H 1384.01 1.65669 3.0068 0
M  V30 14922 N 1386.46 -1.54343 0.318742 0
M  V30 14923 C 1387.39 -2.27118 -0.542206 0
M  V30 14924 C 1388.37 -1.27731 -1.12334 0
M  V30 14925 O 1389.55 -1.56535 -1.14937 0
M  V30 14926 C 1386.68 -3.02535 -1.70558 0
M  V30 14927 C 1385.64 -4.09218 -1.25398 0
M  V30 14928 C 1384.96 -4.72449 -2.50391 0
M  V30 14929 C 1386.26 -5.20971 -0.372332 0
M  V30 14930 H 1387.96 -2.9933 0.0648226 0
M  V30 14931 H 1385.5 -1.43963 0.0326168 0
M  V30 14932 H 1387.46 -3.52174 -2.31412 0
M  V30 14933 H 1386.18 -2.27931 -2.33912 0
M  V30 14934 H 1384.84 -3.60455 -0.668392 0
M  V30 14935 H 1384.49 -3.94466 -3.12099 0
M  V30 14936 H 1384.19 -5.4451 -2.20868 0
M  V30 14937 H 1385.71 -5.2486 -3.12016 0
M  V30 14938 H 1387.13 -5.66396 -0.887029 0
M  V30 14939 H 1385.52 -5.99859 -0.17009 0
M  V30 14940 H 1386.59 -4.81198 0.598064 0
M  V30 14941 N 1387.94 -0.0468143 -1.5753 0
M  V30 14942 C 1388.89 0.938619 -2.07783 0
M  V30 14943 C 1389.87 1.27454 -0.982057 0
M  V30 14944 O 1391.06 1.25769 -1.24544 0
M  V30 14945 C 1388.19 2.21499 -2.62285 0
M  V30 14946 C 1387.28 1.90665 -3.78824 0
M  V30 14947 N 1387.67 1.30174 -4.88762 0
M  V30 14948 C 1385.97 2.20559 -3.87646 0
M  V30 14949 C 1386.67 1.16872 -5.69838 0
M  V30 14950 N 1385.64 1.67016 -5.17307 0
M  V30 14951 H 1389.44 0.466179 -2.90179 0
M  V30 14952 H 1386.96 0.157752 -1.61632 0
M  V30 14953 H 1388.96 2.92987 -2.96588 0
M  V30 14954 H 1387.62 2.69353 -1.81326 0
M  V30 14955 H 1388.63 0.974495 -5.08649 0
M  V30 14956 H 1385.3 2.70964 -3.17623 0
M  V30 14957 H 1386.69 0.699463 -6.68249 0
M  V30 14958 N 1389.41 1.55964 0.226527 0
M  V30 14959 C 1390.36 1.88403 1.28406 0
M  V30 14960 C 1391.35 0.746656 1.42527 0
M  V30 14961 O 1392.54 1.00898 1.45425 0
M  V30 14962 C 1389.67 2.19992 2.63549 0
M  V30 14963 C 1388.76 3.40109 2.5335 0
M  V30 14964 N 1389.15 4.58858 2.12798 0
M  V30 14965 C 1387.44 3.43625 2.8432 0
M  V30 14966 C 1388.15 5.41013 2.13729 0
M  V30 14967 N 1387.12 4.80596 2.54025 0
M  V30 14968 H 1390.92 2.77732 0.961352 0
M  V30 14969 H 1388.44 1.56463 0.435104 0
M  V30 14970 H 1390.43 2.41405 3.39896 0
M  V30 14971 H 1389.09 1.31973 2.9667 0
M  V30 14972 H 1390.11 4.84108 1.8401 0
M  V30 14973 H 1386.78 2.65935 3.21846 0
M  V30 14974 H 1388.17 6.4606 1.84543 0
M  V30 14975 N 1390.89 -0.493031 1.4969 0
M  V30 14976 C 1392.14 -1.24418 1.59263 0
M  V30 14977 C 1392.46 -1.92908 0.284882 0
M  V30 14978 O 1391.73 -1.83108 -0.696302 0
M  V30 14979 H 1390.31 -0.462223 0.586821 0
M  V30 14980 H 1392.97 -0.570713 1.86357 0
M  V30 14981 H 1392.07 -2.00386 2.39274 0
M  V30 14982 N 1392.37 -1.38898 -0.744656 0
M  V30 14983 C 1393.62 -1.35795 -1.50623 0
M  V30 14984 C 1393.95 0.0491775 -1.94138 0
M  V30 14985 O 1393.22 1.01219 -1.66087 0
M  V30 14986 C 1393.51 -2.32168 -2.75263 0
M  V30 14987 C 1393.36 -3.81781 -2.3783 0
M  V30 14988 C 1394.68 -2.26526 -3.77325 0
M  V30 14989 H 1391.8 -0.494591 -0.546396 0
M  V30 14990 H 1394.44 -1.69816 -0.852211 0
M  V30 14991 H 1392.59 -2.03287 -3.31069 0
M  V30 14992 H 1394.26 -4.21373 -1.8773 0
M  V30 14993 H 1392.51 -3.99027 -1.70176 0
M  V30 14994 H 1393.18 -4.44687 -3.27044 0
M  V30 14995 H 1395.65 -2.52041 -3.31081 0
M  V30 14996 H 1394.53 -2.96053 -4.62216 0
M  V30 14997 H 1394.79 -1.26705 -4.23554 0
M  V30 14998 N 1393.85 0.973806 -1.23914 0
M  V30 14999 C 1395.09 1.731 -1.08701 0
M  V30 15000 C 1395.45 1.88425 0.368772 0
M  V30 15001 O 1396.65 2.61014 0.642259 0
M  V30 15002 C 1394.92 3.08777 -1.79977 0
M  V30 15003 S 1396.48 3.99993 -1.80419 0
M  V30 15004 H 1393.3 0.595219 -0.38889 0
M  V30 15005 H 1395.9 1.16291 -1.57152 0
M  V30 15006 H 1394.61 2.95278 -2.85024 0
M  V30 15007 H 1394.14 3.70652 -1.31835 0
M  V30 15008 H 1396.15 4.88558 -0.867494 0
M  V30 15009 N 1395.33 1.05191 1.17357 0
M  V30 15010 C 1396.55 0.782343 1.92079 0
M  V30 15011 C 1396.98 -0.655957 1.76292 0
M  V30 15012 O 1396.33 -1.45573 1.08065 0
M  V30 15013 C 1396.38 1.16777 3.41168 0
M  V30 15014 O 1395.49 0.299908 4.11308 0
M  V30 15015 H 1394.83 0.286894 0.598822 0
M  V30 15016 H 1397.36 1.40476 1.48754 0
M  V30 15017 H 1397.37 1.13454 3.91909 0
M  V30 15018 H 1396.04 2.2155 3.51978 0
M  V30 15019 H 1394.62 0.393744 3.70815 0
M  V30 15020 N 1396.8 -1.33791 0.83293 0
M  V30 15021 C 1398.03 -2.02187 0.439077 0
M  V30 15022 C 1398.45 -1.62692 -0.957958 0
M  V30 15023 O 1397.8 -0.837302 -1.62159 0
M  V30 15024 C 1397.86 -3.57395 0.543232 0
M  V30 15025 O 1397.58 -3.95463 1.88522 0
M  V30 15026 C 1399.08 -4.43061 0.145567 0
M  V30 15027 H 1396.3 -0.64778 0.174992 0
M  V30 15028 H 1398.84 -1.7085 1.12386 0
M  V30 15029 H 1397 -3.87287 -0.0935746 0
M  V30 15030 H 1397.41 -4.90164 1.86653 0
M  V30 15031 H 1398.88 -5.51342 0.269507 0
M  V30 15032 H 1399.36 -4.29628 -0.911934 0
M  V30 15033 H 1399.97 -4.18517 0.756572 0
M  V30 15034 N 1398.28 -0.588812 -1.46187 0
M  V30 15035 C 1399.53 -0.0851986 -2.03221 0
M  V30 15036 C 1399.88 1.26301 -1.45141 0
M  V30 15037 O 1399.18 1.8165 -0.609427 0
M  V30 15038 C 1399.37 0.0325249 -3.57385 0
M  V30 15039 C 1399.2 -1.30272 -4.30418 0
M  V30 15040 C 1397.97 -1.87848 -4.69085 0
M  V30 15041 C 1400.17 -2.2273 -4.63569 0
M  V30 15042 N 1398.15 -3.15048 -5.26894 0
M  V30 15043 C 1399.52 -3.34519 -5.22012 0
M  V30 15044 C 1401.58 -2.22334 -4.45502 0
M  V30 15045 C 1400.28 -4.46054 -5.64294 0
M  V30 15046 C 1402.3 -3.32904 -4.88804 0
M  V30 15047 C 1401.67 -4.43414 -5.47324 0
M  V30 15048 H 1397.77 -0.0741 -0.778481 0
M  V30 15049 H 1400.35 -0.783049 -1.78259 0
M  V30 15050 H 1398.52 0.699556 -3.82048 0
M  V30 15051 H 1400.25 0.54108 -4.01067 0
M  V30 15052 H 1397.01 -1.4127 -4.5204 0
M  V30 15053 H 1397.43 -3.79969 -5.60315 0
M  V30 15054 H 1402.07 -1.38165 -3.99588 0
M  V30 15055 H 1399.79 -5.30963 -6.09183 0
M  V30 15056 H 1403.38 -3.33723 -4.76571 0
M  V30 15057 H 1402.26 -5.27559 -5.80216 0
M  V30 15058 N 1399.76 1.54172 -0.326923 0
M  V30 15059 C 1400.69 2.27402 0.530154 0
M  V30 15060 C 1401.67 1.28325 1.11655 0
M  V30 15061 O 1402.86 1.57142 1.14105 0
M  V30 15062 C 1399.99 3.03435 1.68951 0
M  V30 15063 C 1398.94 4.09877 1.23226 0
M  V30 15064 C 1398.27 4.7377 2.47882 0
M  V30 15065 C 1399.57 5.21161 0.344698 0
M  V30 15066 H 1401.26 2.99291 -0.0806959 0
M  V30 15067 H 1398.81 1.43944 -0.0402511 0
M  V30 15068 H 1400.76 3.53396 2.29541 0
M  V30 15069 H 1399.48 2.29169 2.327 0
M  V30 15070 H 1398.14 3.60805 0.649267 0
M  V30 15071 H 1397.79 3.96116 3.10002 0
M  V30 15072 H 1397.49 5.45674 2.17977 0
M  V30 15073 H 1399.01 5.26507 3.09229 0
M  V30 15074 H 1400.43 5.66859 0.856979 0
M  V30 15075 H 1398.83 5.99941 0.138276 0
M  V30 15076 H 1399.9 4.80874 -0.623575 0
M  V30 15077 N 1401.24 0.0551678 1.57503 0
M  V30 15078 C 1402.19 -0.935665 2.12951 0
M  V30 15079 C 1403.18 -1.31954 1.06229 0
M  V30 15080 O 1404.39 -1.29873 1.24632 0
M  V30 15081 H 1400.76 -0.319618 0.680697 0
M  V30 15082 H 1402.73 -0.442937 2.95094 0
M  V30 15083 C 1401.48 -2.19977 2.69268 0
M  V30 15084 H 1400.8 -1.91319 3.51051 0
M  V30 15085 H 1402.24 -2.87456 3.11681 0
M  V30 15086 C 1400.7 -2.94714 1.63233 0
M  V30 15087 O 1401.23 -3.87803 1.04747 0
M  V30 15088 N 1399.44 -2.57518 1.34659 0
M  V30 15089 H 1398.99 -1.81894 1.82407 0
M  V30 15090 H 1398.94 -3.07829 0.639425 0
M  V30 15091 N 1402.72 -1.56081 -0.218252 0
M  V30 15092 C 1403.94 -1.83681 -0.963119 0
M  V30 15093 C 1404.37 -0.635909 -1.77025 0
M  V30 15094 O 1403.72 0.415327 -1.76479 0
M  V30 15095 C 1403.77 -3.09302 -1.85376 0
M  V30 15096 O 1402.88 -2.88228 -2.94955 0
M  V30 15097 H 1402.22 -0.605495 -0.272529 0
M  V30 15098 H 1404.75 -2.03297 -0.230567 0
M  V30 15099 H 1404.76 -3.39493 -2.26294 0
M  V30 15100 H 1403.43 -3.96337 -1.26054 0
M  V30 15101 H 1402.01 -2.69279 -2.57959 0
M  V30 15102 N 1404.2 0.485086 -1.49949 0
M  V30 15103 C 1405.13 1.59312 -1.7071 0
M  V30 15104 C 1406.11 1.6076 -0.555896 0
M  V30 15105 O 1407.29 1.77249 -0.793504 0
M  V30 15106 C 1404.42 2.97718 -1.78834 0
M  V30 15107 C 1403.38 3.11136 -2.93902 0
M  V30 15108 C 1402.7 4.51051 -2.87154 0
M  V30 15109 C 1404 2.89665 -4.34617 0
M  V30 15110 H 1405.7 1.42192 -2.6348 0
M  V30 15111 H 1403.24 0.68262 -1.26792 0
M  V30 15112 H 1405.19 3.75148 -1.91943 0
M  V30 15113 H 1403.92 3.15963 -0.826744 0
M  V30 15114 H 1402.58 2.36135 -2.80421 0
M  V30 15115 H 1402.23 4.66195 -1.88869 0
M  V30 15116 H 1401.93 4.60967 -3.64394 0
M  V30 15117 H 1403.45 5.3052 -3.02293 0
M  V30 15118 H 1404.86 3.56853 -4.48697 0
M  V30 15119 H 1403.26 3.11039 -5.13201 0
M  V30 15120 H 1404.33 1.85642 -4.47956 0
M  V30 15121 N 1405.67 1.39291 0.737279 0
M  V30 15122 C 1406.62 1.37829 1.85127 0
M  V30 15123 C 1407.59 0.238321 1.64381 0
M  V30 15124 O 1408.78 0.433081 1.8582 0
M  V30 15125 C 1405.92 1.22531 3.22615 0
M  V30 15126 C 1405.03 2.46052 3.55081 0
M  V30 15127 C 1404.16 2.2336 4.81958 0
M  V30 15128 C 1403.2 3.42569 5.0726 0
M  V30 15129 N 1402.34 3.19209 6.2534 0
M  V30 15130 H 1407.18 2.33056 1.85712 0
M  V30 15131 H 1404.72 1.15772 0.907484 0
M  V30 15132 H 1406.67 1.11673 4.01976 0
M  V30 15133 H 1405.3 0.30934 3.21314 0
M  V30 15134 H 1404.36 2.67521 2.70438 0
M  V30 15135 H 1405.67 3.3485 3.69698 0
M  V30 15136 H 1404.82 2.09732 5.69295 0
M  V30 15137 H 1403.56 1.31953 4.6951 0
M  V30 15138 H 1402.57 3.56698 4.18386 0
M  V30 15139 H 1403.79 4.34874 5.21595 0
M  V30 15140 H 1401.74 2.30464 6.14184 0
M  V30 15141 H 1401.65 4.01562 6.40534 0
M  V30 15142 H 1402.92 3.09269 7.15523 0
M  V30 15143 N 1407.15 -0.967221 1.24429 0
M  V30 15144 C 1408.56 -1.52488 1.07723 0
M  V30 15145 C 1408.91 -1.93031 -0.351191 0
M  V30 15146 O 1408.04 -1.77376 -1.23963 0
M  V30 15147 C 1408.63 -2.77107 1.94929 0
M  V30 15148 C 1407.19 -3.29227 1.82446 0
M  V30 15149 C 1406.34 -2.02133 1.89835 0
M  V30 15150 H 1409.29 -0.785465 1.37899 0
M  V30 15151 H 1409.31 -3.50459 1.48186 0
M  V30 15152 H 1408.82 -2.47567 2.98885 0
M  V30 15153 H 1406.92 -3.63617 0.813246 0
M  V30 15154 H 1407.04 -3.98095 2.66566 0
M  V30 15155 H 1405.4 -2.16867 1.3357 0
M  V30 15156 H 1406.18 -1.74958 2.95372 0
M  V30 15157 N 1408.63 -1.05812 -1.16797 0
M  V30 15158 C 1409.56 -0.622584 -2.20582 0
M  V30 15159 C 1410.57 0.316905 -1.59686 0
M  V30 15160 O 1411.76 0.108657 -1.78169 0
M  V30 15161 C 1408.86 0.108124 -3.38727 0
M  V30 15162 C 1408.04 -0.84363 -4.29187 0
M  V30 15163 C 1407.1 -0.15305 -5.25977 0
M  V30 15164 O 1406.12 -0.78915 -5.63703 0
M  V30 15165 N 1407.32 1.10721 -5.69843 0
M  V30 15166 H 1410.09 -1.51532 -2.5857 0
M  V30 15167 H 1407.65 -0.940815 -1.31758 0
M  V30 15168 H 1409.64 0.580395 -4.00517 0
M  V30 15169 H 1408.21 0.902599 -2.99286 0
M  V30 15170 H 1407.43 -1.49538 -3.64735 0
M  V30 15171 H 1408.72 -1.48946 -4.86511 0
M  V30 15172 H 1408.12 1.64423 -5.41278 0
M  V30 15173 H 1406.67 1.52344 -6.33746 0
M  V30 15174 N 1410.11 1.33347 -0.840014 0
M  V30 15175 C 1411.38 1.92293 -0.358158 0
M  V30 15176 C 1411.76 1.76594 1.15662 0
M  V30 15177 O 1411.11 1.15503 1.97158 0
M  V30 15178 C 1411.32 3.39558 -0.806329 0
M  V30 15179 C 1412.67 4.16705 -0.81501 0
M  V30 15180 O 1413.69 3.48214 -0.75001 0
M  V30 15181 O 1412.55 5.38974 -0.903818 0
M  V30 15182 H 1409.65 0.820737 -0.101585 0
M  V30 15183 H 1412.19 1.42213 -0.925942 0
M  V30 15184 H 1410.97 3.44861 -1.84897 0
M  V30 15185 H 1410.59 3.97017 -0.215181 0
M  V30 15186 N 1411.59 0.596556 1.45873 0
M  V30 15187 C 1413 0.173758 1.8589 0
M  V30 15188 C 1413.35 -1.26665 1.49835 0
M  V30 15189 O 1412.47 -1.9588 0.919773 0
M  V30 15190 C 1413.07 0.308567 3.37392 0
M  V30 15191 C 1411.63 -0.0594585 3.76353 0
M  V30 15192 C 1410.77 0.638127 2.69858 0
M  V30 15193 H 1413.72 0.803928 1.36831 0
M  V30 15194 H 1413.75 -0.462294 3.77681 0
M  V30 15195 H 1413.26 1.35701 3.63603 0
M  V30 15196 H 1411.36 -1.1075 3.5576 0
M  V30 15197 H 1411.47 0.326506 4.77986 0
M  V30 15198 H 1409.84 0.0769147 2.54584 0
M  V30 15199 H 1410.62 1.68849 2.98906 0
M  V30 15200 N 1413.06 -1.53996 0.335095 0
M  V30 15201 C 1414.31 -2.01069 -0.264388 0
M  V30 15202 C 1414.64 -1.22271 -1.50876 0
M  V30 15203 O 1413.92 -0.30806 -1.92045 0
M  V30 15204 C 1414.2 -3.55283 -0.587 0
M  V30 15205 C 1414.05 -4.44799 0.668877 0
M  V30 15206 C 1415.37 -4.17238 -1.40003 0
M  V30 15207 H 1412.49 -0.730901 -0.0946202 0
M  V30 15208 H 1415.13 -1.84497 0.453958 0
M  V30 15209 H 1413.28 -3.69536 -1.19899 0
M  V30 15210 H 1414.96 -4.42398 1.30698 0
M  V30 15211 H 1413.2 -4.14005 1.29547 0
M  V30 15212 H 1413.87 -5.5056 0.398523 0
M  V30 15213 H 1416.35 -4.06631 -0.88262 0
M  V30 15214 H 1415.22 -5.2523 -1.59451 0
M  V30 15215 H 1415.48 -3.71309 -2.39962 0
M  V30 15216 N 1414.54 -0.0635198 -1.57472 0
M  V30 15217 C 1415.95 0.470372 -1.80678 0
M  V30 15218 C 1416.3 1.70158 -0.976771 0
M  V30 15219 O 1415.43 2.15502 -0.196893 0
M  V30 15220 C 1416.02 0.860129 -3.277 0
M  V30 15221 C 1414.58 1.33893 -3.51781 0
M  V30 15222 C 1413.73 0.320078 -2.75447 0
M  V30 15223 H 1416.68 -0.289295 -1.56041 0
M  V30 15224 H 1416.7 1.72216 -3.39296 0
M  V30 15225 H 1416.21 -0.0361525 -3.88083 0
M  V30 15226 H 1414.31 2.25399 -2.96692 0
M  V30 15227 H 1414.43 1.32257 -4.60483 0
M  V30 15228 H 1412.79 0.795601 -2.41955 0
M  V30 15229 H 1413.57 -0.568332 -3.38563 0
M  V30 15230 N 1416.02 1.56195 0.209972 0
M  V30 15231 C 1417.26 1.81525 0.939574 0
M  V30 15232 C 1417.62 0.638789 1.81062 0
M  V30 15233 O 1418.82 0.771648 2.57486 0
M  V30 15234 C 1417.1 3.11809 1.7467 0
M  V30 15235 S 1418.65 3.58494 2.53036 0
M  V30 15236 H 1415.47 0.637211 0.31541 0
M  V30 15237 H 1418.07 1.94431 0.204175 0
M  V30 15238 H 1416.78 3.95463 1.09715 0
M  V30 15239 H 1416.31 3.01742 2.52419 0
M  V30 15240 H 1418.32 3.2275 3.76891 0
M  V30 15241 N 1417.5 -0.477127 1.50204 0
M  V30 15242 C 1418.74 -1.22964 1.60891 0
M  V30 15243 C 1419.07 -1.9207 0.306464 0
M  V30 15244 O 1418.33 -1.82472 -0.707272 0
M  V30 15245 C 1418.63 -2.30126 2.73453 0
M  V30 15246 C 1418.29 -1.78314 4.14143 0
M  V30 15247 C 1416.95 -1.63904 4.52425 0
M  V30 15248 C 1419.31 -1.3981 5.02098 0
M  V30 15249 C 1416.63 -1.09404 5.76409 0
M  V30 15250 C 1418.99 -0.867538 6.26623 0
M  V30 15251 C 1417.65 -0.710022 6.63713 0
M  V30 15252 H 1416.92 -0.449959 0.588743 0
M  V30 15253 H 1419.57 -0.526592 1.84118 0
M  V30 15254 H 1417.87 -3.06315 2.44291 0
M  V30 15255 H 1419.57 -2.88099 2.78927 0
M  V30 15256 H 1416.16 -1.90496 3.83939 0
M  V30 15257 H 1420.34 -1.49779 4.73159 0
M  V30 15258 H 1415.6 -0.959413 6.03825 0
M  V30 15259 H 1419.77 -0.560496 6.94141 0
M  V30 15260 H 1417.4 -0.285555 7.59663 0
M  V30 15261 N 1418.98 -1.3968 -0.729882 0
M  V30 15262 C 1420.22 -1.37385 -1.49175 0
M  V30 15263 C 1420.56 0.0285839 -1.94179 0
M  V30 15264 O 1419.83 0.994516 -1.67152 0
M  V30 15265 C 1420.11 -2.35075 -2.72785 0
M  V30 15266 C 1419.97 -3.84282 -2.33767 0
M  V30 15267 C 1421.29 -2.30515 -3.74901 0
M  V30 15268 H 1418.4 -0.500359 -0.541119 0
M  V30 15269 H 1421.05 -1.7071 -0.834152 0
M  V30 15270 H 1419.2 -2.06787 -3.28894 0
M  V30 15271 H 1420.87 -4.2334 -1.8325 0
M  V30 15272 H 1419.11 -4.00809 -1.65935 0
M  V30 15273 H 1419.78 -4.48131 -3.22309 0
M  V30 15274 H 1422.26 -2.55539 -3.28389 0
M  V30 15275 H 1421.13 -3.00939 -4.5905 0
M  V30 15276 H 1421.4 -1.3119 -4.22187 0
M  V30 15277 N 1420.45 0.960609 -1.2494 0
M  V30 15278 C 1421.87 1.23057 -1.01633 0
M  V30 15279 C 1422.07 1.99676 0.270527 0
M  V30 15280 O 1421.13 2.32503 0.984823 0
M  V30 15281 C 1422.44 2.01078 -2.2358 0
M  V30 15282 C 1423.99 2.14144 -2.28279 0
M  V30 15283 C 1424.46 2.95563 -3.49867 0
M  V30 15284 N 1425.95 3.03143 -3.50227 0
M  V30 15285 C 1426.69 3.66518 -4.40967 0
M  V30 15286 N 1426.18 4.31553 -5.41972 0
M  V30 15287 N 1427.98 3.636 -4.28663 0
M  V30 15288 H 1420.13 0.447876 -2.07624 0
M  V30 15289 H 1422.39 0.260581 -0.911483 0
M  V30 15290 H 1422.1 1.52172 -3.17075 0
M  V30 15291 H 1421.97 3.01797 -2.2627 0
M  V30 15292 H 1424.36 2.6225 -1.35311 0
M  V30 15293 H 1424.44 1.1275 -2.29611 0
M  V30 15294 H 1424.08 2.48149 -4.43153 0
M  V30 15295 H 1424.01 3.9717 -3.45779 0
M  V30 15296 H 1426.5 2.56888 -2.77159 0
M  V30 15297 H 1426.82 4.7775 -6.07433 0
M  V30 15298 H 1425.16 4.302 -5.45851 0
M  V30 15299 H 1428.35 3.11973 -3.48985 0
M  V30 15300 H 1428.53 4.12706 -4.99578 0
M  V30 15301 N 1421.93 1.0643 1.16234 0
M  V30 15302 C 1422.88 0.670457 2.22728 0
M  V30 15303 C 1423.87 -0.31428 1.66459 0
M  V30 15304 O 1425.08 -0.178996 1.79108 0
M  V30 15305 H 1421.46 0.198692 0.725276 0
M  V30 15306 H 1423.43 1.57846 2.53233 0
M  V30 15307 C 1422.18 0.074379 3.4762 0
M  V30 15308 H 1421.5 0.823227 3.91233 0
M  V30 15309 H 1422.94 -0.163652 4.23684 0
M  V30 15310 C 1421.4 -1.18242 3.15469 0
M  V30 15311 O 1421.93 -2.27018 3.314 0
M  V30 15312 N 1420.13 -1.08493 2.69588 0
M  V30 15313 H 1419.68 -0.199714 2.56825 0
M  V30 15314 H 1419.64 -1.92666 2.48449 0
M  V30 15315 N 1423.41 -1.329 0.847073 0
M  V30 15316 C 1424.37 -2.27341 0.291324 0
M  V30 15317 C 1425.37 -1.51295 -0.544653 0
M  V30 15318 O 1426.56 -1.70497 -0.357258 0
M  V30 15319 C 1423.7 -3.35779 -0.588668 0
M  V30 15320 H 1424.89 -2.78009 1.12477 0
M  V30 15321 H 1422.44 -1.43442 0.620803 0
M  V30 15322 H 1423.18 -2.90366 -1.44423 0
M  V30 15323 H 1422.96 -3.92099 0.00960515 0
M  V30 15324 H 1424.45 -4.06166 -0.970526 0
M  V30 15325 N 1424.89 -0.604284 -1.45555 0
M  V30 15326 C 1426.11 -0.102634 -2.07146 0
M  V30 15327 C 1426.54 1.20239 -1.44652 0
M  V30 15328 O 1425.9 1.73133 -0.538033 0
M  V30 15329 C 1425.94 0.0270231 -3.6059 0
M  V30 15330 O 1425.05 1.0781 -3.98059 0
M  V30 15331 H 1424.39 -0.0725667 -0.660023 0
M  V30 15332 H 1426.92 -0.833355 -1.86859 0
M  V30 15333 H 1426.93 0.226299 -4.07372 0
M  V30 15334 H 1425.6 -0.925896 -4.05463 0
M  V30 15335 H 1424.18 0.855552 -3.62953 0
M  V30 15336 N 1426.37 1.53816 -0.343257 0
M  V30 15337 C 1427.61 2.00512 0.252845 0
M  V30 15338 C 1427.94 1.23274 1.51091 0
M  V30 15339 O 1427.21 0.339841 1.9293 0
M  V30 15340 H 1425.79 0.740751 0.0964202 0
M  V30 15341 H 1428.45 1.89288 -0.464347 0
M  V30 15342 H 1427.54 3.08142 0.495499 0
M  V30 15343 N 1427.84 0.0718701 1.57436 0
M  V30 15344 C 1429.09 -0.597231 1.93493 0
M  V30 15345 C 1429.42 -1.69614 0.951906 0
M  V30 15346 O 1428.67 -1.95673 -0.0324554 0
M  V30 15347 C 1428.97 -1.21336 3.36173 0
M  V30 15348 C 1428.64 -0.240582 4.50258 0
M  V30 15349 C 1427.3 0.0270368 4.81192 0
M  V30 15350 C 1429.65 0.424924 5.19465 0
M  V30 15351 C 1426.98 0.967249 5.78672 0
M  V30 15352 C 1429.33 1.35346 6.17952 0
M  V30 15353 C 1428 1.62954 6.47304 0
M  V30 15354 H 1427.27 -0.218542 0.70804 0
M  V30 15355 H 1429.91 0.142762 1.90967 0
M  V30 15356 H 1428.22 -2.02909 3.35164 0
M  V30 15357 H 1429.92 -1.73836 3.61361 0
M  V30 15358 H 1426.51 -0.459352 4.26131 0
M  V30 15359 H 1430.69 0.231285 4.95761 0
M  V30 15360 H 1425.95 1.1884 5.99739 0
M  V30 15361 H 1430.12 1.87509 6.70681 0
M  V30 15362 H 1427.75 2.3597 7.2265 0
M  V30 15363 N 1429.32 -1.56304 -0.201686 0
M  V30 15364 C 1430.27 -1.90422 -1.25393 0
M  V30 15365 C 1431.26 -0.769236 -1.41321 0
M  V30 15366 O 1432.45 -1.03199 -1.43802 0
M  V30 15367 C 1429.58 -2.24157 -2.60016 0
M  V30 15368 C 1428.66 -3.44097 -2.47908 0
M  V30 15369 N 1429.05 -4.62185 -2.05471 0
M  V30 15370 C 1427.35 -3.48105 -2.78817 0
M  V30 15371 C 1428.05 -5.44345 -2.05095 0
M  V30 15372 N 1427.03 -4.84576 -2.46346 0
M  V30 15373 H 1430.83 -2.79227 -0.917045 0
M  V30 15374 H 1428.35 -1.57135 -0.410157 0
M  V30 15375 H 1430.34 -2.46782 -3.36012 0
M  V30 15376 H 1429 -1.36676 -2.94533 0
M  V30 15377 H 1430.01 -4.86974 -1.76285 0
M  V30 15378 H 1426.69 -2.71022 -3.17574 0
M  V30 15379 H 1428.08 -6.48914 -1.74242 0
M  V30 15380 N 1430.8 0.469154 -1.50455 0
M  V30 15381 C 1431.73 1.57493 -1.7239 0
M  V30 15382 C 1432.71 1.60161 -0.572915 0
M  V30 15383 O 1433.9 1.76397 -0.812259 0
M  V30 15384 C 1431.03 2.95804 -1.81981 0
M  V30 15385 C 1429.98 3.08001 -2.97185 0
M  V30 15386 C 1429.31 4.4798 -2.91922 0
M  V30 15387 C 1430.61 2.85039 -4.37665 0
M  V30 15388 H 1432.3 1.39389 -2.64974 0
M  V30 15389 H 1429.85 0.669133 -1.27509 0
M  V30 15390 H 1431.8 3.73091 -1.95911 0
M  V30 15391 H 1430.52 3.15068 -0.86021 0
M  V30 15392 H 1429.18 2.33148 -2.82909 0
M  V30 15393 H 1428.83 4.64165 -1.93803 0
M  V30 15394 H 1428.53 4.57076 -3.69263 0
M  V30 15395 H 1430.05 5.27284 -3.07903 0
M  V30 15396 H 1431.47 3.52074 -4.52456 0
M  V30 15397 H 1429.87 3.05578 -5.16471 0
M  V30 15398 H 1430.94 1.8088 -4.499 0
M  V30 15399 N 1432.28 1.40065 0.722464 0
M  V30 15400 C 1433.69 1.33876 1.30131 0
M  V30 15401 C 1434.04 0.00899369 1.96198 0
M  V30 15402 O 1433.17 -0.893082 1.97112 0
M  V30 15403 C 1433.76 2.42469 2.36631 0
M  V30 15404 C 1432.32 2.39762 2.90157 0
M  V30 15405 C 1431.47 2.23704 1.63865 0
M  V30 15406 H 1434.42 1.49971 0.519077 0
M  V30 15407 H 1434.44 2.0998 3.17315 0
M  V30 15408 H 1433.95 3.39239 1.88517 0
M  V30 15409 H 1432.05 1.46669 3.42519 0
M  V30 15410 H 1432.16 3.35092 3.42419 0
M  V30 15411 H 1430.53 1.71098 1.88674 0
M  V30 15412 H 1431.31 3.22462 1.17785 0
M  V30 15413 N 1433.76 -0.95397 1.25448 0
M  V30 15414 C 1434.67 -2.08452 1.07634 0
M  V30 15415 C 1435.68 -1.73995 0.013294 0
M  V30 15416 O 1436.86 -2.00256 0.214367 0
M  V30 15417 C 1433.92 -3.39606 0.697756 0
M  V30 15418 C 1432.99 -3.87926 1.83881 0
M  V30 15419 C 1432.22 -5.12821 1.47819 0
M  V30 15420 O 1432.44 -5.69172 0.374143 0
M  V30 15421 O 1431.38 -5.55866 2.3086 0
M  V30 15422 H 1435.2 -2.26382 2.02447 0
M  V30 15423 H 1432.79 -1.06877 1.04392 0
M  V30 15424 H 1434.67 -4.18438 0.498778 0
M  V30 15425 H 1433.34 -3.22944 -0.221108 0
M  V30 15426 H 1432.25 -3.10095 2.09265 0
M  V30 15427 H 1433.58 -4.09087 2.73694 0
M  V30 15428 N 1435.24 -1.07045 -1.15668 0
M  V30 15429 C 1436.51 -0.704942 -1.82455 0
M  V30 15430 C 1436.89 0.812921 -1.9482 0
M  V30 15431 O 1436.24 1.72615 -1.49721 0
M  V30 15432 C 1436.45 -1.41574 -3.18995 0
M  V30 15433 C 1437.8 -1.56584 -3.94673 0
M  V30 15434 O 1438.82 -1.37626 -3.28538 0
M  V30 15435 O 1437.68 -1.87751 -5.13237 0
M  V30 15436 H 1434.78 -0.250469 -0.788159 0
M  V30 15437 H 1437.32 -1.17118 -1.22806 0
M  V30 15438 H 1436.09 -2.4504 -3.05075 0
M  V30 15439 H 1435.72 -0.940071 -3.86327 0
M  V30 15440 N 1436.71 1.32449 -0.85411 0
M  V30 15441 C 1438.12 1.79545 -0.511923 0
M  V30 15442 C 1438.48 1.70534 0.970188 0
M  V30 15443 O 1437.6 1.2636 1.75676 0
M  V30 15444 C 1438.2 3.26 -0.922456 0
M  V30 15445 C 1436.75 3.71053 -0.632176 0
M  V30 15446 C 1435.9 2.53565 -1.12249 0
M  V30 15447 H 1438.85 1.19755 -1.04137 0
M  V30 15448 H 1438.87 3.79751 -0.238618 0
M  V30 15449 H 1438.39 3.32526 -2.00119 0
M  V30 15450 H 1436.49 3.70042 0.435862 0
M  V30 15451 H 1436.6 4.63878 -1.19809 0
M  V30 15452 H 1434.96 2.48849 -0.542781 0
M  V30 15453 H 1435.75 2.62846 -2.20832 0
M  V30 15454 N 1438.19 0.611994 1.45232 0
M  V30 15455 C 1439.42 0.113618 2.07089 0
M  V30 15456 C 1439.84 -1.1947 1.45288 0
M  V30 15457 O 1439.2 -1.72845 0.547207 0
M  V30 15458 C 1439.25 -0.00789978 3.60599 0
M  V30 15459 O 1438.35 -1.05697 3.98625 0
M  V30 15460 H 1437.69 0.076066 0.659629 0
M  V30 15461 H 1440.22 0.843253 1.86415 0
M  V30 15462 H 1440.23 -0.204692 4.07486 0
M  V30 15463 H 1438.91 0.947386 4.04966 0
M  V30 15464 H 1437.48 -0.836291 3.63401 0
M  V30 15465 N 1439.67 -1.53632 0.351409 0
M  V30 15466 C 1440.62 -2.22041 -0.517867 0
M  V30 15467 C 1441.6 -1.21057 -1.0599 0
M  V30 15468 O 1442.8 -1.46569 -0.992298 0
M  V30 15469 C 1439.92 -3.00259 -1.66432 0
M  V30 15470 C 1439.01 -4.08607 -1.13584 0
M  V30 15471 N 1439.4 -5.04727 -0.329217 0
M  V30 15472 C 1437.7 -4.23059 -1.412 0
M  V30 15473 C 1438.4 -5.81685 -0.0415005 0
M  V30 15474 N 1437.38 -5.39875 -0.635288 0
M  V30 15475 H 1441.18 -2.93711 0.105386 0
M  V30 15476 H 1438.69 -1.61623 0.15868 0
M  V30 15477 H 1440.69 -3.47774 -2.29911 0
M  V30 15478 H 1439.35 -2.30117 -2.29077 0
M  V30 15479 H 1440.36 -5.17891 0.0303777 0
M  V30 15480 H 1437.04 -3.64139 -2.04227 0
M  V30 15481 H 1438.43 -6.69128 0.609686 0
M  V30 15482 N 1441.15 -0.0802183 -1.57396 0
M  V30 15483 C 1442.56 0.451183 -1.81166 0
M  V30 15484 C 1442.91 1.69112 -0.994764 0
M  V30 15485 O 1442.03 2.15281 -0.219739 0
M  V30 15486 C 1442.63 0.825324 -3.28594 0
M  V30 15487 C 1441.19 1.30154 -3.53181 0
M  V30 15488 C 1440.34 0.290846 -2.75771 0
M  V30 15489 H 1443.29 -0.305829 -1.55725 0
M  V30 15490 H 1443.31 1.68608 -3.41104 0
M  V30 15491 H 1442.82 -0.0773119 -3.88023 0
M  V30 15492 H 1440.92 2.22239 -2.99066 0
M  V30 15493 H 1441.03 1.27365 -4.6186 0
M  V30 15494 H 1439.4 0.769894 -2.42785 0
M  V30 15495 H 1440.18 -0.604209 -3.37941 0
M  V30 15496 N 1442.63 1.56409 0.193394 0
M  V30 15497 C 1443.87 1.82511 0.920268 0
M  V30 15498 C 1444.23 0.657957 1.80374 0
M  V30 15499 O 1445.43 0.798914 2.56653 0
M  V30 15500 C 1443.7 3.13644 1.71354 0
M  V30 15501 S 1445.26 3.61158 2.4922 0
M  V30 15502 H 1442.08 0.64052 0.308634 0
M  V30 15503 H 1444.68 1.94637 0.183542 0
M  V30 15504 H 1443.38 3.96604 1.05514 0
M  V30 15505 H 1442.92 3.04402 2.49205 0
M  V30 15506 H 1444.93 3.26729 3.73447 0
M  V30 15507 N 1444.1 -0.461169 1.50702 0
M  V30 15508 C 1445.35 -1.20934 1.61425 0
M  V30 15509 C 1445.67 -1.92884 0.32481 0
M  V30 15510 O 1446.87 -2.69712 0.311081 0
M  V30 15511 C 1445.33 -2.19797 2.84987 0
M  V30 15512 C 1444.94 -1.53604 4.20844 0
M  V30 15513 C 1446.68 -2.95194 3.05059 0
M  V30 15514 C 1444.59 -2.50811 5.35582 0
M  V30 15515 H 1443.52 -0.455088 0.601174 0
M  V30 15516 H 1446.17 -0.478771 1.77144 0
M  V30 15517 H 1444.55 -2.96187 2.62848 0
M  V30 15518 H 1445.72 -0.829345 4.53275 0
M  V30 15519 H 1444.04 -0.904504 4.06457 0
M  V30 15520 H 1446.64 -3.67965 3.87951 0
M  V30 15521 H 1446.98 -3.5516 2.1718 0
M  V30 15522 H 1447.51 -2.25915 3.27425 0
M  V30 15523 H 1444.25 -1.9557 6.25646 0
M  V30 15524 H 1443.77 -3.19604 5.07556 0
M  V30 15525 H 1445.45 -3.12437 5.66561 0
M  V30 15526 N 1445.58 -1.40446 -0.715026 0
M  V30 15527 C 1446.51 -1.43511 -1.84193 0
M  V30 15528 C 1447.49 -0.295969 -1.67505 0
M  V30 15529 O 1448.68 -0.504667 -1.87528 0
M  V30 15530 C 1445.81 -1.29751 -3.22152 0
M  V30 15531 C 1444.76 -2.41274 -3.53512 0
M  V30 15532 C 1444.09 -2.12591 -4.90621 0
M  V30 15533 C 1445.39 -3.83614 -3.54454 0
M  V30 15534 H 1447.08 -2.37819 -1.81885 0
M  V30 15535 H 1444.63 -1.14469 -0.873655 0
M  V30 15536 H 1446.58 -1.30511 -4.0068 0
M  V30 15537 H 1445.3 -0.319189 -3.25037 0
M  V30 15538 H 1443.96 -2.39764 -2.77324 0
M  V30 15539 H 1443.61 -1.13148 -4.90109 0
M  V30 15540 H 1443.31 -2.87308 -5.1257 0
M  V30 15541 H 1444.84 -2.15034 -5.71483 0
M  V30 15542 H 1446.25 -3.86945 -4.23021 0
M  V30 15543 H 1444.65 -4.57855 -3.87929 0
M  V30 15544 H 1445.72 -4.13159 -2.53827 0
M  V30 15545 N 1447.06 0.947303 -1.25952 0
M  V30 15546 C 1448.31 1.68721 -1.10527 0
M  V30 15547 C 1448.62 1.92403 0.352215 0
M  V30 15548 O 1449.83 2.6416 0.627036 0
M  V30 15549 C 1448.28 3.03785 -1.92983 0
M  V30 15550 C 1447.89 2.87873 -3.43268 0
M  V30 15551 C 1449.64 3.81509 -1.86149 0
M  V30 15552 C 1447.54 4.18373 -4.17993 0
M  V30 15553 H 1446.47 0.632774 -0.410016 0
M  V30 15554 H 1449.12 1.054 -1.5021 0
M  V30 15555 H 1447.51 3.68052 -1.46128 0
M  V30 15556 H 1448.68 2.32493 -3.97848 0
M  V30 15557 H 1446.99 2.23598 -3.51273 0
M  V30 15558 H 1449.59 4.78179 -2.39267 0
M  V30 15559 H 1449.93 4.07923 -0.83091 0
M  V30 15560 H 1450.47 3.24005 -2.30794 0
M  V30 15561 H 1447.21 3.97145 -5.21494 0
M  V30 15562 H 1446.73 4.7349 -3.68194 0
M  V30 15563 H 1448.41 4.86869 -4.26108 0
M  V30 15564 N 1448.54 1.07657 1.15099 0
M  V30 15565 C 1449.79 0.800025 1.85591 0
M  V30 15566 C 1450.11 -0.675973 1.82909 0
M  V30 15567 O 1449.38 -1.48971 1.27218 0
M  V30 15568 H 1447.96 0.292958 0.687157 0
M  V30 15569 H 1450.62 1.36096 1.39513 0
M  V30 15570 H 1449.72 1.13733 2.90639 0
M  V30 15571 N 1450.02 -1.31994 0.861122 0
M  V30 15572 C 1451.43 -1.79271 0.521437 0
M  V30 15573 C 1451.78 -1.71046 -0.96113 0
M  V30 15574 O 1450.9 -1.2729 -1.75003 0
M  V30 15575 C 1451.5 -3.25507 0.939731 0
M  V30 15576 C 1450.06 -3.70713 0.651845 0
M  V30 15577 C 1449.2 -2.52967 1.13592 0
M  V30 15578 H 1452.16 -1.19201 1.0477 0
M  V30 15579 H 1452.18 -3.79619 0.258754 0
M  V30 15580 H 1451.69 -3.3146 2.0188 0
M  V30 15581 H 1449.79 -3.70268 -0.416232 0
M  V30 15582 H 1449.9 -4.63236 1.22267 0
M  V30 15583 H 1448.27 -2.48558 0.555971 0
M  V30 15584 H 1449.05 -2.61671 2.22223 0
M  V30 15585 N 1451.49 -0.619688 -1.44906 0
M  V30 15586 C 1452.74 -0.119397 -2.01747 0
M  V30 15587 C 1453.06 1.25904 -1.48907 0
M  V30 15588 O 1452.33 1.83417 -0.688104 0
M  V30 15589 H 1450.91 -0.0411482 -0.745866 0
M  V30 15590 H 1453.58 -0.803813 -1.77552 0
M  V30 15591 H 1452.67 -0.078368 -3.12002 0
M  V30 15592 N 1452.97 1.53444 -0.359552 0
M  V30 15593 C 1454.2 2.05584 0.232953 0
M  V30 15594 C 1454.62 1.23347 1.42937 0
M  V30 15595 O 1453.97 0.272662 1.80452 0
M  V30 15596 C 1454.02 3.55926 0.632359 0
M  V30 15597 O 1453.74 4.35045 -0.516494 0
M  V30 15598 C 1455.25 4.24301 1.28389 0
M  V30 15599 H 1452.47 0.669676 0.042132 0
M  V30 15600 H 1455.01 1.97878 -0.516176 0
M  V30 15601 H 1453.16 3.63802 1.33141 0
M  V30 15602 H 1453.58 5.24138 -0.194906 0
M  V30 15603 H 1455.05 5.30832 1.51397 0
M  V30 15604 H 1455.53 3.77644 2.24236 0
M  V30 15605 H 1456.14 4.20661 0.626438 0
M  V30 15606 N 1454.45 0.0885642 1.57351 0
M  V30 15607 C 1455.7 -0.575536 1.93732 0
M  V30 15608 C 1456.02 -1.69126 0.970644 0
M  V30 15609 O 1455.29 -1.95888 0.0215907 0
M  V30 15610 H 1453.87 -0.215592 0.715213 0
M  V30 15611 H 1456.53 0.150362 1.94319 0
M  V30 15612 H 1455.63 -0.989979 2.95983 0
M  V30 15613 N 1455.93 -1.56509 -0.185096 0
M  V30 15614 C 1457.18 -1.804 -0.902158 0
M  V30 15615 C 1457.49 -0.663496 -1.84003 0
M  V30 15616 O 1458.7 -0.786963 -2.59844 0
M  V30 15617 C 1457.15 -3.19608 -1.65466 0
M  V30 15618 C 1456.76 -4.41487 -0.761109 0
M  V30 15619 C 1458.5 -3.52801 -2.36076 0
M  V30 15620 C 1456.41 -5.71717 -1.51305 0
M  V30 15621 H 1455.34 -0.67268 -0.340614 0
M  V30 15622 H 1457.99 -1.82842 -0.155273 0
M  V30 15623 H 1456.37 -3.11443 -2.44579 0
M  V30 15624 H 1457.55 -4.60799 -0.00791878 0
M  V30 15625 H 1455.86 -4.16072 -0.165344 0
M  V30 15626 H 1458.46 -4.47339 -2.92902 0
M  V30 15627 H 1458.8 -2.77021 -3.10749 0
M  V30 15628 H 1459.34 -3.62457 -1.63919 0
M  V30 15629 H 1456.08 -6.5049 -0.808907 0
M  V30 15630 H 1455.6 -5.56406 -2.23992 0
M  V30 15631 H 1457.27 -6.13188 -2.0642 0
M  V30 15632 N 1457.41 0.45317 -1.50944 0
M  V30 15633 C 1458.37 1.5313 -1.7054 0
M  V30 15634 C 1459.37 1.50142 -0.575678 0
M  V30 15635 O 1460.56 1.52444 -0.842997 0
M  V30 15636 C 1457.69 2.92719 -1.74723 0
M  V30 15637 H 1458.88 1.37066 -2.66745 0
M  V30 15638 H 1456.44 0.680783 -1.40695 0
M  V30 15639 H 1457.17 3.14208 -0.802753 0
M  V30 15640 H 1456.96 2.96295 -2.56811 0
M  V30 15641 H 1458.45 3.7096 -1.91777 0
M  V30 15642 N 1458.88 1.40823 0.707568 0
M  V30 15643 C 1460.3 1.35249 1.28704 0
M  V30 15644 C 1460.65 0.0298026 1.96177 0
M  V30 15645 O 1459.77 -0.872126 1.98048 0
M  V30 15646 C 1460.37 2.44965 2.34046 0
M  V30 15647 C 1458.93 2.42826 2.87598 0
M  V30 15648 C 1458.07 2.25429 1.61483 0
M  V30 15649 H 1461.02 1.50513 0.503141 0
M  V30 15650 H 1461.04 2.13334 3.1507 0
M  V30 15651 H 1460.56 3.41219 1.84908 0
M  V30 15652 H 1458.66 1.50294 3.40944 0
M  V30 15653 H 1458.77 3.38704 3.38845 0
M  V30 15654 H 1457.13 1.73089 1.86848 0
M  V30 15655 H 1457.92 3.23693 1.14359 0
M  V30 15656 N 1460.36 -0.94061 1.26453 0
M  V30 15657 C 1461.61 -1.68687 1.12031 0
M  V30 15658 C 1461.94 -1.91571 -0.336252 0
M  V30 15659 O 1461.19 -1.49458 -1.26336 0
M  V30 15660 C 1461.49 -3.06683 1.83521 0
M  V30 15661 C 1461.16 -3.03553 3.33416 0
M  V30 15662 C 1459.82 -3.02407 3.74304 0
M  V30 15663 C 1462.17 -2.95817 4.29118 0
M  V30 15664 C 1459.5 -2.9129 5.09281 0
M  V30 15665 C 1461.85 -2.86242 5.64135 0
M  V30 15666 C 1460.52 -2.83438 6.04333 0
M  V30 15667 H 1459.79 -0.61727 0.40995 0
M  V30 15668 H 1462.43 -1.0979 1.56902 0
M  V30 15669 H 1460.74 -3.69208 1.31121 0
M  V30 15670 H 1462.43 -3.63274 1.69802 0
M  V30 15671 H 1459.02 -3.05226 3.00891 0
M  V30 15672 H 1463.21 -2.9581 3.9851 0
M  V30 15673 H 1458.46 -2.87498 5.39588 0
M  V30 15674 H 1462.64 -2.79219 6.37973 0
M  V30 15675 H 1460.27 -2.74581 7.08879 0
M  V30 15676 N 1461.84 -1.08266 -1.14527 0
M  V30 15677 C 1463.26 -0.810001 -1.37518 0
M  V30 15678 C 1463.46 0.581399 -1.9293 0
M  V30 15679 O 1462.51 1.33846 -2.14107 0
M  V30 15680 C 1463.83 -1.89149 -2.33759 0
M  V30 15681 C 1465.37 -1.91733 -2.47401 0
M  V30 15682 C 1465.85 -2.98992 -3.4694 0
M  V30 15683 N 1467.34 -2.98155 -3.54483 0
M  V30 15684 C 1468.07 -3.77791 -4.31349 0
M  V30 15685 N 1467.57 -4.67302 -5.11469 0
M  V30 15686 N 1469.36 -3.66099 -4.2653 0
M  V30 15687 H 1461.51 -1.97988 -0.769048 0
M  V30 15688 H 1463.78 -0.859115 -0.40078 0
M  V30 15689 H 1463.48 -2.89175 -2.00176 0
M  V30 15690 H 1463.36 -1.75955 -3.33646 0
M  V30 15691 H 1465.74 -0.923531 -2.80276 0
M  V30 15692 H 1465.83 -2.09005 -1.4748 0
M  V30 15693 H 1465.47 -3.98578 -3.14799 0
M  V30 15694 H 1465.4 -2.78965 -4.46639 0
M  V30 15695 H 1467.89 -2.33277 -2.97305 0
M  V30 15696 H 1468.2 -5.24676 -5.67393 0
M  V30 15697 H 1466.55 -4.71345 -5.10743 0
M  V30 15698 H 1469.74 -2.95539 -3.63008 0
M  V30 15699 H 1469.91 -4.28402 -4.86185 0
M  V30 15700 N 1463.32 1.31536 -0.86811 0
M  V30 15701 C 1464.54 2.01487 -0.491705 0
M  V30 15702 C 1464.97 1.64744 0.907803 0
M  V30 15703 O 1464.33 0.855093 1.59868 0
M  V30 15704 C 1464.38 3.54621 -0.65395 0
M  V30 15705 O 1463.48 4.11252 0.307532 0
M  V30 15706 H 1462.82 0.634469 -0.195819 0
M  V30 15707 H 1465.35 1.67775 -1.17101 0
M  V30 15708 H 1465.36 4.04323 -0.546539 0
M  V30 15709 H 1464.04 3.80704 -1.67443 0
M  V30 15710 H 1462.61 3.72577 0.155233 0
M  V30 15711 N 1464.8 0.627364 1.44575 0
M  V30 15712 C 1466.04 0.130352 2.0208 0
M  V30 15713 C 1466.37 -1.24642 1.49314 0
M  V30 15714 O 1465.63 -1.84022 0.665923 0
M  V30 15715 C 1465.93 0.0622409 3.57346 0
M  V30 15716 C 1465.59 1.37729 4.2935 0
M  V30 15717 C 1464.25 1.73747 4.48737 0
M  V30 15718 C 1466.61 2.2455 4.70347 0
M  V30 15719 C 1463.93 2.96301 5.06382 0
M  V30 15720 C 1466.29 3.46371 5.29349 0
M  V30 15721 C 1464.95 3.82616 5.46956 0
M  V30 15722 H 1464.22 0.0476991 0.739463 0
M  V30 15723 H 1466.87 0.812928 1.73389 0
M  V30 15724 H 1465.17 -0.70369 3.85429 0
M  V30 15725 H 1466.87 -0.338778 3.99566 0
M  V30 15726 H 1463.46 1.08699 4.14587 0
M  V30 15727 H 1467.64 1.98019 4.55085 0
M  V30 15728 H 1462.9 3.24465 5.18201 0
M  V30 15729 H 1467.07 4.13882 5.60067 0
M  V30 15730 H 1464.7 4.77663 5.9139 0
M  V30 15731 N 1466.28 -1.53251 0.367684 0
M  V30 15732 C 1467.52 -2.02269 -0.214246 0
M  V30 15733 C 1467.88 -1.25014 -1.46251 0
M  V30 15734 O 1467.17 -0.335984 -1.88631 0
M  V30 15735 C 1467.36 -3.53031 -0.557149 0
M  V30 15736 C 1467.19 -4.44885 0.656332 0
M  V30 15737 C 1465.96 -4.91591 1.16905 0
M  V30 15738 C 1468.16 -4.91258 1.52218 0
M  V30 15739 N 1466.14 -5.67457 2.34233 0
M  V30 15740 C 1467.51 -5.65488 2.5421 0
M  V30 15741 C 1469.57 -4.73329 1.54481 0
M  V30 15742 C 1468.27 -6.23696 3.58324 0
M  V30 15743 C 1470.3 -5.32403 2.5749 0
M  V30 15744 C 1469.66 -6.06521 3.58206 0
M  V30 15745 H 1465.76 -0.780921 -0.0410579 0
M  V30 15746 H 1468.34 -1.87828 0.512703 0
M  V30 15747 H 1466.51 -3.67628 -1.25317 0
M  V30 15748 H 1468.25 -3.88768 -1.12435 0
M  V30 15749 H 1465 -4.67888 0.733353 0
M  V30 15750 H 1465.42 -6.10052 2.9354 0
M  V30 15751 H 1470.07 -4.15549 0.779688 0
M  V30 15752 H 1467.78 -6.8057 4.35717 0
M  V30 15753 H 1471.37 -5.20423 2.60098 0
M  V30 15754 H 1470.25 -6.51418 4.36606 0
M  V30 15755 N 1467.75 -0.0969077 -1.57302 0
M  V30 15756 C 1468.69 0.891431 -2.11154 0
M  V30 15757 C 1469.7 1.24482 -1.04919 0
M  V30 15758 O 1470.89 1.19762 -1.3236 0
M  V30 15759 C 1467.99 2.19998 -2.57787 0
M  V30 15760 C 1467.16 2.02165 -3.87876 0
M  V30 15761 C 1466.22 3.16549 -4.20337 0
M  V30 15762 O 1465.25 2.90432 -4.89528 0
M  V30 15763 N 1466.45 4.42369 -3.75885 0
M  V30 15764 H 1469.21 0.431477 -2.96578 0
M  V30 15765 H 1466.77 0.0881458 -1.6166 0
M  V30 15766 H 1468.77 2.95472 -2.76547 0
M  V30 15767 H 1467.34 2.57412 -1.77364 0
M  V30 15768 H 1466.56 1.11011 -3.78246 0
M  V30 15769 H 1467.84 1.87529 -4.7298 0
M  V30 15770 H 1467.24 4.66469 -3.20036 0
M  V30 15771 H 1465.8 5.14787 -3.99797 0
M  V30 15772 N 1469.23 1.56605 0.176793 0
M  V30 15773 C 1470.16 1.9254 1.24342 0
M  V30 15774 C 1471.18 0.81792 1.40762 0
M  V30 15775 O 1472.37 1.09636 1.40862 0
M  V30 15776 C 1469.47 2.15822 2.61293 0
M  V30 15777 C 1468.64 3.47035 2.66243 0
M  V30 15778 C 1467.7 3.5921 3.84519 0
M  V30 15779 O 1466.72 4.31876 3.70771 0
M  V30 15780 N 1467.93 2.93653 5.00748 0
M  V30 15781 H 1470.69 2.84635 0.938246 0
M  V30 15782 H 1468.25 1.57695 0.366597 0
M  V30 15783 H 1470.24 2.21237 3.38875 0
M  V30 15784 H 1468.81 1.30138 2.84223 0
M  V30 15785 H 1468.03 3.53326 1.74798 0
M  V30 15786 H 1469.32 4.33388 2.66557 0
M  V30 15787 H 1468.72 2.34476 5.14818 0
M  V30 15788 H 1467.28 3.04671 5.76211 0
M  V30 15789 N 1470.71 -0.445159 1.51182 0
M  V30 15790 C 1472.13 -0.781023 1.39184 0
M  V30 15791 C 1472.33 -1.95988 0.468076 0
M  V30 15792 O 1471.38 -2.52374 -0.0796822 0
M  V30 15793 C 1472.69 -1.06874 2.81067 0
M  V30 15794 C 1474.24 -1.17364 2.90163 0
M  V30 15795 C 1474.72 -1.49433 4.32936 0
M  V30 15796 N 1476.21 -1.56373 4.36006 0
M  V30 15797 C 1476.94 -1.82743 5.435 0
M  V30 15798 N 1476.44 -2.06958 6.61166 0
M  V30 15799 N 1478.23 -1.84461 5.30971 0
M  V30 15800 H 1470.38 0.331347 2.098 0
M  V30 15801 H 1472.65 0.0858102 0.944108 0
M  V30 15802 H 1472.35 -0.275306 3.50621 0
M  V30 15803 H 1472.23 -1.99839 3.19913 0
M  V30 15804 H 1474.61 -1.95771 2.20812 0
M  V30 15805 H 1474.69 -0.22318 2.54825 0
M  V30 15806 H 1474.34 -0.715573 5.02834 0
M  V30 15807 H 1474.27 -2.45673 4.65782 0
M  V30 15808 H 1476.76 -1.39595 3.51172 0
M  V30 15809 H 1477.07 -2.26427 7.38885 0
M  V30 15810 H 1475.42 -2.04297 6.64295 0
M  V30 15811 H 1478.61 -1.65057 4.38034 0
M  V30 15812 H 1478.78 -2.04675 6.14827 0
M  V30 15813 N 1472.19 -1.41197 -0.700089 0
M  V30 15814 C 1473.12 -1.45456 -1.8266 0
M  V30 15815 C 1474.1 -0.313719 -1.67182 0
M  V30 15816 O 1475.28 -0.524528 -1.86982 0
M  V30 15817 C 1472.41 -1.33161 -3.20758 0
M  V30 15818 C 1471.37 -2.4501 -3.50933 0
M  V30 15819 C 1470.69 -2.17782 -4.88339 0
M  V30 15820 C 1471.99 -3.87352 -3.50365 0
M  V30 15821 H 1473.69 -2.39735 -1.79353 0
M  V30 15822 H 1471.23 -1.1539 -0.861465 0
M  V30 15823 H 1473.19 -1.34754 -3.99274 0
M  V30 15824 H 1471.91 -0.353646 -3.2468 0
M  V30 15825 H 1470.57 -2.42692 -2.74766 0
M  V30 15826 H 1470.22 -1.1834 -4.88881 0
M  V30 15827 H 1469.92 -2.92728 -5.09494 0
M  V30 15828 H 1471.44 -2.21083 -5.6917 0
M  V30 15829 H 1472.86 -3.9141 -4.18893 0
M  V30 15830 H 1471.25 -4.61944 -3.83051 0
M  V30 15831 H 1472.32 -4.15827 -2.4943 0
M  V30 15832 N 1473.67 0.933891 -1.2695 0
M  V30 15833 C 1474.62 2.01966 -1.05801 0
M  V30 15834 C 1475.6 1.60896 0.0119868 0
M  V30 15835 O 1476.79 1.75799 -0.205827 0
M  V30 15836 C 1473.92 3.36073 -0.700695 0
M  V30 15837 C 1473.01 3.83606 -1.80852 0
M  V30 15838 N 1473.4 4.03713 -3.04712 0
M  V30 15839 C 1471.7 4.12586 -1.69378 0
M  V30 15840 C 1472.4 4.43199 -3.76762 0
M  V30 15841 N 1471.37 4.50319 -3.0449 0
M  V30 15842 H 1475.17 2.15534 -1.99806 0
M  V30 15843 H 1472.69 1.12027 -1.17574 0
M  V30 15844 H 1474.69 4.13513 -0.530316 0
M  V30 15845 H 1473.35 3.23872 0.231801 0
M  V30 15846 H 1474.36 3.90196 -3.4054 0
M  V30 15847 H 1471.03 4.09132 -0.831695 0
M  V30 15848 H 1472.42 4.66887 -4.83184 0
M  V30 15849 N 1475.14 1.08871 1.13951 0
M  V30 15850 C 1476.42 0.73388 1.81311 0
M  V30 15851 C 1476.8 -0.781824 1.96089 0
M  V30 15852 O 1476.15 -1.70211 1.52448 0
M  V30 15853 C 1476.36 1.46631 3.16702 0
M  V30 15854 C 1477.71 1.62843 3.92132 0
M  V30 15855 O 1478.73 1.42836 3.26307 0
M  V30 15856 O 1477.59 1.95893 5.10185 0
M  V30 15857 H 1474.68 0.262976 0.784074 0
M  V30 15858 H 1477.23 1.19057 1.20927 0
M  V30 15859 H 1476 2.49863 3.01138 0
M  V30 15860 H 1475.62 1.00141 3.84782 0
M  V30 15861 N 1476.62 -1.31073 0.875073 0
M  V30 15862 C 1477.85 -2.01223 0.502383 0
M  V30 15863 C 1478.27 -1.65223 -0.899053 0
M  V30 15864 O 1477.63 -0.863559 -1.59412 0
M  V30 15865 C 1477.68 -3.54269 0.672747 0
M  V30 15866 O 1476.78 -4.11409 -0.285718 0
M  V30 15867 H 1476.12 -0.633422 0.199181 0
M  V30 15868 H 1478.65 -1.67152 1.17989 0
M  V30 15869 H 1478.66 -4.04027 0.567973 0
M  V30 15870 H 1477.34 -3.79811 1.69459 0
M  V30 15871 H 1475.91 -3.72654 -0.135472 0
M  V30 15872 N 1478.1 -0.635022 -1.4424 0
M  V30 15873 C 1479.03 0.106038 -2.28955 0
M  V30 15874 C 1480.05 0.805076 -1.415 0
M  V30 15875 O 1481.23 0.665872 -1.65615 0
M  V30 15876 C 1478.33 1.17252 -3.1797 0
M  V30 15877 C 1477.51 0.555225 -4.33862 0
M  V30 15878 C 1476.57 1.51618 -5.03883 0
M  V30 15879 O 1475.59 1.03181 -5.5977 0
M  V30 15880 N 1476.79 2.85048 -5.05696 0
M  V30 15881 H 1479.56 -0.620999 -2.93196 0
M  V30 15882 H 1477.12 -0.476466 -1.5473 0
M  V30 15883 H 1479.11 1.81578 -3.61679 0
M  V30 15884 H 1477.68 1.80174 -2.55453 0
M  V30 15885 H 1476.9 -0.266745 -3.93296 0
M  V30 15886 H 1478.19 0.123529 -5.0865 0
M  V30 15887 H 1477.59 3.26977 -4.6163 0
M  V30 15888 H 1476.15 3.44724 -5.5318 0
M  V30 15889 N 1479.58 1.53054 -0.375806 0
M  V30 15890 C 1480.53 2.22837 0.482477 0
M  V30 15891 C 1481.51 1.22728 1.04051 0
M  V30 15892 O 1482.7 1.48129 0.968854 0
M  V30 15893 C 1479.83 3.02869 1.61634 0
M  V30 15894 C 1478.92 4.10362 1.07069 0
M  V30 15895 N 1479.31 5.05187 0.248878 0
M  V30 15896 C 1477.61 4.25251 1.34452 0
M  V30 15897 C 1478.31 5.81678 -0.0510458 0
M  V30 15898 N 1477.29 5.40817 0.549318 0
M  V30 15899 H 1481.09 2.93506 -0.1521 0
M  V30 15900 H 1478.6 1.6135 -0.184373 0
M  V30 15901 H 1480.6 3.51387 2.24349 0
M  V30 15902 H 1479.26 2.33732 2.25387 0
M  V30 15903 H 1480.27 5.17777 -0.112766 0
M  V30 15904 H 1476.95 3.67342 1.98408 0
M  V30 15905 H 1478.34 6.68073 -0.716061 0
M  V30 15906 N 1481.06 0.105248 1.57248 0
M  V30 15907 C 1482 -0.850012 2.14577 0
M  V30 15908 C 1482.97 -1.27294 1.06703 0
M  V30 15909 O 1484.16 -1.35289 1.34542 0
M  V30 15910 C 1481.3 -2.09993 2.73856 0
M  V30 15911 C 1480.41 -1.72662 3.95995 0
M  V30 15912 C 1479.55 -2.92517 4.43404 0
M  V30 15913 C 1478.59 -2.5136 5.58108 0
M  V30 15914 N 1477.72 -3.64082 6.00324 0
M  V30 15915 H 1482.56 -0.354282 2.95887 0
M  V30 15916 H 1480.1 -0.163192 1.46192 0
M  V30 15917 H 1482.06 -2.83208 3.06348 0
M  V30 15918 H 1480.69 -2.57048 1.95259 0
M  V30 15919 H 1479.74 -0.893754 3.69752 0
M  V30 15920 H 1481.05 -1.38406 4.79213 0
M  V30 15921 H 1480.21 -3.73973 4.77734 0
M  V30 15922 H 1478.94 -3.2999 3.59107 0
M  V30 15923 H 1477.95 -1.68333 5.23397 0
M  V30 15924 H 1479.17 -2.15019 6.44161 0
M  V30 15925 H 1477.12 -4.01255 5.18971 0
M  V30 15926 H 1477.04 -3.33705 6.78363 0
M  V30 15927 H 1478.31 -4.46019 6.39287 0
M  V30 15928 N 1482.53 -1.56697 -0.168486 0
M  V30 15929 C 1483.78 -1.81794 -0.882907 0
M  V30 15930 C 1484.1 -0.682707 -1.82658 0
M  V30 15931 O 1483.37 0.297234 -1.93632 0
M  V30 15932 H 1481.95 -0.670636 -0.329024 0
M  V30 15933 H 1484.62 -1.94178 -0.167625 0
M  V30 15934 H 1483.71 -2.75945 -1.45811 0
M  V30 15935 N 1484.01 0.437135 -1.51416 0
M  V30 15936 C 1485.26 1.18831 -1.64338 0
M  V30 15937 C 1485.59 1.9086 -0.358638 0
M  V30 15938 O 1484.87 1.83607 0.641769 0
M  V30 15939 C 1485.15 2.20515 -2.84685 0
M  V30 15940 C 1485 1.52568 -4.23135 0
M  V30 15941 C 1486.32 3.21494 -3.00549 0
M  V30 15942 H 1483.44 0.430652 -0.598087 0
M  V30 15943 H 1486.08 0.47753 -1.83901 0
M  V30 15944 H 1484.23 2.81132 -2.68136 0
M  V30 15945 H 1485.9 0.952851 -4.51352 0
M  V30 15946 H 1484.15 0.828025 -4.25824 0
M  V30 15947 H 1484.82 2.26623 -5.03335 0
M  V30 15948 H 1487.29 2.7093 -3.1581 0
M  V30 15949 H 1486.17 3.89934 -3.86319 0
M  V30 15950 H 1486.43 3.8761 -2.12629 0
M  V30 15951 N 1485.49 1.41566 0.692592 0
M  V30 15952 C 1486.91 1.24101 1.00355 0
M  V30 15953 C 1487.11 0.132485 2.01064 0
M  V30 15954 O 1486.16 -0.502142 2.47457 0
M  V30 15955 C 1487.48 2.59142 1.52532 0
M  V30 15956 C 1489.02 2.66348 1.64401 0
M  V30 15957 C 1489.5 4.01713 2.19978 0
M  V30 15958 N 1490.99 4.03575 2.27335 0
M  V30 15959 C 1491.72 5.05118 2.71373 0
M  V30 15960 N 1491.22 6.1705 3.14994 0
M  V30 15961 N 1493.01 4.92479 2.70963 0
M  V30 15962 H 1485.16 2.12385 0.0254859 0
M  V30 15963 H 1487.43 0.945118 0.0738684 0
M  V30 15964 H 1487.13 3.41026 0.85989 0
M  V30 15965 H 1487.01 2.81833 2.50699 0
M  V30 15966 H 1489.39 1.84821 2.30055 0
M  V30 15967 H 1489.48 2.47464 0.647717 0
M  V30 15968 H 1489.12 4.8369 1.54939 0
M  V30 15969 H 1489.05 4.1794 3.20365 0
M  V30 15970 H 1491.54 3.2276 1.96556 0
M  V30 15971 H 1491.85 6.90399 3.47231 0
M  V30 15972 H 1490.2 6.20582 3.12895 0
M  V30 15973 H 1493.39 4.04117 2.36236 0
M  V30 15974 H 1493.56 5.71752 3.04965 0
M  V30 15975 N 1486.97 -0.927146 1.27443 0
M  V30 15976 C 1488.22 -1.67159 1.13589 0
M  V30 15977 C 1488.54 -1.92379 -0.31865 0
M  V30 15978 O 1487.81 -1.53045 -1.22287 0
M  V30 15979 H 1486.39 -0.619524 0.417371 0
M  V30 15980 H 1489.05 -1.11323 1.59979 0
M  V30 15981 H 1488.15 -2.63954 1.66537 0
M  V30 15982 N 1488.45 -1.09474 -1.13372 0
M  V30 15983 C 1489.69 -0.82945 -1.84295 0
M  V30 15984 C 1490.02 0.646788 -1.83961 0
M  V30 15985 O 1489.29 1.46929 -1.29572 0
M  V30 15986 H 1487.87 -0.303853 -0.682409 0
M  V30 15987 H 1490.53 -1.38298 -1.3733 0
M  V30 15988 H 1489.62 -1.18342 -2.88793 0
M  V30 15989 N 1489.92 1.30607 -0.882012 0
M  V30 15990 C 1491.34 1.48859 -0.575599 0
M  V30 15991 C 1491.54 1.80908 0.887388 0
M  V30 15992 O 1490.6 1.89492 1.6688 0
M  V30 15993 C 1491.91 2.61405 -1.48619 0
M  V30 15994 C 1493.46 2.75286 -1.48951 0
M  V30 15995 C 1493.93 3.90942 -2.38596 0
M  V30 15996 N 1495.42 3.98248 -2.36543 0
M  V30 15997 C 1496.16 4.87041 -3.0262 0
M  V30 15998 N 1495.65 5.80651 -3.77911 0
M  V30 15999 N 1497.45 4.80385 -2.91867 0
M  V30 16000 H 1489.6 1.08076 -1.82848 0
M  V30 16001 H 1491.86 0.535148 -0.782509 0
M  V30 16002 H 1491.57 2.44535 -2.52775 0
M  V30 16003 H 1491.44 3.57818 -1.19358 0
M  V30 16004 H 1493.83 2.91564 -0.455477 0
M  V30 16005 H 1493.91 1.79504 -1.82242 0
M  V30 16006 H 1493.55 3.75422 -3.42083 0
M  V30 16007 H 1493.48 4.86057 -2.02623 0
M  V30 16008 H 1495.97 3.31282 -1.81827 0
M  V30 16009 H 1496.29 6.45159 -4.25428 0
M  V30 16010 H 1494.63 5.80592 -3.82019 0
M  V30 16011 H 1497.82 4.06234 -2.32576 0
M  V30 16012 H 1498 5.49377 -3.43641 0
M  V30 16013 N 1491.4 0.642663 1.43901 0
M  V30 16014 C 1492.34 -0.104884 2.27959 0
M  V30 16015 C 1493.31 -0.840134 1.39214 0
M  V30 16016 O 1494.5 -0.841868 1.68656 0
M  V30 16017 C 1491.62 -1.15496 3.184 0
M  V30 16018 C 1490.67 -0.518946 4.23331 0
M  V30 16019 S 1491.5 0.699619 5.3091 0
M  V30 16020 C 1492.66 -0.350181 6.2492 0
M  V30 16021 H 1492.89 0.608181 2.91013 0
M  V30 16022 H 1490.43 0.431176 1.48257 0
M  V30 16023 H 1492.38 -1.75582 3.71054 0
M  V30 16024 H 1491.04 -1.84028 2.54544 0
M  V30 16025 H 1490.24 -1.31018 4.86673 0
M  V30 16026 H 1489.84 0.00756354 3.73999 0
M  V30 16027 H 1492.13 -1.21944 6.66435 0
M  V30 16028 H 1493.07 0.247942 7.07666 0
M  V30 16029 H 1493.48 -0.681254 5.60374 0
M  V30 16030 N 1492.88 -1.52852 0.383918 0
M  V30 16031 C 1494.11 -2.05929 -0.200216 0
M  V30 16032 C 1494.52 -1.25606 -1.40956 0
M  V30 16033 O 1493.88 -0.301336 -1.79995 0
M  V30 16034 C 1493.93 -3.56887 -0.575655 0
M  V30 16035 O 1493.65 -4.34168 0.58564 0
M  V30 16036 C 1495.15 -4.2629 -1.21623 0
M  V30 16037 H 1492.37 -0.670261 -0.0314727 0
M  V30 16038 H 1494.92 -1.97032 0.547591 0
M  V30 16039 H 1493.07 -3.65875 -1.27336 0
M  V30 16040 H 1493.49 -5.23761 0.278267 0
M  V30 16041 H 1494.96 -5.33174 -1.42933 0
M  V30 16042 H 1495.44 -3.81163 -2.182 0
M  V30 16043 H 1496.04 -4.21605 -0.559435 0
M  V30 16044 N 1494.36 -0.113586 -1.5719 0
M  V30 16045 C 1495.29 0.835363 -2.18046 0
M  V30 16046 C 1496.27 1.28114 -1.11897 0
M  V30 16047 O 1497.46 1.34472 -1.40111 0
M  V30 16048 C 1494.59 2.08759 -2.77556 0
M  V30 16049 C 1493.54 1.77979 -3.8924 0
M  V30 16050 C 1492.87 3.10185 -4.35533 0
M  V30 16051 C 1494.17 1.05231 -5.11589 0
M  V30 16052 H 1495.86 0.328275 -2.97595 0
M  V30 16053 H 1493.41 0.156456 -1.43148 0
M  V30 16054 H 1495.36 2.75597 -3.18785 0
M  V30 16055 H 1494.08 2.61783 -1.95288 0
M  V30 16056 H 1492.74 1.13532 -3.48577 0
M  V30 16057 H 1492.39 3.61133 -3.50131 0
M  V30 16058 H 1492.09 2.90367 -5.10843 0
M  V30 16059 H 1493.61 3.78151 -4.7941 0
M  V30 16060 H 1495.03 1.62213 -5.49872 0
M  V30 16061 H 1493.42 0.955269 -5.92448 0
M  V30 16062 H 1494.49 0.038137 -4.84885 0
M  V30 16063 N 1495.84 1.56784 0.160173 0
M  V30 16064 C 1497.08 1.82891 0.876278 0
M  V30 16065 C 1497.42 0.693173 1.81408 0
M  V30 16066 O 1496.69 -0.304136 1.92107 0
M  V30 16067 C 1496.97 3.19439 1.66226 0
M  V30 16068 C 1496.83 4.43557 0.746831 0
M  V30 16069 C 1498.15 3.53053 2.62758 0
M  V30 16070 H 1495.27 0.665285 0.31712 0
M  V30 16071 H 1497.91 1.89469 0.142004 0
M  V30 16072 H 1496.06 3.13962 2.28823 0
M  V30 16073 H 1497.73 4.61109 0.132876 0
M  V30 16074 H 1495.97 4.33764 0.0555625 0
M  V30 16075 H 1496.64 5.35675 1.33253 0
M  V30 16076 H 1499.12 3.59054 2.10284 0
M  V30 16077 H 1498 4.4965 3.14811 0
M  V30 16078 H 1498.26 2.78329 3.4349 0
M  V30 16079 N 1497.32 -0.429099 1.51646 0
M  V30 16080 C 1498.56 -1.17784 1.64722 0
M  V30 16081 C 1498.89 -1.90998 0.367415 0
M  V30 16082 O 1498.15 -1.8463 -0.648862 0
M  V30 16083 C 1498.44 -2.2131 2.80636 0
M  V30 16084 C 1498.11 -1.65048 4.19607 0
M  V30 16085 C 1496.77 -1.49428 4.57411 0
M  V30 16086 C 1499.12 -1.23765 5.06292 0
M  V30 16087 C 1496.45 -0.910109 5.79598 0
M  V30 16088 C 1498.8 -0.667743 6.29066 0
M  V30 16089 C 1497.47 -0.498507 6.65636 0
M  V30 16090 H 1496.74 -0.431001 0.60276 0
M  V30 16091 H 1499.39 -0.46775 1.857 0
M  V30 16092 H 1497.69 -2.98388 2.53913 0
M  V30 16093 H 1499.39 -2.79079 2.87951 0
M  V30 16094 H 1495.98 -1.78185 3.89805 0
M  V30 16095 H 1500.16 -1.3465 4.77685 0
M  V30 16096 H 1495.42 -0.766825 6.06572 0
M  V30 16097 H 1499.59 -0.339377 6.95573 0
M  V30 16098 H 1497.22 -0.0437292 7.60187 0
M  V30 16099 N 1498.79 -1.41931 -0.685074 0
M  V30 16100 C 1500.04 -1.41571 -1.44229 0
M  V30 16101 C 1500.36 -0.0294445 -1.94978 0
M  V30 16102 O 1499.63 0.930414 -1.72395 0
M  V30 16103 H 1498.21 -0.521138 -0.535186 0
M  V30 16104 H 1500.87 -1.77263 -0.81017 0
M  V30 16105 H 1499.97 -2.10929 -2.30034 0
M  V30 16106 N 1500.27 0.920374 -1.27933 0
M  V30 16107 C 1501.51 1.68333 -1.15945 0
M  V30 16108 C 1501.88 1.8982 0.288522 0
M  V30 16109 O 1503.08 2.63503 0.530976 0
M  V30 16110 C 1501.35 3.00865 -1.92912 0
M  V30 16111 S 1502.91 3.91981 -1.97221 0
M  V30 16112 H 1499.72 0.578189 -0.413785 0
M  V30 16113 H 1502.33 1.09521 -1.61943 0
M  V30 16114 H 1501.03 2.82924 -2.97292 0
M  V30 16115 H 1500.56 3.64727 -1.47437 0
M  V30 16116 H 1502.58 4.84439 -1.07393 0
M  V30 16117 N 1501.75 1.10074 1.1279 0
M  V30 16118 C 1503.17 0.831776 1.36212 0
M  V30 16119 C 1503.37 -0.550632 1.93831 0
M  V30 16120 O 1502.42 -1.30422 2.16209 0
M  V30 16121 C 1503.73 1.92844 2.3072 0
M  V30 16122 C 1505.28 1.95645 2.4432 0
M  V30 16123 C 1505.76 3.04474 3.4214 0
M  V30 16124 N 1507.25 3.03756 3.49695 0
M  V30 16125 C 1507.98 3.84605 4.25284 0
M  V30 16126 N 1507.48 4.7538 5.0397 0
M  V30 16127 N 1509.27 3.72838 4.20652 0
M  V30 16128 H 1501.42 1.99187 0.737452 0
M  V30 16129 H 1503.69 0.865383 0.387062 0
M  V30 16130 H 1503.39 2.92323 1.9555 0
M  V30 16131 H 1503.27 1.81241 3.30805 0
M  V30 16132 H 1505.65 0.968004 2.78772 0
M  V30 16133 H 1505.73 2.11325 1.44136 0
M  V30 16134 H 1505.38 4.03536 3.08418 0
M  V30 16135 H 1505.31 2.86036 4.42144 0
M  V30 16136 H 1507.8 2.37977 2.93556 0
M  V30 16137 H 1508.11 5.33637 5.58974 0
M  V30 16138 H 1506.46 4.79411 5.0318 0
M  V30 16139 H 1509.65 3.01276 3.5826 0
M  V30 16140 H 1509.82 4.36083 4.79308 0
M  V30 16141 N 1503.23 -1.30138 0.888926 0
M  V30 16142 C 1504.64 -1.48552 0.583486 0
M  V30 16143 C 1504.84 -1.81376 -0.877781 0
M  V30 16144 O 1503.9 -1.90374 -1.65873 0
M  V30 16145 C 1505.21 -2.60613 1.50004 0
M  V30 16146 C 1506.76 -2.74493 1.50409 0
M  V30 16147 C 1507.24 -3.89672 2.40666 0
M  V30 16148 N 1508.73 -3.96988 2.38652 0
M  V30 16149 C 1509.46 -4.85429 3.05199 0
M  V30 16150 N 1508.96 -5.78638 3.80985 0
M  V30 16151 N 1510.75 -4.78831 2.9441 0
M  V30 16152 H 1502.9 -1.07105 1.83418 0
M  V30 16153 H 1505.16 -0.530991 0.785336 0
M  V30 16154 H 1504.87 -2.43191 2.54069 0
M  V30 16155 H 1504.74 -3.5718 1.21254 0
M  V30 16156 H 1507.13 -2.91318 0.470933 0
M  V30 16157 H 1507.21 -1.78535 1.83191 0
M  V30 16158 H 1506.86 -3.73603 3.44069 0
M  V30 16159 H 1506.79 -4.84975 2.05198 0
M  V30 16160 H 1509.28 -3.30313 1.83581 0
M  V30 16161 H 1509.59 -6.42894 4.28844 0
M  V30 16162 H 1507.94 -5.78558 3.85092 0
M  V30 16163 H 1511.13 -4.04995 2.34727 0
M  V30 16164 H 1511.3 -5.47547 3.46549 0
M  V30 16165 N 1504.71 -0.650285 -1.43559 0
M  V30 16166 C 1506.12 -0.24263 -1.85117 0
M  V30 16167 C 1506.47 1.21017 -1.54432 0
M  V30 16168 O 1505.59 1.92332 -0.991839 0
M  V30 16169 C 1506.19 -0.433575 -3.36014 0
M  V30 16170 C 1504.75 -0.0802635 -3.76314 0
M  V30 16171 C 1503.89 -0.737844 -2.67303 0
M  V30 16172 H 1506.84 -0.854158 -1.33753 0
M  V30 16173 H 1506.87 0.321801 -3.79137 0
M  V30 16174 H 1506.38 -1.49102 -3.58316 0
M  V30 16175 H 1504.48 0.974703 -3.59625 0
M  V30 16176 H 1504.59 -0.503683 -4.76445 0
M  V30 16177 H 1502.96 -0.171349 -2.54123 0
M  V30 16178 H 1503.74 -1.79826 -2.92434 0
M  V30 16179 N 1506.18 1.52647 -0.392018 0
M  V30 16180 C 1507.46 1.94034 0.247004 0
M  V30 16181 C 1507.84 1.32767 1.64122 0
M  V30 16182 O 1507.19 0.496822 2.23033 0
M  V30 16183 C 1507.4 3.47949 0.270615 0
M  V30 16184 C 1508.75 4.21666 0.498256 0
M  V30 16185 O 1509.77 3.54469 0.350708 0
M  V30 16186 O 1508.63 5.40795 0.787586 0
M  V30 16187 H 1505.72 0.812487 0.154251 0
M  V30 16188 H 1508.27 1.63715 -0.446723 0
M  V30 16189 H 1507.04 3.84881 -0.705862 0
M  V30 16190 H 1506.66 3.8458 1.00915 0
M  V30 16191 N 1507.66 0.121921 1.57128 0
M  V30 16192 C 1508.57 -0.840825 2.19014 0
M  V30 16193 C 1509.59 -1.29051 1.16712 0
M  V30 16194 O 1510.76 -1.35289 1.49194 0
M  V30 16195 C 1507.83 -2.07204 2.7797 0
M  V30 16196 C 1506.89 -1.67399 3.95318 0
M  V30 16197 C 1506.12 -2.84652 4.51452 0
M  V30 16198 O 1506.35 -4.00161 4.06482 0
M  V30 16199 O 1505.28 -2.61568 5.42094 0
M  V30 16200 H 1509.11 -0.344146 3.01744 0
M  V30 16201 H 1506.69 -0.103841 1.49039 0
M  V30 16202 H 1508.57 -2.79307 3.1554 0
M  V30 16203 H 1507.25 -2.55872 1.9827 0
M  V30 16204 H 1506.16 -0.92395 3.62511 0
M  V30 16205 H 1507.49 -1.2347 4.76462 0
M  V30 16206 N 1509.14 -1.56867 -0.151857 0
M  V30 16207 C 1510.42 -1.7399 -0.893694 0
M  V30 16208 C 1510.8 -0.688628 -1.99552 0
M  V30 16209 O 1510.15 0.293289 -2.2661 0
M  V30 16210 C 1510.36 -3.1788 -1.44061 0
M  V30 16211 C 1511.7 -3.7942 -1.90592 0
M  V30 16212 O 1512.73 -3.21279 -1.53813 0
M  V30 16213 O 1511.59 -4.81549 -2.58404 0
M  V30 16214 H 1508.68 -0.711229 -0.421998 0
M  V30 16215 H 1511.23 -1.69137 -0.138162 0
M  V30 16216 H 1510 -3.85888 -0.648529 0
M  V30 16217 H 1509.62 -3.27139 -2.25978 0
M  V30 16218 N 1510.62 0.421051 -1.51871 0
M  V30 16219 C 1511.57 1.51101 -1.70741 0
M  V30 16220 C 1512.55 1.50792 -0.561305 0
M  V30 16221 O 1513.74 1.5697 -0.817894 0
M  V30 16222 C 1510.87 2.89145 -1.85067 0
M  V30 16223 C 1509.96 2.94148 -3.05512 0
M  V30 16224 N 1510.35 2.68866 -4.28421 0
M  V30 16225 C 1508.65 3.25314 -3.05101 0
M  V30 16226 C 1509.35 2.80131 -5.09805 0
M  V30 16227 N 1508.33 3.12501 -4.44797 0
M  V30 16228 H 1512.13 1.30331 -2.63422 0
M  V30 16229 H 1509.64 0.628598 -1.49741 0
M  V30 16230 H 1511.64 3.6758 -1.96699 0
M  V30 16231 H 1510.3 3.10923 -0.935788 0
M  V30 16232 H 1511.31 2.43485 -4.57094 0
M  V30 16233 H 1507.99 3.52762 -2.23306 0
M  V30 16234 H 1509.38 2.64401 -6.17691 0
M  V30 16235 N 1512.1 1.42293 0.677538 0
M  V30 16236 C 1513.35 1.41909 1.43334 0
M  V30 16237 C 1513.66 0.037951 1.95563 0
M  V30 16238 O 1514.86 -0.0884836 2.71356 0
M  V30 16239 C 1513.32 2.49608 2.59275 0
M  V30 16240 C 1512.93 3.93716 2.13757 0
M  V30 16241 C 1514.67 2.58387 3.36803 0
M  V30 16242 C 1512.58 4.92929 3.26764 0
M  V30 16243 H 1511.51 0.527803 0.538461 0
M  V30 16244 H 1514.16 1.6819 0.733791 0
M  V30 16245 H 1512.54 2.16488 3.31585 0
M  V30 16246 H 1513.72 4.36176 1.48618 0
M  V30 16247 H 1512.03 3.88762 1.49175 0
M  V30 16248 H 1514.63 3.29691 4.20961 0
M  V30 16249 H 1514.97 1.62653 3.8321 0
M  V30 16250 H 1515.5 2.90688 2.71561 0
M  V30 16251 H 1512.24 5.90131 2.85352 0
M  V30 16252 H 1511.76 4.55103 3.90694 0
M  V30 16253 H 1513.44 5.1452 3.92273 0
M  V30 16254 N 1513.57 -0.913576 1.28419 0
M  V30 16255 C 1514.8 -1.69403 1.18263 0
M  V30 16256 C 1515.21 -1.87387 -0.26128 0
M  V30 16257 O 1514.56 -1.40082 -1.18839 0
M  V30 16258 C 1514.62 -3.1064 1.80951 0
M  V30 16259 C 1514.28 -3.15941 3.30198 0
M  V30 16260 C 1515.28 -2.97124 4.2663 0
M  V30 16261 C 1512.96 -3.38449 3.71157 0
M  V30 16262 C 1514.96 -3.00728 5.61998 0
M  V30 16263 C 1512.64 -3.41685 5.06651 0
M  V30 16264 C 1513.64 -3.22845 6.01881 0
M  V30 16265 O 1513.33 -3.25842 7.34903 0
M  V30 16266 H 1513.06 -0.536323 0.411502 0
M  V30 16267 H 1515.62 -1.15186 1.70063 0
M  V30 16268 H 1513.85 -3.664 1.23645 0
M  V30 16269 H 1515.54 -3.70712 1.6531 0
M  V30 16270 H 1516.3 -2.79562 3.96321 0
M  V30 16271 H 1512.18 -3.52158 2.97499 0
M  V30 16272 H 1515.72 -2.85941 6.36304 0
M  V30 16273 H 1511.62 -3.58775 5.3661 0
M  V30 16274 H 1512.39 -3.42203 7.43532 0
M  V30 16275 N 1515.05 -1.1067 -1.12204 0
M  V30 16276 C 1515.98 -0.715581 -2.17743 0
M  V30 16277 C 1517 0.248892 -1.60886 0
M  V30 16278 O 1518.19 0.0329917 -1.7847 0
M  V30 16279 C 1515.29 -0.0356388 -3.38881 0
M  V30 16280 C 1514.46 -1.0249 -4.25223 0
M  V30 16281 C 1513.52 -0.375998 -5.24855 0
M  V30 16282 O 1512.54 -1.02753 -5.59849 0
M  V30 16283 N 1513.75 0.864525 -5.74026 0
M  V30 16284 H 1516.51 -1.62362 -2.5191 0
M  V30 16285 H 1514.07 -0.995851 -1.2765 0
M  V30 16286 H 1516.06 0.41 -4.02618 0
M  V30 16287 H 1514.63 0.77485 -3.02845 0
M  V30 16288 H 1513.85 -1.64874 -3.58065 0
M  V30 16289 H 1515.14 -1.69446 -4.79756 0
M  V30 16290 H 1514.54 1.41317 -5.47764 0
M  V30 16291 H 1513.1 1.25327 -6.39638 0
M  V30 16292 N 1516.53 1.29665 -0.895815 0
M  V30 16293 C 1517.44 2.31582 -0.375086 0
M  V30 16294 C 1518.46 1.65789 0.528196 0
M  V30 16295 O 1519.63 1.96999 0.41871 0
M  V30 16296 C 1516.7 3.44472 0.39241 0
M  V30 16297 C 1515.76 4.25866 -0.541926 0
M  V30 16298 C 1514.99 5.33365 0.189037 0
M  V30 16299 O 1515.21 5.52607 1.41355 0
M  V30 16300 O 1514.15 6.0009 -0.466441 0
M  V30 16301 H 1517.97 2.78095 -1.22052 0
M  V30 16302 H 1515.56 1.34031 -0.660007 0
M  V30 16303 H 1517.44 4.13214 0.826565 0
M  V30 16304 H 1516.12 3.00074 1.21397 0
M  V30 16305 H 1515.02 3.59781 -1.02512 0
M  V30 16306 H 1516.36 4.73896 -1.32979 0
M  V30 16307 N 1518.01 0.657889 1.43212 0
M  V30 16308 C 1518.92 -0.0313677 2.34579 0
M  V30 16309 C 1519.93 -0.807153 1.54146 0
M  V30 16310 O 1521.11 -0.753335 1.8678 0
M  V30 16311 C 1518.18 -0.982659 3.32483 0
M  V30 16312 C 1517.24 -0.203288 4.28818 0
M  V30 16313 C 1516.47 -1.10927 5.22045 0
M  V30 16314 O 1516.69 -2.34861 5.19804 0
M  V30 16315 O 1515.63 -0.57916 5.99107 0
M  V30 16316 H 1519.45 0.720808 2.95022 0
M  V30 16317 H 1517.04 0.418083 1.43431 0
M  V30 16318 H 1518.92 -1.52923 3.92673 0
M  V30 16319 H 1517.59 -1.71498 2.74536 0
M  V30 16320 H 1516.5 0.386982 3.72093 0
M  V30 16321 H 1517.83 0.489562 4.89759 0
M  V30 16322 N 1519.49 -1.52437 0.400108 0
M  V30 16323 C 1520.42 -2.23219 -0.474176 0
M  V30 16324 C 1521.4 -1.23699 -1.05533 0
M  V30 16325 O 1522.58 -1.52721 -1.10492 0
M  V30 16326 C 1519.71 -2.95381 -1.65734 0
M  V30 16327 C 1518.75 -4.09258 -1.20042 0
M  V30 16328 S 1519.59 -5.3522 -0.173016 0
M  V30 16329 C 1520.74 -6.10908 -1.36171 0
M  V30 16330 H 1520.98 -2.97029 0.126865 0
M  V30 16331 H 1518.51 -1.53295 0.184353 0
M  V30 16332 H 1520.47 -3.37564 -2.33583 0
M  V30 16333 H 1519.13 -2.21231 -2.2297 0
M  V30 16334 H 1518.32 -4.5889 -2.08413 0
M  V30 16335 H 1517.92 -3.69144 -0.600704 0
M  V30 16336 H 1520.22 -6.37735 -2.28691 0
M  V30 16337 H 1521.16 -7.02279 -0.906106 0
M  V30 16338 H 1521.57 -5.41838 -1.58342 0
M  V30 16339 N 1520.96 -0.130252 -1.57061 0
M  V30 16340 C 1521.89 0.812189 -2.18919 0
M  V30 16341 C 1522.88 1.2692 -1.13249 0
M  V30 16342 O 1524.06 1.32978 -1.41529 0
M  V30 16343 C 1521.19 2.05803 -2.79754 0
M  V30 16344 C 1520.14 1.73841 -3.91105 0
M  V30 16345 C 1519.47 3.05549 -4.38799 0
M  V30 16346 C 1520.77 0.997991 -5.12677 0
M  V30 16347 H 1522.46 0.296692 -2.97926 0
M  V30 16348 H 1520.01 0.141265 -1.43305 0
M  V30 16349 H 1521.96 2.72201 -3.21691 0
M  V30 16350 H 1520.69 2.59697 -1.98053 0
M  V30 16351 H 1519.35 1.09828 -3.49762 0
M  V30 16352 H 1518.99 3.57399 -3.53942 0
M  V30 16353 H 1518.69 2.84932 -5.13894 0
M  V30 16354 H 1520.22 3.73045 -4.83394 0
M  V30 16355 H 1521.63 1.56372 -5.51562 0
M  V30 16356 H 1520.03 0.892378 -5.93428 0
M  V30 16357 H 1521.1 -0.0132936 -4.84898 0
M  V30 16358 N 1522.44 1.56945 0.143535 0
M  V30 16359 C 1523.35 2.01795 1.1965 0
M  V30 16360 C 1524.37 0.933965 1.4681 0
M  V30 16361 O 1525.55 1.2437 1.58411 0
M  V30 16362 C 1522.61 2.39249 2.5092 0
M  V30 16363 C 1521.67 3.61613 2.31376 0
M  V30 16364 C 1520.9 3.97271 3.56386 0
M  V30 16365 O 1521.13 3.33552 4.62709 0
M  V30 16366 O 1520.06 4.90501 3.48844 0
M  V30 16367 H 1523.89 2.91687 0.845718 0
M  V30 16368 H 1521.47 1.45182 0.352518 0
M  V30 16369 H 1523.35 2.64184 3.28306 0
M  V30 16370 H 1522.03 1.52511 2.85521 0
M  V30 16371 H 1520.94 3.4186 1.51929 0
M  V30 16372 H 1522.27 4.48979 2.01689 0
M  V30 16373 N 1523.92 -0.412991 1.52093 0
M  V30 16374 C 1524.85 -1.52374 1.69874 0
M  V30 16375 C 1525.83 -1.53148 0.546311 0
M  V30 16376 O 1527.02 -1.71913 0.773188 0
M  V30 16377 C 1524.14 -2.90914 1.73455 0
M  V30 16378 C 1523.19 -3.08068 2.94952 0
M  V30 16379 S 1524.02 -2.81789 4.55363 0
M  V30 16380 C 1525.18 -4.22566 4.61724 0
M  V30 16381 H 1525.41 -1.37062 2.63821 0
M  V30 16382 H 1522.94 -0.604312 1.42082 0
M  V30 16383 H 1524.9 -3.7076 1.76203 0
M  V30 16384 H 1523.56 -3.03571 0.806429 0
M  V30 16385 H 1522.76 -4.09417 2.93928 0
M  V30 16386 H 1522.36 -2.36082 2.90071 0
M  V30 16387 H 1524.65 -5.16145 4.38863 0
M  V30 16388 H 1525.59 -4.28615 5.63644 0
M  V30 16389 H 1526 -4.07357 3.90795 0
M  V30 16390 N 1525.4 -1.4265 -0.669982 0
M  V30 16391 C 1526.36 -1.46196 -1.7652 0
M  V30 16392 C 1527.36 -0.348884 -1.5697 0
M  V30 16393 O 1528.55 -0.609921 -1.63174 0
M  V30 16394 C 1525.68 -1.29829 -3.1521 0
M  V30 16395 H 1526.88 -2.43718 -1.74762 0
M  V30 16396 H 1524.43 -1.29168 -0.88007 0
M  V30 16397 H 1525.17 -0.332493 -3.22591 0
M  V30 16398 H 1524.95 -2.10501 -3.30804 0
M  V30 16399 H 1526.44 -1.35205 -3.95107 0
M  V30 16400 N 1526.88 0.906753 -1.28902 0
M  V30 16401 C 1527.81 2.01497 -1.09233 0
M  V30 16402 C 1528.82 1.62746 -0.0419378 0
M  V30 16403 O 1530.01 1.76198 -0.285728 0
M  V30 16404 C 1527.11 3.32816 -0.639255 0
M  V30 16405 C 1526.28 4.00137 -1.76661 0
M  V30 16406 C 1525.34 5.09742 -1.30573 0
M  V30 16407 O 1524.37 5.32559 -2.00921 0
M  V30 16408 N 1525.57 5.80243 -0.17275 0
M  V30 16409 H 1528.34 2.18927 -2.04673 0
M  V30 16410 H 1525.9 1.0785 -1.20748 0
M  V30 16411 H 1527.89 4.03477 -0.31439 0
M  V30 16412 H 1526.46 3.11807 0.222498 0
M  V30 16413 H 1525.68 3.22933 -2.26071 0
M  V30 16414 H 1526.97 4.41859 -2.52266 0
M  V30 16415 H 1526.37 5.64184 0.413931 0
M  V30 16416 H 1524.92 6.51734 0.0927926 0
M  V30 16417 N 1528.36 1.11264 1.11616 0
M  V30 16418 C 1529.3 0.769295 2.17602 0
M  V30 16419 C 1530.27 -0.258362 1.64078 0
M  V30 16420 O 1531.46 -0.135698 1.90317 0
M  V30 16421 C 1528.6 0.216647 3.44419 0
M  V30 16422 C 1527.71 1.30064 4.11955 0
M  V30 16423 C 1526.85 0.708729 5.26451 0
M  V30 16424 C 1525.88 1.7727 5.85868 0
M  V30 16425 N 1525.02 1.20042 6.91762 0
M  V30 16426 H 1529.86 1.67727 2.46316 0
M  V30 16427 H 1527.4 0.83764 1.20921 0
M  V30 16428 H 1529.36 -0.121724 4.17022 0
M  V30 16429 H 1527.99 -0.654525 3.16095 0
M  V30 16430 H 1527.04 1.756 3.37445 0
M  V30 16431 H 1528.35 2.1057 4.52174 0
M  V30 16432 H 1527.5 0.320307 6.05854 0
M  V30 16433 H 1526.24 -0.127668 4.87533 0
M  V30 16434 H 1525.25 2.17046 5.05145 0
M  V30 16435 H 1526.47 2.6121 6.26854 0
M  V30 16436 H 1524.42 0.385633 6.54866 0
M  V30 16437 H 1524.34 1.94221 7.30626 0
M  V30 16438 H 1525.6 0.838825 7.74974 0
M  V30 16439 N 1529.83 -1.29188 0.902679 0
M  V30 16440 C 1531.08 -1.95052 0.529076 0
M  V30 16441 C 1531.4 -1.7149 -0.92824 0
M  V30 16442 O 1530.67 -1.04834 -1.65489 0
M  V30 16443 H 1529.25 -0.721725 0.192671 0
M  V30 16444 H 1531.91 -1.57384 1.14962 0
M  V30 16445 H 1531.01 -3.03819 0.714179 0
M  V30 16446 N 1531.31 -0.665475 -1.42861 0
M  V30 16447 C 1532.56 -0.184156 -2.01962 0
M  V30 16448 C 1532.89 1.20301 -1.52451 0
M  V30 16449 O 1532.17 1.80573 -0.722756 0
M  V30 16450 C 1532.45 -0.208497 -3.59496 0
M  V30 16451 C 1532.3 -1.63045 -4.19209 0
M  V30 16452 C 1533.62 0.448421 -4.3781 0
M  V30 16453 H 1530.74 -0.0683924 -0.73382 0
M  V30 16454 H 1533.38 -0.84849 -1.70002 0
M  V30 16455 H 1531.53 0.357179 -3.86855 0
M  V30 16456 H 1533.2 -2.24766 -4.02837 0
M  V30 16457 H 1531.45 -2.17401 -3.75392 0
M  V30 16458 H 1532.12 -1.59924 -5.28326 0
M  V30 16459 H 1534.59 -0.0330053 -4.16087 0
M  V30 16460 H 1533.47 0.400713 -5.47435 0
M  V30 16461 H 1533.73 1.52454 -4.14982 0
M  V30 16462 N 1532.79 1.52222 -0.408187 0
M  V30 16463 C 1533.72 2.29892 0.408868 0
M  V30 16464 C 1534.7 1.34063 1.04695 0
M  V30 16465 O 1535.89 1.6297 1.05615 0
M  V30 16466 C 1533.02 3.11964 1.52629 0
M  V30 16467 C 1531.97 4.15833 1.01326 0
M  V30 16468 C 1531.3 4.86244 2.2242 0
M  V30 16469 C 1532.6 5.22256 0.0679573 0
M  V30 16470 H 1534.29 2.98443 -0.23923 0
M  V30 16471 H 1531.84 1.43528 -0.116496 0
M  V30 16472 H 1533.79 3.65067 2.10486 0
M  V30 16473 H 1532.51 2.41181 2.20225 0
M  V30 16474 H 1531.17 3.63739 0.4571 0
M  V30 16475 H 1530.82 4.11991 2.88569 0
M  V30 16476 H 1530.52 5.56461 1.88746 0
M  V30 16477 H 1532.04 5.42159 2.80885 0
M  V30 16478 H 1533.46 5.70604 0.555295 0
M  V30 16479 H 1531.85 5.9983 -0.179934 0
M  V30 16480 H 1532.92 4.76892 -0.877599 0
M  V30 16481 N 1534.27 0.138579 1.5699 0
M  V30 16482 C 1535.22 -0.815878 2.12902 0
M  V30 16483 C 1536.2 -1.21511 1.0547 0
M  V30 16484 O 1537.39 -1.18294 1.31665 0
M  V30 16485 C 1534.52 -2.0583 2.74752 0
M  V30 16486 C 1533.61 -1.68255 3.89296 0
M  V30 16487 N 1534 -1.01456 4.9552 0
M  V30 16488 C 1532.3 -1.97583 3.99846 0
M  V30 16489 C 1533 -0.834498 5.75683 0
M  V30 16490 N 1531.97 -1.36571 5.26165 0
M  V30 16491 H 1535.78 -0.296204 2.92404 0
M  V30 16492 H 1533.29 -0.0632473 1.62277 0
M  V30 16493 H 1535.29 -2.75197 3.13165 0
M  V30 16494 H 1533.95 -2.58323 1.96721 0
M  V30 16495 H 1534.96 -0.67628 5.13466 0
M  V30 16496 H 1531.64 -2.51985 3.32881 0
M  V30 16497 H 1533.03 -0.308664 6.71191 0
M  V30 16498 N 1535.75 -1.57019 -0.13521 0
M  V30 16499 C 1536.71 -1.98229 -1.15056 0
M  V30 16500 C 1537.71 -0.870295 -1.35213 0
M  V30 16501 O 1538.9 -1.13668 -1.32005 0
M  V30 16502 C 1536.03 -2.30844 -2.50846 0
M  V30 16503 H 1537.22 -2.89123 -0.796744 0
M  V30 16504 H 1534.78 -1.51636 -0.378962 0
M  V30 16505 H 1535.51 -1.42779 -2.91178 0
M  V30 16506 H 1535.3 -3.11931 -2.37574 0
M  V30 16507 H 1536.79 -2.63524 -3.23952 0
M  V30 16508 N 1537.22 0.404919 -1.52309 0
M  V30 16509 C 1538.47 1.15319 -1.66822 0
M  V30 16510 C 1538.8 1.90056 -0.399041 0
M  V30 16511 O 1538.08 1.84927 0.602679 0
M  V30 16512 C 1538.36 2.14426 -2.89298 0
M  V30 16513 C 1538.21 1.43558 -4.26276 0
M  V30 16514 C 1539.53 3.15046 -3.07301 0
M  V30 16515 H 1536.65 0.417869 -0.607087 0
M  V30 16516 H 1539.29 0.438414 -1.84873 0
M  V30 16517 H 1537.44 2.75382 -2.74039 0
M  V30 16518 H 1539.12 0.856899 -4.53271 0
M  V30 16519 H 1537.36 0.737515 -4.27485 0
M  V30 16520 H 1538.03 2.15895 -5.08029 0
M  V30 16521 H 1540.51 2.6417 -3.21486 0
M  V30 16522 H 1539.38 3.81652 -3.94503 0
M  V30 16523 H 1539.64 3.83012 -2.20803 0
M  V30 16524 N 1538.7 1.43003 0.662408 0
M  V30 16525 C 1539.65 1.43898 1.76854 0
M  V30 16526 C 1540.64 0.308629 1.57912 0
M  V30 16527 O 1541.83 0.551757 1.6818 0
M  V30 16528 C 1538.96 1.35585 3.15391 0
M  V30 16529 C 1538.04 2.53614 3.39913 0
M  V30 16530 N 1538.43 3.78998 3.34954 0
M  V30 16531 C 1536.73 2.48141 3.70597 0
M  V30 16532 C 1537.43 4.57467 3.59303 0
M  V30 16533 N 1536.41 3.8806 3.80671 0
M  V30 16534 H 1540.21 2.38722 1.71432 0
M  V30 16535 H 1537.73 1.37526 0.863728 0
M  V30 16536 H 1539.72 1.34308 3.94673 0
M  V30 16537 H 1538.38 0.417735 3.22002 0
M  V30 16538 H 1539.39 4.11417 3.14574 0
M  V30 16539 H 1536.07 1.62971 3.84379 0
M  V30 16540 H 1537.46 5.66475 3.61326 0
M  V30 16541 N 1540.18 -0.899904 1.29381 0
M  V30 16542 C 1541.41 -1.68383 1.20227 0
M  V30 16543 C 1541.82 -1.87305 -0.237135 0
M  V30 16544 O 1541.18 -1.40992 -1.15877 0
M  V30 16545 C 1541.23 -3.06845 1.91124 0
M  V30 16546 O 1540.95 -2.88787 3.29444 0
M  V30 16547 C 1542.45 -4.01253 1.88444 0
M  V30 16548 H 1539.67 -0.525917 0.416717 0
M  V30 16549 H 1542.22 -1.12537 1.7075 0
M  V30 16550 H 1540.37 -3.59467 1.44438 0
M  V30 16551 H 1540.79 -3.7652 3.65148 0
M  V30 16552 H 1542.26 -4.95824 2.42616 0
M  V30 16553 H 1542.74 -4.30699 0.859925 0
M  V30 16554 H 1543.34 -3.54562 2.34874 0
M  V30 16555 N 1541.66 -1.11854 -1.11024 0
M  V30 16556 C 1542.62 -0.784033 -2.15373 0
M  V30 16557 C 1543.62 0.198686 -1.59568 0
M  V30 16558 O 1544.81 -0.0263428 -1.7418 0
M  V30 16559 C 1541.94 -0.163987 -3.40505 0
M  V30 16560 H 1543.14 -1.70849 -2.46477 0
M  V30 16561 H 1540.69 -0.920988 -1.26283 0
M  V30 16562 H 1541.42 0.770483 -3.15014 0
M  V30 16563 H 1541.21 -0.871447 -3.82293 0
M  V30 16564 H 1542.7 0.0537739 -4.17565 0
M  V30 16565 N 1543.14 1.28707 -0.909517 0
M  V30 16566 C 1544.37 1.98995 -0.555405 0
M  V30 16567 C 1544.77 1.68183 0.866665 0
M  V30 16568 O 1544.12 0.928626 1.585 0
M  V30 16569 C 1544.18 3.53018 -0.67958 0
M  V30 16570 C 1543.84 4.0741 -2.07042 0
M  V30 16571 C 1544.84 4.21565 -3.04268 0
M  V30 16572 C 1542.53 4.42204 -2.38245 0
M  V30 16573 C 1544.52 4.69762 -4.30816 0
M  V30 16574 C 1542.21 4.90095 -3.65034 0
M  V30 16575 C 1543.2 5.03831 -4.61133 0
M  V30 16576 O 1542.89 5.50679 -5.85668 0
M  V30 16577 H 1542.62 0.64228 -0.210836 0
M  V30 16578 H 1545.18 1.64974 -1.22364 0
M  V30 16579 H 1543.41 3.86673 0.0457104 0
M  V30 16580 H 1545.1 4.0453 -0.33319 0
M  V30 16581 H 1545.86 3.94962 -2.81478 0
M  V30 16582 H 1541.74 4.30766 -1.642 0
M  V30 16583 H 1545.29 4.80398 -5.0583 0
M  V30 16584 H 1541.18 5.16137 -3.8765 0
M  V30 16585 H 1541.95 5.68974 -5.88397 0
M  V30 16586 N 1544.61 0.673042 1.42506 0
M  V30 16587 C 1545.84 0.201349 2.0642 0
M  V30 16588 C 1546.26 -1.132 1.50224 0
M  V30 16589 O 1545.62 -1.70368 0.620024 0
M  V30 16590 C 1545.67 0.14505 3.60308 0
M  V30 16591 O 1544.77 -0.886953 4.02749 0
M  V30 16592 H 1544.12 0.103975 0.655809 0
M  V30 16593 H 1546.65 0.921559 1.8267 0
M  V30 16594 H 1546.66 -0.0316792 4.07988 0
M  V30 16595 H 1545.33 1.11829 4.00583 0
M  V30 16596 H 1543.91 -0.681408 3.66621 0
M  V30 16597 N 1546.09 -1.52004 0.416254 0
M  V30 16598 C 1547.51 -1.59457 0.0674775 0
M  V30 16599 C 1547.71 -1.42865 -1.42098 0
M  V30 16600 O 1546.76 -1.2592 -2.18862 0
M  V30 16601 C 1548.08 -2.95272 0.56876 0
M  V30 16602 C 1549.63 -3.08525 0.527356 0
M  V30 16603 C 1550.1 -4.46832 1.00526 0
M  V30 16604 N 1551.59 -4.53092 0.962377 0
M  V30 16605 C 1552.33 -5.58393 1.30327 0
M  V30 16606 N 1551.82 -6.71212 1.71597 0
M  V30 16607 N 1553.62 -5.48639 1.22278 0
M  V30 16608 H 1545.77 -1.61036 1.38496 0
M  V30 16609 H 1548.03 -0.75795 0.569399 0
M  V30 16610 H 1547.74 -3.12717 1.60937 0
M  V30 16611 H 1547.61 -3.77196 -0.0177595 0
M  V30 16612 H 1550 -2.9076 -0.504225 0
M  V30 16613 H 1550.08 -2.28491 1.15002 0
M  V30 16614 H 1549.72 -4.6534 2.03521 0
M  V30 16615 H 1549.65 -5.25373 0.359345 0
M  V30 16616 H 1552.14 -3.72109 0.65904 0
M  V30 16617 H 1552.46 -7.47558 1.95901 0
M  V30 16618 H 1550.8 -6.72475 1.75507 0
M  V30 16619 H 1553.99 -4.59383 0.899175 0
M  V30 16620 H 1554.16 -6.30596 1.49175 0
M  V30 16621 N 1547.57 -0.146903 -1.56914 0
M  V30 16622 C 1548.5 0.788924 -2.19769 0
M  V30 16623 C 1549.48 1.25712 -1.14589 0
M  V30 16624 O 1550.67 1.3147 -1.42931 0
M  V30 16625 C 1547.8 2.02824 -2.81921 0
M  V30 16626 C 1546.75 1.69683 -3.92927 0
M  V30 16627 C 1546.08 3.00877 -4.42015 0
M  V30 16628 C 1547.38 0.943559 -5.13706 0
M  V30 16629 H 1549.07 0.265076 -2.98224 0
M  V30 16630 H 1546.62 0.126057 -1.43447 0
M  V30 16631 H 1548.57 2.68773 -3.2456 0
M  V30 16632 H 1547.29 2.57581 -2.00797 0
M  V30 16633 H 1545.95 1.06112 -3.50907 0
M  V30 16634 H 1545.6 3.53625 -3.57713 0
M  V30 16635 H 1545.3 2.79466 -5.16888 0
M  V30 16636 H 1546.82 3.67897 -4.87323 0
M  V30 16637 H 1548.24 1.50513 -5.5319 0
M  V30 16638 H 1546.64 0.829387 -5.94341 0
M  V30 16639 H 1547.71 -0.0647228 -4.84857 0
M  V30 16640 N 1549.05 1.57088 0.126881 0
M  V30 16641 C 1550.46 1.73685 0.684865 0
M  V30 16642 C 1550.81 0.764401 1.80697 0
M  V30 16643 O 1549.94 -0.0644761 2.16304 0
M  V30 16644 C 1550.53 3.14933 1.24911 0
M  V30 16645 C 1549.09 3.33063 1.75346 0
M  V30 16646 C 1548.24 2.69575 0.649976 0
M  V30 16647 H 1551.19 1.58391 -0.0989715 0
M  V30 16648 H 1551.21 3.16047 2.11884 0
M  V30 16649 H 1550.72 3.85686 0.432204 0
M  V30 16650 H 1548.82 2.67339 2.59539 0
M  V30 16651 H 1548.93 4.41169 1.86833 0
M  V30 16652 H 1547.3 2.30592 1.08163 0
M  V30 16653 H 1548.08 3.42946 -0.15582 0
M  V30 16654 N 1550.53 -0.396836 1.52522 0
M  V30 16655 C 1551.77 -1.14037 1.66853 0
M  V30 16656 C 1552.1 -1.90706 0.406987 0
M  V30 16657 O 1551.37 -1.87165 -0.578443 0
M  V30 16658 H 1549.95 -0.423967 0.615029 0
M  V30 16659 H 1552.61 -0.451042 1.89609 0
M  V30 16660 H 1551.7 -1.84763 2.51533 0
M  V30 16661 N 1552.01 -1.43353 -0.654814 0
M  V30 16662 C 1552.95 -1.48387 -1.76776 0
M  V30 16663 C 1553.92 -0.333755 -1.62712 0
M  V30 16664 O 1555.11 -0.540683 -1.82979 0
M  V30 16665 C 1552.25 -1.41132 -3.14922 0
M  V30 16666 C 1551.36 -2.66336 -3.40131 0
M  V30 16667 C 1550.5 -2.5108 -4.68116 0
M  V30 16668 C 1549.53 -3.71561 -4.86425 0
M  V30 16669 N 1548.67 -3.55125 -6.05666 0
M  V30 16670 H 1553.51 -2.43487 -1.71808 0
M  V30 16671 H 1551.05 -1.20866 -0.838442 0
M  V30 16672 H 1553.01 -1.3492 -3.94782 0
M  V30 16673 H 1551.64 -0.496149 -3.18964 0
M  V30 16674 H 1550.69 -2.82834 -2.5438 0
M  V30 16675 H 1552 -3.55835 -3.49546 0
M  V30 16676 H 1551.15 -2.42567 -5.56099 0
M  V30 16677 H 1549.89 -1.59103 -4.61018 0
M  V30 16678 H 1548.9 -3.80484 -3.96877 0
M  V30 16679 H 1550.12 -4.64545 -4.95353 0
M  V30 16680 H 1548.07 -2.65881 -5.99703 0
M  V30 16681 H 1547.99 -4.38224 -6.16032 0
M  V30 16682 H 1549.25 -3.5046 -6.96274 0
M  V30 16683 N 1553.48 0.89303 -1.29857 0
M  V30 16684 C 1554.89 1.45948 -1.16431 0
M  V30 16685 C 1555.25 1.94751 0.238051 0
M  V30 16686 O 1554.37 1.84302 1.1341 0
M  V30 16687 C 1554.97 2.6527 -2.10754 0
M  V30 16688 C 1553.52 3.1803 -2.0133 0
M  V30 16689 C 1552.67 1.90721 -2.01297 0
M  V30 16690 H 1555.62 0.70373 -1.42244 0
M  V30 16691 H 1555.64 3.41223 -1.68366 0
M  V30 16692 H 1555.16 2.2972 -3.1281 0
M  V30 16693 H 1553.26 3.58257 -1.02386 0
M  V30 16694 H 1553.37 3.81876 -2.89323 0
M  V30 16695 H 1551.73 2.0871 -1.45987 0
M  V30 16696 H 1552.52 1.5744 -3.0507 0
M  V30 16697 N 1554.96 1.12442 1.10429 0
M  V30 16698 C 1555.91 0.792332 2.16773 0
M  V30 16699 C 1556.88 -0.240945 1.64343 0
M  V30 16700 O 1558.06 -0.115504 1.9045 0
M  V30 16701 C 1555.2 0.253166 3.4417 0
M  V30 16702 C 1554.32 1.34426 4.10553 0
M  V30 16703 C 1553.45 0.764527 5.2567 0
M  V30 16704 C 1552.49 1.83474 5.83955 0
M  V30 16705 N 1551.63 1.27372 6.9045 0
M  V30 16706 H 1556.47 1.7033 2.44524 0
M  V30 16707 H 1554 0.850418 1.20026 0
M  V30 16708 H 1555.96 -0.0774862 4.17128 0
M  V30 16709 H 1554.59 -0.620962 3.16771 0
M  V30 16710 H 1553.64 1.79169 3.35563 0
M  V30 16711 H 1554.96 2.15354 4.49916 0
M  V30 16712 H 1554.11 0.384548 6.0548 0
M  V30 16713 H 1552.85 -0.0759512 4.87641 0
M  V30 16714 H 1551.85 2.22391 5.02814 0
M  V30 16715 H 1553.08 2.67844 6.24048 0
M  V30 16716 H 1551.03 0.455069 6.5442 0
M  V30 16717 H 1550.94 2.01959 7.28525 0
M  V30 16718 H 1552.21 0.920975 7.7404 0
M  V30 16719 N 1556.44 -1.28223 0.91633 0
M  V30 16720 C 1557.69 -1.95153 0.551639 0
M  V30 16721 C 1558.02 -1.71938 -0.902829 0
M  V30 16722 O 1557.29 -1.04184 -1.64243 0
M  V30 16723 C 1557.58 -3.49565 0.864647 0
M  V30 16724 C 1557.43 -3.82171 2.37203 0
M  V30 16725 C 1558.75 -4.38604 0.362593 0
M  V30 16726 H 1555.87 -0.708808 0.20189 0
M  V30 16727 H 1558.51 -1.51545 1.14604 0
M  V30 16728 H 1556.66 -3.8684 0.358782 0
M  V30 16729 H 1558.33 -3.54751 2.94872 0
M  V30 16730 H 1556.57 -3.29124 2.82595 0
M  V30 16731 H 1557.25 -4.90007 2.54159 0
M  V30 16732 H 1559.72 -4.08416 0.795983 0
M  V30 16733 H 1558.6 -5.45493 0.61066 0
M  V30 16734 H 1558.86 -4.35911 -0.737137 0
M  V30 16735 N 1557.92 -0.68059 -1.42147 0
M  V30 16736 C 1559.15 -0.213529 -2.05494 0
M  V30 16737 C 1559.56 1.13665 -1.51251 0
M  V30 16738 O 1558.9 1.71838 -0.649422 0
M  V30 16739 C 1558.96 -0.0774256 -3.59417 0
M  V30 16740 C 1558.62 -1.35724 -4.3638 0
M  V30 16741 C 1559.62 -2.29195 -4.66654 0
M  V30 16742 C 1557.31 -1.60645 -4.75918 0
M  V30 16743 C 1559.3 -3.45858 -5.35407 0
M  V30 16744 C 1556.99 -2.77597 -5.44411 0
M  V30 16745 C 1557.99 -3.70027 -5.74081 0
M  V30 16746 O 1557.67 -4.84933 -6.41167 0
M  V30 16747 H 1557.41 -0.100043 -0.668556 0
M  V30 16748 H 1559.96 -0.929384 -1.83171 0
M  V30 16749 H 1558.19 0.694062 -3.8042 0
M  V30 16750 H 1559.88 0.350509 -4.04384 0
M  V30 16751 H 1560.64 -2.11194 -4.36603 0
M  V30 16752 H 1556.52 -0.8957 -4.52215 0
M  V30 16753 H 1560.07 -4.18023 -5.58483 0
M  V30 16754 H 1555.96 -2.95521 -5.73879 0
M  V30 16755 H 1556.73 -4.84552 -6.5966 0
M  V30 16756 N 1559.4 1.51781 -0.424309 0
M  V30 16757 C 1560.64 2.02269 0.146709 0
M  V30 16758 C 1560.97 1.30859 1.4349 0
M  V30 16759 O 1560.25 0.419504 1.89922 0
M  V30 16760 C 1560.53 3.58101 0.378861 0
M  V30 16761 C 1560.39 4.40143 -0.92707 0
M  V30 16762 C 1561.7 4.2469 1.15438 0
M  V30 16763 H 1558.82 0.735174 0.0518456 0
M  V30 16764 H 1561.47 1.81537 -0.560753 0
M  V30 16765 H 1559.62 3.75897 0.981496 0
M  V30 16766 H 1561.29 4.34025 -1.56268 0
M  V30 16767 H 1559.53 4.05748 -1.53464 0
M  V30 16768 H 1560.2 5.47299 -0.718837 0
M  V30 16769 H 1562.68 4.11086 0.644041 0
M  V30 16770 H 1561.55 5.33633 1.28557 0
M  V30 16771 H 1561.81 3.84668 2.17905 0
M  V30 16772 N 1560.87 0.155222 1.56834 0
M  V30 16773 C 1561.81 -0.812448 2.14317 0
M  V30 16774 C 1562.82 -1.20502 1.09467 0
M  V30 16775 O 1564.01 -1.14767 1.36714 0
M  V30 16776 C 1561.11 -2.10279 2.65774 0
M  V30 16777 C 1560.28 -1.8763 3.95112 0
M  V30 16778 C 1559.34 -3.0073 4.31796 0
M  V30 16779 O 1558.37 -2.72064 4.9997 0
M  V30 16780 N 1559.57 -4.28114 3.92044 0
M  V30 16781 H 1562.33 -0.321106 2.97975 0
M  V30 16782 H 1559.89 -0.0280861 1.61876 0
M  V30 16783 H 1561.89 -2.85005 2.87323 0
M  V30 16784 H 1560.46 -2.50652 1.86796 0
M  V30 16785 H 1559.68 -0.968958 3.82106 0
M  V30 16786 H 1560.96 -1.69845 4.79614 0
M  V30 16787 H 1560.36 -4.54269 3.37129 0
M  V30 16788 H 1558.92 -4.99594 4.18627 0
M  V30 16789 N 1562.35 -1.57153 -0.118549 0
M  V30 16790 C 1563.63 -1.75846 -0.856587 0
M  V30 16791 C 1564.01 -0.730801 -1.98047 0
M  V30 16792 O 1563.36 0.245156 -2.27181 0
M  V30 16793 C 1563.57 -3.20864 -1.37286 0
M  V30 16794 C 1564.91 -3.83378 -1.82501 0
M  V30 16795 O 1565.94 -3.24469 -1.46964 0
M  V30 16796 O 1564.8 -4.86922 -2.48132 0
M  V30 16797 H 1561.89 -0.72002 -0.406817 0
M  V30 16798 H 1564.44 -1.69392 -0.102254 0
M  V30 16799 H 1563.21 -3.87177 -0.566531 0
M  V30 16800 H 1562.83 -3.31858 -2.18988 0
M  V30 16801 N 1563.83 0.388742 -1.5273 0
M  V30 16802 C 1565.08 1.13094 -1.67011 0
M  V30 16803 C 1565.39 1.91115 -0.416467 0
M  V30 16804 O 1566.6 2.67921 -0.43941 0
M  V30 16805 C 1565.05 2.0595 -2.95149 0
M  V30 16806 C 1564.66 1.3335 -4.27694 0
M  V30 16807 C 1566.41 2.80303 -3.18795 0
M  V30 16808 C 1564.31 2.24973 -5.46938 0
M  V30 16809 H 1563.24 0.425887 -0.622203 0
M  V30 16810 H 1565.89 0.393708 -1.79227 0
M  V30 16811 H 1564.28 2.83309 -2.7668 0
M  V30 16812 H 1565.45 0.612137 -4.56716 0
M  V30 16813 H 1563.76 0.709547 -4.1031 0
M  V30 16814 H 1566.36 3.49036 -4.05065 0
M  V30 16815 H 1566.7 3.44394 -2.33877 0
M  V30 16816 H 1567.24 2.10036 -3.37831 0
M  V30 16817 H 1563.98 1.65497 -6.34264 0
M  V30 16818 H 1563.5 2.95024 -5.22227 0
M  V30 16819 H 1565.18 2.8505 -5.80823 0
M  V30 16820 N 1565.31 1.43698 0.647203 0
M  V30 16821 C 1566.24 1.52135 1.77136 0
M  V30 16822 C 1567.22 0.375551 1.65902 0
M  V30 16823 O 1568.4 0.593564 1.84907 0
M  V30 16824 C 1565.53 1.44974 3.15594 0
M  V30 16825 C 1564.49 2.57866 3.41598 0
M  V30 16826 C 1563.81 2.35757 4.7992 0
M  V30 16827 C 1565.11 4.00089 3.35747 0
M  V30 16828 H 1566.81 2.46227 1.70332 0
M  V30 16829 H 1564.35 1.18507 0.818046 0
M  V30 16830 H 1566.31 1.4948 3.93997 0
M  V30 16831 H 1565.03 0.473905 3.23143 0
M  V30 16832 H 1563.69 2.52722 2.65569 0
M  V30 16833 H 1563.34 1.36403 4.84152 0
M  V30 16834 H 1563.04 3.11436 4.98278 0
M  V30 16835 H 1564.56 2.42055 5.60572 0
M  V30 16836 H 1565.98 4.06687 4.04078 0
M  V30 16837 H 1564.37 4.75842 3.65642 0
M  V30 16838 H 1565.44 4.24798 2.33825 0
M  V30 16839 N 1566.79 -0.886131 1.30328 0
M  V30 16840 C 1568.2 -1.16922 1.08634 0
M  V30 16841 C 1568.4 -2.00913 -0.15365 0
M  V30 16842 O 1567.46 -2.37849 -0.847592 0
M  V30 16843 C 1568.77 -1.87701 2.34923 0
M  V30 16844 C 1570.32 -2.0047 2.40376 0
M  V30 16845 C 1570.79 -2.74662 3.66504 0
M  V30 16846 N 1572.29 -2.82208 3.67305 0
M  V30 16847 C 1573.02 -3.40185 4.61586 0
M  V30 16848 N 1572.52 -3.99221 5.66211 0
M  V30 16849 N 1574.31 -3.37989 4.49132 0
M  V30 16850 H 1566.46 -0.326064 2.09882 0
M  V30 16851 H 1568.72 -0.206996 0.925125 0
M  V30 16852 H 1568.43 -1.33427 3.25408 0
M  V30 16853 H 1568.3 -2.88092 2.43481 0
M  V30 16854 H 1570.69 -2.53914 1.50371 0
M  V30 16855 H 1570.77 -0.991709 2.35794 0
M  V30 16856 H 1570.42 -2.2189 4.56867 0
M  V30 16857 H 1570.35 -3.76335 3.68347 0
M  V30 16858 H 1572.84 -2.40292 2.91665 0
M  V30 16859 H 1573.15 -4.41522 6.34254 0
M  V30 16860 H 1571.49 -3.97643 5.70004 0
M  V30 16861 H 1574.69 -2.91096 3.6658 0
M  V30 16862 H 1574.86 -3.82877 5.2279 0
M  V30 16863 N 1568.26 -1.13026 -1.09832 0
M  V30 16864 C 1569.2 -0.761606 -2.16176 0
M  V30 16865 C 1570.21 0.214709 -1.61378 0
M  V30 16866 O 1571.4 -0.00487178 -1.78499 0
M  V30 16867 C 1568.5 -0.107513 -3.38729 0
M  V30 16868 C 1567.67 -1.11487 -4.22953 0
M  V30 16869 C 1566.73 -0.487243 -5.23939 0
M  V30 16870 O 1565.76 -1.14605 -5.57543 0
M  V30 16871 N 1566.96 0.742571 -5.75731 0
M  V30 16872 H 1569.72 -1.67669 -2.48409 0
M  V30 16873 H 1567.28 -1.0227 -1.25509 0
M  V30 16874 H 1569.28 0.324507 -4.03397 0
M  V30 16875 H 1567.85 0.710438 -3.0442 0
M  V30 16876 H 1567.07 -1.72432 -3.54487 0
M  V30 16877 H 1568.35 -1.79584 -4.76053 0
M  V30 16878 H 1567.75 1.29667 -5.50639 0
M  V30 16879 H 1566.31 1.11731 -6.42152 0
M  V30 16880 N 1569.74 1.27735 -0.923117 0
M  V30 16881 C 1570.67 2.26095 -0.375982 0
M  V30 16882 C 1571.69 1.55227 0.490763 0
M  V30 16883 O 1572.88 1.7589 0.304127 0
M  V30 16884 C 1569.98 3.35479 0.480342 0
M  V30 16885 C 1569.15 4.35866 -0.36605 0
M  V30 16886 C 1568.21 5.24466 0.42688 0
M  V30 16887 O 1567.23 5.68964 -0.163825 0
M  V30 16888 N 1568.44 5.54192 1.72777 0
M  V30 16889 H 1571.2 2.73679 -1.22147 0
M  V30 16890 H 1568.76 1.41314 -0.790056 0
M  V30 16891 H 1570.75 3.91693 1.01776 0
M  V30 16892 H 1569.32 2.87531 1.22657 0
M  V30 16893 H 1568.54 3.7898 -1.08479 0
M  V30 16894 H 1569.83 4.9995 -0.944849 0
M  V30 16895 H 1569.23 5.19888 2.23008 0
M  V30 16896 H 1567.79 6.13125 2.21181 0
M  V30 16897 N 1571.22 0.688118 1.41784 0
M  V30 16898 C 1572.15 0.0323199 2.33478 0
M  V30 16899 C 1573.13 -0.775145 1.51412 0
M  V30 16900 O 1574.32 -0.72962 1.79973 0
M  V30 16901 C 1571.45 -0.910141 3.35162 0
M  V30 16902 C 1570.4 -0.210312 4.27483 0
M  V30 16903 C 1569.73 -1.26662 5.19481 0
M  V30 16904 C 1571.03 0.918839 5.14154 0
M  V30 16905 H 1572.72 0.798138 2.88566 0
M  V30 16906 H 1570.27 0.385262 1.38751 0
M  V30 16907 H 1572.22 -1.3781 3.98229 0
M  V30 16908 H 1570.94 -1.70754 2.78408 0
M  V30 16909 H 1569.6 0.237544 3.6583 0
M  V30 16910 H 1569.25 -2.05635 4.59046 0
M  V30 16911 H 1568.95 -0.803416 5.82082 0
M  V30 16912 H 1570.47 -1.73524 5.85424 0
M  V30 16913 H 1571.89 0.531499 5.70831 0
M  V30 16914 H 1570.29 1.30867 5.85657 0
M  V30 16915 H 1571.36 1.7618 4.51762 0
M  V30 16916 N 1572.7 -1.51554 0.432352 0
M  V30 16917 C 1573.66 -2.26195 -0.369912 0
M  V30 16918 C 1574.66 -1.29446 -0.953961 0
M  V30 16919 O 1575.85 -1.53199 -0.829193 0
M  V30 16920 C 1572.98 -3.04993 -1.52289 0
M  V30 16921 H 1574.18 -2.98551 0.284173 0
M  V30 16922 H 1571.73 -1.55197 0.1854 0
M  V30 16923 H 1572.46 -2.37043 -2.21317 0
M  V30 16924 H 1572.25 -3.76051 -1.11032 0
M  V30 16925 H 1573.74 -3.61547 -2.08982 0
M  V30 16926 N 1574.18 -0.163538 -1.56749 0
M  V30 16927 C 1575.4 0.493087 -2.01453 0
M  V30 16928 C 1575.83 1.56535 -1.043 0
M  V30 16929 O 1575.18 1.81287 -0.0213039 0
M  V30 16930 C 1575.23 1.05546 -3.44808 0
M  V30 16931 O 1574.34 2.16977 -3.50706 0
M  V30 16932 H 1573.68 0.118905 -0.653267 0
M  V30 16933 H 1576.21 -0.265139 -2.02875 0
M  V30 16934 H 1576.22 1.38002 -3.83953 0
M  V30 16935 H 1574.89 0.270333 -4.1502 0
M  V30 16936 H 1573.47 1.85625 -3.23416 0
M  V30 16937 N 1575.65 1.57214 0.110213 0
M  V30 16938 C 1576.56 2.04287 1.15342 0
M  V30 16939 C 1577.58 0.964895 1.44796 0
M  V30 16940 O 1578.76 1.27702 1.55737 0
M  V30 16941 C 1575.82 2.44518 2.45788 0
M  V30 16942 C 1574.88 3.66439 2.23653 0
M  V30 16943 C 1574.12 4.04742 3.47879 0
M  V30 16944 O 1574.34 3.43291 4.5553 0
M  V30 16945 O 1573.27 4.97791 3.38361 0
M  V30 16946 H 1577.1 2.93415 0.783656 0
M  V30 16947 H 1574.68 1.45897 0.321644 0
M  V30 16948 H 1576.57 2.71089 3.22628 0
M  V30 16949 H 1575.24 1.58533 2.82221 0
M  V30 16950 H 1574.15 3.45006 1.44643 0
M  V30 16951 H 1575.48 4.53156 1.9212 0
M  V30 16952 N 1577.13 -0.380637 1.52934 0
M  V30 16953 C 1578.38 -1.1265 1.68635 0
M  V30 16954 C 1578.71 -1.89397 0.429227 0
M  V30 16955 O 1577.99 -1.85863 -0.573182 0
M  V30 16956 C 1578.27 -2.09797 2.92673 0
M  V30 16957 C 1578.12 -1.36758 4.28506 0
M  V30 16958 C 1579.44 -3.10117 3.12274 0
M  V30 16959 H 1576.56 -0.408158 0.613658 0
M  V30 16960 H 1579.2 -0.408947 1.85547 0
M  V30 16961 H 1577.35 -2.70987 2.78385 0
M  V30 16962 H 1579.02 -0.784679 4.54577 0
M  V30 16963 H 1577.27 -0.669413 4.28604 0
M  V30 16964 H 1577.94 -2.07786 5.11399 0
M  V30 16965 H 1580.41 -2.59022 3.25648 0
M  V30 16966 H 1579.29 -3.75328 4.00525 0
M  V30 16967 H 1579.55 -3.79451 2.26868 0
M  V30 16968 N 1578.61 -1.44039 -0.639573 0
M  V30 16969 C 1579.54 -1.53073 -1.76327 0
M  V30 16970 C 1580.52 -0.384344 -1.65701 0
M  V30 16971 O 1581.71 -0.603362 -1.84589 0
M  V30 16972 C 1578.84 -1.46646 -3.14821 0
M  V30 16973 C 1577.79 -2.59673 -3.40226 0
M  V30 16974 C 1577.12 -2.38298 -4.78663 0
M  V30 16975 C 1578.42 -4.01864 -3.33621 0
M  V30 16976 H 1580.11 -2.47126 -1.69023 0
M  V30 16977 H 1577.66 -1.1894 -0.811749 0
M  V30 16978 H 1579.61 -1.51567 -3.93199 0
M  V30 16979 H 1578.33 -0.491035 -3.22888 0
M  V30 16980 H 1576.99 -2.54127 -2.64225 0
M  V30 16981 H 1576.64 -1.38968 -4.83422 0
M  V30 16982 H 1576.34 -3.14074 -4.9662 0
M  V30 16983 H 1577.86 -2.45025 -5.59281 0
M  V30 16984 H 1579.28 -4.08824 -4.01915 0
M  V30 16985 H 1577.68 -4.77775 -3.63113 0
M  V30 16986 H 1578.75 -4.26033 -2.31569 0
M  V30 16987 N 1580.09 0.879207 -1.30796 0
M  V30 16988 C 1581.5 1.16344 -1.09253 0
M  V30 16989 C 1581.7 2.00992 0.142993 0
M  V30 16990 O 1580.76 2.38295 0.834966 0
M  V30 16991 C 1582.07 1.86452 -2.35915 0
M  V30 16992 C 1583.62 1.99193 -2.41436 0
M  V30 16993 C 1584.1 2.72714 -3.67955 0
M  V30 16994 N 1585.59 2.80256 -3.68796 0
M  V30 16995 C 1586.32 3.37732 -4.63384 0
M  V30 16996 N 1585.82 3.96212 -5.6832 0
M  V30 16997 N 1587.61 3.35602 -4.50918 0
M  V30 16998 H 1579.76 0.314928 -2.10052 0
M  V30 16999 H 1582.03 0.202087 -0.92621 0
M  V30 17000 H 1581.73 1.31699 -3.26111 0
M  V30 17001 H 1581.61 2.86796 -2.45006 0
M  V30 17002 H 1583.99 2.53113 -1.51716 0
M  V30 17003 H 1584.07 0.97919 -2.36317 0
M  V30 17004 H 1583.72 2.19464 -4.58037 0
M  V30 17005 H 1583.65 3.74376 -3.70338 0
M  V30 17006 H 1586.14 2.38742 -2.92935 0
M  V30 17007 H 1586.45 4.38153 -6.36586 0
M  V30 17008 H 1584.8 3.94615 -5.72105 0
M  V30 17009 H 1587.99 2.89147 -3.68119 0
M  V30 17010 H 1588.16 3.80099 -5.24813 0
M  V30 17011 N 1581.57 1.13606 1.09231 0
M  V30 17012 C 1582.81 0.900386 1.81717 0
M  V30 17013 C 1583.15 -0.571984 1.85586 0
M  V30 17014 O 1582.42 -1.42336 1.32554 0
M  V30 17015 C 1582.7 1.49143 3.27763 0
M  V30 17016 C 1582.56 3.03306 3.32153 0
M  V30 17017 C 1583.88 1.16129 4.24502 0
M  V30 17018 H 1581 0.328531 0.659724 0
M  V30 17019 H 1583.64 1.40467 1.27941 0
M  V30 17020 H 1581.79 1.06256 3.73687 0
M  V30 17021 H 1583.46 3.54963 2.94617 0
M  V30 17022 H 1581.7 3.38192 2.71677 0
M  V30 17023 H 1582.37 3.39761 4.35047 0
M  V30 17024 H 1584.85 1.53193 3.86874 0
M  V30 17025 H 1583.73 1.60129 5.25024 0
M  V30 17026 H 1583.99 0.0752973 4.42036 0
M  V30 17027 N 1583.05 -1.27244 0.929878 0
M  V30 17028 C 1583.98 -2.29161 0.448066 0
M  V30 17029 C 1584.96 -1.62806 -0.492776 0
M  V30 17030 O 1586.14 -1.90098 -0.39706 0
M  V30 17031 C 1583.27 -3.46019 -0.298002 0
M  V30 17032 C 1582.23 -4.24384 0.555211 0
M  V30 17033 C 1581.55 -5.33741 -0.320153 0
M  V30 17034 C 1582.85 -4.89535 1.8208 0
M  V30 17035 H 1584.55 -2.69712 1.29983 0
M  V30 17036 H 1582.09 -1.29659 0.626466 0
M  V30 17037 H 1584.04 -4.16419 -0.646024 0
M  V30 17038 H 1582.77 -3.0439 -1.18381 0
M  V30 17039 H 1581.43 -3.55733 0.885971 0
M  V30 17040 H 1581.08 -4.88354 -1.20498 0
M  V30 17041 H 1580.78 -5.8708 0.247241 0
M  V30 17042 H 1582.3 -6.06982 -0.663697 0
M  V30 17043 H 1583.71 -5.52209 1.54071 0
M  V30 17044 H 1582.11 -5.52941 2.33186 0
M  V30 17045 H 1583.18 -4.13113 2.53901 0
M  V30 17046 N 1584.52 -0.695628 -1.41417 0
M  V30 17047 C 1585.47 -0.00717107 -2.27999 0
M  V30 17048 C 1586.46 0.752768 -1.42205 0
M  V30 17049 O 1587.65 0.628252 -1.65475 0
M  V30 17050 C 1584.78 0.928436 -3.30507 0
M  V30 17051 C 1583.86 0.164742 -4.2378 0
M  V30 17052 N 1584.26 -0.841489 -4.98751 0
M  V30 17053 C 1582.55 0.400213 -4.44201 0
M  V30 17054 C 1583.25 -1.29863 -5.67019 0
M  V30 17055 N 1582.23 -0.624547 -5.4 0
M  V30 17056 H 1586.03 -0.778669 -2.83397 0
M  V30 17057 H 1583.55 -0.526469 -1.5363 0
M  V30 17058 H 1585.54 1.4368 -3.91359 0
M  V30 17059 H 1584.2 1.69953 -2.7667 0
M  V30 17060 H 1585.21 -1.22173 -5.03283 0
M  V30 17061 H 1581.89 1.14919 -4.01373 0
M  V30 17062 H 1583.28 -2.13362 -6.37123 0
M  V30 17063 N 1586 1.51322 -0.440383 0
M  V30 17064 C 1586.95 2.27823 0.369526 0
M  V30 17065 C 1587.92 1.31543 1.01418 0
M  V30 17066 O 1589.1 1.60449 1.03251 0
M  V30 17067 C 1586.24 3.12553 1.46304 0
M  V30 17068 C 1585.36 4.23829 0.836217 0
M  V30 17069 C 1584.49 4.95865 1.90504 0
M  V30 17070 C 1583.53 5.99058 1.25681 0
M  V30 17071 N 1582.67 6.64489 2.26712 0
M  V30 17072 H 1587.51 2.96593 -0.289205 0
M  V30 17073 H 1585.04 1.46287 -0.154466 0
M  V30 17074 H 1587 3.60006 2.10836 0
M  V30 17075 H 1585.63 2.4589 2.09136 0
M  V30 17076 H 1584.68 3.80318 0.0791116 0
M  V30 17077 H 1586 4.97753 0.322989 0
M  V30 17078 H 1585.15 5.46881 2.6269 0
M  V30 17079 H 1583.89 4.21578 2.452 0
M  V30 17080 H 1582.89 5.47331 0.520422 0
M  V30 17081 H 1584.12 6.75303 0.717138 0
M  V30 17082 H 1582.07 5.93014 2.80483 0
M  V30 17083 H 1581.98 7.34188 1.80289 0
M  V30 17084 H 1583.25 7.20134 2.98373 0
M  V30 17085 N 1587.48 0.171848 1.5666 0
M  V30 17086 C 1588.39 -0.770721 2.21579 0
M  V30 17087 C 1589.41 -1.25273 1.20759 0
M  V30 17088 O 1590.58 -1.30474 1.53422 0
M  V30 17089 C 1587.65 -1.98256 2.84422 0
M  V30 17090 C 1586.71 -1.54738 4.00443 0
M  V30 17091 C 1585.94 -2.70145 4.6028 0
M  V30 17092 O 1586.16 -3.87026 4.19007 0
M  V30 17093 O 1585.1 -2.44189 5.50141 0
M  V30 17094 H 1588.92 -0.247974 3.02686 0
M  V30 17095 H 1586.51 -0.0563734 1.49294 0
M  V30 17096 H 1588.39 -2.69127 3.24266 0
M  V30 17097 H 1587.07 -2.49435 2.0631 0
M  V30 17098 H 1585.97 -0.808152 3.65267 0
M  V30 17099 H 1587.31 -1.08249 4.80149 0
M  V30 17100 N 1588.96 -1.5727 -0.101874 0
M  V30 17101 C 1590.37 -1.74753 -0.657147 0
M  V30 17102 C 1590.72 -0.793052 -1.79458 0
M  V30 17103 O 1589.84 0.0300559 -2.16379 0
M  V30 17104 C 1590.44 -3.1688 -1.19885 0
M  V30 17105 C 1589 -3.3581 -1.70025 0
M  V30 17106 C 1588.15 -2.70575 -0.607007 0
M  V30 17107 H 1591.1 -1.58214 0.124158 0
M  V30 17108 H 1591.12 -3.19378 -2.06829 0
M  V30 17109 H 1590.63 -3.86325 -0.37079 0
M  V30 17110 H 1588.73 -2.71434 -2.55253 0
M  V30 17111 H 1588.84 -4.44086 -1.79791 0
M  V30 17112 H 1587.21 -2.32284 -1.04481 0
M  V30 17113 H 1587.99 -3.42655 0.21036 0
M  V30 17114 N 1590.44 0.372521 -1.53134 0
M  V30 17115 C 1591.68 1.11368 -1.68646 0
M  V30 17116 C 1592 1.90034 -0.437275 0
M  V30 17117 O 1591.27 1.88062 0.548593 0
M  V30 17118 H 1589.85 0.414129 -0.621696 0
M  V30 17119 H 1592.52 0.42082 -1.90303 0
M  V30 17120 H 1591.61 1.80738 -2.54441 0
M  V30 17121 N 1591.91 1.44376 0.631925 0
M  V30 17122 C 1592.86 1.47617 1.73762 0
M  V30 17123 C 1593.85 0.342055 1.57222 0
M  V30 17124 O 1595.04 0.587306 1.66972 0
M  V30 17125 C 1592.17 1.42245 3.12444 0
M  V30 17126 C 1591.25 2.60767 3.34457 0
M  V30 17127 N 1591.65 3.86017 3.2684 0
M  V30 17128 C 1589.94 2.55946 3.6525 0
M  V30 17129 C 1590.64 4.64986 3.49519 0
M  V30 17130 N 1589.62 3.96047 3.72354 0
M  V30 17131 H 1593.42 2.42305 1.6633 0
M  V30 17132 H 1590.94 1.39328 0.834362 0
M  V30 17133 H 1592.93 1.4265 3.91735 0
M  V30 17134 H 1591.59 0.485942 3.21043 0
M  V30 17135 H 1592.6 4.17997 3.05776 0
M  V30 17136 H 1589.28 1.71087 3.80835 0
M  V30 17137 H 1590.67 5.74011 3.49229 0
M  V30 17138 N 1593.39 -0.872258 1.31261 0
M  V30 17139 C 1594.32 -1.99517 1.21306 0
M  V30 17140 C 1595.3 -1.69801 0.100775 0
M  V30 17141 O 1596.49 -1.92098 0.284984 0
M  V30 17142 C 1593.62 -3.34968 0.917249 0
M  V30 17143 C 1592.57 -3.78984 1.98885 0
M  V30 17144 C 1591.9 -5.11869 1.54578 0
M  V30 17145 C 1593.2 -3.96338 3.40167 0
M  V30 17146 H 1594.89 -2.08104 2.15251 0
M  V30 17147 H 1592.44 -0.999865 1.03628 0
M  V30 17148 H 1594.39 -4.1306 0.834217 0
M  V30 17149 H 1593.11 -3.26549 -0.0578721 0
M  V30 17150 H 1591.77 -3.0313 2.06174 0
M  V30 17151 H 1591.42 -4.99889 0.558581 0
M  V30 17152 H 1591.12 -5.4229 2.26265 0
M  V30 17153 H 1592.65 -5.92472 1.47678 0
M  V30 17154 H 1594.06 -4.64831 3.35566 0
M  V30 17155 H 1592.46 -4.38153 4.10051 0
M  V30 17156 H 1593.53 -2.9979 3.81122 0
M  V30 17157 N 1594.87 -1.14184 -1.08627 0
M  V30 17158 C 1596.1 -0.930752 -1.84447 0
M  V30 17159 C 1596.51 0.524072 -1.81797 0
M  V30 17160 O 1595.85 1.37483 -1.21836 0
M  V30 17161 C 1595.91 -1.35125 -3.33139 0
M  V30 17162 C 1595.58 -2.82117 -3.59526 0
M  V30 17163 C 1596.57 -3.80242 -3.54559 0
M  V30 17164 C 1594.26 -3.19475 -3.87609 0
M  V30 17165 C 1596.25 -5.13734 -3.77301 0
M  V30 17166 C 1593.94 -4.53144 -4.10005 0
M  V30 17167 C 1594.94 -5.50082 -4.04844 0
M  V30 17168 O 1594.63 -6.81339 -4.26653 0
M  V30 17169 H 1594.36 -0.331385 -0.589203 0
M  V30 17170 H 1596.91 -1.52033 -1.38113 0
M  V30 17171 H 1595.14 -0.704995 -3.80219 0
M  V30 17172 H 1596.83 -1.11133 -3.9039 0
M  V30 17173 H 1597.6 -3.52726 -3.32881 0
M  V30 17174 H 1593.48 -2.44617 -3.90747 0
M  V30 17175 H 1597.02 -5.89386 -3.73188 0
M  V30 17176 H 1592.92 -4.80381 -4.31166 0
M  V30 17177 H 1593.68 -6.87563 -4.44071 0
M  V30 17178 N 1596.35 1.26749 -0.936613 0
M  V30 17179 C 1597.59 1.94251 -0.582616 0
M  V30 17180 C 1597.93 1.73352 0.875361 0
M  V30 17181 O 1597.2 1.06784 1.62565 0
M  V30 17182 C 1597.49 3.48145 -0.920151 0
M  V30 17183 C 1597.34 3.78349 -2.43253 0
M  V30 17184 C 1598.66 4.37971 -0.432326 0
M  V30 17185 H 1595.78 0.705507 -0.213141 0
M  V30 17186 H 1598.42 1.49703 -1.17001 0
M  V30 17187 H 1596.57 3.8622 -0.420279 0
M  V30 17188 H 1598.24 3.50015 -3.00478 0
M  V30 17189 H 1596.48 3.24586 -2.87795 0
M  V30 17190 H 1597.15 4.85902 -2.61922 0
M  V30 17191 H 1599.63 4.07098 -0.860857 0
M  V30 17192 H 1598.51 5.44452 -0.697366 0
M  V30 17193 H 1598.77 4.37029 0.667694 0
M  V30 17194 N 1597.83 0.703118 1.41046 0
M  V30 17195 C 1599.07 0.241543 2.02968 0
M  V30 17196 C 1599.43 -1.13975 1.54511 0
M  V30 17197 O 1600.63 -1.69761 2.0841 0
M  V30 17198 C 1598.9 0.305021 3.56096 0
M  V30 17199 S 1600.46 -0.0813994 4.38724 0
M  V30 17200 H 1597.28 0.0967141 0.704391 0
M  V30 17201 H 1599.88 0.922571 1.72363 0
M  V30 17202 H 1598.59 1.31219 3.88857 0
M  V30 17203 H 1598.12 -0.394903 3.91413 0
M  V30 17204 H 1600.13 -1.30702 4.78677 0
M  V30 17205 N 1599.3 -1.51086 0.448402 0
M  V30 17206 C 1600.55 -2.01778 -0.114116 0
M  V30 17207 C 1600.87 -1.3339 -1.4224 0
M  V30 17208 O 1600.14 -0.471938 -1.9013 0
M  V30 17209 H 1598.72 -0.745634 -0.0451624 0
M  V30 17210 H 1601.39 -1.85639 0.59364 0
M  V30 17211 H 1600.48 -3.10823 -0.28205 0
M  V30 17212 N 1600.78 -0.180154 -1.56567 0
M  V30 17213 C 1602.06 0.509347 -1.88852 0
M  V30 17214 C 1602.44 1.80697 -1.09141 0
M  V30 17215 O 1601.79 2.27726 -0.187974 0
M  V30 17216 C 1602 0.742669 -3.41006 0
M  V30 17217 C 1603.35 1.06873 -4.1093 0
M  V30 17218 O 1604.37 0.830907 -3.46373 0
M  V30 17219 O 1603.23 1.51784 -5.24999 0
M  V30 17220 H 1600.32 0.263629 -0.783855 0
M  V30 17221 H 1602.87 -0.219251 -1.68278 0
M  V30 17222 H 1601.64 -0.17431 -3.90912 0
M  V30 17223 H 1601.26 1.52427 -3.67222 0
M  V30 17224 N 1602.26 1.57322 0.0935319 0
M  V30 17225 C 1603.51 1.86443 0.797919 0
M  V30 17226 C 1603.84 0.769491 1.78304 0
M  V30 17227 O 1603.11 -0.222383 1.93225 0
M  V30 17228 C 1603.4 3.26201 1.52528 0
M  V30 17229 C 1603.25 4.46325 0.558031 0
M  V30 17230 C 1604.57 3.63879 2.47548 0
M  V30 17231 H 1601.69 0.678136 0.288618 0
M  V30 17232 H 1604.33 1.899 0.0615161 0
M  V30 17233 H 1602.48 3.23385 2.15301 0
M  V30 17234 H 1604.15 4.61257 -0.0628154 0
M  V30 17235 H 1602.4 4.3361 -0.128462 0
M  V30 17236 H 1603.07 5.40845 1.10413 0
M  V30 17237 H 1605.54 3.6765 1.94866 0
M  V30 17238 H 1604.42 4.62598 2.95456 0
M  V30 17239 H 1604.68 2.92647 3.31376 0
M  V30 17240 N 1603.74 -0.364395 1.53329 0
M  V30 17241 C 1605.15 -0.706147 1.43128 0
M  V30 17242 C 1605.35 -1.93231 0.571307 0
M  V30 17243 O 1604.41 -2.52442 0.0542079 0
M  V30 17244 C 1605.72 -0.918245 2.86337 0
M  V30 17245 C 1607.27 -1.01818 2.95976 0
M  V30 17246 C 1607.75 -1.26274 4.40249 0
M  V30 17247 N 1609.24 -1.33042 4.43683 0
M  V30 17248 C 1609.97 -1.53677 5.52423 0
M  V30 17249 N 1609.47 -1.7162 6.71207 0
M  V30 17250 N 1611.26 -1.56056 5.40003 0
M  V30 17251 H 1603.41 0.442091 2.07748 0
M  V30 17252 H 1605.68 0.135735 0.938232 0
M  V30 17253 H 1605.38 -0.0890628 3.51587 0
M  V30 17254 H 1605.26 -1.826 3.30056 0
M  V30 17255 H 1607.64 -1.83791 2.30879 0
M  V30 17256 H 1607.72 -0.0877892 2.55649 0
M  V30 17257 H 1607.37 -0.448026 5.0592 0
M  V30 17258 H 1607.3 -2.20637 4.78149 0
M  V30 17259 H 1609.79 -1.20784 3.58078 0
M  V30 17260 H 1610.1 -1.86942 7.49848 0
M  V30 17261 H 1608.45 -1.68797 6.7419 0
M  V30 17262 H 1611.64 -1.41605 4.46168 0
M  V30 17263 H 1611.81 -1.71796 6.24812 0
M  V30 17264 N 1605.22 -1.44709 -0.62426 0
M  V30 17265 C 1606.15 -1.46578 -1.749 0
M  V30 17266 C 1607.13 -0.323875 -1.59342 0
M  V30 17267 O 1608.31 -0.521884 -1.81132 0
M  V30 17268 C 1605.44 -1.30499 -3.1255 0
M  V30 17269 C 1604.48 -2.48341 -3.4674 0
M  V30 17270 S 1605.32 -4.10857 -3.43448 0
M  V30 17271 C 1606.47 -3.97213 -4.83707 0
M  V30 17272 H 1606.71 -2.41747 -1.73049 0
M  V30 17273 H 1604.24 -1.3209 -0.799473 0
M  V30 17274 H 1606.2 -1.2191 -3.9198 0
M  V30 17275 H 1604.86 -0.368301 -3.11933 0
M  V30 17276 H 1604.05 -2.32972 -4.46923 0
M  V30 17277 H 1603.65 -2.53706 -2.74789 0
M  V30 17278 H 1605.95 -3.61328 -5.73104 0
M  V30 17279 H 1606.89 -4.9725 -5.04131 0
M  V30 17280 H 1607.3 -3.29154 -4.58604 0
M  V30 17281 N 1606.69 0.865285 -1.31722 0
M  V30 17282 C 1607.66 1.95449 -1.19718 0
M  V30 17283 C 1608.66 1.60329 -0.123025 0
M  V30 17284 O 1609.85 1.70168 -0.372643 0
M  V30 17285 C 1606.98 3.30421 -0.838718 0
M  V30 17286 H 1608.17 2.07522 -2.16506 0
M  V30 17287 H 1605.73 1.05416 -1.154 0
M  V30 17288 H 1606.46 3.24048 0.127797 0
M  V30 17289 H 1606.25 3.57286 -1.61522 0
M  V30 17290 H 1607.74 4.10274 -0.77876 0
M  V30 17291 N 1608.17 1.14759 1.0802 0
M  V30 17292 C 1609.59 0.8888 1.32561 0
M  V30 17293 C 1609.79 -0.467926 1.95992 0
M  V30 17294 O 1608.84 -1.21135 2.21546 0
M  V30 17295 C 1610.16 2.02456 2.22333 0
M  V30 17296 C 1611.71 2.05831 2.35802 0
M  V30 17297 C 1612.18 3.18711 3.28918 0
M  V30 17298 N 1613.67 3.18315 3.36496 0
M  V30 17299 C 1614.41 4.02297 4.08589 0
M  V30 17300 N 1613.9 4.96327 4.83354 0
M  V30 17301 N 1615.7 3.90344 4.0446 0
M  V30 17302 H 1607.85 2.02135 0.652307 0
M  V30 17303 H 1610.11 0.881021 0.35001 0
M  V30 17304 H 1609.82 3.00354 1.82976 0
M  V30 17305 H 1609.69 1.95108 3.2282 0
M  V30 17306 H 1612.08 1.08537 2.74415 0
M  V30 17307 H 1612.16 2.17248 1.35044 0
M  V30 17308 H 1611.8 4.16253 2.91025 0
M  V30 17309 H 1611.73 3.04531 4.29614 0
M  V30 17310 H 1614.22 2.50214 2.83199 0
M  V30 17311 H 1614.54 5.56865 5.35837 0
M  V30 17312 H 1612.88 5.00321 4.82394 0
M  V30 17313 H 1616.07 3.162 3.45159 0
M  V30 17314 H 1616.24 4.56019 4.60381 0
M  V30 17315 N 1609.65 -1.26251 0.943322 0
M  V30 17316 C 1610.93 -1.88839 0.509831 0
M  V30 17317 C 1611.31 -1.85227 -1.01263 0
M  V30 17318 O 1610.66 -1.30805 -1.87356 0
M  V30 17319 C 1610.87 -3.32076 1.07361 0
M  V30 17320 C 1612.21 -4.0891 1.14357 0
M  V30 17321 O 1613.24 -3.41153 1.02435 0
M  V30 17322 O 1612.1 -5.30088 1.32926 0
M  V30 17323 H 1609.19 -0.810069 0.166484 0
M  V30 17324 H 1611.74 -1.34405 1.03602 0
M  V30 17325 H 1610.51 -3.29077 2.11716 0
M  V30 17326 H 1610.13 -3.94052 0.529991 0
M  V30 17327 N 1611.13 -0.710588 -1.40671 0
M  V30 17328 C 1612.38 -0.248316 -2.01274 0
M  V30 17329 C 1612.71 1.1539 -1.56201 0
M  V30 17330 O 1611.98 1.78182 -0.779838 0
M  V30 17331 C 1612.27 -0.322762 -3.58651 0
M  V30 17332 C 1612.12 -1.763 -4.1381 0
M  V30 17333 C 1613.44 0.308908 -4.39015 0
M  V30 17334 H 1610.56 -0.0917037 -0.731272 0
M  V30 17335 H 1613.2 -0.902145 -1.67216 0
M  V30 17336 H 1611.35 0.233923 -3.87795 0
M  V30 17337 H 1613.02 -2.37468 -3.95483 0
M  V30 17338 H 1611.26 -2.29233 -3.68286 0
M  V30 17339 H 1611.94 -1.76652 -5.22971 0
M  V30 17340 H 1614.41 -0.165363 -4.15771 0
M  V30 17341 H 1613.29 0.226347 -5.48433 0
M  V30 17342 H 1613.55 1.39174 -4.19622 0
M  V30 17343 N 1612.61 1.50847 -0.456408 0
M  V30 17344 C 1613.57 2.26755 0.33388 0
M  V30 17345 C 1614.57 1.30947 0.933247 0
M  V30 17346 O 1615.76 1.54499 0.804716 0
M  V30 17347 C 1612.89 3.07378 1.47417 0
M  V30 17348 H 1614.09 2.98061 -0.331634 0
M  V30 17349 H 1611.64 1.54882 -0.210067 0
M  V30 17350 H 1612.37 2.40534 2.17518 0
M  V30 17351 H 1612.16 3.7777 1.05036 0
M  V30 17352 H 1613.65 3.64826 2.03204 0
M  V30 17353 N 1614.09 0.188454 1.56469 0
M  V30 17354 C 1615.04 -0.747732 2.1539 0
M  V30 17355 C 1616.02 -1.18094 1.09282 0
M  V30 17356 O 1617.21 -1.14045 1.35362 0
M  V30 17357 C 1614.34 -1.96985 2.81162 0
M  V30 17358 C 1613.43 -1.55784 3.94452 0
M  V30 17359 N 1613.82 -0.8564 4.98497 0
M  V30 17360 C 1612.12 -1.84762 4.0593 0
M  V30 17361 C 1612.82 -0.650927 5.78047 0
M  V30 17362 N 1611.79 -1.19762 5.30243 0
M  V30 17363 H 1615.59 -0.203028 2.93198 0
M  V30 17364 H 1613.11 -0.0115881 1.62396 0
M  V30 17365 H 1615.11 -2.65094 3.21762 0
M  V30 17366 H 1613.77 -2.51934 2.0484 0
M  V30 17367 H 1614.78 -0.512583 5.15357 0
M  V30 17368 H 1611.45 -2.41267 3.40729 0
M  V30 17369 H 1612.84 -0.0949739 6.71833 0
M  V30 17370 N 1615.56 -1.5737 -0.0851874 0
M  V30 17371 C 1616.79 -1.90802 -0.800137 0
M  V30 17372 C 1617.21 -0.783132 -1.71792 0
M  V30 17373 O 1616.56 0.244331 -1.80857 0
M  V30 17374 C 1616.61 -3.2391 -1.60513 0
M  V30 17375 O 1616.34 -4.32072 -0.724253 0
M  V30 17376 C 1617.84 -3.7127 -2.42226 0
M  V30 17377 H 1615.06 -0.630988 -0.228242 0
M  V30 17378 H 1617.6 -2.04414 -0.0594587 0
M  V30 17379 H 1615.76 -3.11867 -2.29822 0
M  V30 17380 H 1616.17 -5.08571 -1.28279 0
M  V30 17381 H 1617.64 -4.67074 -2.94187 0
M  V30 17382 H 1618.12 -2.99606 -3.21143 0
M  V30 17383 H 1618.73 -3.86214 -1.78099 0
M  V30 17384 N 1617.04 0.356258 -1.53521 0
M  V30 17385 C 1617.97 1.44271 -1.83598 0
M  V30 17386 C 1618.95 1.5547 -0.690141 0
M  V30 17387 O 1620.14 1.69886 -0.940868 0
M  V30 17388 C 1617.27 2.8149 -2.03422 0
M  V30 17389 C 1616.22 2.85108 -3.19213 0
M  V30 17390 C 1615.55 4.25091 -3.24348 0
M  V30 17391 C 1616.85 2.51788 -4.57602 0
M  V30 17392 H 1618.54 1.1935 -2.74583 0
M  V30 17393 H 1616.09 0.572707 -1.32121 0
M  V30 17394 H 1618.04 3.57531 -2.23046 0
M  V30 17395 H 1616.76 3.07819 -1.09155 0
M  V30 17396 H 1615.42 2.1152 -2.99424 0
M  V30 17397 H 1615.07 4.4851 -2.277 0
M  V30 17398 H 1614.77 4.28426 -4.0215 0
M  V30 17399 H 1616.3 5.02992 -3.46167 0
M  V30 17400 H 1617.71 3.17542 -4.77326 0
M  V30 17401 H 1616.11 2.66426 -5.37715 0
M  V30 17402 H 1617.18 1.4701 -4.62078 0
M  V30 17403 N 1618.52 1.45038 0.616577 0
M  V30 17404 C 1619.47 1.53022 1.7278 0
M  V30 17405 C 1620.44 0.376778 1.6177 0
M  V30 17406 O 1621.62 0.589006 1.81481 0
M  V30 17407 C 1618.76 1.49432 3.11069 0
M  V30 17408 C 1617.87 2.7526 3.3295 0
M  V30 17409 C 1617.01 2.63403 4.61294 0
M  V30 17410 C 1616.05 3.84327 4.76402 0
M  V30 17411 N 1615.19 3.71058 5.96037 0
M  V30 17412 H 1620.03 2.47957 1.65292 0
M  V30 17413 H 1617.56 1.23046 0.806102 0
M  V30 17414 H 1619.52 1.45339 3.91066 0
M  V30 17415 H 1618.15 0.580542 3.17537 0
M  V30 17416 H 1617.2 2.89479 2.46792 0
M  V30 17417 H 1618.51 3.64978 3.39989 0
M  V30 17418 H 1617.67 2.57226 5.49472 0
M  V30 17419 H 1616.41 1.7127 4.56638 0
M  V30 17420 H 1615.41 3.90873 3.8665 0
M  V30 17421 H 1616.64 4.77515 4.82863 0
M  V30 17422 H 1614.58 2.81687 5.92443 0
M  V30 17423 H 1614.5 4.54403 6.04197 0
M  V30 17424 H 1615.77 3.68798 6.86738 0
M  V30 17425 N 1620 -0.858287 1.32179 0
M  V30 17426 C 1620.93 -1.97304 1.16636 0
M  V30 17427 C 1621.94 -1.62478 0.102311 0
M  V30 17428 O 1623.13 -1.75016 0.350926 0
M  V30 17429 C 1620.23 -3.30215 0.762337 0
M  V30 17430 C 1619.4 -3.93305 1.9139 0
M  V30 17431 C 1618.46 -5.04545 1.49402 0
M  V30 17432 O 1617.49 -5.24735 2.20548 0
M  V30 17433 N 1618.69 -5.79202 0.387984 0
M  V30 17434 H 1621.46 -2.11179 2.12658 0
M  V30 17435 H 1619.02 -1.03294 1.24668 0
M  V30 17436 H 1621.01 -4.02032 0.463922 0
M  V30 17437 H 1619.58 -3.12418 -0.10662 0
M  V30 17438 H 1618.8 -3.1432 2.37901 0
M  V30 17439 H 1620.09 -4.32192 2.68492 0
M  V30 17440 H 1619.49 -5.65331 -0.204252 0
M  V30 17441 H 1618.04 -6.51629 0.149158 0
M  V30 17442 N 1621.48 -1.1533 -1.07409 0
M  V30 17443 C 1622.41 -0.872476 -2.16587 0
M  V30 17444 C 1623.39 0.176683 -1.6918 0
M  V30 17445 O 1624.57 0.0311826 -1.94175 0
M  V30 17446 C 1621.7 -0.360342 -3.45426 0
M  V30 17447 C 1620.66 -1.34611 -4.06281 0
M  V30 17448 C 1619.98 -0.692848 -5.30192 0
M  V30 17449 C 1621.28 -2.71191 -4.46378 0
M  V30 17450 H 1622.98 -1.78546 -2.40336 0
M  V30 17451 H 1620.52 -0.859895 -1.15507 0
M  V30 17452 H 1622.47 -0.151429 -4.21128 0
M  V30 17453 H 1621.2 0.588109 -3.21261 0
M  V30 17454 H 1619.86 -1.54137 -3.32622 0
M  V30 17455 H 1619.51 0.261732 -5.02319 0
M  V30 17456 H 1619.21 -1.35071 -5.71865 0
M  V30 17457 H 1620.73 -0.493695 -6.08601 0
M  V30 17458 H 1622.14 -2.55513 -5.13212 0
M  V30 17459 H 1620.54 -3.33345 -4.99 0
M  V30 17460 H 1621.61 -3.273 -3.57775 0
M  V30 17461 N 1622.95 1.25748 -0.950004 0
M  V30 17462 C 1624.2 1.93622 -0.603186 0
M  V30 17463 C 1624.53 1.74271 0.856925 0
M  V30 17464 O 1623.81 1.08502 1.61423 0
M  V30 17465 C 1624.09 3.4715 -0.957024 0
M  V30 17466 C 1623.94 3.75747 -2.47253 0
M  V30 17467 C 1625.26 4.37488 -0.478754 0
M  V30 17468 H 1622.38 0.703206 -0.220612 0
M  V30 17469 H 1625.02 1.48453 -1.18582 0
M  V30 17470 H 1623.17 3.85753 -0.46122 0
M  V30 17471 H 1624.85 3.46808 -3.04174 0
M  V30 17472 H 1623.09 3.21516 -2.91222 0
M  V30 17473 H 1623.76 4.83097 -2.67061 0
M  V30 17474 H 1626.24 4.06162 -0.903987 0
M  V30 17475 H 1625.11 5.43682 -0.755073 0
M  V30 17476 H 1625.37 4.37712 0.621303 0
M  V30 17477 N 1624.43 0.718038 1.40292 0
M  V30 17478 C 1625.39 0.0757483 2.29075 0
M  V30 17479 C 1626.39 -0.684831 1.45488 0
M  V30 17480 O 1627.58 -0.516369 1.66371 0
M  V30 17481 C 1624.72 -0.902534 3.28736 0
M  V30 17482 H 1625.91 0.857729 2.87373 0
M  V30 17483 H 1623.46 0.482839 1.48655 0
M  V30 17484 H 1624.2 -1.71148 2.75461 0
M  V30 17485 H 1623.98 -0.360009 3.90444 0
M  V30 17486 H 1625.47 -1.34903 3.9521 0
M  V30 17487 N 1625.91 -1.50602 0.464402 0
M  V30 17488 C 1626.87 -2.26929 -0.32185 0
M  V30 17489 C 1627.87 -1.3144 -0.926289 0
M  V30 17490 O 1629.06 -1.54924 -0.796511 0
M  V30 17491 C 1626.2 -3.08155 -1.45785 0
M  V30 17492 H 1627.39 -2.97881 0.347436 0
M  V30 17493 H 1624.94 -1.54768 0.218278 0
M  V30 17494 H 1625.68 -2.41684 -2.16239 0
M  V30 17495 H 1625.46 -3.78321 -1.03031 0
M  V30 17496 H 1626.95 -3.65899 -2.01266 0
M  V30 17497 N 1627.39 -0.19675 -1.56367 0
M  V30 17498 C 1628.34 0.723461 -2.19168 0
M  V30 17499 C 1629.31 1.20856 -1.13943 0
M  V30 17500 O 1630.49 1.27215 -1.42201 0
M  V30 17501 C 1627.63 1.93669 -2.85633 0
M  V30 17502 C 1626.74 1.49281 -4.05388 0
M  V30 17503 C 1625.88 2.66167 -4.59705 0
M  V30 17504 C 1624.92 2.18393 -5.71814 0
M  V30 17505 N 1624.05 3.28462 -6.20529 0
M  V30 17506 H 1628.89 0.181169 -2.97449 0
M  V30 17507 H 1626.43 0.0776802 -1.46895 0
M  V30 17508 H 1628.39 2.64865 -3.22339 0
M  V30 17509 H 1627.02 2.45227 -2.09913 0
M  V30 17510 H 1626.07 0.676658 -3.74333 0
M  V30 17511 H 1627.38 1.10231 -4.86467 0
M  V30 17512 H 1626.54 3.45483 -4.98725 0
M  V30 17513 H 1625.28 3.08491 -3.77736 0
M  V30 17514 H 1624.28 1.37531 -5.32321 0
M  V30 17515 H 1625.51 1.77097 -6.55602 0
M  V30 17516 H 1623.45 3.70315 -5.41482 0
M  V30 17517 H 1623.37 2.93587 -6.96665 0
M  V30 17518 H 1624.64 4.07988 -6.64204 0
M  V30 17519 N 1628.87 1.57413 0.0768405 0
M  V30 17520 C 1629.8 2.06378 1.09226 0
M  V30 17521 C 1630.78 0.956269 1.40675 0
M  V30 17522 O 1631.96 1.22868 1.5039 0
M  V30 17523 C 1629.09 2.50349 2.40712 0
M  V30 17524 C 1628.05 3.64931 2.23628 0
M  V30 17525 C 1627.37 3.9494 3.60453 0
M  V30 17526 C 1628.67 4.95162 1.66169 0
M  V30 17527 H 1630.37 2.91463 0.684827 0
M  V30 17528 H 1627.91 1.40215 0.327974 0
M  V30 17529 H 1629.87 2.83216 3.12036 0
M  V30 17530 H 1628.59 1.62287 2.83426 0
M  V30 17531 H 1627.25 3.32339 1.54747 0
M  V30 17532 H 1626.9 3.04016 4.00728 0
M  V30 17533 H 1626.6 4.72091 3.49863 0
M  V30 17534 H 1628.12 4.30299 4.33215 0
M  V30 17535 H 1629.53 5.26292 2.27353 0
M  V30 17536 H 1627.93 5.76601 1.66289 0
M  V30 17537 H 1629 4.80885 0.62271 0
M  V30 17538 N 1630.34 -0.348112 1.53707 0
M  V30 17539 C 1631.29 -1.42729 1.81375 0
M  V30 17540 C 1632.26 -1.52461 0.659159 0
M  V30 17541 O 1633.45 -1.68072 0.903129 0
M  V30 17542 C 1630.59 -2.79443 2.02498 0
M  V30 17543 C 1629.7 -2.7854 3.30211 0
M  V30 17544 C 1628.83 -4.06942 3.41426 0
M  V30 17545 C 1627.87 -4.00248 4.63106 0
M  V30 17546 N 1627.01 -5.20332 4.7138 0
M  V30 17547 H 1631.85 -1.18436 2.73454 0
M  V30 17548 H 1629.39 -0.573809 1.35447 0
M  V30 17549 H 1631.35 -3.58888 2.12733 0
M  V30 17550 H 1629.98 -3.02099 1.13737 0
M  V30 17551 H 1629.03 -1.91227 3.28841 0
M  V30 17552 H 1630.34 -2.69471 4.19746 0
M  V30 17553 H 1629.49 -4.94808 3.51069 0
M  V30 17554 H 1628.23 -4.18786 2.49939 0
M  V30 17555 H 1627.24 -3.10767 4.53546 0
M  V30 17556 H 1628.46 -3.89991 5.55953 0
M  V30 17557 H 1626.41 -5.32729 3.828 0
M  V30 17558 H 1626.33 -5.13502 5.54844 0
M  V30 17559 H 1627.59 -6.09982 4.85326 0
M  V30 17560 N 1631.82 -1.45363 -0.608876 0
M  V30 17561 C 1632.75 -1.56778 -1.7304 0
M  V30 17562 C 1633.73 -0.419405 -1.64848 0
M  V30 17563 O 1634.92 -0.64238 -1.83268 0
M  V30 17564 C 1632.05 -1.5329 -3.1164 0
M  V30 17565 C 1631 -2.66832 -3.34641 0
M  V30 17566 C 1630.33 -2.48398 -4.735 0
M  V30 17567 C 1631.63 -4.0885 -3.25021 0
M  V30 17568 H 1633.32 -2.50656 -1.63743 0
M  V30 17569 H 1630.87 -1.20635 -0.786338 0
M  V30 17570 H 1632.82 -1.59873 -3.89895 0
M  V30 17571 H 1631.55 -0.559414 -3.21773 0
M  V30 17572 H 1630.2 -2.59675 -2.58775 0
M  V30 17573 H 1629.85 -1.49191 -4.80366 0
M  V30 17574 H 1629.55 -3.24537 -4.89846 0
M  V30 17575 H 1631.08 -2.56833 -5.53958 0
M  V30 17576 H 1632.49 -4.17257 -3.93153 0
M  V30 17577 H 1630.89 -4.85369 -3.52897 0
M  V30 17578 H 1631.96 -4.30849 -2.2248 0
M  V30 17579 N 1633.3 0.851265 -1.32632 0
M  V30 17580 C 1634.25 1.98152 -1.21813 0
M  V30 17581 C 1635.24 1.68959 -0.122182 0
M  V30 17582 O 1636.45 1.77724 -0.285332 0
M  V30 17583 H 1632.82 0.650275 -0.377686 0
M  V30 17584 H 1634.79 2.04405 -2.17397 0
M  V30 17585 C 1633.54 3.34141 -0.961521 0
M  V30 17586 H 1632.87 3.57136 -1.79704 0
M  V30 17587 H 1634.31 4.13763 -0.926077 0
M  V30 17588 C 1632.77 3.35223 0.335704 0
M  V30 17589 O 1633.3 3.78461 1.34647 0
M  V30 17590 N 1631.5 2.88376 0.358875 0
M  V30 17591 H 1631.05 2.53383 -0.464194 0
M  V30 17592 H 1631.01 2.89482 1.22668 0
M  V30 17593 N 1634.78 1.15898 1.06796 0
M  V30 17594 C 1635.69 0.87507 2.17669 0
M  V30 17595 C 1636.7 -0.150763 1.73346 0
M  V30 17596 O 1637.88 0.0246621 2.01385 0
M  V30 17597 C 1634.95 0.374555 3.44671 0
M  V30 17598 C 1634.01 1.46498 4.0353 0
M  V30 17599 C 1633.24 0.988256 5.2447 0
M  V30 17600 O 1633.46 -0.163992 5.70164 0
M  V30 17601 O 1632.4 1.7744 5.75151 0
M  V30 17602 H 1636.22 1.80208 2.44456 0
M  V30 17603 H 1633.81 0.93854 1.1624 0
M  V30 17604 H 1635.69 0.102161 4.21276 0
M  V30 17605 H 1634.36 -0.524513 3.19422 0
M  V30 17606 H 1633.27 1.79105 3.28439 0
M  V30 17607 H 1634.6 2.33917 4.33063 0
M  V30 17608 N 1636.26 -1.25243 0.956659 0
M  V30 17609 C 1637.17 -2.29529 0.48515 0
M  V30 17610 C 1638.18 -1.68121 -0.448494 0
M  V30 17611 O 1639.36 -1.98773 -0.324243 0
M  V30 17612 C 1636.42 -3.45952 -0.227611 0
M  V30 17613 C 1635.48 -4.22795 0.744495 0
M  V30 17614 C 1634.72 -5.3366 0.0656539 0
M  V30 17615 O 1634.94 -5.58722 -1.14829 0
M  V30 17616 O 1633.87 -5.97181 0.75222 0
M  V30 17617 H 1637.7 -2.71955 1.35181 0
M  V30 17618 H 1635.29 -1.30729 0.723203 0
M  V30 17619 H 1637.17 -4.16687 -0.628474 0
M  V30 17620 H 1635.84 -3.05524 -1.06942 0
M  V30 17621 H 1634.75 -3.5448 1.1956 0
M  V30 17622 H 1636.08 -4.67012 1.55438 0
M  V30 17623 N 1637.73 -0.725468 -1.3991 0
M  V30 17624 C 1638.67 -0.0397832 -2.29165 0
M  V30 17625 C 1639.68 0.713458 -1.46334 0
M  V30 17626 O 1640.87 0.559199 -1.69515 0
M  V30 17627 C 1637.97 0.967929 -3.24784 0
M  V30 17628 C 1637.14 0.278181 -4.36515 0
M  V30 17629 C 1636.2 1.19266 -5.12506 0
M  V30 17630 O 1635.23 0.673726 -5.65199 0
M  V30 17631 N 1636.43 2.5231 -5.228 0
M  V30 17632 H 1639.19 -0.806204 -2.88653 0
M  V30 17633 H 1636.75 -0.573904 -1.51387 0
M  V30 17634 H 1638.75 1.58209 -3.72494 0
M  V30 17635 H 1637.32 1.63563 -2.66394 0
M  V30 17636 H 1636.54 -0.516326 -3.90804 0
M  V30 17637 H 1637.82 -0.200203 -5.08406 0
M  V30 17638 H 1637.22 2.96957 -4.8149 0
M  V30 17639 H 1635.78 3.08846 -5.73984 0
M  V30 17640 N 1639.21 1.50354 -0.472382 0
M  V30 17641 C 1640.46 2.02633 0.0822846 0
M  V30 17642 C 1640.79 1.35358 1.39254 0
M  V30 17643 O 1640.07 0.479714 1.88491 0
M  V30 17644 C 1640.35 3.59126 0.264742 0
M  V30 17645 C 1640.2 4.3697 -1.06663 0
M  V30 17646 C 1641.52 4.28148 1.01869 0
M  V30 17647 H 1638.64 0.736451 0.0284304 0
M  V30 17648 H 1641.28 1.79661 -0.618224 0
M  V30 17649 H 1639.43 3.7883 0.86141 0
M  V30 17650 H 1641.1 4.28834 -1.69997 0
M  V30 17651 H 1639.35 4.0066 -1.66295 0
M  V30 17652 H 1640.02 5.44736 -0.892592 0
M  V30 17653 H 1642.49 4.12926 0.512931 0
M  V30 17654 H 1641.37 5.37453 1.11515 0
M  V30 17655 H 1641.63 3.91406 2.05557 0
M  V30 17656 N 1640.69 0.205039 1.56261 0
M  V30 17657 C 1641.6 -0.723548 2.23164 0
M  V30 17658 C 1642.62 -1.22683 1.23389 0
M  V30 17659 O 1643.79 -1.27191 1.56155 0
M  V30 17660 C 1640.86 -1.92178 2.88563 0
M  V30 17661 C 1639.92 -1.46209 4.03635 0
M  V30 17662 C 1639.15 -2.60321 4.65906 0
M  V30 17663 O 1639.38 -3.78051 4.27122 0
M  V30 17664 O 1638.31 -2.32465 5.55197 0
M  V30 17665 H 1642.14 -0.183715 3.03144 0
M  V30 17666 H 1639.72 -0.0246933 1.4938 0
M  V30 17667 H 1641.6 -2.62188 3.29902 0
M  V30 17668 H 1640.28 -2.45003 2.11555 0
M  V30 17669 H 1639.18 -0.730492 3.66899 0
M  V30 17670 H 1640.52 -0.980402 4.82337 0
M  V30 17671 N 1642.17 -1.57451 -0.0684915 0
M  V30 17672 C 1643.45 -1.78483 -0.800209 0
M  V30 17673 C 1643.83 -0.793438 -1.95621 0
M  V30 17674 O 1643.17 0.172756 -2.27846 0
M  V30 17675 C 1643.38 -3.25069 -1.27008 0
M  V30 17676 C 1644.73 -3.8899 -1.70212 0
M  V30 17677 O 1645.76 -3.2898 -1.36566 0
M  V30 17678 O 1644.62 -4.94569 -2.32515 0
M  V30 17679 H 1641.71 -0.732598 -0.383704 0
M  V30 17680 H 1644.26 -1.69631 -0.0483117 0
M  V30 17681 H 1643.03 -3.88784 -0.443067 0
M  V30 17682 H 1642.65 -3.38657 -2.08319 0
M  V30 17683 N 1643.65 0.339955 -1.5389 0
M  V30 17684 C 1644.88 1.09816 -1.74997 0
M  V30 17685 C 1645.29 1.82725 -0.490746 0
M  V30 17686 O 1644.63 1.75352 0.547467 0
M  V30 17687 C 1644.69 2.15388 -2.87834 0
M  V30 17688 C 1644.35 1.62022 -4.27315 0
M  V30 17689 C 1645.35 1.07064 -5.08757 0
M  V30 17690 C 1643.04 1.6676 -4.7381 0
M  V30 17691 C 1645.03 0.575529 -6.34796 0
M  V30 17692 C 1642.72 1.16861 -5.99822 0
M  V30 17693 C 1643.72 0.623505 -6.80148 0
M  V30 17694 O 1643.4 0.131966 -8.03792 0
M  V30 17695 H 1643.14 0.333199 -0.588179 0
M  V30 17696 H 1645.69 0.39682 -2.0153 0
M  V30 17697 H 1643.92 2.89091 -2.56834 0
M  V30 17698 H 1645.61 2.76801 -2.96877 0
M  V30 17699 H 1646.37 1.02723 -4.73997 0
M  V30 17700 H 1642.25 2.08129 -4.11343 0
M  V30 17701 H 1645.8 0.149389 -6.9744 0
M  V30 17702 H 1641.69 1.20904 -6.34076 0
M  V30 17703 H 1642.46 0.24892 -8.18121 0
M  V30 17704 N 1645.13 1.45684 0.601159 0
M  V30 17705 C 1646.37 1.50036 1.35998 0
M  V30 17706 C 1646.7 0.144645 1.93961 0
M  V30 17707 O 1645.96 -0.857502 1.75913 0
M  V30 17708 C 1646.25 2.53235 2.52204 0
M  V30 17709 C 1645.92 3.97767 2.12348 0
M  V30 17710 C 1644.58 4.37121 2.01193 0
M  V30 17711 C 1646.93 4.88636 1.8134 0
M  V30 17712 C 1644.26 5.65231 1.5726 0
M  V30 17713 C 1646.61 6.17164 1.38892 0
M  V30 17714 C 1645.28 6.55442 1.26299 0
M  V30 17715 H 1644.55 0.54902 0.497652 0
M  V30 17716 H 1647.2 1.79065 0.678833 0
M  V30 17717 H 1645.5 2.17799 3.25685 0
M  V30 17718 H 1647.2 2.53837 3.10431 0
M  V30 17719 H 1643.79 3.6665 2.21959 0
M  V30 17720 H 1647.97 4.58964 1.88853 0
M  V30 17721 H 1643.23 5.93678 1.46139 0
M  V30 17722 H 1647.4 6.87015 1.13946 0
M  V30 17723 H 1645.03 7.54609 0.920316 0
M  V30 17724 N 1646.6 -0.84422 1.33082 0
M  V30 17725 C 1647.85 -1.59912 1.24235 0
M  V30 17726 C 1648.18 -1.93538 -0.193223 0
M  V30 17727 O 1647.43 -1.58418 -1.14901 0
M  V30 17728 C 1647.73 -2.92225 2.05765 0
M  V30 17729 C 1647.4 -2.77985 3.55014 0
M  V30 17730 C 1646.06 -2.73809 3.95705 0
M  V30 17731 C 1648.41 -2.63171 4.49878 0
M  V30 17732 C 1645.74 -2.5271 5.29485 0
M  V30 17733 C 1648.09 -2.43607 5.83814 0
M  V30 17734 C 1646.76 -2.37829 6.23693 0
M  V30 17735 H 1646.03 -0.58516 0.454608 0
M  V30 17736 H 1648.67 -0.978493 1.64614 0
M  V30 17737 H 1646.98 -3.58465 1.58146 0
M  V30 17738 H 1648.68 -3.49678 1.96281 0
M  V30 17739 H 1645.27 -2.82065 3.22703 0
M  V30 17740 H 1649.45 -2.65435 4.19354 0
M  V30 17741 H 1644.71 -2.4668 5.59427 0
M  V30 17742 H 1648.88 -2.31126 6.56927 0
M  V30 17743 H 1646.51 -2.21241 7.27294 0
M  V30 17744 N 1648.08 -1.16463 -1.0618 0
M  V30 17745 C 1649.01 -0.829995 -2.13644 0
M  V30 17746 C 1650.03 0.16326 -1.61979 0
M  V30 17747 O 1651.22 -0.0616575 -1.78393 0
M  V30 17748 C 1648.32 -0.215222 -3.38216 0
M  V30 17749 C 1647.49 -1.24886 -4.19192 0
M  V30 17750 C 1646.55 -0.653683 -5.22124 0
M  V30 17751 O 1645.57 -1.32285 -5.53615 0
M  V30 17752 N 1646.78 0.559031 -5.77802 0
M  V30 17753 H 1649.54 -1.75487 -2.42949 0
M  V30 17754 H 1647.1 -1.06212 -1.22191 0
M  V30 17755 H 1649.09 0.196005 -4.04225 0
M  V30 17756 H 1647.66 0.613229 -3.06526 0
M  V30 17757 H 1646.88 -1.83622 -3.48822 0
M  V30 17758 H 1648.17 -1.94639 -4.70099 0
M  V30 17759 H 1647.57 1.12083 -5.54485 0
M  V30 17760 H 1646.13 0.912453 -6.45382 0
M  V30 17761 N 1649.56 1.24734 -0.963288 0
M  V30 17762 C 1650.49 2.27892 -0.508667 0
M  V30 17763 C 1651.47 1.64055 0.449438 0
M  V30 17764 O 1652.66 1.91083 0.346519 0
M  V30 17765 C 1649.79 3.46688 0.206157 0
M  V30 17766 C 1648.74 4.22762 -0.667534 0
M  V30 17767 C 1648.07 5.34402 0.178529 0
M  V30 17768 C 1649.37 4.84535 -1.94995 0
M  V30 17769 H 1651.06 2.66171 -1.37088 0
M  V30 17770 H 1648.61 1.27952 -0.660622 0
M  V30 17771 H 1650.56 4.17985 0.535391 0
M  V30 17772 H 1649.28 3.07422 1.10269 0
M  V30 17773 H 1647.94 3.53259 -0.979976 0
M  V30 17774 H 1647.59 4.91377 1.07508 0
M  V30 17775 H 1647.29 5.86218 -0.402808 0
M  V30 17776 H 1648.81 6.08529 0.502533 0
M  V30 17777 H 1650.23 5.4793 -1.68658 0
M  V30 17778 H 1648.62 5.46564 -2.47765 0
M  V30 17779 H 1649.69 4.06236 -2.64765 0
M  V30 17780 N 1651.04 0.732878 1.39523 0
M  V30 17781 C 1651.98 0.0915149 2.30618 0
M  V30 17782 C 1652.95 -0.731943 1.49103 0
M  V30 17783 O 1654.14 -0.692343 1.77796 0
M  V30 17784 C 1651.28 -0.811387 3.35426 0
M  V30 17785 C 1650.39 0.0244578 4.31993 0
M  V30 17786 C 1649.53 -0.879521 5.23868 0
M  V30 17787 C 1648.57 -0.0387974 6.12088 0
M  V30 17788 N 1647.7 -0.898593 6.96326 0
M  V30 17789 H 1652.54 0.87399 2.84895 0
M  V30 17790 H 1650.08 0.442659 1.40282 0
M  V30 17791 H 1652.04 -1.3493 3.94778 0
M  V30 17792 H 1650.67 -1.55986 2.8261 0
M  V30 17793 H 1649.72 0.679762 3.74277 0
M  V30 17794 H 1651.03 0.674606 4.94217 0
M  V30 17795 H 1650.19 -1.48535 5.88237 0
M  V30 17796 H 1648.93 -1.56345 4.6196 0
M  V30 17797 H 1647.93 0.579847 5.46734 0
M  V30 17798 H 1649.16 0.641887 6.7606 0
M  V30 17799 H 1647.1 -1.56786 6.36988 0
M  V30 17800 H 1647.02 -0.304876 7.55385 0
M  V30 17801 H 1648.29 -1.49005 7.65126 0
M  V30 17802 N 1652.52 -1.50101 0.480349 0
M  V30 17803 C 1653.74 -2.07278 -0.0710872 0
M  V30 17804 C 1654.17 -1.34082 -1.31923 0
M  V30 17805 O 1653.52 -0.391251 -1.77028 0
M  V30 17806 C 1653.57 -3.59099 -0.328706 0
M  V30 17807 O 1652.68 -3.8764 -1.40745 0
M  V30 17808 H 1652.02 -0.66378 0.0170748 0
M  V30 17809 H 1654.55 -1.93178 0.674049 0
M  V30 17810 H 1654.56 -4.04049 -0.566435 0
M  V30 17811 H 1653.23 -4.11789 0.583316 0
M  V30 17812 H 1651.81 -3.54519 -1.15631 0
M  V30 17813 N 1653.99 -0.213323 -1.5615 0
M  V30 17814 C 1654.93 0.732346 -2.17185 0
M  V30 17815 C 1655.94 1.16357 -1.13864 0
M  V30 17816 O 1657.13 1.09614 -1.40879 0
M  V30 17817 C 1654.23 2.0027 -2.73395 0
M  V30 17818 C 1653.4 1.72836 -4.01804 0
M  V30 17819 C 1652.46 2.84497 -4.4266 0
M  V30 17820 O 1651.49 2.5332 -5.09723 0
M  V30 17821 N 1652.69 4.13268 -4.07663 0
M  V30 17822 H 1655.45 0.210294 -2.98961 0
M  V30 17823 H 1653.01 -0.0320124 -1.61868 0
M  V30 17824 H 1655.01 2.74145 -2.97702 0
M  V30 17825 H 1653.58 2.43546 -1.9597 0
M  V30 17826 H 1652.8 0.826474 -3.85439 0
M  V30 17827 H 1654.08 1.51928 -4.85588 0
M  V30 17828 H 1653.48 4.41444 -3.53756 0
M  V30 17829 H 1652.04 4.83713 -4.36881 0
M  V30 17830 N 1655.47 1.57485 0.0601405 0
M  V30 17831 C 1656.42 2.04487 1.07023 0
M  V30 17832 C 1657.39 0.927738 1.37776 0
M  V30 17833 O 1658.57 1.19621 1.48645 0
M  V30 17834 C 1655.71 2.50338 2.37539 0
M  V30 17835 C 1654.83 3.75717 2.13215 0
M  V30 17836 C 1653.96 4.10304 3.37378 0
M  V30 17837 C 1653 5.2869 3.0847 0
M  V30 17838 N 1652.14 5.58858 4.24996 0
M  V30 17839 H 1656.98 2.90544 0.662444 0
M  V30 17840 H 1654.52 1.43676 0.315515 0
M  V30 17841 H 1656.47 2.74978 3.13756 0
M  V30 17842 H 1655.1 1.67242 2.76098 0
M  V30 17843 H 1654.16 3.58348 1.27636 0
M  V30 17844 H 1655.47 4.62068 1.87869 0
M  V30 17845 H 1654.62 4.35907 4.21983 0
M  V30 17846 H 1653.36 3.22544 3.6581 0
M  V30 17847 H 1652.37 5.02871 2.22262 0
M  V30 17848 H 1653.59 6.18077 2.81349 0
M  V30 17849 H 1651.54 4.74058 4.53437 0
M  V30 17850 H 1651.45 6.39652 4.02965 0
M  V30 17851 H 1652.72 5.89019 5.10565 0
M  V30 17852 N 1656.95 -0.331789 1.54068 0
M  V30 17853 C 1658.37 -0.675628 1.44594 0
M  V30 17854 C 1658.57 -1.91976 0.612166 0
M  V30 17855 O 1657.62 -2.5227 0.107742 0
M  V30 17856 C 1658.94 -0.857303 2.8822 0
M  V30 17857 C 1660.48 -0.955171 2.9807 0
M  V30 17858 C 1660.96 -1.16908 4.42828 0
M  V30 17859 N 1662.45 -1.23601 4.46405 0
M  V30 17860 C 1663.18 -1.41924 5.55558 0
M  V30 17861 N 1662.68 -1.57345 6.74696 0
M  V30 17862 N 1664.47 -1.44566 5.43191 0
M  V30 17863 H 1656.62 0.486058 2.06764 0
M  V30 17864 H 1658.89 0.155605 0.935142 0
M  V30 17865 H 1658.59 -0.0144659 3.51697 0
M  V30 17866 H 1658.47 -1.75558 3.33855 0
M  V30 17867 H 1660.85 -1.78852 2.34725 0
M  V30 17868 H 1660.94 -0.0335425 2.55778 0
M  V30 17869 H 1660.58 -0.340612 5.06757 0
M  V30 17870 H 1660.51 -2.10445 4.82722 0
M  V30 17871 H 1663 -1.13161 3.60559 0
M  V30 17872 H 1663.31 -1.70995 7.53645 0
M  V30 17873 H 1661.66 -1.54458 6.77619 0
M  V30 17874 H 1664.85 -1.3211 4.49071 0
M  V30 17875 H 1665.02 -1.58505 6.28315 0
M  V30 17876 N 1658.43 -1.46001 -0.593424 0
M  V30 17877 C 1659.66 -1.54083 -1.3763 0
M  V30 17878 C 1660.07 -0.177096 -1.88369 0
M  V30 17879 O 1659.41 0.834016 -1.63676 0
M  V30 17880 C 1659.47 -2.47599 -2.60643 0
M  V30 17881 C 1659.14 -3.94058 -2.31445 0
M  V30 17882 C 1660.13 -4.83569 -1.90936 0
M  V30 17883 C 1657.82 -4.39099 -2.4392 0
M  V30 17884 C 1659.81 -6.16131 -1.63282 0
M  V30 17885 C 1657.5 -5.71699 -2.15879 0
M  V30 17886 C 1658.5 -6.60034 -1.75624 0
M  V30 17887 O 1658.18 -7.90174 -1.4792 0
M  V30 17888 H 1657.92 -0.52391 -0.427193 0
M  V30 17889 H 1660.47 -1.92011 -0.729444 0
M  V30 17890 H 1658.7 -2.04669 -3.28097 0
M  V30 17891 H 1660.39 -2.46207 -3.22703 0
M  V30 17892 H 1661.16 -4.50031 -1.80822 0
M  V30 17893 H 1657.03 -3.70575 -2.74218 0
M  V30 17894 H 1660.58 -6.85039 -1.31787 0
M  V30 17895 H 1656.48 -6.04788 -2.25614 0
M  V30 17896 H 1657.24 -8.02338 -1.61854 0
M  V30 17897 N 1659.91 0.83715 -1.33527 0
M  V30 17898 C 1660.86 1.93561 -1.20491 0
M  V30 17899 C 1661.84 1.60541 -0.107395 0
M  V30 17900 O 1663.03 1.73788 -0.335663 0
M  V30 17901 C 1660.16 3.2995 -0.948055 0
M  V30 17902 C 1659.25 3.69134 -2.08809 0
M  V30 17903 N 1659.64 3.79998 -3.33819 0
M  V30 17904 C 1657.94 3.98885 -1.99516 0
M  V30 17905 C 1658.64 4.14031 -4.08599 0
M  V30 17906 N 1657.61 4.26492 -3.37055 0
M  V30 17907 H 1661.42 2.00119 -2.15243 0
M  V30 17908 H 1658.93 1.02997 -1.2556 0
M  V30 17909 H 1660.93 4.0844 -0.835589 0
M  V30 17910 H 1659.59 3.24699 -0.00907808 0
M  V30 17911 H 1660.6 3.6386 -3.68546 0
M  V30 17912 H 1657.27 4.01836 -1.13289 0
M  V30 17913 H 1658.66 4.29759 -5.16485 0
M  V30 17914 N 1661.38 1.17024 1.05561 0
M  V30 17915 C 1662.29 0.898107 2.16728 0
M  V30 17916 C 1663.31 -0.132369 1.73496 0
M  V30 17917 O 1664.49 0.0460203 2.01347 0
M  V30 17918 C 1661.55 0.411091 3.44254 0
M  V30 17919 C 1660.61 1.5077 4.01954 0
M  V30 17920 C 1659.85 1.04383 5.23393 0
M  V30 17921 O 1660.07 -0.10351 5.70306 0
M  V30 17922 O 1659 1.8353 5.73237 0
M  V30 17923 H 1662.83 1.82791 2.42531 0
M  V30 17924 H 1660.41 0.950816 1.15238 0
M  V30 17925 H 1662.3 0.146837 4.21144 0
M  V30 17926 H 1660.97 -0.490605 3.19961 0
M  V30 17927 H 1659.88 1.82579 3.26521 0
M  V30 17928 H 1661.21 2.38497 4.30558 0
M  V30 17929 N 1662.86 -1.24221 0.969889 0
M  V30 17930 C 1664.14 -1.87715 0.549772 0
M  V30 17931 C 1664.52 -1.87333 -0.973114 0
M  V30 17932 O 1663.87 -1.3475 -1.84539 0
M  V30 17933 C 1664.08 -3.29724 1.14381 0
M  V30 17934 C 1665.43 -4.06393 1.23005 0
M  V30 17935 O 1666.45 -3.38904 1.09648 0
M  V30 17936 O 1665.31 -5.27149 1.4414 0
M  V30 17937 H 1662.4 -0.806356 0.183629 0
M  V30 17938 H 1664.95 -1.32177 1.0643 0
M  V30 17939 H 1663.72 -3.24513 2.18649 0
M  V30 17940 H 1663.34 -3.92839 0.613456 0
M  V30 17941 N 1664.34 -0.740267 -1.39132 0
M  V30 17942 C 1665.59 -0.287379 -1.99642 0
M  V30 17943 C 1665.9 1.13337 -1.59418 0
M  V30 17944 O 1667.11 1.68605 -2.12802 0
M  V30 17945 C 1665.56 -0.462859 -3.56911 0
M  V30 17946 C 1665.17 -1.89184 -4.06095 0
M  V30 17947 C 1666.92 -0.0720122 -4.24439 0
M  V30 17948 C 1664.82 -2.01659 -5.55957 0
M  V30 17949 H 1663.75 -0.103696 -0.746835 0
M  V30 17950 H 1666.4 -0.914902 -1.59065 0
M  V30 17951 H 1664.79 0.233644 -3.9531 0
M  V30 17952 H 1665.96 -2.62072 -3.79018 0
M  V30 17953 H 1664.28 -2.23638 -3.51248 0
M  V30 17954 H 1666.87 -0.144163 -5.34506 0
M  V30 17955 H 1667.22 0.973516 -4.04757 0
M  V30 17956 H 1667.75 -0.719868 -3.91232 0
M  V30 17957 H 1664.49 -3.04419 -5.80525 0
M  V30 17958 H 1664.01 -1.33214 -5.8482 0
M  V30 17959 H 1665.69 -1.80023 -6.2145 0
M  V30 17960 N 1665.82 1.49844 -0.488302 0
M  V30 17961 C 1667.07 2.02409 0.0606981 0
M  V30 17962 C 1667.39 1.36901 1.38161 0
M  V30 17963 O 1666.65 0.48951 1.89479 0
M  V30 17964 C 1666.95 3.56342 0.274851 0
M  V30 17965 C 1666.61 4.4042 -0.966481 0
M  V30 17966 C 1665.28 4.63116 -1.30678 0
M  V30 17967 C 1667.63 4.89418 -1.79218 0
M  V30 17968 C 1664.96 5.32055 -2.47253 0
M  V30 17969 C 1667.31 5.59639 -2.94935 0
M  V30 17970 C 1665.97 5.80584 -3.2936 0
M  V30 17971 H 1665.24 0.740667 0.022211 0
M  V30 17972 H 1667.89 1.80279 -0.645882 0
M  V30 17973 H 1666.19 3.7708 1.06384 0
M  V30 17974 H 1667.89 3.94594 0.71388 0
M  V30 17975 H 1664.48 4.22987 -0.691388 0
M  V30 17976 H 1668.66 4.71723 -1.54244 0
M  V30 17977 H 1663.92 5.46477 -2.74177 0
M  V30 17978 H 1668.09 5.96583 -3.59251 0
M  V30 17979 H 1665.72 6.33779 -4.19795 0
M  V30 17980 N 1667.3 0.221601 1.56034 0
M  V30 17981 C 1668.54 -0.409277 1.97912 0
M  V30 17982 C 1668.87 -1.60291 1.11049 0
M  V30 17983 O 1668.14 -1.95 0.187529 0
M  V30 17984 H 1666.72 -0.154201 0.730911 0
M  V30 17985 H 1669.38 0.314508 1.92346 0
M  V30 17986 H 1668.47 -0.73557 3.03308 0
M  V30 17987 N 1668.77 -1.57515 -0.0517878 0
M  V30 17988 C 1669.74 -2.04049 -1.04387 0
M  V30 17989 C 1670.74 -0.940745 -1.30409 0
M  V30 17990 O 1671.93 -1.20505 -1.25794 0
M  V30 17991 C 1669.06 -2.43816 -2.38257 0
M  V30 17992 H 1670.25 -2.9294 -0.642367 0
M  V30 17993 H 1667.81 -1.53432 -0.29805 0
M  V30 17994 H 1668.54 -1.58013 -2.832 0
M  V30 17995 H 1668.33 -3.24086 -2.20705 0
M  V30 17996 H 1669.82 -2.80325 -3.09528 0
M  V30 17997 N 1670.25 0.323614 -1.54242 0
M  V30 17998 C 1671.5 1.06314 -1.727 0
M  V30 17999 C 1671.83 1.87674 -0.499225 0
M  V30 18000 O 1671.11 1.87862 0.503805 0
M  V30 18001 C 1671.39 1.9879 -3.00258 0
M  V30 18002 C 1671.24 1.2076 -4.33286 0
M  V30 18003 C 1672.56 2.98314 -3.23569 0
M  V30 18004 H 1669.68 0.385101 -0.628384 0
M  V30 18005 H 1672.32 0.339801 -1.86937 0
M  V30 18006 H 1670.47 2.60468 -2.88251 0
M  V30 18007 H 1672.15 0.615425 -4.57176 0
M  V30 18008 H 1670.39 0.509878 -4.30793 0
M  V30 18009 H 1671.06 1.88662 -5.18759 0
M  V30 18010 H 1673.54 2.46757 -3.35037 0
M  V30 18011 H 1672.41 3.60204 -4.14179 0
M  V30 18012 H 1672.67 3.7077 -2.40795 0
M  V30 18013 N 1671.73 1.46313 0.585673 0
M  V30 18014 C 1672.98 1.5147 1.34399 0
M  V30 18015 C 1673.31 0.165209 1.93797 0
M  V30 18016 O 1672.56 -0.838796 1.76813 0
M  V30 18017 C 1672.86 2.55895 2.49504 0
M  V30 18018 C 1672.53 3.99997 2.08118 0
M  V30 18019 C 1671.19 4.3923 1.96545 0
M  V30 18020 C 1673.54 4.90532 1.76147 0
M  V30 18021 C 1670.87 5.66867 1.51256 0
M  V30 18022 C 1673.22 6.18603 1.32338 0
M  V30 18023 C 1671.88 6.56745 1.1934 0
M  V30 18024 H 1671.15 0.554268 0.491801 0
M  V30 18025 H 1673.8 1.79774 0.659803 0
M  V30 18026 H 1672.11 2.21241 3.23357 0
M  V30 18027 H 1673.8 2.57116 3.07722 0
M  V30 18028 H 1670.39 3.68983 2.18058 0
M  V30 18029 H 1674.58 4.60942 1.83974 0
M  V30 18030 H 1669.83 5.95194 1.39834 0
M  V30 18031 H 1674.01 6.88185 1.06653 0
M  V30 18032 H 1671.63 7.55542 0.840228 0
M  V30 18033 N 1673.21 -0.830057 1.33969 0
M  V30 18034 C 1674.62 -1.40227 1.23261 0
M  V30 18035 C 1674.97 -1.95664 -0.144862 0
M  V30 18036 O 1674.1 -1.89503 -1.04488 0
M  V30 18037 C 1674.69 -2.54913 2.2317 0
M  V30 18038 C 1673.25 -3.08062 2.16274 0
M  V30 18039 C 1672.4 -1.809 2.10168 0
M  V30 18040 H 1675.35 -0.635062 1.4544 0
M  V30 18041 H 1675.37 -3.32801 1.84455 0
M  V30 18042 H 1674.88 -2.14534 3.23414 0
M  V30 18043 H 1672.98 -3.52964 1.19362 0
M  V30 18044 H 1673.1 -3.67637 3.07213 0
M  V30 18045 H 1671.46 -2.01508 1.55778 0
M  V30 18046 H 1672.24 -1.42705 3.12234 0
M  V30 18047 N 1674.69 -1.17582 -1.04939 0
M  V30 18048 C 1675.92 -0.988962 -1.81392 0
M  V30 18049 C 1676.33 0.46597 -1.83372 0
M  V30 18050 O 1675.67 1.33538 -1.26148 0
M  V30 18051 C 1675.73 -1.45656 -3.28671 0
M  V30 18052 C 1675.39 -2.93412 -3.50369 0
M  V30 18053 C 1676.39 -3.91329 -3.42283 0
M  V30 18054 C 1674.08 -3.31645 -3.77249 0
M  V30 18055 C 1676.07 -5.25478 -3.60766 0
M  V30 18056 C 1673.76 -4.65959 -3.95381 0
M  V30 18057 C 1674.76 -5.62684 -3.87138 0
M  V30 18058 O 1674.44 -6.94567 -4.04761 0
M  V30 18059 H 1674.18 -0.349962 -0.578362 0
M  V30 18060 H 1676.73 -1.5635 -1.33206 0
M  V30 18061 H 1674.96 -0.825602 -3.77784 0
M  V30 18062 H 1676.65 -1.23497 -3.86657 0
M  V30 18063 H 1677.41 -3.63138 -3.2149 0
M  V30 18064 H 1673.29 -2.56925 -3.82767 0
M  V30 18065 H 1676.84 -6.00961 -3.54248 0
M  V30 18066 H 1672.73 -4.93855 -4.15665 0
M  V30 18067 H 1673.5 -7.01343 -4.21972 0
M  V30 18068 N 1676.17 1.23705 -0.976463 0
M  V30 18069 C 1677.08 2.28728 -0.521605 0
M  V30 18070 C 1678.09 1.68813 0.421691 0
M  V30 18071 O 1679.27 1.99263 0.292579 0
M  V30 18072 C 1676.33 3.4627 0.172545 0
M  V30 18073 C 1675.39 4.21557 -0.811664 0
M  V30 18074 C 1674.63 5.33488 -0.150546 0
M  V30 18075 O 1674.85 5.60478 1.05926 0
M  V30 18076 O 1673.78 5.95909 -0.847132 0
M  V30 18077 H 1677.61 2.6977 -1.39491 0
M  V30 18078 H 1675.19 1.29562 -0.743909 0
M  V30 18079 H 1677.08 4.17634 0.562103 0
M  V30 18080 H 1675.75 3.07187 1.02067 0
M  V30 18081 H 1674.66 3.52533 -1.25185 0
M  V30 18082 H 1675.99 4.6448 -1.62848 0
M  V30 18083 N 1677.64 0.747635 1.38738 0
M  V30 18084 C 1678.61 0.124321 2.28863 0
M  V30 18085 C 1679.61 -0.653816 1.46908 0
M  V30 18086 O 1680.8 -0.480963 1.67429 0
M  V30 18087 C 1677.93 -0.832601 3.30576 0
M  V30 18088 H 1679.12 0.918492 2.85489 0
M  V30 18089 H 1676.67 0.514262 1.47598 0
M  V30 18090 H 1677.41 -1.65267 2.79029 0
M  V30 18091 H 1677.19 -0.277109 3.9112 0
M  V30 18092 H 1678.68 -1.2649 3.97982 0
M  V30 18093 N 1679.12 -1.49583 0.496242 0
M  V30 18094 C 1680.07 -2.29037 -0.284716 0
M  V30 18095 C 1681.04 -1.35217 -0.964661 0
M  V30 18096 O 1682.22 -1.64171 -0.972244 0
M  V30 18097 C 1679.36 -3.17767 -1.34603 0
M  V30 18098 C 1678.48 -4.26641 -0.67834 0
M  V30 18099 C 1677.61 -5.02594 -1.71969 0
M  V30 18100 C 1676.65 -6.0331 -1.03361 0
M  V30 18101 N 1675.79 -6.72446 -2.01894 0
M  V30 18102 H 1680.63 -2.95316 0.399084 0
M  V30 18103 H 1678.16 -1.45613 0.208653 0
M  V30 18104 H 1680.12 -3.67583 -1.97329 0
M  V30 18105 H 1678.75 -2.53483 -1.99866 0
M  V30 18106 H 1677.8 -3.80349 0.0620953 0
M  V30 18107 H 1679.12 -4.98609 -0.138028 0
M  V30 18108 H 1678.27 -5.56254 -2.42212 0
M  V30 18109 H 1677.01 -4.30388 -2.29385 0
M  V30 18110 H 1676.01 -5.48886 -0.316925 0
M  V30 18111 H 1677.24 -6.77499 -0.466009 0
M  V30 18112 H 1675.19 -6.03015 -2.58281 0
M  V30 18113 H 1675.1 -7.40373 -1.52916 0
M  V30 18114 H 1676.37 -7.30712 -2.7144 0
M  V30 18115 N 1680.6 -0.229873 -1.55915 0
M  V30 18116 C 1681.55 0.676809 -2.20653 0
M  V30 18117 C 1682.52 1.18412 -1.16481 0
M  V30 18118 O 1683.7 1.2417 -1.44867 0
M  V30 18119 C 1680.84 1.87567 -2.89677 0
M  V30 18120 C 1679.95 1.40648 -4.08463 0
M  V30 18121 C 1679.09 2.56356 -4.65247 0
M  V30 18122 C 1678.13 2.06215 -5.76318 0
M  V30 18123 N 1677.27 3.15226 -6.27357 0
M  V30 18124 H 1682.11 0.118035 -2.97766 0
M  V30 18125 H 1679.64 0.0465042 -1.47026 0
M  V30 18126 H 1681.6 2.57968 -3.27884 0
M  V30 18127 H 1680.23 2.40719 -2.15067 0
M  V30 18128 H 1679.28 0.597104 -3.75684 0
M  V30 18129 H 1680.59 0.998877 -4.88696 0
M  V30 18130 H 1679.75 3.34827 -5.05941 0
M  V30 18131 H 1678.49 3.0041 -3.84194 0
M  V30 18132 H 1677.49 1.26209 -5.35118 0
M  V30 18133 H 1678.72 1.63151 -6.59211 0
M  V30 18134 H 1676.66 3.58746 -5.49215 0
M  V30 18135 H 1676.58 2.78744 -7.02736 0
M  V30 18136 H 1677.85 3.93807 -6.72708 0
M  V30 18137 N 1682.08 1.5754 0.0434337 0
M  V30 18138 C 1683.35 1.79733 0.771713 0
M  V30 18139 C 1683.73 0.82446 1.94334 0
M  V30 18140 O 1683.08 -0.136485 2.28092 0
M  V30 18141 C 1683.29 3.27049 1.2182 0
M  V30 18142 C 1684.64 3.91648 1.64002 0
M  V30 18143 O 1685.66 3.31111 1.31315 0
M  V30 18144 O 1684.52 4.98206 2.24618 0
M  V30 18145 H 1681.62 0.73861 0.372001 0
M  V30 18146 H 1684.16 1.69687 0.0213187 0
M  V30 18147 H 1682.94 3.89439 0.381158 0
M  V30 18148 H 1682.56 3.41929 2.02905 0
M  V30 18149 N 1683.56 -0.31543 1.54411 0
M  V30 18150 C 1684.97 -0.660254 1.45302 0
M  V30 18151 C 1685.17 -1.91316 0.632493 0
M  V30 18152 O 1684.23 -2.52142 0.134493 0
M  V30 18153 C 1685.54 -0.826685 2.89113 0
M  V30 18154 C 1687.09 -0.923503 2.99066 0
M  V30 18155 C 1687.56 -1.12204 4.44043 0
M  V30 18156 N 1689.05 -1.18859 4.47691 0
M  V30 18157 C 1689.79 -1.36024 5.57032 0
M  V30 18158 N 1689.29 -1.5018 6.76327 0
M  V30 18159 N 1691.08 -1.38797 5.44694 0
M  V30 18160 H 1683.23 0.507961 2.06237 0
M  V30 18161 H 1685.49 0.165515 0.933439 0
M  V30 18162 H 1685.2 0.0228371 3.51693 0
M  V30 18163 H 1685.07 -1.72007 3.35698 0
M  V30 18164 H 1687.46 -1.76352 2.36609 0
M  V30 18165 H 1687.54 -0.00641189 2.55799 0
M  V30 18166 H 1687.18 -0.286844 5.07089 0
M  V30 18167 H 1687.11 -2.05313 4.84927 0
M  V30 18168 H 1689.61 -1.0933 3.61739 0
M  V30 18169 H 1689.92 -1.62992 7.55416 0
M  V30 18170 H 1688.26 -1.47262 6.79219 0
M  V30 18171 H 1691.45 -1.27339 4.50447 0
M  V30 18172 H 1691.63 -1.51832 6.29961 0
M  V30 18173 N 1685.03 -1.46622 -0.577906 0
M  V30 18174 C 1686.28 -1.52406 -1.33792 0
M  V30 18175 C 1686.61 -0.177147 -1.9339 0
M  V30 18176 O 1685.89 0.81197 -1.76741 0
M  V30 18177 C 1686.17 -2.62633 -2.46366 0
M  V30 18178 C 1686.02 -4.06871 -1.91771 0
M  V30 18179 C 1687.34 -2.68909 -3.4839 0
M  V30 18180 H 1684.46 -0.554833 -0.485107 0
M  V30 18181 H 1687.1 -1.78582 -0.648739 0
M  V30 18182 H 1685.25 -2.40444 -3.05154 0
M  V30 18183 H 1686.93 -4.40361 -1.37403 0
M  V30 18184 H 1685.17 -4.16124 -1.2257 0
M  V30 18185 H 1685.84 -4.79734 -2.73056 0
M  V30 18186 H 1688.32 -2.88868 -2.9949 0
M  V30 18187 H 1687.19 -3.47846 -4.24611 0
M  V30 18188 H 1687.45 -1.75148 -4.05925 0
M  V30 18189 N 1686.51 0.822941 -1.34408 0
M  V30 18190 C 1687.48 1.91541 -1.25876 0
M  V30 18191 C 1688.48 1.59856 -0.17397 0
M  V30 18192 O 1689.67 1.68896 -0.426592 0
M  V30 18193 C 1686.8 3.27586 -0.943415 0
M  V30 18194 H 1687.99 2.00529 -2.22998 0
M  V30 18195 H 1685.54 1.01691 -1.18695 0
M  V30 18196 H 1686.28 3.24291 0.0246389 0
M  V30 18197 H 1686.06 3.51966 -1.72807 0
M  V30 18198 H 1687.55 4.07589 -0.908891 0
M  V30 18199 N 1687.99 1.18137 1.04314 0
M  V30 18200 C 1689.24 0.976648 1.77734 0
M  V30 18201 C 1689.57 -0.492756 1.87844 0
M  V30 18202 O 1688.84 -1.36586 1.38472 0
M  V30 18203 C 1689.13 1.62911 3.21142 0
M  V30 18204 C 1688.98 3.1712 3.1899 0
M  V30 18205 C 1690.3 1.34029 4.19195 0
M  V30 18206 H 1687.42 0.356217 0.645197 0
M  V30 18207 H 1690.06 1.45767 1.21868 0
M  V30 18208 H 1688.21 1.22009 3.68844 0
M  V30 18209 H 1689.88 3.67139 2.79296 0
M  V30 18210 H 1688.13 3.4941 2.57089 0
M  V30 18211 H 1688.8 3.57907 4.20245 0
M  V30 18212 H 1691.27 1.69463 3.80028 0
M  V30 18213 H 1690.15 1.82253 5.1776 0
M  V30 18214 H 1690.41 0.262712 4.41319 0
M  V30 18215 N 1689.47 -1.23186 0.98301 0
M  V30 18216 C 1690.4 -2.24044 0.483426 0
M  V30 18217 C 1691.41 -1.57392 -0.416143 0
M  V30 18218 O 1692.6 -1.77141 -0.219861 0
M  V30 18219 C 1689.7 -3.37388 -0.319733 0
M  V30 18220 C 1688.88 -4.33623 0.57359 0
M  V30 18221 C 1687.93 -5.25905 -0.176165 0
M  V30 18222 O 1686.96 -5.67535 0.435099 0
M  V30 18223 N 1688.16 -5.61804 -1.46139 0
M  V30 18224 H 1690.93 -2.67539 1.35066 0
M  V30 18225 H 1688.49 -1.37384 0.856579 0
M  V30 18226 H 1690.48 -3.96103 -0.829719 0
M  V30 18227 H 1689.05 -2.93056 -1.08799 0
M  V30 18228 H 1688.27 -3.73373 1.26437 0
M  V30 18229 H 1689.56 -4.94873 1.18231 0
M  V30 18230 H 1688.96 -5.29936 -1.97949 0
M  V30 18231 H 1687.51 -6.22979 -1.91676 0
M  V30 18232 N 1690.95 -0.754982 -1.38339 0
M  V30 18233 C 1692.36 -0.379276 -1.82807 0
M  V30 18234 C 1692.71 1.09228 -1.62984 0
M  V30 18235 O 1691.83 1.84445 -1.13177 0
M  V30 18236 C 1692.43 -0.681628 -3.31872 0
M  V30 18237 C 1690.99 -0.359183 -3.74682 0
M  V30 18238 C 1690.13 -0.93409 -2.61094 0
M  V30 18239 H 1693.09 -0.951019 -1.27048 0
M  V30 18240 H 1693.11 0.0396803 -3.80479 0
M  V30 18241 H 1692.62 -1.75271 -3.46268 0
M  V30 18242 H 1690.72 0.705257 -3.65865 0
M  V30 18243 H 1690.83 -0.85571 -4.71396 0
M  V30 18244 H 1689.2 -0.359379 -2.52152 0
M  V30 18245 H 1689.98 -2.01023 -2.78289 0
M  V30 18246 N 1692.42 1.49318 -0.504168 0
M  V30 18247 C 1693.65 2.07365 0.038102 0
M  V30 18248 C 1694.07 1.36164 1.29773 0
M  V30 18249 O 1693.43 0.419365 1.76383 0
M  V30 18250 C 1693.48 3.59576 0.271535 0
M  V30 18251 O 1692.58 3.8983 1.34561 0
M  V30 18252 H 1691.93 0.663425 -0.0276328 0
M  V30 18253 H 1694.46 1.92081 -0.704696 0
M  V30 18254 H 1694.47 4.04899 0.502083 0
M  V30 18255 H 1693.14 4.10809 -0.648754 0
M  V30 18256 H 1691.72 3.56314 1.09976 0
M  V30 18257 N 1693.9 0.238138 1.5579 0
M  V30 18258 C 1695.13 -0.396409 2.03576 0
M  V30 18259 C 1695.55 -1.5138 1.11649 0
M  V30 18260 O 1694.91 -1.80979 0.107774 0
M  V30 18261 C 1694.96 -0.889749 3.49451 0
M  V30 18262 O 1694.06 -1.99997 3.60659 0
M  V30 18263 H 1693.4 -0.0876017 0.658196 0
M  V30 18264 H 1695.93 0.361632 2.01379 0
M  V30 18265 H 1695.94 -1.19526 3.901 0
M  V30 18266 H 1694.62 -0.0720136 4.15838 0
M  V30 18267 H 1693.2 -1.69983 3.31904 0
M  V30 18268 N 1695.38 -1.57561 -0.0350783 0
M  V30 18269 C 1696.31 -2.09201 -1.03716 0
M  V30 18270 C 1697.29 -0.993231 -1.3809 0
M  V30 18271 O 1698.48 -1.26812 -1.47079 0
M  V30 18272 C 1695.61 -2.56643 -2.3399 0
M  V30 18273 C 1694.56 -3.70731 -2.13874 0
M  V30 18274 C 1693.89 -4.04358 -3.49855 0
M  V30 18275 C 1695.19 -4.99393 -1.52982 0
M  V30 18276 H 1696.88 -2.93176 -0.60731 0
M  V30 18277 H 1694.43 -1.41036 -0.290683 0
M  V30 18278 H 1696.38 -2.9139 -3.04417 0
M  V30 18279 H 1695.1 -1.69744 -2.79024 0
M  V30 18280 H 1693.76 -3.36325 -1.45881 0
M  V30 18281 H 1693.41 -3.14534 -3.92527 0
M  V30 18282 H 1693.11 -4.81201 -3.37223 0
M  V30 18283 H 1694.63 -4.41633 -4.21654 0
M  V30 18284 H 1696.05 -5.32135 -2.13319 0
M  V30 18285 H 1694.45 -5.80807 -1.50943 0
M  V30 18286 H 1695.52 -4.82367 -0.494993 0
M  V30 18287 N 1696.86 0.307236 -1.54576 0
M  V30 18288 C 1697.77 1.4014 -1.88143 0
M  V30 18289 C 1698.78 1.5579 -0.774952 0
M  V30 18290 O 1699.96 1.70574 -1.07082 0
M  V30 18291 C 1697.03 2.74613 -2.11633 0
M  V30 18292 C 1696.09 2.68001 -3.35371 0
M  V30 18293 C 1695.32 3.96061 -3.57731 0
M  V30 18294 O 1695.54 4.95119 -2.83219 0
M  V30 18295 O 1694.48 3.98331 -4.51238 0
M  V30 18296 H 1698.3 1.14677 -2.81217 0
M  V30 18297 H 1695.89 0.502739 -1.40687 0
M  V30 18298 H 1697.77 3.54186 -2.2832 0
M  V30 18299 H 1696.44 2.99933 -1.21746 0
M  V30 18300 H 1695.35 1.86922 -3.24054 0
M  V30 18301 H 1696.68 2.47635 -4.25368 0
M  V30 18302 N 1698.34 1.46926 0.570122 0
M  V30 18303 C 1699.27 1.52969 1.69339 0
M  V30 18304 C 1700.25 0.382791 1.5803 0
M  V30 18305 O 1701.43 0.58875 1.7907 0
M  V30 18306 C 1698.56 1.42009 3.07492 0
M  V30 18307 C 1697.6 2.61039 3.37285 0
M  V30 18308 S 1698.44 4.23321 3.27963 0
M  V30 18309 C 1699.59 4.14892 4.68631 0
M  V30 18310 H 1699.83 2.48003 1.63957 0
M  V30 18311 H 1697.36 1.34966 0.749898 0
M  V30 18312 H 1699.32 1.36374 3.87185 0
M  V30 18313 H 1697.98 0.48382 3.10351 0
M  V30 18314 H 1697.17 2.49399 4.37968 0
M  V30 18315 H 1696.77 2.6373 2.65184 0
M  V30 18316 H 1699.07 3.82349 5.59299 0
M  V30 18317 H 1700.01 5.15618 4.85329 0
M  V30 18318 H 1700.42 3.45948 4.46072 0
M  V30 18319 N 1699.82 -0.815801 1.34842 0
M  V30 18320 C 1701.04 -1.60915 1.30848 0
M  V30 18321 C 1701.47 -1.87758 -0.113345 0
M  V30 18322 O 1700.82 -1.4582 -1.07732 0
M  V30 18323 C 1700.87 -2.92284 2.11192 0
M  V30 18324 O 1699.98 -3.84685 1.48632 0
M  V30 18325 H 1699.32 -0.48913 0.449052 0
M  V30 18326 H 1701.85 -1.01322 1.7775 0
M  V30 18327 H 1701.86 -3.41789 2.2281 0
M  V30 18328 H 1700.53 -2.72071 3.14563 0
M  V30 18329 H 1699.11 -3.43215 1.458 0
M  V30 18330 N 1701.29 -1.18689 -1.03686 0
M  V30 18331 C 1702.26 -0.919415 -2.09951 0
M  V30 18332 C 1703.26 0.0968042 -1.60508 0
M  V30 18333 O 1704.45 -0.137062 -1.7366 0
M  V30 18334 C 1701.58 -0.380204 -3.38773 0
M  V30 18335 H 1702.77 -1.86178 -2.35112 0
M  V30 18336 H 1700.32 -0.999435 -1.20171 0
M  V30 18337 H 1701.06 0.568586 -3.19277 0
M  V30 18338 H 1700.84 -1.11281 -3.75977 0
M  V30 18339 H 1702.33 -0.211891 -4.17062 0
M  V30 18340 N 1702.77 1.22662 -0.989529 0
M  V30 18341 C 1703.7 2.26762 -0.556891 0
M  V30 18342 C 1704.68 1.64971 0.414538 0
M  V30 18343 O 1705.87 1.91775 0.305909 0
M  V30 18344 C 1703 3.47047 0.132573 0
M  V30 18345 C 1701.95 4.21251 -0.757058 0
M  V30 18346 C 1701.28 5.3466 0.065134 0
M  V30 18347 C 1702.58 4.8029 -2.05229 0
M  V30 18348 H 1704.27 2.63204 -1.42703 0
M  V30 18349 H 1701.82 1.26522 -0.687614 0
M  V30 18350 H 1703.77 4.19027 0.446609 0
M  V30 18351 H 1702.49 3.09692 1.03723 0
M  V30 18352 H 1701.15 3.51101 -1.05469 0
M  V30 18353 H 1700.8 4.93547 0.970607 0
M  V30 18354 H 1700.5 5.85231 -0.527063 0
M  V30 18355 H 1702.03 6.09458 0.373342 0
M  V30 18356 H 1703.44 5.44229 -1.80242 0
M  V30 18357 H 1701.84 5.41186 -2.59302 0
M  V30 18358 H 1702.91 4.00529 -2.73322 0
M  V30 18359 O 1704.29 0.899348 1.34142 0
M  V30 18360 H 1704.98 0.510336 1.86856 0
M  V30 END ATOM
M  V30 BEGIN BOND
M  V30 END BOND
M  V30 END CTAB
M  END
$$$$
