drugbank_target|Q70I53 Histone deacetylase-like amidohydrolase (DB07553; DB08505)
 OpenBabel12092120443D

  0  0  0     0  0            999 V3000
M  V30 BEGIN CTAB
M  V30 COUNTS 5458 5526 0 0 0
M  V30 BEGIN ATOM
M  V30 1 H -0.908 1.98254 -0.117106 0
M  V30 2 N 0 1.576 0 0
M  V30 3 C 0.933 2.03868 1.02534 0
M  V30 4 C 1.911 0.928543 1.3348 0
M  V30 5 O 3.095 1.19667 1.45644 0
M  V30 6 C 0.222 2.43627 2.35294 0
M  V30 7 C -0.732 3.65373 2.2001 0
M  V30 8 S 0.101 5.13292 1.52614 0
M  V30 9 C 1.257 5.56322 2.86805 0
M  V30 10 H 1.49 2.90518 0.631377 0
M  V30 11 H -0.977 1.52953 0.210867 0
M  V30 12 H 0.981 2.67203 3.11629 0
M  V30 13 H -0.358 1.57376 2.7183 0
M  V30 14 H -1.165 3.90944 3.18086 0
M  V30 15 H -1.563 3.418 1.51819 0
M  V30 16 H 0.729 5.58782 3.83104 0
M  V30 17 H 1.672 6.56266 2.65933 0
M  V30 18 H 2.08 4.83886 2.90714 0
M  V30 19 N 1.4781 -0.272755 1.55222 0
M  V30 20 C 2.4411 -1.32041 1.87344 0
M  V30 21 C 3.4411 -1.42342 0.74803 0
M  V30 22 O 4.6311 -1.41488 1.0162 0
M  V30 23 C 1.7631 -2.70173 2.07893 0
M  V30 24 H 2.9561 -1.04789 2.80997 0
M  V30 25 H 0.5091 -0.51083 1.47717 0
M  V30 26 H 1.2441 -3.02605 1.16622 0
M  V30 27 H 1.0291 -2.64082 2.89833 0
M  V30 28 H 2.5191 -3.45869 2.34017 0
M  V30 29 N 2.9562 -1.48159 -0.537278 0
M  V30 30 C 4.2052 -1.5506 -1.28993 0
M  V30 31 C 4.5182 -0.226211 -1.94288 0
M  V30 32 O 5.7242 -0.173395 -2.70946 0
M  V30 33 C 4.1802 -2.73429 -2.34018 0
M  V30 34 C 3.7882 -4.1248 -1.74825 0
M  V30 35 C 5.5322 -2.89638 -3.10339 0
M  V30 36 C 3.4392 -5.22121 -2.77747 0
M  V30 37 H 2.3692 -0.577231 -0.485098 0
M  V30 38 H 5.0202 -1.74478 -0.568317 0
M  V30 39 H 3.4022 -2.47431 -3.09182 0
M  V30 40 H 4.5762 -4.48466 -1.05899 0
M  V30 41 H 2.8912 -4.01327 -1.11022 0
M  V30 42 H 5.4882 -3.68718 -3.87235 0
M  V30 43 H 5.8312 -1.9882 -3.65754 0
M  V30 44 H 6.3642 -3.15502 -2.42288 0
M  V30 45 H 3.1032 -6.1488 -2.27161 0
M  V30 46 H 2.6232 -4.90631 -3.45024 0
M  V30 47 H 4.3022 -5.49924 -3.4087 0
M  V30 48 N 4.4343 0.785586 -1.36625 0
M  V30 49 C 5.6823 1.54057 -1.30808 0
M  V30 50 C 6.0033 1.94683 0.111157 0
M  V30 51 O 5.2733 1.65241 1.05224 0
M  V30 52 H 3.8533 0.571354 -0.481211 0
M  V30 53 H 6.5153 0.935821 -1.70963 0
M  V30 54 H 5.6113 2.44637 -1.93801 0
M  V30 55 N 5.9124 1.20967 1.01018 0
M  V30 56 C 7.1424 1.04803 1.78044 0
M  V30 57 C 7.5504 -0.405462 1.84804 0
M  V30 58 O 6.8934 -1.2932 1.30468 0
M  V30 59 C 6.9554 1.56377 3.23707 0
M  V30 60 C 6.6194 3.04767 3.40538 0
M  V30 61 C 7.6164 4.02366 3.29239 0
M  V30 62 C 5.3014 3.43862 3.66147 0
M  V30 63 C 7.2954 5.37049 3.43304 0
M  V30 64 C 4.9824 4.78699 3.79855 0
M  V30 65 C 5.9804 5.75101 3.68439 0
M  V30 66 O 5.6684 7.07493 3.81719 0
M  V30 67 H 5.4004 0.368778 0.56655 0
M  V30 68 H 7.9544 1.60642 1.27997 0
M  V30 69 H 6.1844 0.949297 3.74867 0
M  V30 70 H 7.8734 1.36136 3.8239 0
M  V30 71 H 8.6394 3.73506 3.09384 0
M  V30 72 H 4.5184 2.69364 3.74118 0
M  V30 73 H 8.0624 6.12277 3.34309 0
M  V30 74 H 3.9594 5.07247 3.99213 0
M  V30 75 H 4.7274 7.1483 3.98697 0
M  V30 76 N 7.3905 -1.2043 1.01659 0
M  V30 77 C 8.6365 -1.90079 0.706963 0
M  V30 78 C 8.9695 -1.78648 -0.761474 0
M  V30 79 O 8.2445 -1.17069 -1.55323 0
M  V30 80 C 8.5275 -3.41469 1.14327 0
M  V30 81 C 8.3805 -3.61833 2.67201 0
M  V30 82 C 9.6995 -4.34261 0.714529 0
M  V30 83 H 6.8185 -0.690254 0.2583 0
M  V30 84 H 9.4605 -1.41826 1.26433 0
M  V30 85 H 7.6105 -3.82696 0.669056 0
M  V30 86 H 9.2825 -3.2986 3.22475 0
M  V30 87 H 7.5255 -3.05304 3.08175 0
M  V30 88 H 8.1965 -4.67955 2.92783 0
M  V30 89 H 10.6725 -4.00682 1.12221 0
M  V30 90 H 9.5485 -5.38806 1.04784 0
M  V30 91 H 9.8095 -4.40431 -0.383799 0
M  V30 92 N 8.8686 -0.792821 -1.36206 0
M  V30 93 C 10.1146 -0.376415 -1.99887 0
M  V30 94 C 10.4696 1.04127 -1.61788 0
M  V30 95 O 9.7626 1.71004 -0.864193 0
M  V30 96 C 9.9566 -0.481501 -3.54142 0
M  V30 97 C 9.7856 -1.90786 -4.07223 0
M  V30 98 C 8.5556 -2.53322 -4.37214 0
M  V30 99 C 10.7536 -2.87048 -4.26741 0
M  V30 100 N 8.7356 -3.8751 -4.7614 0
M  V30 101 C 10.1066 -4.06077 -4.6851 0
M  V30 102 C 12.1616 -2.8406 -4.08918 0
M  V30 103 C 10.8646 -5.22532 -4.94321 0
M  V30 104 C 12.8906 -3.99705 -4.35878 0
M  V30 105 C 12.2526 -5.1748 -4.77906 0
M  V30 106 H 8.3516 -0.185226 -0.759747 0
M  V30 107 H 10.9356 -1.03114 -1.65153 0
M  V30 108 H 9.1066 0.143154 -3.88136 0
M  V30 109 H 10.8386 -0.0410128 -4.04679 0
M  V30 110 H 7.5936 -2.04777 -4.2704 0
M  V30 111 H 8.0176 -4.5656 -4.99882 0
M  V30 112 H 12.6596 -1.94165 -3.75579 0
M  V30 113 H 10.3776 -6.1301 -5.2654 0
M  V30 114 H 13.9636 -3.98758 -4.23655 0
M  V30 115 H 12.8436 -6.05478 -4.98363 0
M  V30 116 N 10.3467 1.47872 -0.545128 0
M  V30 117 C 11.2947 2.31533 0.222512 0
M  V30 118 C 12.2887 1.42177 0.920985 0
M  V30 119 O 13.4947 1.59005 0.843645 0
M  V30 120 H 9.8697 0.746519 0.0906278 0
M  V30 121 H 11.8407 2.94139 -0.50246 0
M  V30 122 C 10.5897 3.2457 1.24699 0
M  V30 123 H 9.9127 3.93283 0.718944 0
M  V30 124 H 11.3527 3.85963 1.75523 0
M  V30 125 C 9.8117 2.47237 2.28856 0
M  V30 126 O 10.3417 2.20808 3.35569 0
M  V30 127 N 8.5477 2.08461 2.02466 0
M  V30 128 H 8.0947 2.30155 1.157 0
M  V30 129 H 8.0527 1.57033 2.72375 0
M  V30 130 N 11.8248 0.280983 1.55075 0
M  V30 131 C 13.0528 -0.337293 2.04132 0
M  V30 132 C 13.4678 -1.4903 1.15912 0
M  V30 133 O 12.8248 -1.81606 0.180459 0
M  V30 134 C 12.8758 -0.812706 3.52246 0
M  V30 135 O 12.5968 0.294387 4.3711 0
M  V30 136 C 14.0978 -1.4982 4.17216 0
M  V30 137 H 11.3178 -0.0761638 0.666663 0
M  V30 138 H 13.8618 0.414787 2.00249 0
M  V30 139 H 12.0168 -1.51486 3.56554 0
M  V30 140 H 12.4308 -0.0721325 5.2445 0
M  V30 141 H 13.9048 -1.7822 5.22438 0
M  V30 142 H 14.3818 -2.43168 3.65741 0
M  V30 143 H 14.9878 -0.839742 4.16927 0
M  V30 144 N 13.3029 -1.57598 0.00835791 0
M  V30 145 C 14.2329 -2.1198 -0.979113 0
M  V30 146 C 15.2139 -1.03091 -1.35301 0
M  V30 147 O 16.3989 -1.30818 -1.43528 0
M  V30 148 C 13.5289 -2.62995 -2.26828 0
M  V30 149 C 12.4829 -3.76485 -2.03576 0
M  V30 150 C 11.8089 -4.13846 -3.38579 0
M  V30 151 C 13.1089 -5.0342 -1.39161 0
M  V30 152 H 14.8029 -2.94738 -0.526281 0
M  V30 153 H 12.3489 -1.41783 -0.251704 0
M  V30 154 H 14.3019 -2.99669 -2.96271 0
M  V30 155 H 13.0259 -1.7737 -2.7424 0
M  V30 156 H 11.6849 -3.40217 -1.36557 0
M  V30 157 H 11.3329 -3.25232 -3.83709 0
M  V30 158 H 11.0329 -4.90312 -3.23834 0
M  V30 159 H 12.5569 -4.53086 -4.09323 0
M  V30 160 H 13.9709 -5.37812 -1.98573 0
M  V30 161 H 12.3679 -5.84746 -1.34878 0
M  V30 162 H 13.4379 -4.83548 -0.361868 0
M  V30 163 N 14.781 0.264519 -1.55364 0
M  V30 164 C 16.011 1.01153 -1.80143 0
M  V30 165 C 16.419 1.80115 -0.579253 0
M  V30 166 O 15.762 1.77813 0.46132 0
M  V30 167 C 15.824 2.01098 -2.97993 0
M  V30 168 C 15.488 1.40995 -4.34706 0
M  V30 169 C 16.485 0.821316 -5.13372 0
M  V30 170 C 14.17 1.43461 -4.81378 0
M  V30 171 C 16.164 0.265339 -6.36847 0
M  V30 172 C 13.851 0.874771 -6.04807 0
M  V30 173 C 14.849 0.291146 -6.82379 0
M  V30 174 O 14.537 -0.260093 -8.03479 0
M  V30 175 H 14.269 0.304125 -0.603725 0
M  V30 176 H 16.823 0.298089 -2.03225 0
M  V30 177 H 15.053 2.76224 -2.70623 0
M  V30 178 H 16.742 2.61997 -3.1002 0
M  V30 179 H 17.508 0.794903 -4.78442 0
M  V30 180 H 13.387 1.87826 -4.21002 0
M  V30 181 H 16.931 -0.190837 -6.97339 0
M  V30 182 H 12.828 0.898452 -6.39217 0
M  V30 183 H 13.596 -0.150265 -8.18362 0
M  V30 184 N 16.2591 1.48442 0.529413 0
M  V30 185 C 17.5071 1.56179 1.28267 0
M  V30 186 C 17.8281 0.237721 1.93546 0
M  V30 187 O 17.0981 -0.740779 1.81354 0
M  V30 188 H 15.6781 0.575367 0.476405 0
M  V30 189 H 18.3401 1.84909 0.61602 0
M  V30 190 H 17.4361 2.34312 2.06165 0
M  V30 191 N 17.7372 -0.778329 1.37039 0
M  V30 192 C 18.9832 -1.53817 1.33086 0
M  V30 193 C 19.3382 -1.92208 -0.0860346 0
M  V30 194 O 18.6312 -1.60713 -1.04316 0
M  V30 195 C 18.8252 -2.81845 2.19768 0
M  V30 196 C 18.6542 -2.55967 3.69744 0
M  V30 197 C 17.4242 -2.50428 4.38878 0
M  V30 198 C 19.6222 -2.2441 4.62758 0
M  V30 199 N 17.6042 -2.16564 5.74433 0
M  V30 200 C 18.9752 -2.0063 5.86641 0
M  V30 201 C 21.0302 -2.1051 4.5121 0
M  V30 202 C 19.7332 -1.64354 7.00272 0
M  V30 203 C 21.7592 -1.75634 5.64718 0
M  V30 204 C 21.1212 -1.52709 6.87648 0
M  V30 205 H 17.2202 -0.563434 0.542279 0
M  V30 206 H 19.8042 -0.908617 1.72198 0
M  V30 207 H 17.9752 -3.42649 1.82883 0
M  V30 208 H 19.7072 -3.47682 2.07122 0
M  V30 209 H 16.4622 -2.66056 3.91805 0
M  V30 210 H 16.8862 -2.02348 6.46053 0
M  V30 211 H 21.5282 -2.26919 3.56746 0
M  V30 212 H 19.2462 -1.46683 7.94676 0
M  V30 213 H 22.8322 -1.65546 5.57751 0
M  V30 214 H 21.7122 -1.2612 7.73992 0
M  V30 215 N 19.2153 -1.21501 -1.00376 0
M  V30 216 C 20.4613 -1.03452 -1.74429 0
M  V30 217 C 20.7943 0.430764 -1.89362 0
M  V30 218 O 20.0693 1.31962 -1.42886 0
M  V30 219 C 20.3523 -1.73375 -3.15615 0
M  V30 220 C 20.2053 -3.27431 -3.08397 0
M  V30 221 C 21.5243 -1.47732 -4.14564 0
M  V30 222 H 18.6433 -0.377226 -0.633143 0
M  V30 223 H 21.2853 -1.49693 -1.17013 0
M  V30 224 H 19.4353 -1.34064 -3.64636 0
M  V30 225 H 21.1073 -3.76119 -2.67081 0
M  V30 226 H 19.3503 -3.5767 -2.45468 0
M  V30 227 H 20.0213 -3.71524 -4.08258 0
M  V30 228 H 22.4973 -1.8186 -3.74254 0
M  V30 229 H 21.3733 -1.99169 -5.11491 0
M  V30 230 H 21.6343 -0.407589 -4.40217 0
M  V30 231 N 20.6934 1.19889 -1.02296 0
M  V30 232 C 21.9704 1.85148 -0.630832 0
M  V30 233 C 22.3504 1.91385 0.890782 0
M  V30 234 O 21.6984 1.42642 1.78509 0
M  V30 235 C 21.9084 3.24442 -1.28602 0
M  V30 236 C 23.2564 4.00663 -1.4055 0
M  V30 237 O 24.2804 3.33818 -1.24273 0
M  V30 238 O 23.1394 5.20387 -1.66913 0
M  V30 239 H 20.2334 0.797613 -0.218499 0
M  V30 240 H 22.7794 1.27427 -1.12074 0
M  V30 241 H 21.5514 3.14704 -2.32545 0
M  V30 242 H 21.1744 3.89802 -0.7836 0
M  V30 243 N 22.1715 0.800033 1.35784 0
M  V30 244 C 23.3995 0.389606 2.03199 0
M  V30 245 C 23.8145 -0.997375 1.60306 0
M  V30 246 O 23.1715 -1.64154 0.797481 0
M  V30 247 C 23.2225 0.455855 3.58614 0
M  V30 248 O 22.9435 1.78815 3.99946 0
M  V30 249 C 24.4445 0.0374032 4.43284 0
M  V30 250 H 21.6645 0.159132 0.651857 0
M  V30 251 H 24.2085 1.08183 1.73541 0
M  V30 252 H 22.3635 -0.188057 3.86943 0
M  V30 253 H 22.7775 1.74636 4.94573 0
M  V30 254 H 24.2515 0.134882 5.51835 0
M  V30 255 H 24.7285 -1.01651 4.27275 0
M  V30 256 H 25.3345 0.654215 4.20238 0
M  V30 257 N 23.6496 -1.47581 0.552962 0
M  V30 258 C 24.8976 -2.02082 0.0272703 0
M  V30 259 C 25.2186 -1.4301 -1.32563 0
M  V30 260 O 24.4886 -0.603745 -1.86365 0
M  V30 261 H 23.0686 -0.746966 0.00709182 0
M  V30 262 H 25.7306 -1.81033 0.722008 0
M  V30 263 H 24.8266 -3.12034 -0.0639951 0
M  V30 264 N 25.1277 -0.289203 -1.54924 0
M  V30 265 C 26.3557 0.326463 -2.04308 0
M  V30 266 C 26.7707 1.48413 -1.16701 0
M  V30 267 O 26.1277 1.81507 -0.190087 0
M  V30 268 C 26.1787 0.794014 -3.52672 0
M  V30 269 O 25.8997 -0.317564 -4.36948 0
M  V30 270 C 27.4007 1.47605 -4.18004 0
M  V30 271 H 24.6207 0.0726272 -0.667058 0
M  V30 272 H 27.1647 -0.425401 -2.00026 0
M  V30 273 H 25.3197 1.49593 -3.57352 0
M  V30 274 H 25.7337 0.0443186 -5.24481 0
M  V30 275 H 27.2077 1.75447 -5.23376 0
M  V30 276 H 27.6847 2.41224 -3.67025 0
M  V30 277 H 28.2907 0.81762 -4.17367 0
M  V30 278 N 26.6058 1.57591 -0.0167156 0
M  V30 279 C 27.8538 1.90906 0.663285 0
M  V30 280 C 28.1748 0.892509 1.73376 0
M  V30 281 O 27.4448 -0.0677623 1.95783 0
M  V30 282 H 26.0248 0.704637 0.247983 0
M  V30 283 H 28.6868 1.94803 -0.0615909 0
M  V30 284 H 27.7828 2.9116 1.12393 0
M  V30 285 N 28.0839 -0.256276 1.55502 0
M  V30 286 C 29.3089 -1.00766 1.81276 0
M  V30 287 C 29.7339 -1.78524 0.59252 0
M  V30 288 O 29.0919 -1.75413 -0.45827 0
M  V30 289 C 29.1399 -1.92869 3.04687 0
M  V30 290 O 28.2439 -3.019 2.80945 0
M  V30 291 H 27.5849 -0.287224 0.598664 0
M  V30 292 H 30.1149 -0.280109 2.02674 0
M  V30 293 H 30.1249 -2.34511 3.33869 0
M  V30 294 H 28.7999 -1.35689 3.93143 0
M  V30 295 H 27.3769 -2.64454 2.62904 0
M  V30 296 N 29.562 -1.4872 -0.521534 0
M  V30 297 C 30.492 -1.66771 -1.63431 0
M  V30 298 C 31.473 -0.516499 -1.62069 0
M  V30 299 O 32.658 -0.750013 -1.79132 0
M  V30 300 C 29.788 -1.71515 -3.01993 0
M  V30 301 C 28.742 -2.86222 -3.18216 0
M  V30 302 C 28.068 -2.76061 -4.57924 0
M  V30 303 C 29.368 -4.27419 -3.00184 0
M  V30 304 H 31.062 -2.59932 -1.48579 0
M  V30 305 H 28.608 -1.25089 -0.713358 0
M  V30 306 H 30.561 -1.82731 -3.7972 0
M  V30 307 H 29.285 -0.749393 -3.17886 0
M  V30 308 H 27.944 -2.74575 -2.42908 0
M  V30 309 H 27.592 -1.77437 -4.70665 0
M  V30 310 H 27.292 -3.53037 -4.69722 0
M  V30 311 H 28.816 -2.89256 -5.37739 0
M  V30 312 H 30.23 -4.39855 -3.67697 0
M  V30 313 H 28.627 -5.05458 -3.2347 0
M  V30 314 H 29.697 -4.43293 -1.96518 0
M  V30 315 N 31.0401 0.771051 -1.3745 0
M  V30 316 C 32.0031 1.86598 -1.33093 0
M  V30 317 C 33.0031 1.59076 -0.234845 0
M  V30 318 O 34.1931 1.67145 -0.490732 0
M  V30 319 C 31.3251 3.23747 -1.06773 0
M  V30 320 H 32.5181 1.91873 -2.30488 0
M  V30 321 H 30.0711 0.970876 -1.2249 0
M  V30 322 H 30.8061 3.24148 -0.099129 0
M  V30 323 H 30.5911 3.45115 -1.86112 0
M  V30 324 H 32.0811 4.03824 -1.06377 0
M  V30 325 N 32.5182 1.22032 0.997298 0
M  V30 326 C 33.4812 0.987909 2.06816 0
M  V30 327 C 34.4812 -0.0440084 1.6074 0
M  V30 328 O 35.6712 0.194053 1.73116 0
M  V30 329 C 32.8032 0.49132 3.37341 0
M  V30 330 H 33.9962 1.93803 2.28868 0
M  V30 331 H 31.5492 1.03838 1.16822 0
M  V30 332 H 32.2842 -0.463364 3.20973 0
M  V30 333 H 32.0692 1.23575 3.72118 0
M  V30 334 H 33.5592 0.348824 4.16141 0
M  V30 335 N 33.9963 -1.19345 1.0293 0
M  V30 336 C 34.9593 -2.20793 0.615069 0
M  V30 337 C 35.9593 -1.57553 -0.321533 0
M  V30 338 O 37.1493 -1.73862 -0.108483 0
M  V30 339 C 34.2813 -3.40754 -0.0999222 0
M  V30 340 H 35.4743 -2.58955 1.51269 0
M  V30 341 H 33.0273 -1.3303 0.820534 0
M  V30 342 H 33.7623 -3.0811 -1.01187 0
M  V30 343 H 33.5473 -3.87889 0.57309 0
M  V30 344 H 35.0373 -4.15898 -0.376645 0
M  V30 345 N 35.4744 -0.807222 -1.35358 0
M  V30 346 C 36.4224 -0.20614 -2.31685 0
M  V30 347 C 37.4164 0.644445 -1.56663 0
M  V30 348 O 38.6224 0.537538 -1.71786 0
M  V30 349 H 34.9974 -0.0479006 -0.750473 0
M  V30 350 H 36.9684 -1.03369 -2.79924 0
M  V30 351 C 35.7174 0.630212 -3.41941 0
M  V30 352 H 35.0404 -0.0149558 -3.99797 0
M  V30 353 H 36.4804 1.01716 -4.11619 0
M  V30 354 C 34.9394 1.79601 -2.85035 0
M  V30 355 O 35.4694 2.89351 -2.78637 0
M  V30 356 N 33.6754 1.60774 -2.42074 0
M  V30 357 H 33.2224 0.715009 -2.47478 0
M  V30 358 H 33.1804 2.38933 -2.04349 0
M  V30 359 N 36.9525 1.47285 -0.560781 0
M  V30 360 C 37.8825 2.32857 0.173105 0
M  V30 361 C 38.8635 1.44009 0.905281 0
M  V30 362 O 40.0485 1.7286 0.885046 0
M  V30 363 C 37.1785 3.25861 1.20133 0
M  V30 364 C 36.1325 4.23978 0.585388 0
M  V30 365 C 35.4585 5.06332 1.7185 0
M  V30 366 C 36.7585 5.20242 -0.463178 0
M  V30 367 H 38.4525 2.94466 -0.541307 0
M  V30 368 H 35.9985 1.41601 -0.261764 0
M  V30 369 H 37.9515 3.84569 1.72293 0
M  V30 370 H 36.6755 2.62315 1.94573 0
M  V30 371 H 35.3345 3.66501 0.085054 0
M  V30 372 H 34.9825 4.39186 2.45203 0
M  V30 373 H 34.6825 5.72762 1.31213 0
M  V30 374 H 36.2065 5.67899 2.24329 0
M  V30 375 H 37.6205 5.73293 -0.027502 0
M  V30 376 H 36.0175 5.94896 -0.788627 0
M  V30 377 H 37.0875 4.65504 -1.35773 0
M  V30 378 N 38.4306 0.297415 1.54768 0
M  V30 379 C 39.6586 -0.315623 2.04478 0
M  V30 380 C 40.0736 -1.47792 1.17486 0
M  V30 381 O 39.4306 -1.81404 0.19971 0
M  V30 382 C 39.4816 -0.7753 3.53088 0
M  V30 383 O 39.2026 0.340732 4.36773 0
M  V30 384 C 40.7036 -1.45386 4.18781 0
M  V30 385 H 37.9236 -0.0690887 0.667434 0
M  V30 386 H 40.4676 0.436003 1.99798 0
M  V30 387 H 38.6226 -1.47696 3.58141 0
M  V30 388 H 39.0366 -0.0165035 5.24497 0
M  V30 389 H 40.5106 -1.72669 5.24299 0
M  V30 390 H 40.9876 -2.39275 3.68299 0
M  V30 391 H 41.5936 -0.795475 4.17795 0
M  V30 392 N 39.9087 -1.5758 0.0250728 0
M  V30 393 C 40.8717 -2.08896 -0.943139 0
M  V30 394 C 41.8717 -1.00321 -1.25668 0
M  V30 395 O 43.0617 -1.26495 -1.19769 0
M  V30 396 C 40.1937 -2.55143 -2.26086 0
M  V30 397 H 41.3867 -2.95723 -0.498775 0
M  V30 398 H 38.9397 -1.54703 -0.222888 0
M  V30 399 H 39.6747 -1.71633 -2.75159 0
M  V30 400 H 39.4597 -3.34461 -2.04641 0
M  V30 401 H 40.9497 -2.95083 -2.95492 0
M  V30 402 N 41.3868 0.248026 -1.55636 0
M  V30 403 C 42.8028 0.596483 -1.48035 0
M  V30 404 C 43.0028 1.88386 -0.715039 0
M  V30 405 O 42.0588 2.51319 -0.243944 0
M  V30 406 C 43.3718 0.700258 -2.92433 0
M  V30 407 C 44.9198 0.792659 -3.02797 0
M  V30 408 C 45.3948 0.928005 -4.485 0
M  V30 409 N 46.8858 0.992903 -4.52433 0
M  V30 410 C 47.6208 1.11687 -5.62418 0
M  V30 411 N 47.1168 1.20645 -6.82214 0
M  V30 412 N 48.9098 1.14994 -5.50212 0
M  V30 413 H 41.0608 -0.597109 -2.03834 0
M  V30 414 H 43.3238 -0.205925 -0.925364 0
M  V30 415 H 43.0298 -0.175658 -3.51261 0
M  V30 416 H 42.9038 1.57255 -3.42857 0
M  V30 417 H 45.2908 1.65903 -2.4405 0
M  V30 418 H 45.3718 -0.104762 -2.55585 0
M  V30 419 H 45.0158 0.0661971 -5.07857 0
M  V30 420 H 44.9458 1.84045 -4.93391 0
M  V30 421 H 47.4368 0.935064 -3.66149 0
M  V30 422 H 47.7498 1.30008 -7.61786 0
M  V30 423 H 46.0948 1.17605 -6.84977 0
M  V30 424 H 49.2858 1.07643 -4.55555 0
M  V30 425 H 49.4588 1.24311 -6.35965 0
M  V30 426 N 42.8649 1.48995 0.513639 0
M  V30 427 C 43.7979 1.59319 1.63379 0
M  V30 428 C 44.7759 0.442816 1.56454 0
M  V30 429 O 45.9599 0.656655 1.76693 0
M  V30 430 C 43.0869 1.5364 3.01848 0
M  V30 431 C 42.1329 2.7372 3.27078 0
M  V30 432 S 42.9659 4.35528 3.1157 0
M  V30 433 C 44.1219 4.32473 4.52458 0
M  V30 434 H 44.3549 2.54079 1.54374 0
M  V30 435 H 41.8879 1.3773 0.697849 0
M  V30 436 H 43.8459 1.51049 3.81699 0
M  V30 437 H 42.5069 0.601898 3.08279 0
M  V30 438 H 41.6999 2.6593 4.28132 0
M  V30 439 H 41.3019 2.73657 2.54927 0
M  V30 440 H 43.5939 4.03414 5.44301 0
M  V30 441 H 44.5369 5.33762 4.65299 0
M  V30 442 H 44.9449 3.62718 4.32546 0
M  V30 443 N 44.343 -0.763751 1.37857 0
M  V30 444 C 45.275 -1.88664 1.30148 0
M  V30 445 C 46.288 -1.61365 0.215685 0
M  V30 446 O 47.477 -1.72134 0.472459 0
M  V30 447 C 44.577 -3.24075 0.991396 0
M  V30 448 C 43.75 -3.78958 2.18426 0
M  V30 449 C 42.809 -4.92862 1.8432 0
M  V30 450 O 41.835 -5.08027 2.56704 0
M  V30 451 N 43.037 -5.75071 0.792081 0
M  V30 452 H 45.802 -1.95791 2.26905 0
M  V30 453 H 43.363 -0.943226 1.31586 0
M  V30 454 H 45.355 -3.97804 0.743935 0
M  V30 455 H 43.925 -3.12399 0.112122 0
M  V30 456 H 43.145 -2.96913 2.59299 0
M  V30 457 H 44.433 -4.12357 2.98058 0
M  V30 458 H 43.831 -5.65375 0.191595 0
M  V30 459 H 42.388 -6.48991 0.60449 0
M  V30 460 N 45.8211 -1.22559 -0.990812 0
M  V30 461 C 47.2321 -1.04791 -1.54518 0
M  V30 462 C 47.5831 0.387998 -1.92325 0
M  V30 463 O 46.7081 1.27328 -1.74976 0
M  V30 464 C 47.3031 -1.896 -2.80779 0
M  V30 465 C 45.8621 -1.76124 -3.32652 0
M  V30 466 C 45.0091 -1.8594 -2.05722 0
M  V30 467 H 47.9601 -1.36374 -0.811662 0
M  V30 468 H 47.9811 -1.41464 -3.53225 0
M  V30 469 H 47.4931 -2.94101 -2.53231 0
M  V30 470 H 45.5941 -0.743643 -3.65104 0
M  V30 471 H 45.7071 -2.58913 -4.03114 0
M  V30 472 H 44.0711 -1.29403 -2.19379 0
M  V30 473 H 44.8541 -2.91976 -1.80568 0
M  V30 474 N 47.2992 1.18797 -1.03562 0
M  V30 475 C 48.5482 1.87978 -0.731235 0
M  V30 476 C 48.8612 1.80911 0.743671 0
M  V30 477 O 50.0672 2.45407 1.16137 0
M  V30 478 C 48.5232 3.3721 -1.25768 0
M  V30 479 C 48.1312 3.52818 -2.76085 0
M  V30 480 C 49.8752 4.11825 -1.0296 0
M  V30 481 C 47.7822 4.9598 -3.22114 0
M  V30 482 H 46.7122 0.704063 -0.269835 0
M  V30 483 H 49.3632 1.34266 -1.25079 0
M  V30 484 H 47.7452 3.90359 -0.666011 0
M  V30 485 H 48.9192 3.09965 -3.40966 0
M  V30 486 H 47.2342 2.91602 -2.97249 0
M  V30 487 H 49.8312 5.17411 -1.34869 0
M  V30 488 H 50.1742 4.16287 0.0333546 0
M  V30 489 H 50.7072 3.64833 -1.58562 0
M  V30 490 H 47.4462 4.96684 -4.27768 0
M  V30 491 H 46.9662 5.39569 -2.61965 0
M  V30 492 H 48.6452 5.6467 -3.15844 0
M  V30 493 N 48.7773 0.814389 1.34928 0
M  V30 494 C 50.0023 0.410097 2.03305 0
M  V30 495 C 50.4273 -0.973464 1.60951 0
M  V30 496 O 49.7853 -1.63185 0.789964 0
M  V30 497 C 49.8333 0.51049 3.56968 0
M  V30 498 O 48.9373 -0.473035 4.09678 0
M  V30 499 H 48.2783 0.170088 0.641846 0
M  V30 500 H 50.8083 1.10244 1.72358 0
M  V30 501 H 50.8183 0.383135 4.06197 0
M  V30 502 H 49.4933 1.51963 3.87144 0
M  V30 503 H 48.0703 -0.305272 3.71648 0
M  V30 504 N 50.2554 -1.46986 0.568584 0
M  V30 505 C 51.2054 -2.27179 -0.193339 0
M  V30 506 C 52.1894 -1.35035 -0.874895 0
M  V30 507 O 53.3814 -1.5931 -0.771322 0
M  V30 508 C 50.5104 -3.21063 -1.21546 0
M  V30 509 C 49.5964 -4.2069 -0.536738 0
M  V30 510 N 49.9874 -5.04218 0.399673 0
M  V30 511 C 48.2854 -4.38961 -0.789254 0
M  V30 512 C 48.9864 -5.76242 0.795017 0
M  V30 513 N 47.9624 -5.434 0.1473 0
M  V30 514 H 51.7644 -2.89146 0.526458 0
M  V30 515 H 49.2784 -1.57664 0.389342 0
M  V30 516 H 51.2754 -3.77209 -1.77536 0
M  V30 517 H 49.9354 -2.60654 -1.93623 0
M  V30 518 H 50.9464 -5.12077 0.774454 0
M  V30 519 H 47.6234 -3.89713 -1.49767 0
M  V30 520 H 49.0134 -6.53417 1.56513 0
M  V30 521 N 51.7335 -0.305618 -1.54608 0
M  V30 522 C 52.6835 0.583595 -2.20405 0
M  V30 523 C 53.6675 1.09539 -1.17856 0
M  V30 524 O 54.8595 1.0354 -1.43557 0
M  V30 525 C 51.9885 1.75277 -2.95183 0
M  V30 526 C 51.0745 1.25672 -4.05052 0
M  V30 527 N 51.4655 0.478998 -5.03527 0
M  V30 528 C 49.7635 1.53704 -4.18678 0
M  V30 529 C 50.4645 0.214269 -5.81305 0
M  V30 530 N 49.4405 0.795374 -5.3775 0
M  V30 531 H 53.2425 -0.0180946 -2.93894 0
M  V30 532 H 50.7565 -0.110601 -1.62023 0
M  V30 533 H 52.7535 2.4014 -3.40791 0
M  V30 534 H 51.4135 2.35812 -2.23211 0
M  V30 535 H 52.4245 0.123473 -5.17753 0
M  V30 536 H 49.1015 2.14954 -3.57912 0
M  V30 537 H 50.4915 -0.410656 -6.70644 0
M  V30 538 N 53.2116 1.57565 -0.0334293 0
M  V30 539 C 54.1416 2.13511 0.945265 0
M  V30 540 C 55.1226 1.05231 1.33643 0
M  V30 541 O 56.3076 1.33084 1.41429 0
M  V30 542 C 53.4376 2.6657 2.22616 0
M  V30 543 C 52.3916 3.79676 1.97561 0
M  V30 544 C 51.7176 4.1918 3.31952 0
M  V30 545 C 53.0176 5.0557 1.31135 0
M  V30 546 H 54.7116 2.95538 0.479325 0
M  V30 547 H 52.2576 1.42166 0.229115 0
M  V30 548 H 54.2106 3.04344 2.91466 0
M  V30 549 H 52.9346 1.8171 2.71384 0
M  V30 550 H 51.5936 3.42347 1.31127 0
M  V30 551 H 51.2416 3.31296 3.78487 0
M  V30 552 H 50.9416 4.95402 3.15992 0
M  V30 553 H 52.4656 4.59541 4.02063 0
M  V30 554 H 53.8796 5.40903 1.89992 0
M  V30 555 H 52.2766 5.86818 1.25559 0
M  V30 556 H 53.3466 4.84062 0.284894 0
M  V30 557 N 54.6897 -0.239769 1.55765 0
M  V30 558 C 55.6527 -1.28038 1.90103 0
M  V30 559 C 56.6527 -1.40723 0.778055 0
M  V30 560 O 57.8427 -1.39301 1.04599 0
M  V30 561 C 54.9747 -2.65702 2.13577 0
M  V30 562 H 56.1677 -0.988048 2.83157 0
M  V30 563 H 53.7207 -0.479382 1.48767 0
M  V30 564 H 54.4557 -3.00063 1.23015 0
M  V30 565 H 54.2407 -2.57875 2.95369 0
M  V30 566 H 55.7307 -3.40828 2.41301 0
M  V30 567 N 56.1678 -1.49265 -0.50573 0
M  V30 568 C 57.1178 -1.6198 -1.60457 0
M  V30 569 C 58.1018 -0.47568 -1.53708 0
M  V30 570 O 59.2938 -0.728392 -1.61318 0
M  V30 571 C 56.4228 -1.68526 -2.99089 0
M  V30 572 C 55.5088 -2.885 -3.10852 0
M  V30 573 N 55.8998 -4.12635 -2.92517 0
M  V30 574 C 54.1978 -2.86338 -3.41945 0
M  V30 575 C 54.8988 -4.93258 -3.08337 0
M  V30 576 N 53.8748 -4.26533 -3.37003 0
M  V30 577 H 57.6768 -2.55681 -1.44928 0
M  V30 578 H 55.1908 -1.45972 -0.711752 0
M  V30 579 H 57.1878 -1.75732 -3.78053 0
M  V30 580 H 55.8478 -0.759584 -3.1569 0
M  V30 581 H 56.8588 -4.42689 -2.68787 0
M  V30 582 H 53.5358 -2.03129 -3.64753 0
M  V30 583 H 54.9258 -6.01856 -2.98695 0
M  V30 584 N 57.6459 0.756429 -1.3826 0
M  V30 585 C 59.0569 1.33359 -1.30661 0
M  V30 586 C 59.4079 1.96161 0.0388875 0
M  V30 587 O 58.5329 1.94874 0.940918 0
M  V30 588 C 59.1279 2.42477 -2.36622 0
M  V30 589 C 57.6869 2.95922 -2.3261 0
M  V30 590 C 56.8339 1.69275 -2.19639 0
M  V30 591 H 59.7849 0.55552 -1.4866 0
M  V30 592 H 59.8059 3.22345 -2.02174 0
M  V30 593 H 59.3179 1.96739 -3.34538 0
M  V30 594 H 57.4189 3.45996 -1.38267 0
M  V30 595 H 57.5319 3.50494 -3.26636 0
M  V30 596 H 55.8959 1.92793 -1.66442 0
M  V30 597 H 56.6789 1.25619 -3.19491 0
M  V30 598 N 59.124 1.23083 0.984299 0
M  V30 599 C 60.401 0.9689 1.69917 0
M  V30 600 C 60.781 -0.513604 2.04757 0
M  V30 601 O 60.129 -1.48383 1.73767 0
M  V30 602 C 60.339 1.87518 2.94343 0
M  V30 603 C 61.687 2.13636 3.6694 0
M  V30 604 O 62.711 1.85036 3.04368 0
M  V30 605 O 61.57 2.62119 4.79537 0
M  V30 606 H 58.664 0.365095 0.742048 0
M  V30 607 H 61.21 1.34107 1.03987 0
M  V30 608 H 59.982 2.87756 2.65164 0
M  V30 609 H 59.605 1.50514 3.6801 0
M  V30 610 N 60.6021 -1.18246 1.0419 0
M  V30 611 C 61.8301 -1.92195 0.766072 0
M  V30 612 C 62.2451 -1.76247 -0.676933 0
M  V30 613 O 61.6021 -1.09293 -1.46155 0
M  V30 614 C 61.6531 -3.43568 1.12442 0
M  V30 615 O 61.3741 -3.59015 2.51078 0
M  V30 616 C 62.8751 -4.34613 0.873275 0
M  V30 617 H 60.0951 -0.610114 0.279288 0
M  V30 618 H 62.6391 -1.50007 1.38989 0
M  V30 619 H 60.7941 -3.8354 0.545542 0
M  V30 620 H 61.2081 -4.5273 2.64831 0
M  V30 621 H 62.6821 -5.39374 1.17385 0
M  V30 622 H 63.1591 -4.38781 -0.191909 0
M  V30 623 H 63.7651 -4.00341 1.43551 0
M  V30 624 N 62.0802 -0.821533 -1.34494 0
M  V30 625 C 63.0272 -0.240397 -2.29545 0
M  V30 626 C 63.9972 0.634031 -1.53523 0
M  V30 627 O 65.1822 0.575966 -1.81899 0
M  V30 628 C 62.3222 0.592869 -3.39969 0
M  V30 629 C 61.4352 -0.30365 -4.30932 0
M  V30 630 C 60.5702 0.539049 -5.28458 0
M  V30 631 C 59.6092 -0.356942 -6.11058 0
M  V30 632 N 58.7462 0.446603 -7.00678 0
M  V30 633 H 63.5862 -1.05632 -2.7865 0
M  V30 634 H 61.1232 -0.532413 -1.37127 0
M  V30 635 H 63.0812 1.09129 -4.02675 0
M  V30 636 H 61.7112 1.37392 -2.92102 0
M  V30 637 H 60.7632 -0.920276 -3.691 0
M  V30 638 H 62.0752 -0.992661 -4.88823 0
M  V30 639 H 61.2292 1.102 -5.96608 0
M  V30 640 H 59.9682 1.26157 -4.71101 0
M  V30 641 H 58.9732 -0.932047 -5.41842 0
M  V30 642 H 60.1982 -1.07755 -6.70497 0
M  V30 643 H 58.1442 1.15282 -6.45791 0
M  V30 644 H 58.0612 -0.184048 -7.55776 0
M  V30 645 H 59.3292 0.992352 -7.73158 0
M  V30 646 N 63.5583 1.46682 -0.576371 0
M  V30 647 C 64.9743 1.57822 -0.237562 0
M  V30 648 C 65.1743 1.57237 1.26011 0
M  V30 649 O 64.2303 1.48596 2.04146 0
M  V30 650 C 65.5433 2.87499 -0.881168 0
M  V30 651 C 67.0913 3.01119 -0.85417 0
M  V30 652 C 67.5663 4.33524 -1.4772 0
M  V30 653 N 69.0573 4.40207 -1.44125 0
M  V30 654 C 69.7923 5.4126 -1.89276 0
M  V30 655 N 69.2883 6.49021 -2.42371 0
M  V30 656 N 71.0813 5.32422 -1.80231 0
M  V30 657 H 63.2323 1.45306 -1.54919 0
M  V30 658 H 65.4953 0.692733 -0.647167 0
M  V30 659 H 65.2013 2.9372 -1.93447 0
M  V30 660 H 65.0753 3.75224 -0.385592 0
M  V30 661 H 67.4623 2.94485 0.190491 0
M  V30 662 H 67.5433 2.14887 -1.3877 0
M  V30 663 H 67.1873 4.40916 -2.52103 0
M  V30 664 H 67.1173 5.1852 -0.918947 0
M  V30 665 H 69.6083 3.62931 -1.05307 0
M  V30 666 H 69.9213 7.2233 -2.74698 0
M  V30 667 H 68.2663 6.49858 -2.46393 0
M  V30 668 H 71.4573 4.47137 -1.38514 0
M  V30 669 H 71.6303 6.11034 -2.15735 0
M  V30 670 N 65.0364 0.313813 1.54444 0
M  V30 671 C 66.4524 -0.0391619 1.59552 0
M  V30 672 C 66.6524 -1.51322 1.33056 0
M  V30 673 O 65.7084 -2.26782 1.11022 0
M  V30 674 C 67.0214 0.370302 2.98411 0
M  V30 675 C 68.5694 0.320139 3.11358 0
M  V30 676 C 69.0444 0.704617 4.52547 0
M  V30 677 N 70.5354 0.657645 4.58508 0
M  V30 678 C 71.2704 0.927453 5.6585 0
M  V30 679 N 70.7664 1.26389 6.81174 0
M  V30 680 N 72.5594 0.853662 5.5558 0
M  V30 681 H 64.7104 1.27433 1.69925 0
M  V30 682 H 66.9734 0.517511 0.794284 0
M  V30 683 H 66.6794 1.39694 3.22767 0
M  V30 684 H 66.5534 -0.269619 3.76235 0
M  V30 685 H 68.9404 -0.697275 2.86744 0
M  V30 686 H 69.0214 0.99486 2.35661 0
M  V30 687 H 68.6654 1.7199 4.77893 0
M  V30 688 H 68.5954 0.00768843 5.26599 0
M  V30 689 H 71.0864 0.409067 3.75679 0
M  V30 690 H 71.3994 1.4554 7.58972 0
M  V30 691 H 69.7444 1.30206 6.82694 0
M  V30 692 H 72.9354 0.590383 4.64362 0
M  V30 693 H 73.1084 1.0673 6.3915 0
M  V30 694 N 66.5145 -1.57545 0.0417849 0
M  V30 695 C 67.7615 -1.92317 -0.634082 0
M  V30 696 C 68.0895 -0.919334 -1.71402 0
M  V30 697 O 67.3445 0.0698253 -1.95575 0
M  V30 698 C 67.6435 -3.33794 -1.27735 0
M  V30 699 C 67.3095 -4.49716 -0.326543 0
M  V30 700 C 65.9715 -4.81156 -0.0648814 0
M  V30 701 C 68.3235 -5.20182 0.325623 0
M  V30 702 C 65.6515 -5.80414 0.856539 0
M  V30 703 C 68.0035 -6.20424 1.23518 0
M  V30 704 C 66.6675 -6.50298 1.5056 0
M  V30 705 H 65.9375 -0.703736 -0.232027 0
M  V30 706 H 68.5845 -1.91205 0.106259 0
M  V30 707 H 66.8895 -3.31228 -2.09274 0
M  V30 708 H 68.5865 -3.57975 -1.80707 0
M  V30 709 H 65.1765 -4.25176 -0.540665 0
M  V30 710 H 69.3605 -4.96112 0.136546 0
M  V30 711 H 64.6165 -6.019 1.07363 0
M  V30 712 H 68.7905 -6.74141 1.74664 0
M  V30 713 H 66.4175 -7.27025 2.22123 0
M  V30 714 N 67.9926 0.231505 -1.5589 0
M  V30 715 C 68.9426 1.29007 -1.87993 0
M  V30 716 C 69.9266 1.42764 -0.742102 0
M  V30 717 O 71.1186 1.45747 -1.00433 0
M  V30 718 C 68.2476 2.6425 -2.1915 0
M  V30 719 C 67.3336 2.54435 -3.39299 0
M  V30 720 N 67.7246 2.14262 -4.58176 0
M  V30 721 C 66.0226 2.85416 -3.42715 0
M  V30 722 C 66.7236 2.15455 -5.40328 0
M  V30 723 N 65.6996 2.55558 -4.79783 0
M  V30 724 H 69.5016 0.970213 -2.77424 0
M  V30 725 H 67.0156 0.440097 -1.56323 0
M  V30 726 H 69.0126 3.40665 -2.40319 0
M  V30 727 H 67.6726 2.9709 -1.31025 0
M  V30 728 H 68.6836 1.85554 -4.83518 0
M  V30 729 H 65.3606 3.22693 -2.64906 0
M  V30 730 H 66.7506 1.86605 -6.45467 0
M  V30 731 N 69.4707 1.49531 0.497807 0
M  V30 732 C 70.3807 1.69176 1.62532 0
M  V30 733 C 71.3967 0.5744 1.64246 0
M  V30 734 O 72.5727 0.849497 1.82608 0
M  V30 735 C 69.6377 1.75695 2.98885 0
M  V30 736 C 68.6987 2.9929 3.07773 0
M  V30 737 C 67.9317 3.05488 4.37622 0
M  V30 738 O 68.1547 2.19192 5.26603 0
M  V30 739 O 67.0887 3.9798 4.51548 0
M  V30 740 H 70.9147 2.647 1.48887 0
M  V30 741 H 68.4997 1.3331 0.674441 0
M  V30 742 H 70.3817 1.82317 3.79919 0
M  V30 743 H 69.0567 0.8335 3.12785 0
M  V30 744 H 67.9637 2.98183 2.25915 0
M  V30 745 H 69.2967 3.91125 2.98801 0
M  V30 746 N 70.9488 -0.749086 1.3866 0
M  V30 747 C 71.8788 -1.8764 1.38973 0
M  V30 748 C 72.8598 -1.68178 0.255004 0
M  V30 749 O 74.0448 -1.88704 0.458754 0
M  V30 750 C 71.1748 -3.25222 1.21851 0
M  V30 751 C 70.1288 -3.59295 2.32575 0
M  V30 752 C 69.4548 -4.95663 2.00555 0
M  V30 753 C 70.7548 -3.63709 3.7485 0
M  V30 754 H 72.4488 -1.87635 2.3331 0
M  V30 755 H 69.9948 -0.901329 1.12303 0
M  V30 756 H 71.9478 -4.03746 1.20695 0
M  V30 757 H 70.6718 -3.25719 0.239775 0
M  V30 758 H 69.3308 -2.83093 2.32925 0
M  V30 759 H 68.9788 -4.92724 1.01154 0
M  V30 760 H 68.6788 -5.19429 2.74714 0
M  V30 761 H 70.2028 -5.7656 2.01024 0
M  V30 762 H 71.6168 -4.32338 3.76506 0
M  V30 763 H 70.0138 -3.98986 4.48252 0
M  V30 764 H 71.0838 -2.63834 4.06841 0
M  V30 765 N 72.4269 -1.23603 -0.977757 0
M  V30 766 C 73.6729 -1.07129 -1.72195 0
M  V30 767 C 74.0059 0.390501 -1.90233 0
M  V30 768 O 73.2809 1.28902 -1.45653 0
M  V30 769 C 73.5639 -1.80031 -3.11867 0
M  V30 770 C 73.4169 -3.33899 -3.01383 0
M  V30 771 C 74.7359 -1.56492 -4.11337 0
M  V30 772 H 71.8549 -0.390571 -0.624999 0
M  V30 773 H 74.4969 -1.52142 -1.13811 0
M  V30 774 H 72.6469 -1.41768 -3.6171 0
M  V30 775 H 74.3189 -3.81699 -2.59043 0
M  V30 776 H 72.5619 -3.62796 -2.37827 0
M  V30 777 H 73.2329 -3.801 -4.00285 0
M  V30 778 H 75.7089 -1.89757 -3.70313 0
M  V30 779 H 74.5849 -2.09973 -5.07151 0
M  V30 780 H 74.8459 -0.500874 -4.39254 0
M  V30 781 N 73.905 1.17692 -1.04816 0
M  V30 782 C 75.145 1.89545 -0.764979 0
M  V30 783 C 75.509 1.78979 0.695028 0
M  V30 784 O 76.71 2.45613 1.09215 0
M  V30 785 C 74.981 3.35659 -1.22751 0
M  V30 786 S 76.54 4.25526 -1.07112 0
M  V30 787 H 73.358 0.654432 -0.27792 0
M  V30 788 H 75.96 1.42163 -1.34201 0
M  V30 789 H 74.664 3.40882 -2.28533 0
M  V30 790 H 74.195 3.88083 -0.644594 0
M  V30 791 H 76.21 4.962 0.00697508 0
M  V30 792 N 75.3831 0.828654 1.34056 0
M  V30 793 C 76.3461 0.259927 2.27721 0
M  V30 794 C 77.3461 -0.565478 1.50529 0
M  V30 795 O 78.5361 -0.38075 1.69988 0
M  V30 796 C 75.6681 -0.634944 3.34935 0
M  V30 797 H 76.8611 1.0863 2.79534 0
M  V30 798 H 74.4141 0.600951 1.44285 0
M  V30 799 H 75.1491 -1.48416 2.88346 0
M  V30 800 H 74.9341 -0.0444999 3.92075 0
M  V30 801 H 76.4241 -1.02648 4.04788 0
M  V30 802 N 76.8612 -1.46375 0.584142 0
M  V30 803 C 78.0862 -2.07268 0.0740405 0
M  V30 804 C 78.5112 -1.42979 -1.22223 0
M  V30 805 O 77.8692 -0.514092 -1.73859 0
M  V30 806 C 77.9172 -3.60518 -0.0767769 0
M  V30 807 O 77.0212 -3.96533 -1.13292 0
M  V30 808 H 76.3622 -0.660961 0.0634524 0
M  V30 809 H 78.8922 -1.87991 0.807492 0
M  V30 810 H 78.9022 -4.07021 -0.282489 0
M  V30 811 H 77.5772 -4.06702 0.86986 0
M  V30 812 H 76.1542 -3.61738 -0.905553 0
M  V30 813 N 78.3393 -0.321999 -1.54275 0
M  V30 814 C 79.5873 0.280489 -2.00144 0
M  V30 815 C 79.9083 1.52777 -1.21178 0
M  V30 816 O 79.1783 1.9338 -0.313187 0
M  V30 817 H 77.7583 0.106632 -0.73935 0
M  V30 818 H 80.4203 -0.438184 -1.8991 0
M  V30 819 H 79.5163 0.537972 -3.07428 0
M  V30 820 N 79.8174 1.5752 -0.0501392 0
M  V30 821 C 80.7494 2.08413 0.95376 0
M  V30 822 C 81.7624 1.01175 1.27544 0
M  V30 823 O 82.9514 1.28744 1.23641 0
M  V30 824 C 80.0514 2.51138 2.27559 0
M  V30 825 C 79.2244 3.817 2.13598 0
M  V30 826 C 78.2834 4.10749 3.28895 0
M  V30 827 O 77.3094 4.80685 3.04845 0
M  V30 828 N 78.5114 3.62579 4.5334 0
M  V30 829 H 81.2764 2.95165 0.519383 0
M  V30 830 H 78.8374 1.61327 0.136127 0
M  V30 831 H 80.8294 2.67648 3.03557 0
M  V30 832 H 79.3994 1.6964 2.62567 0
M  V30 833 H 78.6194 3.74782 1.22197 0
M  V30 834 H 79.9074 4.67201 2.01496 0
M  V30 835 H 79.3054 3.06039 4.75769 0
M  V30 836 H 77.8624 3.84329 5.26436 0
M  V30 837 N 81.2955 -0.223234 1.56011 0
M  V30 838 C 82.5445 -0.945912 1.78144 0
M  V30 839 C 82.8575 -1.85567 0.618396 0
M  V30 840 O 84.0635 -2.61688 0.723318 0
M  V30 841 C 82.5195 -1.73216 3.15475 0
M  V30 842 C 82.1275 -0.868619 4.39499 0
M  V30 843 C 83.8715 -2.44615 3.46935 0
M  V30 844 C 81.7785 -1.65212 5.67855 0
M  V30 845 H 80.7085 -0.356929 0.664167 0
M  V30 846 H 83.3595 -0.199845 1.82409 0
M  V30 847 H 81.7415 -2.52107 3.05382 0
M  V30 848 H 82.9155 -0.120366 4.60643 0
M  V30 849 H 81.2305 -0.26683 4.15544 0
M  V30 850 H 83.8275 -3.03732 4.40058 0
M  V30 851 H 84.1705 -3.17417 2.69355 0
M  V30 852 H 84.7035 -1.72715 3.58349 0
M  V30 853 H 81.4425 -0.967407 6.48322 0
M  V30 854 H 80.9625 -2.37503 5.50774 0
M  V30 855 H 82.6415 -2.21322 6.07968 0
M  V30 856 N 82.7736 -1.49793 -0.48987 0
M  V30 857 C 83.6836 -1.70036 -1.61632 0
M  V30 858 C 84.6996 -0.583102 -1.63939 0
M  V30 859 O 85.8756 -0.859169 -1.82154 0
M  V30 860 C 82.9406 -1.77277 -2.97949 0
M  V30 861 C 82.0016 -3.00918 -3.06181 0
M  V30 862 C 81.2346 -3.07804 -4.35996 0
M  V30 863 O 81.4576 -2.21982 -5.25433 0
M  V30 864 O 80.3916 -4.00369 -4.49431 0
M  V30 865 H 84.2176 -2.65486 -1.47482 0
M  V30 866 H 81.8026 -1.33666 -0.667362 0
M  V30 867 H 83.6846 -1.84329 -3.78947 0
M  V30 868 H 82.3596 -0.850076 -3.12339 0
M  V30 869 H 81.2666 -2.99377 -2.2433 0
M  V30 870 H 82.5996 -3.92704 -2.96723 0
M  V30 871 N 84.2517 0.741722 -1.39055 0
M  V30 872 C 85.2017 1.84661 -1.33732 0
M  V30 873 C 86.1857 1.59397 -0.219401 0
M  V30 874 O 87.3777 1.71015 -0.456375 0
M  V30 875 C 84.5067 3.22512 -1.17647 0
M  V30 876 C 83.5927 3.53628 -2.34112 0
M  V30 877 N 83.9837 3.55723 -3.59576 0
M  V30 878 C 82.2817 3.83956 -2.26923 0
M  V30 879 C 82.9827 3.84443 -4.36553 0
M  V30 880 N 81.9587 4.01877 -3.66055 0
M  V30 881 H 85.7607 1.84576 -2.28711 0
M  V30 882 H 83.2747 0.939647 -1.32455 0
M  V30 883 H 85.2717 4.01597 -1.11917 0
M  V30 884 H 83.9317 3.2384 -0.236124 0
M  V30 885 H 84.9427 3.37196 -3.93089 0
M  V30 886 H 81.6197 3.92929 -1.41113 0
M  V30 887 H 83.0097 3.92588 -5.45274 0
M  V30 888 N 85.7298 1.2412 0.971189 0
M  V30 889 C 86.6598 1.05508 2.08304 0
M  V30 890 C 87.6408 -0.0308864 1.70072 0
M  V30 891 O 88.8258 0.135521 1.93727 0
M  V30 892 C 85.9558 0.655365 3.4106 0
M  V30 893 C 84.9098 1.68971 3.93234 0
M  V30 894 C 84.2358 1.14516 5.22293 0
M  V30 895 C 85.5358 3.08487 4.21465 0
M  V30 896 H 87.2298 1.98507 2.24132 0
M  V30 897 H 84.7758 0.955821 1.07704 0
M  V30 898 H 86.7288 0.51217 4.18276 0
M  V30 899 H 85.4528 -0.31032 3.25122 0
M  V30 900 H 84.1118 1.82106 3.18171 0
M  V30 901 H 83.7598 0.170189 5.02712 0
M  V30 902 H 83.4598 1.83635 5.58168 0
M  V30 903 H 84.9838 1.01401 6.02121 0
M  V30 904 H 86.3978 2.98601 4.89398 0
M  V30 905 H 84.7948 3.74926 4.68562 0
M  V30 906 H 85.8648 3.56787 3.28376 0
M  V30 907 N 87.2079 -1.17134 1.05439 0
M  V30 908 C 88.4359 -1.91372 0.786414 0
M  V30 909 C 88.8509 -1.76955 -0.658202 0
M  V30 910 O 88.2079 -1.10838 -1.44987 0
M  V30 911 C 88.2589 -3.42356 1.1608 0
M  V30 912 O 87.9799 -3.56332 2.54871 0
M  V30 913 C 89.4809 -4.33663 0.919322 0
M  V30 914 H 86.7009 -0.607118 0.285743 0
M  V30 915 H 89.2449 -1.48525 1.40572 0
M  V30 916 H 87.3999 -3.82939 0.586191 0
M  V30 917 H 87.8139 -4.49896 2.69618 0
M  V30 918 H 89.2879 -5.38099 1.231 0
M  V30 919 H 89.7649 -4.38959 -0.145359 0
M  V30 920 H 90.3709 -3.98796 1.47789 0
M  V30 921 N 88.686 -0.835752 -1.33615 0
M  V30 922 C 90.097 -0.487099 -1.80234 0
M  V30 923 C 90.448 0.993627 -1.69179 0
M  V30 924 O 89.573 1.77403 -1.23924 0
M  V30 925 C 90.168 -0.877385 -3.27242 0
M  V30 926 C 88.727 -0.580915 -3.7189 0
M  V30 927 C 87.874 -1.0874 -2.5509 0
M  V30 928 H 90.825 -1.02474 -1.2118 0
M  V30 929 H 90.846 -0.186195 -3.80044 0
M  V30 930 H 90.358 -1.95512 -3.35256 0
M  V30 931 H 88.459 0.486881 -3.69405 0
M  V30 932 H 88.572 -1.13396 -4.65487 0
M  V30 933 H 86.936 -0.508392 -2.49575 0
M  V30 934 H 87.719 -2.17184 -2.65868 0
M  V30 935 N 90.1641 1.46063 -0.591896 0
M  V30 936 C 91.4131 2.01547 -0.0786637 0
M  V30 937 C 91.7261 1.46796 1.29268 0
M  V30 938 O 92.9321 1.94157 1.89777 0
M  V30 939 C 91.3881 3.59787 -0.0900024 0
M  V30 940 C 90.9961 4.23534 -1.46023 0
M  V30 941 C 92.7401 4.22895 0.368806 0
M  V30 942 C 90.6471 5.73881 -1.4288 0
M  V30 943 H 89.5771 0.753564 -0.0256388 0
M  V30 944 H 92.2281 1.677 -0.744905 0
M  V30 945 H 90.6101 3.90752 0.642586 0
M  V30 946 H 91.7841 4.04167 -2.21328 0
M  V30 947 H 90.0991 3.72558 -1.85982 0
M  V30 948 H 92.6961 5.33116 0.411258 0
M  V30 949 H 93.0391 3.9247 1.38827 0
M  V30 950 H 93.5721 3.9659 -0.31001 0
M  V30 951 H 90.3111 6.0898 -2.42536 0
M  V30 952 H 89.8311 5.95486 -0.718095 0
M  V30 953 H 91.5101 6.36776 -1.14565 0
M  V30 954 N 91.6422 0.330177 1.54103 0
M  V30 955 C 92.6052 -0.520144 2.2322 0
M  V30 956 C 93.6052 -1.03828 1.22786 0
M  V30 957 O 94.7952 -0.929652 1.4732 0
M  V30 958 C 91.9272 -1.72317 2.94142 0
M  V30 959 H 93.1202 0.0841605 2.99782 0
M  V30 960 H 90.6732 0.0813433 1.56088 0
M  V30 961 H 91.4082 -2.36653 2.21734 0
M  V30 962 H 91.1932 -1.35898 3.67796 0
M  V30 963 H 92.6832 -2.3266 3.46784 0
M  V30 964 N 93.1203 -1.57491 0.0584922 0
M  V30 965 C 94.0833 -2.1085 -0.898617 0
M  V30 966 C 95.0833 -1.02964 -1.23511 0
M  V30 967 O 96.2733 -1.29007 -1.17059 0
M  V30 968 C 93.4053 -2.59881 -2.20623 0
M  V30 969 H 94.5983 -2.96715 -0.435936 0
M  V30 970 H 92.1513 -1.55141 -0.190023 0
M  V30 971 H 92.8863 -1.77431 -2.71457 0
M  V30 972 H 92.6713 -3.38727 -1.97501 0
M  V30 973 H 94.1613 -3.01285 -2.89166 0
M  V30 974 N 94.5984 0.214957 -1.56127 0
M  V30 975 C 95.8444 0.939762 -1.79712 0
M  V30 976 C 96.1774 1.83723 -0.629247 0
M  V30 977 O 95.4524 1.90925 0.371197 0
M  V30 978 C 95.7354 1.77306 -3.13424 0
M  V30 979 C 95.5884 0.90164 -4.40671 0
M  V30 980 C 96.9074 2.74956 -3.43638 0
M  V30 981 H 94.0264 0.340214 -0.653776 0
M  V30 982 H 96.6684 0.20824 -1.88855 0
M  V30 983 H 94.8184 2.39673 -3.0576 0
M  V30 984 H 96.4904 0.294206 -4.60361 0
M  V30 985 H 94.7334 0.207368 -4.33304 0
M  V30 986 H 95.4044 1.51923 -5.30682 0
M  V30 987 H 97.8804 2.22724 -3.51473 0
M  V30 988 H 96.7564 3.30358 -4.38355 0
M  V30 989 H 97.0174 3.53023 -2.66134 0
M  V30 990 N 96.0765 1.50051 0.48192 0
M  V30 991 C 97.0395 1.67584 1.5636 0
M  V30 992 C 98.0395 0.546894 1.51214 0
M  V30 993 O 99.2295 0.813725 1.54026 0
M  V30 994 C 96.3615 1.691 2.96003 0
M  V30 995 H 97.5545 2.64078 1.42136 0
M  V30 996 H 95.1075 1.39369 0.707533 0
M  V30 997 H 95.8425 0.742589 3.15684 0
M  V30 998 H 95.6275 2.51105 3.01146 0
M  V30 999 H 97.1175 1.84656 3.74556 0
M  V30 1000 N 97.5546 -0.734337 1.39446 0
M  V30 1001 C 98.5176 -1.83004 1.37994 0
M  V30 1002 C 99.5176 -1.58397 0.276938 0
M  V30 1003 O 100.708 -1.65785 0.534875 0
M  V30 1004 C 97.8396 -3.20802 1.1532 0
M  V30 1005 H 99.0326 -1.85694 2.35494 0
M  V30 1006 H 96.5856 -0.938059 1.25021 0
M  V30 1007 H 97.3206 -3.23772 0.185036 0
M  V30 1008 H 97.1056 -3.4006 1.95197 0
M  V30 1009 H 98.5956 -4.00862 1.17046 0
M  V30 1010 N 99.0327 -1.24633 -0.964593 0
M  V30 1011 C 100.261 -1.11501 -1.74285 0
M  V30 1012 C 100.676 0.332165 -1.85855 0
M  V30 1013 O 100.033 1.22903 -1.34911 0
M  V30 1014 C 100.084 -1.75258 -3.16175 0
M  V30 1015 O 99.8047 -3.14318 -3.05182 0
M  V30 1016 C 101.306 -1.67776 -4.10324 0
M  V30 1017 H 98.5257 -0.389407 -0.546446 0
M  V30 1018 H 101.07 -1.64801 -1.21083 0
M  V30 1019 H 99.2247 -1.25954 -3.66353 0
M  V30 1020 H 99.6387 -3.4551 -3.94618 0
M  V30 1021 H 101.113 -2.17064 -5.0753 0
M  V30 1022 H 101.59 -0.639584 -4.34518 0
M  V30 1023 H 102.196 -2.16522 -3.66058 0
M  V30 1024 N 100.511 1.16574 -1.06058 0
M  V30 1025 C 101.788 1.83048 -0.689416 0
M  V30 1026 C 102.168 1.94122 0.829443 0
M  V30 1027 O 101.516 1.48249 1.7388 0
M  V30 1028 C 101.726 3.20186 -1.38859 0
M  V30 1029 C 103.074 3.95989 -1.53226 0
M  V30 1030 O 104.098 3.29696 -1.3483 0
M  V30 1031 O 102.957 5.14813 -1.83384 0
M  V30 1032 H 100.051 0.790258 -0.243764 0
M  V30 1033 H 102.597 1.23797 -1.16071 0
M  V30 1034 H 101.369 3.07146 -2.4244 0
M  V30 1035 H 100.992 3.87112 -0.907216 0
M  V30 1036 N 101.989 0.842826 1.3317 0
M  V30 1037 C 102.952 0.284065 2.27433 0
M  V30 1038 C 103.952 -0.54948 1.5112 0
M  V30 1039 O 105.142 -0.362699 1.70382 0
M  V30 1040 C 102.274 -0.599384 3.35589 0
M  V30 1041 H 103.467 1.11589 2.78366 0
M  V30 1042 H 101.02 0.616221 1.4364 0
M  V30 1043 H 101.755 -1.45349 2.89904 0
M  V30 1044 H 101.54 -0.00291266 3.921 0
M  V30 1045 H 103.03 -0.983488 4.05854 0
M  V30 1046 N 103.467 -1.45747 0.599634 0
M  V30 1047 C 104.744 -1.95585 0.0240846 0
M  V30 1048 C 105.124 -1.54217 -1.44154 0
M  V30 1049 O 104.472 -0.800903 -2.14004 0
M  V30 1050 C 104.682 -3.48344 0.21385 0
M  V30 1051 C 106.03 -4.24504 0.0904902 0
M  V30 1052 O 107.054 -3.55911 0.143558 0
M  V30 1053 O 105.913 -5.46491 -0.0310766 0
M  V30 1054 H 103.007 -0.82602 -0.0402478 0
M  V30 1055 H 105.553 -1.55951 0.669139 0
M  V30 1056 H 104.325 -3.71397 1.23206 0
M  V30 1057 H 103.948 -3.9485 -0.466842 0
M  V30 1058 N 104.945 -0.338344 -1.53925 0
M  V30 1059 C 106.194 0.260732 -2.00008 0
M  V30 1060 C 106.507 1.52073 -1.23017 0
M  V30 1061 O 107.713 2.19672 -1.5955 0
M  V30 1062 C 106.169 0.51515 -3.56194 0
M  V30 1063 C 105.777 -0.728645 -4.42035 0
M  V30 1064 C 107.521 1.07337 -4.10706 0
M  V30 1065 C 105.428 -0.445315 -5.89721 0
M  V30 1066 H 104.358 0.101205 -0.747177 0
M  V30 1067 H 107.009 -0.452866 -1.77824 0
M  V30 1068 H 105.391 1.28932 -3.74423 0
M  V30 1069 H 106.565 -1.50352 -4.35581 0
M  V30 1070 H 104.88 -1.20813 -3.98489 0
M  V30 1071 H 107.477 1.30022 -5.18651 0
M  V30 1072 H 107.82 2.0273 -3.63602 0
M  V30 1073 H 108.353 0.360034 -3.96167 0
M  V30 1074 H 105.092 -1.36883 -6.41049 0
M  V30 1075 H 104.612 0.291569 -5.99091 0
M  V30 1076 H 106.291 -0.0606218 -6.46972 0
M  V30 1077 N 106.423 1.57458 -0.0668435 0
M  V30 1078 C 107.353 2.15468 0.899764 0
M  V30 1079 C 108.334 1.08042 1.31381 0
M  V30 1080 O 109.519 1.36054 1.38574 0
M  V30 1081 C 106.649 2.71232 2.16911 0
M  V30 1082 C 105.603 3.83781 1.89463 0
M  V30 1083 C 104.929 4.26127 3.22986 0
M  V30 1084 C 106.229 5.08238 1.20381 0
M  V30 1085 H 107.923 2.96488 0.416529 0
M  V30 1086 H 105.469 1.4262 0.198908 0
M  V30 1087 H 107.422 3.10458 2.84945 0
M  V30 1088 H 106.146 1.87426 2.67468 0
M  V30 1089 H 104.805 3.45051 1.23836 0
M  V30 1090 H 104.453 3.39249 3.71374 0
M  V30 1091 H 104.153 5.01993 3.05413 0
M  V30 1092 H 105.677 4.67966 3.92225 0
M  V30 1093 H 107.091 5.44811 1.78475 0
M  V30 1094 H 105.488 5.89349 1.13083 0
M  V30 1095 H 106.558 4.84558 0.182153 0
M  V30 1096 N 107.901 -0.206675 1.56239 0
M  V30 1097 C 109.317 -0.557025 1.49564 0
M  V30 1098 C 109.517 -1.86424 0.764735 0
M  V30 1099 O 108.573 -2.50584 0.310491 0
M  V30 1100 C 109.886 -0.622478 2.94186 0
M  V30 1101 C 111.434 -0.712099 3.04792 0
M  V30 1102 C 111.909 -0.808767 4.50803 0
M  V30 1103 N 113.4 -0.8726 4.54907 0
M  V30 1104 C 114.135 -0.967365 5.65181 0
M  V30 1105 N 113.631 -1.02515 6.85173 0
M  V30 1106 N 115.424 -1.00366 5.53067 0
M  V30 1107 H 107.575 0.650943 2.02179 0
M  V30 1108 H 109.838 0.230387 0.919579 0
M  V30 1109 H 109.544 0.268727 3.50672 0
M  V30 1110 H 109.418 -1.4811 3.46905 0
M  V30 1111 H 111.805 -1.59374 2.48363 0
M  V30 1112 H 111.886 0.172489 2.55218 0
M  V30 1113 H 111.53 0.0684754 5.07854 0
M  V30 1114 H 111.46 -1.70899 4.98098 0
M  V30 1115 H 113.951 -0.837657 3.68499 0
M  V30 1116 H 114.264 -1.09765 7.64965 0
M  V30 1117 H 112.609 -0.994026 6.87855 0
M  V30 1118 H 115.8 -0.95527 4.58249 0
M  V30 1119 H 115.973 -1.07405 6.39037 0
M  V30 1120 N 109.379 -1.50304 -0.473955 0
M  V30 1121 C 110.342 -1.6841 -1.55469 0
M  V30 1122 C 111.342 -0.554905 -1.50922 0
M  V30 1123 O 112.532 -0.821882 -1.53593 0
M  V30 1124 C 109.664 -1.70667 -2.95102 0
M  V30 1125 H 110.857 -2.64828 -1.40733 0
M  V30 1126 H 108.41 -1.39742 -0.700132 0
M  V30 1127 H 109.145 -0.75932 -3.15285 0
M  V30 1128 H 108.93 -2.52698 -2.9981 0
M  V30 1129 H 110.42 -1.8664 -3.73571 0
M  V30 1130 N 110.857 0.726932 -1.39834 0
M  V30 1131 C 111.807 1.83232 -1.35683 0
M  V30 1132 C 112.791 1.59155 -0.236295 0
M  V30 1133 O 113.983 1.70522 -0.474488 0
M  V30 1134 C 111.112 3.21246 -1.21062 0
M  V30 1135 C 110.198 3.51125 -2.37849 0
M  V30 1136 N 110.589 3.51889 -3.63329 0
M  V30 1137 C 108.887 3.81527 -2.30982 0
M  V30 1138 C 109.588 3.79791 -4.40606 0
M  V30 1139 N 108.564 3.97971 -3.70297 0
M  V30 1140 H 112.366 1.8214 -2.30656 0
M  V30 1141 H 109.88 0.925545 -1.33444 0
M  V30 1142 H 111.877 4.00387 -1.16171 0
M  V30 1143 H 110.537 3.23572 -0.270458 0
M  V30 1144 H 111.548 3.33008 -3.96643 0
M  V30 1145 H 108.225 3.91411 -1.45272 0
M  V30 1146 H 109.615 3.86783 -5.49408 0
M  V30 1147 N 112.336 1.25143 0.95797 0
M  V30 1148 C 113.561 1.12521 1.74223 0
M  V30 1149 C 113.986 -0.317402 1.85403 0
M  V30 1150 O 113.344 -1.2299 1.33204 0
M  V30 1151 C 113.392 1.78062 3.1357 0
M  V30 1152 O 112.496 1.058 3.98598 0
M  V30 1153 H 111.837 0.39304 0.535178 0
M  V30 1154 H 114.367 1.65641 1.201 0
M  V30 1155 H 114.377 1.84213 3.64046 0
M  V30 1156 H 113.052 2.83021 3.04749 0
M  V30 1157 H 111.629 1.07506 3.57067 0
M  V30 1158 N 113.814 -1.1601 1.06675 0
M  V30 1159 C 114.777 -2.18724 0.685001 0
M  V30 1160 C 115.777 -1.58496 -0.271246 0
M  V30 1161 O 116.967 -1.74119 -0.0531156 0
M  V30 1162 C 114.099 -3.40899 0.00853648 0
M  V30 1163 H 115.292 -2.54011 1.59431 0
M  V30 1164 H 112.845 -1.30352 0.862441 0
M  V30 1165 H 113.58 -3.11173 -0.913337 0
M  V30 1166 H 113.365 -3.8587 0.696204 0
M  V30 1167 H 114.855 -4.16886 -0.24414 0
M  V30 1168 N 115.292 -0.849877 -1.32721 0
M  V30 1169 C 116.255 -0.296122 -2.27279 0
M  V30 1170 C 117.255 0.541458 -1.5141 0
M  V30 1171 O 118.445 0.353658 -1.70572 0
M  V30 1172 C 115.577 0.581579 -3.35902 0
M  V30 1173 H 116.77 -1.13064 -2.77771 0
M  V30 1174 H 114.323 -0.62383 -1.43311 0
M  V30 1175 H 115.058 1.43809 -2.9067 0
M  V30 1176 H 114.843 -0.0178814 -3.92096 0
M  V30 1177 H 116.333 0.961951 -4.0637 0
M  V30 1178 N 116.77 1.45427 -0.607355 0
M  V30 1179 C 117.72 2.27612 0.133038 0
M  V30 1180 C 118.704 1.37307 0.838785 0
M  V30 1181 O 119.896 1.61299 0.728813 0
M  V30 1182 C 117.025 3.24173 1.12991 0
M  V30 1183 C 116.111 4.21965 0.425011 0
M  V30 1184 N 116.502 5.02982 -0.533217 0
M  V30 1185 C 114.8 4.40899 0.672593 0
M  V30 1186 C 115.501 5.73931 -0.947518 0
M  V30 1187 N 114.477 5.42819 -0.291321 0
M  V30 1188 H 118.279 2.87649 -0.602935 0
M  V30 1189 H 115.793 1.56576 -0.431006 0
M  V30 1190 H 117.79 3.81783 1.67473 0
M  V30 1191 H 116.45 2.65696 1.86644 0
M  V30 1192 H 117.461 5.09843 -0.90995 0
M  V30 1193 H 114.138 3.93547 1.39382 0
M  V30 1194 H 115.528 6.49037 -1.73782 0
M  V30 1195 N 118.248 0.346503 1.53744 0
M  V30 1196 C 119.178 -0.501193 2.28058 0
M  V30 1197 C 120.159 -1.10014 1.29734 0
M  V30 1198 O 121.344 -1.12097 1.58581 0
M  V30 1199 C 118.474 -1.65078 3.05559 0
M  V30 1200 C 117.428 -1.18003 4.11411 0
M  V30 1201 C 116.754 -2.41837 4.76884 0
M  V30 1202 C 118.054 -0.278394 5.21558 0
M  V30 1203 H 119.748 0.11875 2.99164 0
M  V30 1204 H 117.294 0.0585531 1.43881 0
M  V30 1205 H 119.247 -2.25028 3.56287 0
M  V30 1206 H 117.971 -2.29767 2.32109 0
M  V30 1207 H 116.63 -0.603331 3.61601 0
M  V30 1208 H 116.278 -3.0494 4.00026 0
M  V30 1209 H 115.978 -2.1102 5.48402 0
M  V30 1210 H 117.502 -3.02508 5.30397 0
M  V30 1211 H 118.916 -0.784823 5.67903 0
M  V30 1212 H 117.313 -0.0619707 6.00068 0
M  V30 1213 H 118.383 0.684677 4.80042 0
M  V30 1214 N 119.726 -1.57421 0.075193 0
M  V30 1215 C 120.636 -2.1642 -0.905511 0
M  V30 1216 C 121.652 -1.12828 -1.32461 0
M  V30 1217 O 122.828 -1.45109 -1.39661 0
M  V30 1218 C 119.893 -2.71693 -2.15369 0
M  V30 1219 C 118.954 -3.90171 -1.79068 0
M  V30 1220 C 118.187 -4.42798 -2.97936 0
M  V30 1221 O 118.41 -3.94416 -4.12058 0
M  V30 1222 O 117.344 -5.34085 -2.77555 0
M  V30 1223 H 121.17 -3.00588 -0.433626 0
M  V30 1224 H 118.755 -1.48664 -0.148067 0
M  V30 1225 H 120.637 -3.07104 -2.88557 0
M  V30 1226 H 119.312 -1.90582 -2.61649 0
M  V30 1227 H 118.219 -3.59606 -1.03122 0
M  V30 1228 H 119.552 -4.72584 -1.37569 0
M  V30 1229 N 121.204 0.198386 -1.56346 0
M  V30 1230 C 122.152 1.26538 -1.95169 0
M  V30 1231 C 123.146 1.47295 -0.836685 0
M  V30 1232 O 124.352 1.48195 -1.02167 0
M  V30 1233 H 120.727 0.424744 -0.620561 0
M  V30 1234 H 122.698 0.910904 -2.84157 0
M  V30 1235 C 121.447 2.6035 -2.30463 0
M  V30 1236 H 120.77 2.45192 -3.15786 0
M  V30 1237 H 122.21 3.33762 -2.61494 0
M  V30 1238 C 120.669 3.17096 -1.13806 0
M  V30 1239 O 121.199 3.99588 -0.41135 0
M  V30 1240 N 119.405 2.75795 -0.915736 0
M  V30 1241 H 118.952 2.08816 -1.50843 0
M  V30 1242 H 118.91 3.14101 -0.136979 0
M  V30 1243 N 122.682 1.50554 0.465978 0
M  V30 1244 C 123.615 1.64436 1.58227 0
M  V30 1245 C 124.593 0.492367 1.54966 0
M  V30 1246 O 125.777 0.712536 1.74514 0
M  V30 1247 C 122.904 1.63165 2.96808 0
M  V30 1248 C 121.95 2.83987 3.18204 0
M  V30 1249 S 122.783 4.45219 2.97557 0
M  V30 1250 C 123.939 4.46649 4.3847 0
M  V30 1251 H 124.172 2.58861 1.46213 0
M  V30 1252 H 121.705 1.3988 0.653678 0
M  V30 1253 H 123.663 1.63116 3.76701 0
M  V30 1254 H 122.324 0.69967 3.06208 0
M  V30 1255 H 121.517 2.79416 4.19455 0
M  V30 1256 H 121.119 2.81629 2.46092 0
M  V30 1257 H 123.411 4.20526 5.31191 0
M  V30 1258 H 124.354 5.48295 4.48082 0
M  V30 1259 H 124.762 3.76296 4.20787 0
M  V30 1260 N 124.16 -0.719506 1.40217 0
M  V30 1261 C 125.107 -1.83359 1.40172 0
M  V30 1262 C 126.077 -1.64065 0.259206 0
M  V30 1263 O 127.262 -1.85254 0.456677 0
M  V30 1264 C 124.402 -3.2103 1.26624 0
M  V30 1265 C 123.515 -3.51923 2.50548 0
M  V30 1266 C 122.65 -4.79079 2.29471 0
M  V30 1267 C 121.689 -5.02863 3.48992 0
M  V30 1268 N 120.826 -6.2123 3.27135 0
M  V30 1269 H 125.666 -1.82733 2.35399 0
M  V30 1270 H 123.203 -0.892688 1.16917 0
M  V30 1271 H 125.161 -4.00524 1.16776 0
M  V30 1272 H 123.791 -3.20895 0.350176 0
M  V30 1273 H 122.843 -2.67014 2.70939 0
M  V30 1274 H 124.155 -3.6541 3.39525 0
M  V30 1275 H 123.309 -5.66582 2.16955 0
M  V30 1276 H 122.048 -4.67794 1.37913 0
M  V30 1277 H 121.053 -4.13816 3.6199 0
M  V30 1278 H 122.278 -5.16023 4.41472 0
M  V30 1279 H 120.224 -6.11204 2.38256 0
M  V30 1280 H 120.141 -6.35375 4.09675 0
M  V30 1281 H 121.409 -7.11532 3.18344 0
M  V30 1282 N 125.638 -1.25649 -0.95132 0
M  V30 1283 C 127.054 -1.02542 -1.223 0
M  V30 1284 C 127.254 0.255715 -1.99871 0
M  V30 1285 O 126.31 0.967558 -2.33226 0
M  V30 1286 C 127.623 -2.25065 -1.99415 0
M  V30 1287 C 129.171 -2.29861 -2.12446 0
M  V30 1288 C 129.646 -3.52048 -2.92961 0
M  V30 1289 N 131.137 -3.52465 -3.00538 0
M  V30 1290 C 131.872 -4.43672 -3.63239 0
M  V30 1291 N 131.368 -5.45157 -4.27523 0
M  V30 1292 N 133.161 -4.31346 -3.60412 0
M  V30 1293 H 125.312 -2.07951 -0.432471 0
M  V30 1294 H 127.575 -0.91339 -0.253816 0
M  V30 1295 H 127.281 -3.18194 -1.49817 0
M  V30 1296 H 127.155 -2.28502 -3.00111 0
M  V30 1297 H 129.542 -1.37252 -2.61239 0
M  V30 1298 H 129.623 -2.3044 -1.11044 0
M  V30 1299 H 129.267 -4.44981 -2.44856 0
M  V30 1300 H 129.197 -3.48715 -3.94596 0
M  V30 1301 H 131.688 -2.79056 -2.54826 0
M  V30 1302 H 132.001 -6.10958 -4.73234 0
M  V30 1303 H 130.346 -5.49025 -4.26141 0
M  V30 1304 H 133.537 -3.51288 -3.09377 0
M  V30 1305 H 133.71 -5.02624 -4.0899 0
M  V30 1306 N 127.117 1.15442 -1.07289 0
M  V30 1307 C 128.363 1.86489 -0.796846 0
M  V30 1308 C 128.696 1.82078 0.675371 0
M  V30 1309 O 127.971 1.24346 1.4956 0
M  V30 1310 C 128.254 3.35626 -1.30489 0
M  V30 1311 C 128.107 3.48673 -2.84161 0
M  V30 1312 C 129.426 4.30357 -0.920907 0
M  V30 1313 H 126.545 0.677144 -0.290939 0
M  V30 1314 H 129.187 1.35633 -1.33056 0
M  V30 1315 H 127.337 3.79068 -0.850883 0
M  V30 1316 H 129.009 3.14099 -3.37846 0
M  V30 1317 H 127.252 2.90253 -3.22391 0
M  V30 1318 H 127.923 4.53453 -3.14777 0
M  V30 1319 H 130.399 3.94871 -1.3121 0
M  V30 1320 H 129.275 5.33193 -1.30372 0
M  V30 1321 H 129.536 4.4176 0.173226 0
M  V30 1322 N 128.595 0.856903 1.32268 0
M  V30 1323 C 129.82 0.474569 2.01897 0
M  V30 1324 C 130.245 -0.921766 1.63967 0
M  V30 1325 O 129.603 -1.60589 0.84148 0
M  V30 1326 C 129.651 0.623799 3.55164 0
M  V30 1327 O 128.755 -0.342459 4.10976 0
M  V30 1328 H 128.096 0.190422 0.63611 0
M  V30 1329 H 130.626 1.15672 1.68764 0
M  V30 1330 H 130.636 0.512169 4.04773 0
M  V30 1331 H 129.311 1.64202 3.82113 0
M  V30 1332 H 127.888 -0.18688 3.72431 0
M  V30 1333 N 130.073 -1.45103 0.615059 0
M  V30 1334 C 131.021 -2.32331 -0.111791 0
M  V30 1335 C 132.015 -1.46409 -0.852102 0
M  V30 1336 O 133.221 -1.62849 -0.766821 0
M  V30 1337 H 129.596 -0.749993 -0.0549072 0
M  V30 1338 H 131.567 -2.91407 0.642225 0
M  V30 1339 C 130.316 -3.3015 -1.09071 0
M  V30 1340 H 129.639 -3.96265 -0.530485 0
M  V30 1341 H 131.079 -3.93898 -1.56908 0
M  V30 1342 C 129.538 -2.57875 -2.168 0
M  V30 1343 O 130.068 -2.36567 -3.24652 0
M  V30 1344 N 128.274 -2.17884 -1.92289 0
M  V30 1345 H 127.821 -2.35413 -1.04587 0
M  V30 1346 H 127.779 -1.6985 -2.64572 0
M  V30 1347 N 131.551 -0.354651 -1.53558 0
M  V30 1348 C 132.481 0.489091 -2.2832 0
M  V30 1349 C 133.462 1.09324 -1.30316 0
M  V30 1350 O 134.647 1.11255 -1.59173 0
M  V30 1351 C 131.777 1.63456 -3.0643 0
M  V30 1352 C 130.731 1.1582 -4.12031 0
M  V30 1353 C 130.057 2.39305 -4.7816 0
M  V30 1354 C 131.357 0.250731 -5.21698 0
M  V30 1355 H 133.051 -0.134614 -2.99097 0
M  V30 1356 H 130.597 -0.0661826 -1.43848 0
M  V30 1357 H 132.55 2.23136 -3.57475 0
M  V30 1358 H 131.274 2.28533 -2.33325 0
M  V30 1359 H 129.933 0.584146 -3.61916 0
M  V30 1360 H 129.581 3.02814 -4.01637 0
M  V30 1361 H 129.281 2.08109 -5.49513 0
M  V30 1362 H 130.805 2.99691 -5.31994 0
M  V30 1363 H 132.219 0.754695 -5.68311 0
M  V30 1364 H 130.616 0.0301468 -6.00092 0
M  V30 1365 H 131.686 -0.710125 -4.79672 0
M  V30 1366 N 133.029 1.57378 -0.0835403 0
M  V30 1367 C 134.44 1.81261 0.447358 0
M  V30 1368 C 134.791 0.998331 1.68902 0
M  V30 1369 O 133.916 0.224282 2.15235 0
M  V30 1370 C 134.511 3.28767 0.818386 0
M  V30 1371 C 133.07 3.53455 1.29409 0
M  V30 1372 C 132.217 2.75831 0.285024 0
M  V30 1373 H 135.168 1.5566 -0.309115 0
M  V30 1374 H 135.189 3.41459 1.67887 0
M  V30 1375 H 134.701 3.88006 -0.0855019 0
M  V30 1376 H 132.802 2.99534 2.21608 0
M  V30 1377 H 132.915 4.62128 1.2639 0
M  V30 1378 H 131.279 2.42947 0.764767 0
M  V30 1379 H 132.062 3.37813 -0.611341 0
M  V30 1380 N 134.507 -0.190092 1.56449 0
M  V30 1381 C 135.735 -0.925772 1.85033 0
M  V30 1382 C 136.15 -1.76638 0.666658 0
M  V30 1383 O 135.507 -1.78822 -0.364565 0
M  V30 1384 C 135.558 -1.81786 3.12468 0
M  V30 1385 O 135.279 -1.01118 4.26271 0
M  V30 1386 C 136.78 -2.6648 3.54265 0
M  V30 1387 H 134 -0.269872 0.614337 0
M  V30 1388 H 136.544 -0.195837 2.0356 0
M  V30 1389 H 134.699 -2.50136 2.95822 0
M  V30 1390 H 135.113 -1.61956 4.98869 0
M  V30 1391 H 136.587 -3.24722 4.46385 0
M  V30 1392 H 137.064 -3.40434 2.77491 0
M  V30 1393 H 137.67 -2.03493 3.73458 0
M  V30 1394 N 135.985 -1.50799 -0.457987 0
M  V30 1395 C 137.233 -1.62121 -1.2067 0
M  V30 1396 C 137.554 -0.329793 -1.92191 0
M  V30 1397 O 136.824 0.653409 -1.84682 0
M  V30 1398 H 135.404 -0.597441 -0.448411 0
M  V30 1399 H 138.066 -1.87637 -0.527096 0
M  V30 1400 H 137.162 -2.43882 -1.94751 0
M  V30 1401 N 137.463 0.71206 -1.40597 0
M  V30 1402 C 138.711 1.46907 -1.38791 0
M  V30 1403 C 139.032 1.94998 0.00780391 0
M  V30 1404 O 138.302 1.70587 0.963174 0
M  V30 1405 H 136.882 0.545043 -0.51082 0
M  V30 1406 H 139.544 0.843882 -1.75683 0
M  V30 1407 H 138.64 2.34021 -2.06496 0
M  V30 1408 N 138.941 1.26152 0.944643 0
M  V30 1409 C 140.218 1.02247 1.66748 0
M  V30 1410 C 140.598 -0.448202 2.06287 0
M  V30 1411 O 139.946 -1.42779 1.78399 0
M  V30 1412 C 140.156 1.96788 2.88228 0
M  V30 1413 C 141.504 2.25201 3.59958 0
M  V30 1414 O 142.528 1.94626 2.98327 0
M  V30 1415 O 141.387 2.77242 4.70956 0
M  V30 1416 H 138.481 0.388517 0.730057 0
M  V30 1417 H 141.027 1.37348 0.99668 0
M  V30 1418 H 139.799 2.96047 2.55875 0
M  V30 1419 H 139.422 1.62145 3.63035 0
M  V30 1420 N 140.419 -1.14872 1.07899 0
M  V30 1421 C 141.647 -1.89661 0.82683 0
M  V30 1422 C 142.062 -1.78312 -0.620519 0
M  V30 1423 O 141.419 -1.13888 -1.42604 0
M  V30 1424 C 141.47 -3.39817 1.23316 0
M  V30 1425 O 141.191 -3.50845 2.62372 0
M  V30 1426 C 142.692 -4.31615 1.0111 0
M  V30 1427 H 139.912 -0.60092 0.298557 0
M  V30 1428 H 142.456 -1.4551 1.43691 0
M  V30 1429 H 140.611 -3.8161 0.667286 0
M  V30 1430 H 141.025 -4.44076 2.79101 0
M  V30 1431 H 142.499 -5.35367 1.34486 0
M  V30 1432 H 142.976 -4.39169 -0.0522168 0
M  V30 1433 H 143.582 -3.95572 1.56215 0
M  V30 1434 N 141.898 -0.863906 -1.31812 0
M  V30 1435 C 143.146 -0.470904 -1.96537 0
M  V30 1436 C 143.467 0.978771 -1.68657 0
M  V30 1437 O 142.737 1.6853 -0.998717 0
M  V30 1438 H 141.317 -0.171148 -0.72713 0
M  V30 1439 H 143.979 -1.10236 -1.60729 0
M  V30 1440 H 143.075 -0.623616 -3.05806 0
M  V30 1441 N 143.376 1.44774 -0.622745 0
M  V30 1442 C 144.653 1.95522 -0.0551974 0
M  V30 1443 C 145.033 1.5649 1.41683 0
M  V30 1444 O 144.381 0.834848 2.12703 0
M  V30 1445 C 144.591 3.4796 -0.269242 0
M  V30 1446 C 145.939 4.24306 -0.158014 0
M  V30 1447 O 146.963 3.55637 -0.200162 0
M  V30 1448 O 145.822 5.46471 -0.0558693 0
M  V30 1449 H 142.916 0.826556 0.0271015 0
M  V30 1450 H 145.462 1.54866 -0.693864 0
M  V30 1451 H 144.234 3.6939 -1.29099 0
M  V30 1452 H 143.857 3.95543 0.403966 0
M  V30 1453 N 144.854 0.36279 1.53368 0
M  V30 1454 C 146.102 -0.227326 2.00817 0
M  V30 1455 C 146.423 -1.49511 1.25186 0
M  V30 1456 O 145.693 -1.92482 0.364348 0
M  V30 1457 H 144.273 -0.0869923 0.741917 0
M  V30 1458 H 146.935 0.488381 1.88682 0
M  V30 1459 H 146.031 -0.456273 3.08747 0
M  V30 1460 N 146.332 -1.57332 0.0918853 0
M  V30 1461 C 147.581 -1.93412 -0.572249 0
M  V30 1462 C 147.894 -0.975515 -1.69538 0
M  V30 1463 O 149.1 -1.22991 -2.42045 0
M  V30 1464 C 147.556 -3.43648 -1.0693 0
M  V30 1465 C 147.164 -4.47994 0.0239049 0
M  V30 1466 C 148.908 -3.88695 -1.70635 0
M  V30 1467 C 146.815 -5.89381 -0.488319 0
M  V30 1468 H 145.745 -0.721939 -0.217532 0
M  V30 1469 H 148.396 -1.82735 0.167369 0
M  V30 1470 H 146.778 -3.49466 -1.8625 0
M  V30 1471 H 147.952 -4.53815 0.799277 0
M  V30 1472 H 146.267 -4.12536 0.565946 0
M  V30 1473 H 148.864 -4.91725 -2.10025 0
M  V30 1474 H 149.207 -3.27166 -2.57426 0
M  V30 1475 H 149.74 -3.85564 -0.979023 0
M  V30 1476 H 146.479 -6.54602 0.342906 0
M  V30 1477 H 145.999 -5.87037 -1.23077 0
M  V30 1478 H 147.678 -6.39863 -0.958317 0
M  V30 1479 N 147.81 0.181792 -1.56548 0
M  V30 1480 C 149.038 0.915947 -1.85521 0
M  V30 1481 C 149.453 1.76282 -0.676016 0
M  V30 1482 O 148.81 1.79012 0.355077 0
M  V30 1483 C 148.861 1.80126 -3.13427 0
M  V30 1484 O 148.582 0.988562 -4.26801 0
M  V30 1485 C 150.083 2.64597 -3.55673 0
M  V30 1486 H 147.303 0.26661 -0.61576 0
M  V30 1487 H 149.847 0.185039 -2.03661 0
M  V30 1488 H 148.002 2.48563 -2.97145 0
M  V30 1489 H 148.416 1.59308 -4.99721 0
M  V30 1490 H 149.89 3.2235 -4.48101 0
M  V30 1491 H 150.367 3.38958 -2.79292 0
M  V30 1492 H 150.973 2.0151 -3.74532 0
M  V30 1493 N 149.288 1.51039 0.449983 0
M  V30 1494 C 150.221 1.66105 1.56474 0
M  V30 1495 C 151.199 0.508776 1.54435 0
M  V30 1496 O 152.383 0.731005 1.73749 0
M  V30 1497 C 149.51 1.66304 2.9506 0
M  V30 1498 C 148.556 2.87346 3.15174 0
M  V30 1499 S 149.389 4.4835 2.92818 0
M  V30 1500 C 150.545 4.51274 4.33708 0
M  V30 1501 H 150.778 2.60397 1.43459 0
M  V30 1502 H 148.311 1.40565 0.638805 0
M  V30 1503 H 150.269 1.67103 3.74949 0
M  V30 1504 H 148.93 0.732108 3.05449 0
M  V30 1505 H 148.123 2.83849 4.16468 0
M  V30 1506 H 147.725 2.84223 2.43091 0
M  V30 1507 H 150.017 4.26136 5.26701 0
M  V30 1508 H 150.96 5.53017 4.42242 0
M  V30 1509 H 151.368 3.80738 4.16772 0
M  V30 1510 N 150.766 -0.704594 1.40972 0
M  V30 1511 C 151.699 -1.82861 1.36518 0
M  V30 1512 C 152.677 -1.6091 0.23382 0
M  V30 1513 O 153.861 -1.83778 0.419271 0
M  V30 1514 C 150.988 -3.1939 1.12729 0
M  V30 1515 C 150.034 -3.60148 2.28463 0
M  V30 1516 S 150.867 -3.65994 3.90907 0
M  V30 1517 C 152.023 -5.05264 3.69403 0
M  V30 1518 H 152.256 -1.86361 2.3164 0
M  V30 1519 H 149.789 -0.872439 1.27389 0
M  V30 1520 H 151.747 -3.98211 0.996893 0
M  V30 1521 H 150.408 -3.1351 0.192427 0
M  V30 1522 H 149.601 -4.59309 2.07489 0
M  V30 1523 H 149.203 -2.88612 2.37863 0
M  V30 1524 H 151.495 -5.92504 3.28551 0
M  V30 1525 H 152.438 -5.31278 4.68134 0
M  V30 1526 H 152.846 -4.76377 3.02862 0
M  V30 1527 N 152.244 -1.26651 -0.937939 0
M  V30 1528 C 153.492 -1.12165 -1.68118 0
M  V30 1529 C 153.813 0.334983 -1.92101 0
M  V30 1530 O 153.083 1.23583 -1.52 0
M  V30 1531 H 151.663 -0.412093 -0.623048 0
M  V30 1532 H 154.325 -1.59027 -1.12678 0
M  V30 1533 H 153.421 -1.64289 -2.6536 0
M  V30 1534 N 153.722 1.14298 -1.08507 0
M  V30 1535 C 154.67 2.21483 -0.710483 0
M  V30 1536 C 155.664 1.66998 0.284234 0
M  V30 1537 O 156.87 1.79401 0.146692 0
M  V30 1538 H 153.245 0.721578 -0.211729 0
M  V30 1539 H 155.216 2.50348 -1.62384 0
M  V30 1540 C 153.965 3.4743 -0.137007 0
M  V30 1541 H 153.288 3.89686 -0.893592 0
M  V30 1542 H 154.728 4.2391 0.0872789 0
M  V30 1543 C 153.187 3.17548 1.12538 0
M  V30 1544 O 153.717 3.35437 2.21009 0
M  V30 1545 N 151.923 2.71499 1.03617 0
M  V30 1546 H 151.47 2.57143 0.153403 0
M  V30 1547 H 151.428 2.51881 1.88158 0
M  V30 1548 N 155.201 0.870884 1.31352 0
M  V30 1549 C 156.449 0.48132 1.96285 0
M  V30 1550 C 156.77 -0.969813 1.69173 0
M  V30 1551 O 156.04 -1.67998 1.00764 0
M  V30 1552 H 154.62 0.175002 0.726212 0
M  V30 1553 H 157.282 1.11087 1.60143 0
M  V30 1554 H 156.378 0.639825 3.05471 0
M  V30 1555 N 156.679 -1.44442 0.630414 0
M  V30 1556 C 157.927 -2.01653 0.134351 0
M  V30 1557 C 158.248 -1.49836 -1.24796 0
M  V30 1558 O 157.518 -0.701684 -1.82902 0
M  V30 1559 H 156.098 -0.74554 0.0466769 0
M  V30 1560 H 158.76 -1.76952 0.816955 0
M  V30 1561 H 157.856 -3.11935 0.101498 0
M  V30 1562 N 158.157 -0.370918 -1.53173 0
M  V30 1563 C 159.087 0.464847 -2.28826 0
M  V30 1564 C 160.068 1.07936 -1.31468 0
M  V30 1565 O 161.253 1.0956 -1.60344 0
M  V30 1566 C 158.383 1.60196 -3.08147 0
M  V30 1567 C 157.337 1.11443 -4.13237 0
M  V30 1568 C 156.663 2.3422 -4.80672 0
M  V30 1569 C 157.963 0.195384 -5.21934 0
M  V30 1570 H 159.657 -0.166329 -2.98938 0
M  V30 1571 H 157.203 -0.0814359 -1.4377 0
M  V30 1572 H 159.156 2.19332 -3.59822 0
M  V30 1573 H 157.88 2.26045 -2.35735 0
M  V30 1574 H 156.539 0.545727 -3.62515 0
M  V30 1575 H 156.187 2.98537 -4.04827 0
M  V30 1576 H 155.887 2.02269 -5.51689 0
M  V30 1577 H 157.411 2.94032 -5.35143 0
M  V30 1578 H 158.825 0.694375 -5.69079 0
M  V30 1579 H 157.222 -0.0335027 -6.00091 0
M  V30 1580 H 158.292 -0.760961 -4.78892 0
M  V30 1581 N 159.635 1.57281 -0.100228 0
M  V30 1582 C 160.545 2.17833 0.870965 0
M  V30 1583 C 161.561 1.14921 1.30649 0
M  V30 1584 O 162.737 1.47313 1.37335 0
M  V30 1585 C 159.802 2.75085 2.1102 0
M  V30 1586 C 158.863 3.9297 1.72838 0
M  V30 1587 C 158.096 4.47482 2.90854 0
M  V30 1588 O 158.319 4.00922 4.05731 0
M  V30 1589 O 157.253 5.38433 2.69023 0
M  V30 1590 H 161.079 3.0124 0.38575 0
M  V30 1591 H 158.664 1.48881 0.124397 0
M  V30 1592 H 160.546 3.11656 2.83634 0
M  V30 1593 H 159.221 1.94721 2.58584 0
M  V30 1594 H 158.128 3.61201 0.973883 0
M  V30 1595 H 159.461 4.74713 1.30033 0
M  V30 1596 N 161.113 -0.173488 1.56642 0
M  V30 1597 C 162.362 -0.888758 1.81063 0
M  V30 1598 C 162.675 -1.83506 0.67712 0
M  V30 1599 O 163.881 -2.59254 0.806206 0
M  V30 1600 C 162.337 -1.63091 3.20826 0
M  V30 1601 C 161.945 -0.728357 4.4204 0
M  V30 1602 C 163.689 -2.33454 3.54541 0
M  V30 1603 C 161.596 -1.47062 5.72823 0
M  V30 1604 H 160.526 -0.335618 0.675186 0
M  V30 1605 H 163.177 -0.141712 1.82952 0
M  V30 1606 H 161.559 -2.42263 3.13248 0
M  V30 1607 H 162.733 0.0262449 4.60793 0
M  V30 1608 H 161.048 -0.134492 4.16183 0
M  V30 1609 H 163.645 -2.89578 4.49498 0
M  V30 1610 H 163.988 -3.08687 2.79317 0
M  V30 1611 H 164.521 -1.61227 3.63663 0
M  V30 1612 H 161.26 -0.760658 6.51072 0
M  V30 1613 H 160.78 -2.1986 5.58052 0
M  V30 1614 H 162.459 -2.01868 6.14702 0
M  V30 1615 N 162.591 -1.51276 -0.441967 0
M  V30 1616 C 163.554 -1.7167 -1.51862 0
M  V30 1617 C 164.554 -0.586793 -1.49711 0
M  V30 1618 O 165.744 -0.854276 -1.51815 0
M  V30 1619 C 162.876 -1.76889 -2.91416 0
M  V30 1620 H 164.069 -2.67754 -1.35084 0
M  V30 1621 H 161.622 -1.41196 -0.670333 0
M  V30 1622 H 162.357 -0.826026 -3.13604 0
M  V30 1623 H 162.142 -2.59001 -2.94382 0
M  V30 1624 H 163.632 -1.94522 -3.69528 0
M  V30 1625 N 164.069 0.697108 -1.41344 0
M  V30 1626 C 165.485 1.00751 -1.2378 0
M  V30 1627 C 165.685 2.01105 -0.126066 0
M  V30 1628 O 164.741 2.47295 0.51004 0
M  V30 1629 C 166.054 1.53359 -2.58653 0
M  V30 1630 C 167.602 1.6525 -2.65822 0
M  V30 1631 C 168.077 2.2126 -4.01009 0
M  V30 1632 N 169.568 2.28622 -4.02847 0
M  V30 1633 C 170.303 2.72984 -5.04249 0
M  V30 1634 N 169.799 3.16962 -6.16041 0
M  V30 1635 N 171.592 2.72534 -4.91611 0
M  V30 1636 H 163.743 0.0322662 -2.12375 0
M  V30 1637 H 166.006 0.0768853 -0.944877 0
M  V30 1638 H 165.712 0.870773 -3.4075 0
M  V30 1639 H 165.586 2.51597 -2.81032 0
M  V30 1640 H 167.973 2.30644 -1.84086 0
M  V30 1641 H 168.054 0.655614 -2.47256 0
M  V30 1642 H 167.698 1.56482 -4.83193 0
M  V30 1643 H 167.628 3.21698 -4.16915 0
M  V30 1644 H 170.119 1.97585 -3.22131 0
M  V30 1645 H 170.432 3.49434 -6.89287 0
M  V30 1646 H 168.777 3.14875 -6.1958 0
M  V30 1647 H 171.968 2.37525 -4.0336 0
M  V30 1648 H 172.141 3.06789 -5.70775 0
M  V30 1649 N 165.547 1.27147 0.931209 0
M  V30 1650 C 166.477 1.12081 2.04842 0
M  V30 1651 C 167.458 0.0232364 1.70084 0
M  V30 1652 O 168.643 0.197085 1.93197 0
M  V30 1653 C 165.773 0.76354 3.38803 0
M  V30 1654 C 164.727 1.81396 3.87659 0
M  V30 1655 C 164.053 1.31075 5.18385 0
M  V30 1656 C 165.353 3.21739 4.11438 0
M  V30 1657 H 167.047 2.05537 2.17703 0
M  V30 1658 H 164.593 0.989603 1.04608 0
M  V30 1659 H 166.546 0.644982 4.16435 0
M  V30 1660 H 165.27 -0.206727 3.25945 0
M  V30 1661 H 163.929 1.92136 3.12217 0
M  V30 1662 H 163.577 0.330037 5.01916 0
M  V30 1663 H 163.277 2.013 5.52044 0
M  V30 1664 H 164.801 1.20506 5.98591 0
M  V30 1665 H 166.215 3.14019 4.79651 0
M  V30 1666 H 164.612 3.89644 4.56397 0
M  V30 1667 H 165.682 3.67054 3.16859 0
M  V30 1668 N 167.025 -1.13721 1.09112 0
M  V30 1669 C 168.25 -1.89314 0.847053 0
M  V30 1670 C 168.675 -1.78416 -0.595774 0
M  V30 1671 O 168.033 -1.12942 -1.41823 0
M  V30 1672 C 168.081 -3.3701 1.28284 0
M  V30 1673 O 167.185 -4.10054 0.439267 0
M  V30 1674 H 166.526 -0.588745 0.307044 0
M  V30 1675 H 169.056 -1.43902 1.45442 0
M  V30 1676 H 169.066 -3.87834 1.26683 0
M  V30 1677 H 167.741 -3.4426 2.33363 0
M  V30 1678 H 166.318 -3.69266 0.519312 0
M  V30 1679 N 168.503 -0.877838 -1.30888 0
M  V30 1680 C 169.466 -0.344265 -2.266 0
M  V30 1681 C 170.466 0.50922 -1.52524 0
M  V30 1682 O 171.656 0.317398 -1.71284 0
M  V30 1683 C 168.788 0.510198 -3.37061 0
M  V30 1684 H 169.981 -1.1893 -2.7531 0
M  V30 1685 H 167.534 -0.654088 -1.41956 0
M  V30 1686 H 168.269 1.37612 -2.93655 0
M  V30 1687 H 168.054 -0.101047 -3.9197 0
M  V30 1688 H 169.544 0.875537 -4.08319 0
M  V30 1689 N 169.982 1.44106 -0.638065 0
M  V30 1690 C 171.23 2.01579 -0.145043 0
M  V30 1691 C 171.551 1.50496 1.24 0
M  V30 1692 O 170.821 0.711374 1.82527 0
M  V30 1693 H 169.401 0.745282 -0.05063 0
M  V30 1694 H 172.063 1.76516 -0.826327 0
M  V30 1695 H 171.159 3.11877 -0.118039 0
M  V30 1696 N 171.46 0.379036 1.52974 0
M  V30 1697 C 172.708 -0.206014 2.01047 0
M  V30 1698 C 173.029 -1.48175 1.26765 0
M  V30 1699 O 172.299 -1.92085 0.384743 0
M  V30 1700 H 170.879 -0.0791184 0.742798 0
M  V30 1701 H 173.541 0.508366 1.88153 0
M  V30 1702 H 172.637 -0.423501 3.09213 0
M  V30 1703 N 172.938 -1.57226 0.108567 0
M  V30 1704 C 173.901 -2.13602 -0.831082 0
M  V30 1705 C 174.901 -1.06841 -1.20173 0
M  V30 1706 O 176.091 -1.32666 -1.12895 0
M  V30 1707 C 173.223 -2.66769 -2.12243 0
M  V30 1708 H 174.416 -2.97951 -0.341317 0
M  V30 1709 H 171.969 -1.55667 -0.14057 0
M  V30 1710 H 172.704 -1.85977 -2.65675 0
M  V30 1711 H 172.489 -3.44839 -1.86625 0
M  V30 1712 H 173.979 -3.10332 -2.79435 0
M  V30 1713 N 174.416 0.165178 -1.56732 0
M  V30 1714 C 175.662 0.882112 -1.82611 0
M  V30 1715 C 175.995 1.81628 -0.687378 0
M  V30 1716 O 175.27 1.92009 0.310267 0
M  V30 1717 C 175.553 1.67245 -3.18906 0
M  V30 1718 C 175.406 0.760987 -4.43316 0
M  V30 1719 C 176.725 2.63884 -3.52212 0
M  V30 1720 H 173.844 0.319242 -0.664269 0
M  V30 1721 H 176.486 0.148052 -1.89422 0
M  V30 1722 H 174.636 2.29824 -3.1323 0
M  V30 1723 H 176.308 0.147596 -4.61064 0
M  V30 1724 H 174.551 0.0694102 -4.33744 0
M  V30 1725 H 175.222 1.34962 -5.35247 0
M  V30 1726 H 177.698 2.11429 -3.58381 0
M  V30 1727 H 176.574 3.16245 -4.48643 0
M  V30 1728 H 176.835 3.44377 -2.77231 0
M  V30 1729 N 175.894 1.51508 0.433938 0
M  V30 1730 C 176.804 1.75917 1.5521 0
M  V30 1731 C 177.82 0.643545 1.61662 0
M  V30 1732 O 178.996 0.926183 1.7884 0
M  V30 1733 C 176.061 1.88213 2.91164 0
M  V30 1734 C 175.122 3.12074 2.94802 0
M  V30 1735 C 174.355 3.23774 4.24271 0
M  V30 1736 O 174.578 2.4133 5.16833 0
M  V30 1737 O 173.512 4.16774 4.34262 0
M  V30 1738 H 177.338 2.70777 1.37527 0
M  V30 1739 H 174.923 1.36051 0.617293 0
M  V30 1740 H 176.805 1.98267 3.71845 0
M  V30 1741 H 175.48 0.965413 3.08968 0
M  V30 1742 H 174.387 3.07497 2.13065 0
M  V30 1743 H 175.72 4.03446 2.81943 0
M  V30 1744 N 177.372 -0.689602 1.41712 0
M  V30 1745 C 178.302 -1.81577 1.46806 0
M  V30 1746 C 179.283 -1.66945 0.326105 0
M  V30 1747 O 180.468 -1.86588 0.538377 0
M  V30 1748 C 177.598 -3.19762 1.35535 0
M  V30 1749 C 176.552 -3.49107 2.47605 0
M  V30 1750 C 175.878 -4.86711 2.21397 0
M  V30 1751 C 177.178 -3.47483 3.89939 0
M  V30 1752 H 178.872 -1.7757 2.41058 0
M  V30 1753 H 176.418 -0.852887 1.16025 0
M  V30 1754 H 178.371 -3.98263 1.3771 0
M  V30 1755 H 177.095 -3.24409 0.377708 0
M  V30 1756 H 175.754 -2.72959 2.44722 0
M  V30 1757 H 175.402 -4.8799 1.21961 0
M  V30 1758 H 175.102 -5.0731 2.96497 0
M  V30 1759 H 176.626 -5.67515 2.25297 0
M  V30 1760 H 178.04 -4.1598 3.94505 0
M  V30 1761 H 176.437 -3.79615 4.64771 0
M  V30 1762 H 177.507 -2.46341 4.17665 0
M  V30 1763 N 178.85 -1.27639 -0.924453 0
M  V30 1764 C 180.078 -1.16989 -1.70649 0
M  V30 1765 C 180.493 0.272869 -1.86818 0
M  V30 1766 O 179.85 1.18549 -1.38753 0
M  V30 1767 C 179.901 -1.85229 -3.10439 0
M  V30 1768 O 179.622 -3.23868 -2.95028 0
M  V30 1769 C 181.123 -1.80746 -4.04779 0
M  V30 1770 H 178.343 -0.406595 -0.53378 0
M  V30 1771 H 180.887 -1.68569 -1.15778 0
M  V30 1772 H 179.042 -1.37545 -3.6216 0
M  V30 1773 H 179.456 -3.57889 -3.83426 0
M  V30 1774 H 180.93 -2.33101 -5.00368 0
M  V30 1775 H 181.407 -0.777499 -4.32263 0
M  V30 1776 H 182.013 -2.28059 -3.58984 0
M  V30 1777 N 180.328 1.1314 -1.09713 0
M  V30 1778 C 181.744 1.36477 -0.827423 0
M  V30 1779 C 181.944 1.93654 0.556817 0
M  V30 1780 O 181 2.15791 1.31112 0
M  V30 1781 C 182.313 2.31334 -1.92106 0
M  V30 1782 C 183.861 2.44943 -1.94864 0
M  V30 1783 C 184.336 3.4311 -3.0338 0
M  V30 1784 N 185.827 3.50662 -3.02639 0
M  V30 1785 C 186.562 4.2651 -3.83246 0
M  V30 1786 N 186.058 5.05485 -4.73768 0
M  V30 1787 N 187.851 4.2184 -3.71493 0
M  V30 1788 H 180.002 0.743807 -1.9895 0
M  V30 1789 H 182.265 0.389823 -0.864143 0
M  V30 1790 H 181.971 1.96483 -2.91698 0
M  V30 1791 H 181.845 3.31381 -1.80184 0
M  V30 1792 H 184.232 2.79079 -0.959099 0
M  V30 1793 H 184.313 1.4481 -2.10864 0
M  V30 1794 H 183.957 3.09704 -4.02549 0
M  V30 1795 H 183.887 4.43055 -2.84622 0
M  V30 1796 H 186.378 2.94315 -2.37039 0
M  V30 1797 H 186.691 5.60675 -5.3185 0
M  V30 1798 H 185.036 5.04708 -4.77802 0
M  V30 1799 H 188.227 3.5922 -3.00131 0
M  V30 1800 H 188.4 4.80697 -4.3455 0
M  V30 1801 N 181.806 0.884767 1.30421 0
M  V30 1802 C 183.222 0.57874 1.48737 0
M  V30 1803 C 183.422 -0.883567 1.81095 0
M  V30 1804 O 182.478 -1.6648 1.89844 0
M  V30 1805 C 183.791 1.49171 2.61091 0
M  V30 1806 C 185.339 1.49532 2.74971 0
M  V30 1807 C 185.814 2.39421 3.90438 0
M  V30 1808 N 187.305 2.37383 3.97748 0
M  V30 1809 C 188.04 3.03647 4.86401 0
M  V30 1810 N 187.536 3.79136 5.79852 0
M  V30 1811 N 189.329 2.9288 4.79768 0
M  V30 1812 H 181.48 1.83075 1.0769 0
M  V30 1813 H 183.743 0.783637 0.533495 0
M  V30 1814 H 183.449 2.53291 2.44001 0
M  V30 1815 H 183.323 1.20113 3.57565 0
M  V30 1816 H 185.71 0.46163 2.91467 0
M  V30 1817 H 185.791 1.8262 1.79119 0
M  V30 1818 H 185.435 3.42874 3.74699 0
M  V30 1819 H 185.365 2.03649 4.85628 0
M  V30 1820 H 187.856 1.82525 3.30897 0
M  V30 1821 H 188.169 4.26789 6.4426 0
M  V30 1822 H 186.514 3.83243 5.79784 0
M  V30 1823 H 189.705 2.33433 4.05742 0
M  V30 1824 H 189.878 3.448 5.4865 0
M  V30 1825 N 183.284 -1.43765 0.645699 0
M  V30 1826 C 184.53 -2.02197 0.156271 0
M  V30 1827 C 184.863 -1.50776 -1.22393 0
M  V30 1828 O 184.138 -0.697771 -1.81553 0
M  V30 1829 C 184.421 -3.59749 0.158872 0
M  V30 1830 C 184.274 -4.21419 1.57245 0
M  V30 1831 C 185.593 -4.37149 -0.50879 0
M  V30 1832 H 182.712 -0.734694 0.0582602 0
M  V30 1833 H 185.354 -1.71157 0.824951 0
M  V30 1834 H 183.504 -3.86325 -0.410525 0
M  V30 1835 H 185.176 -4.059 2.19186 0
M  V30 1836 H 183.419 -3.78356 2.122 0
M  V30 1837 H 184.09 -5.30482 1.52619 0
M  V30 1838 H 186.566 -4.16093 -0.024412 0
M  V30 1839 H 185.442 -5.4683 -0.476213 0
M  V30 1840 H 185.703 -4.12839 -1.58165 0
M  V30 1841 N 184.763 -0.387143 -1.52771 0
M  V30 1842 C 185.726 0.436939 -2.24997 0
M  V30 1843 C 186.726 0.991991 -1.26555 0
M  V30 1844 O 187.916 0.874335 -1.50669 0
M  V30 1845 C 185.048 1.61281 -3.00335 0
M  V30 1846 H 186.241 -0.195365 -2.99263 0
M  V30 1847 H 183.794 -0.139218 -1.55679 0
M  V30 1848 H 184.529 2.2826 -2.30364 0
M  V30 1849 H 184.314 1.22154 -3.72587 0
M  V30 1850 H 185.804 2.19629 -3.5518 0
M  V30 1851 N 186.241 1.57166 -0.116904 0
M  V30 1852 C 187.469 1.99473 0.549383 0
M  V30 1853 C 187.884 0.996541 1.60357 0
M  V30 1854 O 187.241 -0.0108731 1.82497 0
M  V30 1855 C 187.292 3.41788 1.17741 0
M  V30 1856 O 187.013 4.37788 0.165362 0
M  V30 1857 C 188.514 3.99216 1.92722 0
M  V30 1858 H 185.734 0.655009 0.145616 0
M  V30 1859 H 188.278 2.03494 -0.202625 0
M  V30 1860 H 186.433 3.38713 1.88021 0
M  V30 1861 H 186.847 5.20806 0.621403 0
M  V30 1862 H 188.321 5.00882 2.31995 0
M  V30 1863 H 188.798 3.3824 2.80161 0
M  V30 1864 H 189.404 4.0583 1.27209 0
M  V30 1865 N 187.719 -0.156864 1.56817 0
M  V30 1866 C 188.967 -0.869404 1.82444 0
M  V30 1867 C 189.288 -1.82147 0.69623 0
M  V30 1868 O 188.558 -1.93847 -0.28287 0
M  V30 1869 H 187.138 -0.324043 0.673056 0
M  V30 1870 H 189.8 -0.153224 1.94297 0
M  V30 1871 H 188.896 -1.43761 2.77019 0
M  V30 1872 N 189.197 -1.51736 -0.425897 0
M  V30 1873 C 190.107 -1.76738 -1.54275 0
M  V30 1874 C 191.123 -0.65211 -1.61318 0
M  V30 1875 O 192.299 -0.935654 -1.78346 0
M  V30 1876 C 189.364 -1.89755 -2.90162 0
M  V30 1877 C 188.425 -3.13633 -2.93143 0
M  V30 1878 C 187.658 -3.2602 -4.22548 0
M  V30 1879 O 187.881 -2.44067 -5.15546 0
M  V30 1880 O 186.815 -4.19071 -4.32046 0
M  V30 1881 H 190.641 -2.71502 -1.36089 0
M  V30 1882 H 188.226 -1.36376 -0.610069 0
M  V30 1883 H 190.108 -2.00236 -3.70788 0
M  V30 1884 H 188.783 -0.981785 -3.08452 0
M  V30 1885 H 187.69 -3.08622 -2.11431 0
M  V30 1886 H 189.023 -4.04936 -2.798 0
M  V30 1887 N 190.675 0.682077 -1.42076 0
M  V30 1888 C 191.605 1.80796 -1.47767 0
M  V30 1889 C 192.586 1.6677 -0.334954 0
M  V30 1890 O 193.771 1.863 -0.548264 0
M  V30 1891 C 190.901 3.19038 -1.37229 0
M  V30 1892 C 189.855 3.47789 -2.49453 0
M  V30 1893 C 189.181 4.8553 -2.23975 0
M  V30 1894 C 190.481 3.45411 -3.91776 0
M  V30 1895 H 192.175 1.7629 -2.41997 0
M  V30 1896 H 189.721 0.846721 -1.16476 0
M  V30 1897 H 191.674 3.97528 -1.39821 0
M  V30 1898 H 190.398 3.24204 -0.394907 0
M  V30 1899 H 189.057 2.71657 -2.46166 0
M  V30 1900 H 188.705 4.87337 -1.24547 0
M  V30 1901 H 188.405 5.0573 -2.99184 0
M  V30 1902 H 189.929 5.66312 -2.28304 0
M  V30 1903 H 191.343 4.13882 -3.96705 0
M  V30 1904 H 189.74 3.77145 -4.66778 0
M  V30 1905 H 190.81 2.44122 -4.18966 0
M  V30 1906 N 192.153 1.28127 0.917671 0
M  V30 1907 C 193.378 1.18007 1.70555 0
M  V30 1908 C 193.803 -0.258257 1.86319 0
M  V30 1909 O 193.161 -1.1869 1.37049 0
M  V30 1910 C 193.209 1.87948 3.07746 0
M  V30 1911 O 192.313 1.18427 3.9503 0
M  V30 1912 H 191.654 0.409867 0.522403 0
M  V30 1913 H 194.184 1.69379 1.1477 0
M  V30 1914 H 194.194 1.95701 3.58001 0
M  V30 1915 H 192.869 2.92573 2.95591 0
M  V30 1916 H 191.446 1.18811 3.53466 0
M  V30 1917 N 193.631 -1.12557 1.10312 0
M  V30 1918 C 194.594 -2.16434 0.75424 0
M  V30 1919 C 195.594 -1.59278 -0.220685 0
M  V30 1920 O 196.784 -1.742 0.00230591 0
M  V30 1921 C 193.916 -3.40699 0.116987 0
M  V30 1922 H 195.109 -2.48811 1.67431 0
M  V30 1923 H 192.662 -1.27542 0.903475 0
M  V30 1924 H 193.397 -3.13921 -0.813877 0
M  V30 1925 H 193.182 -3.83459 0.818613 0
M  V30 1926 H 194.672 -4.17451 -0.111387 0
M  V30 1927 N 195.109 -0.891671 -1.2995 0
M  V30 1928 C 196.357 -0.512486 -1.95494 0
M  V30 1929 C 196.678 0.942776 -1.70695 0
M  V30 1930 O 195.948 1.66374 -1.03424 0
M  V30 1931 H 194.528 -0.186533 -0.723336 0
M  V30 1932 H 197.19 -1.13621 -1.58355 0
M  V30 1933 H 196.286 -0.688342 -3.04415 0
M  V30 1934 N 196.587 1.43421 -0.653314 0
M  V30 1935 C 197.817 2.05864 -0.174238 0
M  V30 1936 C 198.225 1.49052 1.16534 0
M  V30 1937 O 197.568 0.616481 1.73047 0
M  V30 1938 C 197.63 3.59499 -0.00875873 0
M  V30 1939 C 197.294 4.38893 -1.27364 0
M  V30 1940 C 198.291 4.70947 -2.20239 0
M  V30 1941 C 195.976 4.789 -1.51525 0
M  V30 1942 C 197.97 5.41916 -3.35568 0
M  V30 1943 C 195.657 5.49614 -2.67147 0
M  V30 1944 C 196.655 5.81044 -3.58994 0
M  V30 1945 O 196.343 6.50313 -4.72597 0
M  V30 1946 H 196.075 0.670345 -0.0872549 0
M  V30 1947 H 198.629 1.84913 -0.894226 0
M  V30 1948 H 196.859 3.79025 0.7666 0
M  V30 1949 H 198.548 4.0364 0.427687 0
M  V30 1950 H 199.314 4.40558 -2.02815 0
M  V30 1951 H 195.193 4.53843 -0.809158 0
M  V30 1952 H 198.737 5.66365 -4.07279 0
M  V30 1953 H 194.634 5.79419 -2.84505 0
M  V30 1954 H 195.402 6.68795 -4.71864 0
M  V30 1955 N 198.065 0.39524 1.52563 0
M  V30 1956 C 199.028 -0.425001 2.25225 0
M  V30 1957 C 200.028 -0.985266 1.27079 0
M  V30 1958 O 201.218 -0.866332 1.5113 0
M  V30 1959 C 198.35 -1.59686 3.01186 0
M  V30 1960 H 199.543 0.211233 2.99155 0
M  V30 1961 H 197.096 0.147472 1.55603 0
M  V30 1962 H 197.831 -2.27035 2.31572 0
M  V30 1963 H 197.616 -1.20176 3.73229 0
M  V30 1964 H 199.106 -2.17743 3.5634 0
M  V30 1965 N 199.544 -1.57102 0.125237 0
M  V30 1966 C 200.474 -2.18659 -0.819174 0
M  V30 1967 C 201.455 -1.12843 -1.27281 0
M  V30 1968 O 202.64 -1.41104 -1.33429 0
M  V30 1969 C 199.77 -2.79096 -2.06695 0
M  V30 1970 C 198.724 -3.90548 -1.75088 0
M  V30 1971 C 198.05 -4.37821 -3.06948 0
M  V30 1972 C 199.35 -5.12356 -1.01435 0
M  V30 1973 H 201.044 -2.9783 -0.306202 0
M  V30 1974 H 198.59 -1.4326 -0.145839 0
M  V30 1975 H 200.543 -3.2082 -2.73226 0
M  V30 1976 H 199.267 -1.97223 -2.60328 0
M  V30 1977 H 197.926 -3.49409 -1.10944 0
M  V30 1978 H 197.574 -3.52799 -3.58527 0
M  V30 1979 H 197.274 -5.12982 -2.86571 0
M  V30 1980 H 198.798 -4.822 -3.74587 0
M  V30 1981 H 200.212 -5.5106 -1.58132 0
M  V30 1982 H 198.609 -5.9314 -0.911319 0
M  V30 1983 H 199.679 -4.849 -0.00218681 0
M  V30 1984 N 201.022 0.148545 -1.56898 0
M  V30 1985 C 202.268 0.862694 -1.83536 0
M  V30 1986 C 202.601 1.80889 -0.706604 0
M  V30 1987 O 201.876 1.92328 0.289885 0
M  V30 1988 C 202.159 1.63853 -3.20662 0
M  V30 1989 C 202.012 0.713925 -4.44098 0
M  V30 1990 C 203.331 2.60133 -3.54991 0
M  V30 1991 H 200.45 0.312179 -0.667618 0
M  V30 1992 H 203.092 0.127953 -1.89569 0
M  V30 1993 H 201.242 2.26489 -3.1565 0
M  V30 1994 H 202.914 0.098686 -4.61194 0
M  V30 1995 H 201.157 0.0234019 -4.33794 0
M  V30 1996 H 201.828 1.29278 -5.36648 0
M  V30 1997 H 204.304 2.07616 -3.60603 0
M  V30 1998 H 203.18 3.11468 -4.51972 0
M  V30 1999 H 203.441 3.41417 -2.80868 0
M  V30 2000 N 202.5 1.5196 0.417844 0
M  V30 2001 C 203.448 1.75278 1.52907 0
M  V30 2002 C 204.442 0.619611 1.57662 0
M  V30 2003 O 205.648 0.801457 1.61173 0
M  V30 2004 H 202.023 0.554141 0.508362 0
M  V30 2005 H 203.994 2.68389 1.30422 0
M  V30 2006 C 202.743 1.91262 2.90369 0
M  V30 2007 H 202.066 2.77872 2.8745 0
M  V30 2008 H 203.506 2.11581 3.67436 0
M  V30 2009 C 201.965 0.677431 3.30019 0
M  V30 2010 O 202.495 -0.158799 4.01386 0
M  V30 2011 N 200.701 0.515851 2.85985 0
M  V30 2012 H 200.248 1.19744 2.28077 0
M  V30 2013 H 200.206 -0.309315 3.12875 0
M  V30 2014 N 203.978 -0.674533 1.42435 0
M  V30 2015 C 205.389 -1.25514 1.38214 0
M  V30 2016 C 205.74 -1.96055 0.0755464 0
M  V30 2017 O 204.865 -2.00028 -0.8257 0
M  V30 2018 C 205.46 -2.28269 2.50357 0
M  V30 2019 C 204.019 -2.81856 2.49467 0
M  V30 2020 C 203.166 -1.56182 2.29134 0
M  V30 2021 H 206.117 -0.467902 1.51646 0
M  V30 2022 H 206.138 -3.10009 2.20624 0
M  V30 2023 H 205.65 -1.769 3.45439 0
M  V30 2024 H 203.751 -3.37346 1.58204 0
M  V30 2025 H 203.864 -3.30854 3.46515 0
M  V30 2026 H 202.228 -1.82761 1.774 0
M  V30 2027 H 203.011 -1.06778 3.26272 0
M  V30 2028 N 205.456 -1.28612 -0.910864 0
M  V30 2029 C 206.867 -1.14406 -1.47541 0
M  V30 2030 C 207.218 0.264901 -1.94403 0
M  V30 2031 O 206.343 1.15942 -1.82719 0
M  V30 2032 C 206.938 -2.07073 -2.68153 0
M  V30 2033 C 205.497 -1.96923 -3.20778 0
M  V30 2034 C 204.644 -1.98646 -1.93481 0
M  V30 2035 H 207.595 -1.41259 -0.723291 0
M  V30 2036 H 207.616 -1.63642 -3.43514 0
M  V30 2037 H 207.128 -3.09611 -2.34015 0
M  V30 2038 H 205.229 -0.97433 -3.59635 0
M  V30 2039 H 205.342 -2.84026 -3.85832 0
M  V30 2040 H 203.706 -1.43093 -2.10705 0
M  V30 2041 H 204.489 -3.02868 -1.61634 0
M  V30 2042 N 206.934 1.1197 -1.10907 0
M  V30 2043 C 208.182 1.83225 -0.852819 0
M  V30 2044 C 208.503 1.84769 0.623341 0
M  V30 2045 O 207.773 1.3143 1.45269 0
M  V30 2046 H 206.353 0.67849 -0.312507 0
M  V30 2047 H 209.015 1.3556 -1.40033 0
M  V30 2048 H 208.111 2.87265 -1.22005 0
M  V30 2049 N 208.412 0.89855 1.29475 0
M  V30 2050 C 209.362 0.346767 2.25348 0
M  V30 2051 C 210.346 -0.532509 1.51833 0
M  V30 2052 O 211.538 -0.374714 1.72988 0
M  V30 2053 C 208.667 -0.425681 3.40651 0
M  V30 2054 C 207.753 0.46845 4.21505 0
M  V30 2055 N 208.144 1.57514 4.80648 0
M  V30 2056 C 206.442 0.26603 4.45206 0
M  V30 2057 C 207.143 2.12889 5.41344 0
M  V30 2058 N 206.119 1.42208 5.24669 0
M  V30 2059 H 209.921 1.19219 2.68634 0
M  V30 2060 H 207.435 0.749473 1.44072 0
M  V30 2061 H 209.432 -0.837716 4.08397 0
M  V30 2062 H 208.092 -1.26838 2.98902 0
M  V30 2063 H 209.103 1.95789 4.79465 0
M  V30 2064 H 205.78 -0.538394 4.14014 0
M  V30 2065 H 207.17 3.05901 5.98226 0
M  V30 2066 N 209.89 -1.43072 0.660911 0
M  V30 2067 C 210.84 -2.27948 -0.04847 0
M  V30 2068 C 211.824 -1.40325 -0.787246 0
M  V30 2069 O 213.016 -1.63893 -0.668446 0
M  V30 2070 C 210.145 -3.28143 -1.00881 0
M  V30 2071 C 209.231 -4.23252 -0.268108 0
M  V30 2072 N 209.622 -5.00656 0.719528 0
M  V30 2073 C 207.92 -4.43092 -0.508493 0
M  V30 2074 C 208.621 -5.70019 1.15988 0
M  V30 2075 N 207.597 -5.41364 0.492584 0
M  V30 2076 H 211.399 -2.85213 0.709279 0
M  V30 2077 H 208.913 -1.54869 0.488822 0
M  V30 2078 H 210.91 -3.87736 -1.53188 0
M  V30 2079 H 209.57 -2.7244 -1.76654 0
M  V30 2080 H 210.581 -5.06115 1.09855 0
M  V30 2081 H 207.258 -3.98449 -1.24679 0
M  V30 2082 H 208.648 -6.4214 1.97751 0
M  V30 2083 N 211.368 -0.403325 -1.52352 0
M  V30 2084 C 212.331 0.413051 -2.25447 0
M  V30 2085 C 213.331 0.978513 -1.276 0
M  V30 2086 O 214.521 0.858305 -1.51587 0
M  V30 2087 C 211.653 1.58087 -3.02029 0
M  V30 2088 H 212.846 -0.227094 -2.99039 0
M  V30 2089 H 210.399 -0.155722 -1.55522 0
M  V30 2090 H 211.134 2.25804 -2.32772 0
M  V30 2091 H 210.919 1.18195 -3.73861 0
M  V30 2092 H 212.409 2.1585 -3.57489 0
M  V30 2093 N 212.846 1.57033 -0.133567 0
M  V30 2094 C 214.257 1.82593 0.389464 0
M  V30 2095 C 214.608 1.05156 1.6564 0
M  V30 2096 O 213.733 0.292644 2.14412 0
M  V30 2097 C 214.328 3.31204 0.713377 0
M  V30 2098 C 212.887 3.57393 1.18098 0
M  V30 2099 C 212.034 2.76598 0.197126 0
M  V30 2100 H 214.985 1.54598 -0.358481 0
M  V30 2101 H 215.006 3.46627 1.56939 0
M  V30 2102 H 214.518 3.87537 -0.2089 0
M  V30 2103 H 212.619 3.06433 2.11966 0
M  V30 2104 H 212.732 4.65915 1.11624 0
M  V30 2105 H 211.096 2.45257 0.687088 0
M  V30 2106 H 211.879 3.35697 -0.718504 0
M  V30 2107 N 214.325 -0.140222 1.56975 0
M  V30 2108 C 215.275 -1.17827 1.95194 0
M  V30 2109 C 216.259 -1.38195 0.824075 0
M  V30 2110 O 217.451 -1.39643 1.0876 0
M  V30 2111 C 214.58 -2.51024 2.34184 0
M  V30 2112 C 213.666 -2.3422 3.53556 0
M  V30 2113 N 214.057 -1.87185 4.69889 0
M  V30 2114 C 212.355 -2.64949 3.58773 0
M  V30 2115 C 213.056 -1.83586 5.5197 0
M  V30 2116 N 212.032 -2.2715 4.93866 0
M  V30 2117 H 215.834 -0.806817 2.82609 0
M  V30 2118 H 213.348 -0.348208 1.58623 0
M  V30 2119 H 215.345 -3.26074 2.59772 0
M  V30 2120 H 214.005 -2.88945 1.48124 0
M  V30 2121 H 215.016 -1.57048 4.93514 0
M  V30 2122 H 211.693 -3.067 2.8327 0
M  V30 2123 H 213.083 -1.48655 6.55249 0
M  V30 2124 N 215.803 -1.52179 -0.40978 0
M  V30 2125 C 216.751 -1.76086 -1.51975 0
M  V30 2126 C 217.745 -0.627964 -1.57331 0
M  V30 2127 O 218.951 -0.809993 -1.60745 0
M  V30 2128 H 215.326 -0.556829 -0.505416 0
M  V30 2129 H 217.297 -2.69077 -1.28996 0
M  V30 2130 C 216.046 -1.92799 -2.8935 0
M  V30 2131 H 215.369 -2.79392 -2.85972 0
M  V30 2132 H 216.809 -2.13527 -3.66309 0
M  V30 2133 C 215.268 -0.694923 -3.29655 0
M  V30 2134 O 215.798 0.13751 -4.01465 0
M  V30 2135 N 214.004 -0.53101 -2.85707 0
M  V30 2136 H 213.551 -1.20952 -2.27439 0
M  V30 2137 H 213.509 0.292718 -3.13034 0
M  V30 2138 N 217.281 0.66697 -1.42791 0
M  V30 2139 C 218.244 1.76211 -1.46568 0
M  V30 2140 C 219.244 1.56896 -0.352196 0
M  V30 2141 O 220.434 1.63044 -0.613364 0
M  V30 2142 C 217.566 3.14935 -1.30494 0
M  V30 2143 H 218.759 1.74247 -2.44086 0
M  V30 2144 H 216.312 0.877342 -1.29354 0
M  V30 2145 H 217.047 3.2252 -0.339301 0
M  V30 2146 H 216.832 3.30359 -2.11199 0
M  V30 2147 H 218.322 3.94821 -1.36038 0
M  V30 2148 N 218.759 1.29093 0.90403 0
M  V30 2149 C 219.722 1.1386 1.98919 0
M  V30 2150 C 220.722 0.0753457 1.60623 0
M  V30 2151 O 221.912 0.321931 1.71199 0
M  V30 2152 C 219.044 0.740198 3.32767 0
M  V30 2153 H 220.237 2.10246 2.13861 0
M  V30 2154 H 217.79 1.12218 1.08797 0
M  V30 2155 H 218.525 -0.223997 3.23525 0
M  V30 2156 H 218.31 1.50838 3.61926 0
M  V30 2157 H 219.8 0.656546 4.12407 0
M  V30 2158 N 220.237 -1.11381 1.11499 0
M  V30 2159 C 221.17 -2.16621 0.71769 0
M  V30 2160 C 222.148 -1.60058 -0.286413 0
M  V30 2161 O 223.332 -1.87613 -0.182689 0
M  V30 2162 C 220.459 -3.38646 0.0607265 0
M  V30 2163 C 219.505 -4.13874 1.03008 0
M  V30 2164 S 220.338 -4.70731 2.55289 0
M  V30 2165 C 221.494 -5.96079 1.90895 0
M  V30 2166 H 221.727 -2.49987 1.60915 0
M  V30 2167 H 219.26 -1.23015 0.933092 0
M  V30 2168 H 221.218 -4.09313 -0.311965 0
M  V30 2169 H 219.879 -3.03537 -0.807702 0
M  V30 2170 H 219.072 -5.01333 0.517853 0
M  V30 2171 H 218.674 -3.4897 1.34522 0
M  V30 2172 H 220.966 -6.65948 1.24577 0
M  V30 2173 H 221.909 -6.51946 2.76354 0
M  V30 2174 H 222.317 -5.47652 1.36885 0
M  V30 2175 N 221.715 -0.905404 -1.28997 0
M  V30 2176 C 222.963 -0.533192 -1.9494 0
M  V30 2177 C 223.284 0.924618 -1.71685 0
M  V30 2178 O 222.554 1.65268 -1.05183 0
M  V30 2179 H 221.134 -0.194194 -0.721317 0
M  V30 2180 H 223.796 -1.15294 -1.57141 0
M  V30 2181 H 222.892 -0.72059 -3.03667 0
M  V30 2182 N 223.193 1.4272 -0.668489 0
M  V30 2183 C 224.44 2.01624 -0.18814 0
M  V30 2184 C 224.768 1.5282 1.20317 0
M  V30 2185 O 224.023 0.718323 1.8204 0
M  V30 2186 C 224.322 3.57021 -0.164499 0
M  V30 2187 C 223.988 4.25232 -1.49962 0
M  V30 2188 C 222.65 4.4358 -1.8652 0
M  V30 2189 C 225.002 4.63727 -2.37921 0
M  V30 2190 C 222.33 4.97694 -3.10674 0
M  V30 2191 C 224.682 5.19218 -3.6138 0
M  V30 2192 C 223.346 5.3578 -3.98115 0
M  V30 2193 H 222.616 0.737795 -0.0688454 0
M  V30 2194 H 225.263 1.70991 -0.862225 0
M  V30 2195 H 223.568 3.87285 0.593079 0
M  V30 2196 H 225.265 4.00372 0.224271 0
M  V30 2197 H 221.855 4.11306 -1.20522 0
M  V30 2198 H 226.039 4.4923 -2.10964 0
M  V30 2199 H 221.295 5.08702 -3.39164 0
M  V30 2200 H 225.469 5.4799 -4.29743 0
M  V30 2201 H 223.096 5.77475 -4.94395 0
M  V30 2202 N 224.671 0.411399 1.52136 0
M  V30 2203 C 225.911 -0.163143 2.03748 0
M  V30 2204 C 226.275 -1.42187 1.29022 0
M  V30 2205 O 227.476 -2.075 1.70872 0
M  V30 2206 C 225.747 -0.402651 3.55125 0
M  V30 2207 S 227.306 -0.944315 4.28519 0
M  V30 2208 H 224.124 -0.0439833 0.709638 0
M  V30 2209 H 226.726 0.56484 1.87163 0
M  V30 2210 H 225.43 0.520212 4.0709 0
M  V30 2211 H 224.961 -1.15844 3.75957 0
M  V30 2212 H 226.976 -2.22463 4.43536 0
M  V30 2213 N 226.149 -1.5696 0.141893 0
M  V30 2214 C 227.398 -1.95135 -0.510427 0
M  V30 2215 C 227.711 -1.02896 -1.66348 0
M  V30 2216 O 228.917 -1.30629 -2.38009 0
M  V30 2217 C 227.373 -3.46876 -0.959427 0
M  V30 2218 C 226.981 -4.47691 0.166419 0
M  V30 2219 C 228.725 -3.93927 -1.58183 0
M  V30 2220 C 226.632 -5.90636 -0.300565 0
M  V30 2221 H 225.562 -0.728494 -0.194454 0
M  V30 2222 H 228.213 -1.8211 0.22542 0
M  V30 2223 H 226.595 -3.55215 -1.75038 0
M  V30 2224 H 227.769 -4.51043 0.94325 0
M  V30 2225 H 226.084 -4.10527 0.696905 0
M  V30 2226 H 228.681 -4.98158 -1.94275 0
M  V30 2227 H 229.024 -3.3519 -2.46888 0
M  V30 2228 H 229.557 -3.88484 -0.855863 0
M  V30 2229 H 226.296 -6.5318 0.550989 0
M  V30 2230 H 225.816 -5.90655 -1.04338 0
M  V30 2231 H 227.495 -6.42588 -0.754265 0
M  V30 2232 N 227.627 0.131896 -1.57047 0
M  V30 2233 C 228.874 0.841932 -1.84168 0
M  V30 2234 C 229.202 1.8048 -0.725066 0
M  V30 2235 O 228.457 1.93618 0.284692 0
M  V30 2236 C 228.756 1.63703 -3.17704 0
M  V30 2237 C 228.422 0.81961 -4.43388 0
M  V30 2238 C 227.084 0.594148 -4.77518 0
M  V30 2239 C 229.436 0.248977 -5.20605 0
M  V30 2240 C 226.764 -0.212409 -5.86315 0
M  V30 2241 C 229.116 -0.544701 -6.30251 0
M  V30 2242 C 227.78 -0.780599 -6.6292 0
M  V30 2243 H 227.05 0.308085 -0.673917 0
M  V30 2244 H 229.697 0.104867 -1.91213 0
M  V30 2245 H 228.002 2.44464 -3.06177 0
M  V30 2246 H 229.699 2.19015 -3.35907 0
M  V30 2247 H 226.289 1.00542 -4.16641 0
M  V30 2248 H 230.473 0.410408 -4.946 0
M  V30 2249 H 225.729 -0.404524 -6.1006 0
M  V30 2250 H 229.903 -0.993922 -6.89271 0
M  V30 2251 H 227.53 -1.40742 -7.47058 0
M  V30 2252 N 229.106 1.52395 0.401703 0
M  V30 2253 C 230.054 1.7689 1.51039 0
M  V30 2254 C 231.048 0.636298 1.56996 0
M  V30 2255 O 232.254 0.818507 1.60314 0
M  V30 2256 H 228.629 0.559502 0.502456 0
M  V30 2257 H 230.6 2.69757 1.27568 0
M  V30 2258 C 229.349 1.94331 2.88324 0
M  V30 2259 H 228.672 2.80905 2.84486 0
M  V30 2260 H 230.112 2.15466 3.65172 0
M  V30 2261 C 228.571 0.712396 3.29282 0
M  V30 2262 O 229.101 -0.116218 4.01532 0
M  V30 2263 N 227.307 0.546154 2.85422 0
M  V30 2264 H 226.854 1.22156 2.26794 0
M  V30 2265 H 226.812 -0.276113 3.13185 0
M  V30 2266 N 230.584 -0.659388 1.43143 0
M  V30 2267 C 231.532 -1.79374 1.4808 0
M  V30 2268 C 232.526 -1.65639 0.354988 0
M  V30 2269 O 233.732 -1.7206 0.528704 0
M  V30 2270 H 230.107 -0.591705 0.4641 0
M  V30 2271 H 232.078 -1.72329 2.43609 0
M  V30 2272 C 230.827 -3.17606 1.41499 0
M  V30 2273 H 230.15 -3.28809 2.27431 0
M  V30 2274 H 231.59 -3.96951 1.49015 0
M  V30 2275 C 230.049 -3.36642 0.131765 0
M  V30 2276 O 230.579 -3.93461 -0.809386 0
M  V30 2277 N 228.785 -2.90567 0.0439396 0
M  V30 2278 H 228.332 -2.44513 0.810619 0
M  V30 2279 H 228.29 -3.03681 -0.813969 0
M  V30 2280 N 232.062 -1.29571 -0.897171 0
M  V30 2281 C 233.29 -1.20583 -1.68129 0
M  V30 2282 C 233.705 0.233181 -1.87354 0
M  V30 2283 O 233.062 1.15579 -1.41236 0
M  V30 2284 C 233.113 -1.91772 -3.06441 0
M  V30 2285 O 232.834 -3.30053 -2.88091 0
M  V30 2286 C 234.335 -1.89291 -4.00854 0
M  V30 2287 H 231.555 -0.417826 -0.525036 0
M  V30 2288 H 234.099 -1.70987 -1.12177 0
M  V30 2289 H 232.254 -1.45196 -3.59161 0
M  V30 2290 H 232.668 -3.65942 -3.75748 0
M  V30 2291 H 234.142 -2.43662 -4.95311 0
M  V30 2292 H 234.619 -0.869014 -4.30517 0
M  V30 2293 H 235.225 -2.35622 -3.54066 0
M  V30 2294 N 233.54 1.10788 -1.12088 0
M  V30 2295 C 234.765 1.87002 -0.896949 0
M  V30 2296 C 235.19 1.79933 0.548261 0
M  V30 2297 O 234.548 1.16662 1.38779 0
M  V30 2298 C 234.596 3.3349 -1.37174 0
M  V30 2299 O 233.7 4.08745 -0.547831 0
M  V30 2300 H 233.041 0.580397 -0.322545 0
M  V30 2301 H 235.571 1.39996 -1.49206 0
M  V30 2302 H 235.581 3.84339 -1.36922 0
M  V30 2303 H 234.256 3.37951 -2.42408 0
M  V30 2304 H 232.833 3.6776 -0.617034 0
M  V30 2305 N 235.018 0.912232 1.28515 0
M  V30 2306 C 236.264 0.545405 1.95328 0
M  V30 2307 C 236.597 -0.908313 1.71649 0
M  V30 2308 O 235.872 -1.64575 1.03659 0
M  V30 2309 C 236.155 0.853483 3.4984 0
M  V30 2310 C 236.008 2.35982 3.82926 0
M  V30 2311 C 237.327 0.348589 4.38717 0
M  V30 2312 H 234.446 0.199626 0.709449 0
M  V30 2313 H 237.088 1.1412 1.5191 0
M  V30 2314 H 235.238 0.34643 3.86952 0
M  V30 2315 H 236.91 2.93738 3.55691 0
M  V30 2316 H 235.153 2.81543 3.30024 0
M  V30 2317 H 235.824 2.52593 4.90816 0
M  V30 2318 H 238.3 0.78294 4.08668 0
M  V30 2319 H 237.176 0.593242 5.45685 0
M  V30 2320 H 237.437 -0.751049 4.35674 0
M  V30 2321 N 236.496 -1.42363 0.676048 0
M  V30 2322 C 237.459 -2.29199 0.00766941 0
M  V30 2323 C 238.459 -1.43389 -0.727745 0
M  V30 2324 O 239.649 -1.64764 -0.56556 0
M  V30 2325 C 236.781 -3.2591 -0.999785 0
M  V30 2326 H 237.974 -2.89794 0.771988 0
M  V30 2327 H 235.527 -1.50024 0.438468 0
M  V30 2328 H 236.262 -2.70256 -1.79255 0
M  V30 2329 H 236.047 -3.89202 -0.475829 0
M  V30 2330 H 237.537 -3.91028 -1.46583 0
M  V30 2331 N 237.974 -0.419461 -1.51915 0
M  V30 2332 C 238.937 0.389116 -2.25873 0
M  V30 2333 C 239.937 0.964924 -1.28631 0
M  V30 2334 O 241.127 0.842179 -1.52489 0
M  V30 2335 C 238.259 1.54874 -3.03689 0
M  V30 2336 H 239.452 -0.258799 -2.98781 0
M  V30 2337 H 237.005 -0.172209 -1.55348 0
M  V30 2338 H 237.74 2.23323 -2.35154 0
M  V30 2339 H 237.525 1.14223 -3.75094 0
M  V30 2340 H 239.015 2.12046 -3.59759 0
M  V30 2341 N 239.452 1.56882 -0.150215 0
M  V30 2342 C 240.7 1.9584 0.499105 0
M  V30 2343 C 241.021 1.03623 1.65188 0
M  V30 2344 O 240.291 0.0984084 1.95653 0
M  V30 2345 H 238.871 0.723119 0.187373 0
M  V30 2346 H 241.533 1.9358 -0.226466 0
M  V30 2347 H 240.629 2.99638 0.873122 0
M  V30 2348 N 240.93 -0.123565 1.57115 0
M  V30 2349 C 242.16 -0.845233 1.88519 0
M  V30 2350 C 242.568 -1.74168 0.739064 0
M  V30 2351 O 241.911 -1.81244 -0.299355 0
M  V30 2352 C 241.973 -1.73452 3.14888 0
M  V30 2353 C 241.637 -1.01285 4.45635 0
M  V30 2354 C 242.634 -0.355774 5.18681 0
M  V30 2355 C 240.319 -0.99538 4.92339 0
M  V30 2356 C 242.313 0.309114 6.3665 0
M  V30 2357 C 240 -0.32669 6.10226 0
M  V30 2358 C 240.998 0.324406 6.82229 0
M  V30 2359 O 240.686 0.982437 7.97874 0
M  V30 2360 H 240.418 -0.248534 0.628655 0
M  V30 2361 H 242.972 -0.113907 2.05084 0
M  V30 2362 H 241.202 -2.50737 2.94394 0
M  V30 2363 H 242.891 -2.33021 3.32349 0
M  V30 2364 H 243.657 -0.360918 4.83655 0
M  V30 2365 H 239.536 -1.49159 4.36202 0
M  V30 2366 H 243.08 0.8179 6.92789 0
M  V30 2367 H 238.977 -0.319294 6.4471 0
M  V30 2368 H 239.745 0.886454 8.13686 0
M  V30 2369 N 242.408 -1.52605 -0.393616 0
M  V30 2370 C 243.371 -1.76415 -1.46323 0
M  V30 2371 C 244.371 -0.634126 -1.47768 0
M  V30 2372 O 245.561 -0.902142 -1.4902 0
M  V30 2373 C 242.693 -1.8607 -2.85641 0
M  V30 2374 H 243.886 -2.71916 -1.26498 0
M  V30 2375 H 241.439 -1.43257 -0.625073 0
M  V30 2376 H 242.174 -0.925378 -3.10817 0
M  V30 2377 H 241.959 -2.68235 -2.85993 0
M  V30 2378 H 243.449 -2.06179 -3.63153 0
M  V30 2379 N 243.887 0.651787 -1.4349 0
M  V30 2380 C 245.303 0.96762 -1.26922 0
M  V30 2381 C 245.503 2.00602 -0.189982 0
M  V30 2382 O 244.559 2.48793 0.431107 0
M  V30 2383 C 245.872 1.45052 -2.63401 0
M  V30 2384 C 247.42 1.5671 -2.70945 0
M  V30 2385 C 247.895 2.0839 -4.07845 0
M  V30 2386 N 249.386 2.1569 -4.09917 0
M  V30 2387 C 250.121 2.56804 -5.12679 0
M  V30 2388 N 249.617 2.97203 -6.25813 0
M  V30 2389 N 251.41 2.56756 -5.00033 0
M  V30 2390 H 243.561 -0.0353158 -2.12371 0
M  V30 2391 H 245.824 0.0467858 -0.946845 0
M  V30 2392 H 245.53 0.761926 -3.43348 0
M  V30 2393 H 245.404 2.42529 -2.88894 0
M  V30 2394 H 247.791 2.2467 -1.9133 0
M  V30 2395 H 247.872 0.57662 -2.49216 0
M  V30 2396 H 247.516 1.41031 -4.87927 0
M  V30 2397 H 247.446 3.08271 -4.26938 0
M  V30 2398 H 249.937 1.87237 -3.28254 0
M  V30 2399 H 250.25 3.27328 -7.00055 0
M  V30 2400 H 248.595 2.95004 -6.29283 0
M  V30 2401 H 251.786 2.24572 -4.10713 0
M  V30 2402 H 251.959 2.88475 -5.80247 0
M  V30 2403 N 245.365 1.30045 0.890287 0
M  V30 2404 C 246.328 1.15963 1.977 0
M  V30 2405 C 247.328 0.0923777 1.60534 0
M  V30 2406 O 248.518 0.340071 1.70848 0
M  V30 2407 C 245.65 0.775451 3.31963 0
M  V30 2408 H 246.843 2.12502 2.11619 0
M  V30 2409 H 244.396 1.13366 1.07601 0
M  V30 2410 H 245.131 -0.189671 3.23745 0
M  V30 2411 H 244.916 1.54668 3.60306 0
M  V30 2412 H 246.406 0.700251 4.11687 0
M  V30 2413 N 246.843 -1.10192 1.12674 0
M  V30 2414 C 248.089 -1.82475 0.884915 0
M  V30 2415 C 248.422 -1.85093 -0.58773 0
M  V30 2416 O 247.697 -1.3134 -1.43457 0
M  V30 2417 C 247.98 -3.29018 1.46353 0
M  V30 2418 C 247.833 -3.34718 3.00473 0
M  V30 2419 C 249.152 -4.25473 1.12519 0
M  V30 2420 H 246.271 -0.662492 0.322915 0
M  V30 2421 H 248.913 -1.2913 1.39375 0
M  V30 2422 H 247.063 -3.74576 1.03077 0
M  V30 2423 H 248.735 -2.97622 3.52447 0
M  V30 2424 H 246.978 -2.74541 3.35872 0
M  V30 2425 H 247.649 -4.37918 3.36053 0
M  V30 2426 H 250.125 -3.88161 1.499 0
M  V30 2427 H 249.001 -5.26365 1.55663 0
M  V30 2428 H 249.262 -4.42084 0.0377407 0
M  V30 2429 N 248.321 -0.919034 -1.28029 0
M  V30 2430 C 249.251 -0.428581 -2.29533 0
M  V30 2431 C 250.232 0.50659 -1.62381 0
M  V30 2432 O 251.417 0.413195 -1.89753 0
M  V30 2433 C 248.547 0.327388 -3.45753 0
M  V30 2434 C 247.501 -0.519137 -4.2484 0
M  V30 2435 C 246.827 0.365486 -5.33449 0
M  V30 2436 C 248.127 -1.77914 -4.91064 0
M  V30 2437 H 249.821 -1.27687 -2.70807 0
M  V30 2438 H 247.367 -0.615428 -1.30186 0
M  V30 2439 H 249.32 0.681378 -4.15855 0
M  V30 2440 H 248.044 1.20963 -3.03374 0
M  V30 2441 H 246.703 -0.855717 -3.56473 0
M  V30 2442 H 246.351 1.24642 -4.87312 0
M  V30 2443 H 246.051 -0.197356 -5.87268 0
M  V30 2444 H 247.575 0.715241 -6.06396 0
M  V30 2445 H 248.989 -1.49374 -5.53498 0
M  V30 2446 H 247.386 -2.2848 -5.54903 0
M  V30 2447 H 248.456 -2.50382 -4.15255 0
M  V30 2448 N 249.799 1.42003 -0.683588 0
M  V30 2449 C 251.047 2.01015 -0.209101 0
M  V30 2450 C 251.368 1.54365 1.19149 0
M  V30 2451 O 250.638 0.769083 1.80172 0
M  V30 2452 H 249.218 0.743294 -0.074315 0
M  V30 2453 H 251.88 1.73798 -0.882066 0
M  V30 2454 H 250.976 3.11343 -0.2172 0
M  V30 2455 N 251.277 0.427512 1.51691 0
M  V30 2456 C 252.21 -0.433876 2.24037 0
M  V30 2457 C 253.188 -1.03287 1.25581 0
M  V30 2458 O 254.372 -1.07722 1.54688 0
M  V30 2459 C 251.499 -1.60385 2.98319 0
M  V30 2460 C 250.545 -1.12648 4.11355 0
M  V30 2461 S 251.378 -0.076543 5.35445 0
M  V30 2462 C 252.534 -1.25141 6.13262 0
M  V30 2463 H 252.767 0.180367 2.96752 0
M  V30 2464 H 250.3 0.211946 1.52938 0
M  V30 2465 H 252.258 -2.27462 3.41718 0
M  V30 2466 H 250.919 -2.18948 2.25213 0
M  V30 2467 H 250.112 -2.0011 4.62571 0
M  V30 2468 H 249.714 -0.534088 3.70167 0
M  V30 2469 H 252.006 -2.17162 6.41753 0
M  V30 2470 H 252.949 -0.779411 7.03797 0
M  V30 2471 H 253.357 -1.48553 5.44603 0
M  V30 2472 N 252.755 -1.56801 0.158532 0
M  V30 2473 C 253.665 -2.20916 -0.789518 0
M  V30 2474 C 254.681 -1.1969 -1.26294 0
M  V30 2475 O 255.857 -1.52308 -1.31773 0
M  V30 2476 C 252.922 -2.82727 -2.00665 0
M  V30 2477 C 251.983 -3.99114 -1.58134 0
M  V30 2478 C 251.216 -4.57968 -2.74045 0
M  V30 2479 O 251.439 -4.15704 -3.90572 0
M  V30 2480 O 250.373 -5.48047 -2.48855 0
M  V30 2481 H 254.199 -3.02464 -0.273681 0
M  V30 2482 H 251.784 -1.4924 -0.0690548 0
M  V30 2483 H 253.666 -3.21968 -2.71872 0
M  V30 2484 H 252.341 -2.04184 -2.51179 0
M  V30 2485 H 251.248 -3.64567 -0.839155 0
M  V30 2486 H 252.581 -4.79212 -1.12325 0
M  V30 2487 N 254.233 0.115231 -1.57178 0
M  V30 2488 C 255.649 0.468877 -1.52557 0
M  V30 2489 C 255.849 1.81649 -0.872125 0
M  V30 2490 O 254.905 2.48347 -0.45606 0
M  V30 2491 C 256.218 0.4499 -2.97315 0
M  V30 2492 C 257.766 0.533185 -3.08425 0
M  V30 2493 C 258.241 0.54456 -4.54751 0
M  V30 2494 N 259.732 0.605892 -4.5922 0
M  V30 2495 C 260.467 0.636203 -5.6986 0
M  V30 2496 N 259.963 0.623931 -6.89985 0
M  V30 2497 N 261.756 0.679496 -5.57978 0
M  V30 2498 H 253.907 -0.767712 -1.9804 0
M  V30 2499 H 256.17 -0.283609 -0.904583 0
M  V30 2500 H 255.876 -0.472721 -3.48509 0
M  V30 2501 H 255.75 1.27632 -3.5495 0
M  V30 2502 H 258.137 1.44623 -2.57232 0
M  V30 2503 H 258.218 -0.320995 -2.53778 0
M  V30 2504 H 257.862 -0.364452 -5.06591 0
M  V30 2505 H 257.792 1.41568 -5.07214 0
M  V30 2506 H 260.283 0.621386 -3.72756 0
M  V30 2507 H 260.596 0.649787 -7.70063 0
M  V30 2508 H 258.941 0.591296 -6.9248 0
M  V30 2509 H 262.132 0.686472 -4.63039 0
M  V30 2510 H 262.305 0.69965 -6.44212 0
M  V30 2511 N 255.711 1.52812 0.385517 0
M  V30 2512 C 256.957 1.68275 1.13188 0
M  V30 2513 C 257.29 0.423179 1.89533 0
M  V30 2514 O 256.565 -0.579113 1.85679 0
M  V30 2515 C 256.848 2.92001 2.1073 0
M  V30 2516 C 256.701 4.28067 1.38125 0
M  V30 2517 C 258.02 3.11283 3.11113 0
M  V30 2518 H 255.139 0.612352 0.410115 0
M  V30 2519 H 257.781 1.85415 0.414869 0
M  V30 2520 H 255.931 2.77519 2.71874 0
M  V30 2521 H 257.603 4.54324 0.799187 0
M  V30 2522 H 255.846 4.28388 0.683092 0
M  V30 2523 H 256.517 5.10733 2.09417 0
M  V30 2524 H 258.993 3.2482 2.6006 0
M  V30 2525 H 257.869 3.99325 3.76605 0
M  V30 2526 H 258.13 2.25656 3.80173 0
M  V30 2527 N 257.189 -0.644168 1.43834 0
M  V30 2528 C 258.152 -1.73857 1.49353 0
M  V30 2529 C 259.152 -1.56315 0.377112 0
M  V30 2530 O 260.342 -1.62048 0.639226 0
M  V30 2531 C 257.474 -3.12819 1.35488 0
M  V30 2532 H 258.667 -1.70342 2.46827 0
M  V30 2533 H 256.22 -0.856652 1.30733 0
M  V30 2534 H 256.955 -3.2194 0.390569 0
M  V30 2535 H 256.74 -3.26958 2.16428 0
M  V30 2536 H 258.23 -3.92606 1.42302 0
M  V30 2537 N 258.668 -1.30515 -0.883378 0
M  V30 2538 C 259.917 -1.18795 -1.63005 0
M  V30 2539 C 260.23 0.255923 -1.93919 0
M  V30 2540 O 261.436 0.494654 -2.66956 0
M  V30 2541 C 259.892 -2.07878 -2.93794 0
M  V30 2542 C 259.5 -3.57184 -2.70414 0
M  V30 2543 C 261.244 -2.04924 -3.71761 0
M  V30 2544 C 259.151 -4.38317 -3.97029 0
M  V30 2545 H 258.081 -0.441031 -0.611562 0
M  V30 2546 H 260.732 -1.55275 -0.977854 0
M  V30 2547 H 259.114 -1.64283 -3.60315 0
M  V30 2548 H 260.288 -4.08937 -2.12384 0
M  V30 2549 H 258.603 -3.61976 -2.0582 0
M  V30 2550 H 261.2 -2.62792 -4.65665 0
M  V30 2551 H 261.543 -1.0331 -4.03277 0
M  V30 2552 H 262.076 -2.46649 -3.12104 0
M  V30 2553 H 258.815 -5.40632 -3.70671 0
M  V30 2554 H 258.335 -3.91326 -4.54559 0
M  V30 2555 H 260.014 -4.49834 -4.65036 0
M  V30 2556 N 260.146 1.09593 -1.13257 0
M  V30 2557 C 261.076 2.18214 -0.830946 0
M  V30 2558 C 262.057 1.68812 0.208966 0
M  V30 2559 O 263.242 1.9408 0.0682666 0
M  V30 2560 C 260.372 3.46051 -0.294296 0
M  V30 2561 C 259.326 4.08778 -1.26826 0
M  V30 2562 C 258.652 5.31419 -0.591449 0
M  V30 2563 C 259.952 4.51476 -2.62615 0
M  V30 2564 H 261.646 2.43703 -1.73923 0
M  V30 2565 H 259.192 1.17128 -0.837675 0
M  V30 2566 H 261.145 4.2134 -0.0709606 0
M  V30 2567 H 259.869 3.20079 0.649366 0
M  V30 2568 H 258.528 3.35505 -1.47756 0
M  V30 2569 H 258.176 5.01727 0.357633 0
M  V30 2570 H 257.876 5.74341 -1.24123 0
M  V30 2571 H 259.4 6.09433 -0.377355 0
M  V30 2572 H 260.814 5.17999 -2.45663 0
M  V30 2573 H 259.211 5.05277 -3.23752 0
M  V30 2574 H 260.281 3.63962 -3.20406 0
M  V30 2575 N 261.624 0.925811 1.2754 0
M  V30 2576 C 262.901 0.483726 1.89524 0
M  V30 2577 C 263.281 -1.03809 1.83812 0
M  V30 2578 O 262.629 -1.89143 1.28207 0
M  V30 2579 C 262.839 1.02769 3.33526 0
M  V30 2580 C 264.187 1.08703 4.10449 0
M  V30 2581 O 265.211 0.977175 3.42534 0
M  V30 2582 O 264.07 1.25599 5.31871 0
M  V30 2583 H 261.164 0.15529 0.812289 0
M  V30 2584 H 263.71 1.01738 1.35822 0
M  V30 2585 H 262.482 2.07155 3.31967 0
M  V30 2586 H 262.105 0.475567 3.94746 0
M  V30 2587 N 263.102 -1.41638 0.69111 0
M  V30 2588 C 264.348 -2.02104 0.229258 0
M  V30 2589 C 264.703 -1.53741 -1.15678 0
M  V30 2590 O 263.996 -0.736849 -1.76865 0
M  V30 2591 C 264.19 -3.56714 0.221277 0
M  V30 2592 C 264.019 -4.20083 1.605 0
M  V30 2593 C 262.789 -4.54566 2.20676 0
M  V30 2594 C 264.987 -4.46587 2.55078 0
M  V30 2595 N 262.969 -5.03199 3.5166 0
M  V30 2596 C 264.34 -4.96946 3.70735 0
M  V30 2597 C 266.395 -4.28593 2.53401 0
M  V30 2598 C 265.098 -5.31203 4.8499 0
M  V30 2599 C 267.124 -4.63936 3.66765 0
M  V30 2600 C 266.486 -5.14463 4.81152 0
M  V30 2601 H 262.585 -0.771256 0.12918 0
M  V30 2602 H 265.169 -1.72251 0.907626 0
M  V30 2603 H 263.34 -3.86051 -0.426562 0
M  V30 2604 H 265.072 -4.03896 -0.254983 0
M  V30 2605 H 261.827 -4.4087 1.73005 0
M  V30 2606 H 262.251 -5.31926 4.18789 0
M  V30 2607 H 266.893 -3.88771 1.66184 0
M  V30 2608 H 264.611 -5.69951 5.72871 0
M  V30 2609 H 268.197 -4.51677 3.66714 0
M  V30 2610 H 267.077 -5.41299 5.67419 0
M  V30 2611 N 264.58 -0.43555 -1.51462 0
M  V30 2612 C 265.857 0.191364 -1.94662 0
M  V30 2613 C 266.237 1.60254 -1.37411 0
M  V30 2614 O 265.585 2.2152 -0.560458 0
M  V30 2615 C 265.795 0.17091 -3.48581 0
M  V30 2616 C 267.143 0.377357 -4.2292 0
M  V30 2617 O 268.167 0.249104 -3.55328 0
M  V30 2618 O 267.026 0.63247 -5.42828 0
M  V30 2619 H 264.12 0.130932 -0.816569 0
M  V30 2620 H 266.666 -0.4934 -1.62369 0
M  V30 2621 H 265.438 -0.815738 -3.82703 0
M  V30 2622 H 265.061 0.898659 -3.87311 0
M  V30 2623 N 266.058 1.56714 -0.166846 0
M  V30 2624 C 267.304 1.97039 0.479962 0
M  V30 2625 C 267.637 1.05264 1.63197 0
M  V30 2626 O 266.912 0.0988833 1.94248 0
M  V30 2627 C 267.195 3.46867 0.967212 0
M  V30 2628 C 267.048 4.49421 -0.18466 0
M  V30 2629 C 268.367 3.9968 1.84238 0
M  V30 2630 H 265.486 0.71641 0.172992 0
M  V30 2631 H 268.128 1.8832 -0.252079 0
M  V30 2632 H 266.278 3.54428 1.59101 0
M  V30 2633 H 267.95 4.53924 -0.821621 0
M  V30 2634 H 266.193 4.25573 -0.840837 0
M  V30 2635 H 266.864 5.51644 0.198317 0
M  V30 2636 H 269.34 3.94723 1.31655 0
M  V30 2637 H 268.216 5.04941 2.15234 0
M  V30 2638 H 268.477 3.43226 2.78654 0
M  V30 2639 N 267.536 -0.106894 1.57237 0
M  V30 2640 C 268.486 -1.1366 1.9765 0
M  V30 2641 C 269.47 -1.36416 0.853203 0
M  V30 2642 O 270.662 -1.37305 1.11697 0
M  V30 2643 C 267.791 -2.46 2.39455 0
M  V30 2644 C 266.877 -2.26668 3.58445 0
M  V30 2645 N 267.268 -1.77176 4.73754 0
M  V30 2646 C 265.566 -2.57279 3.64312 0
M  V30 2647 C 266.267 -1.71836 5.5574 0
M  V30 2648 N 265.243 -2.16623 4.98573 0
M  V30 2649 H 269.045 -0.74669 2.84256 0
M  V30 2650 H 266.559 -0.314483 1.59326 0
M  V30 2651 H 268.556 -3.2049 2.6663 0
M  V30 2652 H 267.216 -2.85738 1.54219 0
M  V30 2653 H 268.227 -1.46545 4.96734 0
M  V30 2654 H 264.904 -3.00622 2.89711 0
M  V30 2655 H 266.294 -1.34723 6.58255 0
M  V30 2656 N 269.014 -1.53014 -0.377408 0
M  V30 2657 C 269.964 -1.74996 -1.46152 0
M  V30 2658 C 270.948 -0.604236 -1.49123 0
M  V30 2659 O 272.14 -0.862489 -1.54564 0
M  V30 2660 C 269.269 -1.93267 -2.8373 0
M  V30 2661 C 268.355 -3.13807 -2.85283 0
M  V30 2662 N 268.746 -4.35941 -2.56493 0
M  V30 2663 C 267.044 -3.14288 -3.16448 0
M  V30 2664 C 267.745 -5.17615 -2.65424 0
M  V30 2665 N 266.721 -4.53559 -2.99641 0
M  V30 2666 H 270.523 -2.67044 -1.22738 0
M  V30 2667 H 268.037 -1.51479 -0.585479 0
M  V30 2668 H 270.034 -2.0714 -3.61799 0
M  V30 2669 H 268.694 -1.0244 -3.08117 0
M  V30 2670 H 269.705 -4.63876 -2.30302 0
M  V30 2671 H 266.382 -2.33312 -3.46225 0
M  V30 2672 H 267.772 -6.25006 -2.46612 0
M  V30 2673 N 270.492 0.636531 -1.44174 0
M  V30 2674 C 271.74 1.39343 -1.46383 0
M  V30 2675 C 272.061 1.94766 -0.0955715 0
M  V30 2676 O 271.331 1.75452 0.871395 0
M  V30 2677 H 269.911 0.517199 -0.538994 0
M  V30 2678 H 272.573 0.74957 -1.7991 0
M  V30 2679 H 271.669 2.22746 -2.18611 0
M  V30 2680 N 271.97 1.30982 0.876444 0
M  V30 2681 C 272.918 1.18006 2.00443 0
M  V30 2682 C 273.912 0.0898871 1.69161 0
M  V30 2683 O 275.118 0.251333 1.78237 0
M  V30 2684 H 271.493 0.365196 0.65737 0
M  V30 2685 H 273.464 2.13453 2.0852 0
M  V30 2686 C 272.213 0.897521 3.35916 0
M  V30 2687 H 271.536 1.7285 3.60504 0
M  V30 2688 H 272.976 0.846874 4.15456 0
M  V30 2689 C 271.435 -0.399674 3.34521 0
M  V30 2690 O 271.965 -1.41852 3.7582 0
M  V30 2691 N 270.171 -0.413893 2.87637 0
M  V30 2692 H 269.718 0.41571 2.54224 0
M  V30 2693 H 269.676 -1.28175 2.87086 0
M  V30 2694 N 273.449 -1.08991 1.13837 0
M  V30 2695 C 274.697 -1.80899 0.901098 0
M  V30 2696 C 275.018 -1.86356 -0.574134 0
M  V30 2697 O 274.288 -1.35235 -1.41733 0
M  V30 2698 H 272.868 -0.669966 0.330386 0
M  V30 2699 H 275.53 -1.318 1.43578 0
M  V30 2700 H 274.626 -2.83929 1.29578 0
M  V30 2701 N 274.927 -0.932562 -1.27047 0
M  V30 2702 C 276.155 -0.592031 -1.98249 0
M  V30 2703 C 276.57 0.831062 -1.69525 0
M  V30 2704 O 275.927 1.55299 -0.958561 0
M  V30 2705 C 275.978 -0.814279 -3.5221 0
M  V30 2706 O 275.699 -2.18139 -3.7993 0
M  V30 2707 C 277.2 -0.483121 -4.4066 0
M  V30 2708 H 274.42 -0.223896 -0.632544 0
M  V30 2709 H 276.964 -1.25091 -1.61779 0
M  V30 2710 H 275.119 -0.20213 -3.86872 0
M  V30 2711 H 275.533 -2.235 -4.74498 0
M  V30 2712 H 277.007 -0.689298 -5.47679 0
M  V30 2713 H 277.484 0.581546 -4.35333 0
M  V30 2714 H 278.09 -1.07362 -4.11526 0
M  V30 2715 N 276.405 1.4127 -0.698611 0
M  V30 2716 C 277.337 2.292 0.00399731 0
M  V30 2717 C 278.35 1.44944 0.741279 0
M  V30 2718 O 279.539 1.68416 0.591477 0
M  V30 2719 C 276.639 3.22875 1.02979 0
M  V30 2720 C 275.812 4.35904 0.36151 0
M  V30 2721 C 274.871 5.10134 1.29033 0
M  V30 2722 O 273.897 5.63809 0.781562 0
M  V30 2723 N 275.099 5.17885 2.6225 0
M  V30 2724 H 277.864 2.9014 -0.750921 0
M  V30 2725 H 275.425 1.52455 -0.544882 0
M  V30 2726 H 277.417 3.69404 1.65296 0
M  V30 2727 H 275.987 2.63221 1.68622 0
M  V30 2728 H 275.207 3.91719 -0.441584 0
M  V30 2729 H 276.495 5.08696 -0.103055 0
M  V30 2730 H 275.893 4.7573 3.061 0
M  V30 2731 H 274.45 5.6798 3.19754 0
M  V30 2732 N 277.883 0.443576 1.51229 0
M  V30 2733 C 279.16 -0.181038 1.9476 0
M  V30 2734 C 279.54 -1.59523 1.38259 0
M  V30 2735 O 278.888 -2.2122 0.572198 0
M  V30 2736 C 279.098 -0.152422 3.48667 0
M  V30 2737 C 280.446 -0.354923 4.23114 0
M  V30 2738 O 281.47 -0.230257 3.55455 0
M  V30 2739 O 280.329 -0.603674 5.43156 0
M  V30 2740 H 277.423 -0.1266 0.817252 0
M  V30 2741 H 279.969 0.502004 1.62105 0
M  V30 2742 H 278.741 0.836022 3.82265 0
M  V30 2743 H 278.364 -0.878107 3.87782 0
M  V30 2744 N 279.361 -1.56624 0.175154 0
M  V30 2745 C 280.61 -1.96173 -0.468921 0
M  V30 2746 C 280.923 -1.06401 -1.64128 0
M  V30 2747 O 282.129 -1.35648 -2.35185 0
M  V30 2748 C 280.585 -3.48833 -0.885633 0
M  V30 2749 C 280.193 -4.47237 0.261343 0
M  V30 2750 C 281.937 -3.97194 -1.49791 0
M  V30 2751 C 279.844 -5.9114 -0.175214 0
M  V30 2752 H 278.774 -0.732455 -0.178958 0
M  V30 2753 H 281.425 -1.81591 0.263997 0
M  V30 2754 H 279.807 -3.58848 -1.67464 0
M  V30 2755 H 280.981 -4.4894 1.03871 0
M  V30 2756 H 279.296 -4.08956 0.783827 0
M  V30 2757 H 281.893 -5.02167 -1.83665 0
M  V30 2758 H 282.236 -3.40351 -2.39722 0
M  V30 2759 H 282.769 -3.90212 -0.773267 0
M  V30 2760 H 279.508 -6.51865 0.689414 0
M  V30 2761 H 279.028 -5.92735 -0.91786 0
M  V30 2762 H 280.707 -6.44044 -0.617792 0
M  V30 2763 N 280.839 0.0985539 -1.57292 0
M  V30 2764 C 282.085 0.798769 -1.87059 0
M  V30 2765 C 282.44 1.76514 -0.76555 0
M  V30 2766 O 281.733 1.90181 0.232752 0
M  V30 2767 C 281.927 1.56927 -3.21105 0
M  V30 2768 C 281.756 0.679026 -4.44544 0
M  V30 2769 C 280.526 0.326071 -5.04247 0
M  V30 2770 C 282.724 -0.0124715 -5.14298 0
M  V30 2771 N 280.706 -0.572702 -6.11223 0
M  V30 2772 C 282.077 -0.769446 -6.15207 0
M  V30 2773 C 284.132 -0.0867545 -4.97824 0
M  V30 2774 C 282.835 -1.59376 -7.01421 0
M  V30 2775 C 284.861 -0.897955 -5.84543 0
M  V30 2776 C 284.223 -1.64306 -6.84969 0
M  V30 2777 H 280.322 0.268568 -0.734435 0
M  V30 2778 H 282.906 0.0614664 -1.94603 0
M  V30 2779 H 281.077 2.27748 -3.1462 0
M  V30 2780 H 282.809 2.21641 -3.38611 0
M  V30 2781 H 279.564 0.67295 -4.68795 0
M  V30 2782 H 279.988 -1.01454 -6.69355 0
M  V30 2783 H 284.63 0.474963 -4.20124 0
M  V30 2784 H 282.348 -2.16655 -7.78515 0
M  V30 2785 H 285.934 -0.958059 -5.73858 0
M  V30 2786 H 284.814 -2.26065 -7.50909 0
M  V30 2787 N 282.317 1.53212 0.369288 0
M  V30 2788 C 283.563 1.70413 1.11046 0
M  V30 2789 C 283.918 0.448509 1.87099 0
M  V30 2790 O 283.211 -0.558382 1.83283 0
M  V30 2791 C 283.405 2.89101 2.10132 0
M  V30 2792 C 283.234 4.26084 1.43814 0
M  V30 2793 C 282.004 4.90994 1.19384 0
M  V30 2794 C 284.202 5.06754 0.877802 0
M  V30 2795 N 282.184 6.11911 0.49377 0
M  V30 2796 C 283.555 6.1924 0.306891 0
M  V30 2797 C 285.61 4.91814 0.776129 0
M  V30 2798 C 284.313 7.1842 -0.355774 0
M  V30 2799 C 286.339 5.91263 0.127252 0
M  V30 2800 C 285.701 7.03069 -0.432801 0
M  V30 2801 H 281.8 0.676872 0.391623 0
M  V30 2802 H 284.384 1.90603 0.397334 0
M  V30 2803 H 282.555 2.70456 2.78761 0
M  V30 2804 H 284.287 2.95142 2.76899 0
M  V30 2805 H 281.042 4.50074 1.47413 0
M  V30 2806 H 281.466 6.76813 0.159207 0
M  V30 2807 H 286.108 4.05564 1.19489 0
M  V30 2808 H 283.826 8.04264 -0.786499 0
M  V30 2809 H 287.412 5.81779 0.0495613 0
M  V30 2810 H 286.292 7.78702 -0.926958 0
M  V30 2811 N 283.795 -0.628877 1.44509 0
M  V30 2812 C 284.743 -1.76193 1.51852 0
M  V30 2813 C 285.737 -1.64849 0.390042 0
M  V30 2814 O 286.943 -1.709 0.565082 0
M  V30 2815 H 283.318 -0.581728 0.476547 0
M  V30 2816 H 285.289 -1.67123 2.47209 0
M  V30 2817 C 284.038 -3.14533 1.48204 0
M  V30 2818 H 283.361 -3.23911 2.34354 0
M  V30 2819 H 284.801 -3.93701 1.57402 0
M  V30 2820 C 283.26 -3.36287 0.203142 0
M  V30 2821 O 283.79 -3.9509 -0.725745 0
M  V30 2822 N 281.996 -2.90408 0.105563 0
M  V30 2823 H 281.543 -2.42739 0.862301 0
M  V30 2824 H 281.501 -3.05339 -0.749371 0
M  V30 2825 N 285.273 -1.31445 -0.869486 0
M  V30 2826 C 286.55 -1.11795 -1.60503 0
M  V30 2827 C 286.93 0.327168 -2.08549 0
M  V30 2828 O 286.278 1.32135 -1.8642 0
M  V30 2829 C 286.488 -2.13258 -2.76265 0
M  V30 2830 C 287.836 -2.45805 -3.46215 0
M  V30 2831 O 288.86 -2.11688 -2.86473 0
M  V30 2832 O 287.719 -3.04228 -4.5399 0
M  V30 2833 H 284.813 -0.430421 -0.706163 0
M  V30 2834 H 287.359 -1.42925 -0.914907 0
M  V30 2835 H 286.131 -3.10461 -2.3818 0
M  V30 2836 H 285.754 -1.83035 -3.52964 0
M  V30 2837 N 286.751 1.08385 -1.14413 0
M  V30 2838 C 288.162 1.62258 -0.923535 0
M  V30 2839 C 288.513 1.88691 0.537595 0
M  V30 2840 O 287.638 1.64454 1.40655 0
M  V30 2841 C 288.233 2.94781 -1.67002 0
M  V30 2842 C 286.792 3.45437 -1.495 0
M  V30 2843 C 285.939 2.19668 -1.69238 0
M  V30 2844 H 288.89 0.916086 -1.2959 0
M  V30 2845 H 288.911 3.63229 -1.13334 0
M  V30 2846 H 288.423 2.7551 -2.73342 0
M  V30 2847 H 286.524 3.6981 -0.455097 0
M  V30 2848 H 286.637 4.22173 -2.2651 0
M  V30 2849 H 285.001 2.28849 -1.11804 0
M  V30 2850 H 285.784 2.02905 -2.7692 0
M  V30 2851 N 288.23 0.939286 1.26551 0
M  V30 2852 C 289.455 0.602008 1.98471 0
M  V30 2853 C 289.88 -0.815624 1.69497 0
M  V30 2854 O 289.238 -1.54912 0.941905 0
M  V30 2855 C 289.286 0.848407 3.50477 0
M  V30 2856 O 288.39 -0.0804009 4.12322 0
M  V30 2857 H 287.731 0.23049 0.622712 0
M  V30 2858 H 290.261 1.2617 1.61066 0
M  V30 2859 H 290.271 0.768553 4.00696 0
M  V30 2860 H 288.946 1.88171 3.70897 0
M  V30 2861 H 287.523 0.0503508 3.72866 0
M  V30 2862 N 289.708 -1.40897 0.706093 0
M  V30 2863 C 290.954 -2.01352 0.241889 0
M  V30 2864 C 291.287 -1.55832 -1.15888 0
M  V30 2865 O 290.562 -0.774145 -1.7843 0
M  V30 2866 C 290.845 -3.58752 0.311311 0
M  V30 2867 C 290.698 -4.1437 1.74978 0
M  V30 2868 C 292.017 -4.38914 -0.322922 0
M  V30 2869 H 289.136 -0.731562 0.0893687 0
M  V30 2870 H 291.778 -1.67504 0.896802 0
M  V30 2871 H 289.928 -3.87718 -0.246302 0
M  V30 2872 H 291.6 -3.96239 2.36205 0
M  V30 2873 H 289.843 -3.69016 2.28057 0
M  V30 2874 H 290.514 -5.23532 1.74981 0
M  V30 2875 H 292.99 -4.15822 0.152089 0
M  V30 2876 H 291.866 -5.48358 -0.243855 0
M  V30 2877 H 292.127 -4.19176 -1.40513 0
M  V30 2878 N 291.186 -0.45159 -1.50991 0
M  V30 2879 C 292.116 0.342898 -2.30969 0
M  V30 2880 C 293.097 1.00815 -1.37005 0
M  V30 2881 O 294.282 1.00907 -1.65926 0
M  V30 2882 C 291.412 1.43637 -3.16205 0
M  V30 2883 C 290.366 0.893818 -4.18563 0
M  V30 2884 C 289.692 2.08411 -4.92411 0
M  V30 2885 C 290.992 -0.0815568 -5.22236 0
M  V30 2886 H 292.686 -0.324556 -2.97636 0
M  V30 2887 H 290.232 -0.157531 -1.43136 0
M  V30 2888 H 292.185 1.9995 -3.70942 0
M  V30 2889 H 290.909 2.13232 -2.47386 0
M  V30 2890 H 289.568 0.352798 -3.64898 0
M  V30 2891 H 289.216 2.76658 -4.20082 0
M  V30 2892 H 288.916 1.72741 -5.61636 0
M  V30 2893 H 290.44 2.65251 -5.49976 0
M  V30 2894 H 291.854 0.391742 -5.7196 0
M  V30 2895 H 290.251 -0.351551 -5.99069 0
M  V30 2896 H 291.321 -1.01374 -4.74185 0
M  V30 2897 N 292.664 1.56529 -0.183458 0
M  V30 2898 C 293.892 2.01623 0.464285 0
M  V30 2899 C 294.307 1.06366 1.55986 0
M  V30 2900 O 293.664 0.0665398 1.82379 0
M  V30 2901 C 293.715 3.46475 1.03139 0
M  V30 2902 O 293.436 4.38095 -0.0204675 0
M  V30 2903 C 294.937 4.0703 1.75617 0
M  V30 2904 H 292.157 0.660596 0.117704 0
M  V30 2905 H 294.701 2.02451 -0.288751 0
M  V30 2906 H 292.856 3.46383 1.73486 0
M  V30 2907 H 293.27 5.22973 0.399952 0
M  V30 2908 H 294.744 5.10271 2.10542 0
M  V30 2909 H 295.221 3.49819 2.65563 0
M  V30 2910 H 295.827 4.1086 1.09882 0
M  V30 2911 N 294.142 -0.090211 1.57342 0
M  V30 2912 C 295.391 -0.791531 1.8552 0
M  V30 2913 C 295.704 -1.79659 0.773441 0
M  V30 2914 O 296.91 -2.54616 0.942497 0
M  V30 2915 C 295.366 -1.45856 3.2902 0
M  V30 2916 C 294.974 -0.493017 4.45279 0
M  V30 2917 C 296.718 -2.14332 3.66418 0
M  V30 2918 C 294.625 -1.16491 5.79814 0
M  V30 2919 H 293.555 -0.299356 0.692027 0
M  V30 2920 H 296.206 -0.0445343 1.83446 0
M  V30 2921 H 294.588 -2.25318 3.2565 0
M  V30 2922 H 295.762 0.270464 4.60006 0
M  V30 2923 H 294.077 0.0863061 4.16311 0
M  V30 2924 H 296.674 -2.65344 4.64216 0
M  V30 2925 H 297.017 -2.93447 2.95287 0
M  V30 2926 H 297.55 -1.41724 3.71698 0
M  V30 2927 H 294.289 -0.41447 6.54188 0
M  V30 2928 H 293.809 -1.8997 5.68921 0
M  V30 2929 H 295.488 -1.69001 6.24538 0
M  V30 2930 N 295.62 -1.53406 -0.361157 0
M  V30 2931 C 296.845 -1.74024 -1.12829 0
M  V30 2932 C 297.27 -0.470069 -1.82132 0
M  V30 2933 O 296.628 0.57619 -1.719 0
M  V30 2934 C 296.676 -2.90903 -2.13091 0
M  V30 2935 O 295.78 -2.59821 -3.20261 0
M  V30 2936 H 295.121 -0.577804 -0.327168 0
M  V30 2937 H 297.651 -2.00307 -0.41693 0
M  V30 2938 H 297.661 -3.17194 -2.56616 0
M  V30 2939 H 296.336 -3.83034 -1.62042 0
M  V30 2940 H 294.913 -2.44362 -2.81677 0
M  V30 2941 N 297.098 0.621204 -1.44841 0
M  V30 2942 C 298.028 1.74366 -1.55303 0
M  V30 2943 C 299.009 1.65199 -0.405385 0
M  V30 2944 O 300.194 1.83807 -0.626787 0
M  V30 2945 C 297.324 3.12931 -1.50637 0
M  V30 2946 C 296.278 3.36896 -2.63979 0
M  V30 2947 C 295.604 4.75594 -2.44366 0
M  V30 2948 C 296.904 3.28483 -4.06074 0
M  V30 2949 H 298.598 1.65867 -2.49256 0
M  V30 2950 H 296.144 0.796558 -1.19962 0
M  V30 2951 H 298.097 3.9124 -1.56555 0
M  V30 2952 H 296.821 3.22237 -0.532057 0
M  V30 2953 H 295.48 2.60972 -2.57467 0
M  V30 2954 H 295.128 4.81616 -1.45105 0
M  V30 2955 H 294.828 4.92586 -3.20364 0
M  V30 2956 H 296.352 5.5612 -2.52117 0
M  V30 2957 H 297.766 3.96684 -4.13902 0
M  V30 2958 H 296.163 3.57008 -4.82354 0
M  V30 2959 H 297.233 2.26133 -4.28943 0
M  V30 2960 N 298.576 1.31904 0.862503 0
M  V30 2961 C 299.526 1.16772 1.95827 0
M  V30 2962 C 300.51 0.0767098 1.60717 0
M  V30 2963 O 301.702 0.302407 1.74398 0
M  V30 2964 C 298.831 0.884858 3.317 0
M  V30 2965 C 297.917 2.0172 3.73055 0
M  V30 2966 N 298.308 3.265 3.86305 0
M  V30 2967 C 296.606 1.91861 4.02623 0
M  V30 2968 C 297.307 4.00616 4.2176 0
M  V30 2969 N 296.283 3.28847 4.32852 0
M  V30 2970 H 300.085 2.11382 2.04193 0
M  V30 2971 H 297.599 1.2357 1.05377 0
M  V30 2972 H 299.596 0.757419 4.09962 0
M  V30 2973 H 298.256 -0.0529448 3.24657 0
M  V30 2974 H 299.267 3.61529 3.70833 0
M  V30 2975 H 295.944 1.05593 4.03926 0
M  V30 2976 H 297.334 5.08182 4.39546 0
M  V30 2977 N 300.054 -1.07777 1.14986 0
M  V30 2978 C 300.986 -2.14769 0.800436 0
M  V30 2979 C 301.999 -1.61739 -0.185595 0
M  V30 2980 O 303.188 -1.78462 0.0370358 0
M  V30 2981 C 300.288 -3.38481 0.168533 0
M  V30 2982 C 299.461 -4.20876 1.1909 0
M  V30 2983 C 298.52 -5.22976 0.581575 0
M  V30 2984 O 297.546 -5.55388 1.24633 0
M  V30 2985 N 298.748 -5.76976 -0.638706 0
M  V30 2986 H 301.513 -2.45348 1.72118 0
M  V30 2987 H 299.074 -1.23645 1.04515 0
M  V30 2988 H 301.066 -4.03916 -0.251764 0
M  V30 2989 H 299.636 -3.05651 -0.655467 0
M  V30 2990 H 298.856 -3.51322 1.78791 0
M  V30 2991 H 300.144 -4.7274 1.88133 0
M  V30 2992 H 299.542 -5.52886 -1.19723 0
M  V30 2993 H 298.099 -6.44061 -1.00142 0
M  V30 2994 N 301.532 -0.945985 -1.26051 0
M  V30 2995 C 302.482 -0.430164 -2.23905 0
M  V30 2996 C 303.466 0.47579 -1.53704 0
M  V30 2997 O 304.658 0.310252 -1.7426 0
M  V30 2998 C 301.787 0.298957 -3.41996 0
M  V30 2999 C 300.873 -0.624566 -4.19476 0
M  V30 3000 N 301.264 -1.75245 -4.74471 0
M  V30 3001 C 299.562 -0.431082 -4.43912 0
M  V30 3002 C 300.263 -2.32834 -5.3307 0
M  V30 3003 N 299.239 -1.61583 -5.1903 0
M  V30 3004 H 303.041 -1.29107 -2.64024 0
M  V30 3005 H 300.555 -0.802428 -1.41191 0
M  V30 3006 H 302.552 0.685565 -4.11225 0
M  V30 3007 H 301.212 1.15657 -3.03403 0
M  V30 3008 H 302.223 -2.13449 -4.71868 0
M  V30 3009 H 298.9 0.384364 -4.15727 0
M  V30 3010 H 300.29 -3.27893 -5.86461 0
M  V30 3011 N 303.011 1.40521 -0.713556 0
M  V30 3012 C 303.941 2.33381 -0.0743864 0
M  V30 3013 C 304.922 1.52784 0.747735 0
M  V30 3014 O 306.107 1.81258 0.697071 0
M  V30 3015 C 303.237 3.36748 0.849598 0
M  V30 3016 C 302.191 4.27793 0.133247 0
M  V30 3017 C 301.517 5.21679 1.17281 0
M  V30 3018 C 302.817 5.12415 -1.01134 0
M  V30 3019 H 304.511 2.87081 -0.850007 0
M  V30 3020 H 302.057 1.38034 -0.410201 0
M  V30 3021 H 304.01 4.00648 1.30612 0
M  V30 3022 H 302.734 2.81439 1.65709 0
M  V30 3023 H 301.393 3.65342 -0.303426 0
M  V30 3024 H 301.041 4.62677 1.9733 0
M  V30 3025 H 300.741 5.83435 0.698397 0
M  V30 3026 H 302.265 5.88456 1.62947 0
M  V30 3027 H 303.679 5.69781 -0.634274 0
M  V30 3028 H 302.076 5.83203 -1.41399 0
M  V30 3029 H 303.146 4.48514 -1.84292 0
M  V30 3030 N 304.489 0.459591 1.5075 0
M  V30 3031 C 305.729 -0.09824 2.04164 0
M  V30 3032 C 306.093 -1.3801 1.33481 0
M  V30 3033 O 307.294 -2.01959 1.77387 0
M  V30 3034 C 305.565 -0.289467 3.56226 0
M  V30 3035 S 307.124 -0.807507 4.31306 0
M  V30 3036 H 303.942 -0.0213845 0.710678 0
M  V30 3037 H 306.544 0.624098 1.85271 0
M  V30 3038 H 305.248 0.649461 4.05229 0
M  V30 3039 H 304.779 -1.03825 3.79452 0
M  V30 3040 H 306.794 -2.0824 4.50389 0
M  V30 3041 N 305.967 -1.56429 0.191757 0
M  V30 3042 C 307.214 -1.97485 -0.447891 0
M  V30 3043 C 307.542 -1.07852 -1.61859 0
M  V30 3044 O 306.797 -0.116903 -1.95351 0
M  V30 3045 C 307.096 -3.44449 -0.953384 0
M  V30 3046 C 306.762 -4.50781 0.103586 0
M  V30 3047 C 305.424 -4.79584 0.394023 0
M  V30 3048 C 307.776 -5.1471 0.819946 0
M  V30 3049 C 305.104 -5.69607 1.40585 0
M  V30 3050 C 307.456 -6.05827 1.8209 0
M  V30 3051 C 306.12 -6.32987 2.11857 0
M  V30 3052 H 305.39 -0.722648 -0.163895 0
M  V30 3053 H 308.037 -1.89322 0.28802 0
M  V30 3054 H 306.342 -3.49666 -1.76751 0
M  V30 3055 H 308.039 -3.73569 -1.45765 0
M  V30 3056 H 304.629 -4.28394 -0.132951 0
M  V30 3057 H 308.813 -4.92552 0.608789 0
M  V30 3058 H 304.069 -5.88926 1.64243 0
M  V30 3059 H 308.243 -6.54424 2.38123 0
M  V30 3060 H 305.87 -7.02544 2.90407 0
M  V30 3061 N 307.445 0.0818655 -1.57387 0
M  V30 3062 C 308.856 0.634871 -1.75574 0
M  V30 3063 C 309.207 1.78435 -0.815809 0
M  V30 3064 O 308.332 2.164 0.0025366 0
M  V30 3065 C 308.927 1.15845 -3.18379 0
M  V30 3066 C 307.486 1.65741 -3.37945 0
M  V30 3067 C 306.633 0.572549 -2.71325 0
M  V30 3068 H 309.584 -0.144268 -1.58043 0
M  V30 3069 H 309.605 2.02751 -3.21982 0
M  V30 3070 H 309.117 0.321631 -3.86765 0
M  V30 3071 H 307.218 2.51781 -2.74658 0
M  V30 3072 H 307.331 1.74129 -4.46336 0
M  V30 3073 H 305.695 1.01518 -2.33594 0
M  V30 3074 H 306.478 -0.253918 -3.4236 0
M  V30 3075 N 308.923 1.53595 0.353017 0
M  V30 3076 C 310.334 1.61937 0.929153 0
M  V30 3077 C 310.685 0.494686 1.89861 0
M  V30 3078 O 309.81 -0.377017 2.1309 0
M  V30 3079 C 310.405 2.93526 1.69199 0
M  V30 3080 C 308.964 3.04161 2.21727 0
M  V30 3081 C 308.111 2.57322 1.03348 0
M  V30 3082 H 311.062 1.58155 0.131431 0
M  V30 3083 H 311.083 2.82034 2.55416 0
M  V30 3084 H 310.595 3.75362 0.986144 0
M  V30 3085 H 308.696 2.26938 2.95516 0
M  V30 3086 H 308.809 4.09465 2.48748 0
M  V30 3087 H 307.173 2.12499 1.40414 0
M  V30 3088 H 307.956 3.41588 0.342428 0
M  V30 3089 N 310.401 -0.613514 1.45168 0
M  V30 3090 C 311.678 -1.37263 1.39349 0
M  V30 3091 C 312.058 -2.11012 0.0610848 0
M  V30 3092 O 311.406 -2.07502 -0.956825 0
M  V30 3093 C 311.616 -2.3244 2.60332 0
M  V30 3094 C 312.964 -2.9523 3.05163 0
M  V30 3095 O 313.988 -2.42762 2.60663 0
M  V30 3096 O 312.847 -3.90454 3.82372 0
M  V30 3097 H 309.941 -0.615188 0.552696 0
M  V30 3098 H 312.487 -0.637097 1.57287 0
M  V30 3099 H 311.259 -1.77164 3.48896 0
M  V30 3100 H 310.882 -3.13383 2.44698 0
M  V30 3101 N 311.879 -1.3236 -0.855495 0
M  V30 3102 C 313.104 -1.2601 -1.64731 0
M  V30 3103 C 313.529 0.169068 -1.87339 0
M  V30 3104 O 312.887 1.12016 -1.42556 0
M  V30 3105 C 312.935 -2.02417 -2.98429 0
M  V30 3106 O 312.039 -1.3714 -3.8893 0
M  V30 3107 H 311.38 -0.434325 -0.502253 0
M  V30 3108 H 313.91 -1.74661 -1.06558 0
M  V30 3109 H 313.92 -2.12559 -3.48257 0
M  V30 3110 H 312.595 -3.06343 -2.81295 0
M  V30 3111 H 311.172 -1.3554 -3.47395 0
M  V30 3112 N 313.357 1.07166 -1.15556 0
M  V30 3113 C 314.605 1.79443 -0.929764 0
M  V30 3114 C 314.926 1.87246 0.544414 0
M  V30 3115 O 314.196 1.37473 1.39564 0
M  V30 3116 H 312.776 0.664625 -0.341003 0
M  V30 3117 H 315.438 1.29499 -1.45657 0
M  V30 3118 H 314.534 2.81832 -1.34079 0
M  V30 3119 N 314.835 0.952656 1.25548 0
M  V30 3120 C 316.065 0.622592 1.96996 0
M  V30 3121 C 316.473 -0.809112 1.71026 0
M  V30 3122 O 315.816 -1.55258 0.981861 0
M  V30 3123 C 315.878 0.798946 3.5051 0
M  V30 3124 C 315.542 2.20744 4.00151 0
M  V30 3125 C 316.539 3.18394 4.11001 0
M  V30 3126 C 314.224 2.5311 4.33867 0
M  V30 3127 C 316.218 4.46504 4.54877 0
M  V30 3128 C 313.905 3.8145 4.7743 0
M  V30 3129 C 314.903 4.77959 4.87897 0
M  V30 3130 O 314.591 6.04012 5.30494 0
M  V30 3131 H 314.323 0.232503 0.634758 0
M  V30 3132 H 316.877 1.2789 1.60728 0
M  V30 3133 H 315.107 0.0854903 3.86605 0
M  V30 3134 H 316.796 0.47023 4.03167 0
M  V30 3135 H 317.562 2.94715 3.85186 0
M  V30 3136 H 313.441 1.78719 4.24948 0
M  V30 3137 H 316.985 5.21835 4.62962 0
M  V30 3138 H 312.882 4.04936 5.0269 0
M  V30 3139 H 313.65 6.0736 5.48685 0
M  V30 3140 N 316.313 -1.40141 0.720998 0
M  V30 3141 C 317.538 -2.05618 0.271258 0
M  V30 3142 C 317.963 -1.53978 -1.08039 0
M  V30 3143 O 317.321 -0.677463 -1.68167 0
M  V30 3144 C 317.369 -3.59609 0.267197 0
M  V30 3145 O 316.473 -4.05526 -0.749814 0
M  V30 3146 H 315.814 -0.651904 0.126162 0
M  V30 3147 H 318.344 -1.79439 0.982997 0
M  V30 3148 H 318.354 -4.0786 0.106744 0
M  V30 3149 H 317.029 -3.96559 1.25354 0
M  V30 3150 H 315.606 -3.68722 -0.556644 0
M  V30 3151 N 317.792 -0.46758 -1.50504 0
M  V30 3152 C 319.02 0.0864133 -2.06719 0
M  V30 3153 C 319.435 1.33819 -1.33184 0
M  V30 3154 O 318.792 1.78061 -0.400083 0
M  V30 3155 C 318.843 0.378079 -3.59517 0
M  V30 3156 O 318.564 -0.824044 -4.3028 0
M  V30 3157 C 320.065 0.979426 -4.32345 0
M  V30 3158 H 317.285 -0.00551697 -0.670977 0
M  V30 3159 H 319.829 -0.655354 -1.93715 0
M  V30 3160 H 317.984 1.06977 -3.72337 0
M  V30 3161 H 318.398 -0.566518 -5.21432 0
M  V30 3162 H 319.872 1.1333 -5.40241 0
M  V30 3163 H 320.349 1.9686 -3.9261 0
M  V30 3164 H 320.955 0.326216 -4.24047 0
M  V30 3165 N 319.27 1.56325 -0.20005 0
M  V30 3166 C 320.18 2.22931 0.730668 0
M  V30 3167 C 321.196 1.22997 1.23076 0
M  V30 3168 O 322.372 1.55748 1.27689 0
M  V30 3169 C 319.437 2.87948 1.93098 0
M  V30 3170 C 318.498 4.03166 1.47497 0
M  V30 3171 C 317.731 4.65073 2.61807 0
M  V30 3172 O 317.954 4.25913 3.79413 0
M  V30 3173 O 316.888 5.54452 2.34237 0
M  V30 3174 H 320.714 3.03084 0.193391 0
M  V30 3175 H 318.299 1.49371 0.0294621 0
M  V30 3176 H 320.181 3.29063 2.6324 0
M  V30 3177 H 318.856 2.10771 2.45677 0
M  V30 3178 H 317.763 3.66664 0.742201 0
M  V30 3179 H 319.096 4.82022 0.995796 0
M  V30 3180 N 320.748 -0.0735177 1.57428 0
M  V30 3181 C 322.164 -0.428264 1.53747 0
M  V30 3182 C 322.364 -1.79272 0.91998 0
M  V30 3183 O 321.42 -2.47051 0.521745 0
M  V30 3184 C 322.733 -0.370914 2.98404 0
M  V30 3185 C 324.281 -0.451224 3.0973 0
M  V30 3186 C 324.756 -0.4238 4.56035 0
M  V30 3187 N 326.247 -0.483925 4.60665 0
M  V30 3188 C 326.982 -0.484891 5.71346 0
M  V30 3189 N 326.478 -0.440775 6.91396 0
M  V30 3190 N 328.271 -0.531319 5.59583 0
M  V30 3191 H 320.422 0.819949 1.95935 0
M  V30 3192 H 322.685 0.307493 0.896745 0
M  V30 3193 H 322.391 0.564956 3.47133 0
M  V30 3194 H 322.265 -1.18176 3.5821 0
M  V30 3195 H 324.652 -1.37752 2.60976 0
M  V30 3196 H 324.733 0.388167 2.52838 0
M  V30 3197 H 324.377 0.498638 5.05446 0
M  V30 3198 H 324.307 -1.2807 5.10789 0
M  V30 3199 H 326.798 -0.522338 3.74273 0
M  V30 3200 H 327.111 -0.44539 7.71515 0
M  V30 3201 H 325.456 -0.40749 6.93804 0
M  V30 3202 H 328.647 -0.563464 4.64696 0
M  V30 3203 H 328.82 -0.528603 6.4584 0
M  V30 3204 N 322.226 -1.5378 -0.344866 0
M  V30 3205 C 323.474 -1.70625 -1.08311 0
M  V30 3206 C 323.795 -0.471447 -1.89215 0
M  V30 3207 O 323.065 0.514616 -1.8902 0
M  V30 3208 H 321.645 -0.629058 -0.402859 0
M  V30 3209 H 324.307 -1.9103 -0.386459 0
M  V30 3210 H 323.403 -2.57656 -1.76124 0
M  V30 3211 N 323.704 0.605807 -1.45491 0
M  V30 3212 C 324.667 1.69836 -1.5391 0
M  V30 3213 C 325.667 1.55261 -0.418424 0
M  V30 3214 O 326.857 1.60296 -0.681965 0
M  V30 3215 C 323.989 3.09117 -1.43734 0
M  V30 3216 H 325.182 1.63738 -2.51257 0
M  V30 3217 H 322.735 0.821689 -1.32959 0
M  V30 3218 H 323.47 3.20791 -0.475788 0
M  V30 3219 H 323.255 3.21104 -2.25021 0
M  V30 3220 H 324.745 3.88696 -1.52661 0
M  V30 3221 N 325.182 1.32811 0.848464 0
M  V30 3222 C 326.43 1.23479 1.59991 0
M  V30 3223 C 326.751 -0.201853 1.93952 0
M  V30 3224 O 326.021 -1.12818 1.60153 0
M  V30 3225 H 324.601 0.454034 0.593179 0
M  V30 3226 H 327.263 1.66412 1.01455 0
M  V30 3227 H 326.359 1.82178 2.53412 0
M  V30 3228 N 326.66 -1.06551 1.16123 0
M  V30 3229 C 327.608 -2.16063 0.861371 0
M  V30 3230 C 328.602 -1.6856 -0.168517 0
M  V30 3231 O 329.808 -1.79986 -0.0227579 0
M  V30 3232 H 326.183 -0.705278 0.260934 0
M  V30 3233 H 328.154 -2.38567 1.79244 0
M  V30 3234 C 326.903 -3.45661 0.376018 0
M  V30 3235 H 326.226 -3.82604 1.15992 0
M  V30 3236 H 327.666 -4.23504 0.204951 0
M  V30 3237 C 326.125 -3.24546 -0.903954 0
M  V30 3238 O 326.655 -3.49865 -1.97377 0
M  V30 3239 N 324.861 -2.77992 -0.846679 0
M  V30 3240 H 324.408 -2.57589 0.0241017 0
M  V30 3241 H 324.366 -2.64244 -1.70359 0
M  V30 3242 N 328.138 -0.959301 -1.25041 0
M  V30 3243 C 329.386 -0.615393 -1.92503 0
M  V30 3244 C 329.707 0.850969 -1.75452 0
M  V30 3245 O 328.977 1.60658 -1.12098 0
M  V30 3246 H 327.557 -0.224613 -0.712431 0
M  V30 3247 H 330.219 -1.21855 -1.5211 0
M  V30 3248 H 329.315 -0.848738 -3.00338 0
M  V30 3249 N 329.616 1.39756 -0.72842 0
M  V30 3250 C 330.566 2.2792 -0.0603424 0
M  V30 3251 C 331.55 1.43922 0.719399 0
M  V30 3252 O 332.742 1.66895 0.589489 0
M  V30 3253 C 329.871 3.32582 0.851104 0
M  V30 3254 C 328.957 4.24049 0.0658641 0
M  V30 3255 N 329.348 4.96653 -0.957578 0
M  V30 3256 C 327.646 4.45013 0.296509 0
M  V30 3257 C 328.347 5.63836 -1.43052 0
M  V30 3258 N 327.323 5.38397 -0.750315 0
M  V30 3259 H 331.125 2.81504 -0.84455 0
M  V30 3260 H 328.639 1.5236 -0.562155 0
M  V30 3261 H 330.636 3.94603 1.34514 0
M  V30 3262 H 329.296 2.80558 1.63454 0
M  V30 3263 H 330.307 5.00297 -1.33877 0
M  V30 3264 H 326.984 4.03943 1.05527 0
M  V30 3265 H 328.374 6.31974 -2.28163 0
M  V30 3266 N 331.094 0.475555 1.50254 0
M  V30 3267 C 332.342 -0.077738 2.0195 0
M  V30 3268 C 332.663 -1.39813 1.35931 0
M  V30 3269 O 331.933 -1.89249 0.506123 0
M  V30 3270 H 330.513 -0.031719 0.746326 0
M  V30 3271 H 333.175 0.626995 1.84539 0
M  V30 3272 H 332.271 -0.225995 3.11281 0
M  V30 3273 N 332.573 -1.56217 0.208337 0
M  V30 3274 C 333.803 -2.02043 -0.431523 0
M  V30 3275 C 334.211 -1.08755 -1.54819 0
M  V30 3276 O 333.554 -0.0870009 -1.83494 0
M  V30 3277 C 333.616 -3.44239 -1.03633 0
M  V30 3278 C 333.28 -4.56965 -0.0567502 0
M  V30 3279 C 334.277 -5.14624 0.738773 0
M  V30 3280 C 331.962 -5.02266 0.0581736 0
M  V30 3281 C 333.956 -6.16045 1.63605 0
M  V30 3282 C 331.643 -6.03528 0.959001 0
M  V30 3283 C 332.641 -6.60293 1.7465 0
M  V30 3284 O 332.329 -7.59586 2.6322 0
M  V30 3285 H 332.061 -0.666772 -0.111313 0
M  V30 3286 H 334.615 -2.02919 0.318277 0
M  V30 3287 H 332.845 -3.40391 -1.83497 0
M  V30 3288 H 334.534 -3.73793 -1.58221 0
M  V30 3289 H 335.3 -4.80483 0.660364 0
M  V30 3290 H 331.179 -4.57771 -0.544633 0
M  V30 3291 H 334.723 -6.60279 2.25116 0
M  V30 3292 H 330.62 -6.37092 1.03848 0
M  V30 3293 H 331.388 -7.77057 2.57148 0
M  V30 3294 N 334.051 0.0651679 -1.57465 0
M  V30 3295 C 334.999 1.09542 -2.05191 0
M  V30 3296 C 335.993 1.39675 -0.958509 0
M  V30 3297 O 337.199 1.39003 -1.14359 0
M  V30 3298 H 333.574 0.370623 -0.654326 0
M  V30 3299 H 335.545 0.666802 -2.90854 0
M  V30 3300 C 334.294 2.39881 -2.51699 0
M  V30 3301 H 333.617 2.17547 -3.3543 0
M  V30 3302 H 335.057 3.104 -2.88839 0
M  V30 3303 C 333.516 3.0631 -1.40271 0
M  V30 3304 O 334.046 3.94664 -0.748523 0
M  V30 3305 N 332.252 2.67041 -1.14618 0
M  V30 3306 H 331.799 1.95281 -1.67997 0
M  V30 3307 H 331.757 3.1181 -0.402688 0
M  V30 3308 N 335.529 1.53961 0.336706 0
M  V30 3309 C 336.778 1.70751 1.07363 0
M  V30 3310 C 337.091 0.481061 1.89592 0
M  V30 3311 O 338.297 0.530046 2.66276 0
M  V30 3312 C 336.753 3.01965 1.95818 0
M  V30 3313 C 336.361 4.31971 1.18764 0
M  V30 3314 C 338.105 3.28121 2.69327 0
M  V30 3315 C 336.012 5.54255 2.06289 0
M  V30 3316 H 334.942 0.636292 0.404535 0
M  V30 3317 H 337.593 1.80459 0.332681 0
M  V30 3318 H 335.975 2.86132 2.7376 0
M  V30 3319 H 337.149 4.5853 0.456849 0
M  V30 3320 H 335.464 4.12481 0.569946 0
M  V30 3321 H 338.061 4.16673 3.35094 0
M  V30 3322 H 338.404 2.45426 3.36261 0
M  V30 3323 H 338.937 3.44762 1.98454 0
M  V30 3324 H 335.676 6.39513 1.43885 0
M  V30 3325 H 335.196 5.31935 2.77138 0
M  V30 3326 H 336.875 5.90159 2.65182 0
M  V30 3327 N 337.007 -0.598083 1.45811 0
M  V30 3328 C 337.955 -1.72932 1.55555 0
M  V30 3329 C 338.949 -1.63984 0.424921 0
M  V30 3330 O 340.155 -1.69663 0.601205 0
M  V30 3331 H 336.53 -0.571489 0.488779 0
M  V30 3332 H 338.501 -1.61842 2.50699 0
M  V30 3333 C 337.25 -3.11318 1.54843 0
M  V30 3334 H 336.573 -3.18867 2.41172 0
M  V30 3335 H 338.013 -3.90274 1.65717 0
M  V30 3336 C 336.472 -3.3578 0.274427 0
M  V30 3337 O 337.002 -3.9654 -0.641778 0
M  V30 3338 N 335.208 -2.90119 0.167139 0
M  V30 3339 H 334.755 -2.40855 0.913596 0
M  V30 3340 H 334.713 -3.0686 -0.684435 0
M  V30 3341 N 338.485 -1.33259 -0.841409 0
M  V30 3342 C 339.731 -1.24757 -1.59886 0
M  V30 3343 C 340.064 0.186913 -1.93298 0
M  V30 3344 O 339.339 1.12757 -1.5848 0
M  V30 3345 C 339.622 -2.12036 -2.91055 0
M  V30 3346 C 339.475 -3.63929 -2.6434 0
M  V30 3347 C 340.794 -1.9916 -3.92458 0
M  V30 3348 H 337.913 -0.454542 -0.580138 0
M  V30 3349 H 340.555 -1.63335 -0.970647 0
M  V30 3350 H 338.705 -1.79265 -3.44669 0
M  V30 3351 H 340.377 -4.06978 -2.17178 0
M  V30 3352 H 338.62 -3.85935 -1.98082 0
M  V30 3353 H 339.291 -4.20341 -3.57796 0
M  V30 3354 H 341.767 -2.27895 -3.48143 0
M  V30 3355 H 340.643 -2.62484 -4.82072 0
M  V30 3356 H 340.904 -0.963082 -4.31482 0
M  V30 3357 N 339.963 1.05934 -1.16686 0
M  V30 3358 C 341.374 1.60263 -0.957745 0
M  V30 3359 C 341.725 1.89789 0.49745 0
M  V30 3360 O 340.85 1.67401 1.37135 0
M  V30 3361 C 341.445 2.91172 -1.73218 0
M  V30 3362 C 340.004 3.42188 -1.56794 0
M  V30 3363 C 339.151 2.16028 -1.73859 0
M  V30 3364 H 342.102 0.888392 -1.31504 0
M  V30 3365 H 342.123 3.60744 -1.21014 0
M  V30 3366 H 341.635 2.6965 -2.79124 0
M  V30 3367 H 339.736 3.68762 -0.533437 0
M  V30 3368 H 339.849 4.17273 -2.35414 0
M  V30 3369 H 338.213 2.26426 -1.16633 0
M  V30 3370 H 338.996 1.96985 -2.81161 0
M  V30 3371 N 341.441 0.965919 1.2453 0
M  V30 3372 C 342.371 0.513476 2.27784 0
M  V30 3373 C 343.352 -0.445974 1.6415 0
M  V30 3374 O 344.537 -0.342485 1.91156 0
M  V30 3375 C 341.667 -0.198839 3.4673 0
M  V30 3376 C 340.621 0.676456 4.2262 0
M  V30 3377 C 339.947 -0.167248 5.34438 0
M  V30 3378 C 341.247 1.96017 4.84123 0
M  V30 3379 H 342.941 1.3765 2.65881 0
M  V30 3380 H 340.487 0.663321 1.27813 0
M  V30 3381 H 342.44 -0.526567 4.18097 0
M  V30 3382 H 341.164 -1.0962 3.07654 0
M  V30 3383 H 339.823 0.98743 3.53052 0
M  V30 3384 H 339.471 -1.0647 4.91603 0
M  V30 3385 H 339.171 0.415181 5.86131 0
M  V30 3386 H 340.695 -0.489688 6.08633 0
M  V30 3387 H 342.109 1.69814 5.47573 0
M  V30 3388 H 340.506 2.48918 5.4604 0
M  V30 3389 H 341.576 2.65622 4.05676 0
M  V30 3390 N 342.919 -1.39368 0.735821 0
M  V30 3391 C 344.33 -1.83313 0.354015 0
M  V30 3392 C 344.681 -1.61461 -1.11466 0
M  V30 3393 O 343.806 -1.10621 -1.85989 0
M  V30 3394 C 344.401 -3.32781 0.635769 0
M  V30 3395 C 342.96 -3.75142 0.307448 0
M  V30 3396 C 342.107 -2.62358 0.897974 0
M  V30 3397 H 345.058 -1.28349 0.933398 0
M  V30 3398 H 345.079 -3.80388 -0.0921773 0
M  V30 3399 H 344.591 -3.48654 1.70476 0
M  V30 3400 H 342.692 -3.64857 -0.755674 0
M  V30 3401 H 342.805 -4.72532 0.790583 0
M  V30 3402 H 341.169 -2.52624 0.324551 0
M  V30 3403 H 341.952 -2.81036 1.97164 0
M  V30 3404 N 344.397 -0.483516 -1.5 0
M  V30 3405 C 345.808 -0.0314176 -1.86674 0
M  V30 3406 C 346.159 1.37728 -1.39733 0
M  V30 3407 O 345.284 2.02327 -0.767635 0
M  V30 3408 C 345.879 -0.0502376 -3.38763 0
M  V30 3409 C 344.438 0.346442 -3.74802 0
M  V30 3410 C 343.585 -0.430366 -2.7394 0
M  V30 3411 H 346.536 -0.697182 -1.42566 0
M  V30 3412 H 346.557 0.749116 -3.73053 0
M  V30 3413 H 346.069 -1.07563 -3.72897 0
M  V30 3414 H 344.17 1.37572 -3.46273 0
M  V30 3415 H 344.283 0.0391486 -4.79084 0
M  V30 3416 H 342.647 0.117557 -2.54429 0
M  V30 3417 H 343.43 -1.4555 -3.10918 0
M  V30 3418 N 345.875 1.56104 -0.216619 0
M  V30 3419 C 347.123 1.97781 0.415593 0
M  V30 3420 C 347.444 1.10536 1.60645 0
M  V30 3421 O 346.714 0.181303 1.95059 0
M  V30 3422 H 345.294 0.730415 0.156534 0
M  V30 3423 H 347.956 1.92445 -0.308366 0
M  V30 3424 H 347.052 3.03072 0.74525 0
M  V30 3425 N 347.353 -0.0568162 1.57498 0
M  V30 3426 C 348.578 -0.769402 1.92601 0
M  V30 3427 C 349.003 -1.69559 0.814336 0
M  V30 3428 O 348.361 -1.79811 -0.231903 0
M  V30 3429 C 348.409 -1.52634 3.26704 0
M  V30 3430 O 347.513 -2.63797 3.16994 0
M  V30 3431 H 346.854 -0.208909 0.63028 0
M  V30 3432 H 349.384 -0.0205798 2.0459 0
M  V30 3433 H 349.394 -1.90234 3.60936 0
M  V30 3434 H 348.069 -0.846875 4.07186 0
M  V30 3435 H 346.646 -2.28943 2.94346 0
M  V30 3436 N 348.832 -1.54138 -0.328536 0
M  V30 3437 C 350.08 -1.71765 -1.06496 0
M  V30 3438 C 350.401 -0.49149 -1.88704 0
M  V30 3439 O 349.671 0.494539 -1.89555 0
M  V30 3440 H 348.251 -0.633295 -0.396164 0
M  V30 3441 H 350.913 -1.91429 -0.366176 0
M  V30 3442 H 350.009 -2.5951 -1.73381 0
M  V30 3443 N 350.31 0.590341 -1.46126 0
M  V30 3444 C 351.258 1.72105 -1.5647 0
M  V30 3445 C 352.252 1.63756 -0.433612 0
M  V30 3446 O 353.458 1.69342 -0.610194 0
M  V30 3447 H 349.833 0.568889 -0.491802 0
M  V30 3448 H 351.804 1.6051 -2.51553 0
M  V30 3449 C 350.553 3.10493 -1.56491 0
M  V30 3450 H 349.876 3.17583 -2.4286 0
M  V30 3451 H 351.316 3.8939 -1.67785 0
M  V30 3452 C 349.775 3.3563 -0.292231 0
M  V30 3453 O 350.305 3.96875 0.620739 0
M  V30 3454 N 348.511 2.90026 -0.182523 0
M  V30 3455 H 348.058 2.40367 -0.926356 0
M  V30 3456 H 348.016 3.07218 0.668152 0
M  V30 3457 N 351.788 1.33704 0.83433 0
M  V30 3458 C 352.751 1.24244 1.92603 0
M  V30 3459 C 353.751 0.160383 1.59998 0
M  V30 3460 O 354.941 0.412228 1.69252 0
M  V30 3461 C 352.073 0.91555 3.28376 0
M  V30 3462 H 353.266 2.21287 2.02416 0
M  V30 3463 H 350.819 1.17827 1.02696 0
M  V30 3464 H 351.554 -0.0521886 3.24258 0
M  V30 3465 H 351.339 1.69811 3.53422 0
M  V30 3466 H 352.829 0.874231 4.08347 0
M  V30 3467 N 353.266 -1.05314 1.17247 0
M  V30 3468 C 354.229 -2.112 0.890357 0
M  V30 3469 C 355.229 -1.60359 -0.118943 0
M  V30 3470 O 356.419 -1.73833 0.113086 0
M  V30 3471 C 353.551 -3.39266 0.333422 0
M  V30 3472 H 354.744 -2.37659 1.82916 0
M  V30 3473 H 352.297 -1.21538 0.982758 0
M  V30 3474 H 353.032 -3.18462 -0.612587 0
M  V30 3475 H 352.817 -3.77477 1.06082 0
M  V30 3476 H 354.307 -4.17315 0.154322 0
M  V30 3477 N 354.744 -0.972509 -1.24016 0
M  V30 3478 C 355.974 -0.653853 -1.9598 0
M  V30 3479 C 356.382 0.781801 -1.72292 0
M  V30 3480 O 355.725 1.53677 -1.00644 0
M  V30 3481 C 355.787 -0.854608 -3.49194 0
M  V30 3482 C 355.451 -2.27082 -3.96589 0
M  V30 3483 C 356.448 -3.24892 -4.05883 0
M  V30 3484 C 354.133 -2.5998 -4.29786 0
M  V30 3485 C 356.127 -4.53684 -4.47716 0
M  V30 3486 C 353.814 -3.88997 -4.71301 0
M  V30 3487 C 354.812 -4.85661 -4.80232 0
M  V30 3488 O 354.5 -6.12376 -5.20818 0
M  V30 3489 H 354.232 -0.242572 -0.630979 0
M  V30 3490 H 356.786 -1.30431 -1.58673 0
M  V30 3491 H 355.016 -0.146985 -3.86421 0
M  V30 3492 H 356.705 -0.534311 -4.02368 0
M  V30 3493 H 357.471 -3.00805 -3.80449 0
M  V30 3494 H 353.35 -1.85457 -4.22051 0
M  V30 3495 H 356.894 -5.29135 -4.54601 0
M  V30 3496 H 352.791 -4.12882 -4.96184 0
M  V30 3497 H 353.559 -6.16013 -5.38953 0
M  V30 3498 N 356.222 1.38976 -0.743202 0
M  V30 3499 C 357.152 2.33171 -0.123873 0
M  V30 3500 C 358.133 1.54336 0.71516 0
M  V30 3501 O 359.318 1.82696 0.658467 0
M  V30 3502 C 356.448 3.38474 0.777978 0
M  V30 3503 C 355.402 4.27979 0.0424758 0
M  V30 3504 C 354.728 5.2405 1.06189 0
M  V30 3505 C 356.028 5.10155 -1.1198 0
M  V30 3506 H 357.722 2.85213 -0.910709 0
M  V30 3507 H 355.268 1.37133 -0.439388 0
M  V30 3508 H 357.221 4.03328 1.22084 0
M  V30 3509 H 355.945 2.84891 1.59702 0
M  V30 3510 H 354.604 3.64616 -0.380853 0
M  V30 3511 H 354.252 4.66758 1.87472 0
M  V30 3512 H 353.952 5.84785 0.574485 0
M  V30 3513 H 355.476 5.9178 1.50428 0
M  V30 3514 H 356.89 5.68307 -0.75499 0
M  V30 3515 H 355.287 5.80073 -1.53738 0
M  V30 3516 H 356.357 4.44504 -1.93764 0
M  V30 3517 N 357.7 0.491464 1.49741 0
M  V30 3518 C 358.65 -0.311086 2.25868 0
M  V30 3519 C 359.634 -0.943857 1.30308 0
M  V30 3520 O 360.826 -0.853035 1.55088 0
M  V30 3521 C 357.955 -1.38059 3.14316 0
M  V30 3522 C 357.041 -0.754541 4.17334 0
M  V30 3523 N 357.432 0.137216 5.05614 0
M  V30 3524 C 355.73 -1.01621 4.34269 0
M  V30 3525 C 356.431 0.494614 5.79593 0
M  V30 3526 N 355.407 -0.135169 5.43432 0
M  V30 3527 H 359.209 0.37555 2.91491 0
M  V30 3528 H 356.723 0.306917 1.59473 0
M  V30 3529 H 358.72 -1.96891 3.67477 0
M  V30 3530 H 357.38 -2.06901 2.50244 0
M  V30 3531 H 358.391 0.50741 5.15408 0
M  V30 3532 H 355.068 -1.69808 3.81407 0
M  V30 3533 H 356.458 1.2236 6.60665 0
M  V30 3534 N 359.178 -1.55987 0.224894 0
M  V30 3535 C 360.141 -2.19178 -0.670348 0
M  V30 3536 C 361.141 -1.15461 -1.11917 0
M  V30 3537 O 362.331 -1.40675 -1.02743 0
M  V30 3538 C 359.463 -2.81777 -1.9187 0
M  V30 3539 H 360.656 -2.99662 -0.119364 0
M  V30 3540 H 358.209 -1.5628 -0.0247128 0
M  V30 3541 H 358.944 -2.05172 -2.51147 0
M  V30 3542 H 358.729 -3.57732 -1.60531 0
M  V30 3543 H 360.219 -3.30205 -2.55645 0
M  V30 3544 N 360.656 0.0484629 -1.57525 0
M  V30 3545 C 361.589 1.08755 -2.00618 0
M  V30 3546 C 362.567 1.36272 -0.887058 0
M  V30 3547 O 363.751 1.49255 -1.15131 0
M  V30 3548 C 360.878 2.42675 -2.36277 0
M  V30 3549 C 359.924 2.31142 -3.58435 0
M  V30 3550 S 360.757 1.68326 -5.08357 0
M  V30 3551 C 361.913 3.03776 -5.47239 0
M  V30 3552 H 362.146 0.720415 -2.88439 0
M  V30 3553 H 359.679 0.257801 -1.52233 0
M  V30 3554 H 361.637 3.19699 -2.57494 0
M  V30 3555 H 360.298 2.76541 -1.48942 0
M  V30 3556 H 359.491 3.29957 -3.80978 0
M  V30 3557 H 359.093 1.62258 -3.36969 0
M  V30 3558 H 361.385 4.00106 -5.46737 0
M  V30 3559 H 362.328 2.85988 -6.47778 0
M  V30 3560 H 362.736 3.05456 -4.74718 0
M  V30 3561 N 362.134 1.5431 0.320358 0
M  V30 3562 C 363.411 1.63322 1.07635 0
M  V30 3563 C 363.791 0.46912 2.05821 0
M  V30 3564 O 363.139 -0.536274 2.22118 0
M  V30 3565 C 363.349 3.00465 1.77544 0
M  V30 3566 C 364.697 3.56621 2.30449 0
M  V30 3567 O 365.721 3.02791 1.87606 0
M  V30 3568 O 364.58 4.5083 3.08892 0
M  V30 3569 H 361.674 0.661502 0.496331 0
M  V30 3570 H 364.22 1.66656 0.319992 0
M  V30 3571 H 362.992 3.76629 1.06143 0
M  V30 3572 H 362.615 3.00824 2.59982 0
M  V30 3573 N 363.613 -0.582584 1.46437 0
M  V30 3574 C 364.545 -1.70618 1.53043 0
M  V30 3575 C 365.558 -1.57322 0.418769 0
M  V30 3576 O 366.747 -1.64744 0.687136 0
M  V30 3577 C 363.847 -3.08869 1.39474 0
M  V30 3578 C 363.02 -3.48166 2.64762 0
M  V30 3579 C 362.079 -4.65478 2.4539 0
M  V30 3580 O 361.105 -4.71333 3.19114 0
M  V30 3581 N 362.307 -5.60365 1.51564 0
M  V30 3582 H 365.072 -1.65405 2.49923 0
M  V30 3583 H 362.633 -0.768567 1.42494 0
M  V30 3584 H 364.625 -3.85143 1.24287 0
M  V30 3585 H 363.195 -3.08449 0.507758 0
M  V30 3586 H 362.415 -2.61598 2.9489 0
M  V30 3587 H 363.703 -3.71188 3.4799 0
M  V30 3588 H 363.101 -5.5837 0.907705 0
M  V30 3589 H 361.658 -6.36068 1.4234 0
M  V30 3590 N 365.091 -1.34144 -0.827227 0
M  V30 3591 C 366.337 -1.26446 -1.58554 0
M  V30 3592 C 366.67 0.1664 -1.93486 0
M  V30 3593 O 365.945 1.1107 -1.59667 0
M  V30 3594 C 366.228 -2.15111 -2.8879 0
M  V30 3595 C 366.081 -3.66712 -2.60465 0
M  V30 3596 C 367.4 -2.03311 -3.90324 0
M  V30 3597 H 364.519 -0.46067 -0.575284 0
M  V30 3598 H 367.161 -1.64356 -0.953269 0
M  V30 3599 H 365.311 -1.8291 -3.42748 0
M  V30 3600 H 366.983 -4.09259 -2.1285 0
M  V30 3601 H 365.226 -3.88014 -1.93978 0
M  V30 3602 H 365.897 -4.24112 -3.53317 0
M  V30 3603 H 368.373 -2.31574 -3.45706 0
M  V30 3604 H 367.249 -2.67582 -4.79261 0
M  V30 3605 H 367.51 -1.00879 -4.30437 0
M  V30 3606 N 366.569 1.04691 -1.17803 0
M  V30 3607 C 367.815 1.78045 -0.970969 0
M  V30 3608 C 368.148 1.87686 0.498751 0
M  V30 3609 O 367.423 1.38035 1.37027 0
M  V30 3610 C 367.706 3.2166 -1.61884 0
M  V30 3611 C 367.559 3.20001 -3.161 0
M  V30 3612 C 368.878 4.1962 -1.3269 0
M  V30 3613 H 365.997 0.64633 -0.354155 0
M  V30 3614 H 368.639 1.22333 -1.45378 0
M  V30 3615 H 366.789 3.69232 -1.20831 0
M  V30 3616 H 368.461 2.80467 -3.66246 0
M  V30 3617 H 366.704 2.58203 -3.48588 0
M  V30 3618 H 367.375 4.21386 -3.56564 0
M  V30 3619 H 369.851 3.80567 -1.68249 0
M  V30 3620 H 368.727 5.18339 -1.80599 0
M  V30 3621 H 368.988 4.414 -0.248622 0
M  V30 3622 N 368.047 0.979072 1.23499 0
M  V30 3623 C 368.977 0.537606 2.27227 0
M  V30 3624 C 369.958 -0.428539 1.64613 0
M  V30 3625 O 371.143 -0.322191 1.91509 0
M  V30 3626 C 368.273 -0.162052 3.46922 0
M  V30 3627 C 367.227 0.721242 4.21879 0
M  V30 3628 C 366.553 -0.110555 5.34586 0
M  V30 3629 C 367.853 2.01141 4.82016 0
M  V30 3630 H 369.547 1.40462 2.64406 0
M  V30 3631 H 367.093 0.67684 1.27102 0
M  V30 3632 H 369.046 -0.482192 4.18632 0
M  V30 3633 H 367.77 -1.06351 3.08799 0
M  V30 3634 H 366.429 1.02482 3.51984 0
M  V30 3635 H 366.077 -1.0125 4.92704 0
M  V30 3636 H 365.777 0.477325 5.85658 0
M  V30 3637 H 367.301 -0.425107 6.09118 0
M  V30 3638 H 368.715 1.75612 5.45741 0
M  V30 3639 H 367.112 2.54695 5.43369 0
M  V30 3640 H 368.182 2.69909 4.02836 0
M  V30 3641 N 369.525 -1.3858 0.750561 0
M  V30 3642 C 370.475 -2.27795 0.0965949 0
M  V30 3643 C 371.459 -1.45048 -0.696411 0
M  V30 3644 O 372.651 -1.67812 -0.562863 0
M  V30 3645 C 369.78 -3.33894 -0.798085 0
M  V30 3646 C 368.866 -4.241 0.0016067 0
M  V30 3647 N 369.257 -4.95067 1.03647 0
M  V30 3648 C 367.555 -4.45429 -0.225674 0
M  V30 3649 C 368.256 -5.61489 1.52004 0
M  V30 3650 N 367.232 -5.37135 0.835874 0
M  V30 3651 H 371.034 -2.80125 0.889228 0
M  V30 3652 H 368.548 -1.51446 0.586323 0
M  V30 3653 H 370.545 -3.96693 -1.28219 0
M  V30 3654 H 369.205 -2.83123 -1.5897 0
M  V30 3655 H 370.216 -4.98104 1.41819 0
M  V30 3656 H 366.893 -4.05571 -0.990872 0
M  V30 3657 H 368.283 -6.28264 2.38188 0
M  V30 3658 N 371.003 -0.499398 -1.49478 0
M  V30 3659 C 371.966 0.268838 -2.27618 0
M  V30 3660 C 372.966 0.895383 -1.33565 0
M  V30 3661 O 374.156 0.760164 -1.56739 0
M  V30 3662 C 371.288 1.38559 -3.11471 0
M  V30 3663 H 372.481 -0.416812 -2.96989 0
M  V30 3664 H 370.034 -0.254313 -1.54217 0
M  V30 3665 H 370.769 2.10544 -2.46661 0
M  V30 3666 H 370.554 0.941797 -3.80621 0
M  V30 3667 H 372.044 1.92678 -3.70493 0
M  V30 3668 N 372.481 1.55866 -0.233164 0
M  V30 3669 C 373.411 2.23783 0.666599 0
M  V30 3670 C 374.392 1.21343 1.19205 0
M  V30 3671 O 375.577 1.4996 1.23392 0
M  V30 3672 C 372.707 2.92671 1.86978 0
M  V30 3673 C 371.661 4.01682 1.47768 0
M  V30 3674 C 370.987 4.57926 2.76058 0
M  V30 3675 C 372.287 5.18126 0.658993 0
M  V30 3676 H 373.981 2.99232 0.100306 0
M  V30 3677 H 371.527 1.43924 0.046804 0
M  V30 3678 H 373.48 3.3888 2.50476 0
M  V30 3679 H 372.204 2.14688 2.46123 0
M  V30 3680 H 370.863 3.56222 0.866106 0
M  V30 3681 H 370.511 3.76659 3.33372 0
M  V30 3682 H 370.211 5.31505 2.50552 0
M  V30 3683 H 371.735 5.06859 3.40479 0
M  V30 3684 H 373.149 5.60644 1.19795 0
M  V30 3685 H 371.546 5.98009 0.500552 0
M  V30 3686 H 372.616 4.83763 -0.331856 0
M  V30 3687 N 373.959 -0.0401083 1.57549 0
M  V30 3688 C 375.375 -0.395556 1.54621 0
M  V30 3689 C 375.575 -1.77281 0.957799 0
M  V30 3690 O 374.631 -2.45888 0.574031 0
M  V30 3691 C 375.944 -0.307535 2.99123 0
M  V30 3692 C 377.492 -0.385425 3.10618 0
M  V30 3693 C 377.967 -0.326973 4.56831 0
M  V30 3694 N 379.458 -0.386102 4.61588 0
M  V30 3695 C 380.193 -0.363591 5.72246 0
M  V30 3696 N 379.689 -0.29402 6.92176 0
M  V30 3697 N 381.482 -0.412503 5.60584 0
M  V30 3698 H 373.633 0.861325 1.94152 0
M  V30 3699 H 375.896 0.326445 0.890021 0
M  V30 3700 H 375.602 0.638461 3.45856 0
M  V30 3701 H 375.476 -1.10552 3.60636 0
M  V30 3702 H 377.863 -1.32185 2.63839 0
M  V30 3703 H 377.944 0.44171 2.51957 0
M  V30 3704 H 377.588 0.605738 5.04275 0
M  V30 3705 H 377.518 -1.17207 5.13391 0
M  V30 3706 H 380.009 -0.442832 3.75296 0
M  V30 3707 H 380.322 -0.28164 7.72287 0
M  V30 3708 H 378.667 -0.260232 6.94513 0
M  V30 3709 H 381.858 -0.464769 4.65787 0
M  V30 3710 H 382.031 -0.391492 6.46816 0
M  V30 3711 N 375.437 -1.54477 -0.31217 0
M  V30 3712 C 376.4 -1.83923 -1.36766 0
M  V30 3713 C 377.4 -0.711563 -1.44199 0
M  V30 3714 O 378.59 -0.979866 -1.44029 0
M  V30 3715 C 375.722 -2.0095 -2.75376 0
M  V30 3716 H 376.915 -2.78239 -1.11906 0
M  V30 3717 H 374.468 -1.46369 -0.548257 0
M  V30 3718 H 375.203 -1.08883 -3.05475 0
M  V30 3719 H 374.988 -2.83018 -2.71373 0
M  V30 3720 H 376.478 -2.2514 -3.51713 0
M  V30 3721 N 376.915 0.57481 -1.46744 0
M  V30 3722 C 378.145 1.35659 -1.55821 0
M  V30 3723 C 378.553 1.88129 -0.201036 0
M  V30 3724 O 377.896 1.64723 0.813134 0
M  V30 3725 C 377.958 2.57473 -2.50894 0
M  V30 3726 C 377.622 2.26415 -3.9697 0
M  V30 3727 C 378.619 1.84771 -4.85958 0
M  V30 3728 C 376.304 2.38316 -4.42166 0
M  V30 3729 C 378.298 1.55434 -6.18158 0
M  V30 3730 C 375.985 2.08591 -5.74398 0
M  V30 3731 C 376.983 1.67216 -6.62214 0
M  V30 3732 O 376.671 1.37859 -7.91991 0
M  V30 3733 H 376.403 0.420496 -0.529301 0
M  V30 3734 H 378.957 0.704967 -1.92923 0
M  V30 3735 H 377.187 3.25468 -2.08824 0
M  V30 3736 H 378.876 3.19546 -2.50291 0
M  V30 3737 H 379.642 1.75085 -4.52295 0
M  V30 3738 H 375.521 2.69483 -3.74032 0
M  V30 3739 H 379.065 1.23065 -6.86659 0
M  V30 3740 H 374.962 2.17905 -6.07608 0
M  V30 3741 H 375.73 1.51638 -8.04331 0
M  V30 3742 N 378.394 1.34581 0.820102 0
M  V30 3743 C 379.81 1.14325 1.11364 0
M  V30 3744 C 380.01 -0.0533648 2.01429 0
M  V30 3745 O 379.066 -0.728044 2.41776 0
M  V30 3746 C 380.379 2.43983 1.75764 0
M  V30 3747 C 381.927 2.50065 1.88246 0
M  V30 3748 C 382.402 3.79732 2.56061 0
M  V30 3749 N 383.893 3.80908 2.63558 0
M  V30 3750 C 384.628 4.77961 3.16766 0
M  V30 3751 N 384.124 5.85397 3.70517 0
M  V30 3752 N 385.917 4.65413 3.15194 0
M  V30 3753 H 378.068 2.11246 0.221096 0
M  V30 3754 H 380.331 0.934289 0.160649 0
M  V30 3755 H 380.037 3.31651 1.1705 0
M  V30 3756 H 379.911 2.57531 2.75604 0
M  V30 3757 H 382.298 1.62834 2.46108 0
M  V30 3758 H 382.379 2.40442 0.873006 0
M  V30 3759 H 382.023 4.67354 1.98853 0
M  V30 3760 H 381.953 3.86639 3.57516 0
M  V30 3761 H 384.444 3.03274 2.25463 0
M  V30 3762 H 384.757 6.55463 4.09376 0
M  V30 3763 H 383.102 5.89107 3.68752 0
M  V30 3764 H 386.293 3.80627 2.72471 0
M  V30 3765 H 386.466 5.41216 3.56356 0
M  V30 3766 N 379.872 -1.04064 1.18357 0
M  V30 3767 C 381.283 -1.58719 0.98312 0
M  V30 3768 C 381.634 -1.90556 -0.467193 0
M  V30 3769 O 380.759 -1.69561 -1.34454 0
M  V30 3770 C 381.354 -2.88379 1.77828 0
M  V30 3771 C 379.913 -3.3965 1.62218 0
M  V30 3772 C 379.06 -2.13235 1.77274 0
M  V30 3773 H 382.011 -0.867359 1.32901 0
M  V30 3774 H 382.032 -3.58773 1.26737 0
M  V30 3775 H 381.544 -2.65176 2.83379 0
M  V30 3776 H 379.645 -3.67866 0.592036 0
M  V30 3777 H 379.758 -4.13475 2.42023 0
M  V30 3778 H 378.122 -2.24542 1.20221 0
M  V30 3779 H 378.905 -1.92487 2.8426 0
M  V30 3780 N 381.35 -0.985608 -1.22978 0
M  V30 3781 C 382.282 -0.488154 -2.23941 0
M  V30 3782 C 383.295 0.41282 -1.57479 0
M  V30 3783 O 384.484 0.216121 -1.77187 0
M  V30 3784 C 381.584 0.312611 -3.37455 0
M  V30 3785 C 380.757 -0.582741 -4.33501 0
M  V30 3786 C 379.816 0.165064 -5.25941 0
M  V30 3787 O 378.842 -0.447077 -5.67442 0
M  V30 3788 N 380.044 1.44953 -5.62111 0
M  V30 3789 H 382.809 -1.3563 -2.67254 0
M  V30 3790 H 380.37 -0.859477 -1.37203 0
M  V30 3791 H 382.362 0.821357 -3.96277 0
M  V30 3792 H 380.932 1.0818 -2.93285 0
M  V30 3793 H 380.152 -1.27225 -3.73105 0
M  V30 3794 H 381.44 -1.19275 -4.94622 0
M  V30 3795 H 380.838 1.9683 -5.30353 0
M  V30 3796 H 379.395 1.90361 -6.23383 0
M  V30 3797 N 382.828 1.3818 -0.7579 0
M  V30 3798 C 383.758 2.33027 -0.148597 0
M  V30 3799 C 384.739 1.55085 0.69875 0
M  V30 3800 O 385.924 1.83384 0.639053 0
M  V30 3801 C 383.054 3.3928 0.742034 0
M  V30 3802 C 382.008 4.28 -0.00291946 0
M  V30 3803 C 381.334 5.25146 1.00625 0
M  V30 3804 C 382.634 5.08938 -1.17385 0
M  V30 3805 H 384.328 2.84231 -0.940909 0
M  V30 3806 H 381.874 1.36659 -0.453908 0
M  V30 3807 H 383.827 4.046 1.17799 0
M  V30 3808 H 382.551 2.86569 1.56671 0
M  V30 3809 H 381.21 3.64192 -0.419504 0
M  V30 3810 H 380.858 4.68721 1.8251 0
M  V30 3811 H 380.558 5.85361 0.512428 0
M  V30 3812 H 382.082 5.93342 1.44143 0
M  V30 3813 H 383.496 5.67474 -0.815224 0
M  V30 3814 H 381.893 5.7841 -1.59882 0
M  V30 3815 H 382.963 4.42424 -1.98468 0
M  V30 3816 N 384.306 0.507319 1.49211 0
M  V30 3817 C 385.555 -0.0368315 2.01666 0
M  V30 3818 C 385.868 -1.37459 1.39156 0
M  V30 3819 O 387.074 -2.00579 1.82976 0
M  V30 3820 C 385.53 -0.116089 3.59713 0
M  V30 3821 C 385.138 1.2154 4.31198 0
M  V30 3822 C 386.882 -0.610268 4.2009 0
M  V30 3823 C 384.789 1.09796 5.81119 0
M  V30 3824 H 383.719 -0.0175376 0.753796 0
M  V30 3825 H 386.37 0.647691 1.71689 0
M  V30 3826 H 384.752 -0.8652 3.86433 0
M  V30 3827 H 385.926 1.9783 4.16173 0
M  V30 3828 H 384.241 1.64352 3.82593 0
M  V30 3829 H 386.838 -0.715742 5.29888 0
M  V30 3830 H 387.181 -1.61064 3.8388 0
M  V30 3831 H 387.714 0.0824916 3.97714 0
M  V30 3832 H 384.453 2.0728 6.21864 0
M  V30 3833 H 383.973 0.376058 5.9862 0
M  V30 3834 H 385.652 0.779281 6.4229 0
M  V30 3835 N 385.784 -1.5574 0.241426 0
M  V30 3836 C 387.033 -1.97986 -0.385295 0
M  V30 3837 C 387.346 -1.13267 -1.59468 0
M  V30 3838 O 388.552 -1.45501 -2.2922 0
M  V30 3839 C 387.008 -3.52275 -0.736884 0
M  V30 3840 C 386.616 -4.45726 0.450796 0
M  V30 3841 C 388.36 -4.03189 -1.3281 0
M  V30 3842 C 386.267 -5.91352 0.0756662 0
M  V30 3843 H 385.197 -0.739386 -0.147731 0
M  V30 3844 H 387.848 -1.80308 0.340779 0
M  V30 3845 H 386.23 -3.65628 -1.52094 0
M  V30 3846 H 387.404 -4.44131 1.22819 0
M  V30 3847 H 385.719 -4.05264 0.956573 0
M  V30 3848 H 388.316 -5.09505 -1.62201 0
M  V30 3849 H 388.659 -3.50212 -2.25071 0
M  V30 3850 H 389.192 -3.93141 -0.607069 0
M  V30 3851 H 385.931 -6.48354 0.965272 0
M  V30 3852 H 385.451 -5.96095 -0.665635 0
M  V30 3853 H 387.13 -6.46084 -0.344075 0
M  V30 3854 N 387.262 0.0317525 -1.57568 0
M  V30 3855 C 388.508 0.724175 -1.8943 0
M  V30 3856 C 388.841 1.75149 -0.838836 0
M  V30 3857 O 388.116 1.93948 0.146422 0
M  V30 3858 C 388.399 1.39615 -3.31933 0
M  V30 3859 C 388.252 0.382537 -4.4817 0
M  V30 3860 C 389.571 2.33084 -3.73309 0
M  V30 3861 H 386.69 0.261797 -0.688935 0
M  V30 3862 H 389.332 -0.013017 -1.89996 0
M  V30 3863 H 387.482 2.02451 -3.31581 0
M  V30 3864 H 389.154 -0.243689 -4.60656 0
M  V30 3865 H 387.397 -0.29844 -4.32772 0
M  V30 3866 H 388.068 0.891145 -5.44759 0
M  V30 3867 H 390.544 1.80295 -3.7501 0
M  V30 3868 H 389.42 2.77084 -4.73831 0
M  V30 3869 H 389.681 3.19643 -3.05419 0
M  V30 3870 N 388.74 1.54641 0.303973 0
M  V30 3871 C 389.988 1.73437 1.0375 0
M  V30 3872 C 390.309 0.521449 1.87899 0
M  V30 3873 O 389.579 -0.46432 1.90318 0
M  V30 3874 H 388.159 0.639518 0.386039 0
M  V30 3875 H 390.821 1.91988 0.335675 0
M  V30 3876 H 389.917 2.62235 1.69231 0
M  V30 3877 N 390.218 -0.567019 1.47046 0
M  V30 3878 C 391.443 -1.3551 1.57009 0
M  V30 3879 C 391.868 -1.86841 0.217259 0
M  V30 3880 O 391.226 -1.62435 -0.805268 0
M  V30 3881 C 391.274 -2.50777 2.5912 0
M  V30 3882 O 390.378 -3.52706 2.13711 0
M  V30 3883 H 389.719 -0.402919 0.52778 0
M  V30 3884 H 392.249 -0.686241 1.92748 0
M  V30 3885 H 392.259 -2.97481 2.79229 0
M  V30 3886 H 390.934 -2.12771 3.57353 0
M  V30 3887 H 389.511 -3.12374 2.03659 0
M  V30 3888 N 391.696 -1.35014 -0.812953 0
M  V30 3889 C 392.944 -1.27678 -1.56661 0
M  V30 3890 C 393.265 0.150359 -1.94419 0
M  V30 3891 O 392.535 1.08532 -1.63088 0
M  V30 3892 H 391.115 -0.469602 -0.580933 0
M  V30 3893 H 393.777 -1.69043 -0.970076 0
M  V30 3894 H 392.873 -1.88833 -2.48492 0
M  V30 3895 N 393.175 1.03435 -1.18907 0
M  V30 3896 C 394.422 1.76743 -0.988334 0
M  V30 3897 C 394.75 1.88447 0.481441 0
M  V30 3898 O 394.005 1.39383 1.37371 0
M  V30 3899 C 394.304 3.19792 -1.59586 0
M  V30 3900 C 393.97 3.28108 -3.09283 0
M  V30 3901 C 392.632 3.30084 -3.5014 0
M  V30 3902 C 394.984 3.27696 -4.05296 0
M  V30 3903 C 392.312 3.29299 -4.85571 0
M  V30 3904 C 394.664 3.28451 -5.4065 0
M  V30 3905 C 393.328 3.28723 -5.80946 0
M  V30 3906 H 392.598 0.64675 -0.361657 0
M  V30 3907 H 395.245 1.21442 -1.48068 0
M  V30 3908 H 393.55 3.78136 -1.02568 0
M  V30 3909 H 395.247 3.75171 -1.41589 0
M  V30 3910 H 391.837 3.27294 -2.76725 0
M  V30 3911 H 396.021 3.25354 -3.74778 0
M  V30 3912 H 391.277 3.2783 -5.16079 0
M  V30 3913 H 395.451 3.27082 -6.14809 0
M  V30 3914 H 393.078 3.27868 -6.85862 0
M  V30 3915 N 394.653 0.992116 1.22453 0
M  V30 3916 C 395.93 0.583508 1.86694 0
M  V30 3917 C 396.31 -0.9392 1.89056 0
M  V30 3918 O 395.658 -1.82081 1.38053 0
M  V30 3919 C 395.868 1.20304 3.2761 0
M  V30 3920 C 397.216 1.30308 4.0411 0
M  V30 3921 O 398.24 1.15737 3.36873 0
M  V30 3922 O 397.099 1.53615 5.24466 0
M  V30 3923 H 394.193 0.198129 0.802916 0
M  V30 3924 H 396.739 1.08794 1.30238 0
M  V30 3925 H 395.511 2.24461 3.2052 0
M  V30 3926 H 395.134 0.684144 3.9167 0
M  V30 3927 N 396.131 -1.37776 0.765217 0
M  V30 3928 C 397.094 -2.28686 0.153416 0
M  V30 3929 C 398.094 -1.47727 -0.635081 0
M  V30 3930 O 399.284 -1.68027 -0.459632 0
M  V30 3931 C 396.416 -3.31608 -0.790495 0
M  V30 3932 H 397.609 -2.84297 0.954723 0
M  V30 3933 H 395.162 -1.46932 0.53299 0
M  V30 3934 H 395.897 -2.81109 -1.61705 0
M  V30 3935 H 395.682 -3.9144 -0.227348 0
M  V30 3936 H 397.172 -3.99559 -1.21419 0
M  V30 3937 N 397.609 -0.515225 -1.4894 0
M  V30 3938 C 398.834 0.022727 -2.07388 0
M  V30 3939 C 399.259 1.2876 -1.37122 0
M  V30 3940 O 398.617 1.76067 -0.432431 0
M  V30 3941 C 398.665 0.244869 -3.59768 0
M  V30 3942 O 397.769 1.31667 -3.90817 0
M  V30 3943 H 397.11 -0.0325506 -0.663202 0
M  V30 3944 H 399.64 -0.718918 -1.91553 0
M  V30 3945 H 399.65 0.47205 -4.0526 0
M  V30 3946 H 398.325 -0.679194 -4.10317 0
M  V30 3947 H 396.902 1.07331 -3.5712 0
M  V30 3948 N 399.087 1.5561 -0.249682 0
M  V30 3949 C 400.02 2.17537 0.689408 0
M  V30 3950 C 400.998 1.12829 1.17083 0
M  V30 3951 O 402.182 1.41229 1.24846 0
M  V30 3952 C 399.309 2.77828 1.93725 0
M  V30 3953 C 398.355 3.95615 1.59346 0
M  V30 3954 S 399.188 5.30988 0.69367 0
M  V30 3955 C 400.344 5.94734 1.95046 0
M  V30 3956 H 400.577 2.96852 0.163142 0
M  V30 3957 H 398.11 1.54362 -0.0341166 0
M  V30 3958 H 400.068 3.13199 2.65361 0
M  V30 3959 H 398.729 1.98454 2.43465 0
M  V30 3960 H 397.922 4.364 2.52132 0
M  V30 3961 H 397.524 3.61535 0.957512 0
M  V30 3962 H 399.816 6.12419 2.89739 0
M  V30 3963 H 400.759 6.90109 1.58604 0
M  V30 3964 H 401.167 5.23832 2.10381 0
M  V30 3965 N 400.565 -0.0233959 1.57583 0
M  V30 3966 C 401.495 -1.02162 2.09965 0
M  V30 3967 C 402.476 -1.3735 1.00344 0
M  V30 3968 O 403.661 -1.46135 1.27899 0
M  V30 3969 C 400.791 -2.32081 2.58371 0
M  V30 3970 C 399.745 -2.1112 3.72307 0
M  V30 3971 C 399.071 -3.46848 4.06941 0
M  V30 3972 C 400.371 -1.49276 5.00514 0
M  V30 3973 H 402.065 -0.585557 2.93618 0
M  V30 3974 H 399.611 -0.280218 1.41247 0
M  V30 3975 H 401.564 -3.02249 2.93639 0
M  V30 3976 H 400.288 -2.77758 1.71808 0
M  V30 3977 H 398.947 -1.43384 3.37397 0
M  V30 3978 H 398.595 -3.90184 3.17436 0
M  V30 3979 H 398.295 -3.33646 4.83688 0
M  V30 3980 H 399.819 -4.18369 4.44747 0
M  V30 3981 H 401.233 -2.09368 5.33702 0
M  V30 3982 H 399.63 -1.46632 5.8191 0
M  V30 3983 H 400.7 -0.459217 4.82721 0
M  V30 3984 N 402.043 -1.548 -0.295768 0
M  V30 3985 C 403.32 -1.65014 -1.05023 0
M  V30 3986 C 403.7 -0.501805 -2.05049 0
M  V30 3987 O 403.048 0.500869 -2.22943 0
M  V30 3988 C 403.258 -3.03252 -1.72741 0
M  V30 3989 C 404.606 -3.60242 -2.24746 0
M  V30 3990 O 405.63 -3.05737 -1.82765 0
M  V30 3991 O 404.489 -4.55687 -3.01681 0
M  V30 3992 H 401.583 -0.669314 -0.485744 0
M  V30 3993 H 404.129 -1.67144 -0.293438 0
M  V30 3994 H 402.901 -3.7827 -1.00138 0
M  V30 3995 H 402.524 -3.04922 -2.55163 0
M  V30 3996 N 403.521 0.559213 -1.47345 0
M  V30 3997 C 404.932 1.14134 -1.47751 0
M  V30 3998 C 405.283 1.94834 -0.231103 0
M  V30 3999 O 404.408 2.05957 0.664137 0
M  V30 4000 C 405.003 2.07653 -2.67705 0
M  V30 4001 C 403.562 2.61141 -2.71076 0
M  V30 4002 C 402.709 1.3748 -2.40821 0
M  V30 4003 H 405.66 0.345917 -1.54884 0
M  V30 4004 H 405.681 2.91497 -2.44561 0
M  V30 4005 H 405.193 1.4889 -3.58404 0
M  V30 4006 H 403.294 3.23707 -1.84511 0
M  V30 4007 H 403.407 3.02272 -3.7171 0
M  V30 4008 H 401.771 1.68086 -1.91362 0
M  V30 4009 H 402.554 0.805135 -3.33725 0
M  V30 4010 N 404.999 1.35443 0.805782 0
M  V30 4011 C 405.929 1.31095 1.93226 0
M  V30 4012 C 406.91 0.185244 1.69088 0
M  V30 4013 O 408.095 0.380332 1.90439 0
M  V30 4014 C 405.225 1.08299 3.29983 0
M  V30 4015 C 404.179 2.17519 3.68605 0
M  V30 4016 C 403.505 1.79887 5.03532 0
M  V30 4017 C 404.805 3.5949 3.78898 0
M  V30 4018 H 406.499 2.25352 1.97122 0
M  V30 4019 H 404.045 1.0848 0.946996 0
M  V30 4020 H 405.998 1.03897 4.08391 0
M  V30 4021 H 404.722 0.104885 3.26432 0
M  V30 4022 H 403.381 2.2102 2.92482 0
M  V30 4023 H 403.029 0.80693 4.96485 0
M  V30 4024 H 402.729 2.53001 5.30344 0
M  V30 4025 H 404.253 1.77011 5.84379 0
M  V30 4026 H 405.667 3.58307 4.47536 0
M  V30 4027 H 404.064 4.31371 4.1718 0
M  V30 4028 H 405.134 3.95584 2.80431 0
M  V30 4029 N 406.477 -1.02803 1.19454 0
M  V30 4030 C 407.44 -2.09264 0.934955 0
M  V30 4031 C 408.44 -1.60576 -0.0849015 0
M  V30 4032 O 409.63 -1.73554 0.149933 0
M  V30 4033 C 406.762 -3.38482 0.40531 0
M  V30 4034 H 407.955 -2.33726 1.87916 0
M  V30 4035 H 405.508 -1.19426 1.00832 0
M  V30 4036 H 406.243 -3.19689 -0.544899 0
M  V30 4037 H 406.028 -3.75142 1.14065 0
M  V30 4038 H 407.518 -4.16894 0.242806 0
M  V30 4039 N 407.956 -0.998596 -1.21925 0
M  V30 4040 C 409.372 -0.710303 -1.42923 0
M  V30 4041 C 409.572 0.716933 -1.88314 0
M  V30 4042 O 408.628 1.48712 -2.04062 0
M  V30 4043 C 409.941 -1.72072 -2.466 0
M  V30 4044 C 411.489 -1.73681 -2.60392 0
M  V30 4045 C 411.964 -2.73601 -3.67296 0
M  V30 4046 N 413.455 -2.7223 -3.7476 0
M  V30 4047 C 414.19 -3.46206 -4.57087 0
M  V30 4048 N 413.686 -4.29802 -5.43362 0
M  V30 4049 N 415.479 -3.34886 -4.51451 0
M  V30 4050 H 407.63 -1.92028 -0.9077 0
M  V30 4051 H 409.893 -0.828487 -0.460775 0
M  V30 4052 H 409.599 -2.74231 -2.20206 0
M  V30 4053 H 409.473 -1.51818 -3.45299 0
M  V30 4054 H 411.86 -0.722173 -2.86127 0
M  V30 4055 H 411.941 -1.98005 -1.61949 0
M  V30 4056 H 411.585 -3.75217 -3.42307 0
M  V30 4057 H 411.515 -2.46545 -4.65321 0
M  V30 4058 H 414.006 -2.11576 -3.1312 0
M  V30 4059 H 414.319 -4.83061 -6.03218 0
M  V30 4060 H 412.664 -4.33887 -5.42925 0
M  V30 4061 H 415.855 -2.69015 -3.83078 0
M  V30 4062 H 416.028 -3.92796 -5.15379 0
M  V30 4063 N 409.434 1.37368 -0.772513 0
M  V30 4064 C 410.367 2.27956 -0.105593 0
M  V30 4065 C 411.345 1.46362 0.708295 0
M  V30 4066 O 412.529 1.75695 0.682895 0
M  V30 4067 C 409.656 3.27687 0.856686 0
M  V30 4068 C 408.702 4.26312 0.1267 0
M  V30 4069 S 409.535 5.22206 -1.1858 0
M  V30 4070 C 410.691 6.25488 -0.227081 0
M  V30 4071 H 410.924 2.84171 -0.87372 0
M  V30 4072 H 408.457 1.43654 -0.565939 0
M  V30 4073 H 410.415 3.85653 1.40648 0
M  V30 4074 H 409.076 2.70417 1.59793 0
M  V30 4075 H 408.269 4.96674 0.856212 0
M  V30 4076 H 407.871 3.72339 -0.352117 0
M  V30 4077 H 410.163 6.74836 0.600231 0
M  V30 4078 H 411.106 7.02371 -0.898899 0
M  V30 4079 H 411.514 5.64267 0.162053 0
M  V30 4080 N 410.912 0.523116 1.48665 0
M  V30 4081 C 411.845 -0.290518 2.26343 0
M  V30 4082 C 412.823 -0.950913 1.31895 0
M  V30 4083 O 414.007 -0.976662 1.61225 0
M  V30 4084 C 411.134 -1.41088 3.07915 0
M  V30 4085 C 410.18 -0.862597 4.17686 0
M  V30 4086 S 411.013 0.264135 5.34848 0
M  V30 4087 C 412.169 -0.858864 6.19979 0
M  V30 4088 H 412.402 0.368726 2.95005 0
M  V30 4089 H 409.935 0.30878 1.51281 0
M  V30 4090 H 411.893 -2.0527 3.55492 0
M  V30 4091 H 410.554 -2.04182 2.38681 0
M  V30 4092 H 409.747 -1.70287 4.74361 0
M  V30 4093 H 409.349 -0.297595 3.72814 0
M  V30 4094 H 411.641 -1.7591 6.54264 0
M  V30 4095 H 412.584 -0.330244 7.07329 0
M  V30 4096 H 412.992 -1.13617 5.52948 0
M  V30 4097 N 412.39 -1.55475 0.257931 0
M  V30 4098 C 413.636 -1.99502 -0.364266 0
M  V30 4099 C 413.969 -1.146 -1.56782 0
M  V30 4100 O 413.244 -0.211968 -1.93342 0
M  V30 4101 C 413.527 -3.51917 -0.763333 0
M  V30 4102 C 413.38 -4.4758 0.446371 0
M  V30 4103 C 414.699 -4.09742 -1.60623 0
M  V30 4104 H 411.818 -0.725277 -0.130929 0
M  V30 4105 H 414.46 -1.8653 0.361446 0
M  V30 4106 H 412.61 -3.63101 -1.38166 0
M  V30 4107 H 414.282 -4.48362 1.08487 0
M  V30 4108 H 412.525 -4.19947 1.08753 0
M  V30 4109 H 413.196 -5.51862 0.123645 0
M  V30 4110 H 415.672 -4.01727 -1.08418 0
M  V30 4111 H 414.548 -5.16631 -1.85429 0
M  V30 4112 H 414.809 -3.58889 -2.58169 0
M  V30 4113 N 413.868 0.0150385 -1.57593 0
M  V30 4114 C 415.096 0.714395 -1.94175 0
M  V30 4115 C 415.511 1.68135 -0.858841 0
M  V30 4116 O 414.868 1.81766 0.163567 0
M  V30 4117 C 414.919 1.45933 -3.30735 0
M  V30 4118 O 414.64 0.531167 -4.34868 0
M  V30 4119 C 416.141 2.25456 -3.81686 0
M  V30 4120 H 413.361 0.199923 -0.640525 0
M  V30 4121 H 415.905 -0.0316096 -2.04476 0
M  V30 4122 H 414.06 2.15709 -3.21789 0
M  V30 4123 H 414.474 1.05509 -5.13778 0
M  V30 4124 H 415.948 2.731 -4.79709 0
M  V30 4125 H 416.425 3.07485 -3.13607 0
M  V30 4126 H 417.031 1.60727 -3.9376 0
M  V30 4127 N 415.346 1.54954 0.287554 0
M  V30 4128 C 416.309 1.86076 1.33823 0
M  V30 4129 C 417.309 0.734414 1.43049 0
M  V30 4130 O 418.499 1.00266 1.42452 0
M  V30 4131 C 415.631 2.05305 2.72144 0
M  V30 4132 H 416.824 2.79984 1.07465 0
M  V30 4133 H 414.377 1.47223 0.524902 0
M  V30 4134 H 415.112 1.1373 3.03704 0
M  V30 4135 H 414.897 2.873 2.66836 0
M  V30 4136 H 416.387 2.30706 3.48087 0
M  V30 4137 N 416.824 -0.551391 1.4764 0
M  V30 4138 C 418.101 -1.31229 1.45046 0
M  V30 4139 C 418.481 -2.10563 0.150527 0
M  V30 4140 O 417.829 -2.11374 -0.867956 0
M  V30 4141 C 418.039 -2.21189 2.69956 0
M  V30 4142 C 419.387 -2.82021 3.1741 0
M  V30 4143 O 420.411 -2.31488 2.70724 0
M  V30 4144 O 419.27 -3.73885 3.98588 0
M  V30 4145 H 416.364 -0.591193 0.578291 0
M  V30 4146 H 418.91 -0.569813 1.59847 0
M  V30 4147 H 417.682 -1.62207 3.56096 0
M  V30 4148 H 417.305 -3.02722 2.57769 0
M  V30 4149 N 418.302 -1.35869 -0.798587 0
M  V30 4150 C 419.55 -1.29332 -1.55298 0
M  V30 4151 C 419.871 0.129729 -1.94568 0
M  V30 4152 O 419.141 1.06796 -1.6423 0
M  V30 4153 H 417.721 -0.475737 -0.57592 0
M  V30 4154 H 420.383 -1.70062 -0.952093 0
M  V30 4155 H 419.479 -1.91458 -2.46476 0
M  V30 4156 N 419.78 1.02168 -1.19998 0
M  V30 4157 C 421.027 1.75685 -1.00702 0
M  V30 4158 C 421.355 1.88947 0.461426 0
M  V30 4159 O 420.61 1.40832 1.35885 0
M  V30 4160 C 420.909 3.18081 -1.62969 0
M  V30 4161 C 420.575 3.24809 -3.12746 0
M  V30 4162 C 419.237 3.26352 -3.53621 0
M  V30 4163 C 421.589 3.23379 -4.08749 0
M  V30 4164 C 418.917 3.2413 -4.89036 0
M  V30 4165 C 421.269 3.22698 -5.44104 0
M  V30 4166 C 419.933 3.22542 -5.84399 0
M  V30 4167 H 419.203 0.642877 -0.368496 0
M  V30 4168 H 421.85 1.19865 -1.49348 0
M  V30 4169 H 420.155 3.77027 -1.06573 0
M  V30 4170 H 421.852 3.73648 -1.45561 0
M  V30 4171 H 418.442 3.2434 -2.80181 0
M  V30 4172 H 422.626 3.21361 -3.78207 0
M  V30 4173 H 417.882 3.22338 -5.19527 0
M  V30 4174 H 422.056 3.20543 -6.18244 0
M  V30 4175 H 419.683 3.20575 -6.89301 0
M  V30 4176 N 421.258 1.00505 1.21394 0
M  V30 4177 C 422.674 0.717873 1.42544 0
M  V30 4178 C 422.874 -0.706936 1.88692 0
M  V30 4179 O 421.93 -1.47627 2.04847 0
M  V30 4180 C 423.243 1.73377 2.45684 0
M  V30 4181 C 424.791 1.75059 2.59467 0
M  V30 4182 C 425.266 2.75545 3.6584 0
M  V30 4183 N 426.757 2.74213 3.73311 0
M  V30 4184 C 427.492 3.48626 4.55245 0
M  V30 4185 N 426.988 4.32678 5.41075 0
M  V30 4186 N 428.781 3.37276 4.49668 0
M  V30 4187 H 420.932 1.92506 0.897503 0
M  V30 4188 H 423.195 0.830919 0.456375 0
M  V30 4189 H 422.901 2.75395 2.18748 0
M  V30 4190 H 422.775 1.53647 3.44489 0
M  V30 4191 H 425.162 0.737337 2.8574 0
M  V30 4192 H 425.243 1.98861 1.60897 0
M  V30 4193 H 424.887 3.77028 3.40313 0
M  V30 4194 H 424.817 2.49009 4.64007 0
M  V30 4195 H 427.308 2.13234 3.11993 0
M  V30 4196 H 427.621 4.86253 6.00648 0
M  V30 4197 H 425.966 4.3676 5.40616 0
M  V30 4198 H 429.157 2.71043 3.81646 0
M  V30 4199 H 429.33 3.95524 5.13288 0
M  V30 4200 N 422.737 -1.36956 0.779787 0
M  V30 4201 C 423.669 -2.28833 0.129639 0
M  V30 4202 C 424.682 -1.4902 -0.655511 0
M  V30 4203 O 425.871 -1.71578 -0.492279 0
M  V30 4204 C 422.971 -3.2833 -0.839792 0
M  V30 4205 C 422.144 -4.3727 -0.10675 0
M  V30 4206 C 421.203 -5.16789 -0.990717 0
M  V30 4207 O 420.229 -5.67406 -0.451516 0
M  V30 4208 N 421.431 -5.32294 -2.3161 0
M  V30 4209 H 424.196 -2.85268 0.918803 0
M  V30 4210 H 421.757 -1.49019 0.632841 0
M  V30 4211 H 423.749 -3.78413 -1.43477 0
M  V30 4212 H 422.319 -2.72605 -1.52988 0
M  V30 4213 H 421.539 -3.88478 0.669216 0
M  V30 4214 H 422.827 -5.07229 0.399464 0
M  V30 4215 H 422.225 -4.92768 -2.77843 0
M  V30 4216 H 420.782 -5.85656 -2.86095 0
M  V30 4217 N 424.215 -0.530993 -1.48385 0
M  V30 4218 C 425.148 0.278511 -2.26494 0
M  V30 4219 C 426.126 0.943905 -1.32398 0
M  V30 4220 O 427.31 0.968098 -1.61741 0
M  V30 4221 C 424.437 1.39453 -3.08659 0
M  V30 4222 C 423.483 0.840434 -4.18137 0
M  V30 4223 S 424.316 -0.292496 -5.34701 0
M  V30 4224 C 425.472 0.825973 -6.20426 0
M  V30 4225 H 425.705 -0.384365 -2.94805 0
M  V30 4226 H 423.238 -0.316799 -1.51115 0
M  V30 4227 H 425.196 2.03382 -3.56575 0
M  V30 4228 H 423.857 2.02913 -2.3976 0
M  V30 4229 H 423.05 1.67769 -4.75257 0
M  V30 4230 H 422.652 0.277819 -3.72967 0
M  V30 4231 H 424.944 1.72438 -6.55188 0
M  V30 4232 H 425.887 0.292728 -7.07495 0
M  V30 4233 H 426.295 1.10683 -5.53543 0
M  V30 4234 N 425.693 1.55336 -0.266172 0
M  V30 4235 C 426.656 2.20878 0.612001 0
M  V30 4236 C 427.656 1.18388 1.08816 0
M  V30 4237 O 428.846 1.4335 0.989774 0
M  V30 4238 C 425.978 2.86765 1.84332 0
M  V30 4239 H 427.171 2.99873 0.0398718 0
M  V30 4240 H 424.724 1.56291 -0.0167309 0
M  V30 4241 H 425.459 2.11759 2.45619 0
M  V30 4242 H 425.244 3.61862 1.5099 0
M  V30 4243 H 426.734 3.36867 2.46801 0
M  V30 4244 N 427.171 -0.0066808 1.57599 0
M  V30 4245 C 428.587 -0.36267 1.55425 0
M  V30 4246 C 428.787 -1.75209 0.995187 0
M  V30 4247 O 427.843 -2.44616 0.626058 0
M  V30 4248 C 429.156 -0.244017 2.99708 0
M  V30 4249 C 430.704 -0.319451 3.11366 0
M  V30 4250 C 431.179 -0.229998 4.57422 0
M  V30 4251 N 432.67 -0.288105 4.62303 0
M  V30 4252 C 433.405 -0.242127 5.72889 0
M  V30 4253 N 432.901 -0.147133 6.92644 0
M  V30 4254 N 434.694 -0.293502 5.61333 0
M  V30 4255 H 426.845 0.902314 1.92281 0
M  V30 4256 H 429.108 0.34525 0.882896 0
M  V30 4257 H 428.814 0.711678 3.44424 0
M  V30 4258 H 428.688 -1.02877 3.629 0
M  V30 4259 H 431.075 -1.26559 2.66584 0
M  V30 4260 H 431.156 0.495055 2.50964 0
M  V30 4261 H 430.8 0.712566 5.02877 0
M  V30 4262 H 430.73 -1.0629 5.15761 0
M  V30 4263 H 433.221 -0.363126 3.76151 0
M  V30 4264 H 433.534 -0.117763 7.7271 0
M  V30 4265 H 431.879 -0.112857 6.94908 0
M  V30 4266 H 435.07 -0.365864 4.66668 0
M  V30 4267 H 435.243 -0.254204 6.47501 0
M  V30 4268 N 428.649 -1.55105 -0.279332 0
M  V30 4269 C 430.065 -1.46803 -0.626187 0
M  V30 4270 C 430.265 -0.676939 -1.89789 0
M  V30 4271 O 429.321 -0.19326 -2.51759 0
M  V30 4272 C 430.634 -2.90962 -0.759034 0
M  V30 4273 C 432.182 -3.01138 -0.853504 0
M  V30 4274 C 432.657 -4.46539 -1.01818 0
M  V30 4275 N 434.148 -4.50341 -1.08386 0
M  V30 4276 C 434.883 -5.60053 -1.22996 0
M  V30 4277 N 434.379 -6.79645 -1.34366 0
M  V30 4278 N 436.172 -5.47783 -1.26056 0
M  V30 4279 H 428.323 -2.04996 0.555921 0
M  V30 4280 H 430.586 -0.929325 0.187239 0
M  V30 4281 H 430.292 -3.51544 0.104852 0
M  V30 4282 H 430.166 -3.39619 -1.64131 0
M  V30 4283 H 432.553 -2.40658 -1.70786 0
M  V30 4284 H 432.634 -2.55745 0.0532466 0
M  V30 4285 H 432.278 -5.0762 -0.168504 0
M  V30 4286 H 432.208 -4.89583 -1.93948 0
M  V30 4287 H 434.699 -3.64191 -1.00864 0
M  V30 4288 H 435.012 -7.59012 -1.4533 0
M  V30 4289 H 433.357 -6.82469 -1.31382 0
M  V30 4290 H 436.548 -4.53294 -1.168 0
M  V30 4291 H 436.721 -6.33331 -1.37098 0
M  V30 4292 N 430.127 0.543554 -1.4793 0
M  V30 4293 C 431.355 1.32516 -1.58894 0
M  V30 4294 C 431.77 1.87215 -0.244131 0
M  V30 4295 O 431.127 1.65709 0.764652 0
M  V30 4296 C 431.178 2.48554 -2.62494 0
M  V30 4297 O 430.899 1.96112 -3.91755 0
M  V30 4298 C 432.4 3.40572 -2.8377 0
M  V30 4299 H 429.62 0.403472 -0.536145 0
M  V30 4300 H 432.164 0.657106 -1.93655 0
M  V30 4301 H 430.319 3.1127 -2.30629 0
M  V30 4302 H 430.733 2.71967 -4.4848 0
M  V30 4303 H 432.207 4.18375 -3.60093 0
M  V30 4304 H 432.684 3.94965 -1.92092 0
M  V30 4305 H 433.29 2.8366 -3.16887 0
M  V30 4306 N 431.605 1.3629 0.791371 0
M  V30 4307 C 432.854 1.29742 1.54434 0
M  V30 4308 C 433.167 -0.121729 1.95221 0
M  V30 4309 O 434.373 -0.309579 2.69729 0
M  V30 4310 C 432.829 2.27623 2.78776 0
M  V30 4311 C 432.437 3.74963 2.45166 0
M  V30 4312 C 434.181 2.30047 3.56761 0
M  V30 4313 C 432.088 4.64626 3.65891 0
M  V30 4314 H 431.018 0.482113 0.579727 0
M  V30 4315 H 433.669 1.61642 0.868565 0
M  V30 4316 H 432.051 1.88714 3.48142 0
M  V30 4317 H 433.225 4.22596 1.83709 0
M  V30 4318 H 431.54 3.75295 1.80396 0
M  V30 4319 H 434.137 2.94247 4.46456 0
M  V30 4320 H 434.48 1.30846 3.95203 0
M  V30 4321 H 435.013 2.67563 2.94372 0
M  V30 4322 H 431.752 5.64883 3.32547 0
M  V30 4323 H 431.272 4.2171 4.26521 0
M  V30 4324 H 432.951 4.80801 4.32943 0
M  V30 4325 N 433.083 -1.0153 1.20538 0
M  V30 4326 C 434.36 -1.72327 0.925343 0
M  V30 4327 C 434.74 -2.03383 -0.565547 0
M  V30 4328 O 434.088 -1.69934 -1.52757 0
M  V30 4329 C 434.298 -2.9902 1.79967 0
M  V30 4330 C 435.646 -3.72258 2.04228 0
M  V30 4331 O 436.67 -3.08979 1.77231 0
M  V30 4332 O 435.529 -4.86053 2.4983 0
M  V30 4333 H 432.623 -0.751099 0.346092 0
M  V30 4334 H 435.169 -1.07366 1.31417 0
M  V30 4335 H 433.941 -2.72402 2.80915 0
M  V30 4336 H 433.564 -3.71721 1.41099 0
M  V30 4337 N 434.561 -1.01147 -1.20859 0
M  V30 4338 C 435.801 -0.706331 -1.91808 0
M  V30 4339 C 436.165 0.749736 -1.76757 0
M  V30 4340 O 437.366 1.16716 -2.42138 0
M  V30 4341 C 435.637 -1.12371 -3.39275 0
M  V30 4342 S 437.196 -0.939764 -4.28619 0
M  V30 4343 H 434.014 -0.257665 -0.662669 0
M  V30 4344 H 436.616 -1.29766 -1.46223 0
M  V30 4345 H 435.32 -2.17943 -3.47749 0
M  V30 4346 H 434.851 -0.524952 -3.89882 0
M  V30 4347 H 436.866 0.159556 -4.95943 0
M  V30 4348 N 436.039 1.36541 -0.78704 0
M  V30 4349 C 437.002 2.28413 -0.189778 0
M  V30 4350 C 438.002 1.48719 0.611499 0
M  V30 4351 O 439.192 1.68737 0.432842 0
M  V30 4352 C 436.324 3.32824 0.737638 0
M  V30 4353 H 437.517 2.82743 -0.999831 0
M  V30 4354 H 435.07 1.46065 -0.556298 0
M  V30 4355 H 435.805 2.83646 1.57212 0
M  V30 4356 H 435.59 3.91752 0.165044 0
M  V30 4357 H 437.08 4.0144 1.15047 0
M  V30 4358 N 437.518 0.538854 1.48102 0
M  V30 4359 C 438.481 -0.208395 2.28251 0
M  V30 4360 C 439.481 -0.859656 1.35892 0
M  V30 4361 O 440.671 -0.71834 1.58699 0
M  V30 4362 C 437.803 -1.30252 3.15035 0
M  V30 4363 H 438.996 0.495407 2.9578 0
M  V30 4364 H 436.549 0.295112 1.53489 0
M  V30 4365 H 437.284 -2.0393 2.52157 0
M  V30 4366 H 437.069 -0.840551 3.82985 0
M  V30 4367 H 438.559 -1.82787 3.75471 0
M  V30 4368 N 438.996 -1.55193 0.274407 0
M  V30 4369 C 440.273 -1.91584 -0.394331 0
M  V30 4370 C 440.653 -1.19858 -1.73774 0
M  V30 4371 O 440.001 -0.3252 -2.26174 0
M  V30 4372 C 440.211 -3.4487 -0.535311 0
M  V30 4373 C 441.559 -4.16636 -0.818534 0
M  V30 4374 O 442.583 -3.5076 -0.620146 0
M  V30 4375 O 441.442 -5.33209 -1.19792 0
M  V30 4376 H 438.536 -0.798349 -0.215794 0
M  V30 4377 H 441.082 -1.66646 0.320507 0
M  V30 4378 H 439.854 -3.89145 0.410141 0
M  V30 4379 H 439.477 -3.75759 -1.29964 0
M  V30 4380 N 440.474 -0.00167713 -1.576 0
M  V30 4381 C 441.723 0.682021 -1.89819 0
M  V30 4382 C 442.036 1.74844 -0.876871 0
M  V30 4383 O 443.242 2.48688 -1.08934 0
M  V30 4384 C 441.698 1.26425 -3.36964 0
M  V30 4385 C 441.306 0.232568 -4.47396 0
M  V30 4386 C 443.05 1.92604 -3.78291 0
M  V30 4387 C 440.957 0.824882 -5.85619 0
M  V30 4388 H 439.887 0.258499 -0.708304 0
M  V30 4389 H 442.538 -0.0624957 -1.83394 0
M  V30 4390 H 440.92 2.05949 -3.38232 0
M  V30 4391 H 442.094 -0.5382 -4.57646 0
M  V30 4392 H 440.409 -0.32888 -4.15099 0
M  V30 4393 H 443.006 2.37827 -4.78897 0
M  V30 4394 H 443.349 2.75732 -3.11894 0
M  V30 4395 H 443.882 1.19812 -3.79328 0
M  V30 4396 H 440.621 0.0323542 -6.55492 0
M  V30 4397 H 440.141 1.56477 -5.79029 0
M  V30 4398 H 441.82 1.32301 -6.33329 0
M  V30 4399 N 441.952 1.55251 0.271103 0
M  V30 4400 C 443.192 1.77698 1.01008 0
M  V30 4401 C 443.556 0.567246 1.83429 0
M  V30 4402 O 444.757 0.670013 2.60316 0
M  V30 4403 C 443.028 3.04715 1.86772 0
M  V30 4404 S 444.587 3.48289 2.66909 0
M  V30 4405 H 441.405 0.624343 0.340172 0
M  V30 4406 H 444.007 1.9348 0.280315 0
M  V30 4407 H 442.711 3.90853 1.25149 0
M  V30 4408 H 442.242 2.91604 2.64066 0
M  V30 4409 H 444.257 3.07712 3.89266 0
M  V30 4410 N 443.43 -0.535701 1.48216 0
M  V30 4411 C 444.707 -1.29683 1.46429 0
M  V30 4412 C 445.087 -2.10391 0.172852 0
M  V30 4413 O 444.435 -2.12282 -0.845488 0
M  V30 4414 C 444.645 -2.18313 2.72287 0
M  V30 4415 C 445.993 -2.78639 3.20383 0
M  V30 4416 O 447.017 -2.28604 2.73164 0
M  V30 4417 O 445.876 -3.69636 4.02531 0
M  V30 4418 H 442.97 -0.585026 0.584529 0
M  V30 4419 H 445.516 -0.552827 1.60443 0
M  V30 4420 H 444.288 -1.58421 3.57797 0
M  V30 4421 H 443.911 -2.99971 2.60966 0
M  V30 4422 N 444.908 -1.36708 -0.784132 0
M  V30 4423 C 446.156 -1.30972 -1.53918 0
M  V30 4424 C 446.477 0.109086 -1.94695 0
M  V30 4425 O 445.747 1.05048 -1.65353 0
M  V30 4426 H 444.327 -0.481819 -0.570841 0
M  V30 4427 H 446.989 -1.71063 -0.934002 0
M  V30 4428 H 446.085 -1.94061 -2.44431 0
M  V30 4429 N 446.386 1.0089 -1.21074 0
M  V30 4430 C 447.802 1.2695 -0.967257 0
M  V30 4431 C 448.002 1.9846 0.348673 0
M  V30 4432 O 447.058 2.28459 1.0753 0
M  V30 4433 C 448.371 2.09697 -2.15517 0
M  V30 4434 C 449.919 2.22937 -2.197 0
M  V30 4435 C 450.394 3.09064 -3.37999 0
M  V30 4436 N 451.885 3.16653 -3.38061 0
M  V30 4437 C 452.62 3.8354 -4.26245 0
M  V30 4438 N 452.116 4.52488 -5.2462 0
M  V30 4439 N 453.909 3.80141 -4.14064 0
M  V30 4440 H 446.06 0.529005 -2.05707 0
M  V30 4441 H 448.323 0.296148 -0.900556 0
M  V30 4442 H 448.029 1.64497 -3.10859 0
M  V30 4443 H 447.903 3.10444 -2.14253 0
M  V30 4444 H 450.29 2.67357 -1.24916 0
M  V30 4445 H 450.371 1.21673 -2.2501 0
M  V30 4446 H 450.015 2.65347 -4.33074 0
M  V30 4447 H 449.945 4.10433 -3.29928 0
M  V30 4448 H 452.436 2.67566 -2.66865 0
M  V30 4449 H 452.749 5.01219 -5.88217 0
M  V30 4450 H 451.094 4.51288 -5.28549 0
M  V30 4451 H 454.285 3.25427 -3.36474 0
M  V30 4452 H 454.458 4.31992 -4.82998 0
M  V30 4453 N 447.864 1.01787 1.20321 0
M  V30 4454 C 449.113 0.703249 1.89043 0
M  V30 4455 C 449.426 -0.770445 1.79787 0
M  V30 4456 O 450.632 -1.19767 2.43656 0
M  V30 4457 C 449.088 1.20749 3.3904 0
M  V30 4458 C 448.696 2.70817 3.56878 0
M  V30 4459 C 450.44 0.968352 4.13308 0
M  V30 4460 C 448.347 3.14716 5.00708 0
M  V30 4461 H 447.277 0.259354 0.707991 0
M  V30 4462 H 449.928 1.23072 1.36108 0
M  V30 4463 H 448.31 0.607989 3.91305 0
M  V30 4464 H 449.484 3.36327 3.14993 0
M  V30 4465 H 447.799 2.92888 2.95983 0
M  V30 4466 H 450.396 1.27173 5.19356 0
M  V30 4467 H 450.739 -0.095149 4.16191 0
M  V30 4468 H 451.272 1.53129 3.67146 0
M  V30 4469 H 448.011 4.20347 5.02979 0
M  V30 4470 H 447.531 2.53927 5.43398 0
M  V30 4471 H 449.21 3.07426 5.69296 0
M  V30 4472 N 449.342 -1.36122 0.79427 0
M  V30 4473 C 450.588 -1.99406 0.369452 0
M  V30 4474 C 450.921 -1.62886 -1.05743 0
M  V30 4475 O 450.196 -0.886053 -1.73145 0
M  V30 4476 C 450.479 -3.56046 0.538833 0
M  V30 4477 C 450.332 -4.02404 2.00976 0
M  V30 4478 C 451.651 -4.40079 -0.0431359 0
M  V30 4479 H 448.77 -0.724397 0.135712 0
M  V30 4480 H 451.412 -1.61461 1.00151 0
M  V30 4481 H 449.562 -3.885 0.000771004 0
M  V30 4482 H 451.234 -3.80415 2.60926 0
M  V30 4483 H 449.477 -3.53765 2.51063 0
M  V30 4484 H 450.148 -5.11344 2.07922 0
M  V30 4485 H 452.624 -4.14013 0.416228 0
M  V30 4486 H 451.5 -5.48799 0.105374 0
M  V30 4487 H 451.761 -4.27264 -1.13571 0
M  V30 4488 N 450.82 -0.546701 -1.47814 0
M  V30 4489 C 452.067 -0.0187407 -2.02491 0
M  V30 4490 C 452.395 1.32685 -1.42215 0
M  V30 4491 O 451.65 1.87413 -0.563454 0
M  V30 4492 C 451.949 0.134869 -3.57145 0
M  V30 4493 C 451.615 -1.13849 -4.3629 0
M  V30 4494 C 450.277 -1.48743 -4.57634 0
M  V30 4495 C 452.629 -1.98277 -4.82012 0
M  V30 4496 C 449.957 -2.67932 -5.21948 0
M  V30 4497 C 452.309 -3.16659 -5.4764 0
M  V30 4498 C 450.973 -3.51879 -5.67219 0
M  V30 4499 H 450.243 -0.0068577 -0.740968 0
M  V30 4500 H 452.89 -0.716097 -1.77607 0
M  V30 4501 H 451.195 0.915118 -3.80963 0
M  V30 4502 H 452.892 0.558556 -3.97091 0
M  V30 4503 H 449.482 -0.856767 -4.19949 0
M  V30 4504 H 453.666 -1.72628 -4.6531 0
M  V30 4505 H 448.922 -2.95401 -5.35302 0
M  V30 4506 H 453.096 -3.82374 -5.82033 0
M  V30 4507 H 450.723 -4.44331 -6.16825 0
M  V30 4508 N 452.299 1.55045 -0.282633 0
M  V30 4509 C 453.545 2.00056 0.332481 0
M  V30 4510 C 453.878 1.1708 1.54939 0
M  V30 4511 O 453.153 0.2427 1.9298 0
M  V30 4512 C 453.436 3.53086 0.70725 0
M  V30 4513 C 453.289 4.46813 -0.517521 0
M  V30 4514 C 454.608 4.12245 1.54084 0
M  V30 4515 H 451.727 0.727268 0.119373 0
M  V30 4516 H 454.369 1.85932 -0.391076 0
M  V30 4517 H 452.519 3.65253 1.32372 0
M  V30 4518 H 454.191 4.46579 -1.15607 0
M  V30 4519 H 452.434 4.18163 -1.1542 0
M  V30 4520 H 453.105 5.51595 -0.211426 0
M  V30 4521 H 455.581 4.03401 1.02013 0
M  V30 4522 H 454.457 5.19515 1.77186 0
M  V30 4523 H 454.718 3.62951 2.52427 0
M  V30 4524 N 453.777 0.010035 1.57597 0
M  V30 4525 C 454.709 -1.00649 2.05918 0
M  V30 4526 C 455.722 -1.30077 0.978964 0
M  V30 4527 O 456.911 -1.26878 1.25556 0
M  V30 4528 C 454.011 -2.33876 2.45265 0
M  V30 4529 C 453.184 -2.23242 3.7614 0
M  V30 4530 C 452.243 -3.39242 4.02245 0
M  V30 4531 O 451.269 -3.1698 4.72771 0
M  V30 4532 N 452.471 -4.6242 3.50924 0
M  V30 4533 H 455.236 -0.594333 2.93748 0
M  V30 4534 H 452.797 -0.17714 1.60928 0
M  V30 4535 H 454.789 -3.1027 2.59836 0
M  V30 4536 H 453.359 -2.66799 1.62902 0
M  V30 4537 H 452.579 -1.31696 3.71551 0
M  V30 4538 H 453.867 -2.13321 4.61922 0
M  V30 4539 H 453.265 -4.83404 2.93832 0
M  V30 4540 H 451.822 -5.36046 3.70807 0
M  V30 4541 N 455.255 -1.55392 -0.262866 0
M  V30 4542 C 456.165 -1.92077 -1.34698 0
M  V30 4543 C 457.181 -0.819227 -1.53508 0
M  V30 4544 O 458.357 -1.11921 -1.67439 0
M  V30 4545 C 455.422 -2.19407 -2.68443 0
M  V30 4546 C 454.483 -3.42905 -2.58292 0
M  V30 4547 C 453.716 -3.68921 -3.85659 0
M  V30 4548 O 453.939 -2.97275 -4.8681 0
M  V30 4549 O 452.873 -4.62455 -3.85252 0
M  V30 4550 H 456.699 -2.84384 -1.06581 0
M  V30 4551 H 454.284 -1.42069 -0.462264 0
M  V30 4552 H 456.166 -2.38365 -3.47506 0
M  V30 4553 H 454.841 -1.30282 -2.96325 0
M  V30 4554 H 453.748 -3.29272 -1.7757 0
M  V30 4555 H 455.081 -4.32282 -2.35358 0
M  V30 4556 N 456.733 0.527833 -1.48498 0
M  V30 4557 C 457.981 1.28101 -1.56316 0
M  V30 4558 C 458.302 1.9352 -0.239781 0
M  V30 4559 O 457.572 1.81433 0.738849 0
M  V30 4560 H 456.152 0.475793 -0.575873 0
M  V30 4561 H 458.814 0.614052 -1.84974 0
M  V30 4562 H 457.91 2.05916 -2.34532 0
M  V30 4563 N 458.211 1.37122 0.776871 0
M  V30 4564 C 459.459 1.31787 1.53221 0
M  V30 4565 C 459.78 -0.0987589 1.9475 0
M  V30 4566 O 459.05 -1.0417 1.65908 0
M  V30 4567 H 457.63 0.484839 0.568278 0
M  V30 4568 H 460.292 1.71556 0.924917 0
M  V30 4569 H 459.388 1.95355 2.43398 0
M  V30 4570 N 459.689 -1.00246 1.21608 0
M  V30 4571 C 460.919 -1.77373 1.05935 0
M  V30 4572 C 461.327 -1.85059 -0.393686 0
M  V30 4573 O 460.67 -1.31289 -1.28487 0
M  V30 4574 C 460.732 -3.22705 1.58435 0
M  V30 4575 C 460.396 -3.38591 3.06929 0
M  V30 4576 C 461.393 -3.2667 4.04454 0
M  V30 4577 C 459.078 -3.6395 3.46187 0
M  V30 4578 C 461.072 -3.39877 5.39224 0
M  V30 4579 C 458.759 -3.768 4.81108 0
M  V30 4580 C 459.757 -3.6477 5.77436 0
M  V30 4581 O 459.445 -3.77206 7.09909 0
M  V30 4582 H 459.177 -0.56419 0.372378 0
M  V30 4583 H 461.731 -1.26971 1.61454 0
M  V30 4584 H 459.961 -3.74255 0.973147 0
M  V30 4585 H 461.65 -3.81515 1.38568 0
M  V30 4586 H 462.416 -3.06999 3.75468 0
M  V30 4587 H 458.295 -3.72395 2.71741 0
M  V30 4588 H 461.839 -3.30404 6.14393 0
M  V30 4589 H 457.736 -3.95975 5.09779 0
M  V30 4590 H 458.504 -3.94138 7.17355 0
M  V30 4591 N 461.167 -1.02423 -1.1978 0
M  V30 4592 C 462.392 -0.7373 -1.93852 0
M  V30 4593 C 462.817 0.696923 -1.74713 0
M  V30 4594 O 462.175 1.48056 -1.04638 0
M  V30 4595 C 462.223 -1.08783 -3.438 0
M  V30 4596 O 461.327 -0.20383 -4.11896 0
M  V30 4597 H 460.668 -0.27284 -0.605355 0
M  V30 4598 H 463.198 -1.36966 -1.51992 0
M  V30 4599 H 463.208 -1.04276 -3.9445 0
M  V30 4600 H 461.883 -2.13274 -3.57053 0
M  V30 4601 H 460.46 -0.307091 -3.71633 0
M  V30 4602 N 462.645 1.35699 -0.801477 0
M  V30 4603 C 464.056 1.81415 -0.441073 0
M  V30 4604 C 464.407 1.66595 1.03636 0
M  V30 4605 O 463.532 1.19369 1.80499 0
M  V30 4606 C 464.127 3.29369 -0.793819 0
M  V30 4607 C 462.686 3.73248 -0.486083 0
M  V30 4608 C 461.833 2.57775 -1.02213 0
M  V30 4609 H 464.784 1.23749 -0.993572 0
M  V30 4610 H 464.805 3.80395 -0.0894158 0
M  V30 4611 H 464.317 3.40123 -1.86917 0
M  V30 4612 H 462.418 3.68046 0.580735 0
M  V30 4613 H 462.531 4.68222 -1.01513 0
M  V30 4614 H 460.895 2.50788 -0.444712 0
M  V30 4615 H 461.678 2.71309 -2.10348 0
M  V30 4616 N 464.123 0.554532 1.47522 0
M  V30 4617 C 465.073 -0.215008 2.26984 0
M  V30 4618 C 466.057 -0.88774 1.34194 0
M  V30 4619 O 467.249 -0.786489 1.58567 0
M  V30 4620 C 464.378 -1.24604 3.19889 0
M  V30 4621 C 463.464 -0.576857 4.20159 0
M  V30 4622 N 463.855 0.351541 5.04577 0
M  V30 4623 C 462.153 -0.831104 4.38188 0
M  V30 4624 C 462.854 0.739995 5.76974 0
M  V30 4625 N 461.83 0.0954407 5.43516 0
M  V30 4626 H 465.632 0.498843 2.89636 0
M  V30 4627 H 463.146 0.374279 1.58028 0
M  V30 4628 H 465.143 -1.81128 3.75498 0
M  V30 4629 H 463.803 -1.96101 2.58794 0
M  V30 4630 H 464.814 0.725556 5.12792 0
M  V30 4631 H 461.491 -1.53479 3.88266 0
M  V30 4632 H 462.881 1.50271 6.5488 0
M  V30 4633 N 465.601 -1.54893 0.290851 0
M  V30 4634 C 466.831 -2.04047 -0.323818 0
M  V30 4635 C 467.239 -1.16809 -1.48837 0
M  V30 4636 O 466.582 -0.184145 -1.82775 0
M  V30 4637 C 466.644 -3.49248 -0.852395 0
M  V30 4638 C 466.308 -4.56623 0.185557 0
M  V30 4639 C 467.305 -5.09985 1.01053 0
M  V30 4640 C 464.99 -5.01252 0.324332 0
M  V30 4641 C 466.984 -6.06507 1.96031 0
M  V30 4642 C 464.671 -5.97596 1.27757 0
M  V30 4643 C 465.669 -6.50107 2.09405 0
M  V30 4644 O 465.357 -7.44565 3.03114 0
M  V30 4645 H 465.089 -0.671735 -0.0758129 0
M  V30 4646 H 467.643 -2.00947 0.425393 0
M  V30 4647 H 465.873 -3.49639 -1.65195 0
M  V30 4648 H 467.562 -3.81654 -1.38185 0
M  V30 4649 H 468.328 -4.76307 0.914129 0
M  V30 4650 H 464.207 -4.60015 -0.301213 0
M  V30 4651 H 467.751 -6.47418 2.598 0
M  V30 4652 H 463.648 -6.30691 1.37473 0
M  V30 4653 H 464.416 -7.62334 2.97976 0
M  V30 4654 N 467.08 -0.0183926 -1.57589 0
M  V30 4655 C 468.01 0.965596 -2.12599 0
M  V30 4656 C 468.991 1.34641 -1.0395 0
M  V30 4657 O 470.176 1.42693 -1.31729 0
M  V30 4658 C 467.306 2.25149 -2.64434 0
M  V30 4659 C 466.26 2.01175 -3.77773 0
M  V30 4660 C 465.586 3.35937 -4.15994 0
M  V30 4661 C 466.886 1.35953 -5.04296 0
M  V30 4662 H 468.58 0.507504 -2.95067 0
M  V30 4663 H 466.126 0.242671 -1.41941 0
M  V30 4664 H 468.079 2.94357 -3.01549 0
M  V30 4665 H 466.803 2.73105 -1.79112 0
M  V30 4666 H 465.462 1.34388 -3.4108 0
M  V30 4667 H 465.11 3.81631 -3.27669 0
M  V30 4668 H 464.81 3.20705 -4.92364 0
M  V30 4669 H 466.334 4.0643 -4.55683 0
M  V30 4670 H 467.748 1.95144 -5.39065 0
M  V30 4671 H 466.145 1.31152 -5.85593 0
M  V30 4672 H 467.215 0.331071 -4.83768 0
M  V30 4673 N 468.558 1.5553 0.254621 0
M  V30 4674 C 469.969 1.67518 0.824286 0
M  V30 4675 C 470.32 0.614429 1.86331 0
M  V30 4676 O 469.445 -0.240736 2.15057 0
M  V30 4677 C 470.04 3.03692 1.50189 0
M  V30 4678 C 468.599 3.17646 2.01935 0
M  V30 4679 C 467.746 2.63373 0.867746 0
M  V30 4680 H 470.697 1.58671 0.0305843 0
M  V30 4681 H 470.718 2.97706 2.36962 0
M  V30 4682 H 470.23 3.80874 0.745431 0
M  V30 4683 H 468.331 2.45273 2.80485 0
M  V30 4684 H 468.444 4.24455 2.22204 0
M  V30 4685 H 466.808 2.20999 1.26616 0
M  V30 4686 H 467.591 3.43074 0.124498 0
M  V30 4687 N 470.036 -0.519951 1.48776 0
M  V30 4688 C 471.283 -1.27522 1.57303 0
M  V30 4689 C 471.611 -1.92869 0.251328 0
M  V30 4690 O 470.866 -1.80372 -0.759243 0
M  V30 4691 C 471.165 -2.37864 2.6675 0
M  V30 4692 C 470.831 -1.90103 4.08867 0
M  V30 4693 C 469.493 -1.76795 4.47546 0
M  V30 4694 C 471.845 -1.54133 4.97888 0
M  V30 4695 C 469.173 -1.25868 5.73039 0
M  V30 4696 C 471.525 -1.04665 6.23881 0
M  V30 4697 C 470.189 -0.899823 6.61407 0
M  V30 4698 H 469.459 -0.466636 0.575614 0
M  V30 4699 H 472.106 -0.579109 1.82534 0
M  V30 4700 H 470.411 -3.13186 2.35418 0
M  V30 4701 H 472.108 -2.95969 2.70561 0
M  V30 4702 H 468.698 -2.01414 3.78326 0
M  V30 4703 H 472.882 -1.6327 4.68675 0
M  V30 4704 H 468.138 -1.13196 6.0083 0
M  V30 4705 H 472.312 -0.759074 6.92251 0
M  V30 4706 H 469.939 -0.503011 7.58534 0
M  V30 4707 N 471.514 -1.37532 -0.769588 0
M  V30 4708 C 472.754 -1.34261 -1.54122 0
M  V30 4709 C 473.118 0.0717222 -1.91866 0
M  V30 4710 O 474.319 0.22918 -2.67821 0
M  V30 4711 C 472.59 -2.2574 -2.77086 0
M  V30 4712 S 474.149 -2.40339 -3.67127 0
M  V30 4713 H 470.967 -0.476595 -0.527615 0
M  V30 4714 H 473.569 -1.73303 -0.90479 0
M  V30 4715 H 472.273 -3.27417 -2.4744 0
M  V30 4716 H 471.804 -1.87789 -3.45686 0
M  V30 4717 H 473.819 -1.61558 -4.69163 0
M  V30 4718 N 472.992 0.995999 -1.22138 0
M  V30 4719 C 474.24 1.73167 -1.042 0
M  V30 4720 C 474.561 1.90329 0.42423 0
M  V30 4721 O 473.831 1.4607 1.30539 0
M  V30 4722 H 472.411 0.641593 -0.38258 0
M  V30 4723 H 475.073 1.19974 -1.53598 0
M  V30 4724 H 474.169 2.72734 -1.51731 0
M  V30 4725 N 474.47 1.03057 1.19235 0
M  V30 4726 C 475.4 0.633497 2.24742 0
M  V30 4727 C 476.381 -0.358335 1.66283 0
M  V30 4728 O 477.566 -0.240676 1.92703 0
M  V30 4729 C 474.696 -0.0147648 3.47297 0
M  V30 4730 C 473.65 0.899527 4.18441 0
M  V30 4731 C 472.976 0.116281 5.34574 0
M  V30 4732 C 474.276 2.21404 4.73051 0
M  V30 4733 H 475.97 1.5155 2.58211 0
M  V30 4734 H 473.516 0.73014 1.24117 0
M  V30 4735 H 475.469 -0.304202 4.20301 0
M  V30 4736 H 474.193 -0.931577 3.13032 0
M  V30 4737 H 472.852 1.17319 3.47321 0
M  V30 4738 H 472.5 -0.802619 4.96555 0
M  V30 4739 H 472.2 0.725293 5.83107 0
M  V30 4740 H 473.724 -0.166376 6.10373 0
M  V30 4741 H 475.138 1.98601 5.37802 0
M  V30 4742 H 473.535 2.77512 5.32078 0
M  V30 4743 H 474.605 2.86752 3.91026 0
M  V30 4744 N 475.948 -1.35272 0.808662 0
M  V30 4745 C 476.911 -2.28082 0.226093 0
M  V30 4746 C 477.911 -1.49673 -0.587762 0
M  V30 4747 O 479.101 -1.69404 -0.405943 0
M  V30 4748 C 476.233 -3.33955 -0.684596 0
M  V30 4749 H 477.426 -2.81116 1.04469 0
M  V30 4750 H 474.979 -1.45162 0.579466 0
M  V30 4751 H 475.714 -2.86111 -1.5268 0
M  V30 4752 H 475.499 -3.91965 -0.102699 0
M  V30 4753 H 476.989 -4.03219 -1.08646 0
M  V30 4754 N 477.426 -0.562348 -1.47226 0
M  V30 4755 C 478.672 -0.0402761 -2.0276 0
M  V30 4756 C 479.005 1.30823 -1.43523 0
M  V30 4757 O 478.28 1.85249 -0.592705 0
M  V30 4758 C 478.563 0.047311 -3.60069 0
M  V30 4759 C 478.416 -1.32865 -4.29729 0
M  V30 4760 C 479.735 0.758182 -4.3352 0
M  V30 4761 H 476.854 -0.0161105 -0.736824 0
M  V30 4762 H 479.496 -0.725628 -1.75598 0
M  V30 4763 H 477.646 0.630986 -3.83342 0
M  V30 4764 H 479.318 -1.95593 -4.17781 0
M  V30 4765 H 477.561 -1.90195 -3.89882 0
M  V30 4766 H 478.232 -1.22004 -5.38349 0
M  V30 4767 H 480.708 0.262546 -4.15271 0
M  V30 4768 H 479.584 0.78844 -5.43208 0
M  V30 4769 H 479.845 1.81537 -4.03109 0
M  V30 4770 N 478.904 1.54736 -0.299062 0
M  V30 4771 C 480.153 1.99279 0.311549 0
M  V30 4772 C 480.466 1.19107 1.55154 0
M  V30 4773 O 481.672 1.53908 2.23662 0
M  V30 4774 C 480.128 3.54768 0.605632 0
M  V30 4775 C 479.736 4.43746 -0.615914 0
M  V30 4776 C 481.48 4.07841 1.17754 0
M  V30 4777 C 479.387 5.90663 -0.29509 0
M  V30 4778 H 478.317 0.744359 0.120187 0
M  V30 4779 H 480.968 1.78919 -0.407464 0
M  V30 4780 H 479.35 3.71021 1.38419 0
M  V30 4781 H 480.524 4.39267 -1.39218 0
M  V30 4782 H 478.839 4.01434 -1.10633 0
M  V30 4783 H 481.436 5.15174 1.43179 0
M  V30 4784 H 481.779 3.58324 2.11918 0
M  V30 4785 H 482.312 3.95123 0.460739 0
M  V30 4786 H 479.051 6.44325 -1.20524 0
M  V30 4787 H 478.571 5.98155 0.44394 0
M  V30 4788 H 480.25 6.46916 0.104048 0
M  V30 4789 N 480.382 0.0267497 1.57577 0
M  V30 4790 C 481.292 -0.971633 2.13533 0
M  V30 4791 C 482.308 -1.35868 1.08701 0
M  V30 4792 O 483.484 -1.44058 1.40746 0
M  V30 4793 C 480.549 -2.23622 2.64941 0
M  V30 4794 C 479.61 -1.90982 3.8448 0
M  V30 4795 C 478.843 -3.11411 4.33427 0
M  V30 4796 O 479.066 -4.23992 3.81558 0
M  V30 4797 O 478 -2.93848 5.25297 0
M  V30 4798 H 481.826 -0.525853 2.99113 0
M  V30 4799 H 479.411 -0.193712 1.48139 0
M  V30 4800 H 481.293 -2.97864 2.98086 0
M  V30 4801 H 479.968 -2.67386 1.82446 0
M  V30 4802 H 478.875 -1.14132 3.56265 0
M  V30 4803 H 480.208 -1.52036 4.6813 0
M  V30 4804 N 481.861 -1.55662 -0.24637 0
M  V30 4805 C 482.771 -1.93495 -1.32653 0
M  V30 4806 C 483.787 -0.835462 -1.5263 0
M  V30 4807 O 484.963 -1.1369 -1.66242 0
M  V30 4808 C 482.028 -2.22242 -2.66101 0
M  V30 4809 C 481.089 -3.45625 -2.54641 0
M  V30 4810 C 480.322 -3.72991 -3.81724 0
M  V30 4811 O 480.545 -3.02421 -4.8363 0
M  V30 4812 O 479.479 -4.66515 -3.80325 0
M  V30 4813 H 483.305 -2.85498 -1.03559 0
M  V30 4814 H 480.89 -1.42551 -0.44717 0
M  V30 4815 H 482.772 -2.42037 -3.44958 0
M  V30 4816 H 481.447 -1.33417 -2.94926 0
M  V30 4817 H 480.354 -3.31136 -1.74067 0
M  V30 4818 H 481.687 -4.34754 -2.3076 0
M  V30 4819 N 483.339 0.512053 -1.4905 0
M  V30 4820 C 484.269 1.62365 -1.67809 0
M  V30 4821 C 485.25 1.61737 -0.526809 0
M  V30 4822 O 486.435 1.78651 -0.761404 0
M  V30 4823 C 483.565 3.00895 -1.73435 0
M  V30 4824 C 482.519 3.16387 -2.88242 0
M  V30 4825 C 481.845 4.56157 -2.78971 0
M  V30 4826 C 483.145 2.97457 -4.29321 0
M  V30 4827 H 484.839 1.46921 -2.60873 0
M  V30 4828 H 482.385 0.705379 -1.2554 0
M  V30 4829 H 484.338 3.78549 -1.85145 0
M  V30 4830 H 483.062 3.17403 -0.769619 0
M  V30 4831 H 481.721 2.41155 -2.76116 0
M  V30 4832 H 481.369 4.69525 -1.8043 0
M  V30 4833 H 481.069 4.67465 -3.5602 0
M  V30 4834 H 482.593 5.35886 -2.92675 0
M  V30 4835 H 484.007 3.64888 -4.42187 0
M  V30 4836 H 482.404 3.20245 -5.07507 0
M  V30 4837 H 483.474 1.93692 -4.44535 0
M  V30 4838 N 484.817 1.37938 0.762283 0
M  V30 4839 C 486.045 1.36883 1.55147 0
M  V30 4840 C 486.46 -0.0435348 1.8875 0
M  V30 4841 O 485.817 -1.00786 1.52146 0
M  V30 4842 C 485.868 2.21624 2.85596 0
M  V30 4843 O 485.589 3.57358 2.5343 0
M  V30 4844 C 487.09 2.28653 3.7978 0
M  V30 4845 H 484.31 0.468521 0.480343 0
M  V30 4846 H 486.854 1.81404 0.944079 0
M  V30 4847 H 485.009 1.80588 3.42734 0
M  V30 4848 H 485.423 4.01883 3.37032 0
M  V30 4849 H 486.897 2.9225 4.68288 0
M  V30 4850 H 487.374 1.29767 4.19592 0
M  V30 4851 H 487.98 2.70043 3.28568 0
M  V30 4852 N 486.295 -0.989507 1.22664 0
M  V30 4853 C 487.543 -1.72612 1.05117 0
M  V30 4854 C 487.864 -1.90552 -0.414131 0
M  V30 4855 O 487.134 -1.4676 -1.29762 0
M  V30 4856 H 485.714 -0.639555 0.385977 0
M  V30 4857 H 488.376 -1.19158 1.54232 0
M  V30 4858 H 487.472 -2.71926 1.53175 0
M  V30 4859 N 487.773 -1.03688 -1.18687 0
M  V30 4860 C 489.019 -0.739123 -1.88851 0
M  V30 4861 C 489.352 0.731042 -1.79915 0
M  V30 4862 O 488.627 1.53313 -1.19688 0
M  V30 4863 C 488.91 -1.20106 -3.3948 0
M  V30 4864 C 488.763 -2.73304 -3.57246 0
M  V30 4865 C 490.082 -0.788134 -4.32986 0
M  V30 4866 H 487.201 -0.269978 -0.68577 0
M  V30 4867 H 489.843 -1.28822 -1.3966 0
M  V30 4868 H 487.993 -0.733915 -3.81505 0
M  V30 4869 H 489.665 -3.28027 -3.24339 0
M  V30 4870 H 487.908 -3.13313 -3.00029 0
M  V30 4871 H 488.579 -3.00684 -4.62918 0
M  V30 4872 H 491.055 -1.19005 -3.98719 0
M  V30 4873 H 489.931 -1.13915 -5.36949 0
M  V30 4874 H 490.192 0.308988 -4.41019 0
M  V30 4875 N 489.251 1.34841 -0.815825 0
M  V30 4876 C 490.667 1.51543 -0.500697 0
M  V30 4877 C 490.867 1.76261 0.976444 0
M  V30 4878 O 489.923 1.8094 1.76117 0
M  V30 4879 C 491.236 2.68487 -1.35407 0
M  V30 4880 C 492.784 2.82368 -1.35046 0
M  V30 4881 C 493.259 4.02347 -2.18816 0
M  V30 4882 N 494.75 4.09542 -2.16402 0
M  V30 4883 C 495.485 5.01517 -2.77971 0
M  V30 4884 N 494.981 5.98763 -3.48503 0
M  V30 4885 N 496.774 4.94334 -2.67563 0
M  V30 4886 H 488.925 1.17055 -1.77234 0
M  V30 4887 H 491.188 0.573481 -0.754866 0
M  V30 4888 H 490.894 2.56829 -2.40274 0
M  V30 4889 H 490.768 3.63321 -1.01377 0
M  V30 4890 H 493.155 2.93471 -0.309604 0
M  V30 4891 H 493.236 1.88363 -1.73069 0
M  V30 4892 H 492.88 3.92004 -3.22948 0
M  V30 4893 H 492.81 4.95551 -1.78148 0
M  V30 4894 H 495.301 3.39932 -1.65091 0
M  V30 4895 H 495.614 6.6556 -3.92747 0
M  V30 4896 H 493.959 5.98909 -3.52609 0
M  V30 4897 H 497.15 4.1732 -2.12041 0
M  V30 4898 H 497.323 5.6582 -3.15834 0
M  V30 4899 N 490.729 0.570148 1.46925 0
M  V30 4900 C 491.954 0.0542592 2.07329 0
M  V30 4901 C 492.379 -1.23582 1.41806 0
M  V30 4902 O 491.737 -1.74341 0.497479 0
M  V30 4903 C 491.785 -0.111175 3.60429 0
M  V30 4904 O 490.889 -1.17071 3.95434 0
M  V30 4905 H 490.23 0.0571425 0.661537 0
M  V30 4906 H 492.76 0.789516 1.88753 0
M  V30 4907 H 492.77 -0.321315 4.06733 0
M  V30 4908 H 491.445 0.831012 4.07513 0
M  V30 4909 H 490.022 -0.940029 3.60857 0
M  V30 4910 N 492.207 -1.54576 0.307264 0
M  V30 4911 C 493.137 -2.26708 -0.55907 0
M  V30 4912 C 494.118 -1.26893 -1.1328 0
M  V30 4913 O 495.303 -1.55677 -1.16097 0
M  V30 4914 C 492.433 -3.01259 -1.72801 0
M  V30 4915 C 491.387 -4.08275 -1.28435 0
M  V30 4916 C 490.713 -4.70575 -2.53895 0
M  V30 4917 C 492.013 -5.2068 -0.411038 0
M  V30 4918 H 493.707 -2.9937 0.042576 0
M  V30 4919 H 491.253 -1.43983 0.0219173 0
M  V30 4920 H 493.206 -3.50444 -2.34023 0
M  V30 4921 H 491.93 -2.26187 -2.356 0
M  V30 4922 H 490.589 -3.59949 -0.695161 0
M  V30 4923 H 490.237 -3.92136 -3.15021 0
M  V30 4924 H 489.937 -5.42854 -2.24908 0
M  V30 4925 H 491.461 -5.22527 -3.15908 0
M  V30 4926 H 492.875 -5.65721 -0.929097 0
M  V30 4927 H 491.272 -5.99716 -0.214664 0
M  V30 4928 H 492.342 -4.81629 0.562287 0
M  V30 4929 N 493.685 -0.035106 -1.57561 0
M  V30 4930 C 495.096 0.502885 -1.798 0
M  V30 4931 C 495.447 1.71892 -0.945921 0
M  V30 4932 O 494.572 2.15822 -0.157991 0
M  V30 4933 C 495.167 0.919097 -3.26095 0
M  V30 4934 C 493.726 1.40216 -3.49308 0
M  V30 4935 C 492.873 0.369709 -2.74824 0
M  V30 4936 H 495.824 -0.261102 -1.56537 0
M  V30 4937 H 495.845 1.78308 -3.36135 0
M  V30 4938 H 495.357 0.0338526 -3.88085 0
M  V30 4939 H 493.458 2.30714 -2.92578 0
M  V30 4940 H 493.571 1.40541 -4.58023 0
M  V30 4941 H 491.935 0.839113 -2.40481 0
M  V30 4942 H 492.718 -0.507173 -3.39533 0
M  V30 4943 N 495.163 1.55791 0.238111 0
M  V30 4944 C 496.44 1.68798 0.98826 0
M  V30 4945 C 496.82 0.577562 2.03045 0
M  V30 4946 O 496.168 -0.41778 2.24648 0
M  V30 4947 C 496.378 3.09454 1.61367 0
M  V30 4948 C 497.726 3.68335 2.11221 0
M  V30 4949 O 498.75 3.1231 1.71292 0
M  V30 4950 O 497.609 4.6657 2.84561 0
M  V30 4951 H 494.703 0.686881 0.460568 0
M  V30 4952 H 497.249 1.68118 0.231202 0
M  V30 4953 H 496.021 3.81726 0.860295 0
M  V30 4954 H 495.644 3.14182 2.4367 0
M  V30 4955 N 496.642 -0.504142 1.49319 0
M  V30 4956 C 498.053 -1.08572 1.51885 0
M  V30 4957 C 498.404 -1.93842 0.303255 0
M  V30 4958 O 497.529 -2.0828 -0.58724 0
M  V30 4959 C 498.124 -1.97574 2.75227 0
M  V30 4960 C 496.683 -2.509 2.80581 0
M  V30 4961 C 495.83 -1.28447 2.45757 0
M  V30 4962 H 498.781 -0.288194 1.56061 0
M  V30 4963 H 498.802 -2.82219 2.55211 0
M  V30 4964 H 498.314 -1.35486 3.63683 0
M  V30 4965 H 496.415 -3.16636 1.96398 0
M  V30 4966 H 496.528 -2.88268 3.82673 0
M  V30 4967 H 494.892 -1.60868 1.97468 0
M  V30 4968 H 495.675 -0.68072 3.36483 0
M  V30 4969 N 498.12 -1.38341 -0.754957 0
M  V30 4970 C 499.35 -1.37504 -1.54195 0
M  V30 4971 C 499.758 0.0373787 -1.89163 0
M  V30 4972 O 499.101 1.01402 -1.53178 0
M  V30 4973 C 499.163 -2.16488 -2.87008 0
M  V30 4974 C 498.827 -3.65311 -2.74585 0
M  V30 4975 C 499.824 -4.58834 -2.44474 0
M  V30 4976 C 497.509 -4.08649 -2.9208 0
M  V30 4977 C 499.503 -5.93675 -2.32011 0
M  V30 4978 C 497.19 -5.43571 -2.79237 0
M  V30 4979 C 498.188 -6.35898 -2.49245 0
M  V30 4980 O 497.876 -7.68338 -2.36458 0
M  V30 4981 H 497.608 -0.472159 -0.483779 0
M  V30 4982 H 500.162 -1.82515 -0.94221 0
M  V30 4983 H 498.392 -1.66194 -3.49166 0
M  V30 4984 H 500.081 -2.08076 -3.4851 0
M  V30 4985 H 500.847 -4.26657 -2.30627 0
M  V30 4986 H 496.726 -3.37134 -3.14422 0
M  V30 4987 H 500.27 -6.65706 -2.08522 0
M  V30 4988 H 496.167 -5.75345 -2.92657 0
M  V30 4989 H 496.935 -7.78845 -2.5168 0
M  V30 4990 N 499.598 0.982988 -1.23187 0
M  V30 4991 C 500.548 2.05962 -0.977942 0
M  V30 4992 C 501.532 1.60725 0.0751148 0
M  V30 4993 O 502.724 1.76471 -0.136683 0
M  V30 4994 C 499.853 3.38564 -0.568276 0
M  V30 4995 C 498.939 3.90407 -1.6566 0
M  V30 4996 N 499.33 4.15359 -2.88635 0
M  V30 4997 C 497.628 4.18915 -1.53058 0
M  V30 4998 C 498.329 4.57642 -3.5908 0
M  V30 4999 N 497.305 4.6192 -2.86584 0
M  V30 5000 H 501.107 2.23208 -1.91195 0
M  V30 5001 H 498.621 1.16555 -1.13087 0
M  V30 5002 H 500.618 4.15276 -0.36764 0
M  V30 5003 H 499.278 3.22712 0.358713 0
M  V30 5004 H 500.289 4.03258 -3.24966 0
M  V30 5005 H 496.966 4.12081 -0.670506 0
M  V30 5006 H 498.356 4.85488 -4.6449 0
M  V30 5007 N 501.076 1.04316 1.18135 0
M  V30 5008 C 501.986 0.646876 2.25505 0
M  V30 5009 C 503.002 -0.328008 1.7088 0
M  V30 5010 O 504.178 -0.182309 2.00573 0
M  V30 5011 C 501.243 0.0185664 3.46695 0
M  V30 5012 C 500.304 1.04277 4.16443 0
M  V30 5013 C 499.537 0.444352 5.31847 0
M  V30 5014 O 499.76 -0.748735 5.65465 0
M  V30 5015 O 498.694 1.17428 5.90334 0
M  V30 5016 H 502.52 1.54147 2.61672 0
M  V30 5017 H 500.105 0.814188 1.25265 0
M  V30 5018 H 501.987 -0.331068 4.20097 0
M  V30 5019 H 500.662 -0.849814 3.12346 0
M  V30 5020 H 499.569 1.44425 3.45098 0
M  V30 5021 H 500.902 1.882 4.54798 0
M  V30 5022 N 502.554 -1.34406 0.822964 0
M  V30 5023 C 503.801 -1.98284 0.411057 0
M  V30 5024 C 504.129 -1.65245 -1.02588 0
M  V30 5025 O 503.384 -0.91619 -1.72929 0
M  V30 5026 C 503.683 -3.52981 0.560268 0
M  V30 5027 C 503.349 -4.05931 1.96293 0
M  V30 5028 C 502.011 -4.20103 2.34664 0
M  V30 5029 C 504.363 -4.34412 2.87985 0
M  V30 5030 C 501.691 -4.60082 3.64062 0
M  V30 5031 C 504.043 -4.75838 4.16847 0
M  V30 5032 C 502.707 -4.88215 4.55195 0
M  V30 5033 H 501.977 -0.725573 0.150416 0
M  V30 5034 H 504.624 -1.60349 1.04692 0
M  V30 5035 H 502.929 -3.91477 -0.158982 0
M  V30 5036 H 504.626 -4.00385 0.222087 0
M  V30 5037 H 501.216 -3.95363 1.65487 0
M  V30 5038 H 505.4 -4.23001 2.59584 0
M  V30 5039 H 500.656 -4.67856 3.93599 0
M  V30 5040 H 504.83 -4.96834 4.87984 0
M  V30 5041 H 502.457 -5.18952 5.55512 0
M  V30 5042 N 504.032 -0.577932 -1.46621 0
M  V30 5043 C 504.962 0.145917 -2.33044 0
M  V30 5044 C 505.943 0.888412 -1.45056 0
M  V30 5045 O 507.128 0.864812 -1.73881 0
M  V30 5046 C 504.258 1.16322 -3.27241 0
M  V30 5047 C 503.212 0.535868 -4.24632 0
M  V30 5048 C 502.538 1.65929 -5.08303 0
M  V30 5049 C 503.838 -0.523861 -5.19666 0
M  V30 5050 H 505.532 -0.575636 -2.93814 0
M  V30 5051 H 503.078 -0.278272 -1.41286 0
M  V30 5052 H 505.031 1.67793 -3.86553 0
M  V30 5053 H 503.755 1.91498 -2.64567 0
M  V30 5054 H 502.414 0.0422759 -3.66576 0
M  V30 5055 H 502.062 2.40061 -4.42018 0
M  V30 5056 H 501.762 1.2452 -5.74255 0
M  V30 5057 H 503.286 2.17686 -5.70478 0
M  V30 5058 H 504.7 -0.0944059 -5.73222 0
M  V30 5059 H 503.097 -0.858 -5.93935 0
M  V30 5060 H 504.167 -1.41197 -4.63887 0
M  V30 5061 N 505.51 1.54411 -0.315457 0
M  V30 5062 C 506.473 2.22713 0.54142 0
M  V30 5063 C 507.473 1.2179 1.04995 0
M  V30 5064 O 508.663 1.46426 0.943667 0
M  V30 5065 C 505.795 2.92485 1.75116 0
M  V30 5066 H 506.988 2.99849 -0.0555508 0
M  V30 5067 H 504.541 1.56159 -0.0664453 0
M  V30 5068 H 505.276 2.19466 2.38758 0
M  V30 5069 H 505.061 3.66483 1.39401 0
M  V30 5070 H 506.551 3.44548 2.35959 0
M  V30 5071 N 506.988 0.0434614 1.5754 0
M  V30 5072 C 508.236 -0.630786 1.92004 0
M  V30 5073 C 508.557 -1.71836 0.921807 0
M  V30 5074 O 507.827 -1.9587 -0.034522 0
M  V30 5075 H 506.407 -0.235988 0.708745 0
M  V30 5076 H 509.069 0.0946462 1.9467 0
M  V30 5077 H 508.165 -1.07434 2.93026 0
M  V30 5078 N 508.466 -1.55915 -0.229846 0
M  V30 5079 C 509.399 -1.86734 -1.3117 0
M  V30 5080 C 510.377 -0.723947 -1.45595 0
M  V30 5081 O 511.561 -0.971462 -1.61539 0
M  V30 5082 C 508.688 -2.06707 -2.68309 0
M  V30 5083 C 507.734 -3.2938 -2.70944 0
M  V30 5084 S 508.567 -4.85547 -2.25842 0
M  V30 5085 C 509.723 -5.08546 -3.64873 0
M  V30 5086 H 509.956 -2.78204 -1.04832 0
M  V30 5087 H 507.489 -1.48243 -0.431681 0
M  V30 5088 H 509.447 -2.18898 -3.47267 0
M  V30 5089 H 508.108 -1.16049 -2.91876 0
M  V30 5090 H 507.301 -3.40374 -3.71701 0
M  V30 5091 H 506.903 -3.16004 -2.00044 0
M  V30 5092 H 509.195 -4.96935 -4.60502 0
M  V30 5093 H 510.138 -6.10465 -3.58801 0
M  V30 5094 H 510.546 -4.36314 -3.58176 0
M  V30 5095 N 509.944 0.496216 -1.49584 0
M  V30 5096 C 511.192 1.24756 -1.58998 0
M  V30 5097 C 511.513 1.92968 -0.280775 0
M  V30 5098 O 510.783 1.82959 0.700198 0
M  V30 5099 H 509.363 0.463471 -0.585836 0
M  V30 5100 H 512.025 0.574678 -1.86235 0
M  V30 5101 H 511.121 2.00895 -2.38847 0
M  V30 5102 N 511.423 1.38739 0.74761 0
M  V30 5103 C 512.671 1.35007 1.50391 0
M  V30 5104 C 512.992 -0.0574274 1.94915 0
M  V30 5105 O 512.262 -1.00628 1.6808 0
M  V30 5106 H 510.842 0.496784 0.557866 0
M  V30 5107 H 513.504 1.73479 0.888319 0
M  V30 5108 H 512.6 2.00474 2.392 0
M  V30 5109 N 512.901 -0.976442 1.23707 0
M  V30 5110 C 513.849 -2.09078 1.01927 0
M  V30 5111 C 514.843 -1.69345 -0.0430193 0
M  V30 5112 O 516.049 -1.79659 0.110814 0
M  V30 5113 H 512.424 -0.68398 0.312531 0
M  V30 5114 H 514.395 -2.24614 1.96447 0
M  V30 5115 C 513.144 -3.41919 0.631385 0
M  V30 5116 H 512.467 -3.72946 1.44053 0
M  V30 5117 H 513.907 -4.20817 0.518532 0
M  V30 5118 C 512.366 -3.30357 -0.660723 0
M  V30 5119 O 512.896 -3.63542 -1.70881 0
M  V30 5120 N 511.102 -2.83507 -0.638139 0
M  V30 5121 H 510.649 -2.567 0.215108 0
M  V30 5122 H 510.607 -2.76153 -1.50289 0
M  V30 5123 N 514.379 -1.04941 -1.1758 0
M  V30 5124 C 515.607 -0.778294 -1.91703 0
M  V30 5125 C 516.022 0.665697 -1.76675 0
M  V30 5126 O 515.379 1.45456 -1.10222 0
M  V30 5127 C 515.43 -1.14628 -3.42845 0
M  V30 5128 O 515.151 -2.53359 -3.57409 0
M  V30 5129 C 516.652 -0.900931 -4.34049 0
M  V30 5130 H 513.872 -0.283167 -0.608323 0
M  V30 5131 H 516.416 -1.39942 -1.49119 0
M  V30 5132 H 514.571 -0.569953 -3.83184 0
M  V30 5133 H 514.985 -2.67709 -4.51035 0
M  V30 5134 H 516.459 -1.20817 -5.38616 0
M  V30 5135 H 516.936 0.163966 -4.38894 0
M  V30 5136 H 517.542 -1.46097 -3.99419 0
M  V30 5137 N 515.857 1.33968 -0.830081 0
M  V30 5138 C 516.787 2.31911 -0.271911 0
M  V30 5139 C 517.768 1.58571 0.61556 0
M  V30 5140 O 518.953 1.86514 0.540946 0
M  V30 5141 C 516.083 3.42737 0.561146 0
M  V30 5142 C 515.037 4.27383 -0.229789 0
M  V30 5143 C 514.363 5.29742 0.726463 0
M  V30 5144 C 515.663 5.02 -1.44197 0
M  V30 5145 H 517.357 2.78844 -1.09025 0
M  V30 5146 H 514.903 1.34061 -0.52571 0
M  V30 5147 H 516.856 4.10276 0.961867 0
M  V30 5148 H 515.58 2.94471 1.41261 0
M  V30 5149 H 514.239 3.61456 -0.611964 0
M  V30 5150 H 513.887 4.77736 1.57408 0
M  V30 5151 H 513.587 5.87255 0.20142 0
M  V30 5152 H 515.111 6.00149 1.12489 0
M  V30 5153 H 516.525 5.62355 -1.11488 0
M  V30 5154 H 514.922 5.69122 -1.90317 0
M  V30 5155 H 515.992 4.31281 -2.2164 0
M  V30 5156 N 517.335 0.585699 1.46312 0
M  V30 5157 C 518.265 -0.133556 2.33118 0
M  V30 5158 C 519.246 -0.880707 1.45525 0
M  V30 5159 O 520.431 -0.855579 1.74337 0
M  V30 5160 C 517.561 -1.14585 3.27853 0
M  V30 5161 C 516.515 -0.513341 4.2491 0
M  V30 5162 C 515.841 -1.63231 5.09175 0
M  V30 5163 C 517.141 0.551413 5.19381 0
M  V30 5164 H 518.835 0.59121 2.93505 0
M  V30 5165 H 516.381 0.285761 1.41136 0
M  V30 5166 H 518.334 -1.65741 3.87438 0
M  V30 5167 H 517.058 -1.90093 2.65579 0
M  V30 5168 H 515.717 -0.0228349 3.66593 0
M  V30 5169 H 515.365 -2.37713 4.43285 0
M  V30 5170 H 515.065 -1.21473 5.74907 0
M  V30 5171 H 516.589 -2.14658 5.71624 0
M  V30 5172 H 518.003 0.124804 5.73164 0
M  V30 5173 H 516.4 0.889486 5.93471 0
M  V30 5174 H 517.47 1.43655 4.63132 0
M  V30 5175 N 518.813 -1.54241 0.323641 0
M  V30 5176 C 520.09 -1.92741 -0.333181 0
M  V30 5177 C 520.47 -1.25326 -1.69872 0
M  V30 5178 O 519.818 -0.396991 -2.25025 0
M  V30 5179 C 520.028 -3.46399 -0.425322 0
M  V30 5180 C 521.376 -4.19029 -0.68557 0
M  V30 5181 O 522.4 -3.52555 -0.50824 0
M  V30 5182 O 521.259 -5.36751 -1.02767 0
M  V30 5183 H 518.353 -0.804811 -0.190286 0
M  V30 5184 H 520.899 -1.65542 0.373361 0
M  V30 5185 H 519.671 -3.87643 0.533737 0
M  V30 5186 H 519.294 -3.79704 -1.17944 0
M  V30 5187 N 520.291 -0.0518155 -1.57515 0
M  V30 5188 C 521.254 0.907547 -2.10467 0
M  V30 5189 C 522.254 1.23947 -1.02439 0
M  V30 5190 O 523.444 1.17604 -1.2851 0
M  V30 5191 C 520.576 2.21723 -2.58944 0
M  V30 5192 H 521.769 0.44851 -2.96527 0
M  V30 5193 H 519.322 0.196598 -1.55059 0
M  V30 5194 H 520.057 2.72206 -1.76279 0
M  V30 5195 H 519.842 1.98935 -3.37886 0
M  V30 5196 H 521.332 2.90441 -3.00056 0
M  V30 5197 N 521.769 1.56035 0.221574 0
M  V30 5198 C 522.679 1.95581 1.29558 0
M  V30 5199 C 523.695 0.859639 1.51282 0
M  V30 5200 O 524.871 1.16321 1.64413 0
M  V30 5201 C 521.936 2.26447 2.62531 0
M  V30 5202 C 520.997 3.49632 2.4911 0
M  V30 5203 C 520.23 3.79017 3.75742 0
M  V30 5204 O 520.453 3.10077 4.78757 0
M  V30 5205 O 519.387 4.72507 3.72855 0
M  V30 5206 H 523.213 2.8711 0.990035 0
M  V30 5207 H 520.798 1.43244 0.424434 0
M  V30 5208 H 522.68 2.47494 3.41064 0
M  V30 5209 H 521.355 1.38092 2.92766 0
M  V30 5210 H 520.262 3.33864 1.68777 0
M  V30 5211 H 521.595 4.3837 2.23814 0
M  V30 5212 N 523.247 -0.488276 1.49845 0
M  V30 5213 C 524.663 -0.820566 1.3689 0
M  V30 5214 C 524.863 -1.97248 0.411752 0
M  V30 5215 O 523.919 -2.52042 -0.151931 0
M  V30 5216 C 525.232 -1.1488 2.77891 0
M  V30 5217 C 526.78 -1.25626 2.86683 0
M  V30 5218 C 527.255 -1.61772 4.28479 0
M  V30 5219 N 528.746 -1.68797 4.31349 0
M  V30 5220 C 529.481 -1.98235 5.38043 0
M  V30 5221 N 528.977 -2.2581 6.54967 0
M  V30 5222 N 530.77 -1.99593 5.2547 0
M  V30 5223 H 522.921 0.271123 2.10662 0
M  V30 5224 H 525.184 0.058735 0.946179 0
M  V30 5225 H 524.89 -0.375614 3.49688 0
M  V30 5226 H 524.764 -2.08919 3.14058 0
M  V30 5227 H 527.151 -2.02014 2.15114 0
M  V30 5228 H 527.232 -0.296072 2.54081 0
M  V30 5229 H 526.876 -0.859295 5.00578 0
M  V30 5230 H 526.806 -2.58912 4.58554 0
M  V30 5231 H 529.297 -1.49595 3.4703 0
M  V30 5232 H 529.61 -2.47497 7.32096 0
M  V30 5233 H 527.955 -2.23239 6.58171 0
M  V30 5234 H 531.146 -1.77535 4.33127 0
M  V30 5235 H 531.319 -2.222 6.08713 0
M  V30 5236 N 524.725 -1.39134 -0.740242 0
M  V30 5237 C 525.688 -1.37217 -1.83587 0
M  V30 5238 C 526.688 -0.270221 -1.58513 0
M  V30 5239 O 527.878 -0.527843 -1.6601 0
M  V30 5240 C 525.01 -1.13959 -3.21288 0
M  V30 5241 H 526.203 -2.34705 -1.86691 0
M  V30 5242 H 523.756 -1.24622 -0.94335 0
M  V30 5243 H 524.491 -0.17131 -3.23847 0
M  V30 5244 H 524.276 -1.93754 -3.40884 0
M  V30 5245 H 525.766 -1.15346 -4.01354 0
M  V30 5246 N 526.204 0.969867 -1.24223 0
M  V30 5247 C 527.167 2.04564 -1.03373 0
M  V30 5248 C 528.167 1.60798 0.00819206 0
M  V30 5249 O 529.357 1.72641 -0.232567 0
M  V30 5250 C 526.489 3.36163 -0.566343 0
M  V30 5251 H 527.682 2.24494 -1.98853 0
M  V30 5252 H 525.235 1.1448 -1.06415 0
M  V30 5253 H 525.97 3.21925 0.391751 0
M  V30 5254 H 525.755 3.69273 -1.31834 0
M  V30 5255 H 527.245 4.1526 -0.441435 0
M  V30 5256 N 527.682 1.05563 1.17022 0
M  V30 5257 C 528.931 0.763036 1.8671 0
M  V30 5258 C 529.244 -0.712857 1.82147 0
M  V30 5259 O 530.45 -1.11955 2.47343 0
M  V30 5260 C 528.906 1.31474 3.35026 0
M  V30 5261 C 528.514 2.82034 3.48081 0
M  V30 5262 C 530.258 1.09935 4.10018 0
M  V30 5263 C 528.165 3.30486 4.90442 0
M  V30 5264 H 527.095 0.281747 0.699382 0
M  V30 5265 H 529.746 1.2734 1.32124 0
M  V30 5266 H 528.128 0.732171 3.89173 0
M  V30 5267 H 529.302 3.46178 3.04133 0
M  V30 5268 H 527.617 3.02156 2.86515 0
M  V30 5269 H 530.214 1.43632 5.15048 0
M  V30 5270 H 530.557 0.0373072 4.16283 0
M  V30 5271 H 531.09 1.64732 3.62089 0
M  V30 5272 H 527.829 4.36137 4.89352 0
M  V30 5273 H 527.349 2.71086 5.35044 0
M  V30 5274 H 529.028 3.25382 5.59227 0
M  V30 5275 N 529.16 -1.33526 0.837174 0
M  V30 5276 C 530.07 -2.33023 0.271568 0
M  V30 5277 C 531.086 -1.63272 -0.601514 0
M  V30 5278 O 532.262 -1.94939 -0.506038 0
M  V30 5279 C 529.327 -3.42382 -0.545448 0
M  V30 5280 C 528.388 -4.27857 0.351709 0
M  V30 5281 C 527.621 -5.31994 -0.426409 0
M  V30 5282 O 527.844 -5.45763 -1.65828 0
M  V30 5283 O 526.778 -6.01572 0.1987 0
M  V30 5284 H 530.604 -2.83256 1.09545 0
M  V30 5285 H 528.189 -1.36837 0.599655 0
M  V30 5286 H 530.071 -4.09122 -1.00979 0
M  V30 5287 H 528.746 -2.94369 -1.34641 0
M  V30 5288 H 527.653 -3.6399 0.863853 0
M  V30 5289 H 528.986 -4.79349 1.1174 0
M  V30 5290 N 530.638 -0.59345 -1.46 0
M  V30 5291 C 531.548 0.135817 -2.34207 0
M  V30 5292 C 532.564 0.875008 -1.50398 0
M  V30 5293 O 533.74 0.835778 -1.83239 0
M  V30 5294 C 530.805 1.12977 -3.27776 0
M  V30 5295 C 529.866 0.394081 -4.27487 0
M  V30 5296 C 529.099 1.34068 -5.16586 0
M  V30 5297 O 529.322 2.5778 -5.08828 0
M  V30 5298 O 528.256 0.845426 -5.95933 0
M  V30 5299 H 532.082 -0.588691 -2.9794 0
M  V30 5300 H 529.667 -0.353784 -1.45151 0
M  V30 5301 H 531.549 1.70261 -3.85473 0
M  V30 5302 H 530.224 1.83556 -2.66625 0
M  V30 5303 H 529.131 -0.220869 -3.73447 0
M  V30 5304 H 530.464 -0.270939 -4.91454 0
M  V30 5305 N 532.116 1.54067 -0.331816 0
M  V30 5306 C 533.365 1.99895 0.269209 0
M  V30 5307 C 533.678 1.22371 1.52593 0
M  V30 5308 O 534.884 1.58618 2.20347 0
M  V30 5309 C 533.34 3.55972 0.530244 0
M  V30 5310 C 532.948 4.4234 -0.709901 0
M  V30 5311 C 534.692 4.10247 1.09077 0
M  V30 5312 C 532.599 5.89905 -0.420312 0
M  V30 5313 H 531.529 0.746741 0.104371 0
M  V30 5314 H 534.18 1.78014 -0.445324 0
M  V30 5315 H 532.562 3.73873 1.30518 0
M  V30 5316 H 533.736 4.36215 -1.48504 0
M  V30 5317 H 532.051 3.98997 -1.19123 0
M  V30 5318 H 534.648 5.18095 1.32219 0
M  V30 5319 H 534.991 3.62739 2.0427 0
M  V30 5320 H 535.524 3.96011 0.376824 0
M  V30 5321 H 532.263 6.41623 -1.34164 0
M  V30 5322 H 531.783 5.98962 0.316962 0
M  V30 5323 H 533.462 6.46991 -0.0331956 0
M  V30 5324 N 533.594 0.0601682 1.57485 0
M  V30 5325 C 534.84 -0.612501 1.93329 0
M  V30 5326 C 535.173 -1.6996 0.939526 0
M  V30 5327 O 534.448 -1.94472 -0.0330957 0
M  V30 5328 C 534.731 -1.20025 3.39508 0
M  V30 5329 C 534.584 -0.12059 4.49638 0
M  V30 5330 C 535.903 -2.10923 3.86264 0
M  V30 5331 H 533.022 -0.221185 0.703027 0
M  V30 5332 H 535.664 0.123768 1.89596 0
M  V30 5333 H 533.814 -1.82774 3.42821 0
M  V30 5334 H 535.486 0.51185 4.58452 0
M  V30 5335 H 533.729 0.550251 4.30296 0
M  V30 5336 H 534.4 -0.572019 5.49028 0
M  V30 5337 H 536.876 -1.58124 3.84884 0
M  V30 5338 H 535.752 -2.48987 4.8918 0
M  V30 5339 H 536.013 -3.01292 3.23536 0
M  V30 5340 N 535.072 -1.5615 -0.213296 0
M  V30 5341 C 536.483 -1.69645 -0.779582 0
M  V30 5342 C 536.834 -0.663615 -1.84636 0
M  V30 5343 O 535.959 0.183633 -2.15619 0
M  V30 5344 C 536.554 -3.07567 -1.42084 0
M  V30 5345 C 535.113 -3.22889 -1.93442 0
M  V30 5346 C 534.26 -2.65581 -0.797612 0
M  V30 5347 H 537.211 -1.58696 0.0114951 0
M  V30 5348 H 537.232 -3.03884 -2.28986 0
M  V30 5349 H 536.744 -3.82716 -0.644187 0
M  V30 5350 H 534.845 -2.52623 -2.73884 0
M  V30 5351 H 534.958 -4.30197 -2.10872 0
M  V30 5352 H 533.322 -2.24278 -1.20712 0
M  V30 5353 H 534.105 -3.43284 -0.033494 0
M  V30 5354 N 536.55 0.480323 -1.50102 0
M  V30 5355 C 537.48 1.58769 -1.71215 0
M  V30 5356 C 538.461 1.60583 -0.560997 0
M  V30 5357 O 539.646 1.76996 -0.799127 0
M  V30 5358 C 536.776 2.97148 -1.79778 0
M  V30 5359 C 535.73 3.10201 -2.94888 0
M  V30 5360 C 535.056 4.50137 -2.88584 0
M  V30 5361 C 536.356 2.88283 -4.35534 0
M  V30 5362 H 538.05 1.41354 -2.6393 0
M  V30 5363 H 535.596 0.678591 -1.27008 0
M  V30 5364 H 537.549 3.74536 -1.93133 0
M  V30 5365 H 536.273 3.15699 -0.836772 0
M  V30 5366 H 534.932 2.35244 -2.81169 0
M  V30 5367 H 534.58 4.65593 -1.90349 0
M  V30 5368 H 534.28 4.59808 -3.65856 0
M  V30 5369 H 535.804 5.29558 -3.03976 0
M  V30 5370 H 537.218 3.55427 -4.49827 0
M  V30 5371 H 535.615 3.09408 -5.14186 0
M  V30 5372 H 536.685 1.84219 -4.48544 0
M  V30 5373 N 538.028 1.39524 0.732853 0
M  V30 5374 C 538.958 1.41153 1.86005 0
M  V30 5375 C 539.939 0.274614 1.67869 0
M  V30 5376 O 541.124 0.480745 1.88155 0
M  V30 5377 C 538.254 1.25638 3.23778 0
M  V30 5378 C 537.208 2.36752 3.56556 0
M  V30 5379 C 536.534 2.06326 4.93289 0
M  V30 5380 C 537.834 3.79069 3.5931 0
M  V30 5381 H 539.528 2.35484 1.84899 0
M  V30 5382 H 537.074 1.13348 0.888162 0
M  V30 5383 H 539.027 1.25398 4.0231 0
M  V30 5384 H 537.751 0.277772 3.25417 0
M  V30 5385 H 536.41 2.36213 2.80355 0
M  V30 5386 H 536.058 1.06897 4.9151 0
M  V30 5387 H 535.758 2.80757 5.16187 0
M  V30 5388 H 537.282 2.07739 5.74175 0
M  V30 5389 H 538.696 3.81526 4.27914 0
M  V30 5390 H 537.093 4.52878 3.93728 0
M  V30 5391 H 538.163 4.09893 2.59068 0
M  V30 5392 N 539.506 -0.963266 1.24736 0
M  V30 5393 C 540.469 -2.04013 1.04457 0
M  V30 5394 C 541.469 -1.608 0.000335555 0
M  V30 5395 O 542.659 -1.72515 0.241719 0
M  V30 5396 C 539.791 -3.35858 0.584162 0
M  V30 5397 H 540.984 -2.23436 2.00041 0
M  V30 5398 H 538.537 -1.13914 1.07021 0
M  V30 5399 H 539.272 -3.22128 -0.374673 0
M  V30 5400 H 539.057 -3.68568 1.3379 0
M  V30 5401 H 540.547 -4.1502 0.463451 0
M  V30 5402 N 540.985 -1.06182 -1.16461 0
M  V30 5403 C 542.262 -0.691364 -1.82974 0
M  V30 5404 C 542.642 0.827377 -1.9421 0
M  V30 5405 O 541.99 1.73723 -1.48434 0
M  V30 5406 C 542.2 -1.39199 -3.20038 0
M  V30 5407 C 543.548 -1.53647 -3.95825 0
M  V30 5408 O 544.572 -1.35181 -3.29552 0
M  V30 5409 O 543.431 -1.83932 -5.14618 0
M  V30 5410 H 540.525 -0.244605 -0.789998 0
M  V30 5411 H 543.071 -1.16203 -1.23673 0
M  V30 5412 H 541.843 -2.42766 -3.06888 0
M  V30 5413 H 541.466 -0.911335 -3.87015 0
M  V30 5414 N 542.463 1.3308 -0.844243 0
M  V30 5415 C 543.712 1.96868 -0.438833 0
M  V30 5416 C 544.025 1.67599 1.00846 0
M  V30 5417 O 545.231 2.25043 1.51881 0
M  V30 5418 C 543.687 3.5234 -0.73377 0
M  V30 5419 C 543.295 3.90481 -2.1961 0
M  V30 5420 C 545.039 4.22653 -0.395574 0
M  V30 5421 C 542.946 5.38954 -2.43481 0
M  V30 5422 H 541.876 0.736749 -0.160364 0
M  V30 5423 H 544.527 1.51623 -1.03358 0
M  V30 5424 H 542.909 3.95941 -0.068589 0
M  V30 5425 H 544.083 3.57922 -2.90221 0
M  V30 5426 H 542.398 3.33165 -2.4978 0
M  V30 5427 H 544.995 5.31848 -0.551477 0
M  V30 5428 H 545.338 4.11004 0.661921 0
M  V30 5429 H 545.871 3.84601 -1.01621 0
M  V30 5430 H 542.61 5.55612 -3.47816 0
M  V30 5431 H 542.13 5.72954 -1.77437 0
M  V30 5432 H 543.809 6.05907 -2.26905 0
M  V30 5433 N 543.941 0.601185 1.45683 0
M  V30 5434 C 545.357 0.264315 1.57396 0
M  V30 5435 C 545.557 -1.23324 1.59353 0
M  V30 5436 O 544.613 -2.01594 1.52039 0
M  V30 5437 C 545.926 0.929839 2.85962 0
M  V30 5438 C 547.474 0.905156 2.99626 0
M  V30 5439 C 547.949 1.55057 4.30954 0
M  V30 5440 N 549.44 1.51576 4.37697 0
M  V30 5441 C 550.175 1.98436 5.37969 0
M  V30 5442 N 549.671 2.53352 6.44813 0
M  V30 5443 N 551.464 1.89242 5.29286 0
M  V30 5444 H 543.615 1.57363 1.42656 0
M  V30 5445 H 545.878 0.658831 0.681649 0
M  V30 5446 H 545.584 1.98404 2.90394 0
M  V30 5447 H 545.458 0.449224 3.74515 0
M  V30 5448 H 547.845 -0.14048 2.94765 0
M  V30 5449 H 547.926 1.42397 2.12501 0
M  V30 5450 H 547.57 2.5955 4.36573 0
M  V30 5451 H 547.5 1.00682 5.16886 0
M  V30 5452 H 549.991 1.11452 3.61091 0
M  V30 5453 H 550.304 2.86918 7.17564 0
M  V30 5454 H 548.649 2.57388 6.45582 0
M  V30 5455 H 551.84 1.46083 4.44722 0
M  V30 5456 H 552.013 2.26075 6.07284 0
M  V30 5457 O 545.458 -1.54135 0.48216 0
M  V30 5458 H 546.149 -1.93658 -0.0403371 0
M  V30 END ATOM
M  V30 BEGIN BOND
M  V30 END BOND
M  V30 END CTAB
M  END
$$$$
